# Generated by pormake.
# Topology bpr, (3,3)-cn, num edge types: 1
# Building blocks:
#     Node 0, Type 0, BuildingBlock: WUSLED_clean_sbu_0, # of connection points: 3
#     Node 1, Type 0, BuildingBlock: WUSLED_clean_sbu_0, # of connection points: 3
#     Node 2, Type 0, BuildingBlock: WUSLED_clean_sbu_0, # of connection points: 3
#     Node 3, Type 0, BuildingBlock: WUSLED_clean_sbu_0, # of connection points: 3
#     Node 4, Type 0, BuildingBlock: WUSLED_clean_sbu_0, # of connection points: 3
#     Node 5, Type 0, BuildingBlock: WUSLED_clean_sbu_0, # of connection points: 3
#     Node 6, Type 0, BuildingBlock: WUSLED_clean_sbu_0, # of connection points: 3
#     Node 7, Type 0, BuildingBlock: WUSLED_clean_sbu_0, # of connection points: 3
#     Node 8, Type 0, BuildingBlock: WUSLED_clean_sbu_0, # of connection points: 3
#     Node 9, Type 0, BuildingBlock: WUSLED_clean_sbu_0, # of connection points: 3
#     Node 10, Type 0, BuildingBlock: WUSLED_clean_sbu_0, # of connection points: 3
#     Node 11, Type 0, BuildingBlock: WUSLED_clean_sbu_0, # of connection points: 3
#     Node 12, Type 0, BuildingBlock: WUSLED_clean_sbu_0, # of connection points: 3
#     Node 13, Type 0, BuildingBlock: WUSLED_clean_sbu_0, # of connection points: 3
#     Node 14, Type 0, BuildingBlock: WUSLED_clean_sbu_0, # of connection points: 3
#     Node 15, Type 0, BuildingBlock: WUSLED_clean_sbu_0, # of connection points: 3
#     Node 16, Type 0, BuildingBlock: WUSLED_clean_sbu_0, # of connection points: 3
#     Node 17, Type 0, BuildingBlock: WUSLED_clean_sbu_0, # of connection points: 3
#     Node 18, Type 0, BuildingBlock: WUSLED_clean_sbu_0, # of connection points: 3
#     Node 19, Type 0, BuildingBlock: WUSLED_clean_sbu_0, # of connection points: 3
#     Node 20, Type 0, BuildingBlock: WUSLED_clean_sbu_0, # of connection points: 3
#     Node 21, Type 0, BuildingBlock: WUSLED_clean_sbu_0, # of connection points: 3
#     Node 22, Type 0, BuildingBlock: WUSLED_clean_sbu_0, # of connection points: 3
#     Node 23, Type 0, BuildingBlock: WUSLED_clean_sbu_0, # of connection points: 3
#     Node 24, Type 0, BuildingBlock: WUSLED_clean_sbu_0, # of connection points: 3
#     Node 25, Type 0, BuildingBlock: WUSLED_clean_sbu_0, # of connection points: 3
#     Node 26, Type 0, BuildingBlock: WUSLED_clean_sbu_0, # of connection points: 3
#     Node 27, Type 0, BuildingBlock: WUSLED_clean_sbu_0, # of connection points: 3
#     Node 28, Type 0, BuildingBlock: WUSLED_clean_sbu_0, # of connection points: 3
#     Node 29, Type 0, BuildingBlock: WUSLED_clean_sbu_0, # of connection points: 3
#     Node 30, Type 0, BuildingBlock: WUSLED_clean_sbu_0, # of connection points: 3
#     Node 31, Type 0, BuildingBlock: WUSLED_clean_sbu_0, # of connection points: 3
#     Node 32, Type 0, BuildingBlock: WUSLED_clean_sbu_0, # of connection points: 3
#     Node 33, Type 0, BuildingBlock: WUSLED_clean_sbu_0, # of connection points: 3
#     Node 34, Type 0, BuildingBlock: WUSLED_clean_sbu_0, # of connection points: 3
#     Node 35, Type 0, BuildingBlock: WUSLED_clean_sbu_0, # of connection points: 3
#     Node 36, Type 0, BuildingBlock: WUSLED_clean_sbu_0, # of connection points: 3
#     Node 37, Type 0, BuildingBlock: WUSLED_clean_sbu_0, # of connection points: 3
#     Node 38, Type 0, BuildingBlock: WUSLED_clean_sbu_0, # of connection points: 3
#     Node 39, Type 0, BuildingBlock: WUSLED_clean_sbu_0, # of connection points: 3
#     Node 40, Type 0, BuildingBlock: WUSLED_clean_sbu_0, # of connection points: 3
#     Node 41, Type 0, BuildingBlock: WUSLED_clean_sbu_0, # of connection points: 3
#     Node 42, Type 0, BuildingBlock: WUSLED_clean_sbu_0, # of connection points: 3
#     Node 43, Type 0, BuildingBlock: WUSLED_clean_sbu_0, # of connection points: 3
#     Node 44, Type 0, BuildingBlock: WUSLED_clean_sbu_0, # of connection points: 3
#     Node 45, Type 0, BuildingBlock: WUSLED_clean_sbu_0, # of connection points: 3
#     Node 46, Type 0, BuildingBlock: WUSLED_clean_sbu_0, # of connection points: 3
#     Node 47, Type 0, BuildingBlock: WUSLED_clean_sbu_0, # of connection points: 3
#     Node 48, Type 1, BuildingBlock: VETTIZ_charged_linker_0, # of connection points: 3
#     Node 49, Type 1, BuildingBlock: VETTIZ_charged_linker_0, # of connection points: 3
#     Node 50, Type 1, BuildingBlock: VETTIZ_charged_linker_0, # of connection points: 3
#     Node 51, Type 1, BuildingBlock: VETTIZ_charged_linker_0, # of connection points: 3
#     Node 52, Type 1, BuildingBlock: VETTIZ_charged_linker_0, # of connection points: 3
#     Node 53, Type 1, BuildingBlock: VETTIZ_charged_linker_0, # of connection points: 3
#     Node 54, Type 1, BuildingBlock: VETTIZ_charged_linker_0, # of connection points: 3
#     Node 55, Type 1, BuildingBlock: VETTIZ_charged_linker_0, # of connection points: 3
#     Node 56, Type 1, BuildingBlock: VETTIZ_charged_linker_0, # of connection points: 3
#     Node 57, Type 1, BuildingBlock: VETTIZ_charged_linker_0, # of connection points: 3
#     Node 58, Type 1, BuildingBlock: VETTIZ_charged_linker_0, # of connection points: 3
#     Node 59, Type 1, BuildingBlock: VETTIZ_charged_linker_0, # of connection points: 3
#     Node 60, Type 1, BuildingBlock: VETTIZ_charged_linker_0, # of connection points: 3
#     Node 61, Type 1, BuildingBlock: VETTIZ_charged_linker_0, # of connection points: 3
#     Node 62, Type 1, BuildingBlock: VETTIZ_charged_linker_0, # of connection points: 3
#     Node 63, Type 1, BuildingBlock: VETTIZ_charged_linker_0, # of connection points: 3
#     Node 64, Type 1, BuildingBlock: VETTIZ_charged_linker_0, # of connection points: 3
#     Node 65, Type 1, BuildingBlock: VETTIZ_charged_linker_0, # of connection points: 3
#     Node 66, Type 1, BuildingBlock: VETTIZ_charged_linker_0, # of connection points: 3
#     Node 67, Type 1, BuildingBlock: VETTIZ_charged_linker_0, # of connection points: 3
#     Node 68, Type 1, BuildingBlock: VETTIZ_charged_linker_0, # of connection points: 3
#     Node 69, Type 1, BuildingBlock: VETTIZ_charged_linker_0, # of connection points: 3
#     Node 70, Type 1, BuildingBlock: VETTIZ_charged_linker_0, # of connection points: 3
#     Node 71, Type 1, BuildingBlock: VETTIZ_charged_linker_0, # of connection points: 3
#     Node 72, Type 1, BuildingBlock: VETTIZ_charged_linker_0, # of connection points: 3
#     Node 73, Type 1, BuildingBlock: VETTIZ_charged_linker_0, # of connection points: 3
#     Node 74, Type 1, BuildingBlock: VETTIZ_charged_linker_0, # of connection points: 3
#     Node 75, Type 1, BuildingBlock: VETTIZ_charged_linker_0, # of connection points: 3
#     Node 76, Type 1, BuildingBlock: VETTIZ_charged_linker_0, # of connection points: 3
#     Node 77, Type 1, BuildingBlock: VETTIZ_charged_linker_0, # of connection points: 3
#     Node 78, Type 1, BuildingBlock: VETTIZ_charged_linker_0, # of connection points: 3
#     Node 79, Type 1, BuildingBlock: VETTIZ_charged_linker_0, # of connection points: 3
#     Node 80, Type 1, BuildingBlock: VETTIZ_charged_linker_0, # of connection points: 3
#     Node 81, Type 1, BuildingBlock: VETTIZ_charged_linker_0, # of connection points: 3
#     Node 82, Type 1, BuildingBlock: VETTIZ_charged_linker_0, # of connection points: 3
#     Node 83, Type 1, BuildingBlock: VETTIZ_charged_linker_0, # of connection points: 3
#     Node 84, Type 1, BuildingBlock: VETTIZ_charged_linker_0, # of connection points: 3
#     Node 85, Type 1, BuildingBlock: VETTIZ_charged_linker_0, # of connection points: 3
#     Node 86, Type 1, BuildingBlock: VETTIZ_charged_linker_0, # of connection points: 3
#     Node 87, Type 1, BuildingBlock: VETTIZ_charged_linker_0, # of connection points: 3
#     Node 88, Type 1, BuildingBlock: VETTIZ_charged_linker_0, # of connection points: 3
#     Node 89, Type 1, BuildingBlock: VETTIZ_charged_linker_0, # of connection points: 3
#     Node 90, Type 1, BuildingBlock: VETTIZ_charged_linker_0, # of connection points: 3
#     Node 91, Type 1, BuildingBlock: VETTIZ_charged_linker_0, # of connection points: 3
#     Node 92, Type 1, BuildingBlock: VETTIZ_charged_linker_0, # of connection points: 3
#     Node 93, Type 1, BuildingBlock: VETTIZ_charged_linker_0, # of connection points: 3
#     Node 94, Type 1, BuildingBlock: VETTIZ_charged_linker_0, # of connection points: 3
#     Node 95, Type 1, BuildingBlock: VETTIZ_charged_linker_0, # of connection points: 3
#     Edge 96, Type (0, 1), BuildingBlock: UVAHIK_clean_linker_0, # of connection points: 2
#     Edge 97, Type (0, 1), BuildingBlock: UVAHIK_clean_linker_0, # of connection points: 2
#     Edge 98, Type (0, 1), BuildingBlock: UVAHIK_clean_linker_0, # of connection points: 2
#     Edge 99, Type (0, 1), BuildingBlock: UVAHIK_clean_linker_0, # of connection points: 2
#     Edge 100, Type (0, 1), BuildingBlock: UVAHIK_clean_linker_0, # of connection points: 2
#     Edge 101, Type (0, 1), BuildingBlock: UVAHIK_clean_linker_0, # of connection points: 2
#     Edge 102, Type (0, 1), BuildingBlock: UVAHIK_clean_linker_0, # of connection points: 2
#     Edge 103, Type (0, 1), BuildingBlock: UVAHIK_clean_linker_0, # of connection points: 2
#     Edge 104, Type (0, 1), BuildingBlock: UVAHIK_clean_linker_0, # of connection points: 2
#     Edge 105, Type (0, 1), BuildingBlock: UVAHIK_clean_linker_0, # of connection points: 2
#     Edge 106, Type (0, 1), BuildingBlock: UVAHIK_clean_linker_0, # of connection points: 2
#     Edge 107, Type (0, 1), BuildingBlock: UVAHIK_clean_linker_0, # of connection points: 2
#     Edge 108, Type (0, 1), BuildingBlock: UVAHIK_clean_linker_0, # of connection points: 2
#     Edge 109, Type (0, 1), BuildingBlock: UVAHIK_clean_linker_0, # of connection points: 2
#     Edge 110, Type (0, 1), BuildingBlock: UVAHIK_clean_linker_0, # of connection points: 2
#     Edge 111, Type (0, 1), BuildingBlock: UVAHIK_clean_linker_0, # of connection points: 2
#     Edge 112, Type (0, 1), BuildingBlock: UVAHIK_clean_linker_0, # of connection points: 2
#     Edge 113, Type (0, 1), BuildingBlock: UVAHIK_clean_linker_0, # of connection points: 2
#     Edge 114, Type (0, 1), BuildingBlock: UVAHIK_clean_linker_0, # of connection points: 2
#     Edge 115, Type (0, 1), BuildingBlock: UVAHIK_clean_linker_0, # of connection points: 2
#     Edge 116, Type (0, 1), BuildingBlock: UVAHIK_clean_linker_0, # of connection points: 2
#     Edge 117, Type (0, 1), BuildingBlock: UVAHIK_clean_linker_0, # of connection points: 2
#     Edge 118, Type (0, 1), BuildingBlock: UVAHIK_clean_linker_0, # of connection points: 2
#     Edge 119, Type (0, 1), BuildingBlock: UVAHIK_clean_linker_0, # of connection points: 2
#     Edge 120, Type (0, 1), BuildingBlock: UVAHIK_clean_linker_0, # of connection points: 2
#     Edge 121, Type (0, 1), BuildingBlock: UVAHIK_clean_linker_0, # of connection points: 2
#     Edge 122, Type (0, 1), BuildingBlock: UVAHIK_clean_linker_0, # of connection points: 2
#     Edge 123, Type (0, 1), BuildingBlock: UVAHIK_clean_linker_0, # of connection points: 2
#     Edge 124, Type (0, 1), BuildingBlock: UVAHIK_clean_linker_0, # of connection points: 2
#     Edge 125, Type (0, 1), BuildingBlock: UVAHIK_clean_linker_0, # of connection points: 2
#     Edge 126, Type (0, 1), BuildingBlock: UVAHIK_clean_linker_0, # of connection points: 2
#     Edge 127, Type (0, 1), BuildingBlock: UVAHIK_clean_linker_0, # of connection points: 2
#     Edge 128, Type (0, 1), BuildingBlock: UVAHIK_clean_linker_0, # of connection points: 2
#     Edge 129, Type (0, 1), BuildingBlock: UVAHIK_clean_linker_0, # of connection points: 2
#     Edge 130, Type (0, 1), BuildingBlock: UVAHIK_clean_linker_0, # of connection points: 2
#     Edge 131, Type (0, 1), BuildingBlock: UVAHIK_clean_linker_0, # of connection points: 2
#     Edge 132, Type (0, 1), BuildingBlock: UVAHIK_clean_linker_0, # of connection points: 2
#     Edge 133, Type (0, 1), BuildingBlock: UVAHIK_clean_linker_0, # of connection points: 2
#     Edge 134, Type (0, 1), BuildingBlock: UVAHIK_clean_linker_0, # of connection points: 2
#     Edge 135, Type (0, 1), BuildingBlock: UVAHIK_clean_linker_0, # of connection points: 2
#     Edge 136, Type (0, 1), BuildingBlock: UVAHIK_clean_linker_0, # of connection points: 2
#     Edge 137, Type (0, 1), BuildingBlock: UVAHIK_clean_linker_0, # of connection points: 2
#     Edge 138, Type (0, 1), BuildingBlock: UVAHIK_clean_linker_0, # of connection points: 2
#     Edge 139, Type (0, 1), BuildingBlock: UVAHIK_clean_linker_0, # of connection points: 2
#     Edge 140, Type (0, 1), BuildingBlock: UVAHIK_clean_linker_0, # of connection points: 2
#     Edge 141, Type (0, 1), BuildingBlock: UVAHIK_clean_linker_0, # of connection points: 2
#     Edge 142, Type (0, 1), BuildingBlock: UVAHIK_clean_linker_0, # of connection points: 2
#     Edge 143, Type (0, 1), BuildingBlock: UVAHIK_clean_linker_0, # of connection points: 2
#     Edge 144, Type (0, 1), BuildingBlock: UVAHIK_clean_linker_0, # of connection points: 2
#     Edge 145, Type (0, 1), BuildingBlock: UVAHIK_clean_linker_0, # of connection points: 2
#     Edge 146, Type (0, 1), BuildingBlock: UVAHIK_clean_linker_0, # of connection points: 2
#     Edge 147, Type (0, 1), BuildingBlock: UVAHIK_clean_linker_0, # of connection points: 2
#     Edge 148, Type (0, 1), BuildingBlock: UVAHIK_clean_linker_0, # of connection points: 2
#     Edge 149, Type (0, 1), BuildingBlock: UVAHIK_clean_linker_0, # of connection points: 2
#     Edge 150, Type (0, 1), BuildingBlock: UVAHIK_clean_linker_0, # of connection points: 2
#     Edge 151, Type (0, 1), BuildingBlock: UVAHIK_clean_linker_0, # of connection points: 2
#     Edge 152, Type (0, 1), BuildingBlock: UVAHIK_clean_linker_0, # of connection points: 2
#     Edge 153, Type (0, 1), BuildingBlock: UVAHIK_clean_linker_0, # of connection points: 2
#     Edge 154, Type (0, 1), BuildingBlock: UVAHIK_clean_linker_0, # of connection points: 2
#     Edge 155, Type (0, 1), BuildingBlock: UVAHIK_clean_linker_0, # of connection points: 2
#     Edge 156, Type (0, 1), BuildingBlock: UVAHIK_clean_linker_0, # of connection points: 2
#     Edge 157, Type (0, 1), BuildingBlock: UVAHIK_clean_linker_0, # of connection points: 2
#     Edge 158, Type (0, 1), BuildingBlock: UVAHIK_clean_linker_0, # of connection points: 2
#     Edge 159, Type (0, 1), BuildingBlock: UVAHIK_clean_linker_0, # of connection points: 2
#     Edge 160, Type (0, 1), BuildingBlock: UVAHIK_clean_linker_0, # of connection points: 2
#     Edge 161, Type (0, 1), BuildingBlock: UVAHIK_clean_linker_0, # of connection points: 2
#     Edge 162, Type (0, 1), BuildingBlock: UVAHIK_clean_linker_0, # of connection points: 2
#     Edge 163, Type (0, 1), BuildingBlock: UVAHIK_clean_linker_0, # of connection points: 2
#     Edge 164, Type (0, 1), BuildingBlock: UVAHIK_clean_linker_0, # of connection points: 2
#     Edge 165, Type (0, 1), BuildingBlock: UVAHIK_clean_linker_0, # of connection points: 2
#     Edge 166, Type (0, 1), BuildingBlock: UVAHIK_clean_linker_0, # of connection points: 2
#     Edge 167, Type (0, 1), BuildingBlock: UVAHIK_clean_linker_0, # of connection points: 2
#     Edge 168, Type (0, 1), BuildingBlock: UVAHIK_clean_linker_0, # of connection points: 2
#     Edge 169, Type (0, 1), BuildingBlock: UVAHIK_clean_linker_0, # of connection points: 2
#     Edge 170, Type (0, 1), BuildingBlock: UVAHIK_clean_linker_0, # of connection points: 2
#     Edge 171, Type (0, 1), BuildingBlock: UVAHIK_clean_linker_0, # of connection points: 2
#     Edge 172, Type (0, 1), BuildingBlock: UVAHIK_clean_linker_0, # of connection points: 2
#     Edge 173, Type (0, 1), BuildingBlock: UVAHIK_clean_linker_0, # of connection points: 2
#     Edge 174, Type (0, 1), BuildingBlock: UVAHIK_clean_linker_0, # of connection points: 2
#     Edge 175, Type (0, 1), BuildingBlock: UVAHIK_clean_linker_0, # of connection points: 2
#     Edge 176, Type (0, 1), BuildingBlock: UVAHIK_clean_linker_0, # of connection points: 2
#     Edge 177, Type (0, 1), BuildingBlock: UVAHIK_clean_linker_0, # of connection points: 2
#     Edge 178, Type (0, 1), BuildingBlock: UVAHIK_clean_linker_0, # of connection points: 2
#     Edge 179, Type (0, 1), BuildingBlock: UVAHIK_clean_linker_0, # of connection points: 2
#     Edge 180, Type (0, 1), BuildingBlock: UVAHIK_clean_linker_0, # of connection points: 2
#     Edge 181, Type (0, 1), BuildingBlock: UVAHIK_clean_linker_0, # of connection points: 2
#     Edge 182, Type (0, 1), BuildingBlock: UVAHIK_clean_linker_0, # of connection points: 2
#     Edge 183, Type (0, 1), BuildingBlock: UVAHIK_clean_linker_0, # of connection points: 2
#     Edge 184, Type (0, 1), BuildingBlock: UVAHIK_clean_linker_0, # of connection points: 2
#     Edge 185, Type (0, 1), BuildingBlock: UVAHIK_clean_linker_0, # of connection points: 2
#     Edge 186, Type (0, 1), BuildingBlock: UVAHIK_clean_linker_0, # of connection points: 2
#     Edge 187, Type (0, 1), BuildingBlock: UVAHIK_clean_linker_0, # of connection points: 2
#     Edge 188, Type (0, 1), BuildingBlock: UVAHIK_clean_linker_0, # of connection points: 2
#     Edge 189, Type (0, 1), BuildingBlock: UVAHIK_clean_linker_0, # of connection points: 2
#     Edge 190, Type (0, 1), BuildingBlock: UVAHIK_clean_linker_0, # of connection points: 2
#     Edge 191, Type (0, 1), BuildingBlock: UVAHIK_clean_linker_0, # of connection points: 2
#     Edge 192, Type (0, 1), BuildingBlock: UVAHIK_clean_linker_0, # of connection points: 2
#     Edge 193, Type (0, 1), BuildingBlock: UVAHIK_clean_linker_0, # of connection points: 2
#     Edge 194, Type (0, 1), BuildingBlock: UVAHIK_clean_linker_0, # of connection points: 2
#     Edge 195, Type (0, 1), BuildingBlock: UVAHIK_clean_linker_0, # of connection points: 2
#     Edge 196, Type (0, 1), BuildingBlock: UVAHIK_clean_linker_0, # of connection points: 2
#     Edge 197, Type (0, 1), BuildingBlock: UVAHIK_clean_linker_0, # of connection points: 2
#     Edge 198, Type (0, 1), BuildingBlock: UVAHIK_clean_linker_0, # of connection points: 2
#     Edge 199, Type (0, 1), BuildingBlock: UVAHIK_clean_linker_0, # of connection points: 2
#     Edge 200, Type (0, 1), BuildingBlock: UVAHIK_clean_linker_0, # of connection points: 2
#     Edge 201, Type (0, 1), BuildingBlock: UVAHIK_clean_linker_0, # of connection points: 2
#     Edge 202, Type (0, 1), BuildingBlock: UVAHIK_clean_linker_0, # of connection points: 2
#     Edge 203, Type (0, 1), BuildingBlock: UVAHIK_clean_linker_0, # of connection points: 2
#     Edge 204, Type (0, 1), BuildingBlock: UVAHIK_clean_linker_0, # of connection points: 2
#     Edge 205, Type (0, 1), BuildingBlock: UVAHIK_clean_linker_0, # of connection points: 2
#     Edge 206, Type (0, 1), BuildingBlock: UVAHIK_clean_linker_0, # of connection points: 2
#     Edge 207, Type (0, 1), BuildingBlock: UVAHIK_clean_linker_0, # of connection points: 2
#     Edge 208, Type (0, 1), BuildingBlock: UVAHIK_clean_linker_0, # of connection points: 2
#     Edge 209, Type (0, 1), BuildingBlock: UVAHIK_clean_linker_0, # of connection points: 2
#     Edge 210, Type (0, 1), BuildingBlock: UVAHIK_clean_linker_0, # of connection points: 2
#     Edge 211, Type (0, 1), BuildingBlock: UVAHIK_clean_linker_0, # of connection points: 2
#     Edge 212, Type (0, 1), BuildingBlock: UVAHIK_clean_linker_0, # of connection points: 2
#     Edge 213, Type (0, 1), BuildingBlock: UVAHIK_clean_linker_0, # of connection points: 2
#     Edge 214, Type (0, 1), BuildingBlock: UVAHIK_clean_linker_0, # of connection points: 2
#     Edge 215, Type (0, 1), BuildingBlock: UVAHIK_clean_linker_0, # of connection points: 2
#     Edge 216, Type (0, 1), BuildingBlock: UVAHIK_clean_linker_0, # of connection points: 2
#     Edge 217, Type (0, 1), BuildingBlock: UVAHIK_clean_linker_0, # of connection points: 2
#     Edge 218, Type (0, 1), BuildingBlock: UVAHIK_clean_linker_0, # of connection points: 2
#     Edge 219, Type (0, 1), BuildingBlock: UVAHIK_clean_linker_0, # of connection points: 2
#     Edge 220, Type (0, 1), BuildingBlock: UVAHIK_clean_linker_0, # of connection points: 2
#     Edge 221, Type (0, 1), BuildingBlock: UVAHIK_clean_linker_0, # of connection points: 2
#     Edge 222, Type (0, 1), BuildingBlock: UVAHIK_clean_linker_0, # of connection points: 2
#     Edge 223, Type (0, 1), BuildingBlock: UVAHIK_clean_linker_0, # of connection points: 2
#     Edge 224, Type (0, 1), BuildingBlock: UVAHIK_clean_linker_0, # of connection points: 2
#     Edge 225, Type (0, 1), BuildingBlock: UVAHIK_clean_linker_0, # of connection points: 2
#     Edge 226, Type (0, 1), BuildingBlock: UVAHIK_clean_linker_0, # of connection points: 2
#     Edge 227, Type (0, 1), BuildingBlock: UVAHIK_clean_linker_0, # of connection points: 2
#     Edge 228, Type (0, 1), BuildingBlock: UVAHIK_clean_linker_0, # of connection points: 2
#     Edge 229, Type (0, 1), BuildingBlock: UVAHIK_clean_linker_0, # of connection points: 2
#     Edge 230, Type (0, 1), BuildingBlock: UVAHIK_clean_linker_0, # of connection points: 2
#     Edge 231, Type (0, 1), BuildingBlock: UVAHIK_clean_linker_0, # of connection points: 2
#     Edge 232, Type (0, 1), BuildingBlock: UVAHIK_clean_linker_0, # of connection points: 2
#     Edge 233, Type (0, 1), BuildingBlock: UVAHIK_clean_linker_0, # of connection points: 2
#     Edge 234, Type (0, 1), BuildingBlock: UVAHIK_clean_linker_0, # of connection points: 2
#     Edge 235, Type (0, 1), BuildingBlock: UVAHIK_clean_linker_0, # of connection points: 2
#     Edge 236, Type (0, 1), BuildingBlock: UVAHIK_clean_linker_0, # of connection points: 2
#     Edge 237, Type (0, 1), BuildingBlock: UVAHIK_clean_linker_0, # of connection points: 2
#     Edge 238, Type (0, 1), BuildingBlock: UVAHIK_clean_linker_0, # of connection points: 2
#     Edge 239, Type (0, 1), BuildingBlock: UVAHIK_clean_linker_0, # of connection points: 2
# Relax obj value: 0.094
# Max RMSD: 0.079
# Mean RMSD: 0.075
data_MOF--net-bpr--node1-WUSLED_clean_sbu_0--node2-VETTIZ_charged_linker_0--edge1-UVAHIK_clean_linker_0
_symmetry_space_group_name_H-M    P1
_symmetry_Int_Tables_number       1
_symmetry_cell_setting            triclinic
loop_
_symmetry_equiv_pos_as_xyz
'x, y, z'
_cell_length_a     148.1127
_cell_length_b     148.19154
_cell_length_c     149.01478
_cell_angle_alpha  90.050187
_cell_angle_beta   90.007137
_cell_angle_gamma 90.077205
loop_
_atom_site_label
_atom_site_type_symbol
_atom_site_fract_x
_atom_site_fract_y
_atom_site_fract_z
_atom_type_partial_charge
C0 C 0.00772 0.37467 0.26609 0.0
C1 C 0.00822 0.37236 0.2752 0.0
C2 C 0.99399 0.38002 0.27806 0.0
C3 C 1.00141 0.37497 0.28112 0.0
C4 C 0.99355 0.38242 0.26893 0.0
C5 C 1.00037 0.37973 0.26298 0.0
U6 U 0.03163 0.36698 0.26352 0.0
O7 O 0.03806 0.35686 0.2548 0.0
O8 O 0.04253 0.37099 0.25435 0.0
C9 C 0.0432 0.36289 0.25082 0.0
C10 C 0.01509 0.3721 0.25999 0.0
C11 C 0.04333 0.36253 0.24097 0.0
C12 C 0.03691 0.36632 0.22645 0.0
C13 C 0.03645 0.36648 0.23584 0.0
C14 C 0.05103 0.35811 0.2273 0.0
C15 C 0.04425 0.36217 0.22208 0.0
C16 C 0.05057 0.3583 0.23666 0.0
C17 C 0.04492 0.36416 0.28539 0.0
C18 C 0.06003 0.35785 0.28623 0.0
C19 C 0.05373 0.36578 0.299 0.0
C20 C 0.04578 0.36728 0.29421 0.0
C21 C 0.06097 0.36112 0.29505 0.0
C22 C 0.05207 0.35941 0.28141 0.0
C23 C 0.03663 0.36624 0.2804 0.0
O24 O 0.02199 0.37768 0.25995 0.0
O25 O 0.01752 0.36357 0.26043 0.0
O26 O 0.03279 0.35944 0.27618 0.0
O27 O 0.03694 0.37366 0.27559 0.0
H28 H 0.01392 0.36857 0.27775 0.0
H29 H 1.00203 0.37316 0.28813 0.0
H30 H 0.9879 0.38628 0.26639 0.0
H31 H 0.99992 0.38164 0.25598 0.0
H32 H 0.03154 0.36943 0.22262 0.0
H33 H 0.03078 0.36974 0.23908 0.0
H34 H 0.05683 0.35498 0.22416 0.0
H35 H 0.05594 0.35523 0.24053 0.0
H36 H 0.06552 0.35429 0.28299 0.0
H37 H 0.05421 0.36827 0.30582 0.0
H38 H 0.04032 0.37096 0.29738 0.0
H39 H 0.05153 0.357 0.27456 0.0
C40 C 0.86985 0.74002 0.52872 0.0
C41 C 0.86657 0.73828 0.53738 0.0
C42 C 0.86923 0.72221 0.53531 0.0
C43 C 0.86626 0.72946 0.54064 0.0
C44 C 0.8723 0.72397 0.52654 0.0
C45 C 0.87263 0.73282 0.52328 0.0
U46 U 0.86783 0.76475 0.53381 0.0
O47 O 0.87674 0.77623 0.53093 0.0
O48 O 0.8628 0.77623 0.52588 0.0
C49 C 0.87069 0.78031 0.52592 0.0
C50 C 0.87073 0.74938 0.5256 0.0
C51 C 0.87388 0.78369 0.5172 0.0
C52 C 0.88325 0.78239 0.50386 0.0
C53 C 0.88002 0.77878 0.51193 0.0
C54 C 0.87408 0.79573 0.50617 0.0
C55 C 0.88034 0.79093 0.50092 0.0
C56 C 0.8709 0.79214 0.51424 0.0
C57 C 0.85987 0.77142 0.55715 0.0
C58 C 0.85955 0.78711 0.56187 0.0
C59 C 0.85428 0.77539 0.57194 0.0
C60 C 0.85623 0.76887 0.56544 0.0
C61 C 0.85595 0.78459 0.57025 0.0
C62 C 0.86149 0.78058 0.55537 0.0
C63 C 0.86205 0.7645 0.55046 0.0
O64 O 0.8631 0.75385 0.52493 0.0
O65 O 0.87715 0.75402 0.52959 0.0
O66 O 0.87063 0.76396 0.54827 0.0
O67 O 0.85662 0.76415 0.54349 0.0
H68 H 0.86439 0.74377 0.54166 0.0
H69 H 0.86374 0.72832 0.54737 0.0
H70 H 0.87471 0.71854 0.52231 0.0
H71 H 0.8752 0.73407 0.51659 0.0
H72 H 0.88799 0.7785 0.49991 0.0
H73 H 0.88236 0.77221 0.51408 0.0
H74 H 0.8718 0.80236 0.50416 0.0
H75 H 0.86619 0.79603 0.51824 0.0
H76 H 0.86102 0.79411 0.56039 0.0
H77 H 0.8514 0.77323 0.57827 0.0
H78 H 0.85492 0.76183 0.5669 0.0
H79 H 0.86431 0.78265 0.54899 0.0
C80 C 0.47981 0.63731 0.73728 0.0
C81 C 0.47098 0.64025 0.73559 0.0
C82 C 0.47309 0.63772 0.71959 0.0
C83 C 0.46765 0.64046 0.72683 0.0
C84 C 0.48204 0.63502 0.72129 0.0
C85 C 0.48536 0.63479 0.73009 0.0
U86 U 0.47464 0.63882 0.7619 0.0
O87 O 0.47777 0.6298 0.77315 0.0
O88 O 0.48249 0.64387 0.77343 0.0
C89 C 0.48264 0.63593 0.77734 0.0
C90 C 0.48299 0.63646 0.74657 0.0
C91 C 0.49145 0.63293 0.7808 0.0
C92 C 0.50462 0.62316 0.7802 0.0
C93 C 0.49661 0.62636 0.77635 0.0
C94 C 0.5025 0.63327 0.79281 0.0
C95 C 0.5076 0.62653 0.78852 0.0
C96 C 0.4945 0.63642 0.78899 0.0
C97 C 0.45095 0.64567 0.76881 0.0
C98 C 0.44574 0.64394 0.78416 0.0
C99 C 0.43643 0.65177 0.77329 0.0
C100 C 0.443 0.65033 0.76671 0.0
C101 C 0.43769 0.64852 0.78207 0.0
C102 C 0.45232 0.64255 0.77759 0.0
C103 C 0.4577 0.64398 0.7618 0.0
O104 O 0.48337 0.64405 0.75113 0.0
O105 O 0.47923 0.62983 0.75109 0.0
O106 O 0.46021 0.63552 0.76095 0.0
O107 O 0.46451 0.64968 0.7616 0.0
H108 H 0.4666 0.64223 0.74107 0.0
H109 H 0.46078 0.64269 0.72572 0.0
H110 H 0.48636 0.6328 0.71587 0.0
H111 H 0.49219 0.63248 0.7313 0.0
H112 H 0.50844 0.61803 0.77669 0.0
H113 H 0.49439 0.6236 0.76998 0.0
H114 H 0.50454 0.63592 0.79928 0.0
H115 H 0.49059 0.64146 0.79254 0.0
H116 H 0.44696 0.64147 0.79089 0.0
H117 H 0.43027 0.65526 0.77147 0.0
H118 H 0.44185 0.65278 0.75996 0.0
H119 H 0.45846 0.639 0.77934 0.0
C120 C 0.6355 0.26868 0.02779 0.0
C121 C 0.64024 0.27093 0.03563 0.0
C122 C 0.63756 0.2869 0.03288 0.0
C123 C 0.64128 0.27995 0.03814 0.0
C124 C 0.63285 0.2846 0.02499 0.0
C125 C 0.63184 0.27555 0.02246 0.0
U126 U 0.63674 0.24433 0.03462 0.0
O127 O 0.62729 0.23302 0.03286 0.0
O128 O 0.64105 0.23209 0.02744 0.0
C129 C 0.63306 0.22828 0.0281 0.0
C130 C 0.63409 0.25915 0.02542 0.0
C131 C 0.62949 0.22418 0.01986 0.0
C132 C 0.6215 0.2251 0.00564 0.0
C133 C 0.62514 0.22932 0.01325 0.0
C134 C 0.62669 0.21063 0.01116 0.0
C135 C 0.62216 0.21568 0.00456 0.0
C136 C 0.6303 0.21484 0.01873 0.0
C137 C 0.64517 0.23894 0.05804 0.0
C138 C 0.64494 0.22354 0.06358 0.0
C139 C 0.65059 0.23561 0.07304 0.0
C140 C 0.64889 0.24183 0.06619 0.0
C141 C 0.64858 0.2264 0.07184 0.0
C142 C 0.64325 0.22976 0.05674 0.0
C143 C 0.6431 0.24555 0.05101 0.0
O144 O 0.64149 0.2543 0.02477 0.0
O145 O 0.62767 0.25511 0.03 0.0
O146 O 0.63448 0.24633 0.04906 0.0
O147 O 0.64829 0.24519 0.04387 0.0
H148 H 0.64303 0.2657 0.03987 0.0
H149 H 0.64481 0.28147 0.04432 0.0
H150 H 0.62997 0.28979 0.02077 0.0
H151 H 0.62814 0.27391 0.01641 0.0
H152 H 0.61802 0.22917 1.0007 0.0
H153 H 0.62446 0.23656 0.01403 0.0
H154 H 0.62749 0.2034 0.01045 0.0
H155 H 0.63369 0.21078 0.02375 0.0
H156 H 0.64319 0.21653 0.06248 0.0
H157 H 0.65351 0.23802 0.07926 0.0
H158 H 0.65043 0.24889 0.06728 0.0
H159 H 0.64034 0.22744 0.05048 0.0
C160 C 0.00766 0.63304 0.24108 0.0
C161 C 0.00787 0.63584 0.23209 0.0
C162 C 0.99384 0.62782 0.22914 0.0
C163 C 1.00101 0.63329 0.22619 0.0
C164 C 0.99366 0.62499 0.23815 0.0
C165 C 1.00053 0.62761 0.24409 0.0
U166 U 0.03168 0.64042 0.24313 0.0
O167 O 0.03864 0.65007 0.25199 0.0
O168 O 0.04289 0.63587 0.25165 0.0
C169 C 0.0439 0.64382 0.25543 0.0
C170 C 0.01521 0.63537 0.24706 0.0
C171 C 0.04469 0.64377 0.26524 0.0
C172 C 0.03839 0.64133 0.2801 0.0
C173 C 0.0373 0.64171 0.27076 0.0
C174 C 0.05421 0.64519 0.27839 0.0
C175 C 0.0469 0.64295 0.28399 0.0
C176 C 0.0531 0.64558 0.26911 0.0
C177 C 0.04442 0.64367 0.22112 0.0
C178 C 0.05985 0.64922 0.2205 0.0
C179 C 0.05312 0.64218 0.20742 0.0
C180 C 0.04509 0.64091 0.21216 0.0
C181 C 0.06061 0.64626 0.21156 0.0
C182 C 0.05182 0.64789 0.22527 0.0
C183 C 0.03614 0.64164 0.22614 0.0
O184 O 0.02203 0.62972 0.24674 0.0
O185 O 0.01774 0.64388 0.24683 0.0
O186 O 0.03259 0.64836 0.23069 0.0
O187 O 0.03634 0.63404 0.23065 0.0
H188 H 0.01341 0.6399 0.22959 0.0
H189 H 1.00145 0.63543 0.21925 0.0
H190 H 0.9882 0.6208 0.24062 0.0
H191 H 1.00032 0.62532 0.25099 0.0
H192 H 0.03265 0.63954 0.28424 0.0
H193 H 0.03075 0.64027 0.26785 0.0
H194 H 0.06081 0.64662 0.28119 0.0
H195 H 0.05886 0.64722 0.26493 0.0
H196 H 0.06554 0.65232 0.22388 0.0
H197 H 0.05347 0.63994 0.20051 0.0
H198 H 0.03944 0.63763 0.20887 0.0
H199 H 0.05143 0.64999 0.23222 0.0
C200 C 0.63416 0.73831 0.47783 0.0
C201 C 0.62855 0.7351 0.47091 0.0
C202 C 0.63571 0.72033 0.47161 0.0
C203 C 0.6293 0.72622 0.46788 0.0
C204 C 0.64116 0.72346 0.4787 0.0
C205 C 0.64038 0.73236 0.48179 0.0
U206 U 0.63725 0.76296 0.47209 0.0
O207 O 0.62881 0.77485 0.47461 0.0
O208 O 0.64271 0.77447 0.47974 0.0
C209 C 0.63503 0.7789 0.47945 0.0
C210 C 0.63387 0.7479 0.48065 0.0
C211 C 0.63188 0.78282 0.48794 0.0
C212 C 0.62361 0.78181 0.502 0.0
C213 C 0.62718 0.77767 0.49431 0.0
C214 C 0.62964 0.79619 0.49706 0.0
C215 C 0.62468 0.79116 0.50336 0.0
C216 C 0.63319 0.79206 0.48942 0.0
C217 C 0.6448 0.76876 0.44843 0.0
C218 C 0.64456 0.78421 0.44302 0.0
C219 C 0.65044 0.77228 0.43355 0.0
C220 C 0.64868 0.76599 0.44032 0.0
C221 C 0.64833 0.78146 0.43479 0.0
C222 C 0.64282 0.77791 0.44978 0.0
C223 C 0.64265 0.76205 0.45535 0.0
O224 O 0.64172 0.75203 0.48109 0.0
O225 O 0.62754 0.75286 0.47692 0.0
O226 O 0.63412 0.76173 0.45774 0.0
O227 O 0.64823 0.7618 0.4622 0.0
H228 H 0.62365 0.73946 0.46772 0.0
H229 H 0.62485 0.72399 0.46255 0.0
H230 H 0.6462 0.71913 0.4817 0.0
H231 H 0.64477 0.73466 0.48714 0.0
H232 H 0.6198 0.77777 0.50671 0.0
H233 H 0.6261 0.77052 0.49325 0.0
H234 H 0.63073 0.80336 0.49799 0.0
H235 H 0.63682 0.79612 0.48457 0.0
H236 H 0.64274 0.79119 0.44416 0.0
H237 H 0.65348 0.76995 0.42736 0.0
H238 H 0.65028 0.75894 0.43919 0.0
H239 H 0.63981 0.78016 0.45603 0.0
C240 C 0.50033 0.37638 0.74043 0.0
C241 C 0.50112 0.37281 0.73174 0.0
C242 C 0.51438 0.38212 0.72899 0.0
C243 C 0.5081 0.37561 0.72609 0.0
C244 C 0.51357 0.38568 0.73771 0.0
C245 C 0.50661 0.38281 0.74339 0.0
U246 U 0.47633 0.36838 0.74207 0.0
O247 O 0.46955 0.35862 0.75093 0.0
O248 O 0.46497 0.3727 0.75052 0.0
C249 C 0.46412 0.36474 0.75432 0.0
C250 C 0.49265 0.37383 0.74616 0.0
C251 C 0.46326 0.36483 0.76412 0.0
C252 C 0.4694 0.3674 0.77904 0.0
C253 C 0.47058 0.36699 0.76971 0.0
C254 C 0.45363 0.3634 0.7772 0.0
C255 C 0.46087 0.36573 0.78286 0.0
C256 C 0.45482 0.36297 0.76792 0.0
C257 C 0.46374 0.36468 0.72005 0.0
C258 C 0.44881 0.3579 0.71919 0.0
C259 C 0.45473 0.36632 0.70656 0.0
C260 C 0.46269 0.36798 0.71131 0.0
C261 C 0.44768 0.36132 0.71046 0.0
C262 C 0.45677 0.35961 0.72398 0.0
C263 C 0.47195 0.36698 0.72507 0.0
O264 O 0.4857 0.37932 0.74572 0.0
O265 O 0.49032 0.36526 0.74587 0.0
O266 O 0.4757 0.36038 0.72964 0.0
O267 O 0.47155 0.3746 0.72956 0.0
H268 H 0.49625 0.36795 0.72925 0.0
H269 H 0.50845 0.37285 0.71937 0.0
H270 H 0.51833 0.39068 0.74013 0.0
H271 H 0.50605 0.3857 0.75005 0.0
H272 H 0.47508 0.36926 0.78322 0.0
H273 H 0.47714 0.36847 0.76686 0.0
H274 H 0.44702 0.36193 0.77994 0.0
H275 H 0.44911 0.36126 0.7637 0.0
H276 H 0.44347 0.35408 0.72239 0.0
H277 H 0.4541 0.36895 0.69981 0.0
H278 H 0.46799 0.37192 0.70819 0.0
H279 H 0.45743 0.3571 0.73077 0.0
C280 C 0.87894 0.23863 0.99935 0.0
C281 C 0.87705 0.22936 0.99902 0.0
C282 C 0.88553 0.22699 0.01282 0.0
C283 C 0.88028 0.22361 0.0057 0.0
C284 C 0.88738 0.23631 0.01313 0.0
C285 C 0.88411 0.24208 0.00644 0.0
U286 U 0.86996 0.24109 0.9759 0.0
O287 O 0.85936 0.24974 0.97015 0.0
O288 O 0.87324 0.25055 0.96504 0.0
C289 C 0.86504 0.25392 0.9648 0.0
C290 C 0.87579 0.2446 0.99213 0.0
C291 C 0.86447 0.2638 0.96472 0.0
C292 C 0.86856 0.27851 0.97071 0.0
C293 C 0.86885 0.26908 0.97123 0.0
C294 C 0.85935 0.27743 0.9573 0.0
C295 C 0.86385 0.28279 0.96369 0.0
C296 C 0.85966 0.26803 0.95782 0.0
C297 C 0.86678 0.21962 0.96219 0.0
C298 C 0.85939 0.2195 0.94763 0.0
C299 C 0.868 0.2065 0.95253 0.0
C300 C 0.87001 0.21089 0.96058 0.0
C301 C 0.8627 0.21076 0.94595 0.0
C302 C 0.86146 0.22391 0.95567 0.0
C303 C 0.86929 0.22424 0.97054 0.0
O304 O 0.88104 0.24484 0.98502 0.0
O305 O 0.86717 0.24386 0.99013 0.0
O306 O 0.86267 0.2282 0.97489 0.0
O307 O 0.87662 0.22922 0.97004 0.0
H308 H 0.8731 0.22657 0.99356 0.0
H309 H 0.87859 0.2165 0.00531 0.0
H310 H 0.8915 0.23913 0.01845 0.0
H311 H 0.8857 0.24922 0.00676 0.0
H312 H 0.87202 0.28245 0.97577 0.0
H313 H 0.87257 0.2659 0.97663 0.0
H314 H 0.85579 0.28048 0.95173 0.0
H315 H 0.85627 0.26405 0.95273 0.0
H316 H 0.85537 0.22298 0.94265 0.0
H317 H 0.87054 0.19973 0.95147 0.0
H318 H 0.87414 0.20749 0.96553 0.0
H319 H 0.85899 0.2307 0.95678 0.0
C320 C 0.23924 0.02799 0.37201 0.0
C321 C 0.23614 0.03631 0.37531 0.0
C322 C 0.22092 0.03296 0.37006 0.0
C323 C 0.22708 0.03873 0.3744 0.0
C324 C 0.22405 0.02463 0.36676 0.0
C325 C 0.23312 0.02216 0.36775 0.0
U326 U 0.26402 0.03409 0.36993 0.0
O327 O 0.27562 0.03122 0.37864 0.0
O328 O 0.2756 0.0264 0.36469 0.0
C329 C 0.27973 0.02635 0.3725 0.0
C330 C 0.24884 0.02543 0.37272 0.0
C331 C 0.28324 0.01756 0.37547 0.0
C332 C 0.28227 0.00403 0.38464 0.0
C333 C 0.27854 0.01217 0.38164 0.0
C334 C 0.29533 0.00653 0.37515 0.0
C335 C 0.29073 1.00114 0.38144 0.0
C336 C 0.29162 0.01466 0.37221 0.0
C337 C 0.27057 0.05759 0.36235 0.0
C338 C 0.28621 0.06246 0.36284 0.0
C339 C 0.27491 0.07199 0.35589 0.0
C340 C 0.26827 0.06557 0.35787 0.0
C341 C 0.28395 0.07052 0.35841 0.0
C342 C 0.27958 0.05604 0.36478 0.0
C343 C 0.26356 0.05089 0.36444 0.0
O344 O 0.25325 0.02504 0.36507 0.0
O345 O 0.25345 0.02939 0.37916 0.0
O346 O 0.26301 0.04857 0.37293 0.0
O347 O 0.2632 0.04396 0.35894 0.0
H348 H 0.24072 0.04097 0.37859 0.0
H349 H 0.22491 0.04513 0.37718 0.0
H350 H 0.21955 0.02006 0.36326 0.0
H351 H 0.23538 0.01574 0.36509 0.0
H352 H 0.27854 0.99999 0.38941 0.0
H353 H 0.27202 0.01427 0.3842 0.0
H354 H 0.3019 0.00456 0.37265 0.0
H355 H 0.29536 0.01875 0.36747 0.0
H356 H 0.29313 0.06108 0.36475 0.0
H357 H 0.27295 0.07816 0.35254 0.0
H358 H 0.26134 0.06685 0.35594 0.0
H359 H 0.28148 0.04986 0.36818 0.0
C360 C 0.24145 0.0059 0.63345 0.0
C361 C 0.23271 0.00502 0.637 0.0
C362 C 0.23004 0.99176 0.62774 0.0
C363 C 0.22709 0.998 0.63422 0.0
C364 C 0.2388 0.99265 0.62419 0.0
C365 C 0.24447 0.99966 0.62705 0.0
U366 U 0.2428 0.02993 0.64124 0.0
O367 O 0.25145 0.03687 0.65108 0.0
O368 O 0.25127 0.04135 0.63703 0.0
C369 C 0.25491 0.04231 0.64502 0.0
C370 C 0.24714 0.01364 0.63598 0.0
C371 C 0.26475 0.04336 0.6452 0.0
C372 C 0.2799 0.03811 0.64174 0.0
C373 C 0.27054 0.03668 0.64183 0.0
C374 C 0.27769 0.05281 0.64852 0.0
C375 C 0.28356 0.04625 0.64499 0.0
C376 C 0.26839 0.05138 0.64862 0.0
C377 C 0.22053 0.04228 0.64462 0.0
C378 C 0.21976 0.05742 0.65087 0.0
C379 C 0.2068 0.05105 0.64317 0.0
C380 C 0.21161 0.0431 0.64164 0.0
C381 C 0.21085 0.05833 0.64773 0.0
C382 C 0.22459 0.04946 0.64928 0.0
C383 C 0.22564 0.0341 0.6424 0.0
O384 O 0.2467 0.02054 0.63046 0.0
O385 O 0.24676 0.01602 0.64449 0.0
O386 O 0.23019 0.03041 0.64902 0.0
O387 O 0.23024 0.03454 0.63488 0.0
H388 H 0.23018 0.00987 0.64184 0.0
H389 H 0.22033 0.99759 0.63696 0.0
H390 H 0.24127 0.98792 0.61922 0.0
H391 H 0.25116 1.00028 0.62417 0.0
H392 H 0.28424 0.03295 0.63894 0.0
H393 H 0.26781 0.03044 0.63916 0.0
H394 H 0.2803 0.05909 0.65122 0.0
H395 H 0.26401 0.05658 0.65128 0.0
H396 H 0.22307 0.06294 0.65433 0.0
H397 H 0.19992 0.05152 0.64077 0.0
H398 H 0.2084 0.03763 0.63802 0.0
H399 H 0.23152 0.04897 0.65155 0.0
C400 C 0.24117 1.00063 0.87425 0.0
C401 C 0.23217 1.00054 0.87131 0.0
C402 C 0.2293 0.01468 0.87909 0.0
C403 C 0.22631 0.0075 0.87367 0.0
C404 C 0.23831 0.01474 0.88209 0.0
C405 C 0.24421 0.00776 0.87966 0.0
U406 U 0.24318 0.97655 0.86704 0.0
O407 O 0.25214 0.96957 0.85755 0.0
O408 O 0.25172 0.96537 0.87168 0.0
C409 C 0.25558 0.96435 0.8638 0.0
C410 C 0.24714 0.99303 0.87205 0.0
C411 C 0.26546 0.96365 0.86394 0.0
C412 C 0.28037 0.97024 0.86579 0.0
C413 C 0.27097 0.97121 0.86542 0.0
C414 C 0.27877 0.95419 0.86311 0.0
C415 C 0.28436 0.96169 0.86474 0.0
C416 C 0.26941 0.95517 0.86272 0.0
C417 C 0.22094 0.96392 0.8636 0.0
C418 C 0.22011 0.94855 0.85795 0.0
C419 C 0.20702 0.9554 0.86494 0.0
C420 C 0.21191 0.96334 0.86631 0.0
C421 C 0.21109 0.94789 0.86083 0.0
C422 C 0.22502 0.9565 0.85938 0.0
C423 C 0.22607 0.97214 0.86567 0.0
O424 O 0.24671 0.98624 0.87769 0.0
O425 O 0.24698 0.99047 0.86359 0.0
O426 O 0.23073 0.97566 0.85903 0.0
O427 O 0.23056 0.9719 0.87327 0.0
H428 H 0.22964 0.99501 0.86726 0.0
H429 H 0.21937 0.00717 0.8714 0.0
H430 H 0.2408 0.02019 0.88625 0.0
H431 H 0.25111 0.00789 0.88206 0.0
H432 H 0.2845 0.97613 0.86711 0.0
H433 H 0.268 0.97782 0.8664 0.0
H434 H 0.28163 0.94754 0.86213 0.0
H435 H 0.26524 0.94927 0.86153 0.0
H436 H 0.22343 0.94285 0.85483 0.0
H437 H 0.20005 0.95513 0.86713 0.0
H438 H 0.20867 0.969 0.86959 0.0
H439 H 0.23203 0.95682 0.85732 0.0
C440 C 0.23739 0.98029 0.13449 0.0
C441 C 0.235 0.97203 0.13841 0.0
C442 C 0.21908 0.97523 0.13589 0.0
C443 C 0.22593 0.96952 0.13912 0.0
C444 C 0.22153 0.98353 0.13198 0.0
C445 C 0.23062 0.98604 0.1313 0.0
U446 U 0.26188 0.97396 0.13699 0.0
O447 O 0.27358 0.97607 0.1282 0.0
O448 O 0.27365 0.98164 0.14187 0.0
C449 C 0.27785 0.98109 0.13412 0.0
C450 C 0.24694 0.98279 0.13357 0.0
C451 C 0.28177 0.98951 0.13068 0.0
C452 C 0.28089 1.00317 0.1217 0.0
C453 C 0.27676 0.99549 0.12534 0.0
C454 C 0.29496 0.99906 0.12891 0.0
C455 C 0.29008 0.00498 0.12335 0.0
C456 C 0.29085 0.99141 0.13252 0.0
C457 C 0.26768 0.95056 0.14569 0.0
C458 C 0.28225 0.94635 0.15191 0.0
C459 C 0.27258 0.93493 0.14533 0.0
C460 C 0.26611 0.94151 0.14344 0.0
C461 C 0.28076 0.93726 0.14955 0.0
C462 C 0.2758 0.95294 0.14995 0.0
C463 C 0.26096 0.95745 0.14323 0.0
O464 O 0.25138 0.98356 0.14118 0.0
O465 O 0.2514 0.97824 0.12744 0.0
O466 O 0.26056 0.95935 0.13463 0.0
O467 O 0.26063 0.96464 0.14839 0.0
H468 H 0.24017 0.96748 0.14086 0.0
H469 H 0.2243 0.96303 0.14203 0.0
H470 H 0.21641 0.98812 0.12951 0.0
H471 H 0.23236 0.99244 0.12825 0.0
H472 H 0.27696 0.00756 0.11741 0.0
H473 H 0.26973 0.99413 0.12386 0.0
H474 H 0.302 1.00034 0.13046 0.0
H475 H 0.2948 0.98688 0.13666 0.0
H476 H 0.2884 0.94838 0.15529 0.0
H477 H 0.27126 0.92804 0.14327 0.0
H478 H 0.25991 0.93956 0.14009 0.0
H479 H 0.27721 0.95989 0.15171 0.0
C480 C 0.37172 0.2398 0.02801 0.0
C481 C 0.36749 0.23762 0.03614 0.0
C482 C 0.37006 0.22163 0.03338 0.0
C483 C 0.36665 0.22862 0.0388 0.0
C484 C 0.37427 0.22386 0.0252 0.0
C485 C 0.37508 0.23288 0.02254 0.0
U486 U 0.37037 0.26442 0.03415 0.0
O487 O 0.37945 0.27582 0.0314 0.0
O488 O 0.3654 0.27623 0.02667 0.0
C489 C 0.37337 0.28016 0.02665 0.0
C490 C 0.37285 0.24928 0.02538 0.0
C491 C 0.37639 0.2838 0.01797 0.0
C492 C 0.38582 0.28318 0.00462 0.0
C493 C 0.38277 0.27928 0.01262 0.0
C494 C 0.37599 0.29599 0.00711 0.0
C495 C 0.38249 0.2916 1.0018 0.0
C496 C 0.37299 0.29213 0.01512 0.0
C497 C 0.36276 0.27068 0.05766 0.0
C498 C 0.36272 0.2863 0.06259 0.0
C499 C 0.3572 0.27456 0.07249 0.0
C500 C 0.35905 0.26808 0.06591 0.0
C501 C 0.35903 0.28374 0.07092 0.0
C502 C 0.36456 0.27982 0.05602 0.0
C503 C 0.36476 0.26383 0.05084 0.0
O504 O 0.36534 0.25397 0.02492 0.0
O505 O 0.37939 0.25357 0.02956 0.0
O506 O 0.3733 0.2632 0.04855 0.0
O507 O 0.35926 0.26371 0.04392 0.0
H508 H 0.36492 0.24289 0.04049 0.0
H509 H 0.3635 0.22715 0.04519 0.0
H510 H 0.37691 0.21863 0.02085 0.0
H511 H 0.37838 0.23446 0.01624 0.0
H512 H 0.39077 0.2796 1.00062 0.0
H513 H 0.38544 0.27281 0.01468 0.0
H514 H 0.37338 0.30254 0.0052 0.0
H515 H 0.36808 0.29572 0.01916 0.0
H516 H 0.36433 0.29329 0.0612 0.0
H517 H 0.35425 0.27237 0.07877 0.0
H518 H 0.35759 0.26105 0.06726 0.0
H519 H 0.36744 0.28193 0.04967 0.0
C520 C 0.99973 0.87766 0.23957 0.0
C521 C 0.9992 0.87515 0.2305 0.0
C522 C 0.01352 0.88259 0.22748 0.0
C523 C 0.00604 0.87755 0.22453 0.0
C524 C 0.01399 0.8852 0.23655 0.0
C525 C 0.00714 0.88273 0.24256 0.0
U526 U 0.97571 0.87032 0.2424 0.0
O527 O 0.96925 0.86021 0.25111 0.0
O528 O 0.96499 0.8744 0.25174 0.0
C529 C 0.96422 0.86627 0.25518 0.0
C530 C 0.99238 0.87523 0.24574 0.0
C531 C 0.96405 0.86577 0.26502 0.0
C532 C 0.97003 0.8698 0.27967 0.0
C533 C 0.97061 0.87008 0.27029 0.0
C534 C 0.95644 0.86074 0.27853 0.0
C535 C 0.96289 0.86517 0.28389 0.0
C536 C 0.95702 0.86105 0.26919 0.0
C537 C 0.96204 0.86755 0.22081 0.0
C538 C 0.94721 0.86054 0.22008 0.0
C539 C 0.95268 0.86949 0.2076 0.0
C540 C 0.96072 0.87113 0.21222 0.0
C541 C 0.94583 0.86421 0.21148 0.0
C542 C 0.95525 0.86225 0.22473 0.0
C543 C 0.97045 0.86963 0.2256 0.0
O544 O 0.98557 0.88091 0.24585 0.0
O545 O 0.9898 0.86674 0.24535 0.0
O546 O 0.97436 0.86284 0.22972 0.0
O547 O 0.97028 0.87706 0.23042 0.0
H548 H 0.99345 0.87135 0.22803 0.0
H549 H 0.0054 0.87557 0.21756 0.0
H550 H 0.01969 0.88906 0.23901 0.0
H551 H 0.00762 0.88478 0.24952 0.0
H552 H 0.97515 0.8732 0.28361 0.0
H553 H 0.97612 0.87373 0.26716 0.0
H554 H 0.95078 0.85724 0.28155 0.0
H555 H 0.95188 0.85771 0.26521 0.0
H556 H 0.94202 0.85651 0.22326 0.0
H557 H 0.95187 0.8723 0.20094 0.0
H558 H 0.96589 0.87525 0.2091 0.0
H559 H 0.95613 0.85949 0.23141 0.0
C560 C 0.13546 0.76962 0.52759 0.0
C561 C 0.14023 0.77192 0.53539 0.0
C562 C 0.13746 0.78786 0.53262 0.0
C563 C 0.14124 0.78095 0.53788 0.0
C564 C 0.13272 0.78552 0.52476 0.0
C565 C 0.13173 0.77646 0.52226 0.0
U566 U 0.13696 0.74532 0.53449 0.0
O567 O 0.12759 0.73393 0.53288 0.0
O568 O 0.1413 0.73309 0.52731 0.0
C569 C 0.13335 0.72922 0.52808 0.0
C570 C 0.13408 0.76008 0.52526 0.0
C571 C 0.1297 0.72505 0.5199 0.0
C572 C 0.12165 0.7259 0.50571 0.0
C573 C 0.12536 0.73017 0.51326 0.0
C574 C 0.12674 0.71144 0.51136 0.0
C575 C 0.12222 0.71646 0.50473 0.0
C576 C 0.13043 0.7157 0.51886 0.0
C577 C 0.14567 0.74003 0.55779 0.0
C578 C 0.14579 0.72457 0.56316 0.0
C579 C 0.15112 0.73666 0.57277 0.0
C580 C 0.14929 0.74291 0.56599 0.0
C581 C 0.14935 0.72742 0.57145 0.0
C582 C 0.14397 0.73083 0.55639 0.0
C583 C 0.14348 0.74664 0.55081 0.0
O584 O 0.14152 0.75529 0.52454 0.0
O585 O 0.12775 0.75601 0.52992 0.0
O586 O 0.13484 0.74736 0.54894 0.0
O587 O 0.1486 0.74632 0.54361 0.0
H588 H 0.14307 0.76671 0.53964 0.0
H589 H 0.1448 0.7825 0.54404 0.0
H590 H 0.12978 0.79069 0.52054 0.0
H591 H 0.128 0.77478 0.51623 0.0
H592 H 0.11818 0.72995 0.50075 0.0
H593 H 0.12475 0.73742 0.51397 0.0
H594 H 0.12746 0.70419 0.51073 0.0
H595 H 0.1338 0.71166 0.52391 0.0
H596 H 0.14423 0.71753 0.56196 0.0
H597 H 0.15397 0.73906 0.57903 0.0
H598 H 0.15065 0.75 0.56716 0.0
H599 H 0.14114 0.7285 0.55009 0.0
C600 C 0.98953 0.6319 0.74925 0.0
C601 C 0.98029 0.62984 0.74897 0.0
C602 C 0.9778 0.63844 0.76268 0.0
C603 C 0.97449 0.63304 0.75564 0.0
C604 C 0.98709 0.64047 0.76293 0.0
C605 C 0.9929 0.63723 0.75626 0.0
U606 U 0.9918 0.62223 0.7261 0.0
O607 O 1.00089 0.62533 0.71486 0.0
O608 O 1.00052 0.61162 0.72048 0.0
C609 C 0.0043 0.61715 0.71469 0.0
C610 C 0.99552 0.62873 0.74204 0.0
C611 C 0.01415 0.61656 0.71383 0.0
C612 C 0.02938 0.62049 0.71854 0.0
C613 C 0.02002 0.6208 0.71993 0.0
C614 C 0.02702 0.61156 0.70511 0.0
C615 C 0.03296 0.61598 0.71102 0.0
C616 C 0.01772 0.61186 0.7065 0.0
C617 C 0.97027 0.61775 0.71304 0.0
C618 C 0.97086 0.61189 0.69782 0.0
C619 C 0.95643 0.6153 0.7047 0.0
C620 C 0.96085 0.61806 0.71252 0.0
C621 C 0.96138 0.6122 0.69725 0.0
C622 C 0.97527 0.61464 0.70566 0.0
C623 C 0.97484 0.62084 0.72122 0.0
O624 O 0.99505 0.62003 0.74033 0.0
O625 O 0.99544 0.63373 0.73475 0.0
O626 O 0.97958 0.62828 0.72033 0.0
O627 O 0.97909 0.61454 0.72576 0.0
H628 H 0.97755 0.62576 0.74358 0.0
H629 H 0.96742 0.63121 0.7553 0.0
H630 H 0.98985 0.6447 0.7682 0.0
H631 H 1.00001 0.63894 0.75653 0.0
H632 H 0.03379 0.62399 0.72319 0.0
H633 H 0.01735 0.62446 0.72564 0.0
H634 H 0.02956 0.60789 0.69935 0.0
H635 H 0.01328 0.60851 0.70176 0.0
H636 H 0.97486 0.60945 0.69225 0.0
H637 H 0.94914 0.61575 0.70443 0.0
H638 H 0.9569 0.62049 0.71815 0.0
H639 H 0.98258 0.61437 0.70597 0.0
C640 C 0.12401 0.24807 0.48978 0.0
C641 C 0.12104 0.24771 0.48085 0.0
C642 C 0.1294 0.26144 0.47742 0.0
C643 C 0.12368 0.25435 0.47474 0.0
C644 C 0.13234 0.26178 0.4864 0.0
C645 C 0.12966 0.25515 0.49254 0.0
U646 U 0.11592 0.22431 0.4929 0.0
O647 O 0.12065 0.21328 0.50156 0.0
O648 O 0.10662 0.21798 0.50254 0.0
C649 C 0.11289 0.21264 0.5058 0.0
C650 C 0.12167 0.24074 0.49601 0.0
C651 C 0.11344 0.21209 0.51562 0.0
C652 C 0.11527 0.21896 0.53032 0.0
C653 C 0.11468 0.21979 0.52097 0.0
C654 C 0.11337 0.20277 0.52897 0.0
C655 C 0.1147 0.21042 0.53441 0.0
C656 C 0.11276 0.2036 0.51967 0.0
C657 C 0.11089 0.2108 0.47165 0.0
C658 C 0.11154 0.19447 0.47031 0.0
C659 C 0.10421 0.20332 0.45876 0.0
C660 C 0.10616 0.21121 0.46353 0.0
C661 C 0.10704 0.19486 0.462 0.0
C662 C 0.11341 0.20236 0.47511 0.0
C663 C 0.11348 0.21922 0.47622 0.0
O664 O 0.11308 0.2385 0.49621 0.0
O665 O 0.12708 0.23373 0.49562 0.0
O666 O 0.12138 0.21911 0.48024 0.0
O667 O 0.10714 0.22313 0.481 0.0
H668 H 0.1168 0.24221 0.47856 0.0
H669 H 0.12142 0.25379 0.46785 0.0
H670 H 0.13671 0.26719 0.48868 0.0
H671 H 0.13207 0.25548 0.49939 0.0
H672 H 0.11635 0.22496 0.53433 0.0
H673 H 0.11524 0.2264 0.51792 0.0
H674 H 0.11276 0.19611 0.53192 0.0
H675 H 0.11176 0.1976 0.51563 0.0
H676 H 0.11391 0.1881 0.47298 0.0
H677 H 0.10058 0.20387 0.45248 0.0
H678 H 0.1041 0.21766 0.46079 0.0
H679 H 0.11703 0.20188 0.48141 0.0
C680 C 0.48798 0.38812 0.23088 0.0
C681 C 0.4855 0.39175 0.22255 0.0
C682 C 0.46963 0.38903 0.22591 0.0
C683 C 0.47641 0.39221 0.22009 0.0
C684 C 0.47217 0.38552 0.23432 0.0
C685 C 0.48128 0.38507 0.23678 0.0
U686 U 0.51236 0.38985 0.22392 0.0
O687 O 0.52449 0.39458 0.23108 0.0
O688 O 0.52383 0.38071 0.22592 0.0
C689 C 0.52843 0.38665 0.2306 0.0
C690 C 0.49757 0.38714 0.23321 0.0
C691 C 0.53254 0.3833 0.23893 0.0
C692 C 0.53183 0.37478 0.25285 0.0
C693 C 0.52755 0.37838 0.24527 0.0
C694 C 0.54604 0.38119 0.24789 0.0
C695 C 0.54116 0.37604 0.25417 0.0
C696 C 0.54176 0.38476 0.24035 0.0
C697 C 0.51779 0.39754 0.20029 0.0
C698 C 0.53321 0.39706 0.1948 0.0
C699 C 0.52125 0.40265 0.18521 0.0
C700 C 0.51498 0.40114 0.19207 0.0
C701 C 0.53043 0.40057 0.18647 0.0
C702 C 0.52694 0.39557 0.20165 0.0
C703 C 0.51113 0.39564 0.20733 0.0
O704 O 0.50178 0.38069 0.22885 0.0
O705 O 0.50219 0.39472 0.23355 0.0
O706 O 0.51139 0.40108 0.2143 0.0
O707 O 0.51042 0.38709 0.20957 0.0
H708 H 0.49061 0.39407 0.21789 0.0
H709 H 0.47471 0.39482 0.21352 0.0
H710 H 0.46712 0.3831 0.23899 0.0
H711 H 0.4831 0.38224 0.24323 0.0
H712 H 0.52789 0.37081 0.25753 0.0
H713 H 0.5204 0.37719 0.24427 0.0
H714 H 0.55319 0.38244 0.24879 0.0
H715 H 0.54571 0.38858 0.23554 0.0
H716 H 0.5402 0.39527 0.19597 0.0
H717 H 0.5189 0.40547 0.17893 0.0
H718 H 0.50793 0.40271 0.19093 0.0
H719 H 0.52922 0.39276 0.20797 0.0
C720 C 0.38149 0.75577 0.98824 0.0
C721 C 0.38444 0.75548 0.97929 0.0
C722 C 0.37582 0.74173 0.97675 0.0
C723 C 0.38166 0.74851 0.97362 0.0
C724 C 0.37286 0.74204 0.98572 0.0
C725 C 0.37569 0.74901 0.99143 0.0
U726 U 0.38994 0.77958 0.99013 0.0
O727 O 0.38555 0.79103 0.99842 0.0
O728 O 0.39953 0.78618 0.99932 0.0
C729 C 0.39339 0.79173 1.00249 0.0
C730 C 0.38407 0.76337 0.99405 0.0
C731 C 0.39298 0.79263 0.01229 0.0
C732 C 0.39073 0.78636 0.0272 0.0
C733 C 0.39149 0.78516 0.01789 0.0
C734 C 0.39301 0.80245 0.02532 0.0
C735 C 0.39136 0.79504 0.03098 0.0
C736 C 0.39381 0.80124 0.01607 0.0
C737 C 0.39433 0.79213 0.96823 0.0
C738 C 0.40084 0.80718 0.96771 0.0
C739 C 0.3931 0.80112 0.9547 0.0
C740 C 0.39142 0.79312 0.95935 0.0
C741 C 0.39775 0.80827 0.95885 0.0
C742 C 0.39909 0.79918 0.97239 0.0
C743 C 0.39184 0.78393 0.97318 0.0
O744 O 0.39269 0.76551 0.99393 0.0
O745 O 0.37873 0.77042 0.99349 0.0
O746 O 0.38411 0.78441 0.97746 0.0
O747 O 0.39828 0.78014 0.97792 0.0
H748 H 0.3888 0.76073 0.97667 0.0
H749 H 0.38394 0.74854 0.96671 0.0
H750 H 0.3684 0.73688 0.98834 0.0
H751 H 0.3733 0.74917 0.99829 0.0
H752 H 0.3894 0.78054 0.03139 0.0
H753 H 0.3908 0.77846 0.01506 0.0
H754 H 0.39366 0.8092 0.02804 0.0
H755 H 0.39498 0.80707 0.01184 0.0
H756 H 0.40437 0.81261 0.9711 0.0
H757 H 0.39073 0.80172 0.94785 0.0
H758 H 0.38771 0.78775 0.95605 0.0
H759 H 0.4013 0.79856 0.9793 0.0
C760 C 0.01808 0.38722 0.77553 0.0
C761 C 0.01977 0.39142 0.7838 0.0
C762 C 0.03592 0.38916 0.78183 0.0
C763 C 0.02861 0.3924 0.78691 0.0
C764 C 0.03421 0.38521 0.77341 0.0
C765 C 0.02534 0.38421 0.7703 0.0
U766 U 0.9935 0.38721 0.78152 0.0
O767 O 0.98287 0.37701 0.77956 0.0
O768 O 0.9812 0.39066 0.77404 0.0
C769 C 0.97796 0.38241 0.77455 0.0
C770 C 0.00874 0.38541 0.77276 0.0
C771 C 0.97425 0.37842 0.76625 0.0
C772 C 0.9717 0.37863 0.75011 0.0
C773 C 0.97599 0.38213 0.75774 0.0
C774 C 0.96414 0.36751 0.75936 0.0
C775 C 0.9656 0.37137 0.75086 0.0
C776 C 0.96839 0.37102 0.76696 0.0
C777 C 0.98709 0.39525 0.80489 0.0
C778 C 0.97191 0.39323 0.8107 0.0
C779 C 0.98299 0.40156 0.81935 0.0
C780 C 0.98939 0.40015 0.8126 0.0
C781 C 0.9742 0.39806 0.81851 0.0
C782 C 0.9783 0.39185 0.80393 0.0
C783 C 0.99392 0.3936 0.79795 0.0
O784 O 0.00485 0.37876 0.77712 0.0
O785 O 0.00355 0.39257 0.77203 0.0
O786 O 0.99336 0.39877 0.79081 0.0
O787 O 0.9953 0.38506 0.796 0.0
H788 H 0.01424 0.39375 0.78795 0.0
H789 H 0.02971 0.39559 0.79337 0.0
H790 H 0.0397 0.38258 0.76938 0.0
H791 H 0.02413 0.3809 0.76392 0.0
H792 H 0.97293 0.3818 0.74368 0.0
H793 H 0.98049 0.38784 0.75699 0.0
H794 H 0.95963 0.36181 0.76016 0.0
H795 H 0.96696 0.36805 0.77345 0.0
H796 H 0.96516 0.39055 0.80979 0.0
H797 H 0.98499 0.40524 0.82532 0.0
H798 H 0.99616 0.40281 0.81343 0.0
H799 H 0.9764 0.3881 0.79798 0.0
C800 C 0.38096 0.24947 0.51715 0.0
C801 C 0.37524 0.24763 0.52446 0.0
C802 C 0.37455 0.26361 0.52814 0.0
C803 C 0.37202 0.25463 0.52985 0.0
C804 C 0.38029 0.26544 0.52084 0.0
C805 C 0.38344 0.25843 0.51537 0.0
U806 U 0.39092 0.22611 0.51583 0.0
O807 O 0.38795 0.21454 0.50712 0.0
O808 O 0.40162 0.22028 0.50737 0.0
C809 C 0.3961 0.21442 0.50365 0.0
C810 C 0.38465 0.24207 0.51163 0.0
C811 C 0.3964 0.21372 0.49383 0.0
C812 C 0.39322 0.2197 0.47898 0.0
C813 C 0.3937 0.22089 0.4883 0.0
C814 C 0.39834 0.20426 0.48069 0.0
C815 C 0.39536 0.2113 0.47511 0.0
C816 C 0.39886 0.20547 0.48996 0.0
C817 C 0.39385 0.21339 0.53788 0.0
C818 C 0.40062 0.19848 0.53866 0.0
C819 C 0.39253 0.20451 0.55147 0.0
C820 C 0.39078 0.21243 0.5467 0.0
C821 C 0.39739 0.19742 0.54748 0.0
C822 C 0.39882 0.2064 0.53387 0.0
C823 C 0.39142 0.22153 0.53283 0.0
O824 O 0.39331 0.24047 0.51273 0.0
O825 O 0.37973 0.23468 0.51131 0.0
O826 O 0.38416 0.22074 0.52783 0.0
O827 O 0.39809 0.22572 0.52876 0.0
H828 H 0.37333 0.24076 0.52608 0.0
H829 H 0.36772 0.25299 0.5355 0.0
H830 H 0.38232 0.27231 0.51935 0.0
H831 H 0.38788 0.25999 0.50981 0.0
H832 H 0.39085 0.22522 0.47485 0.0
H833 H 0.39174 0.22729 0.49121 0.0
H834 H 0.40014 0.19776 0.47789 0.0
H835 H 0.40096 0.19987 0.49414 0.0
H836 H 0.40432 0.19311 0.53539 0.0
H837 H 0.39005 0.20393 0.55828 0.0
H838 H 0.38692 0.21776 0.54988 0.0
H839 H 0.40118 0.20702 0.52702 0.0
C840 C 0.48759 0.61778 0.27719 0.0
C841 C 0.48509 0.61357 0.28524 0.0
C842 C 0.46922 0.61636 0.28198 0.0
C843 C 0.47599 0.61285 0.28761 0.0
C844 C 0.47178 0.62051 0.27387 0.0
C845 C 0.4809 0.6212 0.2715 0.0
U846 U 0.51197 0.616 0.28416 0.0
O847 O 0.52344 0.62523 0.28239 0.0
O848 O 0.52412 0.61146 0.27695 0.0
C849 C 0.5281 0.61936 0.27768 0.0
C850 C 0.49719 0.61891 0.27493 0.0
C851 C 0.53249 0.62285 0.26956 0.0
C852 C 0.53223 0.63106 0.25544 0.0
C853 C 0.52766 0.62739 0.26284 0.0
C854 C 0.54639 0.62549 0.26139 0.0
C855 C 0.54167 0.63025 0.25471 0.0
C856 C 0.54185 0.62185 0.26873 0.0
C857 C 0.51753 0.60764 0.30749 0.0
C858 C 0.53305 0.60788 0.31274 0.0
C859 C 0.52119 0.60215 0.32239 0.0
C860 C 0.51482 0.60387 0.31568 0.0
C861 C 0.53038 0.6042 0.32103 0.0
C862 C 0.52668 0.60958 0.30603 0.0
C863 C 0.51079 0.60973 0.30058 0.0
O864 O 0.50136 0.62525 0.27951 0.0
O865 O 0.50185 0.61138 0.27437 0.0
O866 O 0.51097 0.6045 0.29346 0.0
O867 O 0.51005 0.61834 0.2986 0.0
H868 H 0.49019 0.61095 0.28975 0.0
H869 H 0.47427 0.60974 0.29396 0.0
H870 H 0.46673 0.6232 0.26935 0.0
H871 H 0.48273 0.62449 0.26526 0.0
H872 H 0.52841 0.6347 0.25041 0.0
H873 H 0.52042 0.62822 0.26339 0.0
H874 H 0.55364 0.62459 0.26094 0.0
H875 H 0.54567 0.61832 0.27384 0.0
H876 H 0.54003 0.60966 0.3115 0.0
H877 H 0.51892 0.5992 0.32865 0.0
H878 H 0.50778 0.60231 0.31689 0.0
H879 H 0.52887 0.61252 0.29974 0.0
C880 C 0.1165 0.77689 0.98793 0.0
C881 C 0.11316 0.78551 0.98597 0.0
C882 C 0.1154 0.78287 0.97 0.0
C883 C 0.11259 0.78847 0.9771 0.0
C884 C 0.11855 0.77413 0.97199 0.0
C885 C 0.11911 0.77118 0.9809 0.0
U886 U 0.11597 0.78325 0.01228 0.0
O887 O 0.12519 0.78034 0.02344 0.0
O888 O 0.11096 0.77622 0.02431 0.0
C889 C 0.11899 0.77599 0.02805 0.0
C890 C 0.11764 0.7741 0.99731 0.0
C891 C 0.12172 0.76732 0.032 0.0
C892 C 0.13076 0.75363 0.03201 0.0
C893 C 0.12784 0.76151 0.02771 0.0
C894 C 0.12127 0.75719 0.04477 0.0
C895 C 0.12755 0.75142 0.04063 0.0
C896 C 0.1184 0.76505 0.0405 0.0
C897 C 0.10991 0.80736 0.01826 0.0
C898 C 0.11099 0.81258 0.03366 0.0
C899 C 0.10534 0.8226 0.02211 0.0
C900 C 0.10648 0.81578 0.01572 0.0
C901 C 0.10764 0.82109 0.03115 0.0
C902 C 0.1121 0.80577 0.02728 0.0
C903 C 0.11128 0.8003 0.01149 0.0
O904 O 0.12451 0.77791 1.00143 0.0
O905 O 0.11021 0.77411 1.00214 0.0
O906 O 0.1054 0.79365 0.01169 0.0
O907 O 0.11965 0.79752 0.01062 0.0
H908 H 0.11111 0.79002 0.99133 0.0
H909 H 0.11001 0.79517 0.9758 0.0
H910 H 0.12083 0.76969 0.96668 0.0
H911 H 0.12175 0.76451 0.98231 0.0
H912 H 0.13553 0.74928 0.02861 0.0
H913 H 0.13046 0.76313 0.02112 0.0
H914 H 0.11877 0.75577 0.05146 0.0
H915 H 0.1137 0.76947 0.04394 0.0
H916 H 0.1127 0.81117 0.04059 0.0
H917 H 0.10282 0.8291 0.01995 0.0
H918 H 0.10477 0.8171 0.00877 0.0
H919 H 0.11472 0.79927 0.02935 0.0
C920 C 0.74817 0.99069 0.63027 0.0
C921 C 0.74786 0.98143 0.62832 0.0
C922 C 0.76164 0.97901 0.63691 0.0
C923 C 0.75454 0.97566 0.63157 0.0
C924 C 0.7619 0.98831 0.63885 0.0
C925 C 0.75522 0.9941 0.63555 0.0
U926 U 0.7249 0.99341 0.6205 0.0
O927 O 0.71396 1.00298 0.62341 0.0
O928 O 0.71963 1.00218 0.60981 0.0
C929 C 0.71407 0.00638 0.61526 0.0
C930 C 0.74102 0.99672 0.62698 0.0
C931 C 0.7141 0.01627 0.61469 0.0
C932 C 0.72007 0.03095 0.61892 0.0
C933 C 0.72042 0.02152 0.61939 0.0
C934 C 0.70719 0.02992 0.60893 0.0
C935 C 0.71342 0.03526 0.6137 0.0
C936 C 0.70753 0.02052 0.60943 0.0
C937 C 0.71111 0.97215 0.61628 0.0
C938 C 0.69594 0.97289 0.61014 0.0
C939 C 0.70231 0.95847 0.61446 0.0
C940 C 0.71027 0.96278 0.61708 0.0
C941 C 0.69503 0.96347 0.61098 0.0
C942 C 0.70392 0.9772 0.61278 0.0
C943 C 0.71942 0.97661 0.61931 0.0
O944 O 0.73933 0.99612 0.61833 0.0
O945 O 0.73368 0.99688 0.63192 0.0
O946 O 0.7186 0.98147 0.62664 0.0
O947 O 0.72414 0.98064 0.61301 0.0
H948 H 0.74243 0.97867 0.62428 0.0
H949 H 0.75419 0.96857 0.62982 0.0
H950 H 0.7672 0.99111 0.64303 0.0
H951 H 0.75552 1.00122 0.63718 0.0
H952 H 0.72501 0.03487 0.6226 0.0
H953 H 0.72556 0.01832 0.62346 0.0
H954 H 0.7019 0.03301 0.60497 0.0
H955 H 0.70259 0.01657 0.60578 0.0
H956 H 0.69051 0.97692 0.60741 0.0
H957 H 0.70179 0.95123 0.61533 0.0
H958 H 0.71575 0.95881 0.61983 0.0
H959 H 0.70448 0.98446 0.61212 0.0
C960 C 0.75771 0.98933 0.37446 0.0
C961 C 0.75835 0.98015 0.37664 0.0
C962 C 0.74436 0.97707 0.36861 0.0
C963 C 0.75172 0.97409 0.37378 0.0
C964 C 0.74374 0.9863 0.36646 0.0
C965 C 0.75038 0.99238 0.36936 0.0
U966 U 0.7811 0.99278 0.38361 0.0
O967 O 0.79195 1.00224 0.38 0.0
O968 O 0.78652 1.00216 0.39372 0.0
C969 C 0.79195 0.00611 0.38795 0.0
C970 C 0.76483 0.99563 0.37731 0.0
C971 C 0.79174 0.01601 0.3879 0.0
C972 C 0.78464 0.0302 0.38388 0.0
C973 C 0.7845 0.02076 0.38411 0.0
C974 C 0.79918 0.03018 0.39135 0.0
C975 C 0.79201 0.03502 0.38746 0.0
C976 C 0.79904 0.02076 0.39156 0.0
C977 C 0.79504 0.97178 0.38851 0.0
C978 C 0.8105 0.97276 0.39385 0.0
C979 C 0.80357 0.95814 0.39138 0.0
C980 C 0.7956 0.96236 0.38866 0.0
C981 C 0.81112 0.96328 0.39401 0.0
C982 C 0.80252 0.97698 0.39113 0.0
C983 C 0.78667 0.97609 0.38547 0.0
O984 O 0.7667 0.99549 0.38594 0.0
O985 O 0.77208 0.99562 0.37222 0.0
O986 O 0.78732 0.9806 0.37791 0.0
O987 O 0.7821 0.98041 0.39169 0.0
H988 H 0.76399 0.97767 0.38055 0.0
H989 H 0.75234 0.96707 0.37569 0.0
H990 H 0.73822 0.98881 0.36241 0.0
H991 H 0.74982 0.99945 0.36757 0.0
H992 H 0.77899 0.03373 0.38091 0.0
H993 H 0.7788 0.01716 0.38127 0.0
H994 H 0.80503 0.03365 0.39403 0.0
H995 H 0.80469 0.01718 0.39449 0.0
H996 H 0.81616 0.9769 0.39591 0.0
H997 H 0.80386 0.95083 0.39129 0.0
H998 H 0.7899 0.95827 0.38661 0.0
H999 H 0.80217 0.98428 0.39105 0.0
C1000 C 0.77683 0.98813 0.12036 0.0
C1001 C 0.78506 0.98562 0.11645 0.0
C1002 C 0.78157 0.96976 0.11898 0.0
C1003 C 0.78741 0.97652 0.11575 0.0
C1004 C 0.77329 0.97233 0.12286 0.0
C1005 C 0.77095 0.98145 0.12353 0.0
U1006 U 0.78352 0.01261 0.11815 0.0
O1007 O 0.77602 0.02443 0.1132 0.0
O1008 O 0.78129 0.02426 0.12699 0.0
C1009 C 0.77635 0.02853 0.12102 0.0
C1010 C 0.77448 0.99771 0.12129 0.0
C1011 C 0.76779 0.03235 0.12426 0.0
C1012 C 0.75475 0.03215 0.13418 0.0
C1013 C 0.76263 0.02808 0.13093 0.0
C1014 C 0.75698 0.04465 0.12394 0.0
C1015 C 0.75186 0.04051 0.13074 0.0
C1016 C 0.76487 0.04062 0.12075 0.0
C1017 C 0.80695 0.01838 0.10967 0.0
C1018 C 0.81196 0.03397 0.10906 0.0
C1019 C 0.82181 0.02201 0.10384 0.0
C1020 C 0.8152 0.01563 0.10598 0.0
C1021 C 0.82029 0.03126 0.10538 0.0
C1022 C 0.80535 0.02758 0.11117 0.0
C1023 C 0.80009 0.01162 0.11202 0.0
O1024 O 0.77901 1.00207 0.12753 0.0
O1025 O 0.7739 1.0022 0.11371 0.0
O1026 O 0.79295 0.01148 0.10679 0.0
O1027 O 0.79808 0.01118 0.1206 0.0
H1028 H 0.78972 0.99071 0.11401 0.0
H1029 H 0.79389 0.97478 0.11286 0.0
H1030 H 0.76862 0.96729 0.12533 0.0
H1031 H 0.76456 0.98329 0.12657 0.0
H1032 H 0.7509 0.02875 0.13935 0.0
H1033 H 0.76474 0.02166 0.13369 0.0
H1034 H 0.75502 0.05114 0.12124 0.0
H1035 H 0.76877 0.04402 0.11562 0.0
H1036 H 0.81061 0.04101 0.11044 0.0
H1037 H 0.8281 0.01971 0.10092 0.0
H1038 H 0.81652 0.00854 0.10475 0.0
H1039 H 0.79901 0.0298 0.11405 0.0
C1040 C 0.72845 0.98675 0.88866 0.0
C1041 C 0.72033 0.98443 0.89293 0.0
C1042 C 0.72337 0.96849 0.89039 0.0
C1043 C 0.71782 0.97538 0.89381 0.0
C1044 C 0.73151 0.97086 0.88612 0.0
C1045 C 0.73403 0.97993 0.88528 0.0
U1046 U 0.72202 0.01132 0.8901 0.0
O1047 O 0.7295 0.02322 0.89494 0.0
O1048 O 0.7246 0.02271 0.88103 0.0
C1049 C 0.72944 0.0271 0.88701 0.0
C1050 C 0.73095 0.99627 0.88753 0.0
C1051 C 0.73818 0.03064 0.88391 0.0
C1052 C 0.75188 0.02941 0.87501 0.0
C1053 C 0.74372 0.02573 0.87802 0.0
C1054 C 0.74913 0.04284 0.88388 0.0
C1055 C 0.75468 0.03801 0.8779 0.0
C1056 C 0.74096 0.03919 0.88683 0.0
C1057 C 0.69832 0.01727 0.89788 0.0
C1058 C 0.69295 0.03274 0.89767 0.0
C1059 C 0.68334 0.02083 0.90341 0.0
C1060 C 0.69012 0.01451 0.90167 0.0
C1061 C 0.68465 0.03001 0.90137 0.0
C1062 C 0.69974 0.02642 0.89594 0.0
C1063 C 0.70529 0.01054 0.89585 0.0
O1064 O 0.72663 1.0005 0.88108 0.0
O1065 O 0.73143 1.00098 0.895 0.0
O1066 O 0.71231 0.01057 0.90125 0.0
O1067 O 0.70751 0.0099 0.88734 0.0
H1068 H 0.7159 0.98963 0.89551 0.0
H1069 H 0.71145 0.9738 0.897 0.0
H1070 H 0.73596 0.9657 0.88349 0.0
H1071 H 0.74031 0.98161 0.88195 0.0
H1072 H 0.75605 0.0255 0.87047 0.0
H1073 H 0.74171 0.01908 0.87573 0.0
H1074 H 0.75103 0.04953 0.88614 0.0
H1075 H 0.73677 0.04308 0.89136 0.0
H1076 H 0.69415 0.03973 0.89591 0.0
H1077 H 0.67708 0.01851 0.90639 0.0
H1078 H 0.68895 0.00747 0.90324 0.0
H1079 H 0.70605 0.02865 0.893 0.0
C1080 C 0.62265 0.74863 0.98972 0.0
C1081 C 0.62011 0.74828 0.98066 0.0
C1082 C 0.62829 0.76221 0.97769 0.0
C1083 C 0.62286 0.75501 0.97471 0.0
C1084 C 0.63085 0.76254 0.98679 0.0
C1085 C 0.62804 0.7558 0.99276 0.0
U1086 U 0.61465 0.7248 0.99234 0.0
O1087 O 0.61887 0.71379 1.00126 0.0
O1088 O 0.60478 0.7184 1.00136 0.0
C1089 C 0.61086 0.71307 0.00498 0.0
C1090 C 0.62006 0.74128 0.99581 0.0
C1091 C 0.61079 0.71244 0.0148 0.0
C1092 C 0.61315 0.71889 0.02962 0.0
C1093 C 0.61287 0.71988 0.02027 0.0
C1094 C 0.60915 0.7031 0.02804 0.0
C1095 C 0.61141 0.71045 0.03359 0.0
C1096 C 0.60885 0.7041 0.01875 0.0
C1097 C 0.6112 0.71127 0.97086 0.0
C1098 C 0.60451 0.69629 0.97071 0.0
C1099 C 0.61314 0.70154 0.95791 0.0
C1100 C 0.61465 0.70976 0.96224 0.0
C1101 C 0.60812 0.69468 0.96213 0.0
C1102 C 0.60609 0.70451 0.97507 0.0
C1103 C 0.61344 0.71972 0.97552 0.0
O1104 O 0.61149 0.73894 0.99552 0.0
O1105 O 0.62556 0.73432 0.99573 0.0
O1106 O 0.62102 0.71953 0.98009 0.0
O1107 O 0.60679 0.72366 0.97986 0.0
H1108 H 0.61607 0.74272 0.97815 0.0
H1109 H 0.6209 0.75447 0.96773 0.0
H1110 H 0.635 0.76802 0.98928 0.0
H1111 H 0.63012 0.75613 0.99972 0.0
H1112 H 0.61496 0.72465 0.03372 0.0
H1113 H 0.61441 0.72637 0.0173 0.0
H1114 H 0.60764 0.69655 0.0309 0.0
H1115 H 0.6072 0.69831 0.01461 0.0
H1116 H 0.60069 0.6911 0.97415 0.0
H1117 H 0.61592 0.70053 0.95127 0.0
H1118 H 0.61864 0.7149 0.95891 0.0
H1119 H 0.60345 0.70553 0.98178 0.0
C1120 C 0.98715 0.11799 0.7768 0.0
C1121 C 0.98207 0.12593 0.77776 0.0
C1122 C 0.9687 0.11718 0.78169 0.0
C1123 C 0.97298 0.12554 0.78023 0.0
C1124 C 0.97373 0.10923 0.7805 0.0
C1125 C 0.98285 0.10962 0.77809 0.0
U1126 U 0.01186 0.11574 0.78357 0.0
O1127 O 0.02368 0.11059 0.7762 0.0
O1128 O 0.02349 0.12459 0.78105 0.0
C1129 C 0.02776 0.11848 0.77627 0.0
C1130 C 0.9969 0.1186 0.77461 0.0
C1131 C 0.03145 0.12154 0.76763 0.0
C1132 C 0.03067 0.13082 0.7542 0.0
C1133 C 0.02675 0.12765 0.76215 0.0
C1134 C 0.04388 0.12161 0.75702 0.0
C1135 C 0.03931 0.12787 0.75157 0.0
C1136 C 0.03998 0.11849 0.76497 0.0
C1137 C 0.01761 0.10837 0.80729 0.0
C1138 C 0.03302 0.10898 0.8128 0.0
C1139 C 0.02112 0.10305 0.82228 0.0
C1140 C 0.01484 0.10459 0.81545 0.0
C1141 C 0.03028 0.1053 0.82107 0.0
C1142 C 0.02674 0.11049 0.80597 0.0
C1143 C 0.01091 0.1103 0.80029 0.0
O1144 O 1.00137 0.12505 0.77875 0.0
O1145 O 1.00139 0.11096 0.77423 0.0
O1146 O 0.01089 0.10473 0.79343 0.0
O1147 O 0.01037 0.11882 0.79791 0.0
H1148 H 0.98518 0.13247 0.77676 0.0
H1149 H 0.96937 0.13181 0.78119 0.0
H1150 H 0.97063 0.10267 0.78142 0.0
H1151 H 0.98653 0.10336 0.77732 0.0
H1152 H 0.02695 0.13556 0.7501 0.0
H1153 H 0.02012 0.13004 0.76406 0.0
H1154 H 0.05058 0.11929 0.75526 0.0
H1155 H 0.04371 0.1138 0.76913 0.0
H1156 H 0.03999 0.1109 0.81168 0.0
H1157 H 0.0188 0.10009 0.82851 0.0
H1158 H 0.00781 0.10289 0.81655 0.0
H1159 H 0.02898 0.11343 0.79969 0.0
C1160 C 0.87658 0.25836 0.48573 0.0
C1161 C 0.87255 0.26098 0.47762 0.0
C1162 C 0.87042 0.24524 0.4734 0.0
C1163 C 0.86944 0.2545 0.47155 0.0
C1164 C 0.87448 0.24265 0.48155 0.0
C1165 C 0.87752 0.24916 0.48766 0.0
U1166 U 0.88722 0.28119 0.48969 0.0
O1167 O 0.88419 0.29202 0.49924 0.0
O1168 O 0.8976 0.28567 0.49935 0.0
C1169 C 0.89201 0.29128 0.50335 0.0
C1170 C 0.88009 0.26517 0.49203 0.0
C1171 C 0.89173 0.29095 0.51325 0.0
C1172 C 0.88326 0.29027 0.5272 0.0
C1173 C 0.88363 0.28932 0.51788 0.0
C1174 C 0.8992 0.29391 0.52749 0.0
C1175 C 0.89099 0.29277 0.53207 0.0
C1176 C 0.89955 0.29306 0.51814 0.0
C1177 C 0.89234 0.29578 0.4693 0.0
C1178 C 0.89805 0.31108 0.47084 0.0
C1179 C 0.89456 0.30508 0.4561 0.0
C1180 C 0.89196 0.2969 0.45999 0.0
C1181 C 0.89759 0.31228 0.46148 0.0
C1182 C 0.89545 0.30289 0.47472 0.0
C1183 C 0.88916 0.28731 0.47329 0.0
O1184 O 0.88886 0.26654 0.49164 0.0
O1185 O 0.87541 0.27269 0.49255 0.0
O1186 O 0.88159 0.28796 0.47784 0.0
O1187 O 0.89532 0.28244 0.47737 0.0
H1188 H 0.87181 0.26806 0.47595 0.0
H1189 H 0.86623 0.25676 0.46543 0.0
H1190 H 0.87548 0.23559 0.48314 0.0
H1191 H 0.88069 0.24701 0.49385 0.0
H1192 H 0.87686 0.28926 0.53059 0.0
H1193 H 0.8775 0.28761 0.5143 0.0
H1194 H 0.90525 0.29592 0.53107 0.0
H1195 H 0.90587 0.29436 0.51471 0.0
H1196 H 0.90044 0.31646 0.47515 0.0
H1197 H 0.89398 0.30582 0.44889 0.0
H1198 H 0.88952 0.2915 0.45572 0.0
H1199 H 0.89577 0.30211 0.48194 0.0
C1200 C 0.50724 0.87353 0.76697 0.0
C1201 C 0.50793 0.87154 0.77614 0.0
C1202 C 0.49427 0.88012 0.77918 0.0
C1203 C 0.5015 0.87477 0.78217 0.0
C1204 C 0.49349 0.88195 0.76994 0.0
C1205 C 0.49996 0.8787 0.76388 0.0
U1206 U 0.53085 0.86518 0.76463 0.0
O1207 O 0.53734 0.85524 0.75575 0.0
O1208 O 0.54213 0.86927 0.75598 0.0
C1209 C 0.54283 0.86127 0.75225 0.0
C1210 C 0.51451 0.87073 0.76085 0.0
C1211 C 0.54362 0.86125 0.74244 0.0
C1212 C 0.53757 0.86419 0.72756 0.0
C1213 C 0.53639 0.86375 0.73689 0.0
C1214 C 0.55314 0.8595 0.72933 0.0
C1215 C 0.54601 0.8622 0.72371 0.0
C1216 C 0.55195 0.85904 0.7386 0.0
C1217 C 0.54367 0.86201 0.78667 0.0
C1218 C 0.55893 0.85606 0.78749 0.0
C1219 C 0.55238 0.86365 0.80035 0.0
C1220 C 0.54441 0.86501 0.79555 0.0
C1221 C 0.55976 0.85925 0.79634 0.0
C1222 C 0.55095 0.85748 0.78266 0.0
C1223 C 0.53545 0.86413 0.7816 0.0
O1224 O 0.52156 0.87612 0.76088 0.0
O1225 O 0.51669 0.86214 0.76127 0.0
O1226 O 0.5317 0.85741 0.77719 0.0
O1227 O 0.53584 0.87164 0.77694 0.0
H1228 H 0.51354 0.8676 0.77867 0.0
H1229 H 0.50222 0.87309 0.78921 0.0
H1230 H 0.48804 0.88611 0.76743 0.0
H1231 H 0.49938 0.88036 0.75682 0.0
H1232 H 0.53197 0.86633 0.72341 0.0
H1233 H 0.52991 0.8655 0.73977 0.0
H1234 H 0.55968 0.8578 0.72655 0.0
H1235 H 0.55759 0.85708 0.7428 0.0
H1236 H 0.56453 0.85271 0.78422 0.0
H1237 H 0.55279 0.86608 0.80719 0.0
H1238 H 0.53886 0.86853 0.79873 0.0
H1239 H 0.55051 0.85519 0.77576 0.0
C1240 C 0.98055 0.13755 0.23691 0.0
C1241 C 0.97182 0.14076 0.23521 0.0
C1242 C 0.97376 0.13789 0.21925 0.0
C1243 C 0.96845 0.14094 0.22646 0.0
C1244 C 0.98262 0.13493 0.22095 0.0
C1245 C 0.98598 0.13473 0.22973 0.0
U1246 U 0.97541 0.13934 0.26149 0.0
O1247 O 0.97829 0.13032 0.2728 0.0
O1248 O 0.98335 0.14428 0.27301 0.0
C1249 C 0.98331 0.13635 0.27696 0.0
C1250 C 0.98373 0.13669 0.2462 0.0
C1251 C 0.99205 0.13315 0.28041 0.0
C1252 C 0.00488 0.12295 0.27992 0.0
C1253 C 0.99696 0.12633 0.27606 0.0
C1254 C 1.00321 0.13338 0.29234 0.0
C1255 C 0.00804 0.12638 0.28815 0.0
C1256 C 0.99529 0.13671 0.2885 0.0
C1257 C 0.95187 0.14668 0.26834 0.0
C1258 C 0.94668 0.14512 0.28371 0.0
C1259 C 0.93742 0.15296 0.2728 0.0
C1260 C 0.94397 0.15141 0.26622 0.0
C1261 C 0.93867 0.14976 0.2816 0.0
C1262 C 0.95323 0.14362 0.27714 0.0
C1263 C 0.95858 0.14485 0.26133 0.0
O1264 O 0.98427 0.14431 0.25071 0.0
O1265 O 0.97983 0.13018 0.25076 0.0
O1266 O 0.96092 0.13634 0.26051 0.0
O1267 O 0.9655 0.15041 0.26113 0.0
H1268 H 0.96753 0.14297 0.24068 0.0
H1269 H 0.96165 0.14339 0.22536 0.0
H1270 H 0.98684 0.13247 0.21554 0.0
H1271 H 0.99273 0.1322 0.23095 0.0
H1272 H 0.00851 0.11761 0.2765 0.0
H1273 H 0.9946 0.12351 0.26977 0.0
H1274 H 0.00539 0.1361 0.29873 0.0
H1275 H 0.99157 0.14196 0.29197 0.0
H1276 H 0.94789 0.14268 0.29046 0.0
H1277 H 0.93129 0.15649 0.27097 0.0
H1278 H 0.94282 0.15382 0.25945 0.0
H1279 H 0.95934 0.14002 0.2789 0.0
C1280 C 0.50637 0.13283 0.74072 0.0
C1281 C 0.50572 0.13631 0.73198 0.0
C1282 C 0.49256 0.1269 0.72907 0.0
C1283 C 0.49885 0.13341 0.72624 0.0
C1284 C 0.4932 0.12346 0.73785 0.0
C1285 C 0.50005 0.12642 0.74363 0.0
U1286 U 0.53042 0.14057 0.74248 0.0
O1287 O 0.53731 0.15029 0.75131 0.0
O1288 O 0.54169 0.13614 0.75096 0.0
C1289 C 0.54266 0.1441 0.75472 0.0
C1290 C 0.51401 0.13538 0.74651 0.0
C1291 C 0.54354 0.14407 0.76453 0.0
C1292 C 0.53742 0.14167 0.77947 0.0
C1293 C 0.53621 0.14205 0.77014 0.0
C1294 C 0.55323 0.14545 0.77757 0.0
C1295 C 0.54598 0.14325 0.78326 0.0
C1296 C 0.55201 0.14585 0.7683 0.0
C1297 C 0.54315 0.14377 0.72049 0.0
C1298 C 0.5586 0.14929 0.71997 0.0
C1299 C 0.55194 0.14226 0.70685 0.0
C1300 C 0.54388 0.141 0.71154 0.0
C1301 C 0.55942 0.14633 0.71104 0.0
C1302 C 0.55053 0.14798 0.72468 0.0
C1303 C 0.53486 0.14172 0.72547 0.0
O1304 O 0.52089 0.12979 0.7462 0.0
O1305 O 0.51644 0.14392 0.74616 0.0
O1306 O 0.53126 0.14844 0.72998 0.0
O1307 O 0.53509 0.13414 0.73003 0.0
H1308 H 0.51063 0.14114 0.72953 0.0
H1309 H 0.49863 0.13608 0.71947 0.0
H1310 H 0.48842 0.11847 0.74023 0.0
H1311 H 0.5005 0.1236 0.75032 0.0
H1312 H 0.53172 0.13991 0.78368 0.0
H1313 H 0.52962 0.14063 0.76731 0.0
H1314 H 0.55987 0.14685 0.78029 0.0
H1315 H 0.55773 0.14745 0.76405 0.0
H1316 H 0.56427 0.15238 0.72339 0.0
H1317 H 0.55233 0.14001 0.69994 0.0
H1318 H 0.53825 0.13772 0.70821 0.0
H1319 H 0.5501 0.15008 0.73164 0.0
C1320 C 0.13637 0.23725 0.9784 0.0
C1321 C 0.1402 0.23492 0.97011 0.0
C1322 C 0.13789 0.21898 0.97334 0.0
C1323 C 0.14097 0.22587 0.96761 0.0
C1324 C 0.13411 0.22137 0.98167 0.0
C1325 C 0.13336 0.23044 0.98418 0.0
U1326 U 0.13778 0.26178 0.97187 0.0
O1327 O 0.12864 0.27316 0.97433 0.0
O1328 O 0.14263 0.27374 0.97922 0.0
C1329 C 0.13464 0.27761 0.97911 0.0
C1330 C 0.13527 0.24678 0.98087 0.0
C1331 C 0.13149 0.28133 0.98771 0.0
C1332 C 0.12181 0.28082 1.00089 0.0
C1333 C 0.12501 0.27686 0.99297 0.0
C1334 C 0.13173 0.29362 0.99849 0.0
C1335 C 0.12511 0.28928 0.0037 0.0
C1336 C 0.13487 0.28968 0.99057 0.0
C1337 C 0.1454 0.26767 0.94827 0.0
C1338 C 0.14511 0.28317 0.94303 0.0
C1339 C 0.15061 0.2713 0.93327 0.0
C1340 C 0.149 0.26495 0.94002 0.0
C1341 C 0.14863 0.28048 0.93467 0.0
C1342 C 0.14351 0.27682 0.94977 0.0
C1343 C 0.14347 0.26093 0.95522 0.0
O1344 O 0.14279 0.25148 0.98125 0.0
O1345 O 0.12875 0.251 0.9766 0.0
O1346 O 0.13492 0.26022 0.95749 0.0
O1347 O 0.14895 0.26102 0.96215 0.0
H1348 H 0.1425 0.24012 0.96553 0.0
H1349 H 0.14379 0.22428 0.96109 0.0
H1350 H 0.13175 0.21622 0.98627 0.0
H1351 H 0.13037 0.23213 0.9906 0.0
H1352 H 0.11678 0.27728 0.00481 0.0
H1353 H 0.12235 0.27036 0.99091 0.0
H1354 H 0.13432 0.30018 1.0004 0.0
H1355 H 0.13985 0.29324 0.98659 0.0
H1356 H 0.14339 0.29016 0.94429 0.0
H1357 H 0.15344 0.26902 0.92696 0.0
H1358 H 0.15052 0.25791 0.93878 0.0
H1359 H 0.14071 0.27902 0.95612 0.0
C1360 C 0.37901 0.73884 0.4996 0.0
C1361 C 0.37787 0.72948 0.49885 0.0
C1362 C 0.38513 0.72729 0.51335 0.0
C1363 C 0.38088 0.72376 0.50566 0.0
C1364 C 0.38623 0.7367 0.51408 0.0
C1365 C 0.3832 0.74243 0.50725 0.0
U1366 U 0.36996 0.7412 0.47617 0.0
O1367 O 0.35966 0.75014 0.47033 0.0
O1368 O 0.37353 0.75034 0.46512 0.0
C1369 C 0.36546 0.754 0.46486 0.0
C1370 C 0.37602 0.74479 0.49231 0.0
C1371 C 0.36521 0.7639 0.4646 0.0
C1372 C 0.36973 0.77859 0.4703 0.0
C1373 C 0.36985 0.76916 0.47094 0.0
C1374 C 0.36023 0.77753 0.4571 0.0
C1375 C 0.36495 0.78288 0.46334 0.0
C1376 C 0.36037 0.76813 0.45773 0.0
C1377 C 0.36569 0.71946 0.46297 0.0
C1378 C 0.36574 0.71768 0.44675 0.0
C1379 C 0.35863 0.70636 0.45612 0.0
C1380 C 0.36091 0.71133 0.46376 0.0
C1381 C 0.36115 0.70939 0.44752 0.0
C1382 C 0.36796 0.72268 0.4544 0.0
C1383 C 0.36846 0.7243 0.47116 0.0
O1384 O 0.38121 0.7447 0.48516 0.0
O1385 O 0.36737 0.7443 0.49037 0.0
O1386 O 0.36202 0.72863 0.47543 0.0
O1387 O 0.37603 0.72891 0.47061 0.0
H1388 H 0.37466 0.72659 0.49298 0.0
H1389 H 0.37979 0.71656 0.50494 0.0
H1390 H 0.38956 0.73964 0.51986 0.0
H1391 H 0.38417 0.74965 0.5079 0.0
H1392 H 0.37337 0.78253 0.47525 0.0
H1393 H 0.3736 0.76598 0.47631 0.0
H1394 H 0.3566 0.78059 0.45158 0.0
H1395 H 0.35677 0.76416 0.45277 0.0
H1396 H 0.36787 0.72018 0.44027 0.0
H1397 H 0.35493 0.70011 0.45696 0.0
H1398 H 0.35904 0.70878 0.47031 0.0
H1399 H 0.3716 0.72898 0.45363 0.0
C1400 C 0.73945 0.52736 0.86894 0.0
C1401 C 0.73745 0.53604 0.86579 0.0
C1402 C 0.72138 0.5332 0.86779 0.0
C1403 C 0.7285 0.53893 0.86521 0.0
C1404 C 0.72343 0.52443 0.87078 0.0
C1405 C 0.73241 0.52154 0.87137 0.0
U1406 U 0.76414 0.53318 0.86738 0.0
O1407 O 0.7755 0.53049 0.87645 0.0
O1408 O 0.77588 0.52545 0.86258 0.0
C1409 C 0.7798 0.52555 0.8705 0.0
C1410 C 0.74889 0.52455 0.86998 0.0
C1411 C 0.78332 0.51685 0.87368 0.0
C1412 C 0.78232 0.50346 0.88305 0.0
C1413 C 0.77858 0.51153 0.87989 0.0
C1414 C 0.79547 0.50587 0.87367 0.0
C1415 C 0.79082 0.50056 0.87998 0.0
C1416 C 0.79175 0.51394 0.87056 0.0
C1417 C 0.77078 0.55661 0.8596 0.0
C1418 C 0.78633 0.5617 0.8606 0.0
C1419 C 0.77518 0.57096 0.85308 0.0
C1420 C 0.76855 0.56448 0.8549 0.0
C1421 C 0.78413 0.56966 0.85596 0.0
C1422 C 0.77972 0.55522 0.86238 0.0
C1423 C 0.76377 0.54989 0.86159 0.0
O1424 O 0.75353 0.52401 0.86248 0.0
O1425 O 0.7533 0.52873 0.87643 0.0
O1426 O 0.763 0.5477 0.87011 0.0
O1427 O 0.7636 0.54287 0.8562 0.0
H1428 H 0.74282 0.54062 0.86387 0.0
H1429 H 0.72715 0.54568 0.86276 0.0
H1430 H 0.7181 0.51988 0.8729 0.0
H1431 H 0.73385 0.51482 0.87384 0.0
H1432 H 0.77855 0.49947 0.88785 0.0
H1433 H 0.77203 0.51365 0.88234 0.0
H1434 H 0.80208 0.50389 0.87126 0.0
H1435 H 0.79552 0.51797 0.86579 0.0
H1436 H 0.79319 0.56045 0.8628 0.0
H1437 H 0.77327 0.57706 0.84956 0.0
H1438 H 0.76168 0.56564 0.8527 0.0
H1439 H 0.78156 0.54913 0.86596 0.0
C1440 C 0.74009 0.50673 0.13101 0.0
C1441 C 0.73098 0.50741 0.13349 0.0
C1442 C 0.72752 0.49356 0.12541 0.0
C1443 C 0.72477 0.50088 0.13076 0.0
C1444 C 0.7367 0.4928 0.12307 0.0
C1445 C 0.74293 0.49936 0.12583 0.0
U1446 U 0.74305 0.53065 0.13837 0.0
O1447 O 0.75234 0.53742 0.14771 0.0
O1448 O 0.75189 0.54156 0.13355 0.0
C1449 C 0.75595 0.54242 0.14135 0.0
C1450 C 0.74638 0.51406 0.13329 0.0
C1451 C 0.7659 0.54303 0.1411 0.0
C1452 C 0.78079 0.53888 0.14665 0.0
C1453 C 0.77143 0.53755 0.14649 0.0
C1454 C 0.77925 0.551 0.13586 0.0
C1455 C 0.78479 0.54572 0.14144 0.0
C1456 C 0.76992 0.54969 0.13573 0.0
C1457 C 0.72123 0.54389 0.14211 0.0
C1458 C 0.72077 0.55914 0.14811 0.0
C1459 C 0.70752 0.55274 0.14097 0.0
C1460 C 0.71222 0.54473 0.13942 0.0
C1461 C 0.71177 0.56006 0.14526 0.0
C1462 C 0.72549 0.55112 0.1465 0.0
C1463 C 0.72611 0.53556 0.13995 0.0
O1464 O 0.7462 0.5209 0.12769 0.0
O1465 O 0.74632 0.51657 0.14176 0.0
O1466 O 0.73074 0.5319 0.14653 0.0
O1467 O 0.73051 0.5357 0.1323 0.0
H1468 H 0.72864 0.51309 0.13744 0.0
H1469 H 0.7178 0.50159 0.13282 0.0
H1470 H 0.73902 0.48728 0.11889 0.0
H1471 H 0.74993 0.49878 0.12378 0.0
H1472 H 0.78484 0.53475 0.15108 0.0
H1473 H 0.76852 0.53236 0.15072 0.0
H1474 H 0.78212 0.55621 0.13164 0.0
H1475 H 0.7658 0.55401 0.13153 0.0
H1476 H 0.72423 0.56469 0.15137 0.0
H1477 H 0.70056 0.55321 0.13881 0.0
H1478 H 0.70883 0.53922 0.13602 0.0
H1479 H 0.73249 0.5506 0.14856 0.0
C1480 C 0.7411 0.50051 0.37523 0.0
C1481 C 0.73228 0.50102 0.37181 0.0
C1482 C 0.72934 0.51435 0.38089 0.0
C1483 C 0.72648 0.5079 0.37457 0.0
C1484 C 0.73818 0.51382 0.38432 0.0
C1485 C 0.74402 0.50695 0.38149 0.0
U1486 U 0.74324 0.4764 0.36779 0.0
O1487 O 0.75192 0.46971 0.35782 0.0
O1488 O 0.75232 0.46546 0.37193 0.0
C1489 C 0.75584 0.4646 0.36388 0.0
C1490 C 0.74703 0.49296 0.3727 0.0
C1491 C 0.76574 0.46429 0.36351 0.0
C1492 C 0.7805 0.47052 0.36707 0.0
C1493 C 0.77107 0.47116 0.36726 0.0
C1494 C 0.77932 0.45622 0.35926 0.0
C1495 C 0.78473 0.46301 0.3631 0.0
C1496 C 0.76992 0.45685 0.35948 0.0
C1497 C 0.72116 0.46328 0.36514 0.0
C1498 C 0.72033 0.44804 0.35916 0.0
C1499 C 0.70743 0.45452 0.36681 0.0
C1500 C 0.71226 0.4625 0.36818 0.0
C1501 C 0.71144 0.44718 0.36235 0.0
C1502 C 0.72519 0.45603 0.36059 0.0
C1503 C 0.72621 0.47157 0.36711 0.0
O1504 O 0.74698 0.48614 0.37833 0.0
O1505 O 0.74654 0.49042 0.36424 0.0
O1506 O 0.73048 0.47529 0.36032 0.0
O1507 O 0.73104 0.47134 0.3745 0.0
H1508 H 0.72983 0.49602 0.3671 0.0
H1509 H 0.71967 0.50805 0.37192 0.0
H1510 H 0.74057 0.51872 0.38917 0.0
H1511 H 0.75077 0.50662 0.38426 0.0
H1512 H 0.78447 0.47591 0.37001 0.0
H1513 H 0.76793 0.47698 0.37038 0.0
H1514 H 0.78235 0.45028 0.35628 0.0
H1515 H 0.7659 0.45148 0.35658 0.0
H1516 H 0.72361 0.44247 0.35576 0.0
H1517 H 0.70055 0.45409 0.36924 0.0
H1518 H 0.70906 0.46803 0.37172 0.0
H1519 H 0.7321 0.45651 0.35825 0.0
C1520 C 0.73671 0.48062 0.6317 0.0
C1521 C 0.73266 0.47565 0.62473 0.0
C1522 C 0.71831 0.4756 0.6327 0.0
C1523 C 0.72357 0.47316 0.62524 0.0
C1524 C 0.7223 0.48074 0.63958 0.0
C1525 C 0.73139 0.48326 0.63906 0.0
U1526 U 0.76145 0.47438 0.63499 0.0
O1527 O 0.77345 0.47716 0.6268 0.0
O1528 O 0.77281 0.4821 0.64069 0.0
C1529 C 0.77728 0.48211 0.63307 0.0
C1530 C 0.74644 0.48301 0.63138 0.0
C1531 C 0.78082 0.4909 0.63014 0.0
C1532 C 0.77966 0.50461 0.62127 0.0
C1533 C 0.77595 0.49644 0.62423 0.0
C1534 C 0.79302 0.50184 0.63025 0.0
C1535 C 0.78826 0.50738 0.62423 0.0
C1536 C 0.78933 0.49367 0.63316 0.0
C1537 C 0.76735 0.45073 0.64305 0.0
C1538 C 0.78169 0.44651 0.64976 0.0
C1539 C 0.77229 0.43512 0.64275 0.0
C1540 C 0.76588 0.4417 0.64067 0.0
C1541 C 0.78029 0.43743 0.64731 0.0
C1542 C 0.77531 0.4531 0.6476 0.0
C1543 C 0.76064 0.4576 0.64052 0.0
O1544 O 0.75057 0.48357 0.63918 0.0
O1545 O 0.75131 0.47892 0.62522 0.0
O1546 O 0.76061 0.45985 0.63199 0.0
O1547 O 0.75993 0.46457 0.64594 0.0
H1548 H 0.73652 0.47357 0.61892 0.0
H1549 H 0.72072 0.46914 0.61986 0.0
H1550 H 0.71838 0.48284 0.64535 0.0
H1551 H 0.73426 0.48721 0.64448 0.0
H1552 H 0.7758 0.50877 0.6167 0.0
H1553 H 0.76933 0.49443 0.62186 0.0
H1554 H 0.79969 0.50372 0.63256 0.0
H1555 H 0.79318 0.48947 0.6377 0.0
H1556 H 0.7877 0.44853 0.65337 0.0
H1557 H 0.77104 0.42824 0.64061 0.0
H1558 H 0.7598 0.43976 0.6371 0.0
H1559 H 0.77662 0.46005 0.64947 0.0
C1560 C 0.48893 0.13311 0.24866 0.0
C1561 C 0.47968 0.13114 0.24826 0.0
C1562 C 0.47713 0.13951 0.26211 0.0
C1563 C 0.47384 0.13427 0.25493 0.0
C1564 C 0.48643 0.14147 0.26246 0.0
C1565 C 0.49228 0.13829 0.25579 0.0
U1566 U 0.49164 0.12371 0.2254 0.0
O1567 O 0.50122 0.1267 0.21454 0.0
O1568 O 0.50028 0.11294 0.21996 0.0
C1569 C 0.50451 0.11846 0.21448 0.0
C1570 C 0.495 0.12993 0.24153 0.0
C1571 C 0.5144 0.11773 0.21438 0.0
C1572 C 0.52926 0.12189 0.21995 0.0
C1573 C 0.51983 0.12253 0.22045 0.0
C1574 C 0.52785 0.11155 0.20741 0.0
C1575 C 0.53337 0.11642 0.21339 0.0
C1576 C 0.51846 0.11221 0.20791 0.0
C1577 C 0.47022 0.11975 0.21182 0.0
C1578 C 0.47071 0.11405 0.19654 0.0
C1579 C 0.45632 0.11727 0.20359 0.0
C1580 C 0.46078 0.11998 0.21139 0.0
C1581 C 0.46122 0.11427 0.19607 0.0
C1582 C 0.47517 0.11676 0.20437 0.0
C1583 C 0.47479 0.12269 0.22005 0.0
O1584 O 0.49441 0.12127 0.23968 0.0
O1585 O 0.4952 0.13503 0.23431 0.0
O1586 O 0.47973 0.13002 0.21926 0.0
O1587 O 0.4788 0.11627 0.22464 0.0
H1588 H 0.47696 0.12717 0.24278 0.0
H1589 H 0.46676 0.13249 0.2545 0.0
H1590 H 0.48918 0.14558 0.26782 0.0
H1591 H 0.4994 0.13993 0.25616 0.0
H1592 H 0.53332 0.12566 0.22469 0.0
H1593 H 0.51679 0.12679 0.22552 0.0
H1594 H 0.53078 0.10739 0.2022 0.0
H1595 H 0.51436 0.10848 0.20316 0.0
H1596 H 0.47468 0.1117 0.1909 0.0
H1597 H 0.44902 0.11765 0.2034 0.0
H1598 H 0.45687 0.1223 0.21708 0.0
H1599 H 0.48248 0.11653 0.20462 0.0
C1600 C 0.98868 0.88965 0.7296 0.0
C1601 C 0.98681 0.89327 0.72111 0.0
C1602 C 0.9708 0.8902 0.72316 0.0
C1603 C 0.97795 0.89355 0.71793 0.0
C1604 C 0.97267 0.88683 0.73179 0.0
C1605 C 0.98157 0.88653 0.73498 0.0
U1606 U 0.01321 0.89135 0.72378 0.0
O1607 O 0.02515 0.89597 0.73133 0.0
O1608 O 0.0246 0.88216 0.72598 0.0
C1609 C 0.0291 0.88804 0.73084 0.0
C1610 C 0.9981 0.88862 0.73251 0.0
C1611 C 0.03303 0.88457 0.73919 0.0
C1612 C 0.0321 0.87575 0.75291 0.0
C1613 C 0.02793 0.87953 0.74535 0.0
C1614 C 0.04639 0.88223 0.7483 0.0
C1615 C 0.04141 0.87694 0.75439 0.0
C1616 C 0.04224 0.88599 0.74078 0.0
C1617 C 0.01917 0.89916 0.70025 0.0
C1618 C 0.03461 0.89846 0.69481 0.0
C1619 C 0.02282 0.90454 0.68531 0.0
C1620 C 0.01649 0.90302 0.6921 0.0
C1621 C 0.03194 0.90221 0.68655 0.0
C1622 C 0.02828 0.89696 0.70161 0.0
C1623 C 0.01242 0.89724 0.70719 0.0
O1624 O 1.00251 0.88216 0.72836 0.0
O1625 O 1.00274 0.89618 0.73309 0.0
O1626 O 0.01256 0.90263 0.71419 0.0
O1627 O 0.01164 0.88868 0.70936 0.0
H1628 H 0.99223 0.8957 0.71687 0.0
H1629 H 0.97672 0.8963 0.71131 0.0
H1630 H 0.96731 0.88413 0.73594 0.0
H1631 H 0.98291 0.88367 0.74153 0.0
H1632 H 0.02809 0.87168 0.75745 0.0
H1633 H 0.0208 0.87837 0.74421 0.0
H1634 H 0.05353 0.88343 0.74933 0.0
H1635 H 0.04626 0.88989 0.73611 0.0
H1636 H 0.04155 0.89648 0.69596 0.0
H1637 H 0.02056 0.90756 0.67908 0.0
H1638 H 0.00948 0.90478 0.69097 0.0
H1639 H 0.03045 0.89396 0.70787 0.0
C1640 C 0.51792 0.88304 0.27512 0.0
C1641 C 0.52016 0.88707 0.28335 0.0
C1642 C 0.53614 0.88475 0.28033 0.0
C1643 C 0.52919 0.88794 0.28592 0.0
C1644 C 0.53385 0.88075 0.27206 0.0
C1645 C 0.5248 0.87991 0.26948 0.0
U1646 U 0.49336 0.88419 0.28155 0.0
O1647 O 0.48144 0.88927 0.27432 0.0
O1648 O 0.48194 0.87514 0.27874 0.0
C1649 C 0.47754 0.8813 0.27415 0.0
C1650 C 0.50841 0.88191 0.27256 0.0
C1651 C 0.4739 0.87845 0.26541 0.0
C1652 C 0.47488 0.8698 0.25157 0.0
C1653 C 0.47867 0.87259 0.25972 0.0
C1654 C 0.46162 0.87886 0.25463 0.0
C1655 C 0.4663 0.87291 0.24894 0.0
C1656 C 0.46538 0.88159 0.26278 0.0
C1657 C 0.48748 0.89143 0.3053 0.0
C1658 C 0.47193 0.89163 0.31044 0.0
C1659 C 0.48393 0.89669 0.32031 0.0
C1660 C 0.49027 0.89488 0.3136 0.0
C1661 C 0.47468 0.89507 0.31882 0.0
C1662 C 0.47828 0.88983 0.30374 0.0
C1663 C 0.4942 0.88951 0.29833 0.0
O1664 O 0.50419 0.87529 0.27667 0.0
O1665 O 0.50368 0.8894 0.27229 0.0
O1666 O 0.49421 0.89512 0.29151 0.0
O1667 O 0.49477 0.88101 0.29588 0.0
H1668 H 0.51491 0.88946 0.28782 0.0
H1669 H 0.53071 0.89092 0.29238 0.0
H1670 H 0.53905 0.8783 0.26758 0.0
H1671 H 0.52318 0.87677 0.26311 0.0
H1672 H 0.47869 0.86529 0.24728 0.0
H1673 H 0.4853 0.87014 0.26161 0.0
H1674 H 0.45495 0.88127 0.25286 0.0
H1675 H 0.4616 0.8861 0.26709 0.0
H1676 H 0.46489 0.8902 0.30911 0.0
H1677 H 0.48626 0.89945 0.32664 0.0
H1678 H 0.49735 0.89618 0.31489 0.0
H1679 H 0.47603 0.88715 0.29735 0.0
C1680 C 0.8784 0.74843 0.01775 0.0
C1681 C 0.8744 0.74621 0.026 0.0
C1682 C 0.87279 0.76214 0.02969 0.0
C1683 C 0.87157 0.75298 0.03187 0.0
C1684 C 0.87678 0.76434 0.02139 0.0
C1685 C 0.87955 0.75753 0.01547 0.0
U1686 U 0.88819 0.72518 0.01505 0.0
O1687 O 0.88489 0.71396 0.00599 0.0
O1688 O 0.89857 0.71972 0.00598 0.0
C1689 C 0.89293 0.71396 1.00226 0.0
C1690 C 0.88175 0.74129 0.01174 0.0
C1691 C 0.89296 0.71351 0.99243 0.0
C1692 C 0.89034 0.72019 0.97776 0.0
C1693 C 0.89092 0.72106 0.98711 0.0
C1694 C 0.89397 0.7043 0.97903 0.0
C1695 C 0.89169 0.71175 0.97365 0.0
C1696 C 0.8946 0.70518 0.98832 0.0
C1697 C 0.89242 0.7115 0.03616 0.0
C1698 C 0.89797 0.69612 0.03528 0.0
C1699 C 0.89406 0.7026 0.04971 0.0
C1700 C 0.8917 0.71068 0.04549 0.0
C1701 C 0.89719 0.69521 0.04465 0.0
C1702 C 0.8956 0.7042 0.03107 0.0
C1703 C 0.88956 0.71989 0.03179 0.0
O1704 O 0.89044 0.73963 0.01234 0.0
O1705 O 0.87679 0.73392 0.01145 0.0
O1706 O 0.88206 0.71926 0.02712 0.0
O1707 O 0.89596 0.72438 0.02762 0.0
H1708 H 0.87351 0.73922 0.02794 0.0
H1709 H 0.8684 0.75102 0.03812 0.0
H1710 H 0.87795 0.7713 0.01954 0.0
H1711 H 0.8827 0.75938 0.00917 0.0
H1712 H 0.88853 0.72603 0.97378 0.0
H1713 H 0.8896 0.72754 0.99021 0.0
H1714 H 0.89517 0.69774 0.97604 0.0
H1715 H 0.89618 0.6993 0.99233 0.0
H1716 H 0.90044 0.69059 0.03121 0.0
H1717 H 0.89325 0.70209 0.05691 0.0
H1718 H 0.8892 0.71624 0.0495 0.0
H1719 H 0.89617 0.70475 0.02384 0.0
C1720 C 0.61646 0.27733 0.48852 0.0
C1721 C 0.61313 0.28596 0.48656 0.0
C1722 C 0.61534 0.28329 0.47059 0.0
C1723 C 0.61256 0.2889 0.47768 0.0
C1724 C 0.6185 0.27456 0.47258 0.0
C1725 C 0.61907 0.27161 0.48149 0.0
U1726 U 0.61524 0.28344 0.51293 0.0
O1727 O 0.6243 0.28069 0.52425 0.0
O1728 O 0.61018 0.27613 0.52477 0.0
C1729 C 0.61814 0.27611 0.52869 0.0
C1730 C 0.61751 0.27452 0.49791 0.0
C1731 C 0.62103 0.26749 0.53263 0.0
C1732 C 0.63036 0.254 0.53265 0.0
C1733 C 0.62732 0.26184 0.52837 0.0
C1734 C 0.62067 0.25728 0.54534 0.0
C1735 C 0.6271 0.25166 0.54122 0.0
C1736 C 0.61768 0.26511 0.54108 0.0
C1737 C 0.60817 0.30725 0.51904 0.0
C1738 C 0.60854 0.31228 0.53454 0.0
C1739 C 0.60286 0.32223 0.52294 0.0
C1740 C 0.60449 0.31556 0.5165 0.0
C1741 C 0.6049 0.32068 0.53204 0.0
C1742 C 0.61015 0.30562 0.5281 0.0
C1743 C 0.60997 0.30033 0.51223 0.0
O1744 O 0.62416 0.27852 0.5022 0.0
O1745 O 0.60999 0.27422 0.50258 0.0
O1746 O 0.60432 0.29348 0.51219 0.0
O1747 O 0.61846 0.29786 0.51154 0.0
H1748 H 0.61107 0.29046 0.49191 0.0
H1749 H 0.60997 0.29561 0.47637 0.0
H1750 H 0.62077 0.2701 0.46728 0.0
H1751 H 0.62169 0.26494 0.48291 0.0
H1752 H 0.63526 0.24977 0.52928 0.0
H1753 H 0.62997 0.26356 0.52181 0.0
H1754 H 0.61813 0.25578 0.55199 0.0
H1755 H 0.61285 0.26941 0.54449 0.0
H1756 H 0.61031 0.3109 0.54146 0.0
H1757 H 0.59994 0.32857 0.52081 0.0
H1758 H 0.60289 0.3169 0.50953 0.0
H1759 H 0.613 0.29922 0.53016 0.0
C1760 C 0.24833 0.49052 0.13007 0.0
C1761 C 0.24831 0.48138 0.12759 0.0
C1762 C 0.26242 0.47903 0.13564 0.0
C1763 C 0.25531 0.4757 0.13031 0.0
C1764 C 0.26233 0.48817 0.13823 0.0
C1765 C 0.25534 0.49387 0.13544 0.0
U1766 U 0.22459 0.49306 0.1214 0.0
O1767 O 0.21374 0.50261 0.12472 0.0
O1768 O 0.21881 0.50174 0.1109 0.0
C1769 C 0.21349 0.50597 0.11656 0.0
C1770 C 0.24095 0.49648 0.12718 0.0
C1771 C 0.21349 0.51585 0.1159 0.0
C1772 C 0.21966 0.53057 0.11972 0.0
C1773 C 0.21997 0.52114 0.12034 0.0
C1774 C 0.20648 0.52945 0.11013 0.0
C1775 C 0.21289 0.53482 0.11461 0.0
C1776 C 0.20679 0.52006 0.11078 0.0
C1777 C 0.21084 0.47168 0.11768 0.0
C1778 C 0.19548 0.47222 0.11198 0.0
C1779 C 0.20217 0.45788 0.11607 0.0
C1780 C 0.21014 0.46229 0.11848 0.0
C1781 C 0.19473 0.46278 0.11281 0.0
C1782 C 0.20348 0.47663 0.1144 0.0
C1783 C 0.2192 0.47622 0.12041 0.0
O1784 O 0.23886 0.49595 0.11862 0.0
O1785 O 0.23384 0.49653 0.13246 0.0
O1786 O 0.2186 0.48109 0.12776 0.0
O1787 O 0.22365 0.48029 0.11394 0.0
H1788 H 0.24288 0.47864 0.12355 0.0
H1789 H 0.25512 0.46867 0.12833 0.0
H1790 H 0.26774 0.49093 0.14228 0.0
H1791 H 0.25543 0.5009 0.13745 0.0
H1792 H 0.22473 0.53452 0.12318 0.0
H1793 H 0.22523 0.51798 0.12429 0.0
H1794 H 0.2011 0.5325 0.10626 0.0
H1795 H 0.20172 0.51607 0.10733 0.0
H1796 H 0.18992 0.47618 0.1094 0.0
H1797 H 0.20177 0.45063 0.11693 0.0
H1798 H 0.21576 0.45839 0.12105 0.0
H1799 H 0.20392 0.4839 0.11374 0.0
C1800 C 0.27577 0.51897 0.88547 0.0
C1801 C 0.28382 0.52151 0.88974 0.0
C1802 C 0.28057 0.53734 0.88682 0.0
C1803 C 0.28619 0.53061 0.89043 0.0
C1804 C 0.27245 0.53475 0.88262 0.0
C1805 C 0.27007 0.52563 0.88195 0.0
U1806 U 0.28293 0.49473 0.88755 0.0
O1807 O 0.28139 0.48315 0.87847 0.0
O1808 O 0.27573 0.48255 0.89208 0.0
C1809 C 0.27653 0.47854 0.88425 0.0
C1810 C 0.27354 0.50937 0.88438 0.0
C1811 C 0.2683 0.47433 0.88067 0.0
C1812 C 0.25426 0.47498 0.87225 0.0
C1813 C 0.26183 0.47931 0.87592 0.0
C1814 C 0.25953 0.46072 0.87822 0.0
C1815 C 0.25309 0.4656 0.87328 0.0
C1816 C 0.26707 0.46504 0.88186 0.0
C1817 C 0.30644 0.48978 0.89632 0.0
C1818 C 0.31224 0.47447 0.89637 0.0
C1819 C 0.32143 0.48671 0.90214 0.0
C1820 C 0.3145 0.49281 0.90021 0.0
C1821 C 0.3204 0.47747 0.90018 0.0
C1822 C 0.30531 0.48057 0.89446 0.0
C1823 C 0.29934 0.49627 0.89402 0.0
O1824 O 0.27826 0.50518 0.87817 0.0
O1825 O 0.27289 0.50476 0.89189 0.0
O1826 O 0.2921 0.49598 0.89911 0.0
O1827 O 0.29746 0.49682 0.88542 0.0
H1828 H 0.28833 0.51644 0.89242 0.0
H1829 H 0.29255 0.53235 0.89357 0.0
H1830 H 0.26794 0.53977 0.87984 0.0
H1831 H 0.26384 0.52377 0.87861 0.0
H1832 H 0.24944 0.47892 0.86845 0.0
H1833 H 0.26269 0.48651 0.87495 0.0
H1834 H 0.25875 0.45353 0.8793 0.0
H1835 H 0.27198 0.46111 0.88556 0.0
H1836 H 0.31127 0.46742 0.89467 0.0
H1837 H 0.32757 0.48923 0.90518 0.0
H1838 H 0.31545 0.49991 0.90171 0.0
H1839 H 0.29912 0.47813 0.89143 0.0
C1840 C 0.2771 0.48676 0.62219 0.0
C1841 C 0.28534 0.48425 0.61828 0.0
C1842 C 0.28181 0.46839 0.62072 0.0
C1843 C 0.28767 0.47515 0.61753 0.0
C1844 C 0.27355 0.47095 0.62462 0.0
C1845 C 0.27121 0.48007 0.62533 0.0
U1846 U 0.28399 0.51118 0.62036 0.0
O1847 O 0.27685 0.52305 0.61505 0.0
O1848 O 0.2814 0.52285 0.62909 0.0
C1849 C 0.27683 0.52717 0.62287 0.0
C1850 C 0.27476 0.49634 0.62313 0.0
C1851 C 0.26816 0.53117 0.6256 0.0
C1852 C 0.25474 0.5316 0.63501 0.0
C1853 C 0.26277 0.52736 0.63237 0.0
C1854 C 0.25736 0.54336 0.62402 0.0
C1855 C 0.25196 0.53966 0.63085 0.0
C1856 C 0.26538 0.53916 0.62144 0.0
C1857 C 0.30768 0.51685 0.61257 0.0
C1858 C 0.31267 0.53244 0.61191 0.0
C1859 C 0.32251 0.52049 0.60667 0.0
C1860 C 0.31591 0.5141 0.60885 0.0
C1861 C 0.32097 0.52974 0.60818 0.0
C1862 C 0.30608 0.52605 0.61408 0.0
C1863 C 0.30076 0.51011 0.61479 0.0
O1864 O 0.27909 0.50063 0.62954 0.0
O1865 O 0.27444 0.50088 0.61556 0.0
O1866 O 0.29379 0.50991 0.60934 0.0
O1867 O 0.29847 0.50976 0.6233 0.0
H1868 H 0.29 0.48935 0.61587 0.0
H1869 H 0.29414 0.47342 0.61463 0.0
H1870 H 0.26886 0.4659 0.62706 0.0
H1871 H 0.26482 0.4819 0.62837 0.0
H1872 H 0.25069 0.52856 0.64024 0.0
H1873 H 0.26478 0.52116 0.63565 0.0
H1874 H 0.25549 0.54963 0.62078 0.0
H1875 H 0.26947 0.54222 0.61623 0.0
H1876 H 0.31131 0.53949 0.61328 0.0
H1877 H 0.32877 0.5182 0.6037 0.0
H1878 H 0.31722 0.50702 0.6076 0.0
H1879 H 0.29974 0.52827 0.61695 0.0
C1880 C 0.24738 0.51495 0.37787 0.0
C1881 C 0.2455 0.5225 0.37248 0.0
C1882 C 0.26147 0.52635 0.37202 0.0
C1883 C 0.25249 0.52811 0.36954 0.0
C1884 C 0.26333 0.51879 0.37741 0.0
C1885 C 0.25634 0.51312 0.38028 0.0
U1886 U 0.22378 0.51261 0.38733 0.0
O1887 O 0.21289 0.50293 0.38459 0.0
O1888 O 0.21841 0.50412 0.39822 0.0
C1889 C 0.21293 0.49974 0.39282 0.0
C1890 C 0.24004 0.50918 0.38132 0.0
C1891 C 0.21302 0.48986 0.3936 0.0
C1892 C 0.21906 0.47516 0.38958 0.0
C1893 C 0.21941 0.48459 0.38904 0.0
C1894 C 0.20605 0.47624 0.39939 0.0
C1895 C 0.21233 0.47088 0.39473 0.0
C1896 C 0.2064 0.48563 0.39882 0.0
C1897 C 0.20987 0.53389 0.3907 0.0
C1898 C 0.19472 0.53326 0.39691 0.0
C1899 C 0.20111 0.5476 0.39233 0.0
C1900 C 0.20905 0.54324 0.38973 0.0
C1901 C 0.19385 0.54267 0.39595 0.0
C1902 C 0.20268 0.52891 0.39431 0.0
C1903 C 0.21823 0.52941 0.38789 0.0
O1904 O 0.23823 0.51019 0.38989 0.0
O1905 O 0.23277 0.50865 0.37628 0.0
O1906 O 0.21753 0.5243 0.38072 0.0
O1907 O 0.22289 0.52562 0.39438 0.0
H1908 H 0.23862 0.52413 0.37063 0.0
H1909 H 0.25084 0.53395 0.36549 0.0
H1910 H 0.2702 0.51724 0.37938 0.0
H1911 H 0.25793 0.50736 0.38446 0.0
H1912 H 0.22404 0.47123 0.38598 0.0
H1913 H 0.2246 0.48776 0.385 0.0
H1914 H 0.2007 0.47317 0.4033 0.0
H1915 H 0.2014 0.48961 0.40236 0.0
H1916 H 0.1893 0.52928 0.39976 0.0
H1917 H 0.20061 0.55483 0.39137 0.0
H1918 H 0.21454 0.54717 0.38692 0.0
H1919 H 0.20323 0.52166 0.39511 0.0
C1920 C 0.09393 0.34976 0.0806 0.0
C1921 C 0.09925 0.35048 0.0728 0.0
C1922 C 0.10431 0.35842 0.07137 0.0
C1923 C 0.09901 0.36458 0.08547 0.0
C1924 C 0.09387 0.3569 0.08679 0.0
C1925 C 0.08858 0.35732 0.09542 0.0
H1926 H 0.0786 0.37978 0.13382 0.0
C1927 C 0.0977 0.37061 0.09325 0.0
C1928 C 0.09151 0.36645 0.09908 0.0
H1929 H 0.06813 0.35402 0.125 0.0
H1930 H 0.07685 0.35512 0.11132 0.0
H1931 H 0.09849 0.37608 0.1284 0.0
H1932 H 0.0772 0.38988 0.1144 0.0
H1933 H 0.08711 0.39629 0.11306 0.0
H1934 H 0.08266 0.39444 0.12417 0.0
H1935 H 0.09508 0.38731 0.13135 0.0
H1936 H 0.10356 0.38522 0.1229 0.0
C1937 C 0.09172 0.34946 0.1015 0.0
C1938 C 0.0784 0.35714 0.09307 0.0
C1939 C 0.11646 0.39922 0.09596 0.0
C1940 C 0.11726 0.40581 0.10271 0.0
C1941 C 0.11142 0.40539 0.11018 0.0
C1942 C 0.1051 0.39839 0.11104 0.0
C1943 C 0.10462 0.39168 0.10438 0.0
C1944 C 0.11016 0.39223 0.09695 0.0
C1945 C 0.1088 0.38444 0.09061 0.0
C1946 C 0.10166 0.37902 0.09557 0.0
C1947 C 0.09925 0.3833 0.10362 0.0
C1948 C 0.11786 0.37926 0.0899 0.0
C1949 C 0.10521 0.3882 0.08159 0.0
C1950 C 0.07806 0.37444 0.12888 0.0
C1951 C 0.07263 0.36683 0.13048 0.0
C1952 C 0.07231 0.35993 0.12395 0.0
C1953 C 0.07736 0.3606 0.11601 0.0
C1954 C 0.08284 0.36822 0.11458 0.0
C1955 C 0.08309 0.37499 0.12096 0.0
C1956 C 0.08944 0.38249 0.11847 0.0
C1957 C 0.09291 0.37917 0.10947 0.0
C1958 C 0.08904 0.37081 0.10722 0.0
C1959 C 0.09703 0.3829 0.12564 0.0
C1960 C 0.08389 0.39129 0.11752 0.0
H1961 H 0.10828 0.37126 0.07617 0.0
H1962 H 0.08989 0.3438 0.08184 0.0
H1963 H 0.07706 0.3609 0.08675 0.0
H1964 H 0.07417 0.3605 0.09817 0.0
H1965 H 0.07597 0.35011 0.09211 0.0
H1966 H 0.09915 0.34846 0.10094 0.0
H1967 H 0.08839 0.34303 0.09954 0.0
H1968 H 0.09049 0.35071 0.10869 0.0
H1969 H 0.12073 0.3994 0.09006 0.0
H1970 H 0.11194 0.4103 0.11554 0.0
H1971 H 0.10097 0.39838 0.11695 0.0
H1972 H 0.12128 0.37894 0.09654 0.0
H1973 H 0.12254 0.38265 0.08514 0.0
H1974 H 0.11704 0.37216 0.08783 0.0
H1975 H 0.1011 0.39439 0.08265 0.0
H1976 H 0.1006 0.38345 0.07814 0.0
H1977 H 0.11085 0.38999 0.077 0.0
H1978 H 0.10853 0.35911 0.06547 0.0
C1979 C 0.10421 0.36545 0.07763 0.0
C1980 C 0.90517 0.85569 0.42925 0.0
C1981 C 0.90972 0.84738 0.42885 0.0
C1982 C 0.9162 0.846 0.42205 0.0
C1983 C 0.91298 0.86081 0.41586 0.0
C1984 C 0.90688 0.86225 0.42273 0.0
C1985 C 0.90229 0.87125 0.42205 0.0
H1986 H 0.89273 0.9083 0.39765 0.0
C1987 C 0.91275 0.86881 0.40991 0.0
C1988 C 0.90653 0.87496 0.41355 0.0
H1989 H 0.88232 0.90084 0.42375 0.0
H1990 H 0.89227 0.88803 0.42415 0.0
H1991 H 0.9135 0.90468 0.40287 0.0
H1992 H 0.89356 0.8886 0.38926 0.0
H1993 H 0.90373 0.88774 0.38323 0.0
H1994 H 0.89849 0.8986 0.38453 0.0
H1995 H 0.9108 0.90646 0.39127 0.0
H1996 H 0.91935 0.89848 0.39469 0.0
C1997 C 0.90487 0.87693 0.43041 0.0
C1998 C 0.89202 0.86954 0.42094 0.0
C1999 C 0.93094 0.86918 0.38092 0.0
C2000 C 0.9316 0.87544 0.37384 0.0
C2001 C 0.92679 0.88363 0.37448 0.0
C2002 C 0.92133 0.88548 0.38192 0.0
C2003 C 0.92057 0.87908 0.38881 0.0
C2004 C 0.92542 0.87113 0.38831 0.0
C2005 C 0.92375 0.86512 0.39629 0.0
C2006 C 0.91712 0.8708 0.40165 0.0
C2007 C 0.91523 0.87892 0.39718 0.0
C2008 C 0.93279 0.86384 0.40134 0.0
C2009 C 0.91942 0.85624 0.39286 0.0
C2010 C 0.89267 0.90399 0.40351 0.0
C2011 C 0.88656 0.90552 0.41059 0.0
C2012 C 0.88676 0.8997 0.41809 0.0
C2013 C 0.89258 0.89227 0.41833 0.0
C2014 C 0.8983 0.89058 0.411 0.0
C2015 C 0.89848 0.89654 0.40388 0.0
C2016 C 0.90523 0.8938 0.39684 0.0
C2017 C 0.90887 0.88509 0.40081 0.0
C2018 C 0.90468 0.88318 0.40904 0.0
C2019 C 0.9126 0.90123 0.39629 0.0
C2020 C 0.90006 0.89214 0.38795 0.0
H2021 H 0.92275 0.85117 0.41047 0.0
H2022 H 0.9003 0.85704 0.43449 0.0
H2023 H 0.89078 0.86375 0.41635 0.0
H2024 H 0.88838 0.87525 0.4179 0.0
H2025 H 0.88883 0.86792 0.42749 0.0
H2026 H 0.91163 0.875 0.43304 0.0
H2027 H 0.89992 0.87597 0.43593 0.0
H2028 H 0.90547 0.88422 0.4289 0.0
H2029 H 0.93461 0.86286 0.3807 0.0
H2030 H 0.92704 0.88852 0.36909 0.0
H2031 H 0.91777 0.89178 0.38192 0.0
H2032 H 0.93686 0.87016 0.40121 0.0
H2033 H 0.9369 0.85842 0.39821 0.0
H2034 H 0.93185 0.86231 0.40853 0.0
H2035 H 0.9146 0.85762 0.3873 0.0
H2036 H 0.91538 0.85274 0.39801 0.0
H2037 H 0.92464 0.85154 0.39027 0.0
H2038 H 0.91979 0.83965 0.42159 0.0
C2039 C 0.91785 0.85267 0.41556 0.0
C2040 C 0.40355 0.65236 0.57903 0.0
C2041 C 0.4081 0.66066 0.57989 0.0
C2042 C 0.41426 0.6618 0.58703 0.0
C2043 C 0.41093 0.64671 0.59244 0.0
C2044 C 0.40504 0.64554 0.58534 0.0
C2045 C 0.40049 0.63647 0.58551 0.0
H2046 H 0.39257 0.59713 0.60705 0.0
C2047 C 0.41069 0.63841 0.59795 0.0
C2048 C 0.4046 0.63238 0.59388 0.0
H2049 H 0.38073 0.6065 0.58221 0.0
H2050 H 0.39001 0.61989 0.58276 0.0
H2051 H 0.41287 0.60247 0.60205 0.0
H2052 H 0.39206 0.61583 0.61709 0.0
H2053 H 0.40218 0.61732 0.62305 0.0
H2054 H 0.39797 0.60608 0.62114 0.0
H2055 H 0.41023 0.59937 0.61338 0.0
H2056 H 0.41839 0.60808 0.61086 0.0
C2057 C 0.40326 0.63125 0.57693 0.0
C2058 C 0.39019 0.63801 0.58651 0.0
C2059 C 0.42863 0.63652 0.62711 0.0
C2060 C 0.42928 0.62977 0.63374 0.0
C2061 C 0.42484 0.62147 0.63235 0.0
C2062 C 0.4196 0.61998 0.62469 0.0
C2063 C 0.41872 0.62688 0.6183 0.0
C2064 C 0.4233 0.63493 0.61947 0.0
C2065 C 0.42156 0.64142 0.61189 0.0
C2066 C 0.4151 0.63597 0.60608 0.0
C2067 C 0.41343 0.62749 0.60993 0.0
C2068 C 0.43062 0.64326 0.60705 0.0
C2069 C 0.417 0.64995 0.61584 0.0
C2070 C 0.39206 0.60199 0.60164 0.0
C2071 C 0.38585 0.60075 0.5946 0.0
C2072 C 0.38535 0.60734 0.58779 0.0
C2073 C 0.39077 0.61511 0.58811 0.0
C2074 C 0.39674 0.61636 0.59534 0.0
C2075 C 0.3974 0.60979 0.60187 0.0
C2076 C 0.40407 0.61224 0.60908 0.0
C2077 C 0.40724 0.62142 0.60585 0.0
C2078 C 0.4029 0.62383 0.59783 0.0
C2079 C 0.41179 0.60518 0.60893 0.0
C2080 C 0.39889 0.61286 0.6181 0.0
H2081 H 0.4204 0.6562 0.59862 0.0
H2082 H 0.39889 0.65118 0.57355 0.0
H2083 H 0.38879 0.64391 0.59092 0.0
H2084 H 0.38666 0.63232 0.58974 0.0
H2085 H 0.387 0.63936 0.5799 0.0
H2086 H 0.41037 0.63279 0.57505 0.0
H2087 H 0.39891 0.6331 0.57115 0.0
H2088 H 0.40309 0.62385 0.57783 0.0
H2089 H 0.43195 0.64297 0.62798 0.0
H2090 H 0.4254 0.61609 0.63724 0.0
H2091 H 0.41633 0.61355 0.62412 0.0
H2092 H 0.43485 0.63707 0.60685 0.0
H2093 H 0.43456 0.64859 0.61055 0.0
H2094 H 0.42973 0.6452 0.59995 0.0
H2095 H 0.41212 0.64808 0.62121 0.0
H2096 H 0.41298 0.65371 0.61087 0.0
H2097 H 0.42209 0.65457 0.61884 0.0
H2098 H 0.41781 0.66813 0.58791 0.0
C2099 C 0.4157 0.65487 0.59329 0.0
C2100 C 0.59477 0.15644 0.92534 0.0
C2101 C 0.59953 0.15568 0.93348 0.0
C2102 C 0.60424 0.14764 0.93534 0.0
C2103 C 0.59958 0.14136 0.92107 0.0
C2104 C 0.59482 0.14918 0.91928 0.0
C2105 C 0.58996 0.14871 0.91041 0.0
H2106 H 0.58068 0.12517 0.87244 0.0
C2107 C 0.59836 0.13514 0.91342 0.0
C2108 C 0.59264 0.13935 0.90718 0.0
H2109 H 0.57163 0.15202 0.87936 0.0
H2110 H 0.57922 0.15093 0.8937 0.0
H2111 H 0.60049 0.12808 0.8787 0.0
H2112 H 0.5776 0.11618 0.89188 0.0
H2113 H 0.58696 0.10939 0.89445 0.0
H2114 H 0.58352 0.11069 0.8829 0.0
H2115 H 0.59646 0.117 0.87595 0.0
H2116 H 0.60465 0.11883 0.88472 0.0
C2117 C 0.59378 0.15623 0.90427 0.0
C2118 C 0.57969 0.14942 0.91221 0.0
C2119 C 0.61569 0.10552 0.91252 0.0
C2120 C 0.61614 0.09851 0.90616 0.0
C2121 C 0.61053 0.09892 0.89852 0.0
C2122 C 0.60474 0.10624 0.89713 0.0
C2123 C 0.60456 0.11331 0.90342 0.0
C2124 C 0.60986 0.11282 0.91102 0.0
C2125 C 0.60868 0.12092 0.91701 0.0
C2126 C 0.60198 0.12646 0.9116 0.0
C2127 C 0.59963 0.12198 0.90364 0.0
C2128 C 0.61794 0.12572 0.91784 0.0
C2129 C 0.60463 0.1177 0.92605 0.0
C2130 C 0.58035 0.13085 0.87701 0.0
C2131 C 0.5756 0.13873 0.8747 0.0
C2132 C 0.57519 0.14586 0.88097 0.0
C2133 C 0.57967 0.14523 0.88927 0.0
C2134 C 0.58461 0.1374 0.89133 0.0
C2135 C 0.58481 0.13037 0.88525 0.0
C2136 C 0.59055 0.12264 0.88837 0.0
C2137 C 0.59377 0.12616 0.89737 0.0
C2138 C 0.59029 0.1348 0.8991 0.0
C2139 C 0.59844 0.12148 0.8816 0.0
C2140 C 0.58441 0.11423 0.88942 0.0
H2141 H 0.60805 0.1346 0.931 0.0
H2142 H 0.59101 0.1625 0.92377 0.0
H2143 H 0.57784 0.14576 0.91846 0.0
H2144 H 0.57557 0.14626 0.90689 0.0
H2145 H 0.5776 0.15656 0.91303 0.0
H2146 H 0.6012 0.15693 0.90519 0.0
H2147 H 0.59065 0.16285 0.90584 0.0
H2148 H 0.59286 0.15478 0.89706 0.0
H2149 H 0.6198 0.10536 0.91853 0.0
H2150 H 0.6108 0.09367 0.89346 0.0
H2151 H 0.60075 0.10618 0.89113 0.0
H2152 H 0.62144 0.12589 0.91123 0.0
H2153 H 0.62241 0.12212 0.92264 0.0
H2154 H 0.6174 0.13283 0.91994 0.0
H2155 H 0.60052 0.11147 0.92518 0.0
H2156 H 0.59989 0.12266 0.92899 0.0
H2157 H 0.61002 0.11618 0.93101 0.0
H2158 H 0.60802 0.14692 0.94152 0.0
C2159 C 0.60429 0.1405 0.9292 0.0
C2160 C 0.09383 0.65645 0.42647 0.0
C2161 C 0.09856 0.65578 0.43464 0.0
C2162 C 0.10323 0.64775 0.43662 0.0
C2163 C 0.09869 0.64135 0.42237 0.0
C2164 C 0.09392 0.64913 0.42049 0.0
C2165 C 0.08912 0.64857 0.4116 0.0
H2166 H 0.08047 0.62487 0.3736 0.0
C2167 C 0.09759 0.63508 0.41475 0.0
C2168 C 0.09188 0.63921 0.40844 0.0
H2169 H 0.07095 0.65158 0.38045 0.0
H2170 H 0.0784 0.65057 0.39487 0.0
H2171 H 0.10007 0.62808 0.37991 0.0
H2172 H 0.07742 0.61575 0.39314 0.0
H2173 H 0.08693 0.60907 0.39552 0.0
H2174 H 0.08335 0.6105 0.38403 0.0
H2175 H 0.09642 0.61683 0.37732 0.0
H2176 H 0.10448 0.61909 0.38612 0.0
C2177 C 0.09291 0.65607 0.40543 0.0
C2178 C 0.07883 0.64921 0.41334 0.0
C2179 C 0.11575 0.60599 0.4138 0.0
C2180 C 0.11659 0.59913 0.40731 0.0
C2181 C 0.11094 0.59935 0.39969 0.0
C2182 C 0.1048 0.60641 0.3984 0.0
C2183 C 0.10432 0.61341 0.40475 0.0
C2184 C 0.10961 0.61304 0.41237 0.0
C2185 C 0.10818 0.62108 0.41838 0.0
C2186 C 0.10137 0.62646 0.41295 0.0
C2187 C 0.09917 0.62194 0.40498 0.0
C2188 C 0.11732 0.62611 0.41929 0.0
C2189 C 0.10415 0.61772 0.42739 0.0
C2190 C 0.08 0.63053 0.37817 0.0
C2191 C 0.07517 0.63834 0.37582 0.0
C2192 C 0.07459 0.64546 0.3821 0.0
C2193 C 0.07897 0.64488 0.39044 0.0
C2194 C 0.08401 0.63712 0.39254 0.0
C2195 C 0.08438 0.6301 0.38646 0.0
C2196 C 0.09024 0.62247 0.38961 0.0
C2197 C 0.0933 0.62603 0.39865 0.0
C2198 C 0.08966 0.63461 0.40036 0.0
C2199 C 0.0982 0.62146 0.38291 0.0
C2200 C 0.08425 0.61395 0.39059 0.0
H2201 H 0.10708 0.63467 0.43244 0.0
H2202 H 0.09008 0.6625 0.42482 0.0
H2203 H 0.07697 0.64566 0.41965 0.0
H2204 H 0.07477 0.6459 0.40806 0.0
H2205 H 0.07666 0.65635 0.414 0.0
H2206 H 0.10034 0.65679 0.40635 0.0
H2207 H 0.08977 0.66269 0.40699 0.0
H2208 H 0.09199 0.6546 0.39823 0.0
H2209 H 0.11987 0.60596 0.41979 0.0
H2210 H 0.11149 0.59422 0.39453 0.0
H2211 H 0.10083 0.60625 0.39239 0.0
H2212 H 0.12084 0.62641 0.4127 0.0
H2213 H 0.12184 0.62261 0.4241 0.0
H2214 H 0.11659 0.6332 0.42142 0.0
H2215 H 0.10023 0.61138 0.42646 0.0
H2216 H 0.09926 0.62254 0.4303 0.0
H2217 H 0.10955 0.61633 0.43238 0.0
H2218 H 0.10698 0.6471 0.44283 0.0
C2219 C 0.10332 0.64055 0.43055 0.0
C2220 C 0.59414 0.85009 0.58156 0.0
C2221 C 0.59894 0.85078 0.57344 0.0
C2222 C 0.60367 0.85881 0.57153 0.0
C2223 C 0.59905 0.86517 0.58576 0.0
C2224 C 0.59422 0.85739 0.58758 0.0
C2225 C 0.58936 0.85793 0.59645 0.0
H2226 H 0.58083 0.88141 0.63461 0.0
C2227 C 0.59795 0.87139 0.59342 0.0
C2228 C 0.59219 0.86726 0.59968 0.0
H2229 H 0.57093 0.8549 0.62743 0.0
H2230 H 0.57848 0.85595 0.61307 0.0
H2231 H 0.60044 0.87806 0.62829 0.0
H2232 H 0.57798 0.89073 0.61511 0.0
H2233 H 0.58758 0.89735 0.61287 0.0
H2234 H 0.58391 0.89583 0.62432 0.0
H2235 H 0.5969 0.8893 0.63101 0.0
H2236 H 0.60495 0.88711 0.6222 0.0
C2237 C 0.59305 0.85037 0.60259 0.0
C2238 C 0.57908 0.85736 0.59464 0.0
C2239 C 0.61633 0.90037 0.59455 0.0
C2240 C 0.61727 0.90717 0.60109 0.0
C2241 C 0.61166 0.90693 0.60873 0.0
C2242 C 0.60546 0.89989 0.60999 0.0
C2243 C 0.60488 0.89295 0.60359 0.0
C2244 C 0.61015 0.89335 0.59595 0.0
C2245 C 0.60866 0.88535 0.58989 0.0
C2246 C 0.60181 0.87997 0.59529 0.0
C2247 C 0.59966 0.88445 0.6033 0.0
C2248 C 0.61776 0.88029 0.58896 0.0
C2249 C 0.60465 0.88879 0.58091 0.0
C2250 C 0.58029 0.87579 0.62998 0.0
C2251 C 0.57532 0.86803 0.63222 0.0
C2252 C 0.57467 0.86098 0.62587 0.0
C2253 C 0.57912 0.86158 0.61756 0.0
C2254 C 0.58429 0.86929 0.61556 0.0
C2255 C 0.58473 0.87626 0.62172 0.0
C2256 C 0.59069 0.88385 0.61864 0.0
C2257 C 0.59373 0.88035 0.60958 0.0
C2258 C 0.58999 0.87181 0.60779 0.0
C2259 C 0.59865 0.88473 0.62537 0.0
C2260 C 0.58481 0.89244 0.61773 0.0
H2261 H 0.60754 0.87187 0.57579 0.0
H2262 H 0.59035 0.84405 0.58316 0.0
H2263 H 0.5773 0.86092 0.58831 0.0
H2264 H 0.57502 0.86071 0.59988 0.0
H2265 H 0.57684 0.85024 0.59397 0.0
H2266 H 0.60049 0.84966 0.60176 0.0
H2267 H 0.58991 0.84377 0.60093 0.0
H2268 H 0.59204 0.85177 0.60979 0.0
H2269 H 0.62042 0.90042 0.58853 0.0
H2270 H 0.61228 0.91201 0.61392 0.0
H2271 H 0.60152 0.90002 0.61603 0.0
H2272 H 0.62134 0.88002 0.59552 0.0
H2273 H 0.62228 0.88375 0.5841 0.0
H2274 H 0.61699 0.87319 0.58688 0.0
H2275 H 0.60073 0.89511 0.58189 0.0
H2276 H 0.59976 0.88399 0.57794 0.0
H2277 H 0.61005 0.89024 0.57594 0.0
H2278 H 0.60748 0.85948 0.56536 0.0
C2279 C 0.60374 0.86599 0.57762 0.0
C2280 C 0.42664 0.37842 0.87663 0.0
C2281 C 0.43148 0.3706 0.87435 0.0
C2282 C 0.43195 0.36349 0.88063 0.0
C2283 C 0.42236 0.37185 0.89092 0.0
C2284 C 0.42212 0.37887 0.88484 0.0
C2285 C 0.41625 0.38653 0.88791 0.0
H2286 H 0.38641 0.40341 0.91773 0.0
C2287 C 0.41657 0.37438 0.89863 0.0
C2288 C 0.41298 0.38298 0.89687 0.0
H2289 H 0.39561 0.41526 0.89284 0.0
H2290 H 0.40585 0.40289 0.8906 0.0
H2291 H 0.38505 0.383 0.91031 0.0
H2292 H 0.40575 0.39742 0.92461 0.0
H2293 H 0.40623 0.38625 0.92848 0.0
H2294 H 0.3961 0.3928 0.93025 0.0
H2295 H 0.38396 0.38653 0.92179 0.0
H2296 H 0.38909 0.37592 0.91888 0.0
C2297 C 0.40842 0.38759 0.88106 0.0
C2298 C 0.42227 0.39502 0.88903 0.0
C2299 C 0.41188 0.3526 0.92468 0.0
C2300 C 0.40686 0.35321 0.93268 0.0
C2301 C 0.402 0.36118 0.93448 0.0
C2302 C 0.40205 0.36838 0.92842 0.0
C2303 C 0.407 0.36764 0.92042 0.0
C2304 C 0.4119 0.3599 0.91869 0.0
C2305 C 0.4169 0.36046 0.9099 0.0
C2306 C 0.41416 0.36978 0.90666 0.0
C2307 C 0.40828 0.3739 0.91282 0.0
C2308 C 0.4133 0.3529 0.90367 0.0
C2309 C 0.42715 0.3599 0.91188 0.0
C2310 C 0.39061 0.40331 0.91179 0.0
C2311 C 0.39015 0.41033 0.90544 0.0
C2312 C 0.39588 0.41002 0.89788 0.0
C2313 C 0.40178 0.40276 0.89655 0.0
C2314 C 0.40196 0.39568 0.90281 0.0
C2315 C 0.39654 0.39609 0.91034 0.0
C2316 C 0.39772 0.38798 0.9163 0.0
C2317 C 0.40457 0.38254 0.91097 0.0
C2318 C 0.40698 0.38707 0.90307 0.0
C2319 C 0.38849 0.38308 0.91695 0.0
C2320 C 0.40159 0.39122 0.92542 0.0
H2321 H 0.42792 0.35841 0.89335 0.0
H2322 H 0.42626 0.38408 0.87205 0.0
H2323 H 0.4291 0.39316 0.89153 0.0
H2324 H 0.41963 0.39981 0.89406 0.0
H2325 H 0.42316 0.39858 0.88253 0.0
H2326 H 0.40645 0.38095 0.87817 0.0
H2327 H 0.41042 0.39204 0.8754 0.0
H2328 H 0.40216 0.39021 0.88411 0.0
H2329 H 0.41576 0.3466 0.92315 0.0
H2330 H 0.39799 0.36179 0.94053 0.0
H2331 H 0.39816 0.37422 0.93017 0.0
H2332 H 0.40588 0.35205 0.90451 0.0
H2333 H 0.41654 0.34633 0.90524 0.0
H2334 H 0.41426 0.3544 0.89648 0.0
H2335 H 0.42885 0.36363 0.91814 0.0
H2336 H 0.43132 0.36306 0.9066 0.0
H2337 H 0.42932 0.35278 0.91277 0.0
H2338 H 0.4356 0.35736 0.87904 0.0
C2339 C 0.42742 0.36408 0.8889 0.0
C2340 C 0.90571 0.15276 0.07808 0.0
C2341 C 0.91043 0.16095 0.07904 0.0
C2342 C 0.91618 0.16212 0.0865 0.0
C2343 C 0.9123 0.14717 0.09193 0.0
C2344 C 0.90672 0.14602 0.08458 0.0
C2345 C 0.90188 0.1371 0.08472 0.0
H2346 H 0.89233 0.09818 0.10642 0.0
C2347 C 0.91164 0.13896 0.09753 0.0
C2348 C 0.90553 0.13304 0.09333 0.0
H2349 H 0.88134 0.10765 0.08125 0.0
H2350 H 0.89087 0.12086 0.08197 0.0
H2351 H 0.91289 0.10313 0.10194 0.0
H2352 H 0.89192 0.11694 0.11635 0.0
H2353 H 0.90191 0.11833 0.12255 0.0
H2354 H 0.89755 0.10713 0.12064 0.0
H2355 H 0.90979 0.10006 0.11317 0.0
H2356 H 0.91823 0.10859 0.11095 0.0
C2357 C 0.90484 0.13164 0.07636 0.0
C2358 C 0.8916 0.13896 0.08529 0.0
C2359 C 0.92899 0.13679 0.12699 0.0
C2360 C 0.92936 0.13009 0.13367 0.0
C2361 C 0.92462 0.12194 0.13234 0.0
C2362 C 0.9194 0.12057 0.12464 0.0
C2363 C 0.91886 0.12742 0.11816 0.0
C2364 C 0.92369 0.13531 0.11932 0.0
C2365 C 0.92227 0.1418 0.11167 0.0
C2366 C 0.91575 0.1365 0.10579 0.0
C2367 C 0.91375 0.1281 0.10968 0.0
C2368 C 0.93147 0.14332 0.10696 0.0
C2369 C 0.9179 0.15049 0.11548 0.0
C2370 C 0.89206 0.10302 0.10099 0.0
C2371 C 0.88603 0.10186 0.09378 0.0
C2372 C 0.88583 0.10843 0.08694 0.0
C2373 C 0.89139 0.11609 0.08736 0.0
C2374 C 0.89721 0.11725 0.09472 0.0
C2375 C 0.89755 0.11071 0.10132 0.0
C2376 C 0.90407 0.11307 0.10868 0.0
C2377 C 0.90752 0.12216 0.10549 0.0
C2378 C 0.90347 0.12459 0.09733 0.0
C2379 C 0.91163 0.10584 0.10879 0.0
C2380 C 0.89867 0.11387 0.11757 0.0
H2381 H 0.92162 0.15658 0.09844 0.0
H2382 H 0.90113 0.1517 0.07251 0.0
H2383 H 0.8902 0.14509 0.08937 0.0
H2384 H 0.88781 0.13351 0.08867 0.0
H2385 H 0.88867 0.14007 0.07851 0.0
H2386 H 0.91211 0.13278 0.07487 0.0
H2387 H 0.90092 0.13367 0.07034 0.0
H2388 H 0.9042 0.12427 0.07729 0.0
H2389 H 0.93253 0.14313 0.12783 0.0
H2390 H 0.92494 0.11659 0.13728 0.0
H2391 H 0.91591 0.11425 0.12409 0.0
H2392 H 0.93542 0.13695 0.10673 0.0
H2393 H 0.93558 0.14842 0.1106 0.0
H2394 H 0.93077 0.14541 0.09989 0.0
H2395 H 0.91308 0.14885 0.12097 0.0
H2396 H 0.91384 0.15417 0.11047 0.0
H2397 H 0.9231 0.15512 0.11827 0.0
H2398 H 0.91994 0.16833 0.08734 0.0
C2399 C 0.91717 0.15527 0.09292 0.0
C2400 C 0.0983 0.11521 0.3992 0.0
C2401 C 0.10478 0.11545 0.40612 0.0
C2402 C 0.11162 0.10884 0.40622 0.0
C2403 C 0.1059 0.10243 0.39236 0.0
C2404 C 0.09897 0.10865 0.39246 0.0
C2405 C 0.09275 0.1076 0.38455 0.0
H2406 H 0.08337 0.08806 0.34458 0.0
C2407 C 0.10496 0.09692 0.38414 0.0
C2408 C 0.09722 0.09985 0.37958 0.0
H2409 H 0.06812 0.10844 0.35877 0.0
H2410 H 0.07856 0.10779 0.3711 0.0
H2411 H 0.10335 0.09605 0.34962 0.0
H2412 H 0.08679 0.07548 0.36179 0.0
H2413 H 0.09803 0.07176 0.36225 0.0
H2414 H 0.09275 0.07355 0.35148 0.0
H2415 H 0.10091 0.08547 0.34425 0.0
H2416 H 0.11017 0.08663 0.35199 0.0
C2417 C 0.09304 0.11649 0.37907 0.0
C2418 C 0.08325 0.105 0.38809 0.0
C2419 C 0.12942 0.07439 0.37608 0.0
C2420 C 0.13075 0.06856 0.36874 0.0
C2421 C 0.12407 0.06817 0.36199 0.0
C2422 C 0.11633 0.0736 0.36247 0.0
C2423 C 0.11521 0.07951 0.36977 0.0
C2424 C 0.12165 0.07973 0.37647 0.0
C2425 C 0.11935 0.08632 0.38378 0.0
C2426 C 0.1105 0.0901 0.38033 0.0
C2427 C 0.10813 0.08615 0.37208 0.0
C2428 C 0.12688 0.09359 0.38409 0.0
C2429 C 0.11809 0.08101 0.39266 0.0
C2430 C 0.08233 0.0924 0.35034 0.0
C2431 C 0.07491 0.09832 0.3507 0.0
C2432 C 0.07371 0.10375 0.35837 0.0
C2433 C 0.07982 0.10341 0.36551 0.0
C2434 C 0.08727 0.09758 0.36502 0.0
C2435 C 0.08837 0.0921 0.35759 0.0
C2436 C 0.09659 0.08618 0.35839 0.0
C2437 C 0.10026 0.08908 0.36748 0.0
C2438 C 0.0948 0.09583 0.37126 0.0
C2439 C 0.10312 0.08861 0.35065 0.0
C2440 C 0.09345 0.0762 0.35842 0.0
H2441 H 0.11766 0.0976 0.3998 0.0
H2442 H 0.09297 0.12019 0.39885 0.0
H2443 H 0.08369 0.10126 0.39455 0.0
H2444 H 0.07962 0.10036 0.38353 0.0
H2445 H 0.07904 0.11109 0.38928 0.0
H2446 H 0.10006 0.11917 0.37873 0.0
H2447 H 0.08874 0.12175 0.3822 0.0
H2448 H 0.09095 0.11562 0.37202 0.0
H2449 H 0.13443 0.07499 0.38134 0.0
H2450 H 0.12482 0.06364 0.35633 0.0
H2451 H 0.11153 0.07303 0.3571 0.0
H2452 H 0.12906 0.09545 0.37718 0.0
H2453 H 0.13291 0.09108 0.38775 0.0
H2454 H 0.12469 0.09998 0.38718 0.0
H2455 H 0.11552 0.07407 0.39135 0.0
H2456 H 0.11298 0.08408 0.39712 0.0
H2457 H 0.12457 0.08037 0.39635 0.0
H2458 H 0.11658 0.10871 0.41155 0.0
C2459 C 0.11221 0.10235 0.3994 0.0
C2460 C 0.15904 0.92319 0.59793 0.0
C2461 C 0.15884 0.93077 0.60362 0.0
C2462 C 0.15093 0.93256 0.60857 0.0
C2463 C 0.14379 0.91919 0.60244 0.0
C2464 C 0.15145 0.91754 0.59741 0.0
C2465 C 0.15052 0.9092 0.59171 0.0
H2466 H 0.12589 0.87264 0.57956 0.0
C2467 C 0.13723 0.9119 0.6006 0.0
C2468 C 0.1411 0.90606 0.59426 0.0
H2469 H 0.15227 0.88056 0.56989 0.0
H2470 H 0.15184 0.89387 0.57922 0.0
H2471 H 0.12945 0.87728 0.59985 0.0
H2472 H 0.11706 0.89262 0.57868 0.0
H2473 H 0.11061 0.89438 0.58841 0.0
H2474 H 0.11161 0.88314 0.58386 0.0
H2475 H 0.11833 0.87481 0.59574 0.0
H2476 H 0.12019 0.88289 0.6046 0.0
C2477 C 0.15787 0.90239 0.59466 0.0
C2478 C 0.15109 0.91205 0.58172 0.0
C2479 C 0.10778 0.91058 0.61809 0.0
C2480 C 0.10058 0.90437 0.61821 0.0
C2481 C 0.10073 0.89704 0.61217 0.0
C2482 C 0.10797 0.89581 0.60625 0.0
C2483 C 0.1152 0.90196 0.60635 0.0
C2484 C 0.11498 0.90924 0.61214 0.0
C2485 C 0.12328 0.91505 0.61136 0.0
C2486 C 0.12856 0.90999 0.60422 0.0
C2487 C 0.1238 0.90232 0.60133 0.0
C2488 C 0.12818 0.91499 0.62055 0.0
C2489 C 0.12035 0.92454 0.6081 0.0
C2490 C 0.13152 0.8773 0.57934 0.0
C2491 C 0.13912 0.87552 0.57397 0.0
C2492 C 0.14638 0.8817 0.57405 0.0
C2493 C 0.1461 0.88946 0.57944 0.0
C2494 C 0.1385 0.89106 0.58487 0.0
C2495 C 0.13136 0.88506 0.5847 0.0
C2496 C 0.12387 0.88779 0.59094 0.0
C2497 C 0.12766 0.89645 0.59485 0.0
C2498 C 0.13625 0.89832 0.59131 0.0
C2499 C 0.1228 0.88032 0.59815 0.0
C2500 C 0.11529 0.88953 0.58525 0.0
H2501 H 0.13766 0.92853 0.61202 0.0
H2502 H 0.16496 0.92169 0.59394 0.0
H2503 H 0.14803 0.91882 0.58068 0.0
H2504 H 0.14725 0.90752 0.57723 0.0
H2505 H 0.15821 0.9124 0.57941 0.0
H2506 H 0.15872 0.90249 0.60208 0.0
H2507 H 0.1645 0.90407 0.59161 0.0
H2508 H 0.15615 0.89533 0.59302 0.0
H2509 H 0.10783 0.91636 0.62254 0.0
H2510 H 0.09534 0.89209 0.61218 0.0
H2511 H 0.10771 0.89004 0.6019 0.0
H2512 H 0.12786 0.90817 0.62365 0.0
H2513 H 0.125 0.91982 0.6253 0.0
H2514 H 0.13544 0.91654 0.62005 0.0
H2515 H 0.11435 0.9241 0.60362 0.0
H2516 H 0.12557 0.92792 0.604 0.0
H2517 H 0.11852 0.92896 0.61384 0.0
H2518 H 0.15062 0.93831 0.61307 0.0
C2519 C 0.14342 0.92684 0.60801 0.0
C2520 C 0.42539 0.91105 0.84929 0.0
C2521 C 0.43317 0.90563 0.84968 0.0
C2522 C 0.43507 0.90085 0.85764 0.0
C2523 C 0.42144 0.90664 0.8645 0.0
C2524 C 0.41968 0.91153 0.8568 0.0
C2525 C 0.41118 0.91704 0.85763 0.0
H2526 H 0.37456 0.9286 0.88238 0.0
C2527 C 0.41414 0.90841 0.87099 0.0
C2528 C 0.40817 0.91463 0.86709 0.0
H2529 H 0.38097 0.93706 0.85535 0.0
H2530 H 0.39511 0.92894 0.85609 0.0
H2531 H 0.37926 0.90888 0.87933 0.0
H2532 H 0.39487 0.93045 0.89076 0.0
H2533 H 0.39678 0.92085 0.89743 0.0
H2534 H 0.38549 0.9253 0.89641 0.0
H2535 H 0.37754 0.91269 0.89062 0.0
H2536 H 0.38557 0.90396 0.88795 0.0
C2537 C 0.4044 0.9137 0.85045 0.0
C2538 C 0.41374 0.92714 0.85682 0.0
C2539 C 0.41205 0.88975 0.89954 0.0
C2540 C 0.40556 0.88938 0.90643 0.0
C2541 C 0.39877 0.89603 0.90674 0.0
C2542 C 0.39811 0.90259 0.90003 0.0
C2543 C 0.40426 0.90249 0.89285 0.0
C2544 C 0.41126 0.89633 0.89283 0.0
C2545 C 0.41718 0.8973 0.88467 0.0
C2546 C 0.41232 0.90477 0.87962 0.0
C2547 C 0.40474 0.90773 0.88443 0.0
C2548 C 0.41697 0.88825 0.87946 0.0
C2549 C 0.42672 0.90027 0.88781 0.0
C2550 C 0.37898 0.92872 0.8766 0.0
C2551 C 0.37657 0.93342 0.86877 0.0
C2552 C 0.38266 0.93353 0.86149 0.0
C2553 C 0.39084 0.92874 0.8619 0.0
C2554 C 0.39293 0.92374 0.86965 0.0
C2555 C 0.38707 0.92389 0.87685 0.0
C2556 C 0.39007 0.91789 0.88439 0.0
C2557 C 0.39876 0.91411 0.88057 0.0
C2558 C 0.40044 0.91755 0.87194 0.0
C2559 C 0.38276 0.91048 0.88574 0.0
C2560 C 0.39185 0.92386 0.89274 0.0
H2561 H 0.43105 0.89746 0.87083 0.0
H2562 H 0.42381 0.91489 0.84331 0.0
H2563 H 0.42026 0.92853 0.86026 0.0
H2564 H 0.40881 0.93165 0.86007 0.0
H2565 H 0.4145 0.92914 0.84967 0.0
H2566 H 0.4048 0.90625 0.84966 0.0
H2567 H 0.40586 0.91678 0.84381 0.0
H2568 H 0.39731 0.91506 0.85224 0.0
H2569 H 0.41734 0.88474 0.89911 0.0
H2570 H 0.3938 0.89601 0.91208 0.0
H2571 H 0.39266 0.90732 0.90054 0.0
H2572 H 0.40997 0.88554 0.87915 0.0
H2573 H 0.42127 0.88312 0.88279 0.0
H2574 H 0.41916 0.88889 0.87242 0.0
H2575 H 0.42645 0.9039 0.89434 0.0
H2576 H 0.4299 0.90513 0.88313 0.0
H2577 H 0.43125 0.89437 0.88868 0.0
H2578 H 0.44097 0.89657 0.85808 0.0
C2579 C 0.42927 0.90134 0.86503 0.0
C2580 C 0.36744 0.12819 0.07664 0.0
C2581 C 0.37393 0.13511 0.07601 0.0
C2582 C 0.38189 0.13447 0.08116 0.0
C2583 C 0.37679 0.1203 0.08748 0.0
C2584 C 0.36903 0.12085 0.08236 0.0
C2585 C 0.36291 0.11285 0.0838 0.0
H2586 H 0.355 0.07301 0.10481 0.0
C2587 C 0.37639 0.11188 0.09276 0.0
C2588 C 0.36831 0.10742 0.09058 0.0
H2589 H 0.33769 0.08677 0.08592 0.0
H2590 H 0.34869 0.09879 0.0845 0.0
H2591 H 0.37371 0.07652 0.09446 0.0
H2592 H 0.3601 0.09048 0.11584 0.0
H2593 H 0.37163 0.09048 0.11853 0.0
H2594 H 0.36571 0.07989 0.1175 0.0
H2595 H 0.37323 0.07217 0.10568 0.0
H2596 H 0.38204 0.07983 0.10218 0.0
C2597 C 0.36191 0.1078 0.07475 0.0
C2598 C 0.35389 0.11631 0.08779 0.0
C2599 C 0.401 0.10508 0.11556 0.0
C2600 C 0.40235 0.09791 0.1216 0.0
C2601 C 0.39641 0.09047 0.12131 0.0
C2602 C 0.38906 0.09032 0.11539 0.0
C2603 C 0.38761 0.0977 0.10965 0.0
C2604 C 0.39363 0.10483 0.10967 0.0
C2605 C 0.39109 0.112 0.10299 0.0
C2606 C 0.38239 0.10812 0.09918 0.0
C2607 C 0.38037 0.09978 0.10314 0.0
C2608 C 0.39865 0.11256 0.09581 0.0
C2609 C 0.38942 0.1209 0.10819 0.0
C2610 C 0.35363 0.07855 0.10027 0.0
C2611 C 0.34551 0.07891 0.09541 0.0
C2612 C 0.34389 0.08636 0.08976 0.0
C2613 C 0.3503 0.09331 0.08893 0.0
C2614 C 0.35838 0.09286 0.09387 0.0
C2615 C 0.3599 0.08556 0.09944 0.0
C2616 C 0.36868 0.08631 0.10444 0.0
C2617 C 0.37224 0.09521 0.1009 0.0
C2618 C 0.36622 0.09902 0.09469 0.0
C2619 C 0.37476 0.07828 0.10164 0.0
C2620 C 0.36651 0.08676 0.11462 0.0
H2621 H 0.38951 0.12709 0.09065 0.0
H2622 H 0.36129 0.12844 0.07271 0.0
H2623 H 0.35509 0.12207 0.09244 0.0
H2624 H 0.35039 0.11119 0.09189 0.0
H2625 H 0.34927 0.11868 0.08242 0.0
H2626 H 0.36845 0.10767 0.07109 0.0
H2627 H 0.35688 0.11117 0.07036 0.0
H2628 H 0.35999 0.10065 0.07557 0.0
H2629 H 0.40539 0.11093 0.1156 0.0
H2630 H 0.39739 0.08475 0.12573 0.0
H2631 H 0.38474 0.08452 0.11559 0.0
H2632 H 0.40215 0.10596 0.095 0.0
H2633 H 0.40384 0.11764 0.09768 0.0
H2634 H 0.39602 0.11412 0.08904 0.0
H2635 H 0.38573 0.11956 0.11455 0.0
H2636 H 0.38516 0.12573 0.10449 0.0
H2637 H 0.3959 0.12425 0.10993 0.0
H2638 H 0.38694 0.13975 0.08091 0.0
C2639 C 0.38335 0.12712 0.08687 0.0
C2640 C 0.0961 0.8909 0.10553 0.0
C2641 C 0.10244 0.89078 0.09849 0.0
C2642 C 0.10964 0.89703 0.09867 0.0
C2643 C 0.10444 0.90288 0.11297 0.0
C2644 C 0.09726 0.89693 0.11268 0.0
C2645 C 0.09143 0.89753 0.12092 0.0
H2646 H 0.08498 0.91339 0.16297 0.0
C2647 C 0.10401 0.9078 0.1216 0.0
C2648 C 0.0964 0.9047 0.12628 0.0
H2649 H 0.06828 0.89487 0.14781 0.0
H2650 H 0.07794 0.89658 0.13499 0.0
H2651 H 0.10411 0.906 0.15625 0.0
H2652 H 0.08756 0.92769 0.14622 0.0
H2653 H 0.09886 0.93131 0.14602 0.0
H2654 H 0.09364 0.92854 0.15661 0.0
H2655 H 0.10249 0.91633 0.16234 0.0
H2656 H 0.11115 0.91527 0.15392 0.0
C2657 C 0.09162 0.88821 0.12564 0.0
C2658 C 0.0819 0.90072 0.11803 0.0
C2659 C 0.12875 0.93011 0.12957 0.0
C2660 C 0.13061 0.93529 0.13725 0.0
C2661 C 0.12463 0.93484 0.1446 0.0
C2662 C 0.11692 0.92931 0.14429 0.0
C2663 C 0.11521 0.92412 0.13657 0.0
C2664 C 0.12108 0.9246 0.12937 0.0
C2665 C 0.11837 0.91846 0.12181 0.0
C2666 C 0.10982 0.91429 0.12558 0.0
C2667 C 0.10799 0.91759 0.13423 0.0
C2668 C 0.12596 0.91137 0.1205 0.0
C2669 C 0.11642 0.92433 0.11345 0.0
C2670 C 0.08338 0.90977 0.15686 0.0
C2671 C 0.07594 0.90384 0.15649 0.0
C2672 C 0.07409 0.89928 0.14838 0.0
C2673 C 0.07969 0.90032 0.1409 0.0
C2674 C 0.08728 0.90597 0.14147 0.0
C2675 C 0.08893 0.91074 0.14928 0.0
C2676 C 0.09721 0.91661 0.1485 0.0
C2677 C 0.10032 0.91441 0.13902 0.0
C2678 C 0.0945 0.90811 0.13499 0.0
C2679 C 0.10413 0.91348 0.15564 0.0
C2680 C 0.09425 0.92658 0.14944 0.0
H2681 H 0.11634 0.90756 0.10563 0.0
H2682 H 0.09042 0.8863 0.10555 0.0
H2683 H 0.08224 0.90511 0.11198 0.0
H2684 H 0.07858 0.90494 0.12318 0.0
H2685 H 0.07746 0.8949 0.11637 0.0
H2686 H 0.0985 0.8852 0.12531 0.0
H2687 H 0.08688 0.88341 0.12237 0.0
H2688 H 0.09004 0.88855 0.13286 0.0
H2689 H 0.13329 0.93015 0.12387 0.0
H2690 H 0.12589 0.9388 0.15058 0.0
H2691 H 0.11264 0.92925 0.15009 0.0
H2692 H 0.1294 0.90984 0.12696 0.0
H2693 H 0.13118 0.91384 0.11574 0.0
H2694 H 0.1234 0.90477 0.11816 0.0
H2695 H 0.11296 0.9307 0.11539 0.0
H2696 H 0.11181 0.92104 0.10862 0.0
H2697 H 0.12277 0.92618 0.10993 0.0
H2698 H 0.11468 0.89705 0.09341 0.0
C2699 C 0.11065 0.90308 0.10584 0.0
C2700 C 0.36914 0.88006 0.43059 0.0
C2701 C 0.37539 0.87294 0.43136 0.0
C2702 C 0.38353 0.87342 0.42646 0.0
C2703 C 0.37892 0.88762 0.41988 0.0
C2704 C 0.37104 0.8873 0.42483 0.0
C2705 C 0.36501 0.89526 0.42296 0.0
H2706 H 0.35671 0.93295 0.39859 0.0
C2707 C 0.37868 0.89581 0.41424 0.0
C2708 C 0.37056 0.90036 0.41604 0.0
H2709 H 0.33972 0.92084 0.41887 0.0
H2710 H 0.35111 0.90953 0.42173 0.0
H2711 H 0.37516 0.93131 0.40947 0.0
H2712 H 0.36273 0.91446 0.38944 0.0
H2713 H 0.37426 0.9152 0.38682 0.0
H2714 H 0.36752 0.9253 0.38694 0.0
H2715 H 0.37524 0.93423 0.39778 0.0
H2716 H 0.38392 0.92723 0.40266 0.0
C2717 C 0.36392 0.90071 0.43177 0.0
C2718 C 0.35603 0.89167 0.41899 0.0
C2719 C 0.40379 0.90152 0.39167 0.0
C2720 C 0.40524 0.90832 0.38524 0.0
C2721 C 0.39912 0.9156 0.38479 0.0
C2722 C 0.39158 0.91597 0.39045 0.0
C2723 C 0.39008 0.90897 0.39663 0.0
C2724 C 0.39621 0.90199 0.39728 0.0
C2725 C 0.39355 0.8952 0.40429 0.0
C2726 C 0.38475 0.8992 0.40767 0.0
C2727 C 0.38272 0.90722 0.40311 0.0
C2728 C 0.40094 0.89514 0.41167 0.0
C2729 C 0.39208 0.88599 0.39956 0.0
C2730 C 0.35541 0.92783 0.40361 0.0
C2731 C 0.34726 0.92774 0.40844 0.0
C2732 C 0.34595 0.92108 0.41507 0.0
C2733 C 0.35255 0.91448 0.41668 0.0
C2734 C 0.36055 0.91452 0.41159 0.0
C2735 C 0.36191 0.9212 0.40527 0.0
C2736 C 0.37079 0.92025 0.4005 0.0
C2737 C 0.37452 0.91183 0.40491 0.0
C2738 C 0.36849 0.90846 0.41137 0.0
C2739 C 0.37661 0.92869 0.40262 0.0
C2740 C 0.36881 0.91878 0.39038 0.0
H2741 H 0.39158 0.88058 0.41714 0.0
H2742 H 0.36287 0.87997 0.43432 0.0
H2743 H 0.3573 0.88591 0.41436 0.0
H2744 H 0.35244 0.89671 0.41489 0.0
H2745 H 0.35145 0.88925 0.42437 0.0
H2746 H 0.3703 0.90068 0.43571 0.0
H2747 H 0.35854 0.89778 0.43606 0.0
H2748 H 0.36246 0.90791 0.43058 0.0
H2749 H 0.4083 0.8958 0.39217 0.0
H2750 H 0.40016 0.92102 0.38003 0.0
H2751 H 0.38715 0.92164 0.3897 0.0
H2752 H 0.40399 0.90196 0.4125 0.0
H2753 H 0.40646 0.89039 0.40996 0.0
H2754 H 0.39824 0.89345 0.41837 0.0
H2755 H 0.38889 0.88694 0.39286 0.0
H2756 H 0.38743 0.88149 0.40321 0.0
H2757 H 0.39859 0.88244 0.39851 0.0
H2758 H 0.38841 0.868 0.42679 0.0
C2759 C 0.38533 0.88071 0.42077 0.0
C2760 C 0.42587 0.09472 0.65761 0.0
C2761 C 0.43354 0.10034 0.65738 0.0
C2762 C 0.43551 0.10511 0.64943 0.0
C2763 C 0.42203 0.09912 0.64238 0.0
C2764 C 0.42027 0.09417 0.65005 0.0
C2765 C 0.41177 0.08864 0.64919 0.0
H2766 H 0.37384 0.07894 0.62576 0.0
C2767 C 0.41468 0.0974 0.6359 0.0
C2768 C 0.40871 0.09115 0.63979 0.0
H2769 H 0.38158 0.06887 0.65186 0.0
H2770 H 0.39603 0.07642 0.6506 0.0
H2771 H 0.38058 0.09874 0.62901 0.0
H2772 H 0.39305 0.07596 0.61618 0.0
H2773 H 0.3964 0.08548 0.61001 0.0
H2774 H 0.38456 0.08258 0.61068 0.0
H2775 H 0.37692 0.09436 0.61838 0.0
H2776 H 0.38569 0.10272 0.61916 0.0
C2777 C 0.40505 0.0919 0.65646 0.0
C2778 C 0.41433 0.07854 0.64988 0.0
C2779 C 0.41234 0.11649 0.60763 0.0
C2780 C 0.40577 0.11698 0.60082 0.0
C2781 C 0.39891 0.11039 0.60054 0.0
C2782 C 0.39825 0.10378 0.60721 0.0
C2783 C 0.40447 0.10379 0.61432 0.0
C2784 C 0.41155 0.10986 0.6143 0.0
C2785 C 0.41758 0.10873 0.62236 0.0
C2786 C 0.41273 0.10121 0.62737 0.0
C2787 C 0.405 0.09843 0.62266 0.0
C2788 C 0.41752 0.11771 0.6277 0.0
C2789 C 0.42704 0.10576 0.61906 0.0
C2790 C 0.37866 0.07833 0.6312 0.0
C2791 C 0.37653 0.07341 0.63897 0.0
C2792 C 0.38306 0.07263 0.6458 0.0
C2793 C 0.39141 0.07708 0.64509 0.0
C2794 C 0.39323 0.0824 0.63748 0.0
C2795 C 0.38698 0.08277 0.63061 0.0
C2796 C 0.38993 0.08881 0.62307 0.0
C2797 C 0.39897 0.09211 0.62657 0.0
C2798 C 0.40084 0.08841 0.63504 0.0
C2799 C 0.38294 0.09656 0.62226 0.0
C2800 C 0.391 0.08298 0.61449 0.0
H2801 H 0.43162 0.10842 0.63616 0.0
H2802 H 0.42425 0.09086 0.66357 0.0
H2803 H 0.42105 0.07725 0.6468 0.0
H2804 H 0.40963 0.0741 0.64617 0.0
H2805 H 0.41466 0.07632 0.65699 0.0
H2806 H 0.40527 0.09938 0.65712 0.0
H2807 H 0.40672 0.08897 0.66311 0.0
H2808 H 0.39796 0.09031 0.65486 0.0
H2809 H 0.41771 0.12145 0.60804 0.0
H2810 H 0.39389 0.11048 0.59525 0.0
H2811 H 0.39273 0.09911 0.60672 0.0
H2812 H 0.41056 0.1205 0.62808 0.0
H2813 H 0.42187 0.12285 0.62442 0.0
H2814 H 0.41972 0.11696 0.63472 0.0
H2815 H 0.4266 0.10196 0.61263 0.0
H2816 H 0.43038 0.10105 0.62376 0.0
H2817 H 0.43151 0.11167 0.61791 0.0
H2818 H 0.44133 0.10953 0.64909 0.0
C2819 C 0.42983 0.10451 0.64194 0.0
C2820 C 0.15824 0.08396 0.90708 0.0
C2821 C 0.15786 0.07661 0.9011 0.0
C2822 C 0.1497 0.07478 0.89657 0.0
C2823 C 0.14272 0.08783 0.90344 0.0
C2824 C 0.1506 0.08946 0.90815 0.0
C2825 C 0.14984 0.09769 0.91405 0.0
H2826 H 0.1251 0.13353 0.92806 0.0
C2827 C 0.13618 0.09498 0.90571 0.0
C2828 C 0.14027 0.10076 0.91198 0.0
H2829 H 0.15212 0.1262 0.93622 0.0
H2830 H 0.15153 0.11301 0.92667 0.0
H2831 H 0.12791 0.12966 0.90769 0.0
H2832 H 0.11668 0.11319 0.92868 0.0
H2833 H 0.10977 0.11191 0.91917 0.0
H2834 H 0.11101 0.1229 0.92422 0.0
H2835 H 0.11677 0.13151 0.91203 0.0
H2836 H 0.11883 0.12376 0.90292 0.0
C2837 C 0.15697 0.10467 0.91093 0.0
C2838 C 0.15088 0.09465 0.92394 0.0
C2839 C 0.10618 0.09632 0.88922 0.0
C2840 C 0.09898 0.10251 0.88936 0.0
C2841 C 0.09922 0.10969 0.89558 0.0
C2842 C 0.10659 0.11082 0.90138 0.0
C2843 C 0.11385 0.10473 0.90096 0.0
C2844 C 0.11351 0.09758 0.89502 0.0
C2845 C 0.12188 0.09186 0.89541 0.0
C2846 C 0.12736 0.09684 0.90246 0.0
C2847 C 0.12263 0.10437 0.90568 0.0
C2848 C 0.12645 0.09217 0.88605 0.0
C2849 C 0.11914 0.08227 0.89858 0.0
C2850 C 0.13084 0.12901 0.9279 0.0
C2851 C 0.13865 0.13089 0.93294 0.0
C2852 C 0.14605 0.12494 0.93236 0.0
C2853 C 0.14568 0.11727 0.92683 0.0
C2854 C 0.13785 0.11555 0.92177 0.0
C2855 C 0.1306 0.12137 0.92239 0.0
C2856 C 0.12291 0.11865 0.91638 0.0
C2857 C 0.12669 0.11016 0.91212 0.0
C2858 C 0.13545 0.10837 0.91527 0.0
C2859 C 0.12143 0.12627 0.9094 0.0
C2860 C 0.1146 0.1166 0.92235 0.0
H2861 H 0.13619 0.07859 0.89401 0.0
H2862 H 0.1644 0.08556 0.91067 0.0
H2863 H 0.14764 0.08796 0.92503 0.0
H2864 H 0.14749 0.09923 0.92872 0.0
H2865 H 0.15811 0.09403 0.92581 0.0
H2866 H 0.15758 0.10465 0.90348 0.0
H2867 H 0.16373 0.10309 0.91375 0.0
H2868 H 0.15518 0.11167 0.9127 0.0
H2869 H 0.10616 0.09065 0.88463 0.0
H2870 H 0.09383 0.11462 0.89579 0.0
H2871 H 0.10642 0.11649 0.90586 0.0
H2872 H 0.12591 0.09904 0.88307 0.0
H2873 H 0.12318 0.08736 0.88133 0.0
H2874 H 0.13375 0.09077 0.88626 0.0
H2875 H 0.1132 0.08253 0.90314 0.0
H2876 H 0.12447 0.07894 0.90256 0.0
H2877 H 0.1173 0.07789 0.8928 0.0
H2878 H 0.14914 0.06904 0.8921 0.0
C2879 C 0.14215 0.08032 0.89772 0.0
C2880 C 0.86851 0.37998 0.93118 0.0
C2881 C 0.87472 0.37285 0.93213 0.0
C2882 C 0.88297 0.37328 0.92741 0.0
C2883 C 0.87856 0.38746 0.92065 0.0
C2884 C 0.87057 0.38719 0.92543 0.0
C2885 C 0.86462 0.39517 0.9234 0.0
H2886 H 0.85694 0.43273 0.89864 0.0
C2887 C 0.87846 0.39561 0.91495 0.0
C2888 C 0.87033 0.4002 0.91657 0.0
H2889 H 0.83956 0.42085 0.91874 0.0
H2890 H 0.85085 0.4095 0.92186 0.0
H2891 H 0.87526 0.43103 0.90986 0.0
H2892 H 0.86302 0.41415 0.88973 0.0
H2893 H 0.87461 0.41476 0.88731 0.0
H2894 H 0.86796 0.42493 0.88722 0.0
H2895 H 0.87543 0.43393 0.89817 0.0
H2896 H 0.88407 0.42693 0.90311 0.0
C2897 C 0.86337 0.40067 0.93215 0.0
C2898 C 0.85571 0.3916 0.91926 0.0
C2899 C 0.90399 0.40098 0.89279 0.0
C2900 C 0.90559 0.4077 0.88632 0.0
C2901 C 0.89954 0.41501 0.88568 0.0
C2902 C 0.8919 0.41548 0.8912 0.0
C2903 C 0.89024 0.40856 0.89744 0.0
C2904 C 0.89632 0.40155 0.89826 0.0
C2905 C 0.8935 0.39484 0.90529 0.0
C2906 C 0.88466 0.39892 0.90847 0.0
C2907 C 0.88275 0.40691 0.9038 0.0
C2908 C 0.90075 0.39483 0.9128 0.0
C2909 C 0.89208 0.3856 0.90062 0.0
C2910 C 0.85553 0.42765 0.90367 0.0
C2911 C 0.84731 0.42763 0.90838 0.0
C2912 C 0.84586 0.42103 0.91504 0.0
C2913 C 0.8524 0.41441 0.9168 0.0
C2914 C 0.86048 0.41437 0.91184 0.0
C2915 C 0.86197 0.421 0.90549 0.0
C2916 C 0.87093 0.41997 0.90087 0.0
C2917 C 0.87455 0.41157 0.90541 0.0
C2918 C 0.86839 0.40828 0.9118 0.0
C2919 C 0.87675 0.4284 0.90302 0.0
C2920 C 0.86912 0.41843 0.89074 0.0
H2921 H 0.89126 0.38037 0.91825 0.0
H2922 H 0.86216 0.37993 0.93477 0.0
H2923 H 0.85705 0.38583 0.91467 0.0
H2924 H 0.8522 0.39664 0.91509 0.0
H2925 H 0.85101 0.38919 0.92457 0.0
H2926 H 0.86965 0.40057 0.93626 0.0
H2927 H 0.85784 0.39783 0.93632 0.0
H2928 H 0.86204 0.40789 0.9309 0.0
H2929 H 0.90858 0.39535 0.89356 0.0
H2930 H 0.90057 0.42024 0.88071 0.0
H2931 H 0.88749 0.42115 0.89029 0.0
H2932 H 0.90385 0.40163 0.9136 0.0
H2933 H 0.90627 0.39 0.91126 0.0
H2934 H 0.89792 0.39325 0.91948 0.0
H2935 H 0.889 0.3865 0.89386 0.0
H2936 H 0.88736 0.38114 0.90424 0.0
H2937 H 0.8986 0.38202 0.8997 0.0
H2938 H 0.88783 0.36785 0.92788 0.0
C2939 C 0.88492 0.38054 0.92172 0.0
C2940 C 0.92647 0.59718 0.1577 0.0
C2941 C 0.934 0.60297 0.15712 0.0
C2942 C 0.93589 0.60722 0.14887 0.0
C2943 C 0.92243 0.60073 0.1423 0.0
C2944 C 0.9208 0.59616 0.15022 0.0
C2945 C 0.91233 0.59054 0.14971 0.0
H2946 H 0.87412 0.57959 0.1272 0.0
C2947 C 0.91493 0.59882 0.13606 0.0
C2948 C 0.90902 0.59276 0.1403 0.0
H2949 H 0.88312 0.56941 0.15289 0.0
H2950 H 0.89691 0.57802 0.15158 0.0
H2951 H 0.88002 0.59952 0.13021 0.0
H2952 H 0.89369 0.57749 0.11721 0.0
H2953 H 0.89535 0.58716 0.11058 0.0
H2954 H 0.88404 0.58299 0.1124 0.0
H2955 H 0.87679 0.59553 0.1193 0.0
H2956 H 0.88541 0.60402 0.12074 0.0
C2957 C 0.90572 0.59393 0.15702 0.0
C2958 C 0.91499 0.58048 0.15063 0.0
C2959 C 0.91268 0.61651 0.10699 0.0
C2960 C 0.90595 0.61717 0.10036 0.0
C2961 C 0.89847 0.61127 0.10078 0.0
C2962 C 0.89756 0.60509 0.10785 0.0
C2963 C 0.90415 0.60482 0.11463 0.0
C2964 C 0.91162 0.61038 0.11405 0.0
C2965 C 0.9178 0.60941 0.12199 0.0
C2966 C 0.91277 0.6024 0.12749 0.0
C2967 C 0.90478 0.59975 0.12316 0.0
C2968 C 0.91827 0.61868 0.12682 0.0
C2969 C 0.92702 0.60581 0.11861 0.0
C2970 C 0.87911 0.57906 0.13249 0.0
C2971 C 0.87748 0.57381 0.14018 0.0
C2972 C 0.88413 0.5735 0.14696 0.0
C2973 C 0.89216 0.57847 0.14616 0.0
C2974 C 0.89357 0.58386 0.13853 0.0
C2975 C 0.88716 0.58397 0.13179 0.0
C2976 C 0.88978 0.59004 0.12415 0.0
C2977 C 0.89884 0.59354 0.12738 0.0
C2978 C 0.90099 0.58998 0.13585 0.0
C2979 C 0.88264 0.59766 0.12346 0.0
C2980 C 0.89072 0.58419 0.11558 0.0
H2981 H 0.93195 0.60965 0.13545 0.0
H2982 H 0.92485 0.59378 0.16392 0.0
H2983 H 0.92182 0.57921 0.14778 0.0
H2984 H 0.91046 0.57593 0.14684 0.0
H2985 H 0.91513 0.57837 0.15778 0.0
H2986 H 0.90569 0.60144 0.15727 0.0
H2987 H 0.90772 0.59143 0.16375 0.0
H2988 H 0.89865 0.59196 0.15576 0.0
H2989 H 0.91859 0.62081 0.10681 0.0
H2990 H 0.89313 0.61166 0.09584 0.0
H2991 H 0.89163 0.60093 0.10787 0.0
H2992 H 0.91157 0.62208 0.12671 0.0
H2993 H 0.92319 0.62324 0.12348 0.0
H2994 H 0.92001 0.61818 0.13399 0.0
H2995 H 0.92614 0.60139 0.11263 0.0
H2996 H 0.93045 0.60151 0.1236 0.0
H2997 H 0.93158 0.61143 0.11666 0.0
H2998 H 0.94178 0.61151 0.14814 0.0
C2999 C 0.93019 0.60612 0.14147 0.0
C3000 C 0.65813 0.58299 0.40977 0.0
C3001 C 0.6579 0.5752 0.40437 0.0
C3002 C 0.64998 0.57321 0.39949 0.0
C3003 C 0.64292 0.58686 0.40505 0.0
C3004 C 0.65058 0.58869 0.41003 0.0
C3005 C 0.6497 0.59728 0.41536 0.0
H3006 H 0.62588 0.63514 0.42463 0.0
C3007 C 0.63643 0.59429 0.40649 0.0
C3008 C 0.64034 0.60039 0.41259 0.0
H3009 H 0.65168 0.62723 0.43562 0.0
H3010 H 0.65095 0.61312 0.42742 0.0
H3011 H 0.62963 0.62854 0.4046 0.0
H3012 H 0.61646 0.6161 0.42712 0.0
H3013 H 0.61033 0.6128 0.41759 0.0
H3014 H 0.61105 0.62462 0.4205 0.0
H3015 H 0.61883 0.63213 0.40872 0.0
H3016 H 0.61984 0.62326 0.40051 0.0
C3017 C 0.65715 0.60388 0.41218 0.0
C3018 C 0.65015 0.5949 0.42547 0.0
C3019 C 0.60708 0.59513 0.38871 0.0
C3020 C 0.59995 0.60139 0.38833 0.0
C3021 C 0.60022 0.60902 0.394 0.0
C3022 C 0.60749 0.61046 0.39983 0.0
C3023 C 0.61464 0.60425 0.4 0.0
C3024 C 0.61432 0.59669 0.39458 0.0
C3025 C 0.62253 0.59081 0.39572 0.0
C3026 C 0.62784 0.59614 0.40267 0.0
C3027 C 0.6232 0.60402 0.4051 0.0
C3028 C 0.62749 0.59037 0.38658 0.0
C3029 C 0.61942 0.58153 0.39939 0.0
C3030 C 0.63139 0.63039 0.42523 0.0
C3031 C 0.6389 0.63233 0.43067 0.0
C3032 C 0.64583 0.62587 0.43146 0.0
C3033 C 0.64541 0.61772 0.42666 0.0
C3034 C 0.63796 0.61599 0.42104 0.0
C3035 C 0.63105 0.62222 0.42054 0.0
C3036 C 0.62356 0.61922 0.41444 0.0
C3037 C 0.62713 0.61019 0.41126 0.0
C3038 C 0.63561 0.60835 0.41506 0.0
C3039 C 0.62283 0.62613 0.40667 0.0
C3040 C 0.61485 0.61817 0.42013 0.0
H3041 H 0.63674 0.57714 0.39586 0.0
H3042 H 0.66406 0.58463 0.4137 0.0
H3043 H 0.64714 0.58814 0.42678 0.0
H3044 H 0.64621 0.59959 0.42969 0.0
H3045 H 0.65724 0.59474 0.42789 0.0
H3046 H 0.65784 0.60366 0.40474 0.0
H3047 H 0.6638 0.60208 0.41512 0.0
H3048 H 0.65568 0.61099 0.4138 0.0
H3049 H 0.60704 0.58915 0.38453 0.0
H3050 H 0.59489 0.61401 0.39377 0.0
H3051 H 0.60732 0.61644 0.40388 0.0
H3052 H 0.62734 0.59705 0.38318 0.0
H3053 H 0.62425 0.58539 0.38203 0.0
H3054 H 0.63472 0.58872 0.38721 0.0
H3055 H 0.61341 0.58227 0.40383 0.0
H3056 H 0.62456 0.57827 0.40366 0.0
H3057 H 0.61753 0.57688 0.39385 0.0
H3058 H 0.64965 0.5673 0.39523 0.0
C3059 C 0.64251 0.57898 0.39981 0.0
C3060 C 0.92513 0.40987 0.34852 0.0
C3061 C 0.93273 0.4042 0.34907 0.0
C3062 C 0.93479 0.40007 0.35735 0.0
C3063 C 0.92137 0.40648 0.36403 0.0
C3064 C 0.91956 0.41092 0.35608 0.0
C3065 C 0.91106 0.41647 0.35667 0.0
H3066 H 0.8738 0.42839 0.38032 0.0
C3067 C 0.914 0.40845 0.3704 0.0
C3068 C 0.90796 0.41438 0.36618 0.0
H3069 H 0.88166 0.43744 0.35387 0.0
H3070 H 0.89537 0.42865 0.35482 0.0
H3071 H 0.87889 0.40837 0.37749 0.0
H3072 H 0.89396 0.4301 0.38946 0.0
H3073 H 0.89522 0.42053 0.39634 0.0
H3074 H 0.88413 0.42521 0.39456 0.0
H3075 H 0.8766 0.41228 0.38866 0.0
H3076 H 0.88491 0.40366 0.38646 0.0
C3077 C 0.90432 0.4129 0.34956 0.0
C3078 C 0.91365 0.42654 0.35553 0.0
C3079 C 0.91253 0.39131 0.39984 0.0
C3080 C 0.90594 0.39069 0.40661 0.0
C3081 C 0.89844 0.39656 0.40627 0.0
C3082 C 0.89737 0.40265 0.39915 0.0
C3083 C 0.9038 0.40285 0.39222 0.0
C3084 C 0.91129 0.39732 0.39271 0.0
C3085 C 0.91726 0.39817 0.3846 0.0
C3086 C 0.91207 0.40504 0.37909 0.0
C3087 C 0.90421 0.40776 0.38359 0.0
C3088 C 0.91764 0.38881 0.37994 0.0
C3089 C 0.92655 0.40188 0.38769 0.0
C3090 C 0.87854 0.42861 0.37479 0.0
C3091 C 0.87664 0.43364 0.36702 0.0
C3092 C 0.88292 0.43356 0.3599 0.0
C3093 C 0.89089 0.42848 0.36048 0.0
C3094 C 0.8926 0.42336 0.36824 0.0
C3095 C 0.8865 0.42356 0.37525 0.0
C3096 C 0.8893 0.4176 0.38291 0.0
C3097 C 0.89817 0.4139 0.37942 0.0
C3098 C 0.90006 0.41724 0.37079 0.0
C3099 C 0.88207 0.4101 0.38404 0.0
C3100 C 0.89069 0.4236 0.39131 0.0
H3101 H 0.93107 0.39776 0.37085 0.0
H3102 H 0.92338 0.41318 0.34229 0.0
H3103 H 0.92041 0.42794 0.35849 0.0
H3104 H 0.90901 0.43114 0.35909 0.0
H3105 H 0.91392 0.42844 0.34833 0.0
H3106 H 0.90446 0.4054 0.3493 0.0
H3107 H 0.90605 0.41547 0.34277 0.0
H3108 H 0.89724 0.41466 0.35105 0.0
H3109 H 0.91845 0.38703 0.39994 0.0
H3110 H 0.89321 0.39621 0.41133 0.0
H3111 H 0.89144 0.40679 0.3992 0.0
H3112 H 0.91096 0.38539 0.38026 0.0
H3113 H 0.92265 0.38434 0.38326 0.0
H3114 H 0.91922 0.38918 0.37273 0.0
H3115 H 0.92583 0.40637 0.39364 0.0
H3116 H 0.92982 0.40617 0.38255 0.0
H3117 H 0.9312 0.39633 0.38957 0.0
H3118 H 0.94074 0.39589 0.35805 0.0
C3119 C 0.92918 0.4012 0.36481 0.0
C3120 C 0.59688 0.61505 0.90061 0.0
C3121 C 0.60337 0.61534 0.90751 0.0
C3122 C 0.61046 0.609 0.90744 0.0
C3123 C 0.60506 0.60287 0.89335 0.0
C3124 C 0.59786 0.60878 0.89363 0.0
C3125 C 0.5918 0.6078 0.88557 0.0
H3126 H 0.58414 0.58984 0.84449 0.0
C3127 C 0.60451 0.59773 0.88486 0.0
C3128 C 0.59672 0.60052 0.8803 0.0
H3129 H 0.56749 0.60852 0.85944 0.0
H3130 H 0.57778 0.60781 0.8719 0.0
H3131 H 0.60342 0.59874 0.85018 0.0
H3132 H 0.58825 0.57655 0.86133 0.0
H3133 H 0.59971 0.57349 0.86117 0.0
H3134 H 0.59395 0.57571 0.85073 0.0
H3135 H 0.60196 0.58823 0.84435 0.0
H3136 H 0.6109 0.58981 0.85239 0.0
C3137 C 0.59171 0.61693 0.88052 0.0
C3138 C 0.5824 0.60456 0.88884 0.0
C3139 C 0.63034 0.5771 0.87625 0.0
C3140 C 0.63234 0.57204 0.86853 0.0
C3141 C 0.62593 0.57165 0.86154 0.0
C3142 C 0.61778 0.57648 0.86214 0.0
C3143 C 0.61604 0.58177 0.8698 0.0
C3144 C 0.62224 0.5819 0.87673 0.0
C3145 C 0.61941 0.58792 0.88432 0.0
C3146 C 0.61048 0.59145 0.88082 0.0
C3147 C 0.60853 0.58787 0.8723 0.0
C3148 C 0.62657 0.59551 0.88526 0.0
C3149 C 0.61816 0.58202 0.89282 0.0
C3150 C 0.58275 0.5938 0.85044 0.0
C3151 C 0.57499 0.59925 0.85097 0.0
C3152 C 0.57336 0.60419 0.85889 0.0
C3153 C 0.57938 0.60382 0.86612 0.0
C3154 C 0.58717 0.59848 0.86545 0.0
C3155 C 0.5887 0.59348 0.85776 0.0
C3156 C 0.59726 0.58802 0.8584 0.0
C3157 C 0.60059 0.59062 0.8677 0.0
C3158 C 0.59469 0.59683 0.87173 0.0
C3159 C 0.60376 0.59128 0.85093 0.0
C3160 C 0.59474 0.5779 0.85782 0.0
H3161 H 0.61695 0.59824 0.90071 0.0
H3162 H 0.59135 0.61982 0.90045 0.0
H3163 H 0.58294 0.60057 0.89514 0.0
H3164 H 0.57908 0.59994 0.88402 0.0
H3165 H 0.57786 0.61036 0.89022 0.0
H3166 H 0.5986 0.61993 0.88033 0.0
H3167 H 0.58718 0.62185 0.8839 0.0
H3168 H 0.58965 0.61632 0.87344 0.0
H3169 H 0.63504 0.57742 0.88181 0.0
H3170 H 0.62731 0.56781 0.85551 0.0
H3171 H 0.61323 0.57603 0.85656 0.0
H3172 H 0.62916 0.5976 0.87857 0.0
H3173 H 0.63243 0.59322 0.88931 0.0
H3174 H 0.62387 0.60177 0.88824 0.0
H3175 H 0.61578 0.57512 0.89103 0.0
H3176 H 0.61292 0.58467 0.8974 0.0
H3177 H 0.6246 0.58129 0.89656 0.0
H3178 H 0.61543 0.60893 0.91277 0.0
C3179 C 0.61132 0.60277 0.90043 0.0
C3180 C 0.85366 0.64412 0.85132 0.0
C3181 C 0.85278 0.63764 0.84448 0.0
C3182 C 0.85915 0.63754 0.83745 0.0
C3183 C 0.86752 0.64967 0.8446 0.0
C3184 C 0.86104 0.65002 0.85126 0.0
C3185 C 0.86319 0.65693 0.85832 0.0
H3186 H 0.89344 0.68476 0.87777 0.0
C3187 C 0.87472 0.6562 0.84696 0.0
C3188 C 0.87219 0.6605 0.85496 0.0
H3189 H 0.86609 0.67874 0.88611 0.0
H3190 H 0.86375 0.67001 0.87275 0.0
H3191 H 0.89856 0.66523 0.87029 0.0
H3192 H 0.88769 0.68847 0.8567 0.0
H3193 H 0.8956 0.68344 0.84949 0.0
H3194 H 0.89929 0.68792 0.86015 0.0
H3195 H 0.90498 0.67536 0.86849 0.0
H3196 H 0.9044 0.66663 0.8601 0.0
C3197 C 0.86412 0.65195 0.86742 0.0
C3198 C 0.85573 0.66428 0.85813 0.0
C3199 C 0.90309 0.65799 0.8279 0.0
C3200 C 0.91125 0.66277 0.82879 0.0
C3201 C 0.91237 0.66865 0.83615 0.0
C3202 C 0.90549 0.66974 0.84253 0.0
C3203 C 0.8974 0.66484 0.84159 0.0
C3204 C 0.89631 0.65911 0.83435 0.0
C3205 C 0.88739 0.65425 0.83455 0.0
C3206 C 0.88323 0.65814 0.843 0.0
C3207 C 0.88913 0.66433 0.84713 0.0
C3208 C 0.8893 0.644 0.83544 0.0
C3209 C 0.88199 0.6569 0.82606 0.0
C3210 C 0.88692 0.68163 0.87667 0.0
C3211 C 0.88003 0.68224 0.88316 0.0
C3212 C 0.87162 0.67814 0.88138 0.0
C3213 C 0.87024 0.67309 0.87358 0.0
C3214 C 0.87733 0.67208 0.86743 0.0
C3215 C 0.8854 0.67655 0.86884 0.0
C3216 C 0.89197 0.67498 0.86128 0.0
C3217 C 0.88658 0.66863 0.85528 0.0
C3218 C 0.87807 0.66687 0.85903 0.0
C3219 C 0.90048 0.67036 0.86518 0.0
C3220 C 0.89383 0.68415 0.85665 0.0
H3221 H 0.87123 0.64299 0.83203 0.0
H3222 H 0.84878 0.64449 0.85672 0.0
H3223 H 0.8524 0.66466 0.85145 0.0
H3224 H 0.85847 0.67114 0.85926 0.0
H3225 H 0.85039 0.66288 0.86317 0.0
H3226 H 0.86796 0.64555 0.86656 0.0
H3227 H 0.85739 0.65021 0.87021 0.0
H3228 H 0.86789 0.65581 0.87251 0.0
H3229 H 0.90207 0.65331 0.82241 0.0
H3230 H 0.91857 0.67245 0.83695 0.0
H3231 H 0.90676 0.67429 0.84799 0.0
H3232 H 0.89546 0.64276 0.83954 0.0
H3233 H 0.89041 0.64085 0.82876 0.0
H3234 H 0.88389 0.64031 0.83896 0.0
H3235 H 0.88303 0.66416 0.82443 0.0
H3236 H 0.87463 0.65613 0.82692 0.0
H3237 H 0.88419 0.65289 0.82015 0.0
H3238 H 0.85862 0.6326 0.83211 0.0
C3239 C 0.8665 0.64352 0.83747 0.0
C3240 C 0.15035 0.13929 0.66138 0.0
C3241 C 0.15715 0.13886 0.6548 0.0
C3242 C 0.15727 0.14538 0.64792 0.0
C3243 C 0.14338 0.15185 0.65357 0.0
C3244 C 0.14355 0.14581 0.66062 0.0
C3245 C 0.13547 0.14684 0.66667 0.0
H3246 H 0.09403 0.16451 0.67408 0.0
C3247 C 0.13489 0.15705 0.65414 0.0
C3248 C 0.13024 0.1542 0.66182 0.0
H3249 H 0.10937 0.14643 0.69099 0.0
H3250 H 0.12189 0.14713 0.68073 0.0
H3251 H 0.11105 0.17807 0.6697 0.0
H3252 H 0.09988 0.15548 0.65512 0.0
H3253 H 0.10227 0.16416 0.64744 0.0
H3254 H 0.09402 0.16603 0.65613 0.0
H3255 H 0.10015 0.17851 0.66444 0.0
H3256 H 0.11032 0.18096 0.65827 0.0
C3257 C 0.13882 0.14998 0.67603 0.0
C3258 C 0.13026 0.13775 0.66673 0.0
C3259 C 0.12645 0.17769 0.62844 0.0
C3260 C 0.11852 0.18233 0.62611 0.0
C3261 C 0.11129 0.18245 0.63227 0.0
C3262 C 0.11185 0.17774 0.64045 0.0
C3263 C 0.11971 0.17282 0.64247 0.0
C3264 C 0.12686 0.17294 0.63652 0.0
C3265 C 0.13452 0.16701 0.63944 0.0
C3266 C 0.13085 0.16332 0.64818 0.0
C3267 C 0.12219 0.16674 0.64998 0.0
C3268 C 0.14293 0.17304 0.64099 0.0
C3269 C 0.13578 0.15952 0.63224 0.0
C3270 C 0.10009 0.16068 0.67553 0.0
C3271 C 0.10071 0.1554 0.68336 0.0
C3272 C 0.10875 0.15062 0.68507 0.0
C3273 C 0.11601 0.15099 0.67907 0.0
C3274 C 0.11525 0.15617 0.67123 0.0
C3275 C 0.10746 0.16103 0.66962 0.0
C3276 C 0.10807 0.16639 0.66104 0.0
C3277 C 0.11749 0.16393 0.65782 0.0
C3278 C 0.12158 0.15782 0.66377 0.0
C3279 C 0.1073 0.17653 0.66341 0.0
C3280 C 0.10066 0.16293 0.65456 0.0
H3281 H 0.15083 0.15652 0.64178 0.0
H3282 H 0.15007 0.13437 0.66674 0.0
H3283 H 0.12984 0.13491 0.65983 0.0
H3284 H 0.12322 0.13839 0.66901 0.0
H3285 H 0.13372 0.13272 0.67104 0.0
H3286 H 0.14538 0.15362 0.67556 0.0
H3287 H 0.1398 0.14417 0.68062 0.0
H3288 H 0.13417 0.15489 0.67919 0.0
H3289 H 0.13222 0.17757 0.62397 0.0
H3290 H 0.10508 0.18594 0.63065 0.0
H3291 H 0.10607 0.17796 0.64479 0.0
H3292 H 0.14096 0.17964 0.64398 0.0
H3293 H 0.14647 0.17446 0.63457 0.0
H3294 H 0.14776 0.17009 0.6458 0.0
H3295 H 0.12929 0.15791 0.62882 0.0
H3296 H 0.13799 0.15302 0.63509 0.0
H3297 H 0.14066 0.16165 0.62699 0.0
H3298 H 0.16254 0.14532 0.64288 0.0
C3299 C 0.15046 0.15189 0.6473 0.0
C3300 C 0.64882 0.36751 0.34891 0.0
C3301 C 0.65537 0.36808 0.35573 0.0
C3302 C 0.65517 0.36173 0.36277 0.0
C3303 C 0.64154 0.35507 0.35668 0.0
C3304 C 0.64198 0.36098 0.34953 0.0
C3305 C 0.6342 0.35976 0.34314 0.0
H3306 H 0.59361 0.34093 0.33383 0.0
C3307 C 0.63318 0.3497 0.35576 0.0
C3308 C 0.62887 0.35235 0.34782 0.0
H3309 H 0.60916 0.35955 0.31769 0.0
H3310 H 0.6212 0.35924 0.32853 0.0
H3311 H 0.61055 0.32797 0.33867 0.0
H3312 H 0.59846 0.34999 0.35332 0.0
H3313 H 0.6004 0.34099 0.36077 0.0
H3314 H 0.59275 0.33945 0.3515 0.0
H3315 H 0.59972 0.32693 0.34398 0.0
H3316 H 0.61007 0.32494 0.35006 0.0
C3317 C 0.63802 0.35658 0.33397 0.0
C3318 C 0.62888 0.36875 0.34276 0.0
C3319 C 0.62401 0.32876 0.38102 0.0
C3320 C 0.61631 0.32348 0.38269 0.0
C3321 C 0.60952 0.32298 0.37607 0.0
C3322 C 0.61029 0.32789 0.36804 0.0
C3323 C 0.61793 0.33337 0.36661 0.0
C3324 C 0.62466 0.33363 0.37302 0.0
C3325 C 0.63225 0.33986 0.37053 0.0
C3326 C 0.629 0.34332 0.36153 0.0
C3327 C 0.6206 0.33955 0.35925 0.0
C3328 C 0.64099 0.33418 0.3696 0.0
C3329 C 0.63272 0.34744 0.3777 0.0
C3330 C 0.5996 0.34496 0.33269 0.0
C3331 C 0.60043 0.35029 0.32491 0.0
C3332 C 0.60839 0.35533 0.32358 0.0
C3333 C 0.61536 0.35519 0.32991 0.0
C3334 C 0.6144 0.34995 0.3377 0.0
C3335 C 0.60669 0.34483 0.33894 0.0
C3336 C 0.60707 0.33941 0.34748 0.0
C3337 C 0.61624 0.34219 0.35117 0.0
C3338 C 0.62043 0.34846 0.34544 0.0
C3339 C 0.60678 0.32927 0.345 0.0
C3340 C 0.59925 0.34253 0.35362 0.0
H3341 H 0.64846 0.35072 0.36889 0.0
H3342 H 0.64877 0.37229 0.34342 0.0
H3343 H 0.6282 0.37171 0.34959 0.0
H3344 H 0.62191 0.36795 0.34029 0.0
H3345 H 0.6324 0.37377 0.33847 0.0
H3346 H 0.6445 0.3529 0.33481 0.0
H3347 H 0.63932 0.36239 0.32945 0.0
H3348 H 0.63351 0.35171 0.33055 0.0
H3349 H 0.62943 0.32918 0.38588 0.0
H3350 H 0.60351 0.31897 0.3772 0.0
H3351 H 0.60485 0.32735 0.36331 0.0
H3352 H 0.63947 0.32731 0.36698 0.0
H3353 H 0.64441 0.33337 0.37618 0.0
H3354 H 0.64582 0.33707 0.36472 0.0
H3355 H 0.62586 0.3492 0.38019 0.0
H3356 H 0.63544 0.35385 0.37508 0.0
H3357 H 0.63681 0.34532 0.38358 0.0
H3358 H 0.66023 0.3619 0.36801 0.0
C3359 C 0.64832 0.35523 0.36327 0.0
C3360 C 0.35117 0.86272 0.15259 0.0
C3361 C 0.35022 0.86963 0.159 0.0
C3362 C 0.35695 0.87063 0.16564 0.0
C3363 C 0.36561 0.85845 0.159 0.0
C3364 C 0.35891 0.85731 0.15266 0.0
C3365 C 0.36126 0.8502 0.14585 0.0
H3366 H 0.39274 0.82366 0.12665 0.0
C3367 C 0.37305 0.85218 0.15678 0.0
C3368 C 0.37055 0.84733 0.14909 0.0
H3369 H 0.36503 0.82798 0.11853 0.0
H3370 H 0.36233 0.83672 0.13181 0.0
H3371 H 0.39703 0.84364 0.13405 0.0
H3372 H 0.38732 0.81992 0.14778 0.0
H3373 H 0.39466 0.82562 0.15511 0.0
H3374 H 0.39896 0.82116 0.14467 0.0
H3375 H 0.40368 0.83361 0.13544 0.0
H3376 H 0.40324 0.84212 0.14403 0.0
C3377 C 0.36163 0.85483 0.13652 0.0
C3378 C 0.35427 0.84244 0.14659 0.0
C3379 C 0.40165 0.8526 0.17549 0.0
C3380 C 0.40991 0.84797 0.17492 0.0
C3381 C 0.41112 0.84155 0.16802 0.0
C3382 C 0.40426 0.83991 0.16171 0.0
C3383 C 0.3961 0.84472 0.1623 0.0
C3384 C 0.39489 0.85087 0.16917 0.0
C3385 C 0.38581 0.85537 0.16881 0.0
C3386 C 0.38169 0.85082 0.16067 0.0
C3387 C 0.38776 0.84464 0.15681 0.0
C3388 C 0.38733 0.86562 0.16731 0.0
C3389 C 0.38062 0.853 0.17753 0.0
C3390 C 0.38608 0.82643 0.12778 0.0
C3391 C 0.37917 0.82535 0.12135 0.0
C3392 C 0.37056 0.82896 0.12319 0.0
C3393 C 0.36898 0.83402 0.13094 0.0
C3394 C 0.37608 0.83556 0.13697 0.0
C3395 C 0.38436 0.83153 0.13556 0.0
C3396 C 0.39091 0.83359 0.14304 0.0
C3397 C 0.38529 0.83986 0.1489 0.0
C3398 C 0.37666 0.84107 0.1452 0.0
C3399 C 0.39921 0.83846 0.13899 0.0
C3400 C 0.39317 0.82464 0.14791 0.0
H3401 H 0.36952 0.86626 0.17084 0.0
H3402 H 0.34608 0.86163 0.14748 0.0
H3403 H 0.35144 0.84196 0.15349 0.0
H3404 H 0.3573 0.83573 0.14534 0.0
H3405 H 0.34852 0.84347 0.14191 0.0
H3406 H 0.3649 0.86158 0.13702 0.0
H3407 H 0.35474 0.85582 0.13376 0.0
H3408 H 0.36569 0.85111 0.13155 0.0
H3409 H 0.40044 0.85746 0.18078 0.0
H3410 H 0.41743 0.83793 0.16741 0.0
H3411 H 0.40561 0.83504 0.15656 0.0
H3412 H 0.39357 0.86689 0.16335 0.0
H3413 H 0.38803 0.86926 0.17379 0.0
H3414 H 0.3819 0.86879 0.16333 0.0
H3415 H 0.38188 0.84587 0.1795 0.0
H3416 H 0.37323 0.85352 0.17677 0.0
H3417 H 0.38281 0.85737 0.18319 0.0
H3418 H 0.35648 0.87593 0.17062 0.0
C3419 C 0.36459 0.86505 0.1657 0.0
C3420 C 0.85003 0.36249 0.65289 0.0
C3421 C 0.84887 0.36934 0.65933 0.0
C3422 C 0.85535 0.37025 0.66621 0.0
C3423 C 0.86426 0.35817 0.65972 0.0
C3424 C 0.85778 0.35709 0.65315 0.0
C3425 C 0.8604 0.35012 0.64629 0.0
H3426 H 0.89301 0.3249 0.62731 0.0
C3427 C 0.87183 0.35201 0.65763 0.0
C3428 C 0.86963 0.34731 0.64975 0.0
H3429 H 0.86526 0.32823 0.61881 0.0
H3430 H 0.86201 0.33662 0.63221 0.0
H3431 H 0.89652 0.34464 0.6353 0.0
H3432 H 0.88717 0.32028 0.64809 0.0
H3433 H 0.89402 0.32598 0.65586 0.0
H3434 H 0.89887 0.32201 0.64546 0.0
H3435 H 0.90345 0.3348 0.63671 0.0
H3436 H 0.90247 0.34312 0.64544 0.0
C3437 C 0.86099 0.35489 0.63705 0.0
C3438 C 0.85348 0.34227 0.6467 0.0
C3439 C 0.89956 0.35175 0.67761 0.0
C3440 C 0.90786 0.34717 0.67721 0.0
C3441 C 0.90957 0.34139 0.66987 0.0
C3442 C 0.90307 0.34013 0.66312 0.0
C3443 C 0.89478 0.34472 0.66367 0.0
C3444 C 0.89316 0.35043 0.67083 0.0
C3445 C 0.88408 0.3549 0.67026 0.0
C3446 C 0.88036 0.35068 0.66176 0.0
C3447 C 0.88667 0.34477 0.65788 0.0
C3448 C 0.88558 0.36522 0.66927 0.0
C3449 C 0.87851 0.35213 0.67862 0.0
C3450 C 0.88621 0.32736 0.62837 0.0
C3451 C 0.87948 0.32616 0.62178 0.0
C3452 C 0.87068 0.32936 0.62356 0.0
C3453 C 0.86878 0.33421 0.63137 0.0
C3454 C 0.87572 0.33591 0.63755 0.0
C3455 C 0.88416 0.33219 0.63621 0.0
C3456 C 0.89046 0.33421 0.64391 0.0
C3457 C 0.88453 0.34016 0.64978 0.0
C3458 C 0.87596 0.34125 0.6459 0.0
C3459 C 0.89871 0.33943 0.64021 0.0
C3460 C 0.89285 0.32519 0.64858 0.0
H3461 H 0.86775 0.36583 0.67179 0.0
H3462 H 0.84512 0.36146 0.6476 0.0
H3463 H 0.8503 0.34176 0.65345 0.0
H3464 H 0.85667 0.3356 0.64562 0.0
H3465 H 0.84798 0.34321 0.64173 0.0
H3466 H 0.86442 0.36154 0.63771 0.0
H3467 H 0.85415 0.35611 0.63425 0.0
H3468 H 0.86496 0.35114 0.63204 0.0
H3469 H 0.8981 0.35638 0.68305 0.0
H3470 H 0.91588 0.33775 0.66943 0.0
H3471 H 0.90475 0.33564 0.65772 0.0
H3472 H 0.89215 0.36674 0.66598 0.0
H3473 H 0.88558 0.36863 0.6759 0.0
H3474 H 0.8805 0.36844 0.66489 0.0
H3475 H 0.8795 0.34485 0.68016 0.0
H3476 H 0.87117 0.35295 0.67767 0.0
H3477 H 0.88063 0.35606 0.68462 0.0
H3478 H 0.85471 0.37551 0.67123 0.0
C3479 C 0.863 0.36468 0.66647 0.0
C3480 C 0.35411 0.14412 0.35272 0.0
C3481 C 0.353 0.13783 0.34574 0.0
C3482 C 0.35914 0.13791 0.33851 0.0
C3483 C 0.36778 0.14981 0.34574 0.0
C3484 C 0.36151 0.14999 0.3526 0.0
C3485 C 0.3639 0.15669 0.35979 0.0
H3486 H 0.39469 0.18417 0.37893 0.0
C3487 C 0.37507 0.15626 0.34806 0.0
C3488 C 0.37279 0.16034 0.35625 0.0
H3489 H 0.36777 0.17758 0.38815 0.0
H3490 H 0.36498 0.16921 0.37464 0.0
H3491 H 0.39966 0.16487 0.37093 0.0
H3492 H 0.38822 0.18827 0.35809 0.0
H3493 H 0.39601 0.18346 0.3506 0.0
H3494 H 0.3999 0.18776 0.36126 0.0
H3495 H 0.406 0.17503 0.36902 0.0
H3496 H 0.40511 0.1664 0.36056 0.0
C3497 C 0.36511 0.15144 0.3687 0.0
C3498 C 0.35646 0.16405 0.36003 0.0
C3499 C 0.40293 0.15841 0.32831 0.0
C3500 C 0.41114 0.16313 0.3291 0.0
C3501 C 0.41244 0.16889 0.33653 0.0
C3502 C 0.4057 0.1699 0.34307 0.0
C3503 C 0.39759 0.16503 0.34225 0.0
C3504 C 0.39631 0.15943 0.33493 0.0
C3505 C 0.38739 0.15459 0.33526 0.0
C3506 C 0.38345 0.15831 0.3439 0.0
C3507 C 0.38947 0.1644 0.348 0.0
C3508 C 0.38929 0.14432 0.33587 0.0
C3509 C 0.38177 0.15744 0.32697 0.0
C3510 C 0.38816 0.181 0.37798 0.0
C3511 C 0.38152 0.18136 0.38474 0.0
C3512 C 0.3731 0.17719 0.38319 0.0
C3513 C 0.37147 0.17235 0.37531 0.0
C3514 C 0.37832 0.1716 0.36886 0.0
C3515 C 0.3864 0.1761 0.37009 0.0
C3516 C 0.39273 0.17473 0.36229 0.0
C3517 C 0.38718 0.1685 0.35632 0.0
C3518 C 0.3788 0.1666 0.3603 0.0
C3519 C 0.40138 0.17007 0.36582 0.0
C3520 C 0.3944 0.18401 0.35781 0.0
H3521 H 0.37107 0.14348 0.33288 0.0
H3522 H 0.34941 0.14434 0.35828 0.0
H3523 H 0.35304 0.16473 0.35342 0.0
H3524 H 0.35923 0.17086 0.36142 0.0
H3525 H 0.35119 0.16244 0.36509 0.0
H3526 H 0.36877 0.14499 0.36752 0.0
H3527 H 0.35847 0.14975 0.37173 0.0
H3528 H 0.36918 0.15508 0.37373 0.0
H3529 H 0.40177 0.15381 0.32277 0.0
H3530 H 0.41867 0.17266 0.33725 0.0
H3531 H 0.40711 0.17436 0.34857 0.0
H3532 H 0.39549 0.14298 0.33986 0.0
H3533 H 0.39031 0.14134 0.3291 0.0
H3534 H 0.38391 0.14054 0.33936 0.0
H3535 H 0.38282 0.16472 0.32544 0.0
H3536 H 0.37442 0.15673 0.32803 0.0
H3537 H 0.38375 0.15352 0.32093 0.0
H3538 H 0.35843 0.13313 0.33306 0.0
C3539 C 0.36652 0.14387 0.33847 0.0
C3540 C 0.65029 0.64013 0.15999 0.0
C3541 C 0.65678 0.6396 0.15311 0.0
C3542 C 0.65647 0.64591 0.14605 0.0
C3543 C 0.64277 0.65235 0.15216 0.0
C3544 C 0.64336 0.64653 0.15937 0.0
C3545 C 0.63558 0.64766 0.16578 0.0
H3546 H 0.59438 0.66511 0.17482 0.0
C3547 C 0.63426 0.65748 0.153 0.0
C3548 C 0.63003 0.65482 0.16099 0.0
H3549 H 0.61092 0.6479 0.19149 0.0
H3550 H 0.6228 0.64831 0.1805 0.0
H3551 H 0.6109 0.6787 0.16928 0.0
H3552 H 0.59952 0.65564 0.15559 0.0
H3553 H 0.60116 0.66438 0.14778 0.0
H3554 H 0.59342 0.66601 0.15695 0.0
H3555 H 0.59983 0.67895 0.16436 0.0
H3556 H 0.60979 0.6813 0.15781 0.0
C3557 C 0.63937 0.65111 0.17487 0.0
C3558 C 0.63049 0.63853 0.16636 0.0
C3559 C 0.62438 0.67735 0.12723 0.0
C3560 C 0.61637 0.68199 0.12523 0.0
C3561 C 0.60947 0.6823 0.13175 0.0
C3562 C 0.61043 0.67775 0.13998 0.0
C3563 C 0.61838 0.67283 0.1417 0.0
C3564 C 0.6252 0.6728 0.13538 0.0
C3565 C 0.63304 0.66699 0.13806 0.0
C3566 C 0.62985 0.66354 0.14709 0.0
C3567 C 0.62127 0.66697 0.14923 0.0
C3568 C 0.64149 0.6731 0.13899 0.0
C3569 C 0.63395 0.6593 0.13103 0.0
C3570 C 0.60056 0.66141 0.17604 0.0
C3571 C 0.60172 0.65645 0.18401 0.0
C3572 C 0.6099 0.65183 0.18544 0.0
C3573 C 0.61679 0.65204 0.17903 0.0
C3574 C 0.61553 0.65693 0.17107 0.0
C3575 C 0.60759 0.66164 0.16972 0.0
C3576 C 0.60772 0.66679 0.161 0.0
C3577 C 0.617 0.66433 0.15737 0.0
C3578 C 0.62145 0.65842 0.16326 0.0
C3579 C 0.60696 0.67698 0.16315 0.0
C3580 C 0.60003 0.6631 0.15498 0.0
H3581 H 0.64957 0.65676 0.13989 0.0
H3582 H 0.65034 0.63538 0.16551 0.0
H3583 H 0.6297 0.63551 0.15957 0.0
H3584 H 0.62359 0.63916 0.16904 0.0
H3585 H 0.63426 0.63364 0.17059 0.0
H3586 H 0.64593 0.65467 0.174 0.0
H3587 H 0.6405 0.64546 0.17962 0.0
H3588 H 0.6349 0.65617 0.17805 0.0
H3589 H 0.62989 0.6771 0.12246 0.0
H3590 H 0.60321 0.68581 0.13037 0.0
H3591 H 0.6049 0.67808 0.14461 0.0
H3592 H 0.63964 0.67983 0.14175 0.0
H3593 H 0.64477 0.6742 0.13238 0.0
H3594 H 0.64652 0.67039 0.14375 0.0
H3595 H 0.62726 0.65745 0.12815 0.0
H3596 H 0.6365 0.65293 0.13391 0.0
H3597 H 0.63838 0.66135 0.12538 0.0
H3598 H 0.6615 0.64577 0.14077 0.0
C3599 C 0.64953 0.65229 0.14555 0.0
C3600 C 0.1489 0.86773 0.84839 0.0
C3601 C 0.15541 0.86842 0.85523 0.0
C3602 C 0.15523 0.86217 0.86236 0.0
C3603 C 0.14169 0.85532 0.85627 0.0
C3604 C 0.14211 0.86116 0.84906 0.0
C3605 C 0.13434 0.85983 0.84268 0.0
H3606 H 0.09385 0.84073 0.83353 0.0
C3607 C 0.13338 0.84986 0.85537 0.0
C3608 C 0.12906 0.85243 0.8474 0.0
H3609 H 0.10923 0.85941 0.8173 0.0
H3610 H 0.12132 0.85917 0.82809 0.0
H3611 H 0.11088 0.82788 0.83828 0.0
H3612 H 0.09869 0.84982 0.85296 0.0
H3613 H 0.10071 0.84084 0.86042 0.0
H3614 H 0.09306 0.83923 0.85116 0.0
H3615 H 0.10012 0.82674 0.84372 0.0
H3616 H 0.11056 0.82487 0.84968 0.0
C3617 C 0.13819 0.85662 0.83354 0.0
C3618 C 0.12896 0.86879 0.84223 0.0
C3619 C 0.12443 0.82882 0.88063 0.0
C3620 C 0.11679 0.82344 0.88229 0.0
C3621 C 0.11001 0.82288 0.87567 0.0
C3622 C 0.11072 0.82782 0.86765 0.0
C3623 C 0.1183 0.83338 0.86623 0.0
C3624 C 0.12503 0.83371 0.87265 0.0
C3625 C 0.13255 0.84003 0.87016 0.0
C3626 C 0.12927 0.84346 0.86116 0.0
C3627 C 0.12091 0.83959 0.85888 0.0
C3628 C 0.14135 0.83446 0.86924 0.0
C3629 C 0.13293 0.84762 0.87733 0.0
C3630 C 0.09981 0.84479 0.83235 0.0
C3631 C 0.10058 0.85012 0.82457 0.0
C3632 C 0.10851 0.8552 0.8232 0.0
C3633 C 0.11551 0.85509 0.8295 0.0
C3634 C 0.11461 0.84986 0.8373 0.0
C3635 C 0.10693 0.8447 0.83857 0.0
C3636 C 0.10738 0.8393 0.84712 0.0
C3637 C 0.11653 0.84216 0.85079 0.0
C3638 C 0.12066 0.84845 0.84504 0.0
C3639 C 0.10716 0.82915 0.84465 0.0
C3640 C 0.09954 0.84237 0.85327 0.0
H3641 H 0.14859 0.85118 0.86857 0.0
H3642 H 0.14883 0.87245 0.84285 0.0
H3643 H 0.1283 0.87182 0.84904 0.0
H3644 H 0.12198 0.86791 0.83982 0.0
H3645 H 0.13242 0.87378 0.83787 0.0
H3646 H 0.14466 0.85292 0.83442 0.0
H3647 H 0.13952 0.86241 0.829 0.0
H3648 H 0.13369 0.85175 0.83011 0.0
H3649 H 0.12985 0.82928 0.8855 0.0
H3650 H 0.10404 0.8188 0.87679 0.0
H3651 H 0.10529 0.82723 0.86292 0.0
H3652 H 0.13992 0.82761 0.8665 0.0
H3653 H 0.14471 0.83358 0.87585 0.0
H3654 H 0.1462 0.83746 0.86446 0.0
H3655 H 0.12606 0.84924 0.87989 0.0
H3656 H 0.13549 0.85409 0.87468 0.0
H3657 H 0.13712 0.84559 0.88316 0.0
H3658 H 0.16027 0.86246 0.86762 0.0
C3659 C 0.14844 0.85562 0.86289 0.0
C3660 C 0.87767 0.88973 0.67913 0.0
C3661 C 0.88449 0.88313 0.67935 0.0
C3662 C 0.88325 0.87505 0.67449 0.0
C3663 C 0.86889 0.88042 0.6689 0.0
C3664 C 0.86995 0.88824 0.67385 0.0
C3665 C 0.86215 0.89463 0.67256 0.0
H3666 H 0.82257 0.90427 0.65174 0.0
C3667 C 0.86035 0.88107 0.66385 0.0
C3668 C 0.85631 0.88936 0.66599 0.0
H3669 H 0.83722 0.92082 0.6707 0.0
H3670 H 0.84859 0.90922 0.67217 0.0
H3671 H 0.83959 0.89815 0.64076 0.0
H3672 H 0.82525 0.88521 0.66234 0.0
H3673 H 0.82782 0.87688 0.65433 0.0
H3674 H 0.82067 0.88621 0.65123 0.0
H3675 H 0.82877 0.89294 0.63916 0.0
H3676 H 0.83912 0.88661 0.63819 0.0
C3677 C 0.86584 0.90346 0.66837 0.0
C3678 C 0.85741 0.89591 0.68173 0.0
C3679 C 0.85194 0.85623 0.64187 0.0
C3680 C 0.8447 0.85507 0.63587 0.0
C3681 C 0.83772 0.86154 0.63578 0.0
C3682 C 0.83804 0.86911 0.64144 0.0
C3683 C 0.84544 0.87027 0.64724 0.0
C3684 C 0.85217 0.86383 0.64745 0.0
C3685 C 0.85956 0.86619 0.65396 0.0
C3686 C 0.85621 0.87517 0.65756 0.0
C3687 C 0.84796 0.87754 0.65358 0.0
C3688 C 0.86847 0.86722 0.6486 0.0
C3689 C 0.85978 0.85883 0.66136 0.0
C3690 C 0.82816 0.90534 0.65631 0.0
C3691 C 0.82898 0.91346 0.66113 0.0
C3692 C 0.83647 0.91466 0.66686 0.0
C3693 C 0.84304 0.9079 0.66772 0.0
C3694 C 0.84218 0.89987 0.66276 0.0
C3695 C 0.8348 0.8987 0.65719 0.0
C3696 C 0.83508 0.88987 0.65223 0.0
C3697 C 0.84381 0.88589 0.65578 0.0
C3698 C 0.84795 0.89177 0.66195 0.0
C3699 C 0.83561 0.89192 0.64204 0.0
C3700 C 0.82676 0.88421 0.65509 0.0
H3701 H 0.87505 0.86741 0.66571 0.0
H3702 H 0.87843 0.89602 0.68277 0.0
H3703 H 0.85724 0.88945 0.68553 0.0
H3704 H 0.85027 0.89794 0.68108 0.0
H3705 H 0.86103 0.90096 0.68592 0.0
H3706 H 0.87136 0.90199 0.66352 0.0
H3707 H 0.86862 0.90802 0.67362 0.0
H3708 H 0.86074 0.90716 0.66444 0.0
H3709 H 0.85748 0.85147 0.64205 0.0
H3710 H 0.832 0.86075 0.63132 0.0
H3711 H 0.83255 0.8738 0.64101 0.0
H3712 H 0.86719 0.87037 0.64194 0.0
H3713 H 0.87168 0.86056 0.64739 0.0
H3714 H 0.87341 0.87173 0.65187 0.0
H3715 H 0.85293 0.85599 0.66257 0.0
H3716 H 0.86193 0.8615 0.66796 0.0
H3717 H 0.86426 0.85315 0.65942 0.0
H3718 H 0.88831 0.86978 0.67469 0.0
C3719 C 0.87551 0.87366 0.6693 0.0
C3720 C 0.82281 0.13232 0.38337 0.0
C3721 C 0.82192 0.12549 0.37685 0.0
C3722 C 0.82697 0.12615 0.36885 0.0
C3723 C 0.83396 0.13995 0.37412 0.0
C3724 C 0.82882 0.13949 0.38184 0.0
C3725 C 0.83067 0.14728 0.38807 0.0
H3726 H 0.85569 0.18428 0.39799 0.0
C3727 C 0.83984 0.14797 0.37476 0.0
C3728 C 0.83789 0.15237 0.38288 0.0
H3729 H 0.83375 0.17279 0.4134 0.0
H3730 H 0.83153 0.16139 0.40203 0.0
H3731 H 0.86463 0.1656 0.39209 0.0
H3732 H 0.84558 0.18316 0.37907 0.0
H3733 H 0.85284 0.17909 0.37069 0.0
H3734 H 0.85739 0.18583 0.37973 0.0
H3735 H 0.8677 0.17645 0.38768 0.0
H3736 H 0.86782 0.16646 0.38077 0.0
C3737 C 0.83434 0.14343 0.39701 0.0
C3738 C 0.82188 0.15286 0.38904 0.0
C3739 C 0.86369 0.15341 0.35087 0.0
C3740 C 0.87046 0.15999 0.34983 0.0
C3741 C 0.87095 0.16714 0.35606 0.0
C3742 C 0.86498 0.16757 0.36336 0.0
C3743 C 0.85844 0.16078 0.36445 0.0
C3744 C 0.85778 0.15394 0.35818 0.0
C3745 C 0.85037 0.14736 0.36036 0.0
C3746 C 0.84678 0.15129 0.36906 0.0
C3747 C 0.85156 0.15911 0.37146 0.0
C3748 C 0.85474 0.13796 0.36178 0.0
C3749 C 0.84326 0.14772 0.35273 0.0
C3750 C 0.85032 0.1794 0.39889 0.0
C3751 C 0.84492 0.17945 0.40666 0.0
C3752 C 0.83811 0.17284 0.40757 0.0
C3753 C 0.83679 0.16625 0.40093 0.0
C3754 C 0.84233 0.16624 0.39327 0.0
C3755 C 0.84889 0.1728 0.39231 0.0
C3756 C 0.85409 0.17184 0.3837 0.0
C3757 C 0.84958 0.1636 0.37964 0.0
C3758 C 0.84274 0.16029 0.38529 0.0
C3759 C 0.86411 0.17005 0.3861 0.0
C3760 C 0.85249 0.18042 0.37798 0.0
H3761 H 0.83667 0.13335 0.36128 0.0
H3762 H 0.81894 0.13207 0.38953 0.0
H3763 H 0.81787 0.1527 0.38273 0.0
H3764 H 0.82319 0.1601 0.39027 0.0
H3765 H 0.81755 0.15017 0.3945 0.0
H3766 H 0.83916 0.13783 0.39572 0.0
H3767 H 0.82877 0.14073 0.40122 0.0
H3768 H 0.83817 0.14842 0.40098 0.0
H3769 H 0.86305 0.14791 0.34612 0.0
H3770 H 0.87613 0.17227 0.35545 0.0
H3771 H 0.8658 0.1731 0.36794 0.0
H3772 H 0.86124 0.1386 0.36547 0.0
H3773 H 0.85617 0.13463 0.35525 0.0
H3774 H 0.85059 0.13338 0.36591 0.0
H3775 H 0.84302 0.15452 0.34959 0.0
H3776 H 0.8363 0.14654 0.35518 0.0
H3777 H 0.84483 0.14277 0.34736 0.0
H3778 H 0.8265 0.12095 0.36376 0.0
C3779 C 0.83295 0.13333 0.36745 0.0
C3780 C 0.6752 0.1016 0.16213 0.0
C3781 C 0.68292 0.10231 0.15667 0.0
C3782 C 0.68424 0.11022 0.15159 0.0
C3783 C 0.67021 0.11641 0.15722 0.0
C3784 C 0.66898 0.10873 0.16234 0.0
C3785 C 0.66042 0.10914 0.16779 0.0
H3786 H 0.62176 0.13127 0.17815 0.0
C3787 C 0.66243 0.12244 0.15874 0.0
C3788 C 0.65669 0.11827 0.16499 0.0
H3789 H 0.63112 0.10576 0.18872 0.0
H3790 H 0.64475 0.10699 0.17991 0.0
H3791 H 0.64095 0.1415 0.17978 0.0
H3792 H 0.62747 0.12774 0.15816 0.0
H3793 H 0.63252 0.1374 0.15355 0.0
H3794 H 0.62399 0.13865 0.16209 0.0
H3795 H 0.63148 0.14628 0.17399 0.0
H3796 H 0.64289 0.14787 0.17003 0.0
C3797 C 0.663 0.10895 0.17786 0.0
C3798 C 0.65423 0.10128 0.16478 0.0
C3799 C 0.6597 0.15149 0.1408 0.0
C3800 C 0.65306 0.15826 0.14044 0.0
C3801 C 0.64558 0.15769 0.14627 0.0
C3802 C 0.64464 0.15044 0.15222 0.0
C3803 C 0.65123 0.14363 0.15237 0.0
C3804 C 0.65865 0.14427 0.14678 0.0
C3805 C 0.66496 0.13641 0.14785 0.0
C3806 C 0.66005 0.13089 0.15493 0.0
C3807 C 0.65201 0.13515 0.15752 0.0
C3808 C 0.67415 0.14003 0.15133 0.0
C3809 C 0.66547 0.13139 0.13873 0.0
C3810 C 0.6268 0.126 0.1787 0.0
C3811 C 0.62533 0.1184 0.18416 0.0
C3812 C 0.63201 0.11164 0.18449 0.0
C3813 C 0.63995 0.11238 0.1794 0.0
C3814 C 0.64124 0.11996 0.17387 0.0
C3815 C 0.63474 0.12664 0.17367 0.0
C3816 C 0.63718 0.13421 0.16741 0.0
C3817 C 0.64622 0.13098 0.16387 0.0
C3818 C 0.64855 0.12261 0.16763 0.0
C3819 C 0.63813 0.14297 0.17302 0.0
C3820 C 0.62992 0.13463 0.15992 0.0
H3821 H 0.67933 0.12305 0.14777 0.0
H3822 H 0.67404 0.09565 0.16619 0.0
H3823 H 0.65452 0.10039 0.15737 0.0
H3824 H 0.64704 0.10245 0.16631 0.0
H3825 H 0.65635 0.09482 0.16792 0.0
H3826 H 0.66947 0.11259 0.17905 0.0
H3827 H 0.66387 0.10191 0.18028 0.0
H3828 H 0.65804 0.11244 0.18216 0.0
H3829 H 0.6656 0.15177 0.13651 0.0
H3830 H 0.64031 0.16275 0.14607 0.0
H3831 H 0.63874 0.15037 0.15639 0.0
H3832 H 0.6732 0.14609 0.15564 0.0
H3833 H 0.67863 0.14199 0.14568 0.0
H3834 H 0.67771 0.13514 0.15567 0.0
H3835 H 0.65873 0.13123 0.13543 0.0
H3836 H 0.66743 0.12424 0.13938 0.0
H3837 H 0.67024 0.1348 0.13409 0.0
H3838 H 0.69006 0.11091 0.14725 0.0
C3839 C 0.67795 0.11726 0.15185 0.0
C3840 C 0.66037 0.83102 0.90813 0.0
C3841 C 0.65459 0.8235 0.90752 0.0
C3842 C 0.64963 0.82211 0.89956 0.0
C3843 C 0.65589 0.83577 0.89318 0.0
C3844 C 0.66095 0.83702 0.90087 0.0
C3845 C 0.66677 0.84535 0.90034 0.0
H3846 H 0.67926 0.88287 0.87747 0.0
C3847 C 0.6578 0.84334 0.88701 0.0
C3848 C 0.66426 0.84893 0.89112 0.0
H3849 H 0.68873 0.87402 0.90345 0.0
H3850 H 0.6794 0.86066 0.90239 0.0
H3851 H 0.68001 0.86322 0.8678 0.0
H3852 H 0.65901 0.87835 0.88085 0.0
H3853 H 0.654 0.87306 0.87157 0.0
H3854 H 0.66298 0.88109 0.86981 0.0
H3855 H 0.6749 0.87299 0.86284 0.0
H3856 H 0.67017 0.86186 0.86134 0.0
C3857 C 0.67679 0.8424 0.90081 0.0
C3858 C 0.66384 0.85186 0.90794 0.0
C3859 C 0.63935 0.84681 0.85846 0.0
C3860 C 0.63907 0.85355 0.85182 0.0
C3861 C 0.64559 0.8605 0.85201 0.0
C3862 C 0.65201 0.86095 0.8589 0.0
C3863 C 0.65191 0.85443 0.86573 0.0
C3864 C 0.64578 0.8474 0.86534 0.0
C3865 C 0.64664 0.84112 0.87323 0.0
C3866 C 0.65412 0.8457 0.87853 0.0
C3867 C 0.65714 0.85349 0.87412 0.0
C3868 C 0.64955 0.83172 0.86969 0.0
C3869 C 0.63754 0.84117 0.87837 0.0
C3870 C 0.67945 0.87799 0.88287 0.0
C3871 C 0.68477 0.8795 0.89054 0.0
C3872 C 0.68464 0.87305 0.8975 0.0
C3873 C 0.67924 0.86529 0.89686 0.0
C3874 C 0.67385 0.86396 0.8892 0.0
C3875 C 0.67407 0.87024 0.88235 0.0
C3876 C 0.66775 0.86789 0.87482 0.0
C3877 C 0.66375 0.85911 0.87821 0.0
C3878 C 0.66731 0.85684 0.88665 0.0
C3879 C 0.67343 0.86646 0.8662 0.0
C3880 C 0.66057 0.87547 0.87412 0.0
H3881 H 0.64622 0.82679 0.88659 0.0
H3882 H 0.66436 0.83221 0.91411 0.0
H3883 H 0.65637 0.85175 0.90879 0.0
H3884 H 0.66552 0.85897 0.90653 0.0
H3885 H 0.66691 0.8499 0.91445 0.0
H3886 H 0.67781 0.83586 0.89728 0.0
H3887 H 0.67902 0.84152 0.90787 0.0
H3888 H 0.68138 0.84717 0.89741 0.0
H3889 H 0.63441 0.84142 0.85855 0.0
H3890 H 0.64562 0.86568 0.84689 0.0
H3891 H 0.65667 0.86649 0.85873 0.0
H3892 H 0.65362 0.83233 0.86344 0.0
H3893 H 0.64359 0.82744 0.86813 0.0
H3894 H 0.654 0.82811 0.87443 0.0
H3895 H 0.63472 0.84812 0.8787 0.0
H3896 H 0.63816 0.839 0.88542 0.0
H3897 H 0.63248 0.83681 0.87498 0.0
H3898 H 0.64507 0.81642 0.89895 0.0
C3899 C 0.65026 0.82818 0.8924 0.0
C3900 C 0.87553 0.11568 0.82566 0.0
C3901 C 0.88191 0.12249 0.82388 0.0
C3902 C 0.88099 0.13094 0.82812 0.0
C3903 C 0.86777 0.12563 0.83608 0.0
C3904 C 0.86847 0.11743 0.8317 0.0
C3905 C 0.86094 0.11108 0.83425 0.0
H3906 H 0.82415 0.10255 0.86002 0.0
C3907 C 0.8599 0.12522 0.84214 0.0
C3908 C 0.85577 0.11676 0.84102 0.0
H3909 H 0.83625 0.08511 0.84011 0.0
H3910 H 0.84731 0.09662 0.83668 0.0
H3911 H 0.84264 0.10917 0.86852 0.0
H3912 H 0.82523 0.12075 0.84851 0.0
H3913 H 0.82891 0.12963 0.85543 0.0
H3914 H 0.82236 0.12055 0.86021 0.0
H3915 H 0.83205 0.11432 0.8713 0.0
H3916 H 0.84234 0.12081 0.87059 0.0
C3917 C 0.86518 0.10261 0.83862 0.0
C3918 C 0.85525 0.10909 0.82574 0.0
C3919 C 0.8544 0.15079 0.8642 0.0
C3920 C 0.84807 0.15205 0.87112 0.0
C3921 C 0.84107 0.14568 0.87219 0.0
C3922 C 0.84059 0.13802 0.86667 0.0
C3923 C 0.84719 0.13667 0.86003 0.0
C3924 C 0.85385 0.14308 0.85878 0.0
C3925 C 0.86029 0.14053 0.8514 0.0
C3926 C 0.85653 0.13141 0.8486 0.0
C3927 C 0.84889 0.12918 0.8537 0.0
C3928 C 0.86985 0.13973 0.85555 0.0
C3929 C 0.85949 0.14763 0.8438 0.0
C3930 C 0.82922 0.10117 0.85496 0.0
C3931 C 0.82935 0.09287 0.85038 0.0
C3932 C 0.83596 0.09146 0.8437 0.0
C3933 C 0.84241 0.09814 0.84175 0.0
C3934 C 0.84225 0.10634 0.84651 0.0
C3935 C 0.83568 0.10775 0.85294 0.0
C3936 C 0.8365 0.11682 0.85737 0.0
C3937 C 0.84462 0.12069 0.85249 0.0
C3938 C 0.848 0.11451 0.84617 0.0
C3939 C 0.83842 0.11529 0.86748 0.0
C3940 C 0.8278 0.12226 0.85537 0.0
H3941 H 0.87373 0.13908 0.83727 0.0
H3942 H 0.876 0.10917 0.82239 0.0
H3943 H 0.85504 0.11507 0.82123 0.0
H3944 H 0.84811 0.10763 0.82728 0.0
H3945 H 0.85814 0.10338 0.82186 0.0
H3946 H 0.87077 0.10457 0.84322 0.0
H3947 H 0.86801 0.09802 0.83345 0.0
H3948 H 0.86037 0.09879 0.84281 0.0
H3949 H 0.85977 0.15563 0.8631 0.0
H3950 H 0.83614 0.14644 0.8775 0.0
H3951 H 0.8352 0.13335 0.86794 0.0
H3952 H 0.86954 0.13627 0.86217 0.0
H3953 H 0.8729 0.1465 0.85663 0.0
H3954 H 0.87453 0.13565 0.85147 0.0
H3955 H 0.85268 0.1508 0.8437 0.0
H3956 H 0.86024 0.14462 0.83704 0.0
H3957 H 0.86453 0.15312 0.84463 0.0
H3958 H 0.88585 0.13627 0.82689 0.0
C3959 C 0.87397 0.13254 0.83419 0.0
C3960 C 0.66263 0.17738 0.60301 0.0
C3961 C 0.65685 0.18486 0.60395 0.0
C3962 C 0.65174 0.18575 0.61189 0.0
C3963 C 0.65788 0.17177 0.61759 0.0
C3964 C 0.66308 0.17096 0.60992 0.0
C3965 C 0.66883 0.16258 0.61008 0.0
H3966 H 0.67999 0.12339 0.63074 0.0
C3967 C 0.65962 0.16385 0.62333 0.0
C3968 C 0.66611 0.15846 0.61903 0.0
H3969 H 0.69053 0.13385 0.60576 0.0
H3970 H 0.6815 0.14732 0.60751 0.0
H3971 H 0.68111 0.1423 0.64174 0.0
H3972 H 0.65998 0.12868 0.62727 0.0
H3973 H 0.65499 0.13331 0.63689 0.0
H3974 H 0.66377 0.12499 0.63809 0.0
H3975 H 0.67555 0.13243 0.646 0.0
H3976 H 0.67117 0.14361 0.64803 0.0
C3977 C 0.67887 0.16548 0.60999 0.0
C3978 C 0.66601 0.15655 0.60206 0.0
C3979 C 0.64064 0.15899 0.65132 0.0
C3980 C 0.64013 0.1519 0.65756 0.0
C3981 C 0.64649 0.14484 0.65706 0.0
C3982 C 0.653 0.14466 0.65024 0.0
C3983 C 0.65314 0.15158 0.6438 0.0
C3984 C 0.64715 0.15868 0.64451 0.0
C3985 C 0.64823 0.16538 0.63701 0.0
C3986 C 0.65573 0.16102 0.63157 0.0
C3987 C 0.65855 0.15294 0.63556 0.0
C3988 C 0.65121 0.17452 0.64112 0.0
C3989 C 0.63921 0.16572 0.63173 0.0
C3990 C 0.68051 0.12864 0.62572 0.0
C3991 C 0.68601 0.12753 0.61811 0.0
C3992 C 0.68628 0.13448 0.61164 0.0
C3993 C 0.68105 0.14231 0.61268 0.0
C3994 C 0.67543 0.14321 0.62024 0.0
C3995 C 0.67532 0.13647 0.62664 0.0
C3996 C 0.66888 0.13844 0.63418 0.0
C3997 C 0.66516 0.1475 0.63128 0.0
C3998 C 0.66896 0.15026 0.62309 0.0
C3999 C 0.67439 0.13918 0.64299 0.0
C4000 C 0.66153 0.13098 0.63421 0.0
H4001 H 0.6481 0.18034 0.6245 0.0
H4002 H 0.66672 0.17655 0.59704 0.0
H4003 H 0.65855 0.15662 0.60118 0.0
H4004 H 0.66778 0.14939 0.60299 0.0
H4005 H 0.6691 0.15899 0.59571 0.0
H4006 H 0.67987 0.17182 0.61388 0.0
H4007 H 0.68126 0.16673 0.60304 0.0
H4008 H 0.68335 0.16051 0.61324 0.0
H4009 H 0.63581 0.16447 0.65147 0.0
H4010 H 0.64633 0.13937 0.66187 0.0
H4011 H 0.65754 0.13903 0.65015 0.0
H4012 H 0.65521 0.17351 0.64736 0.0
H4013 H 0.64529 0.17876 0.64288 0.0
H4014 H 0.65575 0.17838 0.63665 0.0
H4015 H 0.6362 0.15886 0.63113 0.0
H4016 H 0.64 0.16808 0.62475 0.0
H4017 H 0.63421 0.1701 0.63518 0.0
H4018 H 0.64715 0.19137 0.61275 0.0
C4019 C 0.65225 0.17929 0.61869 0.0
C4020 C 0.67209 0.90735 0.3446 0.0
C4021 C 0.67981 0.90707 0.35009 0.0
C4022 C 0.68144 0.89929 0.35529 0.0
C4023 C 0.66773 0.89238 0.34965 0.0
C4024 C 0.6662 0.89994 0.34444 0.0
C4025 C 0.65775 0.89904 0.33888 0.0
H4026 H 0.62119 0.8742 0.32694 0.0
C4027 C 0.6603 0.88593 0.34805 0.0
C4028 C 0.65445 0.88975 0.34168 0.0
H4029 H 0.62875 0.90067 0.31732 0.0
H4030 H 0.64203 0.90047 0.32677 0.0
H4031 H 0.64128 0.86557 0.32648 0.0
H4032 H 0.62533 0.87809 0.34712 0.0
H4033 H 0.6312 0.86925 0.3523 0.0
H4034 H 0.62329 0.86675 0.34343 0.0
H4035 H 0.63162 0.86022 0.33146 0.0
H4036 H 0.64273 0.85918 0.33631 0.0
C4037 C 0.66047 0.89932 0.32885 0.0
C4038 C 0.65112 0.90658 0.34176 0.0
C4039 C 0.6588 0.85676 0.36597 0.0
C4040 C 0.65253 0.84961 0.36618 0.0
C4041 C 0.64518 0.84974 0.36016 0.0
C4042 C 0.64401 0.8569 0.35416 0.0
C4043 C 0.65021 0.86408 0.35416 0.0
C4044 C 0.6575 0.86389 0.35994 0.0
C4045 C 0.66339 0.87211 0.35899 0.0
C4046 C 0.65834 0.87734 0.3518 0.0
C4047 C 0.65063 0.87259 0.34901 0.0
C4048 C 0.67284 0.86903 0.35572 0.0
C4049 C 0.66344 0.87716 0.36811 0.0
C4050 C 0.62577 0.87991 0.32676 0.0
C4051 C 0.62395 0.88744 0.32133 0.0
C4052 C 0.62998 0.89481 0.32148 0.0
C4053 C 0.6377 0.89466 0.32695 0.0
C4054 C 0.6394 0.88709 0.33237 0.0
C4055 C 0.63346 0.87989 0.33221 0.0
C4056 C 0.63616 0.8725 0.33856 0.0
C4057 C 0.64477 0.87639 0.34249 0.0
C4058 C 0.64665 0.88493 0.33885 0.0
C4059 C 0.638 0.86386 0.33299 0.0
C4060 C 0.62862 0.87149 0.34572 0.0
H4061 H 0.67706 0.8863 0.35927 0.0
H4062 H 0.67071 0.91318 0.34044 0.0
H4063 H 0.65148 0.90775 0.34913 0.0
H4064 H 0.64399 0.90485 0.34044 0.0
H4065 H 0.65275 0.91306 0.33837 0.0
H4066 H 0.667 0.89579 0.32775 0.0
H4067 H 0.66129 0.90638 0.32648 0.0
H4068 H 0.65561 0.8958 0.32445 0.0
H4069 H 0.66458 0.85682 0.37042 0.0
H4070 H 0.64019 0.84439 0.36024 0.0
H4071 H 0.63823 0.85662 0.34983 0.0
H4072 H 0.67233 0.86289 0.35144 0.0
H4073 H 0.67732 0.86739 0.36146 0.0
H4074 H 0.67619 0.87409 0.3514 0.0
H4075 H 0.6566 0.87704 0.3712 0.0
H4076 H 0.66516 0.88437 0.36749 0.0
H4077 H 0.66819 0.87394 0.3729 0.0
H4078 H 0.68729 0.89894 0.35965 0.0
C4079 C 0.67546 0.89197 0.3551 0.0
C4080 C 0.82256 0.87523 0.11806 0.0
C4081 C 0.82119 0.88197 0.12459 0.0
C4082 C 0.82584 0.88135 0.13282 0.0
C4083 C 0.83343 0.86781 0.12777 0.0
C4084 C 0.82867 0.86822 0.11981 0.0
C4085 C 0.83106 0.86056 0.11358 0.0
H4086 H 0.85811 0.82494 0.10416 0.0
C4087 C 0.8396 0.86 0.12732 0.0
C4088 C 0.83819 0.85565 0.11906 0.0
H4089 H 0.83647 0.8357 0.08794 0.0
H4090 H 0.83296 0.84656 0.09956 0.0
H4091 H 0.86587 0.84396 0.11079 0.0
H4092 H 0.84718 0.82517 0.12264 0.0
H4093 H 0.85388 0.82941 0.13141 0.0
H4094 H 0.85912 0.82313 0.12242 0.0
H4095 H 0.8693 0.83323 0.1152 0.0
H4096 H 0.86859 0.8431 0.12222 0.0
C4097 C 0.83502 0.86465 0.10487 0.0
C4098 C 0.82251 0.8547 0.11213 0.0
C4099 C 0.86284 0.85543 0.15196 0.0
C4100 C 0.87001 0.84931 0.15303 0.0
C4101 C 0.87099 0.84222 0.14679 0.0
C4102 C 0.86515 0.84146 0.13942 0.0
C4103 C 0.85829 0.84789 0.13821 0.0
C4104 C 0.85711 0.85461 0.14453 0.0
C4105 C 0.8495 0.86088 0.14214 0.0
C4106 C 0.84641 0.8569 0.13326 0.0
C4107 C 0.85162 0.84933 0.13097 0.0
C4108 C 0.8535 0.87049 0.141 0.0
C4109 C 0.84213 0.86008 0.14948 0.0
C4110 C 0.85265 0.82968 0.10309 0.0
C4111 C 0.84763 0.82954 0.09509 0.0
C4112 C 0.84043 0.83567 0.09405 0.0
C4113 C 0.83844 0.842 0.10078 0.0
C4114 C 0.84367 0.84218 0.10866 0.0
C4115 C 0.85054 0.83598 0.10976 0.0
C4116 C 0.8553 0.83702 0.11861 0.0
C4117 C 0.85019 0.8449 0.12264 0.0
C4118 C 0.84345 0.84798 0.11675 0.0
C4119 C 0.86531 0.83939 0.11669 0.0
C4120 C 0.85389 0.82823 0.12408 0.0
H4121 H 0.83532 0.87432 0.1408 0.0
H4122 H 0.819 0.87543 0.11172 0.0
H4123 H 0.81815 0.8547 0.11822 0.0
H4124 H 0.82411 0.84751 0.11096 0.0
H4125 H 0.8184 0.85727 0.10645 0.0
H4126 H 0.8397 0.87031 0.10647 0.0
H4127 H 0.82958 0.86734 0.1005 0.0
H4128 H 0.83907 0.85981 0.10096 0.0
H4129 H 0.86181 0.86088 0.1567 0.0
H4130 H 0.87648 0.83745 0.14741 0.0
H4131 H 0.86637 0.83603 0.13481 0.0
H4132 H 0.86023 0.8702 0.13768 0.0
H4133 H 0.85442 0.87384 0.14761 0.0
H4134 H 0.8494 0.87489 0.13666 0.0
H4135 H 0.84198 0.85318 0.15242 0.0
H4136 H 0.83524 0.86112 0.14682 0.0
H4137 H 0.84337 0.86492 0.15505 0.0
H4138 H 0.82499 0.88648 0.13794 0.0
C4139 C 0.83191 0.87432 0.13445 0.0
C4140 C 0.16289 0.67711 0.1025 0.0
C4141 C 0.15713 0.6846 0.10345 0.0
C4142 C 0.15209 0.68556 0.11142 0.0
C4143 C 0.15826 0.67159 0.11715 0.0
C4144 C 0.16339 0.67073 0.10945 0.0
C4145 C 0.16913 0.66234 0.10961 0.0
H4146 H 0.1805 0.62334 0.13051 0.0
C4147 C 0.16004 0.66372 0.12293 0.0
C4148 C 0.16649 0.65829 0.11862 0.0
H4149 H 0.19075 0.63353 0.1053 0.0
H4150 H 0.18174 0.64703 0.10702 0.0
H4151 H 0.18171 0.64236 0.14132 0.0
H4152 H 0.16048 0.62855 0.12718 0.0
H4153 H 0.15554 0.6333 0.13676 0.0
H4154 H 0.16434 0.625 0.13803 0.0
H4155 H 0.17622 0.63251 0.14571 0.0
H4156 H 0.17183 0.64369 0.14769 0.0
C4157 C 0.17918 0.66524 0.10941 0.0
C4158 C 0.16623 0.65626 0.10166 0.0
C4159 C 0.14129 0.65905 0.15111 0.0
C4160 C 0.14084 0.65199 0.1574 0.0
C4161 C 0.14721 0.64495 0.1569 0.0
C4162 C 0.15367 0.64474 0.15005 0.0
C4163 C 0.15375 0.65161 0.14355 0.0
C4164 C 0.14775 0.6587 0.14426 0.0
C4165 C 0.14877 0.66534 0.1367 0.0
C4166 C 0.15623 0.66096 0.13124 0.0
C4167 C 0.15909 0.6529 0.13526 0.0
C4168 C 0.15178 0.67452 0.14073 0.0
C4169 C 0.13971 0.66565 0.13149 0.0
C4170 C 0.18096 0.62854 0.12543 0.0
C4171 C 0.18638 0.62735 0.11777 0.0
C4172 C 0.18657 0.63423 0.11123 0.0
C4173 C 0.18135 0.64207 0.11225 0.0
C4174 C 0.17583 0.64305 0.11986 0.0
C4175 C 0.17579 0.63637 0.12633 0.0
C4176 C 0.16942 0.63841 0.13391 0.0
C4177 C 0.16566 0.64744 0.13096 0.0
C4178 C 0.16938 0.65012 0.12271 0.0
C4179 C 0.17501 0.63923 0.14266 0.0
C4180 C 0.16207 0.63094 0.13408 0.0
H4181 H 0.14856 0.68022 0.1241 0.0
H4182 H 0.16693 0.67623 0.0965 0.0
H4183 H 0.15877 0.65635 0.10083 0.0
H4184 H 0.16799 0.6491 0.10264 0.0
H4185 H 0.16928 0.65864 0.09527 0.0
H4186 H 0.18022 0.67158 0.11329 0.0
H4187 H 0.18149 0.66647 0.10243 0.0
H4188 H 0.18369 0.66026 0.11261 0.0
H4189 H 0.13645 0.66452 0.15125 0.0
H4190 H 0.1471 0.63951 0.16176 0.0
H4191 H 0.15823 0.63911 0.14996 0.0
H4192 H 0.1558 0.67356 0.14696 0.0
H4193 H 0.14587 0.67878 0.14247 0.0
H4194 H 0.1563 0.67833 0.1362 0.0
H4195 H 0.13672 0.65878 0.13093 0.0
H4196 H 0.14044 0.66798 0.1245 0.0
H4197 H 0.13472 0.67002 0.13496 0.0
H4198 H 0.14752 0.69119 0.11229 0.0
C4199 C 0.15265 0.67913 0.11826 0.0
C4200 C 0.17381 0.40635 0.84471 0.0
C4201 C 0.18178 0.40558 0.8498 0.0
C4202 C 0.18329 0.39764 0.85479 0.0
C4203 C 0.16899 0.39151 0.84977 0.0
C4204 C 0.16756 0.39921 0.84474 0.0
C4205 C 0.15883 0.39878 0.83957 0.0
H4206 H 0.12017 0.37615 0.83002 0.0
C4207 C 0.16119 0.38544 0.84848 0.0
C4208 C 0.15523 0.38961 0.84244 0.0
H4209 H 0.12874 0.40198 0.81957 0.0
H4210 H 0.14272 0.40087 0.82792 0.0
H4211 H 0.13919 0.36632 0.82795 0.0
H4212 H 0.12626 0.37977 0.85004 0.0
H4213 H 0.13155 0.37018 0.85448 0.0
H4214 H 0.1228 0.36884 0.84616 0.0
H4215 H 0.13002 0.36134 0.83406 0.0
H4216 H 0.14159 0.35994 0.83758 0.0
C4217 C 0.16107 0.39905 0.82942 0.0
C4218 C 0.1527 0.40658 0.84283 0.0
C4219 C 0.15912 0.35627 0.86636 0.0
C4220 C 0.15254 0.34943 0.86683 0.0
C4221 C 0.14491 0.34997 0.8612 0.0
C4222 C 0.14377 0.35725 0.85532 0.0
C4223 C 0.1503 0.36412 0.85506 0.0
C4224 C 0.15787 0.36352 0.86045 0.0
C4225 C 0.16412 0.37143 0.85922 0.0
C4226 C 0.15898 0.37694 0.85231 0.0
C4227 C 0.15089 0.37264 0.84994 0.0
C4228 C 0.17322 0.36788 0.85547 0.0
C4229 C 0.16488 0.37641 0.86834 0.0
C4230 C 0.12502 0.38161 0.82956 0.0
C4231 C 0.1233 0.3892 0.82419 0.0
C4232 C 0.12991 0.39604 0.82364 0.0
C4233 C 0.138 0.3954 0.82853 0.0
C4234 C 0.13951 0.38783 0.83402 0.0
C4235 C 0.1331 0.38106 0.83438 0.0
C4236 C 0.13578 0.37349 0.8405 0.0
C4237 C 0.14488 0.3768 0.84379 0.0
C4238 C 0.14704 0.38522 0.84002 0.0
C4239 C 0.13665 0.36477 0.8348 0.0
C4240 C 0.12875 0.37294 0.84819 0.0
H4241 H 0.1785 0.38481 0.85879 0.0
H4242 H 0.17252 0.41231 0.84073 0.0
H4243 H 0.15317 0.40736 0.85024 0.0
H4244 H 0.14548 0.4054 0.84143 0.0
H4245 H 0.15476 0.41308 0.83973 0.0
H4246 H 0.16751 0.39546 0.82799 0.0
H4247 H 0.16182 0.40611 0.82702 0.0
H4248 H 0.15597 0.39556 0.82527 0.0
H4249 H 0.16512 0.356 0.8705 0.0
H4250 H 0.13968 0.34486 0.86149 0.0
H4251 H 0.13776 0.35729 0.8513 0.0
H4252 H 0.17221 0.36172 0.85132 0.0
H4253 H 0.17795 0.36612 0.86098 0.0
H4254 H 0.17653 0.37274 0.8509 0.0
H4255 H 0.1582 0.37668 0.87175 0.0
H4256 H 0.16699 0.38352 0.86768 0.0
H4257 H 0.16965 0.3729 0.8729 0.0
H4258 H 0.18933 0.39693 0.85882 0.0
C4259 C 0.17696 0.39063 0.8548 0.0
C4260 C 0.32312 0.37405 0.61871 0.0
C4261 C 0.32183 0.38071 0.62533 0.0
C4262 C 0.3266 0.38001 0.63349 0.0
C4263 C 0.33415 0.36654 0.62817 0.0
C4264 C 0.32926 0.36703 0.62028 0.0
C4265 C 0.33158 0.35947 0.61393 0.0
H4266 H 0.35858 0.32407 0.60359 0.0
C4267 C 0.34031 0.35875 0.62753 0.0
C4268 C 0.33879 0.3545 0.61924 0.0
H4269 H 0.33671 0.33508 0.58785 0.0
H4270 H 0.33332 0.34571 0.5997 0.0
H4271 H 0.36637 0.34306 0.61052 0.0
H4272 H 0.34791 0.32393 0.62218 0.0
H4273 H 0.35459 0.3281 0.63099 0.0
H4274 H 0.35986 0.32199 0.6219 0.0
H4275 H 0.36985 0.33219 0.61456 0.0
H4276 H 0.36928 0.34185 0.62188 0.0
C4277 C 0.33542 0.36369 0.60522 0.0
C4278 C 0.32303 0.35361 0.61251 0.0
C4279 C 0.36392 0.35388 0.65178 0.0
C4280 C 0.37107 0.34772 0.6527 0.0
C4281 C 0.37192 0.34068 0.64638 0.0
C4282 C 0.366 0.34002 0.63908 0.0
C4283 C 0.35915 0.3465 0.63802 0.0
C4284 C 0.35808 0.35316 0.64442 0.0
C4285 C 0.35044 0.35945 0.64222 0.0
C4286 C 0.34721 0.35557 0.63334 0.0
C4287 C 0.35238 0.34803 0.63089 0.0
C4288 C 0.35443 0.36907 0.64112 0.0
C4289 C 0.34318 0.35858 0.64966 0.0
C4290 C 0.35309 0.32881 0.60268 0.0
C4291 C 0.34797 0.32881 0.59475 0.0
C4292 C 0.34074 0.33494 0.59391 0.0
C4293 C 0.33882 0.34114 0.60078 0.0
C4294 C 0.34416 0.3412 0.60858 0.0
C4295 C 0.35106 0.335 0.60949 0.0
C4296 C 0.35592 0.3359 0.6183 0.0
C4297 C 0.35085 0.34371 0.62252 0.0
C4298 C 0.34403 0.34687 0.61676 0.0
C4299 C 0.3659 0.33832 0.61629 0.0
C4300 C 0.3546 0.32703 0.62365 0.0
H4301 H 0.33621 0.37291 0.64125 0.0
H4302 H 0.31946 0.37432 0.61242 0.0
H4303 H 0.31874 0.35353 0.61865 0.0
H4304 H 0.32463 0.34644 0.61124 0.0
H4305 H 0.31884 0.35624 0.60691 0.0
H4306 H 0.34008 0.36936 0.60683 0.0
H4307 H 0.32991 0.3664 0.60094 0.0
H4308 H 0.33946 0.35892 0.60121 0.0
H4309 H 0.36298 0.35928 0.65659 0.0
H4310 H 0.3774 0.33587 0.64689 0.0
H4311 H 0.36713 0.33463 0.6344 0.0
H4312 H 0.36108 0.36882 0.63766 0.0
H4313 H 0.35548 0.37234 0.64775 0.0
H4314 H 0.35024 0.37353 0.63693 0.0
H4315 H 0.34308 0.35166 0.65255 0.0
H4316 H 0.33625 0.35963 0.64711 0.0
H4317 H 0.34449 0.36338 0.65525 0.0
H4318 H 0.32582 0.38508 0.63867 0.0
C4319 C 0.33271 0.37297 0.63495 0.0
C4320 C 0.17499 0.60189 0.66022 0.0
C4321 C 0.18234 0.60239 0.65425 0.0
C4322 C 0.184 0.61052 0.64965 0.0
C4323 C 0.17073 0.61723 0.65633 0.0
C4324 C 0.16924 0.60938 0.66111 0.0
C4325 C 0.16077 0.60992 0.6667 0.0
H4326 H 0.12219 0.63242 0.67666 0.0
C4327 C 0.16326 0.62353 0.65824 0.0
C4328 C 0.15739 0.61932 0.66435 0.0
H4329 H 0.1307 0.60646 0.68674 0.0
H4330 H 0.14502 0.60804 0.67902 0.0
H4331 H 0.14143 0.6424 0.67968 0.0
H4332 H 0.12886 0.62963 0.65694 0.0
H4333 H 0.13402 0.63953 0.65302 0.0
H4334 H 0.12519 0.64031 0.6613 0.0
H4335 H 0.13247 0.64766 0.6735 0.0
H4336 H 0.14414 0.64899 0.67026 0.0
C4337 C 0.16344 0.60917 0.67671 0.0
C4338 C 0.15421 0.60245 0.66344 0.0
C4339 C 0.16135 0.65301 0.64097 0.0
C4340 C 0.15482 0.65989 0.64061 0.0
C4341 C 0.14739 0.65948 0.64652 0.0
C4342 C 0.14634 0.65223 0.65246 0.0
C4343 C 0.15274 0.64524 0.65248 0.0
C4344 C 0.16016 0.64578 0.6469 0.0
C4345 C 0.16621 0.63769 0.64773 0.0
C4346 C 0.16116 0.63216 0.65469 0.0
C4347 C 0.15326 0.63659 0.65741 0.0
C4348 C 0.17551 0.64093 0.65127 0.0
C4349 C 0.16651 0.63291 0.63846 0.0
C4350 C 0.12715 0.62708 0.67721 0.0
C4351 C 0.12529 0.61925 0.68219 0.0
C4352 C 0.13199 0.61255 0.68292 0.0
C4353 C 0.14026 0.61344 0.67838 0.0
C4354 C 0.14183 0.62113 0.67306 0.0
C4355 C 0.13541 0.62788 0.67274 0.0
C4356 C 0.13819 0.63562 0.66687 0.0
C4357 C 0.14729 0.63237 0.66355 0.0
C4358 C 0.14938 0.62383 0.66712 0.0
C4359 C 0.13906 0.64416 0.67281 0.0
C4360 C 0.13122 0.63642 0.65914 0.0
H4361 H 0.17988 0.62388 0.6469 0.0
H4362 H 0.17356 0.59571 0.66384 0.0
H4363 H 0.15427 0.60199 0.65599 0.0
H4364 H 0.14712 0.60375 0.66525 0.0
H4365 H 0.1562 0.59576 0.66614 0.0
H4366 H 0.17001 0.61258 0.67799 0.0
H4367 H 0.16415 0.602 0.67877 0.0
H4368 H 0.15859 0.61256 0.68122 0.0
H4369 H 0.16721 0.65316 0.63662 0.0
H4370 H 0.1422 0.66463 0.64635 0.0
H4371 H 0.14045 0.65225 0.65666 0.0
H4372 H 0.17473 0.64671 0.65598 0.0
H4373 H 0.17993 0.6432 0.64568 0.0
H4374 H 0.17907 0.63571 0.65521 0.0
H4375 H 0.15993 0.63355 0.63491 0.0
H4376 H 0.16764 0.62557 0.63894 0.0
H4377 H 0.17178 0.63591 0.63408 0.0
H4378 H 0.18971 0.61111 0.64514 0.0
C4379 C 0.17828 0.61794 0.65069 0.0
C4380 C 0.37674 0.38946 0.18161 0.0
C4381 C 0.38324 0.38264 0.18283 0.0
C4382 C 0.38233 0.37449 0.17803 0.0
C4383 C 0.36881 0.38006 0.1708 0.0
C4384 C 0.36957 0.388 0.17561 0.0
C4385 C 0.36202 0.39447 0.17353 0.0
H4386 H 0.32439 0.40406 0.14944 0.0
C4387 C 0.36074 0.38072 0.16501 0.0
C4388 C 0.35666 0.38911 0.16664 0.0
H4389 H 0.33781 0.42098 0.169 0.0
H4390 H 0.3487 0.4092 0.1718 0.0
H4391 H 0.34234 0.39748 0.13995 0.0
H4392 H 0.32581 0.3855 0.16049 0.0
H4393 H 0.32909 0.37677 0.15321 0.0
H4394 H 0.32237 0.38598 0.14895 0.0
H4395 H 0.33151 0.39258 0.1376 0.0
H4396 H 0.34168 0.3859 0.13757 0.0
C4397 C 0.36621 0.40312 0.16945 0.0
C4398 C 0.35655 0.39607 0.18224 0.0
C4399 C 0.35387 0.35566 0.14272 0.0
C4400 C 0.34707 0.35448 0.13622 0.0
C4401 C 0.34014 0.36097 0.13561 0.0
C4402 C 0.3401 0.36859 0.14118 0.0
C4403 C 0.34709 0.3698 0.14745 0.0
C4404 C 0.35374 0.36332 0.14823 0.0
C4405 C 0.36059 0.36568 0.15531 0.0
C4406 C 0.35705 0.37474 0.15852 0.0
C4407 C 0.34918 0.37713 0.15386 0.0
C4408 C 0.36992 0.36657 0.15069 0.0
C4409 C 0.36014 0.35841 0.16278 0.0
C4410 C 0.3297 0.40528 0.15429 0.0
C4411 C 0.33023 0.41351 0.15897 0.0
C4412 C 0.33717 0.41469 0.16536 0.0
C4413 C 0.34354 0.40786 0.16693 0.0
C4414 C 0.34301 0.39975 0.16205 0.0
C4415 C 0.33612 0.39856 0.15589 0.0
C4416 C 0.33666 0.3896 0.15119 0.0
C4417 C 0.34499 0.38558 0.15554 0.0
C4418 C 0.3487 0.39154 0.16189 0.0
C4419 C 0.33806 0.3914 0.14104 0.0
C4420 C 0.32803 0.38415 0.15348 0.0
H4421 H 0.37494 0.36684 0.16855 0.0
H4422 H 0.37719 0.39576 0.18527 0.0
H4423 H 0.3561 0.38976 0.18628 0.0
H4424 H 0.34947 0.398 0.18095 0.0
H4425 H 0.35978 0.40131 0.1865 0.0
H4426 H 0.37196 0.40141 0.16496 0.0
H4427 H 0.36879 0.40768 0.17478 0.0
H4428 H 0.36145 0.40689 0.16517 0.0
H4429 H 0.35934 0.35086 0.14334 0.0
H4430 H 0.33472 0.36016 0.13079 0.0
H4431 H 0.33468 0.3733 0.14032 0.0
H4432 H 0.36926 0.36998 0.14408 0.0
H4433 H 0.37298 0.35984 0.14951 0.0
H4434 H 0.37475 0.37075 0.15451 0.0
H4435 H 0.35325 0.35545 0.16331 0.0
H4436 H 0.36151 0.36119 0.16953 0.0
H4437 H 0.36491 0.35279 0.16141 0.0
H4438 H 0.38729 0.36917 0.17876 0.0
C4439 C 0.37517 0.37316 0.17205 0.0
C4440 C 0.6573 0.4229 0.09812 0.0
C4441 C 0.65675 0.43059 0.10363 0.0
C4442 C 0.64879 0.43214 0.10857 0.0
C4443 C 0.64221 0.41838 0.1027 0.0
C4444 C 0.64994 0.41694 0.09772 0.0
C4445 C 0.64931 0.40849 0.09211 0.0
H4446 H 0.62559 0.37126 0.08002 0.0
C4447 C 0.6359 0.41086 0.10094 0.0
C4448 C 0.63998 0.40507 0.09468 0.0
H4449 H 0.65186 0.37968 0.0705 0.0
H4450 H 0.65113 0.39298 0.07985 0.0
H4451 H 0.629 0.37592 0.10031 0.0
H4452 H 0.61635 0.39107 0.07916 0.0
H4453 H 0.60977 0.39253 0.08886 0.0
H4454 H 0.61117 0.38137 0.08421 0.0
H4455 H 0.61789 0.3733 0.09627 0.0
H4456 H 0.6197 0.38143 0.1051 0.0
C4457 C 0.65686 0.40196 0.09517 0.0
C4458 C 0.64981 0.41123 0.08209 0.0
C4459 C 0.6064 0.40896 0.11826 0.0
C4460 C 0.59937 0.40256 0.11844 0.0
C4461 C 0.59976 0.39514 0.11251 0.0
C4462 C 0.60708 0.39403 0.10665 0.0
C4463 C 0.61413 0.40038 0.1067 0.0
C4464 C 0.61367 0.40773 0.11239 0.0
C4465 C 0.62181 0.41376 0.11157 0.0
C4466 C 0.62727 0.40875 0.10453 0.0
C4467 C 0.62275 0.40092 0.10172 0.0
C4468 C 0.62665 0.41396 0.12079 0.0
C4469 C 0.61862 0.42311 0.10816 0.0
C4470 C 0.63114 0.37602 0.07984 0.0
C4471 C 0.63879 0.37441 0.07449 0.0
C4472 C 0.64593 0.38071 0.07462 0.0
C4473 C 0.64548 0.38846 0.08003 0.0
C4474 C 0.63781 0.38993 0.0854 0.0
C4475 C 0.6308 0.38377 0.08521 0.0
C4476 C 0.62322 0.38634 0.09141 0.0
C4477 C 0.6268 0.3951 0.09531 0.0
C4478 C 0.63536 0.39717 0.09179 0.0
C4479 C 0.6223 0.37888 0.09864 0.0
C4480 C 0.61463 0.38786 0.08569 0.0
H4481 H 0.63571 0.42764 0.11212 0.0
H4482 H 0.66329 0.42158 0.09416 0.0
H4483 H 0.64646 0.41785 0.08095 0.0
H4484 H 0.64621 0.40648 0.07764 0.0
H4485 H 0.65692 0.41186 0.07983 0.0
H4486 H 0.65767 0.40218 0.10259 0.0
H4487 H 0.66344 0.40383 0.09212 0.0
H4488 H 0.65538 0.39484 0.09359 0.0
H4489 H 0.60626 0.41481 0.12262 0.0
H4490 H 0.59451 0.39005 0.11257 0.0
H4491 H 0.60701 0.38819 0.10239 0.0
H4492 H 0.62649 0.40718 0.12399 0.0
H4493 H 0.62331 0.41877 0.12545 0.0
H4494 H 0.63387 0.4157 0.12032 0.0
H4495 H 0.6126 0.42246 0.10373 0.0
H4496 H 0.62373 0.42653 0.10395 0.0
H4497 H 0.61674 0.4276 0.11383 0.0
H4498 H 0.64823 0.43797 0.11293 0.0
C4499 C 0.64153 0.4261 0.10814 0.0
C4500 C 0.86915 0.62867 0.5785 0.0
C4501 C 0.87578 0.63549 0.57821 0.0
C4502 C 0.88396 0.63418 0.58286 0.0
C4503 C 0.87864 0.61981 0.58845 0.0
C4504 C 0.87072 0.62091 0.58367 0.0
C4505 C 0.86432 0.6131 0.58502 0.0
H4506 H 0.85451 0.57422 0.60699 0.0
C4507 C 0.87806 0.61124 0.59346 0.0
C4508 C 0.86972 0.6072 0.59143 0.0
H4509 H 0.83776 0.58841 0.58792 0.0
H4510 H 0.84972 0.5993 0.58545 0.0
H4511 H 0.87272 0.57551 0.59587 0.0
H4512 H 0.86168 0.59178 0.6171 0.0
H4513 H 0.87316 0.59007 0.6195 0.0
H4514 H 0.86572 0.58049 0.61877 0.0
H4515 H 0.87313 0.572 0.60738 0.0
H4516 H 0.88191 0.5789 0.60251 0.0
C4517 C 0.86281 0.60843 0.57585 0.0
C4518 C 0.8556 0.61678 0.58943 0.0
C4519 C 0.90266 0.60324 0.61586 0.0
C4520 C 0.90378 0.59597 0.62184 0.0
C4521 C 0.8976 0.58873 0.62148 0.0
C4522 C 0.89022 0.58891 0.6156 0.0
C4523 C 0.88895 0.59642 0.61001 0.0
C4524 C 0.89525 0.6033 0.61001 0.0
C4525 C 0.89289 0.61065 0.60346 0.0
C4526 C 0.88401 0.60715 0.59971 0.0
C4527 C 0.8817 0.59888 0.60365 0.0
C4528 C 0.90038 0.61103 0.5962 0.0
C4529 C 0.89163 0.61953 0.60883 0.0
C4530 C 0.85339 0.5797 0.60231 0.0
C4531 C 0.84514 0.58053 0.59774 0.0
C4532 C 0.84406 0.58762 0.59153 0.0
C4533 C 0.85099 0.59397 0.59016 0.0
C4534 C 0.85908 0.59321 0.59505 0.0
C4535 C 0.8602 0.58607 0.60089 0.0
C4536 C 0.86919 0.58626 0.60555 0.0
C4537 C 0.87328 0.59477 0.60163 0.0
C4538 C 0.86733 0.59887 0.59552 0.0
C4539 C 0.87454 0.57772 0.60278 0.0
C4540 C 0.86743 0.58714 0.61577 0.0
H4541 H 0.89176 0.62588 0.59138 0.0
H4542 H 0.86279 0.62948 0.575 0.0
H4543 H 0.85725 0.62199 0.59456 0.0
H4544 H 0.85175 0.61157 0.59307 0.0
H4545 H 0.85112 0.61994 0.58435 0.0
H4546 H 0.86914 0.6084 0.57183 0.0
H4547 H 0.85757 0.61199 0.57187 0.0
H4548 H 0.86091 0.60125 0.57651 0.0
H4549 H 0.90724 0.60893 0.61594 0.0
H4550 H 0.8984 0.58294 0.62585 0.0
H4551 H 0.88569 0.58326 0.61578 0.0
H4552 H 0.90368 0.60435 0.5953 0.0
H4553 H 0.90574 0.61595 0.59803 0.0
H4554 H 0.89771 0.61272 0.58947 0.0
H4555 H 0.88801 0.61822 0.61524 0.0
H4556 H 0.88748 0.62457 0.6053 0.0
H4557 H 0.89825 0.62263 0.61051 0.0
H4558 H 0.88926 0.63922 0.58259 0.0
C4559 C 0.88543 0.6264 0.58794 0.0
C4560 C 0.59446 0.38987 0.6073 0.0
C4561 C 0.60062 0.38949 0.60011 0.0
C4562 C 0.60799 0.39553 0.60003 0.0
C4563 C 0.60322 0.40183 0.61427 0.0
C4564 C 0.59591 0.39604 0.61428 0.0
C4565 C 0.59021 0.39709 0.62258 0.0
H4566 H 0.5843 0.41561 0.66371 0.0
C4567 C 0.60301 0.4071 0.6227 0.0
C4568 C 0.5954 0.40436 0.6276 0.0
H4569 H 0.56728 0.39626 0.65002 0.0
H4570 H 0.57691 0.39692 0.63701 0.0
H4571 H 0.60337 0.40715 0.65743 0.0
H4572 H 0.58712 0.42855 0.6464 0.0
H4573 H 0.59847 0.43193 0.64568 0.0
H4574 H 0.59348 0.42995 0.65656 0.0
H4575 H 0.60198 0.41784 0.66295 0.0
H4576 H 0.61057 0.41615 0.65456 0.0
C4577 C 0.59027 0.38797 0.62767 0.0
C4578 C 0.5807 0.40035 0.61969 0.0
C4579 C 0.6282 0.42935 0.62935 0.0
C4580 C 0.63018 0.43494 0.63672 0.0
C4581 C 0.62422 0.43499 0.64411 0.0
C4582 C 0.61646 0.42954 0.64415 0.0
C4583 C 0.61463 0.42394 0.63674 0.0
C4584 C 0.62046 0.42395 0.6295 0.0
C4585 C 0.61756 0.41749 0.62227 0.0
C4586 C 0.60898 0.41367 0.6263 0.0
C4587 C 0.60729 0.41743 0.63479 0.0
C4588 C 0.62501 0.41021 0.62123 0.0
C4589 C 0.61564 0.42301 0.61364 0.0
C4590 C 0.58269 0.41149 0.65791 0.0
C4591 C 0.57503 0.40585 0.65791 0.0
C4592 C 0.57308 0.40072 0.65017 0.0
C4593 C 0.57872 0.40106 0.64264 0.0
C4594 C 0.58644 0.40658 0.64281 0.0
C4595 C 0.58824 0.41179 0.6503 0.0
C4596 C 0.59662 0.41744 0.64914 0.0
C4597 C 0.59961 0.41463 0.63979 0.0
C4598 C 0.59365 0.40821 0.63616 0.0
C4599 C 0.60352 0.41459 0.65641 0.0
C4600 C 0.59386 0.42751 0.64952 0.0
H4601 H 0.6151 0.40602 0.60661 0.0
H4602 H 0.58867 0.38541 0.60754 0.0
H4603 H 0.58109 0.40466 0.61359 0.0
H4604 H 0.57745 0.40467 0.6248 0.0
H4605 H 0.5762 0.39457 0.61812 0.0
H4606 H 0.59708 0.38481 0.62737 0.0
H4607 H 0.58539 0.38314 0.62465 0.0
H4608 H 0.58879 0.38865 0.63489 0.0
H4609 H 0.63271 0.42901 0.62363 0.0
H4610 H 0.62555 0.43929 0.64984 0.0
H4611 H 0.6122 0.42988 0.64997 0.0
H4612 H 0.62836 0.40882 0.62777 0.0
H4613 H 0.63032 0.41242 0.61645 0.0
H4614 H 0.62234 0.4036 0.61907 0.0
H4615 H 0.6125 0.42962 0.61532 0.0
H4616 H 0.61076 0.41968 0.60912 0.0
H4617 H 0.62197 0.4244 0.60989 0.0
H4618 H 0.61291 0.39533 0.59466 0.0
C4619 C 0.6093 0.4017 0.60704 0.0
C4620 C 0.32432 0.63069 0.8869 0.0
C4621 C 0.323 0.62394 0.88037 0.0
C4622 C 0.32773 0.62456 0.87217 0.0
C4623 C 0.33514 0.63823 0.87721 0.0
C4624 C 0.33038 0.63776 0.88517 0.0
C4625 C 0.33269 0.64543 0.8914 0.0
H4626 H 0.35819 0.68242 0.90019 0.0
C4627 C 0.3411 0.64622 0.87761 0.0
C4628 C 0.33965 0.65053 0.88588 0.0
H4629 H 0.33826 0.66983 0.91735 0.0
H4630 H 0.33484 0.65901 0.90572 0.0
H4631 H 0.36695 0.66404 0.89351 0.0
H4632 H 0.3467 0.68126 0.88189 0.0
H4633 H 0.35363 0.67755 0.87307 0.0
H4634 H 0.35844 0.68425 0.882 0.0
H4635 H 0.36956 0.67488 0.8888 0.0
H4636 H 0.36926 0.66483 0.88199 0.0
C4637 C 0.33683 0.64139 0.90006 0.0
C4638 C 0.32404 0.65109 0.89296 0.0
C4639 C 0.36357 0.65188 0.85248 0.0
C4640 C 0.37025 0.65849 0.85112 0.0
C4641 C 0.37098 0.66567 0.85729 0.0
C4642 C 0.36536 0.66608 0.86486 0.0
C4643 C 0.35895 0.65923 0.8663 0.0
C4644 C 0.35802 0.65239 0.86006 0.0
C4645 C 0.35077 0.64576 0.86262 0.0
C4646 C 0.34766 0.64963 0.87154 0.0
C4647 C 0.35252 0.65748 0.87369 0.0
C4648 C 0.35523 0.63637 0.86374 0.0
C4649 C 0.34323 0.64614 0.85541 0.0
C4650 C 0.35312 0.67731 0.90148 0.0
C4651 C 0.34854 0.67698 0.90975 0.0
C4652 C 0.34185 0.67031 0.91103 0.0
C4653 C 0.33992 0.66397 0.90429 0.0
C4654 C 0.34474 0.66426 0.89617 0.0
C4655 C 0.35115 0.67091 0.89485 0.0
C4656 C 0.35572 0.67012 0.88588 0.0
C4657 C 0.35103 0.66188 0.88203 0.0
C4658 C 0.34462 0.65845 0.88808 0.0
C4659 C 0.36592 0.66844 0.88754 0.0
C4660 C 0.35361 0.67874 0.88039 0.0
H4661 H 0.3372 0.63167 0.86423 0.0
H4662 H 0.32072 0.63048 0.89322 0.0
H4663 H 0.31991 0.65144 0.88674 0.0
H4664 H 0.3255 0.65819 0.89469 0.0
H4665 H 0.31977 0.64807 0.8983 0.0
H4666 H 0.34115 0.63547 0.89845 0.0
H4667 H 0.33148 0.63908 0.90474 0.0
H4668 H 0.34134 0.64612 0.90361 0.0
H4669 H 0.36273 0.64637 0.84778 0.0
H4670 H 0.3761 0.67083 0.85643 0.0
H4671 H 0.36636 0.67163 0.86938 0.0
H4672 H 0.36194 0.63701 0.86706 0.0
H4673 H 0.35629 0.63308 0.85713 0.0
H4674 H 0.35134 0.63176 0.86808 0.0
H4675 H 0.34277 0.65297 0.85234 0.0
H4676 H 0.33644 0.64489 0.85822 0.0
H4677 H 0.34453 0.64125 0.8499 0.0
H4678 H 0.32694 0.61941 0.86707 0.0
C4679 C 0.33375 0.63166 0.87056 0.0
C4680 C 0.16126 0.32931 0.40693 0.0
C4681 C 0.15538 0.32186 0.4063 0.0
C4682 C 0.15038 0.32059 0.39835 0.0
C4683 C 0.15676 0.33425 0.39205 0.0
C4684 C 0.16188 0.33536 0.39973 0.0
C4685 C 0.16772 0.34367 0.39929 0.0
H4686 H 0.17924 0.38212 0.37757 0.0
C4687 C 0.15866 0.3419 0.38599 0.0
C4688 C 0.16517 0.3474 0.39014 0.0
H4689 H 0.1895 0.37235 0.40294 0.0
H4690 H 0.18056 0.35879 0.40141 0.0
H4691 H 0.1807 0.36307 0.36712 0.0
H4692 H 0.15909 0.37664 0.38087 0.0
H4693 H 0.15448 0.37197 0.37107 0.0
H4694 H 0.16331 0.38029 0.37018 0.0
H4695 H 0.17486 0.3725 0.36231 0.0
H4696 H 0.17087 0.36107 0.36083 0.0
C4697 C 0.17774 0.34069 0.39964 0.0
C4698 C 0.16486 0.35007 0.40701 0.0
C4699 C 0.13991 0.34602 0.35769 0.0
C4700 C 0.13961 0.35288 0.35118 0.0
C4701 C 0.14618 0.35978 0.35143 0.0
C4702 C 0.15265 0.36008 0.35828 0.0
C4703 C 0.15255 0.35345 0.36501 0.0
C4704 C 0.1464 0.34645 0.36453 0.0
C4705 C 0.14732 0.34001 0.37228 0.0
C4706 C 0.15489 0.34444 0.3776 0.0
C4707 C 0.15786 0.35234 0.37333 0.0
C4708 C 0.15015 0.33067 0.36853 0.0
C4709 C 0.13828 0.33999 0.37752 0.0
C4710 C 0.17971 0.377 0.38273 0.0
C4711 C 0.18509 0.37835 0.3904 0.0
C4712 C 0.18533 0.37155 0.39702 0.0
C4713 C 0.18015 0.36366 0.39611 0.0
C4714 C 0.17462 0.36255 0.38852 0.0
C4715 C 0.17458 0.36911 0.38193 0.0
C4716 C 0.16825 0.36688 0.37437 0.0
C4717 C 0.16447 0.35789 0.37749 0.0
C4718 C 0.16816 0.35541 0.38581 0.0
C4719 C 0.17389 0.36588 0.36566 0.0
C4720 C 0.1609 0.37432 0.374 0.0
H4721 H 0.14698 0.32542 0.38542 0.0
H4722 H 0.16529 0.3304 0.4129 0.0
H4723 H 0.15739 0.35008 0.4078 0.0
H4724 H 0.16671 0.35717 0.4058 0.0
H4725 H 0.16785 0.34789 0.41349 0.0
H4726 H 0.17869 0.3341 0.39617 0.0
H4727 H 0.18007 0.33987 0.40667 0.0
H4728 H 0.18229 0.3454 0.39611 0.0
H4729 H 0.13494 0.34065 0.35772 0.0
H4730 H 0.14621 0.36505 0.3464 0.0
H4731 H 0.15734 0.3656 0.35817 0.0
H4732 H 0.15421 0.33139 0.36229 0.0
H4733 H 0.14416 0.32648 0.36688 0.0
H4734 H 0.15457 0.32691 0.37318 0.0
H4735 H 0.1355 0.34694 0.37802 0.0
H4736 H 0.13897 0.33769 0.38452 0.0
H4737 H 0.13316 0.33572 0.3741 0.0
H4738 H 0.14575 0.31496 0.39771 0.0
C4739 C 0.15106 0.32671 0.39123 0.0
C4740 C 0.37523 0.61557 0.32421 0.0
C4741 C 0.38199 0.62215 0.32303 0.0
C4742 C 0.38139 0.63031 0.32788 0.0
C4743 C 0.36781 0.62506 0.33528 0.0
C4744 C 0.36821 0.61717 0.33033 0.0
C4745 C 0.36054 0.61086 0.33253 0.0
H4746 H 0.32471 0.60076 0.35902 0.0
C4747 C 0.35999 0.62444 0.3414 0.0
C4748 C 0.35565 0.61616 0.33979 0.0
H4749 H 0.33543 0.58511 0.33698 0.0
H4750 H 0.34649 0.59676 0.334 0.0
H4751 H 0.34355 0.60681 0.3671 0.0
H4752 H 0.32537 0.61984 0.34871 0.0
H4753 H 0.3294 0.62819 0.35606 0.0
H4754 H 0.323 0.61883 0.36048 0.0
H4755 H 0.3331 0.61177 0.37068 0.0
H4756 H 0.34337 0.61828 0.36999 0.0
C4757 C 0.36461 0.60198 0.3362 0.0
C4758 C 0.35466 0.60967 0.32401 0.0
C4759 C 0.35503 0.64892 0.3648 0.0
C4760 C 0.34897 0.64977 0.37203 0.0
C4761 C 0.34215 0.6432 0.37309 0.0
C4762 C 0.34153 0.63582 0.36724 0.0
C4763 C 0.34784 0.6349 0.36026 0.0
C4764 C 0.35438 0.64144 0.35907 0.0
C4765 C 0.36068 0.63923 0.35147 0.0
C4766 C 0.35685 0.63025 0.34831 0.0
C4767 C 0.34935 0.62776 0.35349 0.0
C4768 C 0.37033 0.63824 0.35539 0.0
C4769 C 0.35971 0.64665 0.34421 0.0
C4770 C 0.32948 0.59982 0.35358 0.0
C4771 C 0.32926 0.59198 0.34828 0.0
C4772 C 0.33545 0.5911 0.34114 0.0
C4773 C 0.34189 0.59786 0.33945 0.0
C4774 C 0.34213 0.60559 0.34493 0.0
C4775 C 0.33589 0.60652 0.35177 0.0
C4776 C 0.33698 0.61525 0.35679 0.0
C4777 C 0.34492 0.61941 0.35186 0.0
C4778 C 0.34798 0.61369 0.34498 0.0
C4779 C 0.33931 0.61299 0.36668 0.0
C4780 C 0.32824 0.62085 0.35554 0.0
H4781 H 0.37436 0.63809 0.33751 0.0
H4782 H 0.37541 0.60929 0.32049 0.0
H4783 H 0.35473 0.61588 0.31983 0.0
H4784 H 0.34746 0.60852 0.32559 0.0
H4785 H 0.35718 0.60403 0.31978 0.0
H4786 H 0.37026 0.60344 0.34091 0.0
H4787 H 0.36731 0.59775 0.33066 0.0
H4788 H 0.35974 0.59793 0.34009 0.0
H4789 H 0.36028 0.65388 0.36368 0.0
H4790 H 0.33745 0.64357 0.37865 0.0
H4791 H 0.33627 0.631 0.36851 0.0
H4792 H 0.37012 0.63515 0.36219 0.0
H4793 H 0.37369 0.64492 0.35602 0.0
H4794 H 0.37468 0.63371 0.35143 0.0
H4795 H 0.35264 0.64915 0.34386 0.0
H4796 H 0.36119 0.64417 0.33738 0.0
H4797 H 0.36413 0.65252 0.34571 0.0
H4798 H 0.38654 0.63546 0.32718 0.0
C4799 C 0.37434 0.6318 0.33395 0.0
C4800 C 0.18641 0.44969 0.10599 0.0
C4801 C 0.18619 0.45806 0.11043 0.0
C4802 C 0.17843 0.445 0.10417 0.0
C4803 C 0.15495 0.44288 0.11202 0.0
H4804 H 0.15205 0.4288 0.09026 0.0
C4805 C 0.12292 0.42165 0.10523 0.0
C4806 C 0.12449 0.41277 0.10226 0.0
C4807 C 0.12993 0.42798 0.10537 0.0
C4808 C 0.15278 0.43268 0.09639 0.0
H4809 H 0.17737 0.46813 0.11631 0.0
H4810 H 0.16342 0.46002 0.11298 0.0
H4811 H 0.16526 0.4385 0.09203 0.0
H4812 H 0.13468 0.40365 0.09704 0.0
H4813 H 0.14683 0.4147 0.09722 0.0
H4814 H 0.14254 0.43696 0.11644 0.0
C4815 C 0.16979 0.45704 0.111 0.0
C4816 C 0.16035 0.43822 0.09741 0.0
C4817 C 0.17778 0.46173 0.11282 0.0
C4818 C 0.13317 0.41046 0.09922 0.0
C4819 C 0.14016 0.4168 0.09933 0.0
C4820 C 0.14737 0.43736 0.11099 0.0
C4821 C 0.17002 0.44857 0.10673 0.0
C4822 C 0.16161 0.44328 0.1053 0.0
C4823 C 0.13865 0.4256 0.10251 0.0
C4824 C 0.14627 0.43208 0.10323 0.0
H4825 H 0.19277 0.44672 0.10394 0.0
H4826 H 0.17888 0.43846 0.10096 0.0
H4827 H 0.15576 0.44659 0.11824 0.0
H4828 H 0.11628 0.42369 0.10748 0.0
H4829 H 0.12853 0.43475 0.10774 0.0
C4830 C 0.82805 0.96194 0.3939 0.0
C4831 C 0.8196 0.95873 0.3968 0.0
C4832 C 0.83598 0.95736 0.39617 0.0
C4833 C 0.84515 0.94019 0.41185 0.0
H4834 H 0.86268 0.93601 0.39298 0.0
C4835 C 0.87082 0.91123 0.41305 0.0
C4836 C 0.87967 0.91279 0.40998 0.0
C4837 C 0.86418 0.91783 0.41214 0.0
C4838 C 0.85793 0.93724 0.39837 0.0
H4839 H 0.8129 0.94836 0.40462 0.0
H4840 H 0.82666 0.94028 0.40841 0.0
H4841 H 0.84977 0.9458 0.39014 0.0
H4842 H 0.88847 0.92264 0.40369 0.0
H4843 H 0.87678 0.93415 0.40197 0.0
H4844 H 0.85318 0.93142 0.41999 0.0
C4845 C 0.8272 0.94638 0.40445 0.0
C4846 C 0.85053 0.94286 0.39674 0.0
C4847 C 0.81928 0.95095 0.40218 0.0
C4848 C 0.88171 0.92117 0.40603 0.0
C4849 C 0.87502 0.92777 0.40506 0.0
C4850 C 0.85253 0.93456 0.41346 0.0
C4851 C 0.83564 0.94948 0.40141 0.0
C4852 C 0.84396 0.94426 0.40341 0.0
C4853 C 0.86618 0.92614 0.40808 0.0
C4854 C 0.8589 0.93288 0.40668 0.0
H4855 H 0.82852 0.96788 0.38969 0.0
H4856 H 0.84238 0.95997 0.39379 0.0
H4857 H 0.84032 0.94128 0.4172 0.0
H4858 H 0.86894 0.9048 0.41594 0.0
H4859 H 0.85739 0.9163 0.41438 0.0
C4860 C 0.32559 0.54486 0.60206 0.0
C4861 C 0.328 0.53656 0.60592 0.0
C4862 C 0.33216 0.55136 0.60014 0.0
C4863 C 0.35524 0.5583 0.60647 0.0
H4864 H 0.35368 0.57295 0.58497 0.0
C4865 C 0.38274 0.5843 0.59737 0.0
C4866 C 0.37967 0.59284 0.59462 0.0
C4867 C 0.37676 0.57704 0.59806 0.0
C4868 C 0.35417 0.56895 0.59103 0.0
H4869 H 0.33925 0.52856 0.61076 0.0
H4870 H 0.35073 0.53981 0.60724 0.0
H4871 H 0.34264 0.56098 0.5875 0.0
H4872 H 0.36789 0.60038 0.59033 0.0
H4873 H 0.35747 0.58769 0.59148 0.0
H4874 H 0.36673 0.5663 0.61003 0.0
C4875 C 0.34374 0.54135 0.60579 0.0
C4876 C 0.34784 0.5621 0.59249 0.0
C4877 C 0.33716 0.53485 0.60772 0.0
C4878 C 0.37052 0.59387 0.59234 0.0
C4879 C 0.36454 0.5866 0.59301 0.0
C4880 C 0.36158 0.56513 0.605 0.0
C4881 C 0.34131 0.5497 0.60202 0.0
C4882 C 0.34825 0.55674 0.60026 0.0
C4883 C 0.36756 0.57813 0.59599 0.0
C4884 C 0.36108 0.57058 0.5973 0.0
H4885 H 0.31861 0.54635 0.60049 0.0
H4886 H 0.33004 0.55775 0.59733 0.0
H4887 H 0.35568 0.5544 0.6126 0.0
H4888 H 0.38978 0.58324 0.59903 0.0
H4889 H 0.37933 0.57056 0.60023 0.0
C4890 C 0.6683 0.03447 0.90088 0.0
C4891 C 0.67731 0.03668 0.9029 0.0
C4892 C 0.66142 0.04081 0.90202 0.0
C4893 C 0.65589 0.06237 0.91338 0.0
H4894 H 0.63785 0.06426 0.89462 0.0
C4895 C 0.63159 0.09274 0.91002 0.0
C4896 C 0.62269 0.091 0.9072 0.0
C4897 C 0.63797 0.0858 0.91027 0.0
C4898 C 0.64275 0.06374 0.89999 0.0
H4899 H 0.6861 0.04724 0.90794 0.0
H4900 H 0.67414 0.05838 0.90975 0.0
H4901 H 0.64953 0.05278 0.89354 0.0
H4902 H 0.61342 0.08054 0.90286 0.0
H4903 H 0.62456 0.06844 0.9033 0.0
H4904 H 0.64915 0.07344 0.91975 0.0
C4905 C 0.67238 0.0517 0.90736 0.0
C4906 C 0.64945 0.05715 0.89937 0.0
C4907 C 0.67925 0.04535 0.90622 0.0
C4908 C 0.62026 0.08212 0.90491 0.0
C4909 C 0.62664 0.07519 0.90516 0.0
C4910 C 0.64918 0.06897 0.91399 0.0
C4911 C 0.66339 0.04953 0.90521 0.0
C4912 C 0.65612 0.0564 0.90604 0.0
C4913 C 0.63561 0.07698 0.9077 0.0
C4914 C 0.64255 0.06976 0.90728 0.0
H4915 H 0.66656 0.02788 0.89823 0.0
H4916 H 0.65456 0.03888 0.9004 0.0
H4917 H 0.66085 0.06189 0.9187 0.0
H4918 H 0.63371 0.09952 0.91172 0.0
H4919 H 0.64484 0.08743 0.91216 0.0
C4920 C 0.17691 0.54353 0.3966 0.0
C4921 C 0.18537 0.54734 0.3986 0.0
C4922 C 0.16895 0.54814 0.3987 0.0
C4923 C 0.15987 0.56701 0.41242 0.0
H4924 H 0.14136 0.56785 0.39405 0.0
C4925 C 0.13245 0.59453 0.41104 0.0
C4926 C 0.12374 0.59214 0.40811 0.0
C4927 C 0.13943 0.5882 0.41097 0.0
C4928 C 0.14638 0.56756 0.39932 0.0
H4929 H 0.1921 0.55883 0.40466 0.0
H4930 H 0.17826 0.56696 0.40812 0.0
H4931 H 0.15457 0.55835 0.39187 0.0
H4932 H 0.11545 0.5811 0.40324 0.0
H4933 H 0.12767 0.57006 0.40308 0.0
H4934 H 0.15176 0.57642 0.41976 0.0
C4935 C 0.17775 0.56037 0.40501 0.0
C4936 C 0.15397 0.56211 0.39807 0.0
C4937 C 0.18569 0.55576 0.40292 0.0
C4938 C 0.12211 0.58319 0.4054 0.0
C4939 C 0.12911 0.57687 0.40531 0.0
C4940 C 0.15229 0.57248 0.41366 0.0
C4941 C 0.16928 0.55666 0.40285 0.0
C4942 C 0.16087 0.56187 0.40454 0.0
C4943 C 0.13788 0.57934 0.40796 0.0
C4944 C 0.14552 0.57292 0.40706 0.0
H4945 H 0.17642 0.53708 0.39322 0.0
H4946 H 0.16254 0.54505 0.39702 0.0
H4947 H 0.16499 0.56686 0.41761 0.0
H4948 H 0.13398 0.60139 0.41304 0.0
H4949 H 0.14613 0.59037 0.41293 0.0
C4950 C 0.68666 0.95046 0.60406 0.0
C4951 C 0.68648 0.95886 0.60844 0.0
C4952 C 0.67864 0.94587 0.60213 0.0
C4953 C 0.65505 0.94413 0.60968 0.0
H4954 H 0.65223 0.92984 0.58805 0.0
C4955 C 0.62293 0.92308 0.60306 0.0
C4956 C 0.62446 0.91414 0.60027 0.0
C4957 C 0.62996 0.92939 0.60303 0.0
C4958 C 0.65293 0.93378 0.59414 0.0
H4959 H 0.6777 0.96911 0.61407 0.0
H4960 H 0.6637 0.96118 0.61055 0.0
H4961 H 0.66554 0.9394 0.58987 0.0
H4962 H 0.63457 0.90488 0.59515 0.0
H4963 H 0.64677 0.91588 0.59505 0.0
H4964 H 0.64253 0.9384 0.61402 0.0
C4965 C 0.67005 0.95809 0.6087 0.0
C4966 C 0.66056 0.93925 0.59518 0.0
C4967 C 0.67808 0.96268 0.61064 0.0
C4968 C 0.63311 0.91174 0.5972 0.0
C4969 C 0.64012 0.91805 0.59715 0.0
C4970 C 0.64741 0.93868 0.60863 0.0
C4971 C 0.67024 0.94958 0.60452 0.0
C4972 C 0.66178 0.94437 0.60304 0.0
C4973 C 0.63866 0.92691 0.6002 0.0
C4974 C 0.64634 0.93333 0.60091 0.0
H4975 H 0.69301 0.94738 0.60217 0.0
H4976 H 0.67905 0.93929 0.59899 0.0
H4977 H 0.65582 0.94789 0.61587 0.0
H4978 H 0.61632 0.92518 0.60533 0.0
H4979 H 0.6286 0.9362 0.6053 0.0
C4980 C 0.32615 0.46233 0.9052 0.0
C4981 C 0.32791 0.47103 0.90186 0.0
C4982 C 0.33317 0.45616 0.90642 0.0
C4983 C 0.35625 0.45121 0.89856 0.0
H4984 H 0.35674 0.4349 0.91889 0.0
C4985 C 0.3858 0.42666 0.90418 0.0
C4986 C 0.38348 0.41774 0.90642 0.0
C4987 C 0.37932 0.4335 0.9044 0.0
C4988 C 0.35666 0.43937 0.91315 0.0
H4989 H 0.33846 0.48006 0.89725 0.0
H4990 H 0.35072 0.46937 0.89956 0.0
H4991 H 0.34484 0.44625 0.91782 0.0
H4992 H 0.37254 0.40906 0.91082 0.0
H4993 H 0.36124 0.421 0.91123 0.0
H4994 H 0.36799 0.4443 0.89384 0.0
C4995 C 0.34389 0.46728 0.90113 0.0
C4996 C 0.34984 0.44587 0.91253 0.0
C4997 C 0.33687 0.47345 0.89991 0.0
C4998 C 0.37459 0.41588 0.90916 0.0
C4999 C 0.3681 0.42272 0.90939 0.0
C5000 C 0.36306 0.44474 0.89919 0.0
C5001 C 0.34212 0.45853 0.90432 0.0
C5002 C 0.34953 0.45183 0.90519 0.0
C5003 C 0.37037 0.43159 0.90688 0.0
C5004 C 0.36332 0.43871 0.90646 0.0
H5005 H 0.31933 0.46028 0.90687 0.0
H5006 H 0.33155 0.44945 0.90881 0.0
H5007 H 0.35612 0.45558 0.89274 0.0
H5008 H 0.39263 0.42835 0.90219 0.0
H5009 H 0.38132 0.44029 0.90258 0.0
C5010 C 0.8365 0.03629 0.10525 0.0
C5011 C 0.82738 0.03806 0.10329 0.0
C5012 C 0.84314 0.04278 0.10352 0.0
C5013 C 0.84763 0.06366 0.09057 0.0
H5014 H 0.86612 0.06756 0.10859 0.0
C5015 C 0.87066 0.09519 0.09114 0.0
C5016 C 0.87974 0.09404 0.09365 0.0
C5017 C 0.86457 0.08799 0.09164 0.0
C5018 C 0.86109 0.06648 0.10343 0.0
H5019 H 0.81814 0.04795 0.0978 0.0
H5020 H 0.82968 0.05934 0.09498 0.0
H5021 H 0.85494 0.05571 0.11078 0.0
H5022 H 0.88961 0.0843 0.09828 0.0
H5023 H 0.87899 0.07175 0.09917 0.0
H5024 H 0.85373 0.07453 0.08329 0.0
C5025 C 0.83172 0.0529 0.09776 0.0
C5026 C 0.85467 0.05968 0.10468 0.0
C5027 C 0.82508 0.04642 0.09948 0.0
C5028 C 0.88264 0.08546 0.09644 0.0
C5029 C 0.87655 0.07826 0.09695 0.0
C5030 C 0.85405 0.07048 0.08933 0.0
C5031 C 0.84082 0.05118 0.09981 0.0
C5032 C 0.84783 0.05822 0.0983 0.0
C5033 C 0.86742 0.07948 0.09467 0.0
C5034 C 0.86082 0.07199 0.09577 0.0
H5035 H 0.8385 0.02996 0.10827 0.0
H5036 H 0.8501 0.0412 0.1051 0.0
H5037 H 0.84254 0.06263 0.08546 0.0
H5038 H 0.86817 0.10174 0.08908 0.0
H5039 H 0.85757 0.08918 0.08993 0.0
C5040 C 0.1038 0.17821 0.46059 0.0
C5041 C 0.10575 0.18655 0.45652 0.0
C5042 C 0.10323 0.17032 0.45546 0.0
C5043 C 0.11077 0.16102 0.43367 0.0
H5044 H 0.09356 0.142 0.43889 0.0
C5045 C 0.11283 0.1268 0.41576 0.0
C5046 C 0.10469 0.12286 0.41287 0.0
C5047 C 0.11279 0.13417 0.42159 0.0
C5048 C 0.09837 0.14728 0.4373 0.0
H5049 H 0.1085 0.19309 0.44377 0.0
H5050 H 0.10716 0.17946 0.43483 0.0
H5051 H 0.09338 0.15586 0.44775 0.0
H5052 H 0.09011 0.12342 0.41419 0.0
H5053 H 0.09003 0.1365 0.42411 0.0
H5054 H 0.11558 0.15263 0.42305 0.0
C5055 C 0.10625 0.17897 0.44202 0.0
C5056 C 0.09833 0.15518 0.44245 0.0
C5057 C 0.10688 0.18683 0.44715 0.0
C5058 C 0.0965 0.12636 0.41616 0.0
C5059 C 0.09646 0.1338 0.42195 0.0
C5060 C 0.11078 0.15317 0.42851 0.0
C5061 C 0.10457 0.17059 0.44612 0.0
C5062 C 0.10453 0.16216 0.44068 0.0
C5063 C 0.10461 0.13788 0.42463 0.0
C5064 C 0.10459 0.14618 0.43026 0.0
H5065 H 0.10277 0.17775 0.46777 0.0
H5066 H 0.10198 0.16398 0.45885 0.0
H5067 H 0.11574 0.16618 0.4322 0.0
H5068 H 0.11927 0.12436 0.41331 0.0
H5069 H 0.1192 0.13704 0.42364 0.0
C5070 C 0.04743 0.90646 0.68105 0.0
C5071 C 0.03861 0.90345 0.67919 0.0
C5072 C 0.05379 0.90727 0.67417 0.0
C5073 C 0.05881 0.89881 0.6514 0.0
H5074 H 0.07608 0.9185 0.65102 0.0
C5075 C 0.08415 0.90337 0.62237 0.0
C5076 C 0.09312 0.90531 0.62482 0.0
C5077 C 0.07722 0.90377 0.62872 0.0
C5078 C 0.07134 0.91293 0.65108 0.0
H5079 H 0.02958 0.899 0.66861 0.0
H5080 H 0.04061 0.90062 0.65659 0.0
H5081 H 0.06446 0.91807 0.66263 0.0
H5082 H 0.10179 0.90926 0.63588 0.0
H5083 H 0.0897 0.91001 0.64694 0.0
H5084 H 0.06571 0.89364 0.63989 0.0
C5085 C 0.04264 0.90224 0.66339 0.0
C5086 C 0.06469 0.91267 0.65773 0.0
C5087 C 0.03628 0.90142 0.67027 0.0
C5088 C 0.09495 0.90786 0.63373 0.0
C5089 C 0.08802 0.90828 0.64007 0.0
C5090 C 0.06544 0.89908 0.64474 0.0
C5091 C 0.0515 0.9051 0.66526 0.0
C5092 C 0.05838 0.90558 0.65801 0.0
C5093 C 0.07909 0.90615 0.63766 0.0
C5094 C 0.07181 0.90611 0.64453 0.0
H5095 H 0.04942 0.90818 0.68783 0.0
H5096 H 0.06058 0.90941 0.67586 0.0
H5097 H 0.05415 0.89317 0.6515 0.0
H5098 H 0.08249 0.90154 0.61553 0.0
H5099 H 0.07039 0.90223 0.62662 0.0
C5100 C 0.39186 0.82075 0.94922 0.0
C5101 C 0.39906 0.81692 0.95402 0.0
C5102 C 0.39305 0.82875 0.94445 0.0
C5103 C 0.408 0.84869 0.94205 0.0
H5104 H 0.39594 0.85056 0.91902 0.0
C5105 C 0.41326 0.87817 0.91657 0.0
C5106 C 0.40531 0.88163 0.91273 0.0
C5107 C 0.41296 0.87046 0.92199 0.0
C5108 C 0.3993 0.85016 0.92547 0.0
H5109 H 0.41313 0.81853 0.95768 0.0
H5110 H 0.41528 0.8325 0.94919 0.0
H5111 H 0.39465 0.8367 0.92766 0.0
H5112 H 0.39083 0.87972 0.91158 0.0
H5113 H 0.39031 0.86636 0.92104 0.0
H5114 H 0.41272 0.8622 0.93971 0.0
C5115 C 0.40867 0.82936 0.94923 0.0
C5116 C 0.39854 0.84223 0.93044 0.0
C5117 C 0.40745 0.82136 0.95407 0.0
C5118 C 0.39706 0.87731 0.91453 0.0
C5119 C 0.39677 0.86959 0.91986 0.0
C5120 C 0.40881 0.85663 0.93702 0.0
C5121 C 0.4015 0.83311 0.94429 0.0
C5122 C 0.40276 0.84144 0.93886 0.0
C5123 C 0.40472 0.86601 0.92356 0.0
C5124 C 0.40435 0.85748 0.92874 0.0
H5125 H 0.38527 0.81758 0.94921 0.0
H5126 H 0.38732 0.83156 0.94092 0.0
H5127 H 0.41128 0.84833 0.94853 0.0
H5128 H 0.41971 0.88139 0.91533 0.0
H5129 H 0.41919 0.86782 0.92474 0.0
C5130 C 0.44844 0.10635 0.18829 0.0
C5131 C 0.45642 0.11146 0.18776 0.0
C5132 C 0.44366 0.10405 0.18054 0.0
C5133 C 0.44011 0.11139 0.15722 0.0
H5134 H 0.42789 0.08832 0.15513 0.0
C5135 C 0.41811 0.10215 0.12644 0.0
C5136 C 0.40962 0.09838 0.12847 0.0
C5137 C 0.42472 0.10303 0.13309 0.0
C5138 C 0.43124 0.09481 0.15564 0.0
H5139 H 0.46571 0.11806 0.17862 0.0
H5140 H 0.45744 0.11392 0.16505 0.0
H5141 H 0.43792 0.09112 0.16782 0.0
H5142 H 0.40147 0.09262 0.13914 0.0
H5143 H 0.41299 0.09408 0.15066 0.0
H5144 H 0.43331 0.11512 0.1451 0.0
C5145 C 0.45483 0.11177 0.17149 0.0
C5146 C 0.43697 0.09641 0.16291 0.0
C5147 C 0.45962 0.11406 0.17926 0.0
C5148 C 0.40798 0.09538 0.13727 0.0
C5149 C 0.41459 0.09623 0.1439 0.0
C5150 C 0.43439 0.10977 0.14993 0.0
C5151 C 0.44675 0.1068 0.17205 0.0
C5152 C 0.44134 0.10479 0.16388 0.0
C5153 C 0.423 0.10014 0.14191 0.0
C5154 C 0.42976 0.10152 0.14915 0.0
H5155 H 0.44585 0.10414 0.19473 0.0
H5156 H 0.43742 0.10031 0.18123 0.0
H5157 H 0.44328 0.11795 0.15782 0.0
H5158 H 0.41965 0.10441 0.1197 0.0
H5159 H 0.43117 0.10599 0.13134 0.0
C5160 C 0.09897 0.83394 0.03801 0.0
C5161 C 0.10666 0.82839 0.03791 0.0
C5162 C 0.09807 0.84076 0.04444 0.0
C5163 C 0.10665 0.84781 0.0667 0.0
H5164 H 0.09674 0.8711 0.06017 0.0
C5165 C 0.09941 0.87493 0.09336 0.0
C5166 C 0.10187 0.88386 0.09128 0.0
C5167 C 0.0994 0.86826 0.08673 0.0
C5168 C 0.09957 0.86465 0.06209 0.0
H5169 H 0.11954 0.82581 0.04434 0.0
H5170 H 0.118 0.83772 0.0555 0.0
H5171 H 0.09817 0.85934 0.0488 0.0
H5172 H 0.10594 0.89281 0.0805 0.0
H5173 H 0.10615 0.88112 0.06898 0.0
H5174 H 0.10831 0.85317 0.07991 0.0
C5175 C 0.11257 0.83669 0.05074 0.0
C5176 C 0.10029 0.85787 0.05559 0.0
C5177 C 0.11346 0.82986 0.04434 0.0
C5178 C 0.10412 0.88598 0.08236 0.0
C5179 C 0.10414 0.8793 0.07573 0.0
C5180 C 0.10594 0.85458 0.07318 0.0
C5181 C 0.10485 0.8422 0.0509 0.0
C5182 C 0.10388 0.84938 0.05781 0.0
C5183 C 0.10188 0.87033 0.07786 0.0
C5184 C 0.10241 0.86309 0.07096 0.0
H5185 H 0.09358 0.83291 0.03321 0.0
H5186 H 0.09198 0.84481 0.04444 0.0
H5187 H 0.10934 0.84131 0.06867 0.0
H5188 H 0.09774 0.87301 0.10017 0.0
H5189 H 0.09749 0.86145 0.08859 0.0
C5190 C 0.45955 0.90084 0.32384 0.0
C5191 C 0.46793 0.89694 0.32597 0.0
C5192 C 0.45316 0.90249 0.33054 0.0
C5193 C 0.44663 0.89544 0.3534 0.0
H5194 H 0.4322 0.91725 0.35282 0.0
C5195 C 0.42139 0.90451 0.3816 0.0
C5196 C 0.41289 0.90767 0.37881 0.0
C5197 C 0.42845 0.9036 0.37544 0.0
C5198 C 0.43613 0.9111 0.35303 0.0
H5199 H 0.47614 0.89169 0.33683 0.0
H5200 H 0.46505 0.89473 0.34854 0.0
H5201 H 0.44389 0.91491 0.34153 0.0
H5202 H 0.40516 0.91228 0.36733 0.0
H5203 H 0.41748 0.91074 0.35663 0.0
H5204 H 0.43883 0.8916 0.36487 0.0
C5205 C 0.46339 0.89643 0.34167 0.0
C5206 C 0.44283 0.90975 0.34656 0.0
C5207 C 0.46979 0.89478 0.33497 0.0
C5208 C 0.41166 0.90999 0.36974 0.0
C5209 C 0.41872 0.90909 0.3636 0.0
C5210 C 0.43995 0.89679 0.35988 0.0
C5211 C 0.45499 0.90028 0.33953 0.0
C5212 C 0.4481 0.90187 0.34662 0.0
C5213 C 0.42718 0.90584 0.36636 0.0
C5214 C 0.43457 0.9046 0.35973 0.0
H5215 H 0.45795 0.90268 0.317 0.0
H5216 H 0.44673 0.90537 0.32864 0.0
H5217 H 0.45048 0.88924 0.35357 0.0
H5218 H 0.4226 0.90279 0.38855 0.0
H5219 H 0.43493 0.90118 0.3778 0.0
C5220 C 0.39167 0.18498 0.55728 0.0
C5221 C 0.39882 0.18887 0.55245 0.0
C5222 C 0.39298 0.17708 0.5622 0.0
C5223 C 0.40814 0.15743 0.56494 0.0
H5224 H 0.39619 0.15583 0.58804 0.0
C5225 C 0.41349 0.12818 0.59065 0.0
C5226 C 0.40555 0.12476 0.59456 0.0
C5227 C 0.41319 0.13587 0.5852 0.0
C5228 C 0.39952 0.15615 0.58158 0.0
H5229 H 0.41293 0.18746 0.54887 0.0
H5230 H 0.41526 0.17366 0.55758 0.0
H5231 H 0.39477 0.16953 0.57918 0.0
H5232 H 0.39109 0.12674 0.59583 0.0
H5233 H 0.39058 0.14005 0.58632 0.0
H5234 H 0.41293 0.144 0.56746 0.0
C5235 C 0.40861 0.17668 0.55747 0.0
C5236 C 0.39869 0.16399 0.57648 0.0
C5237 C 0.40728 0.18458 0.5525 0.0
C5238 C 0.39731 0.12912 0.59282 0.0
C5239 C 0.39703 0.13682 0.58746 0.0
C5240 C 0.40902 0.14957 0.57009 0.0
C5241 C 0.40149 0.17289 0.56246 0.0
C5242 C 0.40286 0.16468 0.56803 0.0
C5243 C 0.40496 0.14034 0.58367 0.0
C5244 C 0.40458 0.14881 0.57839 0.0
H5245 H 0.38502 0.18801 0.55722 0.0
H5246 H 0.38728 0.17423 0.56577 0.0
H5247 H 0.41139 0.15772 0.55844 0.0
H5248 H 0.41992 0.12493 0.59184 0.0
H5249 H 0.41941 0.13847 0.58238 0.0
C5250 C 0.0457 0.10096 0.82666 0.0
C5251 C 0.03691 0.10403 0.82847 0.0
C5252 C 0.05202 0.10011 0.83357 0.0
C5253 C 0.05701 0.10847 0.8564 0.0
H5254 H 0.07418 0.08873 0.85668 0.0
C5255 C 0.08251 0.10365 0.88534 0.0
C5256 C 0.09145 0.10172 0.8828 0.0
C5257 C 0.07553 0.10333 0.87903 0.0
C5258 C 0.06946 0.09432 0.85666 0.0
H5259 H 0.02787 0.10855 0.83901 0.0
H5260 H 0.03883 0.10685 0.85108 0.0
H5261 H 0.06256 0.08924 0.84509 0.0
H5262 H 0.10002 0.09794 0.8716 0.0
H5263 H 0.08784 0.09731 0.86065 0.0
H5264 H 0.06395 0.11357 0.86794 0.0
C5265 C 0.04087 0.10522 0.84429 0.0
C5266 C 0.06281 0.09462 0.85001 0.0
C5267 C 0.03455 0.10609 0.83738 0.0
C5268 C 0.0932 0.09931 0.87383 0.0
C5269 C 0.08622 0.09896 0.86754 0.0
C5270 C 0.06364 0.10815 0.86306 0.0
C5271 C 0.04971 0.10229 0.84246 0.0
C5272 C 0.05655 0.10174 0.84975 0.0
C5273 C 0.07731 0.10105 0.87004 0.0
C5274 C 0.06999 0.10111 0.86323 0.0
H5275 H 0.04771 0.09922 0.81989 0.0
H5276 H 0.05879 0.09792 0.8319 0.0
H5277 H 0.0524 0.11413 0.85632 0.0
H5278 H 0.0809 0.10539 0.89221 0.0
H5279 H 0.06871 0.10485 0.88119 0.0
C5280 C 0.96659 0.40768 0.83016 0.0
C5281 C 0.96749 0.3993 0.8258 0.0
C5282 C 0.96028 0.40881 0.83704 0.0
C5283 C 0.94694 0.39604 0.85364 0.0
H5284 H 0.93171 0.4173 0.85399 0.0
C5285 C 0.91535 0.39854 0.87604 0.0
C5286 C 0.91331 0.40689 0.88001 0.0
C5287 C 0.92236 0.3978 0.86982 0.0
C5288 C 0.936 0.41139 0.85407 0.0
H5289 H 0.96256 0.38553 0.82535 0.0
H5290 H 0.95149 0.38752 0.8373 0.0
H5291 H 0.94319 0.41569 0.84237 0.0
H5292 H 0.91717 0.42099 0.88072 0.0
H5293 H 0.92947 0.4197 0.86989 0.0
H5294 H 0.93976 0.39172 0.86533 0.0
C5295 C 0.9557 0.3932 0.83542 0.0
C5296 C 0.94257 0.41047 0.8474 0.0
C5297 C 0.96197 0.39208 0.82851 0.0
C5298 C 0.91851 0.41448 0.87769 0.0
C5299 C 0.92555 0.41374 0.87148 0.0
C5300 C 0.9404 0.39698 0.86033 0.0
C5301 C 0.95478 0.40157 0.83977 0.0
C5302 C 0.94805 0.40274 0.84706 0.0
C5303 C 0.92752 0.4054 0.86743 0.0
C5304 C 0.93478 0.40462 0.86058 0.0
H5305 H 0.9707 0.41338 0.82817 0.0
H5306 H 0.95977 0.41532 0.84031 0.0
H5307 H 0.95117 0.39008 0.85365 0.0
H5308 H 0.91137 0.39259 0.87757 0.0
H5309 H 0.92358 0.3913 0.86671 0.0
C5310 C 0.90394 0.68651 0.05745 0.0
C5311 C 0.89943 0.68654 0.04915 0.0
C5312 C 0.90561 0.67841 0.06193 0.0
C5313 C 0.8972 0.65508 0.0636 0.0
H5314 H 0.91904 0.65157 0.07751 0.0
C5315 C 0.90344 0.62282 0.0846 0.0
C5316 C 0.90641 0.62438 0.09343 0.0
C5317 C 0.9034 0.62982 0.07829 0.0
C5318 C 0.9129 0.65246 0.07367 0.0
H5319 H 0.89326 0.67805 0.03899 0.0
H5320 H 0.89634 0.66388 0.04673 0.0
H5321 H 0.91756 0.6649 0.06803 0.0
H5322 H 0.91166 0.63457 0.10253 0.0
H5323 H 0.9117 0.64667 0.09155 0.0
H5324 H 0.89249 0.6427 0.06936 0.0
C5325 C 0.89849 0.67015 0.04982 0.0
C5326 C 0.91204 0.6601 0.06826 0.0
C5327 C 0.89681 0.67826 0.04534 0.0
C5328 C 0.9095 0.63305 0.09575 0.0
C5329 C 0.90951 0.64001 0.08945 0.0
C5330 C 0.89807 0.64742 0.069 0.0
C5331 C 0.90283 0.67013 0.05821 0.0
C5332 C 0.90411 0.66159 0.06329 0.0
C5333 C 0.90639 0.6385 0.08068 0.0
C5334 C 0.90586 0.64612 0.07423 0.0
H5335 H 0.90615 0.69276 0.06052 0.0
H5336 H 0.90888 0.67866 0.06843 0.0
H5337 H 0.89095 0.65606 0.05995 0.0
H5338 H 0.90112 0.6162 0.08255 0.0
H5339 H 0.90103 0.62843 0.07155 0.0
C5340 C 0.535 0.60484 0.33724 0.0
C5341 C 0.53712 0.60273 0.32828 0.0
C5342 C 0.54146 0.60386 0.34401 0.0
C5343 C 0.56336 0.59298 0.34934 0.0
H5344 H 0.56515 0.61213 0.36701 0.0
C5345 C 0.59408 0.59739 0.37301 0.0
C5346 C 0.59239 0.60022 0.38186 0.0
C5347 C 0.58706 0.59695 0.36674 0.0
C5348 C 0.56466 0.60665 0.36221 0.0
H5349 H 0.54763 0.5977 0.31948 0.0
H5350 H 0.55896 0.5962 0.33125 0.0
H5351 H 0.55342 0.61276 0.35559 0.0
H5352 H 0.58194 0.60435 0.39118 0.0
H5353 H 0.56971 0.60359 0.38025 0.0
H5354 H 0.57472 0.58695 0.35592 0.0
C5355 C 0.55227 0.59852 0.33306 0.0
C5356 C 0.55793 0.60702 0.35565 0.0
C5357 C 0.54581 0.59948 0.32629 0.0
C5358 C 0.58349 0.60232 0.38437 0.0
C5359 C 0.57648 0.60188 0.37811 0.0
C5360 C 0.57012 0.59263 0.3559 0.0
C5361 C 0.5502 0.60078 0.34199 0.0
C5362 C 0.55721 0.6002 0.34912 0.0
C5363 C 0.5782 0.59932 0.36919 0.0
C5364 C 0.57086 0.59948 0.36239 0.0
H5365 H 0.52841 0.60744 0.33901 0.0
H5366 H 0.5396 0.60556 0.35084 0.0
H5367 H 0.56292 0.58756 0.34448 0.0
H5368 H 0.60087 0.59583 0.37083 0.0
H5369 H 0.58863 0.59505 0.3599 0.0
C5370 C 0.90472 0.32134 0.44913 0.0
C5371 C 0.90001 0.32107 0.45731 0.0
C5372 C 0.90645 0.32955 0.44488 0.0
C5373 C 0.8978 0.35279 0.44349 0.0
H5374 H 0.91965 0.3567 0.42969 0.0
C5375 C 0.90366 0.38513 0.42246 0.0
C5376 C 0.90655 0.38354 0.4136 0.0
C5377 C 0.90375 0.37818 0.42881 0.0
C5378 C 0.91351 0.3557 0.43351 0.0
H5379 H 0.8936 0.32929 0.46754 0.0
H5380 H 0.89679 0.34365 0.4602 0.0
H5381 H 0.9183 0.34331 0.43911 0.0
H5382 H 0.91178 0.37333 0.40452 0.0
H5383 H 0.91207 0.36134 0.4156 0.0
H5384 H 0.89296 0.36513 0.43777 0.0
C5385 C 0.89904 0.33748 0.45702 0.0
C5386 C 0.91272 0.34802 0.43889 0.0
C5387 C 0.8973 0.32925 0.46127 0.0
C5388 C 0.90969 0.37489 0.41131 0.0
C5389 C 0.90985 0.36798 0.41767 0.0
C5390 C 0.8986 0.3605 0.43814 0.0
C5391 C 0.90353 0.33772 0.44871 0.0
C5392 C 0.90478 0.34637 0.44379 0.0
C5393 C 0.9068 0.36952 0.42646 0.0
C5394 C 0.90639 0.36193 0.43294 0.0
H5395 H 0.90701 0.31518 0.44596 0.0
H5396 H 0.90984 0.32946 0.43844 0.0
H5397 H 0.89154 0.35169 0.44709 0.0
H5398 H 0.90131 0.39174 0.42448 0.0
H5399 H 0.90143 0.37958 0.43556 0.0
C5400 C 0.59846 0.68153 0.95746 0.0
C5401 C 0.60693 0.68581 0.95767 0.0
C5402 C 0.59738 0.67325 0.95305 0.0
C5403 C 0.61019 0.65355 0.94488 0.0
H5404 H 0.59064 0.65077 0.92778 0.0
C5405 C 0.61115 0.62694 0.91698 0.0
C5406 C 0.60312 0.62256 0.91443 0.0
C5407 C 0.611 0.63399 0.92318 0.0
C5408 C 0.59604 0.65136 0.93265 0.0
H5409 H 0.62096 0.68467 0.95368 0.0
H5410 H 0.61908 0.67027 0.94599 0.0
H5411 H 0.59146 0.66434 0.93706 0.0
H5412 H 0.58864 0.62209 0.91652 0.0
H5413 H 0.58838 0.63445 0.92741 0.0
H5414 H 0.61485 0.64065 0.94043 0.0
C5415 C 0.61327 0.67329 0.94922 0.0
C5416 C 0.59651 0.65914 0.93795 0.0
C5417 C 0.61433 0.68158 0.95354 0.0
C5418 C 0.59493 0.62538 0.91829 0.0
C5419 C 0.59478 0.63246 0.92452 0.0
C5420 C 0.60969 0.64576 0.93962 0.0
C5421 C 0.60479 0.66905 0.94889 0.0
C5422 C 0.60371 0.6604 0.94397 0.0
C5423 C 0.60282 0.63687 0.927 0.0
C5424 C 0.60274 0.64467 0.93329 0.0
H5425 H 0.59263 0.68466 0.96055 0.0
H5426 H 0.59077 0.67011 0.95293 0.0
H5427 H 0.61572 0.65426 0.94959 0.0
H5428 H 0.61755 0.62508 0.91399 0.0
H5429 H 0.61729 0.63736 0.92478 0.0
C5430 C 0.79177 0.58092 0.84587 0.0
C5431 C 0.79114 0.57663 0.85426 0.0
C5432 C 0.79845 0.58741 0.84429 0.0
C5433 C 0.82048 0.59544 0.85305 0.0
H5434 H 0.81501 0.61713 0.83955 0.0
C5435 C 0.84385 0.62637 0.85327 0.0
C5436 C 0.84559 0.63068 0.84505 0.0
C5437 C 0.83725 0.61968 0.85389 0.0
C5438 C 0.81666 0.61106 0.84324 0.0
H5439 H 0.79685 0.57598 0.86764 0.0
H5440 H 0.80841 0.58734 0.86493 0.0
H5441 H 0.80334 0.60565 0.84164 0.0
H5442 H 0.84172 0.63139 0.83104 0.0
H5443 H 0.83012 0.61963 0.83213 0.0
H5444 H 0.83374 0.60092 0.85479 0.0
C5445 C 0.8039 0.58554 0.85949 0.0
C5446 C 0.80998 0.60447 0.84444 0.0
C5447 C 0.79726 0.57904 0.86105 0.0
C5448 C 0.84055 0.62816 0.83745 0.0
C5449 C 0.83387 0.62149 0.83809 0.0
C5450 C 0.82712 0.60204 0.8519 0.0
C5451 C 0.80462 0.58978 0.85108 0.0
C5452 C 0.81179 0.59663 0.84944 0.0
C5453 C 0.8322 0.61714 0.84631 0.0
C5454 C 0.82526 0.60996 0.84707 0.0
H5455 H 0.7872 0.57914 0.84048 0.0
H5456 H 0.79888 0.59045 0.8377 0.0
H5457 H 0.82218 0.5894 0.85676 0.0
H5458 H 0.84769 0.62808 0.85922 0.0
H5459 H 0.83605 0.61653 0.86034 0.0
C5460 C 0.20093 0.07057 0.64175 0.0
C5461 C 0.20584 0.0669 0.64893 0.0
C5462 C 0.19602 0.07852 0.64284 0.0
C5463 C 0.19346 0.09863 0.65741 0.0
H5464 H 0.17017 0.10003 0.6456 0.0
C5465 C 0.16759 0.12789 0.66247 0.0
C5466 C 0.16356 0.13117 0.65458 0.0
C5467 C 0.17312 0.12023 0.66221 0.0
C5468 C 0.17669 0.09977 0.64889 0.0
H5469 H 0.20954 0.06875 0.66288 0.0
H5470 H 0.20083 0.08262 0.66486 0.0
H5471 H 0.17902 0.08627 0.64445 0.0
H5472 H 0.16218 0.129 0.64024 0.0
H5473 H 0.17184 0.11575 0.6398 0.0
H5474 H 0.19099 0.11217 0.66192 0.0
C5475 C 0.20088 0.0794 0.65833 0.0
C5476 C 0.18178 0.09189 0.64821 0.0
C5477 C 0.20586 0.07145 0.65721 0.0
C5478 C 0.16528 0.12672 0.64643 0.0
C5479 C 0.17073 0.11907 0.64618 0.0
C5480 C 0.18831 0.10652 0.65814 0.0
C5481 C 0.19584 0.08298 0.65117 0.0
C5482 C 0.19029 0.09126 0.65234 0.0
C5483 C 0.17461 0.11567 0.65408 0.0
C5484 C 0.17994 0.1072 0.65377 0.0
H5485 H 0.20094 0.06732 0.63523 0.0
H5486 H 0.1924 0.0812 0.63712 0.0
H5487 H 0.20001 0.0984 0.66062 0.0
H5488 H 0.16642 0.13121 0.66885 0.0
H5489 H 0.17602 0.11774 0.66841 0.0
C5490 C 0.70137 0.4351 0.36847 0.0
C5491 C 0.70635 0.43861 0.36125 0.0
C5492 C 0.69625 0.42726 0.36743 0.0
C5493 C 0.69303 0.40712 0.35306 0.0
H5494 H 0.66955 0.40676 0.36457 0.0
C5495 C 0.66627 0.37863 0.34807 0.0
C5496 C 0.66192 0.37566 0.35593 0.0
C5497 C 0.67204 0.38612 0.3483 0.0
C5498 C 0.67612 0.40672 0.36137 0.0
H5499 H 0.71003 0.43656 0.34732 0.0
H5500 H 0.70098 0.42286 0.34546 0.0
H5501 H 0.67894 0.42018 0.36568 0.0
H5502 H 0.66023 0.37823 0.37017 0.0
H5503 H 0.67032 0.39119 0.37057 0.0
H5504 H 0.69009 0.39362 0.34871 0.0
C5505 C 0.70111 0.42613 0.35196 0.0
C5506 C 0.68152 0.41441 0.36203 0.0
C5507 C 0.70629 0.43398 0.35302 0.0
C5508 C 0.66355 0.38027 0.36402 0.0
C5509 C 0.66925 0.38776 0.36423 0.0
C5510 C 0.68759 0.39942 0.35237 0.0
C5511 C 0.69595 0.42275 0.35913 0.0
C5512 C 0.6901 0.41466 0.358 0.0
C5513 C 0.67347 0.39084 0.35637 0.0
C5514 C 0.67913 0.3991 0.35663 0.0
H5515 H 0.70144 0.43841 0.37495 0.0
H5516 H 0.69255 0.42472 0.37316 0.0
H5517 H 0.69963 0.40707 0.34993 0.0
H5518 H 0.66518 0.37518 0.34175 0.0
H5519 H 0.67518 0.38837 0.34213 0.0
C5520 C 0.29701 0.93239 0.15011 0.0
C5521 C 0.28781 0.93031 0.15124 0.0
C5522 C 0.30363 0.92582 0.15141 0.0
C5523 C 0.30762 0.90321 0.16146 0.0
H5524 H 0.32801 0.90316 0.14515 0.0
C5525 C 0.3385 0.87964 0.16618 0.0
C5526 C 0.34257 0.87612 0.15841 0.0
C5527 C 0.33164 0.8861 0.16554 0.0
C5528 C 0.32232 0.903 0.14971 0.0
H5529 H 0.27842 0.91966 0.15484 0.0
H5530 H 0.28994 0.90811 0.15677 0.0
H5531 H 0.3164 0.91457 0.14357 0.0
H5532 H 0.34255 0.87666 0.14384 0.0
H5533 H 0.33041 0.88756 0.14273 0.0
H5534 H 0.31343 0.89141 0.16739 0.0
C5535 C 0.29205 0.91488 0.15502 0.0
C5536 C 0.31572 0.90965 0.14889 0.0
C5537 C 0.28542 0.92148 0.15379 0.0
C5538 C 0.3395 0.8791 0.14998 0.0
C5539 C 0.33262 0.88549 0.14934 0.0
C5540 C 0.31422 0.8965 0.16224 0.0
C5541 C 0.30123 0.91695 0.15379 0.0
C5542 C 0.30828 0.90986 0.15475 0.0
C5543 C 0.32867 0.88917 0.15711 0.0
C5544 C 0.32164 0.8963 0.15636 0.0
H5545 H 0.29912 0.93908 0.14805 0.0
H5546 H 0.31064 0.92771 0.15054 0.0
H5547 H 0.30205 0.90321 0.16615 0.0
H5548 H 0.34062 0.87744 0.17278 0.0
H5549 H 0.32881 0.88883 0.17166 0.0
C5550 C 0.78471 0.42164 0.65174 0.0
C5551 C 0.78724 0.43046 0.64929 0.0
C5552 C 0.79125 0.41502 0.65326 0.0
C5553 C 0.81513 0.4097 0.64812 0.0
H5554 H 0.81196 0.39141 0.66645 0.0
C5555 C 0.83856 0.37894 0.64998 0.0
C5556 C 0.84129 0.37588 0.6585 0.0
C5557 C 0.83177 0.38539 0.64912 0.0
C5558 C 0.813 0.39652 0.66136 0.0
H5559 H 0.7987 0.43919 0.64658 0.0
H5560 H 0.81007 0.42778 0.64957 0.0
H5561 H 0.80072 0.4033 0.6648 0.0
H5562 H 0.8388 0.37713 0.67279 0.0
H5563 H 0.82715 0.38865 0.6713 0.0
H5564 H 0.82752 0.40312 0.64486 0.0
C5565 C 0.80302 0.42592 0.65015 0.0
C5566 C 0.80649 0.40327 0.66033 0.0
C5567 C 0.79649 0.43251 0.64856 0.0
C5568 C 0.83695 0.3794 0.66613 0.0
C5569 C 0.83018 0.38592 0.66527 0.0
C5570 C 0.82165 0.40299 0.64919 0.0
C5571 C 0.80049 0.41706 0.65242 0.0
C5572 C 0.80746 0.40994 0.65368 0.0
C5573 C 0.82757 0.38906 0.65675 0.0
C5574 C 0.82065 0.39628 0.65578 0.0
H5575 H 0.77767 0.41984 0.65249 0.0
H5576 H 0.78905 0.40825 0.65492 0.0
H5577 H 0.81607 0.41463 0.64284 0.0
H5578 H 0.84182 0.37651 0.64394 0.0
H5579 H 0.82983 0.38752 0.64244 0.0
C5580 C 0.29745 0.0796 0.36308 0.0
C5581 C 0.291 0.07741 0.35652 0.0
C5582 C 0.30413 0.08601 0.36133 0.0
C5583 C 0.30991 0.10508 0.34637 0.0
H5584 H 0.334 0.10095 0.35567 0.0
C5585 C 0.34049 0.12861 0.33885 0.0
C5586 C 0.34581 0.13088 0.34634 0.0
C5587 C 0.33378 0.12197 0.33954 0.0
C5588 C 0.32729 0.10222 0.35307 0.0
H5589 H 0.28653 0.0802 0.34295 0.0
H5590 H 0.29828 0.09136 0.33985 0.0
H5591 H 0.32234 0.08956 0.35786 0.0
H5592 H 0.34838 0.12786 0.36035 0.0
H5593 H 0.33669 0.11637 0.36155 0.0
H5594 H 0.31493 0.11777 0.34156 0.0
C5595 C 0.29808 0.08821 0.34641 0.0
C5596 C 0.3206 0.09571 0.35435 0.0
C5597 C 0.29135 0.08181 0.34818 0.0
C5598 C 0.34432 0.12635 0.35449 0.0
C5599 C 0.33769 0.11969 0.35515 0.0
C5600 C 0.31663 0.11159 0.34505 0.0
C5601 C 0.30457 0.09036 0.35296 0.0
C5602 C 0.31179 0.09711 0.35113 0.0
C5603 C 0.33236 0.11741 0.34769 0.0
C5604 C 0.32536 0.11028 0.34851 0.0
H5605 H 0.29725 0.07644 0.36963 0.0
H5606 H 0.3089 0.08763 0.36661 0.0
H5607 H 0.30317 0.10642 0.34387 0.0
H5608 H 0.34146 0.13202 0.3325 0.0
H5609 H 0.3298 0.12031 0.33366 0.0
C5610 C 0.70162 0.5722 0.13948 0.0
C5611 C 0.70681 0.56866 0.14653 0.0
C5612 C 0.69663 0.58008 0.14069 0.0
C5613 C 0.69411 0.60026 0.15513 0.0
H5614 H 0.6703 0.60084 0.14429 0.0
C5615 C 0.66776 0.62904 0.16062 0.0
C5616 C 0.66332 0.63202 0.15283 0.0
C5617 C 0.67345 0.6215 0.16032 0.0
C5618 C 0.67696 0.60081 0.1473 0.0
H5619 H 0.71099 0.57069 0.16032 0.0
H5620 H 0.70214 0.58446 0.16248 0.0
H5621 H 0.67948 0.58731 0.14297 0.0
H5622 H 0.66138 0.62943 0.13862 0.0
H5623 H 0.67132 0.6164 0.1381 0.0
H5624 H 0.69147 0.61381 0.15951 0.0
C5625 C 0.70203 0.58118 0.15599 0.0
C5626 C 0.68223 0.59306 0.14653 0.0
C5627 C 0.70708 0.57329 0.15476 0.0
C5628 C 0.66479 0.62739 0.14472 0.0
C5629 C 0.6704 0.61986 0.14444 0.0
C5630 C 0.68878 0.60803 0.15594 0.0
C5631 C 0.69665 0.5846 0.14899 0.0
C5632 C 0.69093 0.59273 0.1503 0.0
C5633 C 0.6747 0.61675 0.15224 0.0
C5634 C 0.68021 0.60841 0.15191 0.0
H5635 H 0.70144 0.56889 0.133 0.0
H5636 H 0.69276 0.58265 0.13508 0.0
H5637 H 0.70079 0.60025 0.15806 0.0
H5638 H 0.6668 0.6325 0.16696 0.0
H5639 H 0.67667 0.61923 0.16645 0.0
C5640 C 0.20611 0.93447 0.85173 0.0
C5641 C 0.20595 0.93935 0.85982 0.0
C5642 C 0.20095 0.9266 0.85076 0.0
C5643 C 0.18112 0.91509 0.86072 0.0
H5644 H 0.1901 0.89399 0.84818 0.0
C5645 C 0.16342 0.88084 0.86335 0.0
C5646 C 0.16192 0.87605 0.85535 0.0
C5647 C 0.16906 0.88838 0.86347 0.0
C5648 C 0.18748 0.89987 0.85163 0.0
H5649 H 0.20063 0.9396 0.87337 0.0
H5650 H 0.19177 0.92587 0.87175 0.0
H5651 H 0.19953 0.90753 0.84922 0.0
H5652 H 0.16533 0.87529 0.84122 0.0
H5653 H 0.17525 0.88855 0.84143 0.0
H5654 H 0.16916 0.90743 0.86325 0.0
C5655 C 0.19564 0.92822 0.86605 0.0
C5656 C 0.19287 0.90763 0.85221 0.0
C5657 C 0.20073 0.93608 0.86699 0.0
C5658 C 0.16633 0.87888 0.84748 0.0
C5659 C 0.17205 0.88641 0.84761 0.0
C5660 C 0.17579 0.90735 0.86018 0.0
C5661 C 0.19557 0.92344 0.85789 0.0
C5662 C 0.18978 0.91529 0.85687 0.0
C5663 C 0.17335 0.89131 0.85559 0.0
C5664 C 0.17895 0.89962 0.85573 0.0
H5665 H 0.21004 0.93685 0.84608 0.0
H5666 H 0.201 0.92312 0.84437 0.0
H5667 H 0.17843 0.92095 0.86415 0.0
H5668 H 0.16004 0.87891 0.86951 0.0
H5669 H 0.17002 0.89196 0.86974 0.0
C5670 C 0.85616 0.78982 0.58629 0.0
C5671 C 0.85408 0.79151 0.57724 0.0
C5672 C 0.85457 0.79638 0.59284 0.0
C5673 C 0.84164 0.81728 0.59731 0.0
H5674 H 0.85987 0.82116 0.61559 0.0
C5675 C 0.8421 0.84859 0.62051 0.0
C5676 C 0.84465 0.84734 0.62951 0.0
C5677 C 0.84265 0.84148 0.61436 0.0
C5678 C 0.85465 0.82009 0.61061 0.0
H5679 H 0.84853 0.80137 0.56802 0.0
H5680 H 0.84594 0.81288 0.57942 0.0
H5681 H 0.86203 0.80937 0.60441 0.0
H5682 H 0.84944 0.83753 0.63918 0.0
H5683 H 0.85042 0.82513 0.62846 0.0
H5684 H 0.83431 0.8281 0.60347 0.0
C5685 C 0.84871 0.80644 0.58147 0.0
C5686 C 0.85589 0.81332 0.6042 0.0
C5687 C 0.8503 0.79988 0.57491 0.0
C5688 C 0.84756 0.83876 0.63227 0.0
C5689 C 0.84813 0.83165 0.62612 0.0
C5690 C 0.8404 0.82407 0.60372 0.0
C5691 C 0.85087 0.80479 0.59051 0.0
C5692 C 0.84942 0.81186 0.59745 0.0
C5693 C 0.84579 0.83296 0.61707 0.0
C5694 C 0.84691 0.82557 0.61043 0.0
H5695 H 0.85916 0.78348 0.5883 0.0
H5696 H 0.85621 0.79484 0.59975 0.0
H5697 H 0.83645 0.81625 0.59228 0.0
H5698 H 0.83995 0.85515 0.61813 0.0
H5699 H 0.8409 0.84275 0.60742 0.0
C5700 C 0.92916 0.14397 0.29426 0.0
C5701 C 0.93159 0.15109 0.28853 0.0
C5702 C 0.9225 0.14518 0.30078 0.0
C5703 C 0.90332 0.15992 0.30707 0.0
H5704 H 0.9065 0.14866 0.33034 0.0
C5705 C 0.87987 0.16679 0.33752 0.0
C5706 C 0.87721 0.15919 0.34252 0.0
C5707 C 0.88642 0.16601 0.3308 0.0
C5708 C 0.90548 0.15178 0.32385 0.0
H5709 H 0.92901 0.16508 0.28518 0.0
H5710 H 0.91746 0.16724 0.29667 0.0
H5711 H 0.91816 0.147 0.31894 0.0
H5712 H 0.87936 0.14485 0.34442 0.0
H5713 H 0.89073 0.14349 0.33268 0.0
H5714 H 0.89065 0.16477 0.31207 0.0
C5715 C 0.92057 0.16067 0.29601 0.0
C5716 C 0.91215 0.15082 0.3173 0.0
C5717 C 0.92721 0.15945 0.28945 0.0
C5718 C 0.8812 0.15081 0.34063 0.0
C5719 C 0.88778 0.15004 0.33397 0.0
C5720 C 0.89666 0.16093 0.31365 0.0
C5721 C 0.91815 0.15355 0.30177 0.0
C5722 C 0.91113 0.15482 0.30881 0.0
C5723 C 0.8905 0.15764 0.32901 0.0
C5724 C 0.89764 0.15681 0.32208 0.0
H5725 H 0.9323 0.13741 0.29361 0.0
H5726 H 0.92068 0.13949 0.30497 0.0
H5727 H 0.90226 0.16299 0.30057 0.0
H5728 H 0.87686 0.17332 0.33879 0.0
H5729 H 0.88841 0.17199 0.32712 0.0
C5730 C 0.65342 0.21115 0.07743 0.0
C5731 C 0.65005 0.21983 0.07923 0.0
C5732 C 0.65445 0.20486 0.08434 0.0
C5733 C 0.646 0.19954 0.10701 0.0
H5734 H 0.66648 0.18329 0.10772 0.0
C5735 C 0.65127 0.17457 0.13618 0.0
C5736 C 0.65374 0.16573 0.13382 0.0
C5737 C 0.65144 0.18148 0.12981 0.0
C5738 C 0.66069 0.18774 0.10758 0.0
H5739 H 0.64516 0.22871 0.08974 0.0
H5740 H 0.64714 0.21781 0.10181 0.0
H5741 H 0.66565 0.19481 0.09606 0.0
H5742 H 0.65839 0.15724 0.12289 0.0
H5743 H 0.65871 0.16929 0.11179 0.0
H5744 H 0.64099 0.19243 0.11846 0.0
C5745 C 0.64889 0.21583 0.09504 0.0
C5746 C 0.66021 0.19434 0.10089 0.0
C5747 C 0.64786 0.22212 0.08813 0.0
C5748 C 0.65657 0.164 0.12497 0.0
C5749 C 0.65675 0.17091 0.1186 0.0
C5750 C 0.64648 0.19296 0.11369 0.0
C5751 C 0.65213 0.2071 0.09322 0.0
C5752 C 0.65283 0.20028 0.1005 0.0
C5753 C 0.6541 0.17971 0.12092 0.0
C5754 C 0.6538 0.18694 0.11402 0.0
H5755 H 0.65527 0.20921 0.07067 0.0
H5756 H 0.65689 0.19818 0.08269 0.0
H5757 H 0.64014 0.20391 0.10681 0.0
H5758 H 0.64921 0.17616 0.14298 0.0
H5759 H 0.6495 0.18822 0.13185 0.0
C5760 C 0.57183 0.86564 0.80622 0.0
C5761 C 0.56836 0.85829 0.80136 0.0
C5762 C 0.57974 0.86476 0.81122 0.0
C5763 C 0.60005 0.85053 0.81437 0.0
H5764 H 0.60064 0.86255 0.8375 0.0
C5765 C 0.62855 0.84583 0.84097 0.0
C5766 C 0.6316 0.85376 0.84518 0.0
C5767 C 0.62109 0.84604 0.8352 0.0
C5768 C 0.60061 0.85922 0.83103 0.0
H5769 H 0.57053 0.84428 0.79781 0.0
H5770 H 0.58433 0.84267 0.8067 0.0
H5771 H 0.58712 0.86344 0.82831 0.0
H5772 H 0.62925 0.86814 0.84659 0.0
H5773 H 0.61633 0.86851 0.83651 0.0
H5774 H 0.61358 0.84623 0.81724 0.0
C5775 C 0.58099 0.84916 0.80654 0.0
C5776 C 0.59286 0.85974 0.82574 0.0
C5777 C 0.57308 0.85007 0.80146 0.0
C5778 C 0.62714 0.86193 0.84338 0.0
C5779 C 0.61967 0.86213 0.83768 0.0
C5780 C 0.60781 0.84996 0.81972 0.0
C5781 C 0.58435 0.85648 0.81156 0.0
C5782 C 0.59252 0.85552 0.81729 0.0
C5783 C 0.61649 0.85418 0.83363 0.0
C5784 C 0.6082 0.8544 0.82804 0.0
H5785 H 0.56845 0.87212 0.80611 0.0
H5786 H 0.58225 0.8706 0.81482 0.0
H5787 H 0.60004 0.84726 0.80788 0.0
H5788 H 0.63189 0.83945 0.84219 0.0
H5789 H 0.61877 0.8398 0.83218 0.0
C5790 C 0.852 0.20616 0.93367 0.0
C5791 C 0.86074 0.20611 0.93733 0.0
C5792 C 0.85013 0.20147 0.92573 0.0
C5793 C 0.86102 0.19139 0.90577 0.0
H5794 H 0.84014 0.17559 0.90542 0.0
C5795 C 0.85766 0.16188 0.88095 0.0
C5796 C 0.84909 0.15964 0.87757 0.0
C5797 C 0.85863 0.16858 0.88747 0.0
C5798 C 0.84591 0.18008 0.90533 0.0
H5799 H 0.87445 0.20137 0.9354 0.0
H5800 H 0.87119 0.19314 0.92161 0.0
H5801 H 0.84263 0.18551 0.91825 0.0
H5802 H 0.83483 0.1629 0.87818 0.0
H5803 H 0.83653 0.17465 0.88957 0.0
H5804 H 0.86437 0.18589 0.89292 0.0
C5805 C 0.86577 0.19682 0.92484 0.0
C5806 C 0.84734 0.18576 0.91269 0.0
C5807 C 0.86762 0.20145 0.93279 0.0
C5808 C 0.84152 0.16439 0.88073 0.0
C5809 C 0.84249 0.17112 0.88726 0.0
C5810 C 0.85957 0.18574 0.8984 0.0
C5811 C 0.857 0.19671 0.92126 0.0
C5812 C 0.85501 0.19135 0.91307 0.0
C5813 C 0.85105 0.17322 0.89078 0.0
C5814 C 0.85209 0.17989 0.89817 0.0
H5815 H 0.84655 0.20966 0.93705 0.0
H5816 H 0.84332 0.20155 0.9231 0.0
H5817 H 0.86691 0.19574 0.90581 0.0
H5818 H 0.86361 0.15824 0.87878 0.0
H5819 H 0.8653 0.1699 0.89014 0.0
C5820 C 0.5714 0.13986 0.70112 0.0
C5821 C 0.56811 0.14717 0.70616 0.0
C5822 C 0.57946 0.14062 0.69633 0.0
C5823 C 0.6004 0.15419 0.69429 0.0
H5824 H 0.60129 0.14301 0.67077 0.0
C5825 C 0.62966 0.15927 0.66866 0.0
C5826 C 0.63258 0.15149 0.6641 0.0
C5827 C 0.62209 0.15895 0.67427 0.0
C5828 C 0.60118 0.14609 0.67736 0.0
H5829 H 0.57073 0.16097 0.71022 0.0
H5830 H 0.58479 0.16236 0.70172 0.0
H5831 H 0.58747 0.1422 0.67954 0.0
H5832 H 0.6299 0.13726 0.66194 0.0
H5833 H 0.61678 0.13669 0.67176 0.0
H5834 H 0.61414 0.15818 0.69198 0.0
C5835 C 0.58119 0.156 0.70158 0.0
C5836 C 0.59326 0.14562 0.6824 0.0
C5837 C 0.57313 0.15521 0.70643 0.0
C5838 C 0.62789 0.14335 0.66543 0.0
C5839 C 0.62031 0.14304 0.67097 0.0
C5840 C 0.60833 0.15472 0.6892 0.0
C5841 C 0.58441 0.14873 0.69641 0.0
C5842 C 0.59279 0.14957 0.69097 0.0
C5843 C 0.61725 0.15086 0.67535 0.0
C5844 C 0.60882 0.15058 0.68073 0.0
H5845 H 0.56777 0.13351 0.70093 0.0
H5846 H 0.58183 0.13481 0.69261 0.0
H5847 H 0.6003 0.15724 0.7009 0.0
H5848 H 0.63318 0.16563 0.66782 0.0
H5849 H 0.61986 0.16509 0.67754 0.0
C5850 C 0.64786 0.7858 0.4185 0.0
C5851 C 0.64982 0.78809 0.42745 0.0
C5852 C 0.64891 0.79213 0.41164 0.0
C5853 C 0.65987 0.81394 0.40609 0.0
H5854 H 0.64112 0.81523 0.38798 0.0
C5855 C 0.65593 0.84409 0.38176 0.0
C5856 C 0.65342 0.8422 0.37285 0.0
C5857 C 0.65619 0.83722 0.38817 0.0
C5858 C 0.64648 0.81489 0.39291 0.0
H5859 H 0.65468 0.7988 0.43615 0.0
H5860 H 0.6563 0.80991 0.4242 0.0
H5861 H 0.64024 0.80378 0.39964 0.0
H5862 H 0.64962 0.83153 0.36361 0.0
H5863 H 0.65005 0.81955 0.37481 0.0
H5864 H 0.66602 0.82517 0.39941 0.0
C5865 C 0.65404 0.80318 0.42248 0.0
C5866 C 0.64598 0.80831 0.3996 0.0
C5867 C 0.653 0.79684 0.42934 0.0
C5868 C 0.65141 0.83324 0.37045 0.0
C5869 C 0.65166 0.82637 0.37687 0.0
C5870 C 0.66036 0.82055 0.39941 0.0
C5871 C 0.65194 0.80092 0.41355 0.0
C5872 C 0.65265 0.80777 0.4063 0.0
C5873 C 0.65395 0.8283 0.38582 0.0
C5874 C 0.65365 0.82111 0.39276 0.0
H5875 H 0.64531 0.77916 0.41681 0.0
H5876 H 0.64734 0.79012 0.40482 0.0
H5877 H 0.66519 0.81364 0.41107 0.0
H5878 H 0.6574 0.85093 0.38386 0.0
H5879 H 0.65787 0.83894 0.39504 0.0
C5880 C 0.93344 0.85394 0.20608 0.0
C5881 C 0.93728 0.86261 0.20654 0.0
C5882 C 0.92568 0.85239 0.20094 0.0
C5883 C 0.91312 0.86216 0.18187 0.0
H5884 H 0.89399 0.84593 0.18932 0.0
C5885 C 0.88008 0.85945 0.16203 0.0
C5886 C 0.87685 0.85072 0.1602 0.0
C5887 C 0.88701 0.86079 0.16824 0.0
C5888 C 0.89932 0.85043 0.18713 0.0
H5889 H 0.93573 0.87653 0.20237 0.0
H5890 H 0.92218 0.87388 0.19352 0.0
H5891 H 0.90692 0.84851 0.19923 0.0
H5892 H 0.87813 0.83658 0.16372 0.0
H5893 H 0.89035 0.83893 0.17452 0.0
H5894 H 0.90557 0.86409 0.16981 0.0
C5895 C 0.92527 0.86821 0.19691 0.0
C5896 C 0.90672 0.8519 0.19279 0.0
C5897 C 0.93304 0.86974 0.202 0.0
C5898 C 0.88054 0.84338 0.16492 0.0
C5899 C 0.88747 0.84473 0.17116 0.0
C5900 C 0.90573 0.86072 0.17625 0.0
C5901 C 0.92158 0.85949 0.19619 0.0
C5902 C 0.91369 0.85782 0.19024 0.0
C5903 C 0.89089 0.85344 0.17277 0.0
C5904 C 0.89872 0.85487 0.17882 0.0
H5905 H 0.9366 0.8483 0.20946 0.0
H5906 H 0.92306 0.84558 0.20046 0.0
H5907 H 0.91846 0.8666 0.17959 0.0
H5908 H 0.87747 0.86524 0.15846 0.0
H5909 H 0.88941 0.8676 0.16942 0.0
C5910 C 0.07425 0.65521 0.20684 0.0
C5911 C 0.06926 0.64714 0.20661 0.0
C5912 C 0.08225 0.65604 0.20191 0.0
C5913 C 0.09417 0.64572 0.18261 0.0
H5914 H 0.1151 0.65834 0.19198 0.0
C5915 C 0.12867 0.64347 0.16538 0.0
C5916 C 0.13333 0.65161 0.16399 0.0
C5917 C 0.12112 0.64317 0.17097 0.0
C5918 C 0.10927 0.65486 0.18926 0.0
H5919 H 0.06894 0.63348 0.2014 0.0
H5920 H 0.08291 0.63485 0.19294 0.0
H5921 H 0.10135 0.65736 0.20103 0.0
H5922 H 0.13392 0.66577 0.16763 0.0
H5923 H 0.12067 0.66524 0.17745 0.0
H5924 H 0.10209 0.64312 0.1709 0.0
C5925 C 0.08054 0.64065 0.19669 0.0
C5926 C 0.1014 0.65432 0.19443 0.0
C5927 C 0.07254 0.63985 0.20155 0.0
C5928 C 0.13042 0.65941 0.16853 0.0
C5929 C 0.12289 0.65909 0.17419 0.0
C5930 C 0.10203 0.64621 0.17749 0.0
C5931 C 0.08545 0.64878 0.19671 0.0
C5932 C 0.09377 0.64966 0.19119 0.0
C5933 C 0.11808 0.651 0.17534 0.0
C5934 C 0.1097 0.65072 0.18079 0.0
H5935 H 0.07185 0.66095 0.21065 0.0
H5936 H 0.08582 0.66242 0.20201 0.0
H5937 H 0.08836 0.64227 0.1798 0.0
H5938 H 0.13066 0.63736 0.1619 0.0
H5939 H 0.11761 0.63681 0.17182 0.0
C5940 C 0.14774 0.28506 0.91847 0.0
C5941 C 0.15001 0.28719 0.92738 0.0
C5942 C 0.14872 0.29146 0.91166 0.0
C5943 C 0.16007 0.31303 0.90604 0.0
H5944 H 0.14075 0.31515 0.88861 0.0
C5945 C 0.15637 0.34358 0.88218 0.0
C5946 C 0.15341 0.34191 0.87336 0.0
C5947 C 0.15662 0.33662 0.8885 0.0
C5948 C 0.14627 0.31457 0.89334 0.0
H5949 H 0.15534 0.29767 0.93607 0.0
H5950 H 0.15688 0.3089 0.92423 0.0
H5951 H 0.13993 0.30356 0.90014 0.0
H5952 H 0.14878 0.33153 0.86418 0.0
H5953 H 0.14922 0.31939 0.87521 0.0
H5954 H 0.16635 0.32414 0.89928 0.0
C5955 C 0.15441 0.30225 0.92249 0.0
C5956 C 0.1458 0.30792 0.89996 0.0
C5957 C 0.15342 0.29584 0.9293 0.0
C5958 C 0.15094 0.33307 0.87096 0.0
C5959 C 0.15119 0.32612 0.87728 0.0
C5960 C 0.16054 0.3197 0.89942 0.0
C5961 C 0.152 0.30016 0.91359 0.0
C5962 C 0.15267 0.30709 0.90641 0.0
C5963 C 0.15392 0.32783 0.88615 0.0
C5964 C 0.15363 0.32057 0.89302 0.0
H5965 H 0.14501 0.2785 0.91677 0.0
H5966 H 0.14691 0.28959 0.90487 0.0
H5967 H 0.16554 0.3125 0.91083 0.0
H5968 H 0.15821 0.35034 0.88428 0.0
H5969 H 0.15865 0.3382 0.89531 0.0
C5970 C 0.43513 0.36701 0.70077 0.0
C5971 C 0.43915 0.35984 0.70545 0.0
C5972 C 0.42732 0.36561 0.69572 0.0
C5973 C 0.40827 0.34975 0.69202 0.0
H5974 H 0.40713 0.36177 0.66895 0.0
C5975 C 0.38164 0.34161 0.66445 0.0
C5976 C 0.378 0.34901 0.65979 0.0
C5977 C 0.38867 0.34285 0.67061 0.0
C5978 C 0.40729 0.35844 0.67541 0.0
H5979 H 0.43805 0.34563 0.70866 0.0
H5980 H 0.42443 0.34313 0.69971 0.0
H5981 H 0.42021 0.36402 0.67853 0.0
H5982 H 0.37881 0.36353 0.65806 0.0
H5983 H 0.39095 0.36568 0.66886 0.0
H5984 H 0.39535 0.34406 0.68875 0.0
C5985 C 0.42726 0.34987 0.70004 0.0
C5986 C 0.41479 0.35974 0.68093 0.0
C5987 C 0.43506 0.35128 0.70515 0.0
C5988 C 0.38139 0.35769 0.6616 0.0
C5989 C 0.38842 0.35892 0.66771 0.0
C5990 C 0.40076 0.34841 0.68646 0.0
C5991 C 0.42336 0.357 0.69518 0.0
C5992 C 0.41536 0.35547 0.68933 0.0
C5993 C 0.39223 0.3515 0.67218 0.0
C5994 C 0.40017 0.3528 0.67813 0.0
H5995 H 0.43803 0.37372 0.70102 0.0
H5996 H 0.42438 0.37131 0.69224 0.0
H5997 H 0.40845 0.34642 0.69849 0.0
H5998 H 0.37911 0.33485 0.66326 0.0
H5999 H 0.39149 0.337 0.67393 0.0
C6000 C 0.15461 0.71223 0.57678 0.0
C6001 C 0.15101 0.72078 0.57874 0.0
C6002 C 0.15578 0.70583 0.58357 0.0
C6003 C 0.15744 0.70314 0.60818 0.0
H6004 H 0.14977 0.67863 0.60313 0.0
C6005 C 0.15296 0.67607 0.63584 0.0
C6006 C 0.15546 0.66716 0.63377 0.0
C6007 C 0.15306 0.68276 0.62922 0.0
C6008 C 0.15207 0.68541 0.60462 0.0
H6009 H 0.14588 0.72933 0.5894 0.0
H6010 H 0.14795 0.71817 0.60125 0.0
H6011 H 0.14886 0.69002 0.59141 0.0
H6012 H 0.16013 0.65834 0.62311 0.0
H6013 H 0.16054 0.67003 0.61167 0.0
H6014 H 0.16061 0.69852 0.62143 0.0
C6015 C 0.14996 0.71646 0.59447 0.0
C6016 C 0.15154 0.69194 0.59789 0.0
C6017 C 0.14878 0.72285 0.58768 0.0
C6018 C 0.15826 0.66515 0.62497 0.0
C6019 C 0.15837 0.67183 0.61838 0.0
C6020 C 0.15799 0.69659 0.61491 0.0
C6021 C 0.15339 0.70785 0.59247 0.0
C6022 C 0.15419 0.70089 0.5996 0.0
C6023 C 0.15567 0.68069 0.62039 0.0
C6024 C 0.15529 0.68765 0.61321 0.0
H6025 H 0.15656 0.71047 0.56999 0.0
H6026 H 0.15858 0.69931 0.58184 0.0
H6027 H 0.15963 0.70996 0.60967 0.0
H6028 H 0.15086 0.67788 0.64257 0.0
H6029 H 0.15087 0.6895 0.63099 0.0
C6030 C 0.35909 0.28885 0.08701 0.0
C6031 C 0.35717 0.29063 0.07794 0.0
C6032 C 0.35749 0.29538 0.0936 0.0
C6033 C 0.34475 0.31645 0.09794 0.0
H6034 H 0.36267 0.32006 0.11658 0.0
C6035 C 0.34527 0.34792 0.12078 0.0
C6036 C 0.3474 0.34672 0.1299 0.0
C6037 C 0.34596 0.34074 0.11473 0.0
C6038 C 0.35754 0.31906 0.11149 0.0
H6039 H 0.35188 0.30064 0.06872 0.0
H6040 H 0.3493 0.31209 0.08016 0.0
H6041 H 0.36485 0.30818 0.10547 0.0
H6042 H 0.35169 0.33693 0.13984 0.0
H6043 H 0.35295 0.32441 0.12925 0.0
H6044 H 0.33751 0.32742 0.1039 0.0
C6045 C 0.35195 0.30561 0.08221 0.0
C6046 C 0.35879 0.31225 0.10512 0.0
C6047 C 0.35354 0.29908 0.07563 0.0
C6048 C 0.35013 0.33812 0.13284 0.0
C6049 C 0.35085 0.33095 0.12678 0.0
C6050 C 0.34352 0.32328 0.1043 0.0
C6051 C 0.35393 0.30385 0.09127 0.0
C6052 C 0.35244 0.3109 0.09823 0.0
C6053 C 0.34882 0.3322 0.11764 0.0
C6054 C 0.34993 0.3247 0.11111 0.0
H6055 H 0.36197 0.28245 0.08902 0.0
H6056 H 0.35901 0.29377 0.10052 0.0
H6057 H 0.33965 0.31549 0.09281 0.0
H6058 H 0.3433 0.35448 0.11825 0.0
H6059 H 0.34448 0.34196 0.10772 0.0
C6060 C 0.5458 0.40507 0.18086 0.0
C6061 C 0.53706 0.40182 0.17908 0.0
C6062 C 0.55215 0.40586 0.17396 0.0
C6063 C 0.5574 0.39693 0.15144 0.0
H6064 H 0.5743 0.41693 0.15065 0.0
C6065 C 0.58294 0.40122 0.12249 0.0
C6066 C 0.59183 0.40342 0.12497 0.0
C6067 C 0.57594 0.40162 0.12877 0.0
C6068 C 0.56966 0.41127 0.15082 0.0
H6069 H 0.52814 0.39692 0.1686 0.0
H6070 H 0.53914 0.39849 0.15655 0.0
H6071 H 0.56261 0.41659 0.16219 0.0
H6072 H 0.60032 0.40782 0.13602 0.0
H6073 H 0.58811 0.40857 0.14694 0.0
H6074 H 0.56449 0.39159 0.14011 0.0
C6075 C 0.54112 0.40032 0.16331 0.0
C6076 C 0.56297 0.41107 0.15743 0.0
C6077 C 0.53478 0.39953 0.1702 0.0
C6078 C 0.59353 0.40621 0.13384 0.0
C6079 C 0.58653 0.40663 0.14011 0.0
C6080 C 0.56407 0.39715 0.14481 0.0
C6081 C 0.54991 0.40342 0.16512 0.0
C6082 C 0.5568 0.40386 0.15786 0.0
C6083 C 0.57767 0.40427 0.13767 0.0
C6084 C 0.57032 0.40428 0.14447 0.0
H6085 H 0.54776 0.407 0.1876 0.0
H6086 H 0.55888 0.40819 0.17562 0.0
H6087 H 0.55286 0.3912 0.15166 0.0
H6088 H 0.58137 0.39919 0.11568 0.0
H6089 H 0.56916 0.39989 0.12665 0.0
C6090 C 0.96003 0.61189 0.68043 0.0
C6091 C 0.95666 0.6094 0.68889 0.0
C6092 C 0.95537 0.60956 0.6726 0.0
C6093 C 0.93757 0.59426 0.66383 0.0
H6094 H 0.93449 0.61277 0.64571 0.0
C6095 C 0.90914 0.59327 0.63757 0.0
C6096 C 0.91098 0.59622 0.62879 0.0
C6097 C 0.91564 0.59404 0.64431 0.0
C6098 C 0.93541 0.60747 0.65063 0.0
H6099 H 0.94588 0.60227 0.69574 0.0
H6100 H 0.93765 0.59839 0.68213 0.0
H6101 H 0.94417 0.61568 0.65862 0.0
H6102 H 0.92126 0.60205 0.62018 0.0
H6103 H 0.93259 0.60349 0.63201 0.0
H6104 H 0.92861 0.58614 0.65594 0.0
C6105 C 0.94395 0.60206 0.68152 0.0
C6106 C 0.94096 0.60914 0.65804 0.0
C6107 C 0.94861 0.60439 0.68934 0.0
C6108 C 0.91957 0.59982 0.62689 0.0
C6109 C 0.92607 0.60064 0.63366 0.0
C6110 C 0.932 0.5926 0.65644 0.0
C6111 C 0.94723 0.60468 0.67306 0.0
C6112 C 0.94198 0.60261 0.6648 0.0
C6113 C 0.92414 0.59783 0.64246 0.0
C6114 C 0.93074 0.59924 0.64983 0.0
H6115 H 0.96618 0.61581 0.67985 0.0
H6116 H 0.95813 0.61161 0.66618 0.0
H6117 H 0.93835 0.58902 0.66884 0.0
H6118 H 0.90255 0.59063 0.63934 0.0
H6119 H 0.91388 0.59196 0.65105 0.0
C6120 C 0.60539 0.3369 0.53698 0.0
C6121 C 0.60336 0.32783 0.53889 0.0
C6122 C 0.60423 0.34358 0.5435 0.0
C6123 C 0.60309 0.34663 0.56796 0.0
H6124 H 0.5933 0.37012 0.56195 0.0
C6125 C 0.59705 0.37371 0.59506 0.0
C6126 C 0.59963 0.38258 0.59293 0.0
C6127 C 0.59669 0.36706 0.58841 0.0
C6128 C 0.59612 0.36362 0.56372 0.0
H6129 H 0.59825 0.31873 0.54909 0.0
H6130 H 0.59628 0.33037 0.56049 0.0
H6131 H 0.59424 0.35844 0.55042 0.0
H6132 H 0.60355 0.39149 0.58205 0.0
H6133 H 0.60315 0.37985 0.57051 0.0
H6134 H 0.60512 0.35182 0.5812 0.0
C6135 C 0.59889 0.33229 0.55398 0.0
C6136 C 0.59665 0.35693 0.55712 0.0
C6137 C 0.60003 0.32562 0.54744 0.0
C6138 C 0.60164 0.3847 0.58395 0.0
C6139 C 0.60131 0.37804 0.5773 0.0
C6140 C 0.60259 0.35332 0.57455 0.0
C6141 C 0.60103 0.34134 0.5521 0.0
C6142 C 0.60018 0.34837 0.55916 0.0
C6143 C 0.59894 0.36911 0.57947 0.0
C6144 C 0.59913 0.36191 0.57251 0.0
H6145 H 0.6081 0.33882 0.5305 0.0
H6146 H 0.60606 0.35047 0.54189 0.0
H6147 H 0.60597 0.34015 0.56972 0.0
H6148 H 0.59553 0.37181 0.60191 0.0
H6149 H 0.59471 0.36028 0.59029 0.0
C6150 C 0.42823 0.64261 0.79471 0.0
C6151 C 0.4306 0.64977 0.789 0.0
C6152 C 0.42157 0.64374 0.80125 0.0
C6153 C 0.40233 0.65836 0.8077 0.0
H6154 H 0.40575 0.64709 0.83093 0.0
C6155 C 0.37927 0.66522 0.83848 0.0
C6156 C 0.37674 0.65765 0.84357 0.0
C6157 C 0.38567 0.66442 0.83162 0.0
C6158 C 0.40466 0.65021 0.82445 0.0
H6159 H 0.4279 0.66375 0.78571 0.0
H6160 H 0.41636 0.66579 0.79723 0.0
H6161 H 0.41731 0.64548 0.81943 0.0
H6162 H 0.37894 0.64331 0.84547 0.0
H6163 H 0.39004 0.64191 0.83348 0.0
H6164 H 0.38969 0.66317 0.81282 0.0
C6165 C 0.41952 0.65924 0.79654 0.0
C6166 C 0.41128 0.64928 0.81785 0.0
C6167 C 0.42615 0.65809 0.78995 0.0
C6168 C 0.38068 0.64925 0.84161 0.0
C6169 C 0.38711 0.64847 0.83481 0.0
C6170 C 0.39572 0.65934 0.81434 0.0
C6171 C 0.41716 0.65208 0.80228 0.0
C6172 C 0.41018 0.65328 0.80936 0.0
C6173 C 0.38973 0.65605 0.82978 0.0
C6174 C 0.39679 0.65521 0.82276 0.0
H6175 H 0.43142 0.63608 0.79403 0.0
H6176 H 0.41981 0.63803 0.80542 0.0
H6177 H 0.4012 0.66144 0.80121 0.0
H6178 H 0.37631 0.67177 0.8398 0.0
H6179 H 0.38759 0.67039 0.82788 0.0
C6180 C 0.07394 0.35149 0.30024 0.0
C6181 C 0.06951 0.35987 0.30011 0.0
C6182 C 0.08174 0.35029 0.30541 0.0
C6183 C 0.09365 0.36031 0.32486 0.0
H6184 H 0.11412 0.34633 0.31652 0.0
C6185 C 0.12774 0.36152 0.34292 0.0
C6186 C 0.13209 0.35327 0.3446 0.0
C6187 C 0.1203 0.36191 0.3372 0.0
C6188 C 0.10841 0.35018 0.31896 0.0
H6189 H 0.07002 0.37367 0.30491 0.0
H6190 H 0.08364 0.37164 0.31379 0.0
H6191 H 0.10075 0.34781 0.30697 0.0
H6192 H 0.13219 0.339 0.3414 0.0
H6193 H 0.11909 0.33969 0.33137 0.0
H6194 H 0.10131 0.36277 0.33677 0.0
C6195 C 0.08098 0.3659 0.31013 0.0
C6196 C 0.10075 0.35102 0.31351 0.0
C6197 C 0.07318 0.36708 0.30503 0.0
C6198 C 0.12893 0.34544 0.34027 0.0
C6199 C 0.12149 0.34584 0.33449 0.0
C6200 C 0.10129 0.3595 0.33026 0.0
C6201 C 0.08529 0.35746 0.31051 0.0
C6202 C 0.09332 0.35619 0.31636 0.0
C6203 C 0.11702 0.35407 0.33301 0.0
C6204 C 0.1088 0.35453 0.32734 0.0
H6205 H 0.07123 0.34579 0.29655 0.0
H6206 H 0.08486 0.34368 0.3056 0.0
H6207 H 0.08796 0.36414 0.32737 0.0
H6208 H 0.12993 0.36766 0.34622 0.0
H6209 H 0.11706 0.36837 0.33611 0.0
C6210 C 0.35694 0.7077 0.4312 0.0
C6211 C 0.35934 0.70374 0.43945 0.0
C6212 C 0.35565 0.70237 0.42356 0.0
C6213 C 0.36148 0.67989 0.41436 0.0
H6214 H 0.34258 0.68507 0.39712 0.0
C6215 C 0.35878 0.6598 0.38152 0.0
C6216 C 0.3501 0.6571 0.37878 0.0
C6217 C 0.3599 0.66615 0.38835 0.0
C6218 C 0.34786 0.6835 0.4019 0.0
H6219 H 0.36222 0.69102 0.44606 0.0
H6220 H 0.35966 0.68174 0.43287 0.0
H6221 H 0.34425 0.69459 0.41039 0.0
H6222 H 0.33578 0.65934 0.38085 0.0
H6223 H 0.33772 0.67018 0.393 0.0
H6224 H 0.3649 0.66862 0.40611 0.0
C6225 C 0.35893 0.68899 0.43225 0.0
C6226 C 0.34889 0.68902 0.40945 0.0
C6227 C 0.36027 0.69431 0.43987 0.0
C6228 C 0.34256 0.66114 0.38288 0.0
C6229 C 0.34368 0.66746 0.38977 0.0
C6230 C 0.36043 0.67435 0.40685 0.0
C6231 C 0.35671 0.69295 0.42397 0.0
C6232 C 0.35568 0.68724 0.41581 0.0
C6233 C 0.35237 0.66993 0.3927 0.0
C6234 C 0.3536 0.67606 0.40053 0.0
H6235 H 0.35606 0.71493 0.43065 0.0
H6236 H 0.354 0.70565 0.41728 0.0
H6237 H 0.36689 0.6784 0.41902 0.0
H6238 H 0.36476 0.65678 0.3786 0.0
H6239 H 0.36669 0.66801 0.39031 0.0
C6240 C 0.11216 0.29395 0.01356 0.0
C6241 C 0.1215 0.29375 0.01188 0.0
C6242 C 0.10872 0.29883 0.02083 0.0
C6243 C 0.11518 0.3097 0.04234 0.0
H6244 H 0.095 0.32557 0.03735 0.0
C6245 C 0.10104 0.33402 0.0692 0.0
C6246 C 0.09981 0.34294 0.06625 0.0
C6247 C 0.10251 0.32707 0.063 0.0
C6248 C 0.10062 0.32116 0.03886 0.0
H6249 H 0.13457 0.29815 0.01676 0.0
H6250 H 0.12858 0.30672 0.02938 0.0
H6251 H 0.1001 0.315 0.02587 0.0
H6252 H 0.09868 0.35149 0.05451 0.0
H6253 H 0.1013 0.33941 0.04373 0.0
H6254 H 0.11593 0.31612 0.05519 0.0
C6255 C 0.12391 0.30309 0.02511 0.0
C6256 C 0.10349 0.31504 0.03231 0.0
C6257 C 0.12734 0.29826 0.01782 0.0
C6258 C 0.0997 0.3447 0.05699 0.0
C6259 C 0.10112 0.33776 0.05081 0.0
C6260 C 0.11229 0.31581 0.04889 0.0
C6261 C 0.11455 0.30355 0.02662 0.0
C6262 C 0.11092 0.30936 0.03392 0.0
C6263 C 0.1027 0.32889 0.05374 0.0
C6264 C 0.10509 0.32173 0.04716 0.0
H6265 H 0.10748 0.29059 0.00907 0.0
H6266 H 0.10148 0.29898 0.02187 0.0
H6267 H 0.12086 0.30535 0.04382 0.0
H6268 H 0.10121 0.33246 0.07629 0.0
H6269 H 0.10362 0.32028 0.06547 0.0
C6270 C 0.95905 0.85741 0.29838 0.0
C6271 C 0.9619 0.86521 0.29382 0.0
C6272 C 0.95722 0.85768 0.30757 0.0
C6273 C 0.9604 0.87121 0.32829 0.0
H6274 H 0.93774 0.86017 0.33534 0.0
C6275 C 0.94183 0.88012 0.3612 0.0
C6276 C 0.93688 0.87334 0.36561 0.0
C6277 C 0.94604 0.87839 0.35299 0.0
C6278 C 0.94418 0.86315 0.33355 0.0
H6279 H 0.96534 0.87935 0.29543 0.0
H6280 H 0.96216 0.87982 0.31148 0.0
H6281 H 0.94311 0.85846 0.32003 0.0
H6282 H 0.93278 0.85929 0.36496 0.0
H6283 H 0.94032 0.8562 0.35076 0.0
H6284 H 0.96137 0.87602 0.34182 0.0
C6285 C 0.96142 0.87346 0.30795 0.0
C6286 C 0.94725 0.86217 0.32475 0.0
C6287 C 0.96324 0.8732 0.29875 0.0
C6288 C 0.93657 0.86467 0.36178 0.0
C6289 C 0.94081 0.86292 0.35358 0.0
C6290 C 0.95733 0.87217 0.33712 0.0
C6291 C 0.9582 0.86575 0.31243 0.0
C6292 C 0.95534 0.86628 0.32198 0.0
C6293 C 0.94544 0.86981 0.34899 0.0
C6294 C 0.94912 0.86823 0.33983 0.0
H6295 H 0.95811 0.85111 0.29481 0.0
H6296 H 0.95491 0.85158 0.31086 0.0
H6297 H 0.96672 0.87436 0.32639 0.0
H6298 H 0.94232 0.88684 0.36403 0.0
H6299 H 0.94949 0.88387 0.34963 0.0
C6300 C 0.39246 0.71286 0.51838 0.0
C6301 C 0.38837 0.72114 0.52056 0.0
C6302 C 0.39518 0.70691 0.52512 0.0
C6303 C 0.39073 0.70118 0.5488 0.0
H6304 H 0.41246 0.68683 0.54627 0.0
C6305 C 0.39738 0.66978 0.57054 0.0
C6306 C 0.40624 0.66812 0.57349 0.0
C6307 C 0.39558 0.67669 0.56444 0.0
C6308 C 0.40642 0.69085 0.54714 0.0
H6309 H 0.38403 0.72967 0.53157 0.0
H6310 H 0.38896 0.71936 0.54334 0.0
H6311 H 0.40891 0.69827 0.53507 0.0
H6312 H 0.42018 0.67248 0.57231 0.0
H6313 H 0.41701 0.68468 0.56176 0.0
H6314 H 0.38829 0.69384 0.56092 0.0
C6315 C 0.38995 0.71743 0.5364 0.0
C6316 C 0.40432 0.69734 0.54065 0.0
C6317 C 0.38722 0.72339 0.52966 0.0
C6318 C 0.41326 0.67362 0.57023 0.0
C6319 C 0.41146 0.68055 0.56411 0.0
C6320 C 0.39282 0.6947 0.55528 0.0
C6321 C 0.3939 0.70908 0.53422 0.0
C6322 C 0.3964 0.70252 0.54136 0.0
C6323 C 0.4026 0.68215 0.56113 0.0
C6324 C 0.40064 0.68939 0.55448 0.0
H6325 H 0.39356 0.71097 0.51144 0.0
H6326 H 0.3981 0.7005 0.52318 0.0
H6327 H 0.38453 0.70498 0.54952 0.0
H6328 H 0.39179 0.66576 0.573 0.0
H6329 H 0.38869 0.67766 0.5622 0.0
C6330 C 0.55524 0.13788 0.79623 0.0
C6331 C 0.54752 0.14236 0.79307 0.0
C6332 C 0.55696 0.13724 0.8054 0.0
C6333 C 0.55215 0.14818 0.82699 0.0
H6334 H 0.56271 0.12624 0.83649 0.0
C6335 C 0.56288 0.14349 0.86445 0.0
C6336 C 0.57142 0.13951 0.86566 0.0
C6337 C 0.55891 0.14381 0.85592 0.0
C6338 C 0.55979 0.13242 0.83394 0.0
H6339 H 0.53547 0.14959 0.79709 0.0
H6340 H 0.53846 0.14842 0.81323 0.0
H6341 H 0.55743 0.12659 0.82102 0.0
H6342 H 0.58266 0.13319 0.85874 0.0
H6343 H 0.57572 0.13366 0.84398 0.0
H6344 H 0.55467 0.15402 0.83994 0.0
C6345 C 0.54321 0.14546 0.80855 0.0
C6346 C 0.55677 0.13263 0.82507 0.0
C6347 C 0.54146 0.14607 0.79933 0.0
C6348 C 0.57597 0.13607 0.85811 0.0
C6349 C 0.572 0.13635 0.84964 0.0
C6350 C 0.55516 0.14796 0.8359 0.0
C6351 C 0.551 0.14105 0.81168 0.0
C6352 C 0.55313 0.14057 0.82142 0.0
C6353 C 0.56339 0.14012 0.84845 0.0
C6354 C 0.55923 0.14014 0.83938 0.0
H6355 H 0.55999 0.13485 0.79159 0.0
H6356 H 0.56309 0.1339 0.80757 0.0
H6357 H 0.54943 0.15442 0.82436 0.0
H6358 H 0.55918 0.14615 0.87013 0.0
H6359 H 0.55226 0.14675 0.85519 0.0
C6360 C 0.11349 0.70355 0.49816 0.0
C6361 C 0.11806 0.71177 0.49693 0.0
C6362 C 0.11002 0.6988 0.49084 0.0
C6363 C 0.11318 0.69596 0.46651 0.0
H6364 H 0.09123 0.68183 0.46863 0.0
C6365 C 0.10087 0.6722 0.43817 0.0
C6366 C 0.09881 0.66341 0.44108 0.0
C6367 C 0.10199 0.67919 0.4444 0.0
C6368 C 0.09737 0.68574 0.46794 0.0
H6369 H 0.12236 0.72158 0.48702 0.0
H6370 H 0.11615 0.71335 0.47419 0.0
H6371 H 0.09541 0.69227 0.4806 0.0
H6372 H 0.09587 0.65515 0.45271 0.0
H6373 H 0.09782 0.66732 0.46356 0.0
H6374 H 0.11521 0.68929 0.45391 0.0
C6375 C 0.11536 0.71052 0.48084 0.0
C6376 C 0.09978 0.69171 0.4748 0.0
C6377 C 0.11884 0.71528 0.4882 0.0
C6378 C 0.09753 0.66184 0.45029 0.0
C6379 C 0.09857 0.66883 0.45649 0.0
C6380 C 0.11074 0.69002 0.45962 0.0
C6381 C 0.11099 0.70217 0.48207 0.0
C6382 C 0.10784 0.69672 0.47428 0.0
C6383 C 0.10097 0.67755 0.45364 0.0
C6384 C 0.10292 0.68469 0.46037 0.0
H6385 H 0.11264 0.70072 0.50481 0.0
H6386 H 0.1068 0.69235 0.49204 0.0
H6387 H 0.11948 0.69964 0.46592 0.0
H6388 H 0.10193 0.67358 0.43111 0.0
H6389 H 0.10378 0.68585 0.442 0.0
C6390 C 0.55551 0.86745 0.71086 0.0
C6391 C 0.54758 0.86325 0.71392 0.0
C6392 C 0.55723 0.86827 0.7017 0.0
C6393 C 0.55187 0.85821 0.67983 0.0
H6394 H 0.56322 0.88002 0.67091 0.0
C6395 C 0.56253 0.86347 0.64246 0.0
C6396 C 0.57117 0.86724 0.64127 0.0
C6397 C 0.55862 0.86308 0.65102 0.0
C6398 C 0.56008 0.87387 0.6733 0.0
H6399 H 0.53517 0.85671 0.70976 0.0
H6400 H 0.53818 0.85818 0.69364 0.0
H6401 H 0.55804 0.87939 0.6864 0.0
H6402 H 0.58264 0.87313 0.64822 0.0
H6403 H 0.57582 0.87253 0.66302 0.0
H6404 H 0.55408 0.85266 0.66671 0.0
C6405 C 0.54308 0.86078 0.69838 0.0
C6406 C 0.55711 0.87351 0.68218 0.0
C6407 C 0.54133 0.86 0.70759 0.0
C6408 C 0.57588 0.87041 0.64884 0.0
C6409 C 0.57197 0.87006 0.65734 0.0
C6410 C 0.55483 0.85858 0.67092 0.0
C6411 C 0.55107 0.86492 0.69534 0.0
C6412 C 0.55318 0.8656 0.68562 0.0
C6413 C 0.56327 0.86648 0.65853 0.0
C6414 C 0.55918 0.86634 0.66763 0.0
H6415 H 0.56041 0.87012 0.71556 0.0
H6416 H 0.5635 0.87139 0.6996 0.0
H6417 H 0.54891 0.852 0.6823 0.0
H6418 H 0.55871 0.86102 0.63677 0.0
H6419 H 0.55189 0.8603 0.65174 0.0
C6420 C 0.39524 0.29617 0.99162 0.0
C6421 C 0.38594 0.296 0.99352 0.0
C6422 C 0.39854 0.30101 0.98426 0.0
C6423 C 0.39161 0.31201 0.96295 0.0
H6424 H 0.41205 0.32773 0.96754 0.0
C6425 C 0.405 0.33669 0.93603 0.0
C6426 C 0.40643 0.34555 0.9391 0.0
C6427 C 0.4037 0.32964 0.94215 0.0
C6428 C 0.40635 0.32337 0.96614 0.0
H6429 H 0.37278 0.30042 0.98891 0.0
H6430 H 0.37853 0.30895 0.97616 0.0
H6431 H 0.40719 0.31708 0.97904 0.0
H6432 H 0.4081 0.35389 0.95095 0.0
H6433 H 0.40572 0.34165 0.96158 0.0
H6434 H 0.39053 0.31857 0.9502 0.0
C6435 C 0.38328 0.30531 0.98033 0.0
C6436 C 0.40362 0.31719 0.9727 0.0
C6437 C 0.37999 0.30051 0.9877 0.0
C6438 C 0.4069 0.34715 0.94838 0.0
C6439 C 0.40564 0.34011 0.95448 0.0
C6440 C 0.39435 0.31817 0.95639 0.0
C6441 C 0.3926 0.30575 0.9786 0.0
C6442 C 0.3961 0.31157 0.97125 0.0
C6443 C 0.40386 0.3313 0.95144 0.0
C6444 C 0.40163 0.32405 0.95798 0.0
H6445 H 0.4 0.29282 0.99601 0.0
H6446 H 0.40575 0.30114 0.98306 0.0
H6447 H 0.38586 0.3077 0.96158 0.0
H6448 H 0.40457 0.33526 0.92892 0.0
H6449 H 0.40243 0.32291 0.9396 0.0
C6450 C 0.96104 0.13407 0.20885 0.0
C6451 C 0.96985 0.13739 0.21008 0.0
C6452 C 0.95732 0.13342 0.20028 0.0
C6453 C 0.95901 0.14221 0.1773 0.0
H6454 H 0.94525 0.12069 0.17153 0.0
C6455 C 0.94313 0.13539 0.14213 0.0
C6456 C 0.93444 0.13155 0.14215 0.0
C6457 C 0.94799 0.13628 0.15015 0.0
C6458 C 0.949 0.12678 0.17305 0.0
H6459 H 0.98164 0.14269 0.20325 0.0
H6460 H 0.97512 0.1415 0.18818 0.0
H6461 H 0.95283 0.12182 0.18597 0.0
H6462 H 0.92385 0.12613 0.15064 0.0
H6463 H 0.93227 0.12772 0.16455 0.0
H6464 H 0.95506 0.1472 0.16438 0.0
C6465 C 0.9711 0.13945 0.1939 0.0
C6466 C 0.95335 0.12742 0.18133 0.0
C6467 C 0.97486 0.14006 0.20251 0.0
C6468 C 0.93062 0.1289 0.15037 0.0
C6469 C 0.93545 0.12981 0.15834 0.0
C6470 C 0.95463 0.14157 0.16899 0.0
C6471 C 0.96231 0.13606 0.1927 0.0
C6472 C 0.95828 0.1352 0.18361 0.0
C6473 C 0.94424 0.13338 0.15833 0.0
C6474 C 0.94944 0.13391 0.16685 0.0
H6475 H 0.95705 0.13185 0.21453 0.0
H6476 H 0.9505 0.13088 0.19959 0.0
H6477 H 0.96272 0.1483 0.1789 0.0
H6478 H 0.94626 0.13746 0.13589 0.0
H6479 H 0.95477 0.13903 0.14991 0.0
C6480 C 0.02241 0.12805 0.29693 0.0
C6481 C 0.01609 0.12245 0.29263 0.0
C6482 C 0.02951 0.12434 0.30188 0.0
C6483 C 0.03525 0.10395 0.31453 0.0
H6484 H 0.059 0.11493 0.3156 0.0
C6485 C 0.0592 0.09968 0.34462 0.0
C6486 C 0.06853 0.09909 0.34305 0.0
C6487 C 0.05322 0.10126 0.33755 0.0
C6488 C 0.05245 0.11169 0.3153 0.0
H6489 H 0.01241 0.10854 0.28994 0.0
H6490 H 0.02487 0.10205 0.2985 0.0
H6491 H 0.04808 0.12019 0.30452 0.0
H6492 H 0.0789 0.0994 0.3328 0.0
H6493 H 0.06843 0.1021 0.32039 0.0
H6494 H 0.03957 0.09553 0.32539 0.0
C6495 C 0.02428 0.10932 0.29811 0.0
C6496 C 0.04616 0.11477 0.30901 0.0
C6497 C 0.0172 0.11304 0.29312 0.0
C6498 C 0.07174 0.09979 0.3342 0.0
C6499 C 0.06576 0.10142 0.32712 0.0
C6500 C 0.04152 0.10089 0.32084 0.0
C6501 C 0.03043 0.11493 0.30266 0.0
C6502 C 0.03743 0.11105 0.30867 0.0
C6503 C 0.05645 0.1023 0.32873 0.0
C6504 C 0.05013 0.10484 0.32141 0.0
H6505 H 0.02179 0.13533 0.2966 0.0
H6506 H 0.03407 0.12886 0.30537 0.0
H6507 H 0.02856 0.10098 0.3145 0.0
H6508 H 0.05652 0.09908 0.35136 0.0
H6509 H 0.04611 0.10199 0.33904 0.0
C6510 C 0.13078 0.80324 0.53508 0.0
C6511 C 0.13825 0.79742 0.53552 0.0
C6512 C 0.13136 0.81205 0.5384 0.0
C6513 C 0.14437 0.82574 0.55453 0.0
H6514 H 0.13251 0.8459 0.54289 0.0
C6515 C 0.14756 0.86204 0.56814 0.0
C6516 C 0.13956 0.86712 0.56852 0.0
C6517 C 0.14782 0.85386 0.56346 0.0
C6518 C 0.1358 0.84032 0.54626 0.0
H6519 H 0.15232 0.79644 0.53944 0.0
H6520 H 0.15334 0.81181 0.54521 0.0
H6521 H 0.13222 0.83103 0.53583 0.0
H6522 H 0.12566 0.86774 0.564 0.0
H6523 H 0.12607 0.85341 0.55597 0.0
H6524 H 0.14786 0.83498 0.56501 0.0
C6525 C 0.14697 0.8095 0.54246 0.0
C6526 C 0.13564 0.8318 0.54221 0.0
C6527 C 0.14639 0.8007 0.53914 0.0
C6528 C 0.1319 0.86394 0.56393 0.0
C6529 C 0.13216 0.85577 0.55924 0.0
C6530 C 0.14454 0.83425 0.55857 0.0
C6531 C 0.13943 0.81525 0.54224 0.0
C6532 C 0.13988 0.8244 0.54633 0.0
C6533 C 0.1401 0.85058 0.55904 0.0
C6534 C 0.14021 0.84163 0.55451 0.0
H6535 H 0.12438 0.80089 0.53243 0.0
H6536 H 0.12538 0.81626 0.53823 0.0
H6537 H 0.14756 0.82016 0.55797 0.0
H6538 H 0.15357 0.86425 0.57166 0.0
H6539 H 0.15408 0.85008 0.56335 0.0
C6540 C 0.49087 0.88728 0.79404 0.0
C6541 C 0.48776 0.88391 0.78577 0.0
C6542 C 0.4848 0.89038 0.8005 0.0
C6543 C 0.46151 0.89839 0.80412 0.0
H6544 H 0.46589 0.89034 0.82849 0.0
C6545 C 0.43575 0.90297 0.83323 0.0
C6546 C 0.43926 0.9047 0.84183 0.0
C6547 C 0.44155 0.90114 0.82603 0.0
C6548 C 0.46463 0.89278 0.82176 0.0
H6549 H 0.47581 0.88142 0.77772 0.0
H6550 H 0.46517 0.88689 0.78905 0.0
H6551 H 0.47615 0.88583 0.81659 0.0
H6552 H 0.45156 0.90643 0.84951 0.0
H6553 H 0.46166 0.9034 0.83697 0.0
H6554 H 0.44997 0.90536 0.80935 0.0
C6555 C 0.47234 0.88714 0.79049 0.0
C6556 C 0.47051 0.89016 0.81492 0.0
C6557 C 0.47843 0.88401 0.784 0.0
C6558 C 0.44866 0.90496 0.843 0.0
C6559 C 0.45444 0.90319 0.83581 0.0
C6560 C 0.45563 0.90105 0.81099 0.0
C6561 C 0.47546 0.89022 0.79886 0.0
C6562 C 0.46906 0.89297 0.80604 0.0
C6563 C 0.45096 0.90104 0.82729 0.0
C6564 C 0.45715 0.8983 0.81991 0.0
H6565 H 0.49802 0.88751 0.79553 0.0
H6566 H 0.48744 0.89289 0.80681 0.0
H6567 H 0.46026 0.90071 0.79735 0.0
H6568 H 0.42852 0.90267 0.83215 0.0
H6569 H 0.43863 0.89945 0.81958 0.0
C6570 C 0.37689 0.20628 0.03551 0.0
C6571 C 0.36946 0.21209 0.03642 0.0
C6572 C 0.37652 0.19747 0.03885 0.0
C6573 C 0.3645 0.18367 0.05564 0.0
H6574 H 0.37625 0.16377 0.04344 0.0
C6575 C 0.36405 0.14751 0.07007 0.0
C6576 C 0.37244 0.14309 0.07017 0.0
C6577 C 0.3629 0.15546 0.06513 0.0
C6578 C 0.37297 0.16927 0.04694 0.0
H6579 H 0.35568 0.2131 0.04121 0.0
H6580 H 0.355 0.19772 0.04699 0.0
H6581 H 0.37567 0.17856 0.03628 0.0
H6582 H 0.38606 0.14328 0.06484 0.0
H6583 H 0.38409 0.15717 0.05632 0.0
H6584 H 0.36191 0.17441 0.06635 0.0
C6585 C 0.36119 0.20002 0.04386 0.0
C6586 C 0.37265 0.17775 0.04285 0.0
C6587 C 0.36157 0.20883 0.04054 0.0
C6588 C 0.37955 0.1466 0.06498 0.0
C6589 C 0.37839 0.15451 0.06002 0.0
C6590 C 0.36481 0.17518 0.05972 0.0
C6591 C 0.36869 0.19426 0.04315 0.0
C6592 C 0.36851 0.18508 0.0472 0.0
C6593 C 0.3701 0.15911 0.06015 0.0
C6594 C 0.36915 0.16791 0.05547 0.0
H6595 H 0.38311 0.20862 0.03247 0.0
H6596 H 0.38247 0.19327 0.0383 0.0
H6597 H 0.36138 0.18919 0.05925 0.0
H6598 H 0.35846 0.145 0.07403 0.0
H6599 H 0.3564 0.1588 0.06529 0.0
C6600 C 0.02391 0.87871 0.21481 0.0
C6601 C 0.02073 0.88509 0.22102 0.0
C6602 C 0.03022 0.88114 0.20829 0.0
C6603 C 0.04709 0.89851 0.20199 0.0
H6604 H 0.04322 0.88861 0.1782 0.0
C6605 C 0.06755 0.90923 0.17023 0.0
C6606 C 0.0702 0.90215 0.16451 0.0
C6607 C 0.06176 0.90757 0.17748 0.0
C6608 C 0.04444 0.89137 0.18482 0.0
H6609 H 0.02184 0.899 0.22539 0.0
H6610 H 0.03285 0.9033 0.21392 0.0
H6611 H 0.03272 0.88495 0.19019 0.0
H6612 H 0.06923 0.88771 0.16224 0.0
H6613 H 0.05911 0.88487 0.17476 0.0
H6614 H 0.05883 0.90499 0.1965 0.0
C6615 C 0.03052 0.89638 0.21416 0.0
C6616 C 0.03844 0.88926 0.19171 0.0
C6617 C 0.02422 0.89392 0.22073 0.0
C6618 C 0.06714 0.89336 0.16636 0.0
C6619 C 0.06135 0.89172 0.17355 0.0
C6620 C 0.05311 0.90066 0.19505 0.0
C6621 C 0.03348 0.89004 0.20777 0.0
C6622 C 0.03975 0.89268 0.20041 0.0
C6623 C 0.05848 0.89881 0.17912 0.0
C6624 C 0.05191 0.89701 0.18643 0.0
H6625 H 0.02149 0.87181 0.21497 0.0
H6626 H 0.03253 0.87603 0.20363 0.0
H6627 H 0.04832 0.90122 0.20863 0.0
H6628 H 0.06975 0.91608 0.16896 0.0
H6629 H 0.05963 0.91318 0.18164 0.0
C6630 C 0.37319 0.79772 0.46339 0.0
C6631 C 0.3651 0.79286 0.46231 0.0
C6632 C 0.37352 0.80697 0.46154 0.0
C6633 C 0.36205 0.82392 0.44772 0.0
H6634 H 0.37638 0.84104 0.46134 0.0
C6635 C 0.36461 0.86101 0.43675 0.0
C6636 C 0.37331 0.8648 0.43684 0.0
C6637 C 0.36288 0.85284 0.4411 0.0
C6638 C 0.37239 0.83633 0.45743 0.0
H6639 H 0.3509 0.79402 0.45899 0.0
H6640 H 0.35148 0.81014 0.45574 0.0
H6641 H 0.37474 0.82556 0.46674 0.0
H6642 H 0.3869 0.86322 0.44203 0.0
H6643 H 0.38397 0.84885 0.44938 0.0
H6644 H 0.3599 0.83453 0.43828 0.0
C6645 C 0.35761 0.80677 0.45785 0.0
C6646 C 0.37145 0.82747 0.46054 0.0
C6647 C 0.35727 0.79753 0.45971 0.0
C6648 C 0.38015 0.86041 0.4417 0.0
C6649 C 0.37844 0.85222 0.44602 0.0
C6650 C 0.36302 0.83275 0.44461 0.0
C6651 C 0.36577 0.81156 0.45857 0.0
C6652 C 0.36633 0.82114 0.45567 0.0
C6653 C 0.36983 0.84823 0.44562 0.0
C6654 C 0.36828 0.83905 0.44937 0.0
H6655 H 0.37936 0.79432 0.4653 0.0
H6656 H 0.37994 0.81044 0.46208 0.0
H6657 H 0.35819 0.81918 0.44373 0.0
H6658 H 0.35919 0.86417 0.43303 0.0
H6659 H 0.35613 0.85003 0.44078 0.0
C6660 C 0.48385 0.11424 0.72192 0.0
C6661 C 0.48558 0.12353 0.72274 0.0
C6662 C 0.47773 0.11104 0.71551 0.0
C6663 C 0.45869 0.118 0.70108 0.0
H6664 H 0.46611 0.09794 0.68608 0.0
C6665 C 0.43528 0.10293 0.67393 0.0
C6666 C 0.43926 0.10157 0.66547 0.0
C6667 C 0.44063 0.10483 0.68144 0.0
C6668 C 0.46395 0.10355 0.69021 0.0
H6669 H 0.482 0.13677 0.71771 0.0
H6670 H 0.47134 0.1312 0.70651 0.0
H6671 H 0.47587 0.10296 0.69833 0.0
H6672 H 0.45198 0.10077 0.65833 0.0
H6673 H 0.46132 0.10412 0.67142 0.0
H6674 H 0.44688 0.11874 0.69285 0.0
C6675 C 0.47471 0.12638 0.71083 0.0
C6676 C 0.46949 0.10636 0.69728 0.0
C6677 C 0.48087 0.12957 0.71718 0.0
C6678 C 0.44872 0.10187 0.66474 0.0
C6679 C 0.45407 0.10371 0.67225 0.0
C6680 C 0.45312 0.11515 0.69406 0.0
C6681 C 0.47314 0.11707 0.70985 0.0
C6682 C 0.46698 0.1137 0.70273 0.0
C6683 C 0.45008 0.10534 0.68066 0.0
C6684 C 0.45574 0.10796 0.68848 0.0
H6685 H 0.48743 0.10941 0.72606 0.0
H6686 H 0.47661 0.10383 0.71496 0.0
H6687 H 0.45653 0.12362 0.70521 0.0
H6688 H 0.42801 0.10282 0.6747 0.0
H6689 H 0.43737 0.10596 0.68784 0.0
C6690 C 0.14606 0.2061 0.96596 0.0
C6691 C 0.1384 0.20938 0.97047 0.0
C6692 C 0.14633 0.1972 0.96284 0.0
C6693 C 0.13127 0.17866 0.95602 0.0
H6694 H 0.153 0.16414 0.9573 0.0
C6695 C 0.13162 0.14187 0.94368 0.0
C6696 C 0.1391 0.13919 0.93853 0.0
C6697 C 0.13175 0.15003 0.94838 0.0
C6698 C 0.1469 0.16814 0.95683 0.0
H6699 H 0.12506 0.20584 0.97534 0.0
H6700 H 0.12558 0.19029 0.97 0.0
H6701 H 0.15282 0.17916 0.96406 0.0
H6702 H 0.15264 0.14288 0.93441 0.0
H6703 H 0.15285 0.15716 0.94256 0.0
H6704 H 0.12538 0.16775 0.94868 0.0
C6705 C 0.13135 0.19462 0.9688 0.0
C6706 C 0.1468 0.17674 0.96071 0.0
C6707 C 0.13109 0.20351 0.97195 0.0
C6708 C 0.14681 0.14472 0.93839 0.0
C6709 C 0.14693 0.1529 0.94308 0.0
C6710 C 0.13138 0.17009 0.95214 0.0
C6711 C 0.13893 0.19139 0.96413 0.0
C6712 C 0.13899 0.18212 0.96031 0.0
C6713 C 0.13935 0.15572 0.94802 0.0
C6714 C 0.1392 0.16472 0.95246 0.0
H6715 H 0.15185 0.21042 0.9648 0.0
H6716 H 0.15225 0.19495 0.9592 0.0
H6717 H 0.1252 0.18269 0.95546 0.0
H6718 H 0.12563 0.13768 0.94404 0.0
H6719 H 0.12586 0.15191 0.95227 0.0
C6720 C 0.29043 0.02131 0.11865 0.0
C6721 C 0.29468 0.01284 0.11915 0.0
C6722 C 0.29496 0.02873 0.11495 0.0
C6723 C 0.31457 0.03482 0.1006 0.0
H6724 H 0.3135 0.05768 0.11323 0.0
C6725 C 0.34149 0.06253 0.09652 0.0
C6726 C 0.33873 0.0716 0.09645 0.0
C6727 C 0.33527 0.05564 0.09818 0.0
C6728 C 0.31376 0.05139 0.10953 0.0
H6729 H 0.3069 0.00549 0.11587 0.0
H6730 H 0.31482 0.01841 0.10965 0.0
H6731 H 0.30412 0.04511 0.11824 0.0
H6732 H 0.32726 0.08055 0.09788 0.0
H6733 H 0.31635 0.06847 0.10077 0.0
H6734 H 0.3244 0.04103 0.09206 0.0
C6735 C 0.30798 0.01933 0.11202 0.0
C6736 C 0.30838 0.04418 0.1124 0.0
C6737 C 0.30347 0.01194 0.11571 0.0
C6738 C 0.32957 0.07362 0.09784 0.0
C6739 C 0.32335 0.06671 0.09958 0.0
C6740 C 0.31997 0.04201 0.09776 0.0
C6741 C 0.30381 0.02784 0.11164 0.0
C6742 C 0.30885 0.03576 0.10807 0.0
C6743 C 0.32615 0.05765 0.09985 0.0
C6744 C 0.31975 0.05033 0.10229 0.0
H6745 H 0.28368 0.02225 0.12128 0.0
H6746 H 0.29152 0.03518 0.11469 0.0
H6747 H 0.31497 0.02849 0.09699 0.0
H6748 H 0.34849 0.06077 0.09539 0.0
H6749 H 0.33767 0.04875 0.09843 0.0
C6750 C 0.79485 0.49013 0.89267 0.0
C6751 C 0.79498 0.49214 0.88344 0.0
C6752 C 0.79934 0.48252 0.89597 0.0
C6753 C 0.80928 0.46066 0.88898 0.0
H6754 H 0.8247 0.4639 0.90978 0.0
C6755 C 0.83843 0.4365 0.89712 0.0
C6756 C 0.84022 0.43435 0.90613 0.0
C6757 C 0.83198 0.44298 0.89492 0.0
C6758 C 0.82031 0.46283 0.90405 0.0
H6759 H 0.79962 0.48753 0.87042 0.0
H6760 H 0.80752 0.47434 0.87617 0.0
H6761 H 0.81495 0.47622 0.9049 0.0
H6762 H 0.83654 0.43727 0.91991 0.0
H6763 H 0.82516 0.44858 0.91605 0.0
H6764 H 0.81477 0.44735 0.88803 0.0
C6765 C 0.80392 0.47861 0.88086 0.0
C6766 C 0.81472 0.46989 0.90126 0.0
C6767 C 0.79947 0.48623 0.87757 0.0
C6768 C 0.83528 0.43875 0.9129 0.0
C6769 C 0.82883 0.44527 0.9107 0.0
C6770 C 0.81486 0.45361 0.89178 0.0
C6771 C 0.804 0.47672 0.8901 0.0
C6772 C 0.80927 0.46894 0.89359 0.0
C6773 C 0.82713 0.44749 0.90167 0.0
C6774 C 0.82057 0.45467 0.89924 0.0
H6775 H 0.7915 0.49459 0.89737 0.0
H6776 H 0.79921 0.48121 0.90311 0.0
H6777 H 0.80503 0.45966 0.88315 0.0
H6778 H 0.84203 0.43315 0.89174 0.0
H6779 H 0.83093 0.44459 0.88791 0.0
C6780 C 0.79777 0.55659 0.14213 0.0
C6781 C 0.79464 0.54763 0.14206 0.0
C6782 C 0.80699 0.55847 0.14268 0.0
C6783 C 0.82945 0.54847 0.13877 0.0
H6784 H 0.83742 0.56929 0.15243 0.0
C6785 C 0.86441 0.56501 0.13384 0.0
C6786 C 0.86869 0.56904 0.14126 0.0
C6787 C 0.85576 0.56133 0.13466 0.0
C6788 C 0.83536 0.56336 0.14868 0.0
H6789 H 0.79879 0.53361 0.14253 0.0
H6790 H 0.81492 0.5369 0.14368 0.0
H6791 H 0.82161 0.56491 0.15275 0.0
H6792 H 0.86732 0.57204 0.15545 0.0
H6793 H 0.85236 0.56537 0.15693 0.0
H6794 H 0.84325 0.54687 0.13479 0.0
C6795 C 0.81022 0.54247 0.14319 0.0
C6796 C 0.82625 0.56093 0.14876 0.0
C6797 C 0.80097 0.54058 0.14263 0.0
C6798 C 0.86426 0.56895 0.14961 0.0
C6799 C 0.85562 0.56522 0.15043 0.0
C6800 C 0.83859 0.55088 0.13871 0.0
C6801 C 0.81333 0.55145 0.14323 0.0
C6802 C 0.82315 0.55355 0.14368 0.0
C6803 C 0.85118 0.56154 0.14292 0.0
C6804 C 0.84163 0.55845 0.14356 0.0
H6805 H 0.79309 0.56218 0.14184 0.0
H6806 H 0.80914 0.56545 0.14255 0.0
H6807 H 0.8273 0.54277 0.13473 0.0
H6808 H 0.86768 0.56483 0.12735 0.0
H6809 H 0.85253 0.55862 0.12871 0.0
C6810 C 0.72213 0.52345 0.39318 0.0
C6811 C 0.72301 0.52146 0.38399 0.0
C6812 C 0.71575 0.52975 0.39612 0.0
C6813 C 0.70171 0.54884 0.38849 0.0
H6814 H 0.68615 0.54226 0.40838 0.0
C6815 C 0.67458 0.57311 0.40225 0.0
C6816 C 0.66596 0.56932 0.40351 0.0
C6817 C 0.68207 0.56759 0.40071 0.0
C6818 C 0.69044 0.54419 0.40282 0.0
H6819 H 0.7181 0.52471 0.37068 0.0
H6820 H 0.70697 0.53568 0.37581 0.0
H6821 H 0.69836 0.53214 0.40388 0.0
H6822 H 0.65853 0.55675 0.4045 0.0
H6823 H 0.67159 0.54711 0.40176 0.0
H6824 H 0.69368 0.56077 0.38729 0.0
C6825 C 0.71121 0.53239 0.38074 0.0
C6826 C 0.69748 0.53844 0.4003 0.0
C6827 C 0.71753 0.52605 0.37781 0.0
C6828 C 0.66506 0.55987 0.40347 0.0
C6829 C 0.67256 0.55435 0.40199 0.0
C6830 C 0.69471 0.55461 0.39105 0.0
C6831 C 0.71018 0.53425 0.38993 0.0
C6832 C 0.70312 0.54064 0.39302 0.0
C6833 C 0.68112 0.55815 0.40046 0.0
C6834 C 0.68893 0.5523 0.39817 0.0
H6835 H 0.72621 0.51997 0.39811 0.0
H6836 H 0.71515 0.53109 0.40324 0.0
H6837 H 0.70599 0.55076 0.38291 0.0
H6838 H 0.67548 0.58037 0.40218 0.0
H6839 H 0.68859 0.57071 0.39964 0.0
C6840 C 0.20612 0.96804 0.1441 0.0
C6841 C 0.20946 0.9724 0.13641 0.0
C6842 C 0.1972 0.96496 0.14441 0.0
C6843 C 0.1786 0.95798 0.12956 0.0
H6844 H 0.16407 0.95979 0.15114 0.0
C6845 C 0.14168 0.94592 0.13013 0.0
C6846 C 0.13894 0.94088 0.13764 0.0
C6847 C 0.14988 0.95058 0.13018 0.0
C6848 C 0.16807 0.95917 0.14508 0.0
H6849 H 0.20599 0.97704 0.12305 0.0
H6850 H 0.19039 0.97179 0.12364 0.0
H6851 H 0.17916 0.96645 0.15084 0.0
H6852 H 0.14258 0.93692 0.15116 0.0
H6853 H 0.15695 0.94502 0.15125 0.0
H6854 H 0.16762 0.95059 0.12384 0.0
C6855 C 0.1947 0.97068 0.1294 0.0
C6856 C 0.17671 0.96299 0.14491 0.0
C6857 C 0.20362 0.97377 0.1291 0.0
C6858 C 0.14446 0.94083 0.14531 0.0
C6859 C 0.15269 0.94547 0.14535 0.0
C6860 C 0.16998 0.95415 0.12974 0.0
C6861 C 0.19141 0.96615 0.13703 0.0
C6862 C 0.18209 0.9624 0.13716 0.0
C6863 C 0.15557 0.95029 0.13774 0.0
C6864 C 0.16462 0.95466 0.13751 0.0
H6865 H 0.21041 0.96697 0.14988 0.0
H6866 H 0.1949 0.96145 0.15036 0.0
H6867 H 0.18263 0.95727 0.12354 0.0
H6868 H 0.1375 0.94622 0.12417 0.0
H6869 H 0.15179 0.95438 0.12427 0.0
C6870 C 0.21855 0.97969 0.63071 0.0
C6871 C 0.22385 0.98455 0.62456 0.0
C6872 C 0.2123 0.9733 0.62771 0.0
C6873 C 0.19836 0.96759 0.6082 0.0
H6874 H 0.19484 0.94493 0.62074 0.0
C6875 C 0.16597 0.94608 0.60496 0.0
C6876 C 0.1669 0.93665 0.60464 0.0
C6877 C 0.17348 0.95159 0.6065 0.0
C6878 C 0.1958 0.95119 0.6171 0.0
H6879 H 0.22683 0.98643 0.61044 0.0
H6880 H 0.21591 0.97522 0.60519 0.0
H6881 H 0.20717 0.95493 0.62517 0.0
H6882 H 0.17644 0.92561 0.60557 0.0
H6883 H 0.18957 0.93525 0.60824 0.0
H6884 H 0.18692 0.96388 0.60019 0.0
C6885 C 0.21658 0.97639 0.61234 0.0
C6886 C 0.20281 0.95695 0.61969 0.0
C6887 C 0.22289 0.98274 0.61534 0.0
C6888 C 0.17552 0.93286 0.60571 0.0
C6889 C 0.18302 0.93837 0.60732 0.0
C6890 C 0.19131 0.96185 0.60564 0.0
C6891 C 0.21116 0.97165 0.61849 0.0
C6892 C 0.20411 0.96526 0.61534 0.0
C6893 C 0.18207 0.94779 0.60783 0.0
C6894 C 0.1899 0.95363 0.61013 0.0
H6895 H 0.21919 0.98088 0.63785 0.0
H6896 H 0.20817 0.96982 0.63262 0.0
H6897 H 0.19915 0.97398 0.60475 0.0
H6898 H 0.15943 0.9492 0.60407 0.0
H6899 H 0.1725 0.95882 0.60693 0.0
C6900 C 0.7993 0.45861 0.35565 0.0
C6901 C 0.79473 0.46206 0.36318 0.0
C6902 C 0.80858 0.457 0.35597 0.0
C6903 C 0.82667 0.45218 0.37216 0.0
H6904 H 0.84237 0.45595 0.35167 0.0
C6905 C 0.8645 0.44339 0.37366 0.0
C6906 C 0.86798 0.43864 0.36627 0.0
C6907 C 0.856 0.44745 0.37321 0.0
C6908 C 0.83806 0.45481 0.35743 0.0
H6909 H 0.7964 0.46675 0.37687 0.0
H6910 H 0.81265 0.46408 0.37737 0.0
H6911 H 0.82669 0.461 0.35103 0.0
H6912 H 0.86534 0.43461 0.35252 0.0
H6913 H 0.85051 0.44167 0.35174 0.0
H6914 H 0.83795 0.44585 0.3785 0.0
C6915 C 0.80902 0.46252 0.37125 0.0
C6916 C 0.82908 0.4577 0.35707 0.0
C6917 C 0.79972 0.46414 0.37093 0.0
C6918 C 0.8629 0.43831 0.35831 0.0
C6919 C 0.85439 0.44236 0.35786 0.0
C6920 C 0.83564 0.44929 0.37252 0.0
C6921 C 0.81353 0.4588 0.36382 0.0
C6922 C 0.82325 0.45634 0.36439 0.0
C6923 C 0.85078 0.44685 0.36535 0.0
C6924 C 0.84142 0.45048 0.36513 0.0
H6925 H 0.79567 0.45704 0.34953 0.0
H6926 H 0.81183 0.45406 0.35014 0.0
H6927 H 0.82234 0.45088 0.37787 0.0
H6928 H 0.86831 0.44391 0.37985 0.0
H6929 H 0.85349 0.451 0.37905 0.0
C6930 C 0.70482 0.53102 0.86458 0.0
C6931 C 0.71192 0.53652 0.86768 0.0
C6932 C 0.69593 0.53422 0.86454 0.0
C6933 C 0.68141 0.55144 0.87512 0.0
H6934 H 0.66585 0.5479 0.85447 0.0
C6935 C 0.6491 0.57199 0.87062 0.0
C6936 C 0.64125 0.5675 0.86775 0.0
C6937 C 0.65745 0.56768 0.87043 0.0
C6938 C 0.67008 0.54884 0.86033 0.0
H6939 H 0.71521 0.54963 0.87326 0.0
H6940 H 0.69979 0.55524 0.87306 0.0
H6941 H 0.68096 0.54123 0.85461 0.0
H6942 H 0.63607 0.55502 0.86217 0.0
H6943 H 0.65076 0.54743 0.86181 0.0
H6944 H 0.67063 0.5591 0.88083 0.0
C6945 C 0.70106 0.54844 0.87073 0.0
C6946 C 0.67873 0.54503 0.86041 0.0
C6947 C 0.70993 0.54526 0.87074 0.0
C6948 C 0.642 0.55866 0.86439 0.0
C6949 C 0.6504 0.55432 0.8642 0.0
C6950 C 0.6728 0.55524 0.87504 0.0
C6951 C 0.69395 0.54295 0.86766 0.0
C6952 C 0.68454 0.54642 0.86775 0.0
C6953 C 0.65819 0.55875 0.86735 0.0
C6954 C 0.66709 0.55413 0.86759 0.0
H6955 H 0.70615 0.52427 0.86212 0.0
H6956 H 0.69059 0.52982 0.86218 0.0
H6957 H 0.68565 0.55247 0.88096 0.0
H6958 H 0.64879 0.57888 0.87304 0.0
H6959 H 0.66335 0.57136 0.87269 0.0
C6960 C 0.89403 0.71649 0.95758 0.0
C6961 C 0.89028 0.7105 0.96388 0.0
C6962 C 0.89284 0.715 0.94836 0.0
C6963 C 0.8781 0.70295 0.93233 0.0
H6964 H 0.89888 0.70277 0.91648 0.0
C6965 C 0.87808 0.6828 0.89982 0.0
C6966 C 0.88159 0.68672 0.89197 0.0
C6967 C 0.87913 0.68701 0.9081 0.0
C6968 C 0.89299 0.70294 0.92079 0.0
H6969 H 0.88213 0.69845 0.96549 0.0
H6970 H 0.88009 0.69584 0.94951 0.0
H6971 H 0.90056 0.70802 0.93199 0.0
H6972 H 0.88922 0.69806 0.88675 0.0
H6973 H 0.89118 0.70542 0.90139 0.0
H6974 H 0.87058 0.69766 0.92127 0.0
C6975 C 0.88393 0.70169 0.95164 0.0
C6976 C 0.89395 0.70595 0.92966 0.0
C6977 C 0.88518 0.70312 0.9608 0.0
C6978 C 0.88644 0.69486 0.89267 0.0
C6979 C 0.88755 0.69908 0.90103 0.0
C6980 C 0.87715 0.69996 0.92351 0.0
C6981 C 0.88777 0.70757 0.94531 0.0
C6982 C 0.88657 0.70572 0.93559 0.0
C6983 C 0.88377 0.69525 0.90881 0.0
C6984 C 0.88463 0.69965 0.91772 0.0
H6985 H 0.89801 0.72221 0.95978 0.0
H6986 H 0.89585 0.71966 0.94362 0.0
H6987 H 0.87225 0.70288 0.93668 0.0
H6988 H 0.87453 0.6764 0.89958 0.0
H6989 H 0.87636 0.68376 0.914 0.0
C6990 C 0.04348 0.1408 0.74148 0.0
C6991 C 0.04373 0.13151 0.74339 0.0
C6992 C 0.04831 0.14432 0.73421 0.0
C6993 C 0.05998 0.13799 0.71308 0.0
H6994 H 0.07465 0.15912 0.71798 0.0
C6995 C 0.08424 0.1529 0.68652 0.0
C6996 C 0.09301 0.15461 0.68969 0.0
C6997 C 0.07719 0.15119 0.69256 0.0
C6998 C 0.07058 0.15323 0.7165 0.0
H6999 H 0.04889 0.11859 0.73889 0.0
H7000 H 0.05738 0.12473 0.72629 0.0
H7001 H 0.0641 0.15369 0.72933 0.0
H7002 H 0.1012 0.15636 0.70162 0.0
H7003 H 0.08896 0.15333 0.71213 0.0
H7004 H 0.06672 0.13732 0.70039 0.0
C7005 C 0.05343 0.1293 0.73038 0.0
C7006 C 0.06446 0.15017 0.72296 0.0
C7007 C 0.04865 0.12579 0.73767 0.0
C7008 C 0.09452 0.15496 0.69899 0.0
C7009 C 0.08749 0.15332 0.70501 0.0
C7010 C 0.06607 0.14107 0.7066 0.0
C7011 C 0.05344 0.13863 0.72865 0.0
C7012 C 0.05922 0.14241 0.7214 0.0
C7013 C 0.07878 0.15124 0.70187 0.0
C7014 C 0.07157 0.14862 0.70831 0.0
H7015 H 0.03981 0.14539 0.7458 0.0
H7016 H 0.04811 0.15153 0.73301 0.0
H7017 H 0.05596 0.13205 0.71164 0.0
H7018 H 0.08289 0.15254 0.67939 0.0
H7019 H 0.07053 0.1497 0.68994 0.0
C7020 C 0.61817 0.29554 0.45936 0.0
C7021 C 0.61527 0.2867 0.46121 0.0
C7022 C 0.61816 0.29883 0.4506 0.0
C7023 C 0.60809 0.29546 0.42824 0.0
H7024 H 0.62828 0.31028 0.42064 0.0
C7025 C 0.61225 0.30985 0.39199 0.0
C7026 C 0.61536 0.31881 0.39146 0.0
C7027 C 0.612 0.30537 0.40027 0.0
C7028 C 0.62256 0.30621 0.42268 0.0
H7029 H 0.61003 0.2744 0.45528 0.0
H7030 H 0.61011 0.28015 0.43987 0.0
H7031 H 0.62847 0.30338 0.43545 0.0
H7032 H 0.62012 0.33024 0.39925 0.0
H7033 H 0.61969 0.32246 0.4136 0.0
H7034 H 0.60216 0.29839 0.41543 0.0
C7035 C 0.61233 0.28453 0.44526 0.0
C7036 C 0.62267 0.30226 0.43117 0.0
C7037 C 0.61236 0.28122 0.45406 0.0
C7038 C 0.6179 0.32327 0.3994 0.0
C7039 C 0.61767 0.31881 0.40762 0.0
C7040 C 0.60798 0.29943 0.41971 0.0
C7041 C 0.61527 0.29337 0.44343 0.0
C7042 C 0.61537 0.29697 0.43412 0.0
C7043 C 0.61487 0.30976 0.40815 0.0
C7044 C 0.61515 0.30498 0.41691 0.0
H7045 H 0.62056 0.2999 0.46469 0.0
H7046 H 0.62036 0.30571 0.44945 0.0
H7047 H 0.60234 0.29147 0.43034 0.0
H7048 H 0.61028 0.30623 0.38599 0.0
H7049 H 0.60983 0.29839 0.40047 0.0
C7050 C 0.4624 0.86076 0.23779 0.0
C7051 C 0.46213 0.86988 0.24037 0.0
C7052 C 0.45795 0.85785 0.23001 0.0
C7053 C 0.44798 0.86606 0.20872 0.0
H7054 H 0.43287 0.84475 0.2105 0.0
C7055 C 0.41899 0.85891 0.18406 0.0
C7056 C 0.41721 0.84995 0.18148 0.0
C7057 C 0.42548 0.86083 0.19058 0.0
C7058 C 0.43717 0.85062 0.20982 0.0
H7059 H 0.45728 0.88316 0.23665 0.0
H7060 H 0.44946 0.87809 0.22317 0.0
H7061 H 0.44248 0.84904 0.2231 0.0
H7062 H 0.421 0.836 0.18362 0.0
H7063 H 0.43246 0.83936 0.19497 0.0
H7064 H 0.44256 0.86775 0.19551 0.0
C7065 C 0.45313 0.87318 0.22711 0.0
C7066 C 0.44268 0.85309 0.21705 0.0
C7067 C 0.45753 0.87607 0.23489 0.0
C7068 C 0.42225 0.84297 0.18543 0.0
C7069 C 0.42874 0.84489 0.19199 0.0
C7070 C 0.44249 0.8636 0.20149 0.0
C7071 C 0.4532 0.86402 0.22463 0.0
C7072 C 0.44802 0.86093 0.21664 0.0
C7073 C 0.43038 0.85384 0.19469 0.0
C7074 C 0.43689 0.85594 0.20202 0.0
H7075 H 0.46584 0.85582 0.24191 0.0
H7076 H 0.4582 0.85077 0.22824 0.0
H7077 H 0.45213 0.87205 0.20813 0.0
H7078 H 0.41532 0.86446 0.18107 0.0
H7079 H 0.42649 0.86779 0.19257 0.0
C7080 C 0.88343 0.30086 0.54469 0.0
C7081 C 0.89031 0.29505 0.54174 0.0
C7082 C 0.88312 0.3037 0.55361 0.0
C7083 C 0.88939 0.29837 0.5765 0.0
H7084 H 0.88773 0.32423 0.5801 0.0
C7085 C 0.88764 0.31485 0.61199 0.0
C7086 C 0.8816 0.32213 0.61288 0.0
C7087 C 0.8896 0.31124 0.60351 0.0
C7088 C 0.88809 0.31699 0.57923 0.0
H7089 H 0.90208 0.28743 0.54585 0.0
H7090 H 0.9014 0.29229 0.56161 0.0
H7091 H 0.88917 0.31823 0.56497 0.0
H7092 H 0.87309 0.33142 0.60546 0.0
H7093 H 0.87616 0.32495 0.59089 0.0
H7094 H 0.88794 0.2971 0.59076 0.0
C7095 C 0.89632 0.29467 0.55695 0.0
C7096 C 0.88896 0.31356 0.57056 0.0
C7097 C 0.89672 0.29193 0.54796 0.0
C7098 C 0.87763 0.32571 0.60509 0.0
C7099 C 0.87952 0.32209 0.59668 0.0
C7100 C 0.88839 0.3018 0.58521 0.0
C7101 C 0.88961 0.30071 0.5598 0.0
C7102 C 0.88945 0.30423 0.5691 0.0
C7103 C 0.88558 0.31485 0.59574 0.0
C7104 C 0.88754 0.31115 0.58666 0.0
H7105 H 0.87846 0.30345 0.54003 0.0
H7106 H 0.87784 0.30831 0.55566 0.0
H7107 H 0.88975 0.29113 0.57551 0.0
H7108 H 0.89078 0.31189 0.61785 0.0
H7109 H 0.89433 0.30571 0.60303 0.0
C7110 C 0.46214 0.14586 0.26686 0.0
C7111 C 0.47085 0.14288 0.26916 0.0
C7112 C 0.4561 0.14872 0.27349 0.0
C7113 C 0.45163 0.14682 0.29785 0.0
H7114 H 0.43502 0.16649 0.29327 0.0
C7115 C 0.42738 0.16051 0.32504 0.0
C7116 C 0.41838 0.16182 0.32233 0.0
C7117 C 0.43412 0.15879 0.31869 0.0
C7118 C 0.43958 0.16095 0.29462 0.0
H7119 H 0.48005 0.14067 0.28027 0.0
H7120 H 0.46962 0.14591 0.29179 0.0
H7121 H 0.44626 0.16249 0.28199 0.0
H7122 H 0.40945 0.16261 0.31084 0.0
H7123 H 0.4212 0.15958 0.29976 0.0
H7124 H 0.44494 0.1453 0.3105 0.0
C7125 C 0.4674 0.14589 0.28487 0.0
C7126 C 0.44602 0.15864 0.28815 0.0
C7127 C 0.47343 0.14299 0.27824 0.0
C7128 C 0.41631 0.16156 0.31313 0.0
C7129 C 0.42305 0.1599 0.30678 0.0
C7130 C 0.44523 0.14917 0.30434 0.0
C7131 C 0.45863 0.14873 0.28258 0.0
C7132 C 0.45207 0.15148 0.28965 0.0
C7133 C 0.43202 0.15841 0.3095 0.0
C7134 C 0.43908 0.15621 0.30277 0.0
H7135 H 0.45996 0.146 0.25993 0.0
H7136 H 0.44938 0.15076 0.27147 0.0
H7137 H 0.45607 0.14118 0.29919 0.0
H7138 H 0.42918 0.1606 0.33208 0.0
H7139 H 0.44098 0.15774 0.32098 0.0
C7140 C 0.61665 0.70143 0.04677 0.0
C7141 C 0.61224 0.70912 0.04344 0.0
C7142 C 0.61724 0.6999 0.05597 0.0
C7143 C 0.60629 0.70514 0.07744 0.0
H7144 H 0.62821 0.69467 0.08711 0.0
C7145 C 0.61127 0.69464 0.11504 0.0
C7146 C 0.61521 0.68608 0.11618 0.0
C7147 C 0.61079 0.69857 0.10649 0.0
C7148 C 0.62203 0.69758 0.08451 0.0
H7149 H 0.60507 0.72129 0.04718 0.0
H7150 H 0.60614 0.71862 0.06339 0.0
H7151 H 0.6279 0.69979 0.07159 0.0
H7152 H 0.62118 0.67472 0.10916 0.0
H7153 H 0.62045 0.68158 0.0944 0.0
H7154 H 0.60041 0.70276 0.0904 0.0
C7155 C 0.60909 0.71376 0.05882 0.0
C7156 C 0.62185 0.7005 0.07562 0.0
C7157 C 0.60854 0.71533 0.04955 0.0
C7158 C 0.61835 0.68143 0.10857 0.0
C7159 C 0.61792 0.68536 0.1001 0.0
C7160 C 0.60648 0.70223 0.08638 0.0
C7161 C 0.61344 0.70601 0.06212 0.0
C7162 C 0.61391 0.70407 0.07189 0.0
C7163 C 0.61428 0.69402 0.09897 0.0
C7164 C 0.61429 0.69818 0.08992 0.0
H7165 H 0.61967 0.69657 0.04223 0.0
H7166 H 0.62053 0.6938 0.05827 0.0
H7167 H 0.60005 0.70783 0.07475 0.0
H7168 H 0.6088 0.69839 0.12077 0.0
H7169 H 0.60793 0.70525 0.1058 0.0
C7170 C 0.05456 0.86853 0.76082 0.0
C7171 C 0.04605 0.87253 0.76206 0.0
C7172 C 0.05918 0.86471 0.76803 0.0
C7173 C 0.06095 0.86584 0.79261 0.0
H7174 H 0.07595 0.84468 0.78922 0.0
C7175 C 0.08421 0.85213 0.82069 0.0
C7176 C 0.09315 0.8506 0.81792 0.0
C7177 C 0.07738 0.85352 0.81434 0.0
C7178 C 0.07179 0.8506 0.79027 0.0
H7179 H 0.03564 0.87547 0.77185 0.0
H7180 H 0.04369 0.86867 0.78449 0.0
H7181 H 0.06581 0.84949 0.77724 0.0
H7182 H 0.10187 0.84885 0.80638 0.0
H7183 H 0.09 0.85126 0.79532 0.0
H7184 H 0.06708 0.86704 0.80557 0.0
C7185 C 0.04681 0.86859 0.77792 0.0
C7186 C 0.066 0.85337 0.78341 0.0
C7187 C 0.04217 0.87242 0.77067 0.0
C7188 C 0.09506 0.8501 0.8087 0.0
C7189 C 0.08824 0.8514 0.80237 0.0
C7190 C 0.06673 0.86305 0.79949 0.0
C7191 C 0.05541 0.86475 0.77669 0.0
C7192 C 0.06068 0.86116 0.7844 0.0
C7193 C 0.07935 0.85328 0.80511 0.0
C7194 C 0.07237 0.85552 0.79831 0.0
H7195 H 0.05769 0.86838 0.75425 0.0
H7196 H 0.06583 0.86193 0.76685 0.0
H7197 H 0.05702 0.87192 0.79357 0.0
H7198 H 0.08256 0.85259 0.82776 0.0
H7199 H 0.07059 0.85489 0.81664 0.0
C7200 C 0.95395 0.89215 0.72453 0.0
C7201 C 0.96153 0.88976 0.71937 0.0
C7202 C 0.94525 0.89161 0.72086 0.0
C7203 C 0.93252 0.88018 0.7029 0.0
H7204 H 0.91534 0.89975 0.70538 0.0
C7205 C 0.9013 0.8822 0.68048 0.0
C7206 C 0.89302 0.88461 0.68438 0.0
C7207 C 0.90934 0.88304 0.68528 0.0
C7208 C 0.92002 0.89418 0.70473 0.0
H7209 H 0.96591 0.88481 0.70638 0.0
H7210 H 0.95082 0.88396 0.69999 0.0
H7211 H 0.92999 0.90068 0.71297 0.0
H7212 H 0.8867 0.89006 0.69633 0.0
H7213 H 0.90082 0.89152 0.7048 0.0
H7214 H 0.92267 0.87368 0.69466 0.0
C7215 C 0.95157 0.88622 0.70687 0.0
C7216 C 0.9284 0.89471 0.70907 0.0
C7217 C 0.96023 0.8868 0.7105 0.0
C7218 C 0.89299 0.88817 0.69313 0.0
C7219 C 0.90106 0.88901 0.69797 0.0
C7220 C 0.92418 0.87964 0.69859 0.0
C7221 C 0.94397 0.88858 0.71201 0.0
C7222 C 0.9348 0.88778 0.70806 0.0
C7223 C 0.90931 0.88631 0.69414 0.0
C7224 C 0.91789 0.8867 0.69931 0.0
H7225 H 0.95475 0.89449 0.73137 0.0
H7226 H 0.93952 0.89344 0.72499 0.0
H7227 H 0.93723 0.87464 0.70214 0.0
H7228 H 0.90158 0.87964 0.67367 0.0
H7229 H 0.91559 0.88113 0.68203 0.0
C7230 C 0.86332 0.23022 0.46967 0.0
C7231 C 0.86731 0.23834 0.46679 0.0
C7232 C 0.86039 0.22379 0.46344 0.0
C7233 C 0.85325 0.22129 0.43995 0.0
H7234 H 0.85969 0.19613 0.44304 0.0
C7235 C 0.84889 0.1952 0.41157 0.0
C7236 C 0.8465 0.1863 0.41381 0.0
C7237 C 0.85086 0.20152 0.41826 0.0
C7238 C 0.85769 0.2031 0.44214 0.0
H7239 H 0.8715 0.24593 0.45505 0.0
H7240 H 0.86622 0.23481 0.44421 0.0
H7241 H 0.86418 0.20716 0.45435 0.0
H7242 H 0.84417 0.17713 0.42492 0.0
H7243 H 0.84727 0.18823 0.43658 0.0
H7244 H 0.84669 0.21726 0.42781 0.0
C7245 C 0.86529 0.23347 0.4513 0.0
C7246 C 0.8603 0.20942 0.44861 0.0
C7247 C 0.86829 0.23986 0.45752 0.0
C7248 C 0.84591 0.18394 0.42293 0.0
C7249 C 0.84782 0.19028 0.42963 0.0
C7250 C 0.85057 0.21496 0.43352 0.0
C7251 C 0.8613 0.22537 0.45419 0.0
C7252 C 0.85819 0.21859 0.44753 0.0
C7253 C 0.8504 0.19913 0.42738 0.0
C7254 C 0.85284 0.20579 0.43447 0.0
H7255 H 0.86233 0.22887 0.47674 0.0
H7256 H 0.85727 0.21764 0.46585 0.0
H7257 H 0.85141 0.22829 0.43901 0.0
H7258 H 0.84929 0.19731 0.40462 0.0
H7259 H 0.85292 0.20823 0.41624 0.0
C7260 C 0.54763 0.10772 0.21055 0.0
C7261 C 0.54336 0.11596 0.21251 0.0
C7262 C 0.5569 0.1074 0.20886 0.0
C7263 C 0.57831 0.12018 0.21112 0.0
H7264 H 0.5853 0.10646 0.19008 0.0
C7265 C 0.61256 0.12498 0.19316 0.0
C7266 C 0.61668 0.11743 0.18916 0.0
C7267 C 0.60404 0.12426 0.19712 0.0
C7268 C 0.58352 0.11019 0.19608 0.0
H7269 H 0.54557 0.13029 0.21451 0.0
H7270 H 0.56177 0.12973 0.21158 0.0
H7271 H 0.56969 0.10619 0.19508 0.0
H7272 H 0.61515 0.10312 0.18647 0.0
H7273 H 0.6004 0.10181 0.19359 0.0
H7274 H 0.59215 0.12428 0.21203 0.0
C7275 C 0.55794 0.1235 0.21142 0.0
C7276 C 0.57455 0.11005 0.19894 0.0
C7277 C 0.54865 0.12382 0.2131 0.0
C7278 C 0.61222 0.10906 0.18954 0.0
C7279 C 0.6037 0.10833 0.19352 0.0
C7280 C 0.58731 0.12031 0.20827 0.0
C7281 C 0.56214 0.11531 0.2091 0.0
C7282 C 0.57181 0.1151 0.20645 0.0
C7283 C 0.59943 0.11596 0.19721 0.0
C7284 C 0.59001 0.11538 0.20066 0.0
H7285 H 0.54377 0.10151 0.21022 0.0
H7286 H 0.55995 0.10096 0.20727 0.0
H7287 H 0.57643 0.12406 0.217 0.0
H7288 H 0.61587 0.1315 0.19312 0.0
H7289 H 0.60094 0.13028 0.19983 0.0
C7290 C 0.64038 0.77219 0.9712 0.0
C7291 C 0.63137 0.7692 0.97124 0.0
C7292 C 0.64339 0.77829 0.96468 0.0
C7293 C 0.63762 0.78641 0.94195 0.0
H7294 H 0.65459 0.80562 0.94729 0.0
C7295 C 0.65304 0.80786 0.91377 0.0
C7296 C 0.65345 0.81723 0.91521 0.0
C7297 C 0.65113 0.80199 0.92085 0.0
C7298 C 0.64982 0.80031 0.9457 0.0
H7299 H 0.61835 0.7706 0.96474 0.0
H7300 H 0.62356 0.78128 0.95344 0.0
H7301 H 0.64934 0.79574 0.95934 0.0
H7302 H 0.6524 0.82776 0.92525 0.0
H7303 H 0.64897 0.81751 0.93762 0.0
H7304 H 0.63787 0.79109 0.9284 0.0
C7305 C 0.62837 0.77875 0.9583 0.0
C7306 C 0.64688 0.79459 0.95259 0.0
C7307 C 0.62537 0.77265 0.96479 0.0
C7308 C 0.65221 0.82057 0.92395 0.0
C7309 C 0.65025 0.81469 0.93104 0.0
C7310 C 0.64054 0.79211 0.93509 0.0
C7311 C 0.63744 0.78154 0.95807 0.0
C7312 C 0.6407 0.7876 0.9508 0.0
C7313 C 0.64952 0.80534 0.92954 0.0
C7314 C 0.64666 0.79915 0.93687 0.0
H7315 H 0.64518 0.76959 0.97603 0.0
H7316 H 0.65044 0.78023 0.96465 0.0
H7317 H 0.63297 0.78101 0.9403 0.0
H7318 H 0.65412 0.80508 0.90713 0.0
H7319 H 0.65083 0.79482 0.91949 0.0
C7320 C 0.95274 0.12302 0.78139 0.0
C7321 C 0.95911 0.11682 0.7847 0.0
C7322 C 0.94389 0.12305 0.78465 0.0
C7323 C 0.92688 0.10941 0.7966 0.0
H7324 H 0.91734 0.13266 0.80382 0.0
C7325 C 0.89521 0.11322 0.8191 0.0
C7326 C 0.88971 0.12083 0.81788 0.0
C7327 C 0.90319 0.11223 0.81417 0.0
C7328 C 0.91979 0.12612 0.80169 0.0
H7329 H 0.96105 0.10568 0.79396 0.0
H7330 H 0.94556 0.10566 0.79951 0.0
H7331 H 0.93211 0.13182 0.79676 0.0
H7332 H 0.88791 0.13308 0.81018 0.0
H7333 H 0.90166 0.13125 0.80138 0.0
H7334 H 0.91455 0.1037 0.80152 0.0
C7335 C 0.94744 0.11046 0.79436 0.0
C7336 C 0.92829 0.12565 0.79766 0.0
C7337 C 0.95631 0.11047 0.79116 0.0
C7338 C 0.89211 0.12721 0.81134 0.0
C7339 C 0.90001 0.12618 0.80634 0.0
C7340 C 0.91832 0.10988 0.80057 0.0
C7341 C 0.94117 0.11684 0.79123 0.0
C7342 C 0.93196 0.11729 0.79513 0.0
C7343 C 0.90579 0.1188 0.80785 0.0
C7344 C 0.91469 0.11825 0.80322 0.0
H7345 H 0.9546 0.12788 0.77629 0.0
H7346 H 0.93918 0.12796 0.78202 0.0
H7347 H 0.9295 0.10288 0.79464 0.0
H7348 H 0.89355 0.10824 0.82416 0.0
H7349 H 0.90749 0.10651 0.8156 0.0
C7350 C 0.63991 0.24171 0.54621 0.0
C7351 C 0.63061 0.24365 0.54609 0.0
C7352 C 0.64329 0.23479 0.55164 0.0
C7353 C 0.63763 0.22287 0.57243 0.0
H7354 H 0.65667 0.20629 0.5656 0.0
C7355 C 0.65504 0.20081 0.5987 0.0
C7356 C 0.65578 0.19159 0.59664 0.0
C7357 C 0.65284 0.20706 0.59205 0.0
C7358 C 0.65134 0.21087 0.56758 0.0
H7359 H 0.61753 0.23943 0.55111 0.0
H7360 H 0.62342 0.22741 0.56059 0.0
H7361 H 0.65072 0.21698 0.55454 0.0
H7362 H 0.65524 0.18174 0.58588 0.0
H7363 H 0.65142 0.1927 0.57421 0.0
H7364 H 0.63816 0.21679 0.58541 0.0
C7365 C 0.62811 0.23135 0.55662 0.0
C7366 C 0.64797 0.21702 0.56128 0.0
C7367 C 0.62474 0.23824 0.55119 0.0
C7368 C 0.65477 0.18881 0.58767 0.0
C7369 C 0.65257 0.19508 0.58099 0.0
C7370 C 0.64102 0.2168 0.57872 0.0
C7371 C 0.63744 0.22969 0.55708 0.0
C7372 C 0.64105 0.22306 0.56363 0.0
C7373 C 0.65134 0.20423 0.58316 0.0
C7374 C 0.64792 0.21073 0.57639 0.0
H7375 H 0.64462 0.24579 0.54242 0.0
H7376 H 0.65051 0.2337 0.55189 0.0
H7377 H 0.63238 0.22752 0.57449 0.0
H7378 H 0.65597 0.20319 0.60551 0.0
H7379 H 0.65214 0.21409 0.59389 0.0
C7380 C 0.54893 0.89323 0.28754 0.0
C7381 C 0.54572 0.88541 0.28325 0.0
C7382 C 0.5578 0.89366 0.29074 0.0
C7383 C 0.57628 0.87898 0.29828 0.0
H7384 H 0.59084 0.90066 0.29627 0.0
C7385 C 0.61296 0.87991 0.31092 0.0
C7386 C 0.61566 0.88762 0.31573 0.0
C7387 C 0.60483 0.87982 0.30618 0.0
C7388 C 0.58683 0.89458 0.29695 0.0
H7389 H 0.54934 0.87194 0.27886 0.0
H7390 H 0.56485 0.87272 0.28434 0.0
H7391 H 0.57588 0.90017 0.28938 0.0
H7392 H 0.612 0.90134 0.31919 0.0
H7393 H 0.59775 0.90118 0.31098 0.0
H7394 H 0.58711 0.87343 0.30597 0.0
C7395 C 0.56048 0.8785 0.2853 0.0
C7396 C 0.57826 0.8943 0.293 0.0
C7397 C 0.55163 0.87809 0.28207 0.0
C7398 C 0.61015 0.89533 0.31548 0.0
C7399 C 0.60199 0.89523 0.31076 0.0
C7400 C 0.58482 0.87927 0.30225 0.0
C7401 C 0.56364 0.88626 0.28975 0.0
C7402 C 0.57288 0.8865 0.29365 0.0
C7403 C 0.59916 0.88743 0.30616 0.0
C7404 C 0.59019 0.88708 0.30166 0.0
H7405 H 0.54458 0.89903 0.28847 0.0
H7406 H 0.56 0.89971 0.2942 0.0
H7407 H 0.57224 0.87293 0.29904 0.0
H7408 H 0.61714 0.87391 0.31086 0.0
H7409 H 0.60296 0.87376 0.30255 0.0
C7410 C 0.86627 0.77747 0.03316 0.0
C7411 C 0.8701 0.76933 0.03616 0.0
C7412 C 0.86377 0.78418 0.03928 0.0
C7413 C 0.86777 0.79169 0.06273 0.0
H7414 H 0.84603 0.80572 0.05891 0.0
C7415 C 0.85909 0.82189 0.08538 0.0
C7416 C 0.85002 0.82311 0.08784 0.0
C7417 C 0.86146 0.81564 0.07878 0.0
C7418 C 0.85208 0.80182 0.06013 0.0
H7419 H 0.8744 0.76196 0.048 0.0
H7420 H 0.86974 0.77346 0.05863 0.0
H7421 H 0.8502 0.79406 0.04814 0.0
H7422 H 0.83629 0.81877 0.08527 0.0
H7423 H 0.84041 0.80768 0.07384 0.0
H7424 H 0.8695 0.79918 0.07486 0.0
C7425 C 0.8688 0.77475 0.05154 0.0
C7426 C 0.85454 0.7952 0.05388 0.0
C7427 C 0.87135 0.76808 0.04543 0.0
C7428 C 0.84333 0.81802 0.08345 0.0
C7429 C 0.8457 0.81169 0.07689 0.0
C7430 C 0.86528 0.79825 0.069 0.0
C7431 C 0.865 0.78291 0.04855 0.0
C7432 C 0.86241 0.79004 0.05511 0.0
C7433 C 0.85481 0.81037 0.07451 0.0
C7434 C 0.85742 0.80341 0.06778 0.0
H7435 H 0.86512 0.77863 0.02608 0.0
H7436 H 0.86096 0.79041 0.03672 0.0
H7437 H 0.87394 0.78795 0.06385 0.0
H7438 H 0.86438 0.82583 0.08854 0.0
H7439 H 0.86851 0.81497 0.07699 0.0
C7440 C 0.72152 0.95299 0.88379 0.0
C7441 C 0.72054 0.95889 0.89112 0.0
C7442 C 0.71846 0.94407 0.88433 0.0
C7443 C 0.70237 0.92977 0.89684 0.0
H7444 H 0.71544 0.91014 0.88557 0.0
C7445 C 0.69016 0.89288 0.89942 0.0
C7446 C 0.69014 0.88794 0.89136 0.0
C7447 C 0.69459 0.9012 0.89995 0.0
C7448 C 0.71169 0.91556 0.88871 0.0
H7449 H 0.71586 0.95995 0.90486 0.0
H7450 H 0.71057 0.9444 0.90583 0.0
H7451 H 0.72184 0.92532 0.88547 0.0
H7452 H 0.69508 0.88768 0.87767 0.0
H7453 H 0.70272 0.90224 0.87856 0.0
H7454 H 0.69218 0.92004 0.9 0.0
C7455 C 0.71355 0.9467 0.8996 0.0
C7456 C 0.71535 0.92427 0.88864 0.0
C7457 C 0.71659 0.95562 0.89905 0.0
C7458 C 0.69489 0.89137 0.88394 0.0
C7459 C 0.69934 0.89967 0.88448 0.0
C7460 C 0.69872 0.92107 0.89692 0.0
C7461 C 0.71436 0.94084 0.89222 0.0
C7462 C 0.7107 0.9315 0.89264 0.0
C7463 C 0.69913 0.90475 0.89245 0.0
C7464 C 0.7033 0.91388 0.8928 0.0
H7465 H 0.72442 0.95533 0.87754 0.0
H7466 H 0.71907 0.93979 0.87847 0.0
H7467 H 0.69853 0.9352 0.89985 0.0
H7468 H 0.6865 0.89045 0.90524 0.0
H7469 H 0.69439 0.9049 0.90622 0.0
C7470 C 0.21344 0.55015 0.12186 0.0
C7471 C 0.21229 0.54483 0.11412 0.0
C7472 C 0.21208 0.55948 0.12153 0.0
C7473 C 0.19967 0.5765 0.10853 0.0
H7474 H 0.21403 0.59358 0.12216 0.0
C7475 C 0.19145 0.61443 0.10807 0.0
C7476 C 0.19138 0.61875 0.11648 0.0
C7477 C 0.19525 0.60585 0.1071 0.0
C7478 C 0.20993 0.58889 0.11836 0.0
H7479 H 0.20932 0.54522 0.09988 0.0
H7480 H 0.20696 0.56149 0.09931 0.0
H7481 H 0.2184 0.5777 0.12178 0.0
H7482 H 0.19574 0.61765 0.13033 0.0
H7483 H 0.20218 0.60263 0.12869 0.0
H7484 H 0.19108 0.58759 0.10527 0.0
C7485 C 0.20873 0.55842 0.10567 0.0
C7486 C 0.21244 0.57979 0.11814 0.0
C7487 C 0.21008 0.5491 0.10599 0.0
C7488 C 0.19556 0.61446 0.12379 0.0
C7489 C 0.19935 0.60588 0.12283 0.0
C7490 C 0.19716 0.58558 0.10876 0.0
C7491 C 0.20955 0.5637 0.11347 0.0
C7492 C 0.20728 0.57348 0.11329 0.0
C7493 C 0.19907 0.60139 0.11451 0.0
C7494 C 0.2022 0.59188 0.11375 0.0
H7495 H 0.21504 0.54705 0.12824 0.0
H7496 H 0.21268 0.56334 0.12768 0.0
H7497 H 0.19546 0.5718 0.10486 0.0
H7498 H 0.18824 0.61752 0.10231 0.0
H7499 H 0.19504 0.60265 0.10057 0.0
C7500 C 0.24648 0.45235 0.86511 0.0
C7501 C 0.24527 0.46083 0.86917 0.0
C7502 C 0.23913 0.44758 0.86166 0.0
C7503 C 0.21448 0.44544 0.86399 0.0
H7504 H 0.21708 0.4302 0.84298 0.0
C7505 C 0.18577 0.42195 0.85164 0.0
C7506 C 0.18849 0.413 0.85009 0.0
C7507 C 0.19221 0.42879 0.85275 0.0
C7508 C 0.21625 0.43442 0.84886 0.0
H7509 H 0.23538 0.47105 0.87256 0.0
H7510 H 0.22251 0.46276 0.86637 0.0
H7511 H 0.22923 0.44052 0.84712 0.0
H7512 H 0.20003 0.40427 0.84803 0.0
H7513 H 0.21125 0.41617 0.84995 0.0
H7514 H 0.20155 0.43921 0.8658 0.0
C7515 C 0.22917 0.45976 0.86598 0.0
C7516 C 0.22322 0.44032 0.85125 0.0
C7517 C 0.23654 0.46455 0.86945 0.0
C7518 C 0.19775 0.41109 0.84931 0.0
C7519 C 0.20416 0.41793 0.85033 0.0
C7520 C 0.20749 0.43957 0.86157 0.0
C7521 C 0.23037 0.45117 0.86212 0.0
C7522 C 0.22252 0.44574 0.85897 0.0
C7523 C 0.20148 0.42682 0.85221 0.0
C7524 C 0.20839 0.43384 0.8541 0.0
H7525 H 0.25313 0.44935 0.86465 0.0
H7526 H 0.24031 0.44095 0.85884 0.0
H7527 H 0.21375 0.44944 0.87004 0.0
H7528 H 0.17868 0.4236 0.85231 0.0
H7529 H 0.18994 0.4356 0.85413 0.0
C7530 C 0.28875 0.45535 0.61244 0.0
C7531 C 0.28447 0.45873 0.62016 0.0
C7532 C 0.29173 0.44641 0.61211 0.0
C7533 C 0.28943 0.4241 0.62324 0.0
H7534 H 0.31336 0.42006 0.61351 0.0
C7535 C 0.31039 0.39208 0.63049 0.0
C7536 C 0.31594 0.38864 0.62365 0.0
C7537 C 0.30559 0.4001 0.62924 0.0
C7538 C 0.30661 0.42102 0.61611 0.0
H7539 H 0.27985 0.45533 0.63354 0.0
H7540 H 0.28508 0.43975 0.63299 0.0
H7541 H 0.30679 0.43507 0.61288 0.0
H7542 H 0.32056 0.39077 0.61 0.0
H7543 H 0.31207 0.40469 0.60776 0.0
H7544 H 0.28936 0.41006 0.62664 0.0
C7545 C 0.28602 0.44396 0.62713 0.0
C7546 C 0.30283 0.42965 0.61576 0.0
C7547 C 0.28303 0.4529 0.62746 0.0
C7548 C 0.3163 0.39321 0.61539 0.0
C7549 C 0.31152 0.40124 0.61414 0.0
C7550 C 0.29321 0.41547 0.62361 0.0
C7551 C 0.2905 0.44064 0.6195 0.0
C7552 C 0.29424 0.43132 0.6194 0.0
C7553 C 0.30624 0.40487 0.62111 0.0
C7554 C 0.30189 0.41385 0.62013 0.0
H7555 H 0.28982 0.45963 0.60665 0.0
H7556 H 0.29501 0.44403 0.60606 0.0
H7557 H 0.28274 0.42513 0.62598 0.0
H7558 H 0.30988 0.38866 0.63689 0.0
H7559 H 0.30164 0.40273 0.63477 0.0
C7560 C 0.76562 0.04162 0.86551 0.0
C7561 C 0.76325 0.04206 0.87464 0.0
C7562 C 0.77342 0.04594 0.86238 0.0
C7563 C 0.79517 0.05576 0.86988 0.0
H7564 H 0.79299 0.0706 0.84857 0.0
C7565 C 0.82034 0.08414 0.86166 0.0
C7566 C 0.82265 0.08576 0.85265 0.0
C7567 C 0.81371 0.07781 0.86385 0.0
C7568 C 0.79378 0.06637 0.85444 0.0
H7569 H 0.76738 0.04707 0.88768 0.0
H7570 H 0.78091 0.05465 0.88223 0.0
H7571 H 0.7803 0.06124 0.85329 0.0
H7572 H 0.81991 0.08187 0.83889 0.0
H7573 H 0.80838 0.07069 0.84274 0.0
H7574 H 0.80859 0.06098 0.87111 0.0
C7575 C 0.77678 0.05096 0.87748 0.0
C7576 C 0.7865 0.061 0.85715 0.0
C7577 C 0.76897 0.04669 0.8806 0.0
C7578 C 0.81831 0.08074 0.84589 0.0
C7579 C 0.81165 0.07441 0.8481 0.0
C7580 C 0.80246 0.0611 0.86716 0.0
C7581 C 0.77905 0.05072 0.86832 0.0
C7582 C 0.78705 0.05576 0.86499 0.0
C7583 C 0.80922 0.07293 0.8571 0.0
C7584 C 0.80179 0.0666 0.8595 0.0
H7585 H 0.76132 0.03816 0.86075 0.0
H7586 H 0.77502 0.04557 0.8553 0.0
H7587 H 0.79587 0.05167 0.87586 0.0
H7588 H 0.82363 0.0878 0.86704 0.0
H7589 H 0.81194 0.07693 0.87085 0.0
C7590 C 0.78994 0.04948 0.37892 0.0
C7591 C 0.79248 0.04503 0.38685 0.0
C7592 C 0.79122 0.05879 0.37803 0.0
C7593 C 0.79625 0.07981 0.39078 0.0
H7594 H 0.80736 0.08731 0.36844 0.0
C7595 C 0.81649 0.11295 0.38678 0.0
C7596 C 0.81618 0.11744 0.37848 0.0
C7597 C 0.81198 0.10474 0.38796 0.0
C7598 C 0.8041 0.08539 0.37466 0.0
H7599 H 0.79788 0.04694 0.40025 0.0
H7600 H 0.80029 0.06312 0.39863 0.0
H7601 H 0.80232 0.0718 0.37019 0.0
H7602 H 0.81042 0.11715 0.36511 0.0
H7603 H 0.80251 0.10285 0.36718 0.0
H7604 H 0.79827 0.0934 0.39532 0.0
C7605 C 0.79725 0.05945 0.39311 0.0
C7606 C 0.80121 0.07648 0.37566 0.0
C7607 C 0.79597 0.05015 0.394 0.0
C7608 C 0.81091 0.11376 0.37153 0.0
C7609 C 0.80639 0.10557 0.37271 0.0
C7610 C 0.79915 0.08875 0.38978 0.0
C7611 C 0.79506 0.06385 0.38505 0.0
C7612 C 0.79736 0.07354 0.38377 0.0
C7613 C 0.80706 0.10084 0.38086 0.0
C7614 C 0.80323 0.0916 0.38174 0.0
H7615 H 0.78727 0.04574 0.37326 0.0
H7616 H 0.78934 0.062 0.37178 0.0
H7617 H 0.79319 0.0778 0.39707 0.0
H7618 H 0.82056 0.11556 0.39223 0.0
H7619 H 0.81272 0.10124 0.39429 0.0
C7620 C 0.23787 0.54825 0.62725 0.0
C7621 C 0.2436 0.54439 0.6337 0.0
C7622 C 0.23054 0.55355 0.62986 0.0
C7623 C 0.21565 0.55976 0.64879 0.0
H7624 H 0.2136 0.58223 0.63565 0.0
C7625 C 0.19219 0.58957 0.6594 0.0
C7626 C 0.18814 0.59446 0.65241 0.0
C7627 C 0.19843 0.58272 0.65747 0.0
C7628 C 0.21397 0.57593 0.63932 0.0
H7629 H 0.24589 0.54275 0.64798 0.0
H7630 H 0.23303 0.55204 0.65255 0.0
H7631 H 0.22529 0.57153 0.63161 0.0
H7632 H 0.18686 0.59562 0.63798 0.0
H7633 H 0.19752 0.58362 0.63461 0.0
H7634 H 0.20428 0.56425 0.65651 0.0
C7635 C 0.23421 0.55091 0.64547 0.0
C7636 C 0.22069 0.56979 0.637 0.0
C7637 C 0.24157 0.54559 0.64285 0.0
C7638 C 0.19004 0.59208 0.6435 0.0
C7639 C 0.19617 0.58523 0.64157 0.0
C7640 C 0.20886 0.56592 0.6511 0.0
C7641 C 0.22876 0.55513 0.63899 0.0
C7642 C 0.22158 0.5616 0.64164 0.0
C7643 C 0.20064 0.58063 0.64852 0.0
C7644 C 0.2079 0.57405 0.64632 0.0
H7645 H 0.23913 0.5473 0.62015 0.0
H7646 H 0.22634 0.55654 0.6247 0.0
H7647 H 0.21616 0.55349 0.65248 0.0
H7648 H 0.19083 0.5913 0.66634 0.0
H7649 H 0.20176 0.57933 0.66298 0.0
C7650 C 0.27311 0.47299 0.14728 0.0
C7651 C 0.26989 0.47297 0.1384 0.0
C7652 C 0.28 0.46709 0.14989 0.0
C7653 C 0.29867 0.4534 0.14083 0.0
H7654 H 0.29601 0.43942 0.16266 0.0
C7655 C 0.32093 0.42252 0.14812 0.0
C7656 C 0.32371 0.42088 0.15699 0.0
C7657 C 0.31471 0.42932 0.1462 0.0
C7658 C 0.29694 0.44337 0.15662 0.0
H7659 H 0.27151 0.4669 0.12526 0.0
H7660 H 0.2835 0.45661 0.1298 0.0
H7661 H 0.28458 0.45058 0.1587 0.0
H7662 H 0.32212 0.42519 0.17081 0.0
H7663 H 0.31142 0.43724 0.16743 0.0
H7664 H 0.311 0.44624 0.13872 0.0
C7665 C 0.28072 0.46119 0.13475 0.0
C7666 C 0.29037 0.44976 0.15435 0.0
C7667 C 0.27379 0.46702 0.13217 0.0
C7668 C 0.32018 0.42631 0.1639 0.0
C7669 C 0.31397 0.43315 0.16197 0.0
C7670 C 0.30525 0.44707 0.14312 0.0
C7671 C 0.28388 0.46113 0.14364 0.0
C7672 C 0.29111 0.45475 0.14637 0.0
C7673 C 0.31114 0.43472 0.15309 0.0
C7674 C 0.30441 0.44187 0.15098 0.0
H7675 H 0.27019 0.47746 0.15225 0.0
H7676 H 0.28233 0.46723 0.15678 0.0
H7677 H 0.2995 0.45726 0.13472 0.0
H7678 H 0.3236 0.41857 0.14261 0.0
H7679 H 0.31261 0.43024 0.1393 0.0
C7680 C 0.62074 0.79199 0.5198 0.0
C7681 C 0.62043 0.79577 0.51115 0.0
C7682 C 0.61703 0.79661 0.52713 0.0
C7683 C 0.60137 0.81532 0.53296 0.0
H7684 H 0.61592 0.81735 0.5545 0.0
C7685 C 0.59816 0.84479 0.55775 0.0
C7686 C 0.59925 0.84317 0.56697 0.0
C7687 C 0.59937 0.83785 0.55153 0.0
C7688 C 0.61169 0.81672 0.54861 0.0
H7689 H 0.61566 0.80717 0.50337 0.0
H7690 H 0.60939 0.81527 0.5161 0.0
H7691 H 0.62066 0.80722 0.54249 0.0
H7692 H 0.60215 0.83295 0.57695 0.0
H7693 H 0.60426 0.82076 0.56603 0.0
H7694 H 0.59256 0.82505 0.53896 0.0
C7695 C 0.61242 0.80872 0.51725 0.0
C7696 C 0.6144 0.81091 0.54171 0.0
C7697 C 0.61613 0.80413 0.50996 0.0
C7698 C 0.60124 0.83438 0.56988 0.0
C7699 C 0.60252 0.82743 0.56363 0.0
C7700 C 0.59867 0.82113 0.53983 0.0
C7701 C 0.61288 0.80506 0.52594 0.0
C7702 C 0.6094 0.81032 0.53372 0.0
C7703 C 0.60172 0.82913 0.55438 0.0
C7704 C 0.60391 0.82207 0.54764 0.0
H7705 H 0.62402 0.78557 0.52093 0.0
H7706 H 0.61744 0.79358 0.53373 0.0
H7707 H 0.59726 0.81488 0.52696 0.0
H7708 H 0.59655 0.85149 0.55533 0.0
H7709 H 0.59879 0.83942 0.54445 0.0
C7710 C 0.46549 0.36308 0.79892 0.0
C7711 C 0.45935 0.36666 0.79267 0.0
C7712 C 0.46377 0.36373 0.80815 0.0
C7713 C 0.45015 0.37654 0.82465 0.0
H7714 H 0.45253 0.3553 0.83965 0.0
C7715 C 0.43108 0.37316 0.85775 0.0
C7716 C 0.43567 0.36982 0.86531 0.0
C7717 C 0.43504 0.37286 0.84928 0.0
C7718 C 0.45196 0.36132 0.83557 0.0
H7719 H 0.44678 0.374 0.7912 0.0
H7720 H 0.44374 0.37503 0.80719 0.0
H7721 H 0.45771 0.35483 0.82405 0.0
H7722 H 0.44798 0.36332 0.8698 0.0
H7723 H 0.45489 0.3627 0.85485 0.0
H7724 H 0.44419 0.38297 0.83605 0.0
C7725 C 0.4499 0.37175 0.80501 0.0
C7726 C 0.45493 0.36106 0.82665 0.0
C7727 C 0.45158 0.37106 0.79584 0.0
C7728 C 0.44425 0.36592 0.86411 0.0
C7729 C 0.44821 0.36558 0.85557 0.0
C7730 C 0.44717 0.37679 0.83352 0.0
C7731 C 0.45594 0.36807 0.81129 0.0
C7732 C 0.45385 0.36861 0.82103 0.0
C7733 C 0.44368 0.36917 0.84809 0.0
C7734 C 0.44782 0.36912 0.83902 0.0
H7735 H 0.47151 0.35961 0.79668 0.0
H7736 H 0.46858 0.36087 0.81283 0.0
H7737 H 0.44941 0.38254 0.82056 0.0
H7738 H 0.42436 0.37597 0.85837 0.0
H7739 H 0.43128 0.37548 0.84361 0.0
C7740 C 0.88924 0.22337 0.02891 0.0
C7741 C 0.88908 0.22078 0.01983 0.0
C7742 C 0.89234 0.2174 0.0355 0.0
C7743 C 0.90557 0.19631 0.03861 0.0
H7744 H 0.89237 0.19481 0.06103 0.0
C7745 C 0.90892 0.16636 0.06316 0.0
C7746 C 0.90914 0.16829 0.07239 0.0
C7747 C 0.90722 0.17319 0.05692 0.0
C7748 C 0.89621 0.19523 0.05485 0.0
H7749 H 0.89232 0.20996 0.01056 0.0
H7750 H 0.89743 0.1995 0.02203 0.0
H7751 H 0.88798 0.20595 0.04983 0.0
H7752 H 0.90784 0.17891 0.08232 0.0
H7753 H 0.90491 0.19086 0.07141 0.0
H7754 H 0.91365 0.18542 0.04357 0.0
C7755 C 0.89528 0.20617 0.02408 0.0
C7756 C 0.8937 0.20163 0.04843 0.0
C7757 C 0.89222 0.21214 0.0175 0.0
C7758 C 0.90778 0.17723 0.07524 0.0
C7759 C 0.90601 0.18405 0.06901 0.0
C7760 C 0.90804 0.18988 0.04501 0.0
C7761 C 0.89534 0.20871 0.03317 0.0
C7762 C 0.8983 0.2022 0.04019 0.0
C7763 C 0.90565 0.18209 0.05978 0.0
C7764 C 0.90334 0.18922 0.05317 0.0
H7765 H 0.88681 0.22994 0.03097 0.0
H7766 H 0.89239 0.21962 0.04243 0.0
H7767 H 0.90938 0.19667 0.03241 0.0
H7768 H 0.91002 0.15955 0.06075 0.0
H7769 H 0.90692 0.17145 0.04987 0.0
C7770 C 0.05602 0.63763 0.29708 0.0
C7771 C 0.04831 0.64206 0.29382 0.0
C7772 C 0.0576 0.63697 0.30627 0.0
C7773 C 0.05238 0.64779 0.32782 0.0
H7774 H 0.06292 0.62587 0.3374 0.0
C7775 C 0.06254 0.64299 0.36542 0.0
C7776 C 0.0711 0.6391 0.36672 0.0
C7777 C 0.0587 0.64332 0.35682 0.0
C7778 C 0.06 0.63205 0.33482 0.0
H7779 H 0.03615 0.64921 0.29768 0.0
H7780 H 0.03891 0.64801 0.31385 0.0
H7781 H 0.05788 0.62626 0.32185 0.0
H7782 H 0.08251 0.63293 0.35994 0.0
H7783 H 0.07579 0.6334 0.34509 0.0
H7784 H 0.05466 0.65359 0.34083 0.0
C7785 C 0.04375 0.6451 0.30924 0.0
C7786 C 0.05712 0.63228 0.32591 0.0
C7787 C 0.04213 0.64572 0.29999 0.0
C7788 C 0.0758 0.63575 0.35923 0.0
C7789 C 0.07196 0.63602 0.35071 0.0
C7790 C 0.05525 0.64755 0.33678 0.0
C7791 C 0.05152 0.64072 0.31247 0.0
C7792 C 0.0535 0.64021 0.32223 0.0
C7793 C 0.06333 0.63971 0.34941 0.0
C7794 C 0.0593 0.63975 0.34029 0.0
H7795 H 0.06085 0.63464 0.2925 0.0
H7796 H 0.06372 0.63367 0.30852 0.0
H7797 H 0.04967 0.65402 0.32517 0.0
H7798 H 0.05873 0.64559 0.37105 0.0
H7799 H 0.05203 0.6462 0.35601 0.0
C7800 C 0.6189 0.21467 0.98799 0.0
C7801 C 0.61811 0.21104 0.99667 0.0
C7802 C 0.61553 0.20995 0.98055 0.0
C7803 C 0.60024 0.19101 0.97418 0.0
H7804 H 0.6158 0.1891 0.95334 0.0
C7805 C 0.59847 0.16148 0.94922 0.0
C7806 C 0.59974 0.16321 0.94004 0.0
C7807 C 0.59942 0.16838 0.95553 0.0
C7808 C 0.61129 0.18969 0.95904 0.0
H7809 H 0.61277 0.19983 0.00438 0.0
H7810 H 0.60712 0.19155 0.99147 0.0
H7811 H 0.61987 0.19933 0.96551 0.0
H7812 H 0.60277 0.17357 0.93024 0.0
H7813 H 0.60447 0.18569 0.94132 0.0
H7814 H 0.59185 0.1811 0.96783 0.0
C7815 C 0.61027 0.19805 0.99037 0.0
C7816 C 0.61362 0.19556 0.96602 0.0
C7817 C 0.61363 0.20275 0.99777 0.0
C7818 C 0.60171 0.17206 0.93727 0.0
C7819 C 0.60275 0.17897 0.94361 0.0
C7820 C 0.59794 0.18511 0.96722 0.0
C7821 C 0.61125 0.20154 0.98165 0.0
C7822 C 0.60823 0.19614 0.97377 0.0
C7823 C 0.60172 0.17717 0.95282 0.0
C7824 C 0.60355 0.18424 0.95966 0.0
H7825 H 0.62234 0.22102 0.98691 0.0
H7826 H 0.61632 0.21287 0.97394 0.0
H7827 H 0.59583 0.19143 0.97996 0.0
H7828 H 0.59686 0.15474 0.95154 0.0
H7829 H 0.59866 0.16676 0.96258 0.0
C7830 C 0.04312 0.37023 0.2073 0.0
C7831 C 0.04505 0.36233 0.21213 0.0
C7832 C 0.04462 0.37062 0.19804 0.0
C7833 C 0.04874 0.35653 0.17783 0.0
H7834 H 0.06122 0.37785 0.16924 0.0
C7835 C 0.06768 0.35785 0.1439 0.0
C7836 C 0.06762 0.366 0.13908 0.0
C7837 C 0.0637 0.35733 0.15239 0.0
C7838 C 0.0576 0.37191 0.17147 0.0
H7839 H 0.04965 0.34849 0.21096 0.0
H7840 H 0.05242 0.34922 0.19485 0.0
H7841 H 0.05638 0.3771 0.18481 0.0
H7842 H 0.0629 0.37984 0.13917 0.0
H7843 H 0.05591 0.37892 0.15395 0.0
H7844 H 0.05013 0.35129 0.1645 0.0
C7845 C 0.04969 0.35511 0.1982 0.0
C7846 C 0.05482 0.37148 0.18041 0.0
C7847 C 0.04821 0.35472 0.20745 0.0
C7848 C 0.0632 0.37351 0.14279 0.0
C7849 C 0.0592 0.37298 0.15126 0.0
C7850 C 0.05153 0.35697 0.16887 0.0
C7851 C 0.04806 0.36311 0.19341 0.0
C7852 C 0.05044 0.36376 0.18373 0.0
C7853 C 0.05955 0.36494 0.15624 0.0
C7854 C 0.05607 0.36463 0.1656 0.0
H7855 H 0.04073 0.37623 0.21071 0.0
H7856 H 0.04319 0.37686 0.19453 0.0
H7857 H 0.04528 0.35053 0.18015 0.0
H7858 H 0.07112 0.35197 0.14126 0.0
H7859 H 0.06419 0.35105 0.15608 0.0
C7860 C 0.87812 0.79957 0.48662 0.0
C7861 C 0.88391 0.79497 0.49251 0.0
C7862 C 0.88153 0.80391 0.47903 0.0
C7863 C 0.90231 0.81424 0.47034 0.0
H7864 H 0.88893 0.81469 0.44798 0.0
C7865 C 0.91421 0.83498 0.43951 0.0
C7866 C 0.90743 0.84013 0.43535 0.0
C7867 C 0.91194 0.82842 0.44589 0.0
C7868 C 0.89273 0.81466 0.45419 0.0
H7869 H 0.89783 0.79118 0.49496 0.0
H7870 H 0.9038 0.79871 0.48162 0.0
H7871 H 0.88385 0.80499 0.46019 0.0
H7872 H 0.89298 0.84221 0.43437 0.0
H7873 H 0.88905 0.83093 0.44554 0.0
H7874 H 0.91108 0.82407 0.4644 0.0
C7875 C 0.89661 0.79901 0.48293 0.0
C7876 C 0.88982 0.8091 0.46118 0.0
C7877 C 0.89319 0.79462 0.49051 0.0
C7878 C 0.89836 0.83845 0.43754 0.0
C7879 C 0.8961 0.83189 0.44387 0.0
C7880 C 0.90523 0.81981 0.46333 0.0
C7881 C 0.89083 0.80378 0.47715 0.0
C7882 C 0.89447 0.80896 0.46941 0.0
C7883 C 0.90286 0.82684 0.44817 0.0
C7884 C 0.90036 0.82022 0.45525 0.0
H7885 H 0.87093 0.79988 0.48792 0.0
H7886 H 0.8769 0.8076 0.47478 0.0
H7887 H 0.906 0.81436 0.47662 0.0
H7888 H 0.92126 0.83615 0.43797 0.0
H7889 H 0.9173 0.8246 0.44905 0.0
C7890 C 0.47422 0.64021 0.70289 0.0
C7891 C 0.46926 0.63725 0.71038 0.0
C7892 C 0.47054 0.63964 0.69425 0.0
C7893 C 0.45326 0.62726 0.68137 0.0
H7894 H 0.45441 0.64734 0.66473 0.0
C7895 C 0.43054 0.62851 0.65041 0.0
C7896 C 0.43429 0.63136 0.64223 0.0
C7897 C 0.43534 0.62948 0.6584 0.0
C7898 C 0.45414 0.64163 0.66926 0.0
H7899 H 0.4566 0.63124 0.71465 0.0
H7900 H 0.45018 0.63033 0.69966 0.0
H7901 H 0.46198 0.64846 0.67931 0.0
H7902 H 0.44593 0.6377 0.63605 0.0
H7903 H 0.45437 0.63937 0.6501 0.0
H7904 H 0.44541 0.62043 0.67142 0.0
C7905 C 0.45692 0.63306 0.70043 0.0
C7906 C 0.45847 0.64227 0.6776 0.0
C7907 C 0.46056 0.63369 0.70904 0.0
C7908 C 0.44286 0.63546 0.64226 0.0
C7909 C 0.44769 0.63642 0.6503 0.0
C7910 C 0.44897 0.62661 0.67306 0.0
C7911 C 0.46187 0.63599 0.69293 0.0
C7912 C 0.45792 0.63515 0.6838 0.0
C7913 C 0.44402 0.6333 0.65844 0.0
C7914 C 0.4492 0.63385 0.66697 0.0
H7915 H 0.48091 0.64304 0.70372 0.0
H7916 H 0.47452 0.64191 0.68859 0.0
H7917 H 0.45289 0.62157 0.68592 0.0
H7918 H 0.42387 0.62552 0.65065 0.0
H7919 H 0.43222 0.62722 0.66458 0.0
C7920 C 0.52183 0.62851 0.79748 0.0
C7921 C 0.51576 0.62278 0.79298 0.0
C7922 C 0.52902 0.62495 0.8024 0.0
C7923 C 0.53549 0.60441 0.81452 0.0
H7924 H 0.55871 0.61642 0.81624 0.0
C7925 C 0.55929 0.60008 0.84472 0.0
C7926 C 0.56867 0.60004 0.84327 0.0
C7927 C 0.55334 0.60165 0.83763 0.0
C7928 C 0.55231 0.6129 0.81575 0.0
H7929 H 0.51265 0.60882 0.78989 0.0
H7930 H 0.52529 0.60259 0.7984 0.0
H7931 H 0.54769 0.62154 0.8052 0.0
H7932 H 0.57913 0.60133 0.83318 0.0
H7933 H 0.56869 0.60401 0.82075 0.0
H7934 H 0.54008 0.59583 0.82513 0.0
C7935 C 0.52442 0.60985 0.79819 0.0
C7936 C 0.54596 0.6159 0.80949 0.0
C7937 C 0.51724 0.61342 0.79324 0.0
C7938 C 0.57194 0.60128 0.8345 0.0
C7939 C 0.56597 0.6029 0.8274 0.0
C7940 C 0.54183 0.60143 0.8208 0.0
C7941 C 0.53031 0.61557 0.80295 0.0
C7942 C 0.53741 0.6118 0.80892 0.0
C7943 C 0.5566 0.60324 0.82892 0.0
C7944 C 0.55025 0.60575 0.8216 0.0
H7945 H 0.52093 0.63576 0.79733 0.0
H7946 H 0.53336 0.62955 0.80605 0.0
H7947 H 0.52895 0.60115 0.81431 0.0
H7948 H 0.55656 0.59904 0.85138 0.0
H7949 H 0.54617 0.60195 0.83906 0.0
C7950 C 0.63093 0.3023 0.03533 0.0
C7951 C 0.63838 0.29645 0.03582 0.0
C7952 C 0.63152 0.31111 0.03866 0.0
C7953 C 0.64451 0.32478 0.05484 0.0
H7954 H 0.63267 0.34492 0.04318 0.0
C7955 C 0.64741 0.36106 0.06861 0.0
C7956 C 0.63936 0.36606 0.06898 0.0
C7957 C 0.64778 0.35292 0.06388 0.0
C7958 C 0.63596 0.33935 0.04655 0.0
H7959 H 0.65241 0.29541 0.03982 0.0
H7960 H 0.65346 0.31077 0.0456 0.0
H7961 H 0.63243 0.33006 0.03609 0.0
H7962 H 0.62548 0.36658 0.06438 0.0
H7963 H 0.62607 0.3523 0.05626 0.0
H7964 H 0.64794 0.33402 0.06534 0.0
C7965 C 0.6471 0.3085 0.0428 0.0
C7966 C 0.63582 0.33084 0.04249 0.0
C7967 C 0.6465 0.29969 0.03949 0.0
C7968 C 0.63175 0.36283 0.06432 0.0
C7969 C 0.63213 0.3547 0.05958 0.0
C7970 C 0.64465 0.33328 0.05889 0.0
C7971 C 0.63959 0.31427 0.04255 0.0
C7972 C 0.64005 0.32343 0.04662 0.0
C7973 C 0.64011 0.34959 0.05939 0.0
C7974 C 0.64032 0.34066 0.05483 0.0
H7975 H 0.62454 0.29998 0.03265 0.0
H7976 H 0.62557 0.31534 0.03846 0.0
H7977 H 0.6477 0.3192 0.05829 0.0
H7978 H 0.65337 0.36332 0.07218 0.0
H7979 H 0.65407 0.34919 0.06378 0.0
C7980 C 0.98348 0.39168 0.28451 0.0
C7981 C 0.98685 0.38282 0.28448 0.0
C7982 C 0.97728 0.39444 0.29106 0.0
C7983 C 0.96968 0.38829 0.31385 0.0
H7984 H 0.94924 0.40381 0.30881 0.0
C7985 C 0.9415 0.39341 0.33955 0.0
C7986 C 0.93839 0.40224 0.34106 0.0
C7987 C 0.94718 0.3915 0.33234 0.0
C7988 C 0.95498 0.39956 0.31032 0.0
H7989 H 0.98598 0.36976 0.29097 0.0
H7990 H 0.97514 0.37451 0.3023 0.0
H7991 H 0.95952 0.39953 0.29665 0.0
H7992 H 0.9386 0.41594 0.33599 0.0
H7993 H 0.94855 0.41257 0.32328 0.0
H7994 H 0.96516 0.38824 0.32747 0.0
C7995 C 0.97745 0.37942 0.29743 0.0
C7996 C 0.96086 0.3971 0.30337 0.0
C7997 C 0.98365 0.37669 0.29093 0.0
C7998 C 0.94086 0.40907 0.33499 0.0
C7999 C 0.94655 0.40714 0.32772 0.0
C8000 C 0.96382 0.39072 0.32076 0.0
C8001 C 0.97432 0.38837 0.29769 0.0
C8002 C 0.96821 0.39134 0.30504 0.0
C8003 C 0.94988 0.39836 0.32642 0.0
C8004 C 0.95633 0.39627 0.31907 0.0
H8005 H 0.98587 0.39658 0.27966 0.0
H8006 H 0.97504 0.40139 0.2911 0.0
H8007 H 0.97541 0.38404 0.31543 0.0
H8008 H 0.93953 0.38793 0.34395 0.0
H8009 H 0.94945 0.38462 0.33139 0.0
C8010 C 0.87269 0.71156 0.54788 0.0
C8011 C 0.86953 0.71294 0.53909 0.0
C8012 C 0.87314 0.70289 0.55147 0.0
C8013 C 0.86407 0.67988 0.54935 0.0
H8014 H 0.88529 0.6737 0.56328 0.0
C8015 C 0.87048 0.6442 0.56468 0.0
C8016 C 0.87421 0.64409 0.57335 0.0
C8017 C 0.86962 0.65235 0.55998 0.0
C8018 C 0.87928 0.67534 0.55948 0.0
H8019 H 0.86428 0.70628 0.52722 0.0
H8020 H 0.86513 0.69104 0.53353 0.0
H8021 H 0.88445 0.68833 0.55595 0.0
H8022 H 0.87945 0.65247 0.5841 0.0
H8023 H 0.87791 0.6666 0.57598 0.0
H8024 H 0.85888 0.66686 0.55301 0.0
C8025 C 0.86721 0.69672 0.53763 0.0
C8026 C 0.8788 0.68372 0.55527 0.0
C8027 C 0.8668 0.70542 0.53399 0.0
C8028 C 0.87675 0.6523 0.57734 0.0
C8029 C 0.87588 0.6604 0.57268 0.0
C8030 C 0.86454 0.67145 0.5536 0.0
C8031 C 0.87045 0.69536 0.54639 0.0
C8032 C 0.87113 0.68616 0.55029 0.0
C8033 C 0.87246 0.66052 0.56388 0.0
C8034 C 0.87209 0.66916 0.55884 0.0
H8035 H 0.87495 0.71718 0.55195 0.0
H8036 H 0.87556 0.70208 0.55829 0.0
H8037 H 0.85805 0.68158 0.54559 0.0
H8038 H 0.86848 0.63797 0.56143 0.0
H8039 H 0.86697 0.65221 0.5532 0.0
C8040 C 0.52636 0.37913 0.71748 0.0
C8041 C 0.52156 0.38531 0.7228 0.0
C8042 C 0.53274 0.38214 0.71126 0.0
C8043 C 0.53849 0.40179 0.69748 0.0
H8044 H 0.56108 0.38908 0.69386 0.0
C8045 C 0.55978 0.40483 0.66516 0.0
C8046 C 0.56923 0.40504 0.66599 0.0
C8047 C 0.55432 0.40338 0.67267 0.0
C8048 C 0.55485 0.39277 0.69485 0.0
H8049 H 0.51974 0.39951 0.72582 0.0
H8050 H 0.53093 0.40478 0.71495 0.0
H8051 H 0.55112 0.38465 0.70614 0.0
H8052 H 0.58036 0.40409 0.67538 0.0
H8053 H 0.57082 0.4016 0.68854 0.0
H8054 H 0.54218 0.40984 0.68612 0.0
C8055 C 0.52973 0.3976 0.71559 0.0
C8056 C 0.5491 0.39017 0.70182 0.0
C8057 C 0.52339 0.39458 0.72187 0.0
C8058 C 0.5731 0.40402 0.67454 0.0
C8059 C 0.56764 0.40251 0.68205 0.0
C8060 C 0.54421 0.40435 0.69046 0.0
C8061 C 0.53443 0.39141 0.71017 0.0
C8062 C 0.54082 0.39458 0.70316 0.0
C8063 C 0.5582 0.40207 0.68118 0.0
C8064 C 0.55241 0.39981 0.68901 0.0
H8065 H 0.52515 0.37194 0.7181 0.0
H8066 H 0.53619 0.37721 0.70713 0.0
H8067 H 0.53212 0.40528 0.69829 0.0
H8068 H 0.5566 0.40568 0.65867 0.0
H8069 H 0.54708 0.40301 0.67176 0.0
C8070 C 0.87193 0.29771 0.96403 0.0
C8071 C 0.86392 0.29278 0.96273 0.0
C8072 C 0.87222 0.30697 0.96224 0.0
C8073 C 0.86097 0.32386 0.9482 0.0
H8074 H 0.87488 0.34102 0.96219 0.0
C8075 C 0.86378 0.36096 0.93728 0.0
C8076 C 0.87249 0.36474 0.93757 0.0
C8077 C 0.86194 0.35279 0.9416 0.0
C8078 C 0.87101 0.3363 0.95818 0.0
H8079 H 0.84979 0.29382 0.95906 0.0
H8080 H 0.85031 0.30996 0.9559 0.0
H8081 H 0.87316 0.32553 0.96754 0.0
H8082 H 0.88593 0.36315 0.94312 0.0
H8083 H 0.8828 0.3488 0.95042 0.0
H8084 H 0.85904 0.33448 0.93871 0.0
C8085 C 0.85641 0.30663 0.95815 0.0
C8086 C 0.87002 0.32743 0.96126 0.0
C8087 C 0.85612 0.29739 0.95996 0.0
C8088 C 0.87919 0.36035 0.94263 0.0
C8089 C 0.87736 0.35217 0.94692 0.0
C8090 C 0.86199 0.3327 0.94511 0.0
C8091 C 0.86451 0.3115 0.9591 0.0
C8092 C 0.86506 0.32109 0.95624 0.0
C8093 C 0.86876 0.34819 0.9463 0.0
C8094 C 0.86711 0.33901 0.95001 0.0
H8095 H 0.87809 0.29435 0.96607 0.0
H8096 H 0.87859 0.31049 0.96294 0.0
H8097 H 0.85725 0.31911 0.94409 0.0
H8098 H 0.85846 0.36411 0.93341 0.0
H8099 H 0.8552 0.34999 0.9411 0.0
C8100 C 0.98376 0.61595 0.22235 0.0
C8101 C 0.98674 0.62496 0.22268 0.0
C8102 C 0.97769 0.61314 0.2157 0.0
C8103 C 0.97012 0.61958 0.19303 0.0
H8104 H 0.95021 0.60314 0.19738 0.0
C8105 C 0.94259 0.61385 0.16672 0.0
C8106 C 0.93967 0.60497 0.16511 0.0
C8107 C 0.94815 0.61583 0.17401 0.0
C8108 C 0.95581 0.60765 0.19605 0.0
H8109 H 0.9853 0.63818 0.21664 0.0
H8110 H 0.97472 0.63332 0.20511 0.0
H8111 H 0.96012 0.60753 0.2098 0.0
H8112 H 0.94015 0.59122 0.17004 0.0
H8113 H 0.94992 0.5947 0.18286 0.0
H8114 H 0.96585 0.61975 0.17934 0.0
C8115 C 0.97722 0.62836 0.20983 0.0
C8116 C 0.96147 0.61017 0.20316 0.0
C8117 C 0.98327 0.63116 0.21645 0.0
C8118 C 0.94226 0.59814 0.17112 0.0
C8119 C 0.94785 0.60013 0.17845 0.0
C8120 C 0.96448 0.61707 0.18596 0.0
C8121 C 0.9745 0.61929 0.20925 0.0
C8122 C 0.96862 0.61627 0.20174 0.0
C8123 C 0.95094 0.60899 0.1799 0.0
C8124 C 0.95718 0.61118 0.1874 0.0
H8125 H 0.98637 0.611 0.22702 0.0
H8126 H 0.97576 0.60609 0.2154 0.0
H8127 H 0.9757 0.6241 0.19165 0.0
H8128 H 0.94053 0.61932 0.16236 0.0
H8129 H 0.95024 0.62277 0.17505 0.0
C8130 C 0.63834 0.70362 0.47358 0.0
C8131 C 0.6368 0.71106 0.46792 0.0
C8132 C 0.63901 0.69489 0.47002 0.0
C8133 C 0.63183 0.68164 0.45049 0.0
H8134 H 0.65073 0.66487 0.45724 0.0
C8135 C 0.63746 0.64912 0.43057 0.0
C8136 C 0.63949 0.64118 0.43529 0.0
C8137 C 0.6375 0.65745 0.43492 0.0
C8138 C 0.64534 0.66943 0.45537 0.0
H8139 H 0.63523 0.71517 0.45403 0.0
H8140 H 0.63624 0.7 0.44788 0.0
H8141 H 0.65006 0.67978 0.46432 0.0
H8142 H 0.64336 0.63575 0.44822 0.0
H8143 H 0.64328 0.65036 0.45592 0.0
H8144 H 0.627 0.67137 0.44165 0.0
C8145 C 0.63678 0.70089 0.45508 0.0
C8146 C 0.64497 0.67796 0.45942 0.0
C8147 C 0.63617 0.70958 0.45861 0.0
C8148 C 0.6418 0.64178 0.44442 0.0
C8149 C 0.64177 0.65015 0.44881 0.0
C8150 C 0.63215 0.67312 0.44651 0.0
C8151 C 0.6381 0.69344 0.46074 0.0
C8152 C 0.63829 0.68419 0.45691 0.0
C8153 C 0.6395 0.65807 0.44413 0.0
C8154 C 0.63899 0.66695 0.44878 0.0
H8155 H 0.6388 0.70451 0.48078 0.0
H8156 H 0.63999 0.68926 0.47454 0.0
H8157 H 0.62649 0.68623 0.44856 0.0
H8158 H 0.63583 0.64888 0.42349 0.0
H8159 H 0.63596 0.66343 0.43104 0.0
C8160 C 0.79199 0.51825 0.61181 0.0
C8161 C 0.79237 0.51592 0.62095 0.0
C8162 C 0.79637 0.52599 0.60867 0.0
C8163 C 0.80642 0.54765 0.61616 0.0
H8164 H 0.82141 0.54522 0.59496 0.0
C8165 C 0.83584 0.5717 0.60866 0.0
C8166 C 0.83767 0.57414 0.59973 0.0
C8167 C 0.82918 0.56534 0.61063 0.0
C8168 C 0.81713 0.54608 0.60079 0.0
H8169 H 0.79736 0.52007 0.634 0.0
H8170 H 0.80508 0.5335 0.62852 0.0
H8171 H 0.81174 0.53272 0.59957 0.0
H8172 H 0.8338 0.57197 0.58587 0.0
H8173 H 0.82206 0.56084 0.58933 0.0
H8174 H 0.81195 0.56093 0.6175 0.0
C8175 C 0.80136 0.52938 0.62377 0.0
C8176 C 0.81159 0.53891 0.60344 0.0
C8177 C 0.79702 0.52163 0.62691 0.0
C8178 C 0.83252 0.57024 0.59281 0.0
C8179 C 0.82586 0.56382 0.59479 0.0
C8180 C 0.81194 0.55482 0.61351 0.0
C8181 C 0.80117 0.53161 0.61461 0.0
C8182 C 0.80632 0.53954 0.61126 0.0
C8183 C 0.82417 0.56125 0.60373 0.0
C8184 C 0.81752 0.55405 0.60591 0.0
H8185 H 0.78851 0.51395 0.60705 0.0
H8186 H 0.79605 0.52757 0.60158 0.0
H8187 H 0.80231 0.54842 0.62212 0.0
H8188 H 0.83961 0.57467 0.61415 0.0
H8189 H 0.82814 0.56345 0.61757 0.0
C8190 C 0.29484 0.99055 0.39395 0.0
C8191 C 0.2949 0.99266 0.38476 0.0
C8192 C 0.29933 0.98288 0.39712 0.0
C8193 C 0.30908 0.96105 0.3898 0.0
H8194 H 0.32473 0.96398 0.41047 0.0
C8195 C 0.33819 0.93665 0.39738 0.0
C8196 C 0.34011 0.93444 0.40635 0.0
C8197 C 0.33172 0.94316 0.39532 0.0
C8198 C 0.32027 0.96299 0.40478 0.0
H8199 H 0.29939 0.9882 0.37164 0.0
H8200 H 0.30728 0.9749 0.37715 0.0
H8201 H 0.315 0.9764 0.40582 0.0
H8202 H 0.33663 0.93726 0.4202 0.0
H8203 H 0.32521 0.94862 0.41659 0.0
H8204 H 0.31446 0.94771 0.38866 0.0
C8205 C 0.30375 0.97913 0.38193 0.0
C8206 C 0.3147 0.97011 0.40212 0.0
C8207 C 0.29931 0.98681 0.37877 0.0
C8208 C 0.33527 0.93878 0.41322 0.0
C8209 C 0.3288 0.94534 0.41115 0.0
C8210 C 0.31464 0.95393 0.39247 0.0
C8211 C 0.30391 0.97713 0.39115 0.0
C8212 C 0.30916 0.96928 0.39449 0.0
C8213 C 0.32698 0.94763 0.40217 0.0
C8214 C 0.32043 0.95488 0.39989 0.0
H8215 H 0.29156 0.99496 0.39874 0.0
H8216 H 0.29926 0.98147 0.40425 0.0
H8217 H 0.30477 0.96014 0.384 0.0
H8218 H 0.3417 0.93334 0.39192 0.0
H8219 H 0.33058 0.94483 0.38833 0.0
C8220 C 0.29649 0.05667 0.64187 0.0
C8221 C 0.29341 0.0481 0.64452 0.0
C8222 C 0.30568 0.05867 0.6418 0.0
C8223 C 0.32842 0.04861 0.64128 0.0
H8224 H 0.33541 0.07231 0.64991 0.0
C8225 C 0.36579 0.06104 0.64362 0.0
C8226 C 0.36727 0.06974 0.64016 0.0
C8227 C 0.35698 0.05776 0.64473 0.0
C8228 C 0.33357 0.06568 0.64745 0.0
H8229 H 0.29762 0.03484 0.64897 0.0
H8230 H 0.31379 0.03835 0.64885 0.0
H8231 H 0.31967 0.06768 0.65069 0.0
H8232 H 0.3607 0.08189 0.63535 0.0
H8233 H 0.34543 0.07617 0.63723 0.0
H8234 H 0.34239 0.04669 0.63797 0.0
C8235 C 0.30904 0.0435 0.6468 0.0
C8236 C 0.32454 0.06303 0.64787 0.0
C8237 C 0.29979 0.04149 0.64686 0.0
C8238 C 0.35979 0.07511 0.63792 0.0
C8239 C 0.35103 0.07187 0.63909 0.0
C8240 C 0.33749 0.05127 0.64087 0.0
C8241 C 0.31207 0.05216 0.64439 0.0
C8242 C 0.32182 0.05455 0.64461 0.0
C8243 C 0.34951 0.06318 0.64253 0.0
C8244 C 0.34012 0.05991 0.64377 0.0
H8245 H 0.29177 0.06185 0.63982 0.0
H8246 H 0.3078 0.06533 0.63968 0.0
H8247 H 0.32653 0.04205 0.63868 0.0
H8248 H 0.37143 0.05675 0.64537 0.0
H8249 H 0.356 0.05104 0.64743 0.0
C8250 C 0.21693 0.02552 0.87527 0.0
C8251 C 0.22291 0.02195 0.88167 0.0
C8252 C 0.2104 0.03181 0.87777 0.0
C8253 C 0.20369 0.04798 0.8955 0.0
H8254 H 0.17995 0.0445 0.88508 0.0
C8255 C 0.17166 0.06814 0.90632 0.0
C8256 C 0.16594 0.07093 0.89932 0.0
C8257 C 0.17897 0.06241 0.90458 0.0
C8258 C 0.18656 0.04562 0.88799 0.0
H8259 H 0.22687 0.02238 0.89566 0.0
H8260 H 0.21538 0.03338 0.90005 0.0
H8261 H 0.19208 0.03415 0.88127 0.0
H8262 H 0.16373 0.07031 0.88494 0.0
H8263 H 0.17638 0.06034 0.88192 0.0
H8264 H 0.19807 0.05947 0.90225 0.0
C8265 C 0.21582 0.03135 0.89308 0.0
C8266 C 0.19352 0.03969 0.88579 0.0
C8267 C 0.2224 0.02506 0.89057 0.0
C8268 C 0.16786 0.0681 0.89052 0.0
C8269 C 0.17512 0.06239 0.88879 0.0
C8270 C 0.19669 0.05392 0.89772 0.0
C8271 C 0.20964 0.03468 0.88673 0.0
C8272 C 0.20221 0.04086 0.88941 0.0
C8273 C 0.18068 0.05936 0.8958 0.0
C8274 C 0.18807 0.05287 0.89388 0.0
H8275 H 0.21727 0.02339 0.86832 0.0
H8276 H 0.20589 0.03439 0.87266 0.0
H8277 H 0.21032 0.04909 0.89838 0.0
H8278 H 0.17033 0.07017 0.91318 0.0
H8279 H 0.18312 0.06015 0.91012 0.0
C8280 C 0.70307 0.47281 0.62583 0.0
C8281 C 0.70875 0.47261 0.63338 0.0
C8282 C 0.69422 0.46958 0.62636 0.0
C8283 C 0.67606 0.46347 0.64241 0.0
H8284 H 0.66748 0.44876 0.62264 0.0
C8285 C 0.644 0.44107 0.64442 0.0
C8286 C 0.63854 0.4405 0.63672 0.0
C8287 C 0.65222 0.44571 0.64417 0.0
C8288 C 0.66971 0.45296 0.62816 0.0
H8289 H 0.70956 0.46889 0.64743 0.0
H8290 H 0.69413 0.4632 0.64834 0.0
H8291 H 0.68244 0.45551 0.62189 0.0
H8292 H 0.63722 0.44477 0.62286 0.0
H8293 H 0.65155 0.45286 0.62243 0.0
H8294 H 0.66334 0.46078 0.64873 0.0
C8295 C 0.69647 0.46599 0.64204 0.0
C8296 C 0.6783 0.45683 0.62773 0.0
C8297 C 0.70532 0.46925 0.64152 0.0
C8298 C 0.64135 0.44493 0.62886 0.0
C8299 C 0.64956 0.44957 0.62861 0.0
C8300 C 0.66746 0.45957 0.64285 0.0
C8301 C 0.69084 0.46604 0.63444 0.0
C8302 C 0.68159 0.46212 0.63486 0.0
C8303 C 0.65516 0.44989 0.63622 0.0
C8304 C 0.6642 0.45426 0.63573 0.0
H8305 H 0.70546 0.47549 0.6195 0.0
H8306 H 0.69001 0.46987 0.62042 0.0
H8307 H 0.67834 0.4676 0.64797 0.0
H8308 H 0.64207 0.43765 0.65055 0.0
H8309 H 0.65642 0.44576 0.65012 0.0
C8310 C 0.71218 0.48984 0.1193 0.0
C8311 C 0.72073 0.4869 0.12216 0.0
C8312 C 0.70561 0.48364 0.11664 0.0
C8313 C 0.70201 0.46028 0.10887 0.0
H8314 H 0.67786 0.46406 0.11818 0.0
C8315 C 0.67329 0.43372 0.10575 0.0
C8316 C 0.66447 0.43694 0.10444 0.0
C8317 C 0.68042 0.43973 0.1073 0.0
C8318 C 0.68452 0.46297 0.1154 0.0
H8319 H 0.72914 0.47512 0.12424 0.0
H8320 H 0.71762 0.46425 0.11953 0.0
H8321 H 0.68981 0.47464 0.12201 0.0
H8322 H 0.65628 0.44899 0.10322 0.0
H8323 H 0.6687 0.45947 0.10576 0.0
H8324 H 0.69667 0.44859 0.10224 0.0
C8325 C 0.71605 0.47138 0.11933 0.0
C8326 C 0.69139 0.46903 0.11762 0.0
C8327 C 0.72264 0.47761 0.12203 0.0
C8328 C 0.66298 0.4463 0.10437 0.0
C8329 C 0.6701 0.4523 0.10585 0.0
C8330 C 0.69511 0.45421 0.10661 0.0
C8331 C 0.70742 0.47433 0.11673 0.0
C8332 C 0.7002 0.46778 0.11437 0.0
C8333 C 0.67888 0.4491 0.10752 0.0
C8334 C 0.68627 0.45551 0.10983 0.0
H8335 H 0.71055 0.49696 0.11911 0.0
H8336 H 0.69908 0.48614 0.1145 0.0
H8337 H 0.70871 0.45918 0.1062 0.0
H8338 H 0.67462 0.42654 0.10591 0.0
H8339 H 0.68707 0.43703 0.10863 0.0
C8340 C 0.30035 0.96643 0.86139 0.0
C8341 C 0.29427 0.96046 0.86556 0.0
C8342 C 0.30968 0.96496 0.86193 0.0
C8343 C 0.32685 0.9526 0.87517 0.0
H8344 H 0.34132 0.95366 0.8535 0.0
C8345 C 0.35996 0.93331 0.87186 0.0
C8346 C 0.3675 0.93769 0.86813 0.0
C8347 C 0.35146 0.93731 0.87163 0.0
C8348 C 0.3374 0.95348 0.85963 0.0
H8349 H 0.29322 0.94846 0.8738 0.0
H8350 H 0.30939 0.94583 0.87465 0.0
H8351 H 0.32556 0.95861 0.85313 0.0
H8352 H 0.37193 0.94966 0.86099 0.0
H8353 H 0.35691 0.95662 0.86045 0.0
H8354 H 0.33856 0.94721 0.88161 0.0
C8355 C 0.307 0.95168 0.871 0.0
C8356 C 0.32838 0.95632 0.85943 0.0
C8357 C 0.29772 0.95312 0.87042 0.0
C8358 C 0.36626 0.94609 0.86391 0.0
C8359 C 0.35768 0.95009 0.86361 0.0
C8360 C 0.33582 0.94974 0.87537 0.0
C8361 C 0.3131 0.95755 0.86673 0.0
C8362 C 0.32295 0.95568 0.86715 0.0
C8363 C 0.35023 0.94577 0.86759 0.0
C8364 C 0.34111 0.94992 0.86755 0.0
H8365 H 0.29789 0.97212 0.85755 0.0
H8366 H 0.31421 0.96963 0.85861 0.0
H8367 H 0.32291 0.95222 0.88129 0.0
H8368 H 0.36059 0.92672 0.87492 0.0
H8369 H 0.34581 0.93372 0.87455 0.0
C8370 C 0.20429 0.02932 0.36971 0.0
C8371 C 0.2113 0.03568 0.36894 0.0
C8372 C 0.19526 0.03196 0.36885 0.0
C8373 C 0.1808 0.05088 0.36079 0.0
H8374 H 0.16307 0.04024 0.37672 0.0
C8375 C 0.14355 0.06204 0.35971 0.0
C8376 C 0.13922 0.06319 0.36803 0.0
C8377 C 0.15189 0.05765 0.35918 0.0
C8378 C 0.16793 0.04333 0.37225 0.0
H8379 H 0.21426 0.04981 0.3664 0.0
H8380 H 0.1986 0.05446 0.36532 0.0
H8381 H 0.17858 0.0349 0.37709 0.0
H8382 H 0.1401 0.06019 0.38226 0.0
H8383 H 0.15476 0.05293 0.38139 0.0
H8384 H 0.1703 0.05965 0.35631 0.0
C8385 C 0.20004 0.04738 0.36642 0.0
C8386 C 0.17682 0.04017 0.37237 0.0
C8387 C 0.20905 0.04473 0.36719 0.0
C8388 C 0.14331 0.05958 0.37575 0.0
C8389 C 0.15167 0.05528 0.37523 0.0
C8390 C 0.17194 0.0541 0.36073 0.0
C8391 C 0.19301 0.04104 0.36726 0.0
C8392 C 0.18341 0.04398 0.36672 0.0
C8393 C 0.15615 0.05437 0.36696 0.0
C8394 C 0.16541 0.05045 0.36655 0.0
H8395 H 0.20574 0.02231 0.37113 0.0
H8396 H 0.19005 0.02687 0.36943 0.0
H8397 H 0.18563 0.05388 0.35622 0.0
H8398 H 0.14065 0.06478 0.35363 0.0
H8399 H 0.15504 0.05694 0.35266 0.0
C8400 C 0.39688 0.21582 0.45887 0.0
C8401 C 0.39393 0.20962 0.4654 0.0
C8402 C 0.39552 0.21405 0.44972 0.0
C8403 C 0.38116 0.20067 0.43451 0.0
H8404 H 0.40099 0.20222 0.41757 0.0
C8405 C 0.3804 0.18136 0.40147 0.0
C8406 C 0.38337 0.18563 0.39359 0.0
C8407 C 0.3817 0.18538 0.40982 0.0
C8408 C 0.39535 0.2019 0.42219 0.0
H8409 H 0.38707 0.19686 0.46747 0.0
H8410 H 0.38474 0.19378 0.45161 0.0
H8411 H 0.4031 0.20749 0.43303 0.0
H8412 H 0.39029 0.19739 0.38833 0.0
H8413 H 0.39263 0.20446 0.40306 0.0
H8414 H 0.37344 0.19496 0.42381 0.0
C8415 C 0.38809 0.19999 0.45352 0.0
C8416 C 0.39656 0.20491 0.43103 0.0
C8417 C 0.38952 0.20171 0.46261 0.0
C8418 C 0.38794 0.19393 0.39429 0.0
C8419 C 0.38926 0.19797 0.4027 0.0
C8420 C 0.37995 0.1977 0.42572 0.0
C8421 C 0.39107 0.20613 0.44697 0.0
C8422 C 0.38955 0.20409 0.43733 0.0
C8423 C 0.38603 0.19378 0.41054 0.0
C8424 C 0.3871 0.19803 0.41952 0.0
H8425 H 0.40033 0.22196 0.46084 0.0
H8426 H 0.39786 0.2189 0.44482 0.0
H8427 H 0.37557 0.20014 0.43917 0.0
H8428 H 0.37708 0.17484 0.4012 0.0
H8429 H 0.37936 0.18185 0.41574 0.0
C8430 C 0.55495 0.63886 0.24883 0.0
C8431 C 0.54672 0.63444 0.24716 0.0
C8432 C 0.56016 0.64218 0.24176 0.0
C8433 C 0.55998 0.64859 0.21783 0.0
H8434 H 0.58546 0.64286 0.21947 0.0
C8435 C 0.58567 0.65336 0.18851 0.0
C8436 C 0.5945 0.65589 0.19087 0.0
C8437 C 0.57923 0.65158 0.19518 0.0
C8438 C 0.5784 0.64466 0.21895 0.0
H8439 H 0.53732 0.63036 0.23676 0.0
H8440 H 0.54648 0.63618 0.22434 0.0
H8441 H 0.57533 0.6382 0.23138 0.0
H8442 H 0.60335 0.65922 0.20196 0.0
H8443 H 0.59213 0.65634 0.21356 0.0
H8444 H 0.56312 0.65506 0.20533 0.0
C8445 C 0.54886 0.63709 0.23116 0.0
C8446 C 0.57257 0.64196 0.22578 0.0
C8447 C 0.54362 0.63376 0.23826 0.0
C8448 C 0.59663 0.65712 0.19997 0.0
C8449 C 0.59021 0.65543 0.20661 0.0
C8450 C 0.56584 0.65134 0.21096 0.0
C8451 C 0.55728 0.64116 0.23283 0.0
C8452 C 0.56331 0.64395 0.22536 0.0
C8453 C 0.58152 0.65236 0.20432 0.0
C8454 C 0.57514 0.64947 0.21149 0.0
H8455 H 0.55743 0.6397 0.25562 0.0
H8456 H 0.56651 0.64546 0.24329 0.0
H8457 H 0.55288 0.65025 0.21734 0.0
H8458 H 0.58387 0.65232 0.18154 0.0
H8459 H 0.57261 0.6492 0.19319 0.0
C8460 C 0.11251 0.78086 0.95345 0.0
C8461 C 0.11538 0.78631 0.96064 0.0
C8462 C 0.11255 0.7842 0.94466 0.0
C8463 C 0.12301 0.80197 0.93071 0.0
H8464 H 0.10261 0.79819 0.91482 0.0
C8465 C 0.11842 0.82312 0.89899 0.0
C8466 C 0.1159 0.8187 0.89103 0.0
C8467 C 0.11817 0.81862 0.9072 0.0
C8468 C 0.1084 0.7992 0.91914 0.0
H8469 H 0.12066 0.7995 0.9642 0.0
H8470 H 0.12058 0.80535 0.94897 0.0
H8471 H 0.10268 0.7912 0.9297 0.0
H8472 H 0.11086 0.80614 0.88548 0.0
H8473 H 0.11038 0.79823 0.89992 0.0
H8474 H 0.12871 0.81002 0.92025 0.0
C8475 C 0.11837 0.79847 0.95009 0.0
C8476 C 0.10845 0.7952 0.92766 0.0
C8477 C 0.11831 0.79515 0.95884 0.0
C8478 C 0.11281 0.80974 0.89151 0.0
C8479 C 0.11255 0.80521 0.89976 0.0
C8480 C 0.12297 0.80595 0.92224 0.0
C8481 C 0.11552 0.79304 0.94288 0.0
C8482 C 0.11569 0.79667 0.93359 0.0
C8483 C 0.11537 0.80957 0.90767 0.0
C8484 C 0.1156 0.80476 0.91641 0.0
H8485 H 0.11016 0.77404 0.95463 0.0
H8486 H 0.11036 0.77984 0.93924 0.0
H8487 H 0.12879 0.80307 0.93503 0.0
H8488 H 0.12061 0.8301 0.89889 0.0
H8489 H 0.12017 0.82224 0.91319 0.0
C8490 C 0.96459 0.36728 0.73445 0.0
C8491 C 0.96047 0.36806 0.74292 0.0
C8492 C 0.95965 0.36424 0.72702 0.0
C8493 C 0.93886 0.3517 0.72101 0.0
H8494 H 0.9408 0.36432 0.69831 0.0
C8495 C 0.91187 0.34868 0.69347 0.0
C8496 C 0.91463 0.34843 0.68445 0.0
C8497 C 0.91812 0.35027 0.70031 0.0
C8498 C 0.94028 0.36063 0.70456 0.0
H8499 H 0.94784 0.36647 0.75014 0.0
H8500 H 0.93929 0.36115 0.73726 0.0
H8501 H 0.95057 0.36864 0.7108 0.0
H8502 H 0.92615 0.34955 0.67554 0.0
H8503 H 0.93712 0.35225 0.68753 0.0
H8504 H 0.92848 0.34379 0.71485 0.0
C8505 C 0.94638 0.36271 0.73638 0.0
C8506 C 0.94588 0.36311 0.71171 0.0
C8507 C 0.95129 0.36576 0.74377 0.0
C8508 C 0.92383 0.34964 0.68243 0.0
C8509 C 0.93009 0.35128 0.68929 0.0
C8510 C 0.93327 0.34922 0.71387 0.0
C8511 C 0.95049 0.3619 0.72792 0.0
C8512 C 0.94511 0.35878 0.72007 0.0
C8513 C 0.92729 0.35166 0.6983 0.0
C8514 C 0.9338 0.35376 0.70561 0.0
H8515 H 0.97166 0.36892 0.73358 0.0
H8516 H 0.96303 0.36362 0.72061 0.0
H8517 H 0.93823 0.34811 0.72731 0.0
H8518 H 0.90486 0.34766 0.69526 0.0
H8519 H 0.91572 0.35062 0.70716 0.0
C8520 C 0.39414 0.79097 0.04717 0.0
C8521 C 0.38996 0.79652 0.04074 0.0
C8522 C 0.39299 0.79268 0.05636 0.0
C8523 C 0.37785 0.8044 0.07225 0.0
H8524 H 0.39873 0.80569 0.08791 0.0
C8525 C 0.37713 0.82468 0.10472 0.0
C8526 C 0.3809 0.82096 0.11254 0.0
C8527 C 0.37833 0.82052 0.09642 0.0
C8528 C 0.39282 0.80521 0.08366 0.0
H8529 H 0.38111 0.80801 0.03889 0.0
H8530 H 0.37917 0.81101 0.05481 0.0
H8531 H 0.40049 0.80032 0.07245 0.0
H8532 H 0.38915 0.81006 0.11771 0.0
H8533 H 0.39135 0.80279 0.10306 0.0
H8534 H 0.3702 0.80949 0.08332 0.0
C8535 C 0.3833 0.80533 0.05281 0.0
C8536 C 0.39382 0.80214 0.07482 0.0
C8537 C 0.3845 0.80368 0.04368 0.0
C8538 C 0.38616 0.8131 0.1118 0.0
C8539 C 0.38741 0.80893 0.10343 0.0
C8540 C 0.37685 0.80747 0.08105 0.0
C8541 C 0.38755 0.79988 0.05926 0.0
C8542 C 0.38638 0.80195 0.06895 0.0
C8543 C 0.38338 0.81254 0.09568 0.0
C8544 C 0.38436 0.80815 0.08677 0.0
H8545 H 0.39842 0.78543 0.0451 0.0
H8546 H 0.39631 0.78834 0.06118 0.0
H8547 H 0.37195 0.80414 0.06796 0.0
H8548 H 0.37327 0.83087 0.10498 0.0
H8549 H 0.37535 0.82361 0.09054 0.0
C8550 C 0.96282 0.64488 0.76734 0.0
C8551 C 0.97153 0.64195 0.76968 0.0
C8552 C 0.95679 0.64786 0.7739 0.0
C8553 C 0.95227 0.64637 0.79828 0.0
H8554 H 0.93563 0.66591 0.79329 0.0
C8555 C 0.92758 0.66022 0.82501 0.0
C8556 C 0.91861 0.66143 0.82216 0.0
C8557 C 0.93442 0.65847 0.81879 0.0
C8558 C 0.9402 0.66041 0.79476 0.0
H8559 H 0.98075 0.63997 0.78081 0.0
H8560 H 0.97031 0.64541 0.79226 0.0
H8561 H 0.94697 0.6618 0.78215 0.0
H8562 H 0.90985 0.66204 0.81052 0.0
H8563 H 0.92179 0.65898 0.79965 0.0
H8564 H 0.94548 0.64499 0.81089 0.0
C8565 C 0.96809 0.64526 0.78533 0.0
C8566 C 0.94669 0.65804 0.78837 0.0
C8567 C 0.97412 0.64224 0.77876 0.0
C8568 C 0.91668 0.66106 0.81293 0.0
C8569 C 0.92353 0.65939 0.8067 0.0
C8570 C 0.94581 0.64878 0.80468 0.0
C8571 C 0.95932 0.64804 0.783 0.0
C8572 C 0.95275 0.65091 0.79 0.0
C8573 C 0.93247 0.65799 0.80956 0.0
C8574 C 0.93964 0.65577 0.80296 0.0
H8575 H 0.96063 0.64488 0.7604 0.0
H8576 H 0.95007 0.64985 0.77185 0.0
H8577 H 0.95672 0.64076 0.79971 0.0
H8578 H 0.92926 0.66039 0.83208 0.0
H8579 H 0.94125 0.6575 0.82119 0.0
C8580 C 0.11112 0.21518 0.55026 0.0
C8581 C 0.1156 0.20936 0.54429 0.0
C8582 C 0.11163 0.21378 0.55954 0.0
C8583 C 0.12508 0.20178 0.57685 0.0
H8584 H 0.10302 0.2023 0.59087 0.0
C8585 C 0.12153 0.18221 0.60957 0.0
C8586 C 0.11777 0.18657 0.61708 0.0
C8587 C 0.12129 0.18623 0.60113 0.0
C8588 C 0.10925 0.20226 0.58707 0.0
H8589 H 0.12441 0.19772 0.54339 0.0
H8590 H 0.12518 0.19518 0.55947 0.0
H8591 H 0.10279 0.20729 0.57521 0.0
H8592 H 0.11052 0.19849 0.62148 0.0
H8593 H 0.10994 0.20546 0.60656 0.0
H8594 H 0.13147 0.19646 0.58858 0.0
C8595 C 0.12131 0.20087 0.55704 0.0
C8596 C 0.10913 0.20513 0.57811 0.0
C8597 C 0.12078 0.20226 0.5478 0.0
C8598 C 0.11346 0.19494 0.61585 0.0
C8599 C 0.11315 0.19894 0.60732 0.0
C8600 C 0.12518 0.19888 0.58575 0.0
C8601 C 0.1167 0.20657 0.56303 0.0
C8602 C 0.117 0.20469 0.57283 0.0
C8603 C 0.1172 0.19467 0.59992 0.0
C8604 C 0.11723 0.19887 0.59088 0.0
H8605 H 0.10704 0.22069 0.54775 0.0
H8606 H 0.10805 0.21832 0.56399 0.0
H8607 H 0.1313 0.20156 0.57304 0.0
H8608 H 0.12464 0.17563 0.61019 0.0
H8609 H 0.12427 0.18267 0.59551 0.0
C8610 C 0.54209 0.37188 0.27055 0.0
C8611 C 0.54591 0.37185 0.26191 0.0
C8612 C 0.54681 0.36823 0.27784 0.0
C8613 C 0.56612 0.35323 0.28348 0.0
H8614 H 0.56707 0.36714 0.30551 0.0
C8615 C 0.59504 0.35024 0.309 0.0
C8616 C 0.59305 0.35077 0.3182 0.0
C8617 C 0.58827 0.35151 0.3026 0.0
C8618 C 0.56675 0.36309 0.29947 0.0
H8619 H 0.55754 0.36764 0.25411 0.0
H8620 H 0.56582 0.36151 0.26678 0.0
H8621 H 0.55701 0.37185 0.29342 0.0
H8622 H 0.58239 0.35283 0.32793 0.0
H8623 H 0.57051 0.35508 0.31671 0.0
H8624 H 0.57609 0.34465 0.28942 0.0
C8625 C 0.55915 0.36427 0.26795 0.0
C8626 C 0.56098 0.36578 0.29253 0.0
C8627 C 0.55445 0.3679 0.26069 0.0
C8628 C 0.58409 0.35233 0.32088 0.0
C8629 C 0.57732 0.35369 0.31447 0.0
C8630 C 0.57191 0.35056 0.29039 0.0
C8631 C 0.55543 0.36444 0.27663 0.0
C8632 C 0.56075 0.361 0.28438 0.0
C8633 C 0.57937 0.3534 0.30525 0.0
C8634 C 0.57243 0.35558 0.29838 0.0
H8635 H 0.53554 0.3749 0.27171 0.0
H8636 H 0.54372 0.36841 0.28442 0.0
H8637 H 0.56597 0.34928 0.27737 0.0
H8638 H 0.60187 0.34897 0.30674 0.0
H8639 H 0.59009 0.35133 0.29556 0.0
C8640 C 0.45449 0.38148 0.22469 0.0
C8641 C 0.46002 0.38901 0.22301 0.0
C8642 C 0.44566 0.38116 0.22139 0.0
C8643 C 0.42717 0.39518 0.21209 0.0
H8644 H 0.41989 0.37274 0.2008 0.0
C8645 C 0.39607 0.39209 0.18863 0.0
C8646 C 0.3911 0.38401 0.18887 0.0
C8647 C 0.40399 0.393 0.19367 0.0
C8648 C 0.42174 0.37902 0.20405 0.0
H8649 H 0.46047 0.40226 0.21685 0.0
H8650 H 0.44511 0.40163 0.21097 0.0
H8651 H 0.43456 0.37377 0.20805 0.0
H8652 H 0.39021 0.37078 0.195 0.0
H8653 H 0.40395 0.3724 0.20386 0.0
H8654 H 0.41435 0.40044 0.20798 0.0
C8655 C 0.44758 0.396 0.21489 0.0
C8656 C 0.43016 0.37961 0.20821 0.0
C8657 C 0.45642 0.39632 0.21818 0.0
C8658 C 0.394 0.37702 0.19454 0.0
C8659 C 0.40188 0.37795 0.19961 0.0
C8660 C 0.41871 0.39458 0.20794 0.0
C8661 C 0.44214 0.38836 0.21634 0.0
C8662 C 0.43301 0.3877 0.21225 0.0
C8663 C 0.40708 0.38588 0.19909 0.0
C8664 C 0.41591 0.3865 0.20383 0.0
H8665 H 0.45706 0.37571 0.22832 0.0
H8666 H 0.44161 0.37522 0.22273 0.0
H8667 H 0.42912 0.40148 0.21523 0.0
H8668 H 0.39405 0.39756 0.18426 0.0
H8669 H 0.40788 0.39917 0.19305 0.0
C8670 C 0.36362 0.7318 0.97036 0.0
C8671 C 0.37274 0.73445 0.97059 0.0
C8672 C 0.36068 0.72524 0.96426 0.0
C8673 C 0.36881 0.70654 0.95002 0.0
H8674 H 0.34706 0.71095 0.93623 0.0
C8675 C 0.36004 0.68568 0.91862 0.0
C8676 C 0.35096 0.68337 0.91708 0.0
C8677 C 0.36238 0.69165 0.92549 0.0
C8678 C 0.35307 0.70954 0.94011 0.0
H8679 H 0.38595 0.73213 0.96477 0.0
H8680 H 0.38081 0.72073 0.95411 0.0
H8681 H 0.3517 0.72173 0.94774 0.0
H8682 H 0.33721 0.68557 0.92159 0.0
H8683 H 0.34133 0.69585 0.93374 0.0
H8684 H 0.37021 0.69438 0.94241 0.0
C8685 C 0.37594 0.7237 0.95866 0.0
C8686 C 0.35573 0.71573 0.9467 0.0
C8687 C 0.37887 0.73029 0.96471 0.0
C8688 C 0.34428 0.68715 0.92263 0.0
C8689 C 0.34663 0.69312 0.92953 0.0
C8690 C 0.36613 0.70034 0.94346 0.0
C8691 C 0.3668 0.72114 0.95832 0.0
C8692 C 0.36369 0.71434 0.95166 0.0
C8693 C 0.35572 0.69544 0.93105 0.0
C8694 C 0.35829 0.70182 0.93834 0.0
H8695 H 0.35872 0.73494 0.97476 0.0
H8696 H 0.35361 0.72336 0.96421 0.0
H8697 H 0.37489 0.7052 0.95383 0.0
H8698 H 0.36538 0.68281 0.91456 0.0
H8699 H 0.36944 0.69337 0.92637 0.0
C8700 C 0.04921 0.61453 0.71585 0.0
C8701 C 0.0428 0.61607 0.70907 0.0
C8702 C 0.05844 0.61417 0.71378 0.0
C8703 C 0.07369 0.61042 0.69443 0.0
H8704 H 0.09188 0.62211 0.70912 0.0
C8705 C 0.10852 0.61965 0.68075 0.0
C8706 C 0.11616 0.61793 0.68606 0.0
C8707 C 0.09986 0.61856 0.68425 0.0
C8708 C 0.08689 0.6187 0.70503 0.0
H8709 H 0.04105 0.61895 0.69491 0.0
H8710 H 0.05703 0.6184 0.69132 0.0
H8711 H 0.0761 0.62204 0.71405 0.0
H8712 H 0.12074 0.61371 0.69921 0.0
H8713 H 0.10546 0.61188 0.70542 0.0
H8714 H 0.08437 0.6073 0.6853 0.0
C8715 C 0.05498 0.61719 0.69819 0.0
C8716 C 0.07786 0.61866 0.70784 0.0
C8717 C 0.04581 0.61752 0.70025 0.0
C8718 C 0.11496 0.61505 0.69497 0.0
C8719 C 0.10624 0.61406 0.69852 0.0
C8720 C 0.08266 0.6105 0.69161 0.0
C8721 C 0.0614 0.61537 0.70488 0.0
C8722 C 0.07112 0.6147 0.70246 0.0
C8723 C 0.09862 0.61578 0.69317 0.0
C8724 C 0.08932 0.61482 0.69677 0.0
H8725 H 0.04709 0.61335 0.72271 0.0
H8726 H 0.06322 0.61273 0.71908 0.0
H8727 H 0.06871 0.6071 0.69023 0.0
H8728 H 0.10924 0.62179 0.67383 0.0
H8729 H 0.09412 0.62004 0.67999 0.0
C8730 C 0.14151 0.27104 0.47043 0.0
C8731 C 0.13243 0.26827 0.47077 0.0
C8732 C 0.14445 0.27701 0.46376 0.0
C8733 C 0.13821 0.28516 0.44116 0.0
H8734 H 0.15571 0.30403 0.446 0.0
C8735 C 0.15347 0.30626 0.41256 0.0
C8736 C 0.15414 0.31561 0.41399 0.0
C8737 C 0.15153 0.30043 0.41967 0.0
C8738 C 0.15079 0.29882 0.44455 0.0
H8739 H 0.11926 0.26989 0.46463 0.0
H8740 H 0.12436 0.28033 0.45308 0.0
H8741 H 0.15058 0.29429 0.4582 0.0
H8742 H 0.15349 0.32616 0.42406 0.0
H8743 H 0.15004 0.316 0.43647 0.0
H8744 H 0.13821 0.28979 0.42759 0.0
C8745 C 0.12926 0.27774 0.45782 0.0
C8746 C 0.14792 0.29318 0.45152 0.0
C8747 C 0.12633 0.27177 0.46445 0.0
C8748 C 0.15311 0.31897 0.42275 0.0
C8749 C 0.15114 0.31315 0.42987 0.0
C8750 C 0.14107 0.29078 0.4342 0.0
C8751 C 0.13838 0.28034 0.4573 0.0
C8752 C 0.14155 0.28631 0.44992 0.0
C8753 C 0.15018 0.30382 0.42839 0.0
C8754 C 0.14738 0.2977 0.4358 0.0
H8755 H 0.14639 0.26838 0.47513 0.0
H8756 H 0.15154 0.27879 0.46351 0.0
H8757 H 0.13341 0.27985 0.43965 0.0
H8758 H 0.15438 0.30344 0.40591 0.0
H8759 H 0.15104 0.29327 0.41833 0.0
C8760 C 0.45391 0.62346 0.28359 0.0
C8761 C 0.45958 0.61595 0.28475 0.0
C8762 C 0.44501 0.62329 0.28672 0.0
C8763 C 0.43066 0.61186 0.30343 0.0
H8764 H 0.41114 0.62354 0.29058 0.0
C8765 C 0.39433 0.61205 0.31732 0.0
C8766 C 0.3899 0.62044 0.31713 0.0
C8767 C 0.40232 0.61073 0.31248 0.0
C8768 C 0.41653 0.62029 0.29427 0.0
H8769 H 0.46022 0.60223 0.28976 0.0
H8770 H 0.44468 0.60192 0.29519 0.0
H8771 H 0.42609 0.62265 0.28375 0.0
H8772 H 0.39014 0.63385 0.31133 0.0
H8773 H 0.40412 0.6316 0.30301 0.0
H8774 H 0.42116 0.60963 0.31401 0.0
C8775 C 0.44717 0.60801 0.29202 0.0
C8776 C 0.4251 0.61978 0.29036 0.0
C8777 C 0.45607 0.60818 0.2889 0.0
C8778 C 0.39345 0.62735 0.31171 0.0
C8779 C 0.40141 0.62602 0.30686 0.0
C8780 C 0.42209 0.61236 0.30733 0.0
C8781 C 0.44156 0.6156 0.29106 0.0
C8782 C 0.4323 0.61565 0.29494 0.0
C8783 C 0.40604 0.61776 0.30732 0.0
C8784 C 0.41495 0.61666 0.30284 0.0
H8785 H 0.45643 0.62959 0.28053 0.0
H8786 H 0.44092 0.6293 0.28598 0.0
H8787 H 0.43607 0.60876 0.30721 0.0
H8788 H 0.39182 0.60661 0.32148 0.0
H8789 H 0.40565 0.60425 0.31289 0.0
C8790 C 0.14023 0.74128 0.04555 0.0
C8791 C 0.13097 0.74338 0.04552 0.0
C8792 C 0.14355 0.73434 0.05099 0.0
C8793 C 0.1379 0.72261 0.07189 0.0
H8794 H 0.15671 0.70579 0.06499 0.0
C8795 C 0.15535 0.70054 0.09813 0.0
C8796 C 0.15602 0.6913 0.09612 0.0
C8797 C 0.15312 0.70676 0.09147 0.0
C8798 C 0.15144 0.71043 0.067 0.0
H8799 H 0.11787 0.73941 0.0507 0.0
H8800 H 0.12366 0.72735 0.06019 0.0
H8801 H 0.15077 0.71648 0.05393 0.0
H8802 H 0.15533 0.6814 0.08542 0.0
H8803 H 0.15146 0.69231 0.07372 0.0
H8804 H 0.13848 0.71659 0.0849 0.0
C8805 C 0.12837 0.73119 0.05615 0.0
C8806 C 0.14808 0.71658 0.06069 0.0
C8807 C 0.12506 0.7381 0.05071 0.0
C8808 C 0.15491 0.68848 0.08717 0.0
C8809 C 0.15268 0.69472 0.08048 0.0
C8810 C 0.14129 0.71654 0.07819 0.0
C8811 C 0.13768 0.72937 0.05652 0.0
C8812 C 0.14125 0.72272 0.06307 0.0
C8813 C 0.15153 0.70389 0.08261 0.0
C8814 C 0.1481 0.71039 0.07583 0.0
H8815 H 0.14497 0.74526 0.04168 0.0
H8816 H 0.15076 0.73314 0.05117 0.0
H8817 H 0.13273 0.72733 0.07398 0.0
H8818 H 0.15636 0.70295 0.10493 0.0
H8819 H 0.15248 0.71381 0.09328 0.0
C8820 C 0.04672 0.38719 0.7946 0.0
C8821 C 0.04522 0.38948 0.78557 0.0
C8822 C 0.05542 0.38729 0.79817 0.0
C8823 C 0.07818 0.39673 0.79507 0.0
H8824 H 0.08505 0.37711 0.81085 0.0
C8825 C 0.11418 0.39285 0.81039 0.0
C8826 C 0.11456 0.38996 0.81937 0.0
C8827 C 0.10594 0.39298 0.80578 0.0
C8828 C 0.08321 0.38269 0.80653 0.0
H8829 H 0.05169 0.39375 0.77323 0.0
H8830 H 0.06698 0.39389 0.77951 0.0
H8831 H 0.07032 0.37687 0.80362 0.0
H8832 H 0.10654 0.38544 0.83068 0.0
H8833 H 0.09223 0.38572 0.82269 0.0
H8834 H 0.09108 0.40258 0.7981 0.0
C8835 C 0.06138 0.39206 0.78381 0.0
C8836 C 0.07477 0.38254 0.80237 0.0
C8837 C 0.05264 0.39191 0.7802 0.0
C8838 C 0.10651 0.3875 0.82371 0.0
C8839 C 0.0983 0.38765 0.81912 0.0
C8840 C 0.08665 0.39688 0.79926 0.0
C8841 C 0.06286 0.38968 0.79282 0.0
C8842 C 0.0721 0.38962 0.79671 0.0
C8843 C 0.09793 0.39025 0.81006 0.0
C8844 C 0.08919 0.38993 0.80515 0.0
H8845 H 0.04117 0.38517 0.79889 0.0
H8846 H 0.05632 0.38553 0.80517 0.0
H8847 H 0.07628 0.40231 0.79078 0.0
H8848 H 0.12029 0.39474 0.80686 0.0
H8849 H 0.10588 0.39498 0.79879 0.0
C8850 C 0.3623 0.27132 0.53686 0.0
C8851 C 0.37137 0.27096 0.53412 0.0
C8852 C 0.3594 0.27797 0.54286 0.0
C8853 C 0.36607 0.29997 0.55303 0.0
H8854 H 0.34888 0.29306 0.57142 0.0
C8855 C 0.35931 0.32141 0.58469 0.0
C8856 C 0.35027 0.32254 0.58733 0.0
C8857 C 0.36156 0.31544 0.57779 0.0
C8858 C 0.3536 0.29512 0.56626 0.0
H8859 H 0.3845 0.27726 0.5355 0.0
H8860 H 0.3795 0.28875 0.54611 0.0
H8861 H 0.35346 0.28207 0.56014 0.0
H8862 H 0.3365 0.31828 0.58482 0.0
H8863 H 0.34043 0.30777 0.57276 0.0
H8864 H 0.36637 0.31295 0.55935 0.0
C8865 C 0.37456 0.28404 0.54348 0.0
C8866 C 0.35622 0.28883 0.55977 0.0
C8867 C 0.37745 0.27745 0.53741 0.0
C8868 C 0.34351 0.31758 0.58289 0.0
C8869 C 0.34577 0.31153 0.57604 0.0
C8870 C 0.36351 0.30623 0.55957 0.0
C8871 C 0.36551 0.28435 0.54634 0.0
C8872 C 0.36252 0.29115 0.55308 0.0
C8873 C 0.35482 0.31039 0.57342 0.0
C8874 C 0.35728 0.30385 0.56628 0.0
H8875 H 0.35745 0.26647 0.53435 0.0
H8876 H 0.35234 0.27809 0.54476 0.0
H8877 H 0.3708 0.30206 0.5479 0.0
H8878 H 0.36466 0.3252 0.58793 0.0
H8879 H 0.36859 0.31465 0.57597 0.0
C8880 C 0.21259 0.45571 0.38715 0.0
C8881 C 0.21159 0.46087 0.39501 0.0
C8882 C 0.21109 0.44639 0.38727 0.0
C8883 C 0.19851 0.42924 0.39996 0.0
H8884 H 0.21259 0.41227 0.38596 0.0
C8885 C 0.19007 0.39134 0.40007 0.0
C8886 C 0.18998 0.38704 0.39166 0.0
C8887 C 0.19386 0.39993 0.40105 0.0
C8888 C 0.20856 0.41693 0.38986 0.0
H8889 H 0.20873 0.46019 0.40927 0.0
H8890 H 0.20611 0.44394 0.40948 0.0
H8891 H 0.21715 0.42811 0.38659 0.0
H8892 H 0.19426 0.38822 0.37778 0.0
H8893 H 0.20065 0.40328 0.37944 0.0
H8894 H 0.18979 0.41818 0.40307 0.0
C8895 C 0.20788 0.44713 0.40318 0.0
C8896 C 0.21118 0.42601 0.39023 0.0
C8897 C 0.20939 0.45644 0.40306 0.0
C8898 C 0.19409 0.39139 0.38433 0.0
C8899 C 0.19786 0.39999 0.38531 0.0
C8900 C 0.19588 0.4202 0.39958 0.0
C8901 C 0.20856 0.44202 0.39526 0.0
C8902 C 0.20614 0.43228 0.39523 0.0
C8903 C 0.19763 0.40444 0.39364 0.0
C8904 C 0.20083 0.41394 0.39447 0.0
H8905 H 0.21418 0.45893 0.38082 0.0
H8906 H 0.21157 0.44267 0.38103 0.0
H8907 H 0.19438 0.43392 0.40375 0.0
H8908 H 0.18691 0.38822 0.40584 0.0
H8909 H 0.19369 0.4031 0.4076 0.0
C8910 C 0.71068 0.0497 0.60532 0.0
C8911 C 0.71274 0.04527 0.61341 0.0
C8912 C 0.70922 0.05901 0.60517 0.0
C8913 C 0.71239 0.08014 0.61817 0.0
H8914 H 0.6912 0.08796 0.60504 0.0
C8915 C 0.69512 0.11457 0.6241 0.0
C8916 C 0.69104 0.11895 0.61678 0.0
C8917 C 0.69897 0.10603 0.62307 0.0
C8918 C 0.69724 0.08595 0.60861 0.0
H8919 H 0.71512 0.04721 0.62764 0.0
H8920 H 0.71258 0.06347 0.62738 0.0
H8921 H 0.69577 0.07223 0.60439 0.0
H8922 H 0.68814 0.11791 0.60255 0.0
H8923 H 0.69507 0.10312 0.6007 0.0
H8924 H 0.71375 0.09386 0.62249 0.0
C8925 C 0.71218 0.05975 0.62113 0.0
C8926 C 0.69986 0.0769 0.60825 0.0
C8927 C 0.71364 0.05042 0.62128 0.0
C8928 C 0.69127 0.11476 0.60832 0.0
C8929 C 0.69514 0.10622 0.60728 0.0
C8930 C 0.70978 0.0892 0.61852 0.0
C8931 C 0.70979 0.06412 0.6131 0.0
C8932 C 0.70741 0.07387 0.61309 0.0
C8933 C 0.69887 0.10166 0.61469 0.0
C8934 C 0.70211 0.0922 0.61381 0.0
H8935 H 0.71011 0.04595 0.59911 0.0
H8936 H 0.70756 0.0622 0.59885 0.0
H8937 H 0.7183 0.07803 0.62189 0.0
H8938 H 0.69518 0.11766 0.63069 0.0
H8939 H 0.70172 0.1027 0.62893 0.0
C8940 C 0.72817 0.97283 0.36553 0.0
C8941 C 0.73738 0.97053 0.36549 0.0
C8942 C 0.72163 0.96654 0.36291 0.0
C8943 C 0.71871 0.94474 0.35081 0.0
H8944 H 0.69682 0.94299 0.36498 0.0
C8945 C 0.69549 0.91346 0.35044 0.0
C8946 C 0.68611 0.91485 0.35056 0.0
C8947 C 0.70144 0.92072 0.35137 0.0
C8948 C 0.70284 0.94347 0.36088 0.0
H8949 H 0.74692 0.95989 0.36237 0.0
H8950 H 0.73554 0.94887 0.35809 0.0
H8951 H 0.70777 0.95483 0.36828 0.0
H8952 H 0.6756 0.92497 0.35163 0.0
H8953 H 0.68602 0.93769 0.35325 0.0
H8954 H 0.71386 0.93321 0.34358 0.0
C8955 C 0.73336 0.95556 0.36004 0.0
C8956 C 0.70912 0.95027 0.36276 0.0
C8957 C 0.73989 0.96185 0.36262 0.0
C8958 C 0.6828 0.92369 0.35146 0.0
C8959 C 0.68876 0.93096 0.35246 0.0
C8960 C 0.71246 0.93791 0.34897 0.0
C8961 C 0.72413 0.9578 0.3602 0.0
C8962 C 0.71718 0.95093 0.35782 0.0
C8963 C 0.69814 0.92954 0.3525 0.0
C8964 C 0.7045 0.93714 0.35405 0.0
H8965 H 0.72599 0.97943 0.36776 0.0
H8966 H 0.7146 0.96853 0.36302 0.0
H8967 H 0.72476 0.94515 0.34676 0.0
H8968 H 0.69823 0.90673 0.34967 0.0
H8969 H 0.70863 0.91939 0.35144 0.0
C8970 C 0.78858 0.95667 0.11083 0.0
C8971 C 0.78424 0.9601 0.1185 0.0
C8972 C 0.79153 0.94772 0.11057 0.0
C8973 C 0.78902 0.92548 0.12176 0.0
H8974 H 0.81303 0.92124 0.11231 0.0
C8975 C 0.80969 0.8934 0.12948 0.0
C8976 C 0.81534 0.88989 0.12274 0.0
C8977 C 0.80495 0.90143 0.12809 0.0
C8978 C 0.80625 0.92226 0.11483 0.0
H8979 H 0.77954 0.95678 0.13187 0.0
H8980 H 0.78472 0.94118 0.13143 0.0
H8981 H 0.80655 0.93629 0.11153 0.0
H8982 H 0.82017 0.89189 0.10915 0.0
H8983 H 0.81177 0.90583 0.10668 0.0
H8984 H 0.78882 0.91145 0.12524 0.0
C8985 C 0.78571 0.94537 0.12556 0.0
C8986 C 0.80253 0.9309 0.11439 0.0
C8987 C 0.78275 0.95431 0.12582 0.0
C8988 C 0.81584 0.89439 0.11446 0.0
C8989 C 0.8111 0.90243 0.11308 0.0
C8990 C 0.79274 0.91682 0.12221 0.0
C8991 C 0.79023 0.94199 0.11797 0.0
C8992 C 0.79391 0.93265 0.11794 0.0
C8993 C 0.80574 0.90613 0.11994 0.0
C8994 C 0.80145 0.91513 0.11884 0.0
H8995 H 0.7897 0.96091 0.10502 0.0
H8996 H 0.79485 0.94529 0.10456 0.0
H8997 H 0.7823 0.92656 0.12443 0.0
H8998 H 0.80908 0.89004 0.1359 0.0
H8999 H 0.80094 0.90412 0.13355 0.0
C9000 C 0.26929 0.53565 0.36027 0.0
C9001 C 0.26883 0.53252 0.36916 0.0
C9002 C 0.27609 0.54165 0.35765 0.0
C9003 C 0.29842 0.55079 0.36474 0.0
H9004 H 0.29247 0.57007 0.34818 0.0
C9005 C 0.3213 0.58186 0.35918 0.0
C9006 C 0.32266 0.58471 0.35029 0.0
C9007 C 0.31499 0.57513 0.36115 0.0
C9008 C 0.29426 0.56466 0.35273 0.0
H9009 H 0.27509 0.53328 0.38228 0.0
H9010 H 0.28683 0.54387 0.37778 0.0
H9011 H 0.28095 0.55906 0.35231 0.0
H9012 H 0.31847 0.58277 0.33649 0.0
H9013 H 0.30736 0.57101 0.33994 0.0
H9014 H 0.31167 0.55658 0.36532 0.0
C9015 C 0.28209 0.54154 0.37276 0.0
C9016 C 0.28767 0.55833 0.35509 0.0
C9017 C 0.27534 0.53548 0.37535 0.0
C9018 C 0.3176 0.58066 0.34339 0.0
C9019 C 0.3112 0.57399 0.34538 0.0
C9020 C 0.30498 0.55717 0.36244 0.0
C9021 C 0.28255 0.54472 0.36387 0.0
C9022 C 0.28965 0.55133 0.36116 0.0
C9023 C 0.30984 0.57116 0.35428 0.0
C9024 C 0.30296 0.5642 0.35645 0.0
H9025 H 0.26442 0.5334 0.35533 0.0
H9026 H 0.27631 0.54382 0.35071 0.0
H9027 H 0.30026 0.5454 0.36928 0.0
H9028 H 0.32517 0.5848 0.36462 0.0
H9029 H 0.31404 0.57314 0.36807 0.0
C9030 C 0.28751 0.55052 0.89492 0.0
C9031 C 0.28337 0.54698 0.88719 0.0
C9032 C 0.29074 0.55939 0.89504 0.0
C9033 C 0.28948 0.58135 0.88313 0.0
H9034 H 0.31338 0.58495 0.89316 0.0
C9035 C 0.31146 0.61258 0.87533 0.0
C9036 C 0.31703 0.61607 0.88214 0.0
C9037 C 0.30647 0.6047 0.87671 0.0
C9038 C 0.30664 0.58411 0.89047 0.0
H9039 H 0.27926 0.55004 0.87356 0.0
H9040 H 0.28491 0.56549 0.87376 0.0
H9041 H 0.30626 0.57018 0.89417 0.0
H9042 H 0.32149 0.61415 0.89587 0.0
H9043 H 0.31265 0.60047 0.89835 0.0
H9044 H 0.28996 0.59526 0.87928 0.0
C9045 C 0.28555 0.56146 0.87978 0.0
C9046 C 0.30255 0.57563 0.89105 0.0
C9047 C 0.28231 0.55259 0.87966 0.0
C9048 C 0.31723 0.61167 0.89049 0.0
C9049 C 0.31224 0.60378 0.89188 0.0
C9050 C 0.29358 0.58984 0.88256 0.0
C9051 C 0.28991 0.56492 0.88742 0.0
C9052 C 0.29397 0.57411 0.8873 0.0
C9053 C 0.30692 0.60011 0.88496 0.0
C9054 C 0.30225 0.5913 0.88613 0.0
H9055 H 0.28829 0.54643 0.90088 0.0
H9056 H 0.29392 0.5619 0.90109 0.0
H9057 H 0.28281 0.58044 0.88029 0.0
H9058 H 0.31106 0.61588 0.86885 0.0
H9059 H 0.30249 0.60204 0.87121 0.0
C9060 C 0.73765 0.04944 0.12858 0.0
C9061 C 0.74372 0.04508 0.13438 0.0
C9062 C 0.7304 0.05438 0.132 0.0
C9063 C 0.72357 0.06687 0.15214 0.0
H9064 H 0.70032 0.06764 0.14019 0.0
C9065 C 0.69882 0.09657 0.15586 0.0
C9066 C 0.6895 0.09478 0.15599 0.0
C9067 C 0.70501 0.08962 0.15442 0.0
C9068 C 0.70672 0.06742 0.14369 0.0
H9069 H 0.74682 0.04232 0.14833 0.0
H9070 H 0.73408 0.05088 0.15432 0.0
H9071 H 0.71165 0.05675 0.13532 0.0
H9072 H 0.67938 0.08425 0.15497 0.0
H9073 H 0.69022 0.07206 0.15252 0.0
H9074 H 0.71867 0.07761 0.16044 0.0
C9075 C 0.73498 0.05053 0.14712 0.0
C9076 C 0.71325 0.06125 0.14083 0.0
C9077 C 0.74222 0.04555 0.14368 0.0
C9078 C 0.68652 0.08583 0.15495 0.0
C9079 C 0.69272 0.07887 0.15346 0.0
C9080 C 0.71705 0.07307 0.15497 0.0
C9081 C 0.72906 0.0551 0.14132 0.0
C9082 C 0.7218 0.06101 0.14492 0.0
C9083 C 0.70203 0.08071 0.15305 0.0
C9084 C 0.70861 0.07352 0.15068 0.0
H9085 H 0.73857 0.04913 0.12137 0.0
H9086 H 0.72602 0.05788 0.12735 0.0
H9087 H 0.73011 0.06692 0.15539 0.0
H9088 H 0.70132 0.10338 0.15674 0.0
H9089 H 0.71212 0.09129 0.15406 0.0
C9090 C 0.76642 0.96408 0.64336 0.0
C9091 C 0.76872 0.9728 0.6404 0.0
C9092 C 0.77308 0.95813 0.64635 0.0
C9093 C 0.79765 0.95387 0.64488 0.0
H9094 H 0.79283 0.93729 0.66443 0.0
C9095 C 0.8249 0.92972 0.65874 0.0
C9096 C 0.82218 0.92072 0.65995 0.0
C9097 C 0.81853 0.93646 0.65704 0.0
C9098 C 0.79426 0.94185 0.65893 0.0
H9099 H 0.77986 0.98209 0.63837 0.0
H9100 H 0.79144 0.9718 0.64382 0.0
H9101 H 0.78148 0.94843 0.66025 0.0
H9102 H 0.81061 0.91177 0.66065 0.0
H9103 H 0.79948 0.92352 0.65766 0.0
H9104 H 0.81043 0.94727 0.64357 0.0
C9105 C 0.78449 0.96951 0.64369 0.0
C9106 C 0.78774 0.94822 0.65651 0.0
C9107 C 0.77783 0.97546 0.64066 0.0
C9108 C 0.81292 0.91864 0.65966 0.0
C9109 C 0.80654 0.92538 0.65803 0.0
C9110 C 0.80418 0.94753 0.64733 0.0
C9111 C 0.78221 0.96074 0.64651 0.0
C9112 C 0.78932 0.95426 0.64939 0.0
C9113 C 0.80928 0.93435 0.65659 0.0
C9114 C 0.80252 0.94139 0.65433 0.0
H9115 H 0.75946 0.96184 0.64338 0.0
H9116 H 0.77107 0.9514 0.64836 0.0
H9117 H 0.79905 0.9583 0.63927 0.0
H9118 H 0.83199 0.93152 0.65885 0.0
H9119 H 0.82083 0.94332 0.65603 0.0
loop_
_geom_bond_atom_site_label_1
_geom_bond_atom_site_label_2
_geom_bond_distance
_geom_bond_site_symmetry_2
_ccdc_geom_bond_type
C0 C1 1.270 . S
C0 C5 1.479 1_455 S
C0 C10 1.465 . S
C1 C0 1.270 . S
C1 C3 1.283 1_455 S
C1 H28 0.984 . S
C2 C3 1.395 . S
C2 C4 1.320 . S
C3 C1 1.283 1_655 S
C3 C2 1.395 . S
C3 H29 0.929 . S
C4 C2 1.320 . S
C4 C5 1.405 . S
C4 H30 0.930 . S
C5 C0 1.479 1_655 S
C5 C4 1.405 . S
C5 H31 0.931 . S
U6 O7 2.454 . S
U6 O8 2.458 . S
U6 C9 2.984 . S
U6 C10 2.847 . S
U6 C23 2.882 . S
U6 O24 2.441 . S
U6 O25 2.420 . S
U6 O26 2.455 . S
U6 O27 2.449 . S
O7 U6 2.454 . S
O7 C9 1.353 . S
O8 U6 2.458 . S
O8 C9 1.286 . S
C9 U6 2.984 . S
C9 O7 1.353 . S
C9 O8 1.286 . S
C9 C11 1.363 . S
C10 C0 1.465 . S
C10 U6 2.847 . S
C10 O24 1.249 . S
C10 O25 1.202 . S
C11 C9 1.363 . S
C11 C13 1.408 . S
C11 C16 1.342 . S
C12 C13 1.310 . S
C12 C15 1.461 . S
C12 H32 0.932 . S
C13 C11 1.408 . S
C13 C12 1.310 . S
C13 H33 0.930 . S
C14 C15 1.474 . S
C14 C16 1.285 . S
C14 H34 0.929 . S
C15 C12 1.461 . S
C15 C14 1.474 . S
C16 C11 1.342 . S
C16 C14 1.285 . S
C16 H35 0.930 . S
C17 C20 1.424 . S
C17 C22 1.245 . S
C17 C23 1.428 . S
C18 C21 1.260 . S
C18 C22 1.477 . S
C18 H36 0.932 . S
C19 C20 1.384 . S
C19 C21 1.479 . S
C19 H37 0.929 . S
C20 C17 1.424 . S
C20 C19 1.384 . S
C20 H38 0.928 . S
C21 C18 1.260 . S
C21 C19 1.479 . S
C22 C17 1.245 . S
C22 C18 1.477 . S
C22 H39 0.932 . S
C23 U6 2.882 . S
C23 C17 1.428 . S
C23 O26 1.301 . S
C23 O27 1.282 . S
O24 U6 2.441 . S
O24 C10 1.249 . S
O25 U6 2.420 . S
O25 C10 1.202 . S
O26 U6 2.455 . S
O26 C23 1.301 . S
O27 U6 2.449 . S
O27 C23 1.282 . S
H28 C1 0.984 . S
H29 C3 0.929 . S
H30 C4 0.930 . S
H31 C5 0.931 . S
H32 C12 0.932 . S
H33 C13 0.930 . S
H34 C14 0.929 . S
H35 C16 0.930 . S
H36 C18 0.932 . S
H37 C19 0.929 . S
H38 C20 0.928 . S
H39 C22 0.932 . S
C40 C41 1.264 . S
C40 C45 1.479 . S
C40 C50 1.465 . S
C41 C40 1.264 . S
C41 C43 1.339 . S
C41 H68 0.931 . S
C42 C43 1.395 . S
C42 C44 1.320 . S
C43 C41 1.339 . S
C43 C42 1.395 . S
C43 H69 0.929 . S
C44 C42 1.320 . S
C44 C45 1.405 . S
C44 H70 0.930 . S
C45 C40 1.479 . S
C45 C44 1.405 . S
C45 H71 0.931 . S
U46 O47 2.454 . S
U46 O48 2.458 . S
U46 C49 2.984 . S
U46 C50 2.847 . S
U46 C63 2.882 . S
U46 O64 2.441 . S
U46 O65 2.420 . S
U46 O66 2.455 . S
U46 O67 2.449 . S
O47 U46 2.454 . S
O47 C49 1.353 . S
O48 U46 2.458 . S
O48 C49 1.286 . S
C49 U46 2.984 . S
C49 O47 1.353 . S
C49 O48 1.286 . S
C49 C51 1.363 . S
C50 C40 1.465 . S
C50 U46 2.847 . S
C50 O64 1.249 . S
C50 O65 1.202 . S
C51 C49 1.363 . S
C51 C53 1.408 . S
C51 C56 1.342 . S
C52 C53 1.310 . S
C52 C55 1.461 . S
C52 H72 0.932 . S
C53 C51 1.408 . S
C53 C52 1.310 . S
C53 H73 0.930 . S
C54 C55 1.474 . S
C54 C56 1.285 . S
C54 H74 0.929 . S
C55 C52 1.461 . S
C55 C54 1.474 . S
C56 C51 1.342 . S
C56 C54 1.285 . S
C56 H75 0.930 . S
C57 C60 1.424 . S
C57 C62 1.245 . S
C57 C63 1.428 . S
C58 C61 1.260 . S
C58 C62 1.477 . S
C58 H76 0.932 . S
C59 C60 1.384 . S
C59 C61 1.479 . S
C59 H77 0.929 . S
C60 C57 1.424 . S
C60 C59 1.384 . S
C60 H78 0.928 . S
C61 C58 1.260 . S
C61 C59 1.479 . S
C62 C57 1.245 . S
C62 C58 1.477 . S
C62 H79 0.932 . S
C63 U46 2.882 . S
C63 C57 1.428 . S
C63 O66 1.301 . S
C63 O67 1.282 . S
O64 U46 2.441 . S
O64 C50 1.249 . S
O65 U46 2.420 . S
O65 C50 1.202 . S
O66 U46 2.455 . S
O66 C63 1.301 . S
O67 U46 2.449 . S
O67 C63 1.282 . S
H68 C41 0.931 . S
H69 C43 0.929 . S
H70 C44 0.930 . S
H71 C45 0.931 . S
H72 C52 0.932 . S
H73 C53 0.930 . S
H74 C54 0.929 . S
H75 C56 0.930 . S
H76 C58 0.932 . S
H77 C59 0.929 . S
H78 C60 0.928 . S
H79 C62 0.932 . S
C80 C81 1.264 . S
C80 C85 1.479 . S
C80 C90 1.465 . S
C81 C80 1.264 . S
C81 C83 1.339 . S
C81 H108 0.931 . S
C82 C83 1.395 . S
C82 C84 1.320 . S
C83 C81 1.339 . S
C83 C82 1.395 . S
C83 H109 0.929 . S
C84 C82 1.320 . S
C84 C85 1.405 . S
C84 H110 0.930 . S
C85 C80 1.479 . S
C85 C84 1.405 . S
C85 H111 0.931 . S
U86 O87 2.454 . S
U86 O88 2.458 . S
U86 C89 2.984 . S
U86 C90 2.847 . S
U86 C103 2.882 . S
U86 O104 2.441 . S
U86 O105 2.420 . S
U86 O106 2.455 . S
U86 O107 2.449 . S
O87 U86 2.454 . S
O87 C89 1.353 . S
O88 U86 2.458 . S
O88 C89 1.286 . S
C89 U86 2.984 . S
C89 O87 1.353 . S
C89 O88 1.286 . S
C89 C91 1.363 . S
C90 C80 1.465 . S
C90 U86 2.847 . S
C90 O104 1.249 . S
C90 O105 1.202 . S
C91 C89 1.363 . S
C91 C93 1.408 . S
C91 C96 1.342 . S
C92 C93 1.310 . S
C92 C95 1.461 . S
C92 H112 0.932 . S
C93 C91 1.408 . S
C93 C92 1.310 . S
C93 H113 0.930 . S
C94 C95 1.474 . S
C94 C96 1.285 . S
C94 H114 0.929 . S
C95 C92 1.461 . S
C95 C94 1.474 . S
C96 C91 1.342 . S
C96 C94 1.285 . S
C96 H115 0.930 . S
C97 C100 1.424 . S
C97 C102 1.245 . S
C97 C103 1.428 . S
C98 C101 1.260 . S
C98 C102 1.477 . S
C98 H116 0.932 . S
C99 C100 1.384 . S
C99 C101 1.479 . S
C99 H117 0.929 . S
C100 C97 1.424 . S
C100 C99 1.384 . S
C100 H118 0.928 . S
C101 C98 1.260 . S
C101 C99 1.479 . S
C102 C97 1.245 . S
C102 C98 1.477 . S
C102 H119 0.932 . S
C103 U86 2.882 . S
C103 C97 1.428 . S
C103 O106 1.301 . S
C103 O107 1.282 . S
O104 U86 2.441 . S
O104 C90 1.249 . S
O105 U86 2.420 . S
O105 C90 1.202 . S
O106 U86 2.455 . S
O106 C103 1.301 . S
O107 U86 2.449 . S
O107 C103 1.282 . S
H108 C81 0.931 . S
H109 C83 0.929 . S
H110 C84 0.930 . S
H111 C85 0.931 . S
H112 C92 0.932 . S
H113 C93 0.930 . S
H114 C94 0.929 . S
H115 C96 0.930 . S
H116 C98 0.932 . S
H117 C99 0.929 . S
H118 C100 0.928 . S
H119 C102 0.932 . S
C120 C121 1.264 . S
C120 C125 1.479 . S
C120 C130 1.465 . S
C121 C120 1.264 . S
C121 C123 1.339 . S
C121 H148 0.931 . S
C122 C123 1.395 . S
C122 C124 1.320 . S
C123 C121 1.339 . S
C123 C122 1.395 . S
C123 H149 0.929 . S
C124 C122 1.320 . S
C124 C125 1.405 . S
C124 H150 0.930 . S
C125 C120 1.479 . S
C125 C124 1.405 . S
C125 H151 0.931 . S
U126 O127 2.454 . S
U126 O128 2.458 . S
U126 C129 2.984 . S
U126 C130 2.847 . S
U126 C143 2.882 . S
U126 O144 2.441 . S
U126 O145 2.420 . S
U126 O146 2.455 . S
U126 O147 2.449 . S
O127 U126 2.454 . S
O127 C129 1.353 . S
O128 U126 2.458 . S
O128 C129 1.286 . S
C129 U126 2.984 . S
C129 O127 1.353 . S
C129 O128 1.286 . S
C129 C131 1.363 . S
C130 C120 1.465 . S
C130 U126 2.847 . S
C130 O144 1.249 . S
C130 O145 1.202 . S
C131 C129 1.363 . S
C131 C133 1.408 1_554 S
C131 C136 1.342 . S
C132 C133 1.310 . S
C132 C135 1.461 . S
C132 H152 0.932 . S
C133 C131 1.408 1_556 S
C133 C132 1.310 . S
C133 H153 0.930 . S
C134 C135 1.474 . S
C134 C136 1.285 1_556 S
C134 H154 0.929 . S
C135 C132 1.461 . S
C135 C134 1.474 . S
C136 C131 1.342 . S
C136 C134 1.285 1_554 S
C136 H155 0.930 . S
C137 C140 1.424 . S
C137 C142 1.245 . S
C137 C143 1.428 . S
C138 C141 1.260 . S
C138 C142 1.477 . S
C138 H156 0.932 . S
C139 C140 1.384 . S
C139 C141 1.479 . S
C139 H157 0.929 . S
C140 C137 1.424 . S
C140 C139 1.384 . S
C140 H158 0.928 . S
C141 C138 1.260 . S
C141 C139 1.479 . S
C142 C137 1.245 . S
C142 C138 1.477 . S
C142 H159 0.932 . S
C143 U126 2.882 . S
C143 C137 1.428 . S
C143 O146 1.301 . S
C143 O147 1.282 . S
O144 U126 2.441 . S
O144 C130 1.249 . S
O145 U126 2.420 . S
O145 C130 1.202 . S
O146 U126 2.455 . S
O146 C143 1.301 . S
O147 U126 2.449 . S
O147 C143 1.282 . S
H148 C121 0.931 . S
H149 C123 0.929 . S
H150 C124 0.930 . S
H151 C125 0.931 . S
H152 C132 0.932 . S
H153 C133 0.930 . S
H154 C134 0.929 . S
H155 C136 0.930 . S
H156 C138 0.932 . S
H157 C139 0.929 . S
H158 C140 0.928 . S
H159 C142 0.932 . S
C160 C161 1.264 . S
C160 C165 1.479 1_455 S
C160 C170 1.465 . S
C161 C160 1.264 . S
C161 C163 1.339 1_455 S
C161 H188 0.931 . S
C162 C163 1.395 . S
C162 C164 1.320 . S
C163 C161 1.339 1_655 S
C163 C162 1.395 . S
C163 H189 0.929 . S
C164 C162 1.320 . S
C164 C165 1.405 . S
C164 H190 0.930 . S
C165 C160 1.479 1_655 S
C165 C164 1.405 . S
C165 H191 0.931 . S
U166 O167 2.454 . S
U166 O168 2.458 . S
U166 C169 2.984 . S
U166 C170 2.847 . S
U166 C183 2.882 . S
U166 O184 2.441 . S
U166 O185 2.420 . S
U166 O186 2.455 . S
U166 O187 2.449 . S
O167 U166 2.454 . S
O167 C169 1.353 . S
O168 U166 2.458 . S
O168 C169 1.286 . S
C169 U166 2.984 . S
C169 O167 1.353 . S
C169 O168 1.286 . S
C169 C171 1.363 . S
C170 C160 1.465 . S
C170 U166 2.847 . S
C170 O184 1.249 . S
C170 O185 1.202 . S
C171 C169 1.363 . S
C171 C173 1.408 . S
C171 C176 1.342 . S
C172 C173 1.310 . S
C172 C175 1.461 . S
C172 H192 0.932 . S
C173 C171 1.408 . S
C173 C172 1.310 . S
C173 H193 0.930 . S
C174 C175 1.474 . S
C174 C176 1.285 . S
C174 H194 0.929 . S
C175 C172 1.461 . S
C175 C174 1.474 . S
C176 C171 1.342 . S
C176 C174 1.285 . S
C176 H195 0.930 . S
C177 C180 1.424 . S
C177 C182 1.245 . S
C177 C183 1.428 . S
C178 C181 1.260 . S
C178 C182 1.477 . S
C178 H196 0.932 . S
C179 C180 1.384 . S
C179 C181 1.479 . S
C179 H197 0.929 . S
C180 C177 1.424 . S
C180 C179 1.384 . S
C180 H198 0.928 . S
C181 C178 1.260 . S
C181 C179 1.479 . S
C182 C177 1.245 . S
C182 C178 1.477 . S
C182 H199 0.932 . S
C183 U166 2.882 . S
C183 C177 1.428 . S
C183 O186 1.301 . S
C183 O187 1.282 . S
O184 U166 2.441 . S
O184 C170 1.249 . S
O185 U166 2.420 . S
O185 C170 1.202 . S
O186 U166 2.455 . S
O186 C183 1.301 . S
O187 U166 2.449 . S
O187 C183 1.282 . S
H188 C161 0.931 . S
H189 C163 0.929 . S
H190 C164 0.930 . S
H191 C165 0.931 . S
H192 C172 0.932 . S
H193 C173 0.930 . S
H194 C174 0.929 . S
H195 C176 0.930 . S
H196 C178 0.932 . S
H197 C179 0.929 . S
H198 C180 0.928 . S
H199 C182 0.932 . S
C200 C201 1.264 . S
C200 C205 1.479 . S
C200 C210 1.465 . S
C201 C200 1.264 . S
C201 C203 1.339 . S
C201 H228 0.931 . S
C202 C203 1.395 . S
C202 C204 1.320 . S
C203 C201 1.339 . S
C203 C202 1.395 . S
C203 H229 0.929 . S
C204 C202 1.320 . S
C204 C205 1.405 . S
C204 H230 0.930 . S
C205 C200 1.479 . S
C205 C204 1.405 . S
C205 H231 0.931 . S
U206 O207 2.454 . S
U206 O208 2.458 . S
U206 C209 2.984 . S
U206 C210 2.847 . S
U206 C223 2.882 . S
U206 O224 2.441 . S
U206 O225 2.420 . S
U206 O226 2.455 . S
U206 O227 2.449 . S
O207 U206 2.454 . S
O207 C209 1.353 . S
O208 U206 2.458 . S
O208 C209 1.286 . S
C209 U206 2.984 . S
C209 O207 1.353 . S
C209 O208 1.286 . S
C209 C211 1.363 . S
C210 C200 1.465 . S
C210 U206 2.847 . S
C210 O224 1.249 . S
C210 O225 1.202 . S
C211 C209 1.363 . S
C211 C213 1.408 . S
C211 C216 1.342 . S
C212 C213 1.310 . S
C212 C215 1.461 . S
C212 H232 0.932 . S
C213 C211 1.408 . S
C213 C212 1.310 . S
C213 H233 0.930 . S
C214 C215 1.474 . S
C214 C216 1.285 . S
C214 H234 0.929 . S
C215 C212 1.461 . S
C215 C214 1.474 . S
C216 C211 1.342 . S
C216 C214 1.285 . S
C216 H235 0.930 . S
C217 C220 1.424 . S
C217 C222 1.245 . S
C217 C223 1.428 . S
C218 C221 1.260 . S
C218 C222 1.477 . S
C218 H236 0.932 . S
C219 C220 1.384 . S
C219 C221 1.479 . S
C219 H237 0.929 . S
C220 C217 1.424 . S
C220 C219 1.384 . S
C220 H238 0.928 . S
C221 C218 1.260 . S
C221 C219 1.479 . S
C222 C217 1.245 . S
C222 C218 1.477 . S
C222 H239 0.932 . S
C223 U206 2.882 . S
C223 C217 1.428 . S
C223 O226 1.301 . S
C223 O227 1.282 . S
O224 U206 2.441 . S
O224 C210 1.249 . S
O225 U206 2.420 . S
O225 C210 1.202 . S
O226 U206 2.455 . S
O226 C223 1.301 . S
O227 U206 2.449 . S
O227 C223 1.282 . S
H228 C201 0.931 . S
H229 C203 0.929 . S
H230 C204 0.930 . S
H231 C205 0.931 . S
H232 C212 0.932 . S
H233 C213 0.930 . S
H234 C214 0.929 . S
H235 C216 0.930 . S
H236 C218 0.932 . S
H237 C219 0.929 . S
H238 C220 0.928 . S
H239 C222 0.932 . S
C240 C241 1.264 . S
C240 C245 1.479 . S
C240 C250 1.465 . S
C241 C240 1.264 . S
C241 C243 1.339 . S
C241 H268 0.931 . S
C242 C243 1.395 . S
C242 C244 1.320 . S
C243 C241 1.339 . S
C243 C242 1.395 . S
C243 H269 0.929 . S
C244 C242 1.320 . S
C244 C245 1.405 . S
C244 H270 0.930 . S
C245 C240 1.479 . S
C245 C244 1.405 . S
C245 H271 0.931 . S
U246 O247 2.454 . S
U246 O248 2.458 . S
U246 C249 2.984 . S
U246 C250 2.847 . S
U246 C263 2.882 . S
U246 O264 2.441 . S
U246 O265 2.420 . S
U246 O266 2.455 . S
U246 O267 2.449 . S
O247 U246 2.454 . S
O247 C249 1.353 . S
O248 U246 2.458 . S
O248 C249 1.286 . S
C249 U246 2.984 . S
C249 O247 1.353 . S
C249 O248 1.286 . S
C249 C251 1.363 . S
C250 C240 1.465 . S
C250 U246 2.847 . S
C250 O264 1.249 . S
C250 O265 1.202 . S
C251 C249 1.363 . S
C251 C253 1.408 . S
C251 C256 1.342 . S
C252 C253 1.310 . S
C252 C255 1.461 . S
C252 H272 0.932 . S
C253 C251 1.408 . S
C253 C252 1.310 . S
C253 H273 0.930 . S
C254 C255 1.474 . S
C254 C256 1.285 . S
C254 H274 0.929 . S
C255 C252 1.461 . S
C255 C254 1.474 . S
C256 C251 1.342 . S
C256 C254 1.285 . S
C256 H275 0.930 . S
C257 C260 1.424 . S
C257 C262 1.245 . S
C257 C263 1.428 . S
C258 C261 1.260 . S
C258 C262 1.477 . S
C258 H276 0.932 . S
C259 C260 1.384 . S
C259 C261 1.479 . S
C259 H277 0.929 . S
C260 C257 1.424 . S
C260 C259 1.384 . S
C260 H278 0.928 . S
C261 C258 1.260 . S
C261 C259 1.479 . S
C262 C257 1.245 . S
C262 C258 1.477 . S
C262 H279 0.932 . S
C263 U246 2.882 . S
C263 C257 1.428 . S
C263 O266 1.301 . S
C263 O267 1.282 . S
O264 U246 2.441 . S
O264 C250 1.249 . S
O265 U246 2.420 . S
O265 C250 1.202 . S
O266 U246 2.455 . S
O266 C263 1.301 . S
O267 U246 2.449 . S
O267 C263 1.282 . S
H268 C241 0.931 . S
H269 C243 0.929 . S
H270 C244 0.930 . S
H271 C245 0.931 . S
H272 C252 0.932 . S
H273 C253 0.930 . S
H274 C254 0.929 . S
H275 C256 0.930 . S
H276 C258 0.932 . S
H277 C259 0.929 . S
H278 C260 0.928 . S
H279 C262 0.932 . S
C280 C281 1.261 . S
C280 C285 1.416 1_556 S
C280 C290 1.530 . S
C281 C280 1.261 . S
C281 C283 1.335 1_556 S
C281 H308 0.934 . S
C282 C283 1.395 . S
C282 C284 1.320 . S
C283 C281 1.335 1_554 S
C283 C282 1.395 . S
C283 H309 0.929 . S
C284 C282 1.320 . S
C284 C285 1.405 . S
C284 H310 0.930 . S
C285 C280 1.416 1_554 S
C285 C284 1.405 . S
C285 H311 0.931 . S
U286 O287 2.454 . S
U286 O288 2.458 . S
U286 C289 2.984 . S
U286 C290 2.847 . S
U286 C303 2.882 . S
U286 O304 2.441 . S
U286 O305 2.420 . S
U286 O306 2.455 . S
U286 O307 2.449 . S
O287 U286 2.454 . S
O287 C289 1.353 . S
O288 U286 2.458 . S
O288 C289 1.286 . S
C289 U286 2.984 . S
C289 O287 1.353 . S
C289 O288 1.286 . S
C289 C291 1.363 . S
C290 C280 1.530 . S
C290 U286 2.847 . S
C290 O304 1.249 . S
C290 O305 1.202 . S
C291 C289 1.363 . S
C291 C293 1.408 . S
C291 C296 1.342 . S
C292 C293 1.310 . S
C292 C295 1.461 . S
C292 H312 0.932 . S
C293 C291 1.408 . S
C293 C292 1.310 . S
C293 H313 0.930 . S
C294 C295 1.474 . S
C294 C296 1.285 . S
C294 H314 0.929 . S
C295 C292 1.461 . S
C295 C294 1.474 . S
C296 C291 1.342 . S
C296 C294 1.285 . S
C296 H315 0.930 . S
C297 C300 1.424 . S
C297 C302 1.245 . S
C297 C303 1.428 . S
C298 C301 1.260 . S
C298 C302 1.477 . S
C298 H316 0.932 . S
C299 C300 1.384 . S
C299 C301 1.479 . S
C299 H317 0.929 . S
C300 C297 1.424 . S
C300 C299 1.384 . S
C300 H318 0.928 . S
C301 C298 1.260 . S
C301 C299 1.479 . S
C302 C297 1.245 . S
C302 C298 1.477 . S
C302 H319 0.932 . S
C303 U286 2.882 . S
C303 C297 1.428 . S
C303 O306 1.301 . S
C303 O307 1.282 . S
O304 U286 2.441 . S
O304 C290 1.249 . S
O305 U286 2.420 . S
O305 C290 1.202 . S
O306 U286 2.455 . S
O306 C303 1.301 . S
O307 U286 2.449 . S
O307 C303 1.282 . S
H308 C281 0.934 . S
H309 C283 0.929 . S
H310 C284 0.930 . S
H311 C285 0.931 . S
H312 C292 0.932 . S
H313 C293 0.930 . S
H314 C294 0.929 . S
H315 C296 0.930 . S
H316 C298 0.932 . S
H317 C299 0.929 . S
H318 C300 0.928 . S
H319 C302 0.932 . S
C320 C321 1.264 . S
C320 C325 1.479 . S
C320 C330 1.465 . S
C321 C320 1.264 . S
C321 C323 1.339 . S
C321 H348 0.931 . S
C322 C323 1.395 . S
C322 C324 1.320 . S
C323 C321 1.339 . S
C323 C322 1.395 . S
C323 H349 0.929 . S
C324 C322 1.320 . S
C324 C325 1.405 . S
C324 H350 0.930 . S
C325 C320 1.479 . S
C325 C324 1.405 . S
C325 H351 0.931 . S
U326 O327 2.454 . S
U326 O328 2.458 . S
U326 C329 2.984 . S
U326 C330 2.847 . S
U326 C343 2.882 . S
U326 O344 2.441 . S
U326 O345 2.420 . S
U326 O346 2.455 . S
U326 O347 2.449 . S
O327 U326 2.454 . S
O327 C329 1.353 . S
O328 U326 2.458 . S
O328 C329 1.286 . S
C329 U326 2.984 . S
C329 O327 1.353 . S
C329 O328 1.286 . S
C329 C331 1.363 . S
C330 C320 1.465 . S
C330 U326 2.847 . S
C330 O344 1.249 . S
C330 O345 1.202 . S
C331 C329 1.363 . S
C331 C333 1.408 1_545 S
C331 C336 1.342 . S
C332 C333 1.310 . S
C332 C335 1.461 . S
C332 H352 0.932 . S
C333 C331 1.408 1_565 S
C333 C332 1.310 . S
C333 H353 0.930 . S
C334 C335 1.474 . S
C334 C336 1.285 1_565 S
C334 H354 0.929 . S
C335 C332 1.461 . S
C335 C334 1.474 . S
C336 C331 1.342 . S
C336 C334 1.285 1_545 S
C336 H355 0.930 . S
C337 C340 1.424 . S
C337 C342 1.245 . S
C337 C343 1.428 . S
C338 C341 1.260 . S
C338 C342 1.477 . S
C338 H356 0.932 . S
C339 C340 1.384 . S
C339 C341 1.479 . S
C339 H357 0.929 . S
C340 C337 1.424 . S
C340 C339 1.384 . S
C340 H358 0.928 . S
C341 C338 1.260 . S
C341 C339 1.479 . S
C342 C337 1.245 . S
C342 C338 1.477 . S
C342 H359 0.932 . S
C343 U326 2.882 . S
C343 C337 1.428 . S
C343 O346 1.301 . S
C343 O347 1.282 . S
O344 U326 2.441 . S
O344 C330 1.249 . S
O345 U326 2.420 . S
O345 C330 1.202 . S
O346 U326 2.455 . S
O346 C343 1.301 . S
O347 U326 2.449 . S
O347 C343 1.282 . S
H348 C321 0.931 . S
H349 C323 0.929 . S
H350 C324 0.930 . S
H351 C325 0.931 . S
H352 C332 0.932 . S
H353 C333 0.930 . S
H354 C334 0.929 . S
H355 C336 0.930 . S
H356 C338 0.932 . S
H357 C339 0.929 . S
H358 C340 0.928 . S
H359 C342 0.932 . S
C360 C361 1.272 . S
C360 C365 1.479 1_545 S
C360 C370 1.465 . S
C361 C360 1.272 . S
C361 C363 1.273 1_545 S
C361 H388 0.994 . S
C362 C363 1.395 . S
C362 C364 1.320 . S
C363 C361 1.273 1_565 S
C363 C362 1.395 . S
C363 H389 0.929 . S
C364 C362 1.320 . S
C364 C365 1.405 . S
C364 H390 0.930 . S
C365 C360 1.479 1_565 S
C365 C364 1.405 . S
C365 H391 0.931 . S
U366 O367 2.454 . S
U366 O368 2.458 . S
U366 C369 2.984 . S
U366 C370 2.847 . S
U366 C383 2.882 . S
U366 O384 2.441 . S
U366 O385 2.420 . S
U366 O386 2.455 . S
U366 O387 2.449 . S
O367 U366 2.454 . S
O367 C369 1.353 . S
O368 U366 2.458 . S
O368 C369 1.286 . S
C369 U366 2.984 . S
C369 O367 1.353 . S
C369 O368 1.286 . S
C369 C371 1.363 . S
C370 C360 1.465 . S
C370 U366 2.847 . S
C370 O384 1.249 . S
C370 O385 1.202 . S
C371 C369 1.363 . S
C371 C373 1.408 . S
C371 C376 1.342 . S
C372 C373 1.310 . S
C372 C375 1.461 . S
C372 H392 0.932 . S
C373 C371 1.408 . S
C373 C372 1.310 . S
C373 H393 0.930 . S
C374 C375 1.474 . S
C374 C376 1.285 . S
C374 H394 0.929 . S
C375 C372 1.461 . S
C375 C374 1.474 . S
C376 C371 1.342 . S
C376 C374 1.285 . S
C376 H395 0.930 . S
C377 C380 1.424 . S
C377 C382 1.245 . S
C377 C383 1.428 . S
C378 C381 1.260 . S
C378 C382 1.477 . S
C378 H396 0.932 . S
C379 C380 1.384 . S
C379 C381 1.479 . S
C379 H397 0.929 . S
C380 C377 1.424 . S
C380 C379 1.384 . S
C380 H398 0.928 . S
C381 C378 1.260 . S
C381 C379 1.479 . S
C382 C377 1.245 . S
C382 C378 1.477 . S
C382 H399 0.932 . S
C383 U366 2.882 . S
C383 C377 1.428 . S
C383 O386 1.301 . S
C383 O387 1.282 . S
O384 U366 2.441 . S
O384 C370 1.249 . S
O385 U366 2.420 . S
O385 C370 1.202 . S
O386 U366 2.455 . S
O386 C383 1.301 . S
O387 U366 2.449 . S
O387 C383 1.282 . S
H388 C361 0.994 . S
H389 C363 0.929 . S
H390 C364 0.930 . S
H391 C365 0.931 . S
H392 C372 0.932 . S
H393 C373 0.930 . S
H394 C374 0.929 . S
H395 C376 0.930 . S
H396 C378 0.932 . S
H397 C379 0.929 . S
H398 C380 0.928 . S
H399 C382 0.932 . S
C400 C401 1.272 . S
C400 C405 1.479 1_565 S
C400 C410 1.465 . S
C401 C400 1.272 . S
C401 C403 1.274 1_565 S
C401 H428 0.994 . S
C402 C403 1.395 . S
C402 C404 1.320 . S
C403 C401 1.274 1_545 S
C403 C402 1.395 . S
C403 H429 0.929 . S
C404 C402 1.320 . S
C404 C405 1.405 . S
C404 H430 0.930 . S
C405 C400 1.479 1_545 S
C405 C404 1.405 . S
C405 H431 0.931 . S
U406 O407 2.454 . S
U406 O408 2.458 . S
U406 C409 2.984 . S
U406 C410 2.847 . S
U406 C423 2.882 . S
U406 O424 2.441 . S
U406 O425 2.420 . S
U406 O426 2.455 . S
U406 O427 2.449 . S
O407 U406 2.454 . S
O407 C409 1.353 . S
O408 U406 2.458 . S
O408 C409 1.286 . S
C409 U406 2.984 . S
C409 O407 1.353 . S
C409 O408 1.286 . S
C409 C411 1.363 . S
C410 C400 1.465 . S
C410 U406 2.847 . S
C410 O424 1.249 . S
C410 O425 1.202 . S
C411 C409 1.363 . S
C411 C413 1.408 . S
C411 C416 1.342 . S
C412 C413 1.310 . S
C412 C415 1.461 . S
C412 H432 0.932 . S
C413 C411 1.408 . S
C413 C412 1.310 . S
C413 H433 0.930 . S
C414 C415 1.474 . S
C414 C416 1.285 . S
C414 H434 0.929 . S
C415 C412 1.461 . S
C415 C414 1.474 . S
C416 C411 1.342 . S
C416 C414 1.285 . S
C416 H435 0.930 . S
C417 C420 1.424 . S
C417 C422 1.245 . S
C417 C423 1.428 . S
C418 C421 1.260 . S
C418 C422 1.477 . S
C418 H436 0.932 . S
C419 C420 1.384 . S
C419 C421 1.479 . S
C419 H437 0.929 . S
C420 C417 1.424 . S
C420 C419 1.384 . S
C420 H438 0.928 . S
C421 C418 1.260 . S
C421 C419 1.479 . S
C422 C417 1.245 . S
C422 C418 1.477 . S
C422 H439 0.932 . S
C423 U406 2.882 . S
C423 C417 1.428 . S
C423 O426 1.301 . S
C423 O427 1.282 . S
O424 U406 2.441 . S
O424 C410 1.249 . S
O425 U406 2.420 . S
O425 C410 1.202 . S
O426 U406 2.455 . S
O426 C423 1.301 . S
O427 U406 2.449 . S
O427 C423 1.282 . S
H428 C401 0.994 . S
H429 C403 0.929 . S
H430 C404 0.930 . S
H431 C405 0.931 . S
H432 C412 0.932 . S
H433 C413 0.930 . S
H434 C414 0.929 . S
H435 C416 0.930 . S
H436 C418 0.932 . S
H437 C419 0.929 . S
H438 C420 0.928 . S
H439 C422 0.932 . S
C440 C441 1.264 . S
C440 C445 1.479 . S
C440 C450 1.465 . S
C441 C440 1.264 . S
C441 C443 1.339 . S
C441 H468 0.931 . S
C442 C443 1.395 . S
C442 C444 1.320 . S
C443 C441 1.339 . S
C443 C442 1.395 . S
C443 H469 0.929 . S
C444 C442 1.320 . S
C444 C445 1.405 . S
C444 H470 0.930 . S
C445 C440 1.479 . S
C445 C444 1.405 . S
C445 H471 0.931 . S
U446 O447 2.454 . S
U446 O448 2.458 . S
U446 C449 2.984 . S
U446 C450 2.847 . S
U446 C463 2.882 . S
U446 O464 2.441 . S
U446 O465 2.420 . S
U446 O466 2.455 . S
U446 O467 2.449 . S
O447 U446 2.454 . S
O447 C449 1.353 . S
O448 U446 2.458 . S
O448 C449 1.286 . S
C449 U446 2.984 . S
C449 O447 1.353 . S
C449 O448 1.286 . S
C449 C451 1.363 . S
C450 C440 1.465 . S
C450 U446 2.847 . S
C450 O464 1.249 . S
C450 O465 1.202 . S
C451 C449 1.363 . S
C451 C453 1.408 1_565 S
C451 C456 1.342 . S
C452 C453 1.310 . S
C452 C455 1.461 . S
C452 H472 0.932 . S
C453 C451 1.408 1_545 S
C453 C452 1.310 . S
C453 H473 0.930 . S
C454 C455 1.474 . S
C454 C456 1.285 1_545 S
C454 H474 0.929 . S
C455 C452 1.461 . S
C455 C454 1.474 . S
C456 C451 1.342 . S
C456 C454 1.285 1_565 S
C456 H475 0.930 . S
C457 C460 1.424 . S
C457 C462 1.245 . S
C457 C463 1.428 . S
C458 C461 1.260 . S
C458 C462 1.477 . S
C458 H476 0.932 . S
C459 C460 1.384 . S
C459 C461 1.479 . S
C459 H477 0.929 . S
C460 C457 1.424 . S
C460 C459 1.384 . S
C460 H478 0.928 . S
C461 C458 1.260 . S
C461 C459 1.479 . S
C462 C457 1.245 . S
C462 C458 1.477 . S
C462 H479 0.932 . S
C463 U446 2.882 . S
C463 C457 1.428 . S
C463 O466 1.301 . S
C463 O467 1.282 . S
O464 U446 2.441 . S
O464 C450 1.249 . S
O465 U446 2.420 . S
O465 C450 1.202 . S
O466 U446 2.455 . S
O466 C463 1.301 . S
O467 U446 2.449 . S
O467 C463 1.282 . S
H468 C441 0.931 . S
H469 C443 0.929 . S
H470 C444 0.930 . S
H471 C445 0.931 . S
H472 C452 0.932 . S
H473 C453 0.930 . S
H474 C454 0.929 . S
H475 C456 0.930 . S
H476 C458 0.932 . S
H477 C459 0.929 . S
H478 C460 0.928 . S
H479 C462 0.932 . S
C480 C481 1.264 . S
C480 C485 1.479 . S
C480 C490 1.465 . S
C481 C480 1.264 . S
C481 C483 1.339 . S
C481 H508 0.931 . S
C482 C483 1.395 . S
C482 C484 1.320 . S
C483 C481 1.339 . S
C483 C482 1.395 . S
C483 H509 0.929 . S
C484 C482 1.320 . S
C484 C485 1.405 . S
C484 H510 0.930 . S
C485 C480 1.479 . S
C485 C484 1.405 . S
C485 H511 0.931 . S
U486 O487 2.454 . S
U486 O488 2.458 . S
U486 C489 2.984 . S
U486 C490 2.847 . S
U486 C503 2.882 . S
U486 O504 2.441 . S
U486 O505 2.420 . S
U486 O506 2.455 . S
U486 O507 2.449 . S
O487 U486 2.454 . S
O487 C489 1.353 . S
O488 U486 2.458 . S
O488 C489 1.286 . S
C489 U486 2.984 . S
C489 O487 1.353 . S
C489 O488 1.286 . S
C489 C491 1.363 . S
C490 C480 1.465 . S
C490 U486 2.847 . S
C490 O504 1.249 . S
C490 O505 1.202 . S
C491 C489 1.363 . S
C491 C493 1.408 1_554 S
C491 C496 1.342 . S
C492 C493 1.310 . S
C492 C495 1.461 . S
C492 H512 0.932 . S
C493 C491 1.408 1_556 S
C493 C492 1.310 . S
C493 H513 0.930 . S
C494 C495 1.474 . S
C494 C496 1.285 1_556 S
C494 H514 0.929 . S
C495 C492 1.461 . S
C495 C494 1.474 . S
C496 C491 1.342 . S
C496 C494 1.285 1_554 S
C496 H515 0.930 . S
C497 C500 1.424 . S
C497 C502 1.245 . S
C497 C503 1.428 . S
C498 C501 1.260 . S
C498 C502 1.477 . S
C498 H516 0.932 . S
C499 C500 1.384 . S
C499 C501 1.479 . S
C499 H517 0.929 . S
C500 C497 1.424 . S
C500 C499 1.384 . S
C500 H518 0.928 . S
C501 C498 1.260 . S
C501 C499 1.479 . S
C502 C497 1.245 . S
C502 C498 1.477 . S
C502 H519 0.932 . S
C503 U486 2.882 . S
C503 C497 1.428 . S
C503 O506 1.301 . S
C503 O507 1.282 . S
O504 U486 2.441 . S
O504 C490 1.249 . S
O505 U486 2.420 . S
O505 C490 1.202 . S
O506 U486 2.455 . S
O506 C503 1.301 . S
O507 U486 2.449 . S
O507 C503 1.282 . S
H508 C481 0.931 . S
H509 C483 0.929 . S
H510 C484 0.930 . S
H511 C485 0.931 . S
H512 C492 0.932 . S
H513 C493 0.930 . S
H514 C494 0.929 . S
H515 C496 0.930 . S
H516 C498 0.932 . S
H517 C499 0.929 . S
H518 C500 0.928 . S
H519 C502 0.932 . S
C520 C521 1.269 . S
C520 C525 1.479 1_655 S
C520 C530 1.465 . S
C521 C520 1.269 . S
C521 C523 1.289 1_655 S
C521 H548 0.978 . S
C522 C523 1.395 . S
C522 C524 1.320 . S
C523 C521 1.289 1_455 S
C523 C522 1.395 . S
C523 H549 0.929 . S
C524 C522 1.320 . S
C524 C525 1.405 . S
C524 H550 0.930 . S
C525 C520 1.479 1_455 S
C525 C524 1.405 . S
C525 H551 0.931 . S
U526 O527 2.454 . S
U526 O528 2.458 . S
U526 C529 2.984 . S
U526 C530 2.847 . S
U526 C543 2.882 . S
U526 O544 2.441 . S
U526 O545 2.420 . S
U526 O546 2.455 . S
U526 O547 2.449 . S
O527 U526 2.454 . S
O527 C529 1.353 . S
O528 U526 2.458 . S
O528 C529 1.286 . S
C529 U526 2.984 . S
C529 O527 1.353 . S
C529 O528 1.286 . S
C529 C531 1.363 . S
C530 C520 1.465 . S
C530 U526 2.847 . S
C530 O544 1.249 . S
C530 O545 1.202 . S
C531 C529 1.363 . S
C531 C533 1.408 . S
C531 C536 1.342 . S
C532 C533 1.310 . S
C532 C535 1.461 . S
C532 H552 0.932 . S
C533 C531 1.408 . S
C533 C532 1.310 . S
C533 H553 0.930 . S
C534 C535 1.474 . S
C534 C536 1.285 . S
C534 H554 0.929 . S
C535 C532 1.461 . S
C535 C534 1.474 . S
C536 C531 1.342 . S
C536 C534 1.285 . S
C536 H555 0.930 . S
C537 C540 1.424 . S
C537 C542 1.245 . S
C537 C543 1.428 . S
C538 C541 1.260 . S
C538 C542 1.477 . S
C538 H556 0.932 . S
C539 C540 1.384 . S
C539 C541 1.479 . S
C539 H557 0.929 . S
C540 C537 1.424 . S
C540 C539 1.384 . S
C540 H558 0.928 . S
C541 C538 1.260 . S
C541 C539 1.479 . S
C542 C537 1.245 . S
C542 C538 1.477 . S
C542 H559 0.932 . S
C543 U526 2.882 . S
C543 C537 1.428 . S
C543 O546 1.301 . S
C543 O547 1.282 . S
O544 U526 2.441 . S
O544 C530 1.249 . S
O545 U526 2.420 . S
O545 C530 1.202 . S
O546 U526 2.455 . S
O546 C543 1.301 . S
O547 U526 2.449 . S
O547 C543 1.282 . S
H548 C521 0.978 . S
H549 C523 0.929 . S
H550 C524 0.930 . S
H551 C525 0.931 . S
H552 C532 0.932 . S
H553 C533 0.930 . S
H554 C534 0.929 . S
H555 C536 0.930 . S
H556 C538 0.932 . S
H557 C539 0.929 . S
H558 C540 0.928 . S
H559 C542 0.932 . S
C560 C561 1.264 . S
C560 C565 1.479 . S
C560 C570 1.465 . S
C561 C560 1.264 . S
C561 C563 1.339 . S
C561 H588 0.931 . S
C562 C563 1.395 . S
C562 C564 1.320 . S
C563 C561 1.339 . S
C563 C562 1.395 . S
C563 H589 0.929 . S
C564 C562 1.320 . S
C564 C565 1.405 . S
C564 H590 0.930 . S
C565 C560 1.479 . S
C565 C564 1.405 . S
C565 H591 0.931 . S
U566 O567 2.454 . S
U566 O568 2.458 . S
U566 C569 2.984 . S
U566 C570 2.847 . S
U566 C583 2.882 . S
U566 O584 2.441 . S
U566 O585 2.420 . S
U566 O586 2.455 . S
U566 O587 2.449 . S
O567 U566 2.454 . S
O567 C569 1.353 . S
O568 U566 2.458 . S
O568 C569 1.286 . S
C569 U566 2.984 . S
C569 O567 1.353 . S
C569 O568 1.286 . S
C569 C571 1.363 . S
C570 C560 1.465 . S
C570 U566 2.847 . S
C570 O584 1.249 . S
C570 O585 1.202 . S
C571 C569 1.363 . S
C571 C573 1.408 . S
C571 C576 1.342 . S
C572 C573 1.310 . S
C572 C575 1.461 . S
C572 H592 0.932 . S
C573 C571 1.408 . S
C573 C572 1.310 . S
C573 H593 0.930 . S
C574 C575 1.474 . S
C574 C576 1.285 . S
C574 H594 0.929 . S
C575 C572 1.461 . S
C575 C574 1.474 . S
C576 C571 1.342 . S
C576 C574 1.285 . S
C576 H595 0.930 . S
C577 C580 1.424 . S
C577 C582 1.245 . S
C577 C583 1.428 . S
C578 C581 1.260 . S
C578 C582 1.477 . S
C578 H596 0.932 . S
C579 C580 1.384 . S
C579 C581 1.479 . S
C579 H597 0.929 . S
C580 C577 1.424 . S
C580 C579 1.384 . S
C580 H598 0.928 . S
C581 C578 1.260 . S
C581 C579 1.479 . S
C582 C577 1.245 . S
C582 C578 1.477 . S
C582 H599 0.932 . S
C583 U566 2.882 . S
C583 C577 1.428 . S
C583 O586 1.301 . S
C583 O587 1.282 . S
O584 U566 2.441 . S
O584 C570 1.249 . S
O585 U566 2.420 . S
O585 C570 1.202 . S
O586 U566 2.455 . S
O586 C583 1.301 . S
O587 U566 2.449 . S
O587 C583 1.282 . S
H588 C561 0.931 . S
H589 C563 0.929 . S
H590 C564 0.930 . S
H591 C565 0.931 . S
H592 C572 0.932 . S
H593 C573 0.930 . S
H594 C574 0.929 . S
H595 C576 0.930 . S
H596 C578 0.932 . S
H597 C579 0.929 . S
H598 C580 0.928 . S
H599 C582 0.932 . S
C600 C601 1.264 . S
C600 C605 1.479 . S
C600 C610 1.465 . S
C601 C600 1.264 . S
C601 C603 1.339 . S
C601 H628 0.931 . S
C602 C603 1.395 . S
C602 C604 1.320 . S
C603 C601 1.339 . S
C603 C602 1.395 . S
C603 H629 0.929 . S
C604 C602 1.320 . S
C604 C605 1.405 . S
C604 H630 0.930 . S
C605 C600 1.479 . S
C605 C604 1.405 . S
C605 H631 0.931 . S
U606 O607 2.454 1_655 S
U606 O608 2.458 1_655 S
U606 C609 2.984 1_655 S
U606 C610 2.847 . S
U606 C623 2.882 . S
U606 O624 2.441 . S
U606 O625 2.420 . S
U606 O626 2.455 . S
U606 O627 2.449 . S
O607 U606 2.454 1_455 S
O607 C609 1.353 . S
O608 U606 2.458 1_455 S
O608 C609 1.286 . S
C609 U606 2.984 1_455 S
C609 O607 1.353 . S
C609 O608 1.286 . S
C609 C611 1.363 . S
C610 C600 1.465 . S
C610 U606 2.847 . S
C610 O624 1.249 . S
C610 O625 1.202 . S
C611 C609 1.363 . S
C611 C613 1.408 . S
C611 C616 1.342 . S
C612 C613 1.310 . S
C612 C615 1.461 . S
C612 H632 0.932 . S
C613 C611 1.408 . S
C613 C612 1.310 . S
C613 H633 0.930 . S
C614 C615 1.474 . S
C614 C616 1.285 . S
C614 H634 0.929 . S
C615 C612 1.461 . S
C615 C614 1.474 . S
C616 C611 1.342 . S
C616 C614 1.285 . S
C616 H635 0.930 . S
C617 C620 1.424 . S
C617 C622 1.245 . S
C617 C623 1.428 . S
C618 C621 1.260 . S
C618 C622 1.477 . S
C618 H636 0.932 . S
C619 C620 1.384 . S
C619 C621 1.479 . S
C619 H637 0.929 . S
C620 C617 1.424 . S
C620 C619 1.384 . S
C620 H638 0.928 . S
C621 C618 1.260 . S
C621 C619 1.479 . S
C622 C617 1.245 . S
C622 C618 1.477 . S
C622 H639 0.932 . S
C623 U606 2.882 . S
C623 C617 1.428 . S
C623 O626 1.301 . S
C623 O627 1.282 . S
O624 U606 2.441 . S
O624 C610 1.249 . S
O625 U606 2.420 . S
O625 C610 1.202 . S
O626 U606 2.455 . S
O626 C623 1.301 . S
O627 U606 2.449 . S
O627 C623 1.282 . S
H628 C601 0.931 . S
H629 C603 0.929 . S
H630 C604 0.930 . S
H631 C605 0.931 . S
H632 C612 0.932 . S
H633 C613 0.930 . S
H634 C614 0.929 . S
H635 C616 0.930 . S
H636 C618 0.932 . S
H637 C619 0.929 . S
H638 C620 0.928 . S
H639 C622 0.932 . S
C640 C641 1.264 . S
C640 C645 1.479 . S
C640 C650 1.465 . S
C641 C640 1.264 . S
C641 C643 1.339 . S
C641 H668 0.931 . S
C642 C643 1.395 . S
C642 C644 1.320 . S
C643 C641 1.339 . S
C643 C642 1.395 . S
C643 H669 0.929 . S
C644 C642 1.320 . S
C644 C645 1.405 . S
C644 H670 0.930 . S
C645 C640 1.479 . S
C645 C644 1.405 . S
C645 H671 0.931 . S
U646 O647 2.454 . S
U646 O648 2.458 . S
U646 C649 2.984 . S
U646 C650 2.847 . S
U646 C663 2.882 . S
U646 O664 2.441 . S
U646 O665 2.420 . S
U646 O666 2.455 . S
U646 O667 2.449 . S
O647 U646 2.454 . S
O647 C649 1.353 . S
O648 U646 2.458 . S
O648 C649 1.286 . S
C649 U646 2.984 . S
C649 O647 1.353 . S
C649 O648 1.286 . S
C649 C651 1.363 . S
C650 C640 1.465 . S
C650 U646 2.847 . S
C650 O664 1.249 . S
C650 O665 1.202 . S
C651 C649 1.363 . S
C651 C653 1.408 . S
C651 C656 1.342 . S
C652 C653 1.310 . S
C652 C655 1.461 . S
C652 H672 0.932 . S
C653 C651 1.408 . S
C653 C652 1.310 . S
C653 H673 0.930 . S
C654 C655 1.474 . S
C654 C656 1.285 . S
C654 H674 0.929 . S
C655 C652 1.461 . S
C655 C654 1.474 . S
C656 C651 1.342 . S
C656 C654 1.285 . S
C656 H675 0.930 . S
C657 C660 1.424 . S
C657 C662 1.245 . S
C657 C663 1.428 . S
C658 C661 1.260 . S
C658 C662 1.477 . S
C658 H676 0.932 . S
C659 C660 1.384 . S
C659 C661 1.479 . S
C659 H677 0.929 . S
C660 C657 1.424 . S
C660 C659 1.384 . S
C660 H678 0.928 . S
C661 C658 1.260 . S
C661 C659 1.479 . S
C662 C657 1.245 . S
C662 C658 1.477 . S
C662 H679 0.932 . S
C663 U646 2.882 . S
C663 C657 1.428 . S
C663 O666 1.301 . S
C663 O667 1.282 . S
O664 U646 2.441 . S
O664 C650 1.249 . S
O665 U646 2.420 . S
O665 C650 1.202 . S
O666 U646 2.455 . S
O666 C663 1.301 . S
O667 U646 2.449 . S
O667 C663 1.282 . S
H668 C641 0.931 . S
H669 C643 0.929 . S
H670 C644 0.930 . S
H671 C645 0.931 . S
H672 C652 0.932 . S
H673 C653 0.930 . S
H674 C654 0.929 . S
H675 C656 0.930 . S
H676 C658 0.932 . S
H677 C659 0.929 . S
H678 C660 0.928 . S
H679 C662 0.932 . S
C680 C681 1.264 . S
C680 C685 1.479 . S
C680 C690 1.465 . S
C681 C680 1.264 . S
C681 C683 1.339 . S
C681 H708 0.931 . S
C682 C683 1.395 . S
C682 C684 1.320 . S
C683 C681 1.339 . S
C683 C682 1.395 . S
C683 H709 0.929 . S
C684 C682 1.320 . S
C684 C685 1.405 . S
C684 H710 0.930 . S
C685 C680 1.479 . S
C685 C684 1.405 . S
C685 H711 0.931 . S
U686 O687 2.454 . S
U686 O688 2.458 . S
U686 C689 2.984 . S
U686 C690 2.847 . S
U686 C703 2.882 . S
U686 O704 2.441 . S
U686 O705 2.420 . S
U686 O706 2.455 . S
U686 O707 2.449 . S
O687 U686 2.454 . S
O687 C689 1.353 . S
O688 U686 2.458 . S
O688 C689 1.286 . S
C689 U686 2.984 . S
C689 O687 1.353 . S
C689 O688 1.286 . S
C689 C691 1.363 . S
C690 C680 1.465 . S
C690 U686 2.847 . S
C690 O704 1.249 . S
C690 O705 1.202 . S
C691 C689 1.363 . S
C691 C693 1.408 . S
C691 C696 1.342 . S
C692 C693 1.310 . S
C692 C695 1.461 . S
C692 H712 0.932 . S
C693 C691 1.408 . S
C693 C692 1.310 . S
C693 H713 0.930 . S
C694 C695 1.474 . S
C694 C696 1.285 . S
C694 H714 0.929 . S
C695 C692 1.461 . S
C695 C694 1.474 . S
C696 C691 1.342 . S
C696 C694 1.285 . S
C696 H715 0.930 . S
C697 C700 1.424 . S
C697 C702 1.245 . S
C697 C703 1.428 . S
C698 C701 1.260 . S
C698 C702 1.477 . S
C698 H716 0.932 . S
C699 C700 1.384 . S
C699 C701 1.479 . S
C699 H717 0.929 . S
C700 C697 1.424 . S
C700 C699 1.384 . S
C700 H718 0.928 . S
C701 C698 1.260 . S
C701 C699 1.479 . S
C702 C697 1.245 . S
C702 C698 1.477 . S
C702 H719 0.932 . S
C703 U686 2.882 . S
C703 C697 1.428 . S
C703 O706 1.301 . S
C703 O707 1.282 . S
O704 U686 2.441 . S
O704 C690 1.249 . S
O705 U686 2.420 . S
O705 C690 1.202 . S
O706 U686 2.455 . S
O706 C703 1.301 . S
O707 U686 2.449 . S
O707 C703 1.282 . S
H708 C681 0.931 . S
H709 C683 0.929 . S
H710 C684 0.930 . S
H711 C685 0.931 . S
H712 C692 0.932 . S
H713 C693 0.930 . S
H714 C694 0.929 . S
H715 C696 0.930 . S
H716 C698 0.932 . S
H717 C699 0.929 . S
H718 C700 0.928 . S
H719 C702 0.932 . S
C720 C721 1.264 . S
C720 C725 1.479 . S
C720 C730 1.465 . S
C721 C720 1.264 . S
C721 C723 1.339 . S
C721 H748 0.931 . S
C722 C723 1.395 . S
C722 C724 1.320 . S
C723 C721 1.339 . S
C723 C722 1.395 . S
C723 H749 0.929 . S
C724 C722 1.320 . S
C724 C725 1.405 . S
C724 H750 0.930 . S
C725 C720 1.479 . S
C725 C724 1.405 . S
C725 H751 0.931 . S
U726 O727 2.454 1_556 S
U726 O728 2.458 1_556 S
U726 C729 2.984 1_556 S
U726 C730 2.847 . S
U726 C743 2.882 . S
U726 O744 2.441 . S
U726 O745 2.420 . S
U726 O746 2.455 . S
U726 O747 2.449 . S
O727 U726 2.454 1_554 S
O727 C729 1.353 . S
O728 U726 2.458 1_554 S
O728 C729 1.286 . S
C729 U726 2.984 1_554 S
C729 O727 1.353 . S
C729 O728 1.286 . S
C729 C731 1.363 . S
C730 C720 1.465 . S
C730 U726 2.847 . S
C730 O744 1.249 . S
C730 O745 1.202 . S
C731 C729 1.363 . S
C731 C733 1.408 . S
C731 C736 1.342 . S
C732 C733 1.310 . S
C732 C735 1.461 . S
C732 H752 0.932 . S
C733 C731 1.408 . S
C733 C732 1.310 . S
C733 H753 0.930 . S
C734 C735 1.474 . S
C734 C736 1.285 . S
C734 H754 0.929 . S
C735 C732 1.461 . S
C735 C734 1.474 . S
C736 C731 1.342 . S
C736 C734 1.285 . S
C736 H755 0.930 . S
C737 C740 1.424 . S
C737 C742 1.245 . S
C737 C743 1.428 . S
C738 C741 1.260 . S
C738 C742 1.477 . S
C738 H756 0.932 . S
C739 C740 1.384 . S
C739 C741 1.479 . S
C739 H757 0.929 . S
C740 C737 1.424 . S
C740 C739 1.384 . S
C740 H758 0.928 . S
C741 C738 1.260 . S
C741 C739 1.479 . S
C742 C737 1.245 . S
C742 C738 1.477 . S
C742 H759 0.932 . S
C743 U726 2.882 . S
C743 C737 1.428 . S
C743 O746 1.301 . S
C743 O747 1.282 . S
O744 U726 2.441 . S
O744 C730 1.249 . S
O745 U726 2.420 . S
O745 C730 1.202 . S
O746 U726 2.455 . S
O746 C743 1.301 . S
O747 U726 2.449 . S
O747 C743 1.282 . S
H748 C721 0.931 . S
H749 C723 0.929 . S
H750 C724 0.930 . S
H751 C725 0.931 . S
H752 C732 0.932 . S
H753 C733 0.930 . S
H754 C734 0.929 . S
H755 C736 0.930 . S
H756 C738 0.932 . S
H757 C739 0.929 . S
H758 C740 0.928 . S
H759 C742 0.932 . S
C760 C761 1.264 . S
C760 C765 1.479 . S
C760 C770 1.465 . S
C761 C760 1.264 . S
C761 C763 1.339 . S
C761 H788 0.931 . S
C762 C763 1.395 . S
C762 C764 1.320 . S
C763 C761 1.339 . S
C763 C762 1.395 . S
C763 H789 0.929 . S
C764 C762 1.320 . S
C764 C765 1.405 . S
C764 H790 0.930 . S
C765 C760 1.479 . S
C765 C764 1.405 . S
C765 H791 0.931 . S
U766 O767 2.454 . S
U766 O768 2.458 . S
U766 C769 2.984 . S
U766 C770 2.847 1_655 S
U766 C783 2.882 . S
U766 O784 2.441 1_655 S
U766 O785 2.420 1_655 S
U766 O786 2.455 . S
U766 O787 2.449 . S
O767 U766 2.454 . S
O767 C769 1.353 . S
O768 U766 2.458 . S
O768 C769 1.286 . S
C769 U766 2.984 . S
C769 O767 1.353 . S
C769 O768 1.286 . S
C769 C771 1.363 . S
C770 C760 1.465 . S
C770 U766 2.847 1_455 S
C770 O784 1.249 . S
C770 O785 1.202 . S
C771 C769 1.363 . S
C771 C773 1.408 . S
C771 C776 1.342 . S
C772 C773 1.310 . S
C772 C775 1.461 . S
C772 H792 0.932 . S
C773 C771 1.408 . S
C773 C772 1.310 . S
C773 H793 0.930 . S
C774 C775 1.474 . S
C774 C776 1.285 . S
C774 H794 0.929 . S
C775 C772 1.461 . S
C775 C774 1.474 . S
C776 C771 1.342 . S
C776 C774 1.285 . S
C776 H795 0.930 . S
C777 C780 1.424 . S
C777 C782 1.245 . S
C777 C783 1.428 . S
C778 C781 1.260 . S
C778 C782 1.477 . S
C778 H796 0.932 . S
C779 C780 1.384 . S
C779 C781 1.479 . S
C779 H797 0.929 . S
C780 C777 1.424 . S
C780 C779 1.384 . S
C780 H798 0.928 . S
C781 C778 1.260 . S
C781 C779 1.479 . S
C782 C777 1.245 . S
C782 C778 1.477 . S
C782 H799 0.932 . S
C783 U766 2.882 . S
C783 C777 1.428 . S
C783 O786 1.301 . S
C783 O787 1.282 . S
O784 U766 2.441 1_455 S
O784 C770 1.249 . S
O785 U766 2.420 1_455 S
O785 C770 1.202 . S
O786 U766 2.455 . S
O786 C783 1.301 . S
O787 U766 2.449 . S
O787 C783 1.282 . S
H788 C761 0.931 . S
H789 C763 0.929 . S
H790 C764 0.930 . S
H791 C765 0.931 . S
H792 C772 0.932 . S
H793 C773 0.930 . S
H794 C774 0.929 . S
H795 C776 0.930 . S
H796 C778 0.932 . S
H797 C779 0.929 . S
H798 C780 0.928 . S
H799 C782 0.932 . S
C800 C801 1.264 . S
C800 C805 1.479 . S
C800 C810 1.465 . S
C801 C800 1.264 . S
C801 C803 1.339 . S
C801 H828 0.931 . S
C802 C803 1.395 . S
C802 C804 1.320 . S
C803 C801 1.339 . S
C803 C802 1.395 . S
C803 H829 0.929 . S
C804 C802 1.320 . S
C804 C805 1.405 . S
C804 H830 0.930 . S
C805 C800 1.479 . S
C805 C804 1.405 . S
C805 H831 0.931 . S
U806 O807 2.454 . S
U806 O808 2.458 . S
U806 C809 2.984 . S
U806 C810 2.847 . S
U806 C823 2.882 . S
U806 O824 2.441 . S
U806 O825 2.420 . S
U806 O826 2.455 . S
U806 O827 2.449 . S
O807 U806 2.454 . S
O807 C809 1.353 . S
O808 U806 2.458 . S
O808 C809 1.286 . S
C809 U806 2.984 . S
C809 O807 1.353 . S
C809 O808 1.286 . S
C809 C811 1.363 . S
C810 C800 1.465 . S
C810 U806 2.847 . S
C810 O824 1.249 . S
C810 O825 1.202 . S
C811 C809 1.363 . S
C811 C813 1.408 . S
C811 C816 1.342 . S
C812 C813 1.310 . S
C812 C815 1.461 . S
C812 H832 0.932 . S
C813 C811 1.408 . S
C813 C812 1.310 . S
C813 H833 0.930 . S
C814 C815 1.474 . S
C814 C816 1.285 . S
C814 H834 0.929 . S
C815 C812 1.461 . S
C815 C814 1.474 . S
C816 C811 1.342 . S
C816 C814 1.285 . S
C816 H835 0.930 . S
C817 C820 1.424 . S
C817 C822 1.245 . S
C817 C823 1.428 . S
C818 C821 1.260 . S
C818 C822 1.477 . S
C818 H836 0.932 . S
C819 C820 1.384 . S
C819 C821 1.479 . S
C819 H837 0.929 . S
C820 C817 1.424 . S
C820 C819 1.384 . S
C820 H838 0.928 . S
C821 C818 1.260 . S
C821 C819 1.479 . S
C822 C817 1.245 . S
C822 C818 1.477 . S
C822 H839 0.932 . S
C823 U806 2.882 . S
C823 C817 1.428 . S
C823 O826 1.301 . S
C823 O827 1.282 . S
O824 U806 2.441 . S
O824 C810 1.249 . S
O825 U806 2.420 . S
O825 C810 1.202 . S
O826 U806 2.455 . S
O826 C823 1.301 . S
O827 U806 2.449 . S
O827 C823 1.282 . S
H828 C801 0.931 . S
H829 C803 0.929 . S
H830 C804 0.930 . S
H831 C805 0.931 . S
H832 C812 0.932 . S
H833 C813 0.930 . S
H834 C814 0.929 . S
H835 C816 0.930 . S
H836 C818 0.932 . S
H837 C819 0.929 . S
H838 C820 0.928 . S
H839 C822 0.932 . S
C840 C841 1.264 . S
C840 C845 1.479 . S
C840 C850 1.465 . S
C841 C840 1.264 . S
C841 C843 1.339 . S
C841 H868 0.931 . S
C842 C843 1.395 . S
C842 C844 1.320 . S
C843 C841 1.339 . S
C843 C842 1.395 . S
C843 H869 0.929 . S
C844 C842 1.320 . S
C844 C845 1.405 . S
C844 H870 0.930 . S
C845 C840 1.479 . S
C845 C844 1.405 . S
C845 H871 0.931 . S
U846 O847 2.454 . S
U846 O848 2.458 . S
U846 C849 2.984 . S
U846 C850 2.847 . S
U846 C863 2.882 . S
U846 O864 2.441 . S
U846 O865 2.420 . S
U846 O866 2.455 . S
U846 O867 2.449 . S
O847 U846 2.454 . S
O847 C849 1.353 . S
O848 U846 2.458 . S
O848 C849 1.286 . S
C849 U846 2.984 . S
C849 O847 1.353 . S
C849 O848 1.286 . S
C849 C851 1.363 . S
C850 C840 1.465 . S
C850 U846 2.847 . S
C850 O864 1.249 . S
C850 O865 1.202 . S
C851 C849 1.363 . S
C851 C853 1.408 . S
C851 C856 1.342 . S
C852 C853 1.310 . S
C852 C855 1.461 . S
C852 H872 0.932 . S
C853 C851 1.408 . S
C853 C852 1.310 . S
C853 H873 0.930 . S
C854 C855 1.474 . S
C854 C856 1.285 . S
C854 H874 0.929 . S
C855 C852 1.461 . S
C855 C854 1.474 . S
C856 C851 1.342 . S
C856 C854 1.285 . S
C856 H875 0.930 . S
C857 C860 1.424 . S
C857 C862 1.245 . S
C857 C863 1.428 . S
C858 C861 1.260 . S
C858 C862 1.477 . S
C858 H876 0.932 . S
C859 C860 1.384 . S
C859 C861 1.479 . S
C859 H877 0.929 . S
C860 C857 1.424 . S
C860 C859 1.384 . S
C860 H878 0.928 . S
C861 C858 1.260 . S
C861 C859 1.479 . S
C862 C857 1.245 . S
C862 C858 1.477 . S
C862 H879 0.932 . S
C863 U846 2.882 . S
C863 C857 1.428 . S
C863 O866 1.301 . S
C863 O867 1.282 . S
O864 U846 2.441 . S
O864 C850 1.249 . S
O865 U846 2.420 . S
O865 C850 1.202 . S
O866 U846 2.455 . S
O866 C863 1.301 . S
O867 U846 2.449 . S
O867 C863 1.282 . S
H868 C841 0.931 . S
H869 C843 0.929 . S
H870 C844 0.930 . S
H871 C845 0.931 . S
H872 C852 0.932 . S
H873 C853 0.930 . S
H874 C854 0.929 . S
H875 C856 0.930 . S
H876 C858 0.932 . S
H877 C859 0.929 . S
H878 C860 0.928 . S
H879 C862 0.932 . S
C880 C881 1.264 . S
C880 C885 1.479 . S
C880 C890 1.465 . S
C881 C880 1.264 . S
C881 C883 1.339 . S
C881 H908 0.931 . S
C882 C883 1.395 . S
C882 C884 1.320 . S
C883 C881 1.339 . S
C883 C882 1.395 . S
C883 H909 0.929 . S
C884 C882 1.320 . S
C884 C885 1.405 . S
C884 H910 0.930 . S
C885 C880 1.479 . S
C885 C884 1.405 . S
C885 H911 0.931 . S
U886 O887 2.454 . S
U886 O888 2.458 . S
U886 C889 2.984 . S
U886 C890 2.847 1_554 S
U886 C903 2.882 . S
U886 O904 2.441 1_554 S
U886 O905 2.420 1_554 S
U886 O906 2.455 . S
U886 O907 2.449 . S
O887 U886 2.454 . S
O887 C889 1.353 . S
O888 U886 2.458 . S
O888 C889 1.286 . S
C889 U886 2.984 . S
C889 O887 1.353 . S
C889 O888 1.286 . S
C889 C891 1.363 . S
C890 C880 1.465 . S
C890 U886 2.847 1_556 S
C890 O904 1.249 . S
C890 O905 1.202 . S
C891 C889 1.363 . S
C891 C893 1.408 . S
C891 C896 1.342 . S
C892 C893 1.310 . S
C892 C895 1.461 . S
C892 H912 0.932 . S
C893 C891 1.408 . S
C893 C892 1.310 . S
C893 H913 0.930 . S
C894 C895 1.474 . S
C894 C896 1.285 . S
C894 H914 0.929 . S
C895 C892 1.461 . S
C895 C894 1.474 . S
C896 C891 1.342 . S
C896 C894 1.285 . S
C896 H915 0.930 . S
C897 C900 1.424 . S
C897 C902 1.245 . S
C897 C903 1.428 . S
C898 C901 1.260 . S
C898 C902 1.477 . S
C898 H916 0.932 . S
C899 C900 1.384 . S
C899 C901 1.479 . S
C899 H917 0.929 . S
C900 C897 1.424 . S
C900 C899 1.384 . S
C900 H918 0.928 . S
C901 C898 1.260 . S
C901 C899 1.479 . S
C902 C897 1.245 . S
C902 C898 1.477 . S
C902 H919 0.932 . S
C903 U886 2.882 . S
C903 C897 1.428 . S
C903 O906 1.301 . S
C903 O907 1.282 . S
O904 U886 2.441 1_556 S
O904 C890 1.249 . S
O905 U886 2.420 1_556 S
O905 C890 1.202 . S
O906 U886 2.455 . S
O906 C903 1.301 . S
O907 U886 2.449 . S
O907 C903 1.282 . S
H908 C881 0.931 . S
H909 C883 0.929 . S
H910 C884 0.930 . S
H911 C885 0.931 . S
H912 C892 0.932 . S
H913 C893 0.930 . S
H914 C894 0.929 . S
H915 C896 0.930 . S
H916 C898 0.932 . S
H917 C899 0.929 . S
H918 C900 0.928 . S
H919 C902 0.932 . S
C920 C921 1.264 . S
C920 C925 1.479 . S
C920 C930 1.465 . S
C921 C920 1.264 . S
C921 C923 1.339 . S
C921 H948 0.931 . S
C922 C923 1.395 . S
C922 C924 1.320 . S
C923 C921 1.339 . S
C923 C922 1.395 . S
C923 H949 0.929 . S
C924 C922 1.320 . S
C924 C925 1.405 . S
C924 H950 0.930 . S
C925 C920 1.479 . S
C925 C924 1.405 . S
C925 H951 0.931 . S
U926 O927 2.454 1_565 S
U926 O928 2.458 1_565 S
U926 C929 2.984 1_565 S
U926 C930 2.847 . S
U926 C943 2.882 . S
U926 O944 2.441 . S
U926 O945 2.420 . S
U926 O946 2.455 . S
U926 O947 2.449 . S
O927 U926 2.454 1_545 S
O927 C929 1.353 . S
O928 U926 2.458 1_545 S
O928 C929 1.286 . S
C929 U926 2.984 1_545 S
C929 O927 1.353 . S
C929 O928 1.286 . S
C929 C931 1.363 . S
C930 C920 1.465 . S
C930 U926 2.847 . S
C930 O944 1.249 . S
C930 O945 1.202 . S
C931 C929 1.363 . S
C931 C933 1.408 . S
C931 C936 1.342 . S
C932 C933 1.310 . S
C932 C935 1.461 . S
C932 H952 0.932 . S
C933 C931 1.408 . S
C933 C932 1.310 . S
C933 H953 0.930 . S
C934 C935 1.474 . S
C934 C936 1.285 . S
C934 H954 0.929 . S
C935 C932 1.461 . S
C935 C934 1.474 . S
C936 C931 1.342 . S
C936 C934 1.285 . S
C936 H955 0.930 . S
C937 C940 1.424 . S
C937 C942 1.245 . S
C937 C943 1.428 . S
C938 C941 1.260 . S
C938 C942 1.477 . S
C938 H956 0.932 . S
C939 C940 1.384 . S
C939 C941 1.479 . S
C939 H957 0.929 . S
C940 C937 1.424 . S
C940 C939 1.384 . S
C940 H958 0.928 . S
C941 C938 1.260 . S
C941 C939 1.479 . S
C942 C937 1.245 . S
C942 C938 1.477 . S
C942 H959 0.932 . S
C943 U926 2.882 . S
C943 C937 1.428 . S
C943 O946 1.301 . S
C943 O947 1.282 . S
O944 U926 2.441 . S
O944 C930 1.249 . S
O945 U926 2.420 . S
O945 C930 1.202 . S
O946 U926 2.455 . S
O946 C943 1.301 . S
O947 U926 2.449 . S
O947 C943 1.282 . S
H948 C921 0.931 . S
H949 C923 0.929 . S
H950 C924 0.930 . S
H951 C925 0.931 . S
H952 C932 0.932 . S
H953 C933 0.930 . S
H954 C934 0.929 . S
H955 C936 0.930 . S
H956 C938 0.932 . S
H957 C939 0.929 . S
H958 C940 0.928 . S
H959 C942 0.932 . S
C960 C961 1.264 . S
C960 C965 1.479 . S
C960 C970 1.465 . S
C961 C960 1.264 . S
C961 C963 1.339 . S
C961 H988 0.931 . S
C962 C963 1.395 . S
C962 C964 1.320 . S
C963 C961 1.339 . S
C963 C962 1.395 . S
C963 H989 0.929 . S
C964 C962 1.320 . S
C964 C965 1.405 . S
C964 H990 0.930 . S
C965 C960 1.479 . S
C965 C964 1.405 . S
C965 H991 0.931 . S
U966 O967 2.454 1_565 S
U966 O968 2.458 1_565 S
U966 C969 2.984 1_565 S
U966 C970 2.847 . S
U966 C983 2.882 . S
U966 O984 2.441 . S
U966 O985 2.420 . S
U966 O986 2.455 . S
U966 O987 2.449 . S
O967 U966 2.454 1_545 S
O967 C969 1.353 . S
O968 U966 2.458 1_545 S
O968 C969 1.286 . S
C969 U966 2.984 1_545 S
C969 O967 1.353 . S
C969 O968 1.286 . S
C969 C971 1.363 . S
C970 C960 1.465 . S
C970 U966 2.847 . S
C970 O984 1.249 . S
C970 O985 1.202 . S
C971 C969 1.363 . S
C971 C973 1.408 . S
C971 C976 1.342 . S
C972 C973 1.310 . S
C972 C975 1.461 . S
C972 H992 0.932 . S
C973 C971 1.408 . S
C973 C972 1.310 . S
C973 H993 0.930 . S
C974 C975 1.474 . S
C974 C976 1.285 . S
C974 H994 0.929 . S
C975 C972 1.461 . S
C975 C974 1.474 . S
C976 C971 1.342 . S
C976 C974 1.285 . S
C976 H995 0.930 . S
C977 C980 1.424 . S
C977 C982 1.245 . S
C977 C983 1.428 . S
C978 C981 1.260 . S
C978 C982 1.477 . S
C978 H996 0.932 . S
C979 C980 1.384 . S
C979 C981 1.479 . S
C979 H997 0.929 . S
C980 C977 1.424 . S
C980 C979 1.384 . S
C980 H998 0.928 . S
C981 C978 1.260 . S
C981 C979 1.479 . S
C982 C977 1.245 . S
C982 C978 1.477 . S
C982 H999 0.932 . S
C983 U966 2.882 . S
C983 C977 1.428 . S
C983 O986 1.301 . S
C983 O987 1.282 . S
O984 U966 2.441 . S
O984 C970 1.249 . S
O985 U966 2.420 . S
O985 C970 1.202 . S
O986 U966 2.455 . S
O986 C983 1.301 . S
O987 U966 2.449 . S
O987 C983 1.282 . S
H988 C961 0.931 . S
H989 C963 0.929 . S
H990 C964 0.930 . S
H991 C965 0.931 . S
H992 C972 0.932 . S
H993 C973 0.930 . S
H994 C974 0.929 . S
H995 C976 0.930 . S
H996 C978 0.932 . S
H997 C979 0.929 . S
H998 C980 0.928 . S
H999 C982 0.932 . S
C1000 C1001 1.264 . S
C1000 C1005 1.479 . S
C1000 C1010 1.465 . S
C1001 C1000 1.264 . S
C1001 C1003 1.339 . S
C1001 H1028 0.931 . S
C1002 C1003 1.395 . S
C1002 C1004 1.320 . S
C1003 C1001 1.339 . S
C1003 C1002 1.395 . S
C1003 H1029 0.929 . S
C1004 C1002 1.320 . S
C1004 C1005 1.405 . S
C1004 H1030 0.930 . S
C1005 C1000 1.479 . S
C1005 C1004 1.405 . S
C1005 H1031 0.931 . S
U1006 O1007 2.454 . S
U1006 O1008 2.458 . S
U1006 C1009 2.984 . S
U1006 C1010 2.847 1_545 S
U1006 C1023 2.882 . S
U1006 O1024 2.441 1_545 S
U1006 O1025 2.420 1_545 S
U1006 O1026 2.455 . S
U1006 O1027 2.449 . S
O1007 U1006 2.454 . S
O1007 C1009 1.353 . S
O1008 U1006 2.458 . S
O1008 C1009 1.286 . S
C1009 U1006 2.984 . S
C1009 O1007 1.353 . S
C1009 O1008 1.286 . S
C1009 C1011 1.363 . S
C1010 C1000 1.465 . S
C1010 U1006 2.847 1_565 S
C1010 O1024 1.249 . S
C1010 O1025 1.202 . S
C1011 C1009 1.363 . S
C1011 C1013 1.408 . S
C1011 C1016 1.342 . S
C1012 C1013 1.310 . S
C1012 C1015 1.461 . S
C1012 H1032 0.932 . S
C1013 C1011 1.408 . S
C1013 C1012 1.310 . S
C1013 H1033 0.930 . S
C1014 C1015 1.474 . S
C1014 C1016 1.285 . S
C1014 H1034 0.929 . S
C1015 C1012 1.461 . S
C1015 C1014 1.474 . S
C1016 C1011 1.342 . S
C1016 C1014 1.285 . S
C1016 H1035 0.930 . S
C1017 C1020 1.424 . S
C1017 C1022 1.245 . S
C1017 C1023 1.428 . S
C1018 C1021 1.260 . S
C1018 C1022 1.477 . S
C1018 H1036 0.932 . S
C1019 C1020 1.384 . S
C1019 C1021 1.479 . S
C1019 H1037 0.929 . S
C1020 C1017 1.424 . S
C1020 C1019 1.384 . S
C1020 H1038 0.928 . S
C1021 C1018 1.260 . S
C1021 C1019 1.479 . S
C1022 C1017 1.245 . S
C1022 C1018 1.477 . S
C1022 H1039 0.932 . S
C1023 U1006 2.882 . S
C1023 C1017 1.428 . S
C1023 O1026 1.301 . S
C1023 O1027 1.282 . S
O1024 U1006 2.441 1_565 S
O1024 C1010 1.249 . S
O1025 U1006 2.420 1_565 S
O1025 C1010 1.202 . S
O1026 U1006 2.455 . S
O1026 C1023 1.301 . S
O1027 U1006 2.449 . S
O1027 C1023 1.282 . S
H1028 C1001 0.931 . S
H1029 C1003 0.929 . S
H1030 C1004 0.930 . S
H1031 C1005 0.931 . S
H1032 C1012 0.932 . S
H1033 C1013 0.930 . S
H1034 C1014 0.929 . S
H1035 C1016 0.930 . S
H1036 C1018 0.932 . S
H1037 C1019 0.929 . S
H1038 C1020 0.928 . S
H1039 C1022 0.932 . S
C1040 C1041 1.264 . S
C1040 C1045 1.479 . S
C1040 C1050 1.465 . S
C1041 C1040 1.264 . S
C1041 C1043 1.339 . S
C1041 H1068 0.931 . S
C1042 C1043 1.395 . S
C1042 C1044 1.320 . S
C1043 C1041 1.339 . S
C1043 C1042 1.395 . S
C1043 H1069 0.929 . S
C1044 C1042 1.320 . S
C1044 C1045 1.405 . S
C1044 H1070 0.930 . S
C1045 C1040 1.479 . S
C1045 C1044 1.405 . S
C1045 H1071 0.931 . S
U1046 O1047 2.454 . S
U1046 O1048 2.458 . S
U1046 C1049 2.984 . S
U1046 C1050 2.847 1_545 S
U1046 C1063 2.882 . S
U1046 O1064 2.441 1_545 S
U1046 O1065 2.420 1_545 S
U1046 O1066 2.455 . S
U1046 O1067 2.449 . S
O1047 U1046 2.454 . S
O1047 C1049 1.353 . S
O1048 U1046 2.458 . S
O1048 C1049 1.286 . S
C1049 U1046 2.984 . S
C1049 O1047 1.353 . S
C1049 O1048 1.286 . S
C1049 C1051 1.363 . S
C1050 C1040 1.465 . S
C1050 U1046 2.847 1_565 S
C1050 O1064 1.249 . S
C1050 O1065 1.202 . S
C1051 C1049 1.363 . S
C1051 C1053 1.408 . S
C1051 C1056 1.342 . S
C1052 C1053 1.310 . S
C1052 C1055 1.461 . S
C1052 H1072 0.932 . S
C1053 C1051 1.408 . S
C1053 C1052 1.310 . S
C1053 H1073 0.930 . S
C1054 C1055 1.474 . S
C1054 C1056 1.285 . S
C1054 H1074 0.929 . S
C1055 C1052 1.461 . S
C1055 C1054 1.474 . S
C1056 C1051 1.342 . S
C1056 C1054 1.285 . S
C1056 H1075 0.930 . S
C1057 C1060 1.424 . S
C1057 C1062 1.245 . S
C1057 C1063 1.428 . S
C1058 C1061 1.260 . S
C1058 C1062 1.477 . S
C1058 H1076 0.932 . S
C1059 C1060 1.384 . S
C1059 C1061 1.479 . S
C1059 H1077 0.929 . S
C1060 C1057 1.424 . S
C1060 C1059 1.384 . S
C1060 H1078 0.928 . S
C1061 C1058 1.260 . S
C1061 C1059 1.479 . S
C1062 C1057 1.245 . S
C1062 C1058 1.477 . S
C1062 H1079 0.932 . S
C1063 U1046 2.882 . S
C1063 C1057 1.428 . S
C1063 O1066 1.301 . S
C1063 O1067 1.282 . S
O1064 U1046 2.441 1_565 S
O1064 C1050 1.249 . S
O1065 U1046 2.420 1_565 S
O1065 C1050 1.202 . S
O1066 U1046 2.455 . S
O1066 C1063 1.301 . S
O1067 U1046 2.449 . S
O1067 C1063 1.282 . S
H1068 C1041 0.931 . S
H1069 C1043 0.929 . S
H1070 C1044 0.930 . S
H1071 C1045 0.931 . S
H1072 C1052 0.932 . S
H1073 C1053 0.930 . S
H1074 C1054 0.929 . S
H1075 C1056 0.930 . S
H1076 C1058 0.932 . S
H1077 C1059 0.929 . S
H1078 C1060 0.928 . S
H1079 C1062 0.932 . S
C1080 C1081 1.264 . S
C1080 C1085 1.479 . S
C1080 C1090 1.465 . S
C1081 C1080 1.264 . S
C1081 C1083 1.339 . S
C1081 H1108 0.931 . S
C1082 C1083 1.395 . S
C1082 C1084 1.320 . S
C1083 C1081 1.339 . S
C1083 C1082 1.395 . S
C1083 H1109 0.929 . S
C1084 C1082 1.320 . S
C1084 C1085 1.405 . S
C1084 H1110 0.930 . S
C1085 C1080 1.479 . S
C1085 C1084 1.405 . S
C1085 H1111 0.931 . S
U1086 O1087 2.454 1_556 S
U1086 O1088 2.458 1_556 S
U1086 C1089 2.984 1_556 S
U1086 C1090 2.847 . S
U1086 C1103 2.882 . S
U1086 O1104 2.441 . S
U1086 O1105 2.420 . S
U1086 O1106 2.455 . S
U1086 O1107 2.449 . S
O1087 U1086 2.454 1_554 S
O1087 C1089 1.353 . S
O1088 U1086 2.458 1_554 S
O1088 C1089 1.286 . S
C1089 U1086 2.984 1_554 S
C1089 O1087 1.353 . S
C1089 O1088 1.286 . S
C1089 C1091 1.363 . S
C1090 C1080 1.465 . S
C1090 U1086 2.847 . S
C1090 O1104 1.249 . S
C1090 O1105 1.202 . S
C1091 C1089 1.363 . S
C1091 C1093 1.408 . S
C1091 C1096 1.342 . S
C1092 C1093 1.310 . S
C1092 C1095 1.461 . S
C1092 H1112 0.932 . S
C1093 C1091 1.408 . S
C1093 C1092 1.310 . S
C1093 H1113 0.930 . S
C1094 C1095 1.474 . S
C1094 C1096 1.285 . S
C1094 H1114 0.929 . S
C1095 C1092 1.461 . S
C1095 C1094 1.474 . S
C1096 C1091 1.342 . S
C1096 C1094 1.285 . S
C1096 H1115 0.930 . S
C1097 C1100 1.424 . S
C1097 C1102 1.245 . S
C1097 C1103 1.428 . S
C1098 C1101 1.260 . S
C1098 C1102 1.477 . S
C1098 H1116 0.932 . S
C1099 C1100 1.384 . S
C1099 C1101 1.479 . S
C1099 H1117 0.929 . S
C1100 C1097 1.424 . S
C1100 C1099 1.384 . S
C1100 H1118 0.928 . S
C1101 C1098 1.260 . S
C1101 C1099 1.479 . S
C1102 C1097 1.245 . S
C1102 C1098 1.477 . S
C1102 H1119 0.932 . S
C1103 U1086 2.882 . S
C1103 C1097 1.428 . S
C1103 O1106 1.301 . S
C1103 O1107 1.282 . S
O1104 U1086 2.441 . S
O1104 C1090 1.249 . S
O1105 U1086 2.420 . S
O1105 C1090 1.202 . S
O1106 U1086 2.455 . S
O1106 C1103 1.301 . S
O1107 U1086 2.449 . S
O1107 C1103 1.282 . S
H1108 C1081 0.931 . S
H1109 C1083 0.929 . S
H1110 C1084 0.930 . S
H1111 C1085 0.931 . S
H1112 C1092 0.932 . S
H1113 C1093 0.930 . S
H1114 C1094 0.929 . S
H1115 C1096 0.930 . S
H1116 C1098 0.932 . S
H1117 C1099 0.929 . S
H1118 C1100 0.928 . S
H1119 C1102 0.932 . S
C1120 C1121 1.264 . S
C1120 C1125 1.479 . S
C1120 C1130 1.465 . S
C1121 C1120 1.264 . S
C1121 C1123 1.339 . S
C1121 H1148 0.931 . S
C1122 C1123 1.395 . S
C1122 C1124 1.320 . S
C1123 C1121 1.339 . S
C1123 C1122 1.395 . S
C1123 H1149 0.929 . S
C1124 C1122 1.320 . S
C1124 C1125 1.405 . S
C1124 H1150 0.930 . S
C1125 C1120 1.479 . S
C1125 C1124 1.405 . S
C1125 H1151 0.931 . S
U1126 O1127 2.454 . S
U1126 O1128 2.458 . S
U1126 C1129 2.984 . S
U1126 C1130 2.847 1_455 S
U1126 C1143 2.882 . S
U1126 O1144 2.441 1_455 S
U1126 O1145 2.420 1_455 S
U1126 O1146 2.455 . S
U1126 O1147 2.449 . S
O1127 U1126 2.454 . S
O1127 C1129 1.353 . S
O1128 U1126 2.458 . S
O1128 C1129 1.286 . S
C1129 U1126 2.984 . S
C1129 O1127 1.353 . S
C1129 O1128 1.286 . S
C1129 C1131 1.363 . S
C1130 C1120 1.465 . S
C1130 U1126 2.847 1_655 S
C1130 O1144 1.249 . S
C1130 O1145 1.202 . S
C1131 C1129 1.363 . S
C1131 C1133 1.408 . S
C1131 C1136 1.342 . S
C1132 C1133 1.310 . S
C1132 C1135 1.461 . S
C1132 H1152 0.932 . S
C1133 C1131 1.408 . S
C1133 C1132 1.310 . S
C1133 H1153 0.930 . S
C1134 C1135 1.474 . S
C1134 C1136 1.285 . S
C1134 H1154 0.929 . S
C1135 C1132 1.461 . S
C1135 C1134 1.474 . S
C1136 C1131 1.342 . S
C1136 C1134 1.285 . S
C1136 H1155 0.930 . S
C1137 C1140 1.424 . S
C1137 C1142 1.245 . S
C1137 C1143 1.428 . S
C1138 C1141 1.260 . S
C1138 C1142 1.477 . S
C1138 H1156 0.932 . S
C1139 C1140 1.384 . S
C1139 C1141 1.479 . S
C1139 H1157 0.929 . S
C1140 C1137 1.424 . S
C1140 C1139 1.384 . S
C1140 H1158 0.928 . S
C1141 C1138 1.260 . S
C1141 C1139 1.479 . S
C1142 C1137 1.245 . S
C1142 C1138 1.477 . S
C1142 H1159 0.932 . S
C1143 U1126 2.882 . S
C1143 C1137 1.428 . S
C1143 O1146 1.301 . S
C1143 O1147 1.282 . S
O1144 U1126 2.441 1_655 S
O1144 C1130 1.249 . S
O1145 U1126 2.420 1_655 S
O1145 C1130 1.202 . S
O1146 U1126 2.455 . S
O1146 C1143 1.301 . S
O1147 U1126 2.449 . S
O1147 C1143 1.282 . S
H1148 C1121 0.931 . S
H1149 C1123 0.929 . S
H1150 C1124 0.930 . S
H1151 C1125 0.931 . S
H1152 C1132 0.932 . S
H1153 C1133 0.930 . S
H1154 C1134 0.929 . S
H1155 C1136 0.930 . S
H1156 C1138 0.932 . S
H1157 C1139 0.929 . S
H1158 C1140 0.928 . S
H1159 C1142 0.932 . S
C1160 C1161 1.264 . S
C1160 C1165 1.479 . S
C1160 C1170 1.465 . S
C1161 C1160 1.264 . S
C1161 C1163 1.339 . S
C1161 H1188 0.931 . S
C1162 C1163 1.395 . S
C1162 C1164 1.320 . S
C1163 C1161 1.339 . S
C1163 C1162 1.395 . S
C1163 H1189 0.929 . S
C1164 C1162 1.320 . S
C1164 C1165 1.405 . S
C1164 H1190 0.930 . S
C1165 C1160 1.479 . S
C1165 C1164 1.405 . S
C1165 H1191 0.931 . S
U1166 O1167 2.454 . S
U1166 O1168 2.458 . S
U1166 C1169 2.984 . S
U1166 C1170 2.847 . S
U1166 C1183 2.882 . S
U1166 O1184 2.441 . S
U1166 O1185 2.420 . S
U1166 O1186 2.455 . S
U1166 O1187 2.449 . S
O1167 U1166 2.454 . S
O1167 C1169 1.353 . S
O1168 U1166 2.458 . S
O1168 C1169 1.286 . S
C1169 U1166 2.984 . S
C1169 O1167 1.353 . S
C1169 O1168 1.286 . S
C1169 C1171 1.363 . S
C1170 C1160 1.465 . S
C1170 U1166 2.847 . S
C1170 O1184 1.249 . S
C1170 O1185 1.202 . S
C1171 C1169 1.363 . S
C1171 C1173 1.408 . S
C1171 C1176 1.342 . S
C1172 C1173 1.310 . S
C1172 C1175 1.461 . S
C1172 H1192 0.932 . S
C1173 C1171 1.408 . S
C1173 C1172 1.310 . S
C1173 H1193 0.930 . S
C1174 C1175 1.474 . S
C1174 C1176 1.285 . S
C1174 H1194 0.929 . S
C1175 C1172 1.461 . S
C1175 C1174 1.474 . S
C1176 C1171 1.342 . S
C1176 C1174 1.285 . S
C1176 H1195 0.930 . S
C1177 C1180 1.424 . S
C1177 C1182 1.245 . S
C1177 C1183 1.428 . S
C1178 C1181 1.260 . S
C1178 C1182 1.477 . S
C1178 H1196 0.932 . S
C1179 C1180 1.384 . S
C1179 C1181 1.479 . S
C1179 H1197 0.929 . S
C1180 C1177 1.424 . S
C1180 C1179 1.384 . S
C1180 H1198 0.928 . S
C1181 C1178 1.260 . S
C1181 C1179 1.479 . S
C1182 C1177 1.245 . S
C1182 C1178 1.477 . S
C1182 H1199 0.932 . S
C1183 U1166 2.882 . S
C1183 C1177 1.428 . S
C1183 O1186 1.301 . S
C1183 O1187 1.282 . S
O1184 U1166 2.441 . S
O1184 C1170 1.249 . S
O1185 U1166 2.420 . S
O1185 C1170 1.202 . S
O1186 U1166 2.455 . S
O1186 C1183 1.301 . S
O1187 U1166 2.449 . S
O1187 C1183 1.282 . S
H1188 C1161 0.931 . S
H1189 C1163 0.929 . S
H1190 C1164 0.930 . S
H1191 C1165 0.931 . S
H1192 C1172 0.932 . S
H1193 C1173 0.930 . S
H1194 C1174 0.929 . S
H1195 C1176 0.930 . S
H1196 C1178 0.932 . S
H1197 C1179 0.929 . S
H1198 C1180 0.928 . S
H1199 C1182 0.932 . S
C1200 C1201 1.264 . S
C1200 C1205 1.479 . S
C1200 C1210 1.465 . S
C1201 C1200 1.264 . S
C1201 C1203 1.339 . S
C1201 H1228 0.931 . S
C1202 C1203 1.395 . S
C1202 C1204 1.320 . S
C1203 C1201 1.339 . S
C1203 C1202 1.395 . S
C1203 H1229 0.929 . S
C1204 C1202 1.320 . S
C1204 C1205 1.405 . S
C1204 H1230 0.930 . S
C1205 C1200 1.479 . S
C1205 C1204 1.405 . S
C1205 H1231 0.931 . S
U1206 O1207 2.454 . S
U1206 O1208 2.458 . S
U1206 C1209 2.984 . S
U1206 C1210 2.847 . S
U1206 C1223 2.882 . S
U1206 O1224 2.441 . S
U1206 O1225 2.420 . S
U1206 O1226 2.455 . S
U1206 O1227 2.449 . S
O1207 U1206 2.454 . S
O1207 C1209 1.353 . S
O1208 U1206 2.458 . S
O1208 C1209 1.286 . S
C1209 U1206 2.984 . S
C1209 O1207 1.353 . S
C1209 O1208 1.286 . S
C1209 C1211 1.363 . S
C1210 C1200 1.465 . S
C1210 U1206 2.847 . S
C1210 O1224 1.249 . S
C1210 O1225 1.202 . S
C1211 C1209 1.363 . S
C1211 C1213 1.408 . S
C1211 C1216 1.342 . S
C1212 C1213 1.310 . S
C1212 C1215 1.461 . S
C1212 H1232 0.932 . S
C1213 C1211 1.408 . S
C1213 C1212 1.310 . S
C1213 H1233 0.930 . S
C1214 C1215 1.474 . S
C1214 C1216 1.285 . S
C1214 H1234 0.929 . S
C1215 C1212 1.461 . S
C1215 C1214 1.474 . S
C1216 C1211 1.342 . S
C1216 C1214 1.285 . S
C1216 H1235 0.930 . S
C1217 C1220 1.424 . S
C1217 C1222 1.245 . S
C1217 C1223 1.428 . S
C1218 C1221 1.260 . S
C1218 C1222 1.477 . S
C1218 H1236 0.932 . S
C1219 C1220 1.384 . S
C1219 C1221 1.479 . S
C1219 H1237 0.929 . S
C1220 C1217 1.424 . S
C1220 C1219 1.384 . S
C1220 H1238 0.928 . S
C1221 C1218 1.260 . S
C1221 C1219 1.479 . S
C1222 C1217 1.245 . S
C1222 C1218 1.477 . S
C1222 H1239 0.932 . S
C1223 U1206 2.882 . S
C1223 C1217 1.428 . S
C1223 O1226 1.301 . S
C1223 O1227 1.282 . S
O1224 U1206 2.441 . S
O1224 C1210 1.249 . S
O1225 U1206 2.420 . S
O1225 C1210 1.202 . S
O1226 U1206 2.455 . S
O1226 C1223 1.301 . S
O1227 U1206 2.449 . S
O1227 C1223 1.282 . S
H1228 C1201 0.931 . S
H1229 C1203 0.929 . S
H1230 C1204 0.930 . S
H1231 C1205 0.931 . S
H1232 C1212 0.932 . S
H1233 C1213 0.930 . S
H1234 C1214 0.929 . S
H1235 C1216 0.930 . S
H1236 C1218 0.932 . S
H1237 C1219 0.929 . S
H1238 C1220 0.928 . S
H1239 C1222 0.932 . S
C1240 C1241 1.264 . S
C1240 C1245 1.479 . S
C1240 C1250 1.465 . S
C1241 C1240 1.264 . S
C1241 C1243 1.339 . S
C1241 H1268 0.931 . S
C1242 C1243 1.395 . S
C1242 C1244 1.320 . S
C1243 C1241 1.339 . S
C1243 C1242 1.395 . S
C1243 H1269 0.929 . S
C1244 C1242 1.320 . S
C1244 C1245 1.405 . S
C1244 H1270 0.930 . S
C1245 C1240 1.479 . S
C1245 C1244 1.405 . S
C1245 H1271 0.931 . S
U1246 O1247 2.454 . S
U1246 O1248 2.458 . S
U1246 C1249 2.984 . S
U1246 C1250 2.847 . S
U1246 C1263 2.882 . S
U1246 O1264 2.441 . S
U1246 O1265 2.420 . S
U1246 O1266 2.455 . S
U1246 O1267 2.449 . S
O1247 U1246 2.454 . S
O1247 C1249 1.353 . S
O1248 U1246 2.458 . S
O1248 C1249 1.286 . S
C1249 U1246 2.984 . S
C1249 O1247 1.353 . S
C1249 O1248 1.286 . S
C1249 C1251 1.363 . S
C1250 C1240 1.465 . S
C1250 U1246 2.847 . S
C1250 O1264 1.249 . S
C1250 O1265 1.202 . S
C1251 C1249 1.363 . S
C1251 C1253 1.408 1_655 S
C1251 C1256 1.352 . S
C1252 C1253 1.310 . S
C1252 C1255 1.461 . S
C1252 H1272 0.932 . S
C1253 C1251 1.408 1_455 S
C1253 C1252 1.310 . S
C1253 H1273 0.930 . S
C1254 C1255 1.474 . S
C1254 C1256 1.180 1_455 S
C1254 H1274 0.929 . S
C1255 C1252 1.461 . S
C1255 C1254 1.474 . S
C1256 C1251 1.352 . S
C1256 C1254 1.180 1_655 S
C1256 H1275 1.035 . S
C1257 C1260 1.424 . S
C1257 C1262 1.245 . S
C1257 C1263 1.428 . S
C1258 C1261 1.260 . S
C1258 C1262 1.477 . S
C1258 H1276 0.932 . S
C1259 C1260 1.384 . S
C1259 C1261 1.479 . S
C1259 H1277 0.929 . S
C1260 C1257 1.424 . S
C1260 C1259 1.384 . S
C1260 H1278 0.928 . S
C1261 C1258 1.260 . S
C1261 C1259 1.479 . S
C1262 C1257 1.245 . S
C1262 C1258 1.477 . S
C1262 H1279 0.932 . S
C1263 U1246 2.882 . S
C1263 C1257 1.428 . S
C1263 O1266 1.301 . S
C1263 O1267 1.282 . S
O1264 U1246 2.441 . S
O1264 C1250 1.249 . S
O1265 U1246 2.420 . S
O1265 C1250 1.202 . S
O1266 U1246 2.455 . S
O1266 C1263 1.301 . S
O1267 U1246 2.449 . S
O1267 C1263 1.282 . S
H1268 C1241 0.931 . S
H1269 C1243 0.929 . S
H1270 C1244 0.930 . S
H1271 C1245 0.931 . S
H1272 C1252 0.932 . S
H1273 C1253 0.930 . S
H1274 C1254 0.929 . S
H1275 C1256 1.035 . S
H1276 C1258 0.932 . S
H1277 C1259 0.929 . S
H1278 C1260 0.928 . S
H1279 C1262 0.932 . S
C1280 C1281 1.264 . S
C1280 C1285 1.479 . S
C1280 C1290 1.465 . S
C1281 C1280 1.264 . S
C1281 C1283 1.339 . S
C1281 H1308 0.931 . S
C1282 C1283 1.395 . S
C1282 C1284 1.320 . S
C1283 C1281 1.339 . S
C1283 C1282 1.395 . S
C1283 H1309 0.929 . S
C1284 C1282 1.320 . S
C1284 C1285 1.405 . S
C1284 H1310 0.930 . S
C1285 C1280 1.479 . S
C1285 C1284 1.405 . S
C1285 H1311 0.931 . S
U1286 O1287 2.454 . S
U1286 O1288 2.458 . S
U1286 C1289 2.984 . S
U1286 C1290 2.847 . S
U1286 C1303 2.882 . S
U1286 O1304 2.441 . S
U1286 O1305 2.420 . S
U1286 O1306 2.455 . S
U1286 O1307 2.449 . S
O1287 U1286 2.454 . S
O1287 C1289 1.353 . S
O1288 U1286 2.458 . S
O1288 C1289 1.286 . S
C1289 U1286 2.984 . S
C1289 O1287 1.353 . S
C1289 O1288 1.286 . S
C1289 C1291 1.363 . S
C1290 C1280 1.465 . S
C1290 U1286 2.847 . S
C1290 O1304 1.249 . S
C1290 O1305 1.202 . S
C1291 C1289 1.363 . S
C1291 C1293 1.408 . S
C1291 C1296 1.342 . S
C1292 C1293 1.310 . S
C1292 C1295 1.461 . S
C1292 H1312 0.932 . S
C1293 C1291 1.408 . S
C1293 C1292 1.310 . S
C1293 H1313 0.930 . S
C1294 C1295 1.474 . S
C1294 C1296 1.285 . S
C1294 H1314 0.929 . S
C1295 C1292 1.461 . S
C1295 C1294 1.474 . S
C1296 C1291 1.342 . S
C1296 C1294 1.285 . S
C1296 H1315 0.930 . S
C1297 C1300 1.424 . S
C1297 C1302 1.245 . S
C1297 C1303 1.428 . S
C1298 C1301 1.260 . S
C1298 C1302 1.477 . S
C1298 H1316 0.932 . S
C1299 C1300 1.384 . S
C1299 C1301 1.479 . S
C1299 H1317 0.929 . S
C1300 C1297 1.424 . S
C1300 C1299 1.384 . S
C1300 H1318 0.928 . S
C1301 C1298 1.260 . S
C1301 C1299 1.479 . S
C1302 C1297 1.245 . S
C1302 C1298 1.477 . S
C1302 H1319 0.932 . S
C1303 U1286 2.882 . S
C1303 C1297 1.428 . S
C1303 O1306 1.301 . S
C1303 O1307 1.282 . S
O1304 U1286 2.441 . S
O1304 C1290 1.249 . S
O1305 U1286 2.420 . S
O1305 C1290 1.202 . S
O1306 U1286 2.455 . S
O1306 C1303 1.301 . S
O1307 U1286 2.449 . S
O1307 C1303 1.282 . S
H1308 C1281 0.931 . S
H1309 C1283 0.929 . S
H1310 C1284 0.930 . S
H1311 C1285 0.931 . S
H1312 C1292 0.932 . S
H1313 C1293 0.930 . S
H1314 C1294 0.929 . S
H1315 C1296 0.930 . S
H1316 C1298 0.932 . S
H1317 C1299 0.929 . S
H1318 C1300 0.928 . S
H1319 C1302 0.932 . S
C1320 C1321 1.264 . S
C1320 C1325 1.479 . S
C1320 C1330 1.465 . S
C1321 C1320 1.264 . S
C1321 C1323 1.339 . S
C1321 H1348 0.931 . S
C1322 C1323 1.395 . S
C1322 C1324 1.320 . S
C1323 C1321 1.339 . S
C1323 C1322 1.395 . S
C1323 H1349 0.929 . S
C1324 C1322 1.320 . S
C1324 C1325 1.405 . S
C1324 H1350 0.930 . S
C1325 C1320 1.479 . S
C1325 C1324 1.405 . S
C1325 H1351 0.931 . S
U1326 O1327 2.454 . S
U1326 O1328 2.458 . S
U1326 C1329 2.984 . S
U1326 C1330 2.847 . S
U1326 C1343 2.882 . S
U1326 O1344 2.441 . S
U1326 O1345 2.420 . S
U1326 O1346 2.455 . S
U1326 O1347 2.449 . S
O1327 U1326 2.454 . S
O1327 C1329 1.353 . S
O1328 U1326 2.458 . S
O1328 C1329 1.286 . S
C1329 U1326 2.984 . S
C1329 O1327 1.353 . S
C1329 O1328 1.286 . S
C1329 C1331 1.363 . S
C1330 C1320 1.465 . S
C1330 U1326 2.847 . S
C1330 O1344 1.249 . S
C1330 O1345 1.202 . S
C1331 C1329 1.363 . S
C1331 C1333 1.408 1_556 S
C1331 C1336 1.342 . S
C1332 C1333 1.310 . S
C1332 C1335 1.461 . S
C1332 H1352 0.932 . S
C1333 C1331 1.408 1_554 S
C1333 C1332 1.310 . S
C1333 H1353 0.930 . S
C1334 C1335 1.474 . S
C1334 C1336 1.285 1_554 S
C1334 H1354 0.929 . S
C1335 C1332 1.461 . S
C1335 C1334 1.474 . S
C1336 C1331 1.342 . S
C1336 C1334 1.285 1_556 S
C1336 H1355 0.930 . S
C1337 C1340 1.424 . S
C1337 C1342 1.245 . S
C1337 C1343 1.428 . S
C1338 C1341 1.260 . S
C1338 C1342 1.477 . S
C1338 H1356 0.932 . S
C1339 C1340 1.384 . S
C1339 C1341 1.479 . S
C1339 H1357 0.929 . S
C1340 C1337 1.424 . S
C1340 C1339 1.384 . S
C1340 H1358 0.928 . S
C1341 C1338 1.260 . S
C1341 C1339 1.479 . S
C1342 C1337 1.245 . S
C1342 C1338 1.477 . S
C1342 H1359 0.932 . S
C1343 U1326 2.882 . S
C1343 C1337 1.428 . S
C1343 O1346 1.301 . S
C1343 O1347 1.282 . S
O1344 U1326 2.441 . S
O1344 C1330 1.249 . S
O1345 U1326 2.420 . S
O1345 C1330 1.202 . S
O1346 U1326 2.455 . S
O1346 C1343 1.301 . S
O1347 U1326 2.449 . S
O1347 C1343 1.282 . S
H1348 C1321 0.931 . S
H1349 C1323 0.929 . S
H1350 C1324 0.930 . S
H1351 C1325 0.931 . S
H1352 C1332 0.932 . S
H1353 C1333 0.930 . S
H1354 C1334 0.929 . S
H1355 C1336 0.930 . S
H1356 C1338 0.932 . S
H1357 C1339 0.929 . S
H1358 C1340 0.928 . S
H1359 C1342 0.932 . S
C1360 C1361 1.264 . S
C1360 C1365 1.479 . S
C1360 C1370 1.465 . S
C1361 C1360 1.264 . S
C1361 C1363 1.339 . S
C1361 H1388 0.931 . S
C1362 C1363 1.395 . S
C1362 C1364 1.320 . S
C1363 C1361 1.339 . S
C1363 C1362 1.395 . S
C1363 H1389 0.929 . S
C1364 C1362 1.320 . S
C1364 C1365 1.405 . S
C1364 H1390 0.930 . S
C1365 C1360 1.479 . S
C1365 C1364 1.405 . S
C1365 H1391 0.931 . S
U1366 O1367 2.454 . S
U1366 O1368 2.458 . S
U1366 C1369 2.984 . S
U1366 C1370 2.847 . S
U1366 C1383 2.882 . S
U1366 O1384 2.441 . S
U1366 O1385 2.420 . S
U1366 O1386 2.455 . S
U1366 O1387 2.449 . S
O1367 U1366 2.454 . S
O1367 C1369 1.353 . S
O1368 U1366 2.458 . S
O1368 C1369 1.286 . S
C1369 U1366 2.984 . S
C1369 O1367 1.353 . S
C1369 O1368 1.286 . S
C1369 C1371 1.363 . S
C1370 C1360 1.465 . S
C1370 U1366 2.847 . S
C1370 O1384 1.249 . S
C1370 O1385 1.202 . S
C1371 C1369 1.363 . S
C1371 C1373 1.408 . S
C1371 C1376 1.342 . S
C1372 C1373 1.310 . S
C1372 C1375 1.461 . S
C1372 H1392 0.932 . S
C1373 C1371 1.408 . S
C1373 C1372 1.310 . S
C1373 H1393 0.930 . S
C1374 C1375 1.474 . S
C1374 C1376 1.285 . S
C1374 H1394 0.929 . S
C1375 C1372 1.461 . S
C1375 C1374 1.474 . S
C1376 C1371 1.342 . S
C1376 C1374 1.285 . S
C1376 H1395 0.930 . S
C1377 C1380 1.424 . S
C1377 C1382 1.245 . S
C1377 C1383 1.428 . S
C1378 C1381 1.260 . S
C1378 C1382 1.477 . S
C1378 H1396 0.932 . S
C1379 C1380 1.384 . S
C1379 C1381 1.479 . S
C1379 H1397 0.929 . S
C1380 C1377 1.424 . S
C1380 C1379 1.384 . S
C1380 H1398 0.928 . S
C1381 C1378 1.260 . S
C1381 C1379 1.479 . S
C1382 C1377 1.245 . S
C1382 C1378 1.477 . S
C1382 H1399 0.932 . S
C1383 U1366 2.882 . S
C1383 C1377 1.428 . S
C1383 O1386 1.301 . S
C1383 O1387 1.282 . S
O1384 U1366 2.441 . S
O1384 C1370 1.249 . S
O1385 U1366 2.420 . S
O1385 C1370 1.202 . S
O1386 U1366 2.455 . S
O1386 C1383 1.301 . S
O1387 U1366 2.449 . S
O1387 C1383 1.282 . S
H1388 C1361 0.931 . S
H1389 C1363 0.929 . S
H1390 C1364 0.930 . S
H1391 C1365 0.931 . S
H1392 C1372 0.932 . S
H1393 C1373 0.930 . S
H1394 C1374 0.929 . S
H1395 C1376 0.930 . S
H1396 C1378 0.932 . S
H1397 C1379 0.929 . S
H1398 C1380 0.928 . S
H1399 C1382 0.932 . S
C1400 C1401 1.264 . S
C1400 C1405 1.479 . S
C1400 C1410 1.465 . S
C1401 C1400 1.264 . S
C1401 C1403 1.339 . S
C1401 H1428 0.931 . S
C1402 C1403 1.395 . S
C1402 C1404 1.320 . S
C1403 C1401 1.339 . S
C1403 C1402 1.395 . S
C1403 H1429 0.929 . S
C1404 C1402 1.320 . S
C1404 C1405 1.405 . S
C1404 H1430 0.930 . S
C1405 C1400 1.479 . S
C1405 C1404 1.405 . S
C1405 H1431 0.931 . S
U1406 O1407 2.454 . S
U1406 O1408 2.458 . S
U1406 C1409 2.984 . S
U1406 C1410 2.847 . S
U1406 C1423 2.882 . S
U1406 O1424 2.441 . S
U1406 O1425 2.420 . S
U1406 O1426 2.455 . S
U1406 O1427 2.449 . S
O1407 U1406 2.454 . S
O1407 C1409 1.353 . S
O1408 U1406 2.458 . S
O1408 C1409 1.286 . S
C1409 U1406 2.984 . S
C1409 O1407 1.353 . S
C1409 O1408 1.286 . S
C1409 C1411 1.363 . S
C1410 C1400 1.465 . S
C1410 U1406 2.847 . S
C1410 O1424 1.249 . S
C1410 O1425 1.202 . S
C1411 C1409 1.363 . S
C1411 C1413 1.408 . S
C1411 C1416 1.342 . S
C1412 C1413 1.310 . S
C1412 C1415 1.461 . S
C1412 H1432 0.932 . S
C1413 C1411 1.408 . S
C1413 C1412 1.310 . S
C1413 H1433 0.930 . S
C1414 C1415 1.474 . S
C1414 C1416 1.285 . S
C1414 H1434 0.929 . S
C1415 C1412 1.461 . S
C1415 C1414 1.474 . S
C1416 C1411 1.342 . S
C1416 C1414 1.285 . S
C1416 H1435 0.930 . S
C1417 C1420 1.424 . S
C1417 C1422 1.245 . S
C1417 C1423 1.428 . S
C1418 C1421 1.260 . S
C1418 C1422 1.477 . S
C1418 H1436 0.932 . S
C1419 C1420 1.384 . S
C1419 C1421 1.479 . S
C1419 H1437 0.929 . S
C1420 C1417 1.424 . S
C1420 C1419 1.384 . S
C1420 H1438 0.928 . S
C1421 C1418 1.260 . S
C1421 C1419 1.479 . S
C1422 C1417 1.245 . S
C1422 C1418 1.477 . S
C1422 H1439 0.932 . S
C1423 U1406 2.882 . S
C1423 C1417 1.428 . S
C1423 O1426 1.301 . S
C1423 O1427 1.282 . S
O1424 U1406 2.441 . S
O1424 C1410 1.249 . S
O1425 U1406 2.420 . S
O1425 C1410 1.202 . S
O1426 U1406 2.455 . S
O1426 C1423 1.301 . S
O1427 U1406 2.449 . S
O1427 C1423 1.282 . S
H1428 C1401 0.931 . S
H1429 C1403 0.929 . S
H1430 C1404 0.930 . S
H1431 C1405 0.931 . S
H1432 C1412 0.932 . S
H1433 C1413 0.930 . S
H1434 C1414 0.929 . S
H1435 C1416 0.930 . S
H1436 C1418 0.932 . S
H1437 C1419 0.929 . S
H1438 C1420 0.928 . S
H1439 C1422 0.932 . S
C1440 C1441 1.264 . S
C1440 C1445 1.479 . S
C1440 C1450 1.465 . S
C1441 C1440 1.264 . S
C1441 C1443 1.339 . S
C1441 H1468 0.931 . S
C1442 C1443 1.395 . S
C1442 C1444 1.320 . S
C1443 C1441 1.339 . S
C1443 C1442 1.395 . S
C1443 H1469 0.929 . S
C1444 C1442 1.320 . S
C1444 C1445 1.405 . S
C1444 H1470 0.930 . S
C1445 C1440 1.479 . S
C1445 C1444 1.405 . S
C1445 H1471 0.931 . S
U1446 O1447 2.454 . S
U1446 O1448 2.458 . S
U1446 C1449 2.984 . S
U1446 C1450 2.847 . S
U1446 C1463 2.882 . S
U1446 O1464 2.441 . S
U1446 O1465 2.420 . S
U1446 O1466 2.455 . S
U1446 O1467 2.449 . S
O1447 U1446 2.454 . S
O1447 C1449 1.353 . S
O1448 U1446 2.458 . S
O1448 C1449 1.286 . S
C1449 U1446 2.984 . S
C1449 O1447 1.353 . S
C1449 O1448 1.286 . S
C1449 C1451 1.363 . S
C1450 C1440 1.465 . S
C1450 U1446 2.847 . S
C1450 O1464 1.249 . S
C1450 O1465 1.202 . S
C1451 C1449 1.363 . S
C1451 C1453 1.408 . S
C1451 C1456 1.342 . S
C1452 C1453 1.310 . S
C1452 C1455 1.461 . S
C1452 H1472 0.932 . S
C1453 C1451 1.408 . S
C1453 C1452 1.310 . S
C1453 H1473 0.930 . S
C1454 C1455 1.474 . S
C1454 C1456 1.285 . S
C1454 H1474 0.929 . S
C1455 C1452 1.461 . S
C1455 C1454 1.474 . S
C1456 C1451 1.342 . S
C1456 C1454 1.285 . S
C1456 H1475 0.930 . S
C1457 C1460 1.424 . S
C1457 C1462 1.245 . S
C1457 C1463 1.428 . S
C1458 C1461 1.260 . S
C1458 C1462 1.477 . S
C1458 H1476 0.932 . S
C1459 C1460 1.384 . S
C1459 C1461 1.479 . S
C1459 H1477 0.929 . S
C1460 C1457 1.424 . S
C1460 C1459 1.384 . S
C1460 H1478 0.928 . S
C1461 C1458 1.260 . S
C1461 C1459 1.479 . S
C1462 C1457 1.245 . S
C1462 C1458 1.477 . S
C1462 H1479 0.932 . S
C1463 U1446 2.882 . S
C1463 C1457 1.428 . S
C1463 O1466 1.301 . S
C1463 O1467 1.282 . S
O1464 U1446 2.441 . S
O1464 C1450 1.249 . S
O1465 U1446 2.420 . S
O1465 C1450 1.202 . S
O1466 U1446 2.455 . S
O1466 C1463 1.301 . S
O1467 U1446 2.449 . S
O1467 C1463 1.282 . S
H1468 C1441 0.931 . S
H1469 C1443 0.929 . S
H1470 C1444 0.930 . S
H1471 C1445 0.931 . S
H1472 C1452 0.932 . S
H1473 C1453 0.930 . S
H1474 C1454 0.929 . S
H1475 C1456 0.930 . S
H1476 C1458 0.932 . S
H1477 C1459 0.929 . S
H1478 C1460 0.928 . S
H1479 C1462 0.932 . S
C1480 C1481 1.264 . S
C1480 C1485 1.479 . S
C1480 C1490 1.465 . S
C1481 C1480 1.264 . S
C1481 C1483 1.339 . S
C1481 H1508 0.931 . S
C1482 C1483 1.395 . S
C1482 C1484 1.320 . S
C1483 C1481 1.339 . S
C1483 C1482 1.395 . S
C1483 H1509 0.929 . S
C1484 C1482 1.320 . S
C1484 C1485 1.405 . S
C1484 H1510 0.930 . S
C1485 C1480 1.479 . S
C1485 C1484 1.405 . S
C1485 H1511 0.931 . S
U1486 O1487 2.454 . S
U1486 O1488 2.458 . S
U1486 C1489 2.984 . S
U1486 C1490 2.847 . S
U1486 C1503 2.882 . S
U1486 O1504 2.441 . S
U1486 O1505 2.420 . S
U1486 O1506 2.455 . S
U1486 O1507 2.449 . S
O1487 U1486 2.454 . S
O1487 C1489 1.353 . S
O1488 U1486 2.458 . S
O1488 C1489 1.286 . S
C1489 U1486 2.984 . S
C1489 O1487 1.353 . S
C1489 O1488 1.286 . S
C1489 C1491 1.363 . S
C1490 C1480 1.465 . S
C1490 U1486 2.847 . S
C1490 O1504 1.249 . S
C1490 O1505 1.202 . S
C1491 C1489 1.363 . S
C1491 C1493 1.408 . S
C1491 C1496 1.342 . S
C1492 C1493 1.310 . S
C1492 C1495 1.461 . S
C1492 H1512 0.932 . S
C1493 C1491 1.408 . S
C1493 C1492 1.310 . S
C1493 H1513 0.930 . S
C1494 C1495 1.474 . S
C1494 C1496 1.285 . S
C1494 H1514 0.929 . S
C1495 C1492 1.461 . S
C1495 C1494 1.474 . S
C1496 C1491 1.342 . S
C1496 C1494 1.285 . S
C1496 H1515 0.930 . S
C1497 C1500 1.424 . S
C1497 C1502 1.245 . S
C1497 C1503 1.428 . S
C1498 C1501 1.260 . S
C1498 C1502 1.477 . S
C1498 H1516 0.932 . S
C1499 C1500 1.384 . S
C1499 C1501 1.479 . S
C1499 H1517 0.929 . S
C1500 C1497 1.424 . S
C1500 C1499 1.384 . S
C1500 H1518 0.928 . S
C1501 C1498 1.260 . S
C1501 C1499 1.479 . S
C1502 C1497 1.245 . S
C1502 C1498 1.477 . S
C1502 H1519 0.932 . S
C1503 U1486 2.882 . S
C1503 C1497 1.428 . S
C1503 O1506 1.301 . S
C1503 O1507 1.282 . S
O1504 U1486 2.441 . S
O1504 C1490 1.249 . S
O1505 U1486 2.420 . S
O1505 C1490 1.202 . S
O1506 U1486 2.455 . S
O1506 C1503 1.301 . S
O1507 U1486 2.449 . S
O1507 C1503 1.282 . S
H1508 C1481 0.931 . S
H1509 C1483 0.929 . S
H1510 C1484 0.930 . S
H1511 C1485 0.931 . S
H1512 C1492 0.932 . S
H1513 C1493 0.930 . S
H1514 C1494 0.929 . S
H1515 C1496 0.930 . S
H1516 C1498 0.932 . S
H1517 C1499 0.929 . S
H1518 C1500 0.928 . S
H1519 C1502 0.932 . S
C1520 C1521 1.264 . S
C1520 C1525 1.479 . S
C1520 C1530 1.465 . S
C1521 C1520 1.264 . S
C1521 C1523 1.339 . S
C1521 H1548 0.931 . S
C1522 C1523 1.395 . S
C1522 C1524 1.320 . S
C1523 C1521 1.339 . S
C1523 C1522 1.395 . S
C1523 H1549 0.929 . S
C1524 C1522 1.320 . S
C1524 C1525 1.405 . S
C1524 H1550 0.930 . S
C1525 C1520 1.479 . S
C1525 C1524 1.405 . S
C1525 H1551 0.931 . S
U1526 O1527 2.454 . S
U1526 O1528 2.458 . S
U1526 C1529 2.984 . S
U1526 C1530 2.847 . S
U1526 C1543 2.882 . S
U1526 O1544 2.441 . S
U1526 O1545 2.420 . S
U1526 O1546 2.455 . S
U1526 O1547 2.449 . S
O1527 U1526 2.454 . S
O1527 C1529 1.353 . S
O1528 U1526 2.458 . S
O1528 C1529 1.286 . S
C1529 U1526 2.984 . S
C1529 O1527 1.353 . S
C1529 O1528 1.286 . S
C1529 C1531 1.363 . S
C1530 C1520 1.465 . S
C1530 U1526 2.847 . S
C1530 O1544 1.249 . S
C1530 O1545 1.202 . S
C1531 C1529 1.363 . S
C1531 C1533 1.408 . S
C1531 C1536 1.342 . S
C1532 C1533 1.310 . S
C1532 C1535 1.461 . S
C1532 H1552 0.932 . S
C1533 C1531 1.408 . S
C1533 C1532 1.310 . S
C1533 H1553 0.930 . S
C1534 C1535 1.474 . S
C1534 C1536 1.285 . S
C1534 H1554 0.929 . S
C1535 C1532 1.461 . S
C1535 C1534 1.474 . S
C1536 C1531 1.342 . S
C1536 C1534 1.285 . S
C1536 H1555 0.930 . S
C1537 C1540 1.424 . S
C1537 C1542 1.245 . S
C1537 C1543 1.428 . S
C1538 C1541 1.260 . S
C1538 C1542 1.477 . S
C1538 H1556 0.932 . S
C1539 C1540 1.384 . S
C1539 C1541 1.479 . S
C1539 H1557 0.929 . S
C1540 C1537 1.424 . S
C1540 C1539 1.384 . S
C1540 H1558 0.928 . S
C1541 C1538 1.260 . S
C1541 C1539 1.479 . S
C1542 C1537 1.245 . S
C1542 C1538 1.477 . S
C1542 H1559 0.932 . S
C1543 U1526 2.882 . S
C1543 C1537 1.428 . S
C1543 O1546 1.301 . S
C1543 O1547 1.282 . S
O1544 U1526 2.441 . S
O1544 C1530 1.249 . S
O1545 U1526 2.420 . S
O1545 C1530 1.202 . S
O1546 U1526 2.455 . S
O1546 C1543 1.301 . S
O1547 U1526 2.449 . S
O1547 C1543 1.282 . S
H1548 C1521 0.931 . S
H1549 C1523 0.929 . S
H1550 C1524 0.930 . S
H1551 C1525 0.931 . S
H1552 C1532 0.932 . S
H1553 C1533 0.930 . S
H1554 C1534 0.929 . S
H1555 C1536 0.930 . S
H1556 C1538 0.932 . S
H1557 C1539 0.929 . S
H1558 C1540 0.928 . S
H1559 C1542 0.932 . S
C1560 C1561 1.264 . S
C1560 C1565 1.479 . S
C1560 C1570 1.465 . S
C1561 C1560 1.264 . S
C1561 C1563 1.339 . S
C1561 H1588 0.931 . S
C1562 C1563 1.395 . S
C1562 C1564 1.320 . S
C1563 C1561 1.339 . S
C1563 C1562 1.395 . S
C1563 H1589 0.929 . S
C1564 C1562 1.320 . S
C1564 C1565 1.405 . S
C1564 H1590 0.930 . S
C1565 C1560 1.479 . S
C1565 C1564 1.405 . S
C1565 H1591 0.931 . S
U1566 O1567 2.454 . S
U1566 O1568 2.458 . S
U1566 C1569 2.984 . S
U1566 C1570 2.847 . S
U1566 C1583 2.882 . S
U1566 O1584 2.441 . S
U1566 O1585 2.420 . S
U1566 O1586 2.455 . S
U1566 O1587 2.449 . S
O1567 U1566 2.454 . S
O1567 C1569 1.353 . S
O1568 U1566 2.458 . S
O1568 C1569 1.286 . S
C1569 U1566 2.984 . S
C1569 O1567 1.353 . S
C1569 O1568 1.286 . S
C1569 C1571 1.363 . S
C1570 C1560 1.465 . S
C1570 U1566 2.847 . S
C1570 O1584 1.249 . S
C1570 O1585 1.202 . S
C1571 C1569 1.363 . S
C1571 C1573 1.408 . S
C1571 C1576 1.342 . S
C1572 C1573 1.310 . S
C1572 C1575 1.461 . S
C1572 H1592 0.932 . S
C1573 C1571 1.408 . S
C1573 C1572 1.310 . S
C1573 H1593 0.930 . S
C1574 C1575 1.474 . S
C1574 C1576 1.285 . S
C1574 H1594 0.929 . S
C1575 C1572 1.461 . S
C1575 C1574 1.474 . S
C1576 C1571 1.342 . S
C1576 C1574 1.285 . S
C1576 H1595 0.930 . S
C1577 C1580 1.424 . S
C1577 C1582 1.245 . S
C1577 C1583 1.428 . S
C1578 C1581 1.260 . S
C1578 C1582 1.477 . S
C1578 H1596 0.932 . S
C1579 C1580 1.384 . S
C1579 C1581 1.479 . S
C1579 H1597 0.929 . S
C1580 C1577 1.424 . S
C1580 C1579 1.384 . S
C1580 H1598 0.928 . S
C1581 C1578 1.260 . S
C1581 C1579 1.479 . S
C1582 C1577 1.245 . S
C1582 C1578 1.477 . S
C1582 H1599 0.932 . S
C1583 U1566 2.882 . S
C1583 C1577 1.428 . S
C1583 O1586 1.301 . S
C1583 O1587 1.282 . S
O1584 U1566 2.441 . S
O1584 C1570 1.249 . S
O1585 U1566 2.420 . S
O1585 C1570 1.202 . S
O1586 U1566 2.455 . S
O1586 C1583 1.301 . S
O1587 U1566 2.449 . S
O1587 C1583 1.282 . S
H1588 C1561 0.931 . S
H1589 C1563 0.929 . S
H1590 C1564 0.930 . S
H1591 C1565 0.931 . S
H1592 C1572 0.932 . S
H1593 C1573 0.930 . S
H1594 C1574 0.929 . S
H1595 C1576 0.930 . S
H1596 C1578 0.932 . S
H1597 C1579 0.929 . S
H1598 C1580 0.928 . S
H1599 C1582 0.932 . S
C1600 C1601 1.264 . S
C1600 C1605 1.479 . S
C1600 C1610 1.465 . S
C1601 C1600 1.264 . S
C1601 C1603 1.339 . S
C1601 H1628 0.931 . S
C1602 C1603 1.395 . S
C1602 C1604 1.320 . S
C1603 C1601 1.339 . S
C1603 C1602 1.395 . S
C1603 H1629 0.929 . S
C1604 C1602 1.320 . S
C1604 C1605 1.405 . S
C1604 H1630 0.930 . S
C1605 C1600 1.479 . S
C1605 C1604 1.405 . S
C1605 H1631 0.931 . S
U1606 O1607 2.454 . S
U1606 O1608 2.458 . S
U1606 C1609 2.984 . S
U1606 C1610 2.847 1_455 S
U1606 C1623 2.882 . S
U1606 O1624 2.441 1_455 S
U1606 O1625 2.420 1_455 S
U1606 O1626 2.455 . S
U1606 O1627 2.449 . S
O1607 U1606 2.454 . S
O1607 C1609 1.353 . S
O1608 U1606 2.458 . S
O1608 C1609 1.286 . S
C1609 U1606 2.984 . S
C1609 O1607 1.353 . S
C1609 O1608 1.286 . S
C1609 C1611 1.363 . S
C1610 C1600 1.465 . S
C1610 U1606 2.847 1_655 S
C1610 O1624 1.249 . S
C1610 O1625 1.202 . S
C1611 C1609 1.363 . S
C1611 C1613 1.408 . S
C1611 C1616 1.342 . S
C1612 C1613 1.310 . S
C1612 C1615 1.461 . S
C1612 H1632 0.932 . S
C1613 C1611 1.408 . S
C1613 C1612 1.310 . S
C1613 H1633 0.930 . S
C1614 C1615 1.474 . S
C1614 C1616 1.285 . S
C1614 H1634 0.929 . S
C1615 C1612 1.461 . S
C1615 C1614 1.474 . S
C1616 C1611 1.342 . S
C1616 C1614 1.285 . S
C1616 H1635 0.930 . S
C1617 C1620 1.424 . S
C1617 C1622 1.245 . S
C1617 C1623 1.428 . S
C1618 C1621 1.260 . S
C1618 C1622 1.477 . S
C1618 H1636 0.932 . S
C1619 C1620 1.384 . S
C1619 C1621 1.479 . S
C1619 H1637 0.929 . S
C1620 C1617 1.424 . S
C1620 C1619 1.384 . S
C1620 H1638 0.928 . S
C1621 C1618 1.260 . S
C1621 C1619 1.479 . S
C1622 C1617 1.245 . S
C1622 C1618 1.477 . S
C1622 H1639 0.932 . S
C1623 U1606 2.882 . S
C1623 C1617 1.428 . S
C1623 O1626 1.301 . S
C1623 O1627 1.282 . S
O1624 U1606 2.441 1_655 S
O1624 C1610 1.249 . S
O1625 U1606 2.420 1_655 S
O1625 C1610 1.202 . S
O1626 U1606 2.455 . S
O1626 C1623 1.301 . S
O1627 U1606 2.449 . S
O1627 C1623 1.282 . S
H1628 C1601 0.931 . S
H1629 C1603 0.929 . S
H1630 C1604 0.930 . S
H1631 C1605 0.931 . S
H1632 C1612 0.932 . S
H1633 C1613 0.930 . S
H1634 C1614 0.929 . S
H1635 C1616 0.930 . S
H1636 C1618 0.932 . S
H1637 C1619 0.929 . S
H1638 C1620 0.928 . S
H1639 C1622 0.932 . S
C1640 C1641 1.264 . S
C1640 C1645 1.479 . S
C1640 C1650 1.465 . S
C1641 C1640 1.264 . S
C1641 C1643 1.339 . S
C1641 H1668 0.931 . S
C1642 C1643 1.395 . S
C1642 C1644 1.320 . S
C1643 C1641 1.339 . S
C1643 C1642 1.395 . S
C1643 H1669 0.929 . S
C1644 C1642 1.320 . S
C1644 C1645 1.405 . S
C1644 H1670 0.930 . S
C1645 C1640 1.479 . S
C1645 C1644 1.405 . S
C1645 H1671 0.931 . S
U1646 O1647 2.454 . S
U1646 O1648 2.458 . S
U1646 C1649 2.984 . S
U1646 C1650 2.847 . S
U1646 C1663 2.882 . S
U1646 O1664 2.441 . S
U1646 O1665 2.420 . S
U1646 O1666 2.455 . S
U1646 O1667 2.449 . S
O1647 U1646 2.454 . S
O1647 C1649 1.353 . S
O1648 U1646 2.458 . S
O1648 C1649 1.286 . S
C1649 U1646 2.984 . S
C1649 O1647 1.353 . S
C1649 O1648 1.286 . S
C1649 C1651 1.363 . S
C1650 C1640 1.465 . S
C1650 U1646 2.847 . S
C1650 O1664 1.249 . S
C1650 O1665 1.202 . S
C1651 C1649 1.363 . S
C1651 C1653 1.408 . S
C1651 C1656 1.342 . S
C1652 C1653 1.310 . S
C1652 C1655 1.461 . S
C1652 H1672 0.932 . S
C1653 C1651 1.408 . S
C1653 C1652 1.310 . S
C1653 H1673 0.930 . S
C1654 C1655 1.474 . S
C1654 C1656 1.285 . S
C1654 H1674 0.929 . S
C1655 C1652 1.461 . S
C1655 C1654 1.474 . S
C1656 C1651 1.342 . S
C1656 C1654 1.285 . S
C1656 H1675 0.930 . S
C1657 C1660 1.424 . S
C1657 C1662 1.245 . S
C1657 C1663 1.428 . S
C1658 C1661 1.260 . S
C1658 C1662 1.477 . S
C1658 H1676 0.932 . S
C1659 C1660 1.384 . S
C1659 C1661 1.479 . S
C1659 H1677 0.929 . S
C1660 C1657 1.424 . S
C1660 C1659 1.384 . S
C1660 H1678 0.928 . S
C1661 C1658 1.260 . S
C1661 C1659 1.479 . S
C1662 C1657 1.245 . S
C1662 C1658 1.477 . S
C1662 H1679 0.932 . S
C1663 U1646 2.882 . S
C1663 C1657 1.428 . S
C1663 O1666 1.301 . S
C1663 O1667 1.282 . S
O1664 U1646 2.441 . S
O1664 C1650 1.249 . S
O1665 U1646 2.420 . S
O1665 C1650 1.202 . S
O1666 U1646 2.455 . S
O1666 C1663 1.301 . S
O1667 U1646 2.449 . S
O1667 C1663 1.282 . S
H1668 C1641 0.931 . S
H1669 C1643 0.929 . S
H1670 C1644 0.930 . S
H1671 C1645 0.931 . S
H1672 C1652 0.932 . S
H1673 C1653 0.930 . S
H1674 C1654 0.929 . S
H1675 C1656 0.930 . S
H1676 C1658 0.932 . S
H1677 C1659 0.929 . S
H1678 C1660 0.928 . S
H1679 C1662 0.932 . S
C1680 C1681 1.264 . S
C1680 C1685 1.479 . S
C1680 C1690 1.465 . S
C1681 C1680 1.264 . S
C1681 C1683 1.339 . S
C1681 H1708 0.931 . S
C1682 C1683 1.395 . S
C1682 C1684 1.320 . S
C1683 C1681 1.339 . S
C1683 C1682 1.395 . S
C1683 H1709 0.929 . S
C1684 C1682 1.320 . S
C1684 C1685 1.405 . S
C1684 H1710 0.930 . S
C1685 C1680 1.479 . S
C1685 C1684 1.405 . S
C1685 H1711 0.931 . S
U1686 O1687 2.454 1_554 S
U1686 O1688 2.458 1_554 S
U1686 C1689 2.984 1_554 S
U1686 C1690 2.847 . S
U1686 C1703 2.882 . S
U1686 O1704 2.441 . S
U1686 O1705 2.420 . S
U1686 O1706 2.455 . S
U1686 O1707 2.449 . S
O1687 U1686 2.454 1_556 S
O1687 C1689 1.353 . S
O1688 U1686 2.458 1_556 S
O1688 C1689 1.286 . S
C1689 U1686 2.984 1_556 S
C1689 O1687 1.353 . S
C1689 O1688 1.286 . S
C1689 C1691 1.363 . S
C1690 C1680 1.465 . S
C1690 U1686 2.847 . S
C1690 O1704 1.249 . S
C1690 O1705 1.202 . S
C1691 C1689 1.363 . S
C1691 C1693 1.408 . S
C1691 C1696 1.342 . S
C1692 C1693 1.310 . S
C1692 C1695 1.461 . S
C1692 H1712 0.932 . S
C1693 C1691 1.408 . S
C1693 C1692 1.310 . S
C1693 H1713 0.930 . S
C1694 C1695 1.474 . S
C1694 C1696 1.285 . S
C1694 H1714 0.929 . S
C1695 C1692 1.461 . S
C1695 C1694 1.474 . S
C1696 C1691 1.342 . S
C1696 C1694 1.285 . S
C1696 H1715 0.930 . S
C1697 C1700 1.424 . S
C1697 C1702 1.245 . S
C1697 C1703 1.428 . S
C1698 C1701 1.260 . S
C1698 C1702 1.477 . S
C1698 H1716 0.932 . S
C1699 C1700 1.384 . S
C1699 C1701 1.479 . S
C1699 H1717 0.929 . S
C1700 C1697 1.424 . S
C1700 C1699 1.384 . S
C1700 H1718 0.928 . S
C1701 C1698 1.260 . S
C1701 C1699 1.479 . S
C1702 C1697 1.245 . S
C1702 C1698 1.477 . S
C1702 H1719 0.932 . S
C1703 U1686 2.882 . S
C1703 C1697 1.428 . S
C1703 O1706 1.301 . S
C1703 O1707 1.282 . S
O1704 U1686 2.441 . S
O1704 C1690 1.249 . S
O1705 U1686 2.420 . S
O1705 C1690 1.202 . S
O1706 U1686 2.455 . S
O1706 C1703 1.301 . S
O1707 U1686 2.449 . S
O1707 C1703 1.282 . S
H1708 C1681 0.931 . S
H1709 C1683 0.929 . S
H1710 C1684 0.930 . S
H1711 C1685 0.931 . S
H1712 C1692 0.932 . S
H1713 C1693 0.930 . S
H1714 C1694 0.929 . S
H1715 C1696 0.930 . S
H1716 C1698 0.932 . S
H1717 C1699 0.929 . S
H1718 C1700 0.928 . S
H1719 C1702 0.932 . S
C1720 C1721 1.264 . S
C1720 C1725 1.479 . S
C1720 C1730 1.465 . S
C1721 C1720 1.264 . S
C1721 C1723 1.339 . S
C1721 H1748 0.931 . S
C1722 C1723 1.395 . S
C1722 C1724 1.320 . S
C1723 C1721 1.339 . S
C1723 C1722 1.395 . S
C1723 H1749 0.929 . S
C1724 C1722 1.320 . S
C1724 C1725 1.405 . S
C1724 H1750 0.930 . S
C1725 C1720 1.479 . S
C1725 C1724 1.405 . S
C1725 H1751 0.931 . S
U1726 O1727 2.454 . S
U1726 O1728 2.458 . S
U1726 C1729 2.984 . S
U1726 C1730 2.847 . S
U1726 C1743 2.882 . S
U1726 O1744 2.441 . S
U1726 O1745 2.420 . S
U1726 O1746 2.455 . S
U1726 O1747 2.449 . S
O1727 U1726 2.454 . S
O1727 C1729 1.353 . S
O1728 U1726 2.458 . S
O1728 C1729 1.286 . S
C1729 U1726 2.984 . S
C1729 O1727 1.353 . S
C1729 O1728 1.286 . S
C1729 C1731 1.363 . S
C1730 C1720 1.465 . S
C1730 U1726 2.847 . S
C1730 O1744 1.249 . S
C1730 O1745 1.202 . S
C1731 C1729 1.363 . S
C1731 C1733 1.408 . S
C1731 C1736 1.342 . S
C1732 C1733 1.310 . S
C1732 C1735 1.461 . S
C1732 H1752 0.932 . S
C1733 C1731 1.408 . S
C1733 C1732 1.310 . S
C1733 H1753 0.930 . S
C1734 C1735 1.474 . S
C1734 C1736 1.285 . S
C1734 H1754 0.929 . S
C1735 C1732 1.461 . S
C1735 C1734 1.474 . S
C1736 C1731 1.342 . S
C1736 C1734 1.285 . S
C1736 H1755 0.930 . S
C1737 C1740 1.424 . S
C1737 C1742 1.245 . S
C1737 C1743 1.428 . S
C1738 C1741 1.260 . S
C1738 C1742 1.477 . S
C1738 H1756 0.932 . S
C1739 C1740 1.384 . S
C1739 C1741 1.479 . S
C1739 H1757 0.929 . S
C1740 C1737 1.424 . S
C1740 C1739 1.384 . S
C1740 H1758 0.928 . S
C1741 C1738 1.260 . S
C1741 C1739 1.479 . S
C1742 C1737 1.245 . S
C1742 C1738 1.477 . S
C1742 H1759 0.932 . S
C1743 U1726 2.882 . S
C1743 C1737 1.428 . S
C1743 O1746 1.301 . S
C1743 O1747 1.282 . S
O1744 U1726 2.441 . S
O1744 C1730 1.249 . S
O1745 U1726 2.420 . S
O1745 C1730 1.202 . S
O1746 U1726 2.455 . S
O1746 C1743 1.301 . S
O1747 U1726 2.449 . S
O1747 C1743 1.282 . S
H1748 C1721 0.931 . S
H1749 C1723 0.929 . S
H1750 C1724 0.930 . S
H1751 C1725 0.931 . S
H1752 C1732 0.932 . S
H1753 C1733 0.930 . S
H1754 C1734 0.929 . S
H1755 C1736 0.930 . S
H1756 C1738 0.932 . S
H1757 C1739 0.929 . S
H1758 C1740 0.928 . S
H1759 C1742 0.932 . S
C1760 C1761 1.264 . S
C1760 C1765 1.479 . S
C1760 C1770 1.465 . S
C1761 C1760 1.264 . S
C1761 C1763 1.339 . S
C1761 H1788 0.931 . S
C1762 C1763 1.395 . S
C1762 C1764 1.320 . S
C1763 C1761 1.339 . S
C1763 C1762 1.395 . S
C1763 H1789 0.929 . S
C1764 C1762 1.320 . S
C1764 C1765 1.405 . S
C1764 H1790 0.930 . S
C1765 C1760 1.479 . S
C1765 C1764 1.405 . S
C1765 H1791 0.931 . S
U1766 O1767 2.454 . S
U1766 O1768 2.458 . S
U1766 C1769 2.984 . S
U1766 C1770 2.847 . S
U1766 C1783 2.882 . S
U1766 O1784 2.441 . S
U1766 O1785 2.420 . S
U1766 O1786 2.455 . S
U1766 O1787 2.449 . S
O1767 U1766 2.454 . S
O1767 C1769 1.353 . S
O1768 U1766 2.458 . S
O1768 C1769 1.286 . S
C1769 U1766 2.984 . S
C1769 O1767 1.353 . S
C1769 O1768 1.286 . S
C1769 C1771 1.363 . S
C1770 C1760 1.465 . S
C1770 U1766 2.847 . S
C1770 O1784 1.249 . S
C1770 O1785 1.202 . S
C1771 C1769 1.363 . S
C1771 C1773 1.408 . S
C1771 C1776 1.342 . S
C1772 C1773 1.310 . S
C1772 C1775 1.461 . S
C1772 H1792 0.932 . S
C1773 C1771 1.408 . S
C1773 C1772 1.310 . S
C1773 H1793 0.930 . S
C1774 C1775 1.474 . S
C1774 C1776 1.285 . S
C1774 H1794 0.929 . S
C1775 C1772 1.461 . S
C1775 C1774 1.474 . S
C1776 C1771 1.342 . S
C1776 C1774 1.285 . S
C1776 H1795 0.930 . S
C1777 C1780 1.424 . S
C1777 C1782 1.245 . S
C1777 C1783 1.428 . S
C1778 C1781 1.260 . S
C1778 C1782 1.477 . S
C1778 H1796 0.932 . S
C1779 C1780 1.384 . S
C1779 C1781 1.479 . S
C1779 H1797 0.929 . S
C1780 C1777 1.424 . S
C1780 C1779 1.384 . S
C1780 H1798 0.928 . S
C1781 C1778 1.260 . S
C1781 C1779 1.479 . S
C1782 C1777 1.245 . S
C1782 C1778 1.477 . S
C1782 H1799 0.932 . S
C1783 U1766 2.882 . S
C1783 C1777 1.428 . S
C1783 O1786 1.301 . S
C1783 O1787 1.282 . S
O1784 U1766 2.441 . S
O1784 C1770 1.249 . S
O1785 U1766 2.420 . S
O1785 C1770 1.202 . S
O1786 U1766 2.455 . S
O1786 C1783 1.301 . S
O1787 U1766 2.449 . S
O1787 C1783 1.282 . S
H1788 C1761 0.931 . S
H1789 C1763 0.929 . S
H1790 C1764 0.930 . S
H1791 C1765 0.931 . S
H1792 C1772 0.932 . S
H1793 C1773 0.930 . S
H1794 C1774 0.929 . S
H1795 C1776 0.930 . S
H1796 C1778 0.932 . S
H1797 C1779 0.929 . S
H1798 C1780 0.928 . S
H1799 C1782 0.932 . S
C1800 C1801 1.264 . S
C1800 C1805 1.479 . S
C1800 C1810 1.465 . S
C1801 C1800 1.264 . S
C1801 C1803 1.339 . S
C1801 H1828 0.931 . S
C1802 C1803 1.395 . S
C1802 C1804 1.320 . S
C1803 C1801 1.339 . S
C1803 C1802 1.395 . S
C1803 H1829 0.929 . S
C1804 C1802 1.320 . S
C1804 C1805 1.405 . S
C1804 H1830 0.930 . S
C1805 C1800 1.479 . S
C1805 C1804 1.405 . S
C1805 H1831 0.931 . S
U1806 O1807 2.454 . S
U1806 O1808 2.458 . S
U1806 C1809 2.984 . S
U1806 C1810 2.847 . S
U1806 C1823 2.882 . S
U1806 O1824 2.441 . S
U1806 O1825 2.420 . S
U1806 O1826 2.455 . S
U1806 O1827 2.449 . S
O1807 U1806 2.454 . S
O1807 C1809 1.353 . S
O1808 U1806 2.458 . S
O1808 C1809 1.286 . S
C1809 U1806 2.984 . S
C1809 O1807 1.353 . S
C1809 O1808 1.286 . S
C1809 C1811 1.363 . S
C1810 C1800 1.465 . S
C1810 U1806 2.847 . S
C1810 O1824 1.249 . S
C1810 O1825 1.202 . S
C1811 C1809 1.363 . S
C1811 C1813 1.408 . S
C1811 C1816 1.342 . S
C1812 C1813 1.310 . S
C1812 C1815 1.461 . S
C1812 H1832 0.932 . S
C1813 C1811 1.408 . S
C1813 C1812 1.310 . S
C1813 H1833 0.930 . S
C1814 C1815 1.474 . S
C1814 C1816 1.285 . S
C1814 H1834 0.929 . S
C1815 C1812 1.461 . S
C1815 C1814 1.474 . S
C1816 C1811 1.342 . S
C1816 C1814 1.285 . S
C1816 H1835 0.930 . S
C1817 C1820 1.424 . S
C1817 C1822 1.245 . S
C1817 C1823 1.428 . S
C1818 C1821 1.260 . S
C1818 C1822 1.477 . S
C1818 H1836 0.932 . S
C1819 C1820 1.384 . S
C1819 C1821 1.479 . S
C1819 H1837 0.929 . S
C1820 C1817 1.424 . S
C1820 C1819 1.384 . S
C1820 H1838 0.928 . S
C1821 C1818 1.260 . S
C1821 C1819 1.479 . S
C1822 C1817 1.245 . S
C1822 C1818 1.477 . S
C1822 H1839 0.932 . S
C1823 U1806 2.882 . S
C1823 C1817 1.428 . S
C1823 O1826 1.301 . S
C1823 O1827 1.282 . S
O1824 U1806 2.441 . S
O1824 C1810 1.249 . S
O1825 U1806 2.420 . S
O1825 C1810 1.202 . S
O1826 U1806 2.455 . S
O1826 C1823 1.301 . S
O1827 U1806 2.449 . S
O1827 C1823 1.282 . S
H1828 C1801 0.931 . S
H1829 C1803 0.929 . S
H1830 C1804 0.930 . S
H1831 C1805 0.931 . S
H1832 C1812 0.932 . S
H1833 C1813 0.930 . S
H1834 C1814 0.929 . S
H1835 C1816 0.930 . S
H1836 C1818 0.932 . S
H1837 C1819 0.929 . S
H1838 C1820 0.928 . S
H1839 C1822 0.932 . S
C1840 C1841 1.264 . S
C1840 C1845 1.479 . S
C1840 C1850 1.465 . S
C1841 C1840 1.264 . S
C1841 C1843 1.339 . S
C1841 H1868 0.931 . S
C1842 C1843 1.395 . S
C1842 C1844 1.320 . S
C1843 C1841 1.339 . S
C1843 C1842 1.395 . S
C1843 H1869 0.929 . S
C1844 C1842 1.320 . S
C1844 C1845 1.405 . S
C1844 H1870 0.930 . S
C1845 C1840 1.479 . S
C1845 C1844 1.405 . S
C1845 H1871 0.931 . S
U1846 O1847 2.454 . S
U1846 O1848 2.458 . S
U1846 C1849 2.984 . S
U1846 C1850 2.847 . S
U1846 C1863 2.882 . S
U1846 O1864 2.441 . S
U1846 O1865 2.420 . S
U1846 O1866 2.455 . S
U1846 O1867 2.449 . S
O1847 U1846 2.454 . S
O1847 C1849 1.353 . S
O1848 U1846 2.458 . S
O1848 C1849 1.286 . S
C1849 U1846 2.984 . S
C1849 O1847 1.353 . S
C1849 O1848 1.286 . S
C1849 C1851 1.363 . S
C1850 C1840 1.465 . S
C1850 U1846 2.847 . S
C1850 O1864 1.249 . S
C1850 O1865 1.202 . S
C1851 C1849 1.363 . S
C1851 C1853 1.408 . S
C1851 C1856 1.342 . S
C1852 C1853 1.310 . S
C1852 C1855 1.461 . S
C1852 H1872 0.932 . S
C1853 C1851 1.408 . S
C1853 C1852 1.310 . S
C1853 H1873 0.930 . S
C1854 C1855 1.474 . S
C1854 C1856 1.285 . S
C1854 H1874 0.929 . S
C1855 C1852 1.461 . S
C1855 C1854 1.474 . S
C1856 C1851 1.342 . S
C1856 C1854 1.285 . S
C1856 H1875 0.930 . S
C1857 C1860 1.424 . S
C1857 C1862 1.245 . S
C1857 C1863 1.428 . S
C1858 C1861 1.260 . S
C1858 C1862 1.477 . S
C1858 H1876 0.932 . S
C1859 C1860 1.384 . S
C1859 C1861 1.479 . S
C1859 H1877 0.929 . S
C1860 C1857 1.424 . S
C1860 C1859 1.384 . S
C1860 H1878 0.928 . S
C1861 C1858 1.260 . S
C1861 C1859 1.479 . S
C1862 C1857 1.245 . S
C1862 C1858 1.477 . S
C1862 H1879 0.932 . S
C1863 U1846 2.882 . S
C1863 C1857 1.428 . S
C1863 O1866 1.301 . S
C1863 O1867 1.282 . S
O1864 U1846 2.441 . S
O1864 C1850 1.249 . S
O1865 U1846 2.420 . S
O1865 C1850 1.202 . S
O1866 U1846 2.455 . S
O1866 C1863 1.301 . S
O1867 U1846 2.449 . S
O1867 C1863 1.282 . S
H1868 C1841 0.931 . S
H1869 C1843 0.929 . S
H1870 C1844 0.930 . S
H1871 C1845 0.931 . S
H1872 C1852 0.932 . S
H1873 C1853 0.930 . S
H1874 C1854 0.929 . S
H1875 C1856 0.930 . S
H1876 C1858 0.932 . S
H1877 C1859 0.929 . S
H1878 C1860 0.928 . S
H1879 C1862 0.932 . S
C1880 C1881 1.264 . S
C1880 C1885 1.479 . S
C1880 C1890 1.465 . S
C1881 C1880 1.264 . S
C1881 C1883 1.339 . S
C1881 H1908 0.931 . S
C1882 C1883 1.395 . S
C1882 C1884 1.320 . S
C1883 C1881 1.339 . S
C1883 C1882 1.395 . S
C1883 H1909 0.929 . S
C1884 C1882 1.320 . S
C1884 C1885 1.405 . S
C1884 H1910 0.930 . S
C1885 C1880 1.479 . S
C1885 C1884 1.405 . S
C1885 H1911 0.931 . S
U1886 O1887 2.454 . S
U1886 O1888 2.458 . S
U1886 C1889 2.984 . S
U1886 C1890 2.847 . S
U1886 C1903 2.882 . S
U1886 O1904 2.441 . S
U1886 O1905 2.420 . S
U1886 O1906 2.455 . S
U1886 O1907 2.449 . S
O1887 U1886 2.454 . S
O1887 C1889 1.353 . S
O1888 U1886 2.458 . S
O1888 C1889 1.286 . S
C1889 U1886 2.984 . S
C1889 O1887 1.353 . S
C1889 O1888 1.286 . S
C1889 C1891 1.363 . S
C1890 C1880 1.465 . S
C1890 U1886 2.847 . S
C1890 O1904 1.249 . S
C1890 O1905 1.202 . S
C1891 C1889 1.363 . S
C1891 C1893 1.408 . S
C1891 C1896 1.342 . S
C1892 C1893 1.310 . S
C1892 C1895 1.461 . S
C1892 H1912 0.932 . S
C1893 C1891 1.408 . S
C1893 C1892 1.310 . S
C1893 H1913 0.930 . S
C1894 C1895 1.474 . S
C1894 C1896 1.285 . S
C1894 H1914 0.929 . S
C1895 C1892 1.461 . S
C1895 C1894 1.474 . S
C1896 C1891 1.342 . S
C1896 C1894 1.285 . S
C1896 H1915 0.930 . S
C1897 C1900 1.424 . S
C1897 C1902 1.245 . S
C1897 C1903 1.428 . S
C1898 C1901 1.260 . S
C1898 C1902 1.477 . S
C1898 H1916 0.932 . S
C1899 C1900 1.384 . S
C1899 C1901 1.479 . S
C1899 H1917 0.929 . S
C1900 C1897 1.424 . S
C1900 C1899 1.384 . S
C1900 H1918 0.928 . S
C1901 C1898 1.260 . S
C1901 C1899 1.479 . S
C1902 C1897 1.245 . S
C1902 C1898 1.477 . S
C1902 H1919 0.932 . S
C1903 U1886 2.882 . S
C1903 C1897 1.428 . S
C1903 O1906 1.301 . S
C1903 O1907 1.282 . S
O1904 U1886 2.441 . S
O1904 C1890 1.249 . S
O1905 U1886 2.420 . S
O1905 C1890 1.202 . S
O1906 U1886 2.455 . S
O1906 C1903 1.301 . S
O1907 U1886 2.449 . S
O1907 C1903 1.282 . S
H1908 C1881 0.931 . S
H1909 C1883 0.929 . S
H1910 C1884 0.930 . S
H1911 C1885 0.931 . S
H1912 C1892 0.932 . S
H1913 C1893 0.930 . S
H1914 C1894 0.929 . S
H1915 C1896 0.930 . S
H1916 C1898 0.932 . S
H1917 C1899 0.929 . S
H1918 C1900 0.928 . S
H1919 C1902 0.932 . S
C1920 C1921 1.391 . S
C1920 C1924 1.391 . S
C1920 H1962 0.948 . S
C1921 C1920 1.391 . S
C1921 C1922 1.391 . S
C1922 C1921 1.391 . S
C1922 H1978 0.947 . S
C1922 C1979 1.392 . S
C1923 C1924 1.391 . S
C1923 C1927 1.397 . S
C1923 C1979 1.419 . S
C1924 C1920 1.391 . S
C1924 C1923 1.391 . S
C1924 C1925 1.399 . S
C1925 C1924 1.399 . S
C1925 C1928 1.396 . S
C1925 C1937 1.453 . S
C1925 C1938 1.684 . S
H1926 C1950 0.948 . S
C1927 C1923 1.397 . S
C1927 C1928 1.394 . S
C1927 C1946 1.723 . S
C1928 C1925 1.396 . S
C1928 C1927 1.394 . S
C1928 C1958 1.723 . S
H1929 C1952 0.947 . S
H1930 C1953 0.948 . S
H1931 C1959 0.982 . S
H1932 C1960 0.979 . S
H1933 C1960 0.980 . S
H1934 C1960 0.983 . S
H1935 C1959 0.979 . S
H1936 C1959 0.977 . S
C1937 C1925 1.453 . S
C1937 H1966 0.982 . S
C1937 H1967 0.979 . S
C1937 H1968 0.977 . S
C1938 C1925 1.684 . S
C1938 H1963 0.979 . S
C1938 H1964 0.980 . S
C1938 H1965 0.983 . S
C1939 C1940 1.391 . S
C1939 C1944 1.391 . S
C1939 H1969 0.948 . S
C1940 C1939 1.391 . S
C1940 C1941 1.391 . S
C1941 C1940 1.391 . S
C1941 C1942 1.392 . S
C1941 H1970 0.947 . S
C1942 C1941 1.392 . S
C1942 C1943 1.419 . S
C1942 H1971 0.948 . S
C1943 C1942 1.419 . S
C1943 C1944 1.391 . S
C1943 C1947 1.397 . S
C1944 C1939 1.391 . S
C1944 C1943 1.391 . S
C1944 C1945 1.399 . S
C1945 C1944 1.399 . S
C1945 C1946 1.396 . S
C1945 C1948 1.453 . S
C1945 C1949 1.684 . S
C1946 C1927 1.723 . S
C1946 C1945 1.396 . S
C1946 C1947 1.394 . S
C1947 C1943 1.397 . S
C1947 C1946 1.394 . S
C1947 C1957 1.723 . S
C1948 C1945 1.453 . S
C1948 H1972 0.982 . S
C1948 H1973 0.979 . S
C1948 H1974 0.977 . S
C1949 C1945 1.684 . S
C1949 H1975 0.979 . S
C1949 H1976 0.980 . S
C1949 H1977 0.983 . S
C1950 H1926 0.948 . S
C1950 C1951 1.391 . S
C1950 C1955 1.391 . S
C1951 C1950 1.391 . S
C1951 C1952 1.391 . S
C1952 H1929 0.947 . S
C1952 C1951 1.391 . S
C1952 C1953 1.392 . S
C1953 H1930 0.948 . S
C1953 C1952 1.392 . S
C1953 C1954 1.419 . S
C1954 C1953 1.419 . S
C1954 C1955 1.391 . S
C1954 C1958 1.397 . S
C1955 C1950 1.391 . S
C1955 C1954 1.391 . S
C1955 C1956 1.399 . S
C1956 C1955 1.399 . S
C1956 C1957 1.396 . S
C1956 C1959 1.453 . S
C1956 C1960 1.684 . S
C1957 C1947 1.723 . S
C1957 C1956 1.396 . S
C1957 C1958 1.394 . S
C1958 C1928 1.723 . S
C1958 C1954 1.397 . S
C1958 C1957 1.394 . S
C1959 H1931 0.982 . S
C1959 H1935 0.979 . S
C1959 H1936 0.977 . S
C1959 C1956 1.453 . S
C1960 H1932 0.979 . S
C1960 H1933 0.980 . S
C1960 H1934 0.983 . S
C1960 C1956 1.684 . S
H1961 C1979 0.948 . S
H1962 C1920 0.948 . S
H1963 C1938 0.979 . S
H1964 C1938 0.980 . S
H1965 C1938 0.983 . S
H1966 C1937 0.982 . S
H1967 C1937 0.979 . S
H1968 C1937 0.977 . S
H1969 C1939 0.948 . S
H1970 C1941 0.947 . S
H1971 C1942 0.948 . S
H1972 C1948 0.982 . S
H1973 C1948 0.979 . S
H1974 C1948 0.977 . S
H1975 C1949 0.979 . S
H1976 C1949 0.980 . S
H1977 C1949 0.983 . S
H1978 C1922 0.947 . S
C1979 C1922 1.392 . S
C1979 C1923 1.419 . S
C1979 H1961 0.948 . S
C1980 C1981 1.391 . S
C1980 C1984 1.391 . S
C1980 H2022 0.948 . S
C1981 C1980 1.391 . S
C1981 C1982 1.391 . S
C1982 C1981 1.391 . S
C1982 H2038 0.947 . S
C1982 C2039 1.392 . S
C1983 C1984 1.391 . S
C1983 C1987 1.397 . S
C1983 C2039 1.419 . S
C1984 C1980 1.391 . S
C1984 C1983 1.391 . S
C1984 C1985 1.399 . S
C1985 C1984 1.399 . S
C1985 C1988 1.396 . S
C1985 C1997 1.453 . S
C1985 C1998 1.684 . S
H1986 C2010 0.948 . S
C1987 C1983 1.397 . S
C1987 C1988 1.394 . S
C1987 C2006 1.723 . S
C1988 C1985 1.396 . S
C1988 C1987 1.394 . S
C1988 C2018 1.723 . S
H1989 C2012 0.947 . S
H1990 C2013 0.948 . S
H1991 C2019 0.982 . S
H1992 C2020 0.979 . S
H1993 C2020 0.980 . S
H1994 C2020 0.983 . S
H1995 C2019 0.979 . S
H1996 C2019 0.977 . S
C1997 C1985 1.453 . S
C1997 H2026 0.982 . S
C1997 H2027 0.979 . S
C1997 H2028 0.977 . S
C1998 C1985 1.684 . S
C1998 H2023 0.979 . S
C1998 H2024 0.980 . S
C1998 H2025 0.983 . S
C1999 C2000 1.391 . S
C1999 C2004 1.391 . S
C1999 H2029 0.948 . S
C2000 C1999 1.391 . S
C2000 C2001 1.391 . S
C2001 C2000 1.391 . S
C2001 C2002 1.392 . S
C2001 H2030 0.947 . S
C2002 C2001 1.392 . S
C2002 C2003 1.419 . S
C2002 H2031 0.948 . S
C2003 C2002 1.419 . S
C2003 C2004 1.391 . S
C2003 C2007 1.397 . S
C2004 C1999 1.391 . S
C2004 C2003 1.391 . S
C2004 C2005 1.399 . S
C2005 C2004 1.399 . S
C2005 C2006 1.396 . S
C2005 C2008 1.453 . S
C2005 C2009 1.684 . S
C2006 C1987 1.723 . S
C2006 C2005 1.396 . S
C2006 C2007 1.394 . S
C2007 C2003 1.397 . S
C2007 C2006 1.394 . S
C2007 C2017 1.723 . S
C2008 C2005 1.453 . S
C2008 H2032 0.982 . S
C2008 H2033 0.979 . S
C2008 H2034 0.977 . S
C2009 C2005 1.684 . S
C2009 H2035 0.979 . S
C2009 H2036 0.980 . S
C2009 H2037 0.983 . S
C2010 H1986 0.948 . S
C2010 C2011 1.391 . S
C2010 C2015 1.391 . S
C2011 C2010 1.391 . S
C2011 C2012 1.391 . S
C2012 H1989 0.947 . S
C2012 C2011 1.391 . S
C2012 C2013 1.392 . S
C2013 H1990 0.948 . S
C2013 C2012 1.392 . S
C2013 C2014 1.419 . S
C2014 C2013 1.419 . S
C2014 C2015 1.391 . S
C2014 C2018 1.397 . S
C2015 C2010 1.391 . S
C2015 C2014 1.391 . S
C2015 C2016 1.399 . S
C2016 C2015 1.399 . S
C2016 C2017 1.396 . S
C2016 C2019 1.453 . S
C2016 C2020 1.684 . S
C2017 C2007 1.723 . S
C2017 C2016 1.396 . S
C2017 C2018 1.394 . S
C2018 C1988 1.723 . S
C2018 C2014 1.397 . S
C2018 C2017 1.394 . S
C2019 H1991 0.982 . S
C2019 H1995 0.979 . S
C2019 H1996 0.977 . S
C2019 C2016 1.453 . S
C2020 H1992 0.979 . S
C2020 H1993 0.980 . S
C2020 H1994 0.983 . S
C2020 C2016 1.684 . S
H2021 C2039 0.948 . S
H2022 C1980 0.948 . S
H2023 C1998 0.979 . S
H2024 C1998 0.980 . S
H2025 C1998 0.983 . S
H2026 C1997 0.982 . S
H2027 C1997 0.979 . S
H2028 C1997 0.977 . S
H2029 C1999 0.948 . S
H2030 C2001 0.947 . S
H2031 C2002 0.948 . S
H2032 C2008 0.982 . S
H2033 C2008 0.979 . S
H2034 C2008 0.977 . S
H2035 C2009 0.979 . S
H2036 C2009 0.980 . S
H2037 C2009 0.983 . S
H2038 C1982 0.947 . S
C2039 C1982 1.392 . S
C2039 C1983 1.419 . S
C2039 H2021 0.948 . S
C2040 C2041 1.391 . S
C2040 C2044 1.391 . S
C2040 H2082 0.948 . S
C2041 C2040 1.391 . S
C2041 C2042 1.391 . S
C2042 C2041 1.391 . S
C2042 H2098 0.947 . S
C2042 C2099 1.392 . S
C2043 C2044 1.391 . S
C2043 C2047 1.397 . S
C2043 C2099 1.419 . S
C2044 C2040 1.391 . S
C2044 C2043 1.391 . S
C2044 C2045 1.399 . S
C2045 C2044 1.399 . S
C2045 C2048 1.396 . S
C2045 C2057 1.453 . S
C2045 C2058 1.684 . S
H2046 C2070 0.948 . S
C2047 C2043 1.397 . S
C2047 C2048 1.394 . S
C2047 C2066 1.723 . S
C2048 C2045 1.396 . S
C2048 C2047 1.394 . S
C2048 C2078 1.723 . S
H2049 C2072 0.947 . S
H2050 C2073 0.948 . S
H2051 C2079 0.982 . S
H2052 C2080 0.979 . S
H2053 C2080 0.980 . S
H2054 C2080 0.983 . S
H2055 C2079 0.979 . S
H2056 C2079 0.977 . S
C2057 C2045 1.453 . S
C2057 H2086 0.982 . S
C2057 H2087 0.979 . S
C2057 H2088 0.977 . S
C2058 C2045 1.684 . S
C2058 H2083 0.979 . S
C2058 H2084 0.980 . S
C2058 H2085 0.983 . S
C2059 C2060 1.391 . S
C2059 C2064 1.391 . S
C2059 H2089 0.948 . S
C2060 C2059 1.391 . S
C2060 C2061 1.391 . S
C2061 C2060 1.391 . S
C2061 C2062 1.392 . S
C2061 H2090 0.947 . S
C2062 C2061 1.392 . S
C2062 C2063 1.419 . S
C2062 H2091 0.948 . S
C2063 C2062 1.419 . S
C2063 C2064 1.391 . S
C2063 C2067 1.397 . S
C2064 C2059 1.391 . S
C2064 C2063 1.391 . S
C2064 C2065 1.399 . S
C2065 C2064 1.399 . S
C2065 C2066 1.396 . S
C2065 C2068 1.453 . S
C2065 C2069 1.684 . S
C2066 C2047 1.723 . S
C2066 C2065 1.396 . S
C2066 C2067 1.394 . S
C2067 C2063 1.397 . S
C2067 C2066 1.394 . S
C2067 C2077 1.723 . S
C2068 C2065 1.453 . S
C2068 H2092 0.982 . S
C2068 H2093 0.979 . S
C2068 H2094 0.977 . S
C2069 C2065 1.684 . S
C2069 H2095 0.979 . S
C2069 H2096 0.980 . S
C2069 H2097 0.983 . S
C2070 H2046 0.948 . S
C2070 C2071 1.391 . S
C2070 C2075 1.391 . S
C2071 C2070 1.391 . S
C2071 C2072 1.391 . S
C2072 H2049 0.947 . S
C2072 C2071 1.391 . S
C2072 C2073 1.392 . S
C2073 H2050 0.948 . S
C2073 C2072 1.392 . S
C2073 C2074 1.419 . S
C2074 C2073 1.419 . S
C2074 C2075 1.391 . S
C2074 C2078 1.397 . S
C2075 C2070 1.391 . S
C2075 C2074 1.391 . S
C2075 C2076 1.399 . S
C2076 C2075 1.399 . S
C2076 C2077 1.396 . S
C2076 C2079 1.453 . S
C2076 C2080 1.684 . S
C2077 C2067 1.723 . S
C2077 C2076 1.396 . S
C2077 C2078 1.394 . S
C2078 C2048 1.723 . S
C2078 C2074 1.397 . S
C2078 C2077 1.394 . S
C2079 H2051 0.982 . S
C2079 H2055 0.979 . S
C2079 H2056 0.977 . S
C2079 C2076 1.453 . S
C2080 H2052 0.979 . S
C2080 H2053 0.980 . S
C2080 H2054 0.983 . S
C2080 C2076 1.684 . S
H2081 C2099 0.948 . S
H2082 C2040 0.948 . S
H2083 C2058 0.979 . S
H2084 C2058 0.980 . S
H2085 C2058 0.983 . S
H2086 C2057 0.982 . S
H2087 C2057 0.979 . S
H2088 C2057 0.977 . S
H2089 C2059 0.948 . S
H2090 C2061 0.947 . S
H2091 C2062 0.948 . S
H2092 C2068 0.982 . S
H2093 C2068 0.979 . S
H2094 C2068 0.977 . S
H2095 C2069 0.979 . S
H2096 C2069 0.980 . S
H2097 C2069 0.983 . S
H2098 C2042 0.947 . S
C2099 C2042 1.392 . S
C2099 C2043 1.419 . S
C2099 H2081 0.948 . S
C2100 C2101 1.391 . S
C2100 C2104 1.391 . S
C2100 H2142 0.948 . S
C2101 C2100 1.391 . S
C2101 C2102 1.391 . S
C2102 C2101 1.391 . S
C2102 H2158 0.947 . S
C2102 C2159 1.392 . S
C2103 C2104 1.391 . S
C2103 C2107 1.397 . S
C2103 C2159 1.419 . S
C2104 C2100 1.391 . S
C2104 C2103 1.391 . S
C2104 C2105 1.399 . S
C2105 C2104 1.399 . S
C2105 C2108 1.396 . S
C2105 C2117 1.453 . S
C2105 C2118 1.684 . S
H2106 C2130 0.948 . S
C2107 C2103 1.397 . S
C2107 C2108 1.394 . S
C2107 C2126 1.723 . S
C2108 C2105 1.396 . S
C2108 C2107 1.394 . S
C2108 C2138 1.723 . S
H2109 C2132 0.947 . S
H2110 C2133 0.948 . S
H2111 C2139 0.982 . S
H2112 C2140 0.979 . S
H2113 C2140 0.980 . S
H2114 C2140 0.983 . S
H2115 C2139 0.979 . S
H2116 C2139 0.977 . S
C2117 C2105 1.453 . S
C2117 H2146 0.982 . S
C2117 H2147 0.979 . S
C2117 H2148 0.977 . S
C2118 C2105 1.684 . S
C2118 H2143 0.979 . S
C2118 H2144 0.980 . S
C2118 H2145 0.983 . S
C2119 C2120 1.391 . S
C2119 C2124 1.391 . S
C2119 H2149 0.948 . S
C2120 C2119 1.391 . S
C2120 C2121 1.391 . S
C2121 C2120 1.391 . S
C2121 C2122 1.392 . S
C2121 H2150 0.947 . S
C2122 C2121 1.392 . S
C2122 C2123 1.419 . S
C2122 H2151 0.948 . S
C2123 C2122 1.419 . S
C2123 C2124 1.391 . S
C2123 C2127 1.397 . S
C2124 C2119 1.391 . S
C2124 C2123 1.391 . S
C2124 C2125 1.399 . S
C2125 C2124 1.399 . S
C2125 C2126 1.396 . S
C2125 C2128 1.453 . S
C2125 C2129 1.684 . S
C2126 C2107 1.723 . S
C2126 C2125 1.396 . S
C2126 C2127 1.394 . S
C2127 C2123 1.397 . S
C2127 C2126 1.394 . S
C2127 C2137 1.723 . S
C2128 C2125 1.453 . S
C2128 H2152 0.982 . S
C2128 H2153 0.979 . S
C2128 H2154 0.977 . S
C2129 C2125 1.684 . S
C2129 H2155 0.979 . S
C2129 H2156 0.980 . S
C2129 H2157 0.983 . S
C2130 H2106 0.948 . S
C2130 C2131 1.391 . S
C2130 C2135 1.391 . S
C2131 C2130 1.391 . S
C2131 C2132 1.391 . S
C2132 H2109 0.947 . S
C2132 C2131 1.391 . S
C2132 C2133 1.392 . S
C2133 H2110 0.948 . S
C2133 C2132 1.392 . S
C2133 C2134 1.419 . S
C2134 C2133 1.419 . S
C2134 C2135 1.391 . S
C2134 C2138 1.397 . S
C2135 C2130 1.391 . S
C2135 C2134 1.391 . S
C2135 C2136 1.399 . S
C2136 C2135 1.399 . S
C2136 C2137 1.396 . S
C2136 C2139 1.453 . S
C2136 C2140 1.684 . S
C2137 C2127 1.723 . S
C2137 C2136 1.396 . S
C2137 C2138 1.394 . S
C2138 C2108 1.723 . S
C2138 C2134 1.397 . S
C2138 C2137 1.394 . S
C2139 H2111 0.982 . S
C2139 H2115 0.979 . S
C2139 H2116 0.977 . S
C2139 C2136 1.453 . S
C2140 H2112 0.979 . S
C2140 H2113 0.980 . S
C2140 H2114 0.983 . S
C2140 C2136 1.684 . S
H2141 C2159 0.948 . S
H2142 C2100 0.948 . S
H2143 C2118 0.979 . S
H2144 C2118 0.980 . S
H2145 C2118 0.983 . S
H2146 C2117 0.982 . S
H2147 C2117 0.979 . S
H2148 C2117 0.977 . S
H2149 C2119 0.948 . S
H2150 C2121 0.947 . S
H2151 C2122 0.948 . S
H2152 C2128 0.982 . S
H2153 C2128 0.979 . S
H2154 C2128 0.977 . S
H2155 C2129 0.979 . S
H2156 C2129 0.980 . S
H2157 C2129 0.983 . S
H2158 C2102 0.947 . S
C2159 C2102 1.392 . S
C2159 C2103 1.419 . S
C2159 H2141 0.948 . S
C2160 C2161 1.391 . S
C2160 C2164 1.391 . S
C2160 H2202 0.948 . S
C2161 C2160 1.391 . S
C2161 C2162 1.391 . S
C2162 C2161 1.391 . S
C2162 H2218 0.947 . S
C2162 C2219 1.392 . S
C2163 C2164 1.391 . S
C2163 C2167 1.397 . S
C2163 C2219 1.419 . S
C2164 C2160 1.391 . S
C2164 C2163 1.391 . S
C2164 C2165 1.399 . S
C2165 C2164 1.399 . S
C2165 C2168 1.396 . S
C2165 C2177 1.453 . S
C2165 C2178 1.684 . S
H2166 C2190 0.948 . S
C2167 C2163 1.397 . S
C2167 C2168 1.394 . S
C2167 C2186 1.723 . S
C2168 C2165 1.396 . S
C2168 C2167 1.394 . S
C2168 C2198 1.723 . S
H2169 C2192 0.947 . S
H2170 C2193 0.948 . S
H2171 C2199 0.982 . S
H2172 C2200 0.979 . S
H2173 C2200 0.980 . S
H2174 C2200 0.983 . S
H2175 C2199 0.979 . S
H2176 C2199 0.977 . S
C2177 C2165 1.453 . S
C2177 H2206 0.982 . S
C2177 H2207 0.979 . S
C2177 H2208 0.977 . S
C2178 C2165 1.684 . S
C2178 H2203 0.979 . S
C2178 H2204 0.980 . S
C2178 H2205 0.983 . S
C2179 C2180 1.391 . S
C2179 C2184 1.391 . S
C2179 H2209 0.948 . S
C2180 C2179 1.391 . S
C2180 C2181 1.391 . S
C2181 C2180 1.391 . S
C2181 C2182 1.392 . S
C2181 H2210 0.947 . S
C2182 C2181 1.392 . S
C2182 C2183 1.419 . S
C2182 H2211 0.948 . S
C2183 C2182 1.419 . S
C2183 C2184 1.391 . S
C2183 C2187 1.397 . S
C2184 C2179 1.391 . S
C2184 C2183 1.391 . S
C2184 C2185 1.399 . S
C2185 C2184 1.399 . S
C2185 C2186 1.396 . S
C2185 C2188 1.453 . S
C2185 C2189 1.684 . S
C2186 C2167 1.723 . S
C2186 C2185 1.396 . S
C2186 C2187 1.394 . S
C2187 C2183 1.397 . S
C2187 C2186 1.394 . S
C2187 C2197 1.723 . S
C2188 C2185 1.453 . S
C2188 H2212 0.982 . S
C2188 H2213 0.979 . S
C2188 H2214 0.977 . S
C2189 C2185 1.684 . S
C2189 H2215 0.979 . S
C2189 H2216 0.980 . S
C2189 H2217 0.983 . S
C2190 H2166 0.948 . S
C2190 C2191 1.391 . S
C2190 C2195 1.391 . S
C2191 C2190 1.391 . S
C2191 C2192 1.391 . S
C2192 H2169 0.947 . S
C2192 C2191 1.391 . S
C2192 C2193 1.392 . S
C2193 H2170 0.948 . S
C2193 C2192 1.392 . S
C2193 C2194 1.419 . S
C2194 C2193 1.419 . S
C2194 C2195 1.391 . S
C2194 C2198 1.397 . S
C2195 C2190 1.391 . S
C2195 C2194 1.391 . S
C2195 C2196 1.399 . S
C2196 C2195 1.399 . S
C2196 C2197 1.396 . S
C2196 C2199 1.453 . S
C2196 C2200 1.684 . S
C2197 C2187 1.723 . S
C2197 C2196 1.396 . S
C2197 C2198 1.394 . S
C2198 C2168 1.723 . S
C2198 C2194 1.397 . S
C2198 C2197 1.394 . S
C2199 H2171 0.982 . S
C2199 H2175 0.979 . S
C2199 H2176 0.977 . S
C2199 C2196 1.453 . S
C2200 H2172 0.979 . S
C2200 H2173 0.980 . S
C2200 H2174 0.983 . S
C2200 C2196 1.684 . S
H2201 C2219 0.948 . S
H2202 C2160 0.948 . S
H2203 C2178 0.979 . S
H2204 C2178 0.980 . S
H2205 C2178 0.983 . S
H2206 C2177 0.982 . S
H2207 C2177 0.979 . S
H2208 C2177 0.977 . S
H2209 C2179 0.948 . S
H2210 C2181 0.947 . S
H2211 C2182 0.948 . S
H2212 C2188 0.982 . S
H2213 C2188 0.979 . S
H2214 C2188 0.977 . S
H2215 C2189 0.979 . S
H2216 C2189 0.980 . S
H2217 C2189 0.983 . S
H2218 C2162 0.947 . S
C2219 C2162 1.392 . S
C2219 C2163 1.419 . S
C2219 H2201 0.948 . S
C2220 C2221 1.391 . S
C2220 C2224 1.391 . S
C2220 H2262 0.948 . S
C2221 C2220 1.391 . S
C2221 C2222 1.391 . S
C2222 C2221 1.391 . S
C2222 H2278 0.947 . S
C2222 C2279 1.392 . S
C2223 C2224 1.391 . S
C2223 C2227 1.397 . S
C2223 C2279 1.419 . S
C2224 C2220 1.391 . S
C2224 C2223 1.391 . S
C2224 C2225 1.399 . S
C2225 C2224 1.399 . S
C2225 C2228 1.396 . S
C2225 C2237 1.453 . S
C2225 C2238 1.684 . S
H2226 C2250 0.948 . S
C2227 C2223 1.397 . S
C2227 C2228 1.394 . S
C2227 C2246 1.723 . S
C2228 C2225 1.396 . S
C2228 C2227 1.394 . S
C2228 C2258 1.723 . S
H2229 C2252 0.947 . S
H2230 C2253 0.948 . S
H2231 C2259 0.982 . S
H2232 C2260 0.979 . S
H2233 C2260 0.980 . S
H2234 C2260 0.983 . S
H2235 C2259 0.979 . S
H2236 C2259 0.977 . S
C2237 C2225 1.453 . S
C2237 H2266 0.982 . S
C2237 H2267 0.979 . S
C2237 H2268 0.977 . S
C2238 C2225 1.684 . S
C2238 H2263 0.979 . S
C2238 H2264 0.980 . S
C2238 H2265 0.983 . S
C2239 C2240 1.391 . S
C2239 C2244 1.391 . S
C2239 H2269 0.948 . S
C2240 C2239 1.391 . S
C2240 C2241 1.391 . S
C2241 C2240 1.391 . S
C2241 C2242 1.392 . S
C2241 H2270 0.947 . S
C2242 C2241 1.392 . S
C2242 C2243 1.419 . S
C2242 H2271 0.948 . S
C2243 C2242 1.419 . S
C2243 C2244 1.391 . S
C2243 C2247 1.397 . S
C2244 C2239 1.391 . S
C2244 C2243 1.391 . S
C2244 C2245 1.399 . S
C2245 C2244 1.399 . S
C2245 C2246 1.396 . S
C2245 C2248 1.453 . S
C2245 C2249 1.684 . S
C2246 C2227 1.723 . S
C2246 C2245 1.396 . S
C2246 C2247 1.394 . S
C2247 C2243 1.397 . S
C2247 C2246 1.394 . S
C2247 C2257 1.723 . S
C2248 C2245 1.453 . S
C2248 H2272 0.982 . S
C2248 H2273 0.979 . S
C2248 H2274 0.977 . S
C2249 C2245 1.684 . S
C2249 H2275 0.979 . S
C2249 H2276 0.980 . S
C2249 H2277 0.983 . S
C2250 H2226 0.948 . S
C2250 C2251 1.391 . S
C2250 C2255 1.391 . S
C2251 C2250 1.391 . S
C2251 C2252 1.391 . S
C2252 H2229 0.947 . S
C2252 C2251 1.391 . S
C2252 C2253 1.392 . S
C2253 H2230 0.948 . S
C2253 C2252 1.392 . S
C2253 C2254 1.419 . S
C2254 C2253 1.419 . S
C2254 C2255 1.391 . S
C2254 C2258 1.397 . S
C2255 C2250 1.391 . S
C2255 C2254 1.391 . S
C2255 C2256 1.399 . S
C2256 C2255 1.399 . S
C2256 C2257 1.396 . S
C2256 C2259 1.453 . S
C2256 C2260 1.684 . S
C2257 C2247 1.723 . S
C2257 C2256 1.396 . S
C2257 C2258 1.394 . S
C2258 C2228 1.723 . S
C2258 C2254 1.397 . S
C2258 C2257 1.394 . S
C2259 H2231 0.982 . S
C2259 H2235 0.979 . S
C2259 H2236 0.977 . S
C2259 C2256 1.453 . S
C2260 H2232 0.979 . S
C2260 H2233 0.980 . S
C2260 H2234 0.983 . S
C2260 C2256 1.684 . S
H2261 C2279 0.948 . S
H2262 C2220 0.948 . S
H2263 C2238 0.979 . S
H2264 C2238 0.980 . S
H2265 C2238 0.983 . S
H2266 C2237 0.982 . S
H2267 C2237 0.979 . S
H2268 C2237 0.977 . S
H2269 C2239 0.948 . S
H2270 C2241 0.947 . S
H2271 C2242 0.948 . S
H2272 C2248 0.982 . S
H2273 C2248 0.979 . S
H2274 C2248 0.977 . S
H2275 C2249 0.979 . S
H2276 C2249 0.980 . S
H2277 C2249 0.983 . S
H2278 C2222 0.947 . S
C2279 C2222 1.392 . S
C2279 C2223 1.419 . S
C2279 H2261 0.948 . S
C2280 C2281 1.391 . S
C2280 C2284 1.391 . S
C2280 H2322 0.948 . S
C2281 C2280 1.391 . S
C2281 C2282 1.391 . S
C2282 C2281 1.391 . S
C2282 H2338 0.947 . S
C2282 C2339 1.392 . S
C2283 C2284 1.391 . S
C2283 C2287 1.397 . S
C2283 C2339 1.419 . S
C2284 C2280 1.391 . S
C2284 C2283 1.391 . S
C2284 C2285 1.399 . S
C2285 C2284 1.399 . S
C2285 C2288 1.396 . S
C2285 C2297 1.453 . S
C2285 C2298 1.684 . S
H2286 C2310 0.948 . S
C2287 C2283 1.397 . S
C2287 C2288 1.394 . S
C2287 C2306 1.723 . S
C2288 C2285 1.396 . S
C2288 C2287 1.394 . S
C2288 C2318 1.723 . S
H2289 C2312 0.947 . S
H2290 C2313 0.948 . S
H2291 C2319 0.982 . S
H2292 C2320 0.979 . S
H2293 C2320 0.980 . S
H2294 C2320 0.983 . S
H2295 C2319 0.979 . S
H2296 C2319 0.977 . S
C2297 C2285 1.453 . S
C2297 H2326 0.982 . S
C2297 H2327 0.979 . S
C2297 H2328 0.977 . S
C2298 C2285 1.684 . S
C2298 H2323 0.979 . S
C2298 H2324 0.980 . S
C2298 H2325 0.983 . S
C2299 C2300 1.391 . S
C2299 C2304 1.391 . S
C2299 H2329 0.948 . S
C2300 C2299 1.391 . S
C2300 C2301 1.391 . S
C2301 C2300 1.391 . S
C2301 C2302 1.392 . S
C2301 H2330 0.947 . S
C2302 C2301 1.392 . S
C2302 C2303 1.419 . S
C2302 H2331 0.948 . S
C2303 C2302 1.419 . S
C2303 C2304 1.391 . S
C2303 C2307 1.397 . S
C2304 C2299 1.391 . S
C2304 C2303 1.391 . S
C2304 C2305 1.399 . S
C2305 C2304 1.399 . S
C2305 C2306 1.396 . S
C2305 C2308 1.453 . S
C2305 C2309 1.684 . S
C2306 C2287 1.723 . S
C2306 C2305 1.396 . S
C2306 C2307 1.394 . S
C2307 C2303 1.397 . S
C2307 C2306 1.394 . S
C2307 C2317 1.723 . S
C2308 C2305 1.453 . S
C2308 H2332 0.982 . S
C2308 H2333 0.979 . S
C2308 H2334 0.977 . S
C2309 C2305 1.684 . S
C2309 H2335 0.979 . S
C2309 H2336 0.980 . S
C2309 H2337 0.983 . S
C2310 H2286 0.948 . S
C2310 C2311 1.391 . S
C2310 C2315 1.391 . S
C2311 C2310 1.391 . S
C2311 C2312 1.391 . S
C2312 H2289 0.947 . S
C2312 C2311 1.391 . S
C2312 C2313 1.392 . S
C2313 H2290 0.948 . S
C2313 C2312 1.392 . S
C2313 C2314 1.419 . S
C2314 C2313 1.419 . S
C2314 C2315 1.391 . S
C2314 C2318 1.397 . S
C2315 C2310 1.391 . S
C2315 C2314 1.391 . S
C2315 C2316 1.399 . S
C2316 C2315 1.399 . S
C2316 C2317 1.396 . S
C2316 C2319 1.453 . S
C2316 C2320 1.684 . S
C2317 C2307 1.723 . S
C2317 C2316 1.396 . S
C2317 C2318 1.394 . S
C2318 C2288 1.723 . S
C2318 C2314 1.397 . S
C2318 C2317 1.394 . S
C2319 H2291 0.982 . S
C2319 H2295 0.979 . S
C2319 H2296 0.977 . S
C2319 C2316 1.453 . S
C2320 H2292 0.979 . S
C2320 H2293 0.980 . S
C2320 H2294 0.983 . S
C2320 C2316 1.684 . S
H2321 C2339 0.948 . S
H2322 C2280 0.948 . S
H2323 C2298 0.979 . S
H2324 C2298 0.980 . S
H2325 C2298 0.983 . S
H2326 C2297 0.982 . S
H2327 C2297 0.979 . S
H2328 C2297 0.977 . S
H2329 C2299 0.948 . S
H2330 C2301 0.947 . S
H2331 C2302 0.948 . S
H2332 C2308 0.982 . S
H2333 C2308 0.979 . S
H2334 C2308 0.977 . S
H2335 C2309 0.979 . S
H2336 C2309 0.980 . S
H2337 C2309 0.983 . S
H2338 C2282 0.947 . S
C2339 C2282 1.392 . S
C2339 C2283 1.419 . S
C2339 H2321 0.948 . S
C2340 C2341 1.391 . S
C2340 C2344 1.391 . S
C2340 H2382 0.948 . S
C2341 C2340 1.391 . S
C2341 C2342 1.391 . S
C2342 C2341 1.391 . S
C2342 H2398 0.947 . S
C2342 C2399 1.392 . S
C2343 C2344 1.391 . S
C2343 C2347 1.397 . S
C2343 C2399 1.419 . S
C2344 C2340 1.391 . S
C2344 C2343 1.391 . S
C2344 C2345 1.399 . S
C2345 C2344 1.399 . S
C2345 C2348 1.396 . S
C2345 C2357 1.453 . S
C2345 C2358 1.684 . S
H2346 C2370 0.948 . S
C2347 C2343 1.397 . S
C2347 C2348 1.394 . S
C2347 C2366 1.723 . S
C2348 C2345 1.396 . S
C2348 C2347 1.394 . S
C2348 C2378 1.723 . S
H2349 C2372 0.947 . S
H2350 C2373 0.948 . S
H2351 C2379 0.982 . S
H2352 C2380 0.979 . S
H2353 C2380 0.980 . S
H2354 C2380 0.983 . S
H2355 C2379 0.979 . S
H2356 C2379 0.977 . S
C2357 C2345 1.453 . S
C2357 H2386 0.982 . S
C2357 H2387 0.979 . S
C2357 H2388 0.977 . S
C2358 C2345 1.684 . S
C2358 H2383 0.979 . S
C2358 H2384 0.980 . S
C2358 H2385 0.983 . S
C2359 C2360 1.391 . S
C2359 C2364 1.391 . S
C2359 H2389 0.948 . S
C2360 C2359 1.391 . S
C2360 C2361 1.391 . S
C2361 C2360 1.391 . S
C2361 C2362 1.392 . S
C2361 H2390 0.947 . S
C2362 C2361 1.392 . S
C2362 C2363 1.419 . S
C2362 H2391 0.948 . S
C2363 C2362 1.419 . S
C2363 C2364 1.391 . S
C2363 C2367 1.397 . S
C2364 C2359 1.391 . S
C2364 C2363 1.391 . S
C2364 C2365 1.399 . S
C2365 C2364 1.399 . S
C2365 C2366 1.396 . S
C2365 C2368 1.453 . S
C2365 C2369 1.684 . S
C2366 C2347 1.723 . S
C2366 C2365 1.396 . S
C2366 C2367 1.394 . S
C2367 C2363 1.397 . S
C2367 C2366 1.394 . S
C2367 C2377 1.723 . S
C2368 C2365 1.453 . S
C2368 H2392 0.982 . S
C2368 H2393 0.979 . S
C2368 H2394 0.977 . S
C2369 C2365 1.684 . S
C2369 H2395 0.979 . S
C2369 H2396 0.980 . S
C2369 H2397 0.983 . S
C2370 H2346 0.948 . S
C2370 C2371 1.391 . S
C2370 C2375 1.391 . S
C2371 C2370 1.391 . S
C2371 C2372 1.391 . S
C2372 H2349 0.947 . S
C2372 C2371 1.391 . S
C2372 C2373 1.392 . S
C2373 H2350 0.948 . S
C2373 C2372 1.392 . S
C2373 C2374 1.419 . S
C2374 C2373 1.419 . S
C2374 C2375 1.391 . S
C2374 C2378 1.397 . S
C2375 C2370 1.391 . S
C2375 C2374 1.391 . S
C2375 C2376 1.399 . S
C2376 C2375 1.399 . S
C2376 C2377 1.396 . S
C2376 C2379 1.453 . S
C2376 C2380 1.684 . S
C2377 C2367 1.723 . S
C2377 C2376 1.396 . S
C2377 C2378 1.394 . S
C2378 C2348 1.723 . S
C2378 C2374 1.397 . S
C2378 C2377 1.394 . S
C2379 H2351 0.982 . S
C2379 H2355 0.979 . S
C2379 H2356 0.977 . S
C2379 C2376 1.453 . S
C2380 H2352 0.979 . S
C2380 H2353 0.980 . S
C2380 H2354 0.983 . S
C2380 C2376 1.684 . S
H2381 C2399 0.948 . S
H2382 C2340 0.948 . S
H2383 C2358 0.979 . S
H2384 C2358 0.980 . S
H2385 C2358 0.983 . S
H2386 C2357 0.982 . S
H2387 C2357 0.979 . S
H2388 C2357 0.977 . S
H2389 C2359 0.948 . S
H2390 C2361 0.947 . S
H2391 C2362 0.948 . S
H2392 C2368 0.982 . S
H2393 C2368 0.979 . S
H2394 C2368 0.977 . S
H2395 C2369 0.979 . S
H2396 C2369 0.980 . S
H2397 C2369 0.983 . S
H2398 C2342 0.947 . S
C2399 C2342 1.392 . S
C2399 C2343 1.419 . S
C2399 H2381 0.948 . S
C2400 C2401 1.391 . S
C2400 C2404 1.391 . S
C2400 H2442 0.948 . S
C2401 C2400 1.391 . S
C2401 C2402 1.391 . S
C2402 C2401 1.391 . S
C2402 H2458 0.947 . S
C2402 C2459 1.392 . S
C2403 C2404 1.391 . S
C2403 C2407 1.397 . S
C2403 C2459 1.419 . S
C2404 C2400 1.391 . S
C2404 C2403 1.391 . S
C2404 C2405 1.399 . S
C2405 C2404 1.399 . S
C2405 C2408 1.396 . S
C2405 C2417 1.453 . S
C2405 C2418 1.684 . S
H2406 C2430 0.948 . S
C2407 C2403 1.397 . S
C2407 C2408 1.394 . S
C2407 C2426 1.723 . S
C2408 C2405 1.396 . S
C2408 C2407 1.394 . S
C2408 C2438 1.723 . S
H2409 C2432 0.947 . S
H2410 C2433 0.948 . S
H2411 C2439 0.982 . S
H2412 C2440 0.979 . S
H2413 C2440 0.980 . S
H2414 C2440 0.983 . S
H2415 C2439 0.979 . S
H2416 C2439 0.977 . S
C2417 C2405 1.453 . S
C2417 H2446 0.982 . S
C2417 H2447 0.979 . S
C2417 H2448 0.977 . S
C2418 C2405 1.684 . S
C2418 H2443 0.979 . S
C2418 H2444 0.980 . S
C2418 H2445 0.983 . S
C2419 C2420 1.391 . S
C2419 C2424 1.391 . S
C2419 H2449 0.948 . S
C2420 C2419 1.391 . S
C2420 C2421 1.391 . S
C2421 C2420 1.391 . S
C2421 C2422 1.392 . S
C2421 H2450 0.947 . S
C2422 C2421 1.392 . S
C2422 C2423 1.419 . S
C2422 H2451 0.948 . S
C2423 C2422 1.419 . S
C2423 C2424 1.391 . S
C2423 C2427 1.397 . S
C2424 C2419 1.391 . S
C2424 C2423 1.391 . S
C2424 C2425 1.399 . S
C2425 C2424 1.399 . S
C2425 C2426 1.396 . S
C2425 C2428 1.453 . S
C2425 C2429 1.684 . S
C2426 C2407 1.723 . S
C2426 C2425 1.396 . S
C2426 C2427 1.394 . S
C2427 C2423 1.397 . S
C2427 C2426 1.394 . S
C2427 C2437 1.723 . S
C2428 C2425 1.453 . S
C2428 H2452 0.982 . S
C2428 H2453 0.979 . S
C2428 H2454 0.977 . S
C2429 C2425 1.684 . S
C2429 H2455 0.979 . S
C2429 H2456 0.980 . S
C2429 H2457 0.983 . S
C2430 H2406 0.948 . S
C2430 C2431 1.391 . S
C2430 C2435 1.391 . S
C2431 C2430 1.391 . S
C2431 C2432 1.391 . S
C2432 H2409 0.947 . S
C2432 C2431 1.391 . S
C2432 C2433 1.392 . S
C2433 H2410 0.948 . S
C2433 C2432 1.392 . S
C2433 C2434 1.419 . S
C2434 C2433 1.419 . S
C2434 C2435 1.391 . S
C2434 C2438 1.397 . S
C2435 C2430 1.391 . S
C2435 C2434 1.391 . S
C2435 C2436 1.399 . S
C2436 C2435 1.399 . S
C2436 C2437 1.396 . S
C2436 C2439 1.453 . S
C2436 C2440 1.684 . S
C2437 C2427 1.723 . S
C2437 C2436 1.396 . S
C2437 C2438 1.394 . S
C2438 C2408 1.723 . S
C2438 C2434 1.397 . S
C2438 C2437 1.394 . S
C2439 H2411 0.982 . S
C2439 H2415 0.979 . S
C2439 H2416 0.977 . S
C2439 C2436 1.453 . S
C2440 H2412 0.979 . S
C2440 H2413 0.980 . S
C2440 H2414 0.983 . S
C2440 C2436 1.684 . S
H2441 C2459 0.948 . S
H2442 C2400 0.948 . S
H2443 C2418 0.979 . S
H2444 C2418 0.980 . S
H2445 C2418 0.983 . S
H2446 C2417 0.982 . S
H2447 C2417 0.979 . S
H2448 C2417 0.977 . S
H2449 C2419 0.948 . S
H2450 C2421 0.947 . S
H2451 C2422 0.948 . S
H2452 C2428 0.982 . S
H2453 C2428 0.979 . S
H2454 C2428 0.977 . S
H2455 C2429 0.979 . S
H2456 C2429 0.980 . S
H2457 C2429 0.983 . S
H2458 C2402 0.947 . S
C2459 C2402 1.392 . S
C2459 C2403 1.419 . S
C2459 H2441 0.948 . S
C2460 C2461 1.391 . S
C2460 C2464 1.391 . S
C2460 H2502 0.948 . S
C2461 C2460 1.391 . S
C2461 C2462 1.391 . S
C2462 C2461 1.391 . S
C2462 H2518 0.947 . S
C2462 C2519 1.392 . S
C2463 C2464 1.391 . S
C2463 C2467 1.397 . S
C2463 C2519 1.419 . S
C2464 C2460 1.391 . S
C2464 C2463 1.391 . S
C2464 C2465 1.399 . S
C2465 C2464 1.399 . S
C2465 C2468 1.396 . S
C2465 C2477 1.453 . S
C2465 C2478 1.684 . S
H2466 C2490 0.948 . S
C2467 C2463 1.397 . S
C2467 C2468 1.394 . S
C2467 C2486 1.723 . S
C2468 C2465 1.396 . S
C2468 C2467 1.394 . S
C2468 C2498 1.723 . S
H2469 C2492 0.947 . S
H2470 C2493 0.948 . S
H2471 C2499 0.982 . S
H2472 C2500 0.979 . S
H2473 C2500 0.980 . S
H2474 C2500 0.983 . S
H2475 C2499 0.979 . S
H2476 C2499 0.977 . S
C2477 C2465 1.453 . S
C2477 H2506 0.982 . S
C2477 H2507 0.979 . S
C2477 H2508 0.977 . S
C2478 C2465 1.684 . S
C2478 H2503 0.979 . S
C2478 H2504 0.980 . S
C2478 H2505 0.983 . S
C2479 C2480 1.391 . S
C2479 C2484 1.391 . S
C2479 H2509 0.948 . S
C2480 C2479 1.391 . S
C2480 C2481 1.391 . S
C2481 C2480 1.391 . S
C2481 C2482 1.392 . S
C2481 H2510 0.947 . S
C2482 C2481 1.392 . S
C2482 C2483 1.419 . S
C2482 H2511 0.948 . S
C2483 C2482 1.419 . S
C2483 C2484 1.391 . S
C2483 C2487 1.397 . S
C2484 C2479 1.391 . S
C2484 C2483 1.391 . S
C2484 C2485 1.399 . S
C2485 C2484 1.399 . S
C2485 C2486 1.396 . S
C2485 C2488 1.453 . S
C2485 C2489 1.684 . S
C2486 C2467 1.723 . S
C2486 C2485 1.396 . S
C2486 C2487 1.394 . S
C2487 C2483 1.397 . S
C2487 C2486 1.394 . S
C2487 C2497 1.723 . S
C2488 C2485 1.453 . S
C2488 H2512 0.982 . S
C2488 H2513 0.979 . S
C2488 H2514 0.977 . S
C2489 C2485 1.684 . S
C2489 H2515 0.979 . S
C2489 H2516 0.980 . S
C2489 H2517 0.983 . S
C2490 H2466 0.948 . S
C2490 C2491 1.391 . S
C2490 C2495 1.391 . S
C2491 C2490 1.391 . S
C2491 C2492 1.391 . S
C2492 H2469 0.947 . S
C2492 C2491 1.391 . S
C2492 C2493 1.392 . S
C2493 H2470 0.948 . S
C2493 C2492 1.392 . S
C2493 C2494 1.419 . S
C2494 C2493 1.419 . S
C2494 C2495 1.391 . S
C2494 C2498 1.397 . S
C2495 C2490 1.391 . S
C2495 C2494 1.391 . S
C2495 C2496 1.399 . S
C2496 C2495 1.399 . S
C2496 C2497 1.396 . S
C2496 C2499 1.453 . S
C2496 C2500 1.684 . S
C2497 C2487 1.723 . S
C2497 C2496 1.396 . S
C2497 C2498 1.394 . S
C2498 C2468 1.723 . S
C2498 C2494 1.397 . S
C2498 C2497 1.394 . S
C2499 H2471 0.982 . S
C2499 H2475 0.979 . S
C2499 H2476 0.977 . S
C2499 C2496 1.453 . S
C2500 H2472 0.979 . S
C2500 H2473 0.980 . S
C2500 H2474 0.983 . S
C2500 C2496 1.684 . S
H2501 C2519 0.948 . S
H2502 C2460 0.948 . S
H2503 C2478 0.979 . S
H2504 C2478 0.980 . S
H2505 C2478 0.983 . S
H2506 C2477 0.982 . S
H2507 C2477 0.979 . S
H2508 C2477 0.977 . S
H2509 C2479 0.948 . S
H2510 C2481 0.947 . S
H2511 C2482 0.948 . S
H2512 C2488 0.982 . S
H2513 C2488 0.979 . S
H2514 C2488 0.977 . S
H2515 C2489 0.979 . S
H2516 C2489 0.980 . S
H2517 C2489 0.983 . S
H2518 C2462 0.947 . S
C2519 C2462 1.392 . S
C2519 C2463 1.419 . S
C2519 H2501 0.948 . S
C2520 C2521 1.391 . S
C2520 C2524 1.391 . S
C2520 H2562 0.948 . S
C2521 C2520 1.391 . S
C2521 C2522 1.391 . S
C2522 C2521 1.391 . S
C2522 H2578 0.947 . S
C2522 C2579 1.392 . S
C2523 C2524 1.391 . S
C2523 C2527 1.397 . S
C2523 C2579 1.419 . S
C2524 C2520 1.391 . S
C2524 C2523 1.391 . S
C2524 C2525 1.399 . S
C2525 C2524 1.399 . S
C2525 C2528 1.396 . S
C2525 C2537 1.453 . S
C2525 C2538 1.684 . S
H2526 C2550 0.948 . S
C2527 C2523 1.397 . S
C2527 C2528 1.394 . S
C2527 C2546 1.723 . S
C2528 C2525 1.396 . S
C2528 C2527 1.394 . S
C2528 C2558 1.723 . S
H2529 C2552 0.947 . S
H2530 C2553 0.948 . S
H2531 C2559 0.982 . S
H2532 C2560 0.979 . S
H2533 C2560 0.980 . S
H2534 C2560 0.983 . S
H2535 C2559 0.979 . S
H2536 C2559 0.977 . S
C2537 C2525 1.453 . S
C2537 H2566 0.982 . S
C2537 H2567 0.979 . S
C2537 H2568 0.977 . S
C2538 C2525 1.684 . S
C2538 H2563 0.979 . S
C2538 H2564 0.980 . S
C2538 H2565 0.983 . S
C2539 C2540 1.391 . S
C2539 C2544 1.391 . S
C2539 H2569 0.948 . S
C2540 C2539 1.391 . S
C2540 C2541 1.391 . S
C2541 C2540 1.391 . S
C2541 C2542 1.392 . S
C2541 H2570 0.947 . S
C2542 C2541 1.392 . S
C2542 C2543 1.419 . S
C2542 H2571 0.948 . S
C2543 C2542 1.419 . S
C2543 C2544 1.391 . S
C2543 C2547 1.397 . S
C2544 C2539 1.391 . S
C2544 C2543 1.391 . S
C2544 C2545 1.399 . S
C2545 C2544 1.399 . S
C2545 C2546 1.396 . S
C2545 C2548 1.453 . S
C2545 C2549 1.684 . S
C2546 C2527 1.723 . S
C2546 C2545 1.396 . S
C2546 C2547 1.394 . S
C2547 C2543 1.397 . S
C2547 C2546 1.394 . S
C2547 C2557 1.723 . S
C2548 C2545 1.453 . S
C2548 H2572 0.982 . S
C2548 H2573 0.979 . S
C2548 H2574 0.977 . S
C2549 C2545 1.684 . S
C2549 H2575 0.979 . S
C2549 H2576 0.980 . S
C2549 H2577 0.983 . S
C2550 H2526 0.948 . S
C2550 C2551 1.391 . S
C2550 C2555 1.391 . S
C2551 C2550 1.391 . S
C2551 C2552 1.391 . S
C2552 H2529 0.947 . S
C2552 C2551 1.391 . S
C2552 C2553 1.392 . S
C2553 H2530 0.948 . S
C2553 C2552 1.392 . S
C2553 C2554 1.419 . S
C2554 C2553 1.419 . S
C2554 C2555 1.391 . S
C2554 C2558 1.397 . S
C2555 C2550 1.391 . S
C2555 C2554 1.391 . S
C2555 C2556 1.399 . S
C2556 C2555 1.399 . S
C2556 C2557 1.396 . S
C2556 C2559 1.453 . S
C2556 C2560 1.684 . S
C2557 C2547 1.723 . S
C2557 C2556 1.396 . S
C2557 C2558 1.394 . S
C2558 C2528 1.723 . S
C2558 C2554 1.397 . S
C2558 C2557 1.394 . S
C2559 H2531 0.982 . S
C2559 H2535 0.979 . S
C2559 H2536 0.977 . S
C2559 C2556 1.453 . S
C2560 H2532 0.979 . S
C2560 H2533 0.980 . S
C2560 H2534 0.983 . S
C2560 C2556 1.684 . S
H2561 C2579 0.948 . S
H2562 C2520 0.948 . S
H2563 C2538 0.979 . S
H2564 C2538 0.980 . S
H2565 C2538 0.983 . S
H2566 C2537 0.982 . S
H2567 C2537 0.979 . S
H2568 C2537 0.977 . S
H2569 C2539 0.948 . S
H2570 C2541 0.947 . S
H2571 C2542 0.948 . S
H2572 C2548 0.982 . S
H2573 C2548 0.979 . S
H2574 C2548 0.977 . S
H2575 C2549 0.979 . S
H2576 C2549 0.980 . S
H2577 C2549 0.983 . S
H2578 C2522 0.947 . S
C2579 C2522 1.392 . S
C2579 C2523 1.419 . S
C2579 H2561 0.948 . S
C2580 C2581 1.391 . S
C2580 C2584 1.391 . S
C2580 H2622 0.948 . S
C2581 C2580 1.391 . S
C2581 C2582 1.391 . S
C2582 C2581 1.391 . S
C2582 H2638 0.947 . S
C2582 C2639 1.392 . S
C2583 C2584 1.391 . S
C2583 C2587 1.397 . S
C2583 C2639 1.419 . S
C2584 C2580 1.391 . S
C2584 C2583 1.391 . S
C2584 C2585 1.399 . S
C2585 C2584 1.399 . S
C2585 C2588 1.396 . S
C2585 C2597 1.453 . S
C2585 C2598 1.684 . S
H2586 C2610 0.948 . S
C2587 C2583 1.397 . S
C2587 C2588 1.394 . S
C2587 C2606 1.723 . S
C2588 C2585 1.396 . S
C2588 C2587 1.394 . S
C2588 C2618 1.723 . S
H2589 C2612 0.947 . S
H2590 C2613 0.948 . S
H2591 C2619 0.982 . S
H2592 C2620 0.979 . S
H2593 C2620 0.980 . S
H2594 C2620 0.983 . S
H2595 C2619 0.979 . S
H2596 C2619 0.977 . S
C2597 C2585 1.453 . S
C2597 H2626 0.982 . S
C2597 H2627 0.979 . S
C2597 H2628 0.977 . S
C2598 C2585 1.684 . S
C2598 H2623 0.979 . S
C2598 H2624 0.980 . S
C2598 H2625 0.983 . S
C2599 C2600 1.391 . S
C2599 C2604 1.391 . S
C2599 H2629 0.948 . S
C2600 C2599 1.391 . S
C2600 C2601 1.391 . S
C2601 C2600 1.391 . S
C2601 C2602 1.392 . S
C2601 H2630 0.947 . S
C2602 C2601 1.392 . S
C2602 C2603 1.419 . S
C2602 H2631 0.948 . S
C2603 C2602 1.419 . S
C2603 C2604 1.391 . S
C2603 C2607 1.397 . S
C2604 C2599 1.391 . S
C2604 C2603 1.391 . S
C2604 C2605 1.399 . S
C2605 C2604 1.399 . S
C2605 C2606 1.396 . S
C2605 C2608 1.453 . S
C2605 C2609 1.684 . S
C2606 C2587 1.723 . S
C2606 C2605 1.396 . S
C2606 C2607 1.394 . S
C2607 C2603 1.397 . S
C2607 C2606 1.394 . S
C2607 C2617 1.723 . S
C2608 C2605 1.453 . S
C2608 H2632 0.982 . S
C2608 H2633 0.979 . S
C2608 H2634 0.977 . S
C2609 C2605 1.684 . S
C2609 H2635 0.979 . S
C2609 H2636 0.980 . S
C2609 H2637 0.983 . S
C2610 H2586 0.948 . S
C2610 C2611 1.391 . S
C2610 C2615 1.391 . S
C2611 C2610 1.391 . S
C2611 C2612 1.391 . S
C2612 H2589 0.947 . S
C2612 C2611 1.391 . S
C2612 C2613 1.392 . S
C2613 H2590 0.948 . S
C2613 C2612 1.392 . S
C2613 C2614 1.419 . S
C2614 C2613 1.419 . S
C2614 C2615 1.391 . S
C2614 C2618 1.397 . S
C2615 C2610 1.391 . S
C2615 C2614 1.391 . S
C2615 C2616 1.399 . S
C2616 C2615 1.399 . S
C2616 C2617 1.396 . S
C2616 C2619 1.453 . S
C2616 C2620 1.684 . S
C2617 C2607 1.723 . S
C2617 C2616 1.396 . S
C2617 C2618 1.394 . S
C2618 C2588 1.723 . S
C2618 C2614 1.397 . S
C2618 C2617 1.394 . S
C2619 H2591 0.982 . S
C2619 H2595 0.979 . S
C2619 H2596 0.977 . S
C2619 C2616 1.453 . S
C2620 H2592 0.979 . S
C2620 H2593 0.980 . S
C2620 H2594 0.983 . S
C2620 C2616 1.684 . S
H2621 C2639 0.948 . S
H2622 C2580 0.948 . S
H2623 C2598 0.979 . S
H2624 C2598 0.980 . S
H2625 C2598 0.983 . S
H2626 C2597 0.982 . S
H2627 C2597 0.979 . S
H2628 C2597 0.977 . S
H2629 C2599 0.948 . S
H2630 C2601 0.947 . S
H2631 C2602 0.948 . S
H2632 C2608 0.982 . S
H2633 C2608 0.979 . S
H2634 C2608 0.977 . S
H2635 C2609 0.979 . S
H2636 C2609 0.980 . S
H2637 C2609 0.983 . S
H2638 C2582 0.947 . S
C2639 C2582 1.392 . S
C2639 C2583 1.419 . S
C2639 H2621 0.948 . S
C2640 C2641 1.391 . S
C2640 C2644 1.391 . S
C2640 H2682 0.948 . S
C2641 C2640 1.391 . S
C2641 C2642 1.391 . S
C2642 C2641 1.391 . S
C2642 H2698 0.947 . S
C2642 C2699 1.392 . S
C2643 C2644 1.391 . S
C2643 C2647 1.397 . S
C2643 C2699 1.419 . S
C2644 C2640 1.391 . S
C2644 C2643 1.391 . S
C2644 C2645 1.399 . S
C2645 C2644 1.399 . S
C2645 C2648 1.396 . S
C2645 C2657 1.453 . S
C2645 C2658 1.684 . S
H2646 C2670 0.948 . S
C2647 C2643 1.397 . S
C2647 C2648 1.394 . S
C2647 C2666 1.723 . S
C2648 C2645 1.396 . S
C2648 C2647 1.394 . S
C2648 C2678 1.723 . S
H2649 C2672 0.947 . S
H2650 C2673 0.948 . S
H2651 C2679 0.982 . S
H2652 C2680 0.979 . S
H2653 C2680 0.980 . S
H2654 C2680 0.983 . S
H2655 C2679 0.979 . S
H2656 C2679 0.977 . S
C2657 C2645 1.453 . S
C2657 H2686 0.982 . S
C2657 H2687 0.979 . S
C2657 H2688 0.977 . S
C2658 C2645 1.684 . S
C2658 H2683 0.979 . S
C2658 H2684 0.980 . S
C2658 H2685 0.983 . S
C2659 C2660 1.391 . S
C2659 C2664 1.391 . S
C2659 H2689 0.948 . S
C2660 C2659 1.391 . S
C2660 C2661 1.391 . S
C2661 C2660 1.391 . S
C2661 C2662 1.392 . S
C2661 H2690 0.947 . S
C2662 C2661 1.392 . S
C2662 C2663 1.419 . S
C2662 H2691 0.948 . S
C2663 C2662 1.419 . S
C2663 C2664 1.391 . S
C2663 C2667 1.397 . S
C2664 C2659 1.391 . S
C2664 C2663 1.391 . S
C2664 C2665 1.399 . S
C2665 C2664 1.399 . S
C2665 C2666 1.396 . S
C2665 C2668 1.453 . S
C2665 C2669 1.684 . S
C2666 C2647 1.723 . S
C2666 C2665 1.396 . S
C2666 C2667 1.394 . S
C2667 C2663 1.397 . S
C2667 C2666 1.394 . S
C2667 C2677 1.723 . S
C2668 C2665 1.453 . S
C2668 H2692 0.982 . S
C2668 H2693 0.979 . S
C2668 H2694 0.977 . S
C2669 C2665 1.684 . S
C2669 H2695 0.979 . S
C2669 H2696 0.980 . S
C2669 H2697 0.983 . S
C2670 H2646 0.948 . S
C2670 C2671 1.391 . S
C2670 C2675 1.391 . S
C2671 C2670 1.391 . S
C2671 C2672 1.391 . S
C2672 H2649 0.947 . S
C2672 C2671 1.391 . S
C2672 C2673 1.392 . S
C2673 H2650 0.948 . S
C2673 C2672 1.392 . S
C2673 C2674 1.419 . S
C2674 C2673 1.419 . S
C2674 C2675 1.391 . S
C2674 C2678 1.397 . S
C2675 C2670 1.391 . S
C2675 C2674 1.391 . S
C2675 C2676 1.399 . S
C2676 C2675 1.399 . S
C2676 C2677 1.396 . S
C2676 C2679 1.453 . S
C2676 C2680 1.684 . S
C2677 C2667 1.723 . S
C2677 C2676 1.396 . S
C2677 C2678 1.394 . S
C2678 C2648 1.723 . S
C2678 C2674 1.397 . S
C2678 C2677 1.394 . S
C2679 H2651 0.982 . S
C2679 H2655 0.979 . S
C2679 H2656 0.977 . S
C2679 C2676 1.453 . S
C2680 H2652 0.979 . S
C2680 H2653 0.980 . S
C2680 H2654 0.983 . S
C2680 C2676 1.684 . S
H2681 C2699 0.948 . S
H2682 C2640 0.948 . S
H2683 C2658 0.979 . S
H2684 C2658 0.980 . S
H2685 C2658 0.983 . S
H2686 C2657 0.982 . S
H2687 C2657 0.979 . S
H2688 C2657 0.977 . S
H2689 C2659 0.948 . S
H2690 C2661 0.947 . S
H2691 C2662 0.948 . S
H2692 C2668 0.982 . S
H2693 C2668 0.979 . S
H2694 C2668 0.977 . S
H2695 C2669 0.979 . S
H2696 C2669 0.980 . S
H2697 C2669 0.983 . S
H2698 C2642 0.947 . S
C2699 C2642 1.392 . S
C2699 C2643 1.419 . S
C2699 H2681 0.948 . S
C2700 C2701 1.391 . S
C2700 C2704 1.391 . S
C2700 H2742 0.948 . S
C2701 C2700 1.391 . S
C2701 C2702 1.391 . S
C2702 C2701 1.391 . S
C2702 H2758 0.947 . S
C2702 C2759 1.392 . S
C2703 C2704 1.391 . S
C2703 C2707 1.397 . S
C2703 C2759 1.419 . S
C2704 C2700 1.391 . S
C2704 C2703 1.391 . S
C2704 C2705 1.399 . S
C2705 C2704 1.399 . S
C2705 C2708 1.396 . S
C2705 C2717 1.453 . S
C2705 C2718 1.684 . S
H2706 C2730 0.948 . S
C2707 C2703 1.397 . S
C2707 C2708 1.394 . S
C2707 C2726 1.723 . S
C2708 C2705 1.396 . S
C2708 C2707 1.394 . S
C2708 C2738 1.723 . S
H2709 C2732 0.947 . S
H2710 C2733 0.948 . S
H2711 C2739 0.982 . S
H2712 C2740 0.979 . S
H2713 C2740 0.980 . S
H2714 C2740 0.983 . S
H2715 C2739 0.979 . S
H2716 C2739 0.977 . S
C2717 C2705 1.453 . S
C2717 H2746 0.982 . S
C2717 H2747 0.979 . S
C2717 H2748 0.977 . S
C2718 C2705 1.684 . S
C2718 H2743 0.979 . S
C2718 H2744 0.980 . S
C2718 H2745 0.983 . S
C2719 C2720 1.391 . S
C2719 C2724 1.391 . S
C2719 H2749 0.948 . S
C2720 C2719 1.391 . S
C2720 C2721 1.391 . S
C2721 C2720 1.391 . S
C2721 C2722 1.392 . S
C2721 H2750 0.947 . S
C2722 C2721 1.392 . S
C2722 C2723 1.419 . S
C2722 H2751 0.948 . S
C2723 C2722 1.419 . S
C2723 C2724 1.391 . S
C2723 C2727 1.397 . S
C2724 C2719 1.391 . S
C2724 C2723 1.391 . S
C2724 C2725 1.399 . S
C2725 C2724 1.399 . S
C2725 C2726 1.396 . S
C2725 C2728 1.453 . S
C2725 C2729 1.684 . S
C2726 C2707 1.723 . S
C2726 C2725 1.396 . S
C2726 C2727 1.394 . S
C2727 C2723 1.397 . S
C2727 C2726 1.394 . S
C2727 C2737 1.723 . S
C2728 C2725 1.453 . S
C2728 H2752 0.982 . S
C2728 H2753 0.979 . S
C2728 H2754 0.977 . S
C2729 C2725 1.684 . S
C2729 H2755 0.979 . S
C2729 H2756 0.980 . S
C2729 H2757 0.983 . S
C2730 H2706 0.948 . S
C2730 C2731 1.391 . S
C2730 C2735 1.391 . S
C2731 C2730 1.391 . S
C2731 C2732 1.391 . S
C2732 H2709 0.947 . S
C2732 C2731 1.391 . S
C2732 C2733 1.392 . S
C2733 H2710 0.948 . S
C2733 C2732 1.392 . S
C2733 C2734 1.419 . S
C2734 C2733 1.419 . S
C2734 C2735 1.391 . S
C2734 C2738 1.397 . S
C2735 C2730 1.391 . S
C2735 C2734 1.391 . S
C2735 C2736 1.399 . S
C2736 C2735 1.399 . S
C2736 C2737 1.396 . S
C2736 C2739 1.453 . S
C2736 C2740 1.684 . S
C2737 C2727 1.723 . S
C2737 C2736 1.396 . S
C2737 C2738 1.394 . S
C2738 C2708 1.723 . S
C2738 C2734 1.397 . S
C2738 C2737 1.394 . S
C2739 H2711 0.982 . S
C2739 H2715 0.979 . S
C2739 H2716 0.977 . S
C2739 C2736 1.453 . S
C2740 H2712 0.979 . S
C2740 H2713 0.980 . S
C2740 H2714 0.983 . S
C2740 C2736 1.684 . S
H2741 C2759 0.948 . S
H2742 C2700 0.948 . S
H2743 C2718 0.979 . S
H2744 C2718 0.980 . S
H2745 C2718 0.983 . S
H2746 C2717 0.982 . S
H2747 C2717 0.979 . S
H2748 C2717 0.977 . S
H2749 C2719 0.948 . S
H2750 C2721 0.947 . S
H2751 C2722 0.948 . S
H2752 C2728 0.982 . S
H2753 C2728 0.979 . S
H2754 C2728 0.977 . S
H2755 C2729 0.979 . S
H2756 C2729 0.980 . S
H2757 C2729 0.983 . S
H2758 C2702 0.947 . S
C2759 C2702 1.392 . S
C2759 C2703 1.419 . S
C2759 H2741 0.948 . S
C2760 C2761 1.391 . S
C2760 C2764 1.391 . S
C2760 H2802 0.948 . S
C2761 C2760 1.391 . S
C2761 C2762 1.391 . S
C2762 C2761 1.391 . S
C2762 H2818 0.947 . S
C2762 C2819 1.392 . S
C2763 C2764 1.391 . S
C2763 C2767 1.397 . S
C2763 C2819 1.419 . S
C2764 C2760 1.391 . S
C2764 C2763 1.391 . S
C2764 C2765 1.399 . S
C2765 C2764 1.399 . S
C2765 C2768 1.396 . S
C2765 C2777 1.453 . S
C2765 C2778 1.684 . S
H2766 C2790 0.948 . S
C2767 C2763 1.397 . S
C2767 C2768 1.394 . S
C2767 C2786 1.723 . S
C2768 C2765 1.396 . S
C2768 C2767 1.394 . S
C2768 C2798 1.723 . S
H2769 C2792 0.947 . S
H2770 C2793 0.948 . S
H2771 C2799 0.982 . S
H2772 C2800 0.979 . S
H2773 C2800 0.980 . S
H2774 C2800 0.983 . S
H2775 C2799 0.979 . S
H2776 C2799 0.977 . S
C2777 C2765 1.453 . S
C2777 H2806 0.982 . S
C2777 H2807 0.979 . S
C2777 H2808 0.977 . S
C2778 C2765 1.684 . S
C2778 H2803 0.979 . S
C2778 H2804 0.980 . S
C2778 H2805 0.983 . S
C2779 C2780 1.391 . S
C2779 C2784 1.391 . S
C2779 H2809 0.948 . S
C2780 C2779 1.391 . S
C2780 C2781 1.391 . S
C2781 C2780 1.391 . S
C2781 C2782 1.392 . S
C2781 H2810 0.947 . S
C2782 C2781 1.392 . S
C2782 C2783 1.419 . S
C2782 H2811 0.948 . S
C2783 C2782 1.419 . S
C2783 C2784 1.391 . S
C2783 C2787 1.397 . S
C2784 C2779 1.391 . S
C2784 C2783 1.391 . S
C2784 C2785 1.399 . S
C2785 C2784 1.399 . S
C2785 C2786 1.396 . S
C2785 C2788 1.453 . S
C2785 C2789 1.684 . S
C2786 C2767 1.723 . S
C2786 C2785 1.396 . S
C2786 C2787 1.394 . S
C2787 C2783 1.397 . S
C2787 C2786 1.394 . S
C2787 C2797 1.723 . S
C2788 C2785 1.453 . S
C2788 H2812 0.982 . S
C2788 H2813 0.979 . S
C2788 H2814 0.977 . S
C2789 C2785 1.684 . S
C2789 H2815 0.979 . S
C2789 H2816 0.980 . S
C2789 H2817 0.983 . S
C2790 H2766 0.948 . S
C2790 C2791 1.391 . S
C2790 C2795 1.391 . S
C2791 C2790 1.391 . S
C2791 C2792 1.391 . S
C2792 H2769 0.947 . S
C2792 C2791 1.391 . S
C2792 C2793 1.392 . S
C2793 H2770 0.948 . S
C2793 C2792 1.392 . S
C2793 C2794 1.419 . S
C2794 C2793 1.419 . S
C2794 C2795 1.391 . S
C2794 C2798 1.397 . S
C2795 C2790 1.391 . S
C2795 C2794 1.391 . S
C2795 C2796 1.399 . S
C2796 C2795 1.399 . S
C2796 C2797 1.396 . S
C2796 C2799 1.453 . S
C2796 C2800 1.684 . S
C2797 C2787 1.723 . S
C2797 C2796 1.396 . S
C2797 C2798 1.394 . S
C2798 C2768 1.723 . S
C2798 C2794 1.397 . S
C2798 C2797 1.394 . S
C2799 H2771 0.982 . S
C2799 H2775 0.979 . S
C2799 H2776 0.977 . S
C2799 C2796 1.453 . S
C2800 H2772 0.979 . S
C2800 H2773 0.980 . S
C2800 H2774 0.983 . S
C2800 C2796 1.684 . S
H2801 C2819 0.948 . S
H2802 C2760 0.948 . S
H2803 C2778 0.979 . S
H2804 C2778 0.980 . S
H2805 C2778 0.983 . S
H2806 C2777 0.982 . S
H2807 C2777 0.979 . S
H2808 C2777 0.977 . S
H2809 C2779 0.948 . S
H2810 C2781 0.947 . S
H2811 C2782 0.948 . S
H2812 C2788 0.982 . S
H2813 C2788 0.979 . S
H2814 C2788 0.977 . S
H2815 C2789 0.979 . S
H2816 C2789 0.980 . S
H2817 C2789 0.983 . S
H2818 C2762 0.947 . S
C2819 C2762 1.392 . S
C2819 C2763 1.419 . S
C2819 H2801 0.948 . S
C2820 C2821 1.391 . S
C2820 C2824 1.391 . S
C2820 H2862 0.948 . S
C2821 C2820 1.391 . S
C2821 C2822 1.391 . S
C2822 C2821 1.391 . S
C2822 H2878 0.947 . S
C2822 C2879 1.392 . S
C2823 C2824 1.391 . S
C2823 C2827 1.397 . S
C2823 C2879 1.419 . S
C2824 C2820 1.391 . S
C2824 C2823 1.391 . S
C2824 C2825 1.399 . S
C2825 C2824 1.399 . S
C2825 C2828 1.396 . S
C2825 C2837 1.453 . S
C2825 C2838 1.684 . S
H2826 C2850 0.948 . S
C2827 C2823 1.397 . S
C2827 C2828 1.394 . S
C2827 C2846 1.723 . S
C2828 C2825 1.396 . S
C2828 C2827 1.394 . S
C2828 C2858 1.723 . S
H2829 C2852 0.947 . S
H2830 C2853 0.948 . S
H2831 C2859 0.982 . S
H2832 C2860 0.979 . S
H2833 C2860 0.980 . S
H2834 C2860 0.983 . S
H2835 C2859 0.979 . S
H2836 C2859 0.977 . S
C2837 C2825 1.453 . S
C2837 H2866 0.982 . S
C2837 H2867 0.979 . S
C2837 H2868 0.977 . S
C2838 C2825 1.684 . S
C2838 H2863 0.979 . S
C2838 H2864 0.980 . S
C2838 H2865 0.983 . S
C2839 C2840 1.391 . S
C2839 C2844 1.391 . S
C2839 H2869 0.948 . S
C2840 C2839 1.391 . S
C2840 C2841 1.391 . S
C2841 C2840 1.391 . S
C2841 C2842 1.392 . S
C2841 H2870 0.947 . S
C2842 C2841 1.392 . S
C2842 C2843 1.419 . S
C2842 H2871 0.948 . S
C2843 C2842 1.419 . S
C2843 C2844 1.391 . S
C2843 C2847 1.397 . S
C2844 C2839 1.391 . S
C2844 C2843 1.391 . S
C2844 C2845 1.399 . S
C2845 C2844 1.399 . S
C2845 C2846 1.396 . S
C2845 C2848 1.453 . S
C2845 C2849 1.684 . S
C2846 C2827 1.723 . S
C2846 C2845 1.396 . S
C2846 C2847 1.394 . S
C2847 C2843 1.397 . S
C2847 C2846 1.394 . S
C2847 C2857 1.723 . S
C2848 C2845 1.453 . S
C2848 H2872 0.982 . S
C2848 H2873 0.979 . S
C2848 H2874 0.977 . S
C2849 C2845 1.684 . S
C2849 H2875 0.979 . S
C2849 H2876 0.980 . S
C2849 H2877 0.983 . S
C2850 H2826 0.948 . S
C2850 C2851 1.391 . S
C2850 C2855 1.391 . S
C2851 C2850 1.391 . S
C2851 C2852 1.391 . S
C2852 H2829 0.947 . S
C2852 C2851 1.391 . S
C2852 C2853 1.392 . S
C2853 H2830 0.948 . S
C2853 C2852 1.392 . S
C2853 C2854 1.419 . S
C2854 C2853 1.419 . S
C2854 C2855 1.391 . S
C2854 C2858 1.397 . S
C2855 C2850 1.391 . S
C2855 C2854 1.391 . S
C2855 C2856 1.399 . S
C2856 C2855 1.399 . S
C2856 C2857 1.396 . S
C2856 C2859 1.453 . S
C2856 C2860 1.684 . S
C2857 C2847 1.723 . S
C2857 C2856 1.396 . S
C2857 C2858 1.394 . S
C2858 C2828 1.723 . S
C2858 C2854 1.397 . S
C2858 C2857 1.394 . S
C2859 H2831 0.982 . S
C2859 H2835 0.979 . S
C2859 H2836 0.977 . S
C2859 C2856 1.453 . S
C2860 H2832 0.979 . S
C2860 H2833 0.980 . S
C2860 H2834 0.983 . S
C2860 C2856 1.684 . S
H2861 C2879 0.948 . S
H2862 C2820 0.948 . S
H2863 C2838 0.979 . S
H2864 C2838 0.980 . S
H2865 C2838 0.983 . S
H2866 C2837 0.982 . S
H2867 C2837 0.979 . S
H2868 C2837 0.977 . S
H2869 C2839 0.948 . S
H2870 C2841 0.947 . S
H2871 C2842 0.948 . S
H2872 C2848 0.982 . S
H2873 C2848 0.979 . S
H2874 C2848 0.977 . S
H2875 C2849 0.979 . S
H2876 C2849 0.980 . S
H2877 C2849 0.983 . S
H2878 C2822 0.947 . S
C2879 C2822 1.392 . S
C2879 C2823 1.419 . S
C2879 H2861 0.948 . S
C2880 C2881 1.391 . S
C2880 C2884 1.391 . S
C2880 H2922 0.948 . S
C2881 C2880 1.391 . S
C2881 C2882 1.391 . S
C2882 C2881 1.391 . S
C2882 H2938 0.947 . S
C2882 C2939 1.392 . S
C2883 C2884 1.391 . S
C2883 C2887 1.397 . S
C2883 C2939 1.419 . S
C2884 C2880 1.391 . S
C2884 C2883 1.391 . S
C2884 C2885 1.399 . S
C2885 C2884 1.399 . S
C2885 C2888 1.396 . S
C2885 C2897 1.453 . S
C2885 C2898 1.684 . S
H2886 C2910 0.948 . S
C2887 C2883 1.397 . S
C2887 C2888 1.394 . S
C2887 C2906 1.723 . S
C2888 C2885 1.396 . S
C2888 C2887 1.394 . S
C2888 C2918 1.723 . S
H2889 C2912 0.947 . S
H2890 C2913 0.948 . S
H2891 C2919 0.982 . S
H2892 C2920 0.979 . S
H2893 C2920 0.980 . S
H2894 C2920 0.983 . S
H2895 C2919 0.979 . S
H2896 C2919 0.977 . S
C2897 C2885 1.453 . S
C2897 H2926 0.982 . S
C2897 H2927 0.979 . S
C2897 H2928 0.977 . S
C2898 C2885 1.684 . S
C2898 H2923 0.979 . S
C2898 H2924 0.980 . S
C2898 H2925 0.983 . S
C2899 C2900 1.391 . S
C2899 C2904 1.391 . S
C2899 H2929 0.948 . S
C2900 C2899 1.391 . S
C2900 C2901 1.391 . S
C2901 C2900 1.391 . S
C2901 C2902 1.392 . S
C2901 H2930 0.947 . S
C2902 C2901 1.392 . S
C2902 C2903 1.419 . S
C2902 H2931 0.948 . S
C2903 C2902 1.419 . S
C2903 C2904 1.391 . S
C2903 C2907 1.397 . S
C2904 C2899 1.391 . S
C2904 C2903 1.391 . S
C2904 C2905 1.399 . S
C2905 C2904 1.399 . S
C2905 C2906 1.396 . S
C2905 C2908 1.453 . S
C2905 C2909 1.684 . S
C2906 C2887 1.723 . S
C2906 C2905 1.396 . S
C2906 C2907 1.394 . S
C2907 C2903 1.397 . S
C2907 C2906 1.394 . S
C2907 C2917 1.723 . S
C2908 C2905 1.453 . S
C2908 H2932 0.982 . S
C2908 H2933 0.979 . S
C2908 H2934 0.977 . S
C2909 C2905 1.684 . S
C2909 H2935 0.979 . S
C2909 H2936 0.980 . S
C2909 H2937 0.983 . S
C2910 H2886 0.948 . S
C2910 C2911 1.391 . S
C2910 C2915 1.391 . S
C2911 C2910 1.391 . S
C2911 C2912 1.391 . S
C2912 H2889 0.947 . S
C2912 C2911 1.391 . S
C2912 C2913 1.392 . S
C2913 H2890 0.948 . S
C2913 C2912 1.392 . S
C2913 C2914 1.419 . S
C2914 C2913 1.419 . S
C2914 C2915 1.391 . S
C2914 C2918 1.397 . S
C2915 C2910 1.391 . S
C2915 C2914 1.391 . S
C2915 C2916 1.399 . S
C2916 C2915 1.399 . S
C2916 C2917 1.396 . S
C2916 C2919 1.453 . S
C2916 C2920 1.684 . S
C2917 C2907 1.723 . S
C2917 C2916 1.396 . S
C2917 C2918 1.394 . S
C2918 C2888 1.723 . S
C2918 C2914 1.397 . S
C2918 C2917 1.394 . S
C2919 H2891 0.982 . S
C2919 H2895 0.979 . S
C2919 H2896 0.977 . S
C2919 C2916 1.453 . S
C2920 H2892 0.979 . S
C2920 H2893 0.980 . S
C2920 H2894 0.983 . S
C2920 C2916 1.684 . S
H2921 C2939 0.948 . S
H2922 C2880 0.948 . S
H2923 C2898 0.979 . S
H2924 C2898 0.980 . S
H2925 C2898 0.983 . S
H2926 C2897 0.982 . S
H2927 C2897 0.979 . S
H2928 C2897 0.977 . S
H2929 C2899 0.948 . S
H2930 C2901 0.947 . S
H2931 C2902 0.948 . S
H2932 C2908 0.982 . S
H2933 C2908 0.979 . S
H2934 C2908 0.977 . S
H2935 C2909 0.979 . S
H2936 C2909 0.980 . S
H2937 C2909 0.983 . S
H2938 C2882 0.947 . S
C2939 C2882 1.392 . S
C2939 C2883 1.419 . S
C2939 H2921 0.948 . S
C2940 C2941 1.391 . S
C2940 C2944 1.391 . S
C2940 H2982 0.948 . S
C2941 C2940 1.391 . S
C2941 C2942 1.391 . S
C2942 C2941 1.391 . S
C2942 H2998 0.947 . S
C2942 C2999 1.392 . S
C2943 C2944 1.391 . S
C2943 C2947 1.397 . S
C2943 C2999 1.419 . S
C2944 C2940 1.391 . S
C2944 C2943 1.391 . S
C2944 C2945 1.399 . S
C2945 C2944 1.399 . S
C2945 C2948 1.396 . S
C2945 C2957 1.453 . S
C2945 C2958 1.684 . S
H2946 C2970 0.948 . S
C2947 C2943 1.397 . S
C2947 C2948 1.394 . S
C2947 C2966 1.723 . S
C2948 C2945 1.396 . S
C2948 C2947 1.394 . S
C2948 C2978 1.723 . S
H2949 C2972 0.947 . S
H2950 C2973 0.948 . S
H2951 C2979 0.982 . S
H2952 C2980 0.979 . S
H2953 C2980 0.980 . S
H2954 C2980 0.983 . S
H2955 C2979 0.979 . S
H2956 C2979 0.977 . S
C2957 C2945 1.453 . S
C2957 H2986 0.982 . S
C2957 H2987 0.979 . S
C2957 H2988 0.977 . S
C2958 C2945 1.684 . S
C2958 H2983 0.979 . S
C2958 H2984 0.980 . S
C2958 H2985 0.983 . S
C2959 C2960 1.391 . S
C2959 C2964 1.391 . S
C2959 H2989 0.948 . S
C2960 C2959 1.391 . S
C2960 C2961 1.391 . S
C2961 C2960 1.391 . S
C2961 C2962 1.392 . S
C2961 H2990 0.947 . S
C2962 C2961 1.392 . S
C2962 C2963 1.419 . S
C2962 H2991 0.948 . S
C2963 C2962 1.419 . S
C2963 C2964 1.391 . S
C2963 C2967 1.397 . S
C2964 C2959 1.391 . S
C2964 C2963 1.391 . S
C2964 C2965 1.399 . S
C2965 C2964 1.399 . S
C2965 C2966 1.396 . S
C2965 C2968 1.453 . S
C2965 C2969 1.684 . S
C2966 C2947 1.723 . S
C2966 C2965 1.396 . S
C2966 C2967 1.394 . S
C2967 C2963 1.397 . S
C2967 C2966 1.394 . S
C2967 C2977 1.723 . S
C2968 C2965 1.453 . S
C2968 H2992 0.982 . S
C2968 H2993 0.979 . S
C2968 H2994 0.977 . S
C2969 C2965 1.684 . S
C2969 H2995 0.979 . S
C2969 H2996 0.980 . S
C2969 H2997 0.983 . S
C2970 H2946 0.948 . S
C2970 C2971 1.391 . S
C2970 C2975 1.391 . S
C2971 C2970 1.391 . S
C2971 C2972 1.391 . S
C2972 H2949 0.947 . S
C2972 C2971 1.391 . S
C2972 C2973 1.392 . S
C2973 H2950 0.948 . S
C2973 C2972 1.392 . S
C2973 C2974 1.419 . S
C2974 C2973 1.419 . S
C2974 C2975 1.391 . S
C2974 C2978 1.397 . S
C2975 C2970 1.391 . S
C2975 C2974 1.391 . S
C2975 C2976 1.399 . S
C2976 C2975 1.399 . S
C2976 C2977 1.396 . S
C2976 C2979 1.453 . S
C2976 C2980 1.684 . S
C2977 C2967 1.723 . S
C2977 C2976 1.396 . S
C2977 C2978 1.394 . S
C2978 C2948 1.723 . S
C2978 C2974 1.397 . S
C2978 C2977 1.394 . S
C2979 H2951 0.982 . S
C2979 H2955 0.979 . S
C2979 H2956 0.977 . S
C2979 C2976 1.453 . S
C2980 H2952 0.979 . S
C2980 H2953 0.980 . S
C2980 H2954 0.983 . S
C2980 C2976 1.684 . S
H2981 C2999 0.948 . S
H2982 C2940 0.948 . S
H2983 C2958 0.979 . S
H2984 C2958 0.980 . S
H2985 C2958 0.983 . S
H2986 C2957 0.982 . S
H2987 C2957 0.979 . S
H2988 C2957 0.977 . S
H2989 C2959 0.948 . S
H2990 C2961 0.947 . S
H2991 C2962 0.948 . S
H2992 C2968 0.982 . S
H2993 C2968 0.979 . S
H2994 C2968 0.977 . S
H2995 C2969 0.979 . S
H2996 C2969 0.980 . S
H2997 C2969 0.983 . S
H2998 C2942 0.947 . S
C2999 C2942 1.392 . S
C2999 C2943 1.419 . S
C2999 H2981 0.948 . S
C3000 C3001 1.391 . S
C3000 C3004 1.391 . S
C3000 H3042 0.948 . S
C3001 C3000 1.391 . S
C3001 C3002 1.391 . S
C3002 C3001 1.391 . S
C3002 H3058 0.947 . S
C3002 C3059 1.392 . S
C3003 C3004 1.391 . S
C3003 C3007 1.397 . S
C3003 C3059 1.419 . S
C3004 C3000 1.391 . S
C3004 C3003 1.391 . S
C3004 C3005 1.399 . S
C3005 C3004 1.399 . S
C3005 C3008 1.396 . S
C3005 C3017 1.453 . S
C3005 C3018 1.684 . S
H3006 C3030 0.948 . S
C3007 C3003 1.397 . S
C3007 C3008 1.394 . S
C3007 C3026 1.723 . S
C3008 C3005 1.396 . S
C3008 C3007 1.394 . S
C3008 C3038 1.723 . S
H3009 C3032 0.947 . S
H3010 C3033 0.948 . S
H3011 C3039 0.982 . S
H3012 C3040 0.979 . S
H3013 C3040 0.980 . S
H3014 C3040 0.983 . S
H3015 C3039 0.979 . S
H3016 C3039 0.977 . S
C3017 C3005 1.453 . S
C3017 H3046 0.982 . S
C3017 H3047 0.979 . S
C3017 H3048 0.977 . S
C3018 C3005 1.684 . S
C3018 H3043 0.979 . S
C3018 H3044 0.980 . S
C3018 H3045 0.983 . S
C3019 C3020 1.391 . S
C3019 C3024 1.391 . S
C3019 H3049 0.948 . S
C3020 C3019 1.391 . S
C3020 C3021 1.391 . S
C3021 C3020 1.391 . S
C3021 C3022 1.392 . S
C3021 H3050 0.947 . S
C3022 C3021 1.392 . S
C3022 C3023 1.419 . S
C3022 H3051 0.948 . S
C3023 C3022 1.419 . S
C3023 C3024 1.391 . S
C3023 C3027 1.397 . S
C3024 C3019 1.391 . S
C3024 C3023 1.391 . S
C3024 C3025 1.399 . S
C3025 C3024 1.399 . S
C3025 C3026 1.396 . S
C3025 C3028 1.453 . S
C3025 C3029 1.684 . S
C3026 C3007 1.723 . S
C3026 C3025 1.396 . S
C3026 C3027 1.394 . S
C3027 C3023 1.397 . S
C3027 C3026 1.394 . S
C3027 C3037 1.723 . S
C3028 C3025 1.453 . S
C3028 H3052 0.982 . S
C3028 H3053 0.979 . S
C3028 H3054 0.977 . S
C3029 C3025 1.684 . S
C3029 H3055 0.979 . S
C3029 H3056 0.980 . S
C3029 H3057 0.983 . S
C3030 H3006 0.948 . S
C3030 C3031 1.391 . S
C3030 C3035 1.391 . S
C3031 C3030 1.391 . S
C3031 C3032 1.391 . S
C3032 H3009 0.947 . S
C3032 C3031 1.391 . S
C3032 C3033 1.392 . S
C3033 H3010 0.948 . S
C3033 C3032 1.392 . S
C3033 C3034 1.419 . S
C3034 C3033 1.419 . S
C3034 C3035 1.391 . S
C3034 C3038 1.397 . S
C3035 C3030 1.391 . S
C3035 C3034 1.391 . S
C3035 C3036 1.399 . S
C3036 C3035 1.399 . S
C3036 C3037 1.396 . S
C3036 C3039 1.453 . S
C3036 C3040 1.684 . S
C3037 C3027 1.723 . S
C3037 C3036 1.396 . S
C3037 C3038 1.394 . S
C3038 C3008 1.723 . S
C3038 C3034 1.397 . S
C3038 C3037 1.394 . S
C3039 H3011 0.982 . S
C3039 H3015 0.979 . S
C3039 H3016 0.977 . S
C3039 C3036 1.453 . S
C3040 H3012 0.979 . S
C3040 H3013 0.980 . S
C3040 H3014 0.983 . S
C3040 C3036 1.684 . S
H3041 C3059 0.948 . S
H3042 C3000 0.948 . S
H3043 C3018 0.979 . S
H3044 C3018 0.980 . S
H3045 C3018 0.983 . S
H3046 C3017 0.982 . S
H3047 C3017 0.979 . S
H3048 C3017 0.977 . S
H3049 C3019 0.948 . S
H3050 C3021 0.947 . S
H3051 C3022 0.948 . S
H3052 C3028 0.982 . S
H3053 C3028 0.979 . S
H3054 C3028 0.977 . S
H3055 C3029 0.979 . S
H3056 C3029 0.980 . S
H3057 C3029 0.983 . S
H3058 C3002 0.947 . S
C3059 C3002 1.392 . S
C3059 C3003 1.419 . S
C3059 H3041 0.948 . S
C3060 C3061 1.391 . S
C3060 C3064 1.391 . S
C3060 H3102 0.948 . S
C3061 C3060 1.391 . S
C3061 C3062 1.391 . S
C3062 C3061 1.391 . S
C3062 H3118 0.947 . S
C3062 C3119 1.392 . S
C3063 C3064 1.391 . S
C3063 C3067 1.397 . S
C3063 C3119 1.419 . S
C3064 C3060 1.391 . S
C3064 C3063 1.391 . S
C3064 C3065 1.399 . S
C3065 C3064 1.399 . S
C3065 C3068 1.396 . S
C3065 C3077 1.453 . S
C3065 C3078 1.684 . S
H3066 C3090 0.948 . S
C3067 C3063 1.397 . S
C3067 C3068 1.394 . S
C3067 C3086 1.723 . S
C3068 C3065 1.396 . S
C3068 C3067 1.394 . S
C3068 C3098 1.723 . S
H3069 C3092 0.947 . S
H3070 C3093 0.948 . S
H3071 C3099 0.982 . S
H3072 C3100 0.979 . S
H3073 C3100 0.980 . S
H3074 C3100 0.983 . S
H3075 C3099 0.979 . S
H3076 C3099 0.977 . S
C3077 C3065 1.453 . S
C3077 H3106 0.982 . S
C3077 H3107 0.979 . S
C3077 H3108 0.977 . S
C3078 C3065 1.684 . S
C3078 H3103 0.979 . S
C3078 H3104 0.980 . S
C3078 H3105 0.983 . S
C3079 C3080 1.391 . S
C3079 C3084 1.391 . S
C3079 H3109 0.948 . S
C3080 C3079 1.391 . S
C3080 C3081 1.391 . S
C3081 C3080 1.391 . S
C3081 C3082 1.392 . S
C3081 H3110 0.947 . S
C3082 C3081 1.392 . S
C3082 C3083 1.419 . S
C3082 H3111 0.948 . S
C3083 C3082 1.419 . S
C3083 C3084 1.391 . S
C3083 C3087 1.397 . S
C3084 C3079 1.391 . S
C3084 C3083 1.391 . S
C3084 C3085 1.399 . S
C3085 C3084 1.399 . S
C3085 C3086 1.396 . S
C3085 C3088 1.453 . S
C3085 C3089 1.684 . S
C3086 C3067 1.723 . S
C3086 C3085 1.396 . S
C3086 C3087 1.394 . S
C3087 C3083 1.397 . S
C3087 C3086 1.394 . S
C3087 C3097 1.723 . S
C3088 C3085 1.453 . S
C3088 H3112 0.982 . S
C3088 H3113 0.979 . S
C3088 H3114 0.977 . S
C3089 C3085 1.684 . S
C3089 H3115 0.979 . S
C3089 H3116 0.980 . S
C3089 H3117 0.983 . S
C3090 H3066 0.948 . S
C3090 C3091 1.391 . S
C3090 C3095 1.391 . S
C3091 C3090 1.391 . S
C3091 C3092 1.391 . S
C3092 H3069 0.947 . S
C3092 C3091 1.391 . S
C3092 C3093 1.392 . S
C3093 H3070 0.948 . S
C3093 C3092 1.392 . S
C3093 C3094 1.419 . S
C3094 C3093 1.419 . S
C3094 C3095 1.391 . S
C3094 C3098 1.397 . S
C3095 C3090 1.391 . S
C3095 C3094 1.391 . S
C3095 C3096 1.399 . S
C3096 C3095 1.399 . S
C3096 C3097 1.396 . S
C3096 C3099 1.453 . S
C3096 C3100 1.684 . S
C3097 C3087 1.723 . S
C3097 C3096 1.396 . S
C3097 C3098 1.394 . S
C3098 C3068 1.723 . S
C3098 C3094 1.397 . S
C3098 C3097 1.394 . S
C3099 H3071 0.982 . S
C3099 H3075 0.979 . S
C3099 H3076 0.977 . S
C3099 C3096 1.453 . S
C3100 H3072 0.979 . S
C3100 H3073 0.980 . S
C3100 H3074 0.983 . S
C3100 C3096 1.684 . S
H3101 C3119 0.948 . S
H3102 C3060 0.948 . S
H3103 C3078 0.979 . S
H3104 C3078 0.980 . S
H3105 C3078 0.983 . S
H3106 C3077 0.982 . S
H3107 C3077 0.979 . S
H3108 C3077 0.977 . S
H3109 C3079 0.948 . S
H3110 C3081 0.947 . S
H3111 C3082 0.948 . S
H3112 C3088 0.982 . S
H3113 C3088 0.979 . S
H3114 C3088 0.977 . S
H3115 C3089 0.979 . S
H3116 C3089 0.980 . S
H3117 C3089 0.983 . S
H3118 C3062 0.947 . S
C3119 C3062 1.392 . S
C3119 C3063 1.419 . S
C3119 H3101 0.948 . S
C3120 C3121 1.391 . S
C3120 C3124 1.391 . S
C3120 H3162 0.948 . S
C3121 C3120 1.391 . S
C3121 C3122 1.391 . S
C3122 C3121 1.391 . S
C3122 H3178 0.947 . S
C3122 C3179 1.392 . S
C3123 C3124 1.391 . S
C3123 C3127 1.397 . S
C3123 C3179 1.419 . S
C3124 C3120 1.391 . S
C3124 C3123 1.391 . S
C3124 C3125 1.399 . S
C3125 C3124 1.399 . S
C3125 C3128 1.396 . S
C3125 C3137 1.453 . S
C3125 C3138 1.684 . S
H3126 C3150 0.948 . S
C3127 C3123 1.397 . S
C3127 C3128 1.394 . S
C3127 C3146 1.723 . S
C3128 C3125 1.396 . S
C3128 C3127 1.394 . S
C3128 C3158 1.723 . S
H3129 C3152 0.947 . S
H3130 C3153 0.948 . S
H3131 C3159 0.982 . S
H3132 C3160 0.979 . S
H3133 C3160 0.980 . S
H3134 C3160 0.983 . S
H3135 C3159 0.979 . S
H3136 C3159 0.977 . S
C3137 C3125 1.453 . S
C3137 H3166 0.982 . S
C3137 H3167 0.979 . S
C3137 H3168 0.977 . S
C3138 C3125 1.684 . S
C3138 H3163 0.979 . S
C3138 H3164 0.980 . S
C3138 H3165 0.983 . S
C3139 C3140 1.391 . S
C3139 C3144 1.391 . S
C3139 H3169 0.948 . S
C3140 C3139 1.391 . S
C3140 C3141 1.391 . S
C3141 C3140 1.391 . S
C3141 C3142 1.392 . S
C3141 H3170 0.947 . S
C3142 C3141 1.392 . S
C3142 C3143 1.419 . S
C3142 H3171 0.948 . S
C3143 C3142 1.419 . S
C3143 C3144 1.391 . S
C3143 C3147 1.397 . S
C3144 C3139 1.391 . S
C3144 C3143 1.391 . S
C3144 C3145 1.399 . S
C3145 C3144 1.399 . S
C3145 C3146 1.396 . S
C3145 C3148 1.453 . S
C3145 C3149 1.684 . S
C3146 C3127 1.723 . S
C3146 C3145 1.396 . S
C3146 C3147 1.394 . S
C3147 C3143 1.397 . S
C3147 C3146 1.394 . S
C3147 C3157 1.723 . S
C3148 C3145 1.453 . S
C3148 H3172 0.982 . S
C3148 H3173 0.979 . S
C3148 H3174 0.977 . S
C3149 C3145 1.684 . S
C3149 H3175 0.979 . S
C3149 H3176 0.980 . S
C3149 H3177 0.983 . S
C3150 H3126 0.948 . S
C3150 C3151 1.391 . S
C3150 C3155 1.391 . S
C3151 C3150 1.391 . S
C3151 C3152 1.391 . S
C3152 H3129 0.947 . S
C3152 C3151 1.391 . S
C3152 C3153 1.392 . S
C3153 H3130 0.948 . S
C3153 C3152 1.392 . S
C3153 C3154 1.419 . S
C3154 C3153 1.419 . S
C3154 C3155 1.391 . S
C3154 C3158 1.397 . S
C3155 C3150 1.391 . S
C3155 C3154 1.391 . S
C3155 C3156 1.399 . S
C3156 C3155 1.399 . S
C3156 C3157 1.396 . S
C3156 C3159 1.453 . S
C3156 C3160 1.684 . S
C3157 C3147 1.723 . S
C3157 C3156 1.396 . S
C3157 C3158 1.394 . S
C3158 C3128 1.723 . S
C3158 C3154 1.397 . S
C3158 C3157 1.394 . S
C3159 H3131 0.982 . S
C3159 H3135 0.979 . S
C3159 H3136 0.977 . S
C3159 C3156 1.453 . S
C3160 H3132 0.979 . S
C3160 H3133 0.980 . S
C3160 H3134 0.983 . S
C3160 C3156 1.684 . S
H3161 C3179 0.948 . S
H3162 C3120 0.948 . S
H3163 C3138 0.979 . S
H3164 C3138 0.980 . S
H3165 C3138 0.983 . S
H3166 C3137 0.982 . S
H3167 C3137 0.979 . S
H3168 C3137 0.977 . S
H3169 C3139 0.948 . S
H3170 C3141 0.947 . S
H3171 C3142 0.948 . S
H3172 C3148 0.982 . S
H3173 C3148 0.979 . S
H3174 C3148 0.977 . S
H3175 C3149 0.979 . S
H3176 C3149 0.980 . S
H3177 C3149 0.983 . S
H3178 C3122 0.947 . S
C3179 C3122 1.392 . S
C3179 C3123 1.419 . S
C3179 H3161 0.948 . S
C3180 C3181 1.391 . S
C3180 C3184 1.391 . S
C3180 H3222 0.948 . S
C3181 C3180 1.391 . S
C3181 C3182 1.391 . S
C3182 C3181 1.391 . S
C3182 H3238 0.947 . S
C3182 C3239 1.392 . S
C3183 C3184 1.391 . S
C3183 C3187 1.397 . S
C3183 C3239 1.419 . S
C3184 C3180 1.391 . S
C3184 C3183 1.391 . S
C3184 C3185 1.399 . S
C3185 C3184 1.399 . S
C3185 C3188 1.396 . S
C3185 C3197 1.453 . S
C3185 C3198 1.684 . S
H3186 C3210 0.948 . S
C3187 C3183 1.397 . S
C3187 C3188 1.394 . S
C3187 C3206 1.723 . S
C3188 C3185 1.396 . S
C3188 C3187 1.394 . S
C3188 C3218 1.723 . S
H3189 C3212 0.947 . S
H3190 C3213 0.948 . S
H3191 C3219 0.982 . S
H3192 C3220 0.979 . S
H3193 C3220 0.980 . S
H3194 C3220 0.983 . S
H3195 C3219 0.979 . S
H3196 C3219 0.977 . S
C3197 C3185 1.453 . S
C3197 H3226 0.982 . S
C3197 H3227 0.979 . S
C3197 H3228 0.977 . S
C3198 C3185 1.684 . S
C3198 H3223 0.979 . S
C3198 H3224 0.980 . S
C3198 H3225 0.983 . S
C3199 C3200 1.391 . S
C3199 C3204 1.391 . S
C3199 H3229 0.948 . S
C3200 C3199 1.391 . S
C3200 C3201 1.391 . S
C3201 C3200 1.391 . S
C3201 C3202 1.392 . S
C3201 H3230 0.947 . S
C3202 C3201 1.392 . S
C3202 C3203 1.419 . S
C3202 H3231 0.948 . S
C3203 C3202 1.419 . S
C3203 C3204 1.391 . S
C3203 C3207 1.397 . S
C3204 C3199 1.391 . S
C3204 C3203 1.391 . S
C3204 C3205 1.399 . S
C3205 C3204 1.399 . S
C3205 C3206 1.396 . S
C3205 C3208 1.453 . S
C3205 C3209 1.684 . S
C3206 C3187 1.723 . S
C3206 C3205 1.396 . S
C3206 C3207 1.394 . S
C3207 C3203 1.397 . S
C3207 C3206 1.394 . S
C3207 C3217 1.723 . S
C3208 C3205 1.453 . S
C3208 H3232 0.982 . S
C3208 H3233 0.979 . S
C3208 H3234 0.977 . S
C3209 C3205 1.684 . S
C3209 H3235 0.979 . S
C3209 H3236 0.980 . S
C3209 H3237 0.983 . S
C3210 H3186 0.948 . S
C3210 C3211 1.391 . S
C3210 C3215 1.391 . S
C3211 C3210 1.391 . S
C3211 C3212 1.391 . S
C3212 H3189 0.947 . S
C3212 C3211 1.391 . S
C3212 C3213 1.392 . S
C3213 H3190 0.948 . S
C3213 C3212 1.392 . S
C3213 C3214 1.419 . S
C3214 C3213 1.419 . S
C3214 C3215 1.391 . S
C3214 C3218 1.397 . S
C3215 C3210 1.391 . S
C3215 C3214 1.391 . S
C3215 C3216 1.399 . S
C3216 C3215 1.399 . S
C3216 C3217 1.396 . S
C3216 C3219 1.453 . S
C3216 C3220 1.684 . S
C3217 C3207 1.723 . S
C3217 C3216 1.396 . S
C3217 C3218 1.394 . S
C3218 C3188 1.723 . S
C3218 C3214 1.397 . S
C3218 C3217 1.394 . S
C3219 H3191 0.982 . S
C3219 H3195 0.979 . S
C3219 H3196 0.977 . S
C3219 C3216 1.453 . S
C3220 H3192 0.979 . S
C3220 H3193 0.980 . S
C3220 H3194 0.983 . S
C3220 C3216 1.684 . S
H3221 C3239 0.948 . S
H3222 C3180 0.948 . S
H3223 C3198 0.979 . S
H3224 C3198 0.980 . S
H3225 C3198 0.983 . S
H3226 C3197 0.982 . S
H3227 C3197 0.979 . S
H3228 C3197 0.977 . S
H3229 C3199 0.948 . S
H3230 C3201 0.947 . S
H3231 C3202 0.948 . S
H3232 C3208 0.982 . S
H3233 C3208 0.979 . S
H3234 C3208 0.977 . S
H3235 C3209 0.979 . S
H3236 C3209 0.980 . S
H3237 C3209 0.983 . S
H3238 C3182 0.947 . S
C3239 C3182 1.392 . S
C3239 C3183 1.419 . S
C3239 H3221 0.948 . S
C3240 C3241 1.391 . S
C3240 C3244 1.391 . S
C3240 H3282 0.948 . S
C3241 C3240 1.391 . S
C3241 C3242 1.391 . S
C3242 C3241 1.391 . S
C3242 H3298 0.947 . S
C3242 C3299 1.392 . S
C3243 C3244 1.391 . S
C3243 C3247 1.397 . S
C3243 C3299 1.419 . S
C3244 C3240 1.391 . S
C3244 C3243 1.391 . S
C3244 C3245 1.399 . S
C3245 C3244 1.399 . S
C3245 C3248 1.396 . S
C3245 C3257 1.453 . S
C3245 C3258 1.684 . S
H3246 C3270 0.948 . S
C3247 C3243 1.397 . S
C3247 C3248 1.394 . S
C3247 C3266 1.723 . S
C3248 C3245 1.396 . S
C3248 C3247 1.394 . S
C3248 C3278 1.723 . S
H3249 C3272 0.947 . S
H3250 C3273 0.948 . S
H3251 C3279 0.982 . S
H3252 C3280 0.979 . S
H3253 C3280 0.980 . S
H3254 C3280 0.983 . S
H3255 C3279 0.979 . S
H3256 C3279 0.977 . S
C3257 C3245 1.453 . S
C3257 H3286 0.982 . S
C3257 H3287 0.979 . S
C3257 H3288 0.977 . S
C3258 C3245 1.684 . S
C3258 H3283 0.979 . S
C3258 H3284 0.980 . S
C3258 H3285 0.983 . S
C3259 C3260 1.391 . S
C3259 C3264 1.391 . S
C3259 H3289 0.948 . S
C3260 C3259 1.391 . S
C3260 C3261 1.391 . S
C3261 C3260 1.391 . S
C3261 C3262 1.392 . S
C3261 H3290 0.947 . S
C3262 C3261 1.392 . S
C3262 C3263 1.419 . S
C3262 H3291 0.948 . S
C3263 C3262 1.419 . S
C3263 C3264 1.391 . S
C3263 C3267 1.397 . S
C3264 C3259 1.391 . S
C3264 C3263 1.391 . S
C3264 C3265 1.399 . S
C3265 C3264 1.399 . S
C3265 C3266 1.396 . S
C3265 C3268 1.453 . S
C3265 C3269 1.684 . S
C3266 C3247 1.723 . S
C3266 C3265 1.396 . S
C3266 C3267 1.394 . S
C3267 C3263 1.397 . S
C3267 C3266 1.394 . S
C3267 C3277 1.723 . S
C3268 C3265 1.453 . S
C3268 H3292 0.982 . S
C3268 H3293 0.979 . S
C3268 H3294 0.977 . S
C3269 C3265 1.684 . S
C3269 H3295 0.979 . S
C3269 H3296 0.980 . S
C3269 H3297 0.983 . S
C3270 H3246 0.948 . S
C3270 C3271 1.391 . S
C3270 C3275 1.391 . S
C3271 C3270 1.391 . S
C3271 C3272 1.391 . S
C3272 H3249 0.947 . S
C3272 C3271 1.391 . S
C3272 C3273 1.392 . S
C3273 H3250 0.948 . S
C3273 C3272 1.392 . S
C3273 C3274 1.419 . S
C3274 C3273 1.419 . S
C3274 C3275 1.391 . S
C3274 C3278 1.397 . S
C3275 C3270 1.391 . S
C3275 C3274 1.391 . S
C3275 C3276 1.399 . S
C3276 C3275 1.399 . S
C3276 C3277 1.396 . S
C3276 C3279 1.453 . S
C3276 C3280 1.684 . S
C3277 C3267 1.723 . S
C3277 C3276 1.396 . S
C3277 C3278 1.394 . S
C3278 C3248 1.723 . S
C3278 C3274 1.397 . S
C3278 C3277 1.394 . S
C3279 H3251 0.982 . S
C3279 H3255 0.979 . S
C3279 H3256 0.977 . S
C3279 C3276 1.453 . S
C3280 H3252 0.979 . S
C3280 H3253 0.980 . S
C3280 H3254 0.983 . S
C3280 C3276 1.684 . S
H3281 C3299 0.948 . S
H3282 C3240 0.948 . S
H3283 C3258 0.979 . S
H3284 C3258 0.980 . S
H3285 C3258 0.983 . S
H3286 C3257 0.982 . S
H3287 C3257 0.979 . S
H3288 C3257 0.977 . S
H3289 C3259 0.948 . S
H3290 C3261 0.947 . S
H3291 C3262 0.948 . S
H3292 C3268 0.982 . S
H3293 C3268 0.979 . S
H3294 C3268 0.977 . S
H3295 C3269 0.979 . S
H3296 C3269 0.980 . S
H3297 C3269 0.983 . S
H3298 C3242 0.947 . S
C3299 C3242 1.392 . S
C3299 C3243 1.419 . S
C3299 H3281 0.948 . S
C3300 C3301 1.391 . S
C3300 C3304 1.391 . S
C3300 H3342 0.948 . S
C3301 C3300 1.391 . S
C3301 C3302 1.391 . S
C3302 C3301 1.391 . S
C3302 H3358 0.947 . S
C3302 C3359 1.392 . S
C3303 C3304 1.391 . S
C3303 C3307 1.397 . S
C3303 C3359 1.419 . S
C3304 C3300 1.391 . S
C3304 C3303 1.391 . S
C3304 C3305 1.399 . S
C3305 C3304 1.399 . S
C3305 C3308 1.396 . S
C3305 C3317 1.453 . S
C3305 C3318 1.684 . S
H3306 C3330 0.948 . S
C3307 C3303 1.397 . S
C3307 C3308 1.394 . S
C3307 C3326 1.723 . S
C3308 C3305 1.396 . S
C3308 C3307 1.394 . S
C3308 C3338 1.723 . S
H3309 C3332 0.947 . S
H3310 C3333 0.948 . S
H3311 C3339 0.982 . S
H3312 C3340 0.979 . S
H3313 C3340 0.980 . S
H3314 C3340 0.983 . S
H3315 C3339 0.979 . S
H3316 C3339 0.977 . S
C3317 C3305 1.453 . S
C3317 H3346 0.982 . S
C3317 H3347 0.979 . S
C3317 H3348 0.977 . S
C3318 C3305 1.684 . S
C3318 H3343 0.979 . S
C3318 H3344 0.980 . S
C3318 H3345 0.983 . S
C3319 C3320 1.391 . S
C3319 C3324 1.391 . S
C3319 H3349 0.948 . S
C3320 C3319 1.391 . S
C3320 C3321 1.391 . S
C3321 C3320 1.391 . S
C3321 C3322 1.392 . S
C3321 H3350 0.947 . S
C3322 C3321 1.392 . S
C3322 C3323 1.419 . S
C3322 H3351 0.948 . S
C3323 C3322 1.419 . S
C3323 C3324 1.391 . S
C3323 C3327 1.397 . S
C3324 C3319 1.391 . S
C3324 C3323 1.391 . S
C3324 C3325 1.399 . S
C3325 C3324 1.399 . S
C3325 C3326 1.396 . S
C3325 C3328 1.453 . S
C3325 C3329 1.684 . S
C3326 C3307 1.723 . S
C3326 C3325 1.396 . S
C3326 C3327 1.394 . S
C3327 C3323 1.397 . S
C3327 C3326 1.394 . S
C3327 C3337 1.723 . S
C3328 C3325 1.453 . S
C3328 H3352 0.982 . S
C3328 H3353 0.979 . S
C3328 H3354 0.977 . S
C3329 C3325 1.684 . S
C3329 H3355 0.979 . S
C3329 H3356 0.980 . S
C3329 H3357 0.983 . S
C3330 H3306 0.948 . S
C3330 C3331 1.391 . S
C3330 C3335 1.391 . S
C3331 C3330 1.391 . S
C3331 C3332 1.391 . S
C3332 H3309 0.947 . S
C3332 C3331 1.391 . S
C3332 C3333 1.392 . S
C3333 H3310 0.948 . S
C3333 C3332 1.392 . S
C3333 C3334 1.419 . S
C3334 C3333 1.419 . S
C3334 C3335 1.391 . S
C3334 C3338 1.397 . S
C3335 C3330 1.391 . S
C3335 C3334 1.391 . S
C3335 C3336 1.399 . S
C3336 C3335 1.399 . S
C3336 C3337 1.396 . S
C3336 C3339 1.453 . S
C3336 C3340 1.684 . S
C3337 C3327 1.723 . S
C3337 C3336 1.396 . S
C3337 C3338 1.394 . S
C3338 C3308 1.723 . S
C3338 C3334 1.397 . S
C3338 C3337 1.394 . S
C3339 H3311 0.982 . S
C3339 H3315 0.979 . S
C3339 H3316 0.977 . S
C3339 C3336 1.453 . S
C3340 H3312 0.979 . S
C3340 H3313 0.980 . S
C3340 H3314 0.983 . S
C3340 C3336 1.684 . S
H3341 C3359 0.948 . S
H3342 C3300 0.948 . S
H3343 C3318 0.979 . S
H3344 C3318 0.980 . S
H3345 C3318 0.983 . S
H3346 C3317 0.982 . S
H3347 C3317 0.979 . S
H3348 C3317 0.977 . S
H3349 C3319 0.948 . S
H3350 C3321 0.947 . S
H3351 C3322 0.948 . S
H3352 C3328 0.982 . S
H3353 C3328 0.979 . S
H3354 C3328 0.977 . S
H3355 C3329 0.979 . S
H3356 C3329 0.980 . S
H3357 C3329 0.983 . S
H3358 C3302 0.947 . S
C3359 C3302 1.392 . S
C3359 C3303 1.419 . S
C3359 H3341 0.948 . S
C3360 C3361 1.391 . S
C3360 C3364 1.391 . S
C3360 H3402 0.948 . S
C3361 C3360 1.391 . S
C3361 C3362 1.391 . S
C3362 C3361 1.391 . S
C3362 H3418 0.947 . S
C3362 C3419 1.392 . S
C3363 C3364 1.391 . S
C3363 C3367 1.397 . S
C3363 C3419 1.419 . S
C3364 C3360 1.391 . S
C3364 C3363 1.391 . S
C3364 C3365 1.399 . S
C3365 C3364 1.399 . S
C3365 C3368 1.396 . S
C3365 C3377 1.453 . S
C3365 C3378 1.684 . S
H3366 C3390 0.948 . S
C3367 C3363 1.397 . S
C3367 C3368 1.394 . S
C3367 C3386 1.723 . S
C3368 C3365 1.396 . S
C3368 C3367 1.394 . S
C3368 C3398 1.723 . S
H3369 C3392 0.947 . S
H3370 C3393 0.948 . S
H3371 C3399 0.982 . S
H3372 C3400 0.979 . S
H3373 C3400 0.980 . S
H3374 C3400 0.983 . S
H3375 C3399 0.979 . S
H3376 C3399 0.977 . S
C3377 C3365 1.453 . S
C3377 H3406 0.982 . S
C3377 H3407 0.979 . S
C3377 H3408 0.977 . S
C3378 C3365 1.684 . S
C3378 H3403 0.979 . S
C3378 H3404 0.980 . S
C3378 H3405 0.983 . S
C3379 C3380 1.391 . S
C3379 C3384 1.391 . S
C3379 H3409 0.948 . S
C3380 C3379 1.391 . S
C3380 C3381 1.391 . S
C3381 C3380 1.391 . S
C3381 C3382 1.392 . S
C3381 H3410 0.947 . S
C3382 C3381 1.392 . S
C3382 C3383 1.419 . S
C3382 H3411 0.948 . S
C3383 C3382 1.419 . S
C3383 C3384 1.391 . S
C3383 C3387 1.397 . S
C3384 C3379 1.391 . S
C3384 C3383 1.391 . S
C3384 C3385 1.399 . S
C3385 C3384 1.399 . S
C3385 C3386 1.396 . S
C3385 C3388 1.453 . S
C3385 C3389 1.684 . S
C3386 C3367 1.723 . S
C3386 C3385 1.396 . S
C3386 C3387 1.394 . S
C3387 C3383 1.397 . S
C3387 C3386 1.394 . S
C3387 C3397 1.723 . S
C3388 C3385 1.453 . S
C3388 H3412 0.982 . S
C3388 H3413 0.979 . S
C3388 H3414 0.977 . S
C3389 C3385 1.684 . S
C3389 H3415 0.979 . S
C3389 H3416 0.980 . S
C3389 H3417 0.983 . S
C3390 H3366 0.948 . S
C3390 C3391 1.391 . S
C3390 C3395 1.391 . S
C3391 C3390 1.391 . S
C3391 C3392 1.391 . S
C3392 H3369 0.947 . S
C3392 C3391 1.391 . S
C3392 C3393 1.392 . S
C3393 H3370 0.948 . S
C3393 C3392 1.392 . S
C3393 C3394 1.419 . S
C3394 C3393 1.419 . S
C3394 C3395 1.391 . S
C3394 C3398 1.397 . S
C3395 C3390 1.391 . S
C3395 C3394 1.391 . S
C3395 C3396 1.399 . S
C3396 C3395 1.399 . S
C3396 C3397 1.396 . S
C3396 C3399 1.453 . S
C3396 C3400 1.684 . S
C3397 C3387 1.723 . S
C3397 C3396 1.396 . S
C3397 C3398 1.394 . S
C3398 C3368 1.723 . S
C3398 C3394 1.397 . S
C3398 C3397 1.394 . S
C3399 H3371 0.982 . S
C3399 H3375 0.979 . S
C3399 H3376 0.977 . S
C3399 C3396 1.453 . S
C3400 H3372 0.979 . S
C3400 H3373 0.980 . S
C3400 H3374 0.983 . S
C3400 C3396 1.684 . S
H3401 C3419 0.948 . S
H3402 C3360 0.948 . S
H3403 C3378 0.979 . S
H3404 C3378 0.980 . S
H3405 C3378 0.983 . S
H3406 C3377 0.982 . S
H3407 C3377 0.979 . S
H3408 C3377 0.977 . S
H3409 C3379 0.948 . S
H3410 C3381 0.947 . S
H3411 C3382 0.948 . S
H3412 C3388 0.982 . S
H3413 C3388 0.979 . S
H3414 C3388 0.977 . S
H3415 C3389 0.979 . S
H3416 C3389 0.980 . S
H3417 C3389 0.983 . S
H3418 C3362 0.947 . S
C3419 C3362 1.392 . S
C3419 C3363 1.419 . S
C3419 H3401 0.948 . S
C3420 C3421 1.391 . S
C3420 C3424 1.391 . S
C3420 H3462 0.948 . S
C3421 C3420 1.391 . S
C3421 C3422 1.391 . S
C3422 C3421 1.391 . S
C3422 H3478 0.947 . S
C3422 C3479 1.392 . S
C3423 C3424 1.391 . S
C3423 C3427 1.397 . S
C3423 C3479 1.419 . S
C3424 C3420 1.391 . S
C3424 C3423 1.391 . S
C3424 C3425 1.399 . S
C3425 C3424 1.399 . S
C3425 C3428 1.396 . S
C3425 C3437 1.453 . S
C3425 C3438 1.684 . S
H3426 C3450 0.948 . S
C3427 C3423 1.397 . S
C3427 C3428 1.394 . S
C3427 C3446 1.723 . S
C3428 C3425 1.396 . S
C3428 C3427 1.394 . S
C3428 C3458 1.723 . S
H3429 C3452 0.947 . S
H3430 C3453 0.948 . S
H3431 C3459 0.982 . S
H3432 C3460 0.979 . S
H3433 C3460 0.980 . S
H3434 C3460 0.983 . S
H3435 C3459 0.979 . S
H3436 C3459 0.977 . S
C3437 C3425 1.453 . S
C3437 H3466 0.982 . S
C3437 H3467 0.979 . S
C3437 H3468 0.977 . S
C3438 C3425 1.684 . S
C3438 H3463 0.979 . S
C3438 H3464 0.980 . S
C3438 H3465 0.983 . S
C3439 C3440 1.391 . S
C3439 C3444 1.391 . S
C3439 H3469 0.948 . S
C3440 C3439 1.391 . S
C3440 C3441 1.391 . S
C3441 C3440 1.391 . S
C3441 C3442 1.392 . S
C3441 H3470 0.947 . S
C3442 C3441 1.392 . S
C3442 C3443 1.419 . S
C3442 H3471 0.948 . S
C3443 C3442 1.419 . S
C3443 C3444 1.391 . S
C3443 C3447 1.397 . S
C3444 C3439 1.391 . S
C3444 C3443 1.391 . S
C3444 C3445 1.399 . S
C3445 C3444 1.399 . S
C3445 C3446 1.396 . S
C3445 C3448 1.453 . S
C3445 C3449 1.684 . S
C3446 C3427 1.723 . S
C3446 C3445 1.396 . S
C3446 C3447 1.394 . S
C3447 C3443 1.397 . S
C3447 C3446 1.394 . S
C3447 C3457 1.723 . S
C3448 C3445 1.453 . S
C3448 H3472 0.982 . S
C3448 H3473 0.979 . S
C3448 H3474 0.977 . S
C3449 C3445 1.684 . S
C3449 H3475 0.979 . S
C3449 H3476 0.980 . S
C3449 H3477 0.983 . S
C3450 H3426 0.948 . S
C3450 C3451 1.391 . S
C3450 C3455 1.391 . S
C3451 C3450 1.391 . S
C3451 C3452 1.391 . S
C3452 H3429 0.947 . S
C3452 C3451 1.391 . S
C3452 C3453 1.392 . S
C3453 H3430 0.948 . S
C3453 C3452 1.392 . S
C3453 C3454 1.419 . S
C3454 C3453 1.419 . S
C3454 C3455 1.391 . S
C3454 C3458 1.397 . S
C3455 C3450 1.391 . S
C3455 C3454 1.391 . S
C3455 C3456 1.399 . S
C3456 C3455 1.399 . S
C3456 C3457 1.396 . S
C3456 C3459 1.453 . S
C3456 C3460 1.684 . S
C3457 C3447 1.723 . S
C3457 C3456 1.396 . S
C3457 C3458 1.394 . S
C3458 C3428 1.723 . S
C3458 C3454 1.397 . S
C3458 C3457 1.394 . S
C3459 H3431 0.982 . S
C3459 H3435 0.979 . S
C3459 H3436 0.977 . S
C3459 C3456 1.453 . S
C3460 H3432 0.979 . S
C3460 H3433 0.980 . S
C3460 H3434 0.983 . S
C3460 C3456 1.684 . S
H3461 C3479 0.948 . S
H3462 C3420 0.948 . S
H3463 C3438 0.979 . S
H3464 C3438 0.980 . S
H3465 C3438 0.983 . S
H3466 C3437 0.982 . S
H3467 C3437 0.979 . S
H3468 C3437 0.977 . S
H3469 C3439 0.948 . S
H3470 C3441 0.947 . S
H3471 C3442 0.948 . S
H3472 C3448 0.982 . S
H3473 C3448 0.979 . S
H3474 C3448 0.977 . S
H3475 C3449 0.979 . S
H3476 C3449 0.980 . S
H3477 C3449 0.983 . S
H3478 C3422 0.947 . S
C3479 C3422 1.392 . S
C3479 C3423 1.419 . S
C3479 H3461 0.948 . S
C3480 C3481 1.391 . S
C3480 C3484 1.391 . S
C3480 H3522 0.948 . S
C3481 C3480 1.391 . S
C3481 C3482 1.391 . S
C3482 C3481 1.391 . S
C3482 H3538 0.947 . S
C3482 C3539 1.392 . S
C3483 C3484 1.391 . S
C3483 C3487 1.397 . S
C3483 C3539 1.419 . S
C3484 C3480 1.391 . S
C3484 C3483 1.391 . S
C3484 C3485 1.399 . S
C3485 C3484 1.399 . S
C3485 C3488 1.396 . S
C3485 C3497 1.453 . S
C3485 C3498 1.684 . S
H3486 C3510 0.948 . S
C3487 C3483 1.397 . S
C3487 C3488 1.394 . S
C3487 C3506 1.723 . S
C3488 C3485 1.396 . S
C3488 C3487 1.394 . S
C3488 C3518 1.723 . S
H3489 C3512 0.947 . S
H3490 C3513 0.948 . S
H3491 C3519 0.982 . S
H3492 C3520 0.979 . S
H3493 C3520 0.980 . S
H3494 C3520 0.983 . S
H3495 C3519 0.979 . S
H3496 C3519 0.977 . S
C3497 C3485 1.453 . S
C3497 H3526 0.982 . S
C3497 H3527 0.979 . S
C3497 H3528 0.977 . S
C3498 C3485 1.684 . S
C3498 H3523 0.979 . S
C3498 H3524 0.980 . S
C3498 H3525 0.983 . S
C3499 C3500 1.391 . S
C3499 C3504 1.391 . S
C3499 H3529 0.948 . S
C3500 C3499 1.391 . S
C3500 C3501 1.391 . S
C3501 C3500 1.391 . S
C3501 C3502 1.392 . S
C3501 H3530 0.947 . S
C3502 C3501 1.392 . S
C3502 C3503 1.419 . S
C3502 H3531 0.948 . S
C3503 C3502 1.419 . S
C3503 C3504 1.391 . S
C3503 C3507 1.397 . S
C3504 C3499 1.391 . S
C3504 C3503 1.391 . S
C3504 C3505 1.399 . S
C3505 C3504 1.399 . S
C3505 C3506 1.396 . S
C3505 C3508 1.453 . S
C3505 C3509 1.684 . S
C3506 C3487 1.723 . S
C3506 C3505 1.396 . S
C3506 C3507 1.394 . S
C3507 C3503 1.397 . S
C3507 C3506 1.394 . S
C3507 C3517 1.723 . S
C3508 C3505 1.453 . S
C3508 H3532 0.982 . S
C3508 H3533 0.979 . S
C3508 H3534 0.977 . S
C3509 C3505 1.684 . S
C3509 H3535 0.979 . S
C3509 H3536 0.980 . S
C3509 H3537 0.983 . S
C3510 H3486 0.948 . S
C3510 C3511 1.391 . S
C3510 C3515 1.391 . S
C3511 C3510 1.391 . S
C3511 C3512 1.391 . S
C3512 H3489 0.947 . S
C3512 C3511 1.391 . S
C3512 C3513 1.392 . S
C3513 H3490 0.948 . S
C3513 C3512 1.392 . S
C3513 C3514 1.419 . S
C3514 C3513 1.419 . S
C3514 C3515 1.391 . S
C3514 C3518 1.397 . S
C3515 C3510 1.391 . S
C3515 C3514 1.391 . S
C3515 C3516 1.399 . S
C3516 C3515 1.399 . S
C3516 C3517 1.396 . S
C3516 C3519 1.453 . S
C3516 C3520 1.684 . S
C3517 C3507 1.723 . S
C3517 C3516 1.396 . S
C3517 C3518 1.394 . S
C3518 C3488 1.723 . S
C3518 C3514 1.397 . S
C3518 C3517 1.394 . S
C3519 H3491 0.982 . S
C3519 H3495 0.979 . S
C3519 H3496 0.977 . S
C3519 C3516 1.453 . S
C3520 H3492 0.979 . S
C3520 H3493 0.980 . S
C3520 H3494 0.983 . S
C3520 C3516 1.684 . S
H3521 C3539 0.948 . S
H3522 C3480 0.948 . S
H3523 C3498 0.979 . S
H3524 C3498 0.980 . S
H3525 C3498 0.983 . S
H3526 C3497 0.982 . S
H3527 C3497 0.979 . S
H3528 C3497 0.977 . S
H3529 C3499 0.948 . S
H3530 C3501 0.947 . S
H3531 C3502 0.948 . S
H3532 C3508 0.982 . S
H3533 C3508 0.979 . S
H3534 C3508 0.977 . S
H3535 C3509 0.979 . S
H3536 C3509 0.980 . S
H3537 C3509 0.983 . S
H3538 C3482 0.947 . S
C3539 C3482 1.392 . S
C3539 C3483 1.419 . S
C3539 H3521 0.948 . S
C3540 C3541 1.391 . S
C3540 C3544 1.391 . S
C3540 H3582 0.948 . S
C3541 C3540 1.391 . S
C3541 C3542 1.391 . S
C3542 C3541 1.391 . S
C3542 H3598 0.947 . S
C3542 C3599 1.392 . S
C3543 C3544 1.391 . S
C3543 C3547 1.397 . S
C3543 C3599 1.419 . S
C3544 C3540 1.391 . S
C3544 C3543 1.391 . S
C3544 C3545 1.399 . S
C3545 C3544 1.399 . S
C3545 C3548 1.396 . S
C3545 C3557 1.453 . S
C3545 C3558 1.684 . S
H3546 C3570 0.948 . S
C3547 C3543 1.397 . S
C3547 C3548 1.394 . S
C3547 C3566 1.723 . S
C3548 C3545 1.396 . S
C3548 C3547 1.394 . S
C3548 C3578 1.723 . S
H3549 C3572 0.947 . S
H3550 C3573 0.948 . S
H3551 C3579 0.982 . S
H3552 C3580 0.979 . S
H3553 C3580 0.980 . S
H3554 C3580 0.983 . S
H3555 C3579 0.979 . S
H3556 C3579 0.977 . S
C3557 C3545 1.453 . S
C3557 H3586 0.982 . S
C3557 H3587 0.979 . S
C3557 H3588 0.977 . S
C3558 C3545 1.684 . S
C3558 H3583 0.979 . S
C3558 H3584 0.980 . S
C3558 H3585 0.983 . S
C3559 C3560 1.391 . S
C3559 C3564 1.391 . S
C3559 H3589 0.948 . S
C3560 C3559 1.391 . S
C3560 C3561 1.391 . S
C3561 C3560 1.391 . S
C3561 C3562 1.392 . S
C3561 H3590 0.947 . S
C3562 C3561 1.392 . S
C3562 C3563 1.419 . S
C3562 H3591 0.948 . S
C3563 C3562 1.419 . S
C3563 C3564 1.391 . S
C3563 C3567 1.397 . S
C3564 C3559 1.391 . S
C3564 C3563 1.391 . S
C3564 C3565 1.399 . S
C3565 C3564 1.399 . S
C3565 C3566 1.396 . S
C3565 C3568 1.453 . S
C3565 C3569 1.684 . S
C3566 C3547 1.723 . S
C3566 C3565 1.396 . S
C3566 C3567 1.394 . S
C3567 C3563 1.397 . S
C3567 C3566 1.394 . S
C3567 C3577 1.723 . S
C3568 C3565 1.453 . S
C3568 H3592 0.982 . S
C3568 H3593 0.979 . S
C3568 H3594 0.977 . S
C3569 C3565 1.684 . S
C3569 H3595 0.979 . S
C3569 H3596 0.980 . S
C3569 H3597 0.983 . S
C3570 H3546 0.948 . S
C3570 C3571 1.391 . S
C3570 C3575 1.391 . S
C3571 C3570 1.391 . S
C3571 C3572 1.391 . S
C3572 H3549 0.947 . S
C3572 C3571 1.391 . S
C3572 C3573 1.392 . S
C3573 H3550 0.948 . S
C3573 C3572 1.392 . S
C3573 C3574 1.419 . S
C3574 C3573 1.419 . S
C3574 C3575 1.391 . S
C3574 C3578 1.397 . S
C3575 C3570 1.391 . S
C3575 C3574 1.391 . S
C3575 C3576 1.399 . S
C3576 C3575 1.399 . S
C3576 C3577 1.396 . S
C3576 C3579 1.453 . S
C3576 C3580 1.684 . S
C3577 C3567 1.723 . S
C3577 C3576 1.396 . S
C3577 C3578 1.394 . S
C3578 C3548 1.723 . S
C3578 C3574 1.397 . S
C3578 C3577 1.394 . S
C3579 H3551 0.982 . S
C3579 H3555 0.979 . S
C3579 H3556 0.977 . S
C3579 C3576 1.453 . S
C3580 H3552 0.979 . S
C3580 H3553 0.980 . S
C3580 H3554 0.983 . S
C3580 C3576 1.684 . S
H3581 C3599 0.948 . S
H3582 C3540 0.948 . S
H3583 C3558 0.979 . S
H3584 C3558 0.980 . S
H3585 C3558 0.983 . S
H3586 C3557 0.982 . S
H3587 C3557 0.979 . S
H3588 C3557 0.977 . S
H3589 C3559 0.948 . S
H3590 C3561 0.947 . S
H3591 C3562 0.948 . S
H3592 C3568 0.982 . S
H3593 C3568 0.979 . S
H3594 C3568 0.977 . S
H3595 C3569 0.979 . S
H3596 C3569 0.980 . S
H3597 C3569 0.983 . S
H3598 C3542 0.947 . S
C3599 C3542 1.392 . S
C3599 C3543 1.419 . S
C3599 H3581 0.948 . S
C3600 C3601 1.391 . S
C3600 C3604 1.391 . S
C3600 H3642 0.948 . S
C3601 C3600 1.391 . S
C3601 C3602 1.391 . S
C3602 C3601 1.391 . S
C3602 H3658 0.947 . S
C3602 C3659 1.392 . S
C3603 C3604 1.391 . S
C3603 C3607 1.397 . S
C3603 C3659 1.419 . S
C3604 C3600 1.391 . S
C3604 C3603 1.391 . S
C3604 C3605 1.399 . S
C3605 C3604 1.399 . S
C3605 C3608 1.396 . S
C3605 C3617 1.453 . S
C3605 C3618 1.684 . S
H3606 C3630 0.948 . S
C3607 C3603 1.397 . S
C3607 C3608 1.394 . S
C3607 C3626 1.723 . S
C3608 C3605 1.396 . S
C3608 C3607 1.394 . S
C3608 C3638 1.723 . S
H3609 C3632 0.947 . S
H3610 C3633 0.948 . S
H3611 C3639 0.982 . S
H3612 C3640 0.979 . S
H3613 C3640 0.980 . S
H3614 C3640 0.983 . S
H3615 C3639 0.979 . S
H3616 C3639 0.977 . S
C3617 C3605 1.453 . S
C3617 H3646 0.982 . S
C3617 H3647 0.979 . S
C3617 H3648 0.977 . S
C3618 C3605 1.684 . S
C3618 H3643 0.979 . S
C3618 H3644 0.980 . S
C3618 H3645 0.983 . S
C3619 C3620 1.391 . S
C3619 C3624 1.391 . S
C3619 H3649 0.948 . S
C3620 C3619 1.391 . S
C3620 C3621 1.391 . S
C3621 C3620 1.391 . S
C3621 C3622 1.392 . S
C3621 H3650 0.947 . S
C3622 C3621 1.392 . S
C3622 C3623 1.419 . S
C3622 H3651 0.948 . S
C3623 C3622 1.419 . S
C3623 C3624 1.391 . S
C3623 C3627 1.397 . S
C3624 C3619 1.391 . S
C3624 C3623 1.391 . S
C3624 C3625 1.399 . S
C3625 C3624 1.399 . S
C3625 C3626 1.396 . S
C3625 C3628 1.453 . S
C3625 C3629 1.684 . S
C3626 C3607 1.723 . S
C3626 C3625 1.396 . S
C3626 C3627 1.394 . S
C3627 C3623 1.397 . S
C3627 C3626 1.394 . S
C3627 C3637 1.723 . S
C3628 C3625 1.453 . S
C3628 H3652 0.982 . S
C3628 H3653 0.979 . S
C3628 H3654 0.977 . S
C3629 C3625 1.684 . S
C3629 H3655 0.979 . S
C3629 H3656 0.980 . S
C3629 H3657 0.983 . S
C3630 H3606 0.948 . S
C3630 C3631 1.391 . S
C3630 C3635 1.391 . S
C3631 C3630 1.391 . S
C3631 C3632 1.391 . S
C3632 H3609 0.947 . S
C3632 C3631 1.391 . S
C3632 C3633 1.392 . S
C3633 H3610 0.948 . S
C3633 C3632 1.392 . S
C3633 C3634 1.419 . S
C3634 C3633 1.419 . S
C3634 C3635 1.391 . S
C3634 C3638 1.397 . S
C3635 C3630 1.391 . S
C3635 C3634 1.391 . S
C3635 C3636 1.399 . S
C3636 C3635 1.399 . S
C3636 C3637 1.396 . S
C3636 C3639 1.453 . S
C3636 C3640 1.684 . S
C3637 C3627 1.723 . S
C3637 C3636 1.396 . S
C3637 C3638 1.394 . S
C3638 C3608 1.723 . S
C3638 C3634 1.397 . S
C3638 C3637 1.394 . S
C3639 H3611 0.982 . S
C3639 H3615 0.979 . S
C3639 H3616 0.977 . S
C3639 C3636 1.453 . S
C3640 H3612 0.979 . S
C3640 H3613 0.980 . S
C3640 H3614 0.983 . S
C3640 C3636 1.684 . S
H3641 C3659 0.948 . S
H3642 C3600 0.948 . S
H3643 C3618 0.979 . S
H3644 C3618 0.980 . S
H3645 C3618 0.983 . S
H3646 C3617 0.982 . S
H3647 C3617 0.979 . S
H3648 C3617 0.977 . S
H3649 C3619 0.948 . S
H3650 C3621 0.947 . S
H3651 C3622 0.948 . S
H3652 C3628 0.982 . S
H3653 C3628 0.979 . S
H3654 C3628 0.977 . S
H3655 C3629 0.979 . S
H3656 C3629 0.980 . S
H3657 C3629 0.983 . S
H3658 C3602 0.947 . S
C3659 C3602 1.392 . S
C3659 C3603 1.419 . S
C3659 H3641 0.948 . S
C3660 C3661 1.391 . S
C3660 C3664 1.391 . S
C3660 H3702 0.948 . S
C3661 C3660 1.391 . S
C3661 C3662 1.391 . S
C3662 C3661 1.391 . S
C3662 H3718 0.947 . S
C3662 C3719 1.392 . S
C3663 C3664 1.391 . S
C3663 C3667 1.397 . S
C3663 C3719 1.419 . S
C3664 C3660 1.391 . S
C3664 C3663 1.391 . S
C3664 C3665 1.399 . S
C3665 C3664 1.399 . S
C3665 C3668 1.396 . S
C3665 C3677 1.453 . S
C3665 C3678 1.684 . S
H3666 C3690 0.948 . S
C3667 C3663 1.397 . S
C3667 C3668 1.394 . S
C3667 C3686 1.723 . S
C3668 C3665 1.396 . S
C3668 C3667 1.394 . S
C3668 C3698 1.723 . S
H3669 C3692 0.947 . S
H3670 C3693 0.948 . S
H3671 C3699 0.982 . S
H3672 C3700 0.979 . S
H3673 C3700 0.980 . S
H3674 C3700 0.983 . S
H3675 C3699 0.979 . S
H3676 C3699 0.977 . S
C3677 C3665 1.453 . S
C3677 H3706 0.982 . S
C3677 H3707 0.979 . S
C3677 H3708 0.977 . S
C3678 C3665 1.684 . S
C3678 H3703 0.979 . S
C3678 H3704 0.980 . S
C3678 H3705 0.983 . S
C3679 C3680 1.391 . S
C3679 C3684 1.391 . S
C3679 H3709 0.948 . S
C3680 C3679 1.391 . S
C3680 C3681 1.391 . S
C3681 C3680 1.391 . S
C3681 C3682 1.392 . S
C3681 H3710 0.947 . S
C3682 C3681 1.392 . S
C3682 C3683 1.419 . S
C3682 H3711 0.948 . S
C3683 C3682 1.419 . S
C3683 C3684 1.391 . S
C3683 C3687 1.397 . S
C3684 C3679 1.391 . S
C3684 C3683 1.391 . S
C3684 C3685 1.399 . S
C3685 C3684 1.399 . S
C3685 C3686 1.396 . S
C3685 C3688 1.453 . S
C3685 C3689 1.684 . S
C3686 C3667 1.723 . S
C3686 C3685 1.396 . S
C3686 C3687 1.394 . S
C3687 C3683 1.397 . S
C3687 C3686 1.394 . S
C3687 C3697 1.723 . S
C3688 C3685 1.453 . S
C3688 H3712 0.982 . S
C3688 H3713 0.979 . S
C3688 H3714 0.977 . S
C3689 C3685 1.684 . S
C3689 H3715 0.979 . S
C3689 H3716 0.980 . S
C3689 H3717 0.983 . S
C3690 H3666 0.948 . S
C3690 C3691 1.391 . S
C3690 C3695 1.391 . S
C3691 C3690 1.391 . S
C3691 C3692 1.391 . S
C3692 H3669 0.947 . S
C3692 C3691 1.391 . S
C3692 C3693 1.392 . S
C3693 H3670 0.948 . S
C3693 C3692 1.392 . S
C3693 C3694 1.419 . S
C3694 C3693 1.419 . S
C3694 C3695 1.391 . S
C3694 C3698 1.397 . S
C3695 C3690 1.391 . S
C3695 C3694 1.391 . S
C3695 C3696 1.399 . S
C3696 C3695 1.399 . S
C3696 C3697 1.396 . S
C3696 C3699 1.453 . S
C3696 C3700 1.684 . S
C3697 C3687 1.723 . S
C3697 C3696 1.396 . S
C3697 C3698 1.394 . S
C3698 C3668 1.723 . S
C3698 C3694 1.397 . S
C3698 C3697 1.394 . S
C3699 H3671 0.982 . S
C3699 H3675 0.979 . S
C3699 H3676 0.977 . S
C3699 C3696 1.453 . S
C3700 H3672 0.979 . S
C3700 H3673 0.980 . S
C3700 H3674 0.983 . S
C3700 C3696 1.684 . S
H3701 C3719 0.948 . S
H3702 C3660 0.948 . S
H3703 C3678 0.979 . S
H3704 C3678 0.980 . S
H3705 C3678 0.983 . S
H3706 C3677 0.982 . S
H3707 C3677 0.979 . S
H3708 C3677 0.977 . S
H3709 C3679 0.948 . S
H3710 C3681 0.947 . S
H3711 C3682 0.948 . S
H3712 C3688 0.982 . S
H3713 C3688 0.979 . S
H3714 C3688 0.977 . S
H3715 C3689 0.979 . S
H3716 C3689 0.980 . S
H3717 C3689 0.983 . S
H3718 C3662 0.947 . S
C3719 C3662 1.392 . S
C3719 C3663 1.419 . S
C3719 H3701 0.948 . S
C3720 C3721 1.391 . S
C3720 C3724 1.391 . S
C3720 H3762 0.948 . S
C3721 C3720 1.391 . S
C3721 C3722 1.391 . S
C3722 C3721 1.391 . S
C3722 H3778 0.947 . S
C3722 C3779 1.392 . S
C3723 C3724 1.391 . S
C3723 C3727 1.397 . S
C3723 C3779 1.419 . S
C3724 C3720 1.391 . S
C3724 C3723 1.391 . S
C3724 C3725 1.399 . S
C3725 C3724 1.399 . S
C3725 C3728 1.396 . S
C3725 C3737 1.453 . S
C3725 C3738 1.684 . S
H3726 C3750 0.948 . S
C3727 C3723 1.397 . S
C3727 C3728 1.394 . S
C3727 C3746 1.723 . S
C3728 C3725 1.396 . S
C3728 C3727 1.394 . S
C3728 C3758 1.723 . S
H3729 C3752 0.947 . S
H3730 C3753 0.948 . S
H3731 C3759 0.982 . S
H3732 C3760 0.979 . S
H3733 C3760 0.980 . S
H3734 C3760 0.983 . S
H3735 C3759 0.979 . S
H3736 C3759 0.977 . S
C3737 C3725 1.453 . S
C3737 H3766 0.982 . S
C3737 H3767 0.979 . S
C3737 H3768 0.977 . S
C3738 C3725 1.684 . S
C3738 H3763 0.979 . S
C3738 H3764 0.980 . S
C3738 H3765 0.983 . S
C3739 C3740 1.391 . S
C3739 C3744 1.391 . S
C3739 H3769 0.948 . S
C3740 C3739 1.391 . S
C3740 C3741 1.391 . S
C3741 C3740 1.391 . S
C3741 C3742 1.392 . S
C3741 H3770 0.947 . S
C3742 C3741 1.392 . S
C3742 C3743 1.419 . S
C3742 H3771 0.948 . S
C3743 C3742 1.419 . S
C3743 C3744 1.391 . S
C3743 C3747 1.397 . S
C3744 C3739 1.391 . S
C3744 C3743 1.391 . S
C3744 C3745 1.399 . S
C3745 C3744 1.399 . S
C3745 C3746 1.396 . S
C3745 C3748 1.453 . S
C3745 C3749 1.684 . S
C3746 C3727 1.723 . S
C3746 C3745 1.396 . S
C3746 C3747 1.394 . S
C3747 C3743 1.397 . S
C3747 C3746 1.394 . S
C3747 C3757 1.723 . S
C3748 C3745 1.453 . S
C3748 H3772 0.982 . S
C3748 H3773 0.979 . S
C3748 H3774 0.977 . S
C3749 C3745 1.684 . S
C3749 H3775 0.979 . S
C3749 H3776 0.980 . S
C3749 H3777 0.983 . S
C3750 H3726 0.948 . S
C3750 C3751 1.391 . S
C3750 C3755 1.391 . S
C3751 C3750 1.391 . S
C3751 C3752 1.391 . S
C3752 H3729 0.947 . S
C3752 C3751 1.391 . S
C3752 C3753 1.392 . S
C3753 H3730 0.948 . S
C3753 C3752 1.392 . S
C3753 C3754 1.419 . S
C3754 C3753 1.419 . S
C3754 C3755 1.391 . S
C3754 C3758 1.397 . S
C3755 C3750 1.391 . S
C3755 C3754 1.391 . S
C3755 C3756 1.399 . S
C3756 C3755 1.399 . S
C3756 C3757 1.396 . S
C3756 C3759 1.453 . S
C3756 C3760 1.684 . S
C3757 C3747 1.723 . S
C3757 C3756 1.396 . S
C3757 C3758 1.394 . S
C3758 C3728 1.723 . S
C3758 C3754 1.397 . S
C3758 C3757 1.394 . S
C3759 H3731 0.982 . S
C3759 H3735 0.979 . S
C3759 H3736 0.977 . S
C3759 C3756 1.453 . S
C3760 H3732 0.979 . S
C3760 H3733 0.980 . S
C3760 H3734 0.983 . S
C3760 C3756 1.684 . S
H3761 C3779 0.948 . S
H3762 C3720 0.948 . S
H3763 C3738 0.979 . S
H3764 C3738 0.980 . S
H3765 C3738 0.983 . S
H3766 C3737 0.982 . S
H3767 C3737 0.979 . S
H3768 C3737 0.977 . S
H3769 C3739 0.948 . S
H3770 C3741 0.947 . S
H3771 C3742 0.948 . S
H3772 C3748 0.982 . S
H3773 C3748 0.979 . S
H3774 C3748 0.977 . S
H3775 C3749 0.979 . S
H3776 C3749 0.980 . S
H3777 C3749 0.983 . S
H3778 C3722 0.947 . S
C3779 C3722 1.392 . S
C3779 C3723 1.419 . S
C3779 H3761 0.948 . S
C3780 C3781 1.391 . S
C3780 C3784 1.391 . S
C3780 H3822 0.948 . S
C3781 C3780 1.391 . S
C3781 C3782 1.391 . S
C3782 C3781 1.391 . S
C3782 H3838 0.947 . S
C3782 C3839 1.392 . S
C3783 C3784 1.391 . S
C3783 C3787 1.397 . S
C3783 C3839 1.419 . S
C3784 C3780 1.391 . S
C3784 C3783 1.391 . S
C3784 C3785 1.399 . S
C3785 C3784 1.399 . S
C3785 C3788 1.396 . S
C3785 C3797 1.453 . S
C3785 C3798 1.684 . S
H3786 C3810 0.948 . S
C3787 C3783 1.397 . S
C3787 C3788 1.394 . S
C3787 C3806 1.723 . S
C3788 C3785 1.396 . S
C3788 C3787 1.394 . S
C3788 C3818 1.723 . S
H3789 C3812 0.947 . S
H3790 C3813 0.948 . S
H3791 C3819 0.982 . S
H3792 C3820 0.979 . S
H3793 C3820 0.980 . S
H3794 C3820 0.983 . S
H3795 C3819 0.979 . S
H3796 C3819 0.977 . S
C3797 C3785 1.453 . S
C3797 H3826 0.982 . S
C3797 H3827 0.979 . S
C3797 H3828 0.977 . S
C3798 C3785 1.684 . S
C3798 H3823 0.979 . S
C3798 H3824 0.980 . S
C3798 H3825 0.983 . S
C3799 C3800 1.391 . S
C3799 C3804 1.391 . S
C3799 H3829 0.948 . S
C3800 C3799 1.391 . S
C3800 C3801 1.391 . S
C3801 C3800 1.391 . S
C3801 C3802 1.392 . S
C3801 H3830 0.947 . S
C3802 C3801 1.392 . S
C3802 C3803 1.419 . S
C3802 H3831 0.948 . S
C3803 C3802 1.419 . S
C3803 C3804 1.391 . S
C3803 C3807 1.397 . S
C3804 C3799 1.391 . S
C3804 C3803 1.391 . S
C3804 C3805 1.399 . S
C3805 C3804 1.399 . S
C3805 C3806 1.396 . S
C3805 C3808 1.453 . S
C3805 C3809 1.684 . S
C3806 C3787 1.723 . S
C3806 C3805 1.396 . S
C3806 C3807 1.394 . S
C3807 C3803 1.397 . S
C3807 C3806 1.394 . S
C3807 C3817 1.723 . S
C3808 C3805 1.453 . S
C3808 H3832 0.982 . S
C3808 H3833 0.979 . S
C3808 H3834 0.977 . S
C3809 C3805 1.684 . S
C3809 H3835 0.979 . S
C3809 H3836 0.980 . S
C3809 H3837 0.983 . S
C3810 H3786 0.948 . S
C3810 C3811 1.391 . S
C3810 C3815 1.391 . S
C3811 C3810 1.391 . S
C3811 C3812 1.391 . S
C3812 H3789 0.947 . S
C3812 C3811 1.391 . S
C3812 C3813 1.392 . S
C3813 H3790 0.948 . S
C3813 C3812 1.392 . S
C3813 C3814 1.419 . S
C3814 C3813 1.419 . S
C3814 C3815 1.391 . S
C3814 C3818 1.397 . S
C3815 C3810 1.391 . S
C3815 C3814 1.391 . S
C3815 C3816 1.399 . S
C3816 C3815 1.399 . S
C3816 C3817 1.396 . S
C3816 C3819 1.453 . S
C3816 C3820 1.684 . S
C3817 C3807 1.723 . S
C3817 C3816 1.396 . S
C3817 C3818 1.394 . S
C3818 C3788 1.723 . S
C3818 C3814 1.397 . S
C3818 C3817 1.394 . S
C3819 H3791 0.982 . S
C3819 H3795 0.979 . S
C3819 H3796 0.977 . S
C3819 C3816 1.453 . S
C3820 H3792 0.979 . S
C3820 H3793 0.980 . S
C3820 H3794 0.983 . S
C3820 C3816 1.684 . S
H3821 C3839 0.948 . S
H3822 C3780 0.948 . S
H3823 C3798 0.979 . S
H3824 C3798 0.980 . S
H3825 C3798 0.983 . S
H3826 C3797 0.982 . S
H3827 C3797 0.979 . S
H3828 C3797 0.977 . S
H3829 C3799 0.948 . S
H3830 C3801 0.947 . S
H3831 C3802 0.948 . S
H3832 C3808 0.982 . S
H3833 C3808 0.979 . S
H3834 C3808 0.977 . S
H3835 C3809 0.979 . S
H3836 C3809 0.980 . S
H3837 C3809 0.983 . S
H3838 C3782 0.947 . S
C3839 C3782 1.392 . S
C3839 C3783 1.419 . S
C3839 H3821 0.948 . S
C3840 C3841 1.391 . S
C3840 C3844 1.391 . S
C3840 H3882 0.948 . S
C3841 C3840 1.391 . S
C3841 C3842 1.391 . S
C3842 C3841 1.391 . S
C3842 H3898 0.947 . S
C3842 C3899 1.392 . S
C3843 C3844 1.391 . S
C3843 C3847 1.397 . S
C3843 C3899 1.419 . S
C3844 C3840 1.391 . S
C3844 C3843 1.391 . S
C3844 C3845 1.399 . S
C3845 C3844 1.399 . S
C3845 C3848 1.396 . S
C3845 C3857 1.453 . S
C3845 C3858 1.684 . S
H3846 C3870 0.948 . S
C3847 C3843 1.397 . S
C3847 C3848 1.394 . S
C3847 C3866 1.723 . S
C3848 C3845 1.396 . S
C3848 C3847 1.394 . S
C3848 C3878 1.723 . S
H3849 C3872 0.947 . S
H3850 C3873 0.948 . S
H3851 C3879 0.982 . S
H3852 C3880 0.979 . S
H3853 C3880 0.980 . S
H3854 C3880 0.983 . S
H3855 C3879 0.979 . S
H3856 C3879 0.977 . S
C3857 C3845 1.453 . S
C3857 H3886 0.982 . S
C3857 H3887 0.979 . S
C3857 H3888 0.977 . S
C3858 C3845 1.684 . S
C3858 H3883 0.979 . S
C3858 H3884 0.980 . S
C3858 H3885 0.983 . S
C3859 C3860 1.391 . S
C3859 C3864 1.391 . S
C3859 H3889 0.948 . S
C3860 C3859 1.391 . S
C3860 C3861 1.391 . S
C3861 C3860 1.391 . S
C3861 C3862 1.392 . S
C3861 H3890 0.947 . S
C3862 C3861 1.392 . S
C3862 C3863 1.419 . S
C3862 H3891 0.948 . S
C3863 C3862 1.419 . S
C3863 C3864 1.391 . S
C3863 C3867 1.397 . S
C3864 C3859 1.391 . S
C3864 C3863 1.391 . S
C3864 C3865 1.399 . S
C3865 C3864 1.399 . S
C3865 C3866 1.396 . S
C3865 C3868 1.453 . S
C3865 C3869 1.684 . S
C3866 C3847 1.723 . S
C3866 C3865 1.396 . S
C3866 C3867 1.394 . S
C3867 C3863 1.397 . S
C3867 C3866 1.394 . S
C3867 C3877 1.723 . S
C3868 C3865 1.453 . S
C3868 H3892 0.982 . S
C3868 H3893 0.979 . S
C3868 H3894 0.977 . S
C3869 C3865 1.684 . S
C3869 H3895 0.979 . S
C3869 H3896 0.980 . S
C3869 H3897 0.983 . S
C3870 H3846 0.948 . S
C3870 C3871 1.391 . S
C3870 C3875 1.391 . S
C3871 C3870 1.391 . S
C3871 C3872 1.391 . S
C3872 H3849 0.947 . S
C3872 C3871 1.391 . S
C3872 C3873 1.392 . S
C3873 H3850 0.948 . S
C3873 C3872 1.392 . S
C3873 C3874 1.419 . S
C3874 C3873 1.419 . S
C3874 C3875 1.391 . S
C3874 C3878 1.397 . S
C3875 C3870 1.391 . S
C3875 C3874 1.391 . S
C3875 C3876 1.399 . S
C3876 C3875 1.399 . S
C3876 C3877 1.396 . S
C3876 C3879 1.453 . S
C3876 C3880 1.684 . S
C3877 C3867 1.723 . S
C3877 C3876 1.396 . S
C3877 C3878 1.394 . S
C3878 C3848 1.723 . S
C3878 C3874 1.397 . S
C3878 C3877 1.394 . S
C3879 H3851 0.982 . S
C3879 H3855 0.979 . S
C3879 H3856 0.977 . S
C3879 C3876 1.453 . S
C3880 H3852 0.979 . S
C3880 H3853 0.980 . S
C3880 H3854 0.983 . S
C3880 C3876 1.684 . S
H3881 C3899 0.948 . S
H3882 C3840 0.948 . S
H3883 C3858 0.979 . S
H3884 C3858 0.980 . S
H3885 C3858 0.983 . S
H3886 C3857 0.982 . S
H3887 C3857 0.979 . S
H3888 C3857 0.977 . S
H3889 C3859 0.948 . S
H3890 C3861 0.947 . S
H3891 C3862 0.948 . S
H3892 C3868 0.982 . S
H3893 C3868 0.979 . S
H3894 C3868 0.977 . S
H3895 C3869 0.979 . S
H3896 C3869 0.980 . S
H3897 C3869 0.983 . S
H3898 C3842 0.947 . S
C3899 C3842 1.392 . S
C3899 C3843 1.419 . S
C3899 H3881 0.948 . S
C3900 C3901 1.391 . S
C3900 C3904 1.391 . S
C3900 H3942 0.948 . S
C3901 C3900 1.391 . S
C3901 C3902 1.391 . S
C3902 C3901 1.391 . S
C3902 H3958 0.947 . S
C3902 C3959 1.392 . S
C3903 C3904 1.391 . S
C3903 C3907 1.397 . S
C3903 C3959 1.419 . S
C3904 C3900 1.391 . S
C3904 C3903 1.391 . S
C3904 C3905 1.399 . S
C3905 C3904 1.399 . S
C3905 C3908 1.396 . S
C3905 C3917 1.453 . S
C3905 C3918 1.684 . S
H3906 C3930 0.948 . S
C3907 C3903 1.397 . S
C3907 C3908 1.394 . S
C3907 C3926 1.723 . S
C3908 C3905 1.396 . S
C3908 C3907 1.394 . S
C3908 C3938 1.723 . S
H3909 C3932 0.947 . S
H3910 C3933 0.948 . S
H3911 C3939 0.982 . S
H3912 C3940 0.979 . S
H3913 C3940 0.980 . S
H3914 C3940 0.983 . S
H3915 C3939 0.979 . S
H3916 C3939 0.977 . S
C3917 C3905 1.453 . S
C3917 H3946 0.982 . S
C3917 H3947 0.979 . S
C3917 H3948 0.977 . S
C3918 C3905 1.684 . S
C3918 H3943 0.979 . S
C3918 H3944 0.980 . S
C3918 H3945 0.983 . S
C3919 C3920 1.391 . S
C3919 C3924 1.391 . S
C3919 H3949 0.948 . S
C3920 C3919 1.391 . S
C3920 C3921 1.391 . S
C3921 C3920 1.391 . S
C3921 C3922 1.392 . S
C3921 H3950 0.947 . S
C3922 C3921 1.392 . S
C3922 C3923 1.419 . S
C3922 H3951 0.948 . S
C3923 C3922 1.419 . S
C3923 C3924 1.391 . S
C3923 C3927 1.397 . S
C3924 C3919 1.391 . S
C3924 C3923 1.391 . S
C3924 C3925 1.399 . S
C3925 C3924 1.399 . S
C3925 C3926 1.396 . S
C3925 C3928 1.453 . S
C3925 C3929 1.684 . S
C3926 C3907 1.723 . S
C3926 C3925 1.396 . S
C3926 C3927 1.394 . S
C3927 C3923 1.397 . S
C3927 C3926 1.394 . S
C3927 C3937 1.723 . S
C3928 C3925 1.453 . S
C3928 H3952 0.982 . S
C3928 H3953 0.979 . S
C3928 H3954 0.977 . S
C3929 C3925 1.684 . S
C3929 H3955 0.979 . S
C3929 H3956 0.980 . S
C3929 H3957 0.983 . S
C3930 H3906 0.948 . S
C3930 C3931 1.391 . S
C3930 C3935 1.391 . S
C3931 C3930 1.391 . S
C3931 C3932 1.391 . S
C3932 H3909 0.947 . S
C3932 C3931 1.391 . S
C3932 C3933 1.392 . S
C3933 H3910 0.948 . S
C3933 C3932 1.392 . S
C3933 C3934 1.419 . S
C3934 C3933 1.419 . S
C3934 C3935 1.391 . S
C3934 C3938 1.397 . S
C3935 C3930 1.391 . S
C3935 C3934 1.391 . S
C3935 C3936 1.399 . S
C3936 C3935 1.399 . S
C3936 C3937 1.396 . S
C3936 C3939 1.453 . S
C3936 C3940 1.684 . S
C3937 C3927 1.723 . S
C3937 C3936 1.396 . S
C3937 C3938 1.394 . S
C3938 C3908 1.723 . S
C3938 C3934 1.397 . S
C3938 C3937 1.394 . S
C3939 H3911 0.982 . S
C3939 H3915 0.979 . S
C3939 H3916 0.977 . S
C3939 C3936 1.453 . S
C3940 H3912 0.979 . S
C3940 H3913 0.980 . S
C3940 H3914 0.983 . S
C3940 C3936 1.684 . S
H3941 C3959 0.948 . S
H3942 C3900 0.948 . S
H3943 C3918 0.979 . S
H3944 C3918 0.980 . S
H3945 C3918 0.983 . S
H3946 C3917 0.982 . S
H3947 C3917 0.979 . S
H3948 C3917 0.977 . S
H3949 C3919 0.948 . S
H3950 C3921 0.947 . S
H3951 C3922 0.948 . S
H3952 C3928 0.982 . S
H3953 C3928 0.979 . S
H3954 C3928 0.977 . S
H3955 C3929 0.979 . S
H3956 C3929 0.980 . S
H3957 C3929 0.983 . S
H3958 C3902 0.947 . S
C3959 C3902 1.392 . S
C3959 C3903 1.419 . S
C3959 H3941 0.948 . S
C3960 C3961 1.391 . S
C3960 C3964 1.391 . S
C3960 H4002 0.948 . S
C3961 C3960 1.391 . S
C3961 C3962 1.391 . S
C3962 C3961 1.391 . S
C3962 H4018 0.947 . S
C3962 C4019 1.392 . S
C3963 C3964 1.391 . S
C3963 C3967 1.397 . S
C3963 C4019 1.419 . S
C3964 C3960 1.391 . S
C3964 C3963 1.391 . S
C3964 C3965 1.399 . S
C3965 C3964 1.399 . S
C3965 C3968 1.396 . S
C3965 C3977 1.453 . S
C3965 C3978 1.684 . S
H3966 C3990 0.948 . S
C3967 C3963 1.397 . S
C3967 C3968 1.394 . S
C3967 C3986 1.723 . S
C3968 C3965 1.396 . S
C3968 C3967 1.394 . S
C3968 C3998 1.723 . S
H3969 C3992 0.947 . S
H3970 C3993 0.948 . S
H3971 C3999 0.982 . S
H3972 C4000 0.979 . S
H3973 C4000 0.980 . S
H3974 C4000 0.983 . S
H3975 C3999 0.979 . S
H3976 C3999 0.977 . S
C3977 C3965 1.453 . S
C3977 H4006 0.982 . S
C3977 H4007 0.979 . S
C3977 H4008 0.977 . S
C3978 C3965 1.684 . S
C3978 H4003 0.979 . S
C3978 H4004 0.980 . S
C3978 H4005 0.983 . S
C3979 C3980 1.391 . S
C3979 C3984 1.391 . S
C3979 H4009 0.948 . S
C3980 C3979 1.391 . S
C3980 C3981 1.391 . S
C3981 C3980 1.391 . S
C3981 C3982 1.392 . S
C3981 H4010 0.947 . S
C3982 C3981 1.392 . S
C3982 C3983 1.419 . S
C3982 H4011 0.948 . S
C3983 C3982 1.419 . S
C3983 C3984 1.391 . S
C3983 C3987 1.397 . S
C3984 C3979 1.391 . S
C3984 C3983 1.391 . S
C3984 C3985 1.399 . S
C3985 C3984 1.399 . S
C3985 C3986 1.396 . S
C3985 C3988 1.453 . S
C3985 C3989 1.684 . S
C3986 C3967 1.723 . S
C3986 C3985 1.396 . S
C3986 C3987 1.394 . S
C3987 C3983 1.397 . S
C3987 C3986 1.394 . S
C3987 C3997 1.723 . S
C3988 C3985 1.453 . S
C3988 H4012 0.982 . S
C3988 H4013 0.979 . S
C3988 H4014 0.977 . S
C3989 C3985 1.684 . S
C3989 H4015 0.979 . S
C3989 H4016 0.980 . S
C3989 H4017 0.983 . S
C3990 H3966 0.948 . S
C3990 C3991 1.391 . S
C3990 C3995 1.391 . S
C3991 C3990 1.391 . S
C3991 C3992 1.391 . S
C3992 H3969 0.947 . S
C3992 C3991 1.391 . S
C3992 C3993 1.392 . S
C3993 H3970 0.948 . S
C3993 C3992 1.392 . S
C3993 C3994 1.419 . S
C3994 C3993 1.419 . S
C3994 C3995 1.391 . S
C3994 C3998 1.397 . S
C3995 C3990 1.391 . S
C3995 C3994 1.391 . S
C3995 C3996 1.399 . S
C3996 C3995 1.399 . S
C3996 C3997 1.396 . S
C3996 C3999 1.453 . S
C3996 C4000 1.684 . S
C3997 C3987 1.723 . S
C3997 C3996 1.396 . S
C3997 C3998 1.394 . S
C3998 C3968 1.723 . S
C3998 C3994 1.397 . S
C3998 C3997 1.394 . S
C3999 H3971 0.982 . S
C3999 H3975 0.979 . S
C3999 H3976 0.977 . S
C3999 C3996 1.453 . S
C4000 H3972 0.979 . S
C4000 H3973 0.980 . S
C4000 H3974 0.983 . S
C4000 C3996 1.684 . S
H4001 C4019 0.948 . S
H4002 C3960 0.948 . S
H4003 C3978 0.979 . S
H4004 C3978 0.980 . S
H4005 C3978 0.983 . S
H4006 C3977 0.982 . S
H4007 C3977 0.979 . S
H4008 C3977 0.977 . S
H4009 C3979 0.948 . S
H4010 C3981 0.947 . S
H4011 C3982 0.948 . S
H4012 C3988 0.982 . S
H4013 C3988 0.979 . S
H4014 C3988 0.977 . S
H4015 C3989 0.979 . S
H4016 C3989 0.980 . S
H4017 C3989 0.983 . S
H4018 C3962 0.947 . S
C4019 C3962 1.392 . S
C4019 C3963 1.419 . S
C4019 H4001 0.948 . S
C4020 C4021 1.391 . S
C4020 C4024 1.391 . S
C4020 H4062 0.948 . S
C4021 C4020 1.391 . S
C4021 C4022 1.391 . S
C4022 C4021 1.391 . S
C4022 H4078 0.947 . S
C4022 C4079 1.392 . S
C4023 C4024 1.391 . S
C4023 C4027 1.397 . S
C4023 C4079 1.419 . S
C4024 C4020 1.391 . S
C4024 C4023 1.391 . S
C4024 C4025 1.399 . S
C4025 C4024 1.399 . S
C4025 C4028 1.396 . S
C4025 C4037 1.453 . S
C4025 C4038 1.684 . S
H4026 C4050 0.948 . S
C4027 C4023 1.397 . S
C4027 C4028 1.394 . S
C4027 C4046 1.723 . S
C4028 C4025 1.396 . S
C4028 C4027 1.394 . S
C4028 C4058 1.723 . S
H4029 C4052 0.947 . S
H4030 C4053 0.948 . S
H4031 C4059 0.982 . S
H4032 C4060 0.979 . S
H4033 C4060 0.980 . S
H4034 C4060 0.983 . S
H4035 C4059 0.979 . S
H4036 C4059 0.977 . S
C4037 C4025 1.453 . S
C4037 H4066 0.982 . S
C4037 H4067 0.979 . S
C4037 H4068 0.977 . S
C4038 C4025 1.684 . S
C4038 H4063 0.979 . S
C4038 H4064 0.980 . S
C4038 H4065 0.983 . S
C4039 C4040 1.391 . S
C4039 C4044 1.391 . S
C4039 H4069 0.948 . S
C4040 C4039 1.391 . S
C4040 C4041 1.391 . S
C4041 C4040 1.391 . S
C4041 C4042 1.392 . S
C4041 H4070 0.947 . S
C4042 C4041 1.392 . S
C4042 C4043 1.419 . S
C4042 H4071 0.948 . S
C4043 C4042 1.419 . S
C4043 C4044 1.391 . S
C4043 C4047 1.397 . S
C4044 C4039 1.391 . S
C4044 C4043 1.391 . S
C4044 C4045 1.399 . S
C4045 C4044 1.399 . S
C4045 C4046 1.396 . S
C4045 C4048 1.453 . S
C4045 C4049 1.684 . S
C4046 C4027 1.723 . S
C4046 C4045 1.396 . S
C4046 C4047 1.394 . S
C4047 C4043 1.397 . S
C4047 C4046 1.394 . S
C4047 C4057 1.723 . S
C4048 C4045 1.453 . S
C4048 H4072 0.982 . S
C4048 H4073 0.979 . S
C4048 H4074 0.977 . S
C4049 C4045 1.684 . S
C4049 H4075 0.979 . S
C4049 H4076 0.980 . S
C4049 H4077 0.983 . S
C4050 H4026 0.948 . S
C4050 C4051 1.391 . S
C4050 C4055 1.391 . S
C4051 C4050 1.391 . S
C4051 C4052 1.391 . S
C4052 H4029 0.947 . S
C4052 C4051 1.391 . S
C4052 C4053 1.392 . S
C4053 H4030 0.948 . S
C4053 C4052 1.392 . S
C4053 C4054 1.419 . S
C4054 C4053 1.419 . S
C4054 C4055 1.391 . S
C4054 C4058 1.397 . S
C4055 C4050 1.391 . S
C4055 C4054 1.391 . S
C4055 C4056 1.399 . S
C4056 C4055 1.399 . S
C4056 C4057 1.396 . S
C4056 C4059 1.453 . S
C4056 C4060 1.684 . S
C4057 C4047 1.723 . S
C4057 C4056 1.396 . S
C4057 C4058 1.394 . S
C4058 C4028 1.723 . S
C4058 C4054 1.397 . S
C4058 C4057 1.394 . S
C4059 H4031 0.982 . S
C4059 H4035 0.979 . S
C4059 H4036 0.977 . S
C4059 C4056 1.453 . S
C4060 H4032 0.979 . S
C4060 H4033 0.980 . S
C4060 H4034 0.983 . S
C4060 C4056 1.684 . S
H4061 C4079 0.948 . S
H4062 C4020 0.948 . S
H4063 C4038 0.979 . S
H4064 C4038 0.980 . S
H4065 C4038 0.983 . S
H4066 C4037 0.982 . S
H4067 C4037 0.979 . S
H4068 C4037 0.977 . S
H4069 C4039 0.948 . S
H4070 C4041 0.947 . S
H4071 C4042 0.948 . S
H4072 C4048 0.982 . S
H4073 C4048 0.979 . S
H4074 C4048 0.977 . S
H4075 C4049 0.979 . S
H4076 C4049 0.980 . S
H4077 C4049 0.983 . S
H4078 C4022 0.947 . S
C4079 C4022 1.392 . S
C4079 C4023 1.419 . S
C4079 H4061 0.948 . S
C4080 C4081 1.391 . S
C4080 C4084 1.391 . S
C4080 H4122 0.948 . S
C4081 C4080 1.391 . S
C4081 C4082 1.391 . S
C4082 C4081 1.391 . S
C4082 H4138 0.947 . S
C4082 C4139 1.392 . S
C4083 C4084 1.391 . S
C4083 C4087 1.397 . S
C4083 C4139 1.419 . S
C4084 C4080 1.391 . S
C4084 C4083 1.391 . S
C4084 C4085 1.399 . S
C4085 C4084 1.399 . S
C4085 C4088 1.396 . S
C4085 C4097 1.453 . S
C4085 C4098 1.684 . S
H4086 C4110 0.948 . S
C4087 C4083 1.397 . S
C4087 C4088 1.394 . S
C4087 C4106 1.723 . S
C4088 C4085 1.396 . S
C4088 C4087 1.394 . S
C4088 C4118 1.723 . S
H4089 C4112 0.947 . S
H4090 C4113 0.948 . S
H4091 C4119 0.982 . S
H4092 C4120 0.979 . S
H4093 C4120 0.980 . S
H4094 C4120 0.983 . S
H4095 C4119 0.979 . S
H4096 C4119 0.977 . S
C4097 C4085 1.453 . S
C4097 H4126 0.982 . S
C4097 H4127 0.979 . S
C4097 H4128 0.977 . S
C4098 C4085 1.684 . S
C4098 H4123 0.979 . S
C4098 H4124 0.980 . S
C4098 H4125 0.983 . S
C4099 C4100 1.391 . S
C4099 C4104 1.391 . S
C4099 H4129 0.948 . S
C4100 C4099 1.391 . S
C4100 C4101 1.391 . S
C4101 C4100 1.391 . S
C4101 C4102 1.392 . S
C4101 H4130 0.947 . S
C4102 C4101 1.392 . S
C4102 C4103 1.419 . S
C4102 H4131 0.948 . S
C4103 C4102 1.419 . S
C4103 C4104 1.391 . S
C4103 C4107 1.397 . S
C4104 C4099 1.391 . S
C4104 C4103 1.391 . S
C4104 C4105 1.399 . S
C4105 C4104 1.399 . S
C4105 C4106 1.396 . S
C4105 C4108 1.453 . S
C4105 C4109 1.684 . S
C4106 C4087 1.723 . S
C4106 C4105 1.396 . S
C4106 C4107 1.394 . S
C4107 C4103 1.397 . S
C4107 C4106 1.394 . S
C4107 C4117 1.723 . S
C4108 C4105 1.453 . S
C4108 H4132 0.982 . S
C4108 H4133 0.979 . S
C4108 H4134 0.977 . S
C4109 C4105 1.684 . S
C4109 H4135 0.979 . S
C4109 H4136 0.980 . S
C4109 H4137 0.983 . S
C4110 H4086 0.948 . S
C4110 C4111 1.391 . S
C4110 C4115 1.391 . S
C4111 C4110 1.391 . S
C4111 C4112 1.391 . S
C4112 H4089 0.947 . S
C4112 C4111 1.391 . S
C4112 C4113 1.392 . S
C4113 H4090 0.948 . S
C4113 C4112 1.392 . S
C4113 C4114 1.419 . S
C4114 C4113 1.419 . S
C4114 C4115 1.391 . S
C4114 C4118 1.397 . S
C4115 C4110 1.391 . S
C4115 C4114 1.391 . S
C4115 C4116 1.399 . S
C4116 C4115 1.399 . S
C4116 C4117 1.396 . S
C4116 C4119 1.453 . S
C4116 C4120 1.684 . S
C4117 C4107 1.723 . S
C4117 C4116 1.396 . S
C4117 C4118 1.394 . S
C4118 C4088 1.723 . S
C4118 C4114 1.397 . S
C4118 C4117 1.394 . S
C4119 H4091 0.982 . S
C4119 H4095 0.979 . S
C4119 H4096 0.977 . S
C4119 C4116 1.453 . S
C4120 H4092 0.979 . S
C4120 H4093 0.980 . S
C4120 H4094 0.983 . S
C4120 C4116 1.684 . S
H4121 C4139 0.948 . S
H4122 C4080 0.948 . S
H4123 C4098 0.979 . S
H4124 C4098 0.980 . S
H4125 C4098 0.983 . S
H4126 C4097 0.982 . S
H4127 C4097 0.979 . S
H4128 C4097 0.977 . S
H4129 C4099 0.948 . S
H4130 C4101 0.947 . S
H4131 C4102 0.948 . S
H4132 C4108 0.982 . S
H4133 C4108 0.979 . S
H4134 C4108 0.977 . S
H4135 C4109 0.979 . S
H4136 C4109 0.980 . S
H4137 C4109 0.983 . S
H4138 C4082 0.947 . S
C4139 C4082 1.392 . S
C4139 C4083 1.419 . S
C4139 H4121 0.948 . S
C4140 C4141 1.391 . S
C4140 C4144 1.391 . S
C4140 H4182 0.948 . S
C4141 C4140 1.391 . S
C4141 C4142 1.391 . S
C4142 C4141 1.391 . S
C4142 H4198 0.947 . S
C4142 C4199 1.392 . S
C4143 C4144 1.391 . S
C4143 C4147 1.397 . S
C4143 C4199 1.419 . S
C4144 C4140 1.391 . S
C4144 C4143 1.391 . S
C4144 C4145 1.399 . S
C4145 C4144 1.399 . S
C4145 C4148 1.396 . S
C4145 C4157 1.453 . S
C4145 C4158 1.684 . S
H4146 C4170 0.948 . S
C4147 C4143 1.397 . S
C4147 C4148 1.394 . S
C4147 C4166 1.723 . S
C4148 C4145 1.396 . S
C4148 C4147 1.394 . S
C4148 C4178 1.723 . S
H4149 C4172 0.947 . S
H4150 C4173 0.948 . S
H4151 C4179 0.982 . S
H4152 C4180 0.979 . S
H4153 C4180 0.980 . S
H4154 C4180 0.983 . S
H4155 C4179 0.979 . S
H4156 C4179 0.977 . S
C4157 C4145 1.453 . S
C4157 H4186 0.982 . S
C4157 H4187 0.979 . S
C4157 H4188 0.977 . S
C4158 C4145 1.684 . S
C4158 H4183 0.979 . S
C4158 H4184 0.980 . S
C4158 H4185 0.983 . S
C4159 C4160 1.391 . S
C4159 C4164 1.391 . S
C4159 H4189 0.948 . S
C4160 C4159 1.391 . S
C4160 C4161 1.391 . S
C4161 C4160 1.391 . S
C4161 C4162 1.392 . S
C4161 H4190 0.947 . S
C4162 C4161 1.392 . S
C4162 C4163 1.419 . S
C4162 H4191 0.948 . S
C4163 C4162 1.419 . S
C4163 C4164 1.391 . S
C4163 C4167 1.397 . S
C4164 C4159 1.391 . S
C4164 C4163 1.391 . S
C4164 C4165 1.399 . S
C4165 C4164 1.399 . S
C4165 C4166 1.396 . S
C4165 C4168 1.453 . S
C4165 C4169 1.684 . S
C4166 C4147 1.723 . S
C4166 C4165 1.396 . S
C4166 C4167 1.394 . S
C4167 C4163 1.397 . S
C4167 C4166 1.394 . S
C4167 C4177 1.723 . S
C4168 C4165 1.453 . S
C4168 H4192 0.982 . S
C4168 H4193 0.979 . S
C4168 H4194 0.977 . S
C4169 C4165 1.684 . S
C4169 H4195 0.979 . S
C4169 H4196 0.980 . S
C4169 H4197 0.983 . S
C4170 H4146 0.948 . S
C4170 C4171 1.391 . S
C4170 C4175 1.391 . S
C4171 C4170 1.391 . S
C4171 C4172 1.391 . S
C4172 H4149 0.947 . S
C4172 C4171 1.391 . S
C4172 C4173 1.392 . S
C4173 H4150 0.948 . S
C4173 C4172 1.392 . S
C4173 C4174 1.419 . S
C4174 C4173 1.419 . S
C4174 C4175 1.391 . S
C4174 C4178 1.397 . S
C4175 C4170 1.391 . S
C4175 C4174 1.391 . S
C4175 C4176 1.399 . S
C4176 C4175 1.399 . S
C4176 C4177 1.396 . S
C4176 C4179 1.453 . S
C4176 C4180 1.684 . S
C4177 C4167 1.723 . S
C4177 C4176 1.396 . S
C4177 C4178 1.394 . S
C4178 C4148 1.723 . S
C4178 C4174 1.397 . S
C4178 C4177 1.394 . S
C4179 H4151 0.982 . S
C4179 H4155 0.979 . S
C4179 H4156 0.977 . S
C4179 C4176 1.453 . S
C4180 H4152 0.979 . S
C4180 H4153 0.980 . S
C4180 H4154 0.983 . S
C4180 C4176 1.684 . S
H4181 C4199 0.948 . S
H4182 C4140 0.948 . S
H4183 C4158 0.979 . S
H4184 C4158 0.980 . S
H4185 C4158 0.983 . S
H4186 C4157 0.982 . S
H4187 C4157 0.979 . S
H4188 C4157 0.977 . S
H4189 C4159 0.948 . S
H4190 C4161 0.947 . S
H4191 C4162 0.948 . S
H4192 C4168 0.982 . S
H4193 C4168 0.979 . S
H4194 C4168 0.977 . S
H4195 C4169 0.979 . S
H4196 C4169 0.980 . S
H4197 C4169 0.983 . S
H4198 C4142 0.947 . S
C4199 C4142 1.392 . S
C4199 C4143 1.419 . S
C4199 H4181 0.948 . S
C4200 C4201 1.391 . S
C4200 C4204 1.391 . S
C4200 H4242 0.948 . S
C4201 C4200 1.391 . S
C4201 C4202 1.391 . S
C4202 C4201 1.391 . S
C4202 H4258 0.947 . S
C4202 C4259 1.392 . S
C4203 C4204 1.391 . S
C4203 C4207 1.397 . S
C4203 C4259 1.419 . S
C4204 C4200 1.391 . S
C4204 C4203 1.391 . S
C4204 C4205 1.399 . S
C4205 C4204 1.399 . S
C4205 C4208 1.396 . S
C4205 C4217 1.453 . S
C4205 C4218 1.684 . S
H4206 C4230 0.948 . S
C4207 C4203 1.397 . S
C4207 C4208 1.394 . S
C4207 C4226 1.723 . S
C4208 C4205 1.396 . S
C4208 C4207 1.394 . S
C4208 C4238 1.723 . S
H4209 C4232 0.947 . S
H4210 C4233 0.948 . S
H4211 C4239 0.982 . S
H4212 C4240 0.979 . S
H4213 C4240 0.980 . S
H4214 C4240 0.983 . S
H4215 C4239 0.979 . S
H4216 C4239 0.977 . S
C4217 C4205 1.453 . S
C4217 H4246 0.982 . S
C4217 H4247 0.979 . S
C4217 H4248 0.977 . S
C4218 C4205 1.684 . S
C4218 H4243 0.979 . S
C4218 H4244 0.980 . S
C4218 H4245 0.983 . S
C4219 C4220 1.391 . S
C4219 C4224 1.391 . S
C4219 H4249 0.948 . S
C4220 C4219 1.391 . S
C4220 C4221 1.391 . S
C4221 C4220 1.391 . S
C4221 C4222 1.392 . S
C4221 H4250 0.947 . S
C4222 C4221 1.392 . S
C4222 C4223 1.419 . S
C4222 H4251 0.948 . S
C4223 C4222 1.419 . S
C4223 C4224 1.391 . S
C4223 C4227 1.397 . S
C4224 C4219 1.391 . S
C4224 C4223 1.391 . S
C4224 C4225 1.399 . S
C4225 C4224 1.399 . S
C4225 C4226 1.396 . S
C4225 C4228 1.453 . S
C4225 C4229 1.684 . S
C4226 C4207 1.723 . S
C4226 C4225 1.396 . S
C4226 C4227 1.394 . S
C4227 C4223 1.397 . S
C4227 C4226 1.394 . S
C4227 C4237 1.723 . S
C4228 C4225 1.453 . S
C4228 H4252 0.982 . S
C4228 H4253 0.979 . S
C4228 H4254 0.977 . S
C4229 C4225 1.684 . S
C4229 H4255 0.979 . S
C4229 H4256 0.980 . S
C4229 H4257 0.983 . S
C4230 H4206 0.948 . S
C4230 C4231 1.391 . S
C4230 C4235 1.391 . S
C4231 C4230 1.391 . S
C4231 C4232 1.391 . S
C4232 H4209 0.947 . S
C4232 C4231 1.391 . S
C4232 C4233 1.392 . S
C4233 H4210 0.948 . S
C4233 C4232 1.392 . S
C4233 C4234 1.419 . S
C4234 C4233 1.419 . S
C4234 C4235 1.391 . S
C4234 C4238 1.397 . S
C4235 C4230 1.391 . S
C4235 C4234 1.391 . S
C4235 C4236 1.399 . S
C4236 C4235 1.399 . S
C4236 C4237 1.396 . S
C4236 C4239 1.453 . S
C4236 C4240 1.684 . S
C4237 C4227 1.723 . S
C4237 C4236 1.396 . S
C4237 C4238 1.394 . S
C4238 C4208 1.723 . S
C4238 C4234 1.397 . S
C4238 C4237 1.394 . S
C4239 H4211 0.982 . S
C4239 H4215 0.979 . S
C4239 H4216 0.977 . S
C4239 C4236 1.453 . S
C4240 H4212 0.979 . S
C4240 H4213 0.980 . S
C4240 H4214 0.983 . S
C4240 C4236 1.684 . S
H4241 C4259 0.948 . S
H4242 C4200 0.948 . S
H4243 C4218 0.979 . S
H4244 C4218 0.980 . S
H4245 C4218 0.983 . S
H4246 C4217 0.982 . S
H4247 C4217 0.979 . S
H4248 C4217 0.977 . S
H4249 C4219 0.948 . S
H4250 C4221 0.947 . S
H4251 C4222 0.948 . S
H4252 C4228 0.982 . S
H4253 C4228 0.979 . S
H4254 C4228 0.977 . S
H4255 C4229 0.979 . S
H4256 C4229 0.980 . S
H4257 C4229 0.983 . S
H4258 C4202 0.947 . S
C4259 C4202 1.392 . S
C4259 C4203 1.419 . S
C4259 H4241 0.948 . S
C4260 C4261 1.391 . S
C4260 C4264 1.391 . S
C4260 H4302 0.948 . S
C4261 C4260 1.391 . S
C4261 C4262 1.391 . S
C4262 C4261 1.391 . S
C4262 H4318 0.947 . S
C4262 C4319 1.392 . S
C4263 C4264 1.391 . S
C4263 C4267 1.397 . S
C4263 C4319 1.419 . S
C4264 C4260 1.391 . S
C4264 C4263 1.391 . S
C4264 C4265 1.399 . S
C4265 C4264 1.399 . S
C4265 C4268 1.396 . S
C4265 C4277 1.453 . S
C4265 C4278 1.684 . S
H4266 C4290 0.948 . S
C4267 C4263 1.397 . S
C4267 C4268 1.394 . S
C4267 C4286 1.723 . S
C4268 C4265 1.396 . S
C4268 C4267 1.394 . S
C4268 C4298 1.723 . S
H4269 C4292 0.947 . S
H4270 C4293 0.948 . S
H4271 C4299 0.982 . S
H4272 C4300 0.979 . S
H4273 C4300 0.980 . S
H4274 C4300 0.983 . S
H4275 C4299 0.979 . S
H4276 C4299 0.977 . S
C4277 C4265 1.453 . S
C4277 H4306 0.982 . S
C4277 H4307 0.979 . S
C4277 H4308 0.977 . S
C4278 C4265 1.684 . S
C4278 H4303 0.979 . S
C4278 H4304 0.980 . S
C4278 H4305 0.983 . S
C4279 C4280 1.391 . S
C4279 C4284 1.391 . S
C4279 H4309 0.948 . S
C4280 C4279 1.391 . S
C4280 C4281 1.391 . S
C4281 C4280 1.391 . S
C4281 C4282 1.392 . S
C4281 H4310 0.947 . S
C4282 C4281 1.392 . S
C4282 C4283 1.419 . S
C4282 H4311 0.948 . S
C4283 C4282 1.419 . S
C4283 C4284 1.391 . S
C4283 C4287 1.397 . S
C4284 C4279 1.391 . S
C4284 C4283 1.391 . S
C4284 C4285 1.399 . S
C4285 C4284 1.399 . S
C4285 C4286 1.396 . S
C4285 C4288 1.453 . S
C4285 C4289 1.684 . S
C4286 C4267 1.723 . S
C4286 C4285 1.396 . S
C4286 C4287 1.394 . S
C4287 C4283 1.397 . S
C4287 C4286 1.394 . S
C4287 C4297 1.723 . S
C4288 C4285 1.453 . S
C4288 H4312 0.982 . S
C4288 H4313 0.979 . S
C4288 H4314 0.977 . S
C4289 C4285 1.684 . S
C4289 H4315 0.979 . S
C4289 H4316 0.980 . S
C4289 H4317 0.983 . S
C4290 H4266 0.948 . S
C4290 C4291 1.391 . S
C4290 C4295 1.391 . S
C4291 C4290 1.391 . S
C4291 C4292 1.391 . S
C4292 H4269 0.947 . S
C4292 C4291 1.391 . S
C4292 C4293 1.392 . S
C4293 H4270 0.948 . S
C4293 C4292 1.392 . S
C4293 C4294 1.419 . S
C4294 C4293 1.419 . S
C4294 C4295 1.391 . S
C4294 C4298 1.397 . S
C4295 C4290 1.391 . S
C4295 C4294 1.391 . S
C4295 C4296 1.399 . S
C4296 C4295 1.399 . S
C4296 C4297 1.396 . S
C4296 C4299 1.453 . S
C4296 C4300 1.684 . S
C4297 C4287 1.723 . S
C4297 C4296 1.396 . S
C4297 C4298 1.394 . S
C4298 C4268 1.723 . S
C4298 C4294 1.397 . S
C4298 C4297 1.394 . S
C4299 H4271 0.982 . S
C4299 H4275 0.979 . S
C4299 H4276 0.977 . S
C4299 C4296 1.453 . S
C4300 H4272 0.979 . S
C4300 H4273 0.980 . S
C4300 H4274 0.983 . S
C4300 C4296 1.684 . S
H4301 C4319 0.948 . S
H4302 C4260 0.948 . S
H4303 C4278 0.979 . S
H4304 C4278 0.980 . S
H4305 C4278 0.983 . S
H4306 C4277 0.982 . S
H4307 C4277 0.979 . S
H4308 C4277 0.977 . S
H4309 C4279 0.948 . S
H4310 C4281 0.947 . S
H4311 C4282 0.948 . S
H4312 C4288 0.982 . S
H4313 C4288 0.979 . S
H4314 C4288 0.977 . S
H4315 C4289 0.979 . S
H4316 C4289 0.980 . S
H4317 C4289 0.983 . S
H4318 C4262 0.947 . S
C4319 C4262 1.392 . S
C4319 C4263 1.419 . S
C4319 H4301 0.948 . S
C4320 C4321 1.391 . S
C4320 C4324 1.391 . S
C4320 H4362 0.948 . S
C4321 C4320 1.391 . S
C4321 C4322 1.391 . S
C4322 C4321 1.391 . S
C4322 H4378 0.947 . S
C4322 C4379 1.392 . S
C4323 C4324 1.391 . S
C4323 C4327 1.397 . S
C4323 C4379 1.419 . S
C4324 C4320 1.391 . S
C4324 C4323 1.391 . S
C4324 C4325 1.399 . S
C4325 C4324 1.399 . S
C4325 C4328 1.396 . S
C4325 C4337 1.453 . S
C4325 C4338 1.684 . S
H4326 C4350 0.948 . S
C4327 C4323 1.397 . S
C4327 C4328 1.394 . S
C4327 C4346 1.723 . S
C4328 C4325 1.396 . S
C4328 C4327 1.394 . S
C4328 C4358 1.723 . S
H4329 C4352 0.947 . S
H4330 C4353 0.948 . S
H4331 C4359 0.982 . S
H4332 C4360 0.979 . S
H4333 C4360 0.980 . S
H4334 C4360 0.983 . S
H4335 C4359 0.979 . S
H4336 C4359 0.977 . S
C4337 C4325 1.453 . S
C4337 H4366 0.982 . S
C4337 H4367 0.979 . S
C4337 H4368 0.977 . S
C4338 C4325 1.684 . S
C4338 H4363 0.979 . S
C4338 H4364 0.980 . S
C4338 H4365 0.983 . S
C4339 C4340 1.391 . S
C4339 C4344 1.391 . S
C4339 H4369 0.948 . S
C4340 C4339 1.391 . S
C4340 C4341 1.391 . S
C4341 C4340 1.391 . S
C4341 C4342 1.392 . S
C4341 H4370 0.947 . S
C4342 C4341 1.392 . S
C4342 C4343 1.419 . S
C4342 H4371 0.948 . S
C4343 C4342 1.419 . S
C4343 C4344 1.391 . S
C4343 C4347 1.397 . S
C4344 C4339 1.391 . S
C4344 C4343 1.391 . S
C4344 C4345 1.399 . S
C4345 C4344 1.399 . S
C4345 C4346 1.396 . S
C4345 C4348 1.453 . S
C4345 C4349 1.684 . S
C4346 C4327 1.723 . S
C4346 C4345 1.396 . S
C4346 C4347 1.394 . S
C4347 C4343 1.397 . S
C4347 C4346 1.394 . S
C4347 C4357 1.723 . S
C4348 C4345 1.453 . S
C4348 H4372 0.982 . S
C4348 H4373 0.979 . S
C4348 H4374 0.977 . S
C4349 C4345 1.684 . S
C4349 H4375 0.979 . S
C4349 H4376 0.980 . S
C4349 H4377 0.983 . S
C4350 H4326 0.948 . S
C4350 C4351 1.391 . S
C4350 C4355 1.391 . S
C4351 C4350 1.391 . S
C4351 C4352 1.391 . S
C4352 H4329 0.947 . S
C4352 C4351 1.391 . S
C4352 C4353 1.392 . S
C4353 H4330 0.948 . S
C4353 C4352 1.392 . S
C4353 C4354 1.419 . S
C4354 C4353 1.419 . S
C4354 C4355 1.391 . S
C4354 C4358 1.397 . S
C4355 C4350 1.391 . S
C4355 C4354 1.391 . S
C4355 C4356 1.399 . S
C4356 C4355 1.399 . S
C4356 C4357 1.396 . S
C4356 C4359 1.453 . S
C4356 C4360 1.684 . S
C4357 C4347 1.723 . S
C4357 C4356 1.396 . S
C4357 C4358 1.394 . S
C4358 C4328 1.723 . S
C4358 C4354 1.397 . S
C4358 C4357 1.394 . S
C4359 H4331 0.982 . S
C4359 H4335 0.979 . S
C4359 H4336 0.977 . S
C4359 C4356 1.453 . S
C4360 H4332 0.979 . S
C4360 H4333 0.980 . S
C4360 H4334 0.983 . S
C4360 C4356 1.684 . S
H4361 C4379 0.948 . S
H4362 C4320 0.948 . S
H4363 C4338 0.979 . S
H4364 C4338 0.980 . S
H4365 C4338 0.983 . S
H4366 C4337 0.982 . S
H4367 C4337 0.979 . S
H4368 C4337 0.977 . S
H4369 C4339 0.948 . S
H4370 C4341 0.947 . S
H4371 C4342 0.948 . S
H4372 C4348 0.982 . S
H4373 C4348 0.979 . S
H4374 C4348 0.977 . S
H4375 C4349 0.979 . S
H4376 C4349 0.980 . S
H4377 C4349 0.983 . S
H4378 C4322 0.947 . S
C4379 C4322 1.392 . S
C4379 C4323 1.419 . S
C4379 H4361 0.948 . S
C4380 C4381 1.391 . S
C4380 C4384 1.391 . S
C4380 H4422 0.948 . S
C4381 C4380 1.391 . S
C4381 C4382 1.391 . S
C4382 C4381 1.391 . S
C4382 H4438 0.947 . S
C4382 C4439 1.392 . S
C4383 C4384 1.391 . S
C4383 C4387 1.397 . S
C4383 C4439 1.419 . S
C4384 C4380 1.391 . S
C4384 C4383 1.391 . S
C4384 C4385 1.399 . S
C4385 C4384 1.399 . S
C4385 C4388 1.396 . S
C4385 C4397 1.453 . S
C4385 C4398 1.684 . S
H4386 C4410 0.948 . S
C4387 C4383 1.397 . S
C4387 C4388 1.394 . S
C4387 C4406 1.723 . S
C4388 C4385 1.396 . S
C4388 C4387 1.394 . S
C4388 C4418 1.723 . S
H4389 C4412 0.947 . S
H4390 C4413 0.948 . S
H4391 C4419 0.982 . S
H4392 C4420 0.979 . S
H4393 C4420 0.980 . S
H4394 C4420 0.983 . S
H4395 C4419 0.979 . S
H4396 C4419 0.977 . S
C4397 C4385 1.453 . S
C4397 H4426 0.982 . S
C4397 H4427 0.979 . S
C4397 H4428 0.977 . S
C4398 C4385 1.684 . S
C4398 H4423 0.979 . S
C4398 H4424 0.980 . S
C4398 H4425 0.983 . S
C4399 C4400 1.391 . S
C4399 C4404 1.391 . S
C4399 H4429 0.948 . S
C4400 C4399 1.391 . S
C4400 C4401 1.391 . S
C4401 C4400 1.391 . S
C4401 C4402 1.392 . S
C4401 H4430 0.947 . S
C4402 C4401 1.392 . S
C4402 C4403 1.419 . S
C4402 H4431 0.948 . S
C4403 C4402 1.419 . S
C4403 C4404 1.391 . S
C4403 C4407 1.397 . S
C4404 C4399 1.391 . S
C4404 C4403 1.391 . S
C4404 C4405 1.399 . S
C4405 C4404 1.399 . S
C4405 C4406 1.396 . S
C4405 C4408 1.453 . S
C4405 C4409 1.684 . S
C4406 C4387 1.723 . S
C4406 C4405 1.396 . S
C4406 C4407 1.394 . S
C4407 C4403 1.397 . S
C4407 C4406 1.394 . S
C4407 C4417 1.723 . S
C4408 C4405 1.453 . S
C4408 H4432 0.982 . S
C4408 H4433 0.979 . S
C4408 H4434 0.977 . S
C4409 C4405 1.684 . S
C4409 H4435 0.979 . S
C4409 H4436 0.980 . S
C4409 H4437 0.983 . S
C4410 H4386 0.948 . S
C4410 C4411 1.391 . S
C4410 C4415 1.391 . S
C4411 C4410 1.391 . S
C4411 C4412 1.391 . S
C4412 H4389 0.947 . S
C4412 C4411 1.391 . S
C4412 C4413 1.392 . S
C4413 H4390 0.948 . S
C4413 C4412 1.392 . S
C4413 C4414 1.419 . S
C4414 C4413 1.419 . S
C4414 C4415 1.391 . S
C4414 C4418 1.397 . S
C4415 C4410 1.391 . S
C4415 C4414 1.391 . S
C4415 C4416 1.399 . S
C4416 C4415 1.399 . S
C4416 C4417 1.396 . S
C4416 C4419 1.453 . S
C4416 C4420 1.684 . S
C4417 C4407 1.723 . S
C4417 C4416 1.396 . S
C4417 C4418 1.394 . S
C4418 C4388 1.723 . S
C4418 C4414 1.397 . S
C4418 C4417 1.394 . S
C4419 H4391 0.982 . S
C4419 H4395 0.979 . S
C4419 H4396 0.977 . S
C4419 C4416 1.453 . S
C4420 H4392 0.979 . S
C4420 H4393 0.980 . S
C4420 H4394 0.983 . S
C4420 C4416 1.684 . S
H4421 C4439 0.948 . S
H4422 C4380 0.948 . S
H4423 C4398 0.979 . S
H4424 C4398 0.980 . S
H4425 C4398 0.983 . S
H4426 C4397 0.982 . S
H4427 C4397 0.979 . S
H4428 C4397 0.977 . S
H4429 C4399 0.948 . S
H4430 C4401 0.947 . S
H4431 C4402 0.948 . S
H4432 C4408 0.982 . S
H4433 C4408 0.979 . S
H4434 C4408 0.977 . S
H4435 C4409 0.979 . S
H4436 C4409 0.980 . S
H4437 C4409 0.983 . S
H4438 C4382 0.947 . S
C4439 C4382 1.392 . S
C4439 C4383 1.419 . S
C4439 H4421 0.948 . S
C4440 C4441 1.391 . S
C4440 C4444 1.391 . S
C4440 H4482 0.948 . S
C4441 C4440 1.391 . S
C4441 C4442 1.391 . S
C4442 C4441 1.391 . S
C4442 H4498 0.947 . S
C4442 C4499 1.392 . S
C4443 C4444 1.391 . S
C4443 C4447 1.397 . S
C4443 C4499 1.419 . S
C4444 C4440 1.391 . S
C4444 C4443 1.391 . S
C4444 C4445 1.399 . S
C4445 C4444 1.399 . S
C4445 C4448 1.396 . S
C4445 C4457 1.453 . S
C4445 C4458 1.684 . S
H4446 C4470 0.948 . S
C4447 C4443 1.397 . S
C4447 C4448 1.394 . S
C4447 C4466 1.723 . S
C4448 C4445 1.396 . S
C4448 C4447 1.394 . S
C4448 C4478 1.723 . S
H4449 C4472 0.947 . S
H4450 C4473 0.948 . S
H4451 C4479 0.982 . S
H4452 C4480 0.979 . S
H4453 C4480 0.980 . S
H4454 C4480 0.983 . S
H4455 C4479 0.979 . S
H4456 C4479 0.977 . S
C4457 C4445 1.453 . S
C4457 H4486 0.982 . S
C4457 H4487 0.979 . S
C4457 H4488 0.977 . S
C4458 C4445 1.684 . S
C4458 H4483 0.979 . S
C4458 H4484 0.980 . S
C4458 H4485 0.983 . S
C4459 C4460 1.391 . S
C4459 C4464 1.391 . S
C4459 H4489 0.948 . S
C4460 C4459 1.391 . S
C4460 C4461 1.391 . S
C4461 C4460 1.391 . S
C4461 C4462 1.392 . S
C4461 H4490 0.947 . S
C4462 C4461 1.392 . S
C4462 C4463 1.419 . S
C4462 H4491 0.948 . S
C4463 C4462 1.419 . S
C4463 C4464 1.391 . S
C4463 C4467 1.397 . S
C4464 C4459 1.391 . S
C4464 C4463 1.391 . S
C4464 C4465 1.399 . S
C4465 C4464 1.399 . S
C4465 C4466 1.396 . S
C4465 C4468 1.453 . S
C4465 C4469 1.684 . S
C4466 C4447 1.723 . S
C4466 C4465 1.396 . S
C4466 C4467 1.394 . S
C4467 C4463 1.397 . S
C4467 C4466 1.394 . S
C4467 C4477 1.723 . S
C4468 C4465 1.453 . S
C4468 H4492 0.982 . S
C4468 H4493 0.979 . S
C4468 H4494 0.977 . S
C4469 C4465 1.684 . S
C4469 H4495 0.979 . S
C4469 H4496 0.980 . S
C4469 H4497 0.983 . S
C4470 H4446 0.948 . S
C4470 C4471 1.391 . S
C4470 C4475 1.391 . S
C4471 C4470 1.391 . S
C4471 C4472 1.391 . S
C4472 H4449 0.947 . S
C4472 C4471 1.391 . S
C4472 C4473 1.392 . S
C4473 H4450 0.948 . S
C4473 C4472 1.392 . S
C4473 C4474 1.419 . S
C4474 C4473 1.419 . S
C4474 C4475 1.391 . S
C4474 C4478 1.397 . S
C4475 C4470 1.391 . S
C4475 C4474 1.391 . S
C4475 C4476 1.399 . S
C4476 C4475 1.399 . S
C4476 C4477 1.396 . S
C4476 C4479 1.453 . S
C4476 C4480 1.684 . S
C4477 C4467 1.723 . S
C4477 C4476 1.396 . S
C4477 C4478 1.394 . S
C4478 C4448 1.723 . S
C4478 C4474 1.397 . S
C4478 C4477 1.394 . S
C4479 H4451 0.982 . S
C4479 H4455 0.979 . S
C4479 H4456 0.977 . S
C4479 C4476 1.453 . S
C4480 H4452 0.979 . S
C4480 H4453 0.980 . S
C4480 H4454 0.983 . S
C4480 C4476 1.684 . S
H4481 C4499 0.948 . S
H4482 C4440 0.948 . S
H4483 C4458 0.979 . S
H4484 C4458 0.980 . S
H4485 C4458 0.983 . S
H4486 C4457 0.982 . S
H4487 C4457 0.979 . S
H4488 C4457 0.977 . S
H4489 C4459 0.948 . S
H4490 C4461 0.947 . S
H4491 C4462 0.948 . S
H4492 C4468 0.982 . S
H4493 C4468 0.979 . S
H4494 C4468 0.977 . S
H4495 C4469 0.979 . S
H4496 C4469 0.980 . S
H4497 C4469 0.983 . S
H4498 C4442 0.947 . S
C4499 C4442 1.392 . S
C4499 C4443 1.419 . S
C4499 H4481 0.948 . S
C4500 C4501 1.391 . S
C4500 C4504 1.391 . S
C4500 H4542 0.948 . S
C4501 C4500 1.391 . S
C4501 C4502 1.391 . S
C4502 C4501 1.391 . S
C4502 H4558 0.947 . S
C4502 C4559 1.392 . S
C4503 C4504 1.391 . S
C4503 C4507 1.397 . S
C4503 C4559 1.419 . S
C4504 C4500 1.391 . S
C4504 C4503 1.391 . S
C4504 C4505 1.399 . S
C4505 C4504 1.399 . S
C4505 C4508 1.396 . S
C4505 C4517 1.453 . S
C4505 C4518 1.684 . S
H4506 C4530 0.948 . S
C4507 C4503 1.397 . S
C4507 C4508 1.394 . S
C4507 C4526 1.723 . S
C4508 C4505 1.396 . S
C4508 C4507 1.394 . S
C4508 C4538 1.723 . S
H4509 C4532 0.947 . S
H4510 C4533 0.948 . S
H4511 C4539 0.982 . S
H4512 C4540 0.979 . S
H4513 C4540 0.980 . S
H4514 C4540 0.983 . S
H4515 C4539 0.979 . S
H4516 C4539 0.977 . S
C4517 C4505 1.453 . S
C4517 H4546 0.982 . S
C4517 H4547 0.979 . S
C4517 H4548 0.977 . S
C4518 C4505 1.684 . S
C4518 H4543 0.979 . S
C4518 H4544 0.980 . S
C4518 H4545 0.983 . S
C4519 C4520 1.391 . S
C4519 C4524 1.391 . S
C4519 H4549 0.948 . S
C4520 C4519 1.391 . S
C4520 C4521 1.391 . S
C4521 C4520 1.391 . S
C4521 C4522 1.392 . S
C4521 H4550 0.947 . S
C4522 C4521 1.392 . S
C4522 C4523 1.419 . S
C4522 H4551 0.948 . S
C4523 C4522 1.419 . S
C4523 C4524 1.391 . S
C4523 C4527 1.397 . S
C4524 C4519 1.391 . S
C4524 C4523 1.391 . S
C4524 C4525 1.399 . S
C4525 C4524 1.399 . S
C4525 C4526 1.396 . S
C4525 C4528 1.453 . S
C4525 C4529 1.684 . S
C4526 C4507 1.723 . S
C4526 C4525 1.396 . S
C4526 C4527 1.394 . S
C4527 C4523 1.397 . S
C4527 C4526 1.394 . S
C4527 C4537 1.723 . S
C4528 C4525 1.453 . S
C4528 H4552 0.982 . S
C4528 H4553 0.979 . S
C4528 H4554 0.977 . S
C4529 C4525 1.684 . S
C4529 H4555 0.979 . S
C4529 H4556 0.980 . S
C4529 H4557 0.983 . S
C4530 H4506 0.948 . S
C4530 C4531 1.391 . S
C4530 C4535 1.391 . S
C4531 C4530 1.391 . S
C4531 C4532 1.391 . S
C4532 H4509 0.947 . S
C4532 C4531 1.391 . S
C4532 C4533 1.392 . S
C4533 H4510 0.948 . S
C4533 C4532 1.392 . S
C4533 C4534 1.419 . S
C4534 C4533 1.419 . S
C4534 C4535 1.391 . S
C4534 C4538 1.397 . S
C4535 C4530 1.391 . S
C4535 C4534 1.391 . S
C4535 C4536 1.399 . S
C4536 C4535 1.399 . S
C4536 C4537 1.396 . S
C4536 C4539 1.453 . S
C4536 C4540 1.684 . S
C4537 C4527 1.723 . S
C4537 C4536 1.396 . S
C4537 C4538 1.394 . S
C4538 C4508 1.723 . S
C4538 C4534 1.397 . S
C4538 C4537 1.394 . S
C4539 H4511 0.982 . S
C4539 H4515 0.979 . S
C4539 H4516 0.977 . S
C4539 C4536 1.453 . S
C4540 H4512 0.979 . S
C4540 H4513 0.980 . S
C4540 H4514 0.983 . S
C4540 C4536 1.684 . S
H4541 C4559 0.948 . S
H4542 C4500 0.948 . S
H4543 C4518 0.979 . S
H4544 C4518 0.980 . S
H4545 C4518 0.983 . S
H4546 C4517 0.982 . S
H4547 C4517 0.979 . S
H4548 C4517 0.977 . S
H4549 C4519 0.948 . S
H4550 C4521 0.947 . S
H4551 C4522 0.948 . S
H4552 C4528 0.982 . S
H4553 C4528 0.979 . S
H4554 C4528 0.977 . S
H4555 C4529 0.979 . S
H4556 C4529 0.980 . S
H4557 C4529 0.983 . S
H4558 C4502 0.947 . S
C4559 C4502 1.392 . S
C4559 C4503 1.419 . S
C4559 H4541 0.948 . S
C4560 C4561 1.391 . S
C4560 C4564 1.391 . S
C4560 H4602 0.948 . S
C4561 C4560 1.391 . S
C4561 C4562 1.391 . S
C4562 C4561 1.391 . S
C4562 H4618 0.947 . S
C4562 C4619 1.392 . S
C4563 C4564 1.391 . S
C4563 C4567 1.397 . S
C4563 C4619 1.419 . S
C4564 C4560 1.391 . S
C4564 C4563 1.391 . S
C4564 C4565 1.399 . S
C4565 C4564 1.399 . S
C4565 C4568 1.396 . S
C4565 C4577 1.453 . S
C4565 C4578 1.684 . S
H4566 C4590 0.948 . S
C4567 C4563 1.397 . S
C4567 C4568 1.394 . S
C4567 C4586 1.723 . S
C4568 C4565 1.396 . S
C4568 C4567 1.394 . S
C4568 C4598 1.723 . S
H4569 C4592 0.947 . S
H4570 C4593 0.948 . S
H4571 C4599 0.982 . S
H4572 C4600 0.979 . S
H4573 C4600 0.980 . S
H4574 C4600 0.983 . S
H4575 C4599 0.979 . S
H4576 C4599 0.977 . S
C4577 C4565 1.453 . S
C4577 H4606 0.982 . S
C4577 H4607 0.979 . S
C4577 H4608 0.977 . S
C4578 C4565 1.684 . S
C4578 H4603 0.979 . S
C4578 H4604 0.980 . S
C4578 H4605 0.983 . S
C4579 C4580 1.391 . S
C4579 C4584 1.391 . S
C4579 H4609 0.948 . S
C4580 C4579 1.391 . S
C4580 C4581 1.391 . S
C4581 C4580 1.391 . S
C4581 C4582 1.392 . S
C4581 H4610 0.947 . S
C4582 C4581 1.392 . S
C4582 C4583 1.419 . S
C4582 H4611 0.948 . S
C4583 C4582 1.419 . S
C4583 C4584 1.391 . S
C4583 C4587 1.397 . S
C4584 C4579 1.391 . S
C4584 C4583 1.391 . S
C4584 C4585 1.399 . S
C4585 C4584 1.399 . S
C4585 C4586 1.396 . S
C4585 C4588 1.453 . S
C4585 C4589 1.684 . S
C4586 C4567 1.723 . S
C4586 C4585 1.396 . S
C4586 C4587 1.394 . S
C4587 C4583 1.397 . S
C4587 C4586 1.394 . S
C4587 C4597 1.723 . S
C4588 C4585 1.453 . S
C4588 H4612 0.982 . S
C4588 H4613 0.979 . S
C4588 H4614 0.977 . S
C4589 C4585 1.684 . S
C4589 H4615 0.979 . S
C4589 H4616 0.980 . S
C4589 H4617 0.983 . S
C4590 H4566 0.948 . S
C4590 C4591 1.391 . S
C4590 C4595 1.391 . S
C4591 C4590 1.391 . S
C4591 C4592 1.391 . S
C4592 H4569 0.947 . S
C4592 C4591 1.391 . S
C4592 C4593 1.392 . S
C4593 H4570 0.948 . S
C4593 C4592 1.392 . S
C4593 C4594 1.419 . S
C4594 C4593 1.419 . S
C4594 C4595 1.391 . S
C4594 C4598 1.397 . S
C4595 C4590 1.391 . S
C4595 C4594 1.391 . S
C4595 C4596 1.399 . S
C4596 C4595 1.399 . S
C4596 C4597 1.396 . S
C4596 C4599 1.453 . S
C4596 C4600 1.684 . S
C4597 C4587 1.723 . S
C4597 C4596 1.396 . S
C4597 C4598 1.394 . S
C4598 C4568 1.723 . S
C4598 C4594 1.397 . S
C4598 C4597 1.394 . S
C4599 H4571 0.982 . S
C4599 H4575 0.979 . S
C4599 H4576 0.977 . S
C4599 C4596 1.453 . S
C4600 H4572 0.979 . S
C4600 H4573 0.980 . S
C4600 H4574 0.983 . S
C4600 C4596 1.684 . S
H4601 C4619 0.948 . S
H4602 C4560 0.948 . S
H4603 C4578 0.979 . S
H4604 C4578 0.980 . S
H4605 C4578 0.983 . S
H4606 C4577 0.982 . S
H4607 C4577 0.979 . S
H4608 C4577 0.977 . S
H4609 C4579 0.948 . S
H4610 C4581 0.947 . S
H4611 C4582 0.948 . S
H4612 C4588 0.982 . S
H4613 C4588 0.979 . S
H4614 C4588 0.977 . S
H4615 C4589 0.979 . S
H4616 C4589 0.980 . S
H4617 C4589 0.983 . S
H4618 C4562 0.947 . S
C4619 C4562 1.392 . S
C4619 C4563 1.419 . S
C4619 H4601 0.948 . S
C4620 C4621 1.391 . S
C4620 C4624 1.391 . S
C4620 H4662 0.948 . S
C4621 C4620 1.391 . S
C4621 C4622 1.391 . S
C4622 C4621 1.391 . S
C4622 H4678 0.947 . S
C4622 C4679 1.392 . S
C4623 C4624 1.391 . S
C4623 C4627 1.397 . S
C4623 C4679 1.419 . S
C4624 C4620 1.391 . S
C4624 C4623 1.391 . S
C4624 C4625 1.399 . S
C4625 C4624 1.399 . S
C4625 C4628 1.396 . S
C4625 C4637 1.453 . S
C4625 C4638 1.684 . S
H4626 C4650 0.948 . S
C4627 C4623 1.397 . S
C4627 C4628 1.394 . S
C4627 C4646 1.723 . S
C4628 C4625 1.396 . S
C4628 C4627 1.394 . S
C4628 C4658 1.723 . S
H4629 C4652 0.947 . S
H4630 C4653 0.948 . S
H4631 C4659 0.982 . S
H4632 C4660 0.979 . S
H4633 C4660 0.980 . S
H4634 C4660 0.983 . S
H4635 C4659 0.979 . S
H4636 C4659 0.977 . S
C4637 C4625 1.453 . S
C4637 H4666 0.982 . S
C4637 H4667 0.979 . S
C4637 H4668 0.977 . S
C4638 C4625 1.684 . S
C4638 H4663 0.979 . S
C4638 H4664 0.980 . S
C4638 H4665 0.983 . S
C4639 C4640 1.391 . S
C4639 C4644 1.391 . S
C4639 H4669 0.948 . S
C4640 C4639 1.391 . S
C4640 C4641 1.391 . S
C4641 C4640 1.391 . S
C4641 C4642 1.392 . S
C4641 H4670 0.947 . S
C4642 C4641 1.392 . S
C4642 C4643 1.419 . S
C4642 H4671 0.948 . S
C4643 C4642 1.419 . S
C4643 C4644 1.391 . S
C4643 C4647 1.397 . S
C4644 C4639 1.391 . S
C4644 C4643 1.391 . S
C4644 C4645 1.399 . S
C4645 C4644 1.399 . S
C4645 C4646 1.396 . S
C4645 C4648 1.453 . S
C4645 C4649 1.684 . S
C4646 C4627 1.723 . S
C4646 C4645 1.396 . S
C4646 C4647 1.394 . S
C4647 C4643 1.397 . S
C4647 C4646 1.394 . S
C4647 C4657 1.723 . S
C4648 C4645 1.453 . S
C4648 H4672 0.982 . S
C4648 H4673 0.979 . S
C4648 H4674 0.977 . S
C4649 C4645 1.684 . S
C4649 H4675 0.979 . S
C4649 H4676 0.980 . S
C4649 H4677 0.983 . S
C4650 H4626 0.948 . S
C4650 C4651 1.391 . S
C4650 C4655 1.391 . S
C4651 C4650 1.391 . S
C4651 C4652 1.391 . S
C4652 H4629 0.947 . S
C4652 C4651 1.391 . S
C4652 C4653 1.392 . S
C4653 H4630 0.948 . S
C4653 C4652 1.392 . S
C4653 C4654 1.419 . S
C4654 C4653 1.419 . S
C4654 C4655 1.391 . S
C4654 C4658 1.397 . S
C4655 C4650 1.391 . S
C4655 C4654 1.391 . S
C4655 C4656 1.399 . S
C4656 C4655 1.399 . S
C4656 C4657 1.396 . S
C4656 C4659 1.453 . S
C4656 C4660 1.684 . S
C4657 C4647 1.723 . S
C4657 C4656 1.396 . S
C4657 C4658 1.394 . S
C4658 C4628 1.723 . S
C4658 C4654 1.397 . S
C4658 C4657 1.394 . S
C4659 H4631 0.982 . S
C4659 H4635 0.979 . S
C4659 H4636 0.977 . S
C4659 C4656 1.453 . S
C4660 H4632 0.979 . S
C4660 H4633 0.980 . S
C4660 H4634 0.983 . S
C4660 C4656 1.684 . S
H4661 C4679 0.948 . S
H4662 C4620 0.948 . S
H4663 C4638 0.979 . S
H4664 C4638 0.980 . S
H4665 C4638 0.983 . S
H4666 C4637 0.982 . S
H4667 C4637 0.979 . S
H4668 C4637 0.977 . S
H4669 C4639 0.948 . S
H4670 C4641 0.947 . S
H4671 C4642 0.948 . S
H4672 C4648 0.982 . S
H4673 C4648 0.979 . S
H4674 C4648 0.977 . S
H4675 C4649 0.979 . S
H4676 C4649 0.980 . S
H4677 C4649 0.983 . S
H4678 C4622 0.947 . S
C4679 C4622 1.392 . S
C4679 C4623 1.419 . S
C4679 H4661 0.948 . S
C4680 C4681 1.391 . S
C4680 C4684 1.391 . S
C4680 H4722 0.948 . S
C4681 C4680 1.391 . S
C4681 C4682 1.391 . S
C4682 C4681 1.391 . S
C4682 H4738 0.947 . S
C4682 C4739 1.392 . S
C4683 C4684 1.391 . S
C4683 C4687 1.397 . S
C4683 C4739 1.419 . S
C4684 C4680 1.391 . S
C4684 C4683 1.391 . S
C4684 C4685 1.399 . S
C4685 C4684 1.399 . S
C4685 C4688 1.396 . S
C4685 C4697 1.453 . S
C4685 C4698 1.684 . S
H4686 C4710 0.948 . S
C4687 C4683 1.397 . S
C4687 C4688 1.394 . S
C4687 C4706 1.723 . S
C4688 C4685 1.396 . S
C4688 C4687 1.394 . S
C4688 C4718 1.723 . S
H4689 C4712 0.947 . S
H4690 C4713 0.948 . S
H4691 C4719 0.982 . S
H4692 C4720 0.979 . S
H4693 C4720 0.980 . S
H4694 C4720 0.983 . S
H4695 C4719 0.979 . S
H4696 C4719 0.977 . S
C4697 C4685 1.453 . S
C4697 H4726 0.982 . S
C4697 H4727 0.979 . S
C4697 H4728 0.977 . S
C4698 C4685 1.684 . S
C4698 H4723 0.979 . S
C4698 H4724 0.980 . S
C4698 H4725 0.983 . S
C4699 C4700 1.391 . S
C4699 C4704 1.391 . S
C4699 H4729 0.948 . S
C4700 C4699 1.391 . S
C4700 C4701 1.391 . S
C4701 C4700 1.391 . S
C4701 C4702 1.392 . S
C4701 H4730 0.947 . S
C4702 C4701 1.392 . S
C4702 C4703 1.419 . S
C4702 H4731 0.948 . S
C4703 C4702 1.419 . S
C4703 C4704 1.391 . S
C4703 C4707 1.397 . S
C4704 C4699 1.391 . S
C4704 C4703 1.391 . S
C4704 C4705 1.399 . S
C4705 C4704 1.399 . S
C4705 C4706 1.396 . S
C4705 C4708 1.453 . S
C4705 C4709 1.684 . S
C4706 C4687 1.723 . S
C4706 C4705 1.396 . S
C4706 C4707 1.394 . S
C4707 C4703 1.397 . S
C4707 C4706 1.394 . S
C4707 C4717 1.723 . S
C4708 C4705 1.453 . S
C4708 H4732 0.982 . S
C4708 H4733 0.979 . S
C4708 H4734 0.977 . S
C4709 C4705 1.684 . S
C4709 H4735 0.979 . S
C4709 H4736 0.980 . S
C4709 H4737 0.983 . S
C4710 H4686 0.948 . S
C4710 C4711 1.391 . S
C4710 C4715 1.391 . S
C4711 C4710 1.391 . S
C4711 C4712 1.391 . S
C4712 H4689 0.947 . S
C4712 C4711 1.391 . S
C4712 C4713 1.392 . S
C4713 H4690 0.948 . S
C4713 C4712 1.392 . S
C4713 C4714 1.419 . S
C4714 C4713 1.419 . S
C4714 C4715 1.391 . S
C4714 C4718 1.397 . S
C4715 C4710 1.391 . S
C4715 C4714 1.391 . S
C4715 C4716 1.399 . S
C4716 C4715 1.399 . S
C4716 C4717 1.396 . S
C4716 C4719 1.453 . S
C4716 C4720 1.684 . S
C4717 C4707 1.723 . S
C4717 C4716 1.396 . S
C4717 C4718 1.394 . S
C4718 C4688 1.723 . S
C4718 C4714 1.397 . S
C4718 C4717 1.394 . S
C4719 H4691 0.982 . S
C4719 H4695 0.979 . S
C4719 H4696 0.977 . S
C4719 C4716 1.453 . S
C4720 H4692 0.979 . S
C4720 H4693 0.980 . S
C4720 H4694 0.983 . S
C4720 C4716 1.684 . S
H4721 C4739 0.948 . S
H4722 C4680 0.948 . S
H4723 C4698 0.979 . S
H4724 C4698 0.980 . S
H4725 C4698 0.983 . S
H4726 C4697 0.982 . S
H4727 C4697 0.979 . S
H4728 C4697 0.977 . S
H4729 C4699 0.948 . S
H4730 C4701 0.947 . S
H4731 C4702 0.948 . S
H4732 C4708 0.982 . S
H4733 C4708 0.979 . S
H4734 C4708 0.977 . S
H4735 C4709 0.979 . S
H4736 C4709 0.980 . S
H4737 C4709 0.983 . S
H4738 C4682 0.947 . S
C4739 C4682 1.392 . S
C4739 C4683 1.419 . S
C4739 H4721 0.948 . S
C4740 C4741 1.391 . S
C4740 C4744 1.391 . S
C4740 H4782 0.948 . S
C4741 C4740 1.391 . S
C4741 C4742 1.391 . S
C4742 C4741 1.391 . S
C4742 H4798 0.947 . S
C4742 C4799 1.392 . S
C4743 C4744 1.391 . S
C4743 C4747 1.397 . S
C4743 C4799 1.419 . S
C4744 C4740 1.391 . S
C4744 C4743 1.391 . S
C4744 C4745 1.399 . S
C4745 C4744 1.399 . S
C4745 C4748 1.396 . S
C4745 C4757 1.453 . S
C4745 C4758 1.684 . S
H4746 C4770 0.948 . S
C4747 C4743 1.397 . S
C4747 C4748 1.394 . S
C4747 C4766 1.723 . S
C4748 C4745 1.396 . S
C4748 C4747 1.394 . S
C4748 C4778 1.723 . S
H4749 C4772 0.947 . S
H4750 C4773 0.948 . S
H4751 C4779 0.982 . S
H4752 C4780 0.979 . S
H4753 C4780 0.980 . S
H4754 C4780 0.983 . S
H4755 C4779 0.979 . S
H4756 C4779 0.977 . S
C4757 C4745 1.453 . S
C4757 H4786 0.982 . S
C4757 H4787 0.979 . S
C4757 H4788 0.977 . S
C4758 C4745 1.684 . S
C4758 H4783 0.979 . S
C4758 H4784 0.980 . S
C4758 H4785 0.983 . S
C4759 C4760 1.391 . S
C4759 C4764 1.391 . S
C4759 H4789 0.948 . S
C4760 C4759 1.391 . S
C4760 C4761 1.391 . S
C4761 C4760 1.391 . S
C4761 C4762 1.392 . S
C4761 H4790 0.947 . S
C4762 C4761 1.392 . S
C4762 C4763 1.419 . S
C4762 H4791 0.948 . S
C4763 C4762 1.419 . S
C4763 C4764 1.391 . S
C4763 C4767 1.397 . S
C4764 C4759 1.391 . S
C4764 C4763 1.391 . S
C4764 C4765 1.399 . S
C4765 C4764 1.399 . S
C4765 C4766 1.396 . S
C4765 C4768 1.453 . S
C4765 C4769 1.684 . S
C4766 C4747 1.723 . S
C4766 C4765 1.396 . S
C4766 C4767 1.394 . S
C4767 C4763 1.397 . S
C4767 C4766 1.394 . S
C4767 C4777 1.723 . S
C4768 C4765 1.453 . S
C4768 H4792 0.982 . S
C4768 H4793 0.979 . S
C4768 H4794 0.977 . S
C4769 C4765 1.684 . S
C4769 H4795 0.979 . S
C4769 H4796 0.980 . S
C4769 H4797 0.983 . S
C4770 H4746 0.948 . S
C4770 C4771 1.391 . S
C4770 C4775 1.391 . S
C4771 C4770 1.391 . S
C4771 C4772 1.391 . S
C4772 H4749 0.947 . S
C4772 C4771 1.391 . S
C4772 C4773 1.392 . S
C4773 H4750 0.948 . S
C4773 C4772 1.392 . S
C4773 C4774 1.419 . S
C4774 C4773 1.419 . S
C4774 C4775 1.391 . S
C4774 C4778 1.397 . S
C4775 C4770 1.391 . S
C4775 C4774 1.391 . S
C4775 C4776 1.399 . S
C4776 C4775 1.399 . S
C4776 C4777 1.396 . S
C4776 C4779 1.453 . S
C4776 C4780 1.684 . S
C4777 C4767 1.723 . S
C4777 C4776 1.396 . S
C4777 C4778 1.394 . S
C4778 C4748 1.723 . S
C4778 C4774 1.397 . S
C4778 C4777 1.394 . S
C4779 H4751 0.982 . S
C4779 H4755 0.979 . S
C4779 H4756 0.977 . S
C4779 C4776 1.453 . S
C4780 H4752 0.979 . S
C4780 H4753 0.980 . S
C4780 H4754 0.983 . S
C4780 C4776 1.684 . S
H4781 C4799 0.948 . S
H4782 C4740 0.948 . S
H4783 C4758 0.979 . S
H4784 C4758 0.980 . S
H4785 C4758 0.983 . S
H4786 C4757 0.982 . S
H4787 C4757 0.979 . S
H4788 C4757 0.977 . S
H4789 C4759 0.948 . S
H4790 C4761 0.947 . S
H4791 C4762 0.948 . S
H4792 C4768 0.982 . S
H4793 C4768 0.979 . S
H4794 C4768 0.977 . S
H4795 C4769 0.979 . S
H4796 C4769 0.980 . S
H4797 C4769 0.983 . S
H4798 C4742 0.947 . S
C4799 C4742 1.392 . S
C4799 C4743 1.419 . S
C4799 H4781 0.948 . S
C4800 C4801 1.349 . S
C4800 C4802 1.327 . S
C4800 H4825 0.950 . S
C4801 C4800 1.349 . S
C4801 C4817 1.349 . S
C4802 C4800 1.327 . S
C4802 C4821 1.429 . S
C4802 H4826 0.950 . S
C4803 C4820 1.574 . S
C4803 C4822 1.368 . S
C4803 H4827 0.949 . S
H4804 C4808 0.949 . S
C4805 C4806 1.349 . S
C4805 C4807 1.327 . S
C4805 H4828 0.950 . S
C4806 C4805 1.349 . S
C4806 C4818 1.349 . S
C4807 C4805 1.327 . S
C4807 C4823 1.429 . S
C4807 H4829 0.950 . S
C4808 H4804 0.949 . S
C4808 C4816 1.574 . S
C4808 C4824 1.368 . S
H4809 C4817 0.950 . S
H4810 C4815 0.950 . S
H4811 C4816 0.949 . S
H4812 C4818 0.950 . S
H4813 C4819 0.950 . S
H4814 C4820 0.949 . S
C4815 H4810 0.950 . S
C4815 C4817 1.327 . S
C4815 C4821 1.429 . S
C4816 C4808 1.574 . S
C4816 H4811 0.949 . S
C4816 C4822 1.368 . S
C4817 C4801 1.349 . S
C4817 H4809 0.950 . S
C4817 C4815 1.327 . S
C4818 C4806 1.349 . S
C4818 H4812 0.950 . S
C4818 C4819 1.327 . S
C4819 H4813 0.950 . S
C4819 C4818 1.327 . S
C4819 C4823 1.429 . S
C4820 C4803 1.574 . S
C4820 H4814 0.949 . S
C4820 C4824 1.368 . S
C4821 C4802 1.429 . S
C4821 C4815 1.429 . S
C4821 C4822 1.523 . S
C4822 C4803 1.368 . S
C4822 C4816 1.368 . S
C4822 C4821 1.523 . S
C4823 C4807 1.429 . S
C4823 C4819 1.429 . S
C4823 C4824 1.523 . S
C4824 C4808 1.368 . S
C4824 C4820 1.368 . S
C4824 C4823 1.523 . S
H4825 C4800 0.950 . S
H4826 C4802 0.950 . S
H4827 C4803 0.949 . S
H4828 C4805 0.950 . S
H4829 C4807 0.950 . S
C4830 C4831 1.349 . S
C4830 C4832 1.327 . S
C4830 H4855 0.950 . S
C4831 C4830 1.349 . S
C4831 C4847 1.349 . S
C4832 C4830 1.327 . S
C4832 C4851 1.429 . S
C4832 H4856 0.950 . S
C4833 C4850 1.574 . S
C4833 C4852 1.368 . S
C4833 H4857 0.949 . S
H4834 C4838 0.949 . S
C4835 C4836 1.349 . S
C4835 C4837 1.327 . S
C4835 H4858 0.950 . S
C4836 C4835 1.349 . S
C4836 C4848 1.349 . S
C4837 C4835 1.327 . S
C4837 C4853 1.429 . S
C4837 H4859 0.950 . S
C4838 H4834 0.949 . S
C4838 C4846 1.574 . S
C4838 C4854 1.368 . S
H4839 C4847 0.950 . S
H4840 C4845 0.950 . S
H4841 C4846 0.949 . S
H4842 C4848 0.950 . S
H4843 C4849 0.950 . S
H4844 C4850 0.949 . S
C4845 H4840 0.950 . S
C4845 C4847 1.327 . S
C4845 C4851 1.429 . S
C4846 C4838 1.574 . S
C4846 H4841 0.949 . S
C4846 C4852 1.368 . S
C4847 C4831 1.349 . S
C4847 H4839 0.950 . S
C4847 C4845 1.327 . S
C4848 C4836 1.349 . S
C4848 H4842 0.950 . S
C4848 C4849 1.327 . S
C4849 H4843 0.950 . S
C4849 C4848 1.327 . S
C4849 C4853 1.429 . S
C4850 C4833 1.574 . S
C4850 H4844 0.949 . S
C4850 C4854 1.368 . S
C4851 C4832 1.429 . S
C4851 C4845 1.429 . S
C4851 C4852 1.523 . S
C4852 C4833 1.368 . S
C4852 C4846 1.368 . S
C4852 C4851 1.523 . S
C4853 C4837 1.429 . S
C4853 C4849 1.429 . S
C4853 C4854 1.523 . S
C4854 C4838 1.368 . S
C4854 C4850 1.368 . S
C4854 C4853 1.523 . S
H4855 C4830 0.950 . S
H4856 C4832 0.950 . S
H4857 C4833 0.949 . S
H4858 C4835 0.950 . S
H4859 C4837 0.950 . S
C4860 C4861 1.349 . S
C4860 C4862 1.327 . S
C4860 H4885 0.950 . S
C4861 C4860 1.349 . S
C4861 C4877 1.349 . S
C4862 C4860 1.327 . S
C4862 C4881 1.429 . S
C4862 H4886 0.950 . S
C4863 C4880 1.574 . S
C4863 C4882 1.368 . S
C4863 H4887 0.949 . S
H4864 C4868 0.949 . S
C4865 C4866 1.349 . S
C4865 C4867 1.327 . S
C4865 H4888 0.950 . S
C4866 C4865 1.349 . S
C4866 C4878 1.349 . S
C4867 C4865 1.327 . S
C4867 C4883 1.429 . S
C4867 H4889 0.950 . S
C4868 H4864 0.949 . S
C4868 C4876 1.574 . S
C4868 C4884 1.368 . S
H4869 C4877 0.950 . S
H4870 C4875 0.950 . S
H4871 C4876 0.949 . S
H4872 C4878 0.950 . S
H4873 C4879 0.950 . S
H4874 C4880 0.949 . S
C4875 H4870 0.950 . S
C4875 C4877 1.327 . S
C4875 C4881 1.429 . S
C4876 C4868 1.574 . S
C4876 H4871 0.949 . S
C4876 C4882 1.368 . S
C4877 C4861 1.349 . S
C4877 H4869 0.950 . S
C4877 C4875 1.327 . S
C4878 C4866 1.349 . S
C4878 H4872 0.950 . S
C4878 C4879 1.327 . S
C4879 H4873 0.950 . S
C4879 C4878 1.327 . S
C4879 C4883 1.429 . S
C4880 C4863 1.574 . S
C4880 H4874 0.949 . S
C4880 C4884 1.368 . S
C4881 C4862 1.429 . S
C4881 C4875 1.429 . S
C4881 C4882 1.523 . S
C4882 C4863 1.368 . S
C4882 C4876 1.368 . S
C4882 C4881 1.523 . S
C4883 C4867 1.429 . S
C4883 C4879 1.429 . S
C4883 C4884 1.523 . S
C4884 C4868 1.368 . S
C4884 C4880 1.368 . S
C4884 C4883 1.523 . S
H4885 C4860 0.950 . S
H4886 C4862 0.950 . S
H4887 C4863 0.949 . S
H4888 C4865 0.950 . S
H4889 C4867 0.950 . S
C4890 C4891 1.349 . S
C4890 C4892 1.327 . S
C4890 H4915 0.950 . S
C4891 C4890 1.349 . S
C4891 C4907 1.349 . S
C4892 C4890 1.327 . S
C4892 C4911 1.429 . S
C4892 H4916 0.950 . S
C4893 C4910 1.574 . S
C4893 C4912 1.368 . S
C4893 H4917 0.949 . S
H4894 C4898 0.949 . S
C4895 C4896 1.349 . S
C4895 C4897 1.327 . S
C4895 H4918 0.950 . S
C4896 C4895 1.349 . S
C4896 C4908 1.349 . S
C4897 C4895 1.327 . S
C4897 C4913 1.429 . S
C4897 H4919 0.950 . S
C4898 H4894 0.949 . S
C4898 C4906 1.574 . S
C4898 C4914 1.368 . S
H4899 C4907 0.950 . S
H4900 C4905 0.950 . S
H4901 C4906 0.949 . S
H4902 C4908 0.950 . S
H4903 C4909 0.950 . S
H4904 C4910 0.949 . S
C4905 H4900 0.950 . S
C4905 C4907 1.327 . S
C4905 C4911 1.429 . S
C4906 C4898 1.574 . S
C4906 H4901 0.949 . S
C4906 C4912 1.368 . S
C4907 C4891 1.349 . S
C4907 H4899 0.950 . S
C4907 C4905 1.327 . S
C4908 C4896 1.349 . S
C4908 H4902 0.950 . S
C4908 C4909 1.327 . S
C4909 H4903 0.950 . S
C4909 C4908 1.327 . S
C4909 C4913 1.429 . S
C4910 C4893 1.574 . S
C4910 H4904 0.949 . S
C4910 C4914 1.368 . S
C4911 C4892 1.429 . S
C4911 C4905 1.429 . S
C4911 C4912 1.523 . S
C4912 C4893 1.368 . S
C4912 C4906 1.368 . S
C4912 C4911 1.523 . S
C4913 C4897 1.429 . S
C4913 C4909 1.429 . S
C4913 C4914 1.523 . S
C4914 C4898 1.368 . S
C4914 C4910 1.368 . S
C4914 C4913 1.523 . S
H4915 C4890 0.950 . S
H4916 C4892 0.950 . S
H4917 C4893 0.949 . S
H4918 C4895 0.950 . S
H4919 C4897 0.950 . S
C4920 C4921 1.349 . S
C4920 C4922 1.327 . S
C4920 H4945 0.950 . S
C4921 C4920 1.349 . S
C4921 C4937 1.349 . S
C4922 C4920 1.327 . S
C4922 C4941 1.429 . S
C4922 H4946 0.950 . S
C4923 C4940 1.574 . S
C4923 C4942 1.368 . S
C4923 H4947 0.949 . S
H4924 C4928 0.949 . S
C4925 C4926 1.349 . S
C4925 C4927 1.327 . S
C4925 H4948 0.950 . S
C4926 C4925 1.349 . S
C4926 C4938 1.349 . S
C4927 C4925 1.327 . S
C4927 C4943 1.429 . S
C4927 H4949 0.950 . S
C4928 H4924 0.949 . S
C4928 C4936 1.574 . S
C4928 C4944 1.368 . S
H4929 C4937 0.950 . S
H4930 C4935 0.950 . S
H4931 C4936 0.949 . S
H4932 C4938 0.950 . S
H4933 C4939 0.950 . S
H4934 C4940 0.949 . S
C4935 H4930 0.950 . S
C4935 C4937 1.327 . S
C4935 C4941 1.429 . S
C4936 C4928 1.574 . S
C4936 H4931 0.949 . S
C4936 C4942 1.368 . S
C4937 C4921 1.349 . S
C4937 H4929 0.950 . S
C4937 C4935 1.327 . S
C4938 C4926 1.349 . S
C4938 H4932 0.950 . S
C4938 C4939 1.327 . S
C4939 H4933 0.950 . S
C4939 C4938 1.327 . S
C4939 C4943 1.429 . S
C4940 C4923 1.574 . S
C4940 H4934 0.949 . S
C4940 C4944 1.368 . S
C4941 C4922 1.429 . S
C4941 C4935 1.429 . S
C4941 C4942 1.523 . S
C4942 C4923 1.368 . S
C4942 C4936 1.368 . S
C4942 C4941 1.523 . S
C4943 C4927 1.429 . S
C4943 C4939 1.429 . S
C4943 C4944 1.523 . S
C4944 C4928 1.368 . S
C4944 C4940 1.368 . S
C4944 C4943 1.523 . S
H4945 C4920 0.950 . S
H4946 C4922 0.950 . S
H4947 C4923 0.949 . S
H4948 C4925 0.950 . S
H4949 C4927 0.950 . S
C4950 C4951 1.349 . S
C4950 C4952 1.327 . S
C4950 H4975 0.950 . S
C4951 C4950 1.349 . S
C4951 C4967 1.349 . S
C4952 C4950 1.327 . S
C4952 C4971 1.429 . S
C4952 H4976 0.950 . S
C4953 C4970 1.574 . S
C4953 C4972 1.368 . S
C4953 H4977 0.949 . S
H4954 C4958 0.949 . S
C4955 C4956 1.349 . S
C4955 C4957 1.327 . S
C4955 H4978 0.950 . S
C4956 C4955 1.349 . S
C4956 C4968 1.349 . S
C4957 C4955 1.327 . S
C4957 C4973 1.429 . S
C4957 H4979 0.950 . S
C4958 H4954 0.949 . S
C4958 C4966 1.574 . S
C4958 C4974 1.368 . S
H4959 C4967 0.950 . S
H4960 C4965 0.950 . S
H4961 C4966 0.949 . S
H4962 C4968 0.950 . S
H4963 C4969 0.950 . S
H4964 C4970 0.949 . S
C4965 H4960 0.950 . S
C4965 C4967 1.327 . S
C4965 C4971 1.429 . S
C4966 C4958 1.574 . S
C4966 H4961 0.949 . S
C4966 C4972 1.368 . S
C4967 C4951 1.349 . S
C4967 H4959 0.950 . S
C4967 C4965 1.327 . S
C4968 C4956 1.349 . S
C4968 H4962 0.950 . S
C4968 C4969 1.327 . S
C4969 H4963 0.950 . S
C4969 C4968 1.327 . S
C4969 C4973 1.429 . S
C4970 C4953 1.574 . S
C4970 H4964 0.949 . S
C4970 C4974 1.368 . S
C4971 C4952 1.429 . S
C4971 C4965 1.429 . S
C4971 C4972 1.523 . S
C4972 C4953 1.368 . S
C4972 C4966 1.368 . S
C4972 C4971 1.523 . S
C4973 C4957 1.429 . S
C4973 C4969 1.429 . S
C4973 C4974 1.523 . S
C4974 C4958 1.368 . S
C4974 C4970 1.368 . S
C4974 C4973 1.523 . S
H4975 C4950 0.950 . S
H4976 C4952 0.950 . S
H4977 C4953 0.949 . S
H4978 C4955 0.950 . S
H4979 C4957 0.950 . S
C4980 C4981 1.349 . S
C4980 C4982 1.327 . S
C4980 H5005 0.950 . S
C4981 C4980 1.349 . S
C4981 C4997 1.349 . S
C4982 C4980 1.327 . S
C4982 C5001 1.429 . S
C4982 H5006 0.950 . S
C4983 C5000 1.574 . S
C4983 C5002 1.368 . S
C4983 H5007 0.949 . S
H4984 C4988 0.949 . S
C4985 C4986 1.349 . S
C4985 C4987 1.327 . S
C4985 H5008 0.950 . S
C4986 C4985 1.349 . S
C4986 C4998 1.349 . S
C4987 C4985 1.327 . S
C4987 C5003 1.429 . S
C4987 H5009 0.950 . S
C4988 H4984 0.949 . S
C4988 C4996 1.574 . S
C4988 C5004 1.368 . S
H4989 C4997 0.950 . S
H4990 C4995 0.950 . S
H4991 C4996 0.949 . S
H4992 C4998 0.950 . S
H4993 C4999 0.950 . S
H4994 C5000 0.949 . S
C4995 H4990 0.950 . S
C4995 C4997 1.327 . S
C4995 C5001 1.429 . S
C4996 C4988 1.574 . S
C4996 H4991 0.949 . S
C4996 C5002 1.368 . S
C4997 C4981 1.349 . S
C4997 H4989 0.950 . S
C4997 C4995 1.327 . S
C4998 C4986 1.349 . S
C4998 H4992 0.950 . S
C4998 C4999 1.327 . S
C4999 H4993 0.950 . S
C4999 C4998 1.327 . S
C4999 C5003 1.429 . S
C5000 C4983 1.574 . S
C5000 H4994 0.949 . S
C5000 C5004 1.368 . S
C5001 C4982 1.429 . S
C5001 C4995 1.429 . S
C5001 C5002 1.523 . S
C5002 C4983 1.368 . S
C5002 C4996 1.368 . S
C5002 C5001 1.523 . S
C5003 C4987 1.429 . S
C5003 C4999 1.429 . S
C5003 C5004 1.523 . S
C5004 C4988 1.368 . S
C5004 C5000 1.368 . S
C5004 C5003 1.523 . S
H5005 C4980 0.950 . S
H5006 C4982 0.950 . S
H5007 C4983 0.949 . S
H5008 C4985 0.950 . S
H5009 C4987 0.950 . S
C5010 C5011 1.349 . S
C5010 C5012 1.327 . S
C5010 H5035 0.950 . S
C5011 C5010 1.349 . S
C5011 C5027 1.349 . S
C5012 C5010 1.327 . S
C5012 C5031 1.429 . S
C5012 H5036 0.950 . S
C5013 C5030 1.574 . S
C5013 C5032 1.368 . S
C5013 H5037 0.949 . S
H5014 C5018 0.949 . S
C5015 C5016 1.349 . S
C5015 C5017 1.327 . S
C5015 H5038 0.950 . S
C5016 C5015 1.349 . S
C5016 C5028 1.349 . S
C5017 C5015 1.327 . S
C5017 C5033 1.429 . S
C5017 H5039 0.950 . S
C5018 H5014 0.949 . S
C5018 C5026 1.574 . S
C5018 C5034 1.368 . S
H5019 C5027 0.950 . S
H5020 C5025 0.950 . S
H5021 C5026 0.949 . S
H5022 C5028 0.950 . S
H5023 C5029 0.950 . S
H5024 C5030 0.949 . S
C5025 H5020 0.950 . S
C5025 C5027 1.327 . S
C5025 C5031 1.429 . S
C5026 C5018 1.574 . S
C5026 H5021 0.949 . S
C5026 C5032 1.368 . S
C5027 C5011 1.349 . S
C5027 H5019 0.950 . S
C5027 C5025 1.327 . S
C5028 C5016 1.349 . S
C5028 H5022 0.950 . S
C5028 C5029 1.327 . S
C5029 H5023 0.950 . S
C5029 C5028 1.327 . S
C5029 C5033 1.429 . S
C5030 C5013 1.574 . S
C5030 H5024 0.949 . S
C5030 C5034 1.368 . S
C5031 C5012 1.429 . S
C5031 C5025 1.429 . S
C5031 C5032 1.523 . S
C5032 C5013 1.368 . S
C5032 C5026 1.368 . S
C5032 C5031 1.523 . S
C5033 C5017 1.429 . S
C5033 C5029 1.429 . S
C5033 C5034 1.523 . S
C5034 C5018 1.368 . S
C5034 C5030 1.368 . S
C5034 C5033 1.523 . S
H5035 C5010 0.950 . S
H5036 C5012 0.950 . S
H5037 C5013 0.949 . S
H5038 C5015 0.950 . S
H5039 C5017 0.950 . S
C5040 C5041 1.349 . S
C5040 C5042 1.327 . S
C5040 H5065 0.950 . S
C5041 C5040 1.349 . S
C5041 C5057 1.349 . S
C5042 C5040 1.327 . S
C5042 C5061 1.429 . S
C5042 H5066 0.950 . S
C5043 C5060 1.574 . S
C5043 C5062 1.368 . S
C5043 H5067 0.949 . S
H5044 C5048 0.949 . S
C5045 C5046 1.349 . S
C5045 C5047 1.327 . S
C5045 H5068 0.950 . S
C5046 C5045 1.349 . S
C5046 C5058 1.349 . S
C5047 C5045 1.327 . S
C5047 C5063 1.429 . S
C5047 H5069 0.950 . S
C5048 H5044 0.949 . S
C5048 C5056 1.574 . S
C5048 C5064 1.368 . S
H5049 C5057 0.950 . S
H5050 C5055 0.950 . S
H5051 C5056 0.949 . S
H5052 C5058 0.950 . S
H5053 C5059 0.950 . S
H5054 C5060 0.949 . S
C5055 H5050 0.950 . S
C5055 C5057 1.327 . S
C5055 C5061 1.429 . S
C5056 C5048 1.574 . S
C5056 H5051 0.949 . S
C5056 C5062 1.368 . S
C5057 C5041 1.349 . S
C5057 H5049 0.950 . S
C5057 C5055 1.327 . S
C5058 C5046 1.349 . S
C5058 H5052 0.950 . S
C5058 C5059 1.327 . S
C5059 H5053 0.950 . S
C5059 C5058 1.327 . S
C5059 C5063 1.429 . S
C5060 C5043 1.574 . S
C5060 H5054 0.949 . S
C5060 C5064 1.368 . S
C5061 C5042 1.429 . S
C5061 C5055 1.429 . S
C5061 C5062 1.523 . S
C5062 C5043 1.368 . S
C5062 C5056 1.368 . S
C5062 C5061 1.523 . S
C5063 C5047 1.429 . S
C5063 C5059 1.429 . S
C5063 C5064 1.523 . S
C5064 C5048 1.368 . S
C5064 C5060 1.368 . S
C5064 C5063 1.523 . S
H5065 C5040 0.950 . S
H5066 C5042 0.950 . S
H5067 C5043 0.949 . S
H5068 C5045 0.950 . S
H5069 C5047 0.950 . S
C5070 C5071 1.349 . S
C5070 C5072 1.327 . S
C5070 H5095 0.950 . S
C5071 C5070 1.349 . S
C5071 C5087 1.349 . S
C5072 C5070 1.327 . S
C5072 C5091 1.429 . S
C5072 H5096 0.950 . S
C5073 C5090 1.574 . S
C5073 C5092 1.368 . S
C5073 H5097 0.949 . S
H5074 C5078 0.949 . S
C5075 C5076 1.349 . S
C5075 C5077 1.327 . S
C5075 H5098 0.950 . S
C5076 C5075 1.349 . S
C5076 C5088 1.349 . S
C5077 C5075 1.327 . S
C5077 C5093 1.429 . S
C5077 H5099 0.950 . S
C5078 H5074 0.949 . S
C5078 C5086 1.574 . S
C5078 C5094 1.368 . S
H5079 C5087 0.950 . S
H5080 C5085 0.950 . S
H5081 C5086 0.949 . S
H5082 C5088 0.950 . S
H5083 C5089 0.950 . S
H5084 C5090 0.949 . S
C5085 H5080 0.950 . S
C5085 C5087 1.327 . S
C5085 C5091 1.429 . S
C5086 C5078 1.574 . S
C5086 H5081 0.949 . S
C5086 C5092 1.368 . S
C5087 C5071 1.349 . S
C5087 H5079 0.950 . S
C5087 C5085 1.327 . S
C5088 C5076 1.349 . S
C5088 H5082 0.950 . S
C5088 C5089 1.327 . S
C5089 H5083 0.950 . S
C5089 C5088 1.327 . S
C5089 C5093 1.429 . S
C5090 C5073 1.574 . S
C5090 H5084 0.949 . S
C5090 C5094 1.368 . S
C5091 C5072 1.429 . S
C5091 C5085 1.429 . S
C5091 C5092 1.523 . S
C5092 C5073 1.368 . S
C5092 C5086 1.368 . S
C5092 C5091 1.523 . S
C5093 C5077 1.429 . S
C5093 C5089 1.429 . S
C5093 C5094 1.523 . S
C5094 C5078 1.368 . S
C5094 C5090 1.368 . S
C5094 C5093 1.523 . S
H5095 C5070 0.950 . S
H5096 C5072 0.950 . S
H5097 C5073 0.949 . S
H5098 C5075 0.950 . S
H5099 C5077 0.950 . S
C5100 C5101 1.349 . S
C5100 C5102 1.327 . S
C5100 H5125 0.950 . S
C5101 C5100 1.349 . S
C5101 C5117 1.349 . S
C5102 C5100 1.327 . S
C5102 C5121 1.429 . S
C5102 H5126 0.950 . S
C5103 C5120 1.574 . S
C5103 C5122 1.368 . S
C5103 H5127 0.949 . S
H5104 C5108 0.949 . S
C5105 C5106 1.349 . S
C5105 C5107 1.327 . S
C5105 H5128 0.950 . S
C5106 C5105 1.349 . S
C5106 C5118 1.349 . S
C5107 C5105 1.327 . S
C5107 C5123 1.429 . S
C5107 H5129 0.950 . S
C5108 H5104 0.949 . S
C5108 C5116 1.574 . S
C5108 C5124 1.368 . S
H5109 C5117 0.950 . S
H5110 C5115 0.950 . S
H5111 C5116 0.949 . S
H5112 C5118 0.950 . S
H5113 C5119 0.950 . S
H5114 C5120 0.949 . S
C5115 H5110 0.950 . S
C5115 C5117 1.327 . S
C5115 C5121 1.429 . S
C5116 C5108 1.574 . S
C5116 H5111 0.949 . S
C5116 C5122 1.368 . S
C5117 C5101 1.349 . S
C5117 H5109 0.950 . S
C5117 C5115 1.327 . S
C5118 C5106 1.349 . S
C5118 H5112 0.950 . S
C5118 C5119 1.327 . S
C5119 H5113 0.950 . S
C5119 C5118 1.327 . S
C5119 C5123 1.429 . S
C5120 C5103 1.574 . S
C5120 H5114 0.949 . S
C5120 C5124 1.368 . S
C5121 C5102 1.429 . S
C5121 C5115 1.429 . S
C5121 C5122 1.523 . S
C5122 C5103 1.368 . S
C5122 C5116 1.368 . S
C5122 C5121 1.523 . S
C5123 C5107 1.429 . S
C5123 C5119 1.429 . S
C5123 C5124 1.523 . S
C5124 C5108 1.368 . S
C5124 C5120 1.368 . S
C5124 C5123 1.523 . S
H5125 C5100 0.950 . S
H5126 C5102 0.950 . S
H5127 C5103 0.949 . S
H5128 C5105 0.950 . S
H5129 C5107 0.950 . S
C5130 C5131 1.349 . S
C5130 C5132 1.327 . S
C5130 H5155 0.950 . S
C5131 C5130 1.349 . S
C5131 C5147 1.349 . S
C5132 C5130 1.327 . S
C5132 C5151 1.429 . S
C5132 H5156 0.950 . S
C5133 C5150 1.574 . S
C5133 C5152 1.368 . S
C5133 H5157 0.949 . S
H5134 C5138 0.949 . S
C5135 C5136 1.349 . S
C5135 C5137 1.327 . S
C5135 H5158 0.950 . S
C5136 C5135 1.349 . S
C5136 C5148 1.349 . S
C5137 C5135 1.327 . S
C5137 C5153 1.429 . S
C5137 H5159 0.950 . S
C5138 H5134 0.949 . S
C5138 C5146 1.574 . S
C5138 C5154 1.368 . S
H5139 C5147 0.950 . S
H5140 C5145 0.950 . S
H5141 C5146 0.949 . S
H5142 C5148 0.950 . S
H5143 C5149 0.950 . S
H5144 C5150 0.949 . S
C5145 H5140 0.950 . S
C5145 C5147 1.327 . S
C5145 C5151 1.429 . S
C5146 C5138 1.574 . S
C5146 H5141 0.949 . S
C5146 C5152 1.368 . S
C5147 C5131 1.349 . S
C5147 H5139 0.950 . S
C5147 C5145 1.327 . S
C5148 C5136 1.349 . S
C5148 H5142 0.950 . S
C5148 C5149 1.327 . S
C5149 H5143 0.950 . S
C5149 C5148 1.327 . S
C5149 C5153 1.429 . S
C5150 C5133 1.574 . S
C5150 H5144 0.949 . S
C5150 C5154 1.368 . S
C5151 C5132 1.429 . S
C5151 C5145 1.429 . S
C5151 C5152 1.523 . S
C5152 C5133 1.368 . S
C5152 C5146 1.368 . S
C5152 C5151 1.523 . S
C5153 C5137 1.429 . S
C5153 C5149 1.429 . S
C5153 C5154 1.523 . S
C5154 C5138 1.368 . S
C5154 C5150 1.368 . S
C5154 C5153 1.523 . S
H5155 C5130 0.950 . S
H5156 C5132 0.950 . S
H5157 C5133 0.949 . S
H5158 C5135 0.950 . S
H5159 C5137 0.950 . S
C5160 C5161 1.349 . S
C5160 C5162 1.327 . S
C5160 H5185 0.950 . S
C5161 C5160 1.349 . S
C5161 C5177 1.349 . S
C5162 C5160 1.327 . S
C5162 C5181 1.429 . S
C5162 H5186 0.950 . S
C5163 C5180 1.574 . S
C5163 C5182 1.368 . S
C5163 H5187 0.949 . S
H5164 C5168 0.949 . S
C5165 C5166 1.349 . S
C5165 C5167 1.327 . S
C5165 H5188 0.950 . S
C5166 C5165 1.349 . S
C5166 C5178 1.349 . S
C5167 C5165 1.327 . S
C5167 C5183 1.429 . S
C5167 H5189 0.950 . S
C5168 H5164 0.949 . S
C5168 C5176 1.574 . S
C5168 C5184 1.368 . S
H5169 C5177 0.950 . S
H5170 C5175 0.950 . S
H5171 C5176 0.949 . S
H5172 C5178 0.950 . S
H5173 C5179 0.950 . S
H5174 C5180 0.949 . S
C5175 H5170 0.950 . S
C5175 C5177 1.327 . S
C5175 C5181 1.429 . S
C5176 C5168 1.574 . S
C5176 H5171 0.949 . S
C5176 C5182 1.368 . S
C5177 C5161 1.349 . S
C5177 H5169 0.950 . S
C5177 C5175 1.327 . S
C5178 C5166 1.349 . S
C5178 H5172 0.950 . S
C5178 C5179 1.327 . S
C5179 H5173 0.950 . S
C5179 C5178 1.327 . S
C5179 C5183 1.429 . S
C5180 C5163 1.574 . S
C5180 H5174 0.949 . S
C5180 C5184 1.368 . S
C5181 C5162 1.429 . S
C5181 C5175 1.429 . S
C5181 C5182 1.523 . S
C5182 C5163 1.368 . S
C5182 C5176 1.368 . S
C5182 C5181 1.523 . S
C5183 C5167 1.429 . S
C5183 C5179 1.429 . S
C5183 C5184 1.523 . S
C5184 C5168 1.368 . S
C5184 C5180 1.368 . S
C5184 C5183 1.523 . S
H5185 C5160 0.950 . S
H5186 C5162 0.950 . S
H5187 C5163 0.949 . S
H5188 C5165 0.950 . S
H5189 C5167 0.950 . S
C5190 C5191 1.349 . S
C5190 C5192 1.327 . S
C5190 H5215 0.950 . S
C5191 C5190 1.349 . S
C5191 C5207 1.349 . S
C5192 C5190 1.327 . S
C5192 C5211 1.429 . S
C5192 H5216 0.950 . S
C5193 C5210 1.574 . S
C5193 C5212 1.368 . S
C5193 H5217 0.949 . S
H5194 C5198 0.949 . S
C5195 C5196 1.349 . S
C5195 C5197 1.327 . S
C5195 H5218 0.950 . S
C5196 C5195 1.349 . S
C5196 C5208 1.349 . S
C5197 C5195 1.327 . S
C5197 C5213 1.429 . S
C5197 H5219 0.950 . S
C5198 H5194 0.949 . S
C5198 C5206 1.574 . S
C5198 C5214 1.368 . S
H5199 C5207 0.950 . S
H5200 C5205 0.950 . S
H5201 C5206 0.949 . S
H5202 C5208 0.950 . S
H5203 C5209 0.950 . S
H5204 C5210 0.949 . S
C5205 H5200 0.950 . S
C5205 C5207 1.327 . S
C5205 C5211 1.429 . S
C5206 C5198 1.574 . S
C5206 H5201 0.949 . S
C5206 C5212 1.368 . S
C5207 C5191 1.349 . S
C5207 H5199 0.950 . S
C5207 C5205 1.327 . S
C5208 C5196 1.349 . S
C5208 H5202 0.950 . S
C5208 C5209 1.327 . S
C5209 H5203 0.950 . S
C5209 C5208 1.327 . S
C5209 C5213 1.429 . S
C5210 C5193 1.574 . S
C5210 H5204 0.949 . S
C5210 C5214 1.368 . S
C5211 C5192 1.429 . S
C5211 C5205 1.429 . S
C5211 C5212 1.523 . S
C5212 C5193 1.368 . S
C5212 C5206 1.368 . S
C5212 C5211 1.523 . S
C5213 C5197 1.429 . S
C5213 C5209 1.429 . S
C5213 C5214 1.523 . S
C5214 C5198 1.368 . S
C5214 C5210 1.368 . S
C5214 C5213 1.523 . S
H5215 C5190 0.950 . S
H5216 C5192 0.950 . S
H5217 C5193 0.949 . S
H5218 C5195 0.950 . S
H5219 C5197 0.950 . S
C5220 C5221 1.349 . S
C5220 C5222 1.327 . S
C5220 H5245 0.950 . S
C5221 C5220 1.349 . S
C5221 C5237 1.349 . S
C5222 C5220 1.327 . S
C5222 C5241 1.429 . S
C5222 H5246 0.950 . S
C5223 C5240 1.574 . S
C5223 C5242 1.368 . S
C5223 H5247 0.949 . S
H5224 C5228 0.949 . S
C5225 C5226 1.349 . S
C5225 C5227 1.327 . S
C5225 H5248 0.950 . S
C5226 C5225 1.349 . S
C5226 C5238 1.349 . S
C5227 C5225 1.327 . S
C5227 C5243 1.429 . S
C5227 H5249 0.950 . S
C5228 H5224 0.949 . S
C5228 C5236 1.574 . S
C5228 C5244 1.368 . S
H5229 C5237 0.950 . S
H5230 C5235 0.950 . S
H5231 C5236 0.949 . S
H5232 C5238 0.950 . S
H5233 C5239 0.950 . S
H5234 C5240 0.949 . S
C5235 H5230 0.950 . S
C5235 C5237 1.327 . S
C5235 C5241 1.429 . S
C5236 C5228 1.574 . S
C5236 H5231 0.949 . S
C5236 C5242 1.368 . S
C5237 C5221 1.349 . S
C5237 H5229 0.950 . S
C5237 C5235 1.327 . S
C5238 C5226 1.349 . S
C5238 H5232 0.950 . S
C5238 C5239 1.327 . S
C5239 H5233 0.950 . S
C5239 C5238 1.327 . S
C5239 C5243 1.429 . S
C5240 C5223 1.574 . S
C5240 H5234 0.949 . S
C5240 C5244 1.368 . S
C5241 C5222 1.429 . S
C5241 C5235 1.429 . S
C5241 C5242 1.523 . S
C5242 C5223 1.368 . S
C5242 C5236 1.368 . S
C5242 C5241 1.523 . S
C5243 C5227 1.429 . S
C5243 C5239 1.429 . S
C5243 C5244 1.523 . S
C5244 C5228 1.368 . S
C5244 C5240 1.368 . S
C5244 C5243 1.523 . S
H5245 C5220 0.950 . S
H5246 C5222 0.950 . S
H5247 C5223 0.949 . S
H5248 C5225 0.950 . S
H5249 C5227 0.950 . S
C5250 C5251 1.349 . S
C5250 C5252 1.327 . S
C5250 H5275 0.950 . S
C5251 C5250 1.349 . S
C5251 C5267 1.349 . S
C5252 C5250 1.327 . S
C5252 C5271 1.429 . S
C5252 H5276 0.950 . S
C5253 C5270 1.574 . S
C5253 C5272 1.368 . S
C5253 H5277 0.949 . S
H5254 C5258 0.949 . S
C5255 C5256 1.349 . S
C5255 C5257 1.327 . S
C5255 H5278 0.950 . S
C5256 C5255 1.349 . S
C5256 C5268 1.349 . S
C5257 C5255 1.327 . S
C5257 C5273 1.429 . S
C5257 H5279 0.950 . S
C5258 H5254 0.949 . S
C5258 C5266 1.574 . S
C5258 C5274 1.368 . S
H5259 C5267 0.950 . S
H5260 C5265 0.950 . S
H5261 C5266 0.949 . S
H5262 C5268 0.950 . S
H5263 C5269 0.950 . S
H5264 C5270 0.949 . S
C5265 H5260 0.950 . S
C5265 C5267 1.327 . S
C5265 C5271 1.429 . S
C5266 C5258 1.574 . S
C5266 H5261 0.949 . S
C5266 C5272 1.368 . S
C5267 C5251 1.349 . S
C5267 H5259 0.950 . S
C5267 C5265 1.327 . S
C5268 C5256 1.349 . S
C5268 H5262 0.950 . S
C5268 C5269 1.327 . S
C5269 H5263 0.950 . S
C5269 C5268 1.327 . S
C5269 C5273 1.429 . S
C5270 C5253 1.574 . S
C5270 H5264 0.949 . S
C5270 C5274 1.368 . S
C5271 C5252 1.429 . S
C5271 C5265 1.429 . S
C5271 C5272 1.523 . S
C5272 C5253 1.368 . S
C5272 C5266 1.368 . S
C5272 C5271 1.523 . S
C5273 C5257 1.429 . S
C5273 C5269 1.429 . S
C5273 C5274 1.523 . S
C5274 C5258 1.368 . S
C5274 C5270 1.368 . S
C5274 C5273 1.523 . S
H5275 C5250 0.950 . S
H5276 C5252 0.950 . S
H5277 C5253 0.949 . S
H5278 C5255 0.950 . S
H5279 C5257 0.950 . S
C5280 C5281 1.349 . S
C5280 C5282 1.327 . S
C5280 H5305 0.950 . S
C5281 C5280 1.349 . S
C5281 C5297 1.349 . S
C5282 C5280 1.327 . S
C5282 C5301 1.429 . S
C5282 H5306 0.950 . S
C5283 C5300 1.574 . S
C5283 C5302 1.368 . S
C5283 H5307 0.949 . S
H5284 C5288 0.949 . S
C5285 C5286 1.349 . S
C5285 C5287 1.327 . S
C5285 H5308 0.950 . S
C5286 C5285 1.349 . S
C5286 C5298 1.349 . S
C5287 C5285 1.327 . S
C5287 C5303 1.429 . S
C5287 H5309 0.950 . S
C5288 H5284 0.949 . S
C5288 C5296 1.574 . S
C5288 C5304 1.368 . S
H5289 C5297 0.950 . S
H5290 C5295 0.950 . S
H5291 C5296 0.949 . S
H5292 C5298 0.950 . S
H5293 C5299 0.950 . S
H5294 C5300 0.949 . S
C5295 H5290 0.950 . S
C5295 C5297 1.327 . S
C5295 C5301 1.429 . S
C5296 C5288 1.574 . S
C5296 H5291 0.949 . S
C5296 C5302 1.368 . S
C5297 C5281 1.349 . S
C5297 H5289 0.950 . S
C5297 C5295 1.327 . S
C5298 C5286 1.349 . S
C5298 H5292 0.950 . S
C5298 C5299 1.327 . S
C5299 H5293 0.950 . S
C5299 C5298 1.327 . S
C5299 C5303 1.429 . S
C5300 C5283 1.574 . S
C5300 H5294 0.949 . S
C5300 C5304 1.368 . S
C5301 C5282 1.429 . S
C5301 C5295 1.429 . S
C5301 C5302 1.523 . S
C5302 C5283 1.368 . S
C5302 C5296 1.368 . S
C5302 C5301 1.523 . S
C5303 C5287 1.429 . S
C5303 C5299 1.429 . S
C5303 C5304 1.523 . S
C5304 C5288 1.368 . S
C5304 C5300 1.368 . S
C5304 C5303 1.523 . S
H5305 C5280 0.950 . S
H5306 C5282 0.950 . S
H5307 C5283 0.949 . S
H5308 C5285 0.950 . S
H5309 C5287 0.950 . S
C5310 C5311 1.349 . S
C5310 C5312 1.327 . S
C5310 H5335 0.950 . S
C5311 C5310 1.349 . S
C5311 C5327 1.349 . S
C5312 C5310 1.327 . S
C5312 C5331 1.429 . S
C5312 H5336 0.950 . S
C5313 C5330 1.574 . S
C5313 C5332 1.368 . S
C5313 H5337 0.949 . S
H5314 C5318 0.949 . S
C5315 C5316 1.349 . S
C5315 C5317 1.327 . S
C5315 H5338 0.950 . S
C5316 C5315 1.349 . S
C5316 C5328 1.349 . S
C5317 C5315 1.327 . S
C5317 C5333 1.429 . S
C5317 H5339 0.950 . S
C5318 H5314 0.949 . S
C5318 C5326 1.574 . S
C5318 C5334 1.368 . S
H5319 C5327 0.950 . S
H5320 C5325 0.950 . S
H5321 C5326 0.949 . S
H5322 C5328 0.950 . S
H5323 C5329 0.950 . S
H5324 C5330 0.949 . S
C5325 H5320 0.950 . S
C5325 C5327 1.327 . S
C5325 C5331 1.429 . S
C5326 C5318 1.574 . S
C5326 H5321 0.949 . S
C5326 C5332 1.368 . S
C5327 C5311 1.349 . S
C5327 H5319 0.950 . S
C5327 C5325 1.327 . S
C5328 C5316 1.349 . S
C5328 H5322 0.950 . S
C5328 C5329 1.327 . S
C5329 H5323 0.950 . S
C5329 C5328 1.327 . S
C5329 C5333 1.429 . S
C5330 C5313 1.574 . S
C5330 H5324 0.949 . S
C5330 C5334 1.368 . S
C5331 C5312 1.429 . S
C5331 C5325 1.429 . S
C5331 C5332 1.523 . S
C5332 C5313 1.368 . S
C5332 C5326 1.368 . S
C5332 C5331 1.523 . S
C5333 C5317 1.429 . S
C5333 C5329 1.429 . S
C5333 C5334 1.523 . S
C5334 C5318 1.368 . S
C5334 C5330 1.368 . S
C5334 C5333 1.523 . S
H5335 C5310 0.950 . S
H5336 C5312 0.950 . S
H5337 C5313 0.949 . S
H5338 C5315 0.950 . S
H5339 C5317 0.950 . S
C5340 C5341 1.349 . S
C5340 C5342 1.327 . S
C5340 H5365 0.950 . S
C5341 C5340 1.349 . S
C5341 C5357 1.349 . S
C5342 C5340 1.327 . S
C5342 C5361 1.429 . S
C5342 H5366 0.950 . S
C5343 C5360 1.574 . S
C5343 C5362 1.368 . S
C5343 H5367 0.949 . S
H5344 C5348 0.949 . S
C5345 C5346 1.349 . S
C5345 C5347 1.327 . S
C5345 H5368 0.950 . S
C5346 C5345 1.349 . S
C5346 C5358 1.349 . S
C5347 C5345 1.327 . S
C5347 C5363 1.429 . S
C5347 H5369 0.950 . S
C5348 H5344 0.949 . S
C5348 C5356 1.574 . S
C5348 C5364 1.368 . S
H5349 C5357 0.950 . S
H5350 C5355 0.950 . S
H5351 C5356 0.949 . S
H5352 C5358 0.950 . S
H5353 C5359 0.950 . S
H5354 C5360 0.949 . S
C5355 H5350 0.950 . S
C5355 C5357 1.327 . S
C5355 C5361 1.429 . S
C5356 C5348 1.574 . S
C5356 H5351 0.949 . S
C5356 C5362 1.368 . S
C5357 C5341 1.349 . S
C5357 H5349 0.950 . S
C5357 C5355 1.327 . S
C5358 C5346 1.349 . S
C5358 H5352 0.950 . S
C5358 C5359 1.327 . S
C5359 H5353 0.950 . S
C5359 C5358 1.327 . S
C5359 C5363 1.429 . S
C5360 C5343 1.574 . S
C5360 H5354 0.949 . S
C5360 C5364 1.368 . S
C5361 C5342 1.429 . S
C5361 C5355 1.429 . S
C5361 C5362 1.523 . S
C5362 C5343 1.368 . S
C5362 C5356 1.368 . S
C5362 C5361 1.523 . S
C5363 C5347 1.429 . S
C5363 C5359 1.429 . S
C5363 C5364 1.523 . S
C5364 C5348 1.368 . S
C5364 C5360 1.368 . S
C5364 C5363 1.523 . S
H5365 C5340 0.950 . S
H5366 C5342 0.950 . S
H5367 C5343 0.949 . S
H5368 C5345 0.950 . S
H5369 C5347 0.950 . S
C5370 C5371 1.349 . S
C5370 C5372 1.327 . S
C5370 H5395 0.950 . S
C5371 C5370 1.349 . S
C5371 C5387 1.349 . S
C5372 C5370 1.327 . S
C5372 C5391 1.429 . S
C5372 H5396 0.950 . S
C5373 C5390 1.574 . S
C5373 C5392 1.368 . S
C5373 H5397 0.949 . S
H5374 C5378 0.949 . S
C5375 C5376 1.349 . S
C5375 C5377 1.327 . S
C5375 H5398 0.950 . S
C5376 C5375 1.349 . S
C5376 C5388 1.349 . S
C5377 C5375 1.327 . S
C5377 C5393 1.429 . S
C5377 H5399 0.950 . S
C5378 H5374 0.949 . S
C5378 C5386 1.574 . S
C5378 C5394 1.368 . S
H5379 C5387 0.950 . S
H5380 C5385 0.950 . S
H5381 C5386 0.949 . S
H5382 C5388 0.950 . S
H5383 C5389 0.950 . S
H5384 C5390 0.949 . S
C5385 H5380 0.950 . S
C5385 C5387 1.327 . S
C5385 C5391 1.429 . S
C5386 C5378 1.574 . S
C5386 H5381 0.949 . S
C5386 C5392 1.368 . S
C5387 C5371 1.349 . S
C5387 H5379 0.950 . S
C5387 C5385 1.327 . S
C5388 C5376 1.349 . S
C5388 H5382 0.950 . S
C5388 C5389 1.327 . S
C5389 H5383 0.950 . S
C5389 C5388 1.327 . S
C5389 C5393 1.429 . S
C5390 C5373 1.574 . S
C5390 H5384 0.949 . S
C5390 C5394 1.368 . S
C5391 C5372 1.429 . S
C5391 C5385 1.429 . S
C5391 C5392 1.523 . S
C5392 C5373 1.368 . S
C5392 C5386 1.368 . S
C5392 C5391 1.523 . S
C5393 C5377 1.429 . S
C5393 C5389 1.429 . S
C5393 C5394 1.523 . S
C5394 C5378 1.368 . S
C5394 C5390 1.368 . S
C5394 C5393 1.523 . S
H5395 C5370 0.950 . S
H5396 C5372 0.950 . S
H5397 C5373 0.949 . S
H5398 C5375 0.950 . S
H5399 C5377 0.950 . S
C5400 C5401 1.349 . S
C5400 C5402 1.327 . S
C5400 H5425 0.950 . S
C5401 C5400 1.349 . S
C5401 C5417 1.349 . S
C5402 C5400 1.327 . S
C5402 C5421 1.429 . S
C5402 H5426 0.950 . S
C5403 C5420 1.574 . S
C5403 C5422 1.368 . S
C5403 H5427 0.949 . S
H5404 C5408 0.949 . S
C5405 C5406 1.349 . S
C5405 C5407 1.327 . S
C5405 H5428 0.950 . S
C5406 C5405 1.349 . S
C5406 C5418 1.349 . S
C5407 C5405 1.327 . S
C5407 C5423 1.429 . S
C5407 H5429 0.950 . S
C5408 H5404 0.949 . S
C5408 C5416 1.574 . S
C5408 C5424 1.368 . S
H5409 C5417 0.950 . S
H5410 C5415 0.950 . S
H5411 C5416 0.949 . S
H5412 C5418 0.950 . S
H5413 C5419 0.950 . S
H5414 C5420 0.949 . S
C5415 H5410 0.950 . S
C5415 C5417 1.327 . S
C5415 C5421 1.429 . S
C5416 C5408 1.574 . S
C5416 H5411 0.949 . S
C5416 C5422 1.368 . S
C5417 C5401 1.349 . S
C5417 H5409 0.950 . S
C5417 C5415 1.327 . S
C5418 C5406 1.349 . S
C5418 H5412 0.950 . S
C5418 C5419 1.327 . S
C5419 H5413 0.950 . S
C5419 C5418 1.327 . S
C5419 C5423 1.429 . S
C5420 C5403 1.574 . S
C5420 H5414 0.949 . S
C5420 C5424 1.368 . S
C5421 C5402 1.429 . S
C5421 C5415 1.429 . S
C5421 C5422 1.523 . S
C5422 C5403 1.368 . S
C5422 C5416 1.368 . S
C5422 C5421 1.523 . S
C5423 C5407 1.429 . S
C5423 C5419 1.429 . S
C5423 C5424 1.523 . S
C5424 C5408 1.368 . S
C5424 C5420 1.368 . S
C5424 C5423 1.523 . S
H5425 C5400 0.950 . S
H5426 C5402 0.950 . S
H5427 C5403 0.949 . S
H5428 C5405 0.950 . S
H5429 C5407 0.950 . S
C5430 C5431 1.349 . S
C5430 C5432 1.327 . S
C5430 H5455 0.950 . S
C5431 C5430 1.349 . S
C5431 C5447 1.349 . S
C5432 C5430 1.327 . S
C5432 C5451 1.429 . S
C5432 H5456 0.950 . S
C5433 C5450 1.574 . S
C5433 C5452 1.368 . S
C5433 H5457 0.949 . S
H5434 C5438 0.949 . S
C5435 C5436 1.349 . S
C5435 C5437 1.327 . S
C5435 H5458 0.950 . S
C5436 C5435 1.349 . S
C5436 C5448 1.349 . S
C5437 C5435 1.327 . S
C5437 C5453 1.429 . S
C5437 H5459 0.950 . S
C5438 H5434 0.949 . S
C5438 C5446 1.574 . S
C5438 C5454 1.368 . S
H5439 C5447 0.950 . S
H5440 C5445 0.950 . S
H5441 C5446 0.949 . S
H5442 C5448 0.950 . S
H5443 C5449 0.950 . S
H5444 C5450 0.949 . S
C5445 H5440 0.950 . S
C5445 C5447 1.327 . S
C5445 C5451 1.429 . S
C5446 C5438 1.574 . S
C5446 H5441 0.949 . S
C5446 C5452 1.368 . S
C5447 C5431 1.349 . S
C5447 H5439 0.950 . S
C5447 C5445 1.327 . S
C5448 C5436 1.349 . S
C5448 H5442 0.950 . S
C5448 C5449 1.327 . S
C5449 H5443 0.950 . S
C5449 C5448 1.327 . S
C5449 C5453 1.429 . S
C5450 C5433 1.574 . S
C5450 H5444 0.949 . S
C5450 C5454 1.368 . S
C5451 C5432 1.429 . S
C5451 C5445 1.429 . S
C5451 C5452 1.523 . S
C5452 C5433 1.368 . S
C5452 C5446 1.368 . S
C5452 C5451 1.523 . S
C5453 C5437 1.429 . S
C5453 C5449 1.429 . S
C5453 C5454 1.523 . S
C5454 C5438 1.368 . S
C5454 C5450 1.368 . S
C5454 C5453 1.523 . S
H5455 C5430 0.950 . S
H5456 C5432 0.950 . S
H5457 C5433 0.949 . S
H5458 C5435 0.950 . S
H5459 C5437 0.950 . S
C5460 C5461 1.349 . S
C5460 C5462 1.327 . S
C5460 H5485 0.950 . S
C5461 C5460 1.349 . S
C5461 C5477 1.349 . S
C5462 C5460 1.327 . S
C5462 C5481 1.429 . S
C5462 H5486 0.950 . S
C5463 C5480 1.574 . S
C5463 C5482 1.368 . S
C5463 H5487 0.949 . S
H5464 C5468 0.949 . S
C5465 C5466 1.349 . S
C5465 C5467 1.327 . S
C5465 H5488 0.950 . S
C5466 C5465 1.349 . S
C5466 C5478 1.349 . S
C5467 C5465 1.327 . S
C5467 C5483 1.429 . S
C5467 H5489 0.950 . S
C5468 H5464 0.949 . S
C5468 C5476 1.574 . S
C5468 C5484 1.368 . S
H5469 C5477 0.950 . S
H5470 C5475 0.950 . S
H5471 C5476 0.949 . S
H5472 C5478 0.950 . S
H5473 C5479 0.950 . S
H5474 C5480 0.949 . S
C5475 H5470 0.950 . S
C5475 C5477 1.327 . S
C5475 C5481 1.429 . S
C5476 C5468 1.574 . S
C5476 H5471 0.949 . S
C5476 C5482 1.368 . S
C5477 C5461 1.349 . S
C5477 H5469 0.950 . S
C5477 C5475 1.327 . S
C5478 C5466 1.349 . S
C5478 H5472 0.950 . S
C5478 C5479 1.327 . S
C5479 H5473 0.950 . S
C5479 C5478 1.327 . S
C5479 C5483 1.429 . S
C5480 C5463 1.574 . S
C5480 H5474 0.949 . S
C5480 C5484 1.368 . S
C5481 C5462 1.429 . S
C5481 C5475 1.429 . S
C5481 C5482 1.523 . S
C5482 C5463 1.368 . S
C5482 C5476 1.368 . S
C5482 C5481 1.523 . S
C5483 C5467 1.429 . S
C5483 C5479 1.429 . S
C5483 C5484 1.523 . S
C5484 C5468 1.368 . S
C5484 C5480 1.368 . S
C5484 C5483 1.523 . S
H5485 C5460 0.950 . S
H5486 C5462 0.950 . S
H5487 C5463 0.949 . S
H5488 C5465 0.950 . S
H5489 C5467 0.950 . S
C5490 C5491 1.349 . S
C5490 C5492 1.327 . S
C5490 H5515 0.950 . S
C5491 C5490 1.349 . S
C5491 C5507 1.349 . S
C5492 C5490 1.327 . S
C5492 C5511 1.429 . S
C5492 H5516 0.950 . S
C5493 C5510 1.574 . S
C5493 C5512 1.368 . S
C5493 H5517 0.949 . S
H5494 C5498 0.949 . S
C5495 C5496 1.349 . S
C5495 C5497 1.327 . S
C5495 H5518 0.950 . S
C5496 C5495 1.349 . S
C5496 C5508 1.349 . S
C5497 C5495 1.327 . S
C5497 C5513 1.429 . S
C5497 H5519 0.950 . S
C5498 H5494 0.949 . S
C5498 C5506 1.574 . S
C5498 C5514 1.368 . S
H5499 C5507 0.950 . S
H5500 C5505 0.950 . S
H5501 C5506 0.949 . S
H5502 C5508 0.950 . S
H5503 C5509 0.950 . S
H5504 C5510 0.949 . S
C5505 H5500 0.950 . S
C5505 C5507 1.327 . S
C5505 C5511 1.429 . S
C5506 C5498 1.574 . S
C5506 H5501 0.949 . S
C5506 C5512 1.368 . S
C5507 C5491 1.349 . S
C5507 H5499 0.950 . S
C5507 C5505 1.327 . S
C5508 C5496 1.349 . S
C5508 H5502 0.950 . S
C5508 C5509 1.327 . S
C5509 H5503 0.950 . S
C5509 C5508 1.327 . S
C5509 C5513 1.429 . S
C5510 C5493 1.574 . S
C5510 H5504 0.949 . S
C5510 C5514 1.368 . S
C5511 C5492 1.429 . S
C5511 C5505 1.429 . S
C5511 C5512 1.523 . S
C5512 C5493 1.368 . S
C5512 C5506 1.368 . S
C5512 C5511 1.523 . S
C5513 C5497 1.429 . S
C5513 C5509 1.429 . S
C5513 C5514 1.523 . S
C5514 C5498 1.368 . S
C5514 C5510 1.368 . S
C5514 C5513 1.523 . S
H5515 C5490 0.950 . S
H5516 C5492 0.950 . S
H5517 C5493 0.949 . S
H5518 C5495 0.950 . S
H5519 C5497 0.950 . S
C5520 C5521 1.349 . S
C5520 C5522 1.327 . S
C5520 H5545 0.950 . S
C5521 C5520 1.349 . S
C5521 C5537 1.349 . S
C5522 C5520 1.327 . S
C5522 C5541 1.429 . S
C5522 H5546 0.950 . S
C5523 C5540 1.574 . S
C5523 C5542 1.368 . S
C5523 H5547 0.949 . S
H5524 C5528 0.949 . S
C5525 C5526 1.349 . S
C5525 C5527 1.327 . S
C5525 H5548 0.950 . S
C5526 C5525 1.349 . S
C5526 C5538 1.349 . S
C5527 C5525 1.327 . S
C5527 C5543 1.429 . S
C5527 H5549 0.950 . S
C5528 H5524 0.949 . S
C5528 C5536 1.574 . S
C5528 C5544 1.368 . S
H5529 C5537 0.950 . S
H5530 C5535 0.950 . S
H5531 C5536 0.949 . S
H5532 C5538 0.950 . S
H5533 C5539 0.950 . S
H5534 C5540 0.949 . S
C5535 H5530 0.950 . S
C5535 C5537 1.327 . S
C5535 C5541 1.429 . S
C5536 C5528 1.574 . S
C5536 H5531 0.949 . S
C5536 C5542 1.368 . S
C5537 C5521 1.349 . S
C5537 H5529 0.950 . S
C5537 C5535 1.327 . S
C5538 C5526 1.349 . S
C5538 H5532 0.950 . S
C5538 C5539 1.327 . S
C5539 H5533 0.950 . S
C5539 C5538 1.327 . S
C5539 C5543 1.429 . S
C5540 C5523 1.574 . S
C5540 H5534 0.949 . S
C5540 C5544 1.368 . S
C5541 C5522 1.429 . S
C5541 C5535 1.429 . S
C5541 C5542 1.523 . S
C5542 C5523 1.368 . S
C5542 C5536 1.368 . S
C5542 C5541 1.523 . S
C5543 C5527 1.429 . S
C5543 C5539 1.429 . S
C5543 C5544 1.523 . S
C5544 C5528 1.368 . S
C5544 C5540 1.368 . S
C5544 C5543 1.523 . S
H5545 C5520 0.950 . S
H5546 C5522 0.950 . S
H5547 C5523 0.949 . S
H5548 C5525 0.950 . S
H5549 C5527 0.950 . S
C5550 C5551 1.349 . S
C5550 C5552 1.327 . S
C5550 H5575 0.950 . S
C5551 C5550 1.349 . S
C5551 C5567 1.349 . S
C5552 C5550 1.327 . S
C5552 C5571 1.429 . S
C5552 H5576 0.950 . S
C5553 C5570 1.574 . S
C5553 C5572 1.368 . S
C5553 H5577 0.949 . S
H5554 C5558 0.949 . S
C5555 C5556 1.349 . S
C5555 C5557 1.327 . S
C5555 H5578 0.950 . S
C5556 C5555 1.349 . S
C5556 C5568 1.349 . S
C5557 C5555 1.327 . S
C5557 C5573 1.429 . S
C5557 H5579 0.950 . S
C5558 H5554 0.949 . S
C5558 C5566 1.574 . S
C5558 C5574 1.368 . S
H5559 C5567 0.950 . S
H5560 C5565 0.950 . S
H5561 C5566 0.949 . S
H5562 C5568 0.950 . S
H5563 C5569 0.950 . S
H5564 C5570 0.949 . S
C5565 H5560 0.950 . S
C5565 C5567 1.327 . S
C5565 C5571 1.429 . S
C5566 C5558 1.574 . S
C5566 H5561 0.949 . S
C5566 C5572 1.368 . S
C5567 C5551 1.349 . S
C5567 H5559 0.950 . S
C5567 C5565 1.327 . S
C5568 C5556 1.349 . S
C5568 H5562 0.950 . S
C5568 C5569 1.327 . S
C5569 H5563 0.950 . S
C5569 C5568 1.327 . S
C5569 C5573 1.429 . S
C5570 C5553 1.574 . S
C5570 H5564 0.949 . S
C5570 C5574 1.368 . S
C5571 C5552 1.429 . S
C5571 C5565 1.429 . S
C5571 C5572 1.523 . S
C5572 C5553 1.368 . S
C5572 C5566 1.368 . S
C5572 C5571 1.523 . S
C5573 C5557 1.429 . S
C5573 C5569 1.429 . S
C5573 C5574 1.523 . S
C5574 C5558 1.368 . S
C5574 C5570 1.368 . S
C5574 C5573 1.523 . S
H5575 C5550 0.950 . S
H5576 C5552 0.950 . S
H5577 C5553 0.949 . S
H5578 C5555 0.950 . S
H5579 C5557 0.950 . S
C5580 C5581 1.349 . S
C5580 C5582 1.327 . S
C5580 H5605 0.950 . S
C5581 C5580 1.349 . S
C5581 C5597 1.349 . S
C5582 C5580 1.327 . S
C5582 C5601 1.429 . S
C5582 H5606 0.950 . S
C5583 C5600 1.574 . S
C5583 C5602 1.368 . S
C5583 H5607 0.949 . S
H5584 C5588 0.949 . S
C5585 C5586 1.349 . S
C5585 C5587 1.327 . S
C5585 H5608 0.950 . S
C5586 C5585 1.349 . S
C5586 C5598 1.349 . S
C5587 C5585 1.327 . S
C5587 C5603 1.429 . S
C5587 H5609 0.950 . S
C5588 H5584 0.949 . S
C5588 C5596 1.574 . S
C5588 C5604 1.368 . S
H5589 C5597 0.950 . S
H5590 C5595 0.950 . S
H5591 C5596 0.949 . S
H5592 C5598 0.950 . S
H5593 C5599 0.950 . S
H5594 C5600 0.949 . S
C5595 H5590 0.950 . S
C5595 C5597 1.327 . S
C5595 C5601 1.429 . S
C5596 C5588 1.574 . S
C5596 H5591 0.949 . S
C5596 C5602 1.368 . S
C5597 C5581 1.349 . S
C5597 H5589 0.950 . S
C5597 C5595 1.327 . S
C5598 C5586 1.349 . S
C5598 H5592 0.950 . S
C5598 C5599 1.327 . S
C5599 H5593 0.950 . S
C5599 C5598 1.327 . S
C5599 C5603 1.429 . S
C5600 C5583 1.574 . S
C5600 H5594 0.949 . S
C5600 C5604 1.368 . S
C5601 C5582 1.429 . S
C5601 C5595 1.429 . S
C5601 C5602 1.523 . S
C5602 C5583 1.368 . S
C5602 C5596 1.368 . S
C5602 C5601 1.523 . S
C5603 C5587 1.429 . S
C5603 C5599 1.429 . S
C5603 C5604 1.523 . S
C5604 C5588 1.368 . S
C5604 C5600 1.368 . S
C5604 C5603 1.523 . S
H5605 C5580 0.950 . S
H5606 C5582 0.950 . S
H5607 C5583 0.949 . S
H5608 C5585 0.950 . S
H5609 C5587 0.950 . S
C5610 C5611 1.349 . S
C5610 C5612 1.327 . S
C5610 H5635 0.950 . S
C5611 C5610 1.349 . S
C5611 C5627 1.349 . S
C5612 C5610 1.327 . S
C5612 C5631 1.429 . S
C5612 H5636 0.950 . S
C5613 C5630 1.574 . S
C5613 C5632 1.368 . S
C5613 H5637 0.949 . S
H5614 C5618 0.949 . S
C5615 C5616 1.349 . S
C5615 C5617 1.327 . S
C5615 H5638 0.950 . S
C5616 C5615 1.349 . S
C5616 C5628 1.349 . S
C5617 C5615 1.327 . S
C5617 C5633 1.429 . S
C5617 H5639 0.950 . S
C5618 H5614 0.949 . S
C5618 C5626 1.574 . S
C5618 C5634 1.368 . S
H5619 C5627 0.950 . S
H5620 C5625 0.950 . S
H5621 C5626 0.949 . S
H5622 C5628 0.950 . S
H5623 C5629 0.950 . S
H5624 C5630 0.949 . S
C5625 H5620 0.950 . S
C5625 C5627 1.327 . S
C5625 C5631 1.429 . S
C5626 C5618 1.574 . S
C5626 H5621 0.949 . S
C5626 C5632 1.368 . S
C5627 C5611 1.349 . S
C5627 H5619 0.950 . S
C5627 C5625 1.327 . S
C5628 C5616 1.349 . S
C5628 H5622 0.950 . S
C5628 C5629 1.327 . S
C5629 H5623 0.950 . S
C5629 C5628 1.327 . S
C5629 C5633 1.429 . S
C5630 C5613 1.574 . S
C5630 H5624 0.949 . S
C5630 C5634 1.368 . S
C5631 C5612 1.429 . S
C5631 C5625 1.429 . S
C5631 C5632 1.523 . S
C5632 C5613 1.368 . S
C5632 C5626 1.368 . S
C5632 C5631 1.523 . S
C5633 C5617 1.429 . S
C5633 C5629 1.429 . S
C5633 C5634 1.523 . S
C5634 C5618 1.368 . S
C5634 C5630 1.368 . S
C5634 C5633 1.523 . S
H5635 C5610 0.950 . S
H5636 C5612 0.950 . S
H5637 C5613 0.949 . S
H5638 C5615 0.950 . S
H5639 C5617 0.950 . S
C5640 C5641 1.349 . S
C5640 C5642 1.327 . S
C5640 H5665 0.950 . S
C5641 C5640 1.349 . S
C5641 C5657 1.349 . S
C5642 C5640 1.327 . S
C5642 C5661 1.429 . S
C5642 H5666 0.950 . S
C5643 C5660 1.574 . S
C5643 C5662 1.368 . S
C5643 H5667 0.949 . S
H5644 C5648 0.949 . S
C5645 C5646 1.349 . S
C5645 C5647 1.327 . S
C5645 H5668 0.950 . S
C5646 C5645 1.349 . S
C5646 C5658 1.349 . S
C5647 C5645 1.327 . S
C5647 C5663 1.429 . S
C5647 H5669 0.950 . S
C5648 H5644 0.949 . S
C5648 C5656 1.574 . S
C5648 C5664 1.368 . S
H5649 C5657 0.950 . S
H5650 C5655 0.950 . S
H5651 C5656 0.949 . S
H5652 C5658 0.950 . S
H5653 C5659 0.950 . S
H5654 C5660 0.949 . S
C5655 H5650 0.950 . S
C5655 C5657 1.327 . S
C5655 C5661 1.429 . S
C5656 C5648 1.574 . S
C5656 H5651 0.949 . S
C5656 C5662 1.368 . S
C5657 C5641 1.349 . S
C5657 H5649 0.950 . S
C5657 C5655 1.327 . S
C5658 C5646 1.349 . S
C5658 H5652 0.950 . S
C5658 C5659 1.327 . S
C5659 H5653 0.950 . S
C5659 C5658 1.327 . S
C5659 C5663 1.429 . S
C5660 C5643 1.574 . S
C5660 H5654 0.949 . S
C5660 C5664 1.368 . S
C5661 C5642 1.429 . S
C5661 C5655 1.429 . S
C5661 C5662 1.523 . S
C5662 C5643 1.368 . S
C5662 C5656 1.368 . S
C5662 C5661 1.523 . S
C5663 C5647 1.429 . S
C5663 C5659 1.429 . S
C5663 C5664 1.523 . S
C5664 C5648 1.368 . S
C5664 C5660 1.368 . S
C5664 C5663 1.523 . S
H5665 C5640 0.950 . S
H5666 C5642 0.950 . S
H5667 C5643 0.949 . S
H5668 C5645 0.950 . S
H5669 C5647 0.950 . S
C5670 C5671 1.349 . S
C5670 C5672 1.327 . S
C5670 H5695 0.950 . S
C5671 C5670 1.349 . S
C5671 C5687 1.349 . S
C5672 C5670 1.327 . S
C5672 C5691 1.429 . S
C5672 H5696 0.950 . S
C5673 C5690 1.574 . S
C5673 C5692 1.368 . S
C5673 H5697 0.949 . S
H5674 C5678 0.949 . S
C5675 C5676 1.349 . S
C5675 C5677 1.327 . S
C5675 H5698 0.950 . S
C5676 C5675 1.349 . S
C5676 C5688 1.349 . S
C5677 C5675 1.327 . S
C5677 C5693 1.429 . S
C5677 H5699 0.950 . S
C5678 H5674 0.949 . S
C5678 C5686 1.574 . S
C5678 C5694 1.368 . S
H5679 C5687 0.950 . S
H5680 C5685 0.950 . S
H5681 C5686 0.949 . S
H5682 C5688 0.950 . S
H5683 C5689 0.950 . S
H5684 C5690 0.949 . S
C5685 H5680 0.950 . S
C5685 C5687 1.327 . S
C5685 C5691 1.429 . S
C5686 C5678 1.574 . S
C5686 H5681 0.949 . S
C5686 C5692 1.368 . S
C5687 C5671 1.349 . S
C5687 H5679 0.950 . S
C5687 C5685 1.327 . S
C5688 C5676 1.349 . S
C5688 H5682 0.950 . S
C5688 C5689 1.327 . S
C5689 H5683 0.950 . S
C5689 C5688 1.327 . S
C5689 C5693 1.429 . S
C5690 C5673 1.574 . S
C5690 H5684 0.949 . S
C5690 C5694 1.368 . S
C5691 C5672 1.429 . S
C5691 C5685 1.429 . S
C5691 C5692 1.523 . S
C5692 C5673 1.368 . S
C5692 C5686 1.368 . S
C5692 C5691 1.523 . S
C5693 C5677 1.429 . S
C5693 C5689 1.429 . S
C5693 C5694 1.523 . S
C5694 C5678 1.368 . S
C5694 C5690 1.368 . S
C5694 C5693 1.523 . S
H5695 C5670 0.950 . S
H5696 C5672 0.950 . S
H5697 C5673 0.949 . S
H5698 C5675 0.950 . S
H5699 C5677 0.950 . S
C5700 C5701 1.349 . S
C5700 C5702 1.327 . S
C5700 H5725 0.950 . S
C5701 C5700 1.349 . S
C5701 C5717 1.349 . S
C5702 C5700 1.327 . S
C5702 C5721 1.429 . S
C5702 H5726 0.950 . S
C5703 C5720 1.574 . S
C5703 C5722 1.368 . S
C5703 H5727 0.949 . S
H5704 C5708 0.949 . S
C5705 C5706 1.349 . S
C5705 C5707 1.327 . S
C5705 H5728 0.950 . S
C5706 C5705 1.349 . S
C5706 C5718 1.349 . S
C5707 C5705 1.327 . S
C5707 C5723 1.429 . S
C5707 H5729 0.950 . S
C5708 H5704 0.949 . S
C5708 C5716 1.574 . S
C5708 C5724 1.368 . S
H5709 C5717 0.950 . S
H5710 C5715 0.950 . S
H5711 C5716 0.949 . S
H5712 C5718 0.950 . S
H5713 C5719 0.950 . S
H5714 C5720 0.949 . S
C5715 H5710 0.950 . S
C5715 C5717 1.327 . S
C5715 C5721 1.429 . S
C5716 C5708 1.574 . S
C5716 H5711 0.949 . S
C5716 C5722 1.368 . S
C5717 C5701 1.349 . S
C5717 H5709 0.950 . S
C5717 C5715 1.327 . S
C5718 C5706 1.349 . S
C5718 H5712 0.950 . S
C5718 C5719 1.327 . S
C5719 H5713 0.950 . S
C5719 C5718 1.327 . S
C5719 C5723 1.429 . S
C5720 C5703 1.574 . S
C5720 H5714 0.949 . S
C5720 C5724 1.368 . S
C5721 C5702 1.429 . S
C5721 C5715 1.429 . S
C5721 C5722 1.523 . S
C5722 C5703 1.368 . S
C5722 C5716 1.368 . S
C5722 C5721 1.523 . S
C5723 C5707 1.429 . S
C5723 C5719 1.429 . S
C5723 C5724 1.523 . S
C5724 C5708 1.368 . S
C5724 C5720 1.368 . S
C5724 C5723 1.523 . S
H5725 C5700 0.950 . S
H5726 C5702 0.950 . S
H5727 C5703 0.949 . S
H5728 C5705 0.950 . S
H5729 C5707 0.950 . S
C5730 C5731 1.349 . S
C5730 C5732 1.327 . S
C5730 H5755 0.950 . S
C5731 C5730 1.349 . S
C5731 C5747 1.349 . S
C5732 C5730 1.327 . S
C5732 C5751 1.429 . S
C5732 H5756 0.950 . S
C5733 C5750 1.574 . S
C5733 C5752 1.368 . S
C5733 H5757 0.949 . S
H5734 C5738 0.949 . S
C5735 C5736 1.349 . S
C5735 C5737 1.327 . S
C5735 H5758 0.950 . S
C5736 C5735 1.349 . S
C5736 C5748 1.349 . S
C5737 C5735 1.327 . S
C5737 C5753 1.429 . S
C5737 H5759 0.950 . S
C5738 H5734 0.949 . S
C5738 C5746 1.574 . S
C5738 C5754 1.368 . S
H5739 C5747 0.950 . S
H5740 C5745 0.950 . S
H5741 C5746 0.949 . S
H5742 C5748 0.950 . S
H5743 C5749 0.950 . S
H5744 C5750 0.949 . S
C5745 H5740 0.950 . S
C5745 C5747 1.327 . S
C5745 C5751 1.429 . S
C5746 C5738 1.574 . S
C5746 H5741 0.949 . S
C5746 C5752 1.368 . S
C5747 C5731 1.349 . S
C5747 H5739 0.950 . S
C5747 C5745 1.327 . S
C5748 C5736 1.349 . S
C5748 H5742 0.950 . S
C5748 C5749 1.327 . S
C5749 H5743 0.950 . S
C5749 C5748 1.327 . S
C5749 C5753 1.429 . S
C5750 C5733 1.574 . S
C5750 H5744 0.949 . S
C5750 C5754 1.368 . S
C5751 C5732 1.429 . S
C5751 C5745 1.429 . S
C5751 C5752 1.523 . S
C5752 C5733 1.368 . S
C5752 C5746 1.368 . S
C5752 C5751 1.523 . S
C5753 C5737 1.429 . S
C5753 C5749 1.429 . S
C5753 C5754 1.523 . S
C5754 C5738 1.368 . S
C5754 C5750 1.368 . S
C5754 C5753 1.523 . S
H5755 C5730 0.950 . S
H5756 C5732 0.950 . S
H5757 C5733 0.949 . S
H5758 C5735 0.950 . S
H5759 C5737 0.950 . S
C5760 C5761 1.349 . S
C5760 C5762 1.327 . S
C5760 H5785 0.950 . S
C5761 C5760 1.349 . S
C5761 C5777 1.349 . S
C5762 C5760 1.327 . S
C5762 C5781 1.429 . S
C5762 H5786 0.950 . S
C5763 C5780 1.574 . S
C5763 C5782 1.368 . S
C5763 H5787 0.949 . S
H5764 C5768 0.949 . S
C5765 C5766 1.349 . S
C5765 C5767 1.327 . S
C5765 H5788 0.950 . S
C5766 C5765 1.349 . S
C5766 C5778 1.349 . S
C5767 C5765 1.327 . S
C5767 C5783 1.429 . S
C5767 H5789 0.950 . S
C5768 H5764 0.949 . S
C5768 C5776 1.574 . S
C5768 C5784 1.368 . S
H5769 C5777 0.950 . S
H5770 C5775 0.950 . S
H5771 C5776 0.949 . S
H5772 C5778 0.950 . S
H5773 C5779 0.950 . S
H5774 C5780 0.949 . S
C5775 H5770 0.950 . S
C5775 C5777 1.327 . S
C5775 C5781 1.429 . S
C5776 C5768 1.574 . S
C5776 H5771 0.949 . S
C5776 C5782 1.368 . S
C5777 C5761 1.349 . S
C5777 H5769 0.950 . S
C5777 C5775 1.327 . S
C5778 C5766 1.349 . S
C5778 H5772 0.950 . S
C5778 C5779 1.327 . S
C5779 H5773 0.950 . S
C5779 C5778 1.327 . S
C5779 C5783 1.429 . S
C5780 C5763 1.574 . S
C5780 H5774 0.949 . S
C5780 C5784 1.368 . S
C5781 C5762 1.429 . S
C5781 C5775 1.429 . S
C5781 C5782 1.523 . S
C5782 C5763 1.368 . S
C5782 C5776 1.368 . S
C5782 C5781 1.523 . S
C5783 C5767 1.429 . S
C5783 C5779 1.429 . S
C5783 C5784 1.523 . S
C5784 C5768 1.368 . S
C5784 C5780 1.368 . S
C5784 C5783 1.523 . S
H5785 C5760 0.950 . S
H5786 C5762 0.950 . S
H5787 C5763 0.949 . S
H5788 C5765 0.950 . S
H5789 C5767 0.950 . S
C5790 C5791 1.349 . S
C5790 C5792 1.327 . S
C5790 H5815 0.950 . S
C5791 C5790 1.349 . S
C5791 C5807 1.349 . S
C5792 C5790 1.327 . S
C5792 C5811 1.429 . S
C5792 H5816 0.950 . S
C5793 C5810 1.574 . S
C5793 C5812 1.368 . S
C5793 H5817 0.949 . S
H5794 C5798 0.949 . S
C5795 C5796 1.349 . S
C5795 C5797 1.327 . S
C5795 H5818 0.950 . S
C5796 C5795 1.349 . S
C5796 C5808 1.349 . S
C5797 C5795 1.327 . S
C5797 C5813 1.429 . S
C5797 H5819 0.950 . S
C5798 H5794 0.949 . S
C5798 C5806 1.574 . S
C5798 C5814 1.368 . S
H5799 C5807 0.950 . S
H5800 C5805 0.950 . S
H5801 C5806 0.949 . S
H5802 C5808 0.950 . S
H5803 C5809 0.950 . S
H5804 C5810 0.949 . S
C5805 H5800 0.950 . S
C5805 C5807 1.327 . S
C5805 C5811 1.429 . S
C5806 C5798 1.574 . S
C5806 H5801 0.949 . S
C5806 C5812 1.368 . S
C5807 C5791 1.349 . S
C5807 H5799 0.950 . S
C5807 C5805 1.327 . S
C5808 C5796 1.349 . S
C5808 H5802 0.950 . S
C5808 C5809 1.327 . S
C5809 H5803 0.950 . S
C5809 C5808 1.327 . S
C5809 C5813 1.429 . S
C5810 C5793 1.574 . S
C5810 H5804 0.949 . S
C5810 C5814 1.368 . S
C5811 C5792 1.429 . S
C5811 C5805 1.429 . S
C5811 C5812 1.523 . S
C5812 C5793 1.368 . S
C5812 C5806 1.368 . S
C5812 C5811 1.523 . S
C5813 C5797 1.429 . S
C5813 C5809 1.429 . S
C5813 C5814 1.523 . S
C5814 C5798 1.368 . S
C5814 C5810 1.368 . S
C5814 C5813 1.523 . S
H5815 C5790 0.950 . S
H5816 C5792 0.950 . S
H5817 C5793 0.949 . S
H5818 C5795 0.950 . S
H5819 C5797 0.950 . S
C5820 C5821 1.349 . S
C5820 C5822 1.327 . S
C5820 H5845 0.950 . S
C5821 C5820 1.349 . S
C5821 C5837 1.349 . S
C5822 C5820 1.327 . S
C5822 C5841 1.429 . S
C5822 H5846 0.950 . S
C5823 C5840 1.574 . S
C5823 C5842 1.368 . S
C5823 H5847 0.949 . S
H5824 C5828 0.949 . S
C5825 C5826 1.349 . S
C5825 C5827 1.327 . S
C5825 H5848 0.950 . S
C5826 C5825 1.349 . S
C5826 C5838 1.349 . S
C5827 C5825 1.327 . S
C5827 C5843 1.429 . S
C5827 H5849 0.950 . S
C5828 H5824 0.949 . S
C5828 C5836 1.574 . S
C5828 C5844 1.368 . S
H5829 C5837 0.950 . S
H5830 C5835 0.950 . S
H5831 C5836 0.949 . S
H5832 C5838 0.950 . S
H5833 C5839 0.950 . S
H5834 C5840 0.949 . S
C5835 H5830 0.950 . S
C5835 C5837 1.327 . S
C5835 C5841 1.429 . S
C5836 C5828 1.574 . S
C5836 H5831 0.949 . S
C5836 C5842 1.368 . S
C5837 C5821 1.349 . S
C5837 H5829 0.950 . S
C5837 C5835 1.327 . S
C5838 C5826 1.349 . S
C5838 H5832 0.950 . S
C5838 C5839 1.327 . S
C5839 H5833 0.950 . S
C5839 C5838 1.327 . S
C5839 C5843 1.429 . S
C5840 C5823 1.574 . S
C5840 H5834 0.949 . S
C5840 C5844 1.368 . S
C5841 C5822 1.429 . S
C5841 C5835 1.429 . S
C5841 C5842 1.523 . S
C5842 C5823 1.368 . S
C5842 C5836 1.368 . S
C5842 C5841 1.523 . S
C5843 C5827 1.429 . S
C5843 C5839 1.429 . S
C5843 C5844 1.523 . S
C5844 C5828 1.368 . S
C5844 C5840 1.368 . S
C5844 C5843 1.523 . S
H5845 C5820 0.950 . S
H5846 C5822 0.950 . S
H5847 C5823 0.949 . S
H5848 C5825 0.950 . S
H5849 C5827 0.950 . S
C5850 C5851 1.349 . S
C5850 C5852 1.327 . S
C5850 H5875 0.950 . S
C5851 C5850 1.349 . S
C5851 C5867 1.349 . S
C5852 C5850 1.327 . S
C5852 C5871 1.429 . S
C5852 H5876 0.950 . S
C5853 C5870 1.574 . S
C5853 C5872 1.368 . S
C5853 H5877 0.949 . S
H5854 C5858 0.949 . S
C5855 C5856 1.349 . S
C5855 C5857 1.327 . S
C5855 H5878 0.950 . S
C5856 C5855 1.349 . S
C5856 C5868 1.349 . S
C5857 C5855 1.327 . S
C5857 C5873 1.429 . S
C5857 H5879 0.950 . S
C5858 H5854 0.949 . S
C5858 C5866 1.574 . S
C5858 C5874 1.368 . S
H5859 C5867 0.950 . S
H5860 C5865 0.950 . S
H5861 C5866 0.949 . S
H5862 C5868 0.950 . S
H5863 C5869 0.950 . S
H5864 C5870 0.949 . S
C5865 H5860 0.950 . S
C5865 C5867 1.327 . S
C5865 C5871 1.429 . S
C5866 C5858 1.574 . S
C5866 H5861 0.949 . S
C5866 C5872 1.368 . S
C5867 C5851 1.349 . S
C5867 H5859 0.950 . S
C5867 C5865 1.327 . S
C5868 C5856 1.349 . S
C5868 H5862 0.950 . S
C5868 C5869 1.327 . S
C5869 H5863 0.950 . S
C5869 C5868 1.327 . S
C5869 C5873 1.429 . S
C5870 C5853 1.574 . S
C5870 H5864 0.949 . S
C5870 C5874 1.368 . S
C5871 C5852 1.429 . S
C5871 C5865 1.429 . S
C5871 C5872 1.523 . S
C5872 C5853 1.368 . S
C5872 C5866 1.368 . S
C5872 C5871 1.523 . S
C5873 C5857 1.429 . S
C5873 C5869 1.429 . S
C5873 C5874 1.523 . S
C5874 C5858 1.368 . S
C5874 C5870 1.368 . S
C5874 C5873 1.523 . S
H5875 C5850 0.950 . S
H5876 C5852 0.950 . S
H5877 C5853 0.949 . S
H5878 C5855 0.950 . S
H5879 C5857 0.950 . S
C5880 C5881 1.349 . S
C5880 C5882 1.327 . S
C5880 H5905 0.950 . S
C5881 C5880 1.349 . S
C5881 C5897 1.349 . S
C5882 C5880 1.327 . S
C5882 C5901 1.429 . S
C5882 H5906 0.950 . S
C5883 C5900 1.574 . S
C5883 C5902 1.368 . S
C5883 H5907 0.949 . S
H5884 C5888 0.949 . S
C5885 C5886 1.349 . S
C5885 C5887 1.327 . S
C5885 H5908 0.950 . S
C5886 C5885 1.349 . S
C5886 C5898 1.349 . S
C5887 C5885 1.327 . S
C5887 C5903 1.429 . S
C5887 H5909 0.950 . S
C5888 H5884 0.949 . S
C5888 C5896 1.574 . S
C5888 C5904 1.368 . S
H5889 C5897 0.950 . S
H5890 C5895 0.950 . S
H5891 C5896 0.949 . S
H5892 C5898 0.950 . S
H5893 C5899 0.950 . S
H5894 C5900 0.949 . S
C5895 H5890 0.950 . S
C5895 C5897 1.327 . S
C5895 C5901 1.429 . S
C5896 C5888 1.574 . S
C5896 H5891 0.949 . S
C5896 C5902 1.368 . S
C5897 C5881 1.349 . S
C5897 H5889 0.950 . S
C5897 C5895 1.327 . S
C5898 C5886 1.349 . S
C5898 H5892 0.950 . S
C5898 C5899 1.327 . S
C5899 H5893 0.950 . S
C5899 C5898 1.327 . S
C5899 C5903 1.429 . S
C5900 C5883 1.574 . S
C5900 H5894 0.949 . S
C5900 C5904 1.368 . S
C5901 C5882 1.429 . S
C5901 C5895 1.429 . S
C5901 C5902 1.523 . S
C5902 C5883 1.368 . S
C5902 C5896 1.368 . S
C5902 C5901 1.523 . S
C5903 C5887 1.429 . S
C5903 C5899 1.429 . S
C5903 C5904 1.523 . S
C5904 C5888 1.368 . S
C5904 C5900 1.368 . S
C5904 C5903 1.523 . S
H5905 C5880 0.950 . S
H5906 C5882 0.950 . S
H5907 C5883 0.949 . S
H5908 C5885 0.950 . S
H5909 C5887 0.950 . S
C5910 C5911 1.349 . S
C5910 C5912 1.327 . S
C5910 H5935 0.950 . S
C5911 C5910 1.349 . S
C5911 C5927 1.349 . S
C5912 C5910 1.327 . S
C5912 C5931 1.429 . S
C5912 H5936 0.950 . S
C5913 C5930 1.574 . S
C5913 C5932 1.368 . S
C5913 H5937 0.949 . S
H5914 C5918 0.949 . S
C5915 C5916 1.349 . S
C5915 C5917 1.327 . S
C5915 H5938 0.950 . S
C5916 C5915 1.349 . S
C5916 C5928 1.349 . S
C5917 C5915 1.327 . S
C5917 C5933 1.429 . S
C5917 H5939 0.950 . S
C5918 H5914 0.949 . S
C5918 C5926 1.574 . S
C5918 C5934 1.368 . S
H5919 C5927 0.950 . S
H5920 C5925 0.950 . S
H5921 C5926 0.949 . S
H5922 C5928 0.950 . S
H5923 C5929 0.950 . S
H5924 C5930 0.949 . S
C5925 H5920 0.950 . S
C5925 C5927 1.327 . S
C5925 C5931 1.429 . S
C5926 C5918 1.574 . S
C5926 H5921 0.949 . S
C5926 C5932 1.368 . S
C5927 C5911 1.349 . S
C5927 H5919 0.950 . S
C5927 C5925 1.327 . S
C5928 C5916 1.349 . S
C5928 H5922 0.950 . S
C5928 C5929 1.327 . S
C5929 H5923 0.950 . S
C5929 C5928 1.327 . S
C5929 C5933 1.429 . S
C5930 C5913 1.574 . S
C5930 H5924 0.949 . S
C5930 C5934 1.368 . S
C5931 C5912 1.429 . S
C5931 C5925 1.429 . S
C5931 C5932 1.523 . S
C5932 C5913 1.368 . S
C5932 C5926 1.368 . S
C5932 C5931 1.523 . S
C5933 C5917 1.429 . S
C5933 C5929 1.429 . S
C5933 C5934 1.523 . S
C5934 C5918 1.368 . S
C5934 C5930 1.368 . S
C5934 C5933 1.523 . S
H5935 C5910 0.950 . S
H5936 C5912 0.950 . S
H5937 C5913 0.949 . S
H5938 C5915 0.950 . S
H5939 C5917 0.950 . S
C5940 C5941 1.349 . S
C5940 C5942 1.327 . S
C5940 H5965 0.950 . S
C5941 C5940 1.349 . S
C5941 C5957 1.349 . S
C5942 C5940 1.327 . S
C5942 C5961 1.429 . S
C5942 H5966 0.950 . S
C5943 C5960 1.574 . S
C5943 C5962 1.368 . S
C5943 H5967 0.949 . S
H5944 C5948 0.949 . S
C5945 C5946 1.349 . S
C5945 C5947 1.327 . S
C5945 H5968 0.950 . S
C5946 C5945 1.349 . S
C5946 C5958 1.349 . S
C5947 C5945 1.327 . S
C5947 C5963 1.429 . S
C5947 H5969 0.950 . S
C5948 H5944 0.949 . S
C5948 C5956 1.574 . S
C5948 C5964 1.368 . S
H5949 C5957 0.950 . S
H5950 C5955 0.950 . S
H5951 C5956 0.949 . S
H5952 C5958 0.950 . S
H5953 C5959 0.950 . S
H5954 C5960 0.949 . S
C5955 H5950 0.950 . S
C5955 C5957 1.327 . S
C5955 C5961 1.429 . S
C5956 C5948 1.574 . S
C5956 H5951 0.949 . S
C5956 C5962 1.368 . S
C5957 C5941 1.349 . S
C5957 H5949 0.950 . S
C5957 C5955 1.327 . S
C5958 C5946 1.349 . S
C5958 H5952 0.950 . S
C5958 C5959 1.327 . S
C5959 H5953 0.950 . S
C5959 C5958 1.327 . S
C5959 C5963 1.429 . S
C5960 C5943 1.574 . S
C5960 H5954 0.949 . S
C5960 C5964 1.368 . S
C5961 C5942 1.429 . S
C5961 C5955 1.429 . S
C5961 C5962 1.523 . S
C5962 C5943 1.368 . S
C5962 C5956 1.368 . S
C5962 C5961 1.523 . S
C5963 C5947 1.429 . S
C5963 C5959 1.429 . S
C5963 C5964 1.523 . S
C5964 C5948 1.368 . S
C5964 C5960 1.368 . S
C5964 C5963 1.523 . S
H5965 C5940 0.950 . S
H5966 C5942 0.950 . S
H5967 C5943 0.949 . S
H5968 C5945 0.950 . S
H5969 C5947 0.950 . S
C5970 C5971 1.349 . S
C5970 C5972 1.327 . S
C5970 H5995 0.950 . S
C5971 C5970 1.349 . S
C5971 C5987 1.349 . S
C5972 C5970 1.327 . S
C5972 C5991 1.429 . S
C5972 H5996 0.950 . S
C5973 C5990 1.574 . S
C5973 C5992 1.368 . S
C5973 H5997 0.949 . S
H5974 C5978 0.949 . S
C5975 C5976 1.349 . S
C5975 C5977 1.327 . S
C5975 H5998 0.950 . S
C5976 C5975 1.349 . S
C5976 C5988 1.349 . S
C5977 C5975 1.327 . S
C5977 C5993 1.429 . S
C5977 H5999 0.950 . S
C5978 H5974 0.949 . S
C5978 C5986 1.574 . S
C5978 C5994 1.368 . S
H5979 C5987 0.950 . S
H5980 C5985 0.950 . S
H5981 C5986 0.949 . S
H5982 C5988 0.950 . S
H5983 C5989 0.950 . S
H5984 C5990 0.949 . S
C5985 H5980 0.950 . S
C5985 C5987 1.327 . S
C5985 C5991 1.429 . S
C5986 C5978 1.574 . S
C5986 H5981 0.949 . S
C5986 C5992 1.368 . S
C5987 C5971 1.349 . S
C5987 H5979 0.950 . S
C5987 C5985 1.327 . S
C5988 C5976 1.349 . S
C5988 H5982 0.950 . S
C5988 C5989 1.327 . S
C5989 H5983 0.950 . S
C5989 C5988 1.327 . S
C5989 C5993 1.429 . S
C5990 C5973 1.574 . S
C5990 H5984 0.949 . S
C5990 C5994 1.368 . S
C5991 C5972 1.429 . S
C5991 C5985 1.429 . S
C5991 C5992 1.523 . S
C5992 C5973 1.368 . S
C5992 C5986 1.368 . S
C5992 C5991 1.523 . S
C5993 C5977 1.429 . S
C5993 C5989 1.429 . S
C5993 C5994 1.523 . S
C5994 C5978 1.368 . S
C5994 C5990 1.368 . S
C5994 C5993 1.523 . S
H5995 C5970 0.950 . S
H5996 C5972 0.950 . S
H5997 C5973 0.949 . S
H5998 C5975 0.950 . S
H5999 C5977 0.950 . S
C6000 C6001 1.349 . S
C6000 C6002 1.327 . S
C6000 H6025 0.950 . S
C6001 C6000 1.349 . S
C6001 C6017 1.349 . S
C6002 C6000 1.327 . S
C6002 C6021 1.429 . S
C6002 H6026 0.950 . S
C6003 C6020 1.574 . S
C6003 C6022 1.368 . S
C6003 H6027 0.949 . S
H6004 C6008 0.949 . S
C6005 C6006 1.349 . S
C6005 C6007 1.327 . S
C6005 H6028 0.950 . S
C6006 C6005 1.349 . S
C6006 C6018 1.349 . S
C6007 C6005 1.327 . S
C6007 C6023 1.429 . S
C6007 H6029 0.950 . S
C6008 H6004 0.949 . S
C6008 C6016 1.574 . S
C6008 C6024 1.368 . S
H6009 C6017 0.950 . S
H6010 C6015 0.950 . S
H6011 C6016 0.949 . S
H6012 C6018 0.950 . S
H6013 C6019 0.950 . S
H6014 C6020 0.949 . S
C6015 H6010 0.950 . S
C6015 C6017 1.327 . S
C6015 C6021 1.429 . S
C6016 C6008 1.574 . S
C6016 H6011 0.949 . S
C6016 C6022 1.368 . S
C6017 C6001 1.349 . S
C6017 H6009 0.950 . S
C6017 C6015 1.327 . S
C6018 C6006 1.349 . S
C6018 H6012 0.950 . S
C6018 C6019 1.327 . S
C6019 H6013 0.950 . S
C6019 C6018 1.327 . S
C6019 C6023 1.429 . S
C6020 C6003 1.574 . S
C6020 H6014 0.949 . S
C6020 C6024 1.368 . S
C6021 C6002 1.429 . S
C6021 C6015 1.429 . S
C6021 C6022 1.523 . S
C6022 C6003 1.368 . S
C6022 C6016 1.368 . S
C6022 C6021 1.523 . S
C6023 C6007 1.429 . S
C6023 C6019 1.429 . S
C6023 C6024 1.523 . S
C6024 C6008 1.368 . S
C6024 C6020 1.368 . S
C6024 C6023 1.523 . S
H6025 C6000 0.950 . S
H6026 C6002 0.950 . S
H6027 C6003 0.949 . S
H6028 C6005 0.950 . S
H6029 C6007 0.950 . S
C6030 C6031 1.349 . S
C6030 C6032 1.327 . S
C6030 H6055 0.950 . S
C6031 C6030 1.349 . S
C6031 C6047 1.349 . S
C6032 C6030 1.327 . S
C6032 C6051 1.429 . S
C6032 H6056 0.950 . S
C6033 C6050 1.574 . S
C6033 C6052 1.368 . S
C6033 H6057 0.949 . S
H6034 C6038 0.949 . S
C6035 C6036 1.349 . S
C6035 C6037 1.327 . S
C6035 H6058 0.950 . S
C6036 C6035 1.349 . S
C6036 C6048 1.349 . S
C6037 C6035 1.327 . S
C6037 C6053 1.429 . S
C6037 H6059 0.950 . S
C6038 H6034 0.949 . S
C6038 C6046 1.574 . S
C6038 C6054 1.368 . S
H6039 C6047 0.950 . S
H6040 C6045 0.950 . S
H6041 C6046 0.949 . S
H6042 C6048 0.950 . S
H6043 C6049 0.950 . S
H6044 C6050 0.949 . S
C6045 H6040 0.950 . S
C6045 C6047 1.327 . S
C6045 C6051 1.429 . S
C6046 C6038 1.574 . S
C6046 H6041 0.949 . S
C6046 C6052 1.368 . S
C6047 C6031 1.349 . S
C6047 H6039 0.950 . S
C6047 C6045 1.327 . S
C6048 C6036 1.349 . S
C6048 H6042 0.950 . S
C6048 C6049 1.327 . S
C6049 H6043 0.950 . S
C6049 C6048 1.327 . S
C6049 C6053 1.429 . S
C6050 C6033 1.574 . S
C6050 H6044 0.949 . S
C6050 C6054 1.368 . S
C6051 C6032 1.429 . S
C6051 C6045 1.429 . S
C6051 C6052 1.523 . S
C6052 C6033 1.368 . S
C6052 C6046 1.368 . S
C6052 C6051 1.523 . S
C6053 C6037 1.429 . S
C6053 C6049 1.429 . S
C6053 C6054 1.523 . S
C6054 C6038 1.368 . S
C6054 C6050 1.368 . S
C6054 C6053 1.523 . S
H6055 C6030 0.950 . S
H6056 C6032 0.950 . S
H6057 C6033 0.949 . S
H6058 C6035 0.950 . S
H6059 C6037 0.950 . S
C6060 C6061 1.349 . S
C6060 C6062 1.327 . S
C6060 H6085 0.950 . S
C6061 C6060 1.349 . S
C6061 C6077 1.349 . S
C6062 C6060 1.327 . S
C6062 C6081 1.429 . S
C6062 H6086 0.950 . S
C6063 C6080 1.574 . S
C6063 C6082 1.368 . S
C6063 H6087 0.949 . S
H6064 C6068 0.949 . S
C6065 C6066 1.349 . S
C6065 C6067 1.327 . S
C6065 H6088 0.950 . S
C6066 C6065 1.349 . S
C6066 C6078 1.349 . S
C6067 C6065 1.327 . S
C6067 C6083 1.429 . S
C6067 H6089 0.950 . S
C6068 H6064 0.949 . S
C6068 C6076 1.574 . S
C6068 C6084 1.368 . S
H6069 C6077 0.950 . S
H6070 C6075 0.950 . S
H6071 C6076 0.949 . S
H6072 C6078 0.950 . S
H6073 C6079 0.950 . S
H6074 C6080 0.949 . S
C6075 H6070 0.950 . S
C6075 C6077 1.327 . S
C6075 C6081 1.429 . S
C6076 C6068 1.574 . S
C6076 H6071 0.949 . S
C6076 C6082 1.368 . S
C6077 C6061 1.349 . S
C6077 H6069 0.950 . S
C6077 C6075 1.327 . S
C6078 C6066 1.349 . S
C6078 H6072 0.950 . S
C6078 C6079 1.327 . S
C6079 H6073 0.950 . S
C6079 C6078 1.327 . S
C6079 C6083 1.429 . S
C6080 C6063 1.574 . S
C6080 H6074 0.949 . S
C6080 C6084 1.368 . S
C6081 C6062 1.429 . S
C6081 C6075 1.429 . S
C6081 C6082 1.523 . S
C6082 C6063 1.368 . S
C6082 C6076 1.368 . S
C6082 C6081 1.523 . S
C6083 C6067 1.429 . S
C6083 C6079 1.429 . S
C6083 C6084 1.523 . S
C6084 C6068 1.368 . S
C6084 C6080 1.368 . S
C6084 C6083 1.523 . S
H6085 C6060 0.950 . S
H6086 C6062 0.950 . S
H6087 C6063 0.949 . S
H6088 C6065 0.950 . S
H6089 C6067 0.950 . S
C6090 C6091 1.349 . S
C6090 C6092 1.327 . S
C6090 H6115 0.950 . S
C6091 C6090 1.349 . S
C6091 C6107 1.349 . S
C6092 C6090 1.327 . S
C6092 C6111 1.429 . S
C6092 H6116 0.950 . S
C6093 C6110 1.574 . S
C6093 C6112 1.368 . S
C6093 H6117 0.949 . S
H6094 C6098 0.949 . S
C6095 C6096 1.349 . S
C6095 C6097 1.327 . S
C6095 H6118 0.950 . S
C6096 C6095 1.349 . S
C6096 C6108 1.349 . S
C6097 C6095 1.327 . S
C6097 C6113 1.429 . S
C6097 H6119 0.950 . S
C6098 H6094 0.949 . S
C6098 C6106 1.574 . S
C6098 C6114 1.368 . S
H6099 C6107 0.950 . S
H6100 C6105 0.950 . S
H6101 C6106 0.949 . S
H6102 C6108 0.950 . S
H6103 C6109 0.950 . S
H6104 C6110 0.949 . S
C6105 H6100 0.950 . S
C6105 C6107 1.327 . S
C6105 C6111 1.429 . S
C6106 C6098 1.574 . S
C6106 H6101 0.949 . S
C6106 C6112 1.368 . S
C6107 C6091 1.349 . S
C6107 H6099 0.950 . S
C6107 C6105 1.327 . S
C6108 C6096 1.349 . S
C6108 H6102 0.950 . S
C6108 C6109 1.327 . S
C6109 H6103 0.950 . S
C6109 C6108 1.327 . S
C6109 C6113 1.429 . S
C6110 C6093 1.574 . S
C6110 H6104 0.949 . S
C6110 C6114 1.368 . S
C6111 C6092 1.429 . S
C6111 C6105 1.429 . S
C6111 C6112 1.523 . S
C6112 C6093 1.368 . S
C6112 C6106 1.368 . S
C6112 C6111 1.523 . S
C6113 C6097 1.429 . S
C6113 C6109 1.429 . S
C6113 C6114 1.523 . S
C6114 C6098 1.368 . S
C6114 C6110 1.368 . S
C6114 C6113 1.523 . S
H6115 C6090 0.950 . S
H6116 C6092 0.950 . S
H6117 C6093 0.949 . S
H6118 C6095 0.950 . S
H6119 C6097 0.950 . S
C6120 C6121 1.349 . S
C6120 C6122 1.327 . S
C6120 H6145 0.950 . S
C6121 C6120 1.349 . S
C6121 C6137 1.349 . S
C6122 C6120 1.327 . S
C6122 C6141 1.429 . S
C6122 H6146 0.950 . S
C6123 C6140 1.574 . S
C6123 C6142 1.368 . S
C6123 H6147 0.949 . S
H6124 C6128 0.949 . S
C6125 C6126 1.349 . S
C6125 C6127 1.327 . S
C6125 H6148 0.950 . S
C6126 C6125 1.349 . S
C6126 C6138 1.349 . S
C6127 C6125 1.327 . S
C6127 C6143 1.429 . S
C6127 H6149 0.950 . S
C6128 H6124 0.949 . S
C6128 C6136 1.574 . S
C6128 C6144 1.368 . S
H6129 C6137 0.950 . S
H6130 C6135 0.950 . S
H6131 C6136 0.949 . S
H6132 C6138 0.950 . S
H6133 C6139 0.950 . S
H6134 C6140 0.949 . S
C6135 H6130 0.950 . S
C6135 C6137 1.327 . S
C6135 C6141 1.429 . S
C6136 C6128 1.574 . S
C6136 H6131 0.949 . S
C6136 C6142 1.368 . S
C6137 C6121 1.349 . S
C6137 H6129 0.950 . S
C6137 C6135 1.327 . S
C6138 C6126 1.349 . S
C6138 H6132 0.950 . S
C6138 C6139 1.327 . S
C6139 H6133 0.950 . S
C6139 C6138 1.327 . S
C6139 C6143 1.429 . S
C6140 C6123 1.574 . S
C6140 H6134 0.949 . S
C6140 C6144 1.368 . S
C6141 C6122 1.429 . S
C6141 C6135 1.429 . S
C6141 C6142 1.523 . S
C6142 C6123 1.368 . S
C6142 C6136 1.368 . S
C6142 C6141 1.523 . S
C6143 C6127 1.429 . S
C6143 C6139 1.429 . S
C6143 C6144 1.523 . S
C6144 C6128 1.368 . S
C6144 C6140 1.368 . S
C6144 C6143 1.523 . S
H6145 C6120 0.950 . S
H6146 C6122 0.950 . S
H6147 C6123 0.949 . S
H6148 C6125 0.950 . S
H6149 C6127 0.950 . S
C6150 C6151 1.349 . S
C6150 C6152 1.327 . S
C6150 H6175 0.950 . S
C6151 C6150 1.349 . S
C6151 C6167 1.349 . S
C6152 C6150 1.327 . S
C6152 C6171 1.429 . S
C6152 H6176 0.950 . S
C6153 C6170 1.574 . S
C6153 C6172 1.368 . S
C6153 H6177 0.949 . S
H6154 C6158 0.949 . S
C6155 C6156 1.349 . S
C6155 C6157 1.327 . S
C6155 H6178 0.950 . S
C6156 C6155 1.349 . S
C6156 C6168 1.349 . S
C6157 C6155 1.327 . S
C6157 C6173 1.429 . S
C6157 H6179 0.950 . S
C6158 H6154 0.949 . S
C6158 C6166 1.574 . S
C6158 C6174 1.368 . S
H6159 C6167 0.950 . S
H6160 C6165 0.950 . S
H6161 C6166 0.949 . S
H6162 C6168 0.950 . S
H6163 C6169 0.950 . S
H6164 C6170 0.949 . S
C6165 H6160 0.950 . S
C6165 C6167 1.327 . S
C6165 C6171 1.429 . S
C6166 C6158 1.574 . S
C6166 H6161 0.949 . S
C6166 C6172 1.368 . S
C6167 C6151 1.349 . S
C6167 H6159 0.950 . S
C6167 C6165 1.327 . S
C6168 C6156 1.349 . S
C6168 H6162 0.950 . S
C6168 C6169 1.327 . S
C6169 H6163 0.950 . S
C6169 C6168 1.327 . S
C6169 C6173 1.429 . S
C6170 C6153 1.574 . S
C6170 H6164 0.949 . S
C6170 C6174 1.368 . S
C6171 C6152 1.429 . S
C6171 C6165 1.429 . S
C6171 C6172 1.523 . S
C6172 C6153 1.368 . S
C6172 C6166 1.368 . S
C6172 C6171 1.523 . S
C6173 C6157 1.429 . S
C6173 C6169 1.429 . S
C6173 C6174 1.523 . S
C6174 C6158 1.368 . S
C6174 C6170 1.368 . S
C6174 C6173 1.523 . S
H6175 C6150 0.950 . S
H6176 C6152 0.950 . S
H6177 C6153 0.949 . S
H6178 C6155 0.950 . S
H6179 C6157 0.950 . S
C6180 C6181 1.349 . S
C6180 C6182 1.327 . S
C6180 H6205 0.950 . S
C6181 C6180 1.349 . S
C6181 C6197 1.349 . S
C6182 C6180 1.327 . S
C6182 C6201 1.429 . S
C6182 H6206 0.950 . S
C6183 C6200 1.574 . S
C6183 C6202 1.368 . S
C6183 H6207 0.949 . S
H6184 C6188 0.949 . S
C6185 C6186 1.349 . S
C6185 C6187 1.327 . S
C6185 H6208 0.950 . S
C6186 C6185 1.349 . S
C6186 C6198 1.349 . S
C6187 C6185 1.327 . S
C6187 C6203 1.429 . S
C6187 H6209 0.950 . S
C6188 H6184 0.949 . S
C6188 C6196 1.574 . S
C6188 C6204 1.368 . S
H6189 C6197 0.950 . S
H6190 C6195 0.950 . S
H6191 C6196 0.949 . S
H6192 C6198 0.950 . S
H6193 C6199 0.950 . S
H6194 C6200 0.949 . S
C6195 H6190 0.950 . S
C6195 C6197 1.327 . S
C6195 C6201 1.429 . S
C6196 C6188 1.574 . S
C6196 H6191 0.949 . S
C6196 C6202 1.368 . S
C6197 C6181 1.349 . S
C6197 H6189 0.950 . S
C6197 C6195 1.327 . S
C6198 C6186 1.349 . S
C6198 H6192 0.950 . S
C6198 C6199 1.327 . S
C6199 H6193 0.950 . S
C6199 C6198 1.327 . S
C6199 C6203 1.429 . S
C6200 C6183 1.574 . S
C6200 H6194 0.949 . S
C6200 C6204 1.368 . S
C6201 C6182 1.429 . S
C6201 C6195 1.429 . S
C6201 C6202 1.523 . S
C6202 C6183 1.368 . S
C6202 C6196 1.368 . S
C6202 C6201 1.523 . S
C6203 C6187 1.429 . S
C6203 C6199 1.429 . S
C6203 C6204 1.523 . S
C6204 C6188 1.368 . S
C6204 C6200 1.368 . S
C6204 C6203 1.523 . S
H6205 C6180 0.950 . S
H6206 C6182 0.950 . S
H6207 C6183 0.949 . S
H6208 C6185 0.950 . S
H6209 C6187 0.950 . S
C6210 C6211 1.349 . S
C6210 C6212 1.327 . S
C6210 H6235 0.950 . S
C6211 C6210 1.349 . S
C6211 C6227 1.349 . S
C6212 C6210 1.327 . S
C6212 C6231 1.429 . S
C6212 H6236 0.950 . S
C6213 C6230 1.574 . S
C6213 C6232 1.368 . S
C6213 H6237 0.949 . S
H6214 C6218 0.949 . S
C6215 C6216 1.349 . S
C6215 C6217 1.327 . S
C6215 H6238 0.950 . S
C6216 C6215 1.349 . S
C6216 C6228 1.349 . S
C6217 C6215 1.327 . S
C6217 C6233 1.429 . S
C6217 H6239 0.950 . S
C6218 H6214 0.949 . S
C6218 C6226 1.574 . S
C6218 C6234 1.368 . S
H6219 C6227 0.950 . S
H6220 C6225 0.950 . S
H6221 C6226 0.949 . S
H6222 C6228 0.950 . S
H6223 C6229 0.950 . S
H6224 C6230 0.949 . S
C6225 H6220 0.950 . S
C6225 C6227 1.327 . S
C6225 C6231 1.429 . S
C6226 C6218 1.574 . S
C6226 H6221 0.949 . S
C6226 C6232 1.368 . S
C6227 C6211 1.349 . S
C6227 H6219 0.950 . S
C6227 C6225 1.327 . S
C6228 C6216 1.349 . S
C6228 H6222 0.950 . S
C6228 C6229 1.327 . S
C6229 H6223 0.950 . S
C6229 C6228 1.327 . S
C6229 C6233 1.429 . S
C6230 C6213 1.574 . S
C6230 H6224 0.949 . S
C6230 C6234 1.368 . S
C6231 C6212 1.429 . S
C6231 C6225 1.429 . S
C6231 C6232 1.523 . S
C6232 C6213 1.368 . S
C6232 C6226 1.368 . S
C6232 C6231 1.523 . S
C6233 C6217 1.429 . S
C6233 C6229 1.429 . S
C6233 C6234 1.523 . S
C6234 C6218 1.368 . S
C6234 C6230 1.368 . S
C6234 C6233 1.523 . S
H6235 C6210 0.950 . S
H6236 C6212 0.950 . S
H6237 C6213 0.949 . S
H6238 C6215 0.950 . S
H6239 C6217 0.950 . S
C6240 C6241 1.349 . S
C6240 C6242 1.327 . S
C6240 H6265 0.950 . S
C6241 C6240 1.349 . S
C6241 C6257 1.349 . S
C6242 C6240 1.327 . S
C6242 C6261 1.429 . S
C6242 H6266 0.950 . S
C6243 C6260 1.574 . S
C6243 C6262 1.368 . S
C6243 H6267 0.949 . S
H6244 C6248 0.949 . S
C6245 C6246 1.349 . S
C6245 C6247 1.327 . S
C6245 H6268 0.950 . S
C6246 C6245 1.349 . S
C6246 C6258 1.349 . S
C6247 C6245 1.327 . S
C6247 C6263 1.429 . S
C6247 H6269 0.950 . S
C6248 H6244 0.949 . S
C6248 C6256 1.574 . S
C6248 C6264 1.368 . S
H6249 C6257 0.950 . S
H6250 C6255 0.950 . S
H6251 C6256 0.949 . S
H6252 C6258 0.950 . S
H6253 C6259 0.950 . S
H6254 C6260 0.949 . S
C6255 H6250 0.950 . S
C6255 C6257 1.327 . S
C6255 C6261 1.429 . S
C6256 C6248 1.574 . S
C6256 H6251 0.949 . S
C6256 C6262 1.368 . S
C6257 C6241 1.349 . S
C6257 H6249 0.950 . S
C6257 C6255 1.327 . S
C6258 C6246 1.349 . S
C6258 H6252 0.950 . S
C6258 C6259 1.327 . S
C6259 H6253 0.950 . S
C6259 C6258 1.327 . S
C6259 C6263 1.429 . S
C6260 C6243 1.574 . S
C6260 H6254 0.949 . S
C6260 C6264 1.368 . S
C6261 C6242 1.429 . S
C6261 C6255 1.429 . S
C6261 C6262 1.523 . S
C6262 C6243 1.368 . S
C6262 C6256 1.368 . S
C6262 C6261 1.523 . S
C6263 C6247 1.429 . S
C6263 C6259 1.429 . S
C6263 C6264 1.523 . S
C6264 C6248 1.368 . S
C6264 C6260 1.368 . S
C6264 C6263 1.523 . S
H6265 C6240 0.950 . S
H6266 C6242 0.950 . S
H6267 C6243 0.949 . S
H6268 C6245 0.950 . S
H6269 C6247 0.950 . S
C6270 C6271 1.349 . S
C6270 C6272 1.327 . S
C6270 H6295 0.950 . S
C6271 C6270 1.349 . S
C6271 C6287 1.349 . S
C6272 C6270 1.327 . S
C6272 C6291 1.429 . S
C6272 H6296 0.950 . S
C6273 C6290 1.574 . S
C6273 C6292 1.368 . S
C6273 H6297 0.949 . S
H6274 C6278 0.949 . S
C6275 C6276 1.349 . S
C6275 C6277 1.327 . S
C6275 H6298 0.950 . S
C6276 C6275 1.349 . S
C6276 C6288 1.349 . S
C6277 C6275 1.327 . S
C6277 C6293 1.429 . S
C6277 H6299 0.950 . S
C6278 H6274 0.949 . S
C6278 C6286 1.574 . S
C6278 C6294 1.368 . S
H6279 C6287 0.950 . S
H6280 C6285 0.950 . S
H6281 C6286 0.949 . S
H6282 C6288 0.950 . S
H6283 C6289 0.950 . S
H6284 C6290 0.949 . S
C6285 H6280 0.950 . S
C6285 C6287 1.327 . S
C6285 C6291 1.429 . S
C6286 C6278 1.574 . S
C6286 H6281 0.949 . S
C6286 C6292 1.368 . S
C6287 C6271 1.349 . S
C6287 H6279 0.950 . S
C6287 C6285 1.327 . S
C6288 C6276 1.349 . S
C6288 H6282 0.950 . S
C6288 C6289 1.327 . S
C6289 H6283 0.950 . S
C6289 C6288 1.327 . S
C6289 C6293 1.429 . S
C6290 C6273 1.574 . S
C6290 H6284 0.949 . S
C6290 C6294 1.368 . S
C6291 C6272 1.429 . S
C6291 C6285 1.429 . S
C6291 C6292 1.523 . S
C6292 C6273 1.368 . S
C6292 C6286 1.368 . S
C6292 C6291 1.523 . S
C6293 C6277 1.429 . S
C6293 C6289 1.429 . S
C6293 C6294 1.523 . S
C6294 C6278 1.368 . S
C6294 C6290 1.368 . S
C6294 C6293 1.523 . S
H6295 C6270 0.950 . S
H6296 C6272 0.950 . S
H6297 C6273 0.949 . S
H6298 C6275 0.950 . S
H6299 C6277 0.950 . S
C6300 C6301 1.349 . S
C6300 C6302 1.327 . S
C6300 H6325 0.950 . S
C6301 C6300 1.349 . S
C6301 C6317 1.349 . S
C6302 C6300 1.327 . S
C6302 C6321 1.429 . S
C6302 H6326 0.950 . S
C6303 C6320 1.574 . S
C6303 C6322 1.368 . S
C6303 H6327 0.949 . S
H6304 C6308 0.949 . S
C6305 C6306 1.349 . S
C6305 C6307 1.327 . S
C6305 H6328 0.950 . S
C6306 C6305 1.349 . S
C6306 C6318 1.349 . S
C6307 C6305 1.327 . S
C6307 C6323 1.429 . S
C6307 H6329 0.950 . S
C6308 H6304 0.949 . S
C6308 C6316 1.574 . S
C6308 C6324 1.368 . S
H6309 C6317 0.950 . S
H6310 C6315 0.950 . S
H6311 C6316 0.949 . S
H6312 C6318 0.950 . S
H6313 C6319 0.950 . S
H6314 C6320 0.949 . S
C6315 H6310 0.950 . S
C6315 C6317 1.327 . S
C6315 C6321 1.429 . S
C6316 C6308 1.574 . S
C6316 H6311 0.949 . S
C6316 C6322 1.368 . S
C6317 C6301 1.349 . S
C6317 H6309 0.950 . S
C6317 C6315 1.327 . S
C6318 C6306 1.349 . S
C6318 H6312 0.950 . S
C6318 C6319 1.327 . S
C6319 H6313 0.950 . S
C6319 C6318 1.327 . S
C6319 C6323 1.429 . S
C6320 C6303 1.574 . S
C6320 H6314 0.949 . S
C6320 C6324 1.368 . S
C6321 C6302 1.429 . S
C6321 C6315 1.429 . S
C6321 C6322 1.523 . S
C6322 C6303 1.368 . S
C6322 C6316 1.368 . S
C6322 C6321 1.523 . S
C6323 C6307 1.429 . S
C6323 C6319 1.429 . S
C6323 C6324 1.523 . S
C6324 C6308 1.368 . S
C6324 C6320 1.368 . S
C6324 C6323 1.523 . S
H6325 C6300 0.950 . S
H6326 C6302 0.950 . S
H6327 C6303 0.949 . S
H6328 C6305 0.950 . S
H6329 C6307 0.950 . S
C6330 C6331 1.349 . S
C6330 C6332 1.327 . S
C6330 H6355 0.950 . S
C6331 C6330 1.349 . S
C6331 C6347 1.349 . S
C6332 C6330 1.327 . S
C6332 C6351 1.429 . S
C6332 H6356 0.950 . S
C6333 C6350 1.574 . S
C6333 C6352 1.368 . S
C6333 H6357 0.949 . S
H6334 C6338 0.949 . S
C6335 C6336 1.349 . S
C6335 C6337 1.327 . S
C6335 H6358 0.950 . S
C6336 C6335 1.349 . S
C6336 C6348 1.349 . S
C6337 C6335 1.327 . S
C6337 C6353 1.429 . S
C6337 H6359 0.950 . S
C6338 H6334 0.949 . S
C6338 C6346 1.574 . S
C6338 C6354 1.368 . S
H6339 C6347 0.950 . S
H6340 C6345 0.950 . S
H6341 C6346 0.949 . S
H6342 C6348 0.950 . S
H6343 C6349 0.950 . S
H6344 C6350 0.949 . S
C6345 H6340 0.950 . S
C6345 C6347 1.327 . S
C6345 C6351 1.429 . S
C6346 C6338 1.574 . S
C6346 H6341 0.949 . S
C6346 C6352 1.368 . S
C6347 C6331 1.349 . S
C6347 H6339 0.950 . S
C6347 C6345 1.327 . S
C6348 C6336 1.349 . S
C6348 H6342 0.950 . S
C6348 C6349 1.327 . S
C6349 H6343 0.950 . S
C6349 C6348 1.327 . S
C6349 C6353 1.429 . S
C6350 C6333 1.574 . S
C6350 H6344 0.949 . S
C6350 C6354 1.368 . S
C6351 C6332 1.429 . S
C6351 C6345 1.429 . S
C6351 C6352 1.523 . S
C6352 C6333 1.368 . S
C6352 C6346 1.368 . S
C6352 C6351 1.523 . S
C6353 C6337 1.429 . S
C6353 C6349 1.429 . S
C6353 C6354 1.523 . S
C6354 C6338 1.368 . S
C6354 C6350 1.368 . S
C6354 C6353 1.523 . S
H6355 C6330 0.950 . S
H6356 C6332 0.950 . S
H6357 C6333 0.949 . S
H6358 C6335 0.950 . S
H6359 C6337 0.950 . S
C6360 C6361 1.349 . S
C6360 C6362 1.327 . S
C6360 H6385 0.950 . S
C6361 C6360 1.349 . S
C6361 C6377 1.349 . S
C6362 C6360 1.327 . S
C6362 C6381 1.429 . S
C6362 H6386 0.950 . S
C6363 C6380 1.574 . S
C6363 C6382 1.368 . S
C6363 H6387 0.949 . S
H6364 C6368 0.949 . S
C6365 C6366 1.349 . S
C6365 C6367 1.327 . S
C6365 H6388 0.950 . S
C6366 C6365 1.349 . S
C6366 C6378 1.349 . S
C6367 C6365 1.327 . S
C6367 C6383 1.429 . S
C6367 H6389 0.950 . S
C6368 H6364 0.949 . S
C6368 C6376 1.574 . S
C6368 C6384 1.368 . S
H6369 C6377 0.950 . S
H6370 C6375 0.950 . S
H6371 C6376 0.949 . S
H6372 C6378 0.950 . S
H6373 C6379 0.950 . S
H6374 C6380 0.949 . S
C6375 H6370 0.950 . S
C6375 C6377 1.327 . S
C6375 C6381 1.429 . S
C6376 C6368 1.574 . S
C6376 H6371 0.949 . S
C6376 C6382 1.368 . S
C6377 C6361 1.349 . S
C6377 H6369 0.950 . S
C6377 C6375 1.327 . S
C6378 C6366 1.349 . S
C6378 H6372 0.950 . S
C6378 C6379 1.327 . S
C6379 H6373 0.950 . S
C6379 C6378 1.327 . S
C6379 C6383 1.429 . S
C6380 C6363 1.574 . S
C6380 H6374 0.949 . S
C6380 C6384 1.368 . S
C6381 C6362 1.429 . S
C6381 C6375 1.429 . S
C6381 C6382 1.523 . S
C6382 C6363 1.368 . S
C6382 C6376 1.368 . S
C6382 C6381 1.523 . S
C6383 C6367 1.429 . S
C6383 C6379 1.429 . S
C6383 C6384 1.523 . S
C6384 C6368 1.368 . S
C6384 C6380 1.368 . S
C6384 C6383 1.523 . S
H6385 C6360 0.950 . S
H6386 C6362 0.950 . S
H6387 C6363 0.949 . S
H6388 C6365 0.950 . S
H6389 C6367 0.950 . S
C6390 C6391 1.349 . S
C6390 C6392 1.327 . S
C6390 H6415 0.950 . S
C6391 C6390 1.349 . S
C6391 C6407 1.349 . S
C6392 C6390 1.327 . S
C6392 C6411 1.429 . S
C6392 H6416 0.950 . S
C6393 C6410 1.574 . S
C6393 C6412 1.368 . S
C6393 H6417 0.949 . S
H6394 C6398 0.949 . S
C6395 C6396 1.349 . S
C6395 C6397 1.327 . S
C6395 H6418 0.950 . S
C6396 C6395 1.349 . S
C6396 C6408 1.349 . S
C6397 C6395 1.327 . S
C6397 C6413 1.429 . S
C6397 H6419 0.950 . S
C6398 H6394 0.949 . S
C6398 C6406 1.574 . S
C6398 C6414 1.368 . S
H6399 C6407 0.950 . S
H6400 C6405 0.950 . S
H6401 C6406 0.949 . S
H6402 C6408 0.950 . S
H6403 C6409 0.950 . S
H6404 C6410 0.949 . S
C6405 H6400 0.950 . S
C6405 C6407 1.327 . S
C6405 C6411 1.429 . S
C6406 C6398 1.574 . S
C6406 H6401 0.949 . S
C6406 C6412 1.368 . S
C6407 C6391 1.349 . S
C6407 H6399 0.950 . S
C6407 C6405 1.327 . S
C6408 C6396 1.349 . S
C6408 H6402 0.950 . S
C6408 C6409 1.327 . S
C6409 H6403 0.950 . S
C6409 C6408 1.327 . S
C6409 C6413 1.429 . S
C6410 C6393 1.574 . S
C6410 H6404 0.949 . S
C6410 C6414 1.368 . S
C6411 C6392 1.429 . S
C6411 C6405 1.429 . S
C6411 C6412 1.523 . S
C6412 C6393 1.368 . S
C6412 C6406 1.368 . S
C6412 C6411 1.523 . S
C6413 C6397 1.429 . S
C6413 C6409 1.429 . S
C6413 C6414 1.523 . S
C6414 C6398 1.368 . S
C6414 C6410 1.368 . S
C6414 C6413 1.523 . S
H6415 C6390 0.950 . S
H6416 C6392 0.950 . S
H6417 C6393 0.949 . S
H6418 C6395 0.950 . S
H6419 C6397 0.950 . S
C6420 C6421 1.349 . S
C6420 C6422 1.327 . S
C6420 H6445 0.950 . S
C6421 C6420 1.349 . S
C6421 C6437 1.349 . S
C6422 C6420 1.327 . S
C6422 C6441 1.429 . S
C6422 H6446 0.950 . S
C6423 C6440 1.574 . S
C6423 C6442 1.368 . S
C6423 H6447 0.949 . S
H6424 C6428 0.949 . S
C6425 C6426 1.349 . S
C6425 C6427 1.327 . S
C6425 H6448 0.950 . S
C6426 C6425 1.349 . S
C6426 C6438 1.349 . S
C6427 C6425 1.327 . S
C6427 C6443 1.429 . S
C6427 H6449 0.950 . S
C6428 H6424 0.949 . S
C6428 C6436 1.574 . S
C6428 C6444 1.368 . S
H6429 C6437 0.950 . S
H6430 C6435 0.950 . S
H6431 C6436 0.949 . S
H6432 C6438 0.950 . S
H6433 C6439 0.950 . S
H6434 C6440 0.949 . S
C6435 H6430 0.950 . S
C6435 C6437 1.327 . S
C6435 C6441 1.429 . S
C6436 C6428 1.574 . S
C6436 H6431 0.949 . S
C6436 C6442 1.368 . S
C6437 C6421 1.349 . S
C6437 H6429 0.950 . S
C6437 C6435 1.327 . S
C6438 C6426 1.349 . S
C6438 H6432 0.950 . S
C6438 C6439 1.327 . S
C6439 H6433 0.950 . S
C6439 C6438 1.327 . S
C6439 C6443 1.429 . S
C6440 C6423 1.574 . S
C6440 H6434 0.949 . S
C6440 C6444 1.368 . S
C6441 C6422 1.429 . S
C6441 C6435 1.429 . S
C6441 C6442 1.523 . S
C6442 C6423 1.368 . S
C6442 C6436 1.368 . S
C6442 C6441 1.523 . S
C6443 C6427 1.429 . S
C6443 C6439 1.429 . S
C6443 C6444 1.523 . S
C6444 C6428 1.368 . S
C6444 C6440 1.368 . S
C6444 C6443 1.523 . S
H6445 C6420 0.950 . S
H6446 C6422 0.950 . S
H6447 C6423 0.949 . S
H6448 C6425 0.950 . S
H6449 C6427 0.950 . S
C6450 C6451 1.349 . S
C6450 C6452 1.327 . S
C6450 H6475 0.950 . S
C6451 C6450 1.349 . S
C6451 C6467 1.349 . S
C6452 C6450 1.327 . S
C6452 C6471 1.429 . S
C6452 H6476 0.950 . S
C6453 C6470 1.574 . S
C6453 C6472 1.368 . S
C6453 H6477 0.949 . S
H6454 C6458 0.949 . S
C6455 C6456 1.349 . S
C6455 C6457 1.327 . S
C6455 H6478 0.950 . S
C6456 C6455 1.349 . S
C6456 C6468 1.349 . S
C6457 C6455 1.327 . S
C6457 C6473 1.429 . S
C6457 H6479 0.950 . S
C6458 H6454 0.949 . S
C6458 C6466 1.574 . S
C6458 C6474 1.368 . S
H6459 C6467 0.950 . S
H6460 C6465 0.950 . S
H6461 C6466 0.949 . S
H6462 C6468 0.950 . S
H6463 C6469 0.950 . S
H6464 C6470 0.949 . S
C6465 H6460 0.950 . S
C6465 C6467 1.327 . S
C6465 C6471 1.429 . S
C6466 C6458 1.574 . S
C6466 H6461 0.949 . S
C6466 C6472 1.368 . S
C6467 C6451 1.349 . S
C6467 H6459 0.950 . S
C6467 C6465 1.327 . S
C6468 C6456 1.349 . S
C6468 H6462 0.950 . S
C6468 C6469 1.327 . S
C6469 H6463 0.950 . S
C6469 C6468 1.327 . S
C6469 C6473 1.429 . S
C6470 C6453 1.574 . S
C6470 H6464 0.949 . S
C6470 C6474 1.368 . S
C6471 C6452 1.429 . S
C6471 C6465 1.429 . S
C6471 C6472 1.523 . S
C6472 C6453 1.368 . S
C6472 C6466 1.368 . S
C6472 C6471 1.523 . S
C6473 C6457 1.429 . S
C6473 C6469 1.429 . S
C6473 C6474 1.523 . S
C6474 C6458 1.368 . S
C6474 C6470 1.368 . S
C6474 C6473 1.523 . S
H6475 C6450 0.950 . S
H6476 C6452 0.950 . S
H6477 C6453 0.949 . S
H6478 C6455 0.950 . S
H6479 C6457 0.950 . S
C6480 C6481 1.349 . S
C6480 C6482 1.327 . S
C6480 H6505 0.950 . S
C6481 C6480 1.349 . S
C6481 C6497 1.349 . S
C6482 C6480 1.327 . S
C6482 C6501 1.429 . S
C6482 H6506 0.950 . S
C6483 C6500 1.574 . S
C6483 C6502 1.368 . S
C6483 H6507 0.949 . S
H6484 C6488 0.949 . S
C6485 C6486 1.349 . S
C6485 C6487 1.327 . S
C6485 H6508 0.950 . S
C6486 C6485 1.349 . S
C6486 C6498 1.349 . S
C6487 C6485 1.327 . S
C6487 C6503 1.429 . S
C6487 H6509 0.950 . S
C6488 H6484 0.949 . S
C6488 C6496 1.574 . S
C6488 C6504 1.368 . S
H6489 C6497 0.950 . S
H6490 C6495 0.950 . S
H6491 C6496 0.949 . S
H6492 C6498 0.950 . S
H6493 C6499 0.950 . S
H6494 C6500 0.949 . S
C6495 H6490 0.950 . S
C6495 C6497 1.327 . S
C6495 C6501 1.429 . S
C6496 C6488 1.574 . S
C6496 H6491 0.949 . S
C6496 C6502 1.368 . S
C6497 C6481 1.349 . S
C6497 H6489 0.950 . S
C6497 C6495 1.327 . S
C6498 C6486 1.349 . S
C6498 H6492 0.950 . S
C6498 C6499 1.327 . S
C6499 H6493 0.950 . S
C6499 C6498 1.327 . S
C6499 C6503 1.429 . S
C6500 C6483 1.574 . S
C6500 H6494 0.949 . S
C6500 C6504 1.368 . S
C6501 C6482 1.429 . S
C6501 C6495 1.429 . S
C6501 C6502 1.523 . S
C6502 C6483 1.368 . S
C6502 C6496 1.368 . S
C6502 C6501 1.523 . S
C6503 C6487 1.429 . S
C6503 C6499 1.429 . S
C6503 C6504 1.523 . S
C6504 C6488 1.368 . S
C6504 C6500 1.368 . S
C6504 C6503 1.523 . S
H6505 C6480 0.950 . S
H6506 C6482 0.950 . S
H6507 C6483 0.949 . S
H6508 C6485 0.950 . S
H6509 C6487 0.950 . S
C6510 C6511 1.349 . S
C6510 C6512 1.327 . S
C6510 H6535 0.950 . S
C6511 C6510 1.349 . S
C6511 C6527 1.349 . S
C6512 C6510 1.327 . S
C6512 C6531 1.429 . S
C6512 H6536 0.950 . S
C6513 C6530 1.574 . S
C6513 C6532 1.368 . S
C6513 H6537 0.949 . S
H6514 C6518 0.949 . S
C6515 C6516 1.349 . S
C6515 C6517 1.327 . S
C6515 H6538 0.950 . S
C6516 C6515 1.349 . S
C6516 C6528 1.349 . S
C6517 C6515 1.327 . S
C6517 C6533 1.429 . S
C6517 H6539 0.950 . S
C6518 H6514 0.949 . S
C6518 C6526 1.574 . S
C6518 C6534 1.368 . S
H6519 C6527 0.950 . S
H6520 C6525 0.950 . S
H6521 C6526 0.949 . S
H6522 C6528 0.950 . S
H6523 C6529 0.950 . S
H6524 C6530 0.949 . S
C6525 H6520 0.950 . S
C6525 C6527 1.327 . S
C6525 C6531 1.429 . S
C6526 C6518 1.574 . S
C6526 H6521 0.949 . S
C6526 C6532 1.368 . S
C6527 C6511 1.349 . S
C6527 H6519 0.950 . S
C6527 C6525 1.327 . S
C6528 C6516 1.349 . S
C6528 H6522 0.950 . S
C6528 C6529 1.327 . S
C6529 H6523 0.950 . S
C6529 C6528 1.327 . S
C6529 C6533 1.429 . S
C6530 C6513 1.574 . S
C6530 H6524 0.949 . S
C6530 C6534 1.368 . S
C6531 C6512 1.429 . S
C6531 C6525 1.429 . S
C6531 C6532 1.523 . S
C6532 C6513 1.368 . S
C6532 C6526 1.368 . S
C6532 C6531 1.523 . S
C6533 C6517 1.429 . S
C6533 C6529 1.429 . S
C6533 C6534 1.523 . S
C6534 C6518 1.368 . S
C6534 C6530 1.368 . S
C6534 C6533 1.523 . S
H6535 C6510 0.950 . S
H6536 C6512 0.950 . S
H6537 C6513 0.949 . S
H6538 C6515 0.950 . S
H6539 C6517 0.950 . S
C6540 C6541 1.349 . S
C6540 C6542 1.327 . S
C6540 H6565 0.950 . S
C6541 C6540 1.349 . S
C6541 C6557 1.349 . S
C6542 C6540 1.327 . S
C6542 C6561 1.429 . S
C6542 H6566 0.950 . S
C6543 C6560 1.574 . S
C6543 C6562 1.368 . S
C6543 H6567 0.949 . S
H6544 C6548 0.949 . S
C6545 C6546 1.349 . S
C6545 C6547 1.327 . S
C6545 H6568 0.950 . S
C6546 C6545 1.349 . S
C6546 C6558 1.349 . S
C6547 C6545 1.327 . S
C6547 C6563 1.429 . S
C6547 H6569 0.950 . S
C6548 H6544 0.949 . S
C6548 C6556 1.574 . S
C6548 C6564 1.368 . S
H6549 C6557 0.950 . S
H6550 C6555 0.950 . S
H6551 C6556 0.949 . S
H6552 C6558 0.950 . S
H6553 C6559 0.950 . S
H6554 C6560 0.949 . S
C6555 H6550 0.950 . S
C6555 C6557 1.327 . S
C6555 C6561 1.429 . S
C6556 C6548 1.574 . S
C6556 H6551 0.949 . S
C6556 C6562 1.368 . S
C6557 C6541 1.349 . S
C6557 H6549 0.950 . S
C6557 C6555 1.327 . S
C6558 C6546 1.349 . S
C6558 H6552 0.950 . S
C6558 C6559 1.327 . S
C6559 H6553 0.950 . S
C6559 C6558 1.327 . S
C6559 C6563 1.429 . S
C6560 C6543 1.574 . S
C6560 H6554 0.949 . S
C6560 C6564 1.368 . S
C6561 C6542 1.429 . S
C6561 C6555 1.429 . S
C6561 C6562 1.523 . S
C6562 C6543 1.368 . S
C6562 C6556 1.368 . S
C6562 C6561 1.523 . S
C6563 C6547 1.429 . S
C6563 C6559 1.429 . S
C6563 C6564 1.523 . S
C6564 C6548 1.368 . S
C6564 C6560 1.368 . S
C6564 C6563 1.523 . S
H6565 C6540 0.950 . S
H6566 C6542 0.950 . S
H6567 C6543 0.949 . S
H6568 C6545 0.950 . S
H6569 C6547 0.950 . S
C6570 C6571 1.349 . S
C6570 C6572 1.327 . S
C6570 H6595 0.950 . S
C6571 C6570 1.349 . S
C6571 C6587 1.349 . S
C6572 C6570 1.327 . S
C6572 C6591 1.429 . S
C6572 H6596 0.950 . S
C6573 C6590 1.574 . S
C6573 C6592 1.368 . S
C6573 H6597 0.949 . S
H6574 C6578 0.949 . S
C6575 C6576 1.349 . S
C6575 C6577 1.327 . S
C6575 H6598 0.950 . S
C6576 C6575 1.349 . S
C6576 C6588 1.349 . S
C6577 C6575 1.327 . S
C6577 C6593 1.429 . S
C6577 H6599 0.950 . S
C6578 H6574 0.949 . S
C6578 C6586 1.574 . S
C6578 C6594 1.368 . S
H6579 C6587 0.950 . S
H6580 C6585 0.950 . S
H6581 C6586 0.949 . S
H6582 C6588 0.950 . S
H6583 C6589 0.950 . S
H6584 C6590 0.949 . S
C6585 H6580 0.950 . S
C6585 C6587 1.327 . S
C6585 C6591 1.429 . S
C6586 C6578 1.574 . S
C6586 H6581 0.949 . S
C6586 C6592 1.368 . S
C6587 C6571 1.349 . S
C6587 H6579 0.950 . S
C6587 C6585 1.327 . S
C6588 C6576 1.349 . S
C6588 H6582 0.950 . S
C6588 C6589 1.327 . S
C6589 H6583 0.950 . S
C6589 C6588 1.327 . S
C6589 C6593 1.429 . S
C6590 C6573 1.574 . S
C6590 H6584 0.949 . S
C6590 C6594 1.368 . S
C6591 C6572 1.429 . S
C6591 C6585 1.429 . S
C6591 C6592 1.523 . S
C6592 C6573 1.368 . S
C6592 C6586 1.368 . S
C6592 C6591 1.523 . S
C6593 C6577 1.429 . S
C6593 C6589 1.429 . S
C6593 C6594 1.523 . S
C6594 C6578 1.368 . S
C6594 C6590 1.368 . S
C6594 C6593 1.523 . S
H6595 C6570 0.950 . S
H6596 C6572 0.950 . S
H6597 C6573 0.949 . S
H6598 C6575 0.950 . S
H6599 C6577 0.950 . S
C6600 C6601 1.349 . S
C6600 C6602 1.327 . S
C6600 H6625 0.950 . S
C6601 C6600 1.349 . S
C6601 C6617 1.349 . S
C6602 C6600 1.327 . S
C6602 C6621 1.429 . S
C6602 H6626 0.950 . S
C6603 C6620 1.574 . S
C6603 C6622 1.368 . S
C6603 H6627 0.949 . S
H6604 C6608 0.949 . S
C6605 C6606 1.349 . S
C6605 C6607 1.327 . S
C6605 H6628 0.950 . S
C6606 C6605 1.349 . S
C6606 C6618 1.349 . S
C6607 C6605 1.327 . S
C6607 C6623 1.429 . S
C6607 H6629 0.950 . S
C6608 H6604 0.949 . S
C6608 C6616 1.574 . S
C6608 C6624 1.368 . S
H6609 C6617 0.950 . S
H6610 C6615 0.950 . S
H6611 C6616 0.949 . S
H6612 C6618 0.950 . S
H6613 C6619 0.950 . S
H6614 C6620 0.949 . S
C6615 H6610 0.950 . S
C6615 C6617 1.327 . S
C6615 C6621 1.429 . S
C6616 C6608 1.574 . S
C6616 H6611 0.949 . S
C6616 C6622 1.368 . S
C6617 C6601 1.349 . S
C6617 H6609 0.950 . S
C6617 C6615 1.327 . S
C6618 C6606 1.349 . S
C6618 H6612 0.950 . S
C6618 C6619 1.327 . S
C6619 H6613 0.950 . S
C6619 C6618 1.327 . S
C6619 C6623 1.429 . S
C6620 C6603 1.574 . S
C6620 H6614 0.949 . S
C6620 C6624 1.368 . S
C6621 C6602 1.429 . S
C6621 C6615 1.429 . S
C6621 C6622 1.523 . S
C6622 C6603 1.368 . S
C6622 C6616 1.368 . S
C6622 C6621 1.523 . S
C6623 C6607 1.429 . S
C6623 C6619 1.429 . S
C6623 C6624 1.523 . S
C6624 C6608 1.368 . S
C6624 C6620 1.368 . S
C6624 C6623 1.523 . S
H6625 C6600 0.950 . S
H6626 C6602 0.950 . S
H6627 C6603 0.949 . S
H6628 C6605 0.950 . S
H6629 C6607 0.950 . S
C6630 C6631 1.349 . S
C6630 C6632 1.327 . S
C6630 H6655 0.950 . S
C6631 C6630 1.349 . S
C6631 C6647 1.349 . S
C6632 C6630 1.327 . S
C6632 C6651 1.429 . S
C6632 H6656 0.950 . S
C6633 C6650 1.574 . S
C6633 C6652 1.368 . S
C6633 H6657 0.949 . S
H6634 C6638 0.949 . S
C6635 C6636 1.349 . S
C6635 C6637 1.327 . S
C6635 H6658 0.950 . S
C6636 C6635 1.349 . S
C6636 C6648 1.349 . S
C6637 C6635 1.327 . S
C6637 C6653 1.429 . S
C6637 H6659 0.950 . S
C6638 H6634 0.949 . S
C6638 C6646 1.574 . S
C6638 C6654 1.368 . S
H6639 C6647 0.950 . S
H6640 C6645 0.950 . S
H6641 C6646 0.949 . S
H6642 C6648 0.950 . S
H6643 C6649 0.950 . S
H6644 C6650 0.949 . S
C6645 H6640 0.950 . S
C6645 C6647 1.327 . S
C6645 C6651 1.429 . S
C6646 C6638 1.574 . S
C6646 H6641 0.949 . S
C6646 C6652 1.368 . S
C6647 C6631 1.349 . S
C6647 H6639 0.950 . S
C6647 C6645 1.327 . S
C6648 C6636 1.349 . S
C6648 H6642 0.950 . S
C6648 C6649 1.327 . S
C6649 H6643 0.950 . S
C6649 C6648 1.327 . S
C6649 C6653 1.429 . S
C6650 C6633 1.574 . S
C6650 H6644 0.949 . S
C6650 C6654 1.368 . S
C6651 C6632 1.429 . S
C6651 C6645 1.429 . S
C6651 C6652 1.523 . S
C6652 C6633 1.368 . S
C6652 C6646 1.368 . S
C6652 C6651 1.523 . S
C6653 C6637 1.429 . S
C6653 C6649 1.429 . S
C6653 C6654 1.523 . S
C6654 C6638 1.368 . S
C6654 C6650 1.368 . S
C6654 C6653 1.523 . S
H6655 C6630 0.950 . S
H6656 C6632 0.950 . S
H6657 C6633 0.949 . S
H6658 C6635 0.950 . S
H6659 C6637 0.950 . S
C6660 C6661 1.349 . S
C6660 C6662 1.327 . S
C6660 H6685 0.950 . S
C6661 C6660 1.349 . S
C6661 C6677 1.349 . S
C6662 C6660 1.327 . S
C6662 C6681 1.429 . S
C6662 H6686 0.950 . S
C6663 C6680 1.574 . S
C6663 C6682 1.368 . S
C6663 H6687 0.949 . S
H6664 C6668 0.949 . S
C6665 C6666 1.349 . S
C6665 C6667 1.327 . S
C6665 H6688 0.950 . S
C6666 C6665 1.349 . S
C6666 C6678 1.349 . S
C6667 C6665 1.327 . S
C6667 C6683 1.429 . S
C6667 H6689 0.950 . S
C6668 H6664 0.949 . S
C6668 C6676 1.574 . S
C6668 C6684 1.368 . S
H6669 C6677 0.950 . S
H6670 C6675 0.950 . S
H6671 C6676 0.949 . S
H6672 C6678 0.950 . S
H6673 C6679 0.950 . S
H6674 C6680 0.949 . S
C6675 H6670 0.950 . S
C6675 C6677 1.327 . S
C6675 C6681 1.429 . S
C6676 C6668 1.574 . S
C6676 H6671 0.949 . S
C6676 C6682 1.368 . S
C6677 C6661 1.349 . S
C6677 H6669 0.950 . S
C6677 C6675 1.327 . S
C6678 C6666 1.349 . S
C6678 H6672 0.950 . S
C6678 C6679 1.327 . S
C6679 H6673 0.950 . S
C6679 C6678 1.327 . S
C6679 C6683 1.429 . S
C6680 C6663 1.574 . S
C6680 H6674 0.949 . S
C6680 C6684 1.368 . S
C6681 C6662 1.429 . S
C6681 C6675 1.429 . S
C6681 C6682 1.523 . S
C6682 C6663 1.368 . S
C6682 C6676 1.368 . S
C6682 C6681 1.523 . S
C6683 C6667 1.429 . S
C6683 C6679 1.429 . S
C6683 C6684 1.523 . S
C6684 C6668 1.368 . S
C6684 C6680 1.368 . S
C6684 C6683 1.523 . S
H6685 C6660 0.950 . S
H6686 C6662 0.950 . S
H6687 C6663 0.949 . S
H6688 C6665 0.950 . S
H6689 C6667 0.950 . S
C6690 C6691 1.349 . S
C6690 C6692 1.327 . S
C6690 H6715 0.950 . S
C6691 C6690 1.349 . S
C6691 C6707 1.349 . S
C6692 C6690 1.327 . S
C6692 C6711 1.429 . S
C6692 H6716 0.950 . S
C6693 C6710 1.574 . S
C6693 C6712 1.368 . S
C6693 H6717 0.949 . S
H6694 C6698 0.949 . S
C6695 C6696 1.349 . S
C6695 C6697 1.327 . S
C6695 H6718 0.950 . S
C6696 C6695 1.349 . S
C6696 C6708 1.349 . S
C6697 C6695 1.327 . S
C6697 C6713 1.429 . S
C6697 H6719 0.950 . S
C6698 H6694 0.949 . S
C6698 C6706 1.574 . S
C6698 C6714 1.368 . S
H6699 C6707 0.950 . S
H6700 C6705 0.950 . S
H6701 C6706 0.949 . S
H6702 C6708 0.950 . S
H6703 C6709 0.950 . S
H6704 C6710 0.949 . S
C6705 H6700 0.950 . S
C6705 C6707 1.327 . S
C6705 C6711 1.429 . S
C6706 C6698 1.574 . S
C6706 H6701 0.949 . S
C6706 C6712 1.368 . S
C6707 C6691 1.349 . S
C6707 H6699 0.950 . S
C6707 C6705 1.327 . S
C6708 C6696 1.349 . S
C6708 H6702 0.950 . S
C6708 C6709 1.327 . S
C6709 H6703 0.950 . S
C6709 C6708 1.327 . S
C6709 C6713 1.429 . S
C6710 C6693 1.574 . S
C6710 H6704 0.949 . S
C6710 C6714 1.368 . S
C6711 C6692 1.429 . S
C6711 C6705 1.429 . S
C6711 C6712 1.523 . S
C6712 C6693 1.368 . S
C6712 C6706 1.368 . S
C6712 C6711 1.523 . S
C6713 C6697 1.429 . S
C6713 C6709 1.429 . S
C6713 C6714 1.523 . S
C6714 C6698 1.368 . S
C6714 C6710 1.368 . S
C6714 C6713 1.523 . S
H6715 C6690 0.950 . S
H6716 C6692 0.950 . S
H6717 C6693 0.949 . S
H6718 C6695 0.950 . S
H6719 C6697 0.950 . S
C6720 C6721 1.349 . S
C6720 C6722 1.327 . S
C6720 H6745 0.950 . S
C6721 C6720 1.349 . S
C6721 C6737 1.349 . S
C6722 C6720 1.327 . S
C6722 C6741 1.429 . S
C6722 H6746 0.950 . S
C6723 C6740 1.574 . S
C6723 C6742 1.368 . S
C6723 H6747 0.949 . S
H6724 C6728 0.949 . S
C6725 C6726 1.349 . S
C6725 C6727 1.327 . S
C6725 H6748 0.950 . S
C6726 C6725 1.349 . S
C6726 C6738 1.349 . S
C6727 C6725 1.327 . S
C6727 C6743 1.429 . S
C6727 H6749 0.950 . S
C6728 H6724 0.949 . S
C6728 C6736 1.574 . S
C6728 C6744 1.368 . S
H6729 C6737 0.950 . S
H6730 C6735 0.950 . S
H6731 C6736 0.949 . S
H6732 C6738 0.950 . S
H6733 C6739 0.950 . S
H6734 C6740 0.949 . S
C6735 H6730 0.950 . S
C6735 C6737 1.327 . S
C6735 C6741 1.429 . S
C6736 C6728 1.574 . S
C6736 H6731 0.949 . S
C6736 C6742 1.368 . S
C6737 C6721 1.349 . S
C6737 H6729 0.950 . S
C6737 C6735 1.327 . S
C6738 C6726 1.349 . S
C6738 H6732 0.950 . S
C6738 C6739 1.327 . S
C6739 H6733 0.950 . S
C6739 C6738 1.327 . S
C6739 C6743 1.429 . S
C6740 C6723 1.574 . S
C6740 H6734 0.949 . S
C6740 C6744 1.368 . S
C6741 C6722 1.429 . S
C6741 C6735 1.429 . S
C6741 C6742 1.523 . S
C6742 C6723 1.368 . S
C6742 C6736 1.368 . S
C6742 C6741 1.523 . S
C6743 C6727 1.429 . S
C6743 C6739 1.429 . S
C6743 C6744 1.523 . S
C6744 C6728 1.368 . S
C6744 C6740 1.368 . S
C6744 C6743 1.523 . S
H6745 C6720 0.950 . S
H6746 C6722 0.950 . S
H6747 C6723 0.949 . S
H6748 C6725 0.950 . S
H6749 C6727 0.950 . S
C6750 C6751 1.349 . S
C6750 C6752 1.327 . S
C6750 H6775 0.950 . S
C6751 C6750 1.349 . S
C6751 C6767 1.349 . S
C6752 C6750 1.327 . S
C6752 C6771 1.429 . S
C6752 H6776 0.950 . S
C6753 C6770 1.574 . S
C6753 C6772 1.368 . S
C6753 H6777 0.949 . S
H6754 C6758 0.949 . S
C6755 C6756 1.349 . S
C6755 C6757 1.327 . S
C6755 H6778 0.950 . S
C6756 C6755 1.349 . S
C6756 C6768 1.349 . S
C6757 C6755 1.327 . S
C6757 C6773 1.429 . S
C6757 H6779 0.950 . S
C6758 H6754 0.949 . S
C6758 C6766 1.574 . S
C6758 C6774 1.368 . S
H6759 C6767 0.950 . S
H6760 C6765 0.950 . S
H6761 C6766 0.949 . S
H6762 C6768 0.950 . S
H6763 C6769 0.950 . S
H6764 C6770 0.949 . S
C6765 H6760 0.950 . S
C6765 C6767 1.327 . S
C6765 C6771 1.429 . S
C6766 C6758 1.574 . S
C6766 H6761 0.949 . S
C6766 C6772 1.368 . S
C6767 C6751 1.349 . S
C6767 H6759 0.950 . S
C6767 C6765 1.327 . S
C6768 C6756 1.349 . S
C6768 H6762 0.950 . S
C6768 C6769 1.327 . S
C6769 H6763 0.950 . S
C6769 C6768 1.327 . S
C6769 C6773 1.429 . S
C6770 C6753 1.574 . S
C6770 H6764 0.949 . S
C6770 C6774 1.368 . S
C6771 C6752 1.429 . S
C6771 C6765 1.429 . S
C6771 C6772 1.523 . S
C6772 C6753 1.368 . S
C6772 C6766 1.368 . S
C6772 C6771 1.523 . S
C6773 C6757 1.429 . S
C6773 C6769 1.429 . S
C6773 C6774 1.523 . S
C6774 C6758 1.368 . S
C6774 C6770 1.368 . S
C6774 C6773 1.523 . S
H6775 C6750 0.950 . S
H6776 C6752 0.950 . S
H6777 C6753 0.949 . S
H6778 C6755 0.950 . S
H6779 C6757 0.950 . S
C6780 C6781 1.349 . S
C6780 C6782 1.327 . S
C6780 H6805 0.950 . S
C6781 C6780 1.349 . S
C6781 C6797 1.349 . S
C6782 C6780 1.327 . S
C6782 C6801 1.429 . S
C6782 H6806 0.950 . S
C6783 C6800 1.574 . S
C6783 C6802 1.368 . S
C6783 H6807 0.949 . S
H6784 C6788 0.949 . S
C6785 C6786 1.349 . S
C6785 C6787 1.327 . S
C6785 H6808 0.950 . S
C6786 C6785 1.349 . S
C6786 C6798 1.349 . S
C6787 C6785 1.327 . S
C6787 C6803 1.429 . S
C6787 H6809 0.950 . S
C6788 H6784 0.949 . S
C6788 C6796 1.574 . S
C6788 C6804 1.368 . S
H6789 C6797 0.950 . S
H6790 C6795 0.950 . S
H6791 C6796 0.949 . S
H6792 C6798 0.950 . S
H6793 C6799 0.950 . S
H6794 C6800 0.949 . S
C6795 H6790 0.950 . S
C6795 C6797 1.327 . S
C6795 C6801 1.429 . S
C6796 C6788 1.574 . S
C6796 H6791 0.949 . S
C6796 C6802 1.368 . S
C6797 C6781 1.349 . S
C6797 H6789 0.950 . S
C6797 C6795 1.327 . S
C6798 C6786 1.349 . S
C6798 H6792 0.950 . S
C6798 C6799 1.327 . S
C6799 H6793 0.950 . S
C6799 C6798 1.327 . S
C6799 C6803 1.429 . S
C6800 C6783 1.574 . S
C6800 H6794 0.949 . S
C6800 C6804 1.368 . S
C6801 C6782 1.429 . S
C6801 C6795 1.429 . S
C6801 C6802 1.523 . S
C6802 C6783 1.368 . S
C6802 C6796 1.368 . S
C6802 C6801 1.523 . S
C6803 C6787 1.429 . S
C6803 C6799 1.429 . S
C6803 C6804 1.523 . S
C6804 C6788 1.368 . S
C6804 C6800 1.368 . S
C6804 C6803 1.523 . S
H6805 C6780 0.950 . S
H6806 C6782 0.950 . S
H6807 C6783 0.949 . S
H6808 C6785 0.950 . S
H6809 C6787 0.950 . S
C6810 C6811 1.349 . S
C6810 C6812 1.327 . S
C6810 H6835 0.950 . S
C6811 C6810 1.349 . S
C6811 C6827 1.349 . S
C6812 C6810 1.327 . S
C6812 C6831 1.429 . S
C6812 H6836 0.950 . S
C6813 C6830 1.574 . S
C6813 C6832 1.368 . S
C6813 H6837 0.949 . S
H6814 C6818 0.949 . S
C6815 C6816 1.349 . S
C6815 C6817 1.327 . S
C6815 H6838 0.950 . S
C6816 C6815 1.349 . S
C6816 C6828 1.349 . S
C6817 C6815 1.327 . S
C6817 C6833 1.429 . S
C6817 H6839 0.950 . S
C6818 H6814 0.949 . S
C6818 C6826 1.574 . S
C6818 C6834 1.368 . S
H6819 C6827 0.950 . S
H6820 C6825 0.950 . S
H6821 C6826 0.949 . S
H6822 C6828 0.950 . S
H6823 C6829 0.950 . S
H6824 C6830 0.949 . S
C6825 H6820 0.950 . S
C6825 C6827 1.327 . S
C6825 C6831 1.429 . S
C6826 C6818 1.574 . S
C6826 H6821 0.949 . S
C6826 C6832 1.368 . S
C6827 C6811 1.349 . S
C6827 H6819 0.950 . S
C6827 C6825 1.327 . S
C6828 C6816 1.349 . S
C6828 H6822 0.950 . S
C6828 C6829 1.327 . S
C6829 H6823 0.950 . S
C6829 C6828 1.327 . S
C6829 C6833 1.429 . S
C6830 C6813 1.574 . S
C6830 H6824 0.949 . S
C6830 C6834 1.368 . S
C6831 C6812 1.429 . S
C6831 C6825 1.429 . S
C6831 C6832 1.523 . S
C6832 C6813 1.368 . S
C6832 C6826 1.368 . S
C6832 C6831 1.523 . S
C6833 C6817 1.429 . S
C6833 C6829 1.429 . S
C6833 C6834 1.523 . S
C6834 C6818 1.368 . S
C6834 C6830 1.368 . S
C6834 C6833 1.523 . S
H6835 C6810 0.950 . S
H6836 C6812 0.950 . S
H6837 C6813 0.949 . S
H6838 C6815 0.950 . S
H6839 C6817 0.950 . S
C6840 C6841 1.349 . S
C6840 C6842 1.327 . S
C6840 H6865 0.950 . S
C6841 C6840 1.349 . S
C6841 C6857 1.349 . S
C6842 C6840 1.327 . S
C6842 C6861 1.429 . S
C6842 H6866 0.950 . S
C6843 C6860 1.574 . S
C6843 C6862 1.368 . S
C6843 H6867 0.949 . S
H6844 C6848 0.949 . S
C6845 C6846 1.349 . S
C6845 C6847 1.327 . S
C6845 H6868 0.950 . S
C6846 C6845 1.349 . S
C6846 C6858 1.349 . S
C6847 C6845 1.327 . S
C6847 C6863 1.429 . S
C6847 H6869 0.950 . S
C6848 H6844 0.949 . S
C6848 C6856 1.574 . S
C6848 C6864 1.368 . S
H6849 C6857 0.950 . S
H6850 C6855 0.950 . S
H6851 C6856 0.949 . S
H6852 C6858 0.950 . S
H6853 C6859 0.950 . S
H6854 C6860 0.949 . S
C6855 H6850 0.950 . S
C6855 C6857 1.327 . S
C6855 C6861 1.429 . S
C6856 C6848 1.574 . S
C6856 H6851 0.949 . S
C6856 C6862 1.368 . S
C6857 C6841 1.349 . S
C6857 H6849 0.950 . S
C6857 C6855 1.327 . S
C6858 C6846 1.349 . S
C6858 H6852 0.950 . S
C6858 C6859 1.327 . S
C6859 H6853 0.950 . S
C6859 C6858 1.327 . S
C6859 C6863 1.429 . S
C6860 C6843 1.574 . S
C6860 H6854 0.949 . S
C6860 C6864 1.368 . S
C6861 C6842 1.429 . S
C6861 C6855 1.429 . S
C6861 C6862 1.523 . S
C6862 C6843 1.368 . S
C6862 C6856 1.368 . S
C6862 C6861 1.523 . S
C6863 C6847 1.429 . S
C6863 C6859 1.429 . S
C6863 C6864 1.523 . S
C6864 C6848 1.368 . S
C6864 C6860 1.368 . S
C6864 C6863 1.523 . S
H6865 C6840 0.950 . S
H6866 C6842 0.950 . S
H6867 C6843 0.949 . S
H6868 C6845 0.950 . S
H6869 C6847 0.950 . S
C6870 C6871 1.349 . S
C6870 C6872 1.327 . S
C6870 H6895 0.950 . S
C6871 C6870 1.349 . S
C6871 C6887 1.349 . S
C6872 C6870 1.327 . S
C6872 C6891 1.429 . S
C6872 H6896 0.950 . S
C6873 C6890 1.574 . S
C6873 C6892 1.368 . S
C6873 H6897 0.949 . S
H6874 C6878 0.949 . S
C6875 C6876 1.349 . S
C6875 C6877 1.327 . S
C6875 H6898 0.950 . S
C6876 C6875 1.349 . S
C6876 C6888 1.349 . S
C6877 C6875 1.327 . S
C6877 C6893 1.429 . S
C6877 H6899 0.950 . S
C6878 H6874 0.949 . S
C6878 C6886 1.574 . S
C6878 C6894 1.368 . S
H6879 C6887 0.950 . S
H6880 C6885 0.950 . S
H6881 C6886 0.949 . S
H6882 C6888 0.950 . S
H6883 C6889 0.950 . S
H6884 C6890 0.949 . S
C6885 H6880 0.950 . S
C6885 C6887 1.327 . S
C6885 C6891 1.429 . S
C6886 C6878 1.574 . S
C6886 H6881 0.949 . S
C6886 C6892 1.368 . S
C6887 C6871 1.349 . S
C6887 H6879 0.950 . S
C6887 C6885 1.327 . S
C6888 C6876 1.349 . S
C6888 H6882 0.950 . S
C6888 C6889 1.327 . S
C6889 H6883 0.950 . S
C6889 C6888 1.327 . S
C6889 C6893 1.429 . S
C6890 C6873 1.574 . S
C6890 H6884 0.949 . S
C6890 C6894 1.368 . S
C6891 C6872 1.429 . S
C6891 C6885 1.429 . S
C6891 C6892 1.523 . S
C6892 C6873 1.368 . S
C6892 C6886 1.368 . S
C6892 C6891 1.523 . S
C6893 C6877 1.429 . S
C6893 C6889 1.429 . S
C6893 C6894 1.523 . S
C6894 C6878 1.368 . S
C6894 C6890 1.368 . S
C6894 C6893 1.523 . S
H6895 C6870 0.950 . S
H6896 C6872 0.950 . S
H6897 C6873 0.949 . S
H6898 C6875 0.950 . S
H6899 C6877 0.950 . S
C6900 C6901 1.349 . S
C6900 C6902 1.327 . S
C6900 H6925 0.950 . S
C6901 C6900 1.349 . S
C6901 C6917 1.349 . S
C6902 C6900 1.327 . S
C6902 C6921 1.429 . S
C6902 H6926 0.950 . S
C6903 C6920 1.574 . S
C6903 C6922 1.368 . S
C6903 H6927 0.949 . S
H6904 C6908 0.949 . S
C6905 C6906 1.349 . S
C6905 C6907 1.327 . S
C6905 H6928 0.950 . S
C6906 C6905 1.349 . S
C6906 C6918 1.349 . S
C6907 C6905 1.327 . S
C6907 C6923 1.429 . S
C6907 H6929 0.950 . S
C6908 H6904 0.949 . S
C6908 C6916 1.574 . S
C6908 C6924 1.368 . S
H6909 C6917 0.950 . S
H6910 C6915 0.950 . S
H6911 C6916 0.949 . S
H6912 C6918 0.950 . S
H6913 C6919 0.950 . S
H6914 C6920 0.949 . S
C6915 H6910 0.950 . S
C6915 C6917 1.327 . S
C6915 C6921 1.429 . S
C6916 C6908 1.574 . S
C6916 H6911 0.949 . S
C6916 C6922 1.368 . S
C6917 C6901 1.349 . S
C6917 H6909 0.950 . S
C6917 C6915 1.327 . S
C6918 C6906 1.349 . S
C6918 H6912 0.950 . S
C6918 C6919 1.327 . S
C6919 H6913 0.950 . S
C6919 C6918 1.327 . S
C6919 C6923 1.429 . S
C6920 C6903 1.574 . S
C6920 H6914 0.949 . S
C6920 C6924 1.368 . S
C6921 C6902 1.429 . S
C6921 C6915 1.429 . S
C6921 C6922 1.523 . S
C6922 C6903 1.368 . S
C6922 C6916 1.368 . S
C6922 C6921 1.523 . S
C6923 C6907 1.429 . S
C6923 C6919 1.429 . S
C6923 C6924 1.523 . S
C6924 C6908 1.368 . S
C6924 C6920 1.368 . S
C6924 C6923 1.523 . S
H6925 C6900 0.950 . S
H6926 C6902 0.950 . S
H6927 C6903 0.949 . S
H6928 C6905 0.950 . S
H6929 C6907 0.950 . S
C6930 C6931 1.349 . S
C6930 C6932 1.327 . S
C6930 H6955 0.950 . S
C6931 C6930 1.349 . S
C6931 C6947 1.349 . S
C6932 C6930 1.327 . S
C6932 C6951 1.429 . S
C6932 H6956 0.950 . S
C6933 C6950 1.574 . S
C6933 C6952 1.368 . S
C6933 H6957 0.949 . S
H6934 C6938 0.949 . S
C6935 C6936 1.349 . S
C6935 C6937 1.327 . S
C6935 H6958 0.950 . S
C6936 C6935 1.349 . S
C6936 C6948 1.349 . S
C6937 C6935 1.327 . S
C6937 C6953 1.429 . S
C6937 H6959 0.950 . S
C6938 H6934 0.949 . S
C6938 C6946 1.574 . S
C6938 C6954 1.368 . S
H6939 C6947 0.950 . S
H6940 C6945 0.950 . S
H6941 C6946 0.949 . S
H6942 C6948 0.950 . S
H6943 C6949 0.950 . S
H6944 C6950 0.949 . S
C6945 H6940 0.950 . S
C6945 C6947 1.327 . S
C6945 C6951 1.429 . S
C6946 C6938 1.574 . S
C6946 H6941 0.949 . S
C6946 C6952 1.368 . S
C6947 C6931 1.349 . S
C6947 H6939 0.950 . S
C6947 C6945 1.327 . S
C6948 C6936 1.349 . S
C6948 H6942 0.950 . S
C6948 C6949 1.327 . S
C6949 H6943 0.950 . S
C6949 C6948 1.327 . S
C6949 C6953 1.429 . S
C6950 C6933 1.574 . S
C6950 H6944 0.949 . S
C6950 C6954 1.368 . S
C6951 C6932 1.429 . S
C6951 C6945 1.429 . S
C6951 C6952 1.523 . S
C6952 C6933 1.368 . S
C6952 C6946 1.368 . S
C6952 C6951 1.523 . S
C6953 C6937 1.429 . S
C6953 C6949 1.429 . S
C6953 C6954 1.523 . S
C6954 C6938 1.368 . S
C6954 C6950 1.368 . S
C6954 C6953 1.523 . S
H6955 C6930 0.950 . S
H6956 C6932 0.950 . S
H6957 C6933 0.949 . S
H6958 C6935 0.950 . S
H6959 C6937 0.950 . S
C6960 C6961 1.349 . S
C6960 C6962 1.327 . S
C6960 H6985 0.950 . S
C6961 C6960 1.349 . S
C6961 C6977 1.349 . S
C6962 C6960 1.327 . S
C6962 C6981 1.429 . S
C6962 H6986 0.950 . S
C6963 C6980 1.574 . S
C6963 C6982 1.368 . S
C6963 H6987 0.949 . S
H6964 C6968 0.949 . S
C6965 C6966 1.349 . S
C6965 C6967 1.327 . S
C6965 H6988 0.950 . S
C6966 C6965 1.349 . S
C6966 C6978 1.349 . S
C6967 C6965 1.327 . S
C6967 C6983 1.429 . S
C6967 H6989 0.950 . S
C6968 H6964 0.949 . S
C6968 C6976 1.574 . S
C6968 C6984 1.368 . S
H6969 C6977 0.950 . S
H6970 C6975 0.950 . S
H6971 C6976 0.949 . S
H6972 C6978 0.950 . S
H6973 C6979 0.950 . S
H6974 C6980 0.949 . S
C6975 H6970 0.950 . S
C6975 C6977 1.327 . S
C6975 C6981 1.429 . S
C6976 C6968 1.574 . S
C6976 H6971 0.949 . S
C6976 C6982 1.368 . S
C6977 C6961 1.349 . S
C6977 H6969 0.950 . S
C6977 C6975 1.327 . S
C6978 C6966 1.349 . S
C6978 H6972 0.950 . S
C6978 C6979 1.327 . S
C6979 H6973 0.950 . S
C6979 C6978 1.327 . S
C6979 C6983 1.429 . S
C6980 C6963 1.574 . S
C6980 H6974 0.949 . S
C6980 C6984 1.368 . S
C6981 C6962 1.429 . S
C6981 C6975 1.429 . S
C6981 C6982 1.523 . S
C6982 C6963 1.368 . S
C6982 C6976 1.368 . S
C6982 C6981 1.523 . S
C6983 C6967 1.429 . S
C6983 C6979 1.429 . S
C6983 C6984 1.523 . S
C6984 C6968 1.368 . S
C6984 C6980 1.368 . S
C6984 C6983 1.523 . S
H6985 C6960 0.950 . S
H6986 C6962 0.950 . S
H6987 C6963 0.949 . S
H6988 C6965 0.950 . S
H6989 C6967 0.950 . S
C6990 C6991 1.349 . S
C6990 C6992 1.327 . S
C6990 H7015 0.950 . S
C6991 C6990 1.349 . S
C6991 C7007 1.349 . S
C6992 C6990 1.327 . S
C6992 C7011 1.429 . S
C6992 H7016 0.950 . S
C6993 C7010 1.574 . S
C6993 C7012 1.368 . S
C6993 H7017 0.949 . S
H6994 C6998 0.949 . S
C6995 C6996 1.349 . S
C6995 C6997 1.327 . S
C6995 H7018 0.950 . S
C6996 C6995 1.349 . S
C6996 C7008 1.349 . S
C6997 C6995 1.327 . S
C6997 C7013 1.429 . S
C6997 H7019 0.950 . S
C6998 H6994 0.949 . S
C6998 C7006 1.574 . S
C6998 C7014 1.368 . S
H6999 C7007 0.950 . S
H7000 C7005 0.950 . S
H7001 C7006 0.949 . S
H7002 C7008 0.950 . S
H7003 C7009 0.950 . S
H7004 C7010 0.949 . S
C7005 H7000 0.950 . S
C7005 C7007 1.327 . S
C7005 C7011 1.429 . S
C7006 C6998 1.574 . S
C7006 H7001 0.949 . S
C7006 C7012 1.368 . S
C7007 C6991 1.349 . S
C7007 H6999 0.950 . S
C7007 C7005 1.327 . S
C7008 C6996 1.349 . S
C7008 H7002 0.950 . S
C7008 C7009 1.327 . S
C7009 H7003 0.950 . S
C7009 C7008 1.327 . S
C7009 C7013 1.429 . S
C7010 C6993 1.574 . S
C7010 H7004 0.949 . S
C7010 C7014 1.368 . S
C7011 C6992 1.429 . S
C7011 C7005 1.429 . S
C7011 C7012 1.523 . S
C7012 C6993 1.368 . S
C7012 C7006 1.368 . S
C7012 C7011 1.523 . S
C7013 C6997 1.429 . S
C7013 C7009 1.429 . S
C7013 C7014 1.523 . S
C7014 C6998 1.368 . S
C7014 C7010 1.368 . S
C7014 C7013 1.523 . S
H7015 C6990 0.950 . S
H7016 C6992 0.950 . S
H7017 C6993 0.949 . S
H7018 C6995 0.950 . S
H7019 C6997 0.950 . S
C7020 C7021 1.349 . S
C7020 C7022 1.327 . S
C7020 H7045 0.950 . S
C7021 C7020 1.349 . S
C7021 C7037 1.349 . S
C7022 C7020 1.327 . S
C7022 C7041 1.429 . S
C7022 H7046 0.950 . S
C7023 C7040 1.574 . S
C7023 C7042 1.368 . S
C7023 H7047 0.949 . S
H7024 C7028 0.949 . S
C7025 C7026 1.349 . S
C7025 C7027 1.327 . S
C7025 H7048 0.950 . S
C7026 C7025 1.349 . S
C7026 C7038 1.349 . S
C7027 C7025 1.327 . S
C7027 C7043 1.429 . S
C7027 H7049 0.950 . S
C7028 H7024 0.949 . S
C7028 C7036 1.574 . S
C7028 C7044 1.368 . S
H7029 C7037 0.950 . S
H7030 C7035 0.950 . S
H7031 C7036 0.949 . S
H7032 C7038 0.950 . S
H7033 C7039 0.950 . S
H7034 C7040 0.949 . S
C7035 H7030 0.950 . S
C7035 C7037 1.327 . S
C7035 C7041 1.429 . S
C7036 C7028 1.574 . S
C7036 H7031 0.949 . S
C7036 C7042 1.368 . S
C7037 C7021 1.349 . S
C7037 H7029 0.950 . S
C7037 C7035 1.327 . S
C7038 C7026 1.349 . S
C7038 H7032 0.950 . S
C7038 C7039 1.327 . S
C7039 H7033 0.950 . S
C7039 C7038 1.327 . S
C7039 C7043 1.429 . S
C7040 C7023 1.574 . S
C7040 H7034 0.949 . S
C7040 C7044 1.368 . S
C7041 C7022 1.429 . S
C7041 C7035 1.429 . S
C7041 C7042 1.523 . S
C7042 C7023 1.368 . S
C7042 C7036 1.368 . S
C7042 C7041 1.523 . S
C7043 C7027 1.429 . S
C7043 C7039 1.429 . S
C7043 C7044 1.523 . S
C7044 C7028 1.368 . S
C7044 C7040 1.368 . S
C7044 C7043 1.523 . S
H7045 C7020 0.950 . S
H7046 C7022 0.950 . S
H7047 C7023 0.949 . S
H7048 C7025 0.950 . S
H7049 C7027 0.950 . S
C7050 C7051 1.349 . S
C7050 C7052 1.327 . S
C7050 H7075 0.950 . S
C7051 C7050 1.349 . S
C7051 C7067 1.349 . S
C7052 C7050 1.327 . S
C7052 C7071 1.429 . S
C7052 H7076 0.950 . S
C7053 C7070 1.574 . S
C7053 C7072 1.368 . S
C7053 H7077 0.949 . S
H7054 C7058 0.949 . S
C7055 C7056 1.349 . S
C7055 C7057 1.327 . S
C7055 H7078 0.950 . S
C7056 C7055 1.349 . S
C7056 C7068 1.349 . S
C7057 C7055 1.327 . S
C7057 C7073 1.429 . S
C7057 H7079 0.950 . S
C7058 H7054 0.949 . S
C7058 C7066 1.574 . S
C7058 C7074 1.368 . S
H7059 C7067 0.950 . S
H7060 C7065 0.950 . S
H7061 C7066 0.949 . S
H7062 C7068 0.950 . S
H7063 C7069 0.950 . S
H7064 C7070 0.949 . S
C7065 H7060 0.950 . S
C7065 C7067 1.327 . S
C7065 C7071 1.429 . S
C7066 C7058 1.574 . S
C7066 H7061 0.949 . S
C7066 C7072 1.368 . S
C7067 C7051 1.349 . S
C7067 H7059 0.950 . S
C7067 C7065 1.327 . S
C7068 C7056 1.349 . S
C7068 H7062 0.950 . S
C7068 C7069 1.327 . S
C7069 H7063 0.950 . S
C7069 C7068 1.327 . S
C7069 C7073 1.429 . S
C7070 C7053 1.574 . S
C7070 H7064 0.949 . S
C7070 C7074 1.368 . S
C7071 C7052 1.429 . S
C7071 C7065 1.429 . S
C7071 C7072 1.523 . S
C7072 C7053 1.368 . S
C7072 C7066 1.368 . S
C7072 C7071 1.523 . S
C7073 C7057 1.429 . S
C7073 C7069 1.429 . S
C7073 C7074 1.523 . S
C7074 C7058 1.368 . S
C7074 C7070 1.368 . S
C7074 C7073 1.523 . S
H7075 C7050 0.950 . S
H7076 C7052 0.950 . S
H7077 C7053 0.949 . S
H7078 C7055 0.950 . S
H7079 C7057 0.950 . S
C7080 C7081 1.349 . S
C7080 C7082 1.327 . S
C7080 H7105 0.950 . S
C7081 C7080 1.349 . S
C7081 C7097 1.349 . S
C7082 C7080 1.327 . S
C7082 C7101 1.429 . S
C7082 H7106 0.950 . S
C7083 C7100 1.574 . S
C7083 C7102 1.368 . S
C7083 H7107 0.949 . S
H7084 C7088 0.949 . S
C7085 C7086 1.349 . S
C7085 C7087 1.327 . S
C7085 H7108 0.950 . S
C7086 C7085 1.349 . S
C7086 C7098 1.349 . S
C7087 C7085 1.327 . S
C7087 C7103 1.429 . S
C7087 H7109 0.950 . S
C7088 H7084 0.949 . S
C7088 C7096 1.574 . S
C7088 C7104 1.368 . S
H7089 C7097 0.950 . S
H7090 C7095 0.950 . S
H7091 C7096 0.949 . S
H7092 C7098 0.950 . S
H7093 C7099 0.950 . S
H7094 C7100 0.949 . S
C7095 H7090 0.950 . S
C7095 C7097 1.327 . S
C7095 C7101 1.429 . S
C7096 C7088 1.574 . S
C7096 H7091 0.949 . S
C7096 C7102 1.368 . S
C7097 C7081 1.349 . S
C7097 H7089 0.950 . S
C7097 C7095 1.327 . S
C7098 C7086 1.349 . S
C7098 H7092 0.950 . S
C7098 C7099 1.327 . S
C7099 H7093 0.950 . S
C7099 C7098 1.327 . S
C7099 C7103 1.429 . S
C7100 C7083 1.574 . S
C7100 H7094 0.949 . S
C7100 C7104 1.368 . S
C7101 C7082 1.429 . S
C7101 C7095 1.429 . S
C7101 C7102 1.523 . S
C7102 C7083 1.368 . S
C7102 C7096 1.368 . S
C7102 C7101 1.523 . S
C7103 C7087 1.429 . S
C7103 C7099 1.429 . S
C7103 C7104 1.523 . S
C7104 C7088 1.368 . S
C7104 C7100 1.368 . S
C7104 C7103 1.523 . S
H7105 C7080 0.950 . S
H7106 C7082 0.950 . S
H7107 C7083 0.949 . S
H7108 C7085 0.950 . S
H7109 C7087 0.950 . S
C7110 C7111 1.349 . S
C7110 C7112 1.327 . S
C7110 H7135 0.950 . S
C7111 C7110 1.349 . S
C7111 C7127 1.349 . S
C7112 C7110 1.327 . S
C7112 C7131 1.429 . S
C7112 H7136 0.950 . S
C7113 C7130 1.574 . S
C7113 C7132 1.368 . S
C7113 H7137 0.949 . S
H7114 C7118 0.949 . S
C7115 C7116 1.349 . S
C7115 C7117 1.327 . S
C7115 H7138 0.950 . S
C7116 C7115 1.349 . S
C7116 C7128 1.349 . S
C7117 C7115 1.327 . S
C7117 C7133 1.429 . S
C7117 H7139 0.950 . S
C7118 H7114 0.949 . S
C7118 C7126 1.574 . S
C7118 C7134 1.368 . S
H7119 C7127 0.950 . S
H7120 C7125 0.950 . S
H7121 C7126 0.949 . S
H7122 C7128 0.950 . S
H7123 C7129 0.950 . S
H7124 C7130 0.949 . S
C7125 H7120 0.950 . S
C7125 C7127 1.327 . S
C7125 C7131 1.429 . S
C7126 C7118 1.574 . S
C7126 H7121 0.949 . S
C7126 C7132 1.368 . S
C7127 C7111 1.349 . S
C7127 H7119 0.950 . S
C7127 C7125 1.327 . S
C7128 C7116 1.349 . S
C7128 H7122 0.950 . S
C7128 C7129 1.327 . S
C7129 H7123 0.950 . S
C7129 C7128 1.327 . S
C7129 C7133 1.429 . S
C7130 C7113 1.574 . S
C7130 H7124 0.949 . S
C7130 C7134 1.368 . S
C7131 C7112 1.429 . S
C7131 C7125 1.429 . S
C7131 C7132 1.523 . S
C7132 C7113 1.368 . S
C7132 C7126 1.368 . S
C7132 C7131 1.523 . S
C7133 C7117 1.429 . S
C7133 C7129 1.429 . S
C7133 C7134 1.523 . S
C7134 C7118 1.368 . S
C7134 C7130 1.368 . S
C7134 C7133 1.523 . S
H7135 C7110 0.950 . S
H7136 C7112 0.950 . S
H7137 C7113 0.949 . S
H7138 C7115 0.950 . S
H7139 C7117 0.950 . S
C7140 C7141 1.349 . S
C7140 C7142 1.327 . S
C7140 H7165 0.950 . S
C7141 C7140 1.349 . S
C7141 C7157 1.349 . S
C7142 C7140 1.327 . S
C7142 C7161 1.429 . S
C7142 H7166 0.950 . S
C7143 C7160 1.574 . S
C7143 C7162 1.368 . S
C7143 H7167 0.949 . S
H7144 C7148 0.949 . S
C7145 C7146 1.349 . S
C7145 C7147 1.327 . S
C7145 H7168 0.950 . S
C7146 C7145 1.349 . S
C7146 C7158 1.349 . S
C7147 C7145 1.327 . S
C7147 C7163 1.429 . S
C7147 H7169 0.950 . S
C7148 H7144 0.949 . S
C7148 C7156 1.574 . S
C7148 C7164 1.368 . S
H7149 C7157 0.950 . S
H7150 C7155 0.950 . S
H7151 C7156 0.949 . S
H7152 C7158 0.950 . S
H7153 C7159 0.950 . S
H7154 C7160 0.949 . S
C7155 H7150 0.950 . S
C7155 C7157 1.327 . S
C7155 C7161 1.429 . S
C7156 C7148 1.574 . S
C7156 H7151 0.949 . S
C7156 C7162 1.368 . S
C7157 C7141 1.349 . S
C7157 H7149 0.950 . S
C7157 C7155 1.327 . S
C7158 C7146 1.349 . S
C7158 H7152 0.950 . S
C7158 C7159 1.327 . S
C7159 H7153 0.950 . S
C7159 C7158 1.327 . S
C7159 C7163 1.429 . S
C7160 C7143 1.574 . S
C7160 H7154 0.949 . S
C7160 C7164 1.368 . S
C7161 C7142 1.429 . S
C7161 C7155 1.429 . S
C7161 C7162 1.523 . S
C7162 C7143 1.368 . S
C7162 C7156 1.368 . S
C7162 C7161 1.523 . S
C7163 C7147 1.429 . S
C7163 C7159 1.429 . S
C7163 C7164 1.523 . S
C7164 C7148 1.368 . S
C7164 C7160 1.368 . S
C7164 C7163 1.523 . S
H7165 C7140 0.950 . S
H7166 C7142 0.950 . S
H7167 C7143 0.949 . S
H7168 C7145 0.950 . S
H7169 C7147 0.950 . S
C7170 C7171 1.349 . S
C7170 C7172 1.327 . S
C7170 H7195 0.950 . S
C7171 C7170 1.349 . S
C7171 C7187 1.349 . S
C7172 C7170 1.327 . S
C7172 C7191 1.429 . S
C7172 H7196 0.950 . S
C7173 C7190 1.574 . S
C7173 C7192 1.368 . S
C7173 H7197 0.949 . S
H7174 C7178 0.949 . S
C7175 C7176 1.349 . S
C7175 C7177 1.327 . S
C7175 H7198 0.950 . S
C7176 C7175 1.349 . S
C7176 C7188 1.349 . S
C7177 C7175 1.327 . S
C7177 C7193 1.429 . S
C7177 H7199 0.950 . S
C7178 H7174 0.949 . S
C7178 C7186 1.574 . S
C7178 C7194 1.368 . S
H7179 C7187 0.950 . S
H7180 C7185 0.950 . S
H7181 C7186 0.949 . S
H7182 C7188 0.950 . S
H7183 C7189 0.950 . S
H7184 C7190 0.949 . S
C7185 H7180 0.950 . S
C7185 C7187 1.327 . S
C7185 C7191 1.429 . S
C7186 C7178 1.574 . S
C7186 H7181 0.949 . S
C7186 C7192 1.368 . S
C7187 C7171 1.349 . S
C7187 H7179 0.950 . S
C7187 C7185 1.327 . S
C7188 C7176 1.349 . S
C7188 H7182 0.950 . S
C7188 C7189 1.327 . S
C7189 H7183 0.950 . S
C7189 C7188 1.327 . S
C7189 C7193 1.429 . S
C7190 C7173 1.574 . S
C7190 H7184 0.949 . S
C7190 C7194 1.368 . S
C7191 C7172 1.429 . S
C7191 C7185 1.429 . S
C7191 C7192 1.523 . S
C7192 C7173 1.368 . S
C7192 C7186 1.368 . S
C7192 C7191 1.523 . S
C7193 C7177 1.429 . S
C7193 C7189 1.429 . S
C7193 C7194 1.523 . S
C7194 C7178 1.368 . S
C7194 C7190 1.368 . S
C7194 C7193 1.523 . S
H7195 C7170 0.950 . S
H7196 C7172 0.950 . S
H7197 C7173 0.949 . S
H7198 C7175 0.950 . S
H7199 C7177 0.950 . S
C7200 C7201 1.349 . S
C7200 C7202 1.327 . S
C7200 H7225 0.950 . S
C7201 C7200 1.349 . S
C7201 C7217 1.349 . S
C7202 C7200 1.327 . S
C7202 C7221 1.429 . S
C7202 H7226 0.950 . S
C7203 C7220 1.574 . S
C7203 C7222 1.368 . S
C7203 H7227 0.949 . S
H7204 C7208 0.949 . S
C7205 C7206 1.349 . S
C7205 C7207 1.327 . S
C7205 H7228 0.950 . S
C7206 C7205 1.349 . S
C7206 C7218 1.349 . S
C7207 C7205 1.327 . S
C7207 C7223 1.429 . S
C7207 H7229 0.950 . S
C7208 H7204 0.949 . S
C7208 C7216 1.574 . S
C7208 C7224 1.368 . S
H7209 C7217 0.950 . S
H7210 C7215 0.950 . S
H7211 C7216 0.949 . S
H7212 C7218 0.950 . S
H7213 C7219 0.950 . S
H7214 C7220 0.949 . S
C7215 H7210 0.950 . S
C7215 C7217 1.327 . S
C7215 C7221 1.429 . S
C7216 C7208 1.574 . S
C7216 H7211 0.949 . S
C7216 C7222 1.368 . S
C7217 C7201 1.349 . S
C7217 H7209 0.950 . S
C7217 C7215 1.327 . S
C7218 C7206 1.349 . S
C7218 H7212 0.950 . S
C7218 C7219 1.327 . S
C7219 H7213 0.950 . S
C7219 C7218 1.327 . S
C7219 C7223 1.429 . S
C7220 C7203 1.574 . S
C7220 H7214 0.949 . S
C7220 C7224 1.368 . S
C7221 C7202 1.429 . S
C7221 C7215 1.429 . S
C7221 C7222 1.523 . S
C7222 C7203 1.368 . S
C7222 C7216 1.368 . S
C7222 C7221 1.523 . S
C7223 C7207 1.429 . S
C7223 C7219 1.429 . S
C7223 C7224 1.523 . S
C7224 C7208 1.368 . S
C7224 C7220 1.368 . S
C7224 C7223 1.523 . S
H7225 C7200 0.950 . S
H7226 C7202 0.950 . S
H7227 C7203 0.949 . S
H7228 C7205 0.950 . S
H7229 C7207 0.950 . S
C7230 C7231 1.349 . S
C7230 C7232 1.327 . S
C7230 H7255 0.950 . S
C7231 C7230 1.349 . S
C7231 C7247 1.349 . S
C7232 C7230 1.327 . S
C7232 C7251 1.429 . S
C7232 H7256 0.950 . S
C7233 C7250 1.574 . S
C7233 C7252 1.368 . S
C7233 H7257 0.949 . S
H7234 C7238 0.949 . S
C7235 C7236 1.349 . S
C7235 C7237 1.327 . S
C7235 H7258 0.950 . S
C7236 C7235 1.349 . S
C7236 C7248 1.349 . S
C7237 C7235 1.327 . S
C7237 C7253 1.429 . S
C7237 H7259 0.950 . S
C7238 H7234 0.949 . S
C7238 C7246 1.574 . S
C7238 C7254 1.368 . S
H7239 C7247 0.950 . S
H7240 C7245 0.950 . S
H7241 C7246 0.949 . S
H7242 C7248 0.950 . S
H7243 C7249 0.950 . S
H7244 C7250 0.949 . S
C7245 H7240 0.950 . S
C7245 C7247 1.327 . S
C7245 C7251 1.429 . S
C7246 C7238 1.574 . S
C7246 H7241 0.949 . S
C7246 C7252 1.368 . S
C7247 C7231 1.349 . S
C7247 H7239 0.950 . S
C7247 C7245 1.327 . S
C7248 C7236 1.349 . S
C7248 H7242 0.950 . S
C7248 C7249 1.327 . S
C7249 H7243 0.950 . S
C7249 C7248 1.327 . S
C7249 C7253 1.429 . S
C7250 C7233 1.574 . S
C7250 H7244 0.949 . S
C7250 C7254 1.368 . S
C7251 C7232 1.429 . S
C7251 C7245 1.429 . S
C7251 C7252 1.523 . S
C7252 C7233 1.368 . S
C7252 C7246 1.368 . S
C7252 C7251 1.523 . S
C7253 C7237 1.429 . S
C7253 C7249 1.429 . S
C7253 C7254 1.523 . S
C7254 C7238 1.368 . S
C7254 C7250 1.368 . S
C7254 C7253 1.523 . S
H7255 C7230 0.950 . S
H7256 C7232 0.950 . S
H7257 C7233 0.949 . S
H7258 C7235 0.950 . S
H7259 C7237 0.950 . S
C7260 C7261 1.349 . S
C7260 C7262 1.327 . S
C7260 H7285 0.950 . S
C7261 C7260 1.349 . S
C7261 C7277 1.349 . S
C7262 C7260 1.327 . S
C7262 C7281 1.429 . S
C7262 H7286 0.950 . S
C7263 C7280 1.574 . S
C7263 C7282 1.368 . S
C7263 H7287 0.949 . S
H7264 C7268 0.949 . S
C7265 C7266 1.349 . S
C7265 C7267 1.327 . S
C7265 H7288 0.950 . S
C7266 C7265 1.349 . S
C7266 C7278 1.349 . S
C7267 C7265 1.327 . S
C7267 C7283 1.429 . S
C7267 H7289 0.950 . S
C7268 H7264 0.949 . S
C7268 C7276 1.574 . S
C7268 C7284 1.368 . S
H7269 C7277 0.950 . S
H7270 C7275 0.950 . S
H7271 C7276 0.949 . S
H7272 C7278 0.950 . S
H7273 C7279 0.950 . S
H7274 C7280 0.949 . S
C7275 H7270 0.950 . S
C7275 C7277 1.327 . S
C7275 C7281 1.429 . S
C7276 C7268 1.574 . S
C7276 H7271 0.949 . S
C7276 C7282 1.368 . S
C7277 C7261 1.349 . S
C7277 H7269 0.950 . S
C7277 C7275 1.327 . S
C7278 C7266 1.349 . S
C7278 H7272 0.950 . S
C7278 C7279 1.327 . S
C7279 H7273 0.950 . S
C7279 C7278 1.327 . S
C7279 C7283 1.429 . S
C7280 C7263 1.574 . S
C7280 H7274 0.949 . S
C7280 C7284 1.368 . S
C7281 C7262 1.429 . S
C7281 C7275 1.429 . S
C7281 C7282 1.523 . S
C7282 C7263 1.368 . S
C7282 C7276 1.368 . S
C7282 C7281 1.523 . S
C7283 C7267 1.429 . S
C7283 C7279 1.429 . S
C7283 C7284 1.523 . S
C7284 C7268 1.368 . S
C7284 C7280 1.368 . S
C7284 C7283 1.523 . S
H7285 C7260 0.950 . S
H7286 C7262 0.950 . S
H7287 C7263 0.949 . S
H7288 C7265 0.950 . S
H7289 C7267 0.950 . S
C7290 C7291 1.349 . S
C7290 C7292 1.327 . S
C7290 H7315 0.950 . S
C7291 C7290 1.349 . S
C7291 C7307 1.349 . S
C7292 C7290 1.327 . S
C7292 C7311 1.429 . S
C7292 H7316 0.950 . S
C7293 C7310 1.574 . S
C7293 C7312 1.368 . S
C7293 H7317 0.949 . S
H7294 C7298 0.949 . S
C7295 C7296 1.349 . S
C7295 C7297 1.327 . S
C7295 H7318 0.950 . S
C7296 C7295 1.349 . S
C7296 C7308 1.349 . S
C7297 C7295 1.327 . S
C7297 C7313 1.429 . S
C7297 H7319 0.950 . S
C7298 H7294 0.949 . S
C7298 C7306 1.574 . S
C7298 C7314 1.368 . S
H7299 C7307 0.950 . S
H7300 C7305 0.950 . S
H7301 C7306 0.949 . S
H7302 C7308 0.950 . S
H7303 C7309 0.950 . S
H7304 C7310 0.949 . S
C7305 H7300 0.950 . S
C7305 C7307 1.327 . S
C7305 C7311 1.429 . S
C7306 C7298 1.574 . S
C7306 H7301 0.949 . S
C7306 C7312 1.368 . S
C7307 C7291 1.349 . S
C7307 H7299 0.950 . S
C7307 C7305 1.327 . S
C7308 C7296 1.349 . S
C7308 H7302 0.950 . S
C7308 C7309 1.327 . S
C7309 H7303 0.950 . S
C7309 C7308 1.327 . S
C7309 C7313 1.429 . S
C7310 C7293 1.574 . S
C7310 H7304 0.949 . S
C7310 C7314 1.368 . S
C7311 C7292 1.429 . S
C7311 C7305 1.429 . S
C7311 C7312 1.523 . S
C7312 C7293 1.368 . S
C7312 C7306 1.368 . S
C7312 C7311 1.523 . S
C7313 C7297 1.429 . S
C7313 C7309 1.429 . S
C7313 C7314 1.523 . S
C7314 C7298 1.368 . S
C7314 C7310 1.368 . S
C7314 C7313 1.523 . S
H7315 C7290 0.950 . S
H7316 C7292 0.950 . S
H7317 C7293 0.949 . S
H7318 C7295 0.950 . S
H7319 C7297 0.950 . S
C7320 C7321 1.349 . S
C7320 C7322 1.327 . S
C7320 H7345 0.950 . S
C7321 C7320 1.349 . S
C7321 C7337 1.349 . S
C7322 C7320 1.327 . S
C7322 C7341 1.429 . S
C7322 H7346 0.950 . S
C7323 C7340 1.574 . S
C7323 C7342 1.368 . S
C7323 H7347 0.949 . S
H7324 C7328 0.949 . S
C7325 C7326 1.349 . S
C7325 C7327 1.327 . S
C7325 H7348 0.950 . S
C7326 C7325 1.349 . S
C7326 C7338 1.349 . S
C7327 C7325 1.327 . S
C7327 C7343 1.429 . S
C7327 H7349 0.950 . S
C7328 H7324 0.949 . S
C7328 C7336 1.574 . S
C7328 C7344 1.368 . S
H7329 C7337 0.950 . S
H7330 C7335 0.950 . S
H7331 C7336 0.949 . S
H7332 C7338 0.950 . S
H7333 C7339 0.950 . S
H7334 C7340 0.949 . S
C7335 H7330 0.950 . S
C7335 C7337 1.327 . S
C7335 C7341 1.429 . S
C7336 C7328 1.574 . S
C7336 H7331 0.949 . S
C7336 C7342 1.368 . S
C7337 C7321 1.349 . S
C7337 H7329 0.950 . S
C7337 C7335 1.327 . S
C7338 C7326 1.349 . S
C7338 H7332 0.950 . S
C7338 C7339 1.327 . S
C7339 H7333 0.950 . S
C7339 C7338 1.327 . S
C7339 C7343 1.429 . S
C7340 C7323 1.574 . S
C7340 H7334 0.949 . S
C7340 C7344 1.368 . S
C7341 C7322 1.429 . S
C7341 C7335 1.429 . S
C7341 C7342 1.523 . S
C7342 C7323 1.368 . S
C7342 C7336 1.368 . S
C7342 C7341 1.523 . S
C7343 C7327 1.429 . S
C7343 C7339 1.429 . S
C7343 C7344 1.523 . S
C7344 C7328 1.368 . S
C7344 C7340 1.368 . S
C7344 C7343 1.523 . S
H7345 C7320 0.950 . S
H7346 C7322 0.950 . S
H7347 C7323 0.949 . S
H7348 C7325 0.950 . S
H7349 C7327 0.950 . S
C7350 C7351 1.349 . S
C7350 C7352 1.327 . S
C7350 H7375 0.950 . S
C7351 C7350 1.349 . S
C7351 C7367 1.349 . S
C7352 C7350 1.327 . S
C7352 C7371 1.429 . S
C7352 H7376 0.950 . S
C7353 C7370 1.574 . S
C7353 C7372 1.368 . S
C7353 H7377 0.949 . S
H7354 C7358 0.949 . S
C7355 C7356 1.349 . S
C7355 C7357 1.327 . S
C7355 H7378 0.950 . S
C7356 C7355 1.349 . S
C7356 C7368 1.349 . S
C7357 C7355 1.327 . S
C7357 C7373 1.429 . S
C7357 H7379 0.950 . S
C7358 H7354 0.949 . S
C7358 C7366 1.574 . S
C7358 C7374 1.368 . S
H7359 C7367 0.950 . S
H7360 C7365 0.950 . S
H7361 C7366 0.949 . S
H7362 C7368 0.950 . S
H7363 C7369 0.950 . S
H7364 C7370 0.949 . S
C7365 H7360 0.950 . S
C7365 C7367 1.327 . S
C7365 C7371 1.429 . S
C7366 C7358 1.574 . S
C7366 H7361 0.949 . S
C7366 C7372 1.368 . S
C7367 C7351 1.349 . S
C7367 H7359 0.950 . S
C7367 C7365 1.327 . S
C7368 C7356 1.349 . S
C7368 H7362 0.950 . S
C7368 C7369 1.327 . S
C7369 H7363 0.950 . S
C7369 C7368 1.327 . S
C7369 C7373 1.429 . S
C7370 C7353 1.574 . S
C7370 H7364 0.949 . S
C7370 C7374 1.368 . S
C7371 C7352 1.429 . S
C7371 C7365 1.429 . S
C7371 C7372 1.523 . S
C7372 C7353 1.368 . S
C7372 C7366 1.368 . S
C7372 C7371 1.523 . S
C7373 C7357 1.429 . S
C7373 C7369 1.429 . S
C7373 C7374 1.523 . S
C7374 C7358 1.368 . S
C7374 C7370 1.368 . S
C7374 C7373 1.523 . S
H7375 C7350 0.950 . S
H7376 C7352 0.950 . S
H7377 C7353 0.949 . S
H7378 C7355 0.950 . S
H7379 C7357 0.950 . S
C7380 C7381 1.349 . S
C7380 C7382 1.327 . S
C7380 H7405 0.950 . S
C7381 C7380 1.349 . S
C7381 C7397 1.349 . S
C7382 C7380 1.327 . S
C7382 C7401 1.429 . S
C7382 H7406 0.950 . S
C7383 C7400 1.574 . S
C7383 C7402 1.368 . S
C7383 H7407 0.949 . S
H7384 C7388 0.949 . S
C7385 C7386 1.349 . S
C7385 C7387 1.327 . S
C7385 H7408 0.950 . S
C7386 C7385 1.349 . S
C7386 C7398 1.349 . S
C7387 C7385 1.327 . S
C7387 C7403 1.429 . S
C7387 H7409 0.950 . S
C7388 H7384 0.949 . S
C7388 C7396 1.574 . S
C7388 C7404 1.368 . S
H7389 C7397 0.950 . S
H7390 C7395 0.950 . S
H7391 C7396 0.949 . S
H7392 C7398 0.950 . S
H7393 C7399 0.950 . S
H7394 C7400 0.949 . S
C7395 H7390 0.950 . S
C7395 C7397 1.327 . S
C7395 C7401 1.429 . S
C7396 C7388 1.574 . S
C7396 H7391 0.949 . S
C7396 C7402 1.368 . S
C7397 C7381 1.349 . S
C7397 H7389 0.950 . S
C7397 C7395 1.327 . S
C7398 C7386 1.349 . S
C7398 H7392 0.950 . S
C7398 C7399 1.327 . S
C7399 H7393 0.950 . S
C7399 C7398 1.327 . S
C7399 C7403 1.429 . S
C7400 C7383 1.574 . S
C7400 H7394 0.949 . S
C7400 C7404 1.368 . S
C7401 C7382 1.429 . S
C7401 C7395 1.429 . S
C7401 C7402 1.523 . S
C7402 C7383 1.368 . S
C7402 C7396 1.368 . S
C7402 C7401 1.523 . S
C7403 C7387 1.429 . S
C7403 C7399 1.429 . S
C7403 C7404 1.523 . S
C7404 C7388 1.368 . S
C7404 C7400 1.368 . S
C7404 C7403 1.523 . S
H7405 C7380 0.950 . S
H7406 C7382 0.950 . S
H7407 C7383 0.949 . S
H7408 C7385 0.950 . S
H7409 C7387 0.950 . S
C7410 C7411 1.349 . S
C7410 C7412 1.327 . S
C7410 H7435 0.950 . S
C7411 C7410 1.349 . S
C7411 C7427 1.349 . S
C7412 C7410 1.327 . S
C7412 C7431 1.429 . S
C7412 H7436 0.950 . S
C7413 C7430 1.574 . S
C7413 C7432 1.368 . S
C7413 H7437 0.949 . S
H7414 C7418 0.949 . S
C7415 C7416 1.349 . S
C7415 C7417 1.327 . S
C7415 H7438 0.950 . S
C7416 C7415 1.349 . S
C7416 C7428 1.349 . S
C7417 C7415 1.327 . S
C7417 C7433 1.429 . S
C7417 H7439 0.950 . S
C7418 H7414 0.949 . S
C7418 C7426 1.574 . S
C7418 C7434 1.368 . S
H7419 C7427 0.950 . S
H7420 C7425 0.950 . S
H7421 C7426 0.949 . S
H7422 C7428 0.950 . S
H7423 C7429 0.950 . S
H7424 C7430 0.949 . S
C7425 H7420 0.950 . S
C7425 C7427 1.327 . S
C7425 C7431 1.429 . S
C7426 C7418 1.574 . S
C7426 H7421 0.949 . S
C7426 C7432 1.368 . S
C7427 C7411 1.349 . S
C7427 H7419 0.950 . S
C7427 C7425 1.327 . S
C7428 C7416 1.349 . S
C7428 H7422 0.950 . S
C7428 C7429 1.327 . S
C7429 H7423 0.950 . S
C7429 C7428 1.327 . S
C7429 C7433 1.429 . S
C7430 C7413 1.574 . S
C7430 H7424 0.949 . S
C7430 C7434 1.368 . S
C7431 C7412 1.429 . S
C7431 C7425 1.429 . S
C7431 C7432 1.523 . S
C7432 C7413 1.368 . S
C7432 C7426 1.368 . S
C7432 C7431 1.523 . S
C7433 C7417 1.429 . S
C7433 C7429 1.429 . S
C7433 C7434 1.523 . S
C7434 C7418 1.368 . S
C7434 C7430 1.368 . S
C7434 C7433 1.523 . S
H7435 C7410 0.950 . S
H7436 C7412 0.950 . S
H7437 C7413 0.949 . S
H7438 C7415 0.950 . S
H7439 C7417 0.950 . S
C7440 C7441 1.349 . S
C7440 C7442 1.327 . S
C7440 H7465 0.950 . S
C7441 C7440 1.349 . S
C7441 C7457 1.349 . S
C7442 C7440 1.327 . S
C7442 C7461 1.429 . S
C7442 H7466 0.950 . S
C7443 C7460 1.574 . S
C7443 C7462 1.368 . S
C7443 H7467 0.949 . S
H7444 C7448 0.949 . S
C7445 C7446 1.349 . S
C7445 C7447 1.327 . S
C7445 H7468 0.950 . S
C7446 C7445 1.349 . S
C7446 C7458 1.349 . S
C7447 C7445 1.327 . S
C7447 C7463 1.429 . S
C7447 H7469 0.950 . S
C7448 H7444 0.949 . S
C7448 C7456 1.574 . S
C7448 C7464 1.368 . S
H7449 C7457 0.950 . S
H7450 C7455 0.950 . S
H7451 C7456 0.949 . S
H7452 C7458 0.950 . S
H7453 C7459 0.950 . S
H7454 C7460 0.949 . S
C7455 H7450 0.950 . S
C7455 C7457 1.327 . S
C7455 C7461 1.429 . S
C7456 C7448 1.574 . S
C7456 H7451 0.949 . S
C7456 C7462 1.368 . S
C7457 C7441 1.349 . S
C7457 H7449 0.950 . S
C7457 C7455 1.327 . S
C7458 C7446 1.349 . S
C7458 H7452 0.950 . S
C7458 C7459 1.327 . S
C7459 H7453 0.950 . S
C7459 C7458 1.327 . S
C7459 C7463 1.429 . S
C7460 C7443 1.574 . S
C7460 H7454 0.949 . S
C7460 C7464 1.368 . S
C7461 C7442 1.429 . S
C7461 C7455 1.429 . S
C7461 C7462 1.523 . S
C7462 C7443 1.368 . S
C7462 C7456 1.368 . S
C7462 C7461 1.523 . S
C7463 C7447 1.429 . S
C7463 C7459 1.429 . S
C7463 C7464 1.523 . S
C7464 C7448 1.368 . S
C7464 C7460 1.368 . S
C7464 C7463 1.523 . S
H7465 C7440 0.950 . S
H7466 C7442 0.950 . S
H7467 C7443 0.949 . S
H7468 C7445 0.950 . S
H7469 C7447 0.950 . S
C7470 C7471 1.349 . S
C7470 C7472 1.327 . S
C7470 H7495 0.950 . S
C7471 C7470 1.349 . S
C7471 C7487 1.349 . S
C7472 C7470 1.327 . S
C7472 C7491 1.429 . S
C7472 H7496 0.950 . S
C7473 C7490 1.574 . S
C7473 C7492 1.368 . S
C7473 H7497 0.949 . S
H7474 C7478 0.949 . S
C7475 C7476 1.349 . S
C7475 C7477 1.327 . S
C7475 H7498 0.950 . S
C7476 C7475 1.349 . S
C7476 C7488 1.349 . S
C7477 C7475 1.327 . S
C7477 C7493 1.429 . S
C7477 H7499 0.950 . S
C7478 H7474 0.949 . S
C7478 C7486 1.574 . S
C7478 C7494 1.368 . S
H7479 C7487 0.950 . S
H7480 C7485 0.950 . S
H7481 C7486 0.949 . S
H7482 C7488 0.950 . S
H7483 C7489 0.950 . S
H7484 C7490 0.949 . S
C7485 H7480 0.950 . S
C7485 C7487 1.327 . S
C7485 C7491 1.429 . S
C7486 C7478 1.574 . S
C7486 H7481 0.949 . S
C7486 C7492 1.368 . S
C7487 C7471 1.349 . S
C7487 H7479 0.950 . S
C7487 C7485 1.327 . S
C7488 C7476 1.349 . S
C7488 H7482 0.950 . S
C7488 C7489 1.327 . S
C7489 H7483 0.950 . S
C7489 C7488 1.327 . S
C7489 C7493 1.429 . S
C7490 C7473 1.574 . S
C7490 H7484 0.949 . S
C7490 C7494 1.368 . S
C7491 C7472 1.429 . S
C7491 C7485 1.429 . S
C7491 C7492 1.523 . S
C7492 C7473 1.368 . S
C7492 C7486 1.368 . S
C7492 C7491 1.523 . S
C7493 C7477 1.429 . S
C7493 C7489 1.429 . S
C7493 C7494 1.523 . S
C7494 C7478 1.368 . S
C7494 C7490 1.368 . S
C7494 C7493 1.523 . S
H7495 C7470 0.950 . S
H7496 C7472 0.950 . S
H7497 C7473 0.949 . S
H7498 C7475 0.950 . S
H7499 C7477 0.950 . S
C7500 C7501 1.349 . S
C7500 C7502 1.327 . S
C7500 H7525 0.950 . S
C7501 C7500 1.349 . S
C7501 C7517 1.349 . S
C7502 C7500 1.327 . S
C7502 C7521 1.429 . S
C7502 H7526 0.950 . S
C7503 C7520 1.574 . S
C7503 C7522 1.368 . S
C7503 H7527 0.949 . S
H7504 C7508 0.949 . S
C7505 C7506 1.349 . S
C7505 C7507 1.327 . S
C7505 H7528 0.950 . S
C7506 C7505 1.349 . S
C7506 C7518 1.349 . S
C7507 C7505 1.327 . S
C7507 C7523 1.429 . S
C7507 H7529 0.950 . S
C7508 H7504 0.949 . S
C7508 C7516 1.574 . S
C7508 C7524 1.368 . S
H7509 C7517 0.950 . S
H7510 C7515 0.950 . S
H7511 C7516 0.949 . S
H7512 C7518 0.950 . S
H7513 C7519 0.950 . S
H7514 C7520 0.949 . S
C7515 H7510 0.950 . S
C7515 C7517 1.327 . S
C7515 C7521 1.429 . S
C7516 C7508 1.574 . S
C7516 H7511 0.949 . S
C7516 C7522 1.368 . S
C7517 C7501 1.349 . S
C7517 H7509 0.950 . S
C7517 C7515 1.327 . S
C7518 C7506 1.349 . S
C7518 H7512 0.950 . S
C7518 C7519 1.327 . S
C7519 H7513 0.950 . S
C7519 C7518 1.327 . S
C7519 C7523 1.429 . S
C7520 C7503 1.574 . S
C7520 H7514 0.949 . S
C7520 C7524 1.368 . S
C7521 C7502 1.429 . S
C7521 C7515 1.429 . S
C7521 C7522 1.523 . S
C7522 C7503 1.368 . S
C7522 C7516 1.368 . S
C7522 C7521 1.523 . S
C7523 C7507 1.429 . S
C7523 C7519 1.429 . S
C7523 C7524 1.523 . S
C7524 C7508 1.368 . S
C7524 C7520 1.368 . S
C7524 C7523 1.523 . S
H7525 C7500 0.950 . S
H7526 C7502 0.950 . S
H7527 C7503 0.949 . S
H7528 C7505 0.950 . S
H7529 C7507 0.950 . S
C7530 C7531 1.349 . S
C7530 C7532 1.327 . S
C7530 H7555 0.950 . S
C7531 C7530 1.349 . S
C7531 C7547 1.349 . S
C7532 C7530 1.327 . S
C7532 C7551 1.429 . S
C7532 H7556 0.950 . S
C7533 C7550 1.574 . S
C7533 C7552 1.368 . S
C7533 H7557 0.949 . S
H7534 C7538 0.949 . S
C7535 C7536 1.349 . S
C7535 C7537 1.327 . S
C7535 H7558 0.950 . S
C7536 C7535 1.349 . S
C7536 C7548 1.349 . S
C7537 C7535 1.327 . S
C7537 C7553 1.429 . S
C7537 H7559 0.950 . S
C7538 H7534 0.949 . S
C7538 C7546 1.574 . S
C7538 C7554 1.368 . S
H7539 C7547 0.950 . S
H7540 C7545 0.950 . S
H7541 C7546 0.949 . S
H7542 C7548 0.950 . S
H7543 C7549 0.950 . S
H7544 C7550 0.949 . S
C7545 H7540 0.950 . S
C7545 C7547 1.327 . S
C7545 C7551 1.429 . S
C7546 C7538 1.574 . S
C7546 H7541 0.949 . S
C7546 C7552 1.368 . S
C7547 C7531 1.349 . S
C7547 H7539 0.950 . S
C7547 C7545 1.327 . S
C7548 C7536 1.349 . S
C7548 H7542 0.950 . S
C7548 C7549 1.327 . S
C7549 H7543 0.950 . S
C7549 C7548 1.327 . S
C7549 C7553 1.429 . S
C7550 C7533 1.574 . S
C7550 H7544 0.949 . S
C7550 C7554 1.368 . S
C7551 C7532 1.429 . S
C7551 C7545 1.429 . S
C7551 C7552 1.523 . S
C7552 C7533 1.368 . S
C7552 C7546 1.368 . S
C7552 C7551 1.523 . S
C7553 C7537 1.429 . S
C7553 C7549 1.429 . S
C7553 C7554 1.523 . S
C7554 C7538 1.368 . S
C7554 C7550 1.368 . S
C7554 C7553 1.523 . S
H7555 C7530 0.950 . S
H7556 C7532 0.950 . S
H7557 C7533 0.949 . S
H7558 C7535 0.950 . S
H7559 C7537 0.950 . S
C7560 C7561 1.349 . S
C7560 C7562 1.327 . S
C7560 H7585 0.950 . S
C7561 C7560 1.349 . S
C7561 C7577 1.349 . S
C7562 C7560 1.327 . S
C7562 C7581 1.429 . S
C7562 H7586 0.950 . S
C7563 C7580 1.574 . S
C7563 C7582 1.368 . S
C7563 H7587 0.949 . S
H7564 C7568 0.949 . S
C7565 C7566 1.349 . S
C7565 C7567 1.327 . S
C7565 H7588 0.950 . S
C7566 C7565 1.349 . S
C7566 C7578 1.349 . S
C7567 C7565 1.327 . S
C7567 C7583 1.429 . S
C7567 H7589 0.950 . S
C7568 H7564 0.949 . S
C7568 C7576 1.574 . S
C7568 C7584 1.368 . S
H7569 C7577 0.950 . S
H7570 C7575 0.950 . S
H7571 C7576 0.949 . S
H7572 C7578 0.950 . S
H7573 C7579 0.950 . S
H7574 C7580 0.949 . S
C7575 H7570 0.950 . S
C7575 C7577 1.327 . S
C7575 C7581 1.429 . S
C7576 C7568 1.574 . S
C7576 H7571 0.949 . S
C7576 C7582 1.368 . S
C7577 C7561 1.349 . S
C7577 H7569 0.950 . S
C7577 C7575 1.327 . S
C7578 C7566 1.349 . S
C7578 H7572 0.950 . S
C7578 C7579 1.327 . S
C7579 H7573 0.950 . S
C7579 C7578 1.327 . S
C7579 C7583 1.429 . S
C7580 C7563 1.574 . S
C7580 H7574 0.949 . S
C7580 C7584 1.368 . S
C7581 C7562 1.429 . S
C7581 C7575 1.429 . S
C7581 C7582 1.523 . S
C7582 C7563 1.368 . S
C7582 C7576 1.368 . S
C7582 C7581 1.523 . S
C7583 C7567 1.429 . S
C7583 C7579 1.429 . S
C7583 C7584 1.523 . S
C7584 C7568 1.368 . S
C7584 C7580 1.368 . S
C7584 C7583 1.523 . S
H7585 C7560 0.950 . S
H7586 C7562 0.950 . S
H7587 C7563 0.949 . S
H7588 C7565 0.950 . S
H7589 C7567 0.950 . S
C7590 C7591 1.349 . S
C7590 C7592 1.327 . S
C7590 H7615 0.950 . S
C7591 C7590 1.349 . S
C7591 C7607 1.349 . S
C7592 C7590 1.327 . S
C7592 C7611 1.429 . S
C7592 H7616 0.950 . S
C7593 C7610 1.574 . S
C7593 C7612 1.368 . S
C7593 H7617 0.949 . S
H7594 C7598 0.949 . S
C7595 C7596 1.349 . S
C7595 C7597 1.327 . S
C7595 H7618 0.950 . S
C7596 C7595 1.349 . S
C7596 C7608 1.349 . S
C7597 C7595 1.327 . S
C7597 C7613 1.429 . S
C7597 H7619 0.950 . S
C7598 H7594 0.949 . S
C7598 C7606 1.574 . S
C7598 C7614 1.368 . S
H7599 C7607 0.950 . S
H7600 C7605 0.950 . S
H7601 C7606 0.949 . S
H7602 C7608 0.950 . S
H7603 C7609 0.950 . S
H7604 C7610 0.949 . S
C7605 H7600 0.950 . S
C7605 C7607 1.327 . S
C7605 C7611 1.429 . S
C7606 C7598 1.574 . S
C7606 H7601 0.949 . S
C7606 C7612 1.368 . S
C7607 C7591 1.349 . S
C7607 H7599 0.950 . S
C7607 C7605 1.327 . S
C7608 C7596 1.349 . S
C7608 H7602 0.950 . S
C7608 C7609 1.327 . S
C7609 H7603 0.950 . S
C7609 C7608 1.327 . S
C7609 C7613 1.429 . S
C7610 C7593 1.574 . S
C7610 H7604 0.949 . S
C7610 C7614 1.368 . S
C7611 C7592 1.429 . S
C7611 C7605 1.429 . S
C7611 C7612 1.523 . S
C7612 C7593 1.368 . S
C7612 C7606 1.368 . S
C7612 C7611 1.523 . S
C7613 C7597 1.429 . S
C7613 C7609 1.429 . S
C7613 C7614 1.523 . S
C7614 C7598 1.368 . S
C7614 C7610 1.368 . S
C7614 C7613 1.523 . S
H7615 C7590 0.950 . S
H7616 C7592 0.950 . S
H7617 C7593 0.949 . S
H7618 C7595 0.950 . S
H7619 C7597 0.950 . S
C7620 C7621 1.349 . S
C7620 C7622 1.327 . S
C7620 H7645 0.950 . S
C7621 C7620 1.349 . S
C7621 C7637 1.349 . S
C7622 C7620 1.327 . S
C7622 C7641 1.429 . S
C7622 H7646 0.950 . S
C7623 C7640 1.574 . S
C7623 C7642 1.368 . S
C7623 H7647 0.949 . S
H7624 C7628 0.949 . S
C7625 C7626 1.349 . S
C7625 C7627 1.327 . S
C7625 H7648 0.950 . S
C7626 C7625 1.349 . S
C7626 C7638 1.349 . S
C7627 C7625 1.327 . S
C7627 C7643 1.429 . S
C7627 H7649 0.950 . S
C7628 H7624 0.949 . S
C7628 C7636 1.574 . S
C7628 C7644 1.368 . S
H7629 C7637 0.950 . S
H7630 C7635 0.950 . S
H7631 C7636 0.949 . S
H7632 C7638 0.950 . S
H7633 C7639 0.950 . S
H7634 C7640 0.949 . S
C7635 H7630 0.950 . S
C7635 C7637 1.327 . S
C7635 C7641 1.429 . S
C7636 C7628 1.574 . S
C7636 H7631 0.949 . S
C7636 C7642 1.368 . S
C7637 C7621 1.349 . S
C7637 H7629 0.950 . S
C7637 C7635 1.327 . S
C7638 C7626 1.349 . S
C7638 H7632 0.950 . S
C7638 C7639 1.327 . S
C7639 H7633 0.950 . S
C7639 C7638 1.327 . S
C7639 C7643 1.429 . S
C7640 C7623 1.574 . S
C7640 H7634 0.949 . S
C7640 C7644 1.368 . S
C7641 C7622 1.429 . S
C7641 C7635 1.429 . S
C7641 C7642 1.523 . S
C7642 C7623 1.368 . S
C7642 C7636 1.368 . S
C7642 C7641 1.523 . S
C7643 C7627 1.429 . S
C7643 C7639 1.429 . S
C7643 C7644 1.523 . S
C7644 C7628 1.368 . S
C7644 C7640 1.368 . S
C7644 C7643 1.523 . S
H7645 C7620 0.950 . S
H7646 C7622 0.950 . S
H7647 C7623 0.949 . S
H7648 C7625 0.950 . S
H7649 C7627 0.950 . S
C7650 C7651 1.349 . S
C7650 C7652 1.327 . S
C7650 H7675 0.950 . S
C7651 C7650 1.349 . S
C7651 C7667 1.349 . S
C7652 C7650 1.327 . S
C7652 C7671 1.429 . S
C7652 H7676 0.950 . S
C7653 C7670 1.574 . S
C7653 C7672 1.368 . S
C7653 H7677 0.949 . S
H7654 C7658 0.949 . S
C7655 C7656 1.349 . S
C7655 C7657 1.327 . S
C7655 H7678 0.950 . S
C7656 C7655 1.349 . S
C7656 C7668 1.349 . S
C7657 C7655 1.327 . S
C7657 C7673 1.429 . S
C7657 H7679 0.950 . S
C7658 H7654 0.949 . S
C7658 C7666 1.574 . S
C7658 C7674 1.368 . S
H7659 C7667 0.950 . S
H7660 C7665 0.950 . S
H7661 C7666 0.949 . S
H7662 C7668 0.950 . S
H7663 C7669 0.950 . S
H7664 C7670 0.949 . S
C7665 H7660 0.950 . S
C7665 C7667 1.327 . S
C7665 C7671 1.429 . S
C7666 C7658 1.574 . S
C7666 H7661 0.949 . S
C7666 C7672 1.368 . S
C7667 C7651 1.349 . S
C7667 H7659 0.950 . S
C7667 C7665 1.327 . S
C7668 C7656 1.349 . S
C7668 H7662 0.950 . S
C7668 C7669 1.327 . S
C7669 H7663 0.950 . S
C7669 C7668 1.327 . S
C7669 C7673 1.429 . S
C7670 C7653 1.574 . S
C7670 H7664 0.949 . S
C7670 C7674 1.368 . S
C7671 C7652 1.429 . S
C7671 C7665 1.429 . S
C7671 C7672 1.523 . S
C7672 C7653 1.368 . S
C7672 C7666 1.368 . S
C7672 C7671 1.523 . S
C7673 C7657 1.429 . S
C7673 C7669 1.429 . S
C7673 C7674 1.523 . S
C7674 C7658 1.368 . S
C7674 C7670 1.368 . S
C7674 C7673 1.523 . S
H7675 C7650 0.950 . S
H7676 C7652 0.950 . S
H7677 C7653 0.949 . S
H7678 C7655 0.950 . S
H7679 C7657 0.950 . S
C7680 C7681 1.349 . S
C7680 C7682 1.327 . S
C7680 H7705 0.950 . S
C7681 C7680 1.349 . S
C7681 C7697 1.349 . S
C7682 C7680 1.327 . S
C7682 C7701 1.429 . S
C7682 H7706 0.950 . S
C7683 C7700 1.574 . S
C7683 C7702 1.368 . S
C7683 H7707 0.949 . S
H7684 C7688 0.949 . S
C7685 C7686 1.349 . S
C7685 C7687 1.327 . S
C7685 H7708 0.950 . S
C7686 C7685 1.349 . S
C7686 C7698 1.349 . S
C7687 C7685 1.327 . S
C7687 C7703 1.429 . S
C7687 H7709 0.950 . S
C7688 H7684 0.949 . S
C7688 C7696 1.574 . S
C7688 C7704 1.368 . S
H7689 C7697 0.950 . S
H7690 C7695 0.950 . S
H7691 C7696 0.949 . S
H7692 C7698 0.950 . S
H7693 C7699 0.950 . S
H7694 C7700 0.949 . S
C7695 H7690 0.950 . S
C7695 C7697 1.327 . S
C7695 C7701 1.429 . S
C7696 C7688 1.574 . S
C7696 H7691 0.949 . S
C7696 C7702 1.368 . S
C7697 C7681 1.349 . S
C7697 H7689 0.950 . S
C7697 C7695 1.327 . S
C7698 C7686 1.349 . S
C7698 H7692 0.950 . S
C7698 C7699 1.327 . S
C7699 H7693 0.950 . S
C7699 C7698 1.327 . S
C7699 C7703 1.429 . S
C7700 C7683 1.574 . S
C7700 H7694 0.949 . S
C7700 C7704 1.368 . S
C7701 C7682 1.429 . S
C7701 C7695 1.429 . S
C7701 C7702 1.523 . S
C7702 C7683 1.368 . S
C7702 C7696 1.368 . S
C7702 C7701 1.523 . S
C7703 C7687 1.429 . S
C7703 C7699 1.429 . S
C7703 C7704 1.523 . S
C7704 C7688 1.368 . S
C7704 C7700 1.368 . S
C7704 C7703 1.523 . S
H7705 C7680 0.950 . S
H7706 C7682 0.950 . S
H7707 C7683 0.949 . S
H7708 C7685 0.950 . S
H7709 C7687 0.950 . S
C7710 C7711 1.349 . S
C7710 C7712 1.327 . S
C7710 H7735 0.950 . S
C7711 C7710 1.349 . S
C7711 C7727 1.349 . S
C7712 C7710 1.327 . S
C7712 C7731 1.429 . S
C7712 H7736 0.950 . S
C7713 C7730 1.574 . S
C7713 C7732 1.368 . S
C7713 H7737 0.949 . S
H7714 C7718 0.949 . S
C7715 C7716 1.349 . S
C7715 C7717 1.327 . S
C7715 H7738 0.950 . S
C7716 C7715 1.349 . S
C7716 C7728 1.349 . S
C7717 C7715 1.327 . S
C7717 C7733 1.429 . S
C7717 H7739 0.950 . S
C7718 H7714 0.949 . S
C7718 C7726 1.574 . S
C7718 C7734 1.368 . S
H7719 C7727 0.950 . S
H7720 C7725 0.950 . S
H7721 C7726 0.949 . S
H7722 C7728 0.950 . S
H7723 C7729 0.950 . S
H7724 C7730 0.949 . S
C7725 H7720 0.950 . S
C7725 C7727 1.327 . S
C7725 C7731 1.429 . S
C7726 C7718 1.574 . S
C7726 H7721 0.949 . S
C7726 C7732 1.368 . S
C7727 C7711 1.349 . S
C7727 H7719 0.950 . S
C7727 C7725 1.327 . S
C7728 C7716 1.349 . S
C7728 H7722 0.950 . S
C7728 C7729 1.327 . S
C7729 H7723 0.950 . S
C7729 C7728 1.327 . S
C7729 C7733 1.429 . S
C7730 C7713 1.574 . S
C7730 H7724 0.949 . S
C7730 C7734 1.368 . S
C7731 C7712 1.429 . S
C7731 C7725 1.429 . S
C7731 C7732 1.523 . S
C7732 C7713 1.368 . S
C7732 C7726 1.368 . S
C7732 C7731 1.523 . S
C7733 C7717 1.429 . S
C7733 C7729 1.429 . S
C7733 C7734 1.523 . S
C7734 C7718 1.368 . S
C7734 C7730 1.368 . S
C7734 C7733 1.523 . S
H7735 C7710 0.950 . S
H7736 C7712 0.950 . S
H7737 C7713 0.949 . S
H7738 C7715 0.950 . S
H7739 C7717 0.950 . S
C7740 C7741 1.349 . S
C7740 C7742 1.327 . S
C7740 H7765 0.950 . S
C7741 C7740 1.349 . S
C7741 C7757 1.349 . S
C7742 C7740 1.327 . S
C7742 C7761 1.429 . S
C7742 H7766 0.950 . S
C7743 C7760 1.574 . S
C7743 C7762 1.368 . S
C7743 H7767 0.949 . S
H7744 C7748 0.949 . S
C7745 C7746 1.349 . S
C7745 C7747 1.327 . S
C7745 H7768 0.950 . S
C7746 C7745 1.349 . S
C7746 C7758 1.349 . S
C7747 C7745 1.327 . S
C7747 C7763 1.429 . S
C7747 H7769 0.950 . S
C7748 H7744 0.949 . S
C7748 C7756 1.574 . S
C7748 C7764 1.368 . S
H7749 C7757 0.950 . S
H7750 C7755 0.950 . S
H7751 C7756 0.949 . S
H7752 C7758 0.950 . S
H7753 C7759 0.950 . S
H7754 C7760 0.949 . S
C7755 H7750 0.950 . S
C7755 C7757 1.327 . S
C7755 C7761 1.429 . S
C7756 C7748 1.574 . S
C7756 H7751 0.949 . S
C7756 C7762 1.368 . S
C7757 C7741 1.349 . S
C7757 H7749 0.950 . S
C7757 C7755 1.327 . S
C7758 C7746 1.349 . S
C7758 H7752 0.950 . S
C7758 C7759 1.327 . S
C7759 H7753 0.950 . S
C7759 C7758 1.327 . S
C7759 C7763 1.429 . S
C7760 C7743 1.574 . S
C7760 H7754 0.949 . S
C7760 C7764 1.368 . S
C7761 C7742 1.429 . S
C7761 C7755 1.429 . S
C7761 C7762 1.523 . S
C7762 C7743 1.368 . S
C7762 C7756 1.368 . S
C7762 C7761 1.523 . S
C7763 C7747 1.429 . S
C7763 C7759 1.429 . S
C7763 C7764 1.523 . S
C7764 C7748 1.368 . S
C7764 C7760 1.368 . S
C7764 C7763 1.523 . S
H7765 C7740 0.950 . S
H7766 C7742 0.950 . S
H7767 C7743 0.949 . S
H7768 C7745 0.950 . S
H7769 C7747 0.950 . S
C7770 C7771 1.349 . S
C7770 C7772 1.327 . S
C7770 H7795 0.950 . S
C7771 C7770 1.349 . S
C7771 C7787 1.349 . S
C7772 C7770 1.327 . S
C7772 C7791 1.429 . S
C7772 H7796 0.950 . S
C7773 C7790 1.574 . S
C7773 C7792 1.368 . S
C7773 H7797 0.949 . S
H7774 C7778 0.949 . S
C7775 C7776 1.349 . S
C7775 C7777 1.327 . S
C7775 H7798 0.950 . S
C7776 C7775 1.349 . S
C7776 C7788 1.349 . S
C7777 C7775 1.327 . S
C7777 C7793 1.429 . S
C7777 H7799 0.950 . S
C7778 H7774 0.949 . S
C7778 C7786 1.574 . S
C7778 C7794 1.368 . S
H7779 C7787 0.950 . S
H7780 C7785 0.950 . S
H7781 C7786 0.949 . S
H7782 C7788 0.950 . S
H7783 C7789 0.950 . S
H7784 C7790 0.949 . S
C7785 H7780 0.950 . S
C7785 C7787 1.327 . S
C7785 C7791 1.429 . S
C7786 C7778 1.574 . S
C7786 H7781 0.949 . S
C7786 C7792 1.368 . S
C7787 C7771 1.349 . S
C7787 H7779 0.950 . S
C7787 C7785 1.327 . S
C7788 C7776 1.349 . S
C7788 H7782 0.950 . S
C7788 C7789 1.327 . S
C7789 H7783 0.950 . S
C7789 C7788 1.327 . S
C7789 C7793 1.429 . S
C7790 C7773 1.574 . S
C7790 H7784 0.949 . S
C7790 C7794 1.368 . S
C7791 C7772 1.429 . S
C7791 C7785 1.429 . S
C7791 C7792 1.523 . S
C7792 C7773 1.368 . S
C7792 C7786 1.368 . S
C7792 C7791 1.523 . S
C7793 C7777 1.429 . S
C7793 C7789 1.429 . S
C7793 C7794 1.523 . S
C7794 C7778 1.368 . S
C7794 C7790 1.368 . S
C7794 C7793 1.523 . S
H7795 C7770 0.950 . S
H7796 C7772 0.950 . S
H7797 C7773 0.949 . S
H7798 C7775 0.950 . S
H7799 C7777 0.950 . S
C7800 C7801 1.349 . S
C7800 C7802 1.327 . S
C7800 H7825 0.950 . S
C7801 C7800 1.349 . S
C7801 C7817 1.349 . S
C7802 C7800 1.327 . S
C7802 C7821 1.429 . S
C7802 H7826 0.950 . S
C7803 C7820 1.574 . S
C7803 C7822 1.368 . S
C7803 H7827 0.949 . S
H7804 C7808 0.949 . S
C7805 C7806 1.349 . S
C7805 C7807 1.327 . S
C7805 H7828 0.950 . S
C7806 C7805 1.349 . S
C7806 C7818 1.349 . S
C7807 C7805 1.327 . S
C7807 C7823 1.429 . S
C7807 H7829 0.950 . S
C7808 H7804 0.949 . S
C7808 C7816 1.574 . S
C7808 C7824 1.368 . S
H7809 C7817 0.950 . S
H7810 C7815 0.950 . S
H7811 C7816 0.949 . S
H7812 C7818 0.950 . S
H7813 C7819 0.950 . S
H7814 C7820 0.949 . S
C7815 H7810 0.950 . S
C7815 C7817 1.327 . S
C7815 C7821 1.429 . S
C7816 C7808 1.574 . S
C7816 H7811 0.949 . S
C7816 C7822 1.368 . S
C7817 C7801 1.349 . S
C7817 H7809 0.950 . S
C7817 C7815 1.327 . S
C7818 C7806 1.349 . S
C7818 H7812 0.950 . S
C7818 C7819 1.327 . S
C7819 H7813 0.950 . S
C7819 C7818 1.327 . S
C7819 C7823 1.429 . S
C7820 C7803 1.574 . S
C7820 H7814 0.949 . S
C7820 C7824 1.368 . S
C7821 C7802 1.429 . S
C7821 C7815 1.429 . S
C7821 C7822 1.523 . S
C7822 C7803 1.368 . S
C7822 C7816 1.368 . S
C7822 C7821 1.523 . S
C7823 C7807 1.429 . S
C7823 C7819 1.429 . S
C7823 C7824 1.523 . S
C7824 C7808 1.368 . S
C7824 C7820 1.368 . S
C7824 C7823 1.523 . S
H7825 C7800 0.950 . S
H7826 C7802 0.950 . S
H7827 C7803 0.949 . S
H7828 C7805 0.950 . S
H7829 C7807 0.950 . S
C7830 C7831 1.349 . S
C7830 C7832 1.327 . S
C7830 H7855 0.950 . S
C7831 C7830 1.349 . S
C7831 C7847 1.349 . S
C7832 C7830 1.327 . S
C7832 C7851 1.429 . S
C7832 H7856 0.950 . S
C7833 C7850 1.574 . S
C7833 C7852 1.368 . S
C7833 H7857 0.949 . S
H7834 C7838 0.949 . S
C7835 C7836 1.349 . S
C7835 C7837 1.327 . S
C7835 H7858 0.950 . S
C7836 C7835 1.349 . S
C7836 C7848 1.349 . S
C7837 C7835 1.327 . S
C7837 C7853 1.429 . S
C7837 H7859 0.950 . S
C7838 H7834 0.949 . S
C7838 C7846 1.574 . S
C7838 C7854 1.368 . S
H7839 C7847 0.950 . S
H7840 C7845 0.950 . S
H7841 C7846 0.949 . S
H7842 C7848 0.950 . S
H7843 C7849 0.950 . S
H7844 C7850 0.949 . S
C7845 H7840 0.950 . S
C7845 C7847 1.327 . S
C7845 C7851 1.429 . S
C7846 C7838 1.574 . S
C7846 H7841 0.949 . S
C7846 C7852 1.368 . S
C7847 C7831 1.349 . S
C7847 H7839 0.950 . S
C7847 C7845 1.327 . S
C7848 C7836 1.349 . S
C7848 H7842 0.950 . S
C7848 C7849 1.327 . S
C7849 H7843 0.950 . S
C7849 C7848 1.327 . S
C7849 C7853 1.429 . S
C7850 C7833 1.574 . S
C7850 H7844 0.949 . S
C7850 C7854 1.368 . S
C7851 C7832 1.429 . S
C7851 C7845 1.429 . S
C7851 C7852 1.523 . S
C7852 C7833 1.368 . S
C7852 C7846 1.368 . S
C7852 C7851 1.523 . S
C7853 C7837 1.429 . S
C7853 C7849 1.429 . S
C7853 C7854 1.523 . S
C7854 C7838 1.368 . S
C7854 C7850 1.368 . S
C7854 C7853 1.523 . S
H7855 C7830 0.950 . S
H7856 C7832 0.950 . S
H7857 C7833 0.949 . S
H7858 C7835 0.950 . S
H7859 C7837 0.950 . S
C7860 C7861 1.349 . S
C7860 C7862 1.327 . S
C7860 H7885 0.950 . S
C7861 C7860 1.349 . S
C7861 C7877 1.349 . S
C7862 C7860 1.327 . S
C7862 C7881 1.429 . S
C7862 H7886 0.950 . S
C7863 C7880 1.574 . S
C7863 C7882 1.368 . S
C7863 H7887 0.949 . S
H7864 C7868 0.949 . S
C7865 C7866 1.349 . S
C7865 C7867 1.327 . S
C7865 H7888 0.950 . S
C7866 C7865 1.349 . S
C7866 C7878 1.349 . S
C7867 C7865 1.327 . S
C7867 C7883 1.429 . S
C7867 H7889 0.950 . S
C7868 H7864 0.949 . S
C7868 C7876 1.574 . S
C7868 C7884 1.368 . S
H7869 C7877 0.950 . S
H7870 C7875 0.950 . S
H7871 C7876 0.949 . S
H7872 C7878 0.950 . S
H7873 C7879 0.950 . S
H7874 C7880 0.949 . S
C7875 H7870 0.950 . S
C7875 C7877 1.327 . S
C7875 C7881 1.429 . S
C7876 C7868 1.574 . S
C7876 H7871 0.949 . S
C7876 C7882 1.368 . S
C7877 C7861 1.349 . S
C7877 H7869 0.950 . S
C7877 C7875 1.327 . S
C7878 C7866 1.349 . S
C7878 H7872 0.950 . S
C7878 C7879 1.327 . S
C7879 H7873 0.950 . S
C7879 C7878 1.327 . S
C7879 C7883 1.429 . S
C7880 C7863 1.574 . S
C7880 H7874 0.949 . S
C7880 C7884 1.368 . S
C7881 C7862 1.429 . S
C7881 C7875 1.429 . S
C7881 C7882 1.523 . S
C7882 C7863 1.368 . S
C7882 C7876 1.368 . S
C7882 C7881 1.523 . S
C7883 C7867 1.429 . S
C7883 C7879 1.429 . S
C7883 C7884 1.523 . S
C7884 C7868 1.368 . S
C7884 C7880 1.368 . S
C7884 C7883 1.523 . S
H7885 C7860 0.950 . S
H7886 C7862 0.950 . S
H7887 C7863 0.949 . S
H7888 C7865 0.950 . S
H7889 C7867 0.950 . S
C7890 C7891 1.349 . S
C7890 C7892 1.327 . S
C7890 H7915 0.950 . S
C7891 C7890 1.349 . S
C7891 C7907 1.349 . S
C7892 C7890 1.327 . S
C7892 C7911 1.429 . S
C7892 H7916 0.950 . S
C7893 C7910 1.574 . S
C7893 C7912 1.368 . S
C7893 H7917 0.949 . S
H7894 C7898 0.949 . S
C7895 C7896 1.349 . S
C7895 C7897 1.327 . S
C7895 H7918 0.950 . S
C7896 C7895 1.349 . S
C7896 C7908 1.349 . S
C7897 C7895 1.327 . S
C7897 C7913 1.429 . S
C7897 H7919 0.950 . S
C7898 H7894 0.949 . S
C7898 C7906 1.574 . S
C7898 C7914 1.368 . S
H7899 C7907 0.950 . S
H7900 C7905 0.950 . S
H7901 C7906 0.949 . S
H7902 C7908 0.950 . S
H7903 C7909 0.950 . S
H7904 C7910 0.949 . S
C7905 H7900 0.950 . S
C7905 C7907 1.327 . S
C7905 C7911 1.429 . S
C7906 C7898 1.574 . S
C7906 H7901 0.949 . S
C7906 C7912 1.368 . S
C7907 C7891 1.349 . S
C7907 H7899 0.950 . S
C7907 C7905 1.327 . S
C7908 C7896 1.349 . S
C7908 H7902 0.950 . S
C7908 C7909 1.327 . S
C7909 H7903 0.950 . S
C7909 C7908 1.327 . S
C7909 C7913 1.429 . S
C7910 C7893 1.574 . S
C7910 H7904 0.949 . S
C7910 C7914 1.368 . S
C7911 C7892 1.429 . S
C7911 C7905 1.429 . S
C7911 C7912 1.523 . S
C7912 C7893 1.368 . S
C7912 C7906 1.368 . S
C7912 C7911 1.523 . S
C7913 C7897 1.429 . S
C7913 C7909 1.429 . S
C7913 C7914 1.523 . S
C7914 C7898 1.368 . S
C7914 C7910 1.368 . S
C7914 C7913 1.523 . S
H7915 C7890 0.950 . S
H7916 C7892 0.950 . S
H7917 C7893 0.949 . S
H7918 C7895 0.950 . S
H7919 C7897 0.950 . S
C7920 C7921 1.349 . S
C7920 C7922 1.327 . S
C7920 H7945 0.950 . S
C7921 C7920 1.349 . S
C7921 C7937 1.349 . S
C7922 C7920 1.327 . S
C7922 C7941 1.429 . S
C7922 H7946 0.950 . S
C7923 C7940 1.574 . S
C7923 C7942 1.368 . S
C7923 H7947 0.949 . S
H7924 C7928 0.949 . S
C7925 C7926 1.349 . S
C7925 C7927 1.327 . S
C7925 H7948 0.950 . S
C7926 C7925 1.349 . S
C7926 C7938 1.349 . S
C7927 C7925 1.327 . S
C7927 C7943 1.429 . S
C7927 H7949 0.950 . S
C7928 H7924 0.949 . S
C7928 C7936 1.574 . S
C7928 C7944 1.368 . S
H7929 C7937 0.950 . S
H7930 C7935 0.950 . S
H7931 C7936 0.949 . S
H7932 C7938 0.950 . S
H7933 C7939 0.950 . S
H7934 C7940 0.949 . S
C7935 H7930 0.950 . S
C7935 C7937 1.327 . S
C7935 C7941 1.429 . S
C7936 C7928 1.574 . S
C7936 H7931 0.949 . S
C7936 C7942 1.368 . S
C7937 C7921 1.349 . S
C7937 H7929 0.950 . S
C7937 C7935 1.327 . S
C7938 C7926 1.349 . S
C7938 H7932 0.950 . S
C7938 C7939 1.327 . S
C7939 H7933 0.950 . S
C7939 C7938 1.327 . S
C7939 C7943 1.429 . S
C7940 C7923 1.574 . S
C7940 H7934 0.949 . S
C7940 C7944 1.368 . S
C7941 C7922 1.429 . S
C7941 C7935 1.429 . S
C7941 C7942 1.523 . S
C7942 C7923 1.368 . S
C7942 C7936 1.368 . S
C7942 C7941 1.523 . S
C7943 C7927 1.429 . S
C7943 C7939 1.429 . S
C7943 C7944 1.523 . S
C7944 C7928 1.368 . S
C7944 C7940 1.368 . S
C7944 C7943 1.523 . S
H7945 C7920 0.950 . S
H7946 C7922 0.950 . S
H7947 C7923 0.949 . S
H7948 C7925 0.950 . S
H7949 C7927 0.950 . S
C7950 C7951 1.349 . S
C7950 C7952 1.327 . S
C7950 H7975 0.950 . S
C7951 C7950 1.349 . S
C7951 C7967 1.349 . S
C7952 C7950 1.327 . S
C7952 C7971 1.429 . S
C7952 H7976 0.950 . S
C7953 C7970 1.574 . S
C7953 C7972 1.368 . S
C7953 H7977 0.949 . S
H7954 C7958 0.949 . S
C7955 C7956 1.349 . S
C7955 C7957 1.327 . S
C7955 H7978 0.950 . S
C7956 C7955 1.349 . S
C7956 C7968 1.349 . S
C7957 C7955 1.327 . S
C7957 C7973 1.429 . S
C7957 H7979 0.950 . S
C7958 H7954 0.949 . S
C7958 C7966 1.574 . S
C7958 C7974 1.368 . S
H7959 C7967 0.950 . S
H7960 C7965 0.950 . S
H7961 C7966 0.949 . S
H7962 C7968 0.950 . S
H7963 C7969 0.950 . S
H7964 C7970 0.949 . S
C7965 H7960 0.950 . S
C7965 C7967 1.327 . S
C7965 C7971 1.429 . S
C7966 C7958 1.574 . S
C7966 H7961 0.949 . S
C7966 C7972 1.368 . S
C7967 C7951 1.349 . S
C7967 H7959 0.950 . S
C7967 C7965 1.327 . S
C7968 C7956 1.349 . S
C7968 H7962 0.950 . S
C7968 C7969 1.327 . S
C7969 H7963 0.950 . S
C7969 C7968 1.327 . S
C7969 C7973 1.429 . S
C7970 C7953 1.574 . S
C7970 H7964 0.949 . S
C7970 C7974 1.368 . S
C7971 C7952 1.429 . S
C7971 C7965 1.429 . S
C7971 C7972 1.523 . S
C7972 C7953 1.368 . S
C7972 C7966 1.368 . S
C7972 C7971 1.523 . S
C7973 C7957 1.429 . S
C7973 C7969 1.429 . S
C7973 C7974 1.523 . S
C7974 C7958 1.368 . S
C7974 C7970 1.368 . S
C7974 C7973 1.523 . S
H7975 C7950 0.950 . S
H7976 C7952 0.950 . S
H7977 C7953 0.949 . S
H7978 C7955 0.950 . S
H7979 C7957 0.950 . S
C7980 C7981 1.349 . S
C7980 C7982 1.327 . S
C7980 H8005 0.950 . S
C7981 C7980 1.349 . S
C7981 C7997 1.349 . S
C7982 C7980 1.327 . S
C7982 C8001 1.429 . S
C7982 H8006 0.950 . S
C7983 C8000 1.574 . S
C7983 C8002 1.368 . S
C7983 H8007 0.949 . S
H7984 C7988 0.949 . S
C7985 C7986 1.349 . S
C7985 C7987 1.327 . S
C7985 H8008 0.950 . S
C7986 C7985 1.349 . S
C7986 C7998 1.349 . S
C7987 C7985 1.327 . S
C7987 C8003 1.429 . S
C7987 H8009 0.950 . S
C7988 H7984 0.949 . S
C7988 C7996 1.574 . S
C7988 C8004 1.368 . S
H7989 C7997 0.950 . S
H7990 C7995 0.950 . S
H7991 C7996 0.949 . S
H7992 C7998 0.950 . S
H7993 C7999 0.950 . S
H7994 C8000 0.949 . S
C7995 H7990 0.950 . S
C7995 C7997 1.327 . S
C7995 C8001 1.429 . S
C7996 C7988 1.574 . S
C7996 H7991 0.949 . S
C7996 C8002 1.368 . S
C7997 C7981 1.349 . S
C7997 H7989 0.950 . S
C7997 C7995 1.327 . S
C7998 C7986 1.349 . S
C7998 H7992 0.950 . S
C7998 C7999 1.327 . S
C7999 H7993 0.950 . S
C7999 C7998 1.327 . S
C7999 C8003 1.429 . S
C8000 C7983 1.574 . S
C8000 H7994 0.949 . S
C8000 C8004 1.368 . S
C8001 C7982 1.429 . S
C8001 C7995 1.429 . S
C8001 C8002 1.523 . S
C8002 C7983 1.368 . S
C8002 C7996 1.368 . S
C8002 C8001 1.523 . S
C8003 C7987 1.429 . S
C8003 C7999 1.429 . S
C8003 C8004 1.523 . S
C8004 C7988 1.368 . S
C8004 C8000 1.368 . S
C8004 C8003 1.523 . S
H8005 C7980 0.950 . S
H8006 C7982 0.950 . S
H8007 C7983 0.949 . S
H8008 C7985 0.950 . S
H8009 C7987 0.950 . S
C8010 C8011 1.349 . S
C8010 C8012 1.327 . S
C8010 H8035 0.950 . S
C8011 C8010 1.349 . S
C8011 C8027 1.349 . S
C8012 C8010 1.327 . S
C8012 C8031 1.429 . S
C8012 H8036 0.950 . S
C8013 C8030 1.574 . S
C8013 C8032 1.368 . S
C8013 H8037 0.949 . S
H8014 C8018 0.949 . S
C8015 C8016 1.349 . S
C8015 C8017 1.327 . S
C8015 H8038 0.950 . S
C8016 C8015 1.349 . S
C8016 C8028 1.349 . S
C8017 C8015 1.327 . S
C8017 C8033 1.429 . S
C8017 H8039 0.950 . S
C8018 H8014 0.949 . S
C8018 C8026 1.574 . S
C8018 C8034 1.368 . S
H8019 C8027 0.950 . S
H8020 C8025 0.950 . S
H8021 C8026 0.949 . S
H8022 C8028 0.950 . S
H8023 C8029 0.950 . S
H8024 C8030 0.949 . S
C8025 H8020 0.950 . S
C8025 C8027 1.327 . S
C8025 C8031 1.429 . S
C8026 C8018 1.574 . S
C8026 H8021 0.949 . S
C8026 C8032 1.368 . S
C8027 C8011 1.349 . S
C8027 H8019 0.950 . S
C8027 C8025 1.327 . S
C8028 C8016 1.349 . S
C8028 H8022 0.950 . S
C8028 C8029 1.327 . S
C8029 H8023 0.950 . S
C8029 C8028 1.327 . S
C8029 C8033 1.429 . S
C8030 C8013 1.574 . S
C8030 H8024 0.949 . S
C8030 C8034 1.368 . S
C8031 C8012 1.429 . S
C8031 C8025 1.429 . S
C8031 C8032 1.523 . S
C8032 C8013 1.368 . S
C8032 C8026 1.368 . S
C8032 C8031 1.523 . S
C8033 C8017 1.429 . S
C8033 C8029 1.429 . S
C8033 C8034 1.523 . S
C8034 C8018 1.368 . S
C8034 C8030 1.368 . S
C8034 C8033 1.523 . S
H8035 C8010 0.950 . S
H8036 C8012 0.950 . S
H8037 C8013 0.949 . S
H8038 C8015 0.950 . S
H8039 C8017 0.950 . S
C8040 C8041 1.349 . S
C8040 C8042 1.327 . S
C8040 H8065 0.950 . S
C8041 C8040 1.349 . S
C8041 C8057 1.349 . S
C8042 C8040 1.327 . S
C8042 C8061 1.429 . S
C8042 H8066 0.950 . S
C8043 C8060 1.574 . S
C8043 C8062 1.368 . S
C8043 H8067 0.949 . S
H8044 C8048 0.949 . S
C8045 C8046 1.349 . S
C8045 C8047 1.327 . S
C8045 H8068 0.950 . S
C8046 C8045 1.349 . S
C8046 C8058 1.349 . S
C8047 C8045 1.327 . S
C8047 C8063 1.429 . S
C8047 H8069 0.950 . S
C8048 H8044 0.949 . S
C8048 C8056 1.574 . S
C8048 C8064 1.368 . S
H8049 C8057 0.950 . S
H8050 C8055 0.950 . S
H8051 C8056 0.949 . S
H8052 C8058 0.950 . S
H8053 C8059 0.950 . S
H8054 C8060 0.949 . S
C8055 H8050 0.950 . S
C8055 C8057 1.327 . S
C8055 C8061 1.429 . S
C8056 C8048 1.574 . S
C8056 H8051 0.949 . S
C8056 C8062 1.368 . S
C8057 C8041 1.349 . S
C8057 H8049 0.950 . S
C8057 C8055 1.327 . S
C8058 C8046 1.349 . S
C8058 H8052 0.950 . S
C8058 C8059 1.327 . S
C8059 H8053 0.950 . S
C8059 C8058 1.327 . S
C8059 C8063 1.429 . S
C8060 C8043 1.574 . S
C8060 H8054 0.949 . S
C8060 C8064 1.368 . S
C8061 C8042 1.429 . S
C8061 C8055 1.429 . S
C8061 C8062 1.523 . S
C8062 C8043 1.368 . S
C8062 C8056 1.368 . S
C8062 C8061 1.523 . S
C8063 C8047 1.429 . S
C8063 C8059 1.429 . S
C8063 C8064 1.523 . S
C8064 C8048 1.368 . S
C8064 C8060 1.368 . S
C8064 C8063 1.523 . S
H8065 C8040 0.950 . S
H8066 C8042 0.950 . S
H8067 C8043 0.949 . S
H8068 C8045 0.950 . S
H8069 C8047 0.950 . S
C8070 C8071 1.349 . S
C8070 C8072 1.327 . S
C8070 H8095 0.950 . S
C8071 C8070 1.349 . S
C8071 C8087 1.349 . S
C8072 C8070 1.327 . S
C8072 C8091 1.429 . S
C8072 H8096 0.950 . S
C8073 C8090 1.574 . S
C8073 C8092 1.368 . S
C8073 H8097 0.949 . S
H8074 C8078 0.949 . S
C8075 C8076 1.349 . S
C8075 C8077 1.327 . S
C8075 H8098 0.950 . S
C8076 C8075 1.349 . S
C8076 C8088 1.349 . S
C8077 C8075 1.327 . S
C8077 C8093 1.429 . S
C8077 H8099 0.950 . S
C8078 H8074 0.949 . S
C8078 C8086 1.574 . S
C8078 C8094 1.368 . S
H8079 C8087 0.950 . S
H8080 C8085 0.950 . S
H8081 C8086 0.949 . S
H8082 C8088 0.950 . S
H8083 C8089 0.950 . S
H8084 C8090 0.949 . S
C8085 H8080 0.950 . S
C8085 C8087 1.327 . S
C8085 C8091 1.429 . S
C8086 C8078 1.574 . S
C8086 H8081 0.949 . S
C8086 C8092 1.368 . S
C8087 C8071 1.349 . S
C8087 H8079 0.950 . S
C8087 C8085 1.327 . S
C8088 C8076 1.349 . S
C8088 H8082 0.950 . S
C8088 C8089 1.327 . S
C8089 H8083 0.950 . S
C8089 C8088 1.327 . S
C8089 C8093 1.429 . S
C8090 C8073 1.574 . S
C8090 H8084 0.949 . S
C8090 C8094 1.368 . S
C8091 C8072 1.429 . S
C8091 C8085 1.429 . S
C8091 C8092 1.523 . S
C8092 C8073 1.368 . S
C8092 C8086 1.368 . S
C8092 C8091 1.523 . S
C8093 C8077 1.429 . S
C8093 C8089 1.429 . S
C8093 C8094 1.523 . S
C8094 C8078 1.368 . S
C8094 C8090 1.368 . S
C8094 C8093 1.523 . S
H8095 C8070 0.950 . S
H8096 C8072 0.950 . S
H8097 C8073 0.949 . S
H8098 C8075 0.950 . S
H8099 C8077 0.950 . S
C8100 C8101 1.349 . S
C8100 C8102 1.327 . S
C8100 H8125 0.950 . S
C8101 C8100 1.349 . S
C8101 C8117 1.349 . S
C8102 C8100 1.327 . S
C8102 C8121 1.429 . S
C8102 H8126 0.950 . S
C8103 C8120 1.574 . S
C8103 C8122 1.368 . S
C8103 H8127 0.949 . S
H8104 C8108 0.949 . S
C8105 C8106 1.349 . S
C8105 C8107 1.327 . S
C8105 H8128 0.950 . S
C8106 C8105 1.349 . S
C8106 C8118 1.349 . S
C8107 C8105 1.327 . S
C8107 C8123 1.429 . S
C8107 H8129 0.950 . S
C8108 H8104 0.949 . S
C8108 C8116 1.574 . S
C8108 C8124 1.368 . S
H8109 C8117 0.950 . S
H8110 C8115 0.950 . S
H8111 C8116 0.949 . S
H8112 C8118 0.950 . S
H8113 C8119 0.950 . S
H8114 C8120 0.949 . S
C8115 H8110 0.950 . S
C8115 C8117 1.327 . S
C8115 C8121 1.429 . S
C8116 C8108 1.574 . S
C8116 H8111 0.949 . S
C8116 C8122 1.368 . S
C8117 C8101 1.349 . S
C8117 H8109 0.950 . S
C8117 C8115 1.327 . S
C8118 C8106 1.349 . S
C8118 H8112 0.950 . S
C8118 C8119 1.327 . S
C8119 H8113 0.950 . S
C8119 C8118 1.327 . S
C8119 C8123 1.429 . S
C8120 C8103 1.574 . S
C8120 H8114 0.949 . S
C8120 C8124 1.368 . S
C8121 C8102 1.429 . S
C8121 C8115 1.429 . S
C8121 C8122 1.523 . S
C8122 C8103 1.368 . S
C8122 C8116 1.368 . S
C8122 C8121 1.523 . S
C8123 C8107 1.429 . S
C8123 C8119 1.429 . S
C8123 C8124 1.523 . S
C8124 C8108 1.368 . S
C8124 C8120 1.368 . S
C8124 C8123 1.523 . S
H8125 C8100 0.950 . S
H8126 C8102 0.950 . S
H8127 C8103 0.949 . S
H8128 C8105 0.950 . S
H8129 C8107 0.950 . S
C8130 C8131 1.349 . S
C8130 C8132 1.327 . S
C8130 H8155 0.950 . S
C8131 C8130 1.349 . S
C8131 C8147 1.349 . S
C8132 C8130 1.327 . S
C8132 C8151 1.429 . S
C8132 H8156 0.950 . S
C8133 C8150 1.574 . S
C8133 C8152 1.368 . S
C8133 H8157 0.949 . S
H8134 C8138 0.949 . S
C8135 C8136 1.349 . S
C8135 C8137 1.327 . S
C8135 H8158 0.950 . S
C8136 C8135 1.349 . S
C8136 C8148 1.349 . S
C8137 C8135 1.327 . S
C8137 C8153 1.429 . S
C8137 H8159 0.950 . S
C8138 H8134 0.949 . S
C8138 C8146 1.574 . S
C8138 C8154 1.368 . S
H8139 C8147 0.950 . S
H8140 C8145 0.950 . S
H8141 C8146 0.949 . S
H8142 C8148 0.950 . S
H8143 C8149 0.950 . S
H8144 C8150 0.949 . S
C8145 H8140 0.950 . S
C8145 C8147 1.327 . S
C8145 C8151 1.429 . S
C8146 C8138 1.574 . S
C8146 H8141 0.949 . S
C8146 C8152 1.368 . S
C8147 C8131 1.349 . S
C8147 H8139 0.950 . S
C8147 C8145 1.327 . S
C8148 C8136 1.349 . S
C8148 H8142 0.950 . S
C8148 C8149 1.327 . S
C8149 H8143 0.950 . S
C8149 C8148 1.327 . S
C8149 C8153 1.429 . S
C8150 C8133 1.574 . S
C8150 H8144 0.949 . S
C8150 C8154 1.368 . S
C8151 C8132 1.429 . S
C8151 C8145 1.429 . S
C8151 C8152 1.523 . S
C8152 C8133 1.368 . S
C8152 C8146 1.368 . S
C8152 C8151 1.523 . S
C8153 C8137 1.429 . S
C8153 C8149 1.429 . S
C8153 C8154 1.523 . S
C8154 C8138 1.368 . S
C8154 C8150 1.368 . S
C8154 C8153 1.523 . S
H8155 C8130 0.950 . S
H8156 C8132 0.950 . S
H8157 C8133 0.949 . S
H8158 C8135 0.950 . S
H8159 C8137 0.950 . S
C8160 C8161 1.349 . S
C8160 C8162 1.327 . S
C8160 H8185 0.950 . S
C8161 C8160 1.349 . S
C8161 C8177 1.349 . S
C8162 C8160 1.327 . S
C8162 C8181 1.429 . S
C8162 H8186 0.950 . S
C8163 C8180 1.574 . S
C8163 C8182 1.368 . S
C8163 H8187 0.949 . S
H8164 C8168 0.949 . S
C8165 C8166 1.349 . S
C8165 C8167 1.327 . S
C8165 H8188 0.950 . S
C8166 C8165 1.349 . S
C8166 C8178 1.349 . S
C8167 C8165 1.327 . S
C8167 C8183 1.429 . S
C8167 H8189 0.950 . S
C8168 H8164 0.949 . S
C8168 C8176 1.574 . S
C8168 C8184 1.368 . S
H8169 C8177 0.950 . S
H8170 C8175 0.950 . S
H8171 C8176 0.949 . S
H8172 C8178 0.950 . S
H8173 C8179 0.950 . S
H8174 C8180 0.949 . S
C8175 H8170 0.950 . S
C8175 C8177 1.327 . S
C8175 C8181 1.429 . S
C8176 C8168 1.574 . S
C8176 H8171 0.949 . S
C8176 C8182 1.368 . S
C8177 C8161 1.349 . S
C8177 H8169 0.950 . S
C8177 C8175 1.327 . S
C8178 C8166 1.349 . S
C8178 H8172 0.950 . S
C8178 C8179 1.327 . S
C8179 H8173 0.950 . S
C8179 C8178 1.327 . S
C8179 C8183 1.429 . S
C8180 C8163 1.574 . S
C8180 H8174 0.949 . S
C8180 C8184 1.368 . S
C8181 C8162 1.429 . S
C8181 C8175 1.429 . S
C8181 C8182 1.523 . S
C8182 C8163 1.368 . S
C8182 C8176 1.368 . S
C8182 C8181 1.523 . S
C8183 C8167 1.429 . S
C8183 C8179 1.429 . S
C8183 C8184 1.523 . S
C8184 C8168 1.368 . S
C8184 C8180 1.368 . S
C8184 C8183 1.523 . S
H8185 C8160 0.950 . S
H8186 C8162 0.950 . S
H8187 C8163 0.949 . S
H8188 C8165 0.950 . S
H8189 C8167 0.950 . S
C8190 C8191 1.349 . S
C8190 C8192 1.327 . S
C8190 H8215 0.950 . S
C8191 C8190 1.349 . S
C8191 C8207 1.349 . S
C8192 C8190 1.327 . S
C8192 C8211 1.429 . S
C8192 H8216 0.950 . S
C8193 C8210 1.574 . S
C8193 C8212 1.368 . S
C8193 H8217 0.949 . S
H8194 C8198 0.949 . S
C8195 C8196 1.349 . S
C8195 C8197 1.327 . S
C8195 H8218 0.950 . S
C8196 C8195 1.349 . S
C8196 C8208 1.349 . S
C8197 C8195 1.327 . S
C8197 C8213 1.429 . S
C8197 H8219 0.950 . S
C8198 H8194 0.949 . S
C8198 C8206 1.574 . S
C8198 C8214 1.368 . S
H8199 C8207 0.950 . S
H8200 C8205 0.950 . S
H8201 C8206 0.949 . S
H8202 C8208 0.950 . S
H8203 C8209 0.950 . S
H8204 C8210 0.949 . S
C8205 H8200 0.950 . S
C8205 C8207 1.327 . S
C8205 C8211 1.429 . S
C8206 C8198 1.574 . S
C8206 H8201 0.949 . S
C8206 C8212 1.368 . S
C8207 C8191 1.349 . S
C8207 H8199 0.950 . S
C8207 C8205 1.327 . S
C8208 C8196 1.349 . S
C8208 H8202 0.950 . S
C8208 C8209 1.327 . S
C8209 H8203 0.950 . S
C8209 C8208 1.327 . S
C8209 C8213 1.429 . S
C8210 C8193 1.574 . S
C8210 H8204 0.949 . S
C8210 C8214 1.368 . S
C8211 C8192 1.429 . S
C8211 C8205 1.429 . S
C8211 C8212 1.523 . S
C8212 C8193 1.368 . S
C8212 C8206 1.368 . S
C8212 C8211 1.523 . S
C8213 C8197 1.429 . S
C8213 C8209 1.429 . S
C8213 C8214 1.523 . S
C8214 C8198 1.368 . S
C8214 C8210 1.368 . S
C8214 C8213 1.523 . S
H8215 C8190 0.950 . S
H8216 C8192 0.950 . S
H8217 C8193 0.949 . S
H8218 C8195 0.950 . S
H8219 C8197 0.950 . S
C8220 C8221 1.349 . S
C8220 C8222 1.327 . S
C8220 H8245 0.950 . S
C8221 C8220 1.349 . S
C8221 C8237 1.349 . S
C8222 C8220 1.327 . S
C8222 C8241 1.429 . S
C8222 H8246 0.950 . S
C8223 C8240 1.574 . S
C8223 C8242 1.368 . S
C8223 H8247 0.949 . S
H8224 C8228 0.949 . S
C8225 C8226 1.349 . S
C8225 C8227 1.327 . S
C8225 H8248 0.950 . S
C8226 C8225 1.349 . S
C8226 C8238 1.349 . S
C8227 C8225 1.327 . S
C8227 C8243 1.429 . S
C8227 H8249 0.950 . S
C8228 H8224 0.949 . S
C8228 C8236 1.574 . S
C8228 C8244 1.368 . S
H8229 C8237 0.950 . S
H8230 C8235 0.950 . S
H8231 C8236 0.949 . S
H8232 C8238 0.950 . S
H8233 C8239 0.950 . S
H8234 C8240 0.949 . S
C8235 H8230 0.950 . S
C8235 C8237 1.327 . S
C8235 C8241 1.429 . S
C8236 C8228 1.574 . S
C8236 H8231 0.949 . S
C8236 C8242 1.368 . S
C8237 C8221 1.349 . S
C8237 H8229 0.950 . S
C8237 C8235 1.327 . S
C8238 C8226 1.349 . S
C8238 H8232 0.950 . S
C8238 C8239 1.327 . S
C8239 H8233 0.950 . S
C8239 C8238 1.327 . S
C8239 C8243 1.429 . S
C8240 C8223 1.574 . S
C8240 H8234 0.949 . S
C8240 C8244 1.368 . S
C8241 C8222 1.429 . S
C8241 C8235 1.429 . S
C8241 C8242 1.523 . S
C8242 C8223 1.368 . S
C8242 C8236 1.368 . S
C8242 C8241 1.523 . S
C8243 C8227 1.429 . S
C8243 C8239 1.429 . S
C8243 C8244 1.523 . S
C8244 C8228 1.368 . S
C8244 C8240 1.368 . S
C8244 C8243 1.523 . S
H8245 C8220 0.950 . S
H8246 C8222 0.950 . S
H8247 C8223 0.949 . S
H8248 C8225 0.950 . S
H8249 C8227 0.950 . S
C8250 C8251 1.349 . S
C8250 C8252 1.327 . S
C8250 H8275 0.950 . S
C8251 C8250 1.349 . S
C8251 C8267 1.349 . S
C8252 C8250 1.327 . S
C8252 C8271 1.429 . S
C8252 H8276 0.950 . S
C8253 C8270 1.574 . S
C8253 C8272 1.368 . S
C8253 H8277 0.949 . S
H8254 C8258 0.949 . S
C8255 C8256 1.349 . S
C8255 C8257 1.327 . S
C8255 H8278 0.950 . S
C8256 C8255 1.349 . S
C8256 C8268 1.349 . S
C8257 C8255 1.327 . S
C8257 C8273 1.429 . S
C8257 H8279 0.950 . S
C8258 H8254 0.949 . S
C8258 C8266 1.574 . S
C8258 C8274 1.368 . S
H8259 C8267 0.950 . S
H8260 C8265 0.950 . S
H8261 C8266 0.949 . S
H8262 C8268 0.950 . S
H8263 C8269 0.950 . S
H8264 C8270 0.949 . S
C8265 H8260 0.950 . S
C8265 C8267 1.327 . S
C8265 C8271 1.429 . S
C8266 C8258 1.574 . S
C8266 H8261 0.949 . S
C8266 C8272 1.368 . S
C8267 C8251 1.349 . S
C8267 H8259 0.950 . S
C8267 C8265 1.327 . S
C8268 C8256 1.349 . S
C8268 H8262 0.950 . S
C8268 C8269 1.327 . S
C8269 H8263 0.950 . S
C8269 C8268 1.327 . S
C8269 C8273 1.429 . S
C8270 C8253 1.574 . S
C8270 H8264 0.949 . S
C8270 C8274 1.368 . S
C8271 C8252 1.429 . S
C8271 C8265 1.429 . S
C8271 C8272 1.523 . S
C8272 C8253 1.368 . S
C8272 C8266 1.368 . S
C8272 C8271 1.523 . S
C8273 C8257 1.429 . S
C8273 C8269 1.429 . S
C8273 C8274 1.523 . S
C8274 C8258 1.368 . S
C8274 C8270 1.368 . S
C8274 C8273 1.523 . S
H8275 C8250 0.950 . S
H8276 C8252 0.950 . S
H8277 C8253 0.949 . S
H8278 C8255 0.950 . S
H8279 C8257 0.950 . S
C8280 C8281 1.349 . S
C8280 C8282 1.327 . S
C8280 H8305 0.950 . S
C8281 C8280 1.349 . S
C8281 C8297 1.349 . S
C8282 C8280 1.327 . S
C8282 C8301 1.429 . S
C8282 H8306 0.950 . S
C8283 C8300 1.574 . S
C8283 C8302 1.368 . S
C8283 H8307 0.949 . S
H8284 C8288 0.949 . S
C8285 C8286 1.349 . S
C8285 C8287 1.327 . S
C8285 H8308 0.950 . S
C8286 C8285 1.349 . S
C8286 C8298 1.349 . S
C8287 C8285 1.327 . S
C8287 C8303 1.429 . S
C8287 H8309 0.950 . S
C8288 H8284 0.949 . S
C8288 C8296 1.574 . S
C8288 C8304 1.368 . S
H8289 C8297 0.950 . S
H8290 C8295 0.950 . S
H8291 C8296 0.949 . S
H8292 C8298 0.950 . S
H8293 C8299 0.950 . S
H8294 C8300 0.949 . S
C8295 H8290 0.950 . S
C8295 C8297 1.327 . S
C8295 C8301 1.429 . S
C8296 C8288 1.574 . S
C8296 H8291 0.949 . S
C8296 C8302 1.368 . S
C8297 C8281 1.349 . S
C8297 H8289 0.950 . S
C8297 C8295 1.327 . S
C8298 C8286 1.349 . S
C8298 H8292 0.950 . S
C8298 C8299 1.327 . S
C8299 H8293 0.950 . S
C8299 C8298 1.327 . S
C8299 C8303 1.429 . S
C8300 C8283 1.574 . S
C8300 H8294 0.949 . S
C8300 C8304 1.368 . S
C8301 C8282 1.429 . S
C8301 C8295 1.429 . S
C8301 C8302 1.523 . S
C8302 C8283 1.368 . S
C8302 C8296 1.368 . S
C8302 C8301 1.523 . S
C8303 C8287 1.429 . S
C8303 C8299 1.429 . S
C8303 C8304 1.523 . S
C8304 C8288 1.368 . S
C8304 C8300 1.368 . S
C8304 C8303 1.523 . S
H8305 C8280 0.950 . S
H8306 C8282 0.950 . S
H8307 C8283 0.949 . S
H8308 C8285 0.950 . S
H8309 C8287 0.950 . S
C8310 C8311 1.349 . S
C8310 C8312 1.327 . S
C8310 H8335 0.950 . S
C8311 C8310 1.349 . S
C8311 C8327 1.349 . S
C8312 C8310 1.327 . S
C8312 C8331 1.429 . S
C8312 H8336 0.950 . S
C8313 C8330 1.574 . S
C8313 C8332 1.368 . S
C8313 H8337 0.949 . S
H8314 C8318 0.949 . S
C8315 C8316 1.349 . S
C8315 C8317 1.327 . S
C8315 H8338 0.950 . S
C8316 C8315 1.349 . S
C8316 C8328 1.349 . S
C8317 C8315 1.327 . S
C8317 C8333 1.429 . S
C8317 H8339 0.950 . S
C8318 H8314 0.949 . S
C8318 C8326 1.574 . S
C8318 C8334 1.368 . S
H8319 C8327 0.950 . S
H8320 C8325 0.950 . S
H8321 C8326 0.949 . S
H8322 C8328 0.950 . S
H8323 C8329 0.950 . S
H8324 C8330 0.949 . S
C8325 H8320 0.950 . S
C8325 C8327 1.327 . S
C8325 C8331 1.429 . S
C8326 C8318 1.574 . S
C8326 H8321 0.949 . S
C8326 C8332 1.368 . S
C8327 C8311 1.349 . S
C8327 H8319 0.950 . S
C8327 C8325 1.327 . S
C8328 C8316 1.349 . S
C8328 H8322 0.950 . S
C8328 C8329 1.327 . S
C8329 H8323 0.950 . S
C8329 C8328 1.327 . S
C8329 C8333 1.429 . S
C8330 C8313 1.574 . S
C8330 H8324 0.949 . S
C8330 C8334 1.368 . S
C8331 C8312 1.429 . S
C8331 C8325 1.429 . S
C8331 C8332 1.523 . S
C8332 C8313 1.368 . S
C8332 C8326 1.368 . S
C8332 C8331 1.523 . S
C8333 C8317 1.429 . S
C8333 C8329 1.429 . S
C8333 C8334 1.523 . S
C8334 C8318 1.368 . S
C8334 C8330 1.368 . S
C8334 C8333 1.523 . S
H8335 C8310 0.950 . S
H8336 C8312 0.950 . S
H8337 C8313 0.949 . S
H8338 C8315 0.950 . S
H8339 C8317 0.950 . S
C8340 C8341 1.349 . S
C8340 C8342 1.327 . S
C8340 H8365 0.950 . S
C8341 C8340 1.349 . S
C8341 C8357 1.349 . S
C8342 C8340 1.327 . S
C8342 C8361 1.429 . S
C8342 H8366 0.950 . S
C8343 C8360 1.574 . S
C8343 C8362 1.368 . S
C8343 H8367 0.949 . S
H8344 C8348 0.949 . S
C8345 C8346 1.349 . S
C8345 C8347 1.327 . S
C8345 H8368 0.950 . S
C8346 C8345 1.349 . S
C8346 C8358 1.349 . S
C8347 C8345 1.327 . S
C8347 C8363 1.429 . S
C8347 H8369 0.950 . S
C8348 H8344 0.949 . S
C8348 C8356 1.574 . S
C8348 C8364 1.368 . S
H8349 C8357 0.950 . S
H8350 C8355 0.950 . S
H8351 C8356 0.949 . S
H8352 C8358 0.950 . S
H8353 C8359 0.950 . S
H8354 C8360 0.949 . S
C8355 H8350 0.950 . S
C8355 C8357 1.327 . S
C8355 C8361 1.429 . S
C8356 C8348 1.574 . S
C8356 H8351 0.949 . S
C8356 C8362 1.368 . S
C8357 C8341 1.349 . S
C8357 H8349 0.950 . S
C8357 C8355 1.327 . S
C8358 C8346 1.349 . S
C8358 H8352 0.950 . S
C8358 C8359 1.327 . S
C8359 H8353 0.950 . S
C8359 C8358 1.327 . S
C8359 C8363 1.429 . S
C8360 C8343 1.574 . S
C8360 H8354 0.949 . S
C8360 C8364 1.368 . S
C8361 C8342 1.429 . S
C8361 C8355 1.429 . S
C8361 C8362 1.523 . S
C8362 C8343 1.368 . S
C8362 C8356 1.368 . S
C8362 C8361 1.523 . S
C8363 C8347 1.429 . S
C8363 C8359 1.429 . S
C8363 C8364 1.523 . S
C8364 C8348 1.368 . S
C8364 C8360 1.368 . S
C8364 C8363 1.523 . S
H8365 C8340 0.950 . S
H8366 C8342 0.950 . S
H8367 C8343 0.949 . S
H8368 C8345 0.950 . S
H8369 C8347 0.950 . S
C8370 C8371 1.349 . S
C8370 C8372 1.327 . S
C8370 H8395 0.950 . S
C8371 C8370 1.349 . S
C8371 C8387 1.349 . S
C8372 C8370 1.327 . S
C8372 C8391 1.429 . S
C8372 H8396 0.950 . S
C8373 C8390 1.574 . S
C8373 C8392 1.368 . S
C8373 H8397 0.949 . S
H8374 C8378 0.949 . S
C8375 C8376 1.349 . S
C8375 C8377 1.327 . S
C8375 H8398 0.950 . S
C8376 C8375 1.349 . S
C8376 C8388 1.349 . S
C8377 C8375 1.327 . S
C8377 C8393 1.429 . S
C8377 H8399 0.950 . S
C8378 H8374 0.949 . S
C8378 C8386 1.574 . S
C8378 C8394 1.368 . S
H8379 C8387 0.950 . S
H8380 C8385 0.950 . S
H8381 C8386 0.949 . S
H8382 C8388 0.950 . S
H8383 C8389 0.950 . S
H8384 C8390 0.949 . S
C8385 H8380 0.950 . S
C8385 C8387 1.327 . S
C8385 C8391 1.429 . S
C8386 C8378 1.574 . S
C8386 H8381 0.949 . S
C8386 C8392 1.368 . S
C8387 C8371 1.349 . S
C8387 H8379 0.950 . S
C8387 C8385 1.327 . S
C8388 C8376 1.349 . S
C8388 H8382 0.950 . S
C8388 C8389 1.327 . S
C8389 H8383 0.950 . S
C8389 C8388 1.327 . S
C8389 C8393 1.429 . S
C8390 C8373 1.574 . S
C8390 H8384 0.949 . S
C8390 C8394 1.368 . S
C8391 C8372 1.429 . S
C8391 C8385 1.429 . S
C8391 C8392 1.523 . S
C8392 C8373 1.368 . S
C8392 C8386 1.368 . S
C8392 C8391 1.523 . S
C8393 C8377 1.429 . S
C8393 C8389 1.429 . S
C8393 C8394 1.523 . S
C8394 C8378 1.368 . S
C8394 C8390 1.368 . S
C8394 C8393 1.523 . S
H8395 C8370 0.950 . S
H8396 C8372 0.950 . S
H8397 C8373 0.949 . S
H8398 C8375 0.950 . S
H8399 C8377 0.950 . S
C8400 C8401 1.349 . S
C8400 C8402 1.327 . S
C8400 H8425 0.950 . S
C8401 C8400 1.349 . S
C8401 C8417 1.349 . S
C8402 C8400 1.327 . S
C8402 C8421 1.429 . S
C8402 H8426 0.950 . S
C8403 C8420 1.574 . S
C8403 C8422 1.368 . S
C8403 H8427 0.949 . S
H8404 C8408 0.949 . S
C8405 C8406 1.349 . S
C8405 C8407 1.327 . S
C8405 H8428 0.950 . S
C8406 C8405 1.349 . S
C8406 C8418 1.349 . S
C8407 C8405 1.327 . S
C8407 C8423 1.429 . S
C8407 H8429 0.950 . S
C8408 H8404 0.949 . S
C8408 C8416 1.574 . S
C8408 C8424 1.368 . S
H8409 C8417 0.950 . S
H8410 C8415 0.950 . S
H8411 C8416 0.949 . S
H8412 C8418 0.950 . S
H8413 C8419 0.950 . S
H8414 C8420 0.949 . S
C8415 H8410 0.950 . S
C8415 C8417 1.327 . S
C8415 C8421 1.429 . S
C8416 C8408 1.574 . S
C8416 H8411 0.949 . S
C8416 C8422 1.368 . S
C8417 C8401 1.349 . S
C8417 H8409 0.950 . S
C8417 C8415 1.327 . S
C8418 C8406 1.349 . S
C8418 H8412 0.950 . S
C8418 C8419 1.327 . S
C8419 H8413 0.950 . S
C8419 C8418 1.327 . S
C8419 C8423 1.429 . S
C8420 C8403 1.574 . S
C8420 H8414 0.949 . S
C8420 C8424 1.368 . S
C8421 C8402 1.429 . S
C8421 C8415 1.429 . S
C8421 C8422 1.523 . S
C8422 C8403 1.368 . S
C8422 C8416 1.368 . S
C8422 C8421 1.523 . S
C8423 C8407 1.429 . S
C8423 C8419 1.429 . S
C8423 C8424 1.523 . S
C8424 C8408 1.368 . S
C8424 C8420 1.368 . S
C8424 C8423 1.523 . S
H8425 C8400 0.950 . S
H8426 C8402 0.950 . S
H8427 C8403 0.949 . S
H8428 C8405 0.950 . S
H8429 C8407 0.950 . S
C8430 C8431 1.349 . S
C8430 C8432 1.327 . S
C8430 H8455 0.950 . S
C8431 C8430 1.349 . S
C8431 C8447 1.349 . S
C8432 C8430 1.327 . S
C8432 C8451 1.429 . S
C8432 H8456 0.950 . S
C8433 C8450 1.574 . S
C8433 C8452 1.368 . S
C8433 H8457 0.949 . S
H8434 C8438 0.949 . S
C8435 C8436 1.349 . S
C8435 C8437 1.327 . S
C8435 H8458 0.950 . S
C8436 C8435 1.349 . S
C8436 C8448 1.349 . S
C8437 C8435 1.327 . S
C8437 C8453 1.429 . S
C8437 H8459 0.950 . S
C8438 H8434 0.949 . S
C8438 C8446 1.574 . S
C8438 C8454 1.368 . S
H8439 C8447 0.950 . S
H8440 C8445 0.950 . S
H8441 C8446 0.949 . S
H8442 C8448 0.950 . S
H8443 C8449 0.950 . S
H8444 C8450 0.949 . S
C8445 H8440 0.950 . S
C8445 C8447 1.327 . S
C8445 C8451 1.429 . S
C8446 C8438 1.574 . S
C8446 H8441 0.949 . S
C8446 C8452 1.368 . S
C8447 C8431 1.349 . S
C8447 H8439 0.950 . S
C8447 C8445 1.327 . S
C8448 C8436 1.349 . S
C8448 H8442 0.950 . S
C8448 C8449 1.327 . S
C8449 H8443 0.950 . S
C8449 C8448 1.327 . S
C8449 C8453 1.429 . S
C8450 C8433 1.574 . S
C8450 H8444 0.949 . S
C8450 C8454 1.368 . S
C8451 C8432 1.429 . S
C8451 C8445 1.429 . S
C8451 C8452 1.523 . S
C8452 C8433 1.368 . S
C8452 C8446 1.368 . S
C8452 C8451 1.523 . S
C8453 C8437 1.429 . S
C8453 C8449 1.429 . S
C8453 C8454 1.523 . S
C8454 C8438 1.368 . S
C8454 C8450 1.368 . S
C8454 C8453 1.523 . S
H8455 C8430 0.950 . S
H8456 C8432 0.950 . S
H8457 C8433 0.949 . S
H8458 C8435 0.950 . S
H8459 C8437 0.950 . S
C8460 C8461 1.349 . S
C8460 C8462 1.327 . S
C8460 H8485 0.950 . S
C8461 C8460 1.349 . S
C8461 C8477 1.349 . S
C8462 C8460 1.327 . S
C8462 C8481 1.429 . S
C8462 H8486 0.950 . S
C8463 C8480 1.574 . S
C8463 C8482 1.368 . S
C8463 H8487 0.949 . S
H8464 C8468 0.949 . S
C8465 C8466 1.349 . S
C8465 C8467 1.327 . S
C8465 H8488 0.950 . S
C8466 C8465 1.349 . S
C8466 C8478 1.349 . S
C8467 C8465 1.327 . S
C8467 C8483 1.429 . S
C8467 H8489 0.950 . S
C8468 H8464 0.949 . S
C8468 C8476 1.574 . S
C8468 C8484 1.368 . S
H8469 C8477 0.950 . S
H8470 C8475 0.950 . S
H8471 C8476 0.949 . S
H8472 C8478 0.950 . S
H8473 C8479 0.950 . S
H8474 C8480 0.949 . S
C8475 H8470 0.950 . S
C8475 C8477 1.327 . S
C8475 C8481 1.429 . S
C8476 C8468 1.574 . S
C8476 H8471 0.949 . S
C8476 C8482 1.368 . S
C8477 C8461 1.349 . S
C8477 H8469 0.950 . S
C8477 C8475 1.327 . S
C8478 C8466 1.349 . S
C8478 H8472 0.950 . S
C8478 C8479 1.327 . S
C8479 H8473 0.950 . S
C8479 C8478 1.327 . S
C8479 C8483 1.429 . S
C8480 C8463 1.574 . S
C8480 H8474 0.949 . S
C8480 C8484 1.368 . S
C8481 C8462 1.429 . S
C8481 C8475 1.429 . S
C8481 C8482 1.523 . S
C8482 C8463 1.368 . S
C8482 C8476 1.368 . S
C8482 C8481 1.523 . S
C8483 C8467 1.429 . S
C8483 C8479 1.429 . S
C8483 C8484 1.523 . S
C8484 C8468 1.368 . S
C8484 C8480 1.368 . S
C8484 C8483 1.523 . S
H8485 C8460 0.950 . S
H8486 C8462 0.950 . S
H8487 C8463 0.949 . S
H8488 C8465 0.950 . S
H8489 C8467 0.950 . S
C8490 C8491 1.349 . S
C8490 C8492 1.327 . S
C8490 H8515 0.950 . S
C8491 C8490 1.349 . S
C8491 C8507 1.349 . S
C8492 C8490 1.327 . S
C8492 C8511 1.429 . S
C8492 H8516 0.950 . S
C8493 C8510 1.574 . S
C8493 C8512 1.368 . S
C8493 H8517 0.949 . S
H8494 C8498 0.949 . S
C8495 C8496 1.349 . S
C8495 C8497 1.327 . S
C8495 H8518 0.950 . S
C8496 C8495 1.349 . S
C8496 C8508 1.349 . S
C8497 C8495 1.327 . S
C8497 C8513 1.429 . S
C8497 H8519 0.950 . S
C8498 H8494 0.949 . S
C8498 C8506 1.574 . S
C8498 C8514 1.368 . S
H8499 C8507 0.950 . S
H8500 C8505 0.950 . S
H8501 C8506 0.949 . S
H8502 C8508 0.950 . S
H8503 C8509 0.950 . S
H8504 C8510 0.949 . S
C8505 H8500 0.950 . S
C8505 C8507 1.327 . S
C8505 C8511 1.429 . S
C8506 C8498 1.574 . S
C8506 H8501 0.949 . S
C8506 C8512 1.368 . S
C8507 C8491 1.349 . S
C8507 H8499 0.950 . S
C8507 C8505 1.327 . S
C8508 C8496 1.349 . S
C8508 H8502 0.950 . S
C8508 C8509 1.327 . S
C8509 H8503 0.950 . S
C8509 C8508 1.327 . S
C8509 C8513 1.429 . S
C8510 C8493 1.574 . S
C8510 H8504 0.949 . S
C8510 C8514 1.368 . S
C8511 C8492 1.429 . S
C8511 C8505 1.429 . S
C8511 C8512 1.523 . S
C8512 C8493 1.368 . S
C8512 C8506 1.368 . S
C8512 C8511 1.523 . S
C8513 C8497 1.429 . S
C8513 C8509 1.429 . S
C8513 C8514 1.523 . S
C8514 C8498 1.368 . S
C8514 C8510 1.368 . S
C8514 C8513 1.523 . S
H8515 C8490 0.950 . S
H8516 C8492 0.950 . S
H8517 C8493 0.949 . S
H8518 C8495 0.950 . S
H8519 C8497 0.950 . S
C8520 C8521 1.349 . S
C8520 C8522 1.327 . S
C8520 H8545 0.950 . S
C8521 C8520 1.349 . S
C8521 C8537 1.349 . S
C8522 C8520 1.327 . S
C8522 C8541 1.429 . S
C8522 H8546 0.950 . S
C8523 C8540 1.574 . S
C8523 C8542 1.368 . S
C8523 H8547 0.949 . S
H8524 C8528 0.949 . S
C8525 C8526 1.349 . S
C8525 C8527 1.327 . S
C8525 H8548 0.950 . S
C8526 C8525 1.349 . S
C8526 C8538 1.349 . S
C8527 C8525 1.327 . S
C8527 C8543 1.429 . S
C8527 H8549 0.950 . S
C8528 H8524 0.949 . S
C8528 C8536 1.574 . S
C8528 C8544 1.368 . S
H8529 C8537 0.950 . S
H8530 C8535 0.950 . S
H8531 C8536 0.949 . S
H8532 C8538 0.950 . S
H8533 C8539 0.950 . S
H8534 C8540 0.949 . S
C8535 H8530 0.950 . S
C8535 C8537 1.327 . S
C8535 C8541 1.429 . S
C8536 C8528 1.574 . S
C8536 H8531 0.949 . S
C8536 C8542 1.368 . S
C8537 C8521 1.349 . S
C8537 H8529 0.950 . S
C8537 C8535 1.327 . S
C8538 C8526 1.349 . S
C8538 H8532 0.950 . S
C8538 C8539 1.327 . S
C8539 H8533 0.950 . S
C8539 C8538 1.327 . S
C8539 C8543 1.429 . S
C8540 C8523 1.574 . S
C8540 H8534 0.949 . S
C8540 C8544 1.368 . S
C8541 C8522 1.429 . S
C8541 C8535 1.429 . S
C8541 C8542 1.523 . S
C8542 C8523 1.368 . S
C8542 C8536 1.368 . S
C8542 C8541 1.523 . S
C8543 C8527 1.429 . S
C8543 C8539 1.429 . S
C8543 C8544 1.523 . S
C8544 C8528 1.368 . S
C8544 C8540 1.368 . S
C8544 C8543 1.523 . S
H8545 C8520 0.950 . S
H8546 C8522 0.950 . S
H8547 C8523 0.949 . S
H8548 C8525 0.950 . S
H8549 C8527 0.950 . S
C8550 C8551 1.349 . S
C8550 C8552 1.327 . S
C8550 H8575 0.950 . S
C8551 C8550 1.349 . S
C8551 C8567 1.349 . S
C8552 C8550 1.327 . S
C8552 C8571 1.429 . S
C8552 H8576 0.950 . S
C8553 C8570 1.574 . S
C8553 C8572 1.368 . S
C8553 H8577 0.949 . S
H8554 C8558 0.949 . S
C8555 C8556 1.349 . S
C8555 C8557 1.327 . S
C8555 H8578 0.950 . S
C8556 C8555 1.349 . S
C8556 C8568 1.349 . S
C8557 C8555 1.327 . S
C8557 C8573 1.429 . S
C8557 H8579 0.950 . S
C8558 H8554 0.949 . S
C8558 C8566 1.574 . S
C8558 C8574 1.368 . S
H8559 C8567 0.950 . S
H8560 C8565 0.950 . S
H8561 C8566 0.949 . S
H8562 C8568 0.950 . S
H8563 C8569 0.950 . S
H8564 C8570 0.949 . S
C8565 H8560 0.950 . S
C8565 C8567 1.327 . S
C8565 C8571 1.429 . S
C8566 C8558 1.574 . S
C8566 H8561 0.949 . S
C8566 C8572 1.368 . S
C8567 C8551 1.349 . S
C8567 H8559 0.950 . S
C8567 C8565 1.327 . S
C8568 C8556 1.349 . S
C8568 H8562 0.950 . S
C8568 C8569 1.327 . S
C8569 H8563 0.950 . S
C8569 C8568 1.327 . S
C8569 C8573 1.429 . S
C8570 C8553 1.574 . S
C8570 H8564 0.949 . S
C8570 C8574 1.368 . S
C8571 C8552 1.429 . S
C8571 C8565 1.429 . S
C8571 C8572 1.523 . S
C8572 C8553 1.368 . S
C8572 C8566 1.368 . S
C8572 C8571 1.523 . S
C8573 C8557 1.429 . S
C8573 C8569 1.429 . S
C8573 C8574 1.523 . S
C8574 C8558 1.368 . S
C8574 C8570 1.368 . S
C8574 C8573 1.523 . S
H8575 C8550 0.950 . S
H8576 C8552 0.950 . S
H8577 C8553 0.949 . S
H8578 C8555 0.950 . S
H8579 C8557 0.950 . S
C8580 C8581 1.349 . S
C8580 C8582 1.327 . S
C8580 H8605 0.950 . S
C8581 C8580 1.349 . S
C8581 C8597 1.349 . S
C8582 C8580 1.327 . S
C8582 C8601 1.429 . S
C8582 H8606 0.950 . S
C8583 C8600 1.574 . S
C8583 C8602 1.368 . S
C8583 H8607 0.949 . S
H8584 C8588 0.949 . S
C8585 C8586 1.349 . S
C8585 C8587 1.327 . S
C8585 H8608 0.950 . S
C8586 C8585 1.349 . S
C8586 C8598 1.349 . S
C8587 C8585 1.327 . S
C8587 C8603 1.429 . S
C8587 H8609 0.950 . S
C8588 H8584 0.949 . S
C8588 C8596 1.574 . S
C8588 C8604 1.368 . S
H8589 C8597 0.950 . S
H8590 C8595 0.950 . S
H8591 C8596 0.949 . S
H8592 C8598 0.950 . S
H8593 C8599 0.950 . S
H8594 C8600 0.949 . S
C8595 H8590 0.950 . S
C8595 C8597 1.327 . S
C8595 C8601 1.429 . S
C8596 C8588 1.574 . S
C8596 H8591 0.949 . S
C8596 C8602 1.368 . S
C8597 C8581 1.349 . S
C8597 H8589 0.950 . S
C8597 C8595 1.327 . S
C8598 C8586 1.349 . S
C8598 H8592 0.950 . S
C8598 C8599 1.327 . S
C8599 H8593 0.950 . S
C8599 C8598 1.327 . S
C8599 C8603 1.429 . S
C8600 C8583 1.574 . S
C8600 H8594 0.949 . S
C8600 C8604 1.368 . S
C8601 C8582 1.429 . S
C8601 C8595 1.429 . S
C8601 C8602 1.523 . S
C8602 C8583 1.368 . S
C8602 C8596 1.368 . S
C8602 C8601 1.523 . S
C8603 C8587 1.429 . S
C8603 C8599 1.429 . S
C8603 C8604 1.523 . S
C8604 C8588 1.368 . S
C8604 C8600 1.368 . S
C8604 C8603 1.523 . S
H8605 C8580 0.950 . S
H8606 C8582 0.950 . S
H8607 C8583 0.949 . S
H8608 C8585 0.950 . S
H8609 C8587 0.950 . S
C8610 C8611 1.349 . S
C8610 C8612 1.327 . S
C8610 H8635 0.950 . S
C8611 C8610 1.349 . S
C8611 C8627 1.349 . S
C8612 C8610 1.327 . S
C8612 C8631 1.429 . S
C8612 H8636 0.950 . S
C8613 C8630 1.574 . S
C8613 C8632 1.368 . S
C8613 H8637 0.949 . S
H8614 C8618 0.949 . S
C8615 C8616 1.349 . S
C8615 C8617 1.327 . S
C8615 H8638 0.950 . S
C8616 C8615 1.349 . S
C8616 C8628 1.349 . S
C8617 C8615 1.327 . S
C8617 C8633 1.429 . S
C8617 H8639 0.950 . S
C8618 H8614 0.949 . S
C8618 C8626 1.574 . S
C8618 C8634 1.368 . S
H8619 C8627 0.950 . S
H8620 C8625 0.950 . S
H8621 C8626 0.949 . S
H8622 C8628 0.950 . S
H8623 C8629 0.950 . S
H8624 C8630 0.949 . S
C8625 H8620 0.950 . S
C8625 C8627 1.327 . S
C8625 C8631 1.429 . S
C8626 C8618 1.574 . S
C8626 H8621 0.949 . S
C8626 C8632 1.368 . S
C8627 C8611 1.349 . S
C8627 H8619 0.950 . S
C8627 C8625 1.327 . S
C8628 C8616 1.349 . S
C8628 H8622 0.950 . S
C8628 C8629 1.327 . S
C8629 H8623 0.950 . S
C8629 C8628 1.327 . S
C8629 C8633 1.429 . S
C8630 C8613 1.574 . S
C8630 H8624 0.949 . S
C8630 C8634 1.368 . S
C8631 C8612 1.429 . S
C8631 C8625 1.429 . S
C8631 C8632 1.523 . S
C8632 C8613 1.368 . S
C8632 C8626 1.368 . S
C8632 C8631 1.523 . S
C8633 C8617 1.429 . S
C8633 C8629 1.429 . S
C8633 C8634 1.523 . S
C8634 C8618 1.368 . S
C8634 C8630 1.368 . S
C8634 C8633 1.523 . S
H8635 C8610 0.950 . S
H8636 C8612 0.950 . S
H8637 C8613 0.949 . S
H8638 C8615 0.950 . S
H8639 C8617 0.950 . S
C8640 C8641 1.349 . S
C8640 C8642 1.327 . S
C8640 H8665 0.950 . S
C8641 C8640 1.349 . S
C8641 C8657 1.349 . S
C8642 C8640 1.327 . S
C8642 C8661 1.429 . S
C8642 H8666 0.950 . S
C8643 C8660 1.574 . S
C8643 C8662 1.368 . S
C8643 H8667 0.949 . S
H8644 C8648 0.949 . S
C8645 C8646 1.349 . S
C8645 C8647 1.327 . S
C8645 H8668 0.950 . S
C8646 C8645 1.349 . S
C8646 C8658 1.349 . S
C8647 C8645 1.327 . S
C8647 C8663 1.429 . S
C8647 H8669 0.950 . S
C8648 H8644 0.949 . S
C8648 C8656 1.574 . S
C8648 C8664 1.368 . S
H8649 C8657 0.950 . S
H8650 C8655 0.950 . S
H8651 C8656 0.949 . S
H8652 C8658 0.950 . S
H8653 C8659 0.950 . S
H8654 C8660 0.949 . S
C8655 H8650 0.950 . S
C8655 C8657 1.327 . S
C8655 C8661 1.429 . S
C8656 C8648 1.574 . S
C8656 H8651 0.949 . S
C8656 C8662 1.368 . S
C8657 C8641 1.349 . S
C8657 H8649 0.950 . S
C8657 C8655 1.327 . S
C8658 C8646 1.349 . S
C8658 H8652 0.950 . S
C8658 C8659 1.327 . S
C8659 H8653 0.950 . S
C8659 C8658 1.327 . S
C8659 C8663 1.429 . S
C8660 C8643 1.574 . S
C8660 H8654 0.949 . S
C8660 C8664 1.368 . S
C8661 C8642 1.429 . S
C8661 C8655 1.429 . S
C8661 C8662 1.523 . S
C8662 C8643 1.368 . S
C8662 C8656 1.368 . S
C8662 C8661 1.523 . S
C8663 C8647 1.429 . S
C8663 C8659 1.429 . S
C8663 C8664 1.523 . S
C8664 C8648 1.368 . S
C8664 C8660 1.368 . S
C8664 C8663 1.523 . S
H8665 C8640 0.950 . S
H8666 C8642 0.950 . S
H8667 C8643 0.949 . S
H8668 C8645 0.950 . S
H8669 C8647 0.950 . S
C8670 C8671 1.349 . S
C8670 C8672 1.327 . S
C8670 H8695 0.950 . S
C8671 C8670 1.349 . S
C8671 C8687 1.349 . S
C8672 C8670 1.327 . S
C8672 C8691 1.429 . S
C8672 H8696 0.950 . S
C8673 C8690 1.574 . S
C8673 C8692 1.368 . S
C8673 H8697 0.949 . S
H8674 C8678 0.949 . S
C8675 C8676 1.349 . S
C8675 C8677 1.327 . S
C8675 H8698 0.950 . S
C8676 C8675 1.349 . S
C8676 C8688 1.349 . S
C8677 C8675 1.327 . S
C8677 C8693 1.429 . S
C8677 H8699 0.950 . S
C8678 H8674 0.949 . S
C8678 C8686 1.574 . S
C8678 C8694 1.368 . S
H8679 C8687 0.950 . S
H8680 C8685 0.950 . S
H8681 C8686 0.949 . S
H8682 C8688 0.950 . S
H8683 C8689 0.950 . S
H8684 C8690 0.949 . S
C8685 H8680 0.950 . S
C8685 C8687 1.327 . S
C8685 C8691 1.429 . S
C8686 C8678 1.574 . S
C8686 H8681 0.949 . S
C8686 C8692 1.368 . S
C8687 C8671 1.349 . S
C8687 H8679 0.950 . S
C8687 C8685 1.327 . S
C8688 C8676 1.349 . S
C8688 H8682 0.950 . S
C8688 C8689 1.327 . S
C8689 H8683 0.950 . S
C8689 C8688 1.327 . S
C8689 C8693 1.429 . S
C8690 C8673 1.574 . S
C8690 H8684 0.949 . S
C8690 C8694 1.368 . S
C8691 C8672 1.429 . S
C8691 C8685 1.429 . S
C8691 C8692 1.523 . S
C8692 C8673 1.368 . S
C8692 C8686 1.368 . S
C8692 C8691 1.523 . S
C8693 C8677 1.429 . S
C8693 C8689 1.429 . S
C8693 C8694 1.523 . S
C8694 C8678 1.368 . S
C8694 C8690 1.368 . S
C8694 C8693 1.523 . S
H8695 C8670 0.950 . S
H8696 C8672 0.950 . S
H8697 C8673 0.949 . S
H8698 C8675 0.950 . S
H8699 C8677 0.950 . S
C8700 C8701 1.349 . S
C8700 C8702 1.327 . S
C8700 H8725 0.950 . S
C8701 C8700 1.349 . S
C8701 C8717 1.349 . S
C8702 C8700 1.327 . S
C8702 C8721 1.429 . S
C8702 H8726 0.950 . S
C8703 C8720 1.574 . S
C8703 C8722 1.368 . S
C8703 H8727 0.949 . S
H8704 C8708 0.949 . S
C8705 C8706 1.349 . S
C8705 C8707 1.327 . S
C8705 H8728 0.950 . S
C8706 C8705 1.349 . S
C8706 C8718 1.349 . S
C8707 C8705 1.327 . S
C8707 C8723 1.429 . S
C8707 H8729 0.950 . S
C8708 H8704 0.949 . S
C8708 C8716 1.574 . S
C8708 C8724 1.368 . S
H8709 C8717 0.950 . S
H8710 C8715 0.950 . S
H8711 C8716 0.949 . S
H8712 C8718 0.950 . S
H8713 C8719 0.950 . S
H8714 C8720 0.949 . S
C8715 H8710 0.950 . S
C8715 C8717 1.327 . S
C8715 C8721 1.429 . S
C8716 C8708 1.574 . S
C8716 H8711 0.949 . S
C8716 C8722 1.368 . S
C8717 C8701 1.349 . S
C8717 H8709 0.950 . S
C8717 C8715 1.327 . S
C8718 C8706 1.349 . S
C8718 H8712 0.950 . S
C8718 C8719 1.327 . S
C8719 H8713 0.950 . S
C8719 C8718 1.327 . S
C8719 C8723 1.429 . S
C8720 C8703 1.574 . S
C8720 H8714 0.949 . S
C8720 C8724 1.368 . S
C8721 C8702 1.429 . S
C8721 C8715 1.429 . S
C8721 C8722 1.523 . S
C8722 C8703 1.368 . S
C8722 C8716 1.368 . S
C8722 C8721 1.523 . S
C8723 C8707 1.429 . S
C8723 C8719 1.429 . S
C8723 C8724 1.523 . S
C8724 C8708 1.368 . S
C8724 C8720 1.368 . S
C8724 C8723 1.523 . S
H8725 C8700 0.950 . S
H8726 C8702 0.950 . S
H8727 C8703 0.949 . S
H8728 C8705 0.950 . S
H8729 C8707 0.950 . S
C8730 C8731 1.349 . S
C8730 C8732 1.327 . S
C8730 H8755 0.950 . S
C8731 C8730 1.349 . S
C8731 C8747 1.349 . S
C8732 C8730 1.327 . S
C8732 C8751 1.429 . S
C8732 H8756 0.950 . S
C8733 C8750 1.574 . S
C8733 C8752 1.368 . S
C8733 H8757 0.949 . S
H8734 C8738 0.949 . S
C8735 C8736 1.349 . S
C8735 C8737 1.327 . S
C8735 H8758 0.950 . S
C8736 C8735 1.349 . S
C8736 C8748 1.349 . S
C8737 C8735 1.327 . S
C8737 C8753 1.429 . S
C8737 H8759 0.950 . S
C8738 H8734 0.949 . S
C8738 C8746 1.574 . S
C8738 C8754 1.368 . S
H8739 C8747 0.950 . S
H8740 C8745 0.950 . S
H8741 C8746 0.949 . S
H8742 C8748 0.950 . S
H8743 C8749 0.950 . S
H8744 C8750 0.949 . S
C8745 H8740 0.950 . S
C8745 C8747 1.327 . S
C8745 C8751 1.429 . S
C8746 C8738 1.574 . S
C8746 H8741 0.949 . S
C8746 C8752 1.368 . S
C8747 C8731 1.349 . S
C8747 H8739 0.950 . S
C8747 C8745 1.327 . S
C8748 C8736 1.349 . S
C8748 H8742 0.950 . S
C8748 C8749 1.327 . S
C8749 H8743 0.950 . S
C8749 C8748 1.327 . S
C8749 C8753 1.429 . S
C8750 C8733 1.574 . S
C8750 H8744 0.949 . S
C8750 C8754 1.368 . S
C8751 C8732 1.429 . S
C8751 C8745 1.429 . S
C8751 C8752 1.523 . S
C8752 C8733 1.368 . S
C8752 C8746 1.368 . S
C8752 C8751 1.523 . S
C8753 C8737 1.429 . S
C8753 C8749 1.429 . S
C8753 C8754 1.523 . S
C8754 C8738 1.368 . S
C8754 C8750 1.368 . S
C8754 C8753 1.523 . S
H8755 C8730 0.950 . S
H8756 C8732 0.950 . S
H8757 C8733 0.949 . S
H8758 C8735 0.950 . S
H8759 C8737 0.950 . S
C8760 C8761 1.349 . S
C8760 C8762 1.327 . S
C8760 H8785 0.950 . S
C8761 C8760 1.349 . S
C8761 C8777 1.349 . S
C8762 C8760 1.327 . S
C8762 C8781 1.429 . S
C8762 H8786 0.950 . S
C8763 C8780 1.574 . S
C8763 C8782 1.368 . S
C8763 H8787 0.949 . S
H8764 C8768 0.949 . S
C8765 C8766 1.349 . S
C8765 C8767 1.327 . S
C8765 H8788 0.950 . S
C8766 C8765 1.349 . S
C8766 C8778 1.349 . S
C8767 C8765 1.327 . S
C8767 C8783 1.429 . S
C8767 H8789 0.950 . S
C8768 H8764 0.949 . S
C8768 C8776 1.574 . S
C8768 C8784 1.368 . S
H8769 C8777 0.950 . S
H8770 C8775 0.950 . S
H8771 C8776 0.949 . S
H8772 C8778 0.950 . S
H8773 C8779 0.950 . S
H8774 C8780 0.949 . S
C8775 H8770 0.950 . S
C8775 C8777 1.327 . S
C8775 C8781 1.429 . S
C8776 C8768 1.574 . S
C8776 H8771 0.949 . S
C8776 C8782 1.368 . S
C8777 C8761 1.349 . S
C8777 H8769 0.950 . S
C8777 C8775 1.327 . S
C8778 C8766 1.349 . S
C8778 H8772 0.950 . S
C8778 C8779 1.327 . S
C8779 H8773 0.950 . S
C8779 C8778 1.327 . S
C8779 C8783 1.429 . S
C8780 C8763 1.574 . S
C8780 H8774 0.949 . S
C8780 C8784 1.368 . S
C8781 C8762 1.429 . S
C8781 C8775 1.429 . S
C8781 C8782 1.523 . S
C8782 C8763 1.368 . S
C8782 C8776 1.368 . S
C8782 C8781 1.523 . S
C8783 C8767 1.429 . S
C8783 C8779 1.429 . S
C8783 C8784 1.523 . S
C8784 C8768 1.368 . S
C8784 C8780 1.368 . S
C8784 C8783 1.523 . S
H8785 C8760 0.950 . S
H8786 C8762 0.950 . S
H8787 C8763 0.949 . S
H8788 C8765 0.950 . S
H8789 C8767 0.950 . S
C8790 C8791 1.349 . S
C8790 C8792 1.327 . S
C8790 H8815 0.950 . S
C8791 C8790 1.349 . S
C8791 C8807 1.349 . S
C8792 C8790 1.327 . S
C8792 C8811 1.429 . S
C8792 H8816 0.950 . S
C8793 C8810 1.574 . S
C8793 C8812 1.368 . S
C8793 H8817 0.949 . S
H8794 C8798 0.949 . S
C8795 C8796 1.349 . S
C8795 C8797 1.327 . S
C8795 H8818 0.950 . S
C8796 C8795 1.349 . S
C8796 C8808 1.349 . S
C8797 C8795 1.327 . S
C8797 C8813 1.429 . S
C8797 H8819 0.950 . S
C8798 H8794 0.949 . S
C8798 C8806 1.574 . S
C8798 C8814 1.368 . S
H8799 C8807 0.950 . S
H8800 C8805 0.950 . S
H8801 C8806 0.949 . S
H8802 C8808 0.950 . S
H8803 C8809 0.950 . S
H8804 C8810 0.949 . S
C8805 H8800 0.950 . S
C8805 C8807 1.327 . S
C8805 C8811 1.429 . S
C8806 C8798 1.574 . S
C8806 H8801 0.949 . S
C8806 C8812 1.368 . S
C8807 C8791 1.349 . S
C8807 H8799 0.950 . S
C8807 C8805 1.327 . S
C8808 C8796 1.349 . S
C8808 H8802 0.950 . S
C8808 C8809 1.327 . S
C8809 H8803 0.950 . S
C8809 C8808 1.327 . S
C8809 C8813 1.429 . S
C8810 C8793 1.574 . S
C8810 H8804 0.949 . S
C8810 C8814 1.368 . S
C8811 C8792 1.429 . S
C8811 C8805 1.429 . S
C8811 C8812 1.523 . S
C8812 C8793 1.368 . S
C8812 C8806 1.368 . S
C8812 C8811 1.523 . S
C8813 C8797 1.429 . S
C8813 C8809 1.429 . S
C8813 C8814 1.523 . S
C8814 C8798 1.368 . S
C8814 C8810 1.368 . S
C8814 C8813 1.523 . S
H8815 C8790 0.950 . S
H8816 C8792 0.950 . S
H8817 C8793 0.949 . S
H8818 C8795 0.950 . S
H8819 C8797 0.950 . S
C8820 C8821 1.349 . S
C8820 C8822 1.327 . S
C8820 H8845 0.950 . S
C8821 C8820 1.349 . S
C8821 C8837 1.349 . S
C8822 C8820 1.327 . S
C8822 C8841 1.429 . S
C8822 H8846 0.950 . S
C8823 C8840 1.574 . S
C8823 C8842 1.368 . S
C8823 H8847 0.949 . S
H8824 C8828 0.949 . S
C8825 C8826 1.349 . S
C8825 C8827 1.327 . S
C8825 H8848 0.950 . S
C8826 C8825 1.349 . S
C8826 C8838 1.349 . S
C8827 C8825 1.327 . S
C8827 C8843 1.429 . S
C8827 H8849 0.950 . S
C8828 H8824 0.949 . S
C8828 C8836 1.574 . S
C8828 C8844 1.368 . S
H8829 C8837 0.950 . S
H8830 C8835 0.950 . S
H8831 C8836 0.949 . S
H8832 C8838 0.950 . S
H8833 C8839 0.950 . S
H8834 C8840 0.949 . S
C8835 H8830 0.950 . S
C8835 C8837 1.327 . S
C8835 C8841 1.429 . S
C8836 C8828 1.574 . S
C8836 H8831 0.949 . S
C8836 C8842 1.368 . S
C8837 C8821 1.349 . S
C8837 H8829 0.950 . S
C8837 C8835 1.327 . S
C8838 C8826 1.349 . S
C8838 H8832 0.950 . S
C8838 C8839 1.327 . S
C8839 H8833 0.950 . S
C8839 C8838 1.327 . S
C8839 C8843 1.429 . S
C8840 C8823 1.574 . S
C8840 H8834 0.949 . S
C8840 C8844 1.368 . S
C8841 C8822 1.429 . S
C8841 C8835 1.429 . S
C8841 C8842 1.523 . S
C8842 C8823 1.368 . S
C8842 C8836 1.368 . S
C8842 C8841 1.523 . S
C8843 C8827 1.429 . S
C8843 C8839 1.429 . S
C8843 C8844 1.523 . S
C8844 C8828 1.368 . S
C8844 C8840 1.368 . S
C8844 C8843 1.523 . S
H8845 C8820 0.950 . S
H8846 C8822 0.950 . S
H8847 C8823 0.949 . S
H8848 C8825 0.950 . S
H8849 C8827 0.950 . S
C8850 C8851 1.349 . S
C8850 C8852 1.327 . S
C8850 H8875 0.950 . S
C8851 C8850 1.349 . S
C8851 C8867 1.349 . S
C8852 C8850 1.327 . S
C8852 C8871 1.429 . S
C8852 H8876 0.950 . S
C8853 C8870 1.574 . S
C8853 C8872 1.368 . S
C8853 H8877 0.949 . S
H8854 C8858 0.949 . S
C8855 C8856 1.349 . S
C8855 C8857 1.327 . S
C8855 H8878 0.950 . S
C8856 C8855 1.349 . S
C8856 C8868 1.349 . S
C8857 C8855 1.327 . S
C8857 C8873 1.429 . S
C8857 H8879 0.950 . S
C8858 H8854 0.949 . S
C8858 C8866 1.574 . S
C8858 C8874 1.368 . S
H8859 C8867 0.950 . S
H8860 C8865 0.950 . S
H8861 C8866 0.949 . S
H8862 C8868 0.950 . S
H8863 C8869 0.950 . S
H8864 C8870 0.949 . S
C8865 H8860 0.950 . S
C8865 C8867 1.327 . S
C8865 C8871 1.429 . S
C8866 C8858 1.574 . S
C8866 H8861 0.949 . S
C8866 C8872 1.368 . S
C8867 C8851 1.349 . S
C8867 H8859 0.950 . S
C8867 C8865 1.327 . S
C8868 C8856 1.349 . S
C8868 H8862 0.950 . S
C8868 C8869 1.327 . S
C8869 H8863 0.950 . S
C8869 C8868 1.327 . S
C8869 C8873 1.429 . S
C8870 C8853 1.574 . S
C8870 H8864 0.949 . S
C8870 C8874 1.368 . S
C8871 C8852 1.429 . S
C8871 C8865 1.429 . S
C8871 C8872 1.523 . S
C8872 C8853 1.368 . S
C8872 C8866 1.368 . S
C8872 C8871 1.523 . S
C8873 C8857 1.429 . S
C8873 C8869 1.429 . S
C8873 C8874 1.523 . S
C8874 C8858 1.368 . S
C8874 C8870 1.368 . S
C8874 C8873 1.523 . S
H8875 C8850 0.950 . S
H8876 C8852 0.950 . S
H8877 C8853 0.949 . S
H8878 C8855 0.950 . S
H8879 C8857 0.950 . S
C8880 C8881 1.349 . S
C8880 C8882 1.327 . S
C8880 H8905 0.950 . S
C8881 C8880 1.349 . S
C8881 C8897 1.349 . S
C8882 C8880 1.327 . S
C8882 C8901 1.429 . S
C8882 H8906 0.950 . S
C8883 C8900 1.574 . S
C8883 C8902 1.368 . S
C8883 H8907 0.949 . S
H8884 C8888 0.949 . S
C8885 C8886 1.349 . S
C8885 C8887 1.327 . S
C8885 H8908 0.950 . S
C8886 C8885 1.349 . S
C8886 C8898 1.349 . S
C8887 C8885 1.327 . S
C8887 C8903 1.429 . S
C8887 H8909 0.950 . S
C8888 H8884 0.949 . S
C8888 C8896 1.574 . S
C8888 C8904 1.368 . S
H8889 C8897 0.950 . S
H8890 C8895 0.950 . S
H8891 C8896 0.949 . S
H8892 C8898 0.950 . S
H8893 C8899 0.950 . S
H8894 C8900 0.949 . S
C8895 H8890 0.950 . S
C8895 C8897 1.327 . S
C8895 C8901 1.429 . S
C8896 C8888 1.574 . S
C8896 H8891 0.949 . S
C8896 C8902 1.368 . S
C8897 C8881 1.349 . S
C8897 H8889 0.950 . S
C8897 C8895 1.327 . S
C8898 C8886 1.349 . S
C8898 H8892 0.950 . S
C8898 C8899 1.327 . S
C8899 H8893 0.950 . S
C8899 C8898 1.327 . S
C8899 C8903 1.429 . S
C8900 C8883 1.574 . S
C8900 H8894 0.949 . S
C8900 C8904 1.368 . S
C8901 C8882 1.429 . S
C8901 C8895 1.429 . S
C8901 C8902 1.523 . S
C8902 C8883 1.368 . S
C8902 C8896 1.368 . S
C8902 C8901 1.523 . S
C8903 C8887 1.429 . S
C8903 C8899 1.429 . S
C8903 C8904 1.523 . S
C8904 C8888 1.368 . S
C8904 C8900 1.368 . S
C8904 C8903 1.523 . S
H8905 C8880 0.950 . S
H8906 C8882 0.950 . S
H8907 C8883 0.949 . S
H8908 C8885 0.950 . S
H8909 C8887 0.950 . S
C8910 C8911 1.349 . S
C8910 C8912 1.327 . S
C8910 H8935 0.950 . S
C8911 C8910 1.349 . S
C8911 C8927 1.349 . S
C8912 C8910 1.327 . S
C8912 C8931 1.429 . S
C8912 H8936 0.950 . S
C8913 C8930 1.574 . S
C8913 C8932 1.368 . S
C8913 H8937 0.949 . S
H8914 C8918 0.949 . S
C8915 C8916 1.349 . S
C8915 C8917 1.327 . S
C8915 H8938 0.950 . S
C8916 C8915 1.349 . S
C8916 C8928 1.349 . S
C8917 C8915 1.327 . S
C8917 C8933 1.429 . S
C8917 H8939 0.950 . S
C8918 H8914 0.949 . S
C8918 C8926 1.574 . S
C8918 C8934 1.368 . S
H8919 C8927 0.950 . S
H8920 C8925 0.950 . S
H8921 C8926 0.949 . S
H8922 C8928 0.950 . S
H8923 C8929 0.950 . S
H8924 C8930 0.949 . S
C8925 H8920 0.950 . S
C8925 C8927 1.327 . S
C8925 C8931 1.429 . S
C8926 C8918 1.574 . S
C8926 H8921 0.949 . S
C8926 C8932 1.368 . S
C8927 C8911 1.349 . S
C8927 H8919 0.950 . S
C8927 C8925 1.327 . S
C8928 C8916 1.349 . S
C8928 H8922 0.950 . S
C8928 C8929 1.327 . S
C8929 H8923 0.950 . S
C8929 C8928 1.327 . S
C8929 C8933 1.429 . S
C8930 C8913 1.574 . S
C8930 H8924 0.949 . S
C8930 C8934 1.368 . S
C8931 C8912 1.429 . S
C8931 C8925 1.429 . S
C8931 C8932 1.523 . S
C8932 C8913 1.368 . S
C8932 C8926 1.368 . S
C8932 C8931 1.523 . S
C8933 C8917 1.429 . S
C8933 C8929 1.429 . S
C8933 C8934 1.523 . S
C8934 C8918 1.368 . S
C8934 C8930 1.368 . S
C8934 C8933 1.523 . S
H8935 C8910 0.950 . S
H8936 C8912 0.950 . S
H8937 C8913 0.949 . S
H8938 C8915 0.950 . S
H8939 C8917 0.950 . S
C8940 C8941 1.349 . S
C8940 C8942 1.327 . S
C8940 H8965 0.950 . S
C8941 C8940 1.349 . S
C8941 C8957 1.349 . S
C8942 C8940 1.327 . S
C8942 C8961 1.429 . S
C8942 H8966 0.950 . S
C8943 C8960 1.574 . S
C8943 C8962 1.368 . S
C8943 H8967 0.949 . S
H8944 C8948 0.949 . S
C8945 C8946 1.349 . S
C8945 C8947 1.327 . S
C8945 H8968 0.950 . S
C8946 C8945 1.349 . S
C8946 C8958 1.349 . S
C8947 C8945 1.327 . S
C8947 C8963 1.429 . S
C8947 H8969 0.950 . S
C8948 H8944 0.949 . S
C8948 C8956 1.574 . S
C8948 C8964 1.368 . S
H8949 C8957 0.950 . S
H8950 C8955 0.950 . S
H8951 C8956 0.949 . S
H8952 C8958 0.950 . S
H8953 C8959 0.950 . S
H8954 C8960 0.949 . S
C8955 H8950 0.950 . S
C8955 C8957 1.327 . S
C8955 C8961 1.429 . S
C8956 C8948 1.574 . S
C8956 H8951 0.949 . S
C8956 C8962 1.368 . S
C8957 C8941 1.349 . S
C8957 H8949 0.950 . S
C8957 C8955 1.327 . S
C8958 C8946 1.349 . S
C8958 H8952 0.950 . S
C8958 C8959 1.327 . S
C8959 H8953 0.950 . S
C8959 C8958 1.327 . S
C8959 C8963 1.429 . S
C8960 C8943 1.574 . S
C8960 H8954 0.949 . S
C8960 C8964 1.368 . S
C8961 C8942 1.429 . S
C8961 C8955 1.429 . S
C8961 C8962 1.523 . S
C8962 C8943 1.368 . S
C8962 C8956 1.368 . S
C8962 C8961 1.523 . S
C8963 C8947 1.429 . S
C8963 C8959 1.429 . S
C8963 C8964 1.523 . S
C8964 C8948 1.368 . S
C8964 C8960 1.368 . S
C8964 C8963 1.523 . S
H8965 C8940 0.950 . S
H8966 C8942 0.950 . S
H8967 C8943 0.949 . S
H8968 C8945 0.950 . S
H8969 C8947 0.950 . S
C8970 C8971 1.349 . S
C8970 C8972 1.327 . S
C8970 H8995 0.950 . S
C8971 C8970 1.349 . S
C8971 C8987 1.349 . S
C8972 C8970 1.327 . S
C8972 C8991 1.429 . S
C8972 H8996 0.950 . S
C8973 C8990 1.574 . S
C8973 C8992 1.368 . S
C8973 H8997 0.949 . S
H8974 C8978 0.949 . S
C8975 C8976 1.349 . S
C8975 C8977 1.327 . S
C8975 H8998 0.950 . S
C8976 C8975 1.349 . S
C8976 C8988 1.349 . S
C8977 C8975 1.327 . S
C8977 C8993 1.429 . S
C8977 H8999 0.950 . S
C8978 H8974 0.949 . S
C8978 C8986 1.574 . S
C8978 C8994 1.368 . S
H8979 C8987 0.950 . S
H8980 C8985 0.950 . S
H8981 C8986 0.949 . S
H8982 C8988 0.950 . S
H8983 C8989 0.950 . S
H8984 C8990 0.949 . S
C8985 H8980 0.950 . S
C8985 C8987 1.327 . S
C8985 C8991 1.429 . S
C8986 C8978 1.574 . S
C8986 H8981 0.949 . S
C8986 C8992 1.368 . S
C8987 C8971 1.349 . S
C8987 H8979 0.950 . S
C8987 C8985 1.327 . S
C8988 C8976 1.349 . S
C8988 H8982 0.950 . S
C8988 C8989 1.327 . S
C8989 H8983 0.950 . S
C8989 C8988 1.327 . S
C8989 C8993 1.429 . S
C8990 C8973 1.574 . S
C8990 H8984 0.949 . S
C8990 C8994 1.368 . S
C8991 C8972 1.429 . S
C8991 C8985 1.429 . S
C8991 C8992 1.523 . S
C8992 C8973 1.368 . S
C8992 C8986 1.368 . S
C8992 C8991 1.523 . S
C8993 C8977 1.429 . S
C8993 C8989 1.429 . S
C8993 C8994 1.523 . S
C8994 C8978 1.368 . S
C8994 C8990 1.368 . S
C8994 C8993 1.523 . S
H8995 C8970 0.950 . S
H8996 C8972 0.950 . S
H8997 C8973 0.949 . S
H8998 C8975 0.950 . S
H8999 C8977 0.950 . S
C9000 C9001 1.349 . S
C9000 C9002 1.327 . S
C9000 H9025 0.950 . S
C9001 C9000 1.349 . S
C9001 C9017 1.349 . S
C9002 C9000 1.327 . S
C9002 C9021 1.429 . S
C9002 H9026 0.950 . S
C9003 C9020 1.574 . S
C9003 C9022 1.368 . S
C9003 H9027 0.949 . S
H9004 C9008 0.949 . S
C9005 C9006 1.349 . S
C9005 C9007 1.327 . S
C9005 H9028 0.950 . S
C9006 C9005 1.349 . S
C9006 C9018 1.349 . S
C9007 C9005 1.327 . S
C9007 C9023 1.429 . S
C9007 H9029 0.950 . S
C9008 H9004 0.949 . S
C9008 C9016 1.574 . S
C9008 C9024 1.368 . S
H9009 C9017 0.950 . S
H9010 C9015 0.950 . S
H9011 C9016 0.949 . S
H9012 C9018 0.950 . S
H9013 C9019 0.950 . S
H9014 C9020 0.949 . S
C9015 H9010 0.950 . S
C9015 C9017 1.327 . S
C9015 C9021 1.429 . S
C9016 C9008 1.574 . S
C9016 H9011 0.949 . S
C9016 C9022 1.368 . S
C9017 C9001 1.349 . S
C9017 H9009 0.950 . S
C9017 C9015 1.327 . S
C9018 C9006 1.349 . S
C9018 H9012 0.950 . S
C9018 C9019 1.327 . S
C9019 H9013 0.950 . S
C9019 C9018 1.327 . S
C9019 C9023 1.429 . S
C9020 C9003 1.574 . S
C9020 H9014 0.949 . S
C9020 C9024 1.368 . S
C9021 C9002 1.429 . S
C9021 C9015 1.429 . S
C9021 C9022 1.523 . S
C9022 C9003 1.368 . S
C9022 C9016 1.368 . S
C9022 C9021 1.523 . S
C9023 C9007 1.429 . S
C9023 C9019 1.429 . S
C9023 C9024 1.523 . S
C9024 C9008 1.368 . S
C9024 C9020 1.368 . S
C9024 C9023 1.523 . S
H9025 C9000 0.950 . S
H9026 C9002 0.950 . S
H9027 C9003 0.949 . S
H9028 C9005 0.950 . S
H9029 C9007 0.950 . S
C9030 C9031 1.349 . S
C9030 C9032 1.327 . S
C9030 H9055 0.950 . S
C9031 C9030 1.349 . S
C9031 C9047 1.349 . S
C9032 C9030 1.327 . S
C9032 C9051 1.429 . S
C9032 H9056 0.950 . S
C9033 C9050 1.574 . S
C9033 C9052 1.368 . S
C9033 H9057 0.949 . S
H9034 C9038 0.949 . S
C9035 C9036 1.349 . S
C9035 C9037 1.327 . S
C9035 H9058 0.950 . S
C9036 C9035 1.349 . S
C9036 C9048 1.349 . S
C9037 C9035 1.327 . S
C9037 C9053 1.429 . S
C9037 H9059 0.950 . S
C9038 H9034 0.949 . S
C9038 C9046 1.574 . S
C9038 C9054 1.368 . S
H9039 C9047 0.950 . S
H9040 C9045 0.950 . S
H9041 C9046 0.949 . S
H9042 C9048 0.950 . S
H9043 C9049 0.950 . S
H9044 C9050 0.949 . S
C9045 H9040 0.950 . S
C9045 C9047 1.327 . S
C9045 C9051 1.429 . S
C9046 C9038 1.574 . S
C9046 H9041 0.949 . S
C9046 C9052 1.368 . S
C9047 C9031 1.349 . S
C9047 H9039 0.950 . S
C9047 C9045 1.327 . S
C9048 C9036 1.349 . S
C9048 H9042 0.950 . S
C9048 C9049 1.327 . S
C9049 H9043 0.950 . S
C9049 C9048 1.327 . S
C9049 C9053 1.429 . S
C9050 C9033 1.574 . S
C9050 H9044 0.949 . S
C9050 C9054 1.368 . S
C9051 C9032 1.429 . S
C9051 C9045 1.429 . S
C9051 C9052 1.523 . S
C9052 C9033 1.368 . S
C9052 C9046 1.368 . S
C9052 C9051 1.523 . S
C9053 C9037 1.429 . S
C9053 C9049 1.429 . S
C9053 C9054 1.523 . S
C9054 C9038 1.368 . S
C9054 C9050 1.368 . S
C9054 C9053 1.523 . S
H9055 C9030 0.950 . S
H9056 C9032 0.950 . S
H9057 C9033 0.949 . S
H9058 C9035 0.950 . S
H9059 C9037 0.950 . S
C9060 C9061 1.349 . S
C9060 C9062 1.327 . S
C9060 H9085 0.950 . S
C9061 C9060 1.349 . S
C9061 C9077 1.349 . S
C9062 C9060 1.327 . S
C9062 C9081 1.429 . S
C9062 H9086 0.950 . S
C9063 C9080 1.574 . S
C9063 C9082 1.368 . S
C9063 H9087 0.949 . S
H9064 C9068 0.949 . S
C9065 C9066 1.349 . S
C9065 C9067 1.327 . S
C9065 H9088 0.950 . S
C9066 C9065 1.349 . S
C9066 C9078 1.349 . S
C9067 C9065 1.327 . S
C9067 C9083 1.429 . S
C9067 H9089 0.950 . S
C9068 H9064 0.949 . S
C9068 C9076 1.574 . S
C9068 C9084 1.368 . S
H9069 C9077 0.950 . S
H9070 C9075 0.950 . S
H9071 C9076 0.949 . S
H9072 C9078 0.950 . S
H9073 C9079 0.950 . S
H9074 C9080 0.949 . S
C9075 H9070 0.950 . S
C9075 C9077 1.327 . S
C9075 C9081 1.429 . S
C9076 C9068 1.574 . S
C9076 H9071 0.949 . S
C9076 C9082 1.368 . S
C9077 C9061 1.349 . S
C9077 H9069 0.950 . S
C9077 C9075 1.327 . S
C9078 C9066 1.349 . S
C9078 H9072 0.950 . S
C9078 C9079 1.327 . S
C9079 H9073 0.950 . S
C9079 C9078 1.327 . S
C9079 C9083 1.429 . S
C9080 C9063 1.574 . S
C9080 H9074 0.949 . S
C9080 C9084 1.368 . S
C9081 C9062 1.429 . S
C9081 C9075 1.429 . S
C9081 C9082 1.523 . S
C9082 C9063 1.368 . S
C9082 C9076 1.368 . S
C9082 C9081 1.523 . S
C9083 C9067 1.429 . S
C9083 C9079 1.429 . S
C9083 C9084 1.523 . S
C9084 C9068 1.368 . S
C9084 C9080 1.368 . S
C9084 C9083 1.523 . S
H9085 C9060 0.950 . S
H9086 C9062 0.950 . S
H9087 C9063 0.949 . S
H9088 C9065 0.950 . S
H9089 C9067 0.950 . S
C9090 C9091 1.349 . S
C9090 C9092 1.327 . S
C9090 H9115 0.950 . S
C9091 C9090 1.349 . S
C9091 C9107 1.349 . S
C9092 C9090 1.327 . S
C9092 C9111 1.429 . S
C9092 H9116 0.950 . S
C9093 C9110 1.574 . S
C9093 C9112 1.368 . S
C9093 H9117 0.949 . S
H9094 C9098 0.949 . S
C9095 C9096 1.349 . S
C9095 C9097 1.327 . S
C9095 H9118 0.950 . S
C9096 C9095 1.349 . S
C9096 C9108 1.349 . S
C9097 C9095 1.327 . S
C9097 C9113 1.429 . S
C9097 H9119 0.950 . S
C9098 H9094 0.949 . S
C9098 C9106 1.574 . S
C9098 C9114 1.368 . S
H9099 C9107 0.950 . S
H9100 C9105 0.950 . S
H9101 C9106 0.949 . S
H9102 C9108 0.950 . S
H9103 C9109 0.950 . S
H9104 C9110 0.949 . S
C9105 H9100 0.950 . S
C9105 C9107 1.327 . S
C9105 C9111 1.429 . S
C9106 C9098 1.574 . S
C9106 H9101 0.949 . S
C9106 C9112 1.368 . S
C9107 C9091 1.349 . S
C9107 H9099 0.950 . S
C9107 C9105 1.327 . S
C9108 C9096 1.349 . S
C9108 H9102 0.950 . S
C9108 C9109 1.327 . S
C9109 H9103 0.950 . S
C9109 C9108 1.327 . S
C9109 C9113 1.429 . S
C9110 C9093 1.574 . S
C9110 H9104 0.949 . S
C9110 C9114 1.368 . S
C9111 C9092 1.429 . S
C9111 C9105 1.429 . S
C9111 C9112 1.523 . S
C9112 C9093 1.368 . S
C9112 C9106 1.368 . S
C9112 C9111 1.523 . S
C9113 C9097 1.429 . S
C9113 C9109 1.429 . S
C9113 C9114 1.523 . S
C9114 C9098 1.368 . S
C9114 C9110 1.368 . S
C9114 C9113 1.523 . S
H9115 C9090 0.950 . S
H9116 C9092 0.950 . S
H9117 C9093 0.949 . S
H9118 C9095 0.950 . S
H9119 C9097 0.950 . S
C4801 C1781 1.667 . S
C4806 C1940 1.704 . S
C4831 C981 1.667 . S
C4836 C2011 1.622 . S
C4866 C2071 1.614 . S
C4861 C1861 1.708 . S
C4891 C1061 1.738 . S
C4896 C2120 1.727 . S
C4921 C1901 1.685 . S
C4926 C2180 1.723 . S
C4951 C941 1.664 . S
C4956 C2240 1.702 . S
C4981 C1821 1.718 . S
C4986 C2311 1.707 . S
C5011 C1021 1.710 . S
C5016 C2371 1.616 . S
C5041 C661 1.664 . S
C5046 C2401 1.704 . S
C5071 C1621 1.732 . S
C5076 C2480 1.721 . S
C5101 C741 1.659 . S
C5106 C2540 1.697 . S
C5131 C1581 1.664 . S
C5136 C2600 1.620 . S
C5161 C901 1.719 . S
C5166 C2641 1.708 . S
C5196 C2720 1.621 . S
C5191 C1661 1.714 . S
C5226 C2780 1.731 . S
C5221 C821 1.692 . S
C5251 C1141 1.719 . S
C5256 C2840 1.708 . S
C5286 C2900 1.612 . S
C5281 C781 1.705 . S
C5316 C2960 1.734 . S
C5311 C1701 1.695 . S
C5341 C861 1.728 . S
C5346 C3020 1.717 . S
C5371 C1181 1.653 . S
C5376 C3080 1.691 . S
C5406 C3121 1.710 . S
C5401 C1101 1.670 . S
C5431 C1421 1.665 . S
C5436 C3181 1.670 . S
C5466 C3241 1.638 . S
C5461 C381 1.700 . S
C5496 C3301 1.644 . S
C5491 C1501 1.704 . S
C5526 C3361 1.702 . S
C5521 C461 1.697 . S
C5556 C3421 1.694 . S
C5551 C1541 1.690 . S
C5581 C341 1.669 . S
C5586 C3481 1.674 . S
C5616 C3541 1.646 . S
C5611 C1461 1.707 . S
C5641 C421 1.700 . S
C5646 C3601 1.640 . S
C5676 C3680 1.665 . S
C5671 C61 1.659 . S
C5706 C3740 1.715 . S
C5701 C1261 1.707 . S
C5731 C141 1.674 . S
C5736 C3800 1.661 . S
C5766 C3860 1.655 . S
C5761 C1221 1.715 . S
C5796 C3920 1.662 . S
C5791 C301 1.703 . S
C5821 C1301 1.723 . S
C5826 C3980 1.661 . S
C5856 C4040 1.676 . S
C5851 C221 1.690 . S
C5886 C4100 1.667 . S
C5881 C541 1.710 . S
C5911 C181 1.715 . S
C5916 C4160 1.653 . S
C5946 C4220 1.672 . S
C5941 C1341 1.687 . S
C5971 C261 1.718 . S
C5976 C4280 1.675 . S
C6006 C4340 1.669 . S
C6001 C581 1.682 . S
C6031 C501 1.651 . S
C6036 C4400 1.657 . S
C6061 C701 1.734 . S
C6066 C4460 1.723 . S
C6096 C4520 1.617 . S
C6091 C621 1.662 . S
C6121 C1741 1.716 . S
C6126 C4561 1.705 . S
C6151 C101 1.693 . S
C6156 C4640 1.700 . S
C6186 C4700 1.668 . S
C6181 C21 1.730 . S
C6216 C4760 1.665 . S
C6211 C1381 1.707 . S
C6241 C1335 2.020 . S
C6246 C1921 2.001 . S
C6271 C535 1.541 . S
C6276 C2000 1.465 . S
C6301 C1362 2.105 . S
C6306 C2041 1.998 . S
C6336 C2131 1.573 . S
C6331 C1295 1.572 . S
C6361 C575 2.045 . S
C6366 C2161 2.028 . S
C6391 C1215 1.553 . S
C6396 C2251 1.556 . S
C6426 C2300 2.032 . S
C6421 C495 2.051 . S
C6451 C1242 1.535 . S
C6456 C2360 1.482 . S
C6481 C1255 2.052 . S
C6486 C2431 2.032 . S
C6516 C2491 1.558 . S
C6511 C562 1.528 . S
C6541 C1202 2.088 . S
C6546 C2521 2.011 . S
C6576 C2581 1.446 . S
C6571 C482 1.496 . S
C6601 C522 2.123 . S
C6606 C2671 2.046 . S
C6631 C1375 1.548 . S
C6636 C2701 1.470 . S
C6666 C2761 2.025 . S
C6661 C1282 2.099 . S
C6696 C2851 1.550 . S
C6691 C1322 1.522 . S
C6721 C455 2.005 . S
C6726 C2611 1.959 . S
C6751 C1415 2.027 . S
C6756 C2911 1.977 . S
C6781 C1455 1.561 . S
C6786 C2971 1.563 . S
C6816 C3001 2.015 . S
C6811 C1482 2.089 . S
C6846 C2660 1.559 . S
C6841 C442 1.532 . S
C6871 C362 2.099 . S
C6876 C2461 2.025 . S
C6901 C1495 1.546 . S
C6906 C3091 1.549 . S
C6936 C3140 1.533 . S
C6931 C1402 1.506 . S
C6966 C3211 1.539 . S
C6961 C1695 1.567 . S
C6991 C1135 2.040 . S
C6996 C3271 1.916 . S
C7026 C3320 1.499 . S
C7021 C1722 1.553 . S
C7056 C3380 2.088 . S
C7051 C1655 2.053 . S
C7081 C1175 1.561 . S
C7086 C3451 1.535 . S
C7111 C1562 2.007 . S
C7116 C3500 2.083 . S
C7141 C1095 1.541 . S
C7146 C3560 1.501 . S
C7176 C3631 1.895 . S
C7171 C1615 2.017 . S
C7206 C3661 1.511 . S
C7201 C1602 1.555 . S
C7231 C1162 2.040 . S
C7236 C3751 2.120 . S
C7266 C3811 1.501 . S
C7261 C1575 1.543 . S
C7291 C1082 2.002 . S
C7296 C3841 1.922 . S
C7326 C3901 1.490 . S
C7321 C1122 1.531 . S
C7351 C1735 2.058 . S
C7356 C3961 1.933 . S
C7386 C4051 1.507 . S
C7381 C1642 1.563 . S
C7411 C1682 2.001 . S
C7416 C4111 2.082 . S
C7441 C1042 1.559 . S
C7446 C3871 1.504 . S
C7471 C1775 1.534 . S
C7476 C4171 1.493 . S
C7501 C1815 2.059 . S
C7506 C4201 1.934 . S
C7536 C4261 1.518 . S
C7531 C1842 1.561 . S
C7561 C1055 2.019 . S
C7566 C3931 2.057 . S
C7591 C975 1.568 . S
C7596 C3721 1.541 . S
C7626 C4321 1.936 . S
C7621 C1855 2.061 . S
C7651 C1762 1.991 . S
C7656 C4411 2.070 . S
C7686 C2221 2.009 . S
C7681 C215 2.028 . S
C7716 C2281 1.560 . S
C7711 C255 1.557 . S
C7746 C2341 1.989 . S
C7741 C282 2.096 . S
C7776 C2191 1.559 . S
C7771 C175 1.557 . S
C7806 C2101 2.058 . S
C7801 C135 2.074 . S
C7831 C15 1.554 . S
C7836 C1951 1.557 . S
C7861 C55 2.022 . S
C7866 C1981 1.974 . S
C7891 C82 1.535 . S
C7896 C2060 1.480 . S
C7921 C95 2.031 . S
C7926 C3151 2.013 . S
C7951 C122 1.534 . S
C7956 C4471 1.564 . S
C7981 C2 2.109 . S
C7986 C3061 2.031 . S
C8011 C42 1.490 . S
C8016 C4501 1.440 . S
C8041 C242 2.118 . S
C8046 C4591 2.041 . S
C8076 C2881 1.460 . S
C8071 C295 1.539 . S
C8101 C162 2.103 . S
C8106 C2941 2.029 . S
C8131 C202 1.530 . S
C8136 C3031 1.559 . S
C8166 C4531 1.953 . S
C8161 C1535 2.000 . S
C8191 C335 2.035 . S
C8196 C2731 1.985 . S
C8221 C375 1.552 . S
C8226 C2791 1.554 . S
C8251 C402 2.080 . S
C8256 C2821 2.005 . S
C8286 C4580 1.550 . S
C8281 C1522 1.522 . S
C8316 C4441 2.030 . S
C8311 C1442 2.104 . S
C8346 C2551 1.535 . S
C8341 C415 1.533 . S
C8371 C322 1.519 . S
C8376 C2420 1.547 . S
C8401 C815 1.571 . S
C8406 C3511 1.544 . S
C8431 C855 2.039 . S
C8436 C3571 1.916 . S
C8461 C882 1.548 . S
C8466 C3620 1.495 . S
C8491 C775 2.053 . S
C8496 C3440 2.088 . S
C8526 C3391 1.537 . S
C8521 C735 1.562 . S
C8556 C3200 2.078 . S
C8551 C602 2.002 . S
C8586 C3260 1.499 . S
C8581 C655 1.539 . S
C8611 C695 2.022 . S
C8616 C3331 1.899 . S
C8646 C4381 1.512 . S
C8641 C682 1.556 . S
C8671 C722 2.038 . S
C8676 C4651 2.118 . S
C8701 C615 1.542 . S
C8706 C4351 1.500 . S
C8736 C4681 1.924 . S
C8731 C642 2.004 . S
C8761 C842 1.551 . S
C8766 C4741 1.508 . S
C8796 C4141 1.924 . S
C8791 C895 2.049 . S
C8821 C762 1.544 . S
C8826 C4231 1.489 . S
C8851 C802 2.010 . S
C8856 C4291 2.091 . S
C8881 C1895 1.551 . S
C8886 C4711 1.510 . S
C8916 C3991 1.497 . S
C8911 C935 1.537 . S
C8941 C962 2.022 . S
C8946 C4021 1.937 . S
C8971 C1002 1.557 . S
C8976 C4081 1.513 . S
C9001 C1882 1.983 . S
C9006 C4771 2.063 . S
C9031 C1802 1.577 . S
C9036 C4621 1.534 . S
C9066 C3781 1.935 . S
C9061 C1015 2.062 . S
C9096 C3691 2.069 . S
C9091 C922 1.990 . S
