# Generated by pormake.
# Topology hwx, (6,3)-cn, num edge types: 1
# Building blocks:
#     Node 0, Type 0, BuildingBlock: IZENUY_clean_sbu_0, # of connection points: 6
#     Node 1, Type 0, BuildingBlock: IZENUY_clean_sbu_0, # of connection points: 6
#     Node 2, Type 0, BuildingBlock: IZENUY_clean_sbu_0, # of connection points: 6
#     Node 3, Type 0, BuildingBlock: IZENUY_clean_sbu_0, # of connection points: 6
#     Node 4, Type 1, BuildingBlock: BETDAH_clean_linker_0, # of connection points: 3
#     Node 5, Type 1, BuildingBlock: BETDAH_clean_linker_0, # of connection points: 3
#     Node 6, Type 1, BuildingBlock: BETDAH_clean_linker_0, # of connection points: 3
#     Node 7, Type 1, BuildingBlock: BETDAH_clean_linker_0, # of connection points: 3
#     Node 8, Type 1, BuildingBlock: BETDAH_clean_linker_0, # of connection points: 3
#     Node 9, Type 1, BuildingBlock: BETDAH_clean_linker_0, # of connection points: 3
#     Node 10, Type 1, BuildingBlock: BETDAH_clean_linker_0, # of connection points: 3
#     Node 11, Type 1, BuildingBlock: BETDAH_clean_linker_0, # of connection points: 3
#     Edge 12, Type (0, 1), BuildingBlock: EZIPEK_clean_linker_0, # of connection points: 2
#     Edge 13, Type (0, 1), BuildingBlock: EZIPEK_clean_linker_0, # of connection points: 2
#     Edge 14, Type (0, 1), BuildingBlock: EZIPEK_clean_linker_0, # of connection points: 2
#     Edge 15, Type (0, 1), BuildingBlock: EZIPEK_clean_linker_0, # of connection points: 2
#     Edge 16, Type (0, 1), BuildingBlock: EZIPEK_clean_linker_0, # of connection points: 2
#     Edge 17, Type (0, 1), BuildingBlock: EZIPEK_clean_linker_0, # of connection points: 2
#     Edge 18, Type (0, 1), BuildingBlock: EZIPEK_clean_linker_0, # of connection points: 2
#     Edge 19, Type (0, 1), BuildingBlock: EZIPEK_clean_linker_0, # of connection points: 2
#     Edge 20, Type (0, 1), BuildingBlock: EZIPEK_clean_linker_0, # of connection points: 2
#     Edge 21, Type (0, 1), BuildingBlock: EZIPEK_clean_linker_0, # of connection points: 2
#     Edge 22, Type (0, 1), BuildingBlock: EZIPEK_clean_linker_0, # of connection points: 2
#     Edge 23, Type (0, 1), BuildingBlock: EZIPEK_clean_linker_0, # of connection points: 2
#     Edge 24, Type (0, 1), BuildingBlock: EZIPEK_clean_linker_0, # of connection points: 2
#     Edge 25, Type (0, 1), BuildingBlock: EZIPEK_clean_linker_0, # of connection points: 2
#     Edge 26, Type (0, 1), BuildingBlock: EZIPEK_clean_linker_0, # of connection points: 2
#     Edge 27, Type (0, 1), BuildingBlock: EZIPEK_clean_linker_0, # of connection points: 2
#     Edge 28, Type (0, 1), BuildingBlock: EZIPEK_clean_linker_0, # of connection points: 2
#     Edge 29, Type (0, 1), BuildingBlock: EZIPEK_clean_linker_0, # of connection points: 2
#     Edge 30, Type (0, 1), BuildingBlock: EZIPEK_clean_linker_0, # of connection points: 2
#     Edge 31, Type (0, 1), BuildingBlock: EZIPEK_clean_linker_0, # of connection points: 2
#     Edge 32, Type (0, 1), BuildingBlock: EZIPEK_clean_linker_0, # of connection points: 2
#     Edge 33, Type (0, 1), BuildingBlock: EZIPEK_clean_linker_0, # of connection points: 2
#     Edge 34, Type (0, 1), BuildingBlock: EZIPEK_clean_linker_0, # of connection points: 2
#     Edge 35, Type (0, 1), BuildingBlock: EZIPEK_clean_linker_0, # of connection points: 2
# Relax obj value: 0.004
# Max RMSD: 0.054
# Mean RMSD: 0.045
data_MOF--net-hwx--node1-IZENUY_clean_sbu_0--node2-BETDAH_clean_linker_0--edge1-EZIPEK_clean_linker_0
_symmetry_space_group_name_H-M    P1
_symmetry_Int_Tables_number       1
_symmetry_cell_setting            triclinic
loop_
_symmetry_equiv_pos_as_xyz
'x, y, z'
_cell_length_a     37.874347
_cell_length_b     37.759388
_cell_length_c     15.129007
_cell_angle_alpha  92.502194
_cell_angle_beta   92.490461
_cell_angle_gamma 89.983404
loop_
_atom_site_label
_atom_site_type_symbol
_atom_site_fract_x
_atom_site_fract_y
_atom_site_fract_z
_atom_type_partial_charge
Fe0 Fe 0.24463 0.24585 0.10151 0.0
Fe1 Fe 0.24132 0.24272 0.89759 0.0
O2 O 0.22629 0.22793 0.99923 0.0
Fe3 Fe 0.19246 0.19528 0.99903 0.0
O4 O 0.17347 0.21199 0.1028 0.0
O5 O 0.20188 0.26161 0.13516 0.0
O6 O 0.25183 0.29052 0.06225 0.0
C7 C 0.23879 0.30564 0.99552 0.0
C8 C 0.23627 0.17254 0.13184 0.0
O9 O 0.22953 0.28827 0.92541 0.0
C10 C 0.23339 0.17177 0.85494 0.0
O11 O 0.28881 0.23171 0.07552 0.0
O12 O 0.2876 0.24989 0.93909 0.0
O13 O 0.22132 0.16502 0.05735 0.0
O14 O 0.24059 0.20441 0.15992 0.0
C15 C 0.16652 0.23599 0.86662 0.0
O16 O 0.25408 0.19804 0.86137 0.0
O17 O 0.20488 0.17212 0.89557 0.0
C18 C 0.30466 0.24026 0.00814 0.0
O19 O 0.19756 0.23865 0.83872 0.0
O20 O 0.16134 0.22337 0.94068 0.0
C21 C 0.17575 0.24178 0.14418 0.0
Fe22 Fe 0.27084 0.74122 0.62136 0.0
Fe23 Fe 0.31722 0.69324 0.50445 0.0
O24 O 0.2843 0.72664 0.51472 0.0
Fe25 Fe 0.26526 0.74517 0.41799 0.0
O26 O 0.26001 0.78996 0.46882 0.0
O27 O 0.28275 0.78671 0.60472 0.0
O28 O 0.31534 0.73655 0.67482 0.0
C29 C 0.34586 0.73364 0.64334 0.0
C30 C 0.20618 0.7396 0.51631 0.0
O31 O 0.34981 0.72082 0.56601 0.0
C32 C 0.27106 0.6712 0.37024 0.0
O33 O 0.25785 0.69669 0.64731 0.0
O34 O 0.3063 0.6704 0.60465 0.0
O35 O 0.22096 0.73239 0.44466 0.0
O36 O 0.2241 0.74886 0.58635 0.0
C37 C 0.33346 0.73926 0.368 0.0
O38 O 0.2865 0.66364 0.4426 0.0
O39 O 0.26717 0.70331 0.34952 0.0
C40 C 0.27853 0.67057 0.64804 0.0
O41 O 0.33503 0.70923 0.40184 0.0
O42 O 0.30811 0.7598 0.38398 0.0
C43 C 0.27286 0.80459 0.54003 0.0
Fe44 Fe 0.7675 0.7841 0.90752 0.0
Fe45 Fe 0.76601 0.77746 0.1091 0.0
O46 O 0.78357 0.797 0.01632 0.0
Fe47 Fe 0.81711 0.82985 0.03176 0.0
O48 O 0.80264 0.85423 0.93457 0.0
O49 O 0.75295 0.82938 0.8875 0.0
O50 O 0.72203 0.77406 0.93861 0.0
C51 C 0.70501 0.78374 0.0057 0.0
C52 C 0.84142 0.79265 0.88867 0.0
O53 O 0.72135 0.79156 0.07845 0.0
C54 C 0.83573 0.78143 0.1651 0.0
O55 O 0.7809 0.73824 0.92102 0.0
O56 O 0.7595 0.73342 0.05332 0.0
O57 O 0.84767 0.80329 0.96791 0.0
O58 O 0.81005 0.79109 0.85571 0.0
C59 C 0.77435 0.8504 0.16548 0.0
O60 O 0.80932 0.76177 0.14653 0.0
O61 O 0.83769 0.8116 0.13242 0.0
C62 C 0.77224 0.71952 0.98386 0.0
O63 O 0.76962 0.81809 0.18184 0.0
O64 O 0.78904 0.85896 0.09634 0.0
C65 C 0.77247 0.85667 0.89651 0.0
Fe66 Fe 0.69731 0.32995 0.50138 0.0
Fe67 Fe 0.74698 0.28601 0.61916 0.0
O68 O 0.72958 0.29628 0.51239 0.0
Fe69 Fe 0.74475 0.27323 0.4171 0.0
O70 O 0.74098 0.31146 0.34497 0.0
O71 O 0.72518 0.35572 0.43403 0.0
O72 O 0.71464 0.35696 0.59688 0.0
C73 C 0.74532 0.35923 0.63308 0.0
C74 C 0.67428 0.27781 0.36884 0.0
O75 O 0.76387 0.33136 0.63925 0.0
C76 C 0.73815 0.21938 0.54105 0.0
O77 O 0.66704 0.30687 0.56884 0.0
O78 O 0.70627 0.2968 0.67626 0.0
O79 O 0.70034 0.25785 0.38372 0.0
O80 O 0.67423 0.30905 0.40294 0.0
C81 C 0.80732 0.2811 0.51545 0.0
O82 O 0.73103 0.24038 0.60529 0.0
O83 O 0.75086 0.23071 0.47137 0.0
C84 C 0.6745 0.29854 0.64727 0.0
O85 O 0.791 0.27272 0.58256 0.0
O86 O 0.7902 0.28714 0.44412 0.0
C87 C 0.73776 0.34443 0.36249 0.0
H88 H 0.26128 0.61631 0.01151 0.0
H89 H 0.21948 0.52327 0.124 0.0
H90 H 0.22934 0.52663 0.84206 0.0
C91 C 0.25118 0.58942 0.00321 0.0
C92 C 0.24695 0.5735 0.91811 0.0
C93 C 0.2421 0.57133 0.0777 0.0
C94 C 0.22801 0.53686 0.06701 0.0
C95 C 0.22344 0.52074 0.98161 0.0
C96 C 0.23337 0.53894 0.9078 0.0
N97 N 0.20398 0.4889 0.96739 0.0
C98 C 0.21689 0.45591 0.9897 0.0
H99 H 0.89715 0.78334 0.53375 0.0
H100 H 0.98128 0.73102 0.39712 0.0
H101 H 0.98707 0.74385 0.68109 0.0
C102 C 0.92327 0.77149 0.53471 0.0
C103 C 0.94065 0.76564 0.61614 0.0
C104 C 0.93737 0.75886 0.45509 0.0
C105 C 0.97078 0.74234 0.45755 0.0
C106 C 0.9896 0.73839 0.53893 0.0
C107 C 0.97409 0.74958 0.61808 0.0
N108 N 0.01974 0.71617 0.54322 0.0
C109 C 0.05413 0.72731 0.53021 0.0
H110 H 0.76131 0.40196 0.98343 0.0
H111 H 0.77111 0.50914 0.8992 0.0
H112 H 0.76286 0.48881 0.17575 0.0
C113 C 0.76369 0.43019 0.99918 0.0
C114 C 0.7624 0.44269 0.08721 0.0
C115 C 0.76669 0.45387 0.93097 0.0
C116 C 0.76911 0.49076 0.95174 0.0
C117 C 0.76777 0.50342 0.04082 0.0
C118 C 0.76443 0.47914 0.10749 0.0
N119 N 0.76853 0.53999 0.06792 0.0
C120 C 0.77258 0.56929 0.01638 0.0
H121 H 0.1143 0.24526 0.51452 0.0
H122 H 0.01958 0.28677 0.62699 0.0
H123 H 0.03578 0.29553 0.34914 0.0
C124 C 0.08853 0.25753 0.5061 0.0
C125 C 0.07712 0.26869 0.42249 0.0
C126 C 0.06853 0.26485 0.58037 0.0
C127 C 0.03499 0.28062 0.56968 0.0
C128 C 0.02273 0.29075 0.48523 0.0
C129 C 0.04442 0.28588 0.41297 0.0
N130 N 0.99079 0.30982 0.47312 0.0
C131 C 0.95787 0.29684 0.49314 0.0
H132 H 0.76271 0.90689 0.54029 0.0
H133 H 0.72331 0.99445 0.39241 0.0
H134 H 0.7233 1.00003 0.6771 0.0
C135 C 0.75207 0.93354 0.53872 0.0
C136 C 0.74452 0.95187 0.61808 0.0
C137 C 0.74481 0.94881 0.45721 0.0
C138 C 0.73025 0.98308 0.45535 0.0
C139 C 0.72321 1.00206 0.53474 0.0
C140 C 0.7303 0.98625 0.616 0.0
N141 N 0.70244 0.03328 0.53212 0.0
C142 C 0.71603 0.06766 0.53752 0.0
H143 H 0.6208 0.27135 0.01035 0.0
H144 H 0.51835 0.2635 0.12312 0.0
H145 H 0.52709 0.28802 0.84961 0.0
C146 C 0.59217 0.27159 0.00349 0.0
C147 C 0.57612 0.27817 0.92105 0.0
C148 C 0.57187 0.26632 0.07748 0.0
C149 C 0.5345 0.26702 0.06677 0.0
C150 C 0.5184 0.27552 0.98436 0.0
C151 C 0.53941 0.28087 0.91236 0.0
N152 N 0.48218 0.28463 0.97415 0.0
C153 C 0.45368 0.26588 0.00321 0.0
H154 H 0.26137 0.1205 0.50556 0.0
H155 H 0.25793 0.01692 0.6142 0.0
H156 H 0.26355 0.02772 0.33308 0.0
C157 C 0.26325 0.09189 0.49704 0.0
C158 C 0.26393 0.07645 0.41167 0.0
C159 C 0.26129 0.07075 0.57074 0.0
C160 C 0.26138 0.0334 0.55839 0.0
C161 C 0.26279 0.01791 0.47187 0.0
C162 C 0.26441 0.03963 0.39969 0.0
N163 N 0.25743 0.98126 0.4517 0.0
C164 C 0.26615 0.95331 0.50496 0.0
H165 H 0.39581 0.74388 0.99536 0.0
H166 H 0.49282 0.78305 0.89762 0.0
H167 H 0.47437 0.79165 0.1764 0.0
C168 C 0.4218 0.75559 0.00799 0.0
C169 C 0.43281 0.76612 0.09481 0.0
C170 C 0.44275 0.76243 0.93654 0.0
C171 C 0.47669 0.7773 0.95264 0.0
C172 C 0.4885 0.78705 0.03995 0.0
C173 C 0.46596 0.7825 0.10989 0.0
N174 N 0.52084 0.80546 0.05847 0.0
C175 C 0.55369 0.79407 0.03045 0.0
C176 C 0.16133 0.26672 0.29639 0.0
C177 C 0.1498 0.25118 0.21269 0.0
C178 C 0.09026 0.24517 0.26807 0.0
C179 C 0.10103 0.26458 0.34705 0.0
N180 N 0.14444 0.3035 0.42195 0.0
N181 N 0.10023 0.23527 0.11243 0.0
C182 C 0.13579 0.27858 0.35644 0.0
C183 C 0.1133 0.24328 0.19642 0.0
N184 N 0.19636 0.26796 0.32216 0.0
N185 N 0.05887 0.22725 0.26224 0.0
H186 H 0.11565 0.23605 0.05726 0.0
H187 H 0.07329 0.23221 0.09673 0.0
H188 H 0.04175 0.22674 0.31428 0.0
H189 H 0.05164 0.20999 0.20885 0.0
H190 H 0.20519 0.2765 0.38578 0.0
H191 H 0.21618 0.25624 0.28537 0.0
H192 H 0.16882 0.31645 0.42653 0.0
H193 H 0.126 0.31407 0.46502 0.0
C194 C 0.24081 0.62223 0.70203 0.0
C195 C 0.27259 0.642 0.71014 0.0
C196 C 0.2911 0.60797 0.838 0.0
C197 C 0.25643 0.59397 0.84069 0.0
N198 N 0.19597 0.59311 0.78113 0.0
N199 N 0.3261 0.65734 0.7964 0.0
C200 C 0.23056 0.60233 0.77401 0.0
C201 C 0.29749 0.63569 0.78056 0.0
N202 N 0.22114 0.62138 0.62437 0.0
N203 N 0.31795 0.59464 0.88981 0.0
H204 H 0.33075 0.67916 0.75902 0.0
H205 H 0.34308 0.65583 0.85221 0.0
H206 H 0.31436 0.57355 0.93088 0.0
H207 H 0.34429 0.60194 0.88461 0.0
H208 H 0.19889 0.60532 0.61275 0.0
H209 H 0.23013 0.633 0.56829 0.0
H210 H 0.17591 0.60169 0.7378 0.0
H211 H 0.18676 0.58006 0.83487 0.0
C212 C 0.89934 0.77978 0.22398 0.0
C213 C 0.86313 0.77107 0.23361 0.0
C214 C 0.88026 0.74341 0.37252 0.0
C215 C 0.91423 0.75922 0.3724 0.0
N216 N 0.95476 0.79663 0.30008 0.0
N217 N 0.81877 0.75126 0.33201 0.0
C218 C 0.92359 0.77841 0.2984 0.0
C219 C 0.85339 0.75431 0.31148 0.0
N220 N 0.91094 0.78819 0.14334 0.0
N221 N 0.87353 0.71812 0.43144 0.0
H222 H 0.79788 0.7622 0.29555 0.0
H223 H 0.81116 0.74189 0.39215 0.0
H224 H 0.89301 0.70871 0.47534 0.0
H225 H 0.84992 0.70385 0.42934 0.0
H226 H 0.93756 0.79198 0.1316 0.0
H227 H 0.89463 0.78693 0.08609 0.0
H228 H 0.96097 0.81399 0.25132 0.0
H229 H 0.97301 0.79681 0.35368 0.0
C230 C 0.78967 0.39663 0.72816 0.0
C231 C 0.75551 0.39256 0.68716 0.0
C232 C 0.73313 0.43958 0.7866 0.0
C233 C 0.76529 0.43877 0.83817 0.0
N234 N 0.82571 0.41931 0.85497 0.0
N235 N 0.70442 0.42696 0.64296 0.0
C236 C 0.7943 0.4186 0.80697 0.0
C237 C 0.72998 0.41919 0.70552 0.0
N238 N 0.81789 0.38206 0.68707 0.0
N239 N 0.70479 0.45803 0.81723 0.0
H240 H 0.70477 0.4166 0.57799 0.0
H241 H 0.6866 0.44778 0.65095 0.0
H242 H 0.70594 0.47381 0.87556 0.0
H243 H 0.67948 0.45562 0.78769 0.0
H244 H 0.84403 0.38624 0.70899 0.0
H245 H 0.81511 0.36954 0.62425 0.0
H246 H 0.84646 0.40196 0.84253 0.0
H247 H 0.83043 0.43661 0.90993 0.0
C248 C 0.61091 0.28359 0.31357 0.0
C249 C 0.64428 0.2667 0.30472 0.0
C250 C 0.61932 0.23681 0.16854 0.0
C251 C 0.59144 0.26186 0.16474 0.0
N252 N 0.56381 0.31324 0.23434 0.0
N253 N 0.68062 0.22867 0.21035 0.0
C254 C 0.58765 0.28616 0.23795 0.0
C255 C 0.64858 0.24305 0.22948 0.0
N256 N 0.60107 0.29674 0.39423 0.0
N257 N 0.61836 0.20769 0.11177 0.0
H258 H 0.70406 0.23372 0.24667 0.0
H259 H 0.68473 0.21435 0.1512 0.0
H260 H 0.597 0.20249 0.0671 0.0
H261 H 0.63667 0.18715 0.11627 0.0
H262 H 0.57604 0.30731 0.40431 0.0
H263 H 0.61602 0.29253 0.45229 0.0
H264 H 0.56295 0.33331 0.28381 0.0
H265 H 0.54741 0.31776 0.17905 0.0
C266 C 0.2709 0.12161 0.79437 0.0
C267 C 0.23966 0.14241 0.78835 0.0
C268 C 0.21864 0.10519 0.66004 0.0
C269 C 0.25232 0.08911 0.656 0.0
N270 N 0.31165 0.08284 0.71677 0.0
N271 N 0.18658 0.15771 0.70386 0.0
C272 C 0.27877 0.09729 0.72299 0.0
C273 C 0.214 0.13493 0.7187 0.0
N274 N 0.29243 0.12433 0.86915 0.0
N275 N 0.19125 0.09241 0.60608 0.0
H276 H 0.1837 0.18134 0.74063 0.0
H277 H 0.16911 0.15529 0.64879 0.0
H278 H 0.19394 0.0705 0.56238 0.0
H279 H 0.16529 0.10112 0.61152 0.0
H280 H 0.31397 0.10775 0.88057 0.0
H281 H 0.28673 0.14102 0.92347 0.0
H282 H 0.33321 0.09088 0.75785 0.0
H283 H 0.31769 0.06407 0.66705 0.0
C284 C 0.39582 0.73953 0.31396 0.0
C285 C 0.35948 0.74838 0.30078 0.0
C286 C 0.37388 0.7761 0.16317 0.0
C287 C 0.40844 0.76157 0.16868 0.0
N288 N 0.44963 0.72267 0.24296 0.0
N289 N 0.3131 0.76703 0.1971 0.0
C290 C 0.41874 0.74137 0.24237 0.0
C291 C 0.34818 0.76463 0.22122 0.0
N292 N 0.40897 0.73072 0.3955 0.0
N293 N 0.36561 0.80129 0.10359 0.0
H294 H 0.29312 0.75595 0.23216 0.0
H295 H 0.3042 0.77599 0.13584 0.0
H296 H 0.38411 0.81153 0.0624 0.0
H297 H 0.34155 0.81474 0.10252 0.0
H298 H 0.43586 0.727 0.40975 0.0
H299 H 0.3938 0.73154 0.45121 0.0
H300 H 0.45645 0.70486 0.29158 0.0
H301 H 0.46661 0.72208 0.19051 0.0
C302 C 0.72798 0.89416 0.81283 0.0
C303 C 0.76312 0.88913 0.84573 0.0
C304 C 0.78377 0.93372 0.74638 0.0
C305 C 0.74986 0.93369 0.70286 0.0
N306 N 0.68906 0.91427 0.69396 0.0
N307 N 0.81789 0.92088 0.87984 0.0
C308 C 0.72158 0.91451 0.73684 0.0
C309 C 0.78939 0.91379 0.82338 0.0
N310 N 0.70066 0.8822 0.85938 0.0
N311 N 0.81092 0.95197 0.71268 0.0
H312 H 0.81958 0.91213 0.94421 0.0
H313 H 0.83672 0.94016 0.86931 0.0
H314 H 0.80744 0.96824 0.65899 0.0
H315 H 0.83721 0.94915 0.73435 0.0
H316 H 0.67426 0.88788 0.84406 0.0
H317 H 0.70487 0.87064 0.92039 0.0
H318 H 0.66872 0.89728 0.70905 0.0
H319 H 0.68307 0.92949 0.63941 0.0
C320 C 0.8787 0.74999 0.80229 0.0
C321 C 0.87128 0.78545 0.82993 0.0
C322 C 0.91706 0.80662 0.73454 0.0
C323 C 0.92069 0.77169 0.69798 0.0
N324 N 0.90326 0.7101 0.69136 0.0
N325 N 0.88214 0.84813 0.82097 0.0
C326 C 0.90135 0.74325 0.73102 0.0
C327 C 0.89045 0.81397 0.79652 0.0
N328 N 0.86454 0.7227 0.8455 0.0
N329 N 0.93927 0.83262 0.71008 0.0
H330 H 0.86388 0.85456 0.86857 0.0
H331 H 0.89181 0.87018 0.7908 0.0
H332 H 0.95884 0.82787 0.66454 0.0
H333 H 0.94042 0.85798 0.73995 0.0
H334 H 0.87169 0.69628 0.83503 0.0
H335 H 0.84804 0.72691 0.89817 0.0
H336 H 0.88642 0.68939 0.70473 0.0
H337 H 0.92017 0.7037 0.64052 0.0
C338 C 0.77948 0.37703 0.26923 0.0
C339 C 0.74433 0.37002 0.29296 0.0
C340 C 0.72126 0.40896 0.17787 0.0
C341 C 0.75638 0.41758 0.15798 0.0
N342 N 0.81908 0.41331 0.18867 0.0
N343 N 0.6818 0.38293 0.2785 0.0
C344 C 0.78557 0.40252 0.20471 0.0
C345 C 0.71524 0.38709 0.24985 0.0
N346 N 0.80701 0.35926 0.30838 0.0
N347 N 0.69361 0.42096 0.12612 0.0
H348 H 0.67563 0.36607 0.32804 0.0
H349 H 0.66032 0.39813 0.25772 0.0
H350 H 0.69676 0.43809 0.0748 0.0
H351 H 0.66774 0.41197 0.12937 0.0
H352 H 0.83275 0.3597 0.28711 0.0
H353 H 0.80385 0.3425 0.36033 0.0
H354 H 0.84143 0.40652 0.22661 0.0
H355 H 0.82449 0.43109 0.14009 0.0
C356 C 0.11169 0.2182 0.77294 0.0
C357 C 0.1357 0.245 0.80711 0.0
C358 C 0.109 0.28736 0.7056 0.0
C359 C 0.08607 0.26029 0.66906 0.0
N360 N 0.05916 0.20325 0.68019 0.0
N361 N 0.14974 0.3071 0.8256 0.0
C362 C 0.08522 0.22679 0.70735 0.0
C363 C 0.13198 0.28026 0.77943 0.0
N364 N 0.11539 0.18416 0.79921 0.0
N365 N 0.10988 0.31944 0.66713 0.0
H366 H 0.16574 0.30272 0.88171 0.0
H367 H 0.14579 0.33385 0.81435 0.0
H368 H 0.09215 0.32633 0.61605 0.0
H369 H 0.12924 0.33854 0.68264 0.0
H370 H 0.1017 0.16267 0.76911 0.0
H371 H 0.13391 0.17668 0.84772 0.0
H372 H 0.05476 0.17951 0.71046 0.0
H373 H 0.03979 0.20904 0.63178 0.0
C374 C 0.28831 0.61759 0.27543 0.0
C375 C 0.2619 0.64213 0.30299 0.0
C376 C 0.21983 0.61525 0.19096 0.0
C377 C 0.24604 0.59054 0.16539 0.0
N378 N 0.30187 0.56239 0.19566 0.0
N379 N 0.20058 0.6597 0.29837 0.0
C380 C 0.27909 0.5897 0.2124 0.0
C381 C 0.22703 0.6395 0.26418 0.0
N382 N 0.32283 0.62243 0.30378 0.0
N383 N 0.18849 0.61641 0.14276 0.0
H384 H 0.20495 0.6783 0.35023 0.0
H385 H 0.17393 0.65616 0.28026 0.0
H386 H 0.18157 0.59776 0.09203 0.0
H387 H 0.17011 0.63673 0.14986 0.0
H388 H 0.34365 0.60789 0.27796 0.0
H389 H 0.33147 0.64317 0.3468 0.0
H390 H 0.3249 0.55816 0.2339 0.0
H391 H 0.29596 0.54195 0.14872 0.0
C392 C 0.40093 0.71574 0.73184 0.0
C393 C 0.37742 0.74266 0.70232 0.0
C394 C 0.40409 0.78516 0.81287 0.0
C395 C 0.42612 0.75785 0.84574 0.0
N396 N 0.45236 0.70041 0.82479 0.0
N397 N 0.36472 0.80484 0.69411 0.0
C398 C 0.4269 0.72421 0.80071 0.0
C399 C 0.38163 0.77802 0.73645 0.0
N400 N 0.39718 0.68175 0.69779 0.0
N401 N 0.4035 0.81747 0.85723 0.0
H402 H 0.34936 0.80032 0.63587 0.0
H403 H 0.36886 0.83161 0.71074 0.0
H404 H 0.42083 0.82425 0.91077 0.0
H405 H 0.38476 0.83692 0.84389 0.0
H406 H 0.41042 0.66014 0.72373 0.0
H407 H 0.37916 0.67453 0.64623 0.0
H408 H 0.45668 0.67648 0.79026 0.0
H409 H 0.47133 0.70613 0.87549 0.0
C410 C 0.7307 0.88415 0.25743 0.0
C411 C 0.7662 0.8785 0.23381 0.0
C412 C 0.78583 0.9254 0.34295 0.0
C413 C 0.75117 0.92749 0.37431 0.0
N414 N 0.69084 0.90686 0.36764 0.0
N415 N 0.82843 0.89114 0.2607 0.0
C416 C 0.72358 0.90643 0.33295 0.0
C417 C 0.79401 0.89869 0.2777 0.0
N418 N 0.70372 0.86917 0.20578 0.0
N419 N 0.8109 0.94918 0.37531 0.0
H420 H 0.83581 0.87204 0.21343 0.0
H421 H 0.84985 0.90183 0.29821 0.0
H422 H 0.80585 0.96876 0.42394 0.0
H423 H 0.83564 0.9516 0.34868 0.0
H424 H 0.67716 0.87492 0.21435 0.0
H425 H 0.70801 0.85365 0.1486 0.0
H426 H 0.67086 0.889 0.34729 0.0
H427 H 0.68432 0.92361 0.42112 0.0
C428 C 0.62409 0.26486 0.7057 0.0
C429 C 0.64594 0.29546 0.71046 0.0
C430 C 0.61651 0.31758 0.84327 0.0
C431 C 0.59831 0.28488 0.84513 0.0
N432 N 0.58648 0.22588 0.78373 0.0
N433 N 0.66443 0.35061 0.78555 0.0
C434 C 0.60228 0.25818 0.77739 0.0
C435 C 0.6425 0.32179 0.77968 0.0
N436 N 0.6242 0.24222 0.63272 0.0
N437 N 0.60823 0.34494 0.90097 0.0
H438 H 0.68195 0.35617 0.73701 0.0
H439 H 0.6666 0.36813 0.84061 0.0
H440 H 0.58925 0.34279 0.94844 0.0
H441 H 0.61777 0.37065 0.8971 0.0
H442 H 0.60641 0.22136 0.6211 0.0
H443 H 0.6402 0.2461 0.57973 0.0
H444 H 0.5916 0.20393 0.74223 0.0
H445 H 0.57004 0.22013 0.8348 0.0
C446 C 0.21498 0.12723 0.23354 0.0
C447 C 0.24355 0.14407 0.19415 0.0
C448 C 0.28591 0.11585 0.29615 0.0
C449 C 0.2574 0.09868 0.33442 0.0
N450 N 0.19546 0.08331 0.33274 0.0
N451 N 0.30599 0.14932 0.17419 0.0
C452 C 0.22215 0.10286 0.30073 0.0
C453 C 0.27902 0.13686 0.22151 0.0
N454 N 0.18089 0.13584 0.20998 0.0
N455 N 0.31937 0.11264 0.33253 0.0
H456 H 0.30158 0.164 0.11793 0.0
H457 H 0.33239 0.14258 0.18538 0.0
H458 H 0.32541 0.09643 0.38521 0.0
H459 H 0.3408 0.12752 0.31434 0.0
H460 H 0.15917 0.12896 0.24548 0.0
H461 H 0.17409 0.15144 0.157 0.0
H462 H 0.17016 0.0815 0.30316 0.0
H463 H 0.19895 0.06683 0.38593 0.0
C464 C 0.26244 0.36672 0.97408 0.0
C465 C 0.23465 0.34469 0.99983 0.0
C466 C 0.19953 0.39723 0.03892 0.0
C467 C 0.22521 0.41885 0.00247 0.0
N468 N 0.28041 0.42521 0.93166 0.0
N469 N 0.17524 0.33826 0.0485 0.0
C470 C 0.25665 0.40393 0.96953 0.0
C471 C 0.20283 0.35975 0.03054 0.0
N472 N 0.29441 0.35209 0.9552 0.0
N473 N 0.17215 0.41261 0.0824 0.0
H474 H 0.17652 0.31072 0.04257 0.0
H475 H 0.15006 0.34759 0.06177 0.0
H476 H 0.16899 0.44004 0.08943 0.0
H477 H 0.15449 0.3985 0.11835 0.0
H478 H 0.31687 0.36693 0.94466 0.0
H479 H 0.29924 0.3249 0.95636 0.0
H480 H 0.30187 0.41562 0.89723 0.0
H481 H 0.27759 0.45269 0.93078 0.0
C482 C 0.14604 0.76817 0.53123 0.0
C483 C 0.1668 0.73716 0.51781 0.0
C484 C 0.1125 0.70149 0.49746 0.0
C485 C 0.09212 0.73167 0.52103 0.0
N486 N 0.08908 0.79324 0.56829 0.0
N487 N 0.16999 0.67355 0.50067 0.0
C488 C 0.10877 0.76492 0.54026 0.0
C489 C 0.15002 0.70363 0.50388 0.0
N490 N 0.16169 0.80075 0.53123 0.0
N491 N 0.09597 0.6708 0.46734 0.0
H492 H 0.19748 0.67419 0.50421 0.0
H493 H 0.15949 0.64808 0.50118 0.0
H494 H 0.06854 0.66804 0.46248 0.0
H495 H 0.10929 0.64916 0.43977 0.0
H496 H 0.14771 0.82449 0.53246 0.0
H497 H 0.18857 0.80396 0.5216 0.0
H498 H 0.10005 0.81719 0.59268 0.0
H499 H 0.06167 0.79197 0.57247 0.0
C500 C 0.74773 0.65927 0.93508 0.0
C501 C 0.77557 0.68019 0.97607 0.0
C502 C 0.80521 0.62635 0.02706 0.0
C503 C 0.77673 0.60564 0.98899 0.0
N504 N 0.72522 0.60031 0.89118 0.0
N505 N 0.8339 0.68394 0.04584 0.0
C506 C 0.74942 0.62151 0.93755 0.0
C507 C 0.80539 0.66372 0.01695 0.0
N508 N 0.719 0.67564 0.89728 0.0
N509 N 0.83132 0.61033 0.07622 0.0
H510 H 0.83452 0.71138 0.0412 0.0
H511 H 0.85793 0.6736 0.0685 0.0
H512 H 0.83306 0.58286 0.08054 0.0
H513 H 0.85051 0.62399 0.11542 0.0
H514 H 0.69598 0.66247 0.87496 0.0
H515 H 0.7175 0.70304 0.89188 0.0
H516 H 0.70615 0.60962 0.84639 0.0
H517 H 0.72614 0.5727 0.8923 0.0
C518 C 0.86834 0.29349 0.59128 0.0
C519 C 0.84705 0.2798 0.51691 0.0
C520 C 0.90043 0.27312 0.43072 0.0
C521 C 0.9212 0.287 0.50419 0.0
N522 N 0.92726 0.30064 0.66054 0.0
N523 N 0.84601 0.24367 0.38091 0.0
C524 C 0.90587 0.29387 0.58658 0.0
C525 C 0.86404 0.2658 0.44089 0.0
N526 N 0.85317 0.30784 0.66488 0.0
N527 N 0.91527 0.26738 0.35059 0.0
H528 H 0.82036 0.23494 0.39012 0.0
H529 H 0.8579 0.23034 0.32832 0.0
H530 H 0.94219 0.27082 0.34153 0.0
H531 H 0.90045 0.2614 0.29221 0.0
H532 H 0.86731 0.32194 0.7154 0.0
H533 H 0.82623 0.30833 0.67406 0.0
H534 H 0.91817 0.30187 0.72458 0.0
H535 H 0.95476 0.30156 0.65856 0.0
C536 C 0.75762 0.15859 0.58819 0.0
C537 C 0.73201 0.1805 0.54615 0.0
C538 C 0.69868 0.12759 0.49128 0.0
C539 C 0.72273 0.10583 0.53861 0.0
N540 N 0.77277 0.10016 0.64052 0.0
N541 N 0.67461 0.18639 0.47342 0.0
C542 C 0.75157 0.12121 0.58965 0.0
C543 C 0.70154 0.1651 0.5021 0.0
N544 N 0.78812 0.17341 0.62453 0.0
N545 N 0.67344 0.11242 0.43427 0.0
H546 H 0.6754 0.21384 0.4828 0.0
H547 H 0.65015 0.17687 0.44889 0.0
H548 H 0.67012 0.08506 0.42515 0.0
H549 H 0.65779 0.12678 0.39032 0.0
H550 H 0.80957 0.1587 0.64767 0.0
H551 H 0.79286 0.20065 0.62664 0.0
H552 H 0.79197 0.10997 0.68647 0.0
H553 H 0.7696 0.0727 0.64071 0.0
C554 C 0.36435 0.22404 0.95017 0.0
C555 C 0.34406 0.2429 0.0136 0.0
C556 C 0.39899 0.26679 0.08624 0.0
C557 C 0.41822 0.25259 0.01516 0.0
N558 N 0.42017 0.21828 0.87765 0.0
N559 N 0.34214 0.28601 0.13674 0.0
C560 C 0.40123 0.23105 0.94702 0.0
C561 C 0.36142 0.2649 0.08119 0.0
N562 N 0.34853 0.19875 0.89457 0.0
N563 N 0.41675 0.28233 0.15837 0.0
H564 H 0.31467 0.28665 0.13428 0.0
H565 H 0.35335 0.30545 0.18017 0.0
H566 H 0.44429 0.28412 0.16312 0.0
H567 H 0.4046 0.29017 0.2165 0.0
H568 H 0.36235 0.18152 0.85308 0.0
H569 H 0.32172 0.19284 0.89557 0.0
H570 H 0.40867 0.20627 0.82018 0.0
H571 H 0.44752 0.22129 0.87585 0.0
C572 C 0.25149 0.8642 0.59721 0.0
C573 C 0.27586 0.84377 0.54748 0.0
C574 C 0.29984 0.8977 0.48849 0.0
C575 C 0.274 0.91783 0.53339 0.0
N576 N 0.23108 0.9229 0.6453 0.0
N577 N 0.32966 0.84119 0.46842 0.0
C578 C 0.25179 0.90187 0.59311 0.0
C579 C 0.30212 0.86063 0.50017 0.0
N580 N 0.22731 0.84745 0.6454 0.0
N581 N 0.32121 0.91389 0.43177 0.0
H582 H 0.33249 0.81418 0.47843 0.0
H583 H 0.3514 0.85218 0.43989 0.0
H584 H 0.32171 0.94132 0.42579 0.0
H585 H 0.33733 0.90021 0.388 0.0
H586 H 0.20629 0.86016 0.67529 0.0
H587 H 0.22744 0.82013 0.65289 0.0
H588 H 0.21598 0.9136 0.69525 0.0
H589 H 0.23119 0.9505 0.64295 0.0
C590 C 0.64854 0.76589 0.07461 0.0
C591 C 0.6653 0.78134 0.00314 0.0
C592 C 0.60626 0.79498 0.93717 0.0
C593 C 0.5908 0.78592 0.01659 0.0
N594 N 0.59699 0.76406 0.16372 0.0
N595 N 0.6592 0.81076 0.86391 0.0
C596 C 0.61185 0.77161 0.08595 0.0
C597 C 0.64389 0.79543 0.93285 0.0
N598 N 0.66724 0.74399 0.12891 0.0
N599 N 0.58488 0.80293 0.86563 0.0
H600 H 0.68626 0.81124 0.85577 0.0
H601 H 0.6452 0.82522 0.81703 0.0
H602 H 0.55737 0.80319 0.86761 0.0
H603 H 0.59402 0.80604 0.80252 0.0
H604 H 0.6557 0.72945 0.17702 0.0
H605 H 0.69337 0.73681 0.11872 0.0
H606 H 0.61181 0.75785 0.22057 0.0
H607 H 0.56993 0.76622 0.1732 0.0
loop_
_geom_bond_atom_site_label_1
_geom_bond_atom_site_label_2
_geom_bond_distance
_geom_bond_site_symmetry_2
_ccdc_geom_bond_type
Fe0 O2 1.918 . S
Fe0 O5 1.997 . S
Fe0 O6 2.002 . S
Fe0 O11 1.976 . S
Fe0 O14 1.996 . S
Fe1 O2 1.918 1_556 S
Fe1 O9 1.997 . S
Fe1 O12 1.996 . S
Fe1 O16 1.976 . S
Fe1 O19 2.002 . S
O2 Fe0 1.918 . S
O2 Fe1 1.918 1_554 S
O2 Fe3 1.918 1_554 S
Fe3 O2 1.918 1_556 S
Fe3 O4 1.997 1_556 S
Fe3 O13 1.970 1_556 S
Fe3 O17 2.002 . S
Fe3 O20 2.002 . S
O4 Fe3 1.997 1_554 S
O4 C21 1.295 . S
O5 Fe0 1.997 . S
O5 C21 1.235 . S
O6 Fe0 2.002 . S
O6 C7 1.295 . S
C7 O6 1.295 . S
C7 O9 1.235 1_554 S
C8 O13 1.287 . S
C8 O14 1.255 . S
O9 Fe1 1.997 . S
O9 C7 1.235 1_556 S
C10 O16 1.287 . S
C10 O17 1.255 . S
O11 Fe0 1.976 . S
O11 C18 1.287 . S
O12 Fe1 1.996 . S
O12 C18 1.255 1_556 S
O13 Fe3 1.970 1_554 S
O13 C8 1.287 . S
O14 Fe0 1.996 . S
O14 C8 1.255 . S
C15 O19 1.295 . S
C15 O20 1.235 . S
O16 Fe1 1.976 . S
O16 C10 1.287 . S
O17 Fe3 2.002 . S
O17 C10 1.255 . S
C18 O11 1.287 . S
C18 O12 1.255 1_554 S
O19 Fe1 2.002 . S
O19 C15 1.295 . S
O20 Fe3 2.002 . S
O20 C15 1.235 . S
C21 O4 1.295 . S
C21 O5 1.235 . S
Fe22 O24 1.918 . S
Fe22 O27 1.997 . S
Fe22 O28 2.002 . S
Fe22 O33 1.976 . S
Fe22 O36 1.996 . S
Fe23 O24 1.918 . S
Fe23 O31 1.997 . S
Fe23 O34 1.996 . S
Fe23 O38 1.976 . S
Fe23 O41 2.002 . S
O24 Fe22 1.918 . S
O24 Fe23 1.918 . S
O24 Fe25 1.918 . S
Fe25 O24 1.918 . S
Fe25 O26 2.002 . S
Fe25 O35 1.976 . S
Fe25 O39 1.996 . S
Fe25 O42 1.997 . S
O26 Fe25 2.002 . S
O26 C43 1.295 . S
O27 Fe22 1.997 . S
O27 C43 1.235 . S
O28 Fe22 2.002 . S
O28 C29 1.295 . S
C29 O28 1.295 . S
C29 O31 1.235 . S
C30 O35 1.287 . S
C30 O36 1.255 . S
O31 Fe23 1.997 . S
O31 C29 1.235 . S
C32 O38 1.287 . S
C32 O39 1.255 . S
O33 Fe22 1.976 . S
O33 C40 1.287 . S
O34 Fe23 1.996 . S
O34 C40 1.255 . S
O35 Fe25 1.976 . S
O35 C30 1.287 . S
O36 Fe22 1.996 . S
O36 C30 1.255 . S
C37 O41 1.295 . S
C37 O42 1.235 . S
O38 Fe23 1.976 . S
O38 C32 1.287 . S
O39 Fe25 1.996 . S
O39 C32 1.255 . S
C40 O33 1.287 . S
C40 O34 1.255 . S
O41 Fe23 2.002 . S
O41 C37 1.295 . S
O42 Fe25 1.997 . S
O42 C37 1.235 . S
C43 O26 1.295 . S
C43 O27 1.235 . S
Fe44 O46 1.918 1_556 S
Fe44 O49 1.997 . S
Fe44 O50 2.002 . S
Fe44 O55 1.976 . S
Fe44 O58 1.996 . S
Fe45 O46 1.918 . S
Fe45 O53 1.997 . S
Fe45 O56 1.996 . S
Fe45 O60 1.976 . S
Fe45 O63 2.002 . S
O46 Fe44 1.918 1_554 S
O46 Fe45 1.918 . S
O46 Fe47 1.918 . S
Fe47 O46 1.918 . S
Fe47 O48 2.002 1_554 S
Fe47 O57 1.976 1_554 S
Fe47 O61 1.996 . S
Fe47 O64 1.997 . S
O48 Fe47 2.002 1_556 S
O48 C65 1.295 . S
O49 Fe44 1.997 . S
O49 C65 1.235 . S
O50 Fe44 2.002 . S
O50 C51 1.295 1_556 S
C51 O50 1.295 1_554 S
C51 O53 1.235 . S
C52 O57 1.287 . S
C52 O58 1.255 . S
O53 Fe45 1.997 . S
O53 C51 1.235 . S
C54 O60 1.287 . S
C54 O61 1.255 . S
O55 Fe44 1.976 . S
O55 C62 1.287 1_556 S
O56 Fe45 1.996 . S
O56 C62 1.255 . S
O57 Fe47 1.976 1_556 S
O57 C52 1.287 . S
O58 Fe44 1.996 . S
O58 C52 1.255 . S
C59 O63 1.295 . S
C59 O64 1.235 . S
O60 Fe45 1.976 . S
O60 C54 1.287 . S
O61 Fe47 1.996 . S
O61 C54 1.255 . S
C62 O55 1.287 1_554 S
C62 O56 1.255 . S
O63 Fe45 2.002 . S
O63 C59 1.295 . S
O64 Fe47 1.997 . S
O64 C59 1.235 . S
C65 O48 1.295 . S
C65 O49 1.235 . S
Fe66 O68 1.918 . S
Fe66 O71 1.997 . S
Fe66 O72 2.002 . S
Fe66 O77 1.976 . S
Fe66 O80 1.996 . S
Fe67 O68 1.918 . S
Fe67 O75 1.997 . S
Fe67 O78 1.996 . S
Fe67 O82 1.976 . S
Fe67 O85 2.002 . S
O68 Fe66 1.918 . S
O68 Fe67 1.918 . S
O68 Fe69 1.918 . S
Fe69 O68 1.918 . S
Fe69 O70 2.002 . S
Fe69 O79 1.976 . S
Fe69 O83 1.996 . S
Fe69 O86 1.997 . S
O70 Fe69 2.002 . S
O70 C87 1.295 . S
O71 Fe66 1.997 . S
O71 C87 1.235 . S
O72 Fe66 2.002 . S
O72 C73 1.295 . S
C73 O72 1.295 . S
C73 O75 1.235 . S
C74 O79 1.287 . S
C74 O80 1.255 . S
O75 Fe67 1.997 . S
O75 C73 1.235 . S
C76 O82 1.287 . S
C76 O83 1.255 . S
O77 Fe66 1.976 . S
O77 C84 1.287 . S
O78 Fe67 1.996 . S
O78 C84 1.255 . S
O79 Fe69 1.976 . S
O79 C74 1.287 . S
O80 Fe66 1.996 . S
O80 C74 1.255 . S
C81 O85 1.295 . S
C81 O86 1.235 . S
O82 Fe67 1.976 . S
O82 C76 1.287 . S
O83 Fe69 1.996 . S
O83 C76 1.255 . S
C84 O77 1.287 . S
C84 O78 1.255 . S
O85 Fe67 2.002 . S
O85 C81 1.295 . S
O86 Fe69 1.997 . S
O86 C81 1.235 . S
C87 O70 1.295 . S
C87 O71 1.235 . S
H88 C91 0.929 . S
H89 C94 0.929 . S
H90 C96 0.930 . S
C91 H88 0.929 . S
C91 C92 1.398 1_554 S
C91 C93 1.396 . S
C92 C91 1.398 1_556 S
C92 C96 1.407 . S
C93 C91 1.396 . S
C93 C94 1.394 . S
C94 H89 0.929 . S
C94 C93 1.394 . S
C94 C95 1.382 1_554 S
C95 C94 1.382 1_556 S
C95 C96 1.392 . S
C95 N97 1.420 . S
C96 H90 0.930 . S
C96 C92 1.407 . S
C96 C95 1.392 . S
N97 C95 1.420 . S
N97 C98 1.244 1_556 S
C98 N97 1.244 1_554 S
H99 C102 0.929 . S
H100 C105 0.927 . S
H101 C107 0.930 . S
C102 H99 0.929 . S
C102 C103 1.398 . S
C102 C104 1.396 . S
C103 C102 1.398 . S
C103 C107 1.407 . S
C104 C102 1.396 . S
C104 C105 1.394 . S
C105 H100 0.927 . S
C105 C104 1.394 . S
C105 C106 1.382 1_655 S
C106 C105 1.382 1_455 S
C106 C107 1.392 1_455 S
C106 N108 1.420 . S
C107 H101 0.930 . S
C107 C103 1.407 . S
C107 C106 1.392 1_655 S
N108 C106 1.420 . S
N108 C109 1.244 . S
C109 N108 1.244 . S
H110 C113 0.929 . S
H111 C116 0.929 . S
H112 C118 0.930 . S
C113 H110 0.929 . S
C113 C114 1.398 . S
C113 C115 1.396 1_554 S
C114 C113 1.398 . S
C114 C118 1.407 . S
C115 C113 1.396 1_556 S
C115 C116 1.394 . S
C116 H111 0.929 . S
C116 C115 1.394 . S
C116 C117 1.382 1_556 S
C117 C116 1.382 1_554 S
C117 C118 1.392 . S
C117 N119 1.420 . S
C118 H112 0.930 . S
C118 C114 1.407 . S
C118 C117 1.392 . S
N119 C117 1.420 . S
N119 C120 1.244 . S
C120 N119 1.244 . S
H121 C124 0.929 . S
H122 C127 0.945 . S
H123 C129 0.930 . S
C124 H121 0.929 . S
C124 C125 1.398 . S
C124 C126 1.396 . S
C125 C124 1.398 . S
C125 C129 1.407 . S
C126 C124 1.396 . S
C126 C127 1.394 . S
C127 H122 0.945 . S
C127 C126 1.394 . S
C127 C128 1.382 1_455 S
C128 C127 1.382 1_655 S
C128 C129 1.392 1_655 S
C128 N130 1.420 . S
C129 H123 0.930 . S
C129 C125 1.407 . S
C129 C128 1.392 1_455 S
N130 C128 1.420 . S
N130 C131 1.244 . S
C131 N130 1.244 . S
H132 C135 0.929 . S
H133 C138 0.929 1_545 S
H134 C140 0.930 . S
C135 H132 0.929 . S
C135 C136 1.398 . S
C135 C137 1.396 . S
C136 C135 1.398 . S
C136 C140 1.407 . S
C137 C135 1.396 . S
C137 C138 1.394 . S
C138 H133 0.929 1_565 S
C138 C137 1.394 . S
C138 C139 1.382 1_565 S
C139 C138 1.382 1_545 S
C139 C140 1.392 1_545 S
C139 N141 1.420 . S
C140 H134 0.930 . S
C140 C136 1.407 . S
C140 C139 1.392 1_565 S
N141 C139 1.420 . S
N141 C142 1.244 . S
C142 N141 1.244 . S
H143 C146 0.929 . S
H144 C149 0.929 . S
H145 C151 0.930 . S
C146 H143 0.929 . S
C146 C147 1.398 1_554 S
C146 C148 1.396 . S
C147 C146 1.398 1_556 S
C147 C151 1.407 . S
C148 C146 1.396 . S
C148 C149 1.394 . S
C149 H144 0.929 . S
C149 C148 1.394 . S
C149 C150 1.382 1_554 S
C150 C149 1.382 1_556 S
C150 C151 1.392 . S
C150 N152 1.420 . S
C151 H145 0.930 . S
C151 C147 1.407 . S
C151 C150 1.392 . S
N152 C150 1.420 . S
N152 C153 1.244 1_556 S
C153 N152 1.244 1_554 S
H154 C157 0.929 . S
H155 C160 0.929 1_565 S
H156 C162 0.930 . S
C157 H154 0.929 . S
C157 C158 1.398 . S
C157 C159 1.396 . S
C158 C157 1.398 . S
C158 C162 1.407 . S
C159 C157 1.396 . S
C159 C160 1.394 . S
C160 H155 0.929 1_545 S
C160 C159 1.394 . S
C160 C161 1.382 1_545 S
C161 C160 1.382 1_565 S
C161 C162 1.392 1_565 S
C161 N163 1.420 . S
C162 H156 0.930 . S
C162 C158 1.407 . S
C162 C161 1.392 1_545 S
N163 C161 1.420 . S
N163 C164 1.244 . S
C164 N163 1.244 . S
H165 C168 0.929 . S
H166 C171 0.929 . S
H167 C173 0.930 . S
C168 H165 0.929 . S
C168 C169 1.398 . S
C168 C170 1.396 1_554 S
C169 C168 1.398 . S
C169 C173 1.407 . S
C170 C168 1.396 1_556 S
C170 C171 1.394 . S
C171 H166 0.929 . S
C171 C170 1.394 . S
C171 C172 1.382 1_556 S
C172 C171 1.382 1_554 S
C172 C173 1.392 . S
C172 N174 1.420 . S
C173 H167 0.930 . S
C173 C169 1.407 . S
C173 C172 1.392 . S
N174 C172 1.420 . S
N174 C175 1.236 1_554 S
C175 N174 1.236 1_556 S
C176 C177 1.363 . S
C176 C182 1.379 . S
C176 N184 1.356 . S
C177 C176 1.363 . S
C177 C183 1.363 . S
C178 C179 1.363 . S
C178 C183 1.379 . S
C178 N185 1.356 . S
C179 C178 1.363 . S
C179 C182 1.363 . S
N180 C182 1.356 . S
N180 H192 0.984 . S
N180 H193 0.985 . S
N181 C183 1.356 . S
N181 H186 0.984 . S
N181 H187 0.985 . S
C182 C176 1.379 . S
C182 C179 1.363 . S
C182 N180 1.356 . S
C183 C177 1.363 . S
C183 C178 1.379 . S
C183 N181 1.356 . S
N184 C176 1.356 . S
N184 H190 0.984 . S
N184 H191 0.984 . S
N185 C178 1.356 . S
N185 H188 0.984 . S
N185 H189 0.985 . S
H186 N181 0.984 . S
H187 N181 0.985 . S
H188 N185 0.984 . S
H189 N185 0.985 . S
H190 N184 0.984 . S
H191 N184 0.984 . S
H192 N180 0.984 . S
H193 N180 0.985 . S
C194 C195 1.363 . S
C194 C200 1.379 . S
C194 N202 1.356 . S
C195 C194 1.363 . S
C195 C201 1.363 . S
C196 C197 1.363 . S
C196 C201 1.379 . S
C196 N203 1.356 . S
C197 C196 1.363 . S
C197 C200 1.363 . S
N198 C200 1.356 . S
N198 H210 0.984 . S
N198 H211 0.985 . S
N199 C201 1.356 . S
N199 H204 0.984 . S
N199 H205 0.985 . S
C200 C194 1.379 . S
C200 C197 1.363 . S
C200 N198 1.356 . S
C201 C195 1.363 . S
C201 C196 1.379 . S
C201 N199 1.356 . S
N202 C194 1.356 . S
N202 H208 0.984 . S
N202 H209 0.984 . S
N203 C196 1.356 . S
N203 H206 0.984 . S
N203 H207 0.985 . S
H204 N199 0.984 . S
H205 N199 0.985 . S
H206 N203 0.984 . S
H207 N203 0.985 . S
H208 N202 0.984 . S
H209 N202 0.984 . S
H210 N198 0.984 . S
H211 N198 0.985 . S
C212 C213 1.363 . S
C212 C218 1.379 . S
C212 N220 1.356 . S
C213 C212 1.363 . S
C213 C219 1.363 . S
C214 C215 1.363 . S
C214 C219 1.379 . S
C214 N221 1.356 . S
C215 C214 1.363 . S
C215 C218 1.363 . S
N216 C218 1.356 . S
N216 H228 0.984 . S
N216 H229 0.985 . S
N217 C219 1.356 . S
N217 H222 0.984 . S
N217 H223 0.985 . S
C218 C212 1.379 . S
C218 C215 1.363 . S
C218 N216 1.356 . S
C219 C213 1.363 . S
C219 C214 1.379 . S
C219 N217 1.356 . S
N220 C212 1.356 . S
N220 H226 0.984 . S
N220 H227 0.984 . S
N221 C214 1.356 . S
N221 H224 0.984 . S
N221 H225 0.985 . S
H222 N217 0.984 . S
H223 N217 0.985 . S
H224 N221 0.984 . S
H225 N221 0.985 . S
H226 N220 0.984 . S
H227 N220 0.984 . S
H228 N216 0.984 . S
H229 N216 0.985 . S
C230 C231 1.363 . S
C230 C236 1.379 . S
C230 N238 1.356 . S
C231 C230 1.363 . S
C231 C237 1.363 . S
C232 C233 1.363 . S
C232 C237 1.379 . S
C232 N239 1.356 . S
C233 C232 1.363 . S
C233 C236 1.363 . S
N234 C236 1.356 . S
N234 H246 0.984 . S
N234 H247 0.985 . S
N235 C237 1.356 . S
N235 H240 0.984 . S
N235 H241 0.985 . S
C236 C230 1.379 . S
C236 C233 1.363 . S
C236 N234 1.356 . S
C237 C231 1.363 . S
C237 C232 1.379 . S
C237 N235 1.356 . S
N238 C230 1.356 . S
N238 H244 0.984 . S
N238 H245 0.984 . S
N239 C232 1.356 . S
N239 H242 0.984 . S
N239 H243 0.985 . S
H240 N235 0.984 . S
H241 N235 0.985 . S
H242 N239 0.984 . S
H243 N239 0.985 . S
H244 N238 0.984 . S
H245 N238 0.984 . S
H246 N234 0.984 . S
H247 N234 0.985 . S
C248 C249 1.363 . S
C248 C254 1.379 . S
C248 N256 1.356 . S
C249 C248 1.363 . S
C249 C255 1.363 . S
C250 C251 1.363 . S
C250 C255 1.379 . S
C250 N257 1.356 . S
C251 C250 1.363 . S
C251 C254 1.363 . S
N252 C254 1.356 . S
N252 H264 0.984 . S
N252 H265 0.985 . S
N253 C255 1.356 . S
N253 H258 0.984 . S
N253 H259 0.985 . S
C254 C248 1.379 . S
C254 C251 1.363 . S
C254 N252 1.356 . S
C255 C249 1.363 . S
C255 C250 1.379 . S
C255 N253 1.356 . S
N256 C248 1.356 . S
N256 H262 0.984 . S
N256 H263 0.984 . S
N257 C250 1.356 . S
N257 H260 0.984 . S
N257 H261 0.985 . S
H258 N253 0.984 . S
H259 N253 0.985 . S
H260 N257 0.984 . S
H261 N257 0.985 . S
H262 N256 0.984 . S
H263 N256 0.984 . S
H264 N252 0.984 . S
H265 N252 0.985 . S
C266 C267 1.363 . S
C266 C272 1.379 . S
C266 N274 1.356 . S
C267 C266 1.363 . S
C267 C273 1.363 . S
C268 C269 1.363 . S
C268 C273 1.379 . S
C268 N275 1.356 . S
C269 C268 1.363 . S
C269 C272 1.363 . S
N270 C272 1.356 . S
N270 H282 0.984 . S
N270 H283 0.985 . S
N271 C273 1.356 . S
N271 H276 0.984 . S
N271 H277 0.985 . S
C272 C266 1.379 . S
C272 C269 1.363 . S
C272 N270 1.356 . S
C273 C267 1.363 . S
C273 C268 1.379 . S
C273 N271 1.356 . S
N274 C266 1.356 . S
N274 H280 0.984 . S
N274 H281 0.984 . S
N275 C268 1.356 . S
N275 H278 0.984 . S
N275 H279 0.985 . S
H276 N271 0.984 . S
H277 N271 0.985 . S
H278 N275 0.984 . S
H279 N275 0.985 . S
H280 N274 0.984 . S
H281 N274 0.984 . S
H282 N270 0.984 . S
H283 N270 0.985 . S
C284 C285 1.363 . S
C284 C290 1.379 . S
C284 N292 1.356 . S
C285 C284 1.363 . S
C285 C291 1.363 . S
C286 C287 1.363 . S
C286 C291 1.379 . S
C286 N293 1.356 . S
C287 C286 1.363 . S
C287 C290 1.363 . S
N288 C290 1.356 . S
N288 H300 0.984 . S
N288 H301 0.985 . S
N289 C291 1.356 . S
N289 H294 0.984 . S
N289 H295 0.985 . S
C290 C284 1.379 . S
C290 C287 1.363 . S
C290 N288 1.356 . S
C291 C285 1.363 . S
C291 C286 1.379 . S
C291 N289 1.356 . S
N292 C284 1.356 . S
N292 H298 0.984 . S
N292 H299 0.984 . S
N293 C286 1.356 . S
N293 H296 0.984 . S
N293 H297 0.985 . S
H294 N289 0.984 . S
H295 N289 0.985 . S
H296 N293 0.984 . S
H297 N293 0.985 . S
H298 N292 0.984 . S
H299 N292 0.984 . S
H300 N288 0.984 . S
H301 N288 0.985 . S
C302 C303 1.363 . S
C302 C308 1.379 . S
C302 N310 1.356 . S
C303 C302 1.363 . S
C303 C309 1.363 . S
C304 C305 1.363 . S
C304 C309 1.379 . S
C304 N311 1.356 . S
C305 C304 1.363 . S
C305 C308 1.363 . S
N306 C308 1.356 . S
N306 H318 0.984 . S
N306 H319 0.985 . S
N307 C309 1.356 . S
N307 H312 0.984 . S
N307 H313 0.985 . S
C308 C302 1.379 . S
C308 C305 1.363 . S
C308 N306 1.356 . S
C309 C303 1.363 . S
C309 C304 1.379 . S
C309 N307 1.356 . S
N310 C302 1.356 . S
N310 H316 0.984 . S
N310 H317 0.984 . S
N311 C304 1.356 . S
N311 H314 0.984 . S
N311 H315 0.985 . S
H312 N307 0.984 . S
H313 N307 0.985 . S
H314 N311 0.984 . S
H315 N311 0.985 . S
H316 N310 0.984 . S
H317 N310 0.984 . S
H318 N306 0.984 . S
H319 N306 0.985 . S
C320 C321 1.363 . S
C320 C326 1.379 . S
C320 N328 1.356 . S
C321 C320 1.363 . S
C321 C327 1.363 . S
C322 C323 1.363 . S
C322 C327 1.379 . S
C322 N329 1.356 . S
C323 C322 1.363 . S
C323 C326 1.363 . S
N324 C326 1.356 . S
N324 H336 0.984 . S
N324 H337 0.985 . S
N325 C327 1.356 . S
N325 H330 0.984 . S
N325 H331 0.985 . S
C326 C320 1.379 . S
C326 C323 1.363 . S
C326 N324 1.356 . S
C327 C321 1.363 . S
C327 C322 1.379 . S
C327 N325 1.356 . S
N328 C320 1.356 . S
N328 H334 0.984 . S
N328 H335 0.984 . S
N329 C322 1.356 . S
N329 H332 0.984 . S
N329 H333 0.985 . S
H330 N325 0.984 . S
H331 N325 0.985 . S
H332 N329 0.984 . S
H333 N329 0.985 . S
H334 N328 0.984 . S
H335 N328 0.984 . S
H336 N324 0.984 . S
H337 N324 0.985 . S
C338 C339 1.363 . S
C338 C344 1.379 . S
C338 N346 1.356 . S
C339 C338 1.363 . S
C339 C345 1.363 . S
C340 C341 1.363 . S
C340 C345 1.379 . S
C340 N347 1.356 . S
C341 C340 1.363 . S
C341 C344 1.363 . S
N342 C344 1.356 . S
N342 H354 0.984 . S
N342 H355 0.985 . S
N343 C345 1.356 . S
N343 H348 0.984 . S
N343 H349 0.985 . S
C344 C338 1.379 . S
C344 C341 1.363 . S
C344 N342 1.356 . S
C345 C339 1.363 . S
C345 C340 1.379 . S
C345 N343 1.356 . S
N346 C338 1.356 . S
N346 H352 0.984 . S
N346 H353 0.984 . S
N347 C340 1.356 . S
N347 H350 0.984 . S
N347 H351 0.985 . S
H348 N343 0.984 . S
H349 N343 0.985 . S
H350 N347 0.984 . S
H351 N347 0.985 . S
H352 N346 0.984 . S
H353 N346 0.984 . S
H354 N342 0.984 . S
H355 N342 0.985 . S
C356 C357 1.363 . S
C356 C362 1.379 . S
C356 N364 1.356 . S
C357 C356 1.363 . S
C357 C363 1.363 . S
C358 C359 1.363 . S
C358 C363 1.379 . S
C358 N365 1.356 . S
C359 C358 1.363 . S
C359 C362 1.363 . S
N360 C362 1.356 . S
N360 H372 0.984 . S
N360 H373 0.985 . S
N361 C363 1.356 . S
N361 H366 0.984 . S
N361 H367 0.985 . S
C362 C356 1.379 . S
C362 C359 1.363 . S
C362 N360 1.356 . S
C363 C357 1.363 . S
C363 C358 1.379 . S
C363 N361 1.356 . S
N364 C356 1.356 . S
N364 H370 0.984 . S
N364 H371 0.984 . S
N365 C358 1.356 . S
N365 H368 0.984 . S
N365 H369 0.985 . S
H366 N361 0.984 . S
H367 N361 0.985 . S
H368 N365 0.984 . S
H369 N365 0.985 . S
H370 N364 0.984 . S
H371 N364 0.984 . S
H372 N360 0.984 . S
H373 N360 0.985 . S
C374 C375 1.363 . S
C374 C380 1.379 . S
C374 N382 1.356 . S
C375 C374 1.363 . S
C375 C381 1.363 . S
C376 C377 1.363 . S
C376 C381 1.379 . S
C376 N383 1.356 . S
C377 C376 1.363 . S
C377 C380 1.363 . S
N378 C380 1.356 . S
N378 H390 0.984 . S
N378 H391 0.985 . S
N379 C381 1.356 . S
N379 H384 0.984 . S
N379 H385 0.985 . S
C380 C374 1.379 . S
C380 C377 1.363 . S
C380 N378 1.356 . S
C381 C375 1.363 . S
C381 C376 1.379 . S
C381 N379 1.356 . S
N382 C374 1.356 . S
N382 H388 0.984 . S
N382 H389 0.984 . S
N383 C376 1.356 . S
N383 H386 0.984 . S
N383 H387 0.985 . S
H384 N379 0.984 . S
H385 N379 0.985 . S
H386 N383 0.984 . S
H387 N383 0.985 . S
H388 N382 0.984 . S
H389 N382 0.984 . S
H390 N378 0.984 . S
H391 N378 0.985 . S
C392 C393 1.363 . S
C392 C398 1.379 . S
C392 N400 1.356 . S
C393 C392 1.363 . S
C393 C399 1.363 . S
C394 C395 1.363 . S
C394 C399 1.379 . S
C394 N401 1.356 . S
C395 C394 1.363 . S
C395 C398 1.363 . S
N396 C398 1.356 . S
N396 H408 0.984 . S
N396 H409 0.985 . S
N397 C399 1.356 . S
N397 H402 0.984 . S
N397 H403 0.985 . S
C398 C392 1.379 . S
C398 C395 1.363 . S
C398 N396 1.356 . S
C399 C393 1.363 . S
C399 C394 1.379 . S
C399 N397 1.356 . S
N400 C392 1.356 . S
N400 H406 0.984 . S
N400 H407 0.984 . S
N401 C394 1.356 . S
N401 H404 0.984 . S
N401 H405 0.985 . S
H402 N397 0.984 . S
H403 N397 0.985 . S
H404 N401 0.984 . S
H405 N401 0.985 . S
H406 N400 0.984 . S
H407 N400 0.984 . S
H408 N396 0.984 . S
H409 N396 0.985 . S
C410 C411 1.363 . S
C410 C416 1.379 . S
C410 N418 1.356 . S
C411 C410 1.363 . S
C411 C417 1.363 . S
C412 C413 1.363 . S
C412 C417 1.379 . S
C412 N419 1.356 . S
C413 C412 1.363 . S
C413 C416 1.363 . S
N414 C416 1.356 . S
N414 H426 0.984 . S
N414 H427 0.985 . S
N415 C417 1.356 . S
N415 H420 0.984 . S
N415 H421 0.985 . S
C416 C410 1.379 . S
C416 C413 1.363 . S
C416 N414 1.356 . S
C417 C411 1.363 . S
C417 C412 1.379 . S
C417 N415 1.356 . S
N418 C410 1.356 . S
N418 H424 0.984 . S
N418 H425 0.984 . S
N419 C412 1.356 . S
N419 H422 0.984 . S
N419 H423 0.985 . S
H420 N415 0.984 . S
H421 N415 0.985 . S
H422 N419 0.984 . S
H423 N419 0.985 . S
H424 N418 0.984 . S
H425 N418 0.984 . S
H426 N414 0.984 . S
H427 N414 0.985 . S
C428 C429 1.363 . S
C428 C434 1.379 . S
C428 N436 1.356 . S
C429 C428 1.363 . S
C429 C435 1.363 . S
C430 C431 1.363 . S
C430 C435 1.379 . S
C430 N437 1.356 . S
C431 C430 1.363 . S
C431 C434 1.363 . S
N432 C434 1.356 . S
N432 H444 0.984 . S
N432 H445 0.985 . S
N433 C435 1.356 . S
N433 H438 0.984 . S
N433 H439 0.985 . S
C434 C428 1.379 . S
C434 C431 1.363 . S
C434 N432 1.356 . S
C435 C429 1.363 . S
C435 C430 1.379 . S
C435 N433 1.356 . S
N436 C428 1.356 . S
N436 H442 0.984 . S
N436 H443 0.984 . S
N437 C430 1.356 . S
N437 H440 0.984 . S
N437 H441 0.985 . S
H438 N433 0.984 . S
H439 N433 0.985 . S
H440 N437 0.984 . S
H441 N437 0.985 . S
H442 N436 0.984 . S
H443 N436 0.984 . S
H444 N432 0.984 . S
H445 N432 0.985 . S
C446 C447 1.363 . S
C446 C452 1.379 . S
C446 N454 1.356 . S
C447 C446 1.363 . S
C447 C453 1.363 . S
C448 C449 1.363 . S
C448 C453 1.379 . S
C448 N455 1.356 . S
C449 C448 1.363 . S
C449 C452 1.363 . S
N450 C452 1.356 . S
N450 H462 0.984 . S
N450 H463 0.985 . S
N451 C453 1.356 . S
N451 H456 0.984 . S
N451 H457 0.985 . S
C452 C446 1.379 . S
C452 C449 1.363 . S
C452 N450 1.356 . S
C453 C447 1.363 . S
C453 C448 1.379 . S
C453 N451 1.356 . S
N454 C446 1.356 . S
N454 H460 0.984 . S
N454 H461 0.984 . S
N455 C448 1.356 . S
N455 H458 0.984 . S
N455 H459 0.985 . S
H456 N451 0.984 . S
H457 N451 0.985 . S
H458 N455 0.984 . S
H459 N455 0.985 . S
H460 N454 0.984 . S
H461 N454 0.984 . S
H462 N450 0.984 . S
H463 N450 0.985 . S
C464 C465 1.363 1_556 S
C464 C470 1.379 . S
C464 N472 1.356 . S
C465 C464 1.363 1_554 S
C465 C471 1.363 . S
C466 C467 1.363 . S
C466 C471 1.379 . S
C466 N473 1.356 . S
C467 C466 1.363 . S
C467 C470 1.363 1_554 S
N468 C470 1.356 . S
N468 H480 0.984 . S
N468 H481 0.985 . S
N469 C471 1.356 . S
N469 H474 0.984 . S
N469 H475 0.985 . S
C470 C464 1.379 . S
C470 C467 1.363 1_556 S
C470 N468 1.356 . S
C471 C465 1.363 . S
C471 C466 1.379 . S
C471 N469 1.356 . S
N472 C464 1.356 . S
N472 H478 0.984 . S
N472 H479 0.984 . S
N473 C466 1.356 . S
N473 H476 0.984 . S
N473 H477 0.985 . S
H474 N469 0.984 . S
H475 N469 0.985 . S
H476 N473 0.984 . S
H477 N473 0.985 . S
H478 N472 0.984 . S
H479 N472 0.984 . S
H480 N468 0.984 . S
H481 N468 0.985 . S
C482 C483 1.363 . S
C482 C488 1.379 . S
C482 N490 1.356 . S
C483 C482 1.363 . S
C483 C489 1.363 . S
C484 C485 1.363 . S
C484 C489 1.379 . S
C484 N491 1.356 . S
C485 C484 1.363 . S
C485 C488 1.363 . S
N486 C488 1.356 . S
N486 H498 0.984 . S
N486 H499 0.985 . S
N487 C489 1.356 . S
N487 H492 0.984 . S
N487 H493 0.985 . S
C488 C482 1.379 . S
C488 C485 1.363 . S
C488 N486 1.356 . S
C489 C483 1.363 . S
C489 C484 1.379 . S
C489 N487 1.356 . S
N490 C482 1.356 . S
N490 H496 0.984 . S
N490 H497 0.984 . S
N491 C484 1.356 . S
N491 H494 0.984 . S
N491 H495 0.985 . S
H492 N487 0.984 . S
H493 N487 0.985 . S
H494 N491 0.984 . S
H495 N491 0.985 . S
H496 N490 0.984 . S
H497 N490 0.984 . S
H498 N486 0.984 . S
H499 N486 0.985 . S
C500 C501 1.363 1_556 S
C500 C506 1.379 . S
C500 N508 1.356 . S
C501 C500 1.363 1_554 S
C501 C507 1.363 . S
C502 C503 1.363 . S
C502 C507 1.379 . S
C502 N509 1.356 . S
C503 C502 1.363 . S
C503 C506 1.363 1_554 S
N504 C506 1.356 . S
N504 H516 0.984 . S
N504 H517 0.985 . S
N505 C507 1.356 . S
N505 H510 0.984 . S
N505 H511 0.985 . S
C506 C500 1.379 . S
C506 C503 1.363 1_556 S
C506 N504 1.356 . S
C507 C501 1.363 . S
C507 C502 1.379 . S
C507 N505 1.356 . S
N508 C500 1.356 . S
N508 H514 0.984 . S
N508 H515 0.984 . S
N509 C502 1.356 . S
N509 H512 0.984 . S
N509 H513 0.985 . S
H510 N505 0.984 . S
H511 N505 0.985 . S
H512 N509 0.984 . S
H513 N509 0.985 . S
H514 N508 0.984 . S
H515 N508 0.984 . S
H516 N504 0.984 . S
H517 N504 0.985 . S
C518 C519 1.363 . S
C518 C524 1.379 . S
C518 N526 1.356 . S
C519 C518 1.363 . S
C519 C525 1.363 . S
C520 C521 1.363 . S
C520 C525 1.379 . S
C520 N527 1.356 . S
C521 C520 1.363 . S
C521 C524 1.363 . S
N522 C524 1.356 . S
N522 H534 0.984 . S
N522 H535 0.985 . S
N523 C525 1.356 . S
N523 H528 0.984 . S
N523 H529 0.985 . S
C524 C518 1.379 . S
C524 C521 1.363 . S
C524 N522 1.356 . S
C525 C519 1.363 . S
C525 C520 1.379 . S
C525 N523 1.356 . S
N526 C518 1.356 . S
N526 H532 0.984 . S
N526 H533 0.984 . S
N527 C520 1.356 . S
N527 H530 0.984 . S
N527 H531 0.985 . S
H528 N523 0.984 . S
H529 N523 0.985 . S
H530 N527 0.984 . S
H531 N527 0.985 . S
H532 N526 0.984 . S
H533 N526 0.984 . S
H534 N522 0.984 . S
H535 N522 0.985 . S
C536 C537 1.363 . S
C536 C542 1.379 . S
C536 N544 1.356 . S
C537 C536 1.363 . S
C537 C543 1.363 . S
C538 C539 1.363 . S
C538 C543 1.379 . S
C538 N545 1.356 . S
C539 C538 1.363 . S
C539 C542 1.363 . S
N540 C542 1.356 . S
N540 H552 0.984 . S
N540 H553 0.985 . S
N541 C543 1.356 . S
N541 H546 0.984 . S
N541 H547 0.985 . S
C542 C536 1.379 . S
C542 C539 1.363 . S
C542 N540 1.356 . S
C543 C537 1.363 . S
C543 C538 1.379 . S
C543 N541 1.356 . S
N544 C536 1.356 . S
N544 H550 0.984 . S
N544 H551 0.984 . S
N545 C538 1.356 . S
N545 H548 0.984 . S
N545 H549 0.985 . S
H546 N541 0.984 . S
H547 N541 0.985 . S
H548 N545 0.984 . S
H549 N545 0.985 . S
H550 N544 0.984 . S
H551 N544 0.984 . S
H552 N540 0.984 . S
H553 N540 0.985 . S
C554 C555 1.363 1_556 S
C554 C560 1.379 . S
C554 N562 1.356 . S
C555 C554 1.363 1_554 S
C555 C561 1.363 . S
C556 C557 1.363 . S
C556 C561 1.379 . S
C556 N563 1.356 . S
C557 C556 1.363 . S
C557 C560 1.363 1_554 S
N558 C560 1.356 . S
N558 H570 0.984 . S
N558 H571 0.985 . S
N559 C561 1.356 . S
N559 H564 0.984 . S
N559 H565 0.985 . S
C560 C554 1.379 . S
C560 C557 1.363 1_556 S
C560 N558 1.356 . S
C561 C555 1.363 . S
C561 C556 1.379 . S
C561 N559 1.356 . S
N562 C554 1.356 . S
N562 H568 0.984 . S
N562 H569 0.984 . S
N563 C556 1.356 . S
N563 H566 0.984 . S
N563 H567 0.985 . S
H564 N559 0.984 . S
H565 N559 0.985 . S
H566 N563 0.984 . S
H567 N563 0.985 . S
H568 N562 0.984 . S
H569 N562 0.984 . S
H570 N558 0.984 . S
H571 N558 0.985 . S
C572 C573 1.363 . S
C572 C578 1.379 . S
C572 N580 1.356 . S
C573 C572 1.363 . S
C573 C579 1.363 . S
C574 C575 1.363 . S
C574 C579 1.379 . S
C574 N581 1.356 . S
C575 C574 1.363 . S
C575 C578 1.363 . S
N576 C578 1.356 . S
N576 H588 0.984 . S
N576 H589 0.985 . S
N577 C579 1.356 . S
N577 H582 0.984 . S
N577 H583 0.985 . S
C578 C572 1.379 . S
C578 C575 1.363 . S
C578 N576 1.356 . S
C579 C573 1.363 . S
C579 C574 1.379 . S
C579 N577 1.356 . S
N580 C572 1.356 . S
N580 H586 0.984 . S
N580 H587 0.984 . S
N581 C574 1.356 . S
N581 H584 0.984 . S
N581 H585 0.985 . S
H582 N577 0.984 . S
H583 N577 0.985 . S
H584 N581 0.984 . S
H585 N581 0.985 . S
H586 N580 0.984 . S
H587 N580 0.984 . S
H588 N576 0.984 . S
H589 N576 0.985 . S
C590 C591 1.363 . S
C590 C596 1.379 . S
C590 N598 1.356 . S
C591 C590 1.363 . S
C591 C597 1.363 1_554 S
C592 C593 1.363 1_556 S
C592 C597 1.379 . S
C592 N599 1.356 . S
C593 C592 1.363 1_554 S
C593 C596 1.363 . S
N594 C596 1.356 . S
N594 H606 0.984 . S
N594 H607 0.985 . S
N595 C597 1.356 . S
N595 H600 0.984 . S
N595 H601 0.985 . S
C596 C590 1.379 . S
C596 C593 1.363 . S
C596 N594 1.356 . S
C597 C591 1.363 1_556 S
C597 C592 1.379 . S
C597 N595 1.356 . S
N598 C590 1.356 . S
N598 H604 0.984 . S
N598 H605 0.984 . S
N599 C592 1.356 . S
N599 H602 0.984 . S
N599 H603 0.985 . S
H600 N595 0.984 . S
H601 N595 0.985 . S
H602 N599 0.984 . S
H603 N599 0.985 . S
H604 N598 0.984 . S
H605 N598 0.984 . S
H606 N594 0.984 . S
H607 N594 0.985 . S
C177 C21 1.484 . S
C179 C125 1.493 . S
C195 C40 1.503 . S
C197 C92 1.491 . S
C215 C104 1.456 . S
C213 C54 1.482 . S
C231 C73 1.529 . S
C233 C115 1.505 . S
C251 C148 1.449 . S
C249 C74 1.472 . S
C269 C159 1.483 . S
C267 C10 1.523 . S
C287 C169 1.501 . S
C285 C37 1.495 . S
C305 C136 1.511 . S
C303 C65 1.509 . S
C321 C52 1.452 . S
C323 C103 1.449 . S
C339 C87 1.520 . S
C341 C114 1.510 . S
C357 C15 1.518 . S
C359 C126 1.501 . S
C377 C93 1.476 . S
C375 C32 1.508 . S
C393 C29 1.506 . S
C395 C170 1.494 . S
C413 C137 1.517 . S
C411 C59 1.540 . S
C431 C147 1.455 . S
C429 C84 1.460 . S
C447 C8 1.487 . S
C449 C158 1.469 . S
C467 C98 1.528 . S
C465 C7 1.536 . S
C485 C109 1.490 . S
C483 C30 1.491 . S
C501 C62 1.541 . S
C503 C120 1.531 . S
C519 C81 1.502 . S
C521 C131 1.513 . S
C539 C142 1.524 . S
C537 C76 1.541 . S
C555 C18 1.491 . S
C557 C153 1.490 . S
C573 C43 1.535 . S
C575 C164 1.533 . S
C591 C51 1.502 . S
C593 C175 1.513 1_554 S
