# Generated by pormake.
# Topology rtl, (3,6)-cn, num edge types: 1
# Building blocks:
#     Node 0, Type 0, BuildingBlock: KAKCAD_clean_linker_0, # of connection points: 3
#     Node 1, Type 0, BuildingBlock: KAKCAD_clean_linker_0, # of connection points: 3
#     Node 2, Type 0, BuildingBlock: KAKCAD_clean_linker_0, # of connection points: 3
#     Node 3, Type 0, BuildingBlock: KAKCAD_clean_linker_0, # of connection points: 3
#     Node 4, Type 1, BuildingBlock: KUMBUR_clean_sbu_1, # of connection points: 6
#     Node 5, Type 1, BuildingBlock: KUMBUR_clean_sbu_1, # of connection points: 6
#     Edge 6, Type (0, 1), BuildingBlock: XUDNAN_clean_linker_2, # of connection points: 2
#     Edge 7, Type (0, 1), BuildingBlock: XUDNAN_clean_linker_2, # of connection points: 2
#     Edge 8, Type (0, 1), BuildingBlock: XUDNAN_clean_linker_2, # of connection points: 2
#     Edge 9, Type (0, 1), BuildingBlock: XUDNAN_clean_linker_2, # of connection points: 2
#     Edge 10, Type (0, 1), BuildingBlock: XUDNAN_clean_linker_2, # of connection points: 2
#     Edge 11, Type (0, 1), BuildingBlock: XUDNAN_clean_linker_2, # of connection points: 2
#     Edge 12, Type (0, 1), BuildingBlock: XUDNAN_clean_linker_2, # of connection points: 2
#     Edge 13, Type (0, 1), BuildingBlock: XUDNAN_clean_linker_2, # of connection points: 2
#     Edge 14, Type (0, 1), BuildingBlock: XUDNAN_clean_linker_2, # of connection points: 2
#     Edge 15, Type (0, 1), BuildingBlock: XUDNAN_clean_linker_2, # of connection points: 2
#     Edge 16, Type (0, 1), BuildingBlock: XUDNAN_clean_linker_2, # of connection points: 2
#     Edge 17, Type (0, 1), BuildingBlock: XUDNAN_clean_linker_2, # of connection points: 2
# Relax obj value: 0.018
# Max RMSD: 0.097
# Mean RMSD: 0.058
data_MOF--net-rtl--node1-KUMBUR_clean_sbu_1--node2-KAKCAD_clean_linker_0--edge1-XUDNAN_clean_linker_2
_symmetry_space_group_name_H-M    P1
_symmetry_Int_Tables_number       1
_symmetry_cell_setting            triclinic
loop_
_symmetry_equiv_pos_as_xyz
'x, y, z'
_cell_length_a     39.826578
_cell_length_b     40.51592
_cell_length_c     35.068929
_cell_angle_alpha  80.036526
_cell_angle_beta   99.292426
_cell_angle_gamma 90.514962
loop_
_atom_site_label
_atom_site_type_symbol
_atom_site_fract_x
_atom_site_fract_y
_atom_site_fract_z
_atom_type_partial_charge
C0 C 0.16129 0.88894 0.87932 0.0
C1 C 0.17193 0.92074 0.86281 0.0
C2 C 0.17629 0.87338 0.91689 0.0
C3 C 0.20175 0.88951 0.93893 0.0
C4 C 0.21252 0.92109 0.92289 0.0
C5 C 0.19807 0.9364 0.88505 0.0
C6 C 0.21711 0.87326 0.97868 0.0
C7 C 0.24081 0.84691 0.98366 0.0
C8 C 0.25484 0.83039 0.02142 0.0
C9 C 0.24424 0.84032 0.05422 0.0
C10 C 0.22037 0.86669 0.04949 0.0
C11 C 0.2073 0.88341 0.01155 0.0
C12 C 0.20718 0.8752 0.08384 0.0
C13 C 0.1948 0.84982 0.11034 0.0
C14 C 0.20514 0.90867 0.08926 0.0
C15 C 0.19055 0.91661 0.12037 0.0
C16 C 0.17713 0.89126 0.14595 0.0
C17 C 0.28012 0.80252 0.02655 0.0
C18 C 0.27579 0.77831 1.00191 0.0
C19 C 0.30874 0.79983 0.05622 0.0
C20 C 0.33218 0.77332 0.06152 0.0
C21 C 0.32751 0.7487 0.03743 0.0
C22 C 0.2992 0.75172 0.00728 0.0
C23 C 0.17968 0.85781 0.1409 0.0
H24 H 0.14092 0.87623 0.86367 0.0
H25 H 0.16766 0.84895 0.92903 0.0
H26 H 0.23235 0.93375 0.93951 0.0
H27 H 0.20766 0.96044 0.87325 0.0
H28 H 0.24855 0.83961 0.958 0.0
H29 H 0.18844 0.90339 0.00746 0.0
H30 H 0.25414 0.82721 0.08348 0.0
H31 H 0.19581 0.82387 0.10664 0.0
H32 H 0.2146 0.92867 0.06926 0.0
H33 H 0.18879 0.94259 0.12374 0.0
H34 H 0.2538 0.77943 0.97905 0.0
H35 H 0.31317 0.81838 0.07522 0.0
H36 H 0.16967 0.83785 0.16047 0.0
H37 H 0.29454 0.733 0.98854 0.0
H38 H 0.35403 0.77214 0.08457 0.0
C39 C 0.61822 0.69702 0.7405 0.0
C40 C 0.62082 0.66247 0.75636 0.0
C41 C 0.63125 0.70977 0.70629 0.0
C42 C 0.64632 0.68822 0.68646 0.0
C43 C 0.64869 0.65378 0.70168 0.0
C44 C 0.63649 0.64109 0.73644 0.0
C45 C 0.65789 0.70127 0.64874 0.0
C46 C 0.68293 0.7258 0.64631 0.0
C47 C 0.69399 0.73816 0.61027 0.0
C48 C 0.67942 0.72471 0.57688 0.0
C49 C 0.65484 0.69948 0.57906 0.0
C50 C 0.64383 0.68861 0.61517 0.0
C51 C 0.64171 0.68339 0.54429 0.0
C52 C 0.63975 0.70096 0.50562 0.0
C53 C 0.63197 0.64962 0.54958 0.0
C54 C 0.62089 0.63394 0.51752 0.0
C55 C 0.62058 0.65091 0.4789 0.0
C56 C 0.72082 0.76461 0.60748 0.0
C57 C 0.7265 0.78679 0.63457 0.0
C58 C 0.74107 0.7682 0.57758 0.0
C59 C 0.76495 0.79362 0.57401 0.0
C60 C 0.77104 0.81557 0.60142 0.0
C61 C 0.75162 0.8111 0.63221 0.0
C62 C 0.6299 0.68484 0.47346 0.0
H63 H 0.60558 0.71439 0.75398 0.0
H64 H 0.62868 0.73637 0.69469 0.0
H65 H 0.66026 0.63669 0.68677 0.0
H66 H 0.63977 0.61454 0.74776 0.0
H67 H 0.69421 0.7343 0.673 0.0
H68 H 0.6239 0.67036 0.61748 0.0
H69 H 0.68741 0.73358 0.54902 0.0
H70 H 0.64605 0.72718 0.49987 0.0
H71 H 0.63354 0.63467 0.57855 0.0
H72 H 0.61292 0.60822 0.5234 0.0
H73 H 0.71148 0.78586 0.65778 0.0
H74 H 0.73895 0.75136 0.55659 0.0
H75 H 0.63044 0.69899 0.44444 0.0
H76 H 0.7555 0.82608 0.65512 0.0
H77 H 0.77826 0.79573 0.54925 0.0
C78 C 0.81205 0.08999 0.19397 0.0
C79 C 0.84764 0.08767 0.19816 0.0
C80 C 0.79259 0.10055 0.15687 0.0
C81 C 0.80848 0.10842 0.12348 0.0
C82 C 0.84397 0.10436 0.1277 0.0
C83 C 0.86333 0.09424 0.16466 0.0
C84 C 0.78888 0.12312 0.08467 0.0
C85 C 0.76601 0.15011 0.08119 0.0
C86 C 0.75091 0.16716 0.04407 0.0
C87 C 0.75862 0.15646 0.0103 0.0
C88 C 0.78133 0.12942 0.0132 0.0
C89 C 0.79583 0.1126 0.05062 0.0
C90 C 0.79179 0.12035 0.97734 0.0
C91 C 0.7685 0.12257 0.94219 0.0
C92 C 0.82575 0.11082 0.97753 0.0
C93 C 0.8362 0.10416 0.94346 0.0
C94 C 0.81312 0.10732 0.90822 0.0
C95 C 0.7289 0.19748 0.04035 0.0
C96 C 0.70501 0.19882 0.0656 0.0
C97 C 0.73187 0.22556 0.01138 0.0
C98 C 0.71095 0.25383 0.00705 0.0
C99 C 0.68652 0.25494 0.03162 0.0
C100 C 0.68407 0.2273 0.06133 0.0
C101 C 0.77911 0.11634 0.90795 0.0
H102 H 0.79949 0.08526 0.21952 0.0
H103 H 0.76525 0.10328 0.15436 0.0
H104 H 0.85701 0.11055 0.10264 0.0
H105 H 0.89078 0.09266 0.16729 0.0
H106 H 0.76155 0.15909 0.10735 0.0
H107 H 0.81309 0.09147 0.05342 0.0
H108 H 0.74759 0.16987 0.98162 0.0
H109 H 0.74205 0.12926 0.94102 0.0
H110 H 0.84466 0.10953 1.00368 0.0
H111 H 0.8627 0.09772 0.94439 0.0
H112 H 0.70197 0.17758 0.08812 0.0
H113 H 0.7506 0.22588 0.99212 0.0
H114 H 0.76073 0.11863 0.88121 0.0
H115 H 0.66535 0.22731 0.08056 0.0
H116 H 0.71401 0.27498 0.98441 0.0
C117 C 0.36182 0.33852 0.32343 0.0
C118 C 0.39415 0.35264 0.32252 0.0
C119 C 0.35234 0.32283 0.35866 0.0
C120 C 0.37516 0.31989 0.39423 0.0
C121 C 0.40807 0.3328 0.39318 0.0
C122 C 0.41742 0.34906 0.3578 0.0
C123 C 0.36408 0.30425 0.43206 0.0
C124 C 0.34039 0.27811 0.4328 0.0
C125 C 0.32766 0.2649 0.46731 0.0
C126 C 0.34008 0.27706 0.50187 0.0
C127 C 0.36361 0.30316 0.50222 0.0
C128 C 0.37547 0.31658 0.46709 0.0
C129 C 0.37437 0.31698 0.5391 0.0
C130 C 0.35114 0.31857 0.56512 0.0
C131 C 0.40776 0.32804 0.54922 0.0
C132 C 0.4177 0.33966 0.58474 0.0
C133 C 0.39465 0.33987 0.61111 0.0
C134 C 0.2997 0.24009 0.46695 0.0
C135 C 0.27249 0.24361 0.43544 0.0
C136 C 0.29874 0.2141 0.49911 0.0
C137 C 0.27105 0.19258 0.49999 0.0
C138 C 0.24378 0.19633 0.46858 0.0
C139 C 0.24495 0.22201 0.43623 0.0
C140 C 0.36127 0.32944 0.60077 0.0
H141 H 0.3434 0.33996 0.29683 0.0
H142 H 0.32662 0.31381 0.35791 0.0
H143 H 0.42664 0.33057 0.41974 0.0
H144 H 0.44252 0.35964 0.35836 0.0
H145 H 0.33172 0.26788 0.40645 0.0
H146 H 0.39243 0.33762 0.46667 0.0
H147 H 0.33063 0.26663 0.52857 0.0
H148 H 0.32489 0.31154 0.55799 0.0
H149 H 0.42643 0.32707 0.53015 0.0
H150 H 0.44359 0.34774 0.59203 0.0
H151 H 0.27193 0.2637 0.41056 0.0
H152 H 0.31943 0.21031 0.52369 0.0
H153 H 0.34277 0.33008 0.62016 0.0
H154 H 0.22415 0.22593 0.41177 0.0
H155 H 0.2712 0.17275 0.52507 0.0
Tb156 Tb 0.02678 0.97069 0.51227 0.0
C157 C 0.95503 0.11111 0.49401 0.0
N158 N 0.98313 0.10017 0.52061 0.0
C159 C 0.00739 0.1547 0.50923 0.0
C160 C 0.95227 0.14433 0.47343 0.0
C161 C 0.00905 0.12149 0.52883 0.0
C162 C 0.97895 0.16616 0.4813 0.0
C163 C 0.89983 0.09892 0.45912 0.0
C164 C 0.92909 0.08871 0.48699 0.0
C165 C 0.89701 0.13198 0.43845 0.0
C166 C 0.92313 0.15463 0.44562 0.0
Tb167 Tb 0.98283 0.04538 0.54989 0.0
N168 N 0.93319 0.05655 0.50659 0.0
C169 C 0.87437 0.07553 0.45278 0.0
C170 C 0.90774 0.03414 0.50185 0.0
C171 C 0.87822 0.0431 0.47452 0.0
H172 H 0.03081 0.11316 0.55102 0.0
H173 H 0.85839 0.02501 0.47033 0.0
H174 H 0.97871 0.90442 0.50411 0.0
H175 H 0.15675 0.98287 0.58146 0.0
H176 H 0.90999 0.0094 0.5189 0.0
H177 H 0.85152 0.08233 0.43151 0.0
H178 H 0.10226 0.00291 0.54054 0.0
H179 H 0.028 0.17148 0.51579 0.0
H180 H 0.87474 0.14028 0.41685 0.0
H181 H 0.92058 0.18005 0.42945 0.0
H182 H 0.98126 0.84405 0.53265 0.0
H183 H 0.97779 0.1919 0.46613 0.0
H184 H 0.16433 0.92333 0.61315 0.0
N185 N 0.02652 0.91465 0.53581 0.0
C186 C 0.05538 0.90163 0.55958 0.0
C187 C 1.00203 0.86008 0.54099 0.0
C188 C 0.05859 0.86716 0.57536 0.0
C189 C 1.00026 0.89436 0.5256 0.0
C190 C 0.0312 0.84645 0.56629 0.0
N191 N 0.07812 0.95587 0.55098 0.0
C192 C 0.10478 0.97718 0.55494 0.0
C193 C 0.11329 0.91005 0.58982 0.0
C194 C 0.08227 0.92279 0.56694 0.0
C195 C 0.14012 0.93212 0.5956 0.0
C196 C 0.13591 0.96577 0.57786 0.0
H197 H 0.03266 0.81981 0.5778 0.0
H198 H 0.09223 0.82795 0.61114 0.0
H199 H 0.14028 0.86541 0.6233 0.0
O200 O 0.04993 0.98796 0.46288 0.0
O201 O 0.03857 0.97168 0.57629 0.0
O202 O 0.03039 0.02629 0.58613 0.0
O203 O 0.03148 0.93782 0.47281 0.0
O204 O 0.04538 0.02196 0.49873 0.0
O205 O 0.03651 0.05425 0.54521 0.0
O206 O 0.94632 0.03883 0.58741 0.0
O207 O 0.98147 0.04619 0.48727 0.0
O208 O 0.97789 0.99128 0.47962 0.0
O209 O 0.98143 0.07938 0.58865 0.0
O210 O 0.97277 0.99233 0.57056 0.0
O211 O 0.97364 0.96261 0.5206 0.0
C212 C 0.04377 0.99589 0.59741 0.0
C213 C 0.0786 0.94693 0.43948 0.0
C214 C 0.10912 0.93442 0.38842 0.0
C215 C 0.1378 0.92463 0.41721 0.0
C216 C 0.10747 0.93687 0.4676 0.0
C217 C 0.13689 0.92586 0.4565 0.0
C218 C 0.07946 0.94561 0.39987 0.0
C219 C 0.05207 0.04787 0.51671 0.0
C220 C 0.04763 0.95928 0.45079 0.0
C221 C 0.08924 0.85438 0.59878 0.0
C222 C 0.11662 0.87572 0.60568 0.0
C223 C 0.9739 0.02331 0.46527 0.0
C224 C 0.96317 0.05617 0.64792 0.0
C225 C 0.94352 0.05913 0.70972 0.0
C226 C 0.9744 0.04368 0.73005 0.0
C227 C 0.99327 0.04015 0.66873 0.0
C228 C 0.93817 0.06515 0.66836 0.0
C229 C 0.99889 0.03401 0.70961 0.0
C230 C 0.96037 0.96906 0.55068 0.0
C231 C 0.9574 0.06356 0.6049 0.0
H232 H 0.16077 0.91532 0.4095 0.0
H233 H 0.10745 0.93743 0.49808 0.0
H234 H 0.15902 0.91806 0.47847 0.0
H235 H 0.05721 0.95351 0.37803 0.0
H236 H 0.98001 0.03944 0.76177 0.0
H237 H 0.01239 0.03258 0.65332 0.0
H238 H 0.91454 0.07658 0.65187 0.0
H239 H 0.02242 0.02199 0.72551 0.0
Tb240 Tb 0.47109 0.49126 0.99311 0.0
C241 C 0.61257 0.53619 0.04975 0.0
N242 N 0.59774 0.5073 0.06401 0.0
C243 C 0.64821 0.47619 0.06165 0.0
C244 C 0.64522 0.53602 0.03915 0.0
C245 C 0.61613 0.47789 0.07264 0.0
C246 C 0.66255 0.50531 0.04403 0.0
C247 C 0.61182 0.59699 0.0383 0.0
C248 C 0.5962 0.56625 0.04912 0.0
C249 C 0.64353 0.59702 0.02566 0.0
C250 C 0.66015 0.56657 0.02593 0.0
Tb251 Tb 0.54441 0.51323 0.07917 0.0
N252 N 0.56539 0.56517 0.06116 0.0
C253 C 0.59552 0.62661 0.04168 0.0
C254 C 0.55022 0.59376 0.0666 0.0
C255 C 0.56485 0.62493 0.05648 0.0
H256 H 0.60669 0.45584 0.08911 0.0
H257 H 0.55249 0.6476 0.06012 0.0
H258 H 0.40821 0.54731 0.97937 0.0
H259 H 0.47493 0.35581 0.03453 0.0
H260 H 0.52681 0.59244 0.07855 0.0
H261 H 0.60676 0.65077 0.03382 0.0
H262 H 0.49693 0.41022 0.0083 0.0
H263 H 0.6622 0.45258 0.06772 0.0
H264 H 0.65583 0.62039 0.01668 0.0
H265 H 0.68509 0.56694 0.0173 0.0
H266 H 0.34888 0.54813 0.99093 0.0
H267 H 0.68769 0.50406 0.03625 0.0
H268 H 0.41691 0.35207 0.05136 0.0
N269 N 0.41597 0.49516 1.00147 0.0
C270 C 0.40134 0.46572 0.01405 0.0
C271 C 0.36347 0.52483 0.998 0.0
C272 C 0.36737 0.46492 0.02073 0.0
C273 C 0.39731 0.52437 0.99205 0.0
C274 C 0.34851 0.49503 0.0128 0.0
N275 N 0.45353 0.43818 0.01386 0.0
C276 C 0.47243 0.40956 0.0173 0.0
C277 C 0.40671 0.40546 0.0348 0.0
C278 C 0.42081 0.43635 0.02085 0.0
C279 C 0.42678 0.37631 0.04061 0.0
C280 C 0.45961 0.37835 0.03136 0.0
H281 H 0.3223 0.49548 0.01747 0.0
H282 H 0.32739 0.43311 0.04062 0.0
H283 H 0.36183 0.38109 0.05307 0.0
O284 O 0.45583 0.46657 0.94493 0.0
O285 O 0.46255 0.48373 0.05429 0.0
O286 O 0.51455 0.46798 0.09149 0.0
O287 O 0.45085 0.52104 0.93892 0.0
O288 O 0.52082 0.46633 1.00023 0.0
O289 O 0.54688 0.46219 0.06528 0.0
O290 O 0.53269 0.5275 0.13074 0.0
O291 O 0.53486 0.54516 0.02083 0.0
O292 O 0.52051 0.50832 0.97901 0.0
O293 O 0.58105 0.50525 0.13049 0.0
O294 O 0.49379 0.53652 0.07238 0.0
O295 O 0.46894 0.54251 0.00648 0.0
C296 C 0.48115 0.46777 0.08652 0.0
C297 C 0.43217 0.49701 0.87985 0.0
C298 C 0.42254 0.47308 0.81946 0.0
C299 C 0.40657 0.50343 0.79946 0.0
C300 C 0.41621 0.52697 0.859 0.0
C301 C 0.40342 0.53004 0.81914 0.0
C302 C 0.43504 0.4699 0.85999 0.0
C303 C 0.54318 0.45256 0.03071 0.0
C304 C 0.4466 0.49483 0.92179 0.0
C305 C 0.3534 0.43423 0.03507 0.0
C306 C 0.37303 0.4046 0.04218 0.0
C307 C 0.53393 0.53652 0.98633 0.0
C308 C 0.58002 0.54689 0.16993 0.0
C309 C 0.58856 0.57733 0.22501 0.0
C310 C 0.61036 0.59919 0.20551 0.0
C311 C 0.60336 0.568 0.15215 0.0
C312 C 0.57303 0.55137 0.20679 0.0
C313 C 0.6178 0.59438 0.1694 0.0
C314 C 0.4729 0.55193 0.0413 0.0
C315 C 0.56303 0.52027 0.15031 0.0
H316 H 0.39603 0.50649 0.76856 0.0
H317 H 0.41359 0.5481 0.87353 0.0
H318 H 0.391 0.5532 0.80337 0.0
H319 H 0.44762 0.44676 0.87574 0.0
H320 H 0.62288 0.61912 0.21903 0.0
H321 H 0.61087 0.56396 0.1252 0.0
H322 H 0.55589 0.53458 0.2214 0.0
H323 H 0.63543 0.6107 0.15511 0.0
H324 H 0.20982 0.17252 0.53043 0.0
H325 H 0.21128 0.16801 0.40786 0.0
H326 H 0.16166 0.13129 0.40717 0.0
H327 H 0.1864 0.08594 0.55834 0.0
H328 H 0.15931 0.09524 0.59177 0.0
H329 H 0.19504 0.1214 0.58294 0.0
H330 H 0.15468 0.17351 0.56294 0.0
H331 H 0.11883 0.14742 0.57147 0.0
H332 H 0.11866 0.17377 0.52443 0.0
H333 H 0.11301 0.09498 0.41912 0.0
H334 H 0.06747 0.06006 0.44326 0.0
H335 H 0.09601 0.08723 0.55845 0.0
C336 C 0.19984 0.16359 0.50354 0.0
C337 C 0.21437 0.17339 0.46905 0.0
C338 C 0.20032 0.16136 0.43441 0.0
C339 C 0.17222 0.14034 0.43377 0.0
C340 C 0.15836 0.13147 0.46802 0.0
C341 C 0.17161 0.14256 0.50233 0.0
C342 C 0.15165 0.129 0.53497 0.0
C343 C 0.17447 0.10656 0.56901 0.0
C344 C 0.13497 0.15764 0.54929 0.0
C345 C 0.12514 0.10863 0.5135 0.0
C346 C 0.1297 0.11046 0.47494 0.0
C347 C 0.10911 0.09337 0.44921 0.0
C348 C 0.08336 0.07353 0.46328 0.0
C349 C 0.07818 0.07096 0.5027 0.0
C350 C 0.09915 0.08907 0.52805 0.0
H351 H 0.3522 0.71685 0.9835 0.0
H352 H 0.3559 0.71319 0.10868 0.0
H353 H 0.39396 0.66362 0.12226 0.0
H354 H 0.35016 0.62781 0.98618 0.0
H355 H 0.37681 0.62809 0.9492 0.0
H356 H 0.35074 0.66432 0.9487 0.0
H357 H 0.40407 0.70151 0.95038 0.0
H358 H 0.43025 0.6654 0.95069 0.0
H359 H 0.44001 0.69029 0.98883 0.0
H360 H 0.4297 0.61408 0.12297 0.0
H361 H 0.4626 0.56709 0.11113 0.0
H362 H 0.43667 0.60136 0.98529 0.0
C363 C 0.36094 0.70556 0.01376 0.0
C364 C 0.35116 0.71917 0.04504 0.0
C365 C 0.36346 0.70375 0.08421 0.0
C366 C 0.38492 0.67539 0.09226 0.0
C367 C 0.3939 0.6626 0.06086 0.0
C368 C 0.38247 0.67711 0.02239 0.0
C369 C 0.39597 0.65793 0.99426 0.0
C370 C 0.36667 0.64369 0.96804 0.0
C371 C 0.41894 0.68011 0.96959 0.0
C372 C 0.41641 0.63018 0.02307 0.0
C373 C 0.41481 0.63357 0.06127 0.0
C374 C 0.43127 0.61117 0.09321 0.0
C375 C 0.44998 0.58452 0.08607 0.0
C376 C 0.45224 0.58033 0.04722 0.0
C377 C 0.43518 0.60361 0.0153 0.0
H378 H 0.82516 0.82188 0.55814 0.0
H379 H 0.7773 0.87322 0.63564 0.0
H380 H 0.82153 0.91505 0.63334 0.0
H381 H 0.91112 0.83871 0.58981 0.0
H382 H 0.92178 0.84741 0.54108 0.0
H383 H 0.88784 0.81932 0.55128 0.0
H384 H 0.8466 0.8557 0.49521 0.0
H385 H 0.88068 0.88373 0.48512 0.0
H386 H 0.84175 0.89984 0.49555 0.0
H387 H 0.87317 0.95001 0.62614 0.0
H388 H 0.92316 0.9801 0.60666 0.0
H389 H 0.93016 0.91352 0.52355 0.0
C390 C 0.823 0.84188 0.57435 0.0
C391 C 0.7973 0.84268 0.5981 0.0
C392 C 0.79697 0.87008 0.61864 0.0
C393 C 0.82197 0.89464 0.61717 0.0
C394 C 0.84673 0.89259 0.5939 0.0
C395 C 0.84688 0.86749 0.57196 0.0
C396 C 0.875 0.87246 0.54711 0.0
C397 C 0.90044 0.84269 0.55801 0.0
C398 C 0.86011 0.87829 0.50314 0.0
C399 C 0.89101 0.90396 0.55922 0.0
C400 C 0.87462 0.91476 0.58676 0.0
C401 C 0.88585 0.94213 0.60407 0.0
C402 C 0.91441 0.95913 0.59269 0.0
C403 C 0.93105 0.9494 0.5634 0.0
C404 C 0.91876 0.92151 0.54633 0.0
H405 H 0.66582 0.28846 0.0866 0.0
H406 H 0.65387 0.28801 0.96137 0.0
H407 H 0.61706 0.33846 0.94861 0.0
H408 H 0.5792 0.31534 0.08743 0.0
H409 H 0.59136 0.34165 0.12369 0.0
H410 H 0.61707 0.30536 0.12343 0.0
H411 H 0.66977 0.34298 0.119 0.0
H412 H 0.6441 0.37943 0.11884 0.0
H413 H 0.66806 0.37837 0.07965 0.0
H414 H 0.58388 0.38933 0.94847 0.0
H415 H 0.55217 0.43686 0.9608 0.0
H416 H 0.58109 0.4037 0.08653 0.0
C417 C 0.65518 0.29885 0.05655 0.0
C418 C 0.66308 0.28448 0.02491 0.0
C419 C 0.64879 0.29893 0.986 0.0
C420 C 0.62772 0.3275 0.97845 0.0
C421 C 0.62095 0.34136 0.0101 0.0
C422 C 0.63392 0.32752 0.04841 0.0
C423 C 0.62232 0.34773 0.0768 0.0
C424 C 0.60122 0.32623 0.10447 0.0
C425 C 0.65289 0.36302 0.09994 0.0
C426 C 0.60051 0.37474 0.04834 0.0
C427 C 0.6006 0.37066 0.01006 0.0
C428 C 0.58339 0.39272 0.97832 0.0
C429 C 0.56537 0.41969 0.98575 0.0
C430 C 0.56417 0.42433 0.02469 0.0
C431 C 0.58193 0.40132 0.05643 0.0
H432 H 0.20145 0.92581 0.20501 0.0
H433 H 0.11281 0.87446 0.157 0.0
H434 H 0.08319 0.88537 0.21049 0.0
H435 H 0.1983 0.89259 0.30378 0.0
H436 H 0.2122 0.92998 0.32257 0.0
H437 H 0.22493 0.92178 0.27811 0.0
H438 H 0.1996 0.97943 0.24126 0.0
H439 H 0.18674 0.98778 0.2857 0.0
H440 H 0.15574 0.98967 0.24179 0.0
H441 H 0.0646 0.89871 0.27107 0.0
H442 H 0.05992 0.90986 0.3371 0.0
H443 H 0.16101 0.95173 0.3465 0.0
C444 C 0.17557 0.9175 0.20549 0.0
C445 C 0.15917 0.89954 0.17692 0.0
C446 C 0.12565 0.88828 0.17876 0.0
C447 C 0.10861 0.89453 0.20882 0.0
C448 C 0.12555 0.91195 0.23689 0.0
C449 C 0.15835 0.92315 0.23565 0.0
C450 C 0.1718 0.93872 0.27126 0.0
C451 C 0.20368 0.91962 0.29534 0.0
C452 C 0.17888 0.97612 0.25927 0.0
C453 C 0.14175 0.93385 0.29303 0.0
C454 C 0.11512 0.91889 0.27242 0.0
C455 C 0.08515 0.91071 0.28736 0.0
C456 C 0.08265 0.91729 0.32479 0.0
C457 C 0.11011 0.93158 0.34698 0.0
C458 C 0.13968 0.94057 0.33036 0.0
H459 H 0.59512 0.59926 0.77952 0.0
H460 H 0.61708 0.69449 0.81889 0.0
H461 H 0.59425 0.67331 0.87914 0.0
H462 H 0.51893 0.58049 0.82071 0.0
H463 H 0.52894 0.53643 0.83625 0.0
H464 H 0.54485 0.5594 0.79432 0.0
H465 H 0.60653 0.54082 0.82643 0.0
H466 H 0.59079 0.51759 0.86831 0.0
H467 H 0.62264 0.54888 0.87496 0.0
H468 H 0.56744 0.6431 0.93412 0.0
H469 H 0.54402 0.60341 0.98389 0.0
H470 H 0.54701 0.52493 0.91463 0.0
C471 C 0.5956 0.61573 0.8008 0.0
C472 C 0.60758 0.649 0.79353 0.0
C473 C 0.60712 0.66941 0.82255 0.0
C474 C 0.59446 0.6575 0.85727 0.0
C475 C 0.58286 0.62482 0.86322 0.0
C476 C 0.58377 0.60398 0.83616 0.0
C477 C 0.57128 0.56929 0.85092 0.0
C478 C 0.53909 0.56092 0.82394 0.0
C479 C 0.5995 0.54257 0.85542 0.0
C480 C 0.5633 0.57401 0.89052 0.0
C481 C 0.56972 0.60643 0.89661 0.0
C482 C 0.56311 0.61743 0.93012 0.0
C483 C 0.55026 0.59452 0.95858 0.0
C484 C 0.54522 0.56065 0.95424 0.0
C485 C 0.55123 0.55048 0.91926 0.0
H486 H 0.84852 0.03431 0.25931 0.0
H487 H 0.8946 0.12999 0.22489 0.0
H488 H 0.93193 0.12284 0.28916 0.0
H489 H 0.85093 0.04071 0.36223 0.0
H490 H 0.86151 0.99703 0.38015 0.0
H491 H 0.83726 0.00987 0.33186 0.0
H492 H 0.88197 0.98071 0.30202 0.0
H493 H 0.9064 0.968 0.35024 0.0
H494 H 0.92606 0.99189 0.31175 0.0
H495 H 0.96338 0.10662 0.35556 0.0
H496 H 0.98942 0.08128 0.42236 0.0
H497 H 0.92578 0.99421 0.41552 0.0
C498 C 0.86641 0.05369 0.26563 0.0
C499 C 0.86893 0.08268 0.23735 0.0
C500 C 0.89263 0.10754 0.24621 0.0
C501 C 0.91381 0.10375 0.28258 0.0
C502 C 0.91115 0.07479 0.30966 0.0
C503 C 0.88823 0.05007 0.30186 0.0
C504 C 0.8915 0.02115 0.33632 0.0
C505 C 0.85832 0.01696 0.35366 0.0
C506 C 0.90211 0.9885 0.32435 0.0
C507 C 0.91987 0.03359 0.36446 0.0
C508 C 0.93046 0.06473 0.34831 0.0
C509 C 0.95555 0.08214 0.36848 0.0
C510 C 0.97019 0.06748 0.40638 0.0
C511 C 0.95989 0.03562 0.42381 0.0
C512 C 0.93459 0.01825 0.40248 0.0
H513 H 0.42368 0.39926 0.62416 0.0
H514 H 0.3867 0.30668 0.68358 0.0
H515 H 0.39713 0.32804 0.74633 0.0
H516 H 0.48919 0.41585 0.70744 0.0
H517 H 0.48027 0.46032 0.69608 0.0
H518 H 0.47497 0.43574 0.65737 0.0
H519 H 0.41251 0.45726 0.63607 0.0
H520 H 0.41754 0.48179 0.67464 0.0
H521 H 0.38395 0.45178 0.67158 0.0
H522 H 0.40607 0.3619 0.80117 0.0
H523 H 0.40983 0.40627 0.84209 0.0
H524 H 0.44038 0.47686 0.74661 0.0
C525 C 0.41878 0.38318 0.65066 0.0
C526 C 0.40474 0.35123 0.64926 0.0
C527 C 0.3976 0.33121 0.68421 0.0
C528 C 0.40359 0.34307 0.71997 0.0
C529 C 0.41672 0.37505 0.72029 0.0
C530 C 0.42427 0.39481 0.68652 0.0
C531 C 0.43486 0.42945 0.69387 0.0
C532 C 0.47204 0.4357 0.68837 0.0
C533 C 0.41077 0.45665 0.66748 0.0
C534 C 0.43096 0.42649 0.73657 0.0
C535 C 0.42113 0.39475 0.75159 0.0
C536 C 0.41418 0.38673 0.78985 0.0
C537 C 0.4165 0.41205 0.81296 0.0
C538 C 0.42524 0.44508 0.79753 0.0
C539 C 0.43342 0.45192 0.75918 0.0
H540 H 0.59231 0.67674 0.40165 0.0
H541 H 0.6307 0.5838 0.47776 0.0
H542 H 0.61743 0.55394 0.42241 0.0
H543 H 0.52641 0.64152 0.33566 0.0
H544 H 0.53577 0.66889 0.29255 0.0
H545 H 0.54281 0.68267 0.33935 0.0
H546 H 0.6057 0.6949 0.33229 0.0
H547 H 0.59876 0.68149 0.2854 0.0
H548 H 0.63223 0.66214 0.32338 0.0
H549 H 0.60368 0.5341 0.35847 0.0
H550 H 0.59767 0.52759 0.28894 0.0
H551 H 0.57377 0.63374 0.25299 0.0
C552 C 0.59797 0.65012 0.40703 0.0
C553 C 0.61189 0.63281 0.44491 0.0
C554 C 0.61874 0.59782 0.44985 0.0
C555 C 0.61151 0.58046 0.41836 0.0
C556 C 0.59794 0.59834 0.38167 0.0
C557 C 0.59174 0.63248 0.37567 0.0
C558 C 0.58082 0.64635 0.33245 0.0
C559 C 0.54428 0.6607 0.32455 0.0
C560 C 0.60588 0.67277 0.31752 0.0
C561 C 0.58271 0.61476 0.31515 0.0
C562 C 0.59176 0.5872 0.34418 0.0
C563 C 0.59631 0.55542 0.33545 0.0
C564 C 0.59262 0.55189 0.29592 0.0
C565 C 0.58511 0.58011 0.26575 0.0
C566 C 0.57931 0.61174 0.27557 0.0
H567 H 0.85392 0.05678 0.89738 0.0
H568 H 0.79999 0.14828 0.83677 0.0
H569 H 0.8241 0.14376 0.77715 0.0
H570 H 0.92946 0.07217 0.85924 0.0
H571 H 0.93717 0.02942 0.85448 0.0
H572 H 0.91332 0.03811 0.89114 0.0
H573 H 0.86304 0.00373 0.86281 0.0
H574 H 0.88685 0.99477 0.82613 0.0
H575 H 0.84508 0.01404 0.81153 0.0
H576 H 0.85912 0.13262 0.72704 0.0
H577 H 0.9001 0.11435 0.689 0.0
H578 H 0.92803 0.02782 0.78082 0.0
C579 C 0.8469 0.07563 0.87138 0.0
C580 C 0.82507 0.10285 0.87155 0.0
C581 C 0.81635 0.12701 0.83702 0.0
C582 C 0.83001 0.12472 0.80312 0.0
C583 C 0.85194 0.09787 0.80414 0.0
C584 C 0.85999 0.07352 0.83721 0.0
C585 C 0.88504 0.04783 0.8311 0.0
C586 C 0.9182 0.04685 0.86075 0.0
C587 C 0.86904 0.01303 0.833 0.0
C588 C 0.89068 0.06216 0.7899 0.0
C589 C 0.8713 0.09093 0.77479 0.0
C590 C 0.87393 0.10974 0.73823 0.0
C591 C 0.89721 0.09897 0.7167 0.0
C592 C 0.91744 0.06947 0.73164 0.0
C593 C 0.91346 0.05068 0.76853 0.0
H594 H 0.45579 0.35683 0.29385 0.0
H595 H 0.35125 0.39456 0.26667 0.0
H596 H 0.36264 0.42618 0.20408 0.0
H597 H 0.49282 0.4349 0.25283 0.0
H598 H 0.52495 0.41462 0.23371 0.0
H599 H 0.50893 0.39377 0.27663 0.0
H600 H 0.49284 0.34274 0.24249 0.0
H601 H 0.50876 0.36348 0.19945 0.0
H602 H 0.46563 0.34893 0.19537 0.0
H603 H 0.38393 0.45378 0.14509 0.0
H604 H 0.41498 0.47796 0.09246 0.0
H605 H 0.50705 0.42459 0.15564 0.0
C606 C 0.43536 0.37191 0.27487 0.0
C607 C 0.40234 0.37251 0.28518 0.0
C608 C 0.37644 0.39266 0.25925 0.0
C609 C 0.3827 0.41105 0.22363 0.0
C610 C 0.41517 0.40956 0.21422 0.0
C611 C 0.44125 0.3908 0.239 0.0
C612 C 0.47394 0.39436 0.22145 0.0
C613 C 0.50181 0.41037 0.24772 0.0
C614 C 0.48599 0.36035 0.21426 0.0
C615 C 0.4619 0.41793 0.18296 0.0
C616 C 0.42785 0.42617 0.17966 0.0
C617 C 0.41058 0.44746 0.1472 0.0
C618 C 0.4285 0.46087 0.11719 0.0
C619 C 0.46341 0.45287 0.11939 0.0
C620 C 0.48037 0.43114 0.15296 0.0
H621 H 0.14493 0.89222 0.79821 0.0
H622 H 0.16025 0.98833 0.83715 0.0
H623 H 0.13388 0.01697 0.77188 0.0
H624 H 0.15683 0.91973 0.69667 0.0
H625 H 0.12346 0.89336 0.67863 0.0
H626 H 0.14726 0.88129 0.72711 0.0
H627 H 0.08982 0.87699 0.75402 0.0
H628 H 0.06686 0.89018 0.70518 0.0
H629 H 0.06154 0.91308 0.74361 0.0
H630 H 0.10635 0.03556 0.70344 0.0
H631 H 0.07281 0.04342 0.63751 0.0
H632 H 0.06855 0.93538 0.64362 0.0
C633 C 0.14263 0.91927 0.79329 0.0
C634 C 0.15546 0.93788 0.82308 0.0
C635 C 0.15189 0.97333 0.81482 0.0
C636 C 0.13665 0.98993 0.77778 0.0
C637 C 0.12457 0.97084 0.74928 0.0
C638 C 0.12683 0.93632 0.75664 0.0
C639 C 0.10982 0.92187 0.72135 0.0
C640 C 0.13596 0.90297 0.70498 0.0
C641 C 0.08025 0.8992 0.73168 0.0
C642 C 0.09709 0.95375 0.69327 0.0
C643 C 0.10664 0.98162 0.70995 0.0
C644 C 0.09842 0.01396 0.69016 0.0
C645 C 0.07917 0.01808 0.65265 0.0
C646 C 0.0673 0.99001 0.63546 0.0
C647 C 0.07706 0.95735 0.65586 0.0
loop_
_geom_bond_atom_site_label_1
_geom_bond_atom_site_label_2
_geom_bond_distance
_geom_bond_site_symmetry_2
_ccdc_geom_bond_type
C0 C1 1.386 . S
C0 C2 1.397 . S
C0 H24 0.931 . S
C1 C0 1.386 . S
C1 C5 1.397 . S
C2 C0 1.397 . S
C2 C3 1.384 . S
C2 H25 0.930 . S
C3 C2 1.384 . S
C3 C4 1.377 . S
C3 C6 1.481 . S
C4 C3 1.377 . S
C4 C5 1.389 . S
C4 H26 0.929 . S
C5 C1 1.397 . S
C5 C4 1.389 . S
C5 H27 0.931 . S
C6 C3 1.481 . S
C6 C7 1.387 . S
C6 C11 1.390 1_556 S
C7 C6 1.387 . S
C7 C8 1.401 1_556 S
C7 H28 0.930 . S
C8 C7 1.401 1_554 S
C8 C9 1.376 . S
C8 C17 1.511 . S
C9 C8 1.376 . S
C9 C10 1.392 . S
C9 H30 0.931 . S
C10 C9 1.392 . S
C10 C11 1.361 . S
C10 C12 1.500 . S
C11 C6 1.390 1_554 S
C11 C10 1.361 . S
C11 H29 0.931 . S
C12 C10 1.500 . S
C12 C13 1.371 . S
C12 C14 1.365 . S
C13 C12 1.371 . S
C13 C23 1.386 . S
C13 H31 0.931 . S
C14 C12 1.365 . S
C14 C15 1.409 . S
C14 H32 0.929 . S
C15 C14 1.409 . S
C15 C16 1.380 . S
C15 H33 0.930 . S
C16 C15 1.380 . S
C16 C23 1.357 . S
C17 C8 1.511 . S
C17 C18 1.339 1_554 S
C17 C19 1.371 . S
C18 C17 1.339 1_556 S
C18 C22 1.394 1_556 S
C18 H34 0.932 . S
C19 C17 1.371 . S
C19 C20 1.392 . S
C19 H35 0.931 . S
C20 C19 1.392 . S
C20 C21 1.331 . S
C20 H38 0.932 . S
C21 C20 1.331 . S
C21 C22 1.336 . S
C22 C18 1.394 1_554 S
C22 C21 1.336 . S
C22 H37 0.929 1_554 S
C23 C13 1.386 . S
C23 C16 1.357 . S
C23 H36 0.928 . S
H24 C0 0.931 . S
H25 C2 0.930 . S
H26 C4 0.929 . S
H27 C5 0.931 . S
H28 C7 0.930 . S
H29 C11 0.931 . S
H30 C9 0.931 . S
H31 C13 0.931 . S
H32 C14 0.929 . S
H33 C15 0.930 . S
H34 C18 0.932 . S
H35 C19 0.931 . S
H36 C23 0.928 . S
H37 C22 0.929 1_556 S
H38 C20 0.932 . S
C39 C40 1.386 . S
C39 C41 1.397 . S
C39 H63 0.931 . S
C40 C39 1.386 . S
C40 C44 1.397 . S
C41 C39 1.397 . S
C41 C42 1.384 . S
C41 H64 0.930 . S
C42 C41 1.384 . S
C42 C43 1.377 . S
C42 C45 1.481 . S
C43 C42 1.377 . S
C43 C44 1.389 . S
C43 H65 0.929 . S
C44 C40 1.397 . S
C44 C43 1.389 . S
C44 H66 0.931 . S
C45 C42 1.481 . S
C45 C46 1.387 . S
C45 C50 1.390 . S
C46 C45 1.387 . S
C46 C47 1.401 . S
C46 H67 0.930 . S
C47 C46 1.401 . S
C47 C48 1.376 . S
C47 C56 1.511 . S
C48 C47 1.376 . S
C48 C49 1.392 . S
C48 H69 0.931 . S
C49 C48 1.392 . S
C49 C50 1.361 . S
C49 C51 1.500 . S
C50 C45 1.390 . S
C50 C49 1.361 . S
C50 H68 0.931 . S
C51 C49 1.500 . S
C51 C52 1.371 . S
C51 C53 1.365 . S
C52 C51 1.371 . S
C52 C62 1.386 . S
C52 H70 0.931 . S
C53 C51 1.365 . S
C53 C54 1.409 . S
C53 H71 0.929 . S
C54 C53 1.409 . S
C54 C55 1.380 . S
C54 H72 0.930 . S
C55 C54 1.380 . S
C55 C62 1.357 . S
C56 C47 1.511 . S
C56 C57 1.341 . S
C56 C58 1.371 . S
C57 C56 1.341 . S
C57 C61 1.394 . S
C57 H73 0.930 . S
C58 C56 1.371 . S
C58 C59 1.392 . S
C58 H74 0.931 . S
C59 C58 1.392 . S
C59 C60 1.331 . S
C59 H77 0.932 . S
C60 C59 1.331 . S
C60 C61 1.336 . S
C61 C57 1.394 . S
C61 C60 1.336 . S
C61 H76 0.929 . S
C62 C52 1.386 . S
C62 C55 1.357 . S
C62 H75 0.928 . S
H63 C39 0.931 . S
H64 C41 0.930 . S
H65 C43 0.929 . S
H66 C44 0.931 . S
H67 C46 0.930 . S
H68 C50 0.931 . S
H69 C48 0.931 . S
H70 C52 0.931 . S
H71 C53 0.929 . S
H72 C54 0.930 . S
H73 C57 0.930 . S
H74 C58 0.931 . S
H75 C62 0.928 . S
H76 C61 0.929 . S
H77 C59 0.932 . S
C78 C79 1.386 . S
C78 C80 1.397 . S
C78 H102 0.931 . S
C79 C78 1.386 . S
C79 C83 1.397 . S
C80 C78 1.397 . S
C80 C81 1.384 . S
C80 H103 0.930 . S
C81 C80 1.384 . S
C81 C82 1.377 . S
C81 C84 1.481 . S
C82 C81 1.377 . S
C82 C83 1.389 . S
C82 H104 0.929 . S
C83 C79 1.397 . S
C83 C82 1.389 . S
C83 H105 0.931 . S
C84 C81 1.481 . S
C84 C85 1.387 . S
C84 C89 1.390 . S
C85 C84 1.387 . S
C85 C86 1.401 . S
C85 H106 0.930 . S
C86 C85 1.401 . S
C86 C87 1.376 . S
C86 C95 1.511 . S
C87 C86 1.376 . S
C87 C88 1.392 . S
C87 H108 0.931 1_554 S
C88 C87 1.392 . S
C88 C89 1.361 . S
C88 C90 1.500 1_554 S
C89 C84 1.390 . S
C89 C88 1.361 . S
C89 H107 0.931 . S
C90 C88 1.500 1_556 S
C90 C91 1.371 . S
C90 C92 1.365 . S
C91 C90 1.371 . S
C91 C101 1.386 . S
C91 H109 0.931 . S
C92 C90 1.365 . S
C92 C93 1.409 . S
C92 H110 0.945 . S
C93 C92 1.409 . S
C93 C94 1.380 . S
C93 H111 0.930 . S
C94 C93 1.380 . S
C94 C101 1.357 . S
C95 C86 1.511 . S
C95 C96 1.341 . S
C95 C97 1.371 1_554 S
C96 C95 1.341 . S
C96 C100 1.394 . S
C96 H112 0.930 . S
C97 C95 1.371 1_556 S
C97 C98 1.392 . S
C97 H113 0.931 . S
C98 C97 1.392 . S
C98 C99 1.331 1_556 S
C98 H116 0.932 . S
C99 C98 1.331 1_554 S
C99 C100 1.336 . S
C100 C96 1.394 . S
C100 C99 1.336 . S
C100 H115 0.929 . S
C101 C91 1.386 . S
C101 C94 1.357 . S
C101 H114 0.928 . S
H102 C78 0.931 . S
H103 C80 0.930 . S
H104 C82 0.929 . S
H105 C83 0.931 . S
H106 C85 0.930 . S
H107 C89 0.931 . S
H108 C87 0.931 1_556 S
H109 C91 0.931 . S
H110 C92 0.945 . S
H111 C93 0.930 . S
H112 C96 0.930 . S
H113 C97 0.931 . S
H114 C101 0.928 . S
H115 C100 0.929 . S
H116 C98 0.932 . S
C117 C118 1.386 . S
C117 C119 1.397 . S
C117 H141 0.931 . S
C118 C117 1.386 . S
C118 C122 1.397 . S
C119 C117 1.397 . S
C119 C120 1.384 . S
C119 H142 0.930 . S
C120 C119 1.384 . S
C120 C121 1.377 . S
C120 C123 1.481 . S
C121 C120 1.377 . S
C121 C122 1.389 . S
C121 H143 0.929 . S
C122 C118 1.397 . S
C122 C121 1.389 . S
C122 H144 0.931 . S
C123 C120 1.481 . S
C123 C124 1.387 . S
C123 C128 1.390 . S
C124 C123 1.387 . S
C124 C125 1.401 . S
C124 H145 0.930 . S
C125 C124 1.401 . S
C125 C126 1.376 . S
C125 C134 1.511 . S
C126 C125 1.376 . S
C126 C127 1.392 . S
C126 H147 0.931 . S
C127 C126 1.392 . S
C127 C128 1.361 . S
C127 C129 1.500 . S
C128 C123 1.390 . S
C128 C127 1.361 . S
C128 H146 0.931 . S
C129 C127 1.500 . S
C129 C130 1.371 . S
C129 C131 1.365 . S
C130 C129 1.371 . S
C130 C140 1.386 . S
C130 H148 0.931 . S
C131 C129 1.365 . S
C131 C132 1.409 . S
C131 H149 0.929 . S
C132 C131 1.409 . S
C132 C133 1.380 . S
C132 H150 0.930 . S
C133 C132 1.380 . S
C133 C140 1.357 . S
C134 C125 1.511 . S
C134 C135 1.341 . S
C134 C136 1.371 . S
C135 C134 1.341 . S
C135 C139 1.394 . S
C135 H151 0.930 . S
C136 C134 1.371 . S
C136 C137 1.392 . S
C136 H152 0.931 . S
C137 C136 1.392 . S
C137 C138 1.331 . S
C137 H155 0.932 . S
C138 C137 1.331 . S
C138 C139 1.336 . S
C139 C135 1.394 . S
C139 C138 1.336 . S
C139 H154 0.929 . S
C140 C130 1.386 . S
C140 C133 1.357 . S
C140 H153 0.928 . S
H141 C117 0.931 . S
H142 C119 0.930 . S
H143 C121 0.929 . S
H144 C122 0.931 . S
H145 C124 0.930 . S
H146 C128 0.931 . S
H147 C126 0.931 . S
H148 C130 0.931 . S
H149 C131 0.929 . S
H150 C132 0.930 . S
H151 C135 0.930 . S
H152 C136 0.931 . S
H153 C140 0.928 . S
H154 C139 0.929 . S
H155 C137 0.932 . S
Tb156 N185 2.617 . S
Tb156 N191 2.572 . S
Tb156 O200 2.465 . S
Tb156 O201 2.387 . S
Tb156 O203 2.428 . S
Tb156 O204 2.308 1_565 S
Tb156 O208 2.349 1_455 S
Tb156 O211 2.393 1_455 S
Tb156 C220 2.802 . S
C157 N158 1.379 . S
C157 C160 1.416 . S
C157 C164 1.424 . S
N158 C157 1.379 . S
N158 C161 1.334 1_655 S
N158 Tb167 2.617 . S
C159 C161 1.390 1_655 S
C159 C162 1.339 . S
C159 H179 0.930 1_655 S
C160 C157 1.416 . S
C160 C162 1.416 . S
C160 C166 1.448 . S
C161 N158 1.334 1_455 S
C161 C159 1.390 1_455 S
C161 H172 0.930 . S
C162 C159 1.339 . S
C162 C160 1.416 . S
C162 H183 0.930 . S
C163 C164 1.413 . S
C163 C165 1.427 . S
C163 C169 1.416 . S
C164 C157 1.424 . S
C164 C163 1.413 . S
C164 N168 1.361 . S
C165 C163 1.427 . S
C165 C166 1.328 . S
C165 H180 0.929 . S
C166 C160 1.448 . S
C166 C165 1.328 . S
C166 H181 0.930 . S
Tb167 N158 2.617 . S
Tb167 N168 2.572 . S
Tb167 O202 2.349 1_655 S
Tb167 O205 2.393 1_655 S
Tb167 O206 2.465 . S
Tb167 O207 2.387 . S
Tb167 O209 2.428 . S
Tb167 O210 2.308 1_545 S
Tb167 C231 2.802 . S
N168 C164 1.361 . S
N168 Tb167 2.572 . S
N168 C170 1.340 . S
C169 C163 1.416 . S
C169 C171 1.332 . S
C169 H177 0.931 . S
C170 N168 1.340 . S
C170 C171 1.407 . S
C170 H176 0.930 . S
C171 C169 1.332 . S
C171 C170 1.407 . S
C171 H173 0.929 . S
H172 C161 0.930 . S
H173 C171 0.929 . S
H174 C189 0.930 1_655 S
H175 C196 0.929 . S
H176 C170 0.930 . S
H177 C169 0.931 . S
H178 C192 0.930 . S
H179 C159 0.930 1_455 S
H180 C165 0.929 . S
H181 C166 0.930 . S
H182 C187 0.930 1_655 S
H183 C162 0.930 . S
H184 C195 0.931 . S
N185 Tb156 2.617 . S
N185 C186 1.379 . S
N185 C189 1.334 . S
C186 N185 1.379 . S
C186 C188 1.416 . S
C186 C194 1.424 . S
C187 H182 0.930 1_455 S
C187 C189 1.390 . S
C187 C190 1.339 . S
C188 C186 1.416 . S
C188 C190 1.416 . S
C188 C221 1.448 . S
C189 H174 0.930 1_455 S
C189 N185 1.334 . S
C189 C187 1.390 . S
C190 C187 1.339 . S
C190 C188 1.416 . S
C190 H197 0.930 . S
N191 Tb156 2.572 . S
N191 C192 1.340 . S
N191 C194 1.361 . S
C192 H178 0.930 . S
C192 N191 1.340 . S
C192 C196 1.407 . S
C193 C194 1.413 . S
C193 C195 1.416 . S
C193 C222 1.427 . S
C194 C186 1.424 . S
C194 N191 1.361 . S
C194 C193 1.413 . S
C195 H184 0.931 . S
C195 C193 1.416 . S
C195 C196 1.332 . S
C196 H175 0.929 . S
C196 C192 1.407 . S
C196 C195 1.332 . S
H197 C190 0.930 . S
H198 C221 0.930 . S
H199 C222 0.929 . S
O200 Tb156 2.465 . S
O200 C220 1.264 . S
O201 Tb156 2.387 . S
O201 C212 1.264 . S
O202 Tb167 2.349 1_455 S
O202 C212 1.243 1_545 S
O203 Tb156 2.428 . S
O203 C220 1.256 . S
O204 Tb156 2.308 1_545 S
O204 C219 1.266 . S
O205 Tb167 2.393 1_455 S
O205 C219 1.248 . S
O206 Tb167 2.465 . S
O206 C231 1.264 . S
O207 Tb167 2.387 . S
O207 C223 1.264 . S
O208 Tb156 2.349 1_655 S
O208 C223 1.243 1_565 S
O209 Tb167 2.428 . S
O209 C231 1.256 . S
O210 Tb167 2.308 1_565 S
O210 C230 1.266 . S
O211 Tb156 2.393 1_655 S
O211 C230 1.248 . S
C212 O201 1.264 . S
C212 O202 1.243 1_565 S
C213 C216 1.399 . S
C213 C218 1.383 . S
C213 C220 1.496 . S
C214 C215 1.399 . S
C214 C218 1.389 . S
C215 C214 1.399 . S
C215 C217 1.380 . S
C215 H232 0.929 . S
C216 C213 1.399 . S
C216 C217 1.392 . S
C216 H233 0.929 . S
C217 C215 1.380 . S
C217 C216 1.392 . S
C217 H234 0.929 . S
C218 C213 1.383 . S
C218 C214 1.389 . S
C218 H235 0.931 . S
C219 O204 1.266 . S
C219 O205 1.248 . S
C220 Tb156 2.802 . S
C220 O200 1.264 . S
C220 O203 1.256 . S
C220 C213 1.496 . S
C221 C188 1.448 . S
C221 H198 0.930 . S
C221 C222 1.328 . S
C222 C193 1.427 . S
C222 H199 0.929 . S
C222 C221 1.328 . S
C223 O207 1.264 . S
C223 O208 1.243 1_545 S
C224 C227 1.399 . S
C224 C228 1.383 . S
C224 C231 1.496 . S
C225 C226 1.399 . S
C225 C228 1.389 . S
C226 C225 1.399 . S
C226 C229 1.380 . S
C226 H236 0.929 . S
C227 C224 1.399 . S
C227 C229 1.392 . S
C227 H237 0.929 . S
C228 C224 1.383 . S
C228 C225 1.389 . S
C228 H238 0.931 . S
C229 C226 1.380 . S
C229 C227 1.392 . S
C229 H239 0.929 . S
C230 O210 1.266 . S
C230 O211 1.248 . S
C231 Tb167 2.802 . S
C231 O206 1.264 . S
C231 O209 1.256 . S
C231 C224 1.496 . S
H232 C215 0.929 . S
H233 C216 0.929 . S
H234 C217 0.929 . S
H235 C218 0.931 . S
H236 C226 0.929 . S
H237 C227 0.929 . S
H238 C228 0.931 . S
H239 C229 0.929 . S
Tb240 N269 2.617 . S
Tb240 N275 2.572 1_556 S
Tb240 O284 2.465 . S
Tb240 O285 2.387 1_556 S
Tb240 O287 2.428 . S
Tb240 O288 2.308 1_556 S
Tb240 O292 2.349 . S
Tb240 O295 2.402 . S
Tb240 C304 2.802 . S
C241 N242 1.379 . S
C241 C244 1.416 . S
C241 C248 1.424 . S
N242 C241 1.379 . S
N242 C245 1.334 . S
N242 Tb251 2.617 . S
C243 C245 1.390 . S
C243 C246 1.339 . S
C243 H263 0.930 . S
C244 C241 1.416 . S
C244 C246 1.416 . S
C244 C250 1.448 . S
C245 N242 1.334 . S
C245 C243 1.390 . S
C245 H256 0.930 . S
C246 C243 1.339 . S
C246 C244 1.416 . S
C246 H267 0.930 . S
C247 C248 1.413 . S
C247 C249 1.427 . S
C247 C253 1.416 . S
C248 C241 1.424 . S
C248 C247 1.413 . S
C248 N252 1.361 . S
C249 C247 1.427 . S
C249 C250 1.328 . S
C249 H264 0.929 . S
C250 C244 1.448 . S
C250 C249 1.328 . S
C250 H265 0.930 . S
Tb251 N242 2.617 . S
Tb251 N252 2.572 . S
Tb251 O286 2.349 . S
Tb251 O289 2.393 . S
Tb251 O290 2.465 . S
Tb251 O291 2.387 1_554 S
Tb251 O293 2.428 . S
Tb251 O294 2.308 . S
Tb251 C315 2.802 . S
N252 C248 1.361 . S
N252 Tb251 2.572 . S
N252 C254 1.340 . S
C253 C247 1.416 . S
C253 C255 1.332 . S
C253 H261 0.931 . S
C254 N252 1.340 . S
C254 C255 1.407 . S
C254 H260 0.930 . S
C255 C253 1.332 . S
C255 C254 1.407 . S
C255 H257 0.929 . S
H256 C245 0.930 . S
H257 C255 0.929 . S
H258 C273 0.930 . S
H259 C280 0.929 . S
H260 C254 0.930 . S
H261 C253 0.931 . S
H262 C276 0.930 . S
H263 C243 0.930 . S
H264 C249 0.929 . S
H265 C250 0.930 . S
H266 C271 0.930 . S
H267 C246 0.930 . S
H268 C279 0.931 . S
N269 Tb240 2.617 . S
N269 C270 1.379 1_556 S
N269 C273 1.334 . S
C270 N269 1.379 1_554 S
C270 C272 1.416 . S
C270 C278 1.424 . S
C271 H266 0.930 . S
C271 C273 1.390 . S
C271 C274 1.339 1_556 S
C272 C270 1.416 . S
C272 C274 1.416 . S
C272 C305 1.448 . S
C273 H258 0.930 . S
C273 N269 1.334 . S
C273 C271 1.390 . S
C274 C271 1.339 1_554 S
C274 C272 1.416 . S
C274 H281 0.930 . S
N275 Tb240 2.572 1_554 S
N275 C276 1.340 . S
N275 C278 1.361 . S
C276 H262 0.930 . S
C276 N275 1.340 . S
C276 C280 1.407 . S
C277 C278 1.413 . S
C277 C279 1.416 . S
C277 C306 1.427 . S
C278 C270 1.424 . S
C278 N275 1.361 . S
C278 C277 1.413 . S
C279 H268 0.931 . S
C279 C277 1.416 . S
C279 C280 1.332 . S
C280 H259 0.929 . S
C280 C276 1.407 . S
C280 C279 1.332 . S
H281 C274 0.930 . S
H282 C305 0.930 . S
H283 C306 0.929 . S
O284 Tb240 2.465 . S
O284 C304 1.264 . S
O285 Tb240 2.387 1_554 S
O285 C296 1.264 . S
O286 Tb251 2.349 . S
O286 C296 1.243 . S
O287 Tb240 2.428 . S
O287 C304 1.256 . S
O288 Tb240 2.308 1_554 S
O288 C303 1.266 . S
O289 Tb251 2.393 . S
O289 C303 1.248 . S
O290 Tb251 2.465 . S
O290 C315 1.264 . S
O291 Tb251 2.387 1_556 S
O291 C307 1.264 . S
O292 Tb240 2.349 . S
O292 C307 1.243 . S
O293 Tb251 2.428 . S
O293 C315 1.256 . S
O294 Tb251 2.308 . S
O294 C314 1.266 . S
O295 Tb240 2.402 . S
O295 C314 1.228 1_556 S
C296 O285 1.264 . S
C296 O286 1.243 . S
C297 C300 1.399 . S
C297 C302 1.383 . S
C297 C304 1.496 . S
C298 C299 1.399 . S
C298 C302 1.389 . S
C299 C298 1.399 . S
C299 C301 1.380 . S
C299 H316 0.929 . S
C300 C297 1.399 . S
C300 C301 1.392 . S
C300 H317 0.929 . S
C301 C299 1.380 . S
C301 C300 1.392 . S
C301 H318 0.929 . S
C302 C297 1.383 . S
C302 C298 1.389 . S
C302 H319 0.931 . S
C303 O288 1.266 . S
C303 O289 1.248 . S
C304 Tb240 2.802 . S
C304 O284 1.264 . S
C304 O287 1.256 . S
C304 C297 1.496 . S
C305 C272 1.448 . S
C305 H282 0.930 . S
C305 C306 1.328 . S
C306 C277 1.427 . S
C306 H283 0.929 . S
C306 C305 1.328 . S
C307 O291 1.264 . S
C307 O292 1.243 . S
C308 C311 1.399 . S
C308 C312 1.383 . S
C308 C315 1.496 . S
C309 C310 1.399 . S
C309 C312 1.389 . S
C310 C309 1.399 . S
C310 C313 1.380 . S
C310 H320 0.929 . S
C311 C308 1.399 . S
C311 C313 1.392 . S
C311 H321 0.929 . S
C312 C308 1.383 . S
C312 C309 1.389 . S
C312 H322 0.931 . S
C313 C310 1.380 . S
C313 C311 1.392 . S
C313 H323 0.929 . S
C314 O294 1.266 . S
C314 O295 1.228 1_554 S
C315 Tb251 2.802 . S
C315 O290 1.264 . S
C315 O293 1.256 . S
C315 C308 1.496 . S
H316 C299 0.929 . S
H317 C300 0.929 . S
H318 C301 0.929 . S
H319 C302 0.931 . S
H320 C310 0.929 . S
H321 C311 0.929 . S
H322 C312 0.931 . S
H323 C313 0.929 . S
H324 C336 0.930 . S
H325 C338 0.930 . S
H326 C339 0.930 . S
H327 C343 0.959 . S
H328 C343 0.959 . S
H329 C343 0.961 . S
H330 C344 0.960 . S
H331 C344 0.961 . S
H332 C344 0.959 . S
H333 C347 0.929 . S
H334 C348 0.931 . S
H335 C350 0.930 . S
C336 H324 0.930 . S
C336 C337 1.399 . S
C336 C341 1.399 . S
C337 C336 1.399 . S
C337 C338 1.376 . S
C338 H325 0.930 . S
C338 C337 1.376 . S
C338 C339 1.388 . S
C339 H326 0.930 . S
C339 C338 1.388 . S
C339 C340 1.390 . S
C340 C339 1.390 . S
C340 C341 1.394 . S
C340 C346 1.465 . S
C341 C336 1.399 . S
C341 C340 1.394 . S
C341 C342 1.516 . S
C342 C341 1.516 . S
C342 C343 1.502 . S
C342 C344 1.561 . S
C342 C345 1.526 . S
C343 H327 0.959 . S
C343 H328 0.959 . S
C343 H329 0.961 . S
C343 C342 1.502 . S
C344 H330 0.960 . S
C344 H331 0.961 . S
C344 H332 0.959 . S
C344 C342 1.561 . S
C345 C342 1.526 . S
C345 C346 1.396 . S
C345 C350 1.390 . S
C346 C340 1.465 . S
C346 C345 1.396 . S
C346 C347 1.399 . S
C347 H333 0.929 . S
C347 C346 1.399 . S
C347 C348 1.385 . S
C348 H334 0.931 . S
C348 C347 1.385 . S
C348 C349 1.389 . S
C349 C348 1.389 . S
C349 C350 1.387 . S
C350 H335 0.930 . S
C350 C345 1.390 . S
C350 C349 1.387 . S
H351 C363 0.930 1_556 S
H352 C365 0.930 . S
H353 C366 0.930 . S
H354 C370 0.959 . S
H355 C370 0.959 . S
H356 C370 0.961 . S
H357 C371 0.960 . S
H358 C371 0.961 . S
H359 C371 0.959 . S
H360 C374 0.929 . S
H361 C375 0.931 . S
H362 C377 0.930 1_556 S
C363 H351 0.930 1_554 S
C363 C364 1.399 . S
C363 C368 1.399 . S
C364 C363 1.399 . S
C364 C365 1.376 . S
C365 H352 0.930 . S
C365 C364 1.376 . S
C365 C366 1.388 . S
C366 H353 0.930 . S
C366 C365 1.388 . S
C366 C367 1.390 . S
C367 C366 1.390 . S
C367 C368 1.394 . S
C367 C373 1.465 . S
C368 C363 1.399 . S
C368 C367 1.394 . S
C368 C369 1.516 1_554 S
C369 C368 1.516 1_556 S
C369 C370 1.502 . S
C369 C371 1.561 . S
C369 C372 1.526 1_556 S
C370 H354 0.959 . S
C370 H355 0.959 . S
C370 H356 0.961 . S
C370 C369 1.502 . S
C371 H357 0.960 . S
C371 H358 0.961 . S
C371 H359 0.959 . S
C371 C369 1.561 . S
C372 C369 1.526 1_554 S
C372 C373 1.396 . S
C372 C377 1.390 . S
C373 C367 1.465 . S
C373 C372 1.396 . S
C373 C374 1.399 . S
C374 H360 0.929 . S
C374 C373 1.399 . S
C374 C375 1.385 . S
C375 H361 0.931 . S
C375 C374 1.385 . S
C375 C376 1.389 . S
C376 C375 1.389 . S
C376 C377 1.387 . S
C377 H362 0.930 1_554 S
C377 C372 1.390 . S
C377 C376 1.387 . S
H378 C390 0.930 . S
H379 C392 0.930 . S
H380 C393 0.930 . S
H381 C397 0.959 . S
H382 C397 0.959 . S
H383 C397 0.961 . S
H384 C398 0.960 . S
H385 C398 0.961 . S
H386 C398 0.959 . S
H387 C401 0.929 . S
H388 C402 0.931 . S
H389 C404 0.930 . S
C390 H378 0.930 . S
C390 C391 1.399 . S
C390 C395 1.399 . S
C391 C390 1.399 . S
C391 C392 1.376 . S
C392 H379 0.930 . S
C392 C391 1.376 . S
C392 C393 1.388 . S
C393 H380 0.930 . S
C393 C392 1.388 . S
C393 C394 1.390 . S
C394 C393 1.390 . S
C394 C395 1.394 . S
C394 C400 1.465 . S
C395 C390 1.399 . S
C395 C394 1.394 . S
C395 C396 1.516 . S
C396 C395 1.516 . S
C396 C397 1.502 . S
C396 C398 1.561 . S
C396 C399 1.526 . S
C397 H381 0.959 . S
C397 H382 0.959 . S
C397 H383 0.961 . S
C397 C396 1.502 . S
C398 H384 0.960 . S
C398 H385 0.961 . S
C398 H386 0.959 . S
C398 C396 1.561 . S
C399 C396 1.526 . S
C399 C400 1.396 . S
C399 C404 1.390 . S
C400 C394 1.465 . S
C400 C399 1.396 . S
C400 C401 1.399 . S
C401 H387 0.929 . S
C401 C400 1.399 . S
C401 C402 1.385 . S
C402 H388 0.931 . S
C402 C401 1.385 . S
C402 C403 1.389 . S
C403 C402 1.389 . S
C403 C404 1.387 . S
C404 H389 0.930 . S
C404 C399 1.390 . S
C404 C403 1.387 . S
H405 C417 0.930 . S
H406 C419 0.930 . S
H407 C420 0.930 . S
H408 C424 0.959 . S
H409 C424 0.959 . S
H410 C424 0.961 . S
H411 C425 0.960 . S
H412 C425 0.961 . S
H413 C425 0.959 . S
H414 C428 0.929 . S
H415 C429 0.931 . S
H416 C431 0.930 . S
C417 H405 0.930 . S
C417 C418 1.399 . S
C417 C422 1.399 . S
C418 C417 1.399 . S
C418 C419 1.376 1_554 S
C419 H406 0.930 . S
C419 C418 1.376 1_556 S
C419 C420 1.388 . S
C420 H407 0.930 . S
C420 C419 1.388 . S
C420 C421 1.390 1_556 S
C421 C420 1.390 1_554 S
C421 C422 1.394 . S
C421 C427 1.465 . S
C422 C417 1.399 . S
C422 C421 1.394 . S
C422 C423 1.516 . S
C423 C422 1.516 . S
C423 C424 1.502 . S
C423 C425 1.561 . S
C423 C426 1.526 . S
C424 H408 0.959 . S
C424 H409 0.959 . S
C424 H410 0.961 . S
C424 C423 1.502 . S
C425 H411 0.960 . S
C425 H412 0.961 . S
C425 H413 0.959 . S
C425 C423 1.561 . S
C426 C423 1.526 . S
C426 C427 1.396 . S
C426 C431 1.390 . S
C427 C421 1.465 . S
C427 C426 1.396 . S
C427 C428 1.399 1_554 S
C428 H414 0.929 . S
C428 C427 1.399 1_556 S
C428 C429 1.385 . S
C429 H415 0.931 . S
C429 C428 1.385 . S
C429 C430 1.389 1_556 S
C430 C429 1.389 1_554 S
C430 C431 1.387 . S
C431 H416 0.930 . S
C431 C426 1.390 . S
C431 C430 1.387 . S
H432 C444 0.930 . S
H433 C446 0.930 . S
H434 C447 0.930 . S
H435 C451 0.959 . S
H436 C451 0.959 . S
H437 C451 0.961 . S
H438 C452 0.960 . S
H439 C452 0.961 . S
H440 C452 0.959 . S
H441 C455 0.929 . S
H442 C456 0.931 . S
H443 C458 0.930 . S
C444 H432 0.930 . S
C444 C445 1.399 . S
C444 C449 1.399 . S
C445 C444 1.399 . S
C445 C446 1.376 . S
C446 H433 0.930 . S
C446 C445 1.376 . S
C446 C447 1.388 . S
C447 H434 0.930 . S
C447 C446 1.388 . S
C447 C448 1.390 . S
C448 C447 1.390 . S
C448 C449 1.394 . S
C448 C454 1.465 . S
C449 C444 1.399 . S
C449 C448 1.394 . S
C449 C450 1.516 . S
C450 C449 1.516 . S
C450 C451 1.502 . S
C450 C452 1.561 1_565 S
C450 C453 1.526 . S
C451 H435 0.959 . S
C451 H436 0.959 . S
C451 H437 0.961 . S
C451 C450 1.502 . S
C452 H438 0.960 . S
C452 H439 0.961 . S
C452 H440 0.959 . S
C452 C450 1.561 1_545 S
C453 C450 1.526 . S
C453 C454 1.396 . S
C453 C458 1.390 . S
C454 C448 1.465 . S
C454 C453 1.396 . S
C454 C455 1.399 . S
C455 H441 0.929 . S
C455 C454 1.399 . S
C455 C456 1.385 . S
C456 H442 0.931 . S
C456 C455 1.385 . S
C456 C457 1.389 . S
C457 C456 1.389 . S
C457 C458 1.387 . S
C458 H443 0.930 . S
C458 C453 1.390 . S
C458 C457 1.387 . S
H459 C471 0.930 . S
H460 C473 0.930 . S
H461 C474 0.930 . S
H462 C478 0.959 . S
H463 C478 0.959 . S
H464 C478 0.961 . S
H465 C479 0.960 . S
H466 C479 0.961 . S
H467 C479 0.959 . S
H468 C482 0.929 . S
H469 C483 0.931 . S
H470 C485 0.930 . S
C471 H459 0.930 . S
C471 C472 1.399 . S
C471 C476 1.399 . S
C472 C471 1.399 . S
C472 C473 1.376 . S
C473 H460 0.930 . S
C473 C472 1.376 . S
C473 C474 1.388 . S
C474 H461 0.930 . S
C474 C473 1.388 . S
C474 C475 1.390 . S
C475 C474 1.390 . S
C475 C476 1.394 . S
C475 C481 1.465 . S
C476 C471 1.399 . S
C476 C475 1.394 . S
C476 C477 1.516 . S
C477 C476 1.516 . S
C477 C478 1.502 . S
C477 C479 1.561 . S
C477 C480 1.526 . S
C478 H462 0.959 . S
C478 H463 0.959 . S
C478 H464 0.961 . S
C478 C477 1.502 . S
C479 H465 0.960 . S
C479 H466 0.961 . S
C479 H467 0.959 . S
C479 C477 1.561 . S
C480 C477 1.526 . S
C480 C481 1.396 . S
C480 C485 1.390 . S
C481 C475 1.465 . S
C481 C480 1.396 . S
C481 C482 1.399 . S
C482 H468 0.929 . S
C482 C481 1.399 . S
C482 C483 1.385 . S
C483 H469 0.931 . S
C483 C482 1.385 . S
C483 C484 1.389 . S
C484 C483 1.389 . S
C484 C485 1.387 . S
C485 H470 0.930 . S
C485 C480 1.390 . S
C485 C484 1.387 . S
H486 C498 0.930 . S
H487 C500 0.930 . S
H488 C501 0.930 . S
H489 C505 0.959 1_545 S
H490 C505 0.959 . S
H491 C505 0.961 . S
H492 C506 0.960 . S
H493 C506 0.961 . S
H494 C506 0.959 . S
H495 C509 0.929 . S
H496 C510 0.931 . S
H497 C512 0.930 1_565 S
C498 H486 0.930 . S
C498 C499 1.399 . S
C498 C503 1.399 . S
C499 C498 1.399 . S
C499 C500 1.376 . S
C500 H487 0.930 . S
C500 C499 1.376 . S
C500 C501 1.388 . S
C501 H488 0.930 . S
C501 C500 1.388 . S
C501 C502 1.390 . S
C502 C501 1.390 . S
C502 C503 1.394 . S
C502 C508 1.465 . S
C503 C498 1.399 . S
C503 C502 1.394 . S
C503 C504 1.516 . S
C504 C503 1.516 . S
C504 C505 1.502 1_545 S
C504 C506 1.561 1_545 S
C504 C507 1.526 . S
C505 H489 0.959 1_565 S
C505 H490 0.959 . S
C505 H491 0.961 . S
C505 C504 1.502 1_565 S
C506 H492 0.960 . S
C506 H493 0.961 . S
C506 H494 0.959 . S
C506 C504 1.561 1_565 S
C507 C504 1.526 . S
C507 C508 1.396 . S
C507 C512 1.390 . S
C508 C502 1.465 . S
C508 C507 1.396 . S
C508 C509 1.399 . S
C509 H495 0.929 . S
C509 C508 1.399 . S
C509 C510 1.385 . S
C510 H496 0.931 . S
C510 C509 1.385 . S
C510 C511 1.389 . S
C511 C510 1.389 . S
C511 C512 1.387 . S
C512 H497 0.930 1_545 S
C512 C507 1.390 . S
C512 C511 1.387 . S
H513 C525 0.930 . S
H514 C527 0.930 . S
H515 C528 0.930 . S
H516 C532 0.959 . S
H517 C532 0.959 . S
H518 C532 0.961 . S
H519 C533 0.960 . S
H520 C533 0.961 . S
H521 C533 0.959 . S
H522 C536 0.929 . S
H523 C537 0.931 . S
H524 C539 0.930 . S
C525 H513 0.930 . S
C525 C526 1.399 . S
C525 C530 1.399 . S
C526 C525 1.399 . S
C526 C527 1.376 . S
C527 H514 0.930 . S
C527 C526 1.376 . S
C527 C528 1.388 . S
C528 H515 0.930 . S
C528 C527 1.388 . S
C528 C529 1.390 . S
C529 C528 1.390 . S
C529 C530 1.394 . S
C529 C535 1.465 . S
C530 C525 1.399 . S
C530 C529 1.394 . S
C530 C531 1.516 . S
C531 C530 1.516 . S
C531 C532 1.502 . S
C531 C533 1.561 . S
C531 C534 1.526 . S
C532 H516 0.959 . S
C532 H517 0.959 . S
C532 H518 0.961 . S
C532 C531 1.502 . S
C533 H519 0.960 . S
C533 H520 0.961 . S
C533 H521 0.959 . S
C533 C531 1.561 . S
C534 C531 1.526 . S
C534 C535 1.396 . S
C534 C539 1.390 . S
C535 C529 1.465 . S
C535 C534 1.396 . S
C535 C536 1.399 . S
C536 H522 0.929 . S
C536 C535 1.399 . S
C536 C537 1.385 . S
C537 H523 0.931 . S
C537 C536 1.385 . S
C537 C538 1.389 . S
C538 C537 1.389 . S
C538 C539 1.387 . S
C539 H524 0.930 . S
C539 C534 1.390 . S
C539 C538 1.387 . S
H540 C552 0.930 . S
H541 C554 0.930 . S
H542 C555 0.930 . S
H543 C559 0.959 . S
H544 C559 0.959 . S
H545 C559 0.961 . S
H546 C560 0.960 . S
H547 C560 0.961 . S
H548 C560 0.959 . S
H549 C563 0.929 . S
H550 C564 0.931 . S
H551 C566 0.930 . S
C552 H540 0.930 . S
C552 C553 1.399 . S
C552 C557 1.399 . S
C553 C552 1.399 . S
C553 C554 1.376 . S
C554 H541 0.930 . S
C554 C553 1.376 . S
C554 C555 1.388 . S
C555 H542 0.930 . S
C555 C554 1.388 . S
C555 C556 1.390 . S
C556 C555 1.390 . S
C556 C557 1.394 . S
C556 C562 1.465 . S
C557 C552 1.399 . S
C557 C556 1.394 . S
C557 C558 1.516 . S
C558 C557 1.516 . S
C558 C559 1.502 . S
C558 C560 1.561 . S
C558 C561 1.526 . S
C559 H543 0.959 . S
C559 H544 0.959 . S
C559 H545 0.961 . S
C559 C558 1.502 . S
C560 H546 0.960 . S
C560 H547 0.961 . S
C560 H548 0.959 . S
C560 C558 1.561 . S
C561 C558 1.526 . S
C561 C562 1.396 . S
C561 C566 1.390 . S
C562 C556 1.465 . S
C562 C561 1.396 . S
C562 C563 1.399 . S
C563 H549 0.929 . S
C563 C562 1.399 . S
C563 C564 1.385 . S
C564 H550 0.931 . S
C564 C563 1.385 . S
C564 C565 1.389 . S
C565 C564 1.389 . S
C565 C566 1.387 . S
C566 H551 0.930 . S
C566 C561 1.390 . S
C566 C565 1.387 . S
H567 C579 0.930 . S
H568 C581 0.930 . S
H569 C582 0.930 . S
H570 C586 0.959 . S
H571 C586 0.959 1_565 S
H572 C586 0.961 1_565 S
H573 C587 0.960 1_565 S
H574 C587 0.961 1_565 S
H575 C587 0.959 . S
H576 C590 0.929 . S
H577 C591 0.931 . S
H578 C593 0.930 . S
C579 H567 0.930 . S
C579 C580 1.399 . S
C579 C584 1.399 . S
C580 C579 1.399 . S
C580 C581 1.376 . S
C581 H568 0.930 . S
C581 C580 1.376 . S
C581 C582 1.388 . S
C582 H569 0.930 . S
C582 C581 1.388 . S
C582 C583 1.390 . S
C583 C582 1.390 . S
C583 C584 1.394 . S
C583 C589 1.465 . S
C584 C579 1.399 . S
C584 C583 1.394 . S
C584 C585 1.516 . S
C585 C584 1.516 . S
C585 C586 1.502 . S
C585 C587 1.561 . S
C585 C588 1.526 . S
C586 H570 0.959 . S
C586 H571 0.959 1_545 S
C586 H572 0.961 1_545 S
C586 C585 1.502 . S
C587 H573 0.960 1_545 S
C587 H574 0.961 1_545 S
C587 H575 0.959 . S
C587 C585 1.561 . S
C588 C585 1.526 . S
C588 C589 1.396 . S
C588 C593 1.390 . S
C589 C583 1.465 . S
C589 C588 1.396 . S
C589 C590 1.399 . S
C590 H576 0.929 . S
C590 C589 1.399 . S
C590 C591 1.385 . S
C591 H577 0.931 . S
C591 C590 1.385 . S
C591 C592 1.389 . S
C592 C591 1.389 . S
C592 C593 1.387 . S
C593 H578 0.930 . S
C593 C588 1.390 . S
C593 C592 1.387 . S
H594 C606 0.930 . S
H595 C608 0.930 . S
H596 C609 0.930 . S
H597 C613 0.959 . S
H598 C613 0.959 . S
H599 C613 0.961 . S
H600 C614 0.960 . S
H601 C614 0.961 . S
H602 C614 0.959 . S
H603 C617 0.929 . S
H604 C618 0.931 . S
H605 C620 0.930 . S
C606 H594 0.930 . S
C606 C607 1.399 . S
C606 C611 1.399 . S
C607 C606 1.399 . S
C607 C608 1.376 . S
C608 H595 0.930 . S
C608 C607 1.376 . S
C608 C609 1.388 . S
C609 H596 0.930 . S
C609 C608 1.388 . S
C609 C610 1.390 . S
C610 C609 1.390 . S
C610 C611 1.394 . S
C610 C616 1.465 . S
C611 C606 1.399 . S
C611 C610 1.394 . S
C611 C612 1.516 . S
C612 C611 1.516 . S
C612 C613 1.502 . S
C612 C614 1.561 . S
C612 C615 1.526 . S
C613 H597 0.959 . S
C613 H598 0.959 . S
C613 H599 0.961 . S
C613 C612 1.502 . S
C614 H600 0.960 . S
C614 H601 0.961 . S
C614 H602 0.959 . S
C614 C612 1.561 . S
C615 C612 1.526 . S
C615 C616 1.396 . S
C615 C620 1.390 . S
C616 C610 1.465 . S
C616 C615 1.396 . S
C616 C617 1.399 . S
C617 H603 0.929 . S
C617 C616 1.399 . S
C617 C618 1.385 . S
C618 H604 0.931 . S
C618 C617 1.385 . S
C618 C619 1.389 . S
C619 C618 1.389 . S
C619 C620 1.387 . S
C620 H605 0.930 . S
C620 C615 1.390 . S
C620 C619 1.387 . S
H621 C633 0.930 . S
H622 C635 0.930 . S
H623 C636 0.930 1_545 S
H624 C640 0.959 . S
H625 C640 0.959 . S
H626 C640 0.961 . S
H627 C641 0.960 . S
H628 C641 0.961 . S
H629 C641 0.959 . S
H630 C644 0.929 . S
H631 C645 0.931 . S
H632 C647 0.930 . S
C633 H621 0.930 . S
C633 C634 1.399 . S
C633 C638 1.399 . S
C634 C633 1.399 . S
C634 C635 1.376 . S
C635 H622 0.930 . S
C635 C634 1.376 . S
C635 C636 1.388 . S
C636 H623 0.930 1_565 S
C636 C635 1.388 . S
C636 C637 1.390 . S
C637 C636 1.390 . S
C637 C638 1.394 . S
C637 C643 1.465 . S
C638 C633 1.399 . S
C638 C637 1.394 . S
C638 C639 1.516 . S
C639 C638 1.516 . S
C639 C640 1.502 . S
C639 C641 1.561 . S
C639 C642 1.526 . S
C640 H624 0.959 . S
C640 H625 0.959 . S
C640 H626 0.961 . S
C640 C639 1.502 . S
C641 H627 0.960 . S
C641 H628 0.961 . S
C641 H629 0.959 . S
C641 C639 1.561 . S
C642 C639 1.526 . S
C642 C643 1.396 . S
C642 C647 1.390 . S
C643 C637 1.465 . S
C643 C642 1.396 . S
C643 C644 1.399 1_565 S
C644 H630 0.929 . S
C644 C643 1.399 1_545 S
C644 C645 1.385 . S
C645 H631 0.931 . S
C645 C644 1.385 . S
C645 C646 1.389 1_545 S
C646 C645 1.389 1_565 S
C646 C647 1.387 . S
C647 H632 0.930 . S
C647 C642 1.390 . S
C647 C646 1.387 . S
C349 C219 1.649 . S
C337 C138 1.628 . S
C364 C21 1.627 . S
C376 C314 1.637 . S
C391 C60 1.643 . S
C403 C230 1.640 . S
C418 C99 1.633 . S
C430 C303 1.631 . S
C457 C214 1.356 . S
C445 C16 1.535 . S
C484 C307 1.608 . S
C472 C40 1.609 . S
C499 C79 1.577 . S
C511 C223 1.618 . S
C526 C133 1.524 . S
C538 C298 1.411 . S
C565 C309 1.340 . S
C553 C55 1.519 . S
C592 C225 1.369 . S
C580 C94 1.546 . S
C619 C296 1.605 . S
C607 C118 1.595 . S
C634 C1 1.600 . S
C646 C212 1.609 . S
