# Generated by pormake.
# Topology anh, (6,3)-cn, num edge types: 1
# Building blocks:
#     Node 0, Type 0, BuildingBlock: CUKXOW_clean_sbu_0, # of connection points: 6
#     Node 1, Type 0, BuildingBlock: CUKXOW_clean_sbu_0, # of connection points: 6
#     Node 2, Type 0, BuildingBlock: CUKXOW_clean_sbu_0, # of connection points: 6
#     Node 3, Type 1, BuildingBlock: BETDAH_clean_linker_0, # of connection points: 3
#     Node 4, Type 1, BuildingBlock: BETDAH_clean_linker_0, # of connection points: 3
#     Node 5, Type 1, BuildingBlock: BETDAH_clean_linker_0, # of connection points: 3
#     Node 6, Type 1, BuildingBlock: BETDAH_clean_linker_0, # of connection points: 3
#     Node 7, Type 1, BuildingBlock: BETDAH_clean_linker_0, # of connection points: 3
#     Node 8, Type 1, BuildingBlock: BETDAH_clean_linker_0, # of connection points: 3
#     Edge 9, Type (0, 1), BuildingBlock: CIFDUS_clean_linker_0, # of connection points: 2
#     Edge 10, Type (0, 1), BuildingBlock: CIFDUS_clean_linker_0, # of connection points: 2
#     Edge 11, Type (0, 1), BuildingBlock: CIFDUS_clean_linker_0, # of connection points: 2
#     Edge 12, Type (0, 1), BuildingBlock: CIFDUS_clean_linker_0, # of connection points: 2
#     Edge 13, Type (0, 1), BuildingBlock: CIFDUS_clean_linker_0, # of connection points: 2
#     Edge 14, Type (0, 1), BuildingBlock: CIFDUS_clean_linker_0, # of connection points: 2
#     Edge 15, Type (0, 1), BuildingBlock: CIFDUS_clean_linker_0, # of connection points: 2
#     Edge 16, Type (0, 1), BuildingBlock: CIFDUS_clean_linker_0, # of connection points: 2
#     Edge 17, Type (0, 1), BuildingBlock: CIFDUS_clean_linker_0, # of connection points: 2
#     Edge 18, Type (0, 1), BuildingBlock: CIFDUS_clean_linker_0, # of connection points: 2
#     Edge 19, Type (0, 1), BuildingBlock: CIFDUS_clean_linker_0, # of connection points: 2
#     Edge 20, Type (0, 1), BuildingBlock: CIFDUS_clean_linker_0, # of connection points: 2
#     Edge 21, Type (0, 1), BuildingBlock: CIFDUS_clean_linker_0, # of connection points: 2
#     Edge 22, Type (0, 1), BuildingBlock: CIFDUS_clean_linker_0, # of connection points: 2
#     Edge 23, Type (0, 1), BuildingBlock: CIFDUS_clean_linker_0, # of connection points: 2
#     Edge 24, Type (0, 1), BuildingBlock: CIFDUS_clean_linker_0, # of connection points: 2
#     Edge 25, Type (0, 1), BuildingBlock: CIFDUS_clean_linker_0, # of connection points: 2
#     Edge 26, Type (0, 1), BuildingBlock: CIFDUS_clean_linker_0, # of connection points: 2
# Relax obj value: 0.073
# Max RMSD: 0.143
# Mean RMSD: 0.087
data_MOF--net-anh--node1-CUKXOW_clean_sbu_0--node2-BETDAH_clean_linker_0--edge1-CIFDUS_clean_linker_0
_symmetry_space_group_name_H-M    P1
_symmetry_Int_Tables_number       1
_symmetry_cell_setting            triclinic
loop_
_symmetry_equiv_pos_as_xyz
'x, y, z'
_cell_length_a     25.353958
_cell_length_b     24.931706
_cell_length_c     41.709629
_cell_angle_alpha  97.700847
_cell_angle_beta   91.790275
_cell_angle_gamma 112.05541
loop_
_atom_site_label
_atom_site_type_symbol
_atom_site_fract_x
_atom_site_fract_y
_atom_site_fract_z
_atom_type_partial_charge
Tb0 Tb 0.1095 0.57056 0.15541 0.0
C1 C 0.08707 0.52862 0.2242 0.0
Tb2 Tb 0.04049 0.43717 0.15911 0.0
O3 O 0.03515 0.59679 0.15067 0.0
O4 O 1.02515 0.51242 0.15377 0.0
O5 O 0.11852 0.5693 0.20744 0.0
C6 C 0.95621 0.33864 0.16745 0.0
O7 O 0.0502 0.47609 0.2103 0.0
C8 C 0.15082 0.46876 0.15165 0.0
C9 C 0.0626 0.47659 0.09079 0.0
O10 O 1.01024 0.35026 0.17398 0.0
O11 O 0.9501 0.38205 0.15606 0.0
O12 O 0.11288 0.41608 0.14181 0.0
O13 O 0.12643 0.49827 0.16746 0.0
O14 O 1.03015 0.43628 0.10733 0.0
O15 O 0.09959 0.52921 0.10468 0.0
C16 C 0.19955 0.6679 0.1527 0.0
O17 O 0.1898 0.61706 0.13563 0.0
O18 O 0.15786 0.66416 0.1708 0.0
C19 C 0.99732 0.54425 0.1509 0.0
Tb20 Tb 0.50552 0.03845 0.50925 0.0
C21 C 0.56499 0.07413 0.44545 0.0
Tb22 Tb 0.63815 0.11596 0.51374 0.0
O23 O 0.47521 0.11113 0.50772 0.0
O24 O 0.56023 0.12537 0.51227 0.0
O25 O 0.52084 0.03799 0.45832 0.0
C26 C 0.74204 0.20045 0.52016 0.0
O27 O 0.61284 0.1116 0.46255 0.0
C28 C 0.60777 1.0016 0.50029 0.0
C29 C 0.57372 0.09208 0.57822 0.0
O30 O 0.72818 0.15227 0.5325 0.0
O31 O 0.69709 0.20153 0.5049 0.0
O32 O 0.65374 0.03942 0.49124 0.0
O33 O 0.58436 0.02891 0.51859 0.0
O34 O 0.62027 0.1242 0.56504 0.0
O35 O 0.52675 0.05278 0.56118 0.0
C36 C 0.41291 0.94044 0.50335 0.0
O37 O 0.41587 0.99157 0.51719 0.0
O38 O 0.46156 0.9448 0.49257 0.0
C39 C 0.5267 0.15147 0.51087 0.0
Tb40 Tb 0.54066 0.60975 0.8294 0.0
C41 C 0.5984 0.60917 0.89673 0.0
Tb42 Tb 0.67272 0.64077 0.83812 0.0
O43 O 0.51372 0.5131 0.82692 0.0
O44 O 0.59702 0.56783 0.83043 0.0
O45 O 0.55905 0.62337 0.88221 0.0
C46 C 0.77499 0.63454 0.83493 0.0
O47 O 0.6417 0.60316 0.88151 0.0
C48 C 0.64038 0.72927 0.85146 0.0
C49 C 0.61342 0.62952 0.76793 0.0
O50 O 0.76113 0.66557 0.85814 0.0
O51 O 0.73165 0.60801 0.8136 0.0
O52 O 0.68781 0.72832 0.8635 0.0
O53 O 0.61729 0.68517 0.82982 0.0
O54 O 0.66032 0.63557 0.78571 0.0
O55 O 0.56452 0.62507 0.78045 0.0
C56 C 0.43424 0.60416 0.82154 0.0
O57 O 0.45889 0.57934 0.80115 0.0
O58 O 0.47062 0.63444 0.84637 0.0
C59 C 0.56551 0.51507 0.82845 0.0
H60 H 0.47068 0.95498 0.26083 0.0
H61 H 0.63707 0.06464 0.23733 0.0
H62 H 0.51279 0.94628 0.16189 0.0
C63 C 0.50058 0.97108 0.24302 0.0
C64 C 0.4844 0.94688 0.21018 0.0
C65 C 0.55543 0.01387 0.25325 0.0
C66 C 0.59468 0.03177 0.22989 0.0
C67 C 0.57921 0.00658 0.19695 0.0
C68 C 0.52441 0.96445 0.1874 0.0
N69 N 0.61768 0.02191 0.17268 0.0
C70 C 0.66571 0.07345 0.17613 0.0
H71 H 0.55907 0.47944 0.58227 0.0
H72 H 0.54416 0.63736 0.56081 0.0
H73 H 0.51809 0.49416 0.48374 0.0
C74 C 0.55261 0.50508 0.5646 0.0
C75 C 0.53929 0.47994 0.53169 0.0
C76 C 0.55358 0.56142 0.57526 0.0
C77 C 0.54327 0.59392 0.55252 0.0
C78 C 0.53124 0.57015 0.51933 0.0
C79 C 0.52853 0.51292 0.50922 0.0
N80 N 0.52049 0.60192 0.49566 0.0
C81 C 0.52674 0.66055 0.50179 0.0
H82 H 0.98454 0.50648 0.90366 0.0
H83 H 0.07813 0.39486 0.88638 0.0
H84 H 0.98731 0.42415 0.80632 0.0
C85 C 0.99876 0.47883 0.88674 0.0
C86 C 0.98131 0.4688 0.85345 0.0
C87 C 0.03344 0.45234 0.89876 0.0
C88 C 0.05034 0.41466 0.8774 0.0
C89 C 0.03313 0.40436 0.84412 0.0
C90 C 0.99865 0.43113 0.83224 0.0
N91 N 0.05616 0.37303 0.82201 0.0
C92 C 0.11067 0.4024 0.81351 0.0
H93 H 0.16926 0.64523 0.41862 0.0
H94 H 0.06103 0.46741 0.42707 0.0
H95 H 0.17805 0.57908 0.50738 0.0
C96 C 0.15401 0.60945 0.4325 0.0
C97 C 0.17808 0.61807 0.46433 0.0
C98 C 0.11331 0.55453 0.41803 0.0
C99 C 0.09236 0.5101 0.43747 0.0
C100 C 0.11493 0.51958 0.47001 0.0
C101 C 0.15914 0.57272 0.48279 0.0
N102 N 0.09602 0.47565 0.49009 0.0
C103 C 0.03994 0.43587 0.48825 0.0
H104 H 0.60636 0.22382 0.7664 0.0
H105 H 0.59539 0.05367 0.78276 0.0
H106 H 0.57004 0.17232 0.86017 0.0
C107 C 0.60146 0.19244 0.78291 0.0
C108 C 0.58947 0.2053 0.8149 0.0
C109 C 0.60351 0.13799 0.77125 0.0
C110 C 0.59497 0.09619 0.79208 0.0
C111 C 0.58304 0.10877 0.82441 0.0
C112 C 0.58014 0.16315 0.83548 0.0
N113 N 0.5714 0.0674 0.84619 0.0
C114 C 0.57526 0.01296 0.83953 0.0
H115 H 0.70117 0.52651 0.07181 0.0
H116 H 0.52989 0.51803 0.08325 0.0
H117 H 0.639 0.52477 0.16632 0.0
C118 C 0.66647 0.52318 0.08698 0.0
C119 C 0.67602 0.52404 0.12036 0.0
C120 C 0.61437 0.52194 0.07332 0.0
C121 C 0.57027 0.51964 0.09359 0.0
C122 C 0.57857 0.52002 0.12719 0.0
C123 C 0.63196 0.52324 0.1404 0.0
N124 N 0.53514 0.51864 0.14856 0.0
C125 C 0.47813 0.50912 0.1396 0.0
H126 H 0.20857 0.40851 0.11883 0.0
H127 H 0.23543 0.5704 0.1815 0.0
H128 H 0.33894 0.59917 0.1816 0.0
H129 H 0.42279 0.57593 0.16633 0.0
H130 H 0.39614 0.41381 0.10424 0.0
H131 H 0.29241 0.38753 0.1014 0.0
C132 C 0.2371 0.45022 0.13237 0.0
C133 C 0.21396 0.4872 0.15014 0.0
C134 C 0.29696 0.46635 0.13251 0.0
C135 C 0.25177 0.54114 0.16749 0.0
C136 C 0.31115 0.55756 0.16765 0.0
C137 C 0.39416 0.53525 0.15184 0.0
C138 C 0.41702 0.49694 0.13531 0.0
C139 C 0.33436 0.52028 0.15057 0.0
C140 C 0.37955 0.44413 0.11693 0.0
C141 C 0.32019 0.42902 0.11544 0.0
H142 H 0.77743 0.28823 0.48429 0.0
H143 H 0.83819 0.20684 0.55403 0.0
H144 H 0.93673 0.2728 0.54997 0.0
H145 H 1.00579 0.35249 0.52568 0.0
H146 H 0.94556 0.43234 0.45507 0.0
H147 H 0.8464 0.36782 0.45999 0.0
C148 C 0.81227 0.28536 0.49878 0.0
C149 C 0.8008 0.24309 0.51955 0.0
C150 C 0.86875 0.32266 0.49585 0.0
C151 C 0.84616 0.23928 0.53798 0.0
C152 C 0.90243 0.27678 0.53557 0.0
C153 C 0.97073 0.35527 0.51132 0.0
C154 C 0.9821 0.39624 0.48992 0.0
C155 C 0.91424 0.31825 0.51439 0.0
C156 C 0.93709 0.40045 0.47151 0.0
C157 C 0.88066 0.36385 0.47443 0.0
H158 H 0.57471 0.75898 0.80971 0.0
H159 H 0.679 0.81948 0.90101 0.0
H160 H 0.66726 0.91295 0.90554 0.0
H161 H 0.63086 0.97923 0.88251 0.0
H162 H 0.52936 0.92163 0.79057 0.0
H163 H 0.53666 0.82541 0.78694 0.0
C164 C 0.59422 0.79249 0.83071 0.0
C165 C 0.62766 0.78263 0.85503 0.0
C166 C 0.58836 0.84676 0.83277 0.0
C167 C 0.65318 0.82635 0.88201 0.0
C168 C 0.64665 0.8798 0.88457 0.0
C169 C 0.6105 0.94542 0.86172 0.0
C170 C 0.57999 0.95679 0.83674 0.0
C171 C 0.61509 0.8908 0.8599 0.0
C172 C 0.55333 0.91327 0.80992 0.0
C173 C 0.55739 0.85844 0.80794 0.0
H174 H 0.93554 0.60721 0.17396 0.0
H175 H 0.91765 0.44327 0.11668 0.0
H176 H 0.81579 0.4205 0.10359 0.0
H177 H 0.73307 0.45127 0.10496 0.0
H178 H 0.74996 0.61249 0.16503 0.0
H179 H 0.85025 0.63215 0.18071 0.0
C180 C 0.90905 0.56608 0.15901 0.0
C181 C 0.93417 0.52682 0.14643 0.0
C182 C 0.85022 0.55303 0.15195 0.0
C183 C 0.89932 0.47372 0.12713 0.0
C184 C 0.84109 0.461 0.1194 0.0
C185 C 0.75853 0.49016 0.12195 0.0
C186 C 0.73395 0.53043 0.13382 0.0
C187 C 0.81621 0.50077 0.13122 0.0
C188 C 0.76753 0.58061 0.15579 0.0
C189 C 0.82508 0.59204 0.16456 0.0
H190 H 0.41227 0.83167 0.49869 0.0
H191 H 0.30125 0.92708 0.5009 0.0
H192 H 0.21734 0.83468 0.49058 0.0
H193 H 0.17646 0.7266 0.47722 0.0
H194 H 0.28759 0.63177 0.47843 0.0
H195 H 0.37101 0.7241 0.49161 0.0
C196 C 0.3696 0.83202 0.49712 0.0
C197 C 0.36247 0.88555 0.50003 0.0
C198 C 0.32191 0.779 0.49189 0.0
C199 C 0.30733 0.88602 0.49857 0.0
C200 C 0.25953 0.83335 0.49262 0.0
C201 C 0.21897 0.72652 0.48092 0.0
C202 C 0.22646 0.67313 0.47689 0.0
C203 C 0.2664 0.7796 0.48874 0.0
C204 C 0.28132 0.67276 0.48168 0.0
C205 C 0.32883 0.72537 0.48897 0.0
H206 H 0.5037 0.41109 0.84626 0.0
H207 H 0.66492 0.50664 0.81121 0.0
H208 H 0.6898 0.42055 0.80719 0.0
H209 H 0.66122 0.31514 0.80885 0.0
H210 H 0.49952 0.21905 0.8437 0.0
H211 H 0.4793 0.30815 0.85308 0.0
C212 C 0.54449 0.41303 0.83808 0.0
C213 C 0.58268 0.46501 0.82905 0.0
C214 C 0.55811 0.36311 0.83572 0.0
C215 C 0.63548 0.46742 0.81873 0.0
C216 C 0.64938 0.41796 0.81616 0.0
C217 C 0.62193 0.31407 0.81889 0.0
C218 C 0.58171 0.26077 0.82538 0.0
C219 C 0.61047 0.36524 0.82395 0.0
C220 C 0.53122 0.25976 0.83871 0.0
C221 C 0.51945 0.31052 0.84381 0.0
H222 H 0.53603 0.9188 0.53329 0.0
H223 H 0.64985 0.94096 0.457 0.0
H224 H 0.63455 0.83733 0.45057 0.0
H225 H 0.59116 0.74049 0.46751 0.0
H226 H 0.47768 0.71665 0.5437 0.0
H227 H 0.48996 0.82021 0.54926 0.0
C228 C 0.55687 0.90067 0.51503 0.0
C229 C 0.59397 0.93756 0.49557 0.0
C230 C 0.5482 0.84073 0.51162 0.0
C231 C 0.62118 0.91357 0.47229 0.0
C232 C 0.61253 0.85427 0.46861 0.0
C233 C 0.56926 0.75821 0.48533 0.0
C234 C 0.53398 0.72165 0.50535 0.0
C235 C 0.57665 0.81756 0.48832 0.0
C236 C 0.50538 0.74448 0.52822 0.0
C237 C 0.51237 0.80357 0.53134 0.0
H238 H 0.78683 0.54113 0.801 0.0
H239 H 0.8747 0.69336 0.87317 0.0
H240 H 0.95153 0.65841 0.882 0.0
H241 H 0.98751 0.57966 0.87329 0.0
H242 H 0.89216 0.42174 0.80613 0.0
H243 H 0.82503 0.46453 0.79053 0.0
C244 C 0.82343 0.56721 0.81817 0.0
C245 C 0.82553 0.61959 0.83647 0.0
C246 C 0.86571 0.54557 0.82411 0.0
C247 C 0.87256 0.65284 0.85889 0.0
C248 C 0.91618 0.63275 0.86401 0.0
C249 C 0.95194 0.55446 0.85531 0.0
C250 C 0.94445 0.49722 0.84128 0.0
C251 C 0.91214 0.57826 0.84751 0.0
C252 C 0.8992 0.46597 0.81723 0.0
C253 C 0.8605 0.49022 0.80847 0.0
H254 H 0.22568 0.77404 0.1891 0.0
H255 H 0.29564 0.67419 0.12362 0.0
H256 H 0.39009 0.75335 0.13447 0.0
H257 H 0.45387 0.84711 0.16603 0.0
H258 H 0.38367 0.94727 0.23133 0.0
H259 H 0.28821 0.87137 0.2174 0.0
C260 C 0.2615 0.77011 0.17687 0.0
C261 C 0.25403 0.71862 0.15568 0.0
C262 C 0.31566 0.81535 0.18356 0.0
C263 C 0.30054 0.71371 0.13996 0.0
C264 C 0.35454 0.75875 0.1463 0.0
C265 C 0.41758 0.85286 0.17679 0.0
C266 C 0.42601 0.9025 0.19994 0.0
C267 C 0.36279 0.80924 0.16855 0.0
C268 C 0.37853 0.90889 0.21393 0.0
C269 C 0.32387 0.86573 0.20583 0.0
H270 H 0.46079 0.20588 0.48999 0.0
H271 H 0.62485 0.24028 0.53912 0.0
H272 H 0.64476 0.34555 0.54876 0.0
H273 H 0.61256 0.42738 0.54603 0.0
H274 H 0.44966 0.39251 0.49507 0.0
H275 H 0.43239 0.28828 0.48306 0.0
C276 C 0.50114 0.23659 0.50251 0.0
C277 C 0.54134 0.21545 0.51384 0.0
C278 C 0.51233 0.29701 0.50772 0.0
C279 C 0.59354 0.25559 0.52988 0.0
C280 C 0.60471 0.31574 0.53559 0.0
C281 C 0.57353 0.39693 0.53206 0.0
C282 C 0.53233 0.41773 0.52156 0.0
C283 C 0.56405 0.33691 0.52503 0.0
C284 C 0.48221 0.37783 0.50323 0.0
C285 C 0.47215 0.31811 0.49653 0.0
H286 H 0.35742 0.52764 0.77489 0.0
H287 H 0.37159 0.63434 0.86763 0.0
H288 H 0.26929 0.58252 0.87213 0.0
H289 H 0.17901 0.49865 0.85259 0.0
H290 H 0.16758 0.38835 0.76171 0.0
H291 H 0.26625 0.44928 0.75353 0.0
C292 C 0.33788 0.54042 0.79578 0.0
C293 C 0.37176 0.58438 0.82102 0.0
C294 C 0.28003 0.50887 0.79876 0.0
C295 C 0.34611 0.60065 0.84791 0.0
C296 C 0.28788 0.57064 0.85062 0.0
C297 C 0.19838 0.48854 0.83096 0.0
C298 C 0.16735 0.43931 0.80786 0.0
C299 C 0.25501 0.52332 0.82675 0.0
C300 C 0.19162 0.42606 0.77977 0.0
C301 C 0.24769 0.46089 0.77512 0.0
H302 H 0.84456 0.31929 0.16108 0.0
H303 H 0.9614 0.23893 0.18501 0.0
H304 H 0.88076 0.14919 0.19142 0.0
H305 H 0.7764 0.09259 0.1881 0.0
H306 H 0.66076 0.1742 0.16435 0.0
H307 H 0.74156 0.26507 0.16019 0.0
C308 C 0.85233 0.28214 0.16777 0.0
C309 C 0.9085 0.28519 0.17236 0.0
C310 C 0.80604 0.23124 0.1715 0.0
C311 C 0.91828 0.23719 0.18127 0.0
C312 C 0.87229 0.18603 0.18493 0.0
C313 C 0.76934 0.13069 0.18236 0.0
C314 C 0.7135 0.12764 0.17656 0.0
C315 C 0.81597 0.18243 0.17985 0.0
C316 C 0.7039 0.1764 0.16898 0.0
C317 C 0.7499 0.22803 0.1665 0.0
H318 H 0.10289 0.55094 0.04709 0.0
H319 H 1.00986 0.36858 0.05399 0.0
H320 H 0.99769 0.34411 0.99495 0.0
H321 H 1.00856 0.37524 0.94113 0.0
H322 H 0.09646 0.5579 0.93434 0.0
H323 H 0.11639 0.58153 0.99349 0.0
C324 C 0.08029 0.50578 0.03572 0.0
C325 C 0.05706 0.46181 0.05498 0.0
C326 C 0.07271 0.49204 0.00172 0.0
C327 C 1.02775 0.4035 0.03978 0.0
C328 C 1.02089 0.38933 0.00598 0.0
C329 C 1.03292 0.41994 0.95274 0.0
C330 C 0.05144 0.46482 0.93378 0.0
C331 C 0.04258 0.43331 0.98671 0.0
C332 C 0.0821 0.52283 0.94876 0.0
C333 C 0.09323 0.5363 0.98246 0.0
H334 H 0.64446 0.07833 0.4023 0.0
H335 H 0.47122 0.06625 0.40972 0.0
H336 H 0.45581 0.05469 0.35073 0.0
H337 H 0.48866 0.04032 0.29727 0.0
H338 H 0.65787 0.04028 0.28876 0.0
H339 H 0.67856 0.0664 0.34771 0.0
C340 C 0.60373 0.07397 0.39087 0.0
C341 C 0.55892 0.0729 0.41011 0.0
C342 C 0.59449 0.06521 0.35677 0.0
C343 C 0.50609 0.06667 0.39523 0.0
C344 C 0.49729 0.06015 0.36156 0.0
C345 C 0.53006 0.0457 0.30822 0.0
C346 C 0.57123 0.03736 0.28851 0.0
C347 C 0.54069 0.05793 0.3421 0.0
C348 C 0.62532 0.04661 0.3032 0.0
C349 C 0.63703 0.06099 0.337 0.0
H350 H 0.53801 0.64034 0.72353 0.0
H351 H 0.69215 0.60584 0.73185 0.0
H352 H 0.68888 0.5846 0.67292 0.0
H353 H 0.63838 0.5685 0.61899 0.0
H354 H 0.48572 0.60491 0.61031 0.0
H355 H 0.49248 0.63308 0.66926 0.0
C356 C 0.57121 0.62877 0.71246 0.0
C357 C 0.61495 0.62426 0.73218 0.0
C358 C 0.5692 0.61662 0.67843 0.0
C359 C 0.65797 0.60978 0.71735 0.0
C360 C 0.65603 0.59728 0.68359 0.0
C361 C 0.60695 0.58309 0.63009 0.0
C362 C 0.56145 0.5843 0.61049 0.0
C363 C 0.61125 0.5994 0.66392 0.0
C364 C 0.52126 0.60389 0.62497 0.0
C365 C 0.52495 0.61969 0.65866 0.0
H366 H 0.65946 0.11002 0.62492 0.0
H367 H 0.48375 0.09143 0.6109 0.0
H368 H 0.47685 0.1007 0.66936 0.0
H369 H 0.52062 0.11548 0.72451 0.0
H370 H 0.69466 0.13101 0.74006 0.0
H371 H 0.70245 0.12046 0.68105 0.0
C372 C 0.61995 0.10841 0.63484 0.0
C373 C 0.57228 0.10049 0.61378 0.0
C374 C 0.61581 0.11237 0.66862 0.0
C375 C 0.52094 0.09746 0.62671 0.0
C376 C 0.51689 0.10265 0.6601 0.0
C377 C 0.55991 0.11565 0.7148 0.0
C378 C 0.60685 0.12346 0.73615 0.0
C379 C 0.5639 0.10994 0.68122 0.0
C380 C 0.65787 0.12426 0.72374 0.0
C381 C 0.66237 0.11877 0.69014 0.0
H382 H 0.63511 0.53541 0.92394 0.0
H383 H 0.54698 0.65243 0.94465 0.0
H384 H 0.54075 0.6331 0.0008 0.0
H385 H 0.56558 0.58706 0.04479 0.0
H386 H 0.64967 0.46644 0.02254 0.0
H387 H 0.65214 0.48305 0.96625 0.0
C388 C 0.6146 0.55678 0.94076 0.0
C389 C 0.59235 0.59601 0.93032 0.0
C390 C 0.61048 0.54482 0.97275 0.0
C391 C 0.56471 0.62228 0.95216 0.0
C392 C 0.56119 0.61126 0.98427 0.0
C393 C 0.58343 0.56352 0.02751 0.0
C394 C 0.60819 0.52619 0.03815 0.0
C395 C 0.58446 0.57302 0.99494 0.0
C396 C 0.63143 0.49638 0.0153 0.0
C397 C 0.63275 0.50573 0.98304 0.0
H398 H 1.01529 0.48046 0.26953 0.0
H399 H 0.18493 0.60345 0.25916 0.0
H400 H 0.20759 0.62069 0.31764 0.0
H401 H 0.18137 0.59861 0.37102 0.0
H402 H 1.00963 0.48329 0.3838 0.0
H403 H 0.98639 0.46382 0.3249 0.0
C404 C 0.05708 0.51117 0.28017 0.0
C405 C 0.09836 0.54057 0.25998 0.0
C406 C 0.06972 0.52177 0.31412 0.0
C407 C 0.1522 0.58056 0.27409 0.0
C408 C 0.16536 0.59026 0.30756 0.0
C409 C 0.13819 0.57042 0.36132 0.0
C410 C 0.09725 0.54312 0.38223 0.0
C411 C 0.12459 0.561 0.32773 0.0
C412 C 0.04237 0.5047 0.36852 0.0
C413 C 1.02887 0.49383 0.33478 0.0
loop_
_geom_bond_atom_site_label_1
_geom_bond_atom_site_label_2
_geom_bond_distance
_geom_bond_site_symmetry_2
_ccdc_geom_bond_type
Tb0 O3 2.453 1_455 S
Tb0 O4 2.596 1_455 S
Tb0 O5 2.374 . S
Tb0 O13 2.343 . S
Tb0 O15 2.353 . S
Tb0 O17 2.427 . S
Tb0 O18 2.513 . S
C1 O5 1.251 . S
C1 O7 1.263 . S
Tb2 O4 2.343 1_455 S
Tb2 O7 2.353 . S
Tb2 O10 2.427 1_455 S
Tb2 O11 2.513 1_455 S
Tb2 O12 2.453 . S
Tb2 O13 2.596 . S
Tb2 O14 2.374 . S
O3 Tb0 2.453 1_655 S
O3 C19 1.245 . S
O4 Tb0 2.596 1_655 S
O4 Tb2 2.343 1_655 S
O4 C19 1.259 . S
O5 Tb0 2.374 . S
O5 C1 1.251 . S
C6 O10 1.275 . S
C6 O11 1.246 . S
O7 C1 1.263 . S
O7 Tb2 2.353 . S
C8 O12 1.245 . S
C8 O13 1.259 . S
C9 O14 1.250 . S
C9 O15 1.263 . S
O10 Tb2 2.427 1_655 S
O10 C6 1.275 . S
O11 Tb2 2.513 1_655 S
O11 C6 1.246 . S
O12 Tb2 2.453 . S
O12 C8 1.245 . S
O13 Tb0 2.343 . S
O13 Tb2 2.596 . S
O13 C8 1.259 . S
O14 Tb2 2.374 . S
O14 C9 1.250 . S
O15 Tb0 2.353 . S
O15 C9 1.263 . S
C16 O17 1.275 . S
C16 O18 1.246 . S
O17 Tb0 2.427 . S
O17 C16 1.275 . S
O18 Tb0 2.513 . S
O18 C16 1.246 . S
C19 O3 1.245 . S
C19 O4 1.259 . S
Tb20 O23 2.453 . S
Tb20 O24 2.596 . S
Tb20 O25 2.374 . S
Tb20 O33 2.343 1_545 S
Tb20 O35 2.353 . S
Tb20 O37 2.427 1_545 S
Tb20 O38 2.513 1_545 S
C21 O25 1.251 . S
C21 O27 1.263 . S
Tb22 O24 2.343 . S
Tb22 O27 2.353 . S
Tb22 O30 2.427 . S
Tb22 O31 2.513 . S
Tb22 O32 2.453 1_545 S
Tb22 O33 2.596 1_545 S
Tb22 O34 2.374 . S
O23 Tb20 2.453 . S
O23 C39 1.245 . S
O24 Tb20 2.596 . S
O24 Tb22 2.343 . S
O24 C39 1.259 . S
O25 Tb20 2.374 . S
O25 C21 1.251 . S
C26 O30 1.275 . S
C26 O31 1.246 . S
O27 C21 1.263 . S
O27 Tb22 2.353 . S
C28 O32 1.245 . S
C28 O33 1.259 . S
C29 O34 1.250 . S
C29 O35 1.263 . S
O30 Tb22 2.427 . S
O30 C26 1.275 . S
O31 Tb22 2.513 . S
O31 C26 1.246 . S
O32 Tb22 2.453 1_565 S
O32 C28 1.245 . S
O33 Tb20 2.343 1_565 S
O33 Tb22 2.596 1_565 S
O33 C28 1.259 . S
O34 Tb22 2.374 . S
O34 C29 1.250 . S
O35 Tb20 2.353 . S
O35 C29 1.263 . S
C36 O37 1.275 . S
C36 O38 1.246 . S
O37 Tb20 2.427 1_565 S
O37 C36 1.275 . S
O38 Tb20 2.513 1_565 S
O38 C36 1.246 . S
C39 O23 1.245 . S
C39 O24 1.259 . S
Tb40 O43 2.453 . S
Tb40 O44 2.596 . S
Tb40 O45 2.374 . S
Tb40 O53 2.343 . S
Tb40 O55 2.353 . S
Tb40 O57 2.427 . S
Tb40 O58 2.513 . S
C41 O45 1.251 . S
C41 O47 1.263 . S
Tb42 O44 2.343 . S
Tb42 O47 2.353 . S
Tb42 O50 2.427 . S
Tb42 O51 2.513 . S
Tb42 O52 2.453 . S
Tb42 O53 2.596 . S
Tb42 O54 2.374 . S
O43 Tb40 2.453 . S
O43 C59 1.245 . S
O44 Tb40 2.596 . S
O44 Tb42 2.343 . S
O44 C59 1.259 . S
O45 Tb40 2.374 . S
O45 C41 1.251 . S
C46 O50 1.275 . S
C46 O51 1.246 . S
O47 C41 1.263 . S
O47 Tb42 2.353 . S
C48 O52 1.245 . S
C48 O53 1.259 . S
C49 O54 1.250 . S
C49 O55 1.263 . S
O50 Tb42 2.427 . S
O50 C46 1.275 . S
O51 Tb42 2.513 . S
O51 C46 1.246 . S
O52 Tb42 2.453 . S
O52 C48 1.245 . S
O53 Tb40 2.343 . S
O53 Tb42 2.596 . S
O53 C48 1.259 . S
O54 Tb42 2.374 . S
O54 C49 1.250 . S
O55 Tb40 2.353 . S
O55 C49 1.263 . S
C56 O57 1.275 . S
C56 O58 1.246 . S
O57 Tb40 2.427 . S
O57 C56 1.275 . S
O58 Tb40 2.513 . S
O58 C56 1.246 . S
C59 O43 1.245 . S
C59 O44 1.259 . S
H60 C63 0.929 1_565 S
H61 C66 0.929 . S
H62 C68 0.930 . S
C63 H60 0.929 1_545 S
C63 C64 1.398 . S
C63 C65 1.396 . S
C64 C63 1.398 . S
C64 C68 1.408 . S
C65 C63 1.396 . S
C65 C66 1.394 . S
C66 H61 0.929 . S
C66 C65 1.394 . S
C66 C67 1.382 . S
C67 C66 1.382 . S
C67 C68 1.392 . S
C67 N69 1.420 . S
C68 H62 0.930 . S
C68 C64 1.408 . S
C68 C67 1.392 . S
N69 C67 1.420 . S
N69 C70 1.244 . S
C70 N69 1.244 . S
H71 C74 0.929 . S
H72 C77 0.929 . S
H73 C79 0.930 . S
C74 H71 0.929 . S
C74 C75 1.398 . S
C74 C76 1.396 . S
C75 C74 1.398 . S
C75 C79 1.407 . S
C76 C74 1.396 . S
C76 C77 1.394 . S
C77 H72 0.929 . S
C77 C76 1.394 . S
C77 C78 1.382 . S
C78 C77 1.382 . S
C78 C79 1.392 . S
C78 N80 1.420 . S
C79 H73 0.930 . S
C79 C75 1.407 . S
C79 C78 1.392 . S
N80 C78 1.420 . S
N80 C81 1.244 . S
C81 N80 1.244 . S
H82 C85 0.929 1_655 S
H83 C88 0.929 . S
H84 C90 0.930 . S
C85 H82 0.929 1_455 S
C85 C86 1.398 . S
C85 C87 1.396 . S
C86 C85 1.398 . S
C86 C90 1.407 . S
C87 C85 1.396 . S
C87 C88 1.394 . S
C88 H83 0.929 . S
C88 C87 1.394 . S
C88 C89 1.382 . S
C89 C88 1.382 . S
C89 C90 1.392 . S
C89 N91 1.420 . S
C90 H84 0.930 . S
C90 C86 1.407 . S
C90 C89 1.392 . S
N91 C89 1.420 . S
N91 C92 1.244 . S
C92 N91 1.244 . S
H93 C96 0.929 . S
H94 C99 0.929 . S
H95 C101 0.930 . S
C96 H93 0.929 . S
C96 C97 1.398 . S
C96 C98 1.396 . S
C97 C96 1.398 . S
C97 C101 1.407 . S
C98 C96 1.396 . S
C98 C99 1.394 1_455 S
C99 H94 0.929 . S
C99 C98 1.394 1_655 S
C99 C100 1.382 . S
C100 C99 1.382 . S
C100 C101 1.392 1_655 S
C100 N102 1.420 . S
C101 H95 0.930 . S
C101 C97 1.407 . S
C101 C100 1.392 1_455 S
N102 C100 1.420 . S
N102 C103 1.244 . S
C103 N102 1.244 . S
H104 C107 0.929 . S
H105 C110 0.929 1_565 S
H106 C112 0.930 . S
C107 H104 0.929 . S
C107 C108 1.398 . S
C107 C109 1.396 . S
C108 C107 1.398 . S
C108 C112 1.407 . S
C109 C107 1.396 . S
C109 C110 1.394 . S
C110 H105 0.929 1_545 S
C110 C109 1.394 . S
C110 C111 1.382 . S
C111 C110 1.382 . S
C111 C112 1.392 . S
C111 N113 1.420 1_545 S
C112 H106 0.930 . S
C112 C108 1.407 . S
C112 C111 1.392 . S
N113 C111 1.420 1_565 S
N113 C114 1.244 . S
C114 N113 1.244 . S
H115 C118 0.929 . S
H116 C121 0.929 . S
H117 C123 0.930 . S
C118 H115 0.929 . S
C118 C119 1.398 . S
C118 C120 1.396 . S
C119 C118 1.398 . S
C119 C123 1.407 . S
C120 C118 1.396 . S
C120 C121 1.394 . S
C121 H116 0.929 . S
C121 C120 1.394 . S
C121 C122 1.382 . S
C122 C121 1.382 . S
C122 C123 1.392 . S
C122 N124 1.420 . S
C123 H117 0.930 . S
C123 C119 1.407 . S
C123 C122 1.392 . S
N124 C122 1.420 . S
N124 C125 1.244 . S
C125 N124 1.244 . S
H126 C132 0.930 . S
H127 C135 0.930 . S
H128 C136 0.930 . S
H129 C137 0.930 . S
H130 C140 0.930 . S
H131 C141 0.930 . S
C132 H126 0.930 . S
C132 C133 1.355 . S
C132 C134 1.415 . S
C133 C132 1.355 . S
C133 C135 1.419 . S
C134 C132 1.415 . S
C134 C139 1.425 . S
C134 C141 1.409 . S
C135 H127 0.930 . S
C135 C133 1.419 . S
C135 C136 1.362 . S
C136 H128 0.930 . S
C136 C135 1.362 . S
C136 C139 1.409 . S
C137 H129 0.930 . S
C137 C138 1.355 . S
C137 C139 1.415 . S
C138 C137 1.355 . S
C138 C140 1.419 . S
C139 C134 1.425 . S
C139 C136 1.409 . S
C139 C137 1.415 . S
C140 H130 0.930 . S
C140 C138 1.419 . S
C140 C141 1.362 . S
C141 H131 0.930 . S
C141 C134 1.409 . S
C141 C140 1.362 . S
H142 C148 0.930 . S
H143 C151 0.930 . S
H144 C152 0.930 . S
H145 C153 0.930 . S
H146 C156 0.930 . S
H147 C157 0.930 . S
C148 H142 0.930 . S
C148 C149 1.355 . S
C148 C150 1.415 . S
C149 C148 1.355 . S
C149 C151 1.419 . S
C150 C148 1.415 . S
C150 C155 1.425 . S
C150 C157 1.409 . S
C151 H143 0.930 . S
C151 C149 1.419 . S
C151 C152 1.362 . S
C152 H144 0.930 . S
C152 C151 1.362 . S
C152 C155 1.409 . S
C153 H145 0.930 . S
C153 C154 1.355 . S
C153 C155 1.415 . S
C154 C153 1.355 . S
C154 C156 1.419 . S
C155 C150 1.425 . S
C155 C152 1.409 . S
C155 C153 1.415 . S
C156 H146 0.930 . S
C156 C154 1.419 . S
C156 C157 1.362 . S
C157 H147 0.930 . S
C157 C150 1.409 . S
C157 C156 1.362 . S
H158 C164 0.930 . S
H159 C167 0.930 . S
H160 C168 0.930 . S
H161 C169 0.930 . S
H162 C172 0.930 . S
H163 C173 0.930 . S
C164 H158 0.930 . S
C164 C165 1.355 . S
C164 C166 1.415 . S
C165 C164 1.355 . S
C165 C167 1.419 . S
C166 C164 1.415 . S
C166 C171 1.425 . S
C166 C173 1.409 . S
C167 H159 0.930 . S
C167 C165 1.419 . S
C167 C168 1.362 . S
C168 H160 0.930 . S
C168 C167 1.362 . S
C168 C171 1.409 . S
C169 H161 0.930 . S
C169 C170 1.355 . S
C169 C171 1.415 . S
C170 C169 1.355 . S
C170 C172 1.419 . S
C171 C166 1.425 . S
C171 C168 1.409 . S
C171 C169 1.415 . S
C172 H162 0.930 . S
C172 C170 1.419 . S
C172 C173 1.362 . S
C173 H163 0.930 . S
C173 C166 1.409 . S
C173 C172 1.362 . S
H174 C180 0.930 . S
H175 C183 0.930 . S
H176 C184 0.930 . S
H177 C185 0.930 . S
H178 C188 0.930 . S
H179 C189 0.930 . S
C180 H174 0.930 . S
C180 C181 1.355 . S
C180 C182 1.415 . S
C181 C180 1.355 . S
C181 C183 1.419 . S
C182 C180 1.415 . S
C182 C187 1.425 . S
C182 C189 1.409 . S
C183 H175 0.930 . S
C183 C181 1.419 . S
C183 C184 1.362 . S
C184 H176 0.930 . S
C184 C183 1.362 . S
C184 C187 1.409 . S
C185 H177 0.930 . S
C185 C186 1.355 . S
C185 C187 1.415 . S
C186 C185 1.355 . S
C186 C188 1.419 . S
C187 C182 1.425 . S
C187 C184 1.409 . S
C187 C185 1.415 . S
C188 H178 0.930 . S
C188 C186 1.419 . S
C188 C189 1.362 . S
C189 H179 0.930 . S
C189 C182 1.409 . S
C189 C188 1.362 . S
H190 C196 0.930 . S
H191 C199 0.930 . S
H192 C200 0.930 . S
H193 C201 0.930 . S
H194 C204 0.930 . S
H195 C205 0.930 . S
C196 H190 0.930 . S
C196 C197 1.355 . S
C196 C198 1.415 . S
C197 C196 1.355 . S
C197 C199 1.419 . S
C198 C196 1.415 . S
C198 C203 1.425 . S
C198 C205 1.409 . S
C199 H191 0.930 . S
C199 C197 1.419 . S
C199 C200 1.362 . S
C200 H192 0.930 . S
C200 C199 1.362 . S
C200 C203 1.409 . S
C201 H193 0.930 . S
C201 C202 1.355 . S
C201 C203 1.415 . S
C202 C201 1.355 . S
C202 C204 1.419 . S
C203 C198 1.425 . S
C203 C200 1.409 . S
C203 C201 1.415 . S
C204 H194 0.930 . S
C204 C202 1.419 . S
C204 C205 1.362 . S
C205 H195 0.930 . S
C205 C198 1.409 . S
C205 C204 1.362 . S
H206 C212 0.930 . S
H207 C215 0.930 . S
H208 C216 0.930 . S
H209 C217 0.930 . S
H210 C220 0.930 . S
H211 C221 0.930 . S
C212 H206 0.930 . S
C212 C213 1.355 . S
C212 C214 1.415 . S
C213 C212 1.355 . S
C213 C215 1.419 . S
C214 C212 1.415 . S
C214 C219 1.425 . S
C214 C221 1.409 . S
C215 H207 0.930 . S
C215 C213 1.419 . S
C215 C216 1.362 . S
C216 H208 0.930 . S
C216 C215 1.362 . S
C216 C219 1.409 . S
C217 H209 0.930 . S
C217 C218 1.355 . S
C217 C219 1.415 . S
C218 C217 1.355 . S
C218 C220 1.419 . S
C219 C214 1.425 . S
C219 C216 1.409 . S
C219 C217 1.415 . S
C220 H210 0.930 . S
C220 C218 1.419 . S
C220 C221 1.362 . S
C221 H211 0.930 . S
C221 C214 1.409 . S
C221 C220 1.362 . S
H222 C228 0.930 . S
H223 C231 0.930 . S
H224 C232 0.930 . S
H225 C233 0.930 . S
H226 C236 0.930 . S
H227 C237 0.930 . S
C228 H222 0.930 . S
C228 C229 1.355 . S
C228 C230 1.415 . S
C229 C228 1.355 . S
C229 C231 1.419 . S
C230 C228 1.415 . S
C230 C235 1.425 . S
C230 C237 1.409 . S
C231 H223 0.930 . S
C231 C229 1.419 . S
C231 C232 1.362 . S
C232 H224 0.930 . S
C232 C231 1.362 . S
C232 C235 1.409 . S
C233 H225 0.930 . S
C233 C234 1.355 . S
C233 C235 1.415 . S
C234 C233 1.355 . S
C234 C236 1.419 . S
C235 C230 1.425 . S
C235 C232 1.409 . S
C235 C233 1.415 . S
C236 H226 0.930 . S
C236 C234 1.419 . S
C236 C237 1.362 . S
C237 H227 0.930 . S
C237 C230 1.409 . S
C237 C236 1.362 . S
H238 C244 0.930 . S
H239 C247 0.930 . S
H240 C248 0.930 . S
H241 C249 0.930 . S
H242 C252 0.930 . S
H243 C253 0.930 . S
C244 H238 0.930 . S
C244 C245 1.355 . S
C244 C246 1.415 . S
C245 C244 1.355 . S
C245 C247 1.419 . S
C246 C244 1.415 . S
C246 C251 1.425 . S
C246 C253 1.409 . S
C247 H239 0.930 . S
C247 C245 1.419 . S
C247 C248 1.362 . S
C248 H240 0.930 . S
C248 C247 1.362 . S
C248 C251 1.409 . S
C249 H241 0.930 . S
C249 C250 1.355 . S
C249 C251 1.415 . S
C250 C249 1.355 . S
C250 C252 1.419 . S
C251 C246 1.425 . S
C251 C248 1.409 . S
C251 C249 1.415 . S
C252 H242 0.930 . S
C252 C250 1.419 . S
C252 C253 1.362 . S
C253 H243 0.930 . S
C253 C246 1.409 . S
C253 C252 1.362 . S
H254 C260 0.930 . S
H255 C263 0.930 . S
H256 C264 0.930 . S
H257 C265 0.930 . S
H258 C268 0.930 . S
H259 C269 0.930 . S
C260 H254 0.930 . S
C260 C261 1.355 . S
C260 C262 1.415 . S
C261 C260 1.355 . S
C261 C263 1.419 . S
C262 C260 1.415 . S
C262 C267 1.425 . S
C262 C269 1.409 . S
C263 H255 0.930 . S
C263 C261 1.419 . S
C263 C264 1.362 . S
C264 H256 0.930 . S
C264 C263 1.362 . S
C264 C267 1.409 . S
C265 H257 0.930 . S
C265 C266 1.355 . S
C265 C267 1.415 . S
C266 C265 1.355 . S
C266 C268 1.419 . S
C267 C262 1.425 . S
C267 C264 1.409 . S
C267 C265 1.415 . S
C268 H258 0.930 . S
C268 C266 1.419 . S
C268 C269 1.362 . S
C269 H259 0.930 . S
C269 C262 1.409 . S
C269 C268 1.362 . S
H270 C276 0.930 . S
H271 C279 0.930 . S
H272 C280 0.930 . S
H273 C281 0.930 . S
H274 C284 0.930 . S
H275 C285 0.930 . S
C276 H270 0.930 . S
C276 C277 1.355 . S
C276 C278 1.415 . S
C277 C276 1.355 . S
C277 C279 1.419 . S
C278 C276 1.415 . S
C278 C283 1.425 . S
C278 C285 1.409 . S
C279 H271 0.930 . S
C279 C277 1.419 . S
C279 C280 1.362 . S
C280 H272 0.930 . S
C280 C279 1.362 . S
C280 C283 1.409 . S
C281 H273 0.930 . S
C281 C282 1.355 . S
C281 C283 1.415 . S
C282 C281 1.355 . S
C282 C284 1.419 . S
C283 C278 1.425 . S
C283 C280 1.409 . S
C283 C281 1.415 . S
C284 H274 0.930 . S
C284 C282 1.419 . S
C284 C285 1.362 . S
C285 H275 0.930 . S
C285 C278 1.409 . S
C285 C284 1.362 . S
H286 C292 0.930 . S
H287 C295 0.930 . S
H288 C296 0.930 . S
H289 C297 0.930 . S
H290 C300 0.930 . S
H291 C301 0.930 . S
C292 H286 0.930 . S
C292 C293 1.355 . S
C292 C294 1.415 . S
C293 C292 1.355 . S
C293 C295 1.419 . S
C294 C292 1.415 . S
C294 C299 1.425 . S
C294 C301 1.409 . S
C295 H287 0.930 . S
C295 C293 1.419 . S
C295 C296 1.362 . S
C296 H288 0.930 . S
C296 C295 1.362 . S
C296 C299 1.409 . S
C297 H289 0.930 . S
C297 C298 1.355 . S
C297 C299 1.415 . S
C298 C297 1.355 . S
C298 C300 1.419 . S
C299 C294 1.425 . S
C299 C296 1.409 . S
C299 C297 1.415 . S
C300 H290 0.930 . S
C300 C298 1.419 . S
C300 C301 1.362 . S
C301 H291 0.930 . S
C301 C294 1.409 . S
C301 C300 1.362 . S
H302 C308 0.930 . S
H303 C311 0.930 . S
H304 C312 0.930 . S
H305 C313 0.930 . S
H306 C316 0.930 . S
H307 C317 0.930 . S
C308 H302 0.930 . S
C308 C309 1.355 . S
C308 C310 1.415 . S
C309 C308 1.355 . S
C309 C311 1.419 . S
C310 C308 1.415 . S
C310 C315 1.425 . S
C310 C317 1.409 . S
C311 H303 0.930 . S
C311 C309 1.419 . S
C311 C312 1.362 . S
C312 H304 0.930 . S
C312 C311 1.362 . S
C312 C315 1.409 . S
C313 H305 0.930 . S
C313 C314 1.355 . S
C313 C315 1.415 . S
C314 C313 1.355 . S
C314 C316 1.419 . S
C315 C310 1.425 . S
C315 C312 1.409 . S
C315 C313 1.415 . S
C316 H306 0.930 . S
C316 C314 1.419 . S
C316 C317 1.362 . S
C317 H307 0.930 . S
C317 C310 1.409 . S
C317 C316 1.362 . S
H318 C324 0.930 . S
H319 C327 0.930 . S
H320 C328 0.930 . S
H321 C329 0.930 . S
H322 C332 0.930 . S
H323 C333 0.930 . S
C324 H318 0.930 . S
C324 C325 1.355 . S
C324 C326 1.415 . S
C325 C324 1.355 . S
C325 C327 1.419 . S
C326 C324 1.415 . S
C326 C331 1.425 . S
C326 C333 1.409 1_554 S
C327 H319 0.930 . S
C327 C325 1.419 . S
C327 C328 1.362 . S
C328 H320 0.930 . S
C328 C327 1.362 . S
C328 C331 1.409 . S
C329 H321 0.930 . S
C329 C330 1.355 . S
C329 C331 1.415 1_556 S
C330 C329 1.355 . S
C330 C332 1.419 . S
C331 C326 1.425 . S
C331 C328 1.409 . S
C331 C329 1.415 1_554 S
C332 H322 0.930 . S
C332 C330 1.419 . S
C332 C333 1.362 . S
C333 H323 0.930 . S
C333 C326 1.409 1_556 S
C333 C332 1.362 . S
H334 C340 0.930 . S
H335 C343 0.930 . S
H336 C344 0.930 . S
H337 C345 0.930 . S
H338 C348 0.930 . S
H339 C349 0.930 . S
C340 H334 0.930 . S
C340 C341 1.355 . S
C340 C342 1.415 . S
C341 C340 1.355 . S
C341 C343 1.419 . S
C342 C340 1.415 . S
C342 C347 1.425 . S
C342 C349 1.409 . S
C343 H335 0.930 . S
C343 C341 1.419 . S
C343 C344 1.362 . S
C344 H336 0.930 . S
C344 C343 1.362 . S
C344 C347 1.409 . S
C345 H337 0.930 . S
C345 C346 1.355 . S
C345 C347 1.415 . S
C346 C345 1.355 . S
C346 C348 1.419 . S
C347 C342 1.425 . S
C347 C344 1.409 . S
C347 C345 1.415 . S
C348 H338 0.930 . S
C348 C346 1.419 . S
C348 C349 1.362 . S
C349 H339 0.930 . S
C349 C342 1.409 . S
C349 C348 1.362 . S
H350 C356 0.930 . S
H351 C359 0.930 . S
H352 C360 0.930 . S
H353 C361 0.930 . S
H354 C364 0.930 . S
H355 C365 0.930 . S
C356 H350 0.930 . S
C356 C357 1.355 . S
C356 C358 1.415 . S
C357 C356 1.355 . S
C357 C359 1.419 . S
C358 C356 1.415 . S
C358 C363 1.425 . S
C358 C365 1.409 . S
C359 H351 0.930 . S
C359 C357 1.419 . S
C359 C360 1.362 . S
C360 H352 0.930 . S
C360 C359 1.362 . S
C360 C363 1.409 . S
C361 H353 0.930 . S
C361 C362 1.355 . S
C361 C363 1.415 . S
C362 C361 1.355 . S
C362 C364 1.419 . S
C363 C358 1.425 . S
C363 C360 1.409 . S
C363 C361 1.415 . S
C364 H354 0.930 . S
C364 C362 1.419 . S
C364 C365 1.362 . S
C365 H355 0.930 . S
C365 C358 1.409 . S
C365 C364 1.362 . S
H366 C372 0.930 . S
H367 C375 0.930 . S
H368 C376 0.930 . S
H369 C377 0.930 . S
H370 C380 0.930 1_565 S
H371 C381 0.930 1_565 S
C372 H366 0.930 . S
C372 C373 1.355 . S
C372 C374 1.415 . S
C373 C372 1.355 . S
C373 C375 1.419 . S
C374 C372 1.415 . S
C374 C379 1.425 . S
C374 C381 1.409 . S
C375 H367 0.930 . S
C375 C373 1.419 . S
C375 C376 1.362 . S
C376 H368 0.930 . S
C376 C375 1.362 . S
C376 C379 1.409 . S
C377 H369 0.930 . S
C377 C378 1.355 . S
C377 C379 1.415 . S
C378 C377 1.355 . S
C378 C380 1.419 . S
C379 C374 1.425 . S
C379 C376 1.409 . S
C379 C377 1.415 . S
C380 H370 0.930 1_545 S
C380 C378 1.419 . S
C380 C381 1.362 . S
C381 H371 0.930 1_545 S
C381 C374 1.409 . S
C381 C380 1.362 . S
H382 C388 0.930 . S
H383 C391 0.930 . S
H384 C392 0.930 . S
H385 C393 0.930 . S
H386 C396 0.930 . S
H387 C397 0.930 1_556 S
C388 H382 0.930 . S
C388 C389 1.355 . S
C388 C390 1.415 . S
C389 C388 1.355 . S
C389 C391 1.419 . S
C390 C388 1.415 . S
C390 C395 1.425 . S
C390 C397 1.409 1_556 S
C391 H383 0.930 . S
C391 C389 1.419 . S
C391 C392 1.362 . S
C392 H384 0.930 . S
C392 C391 1.362 . S
C392 C395 1.409 . S
C393 H385 0.930 . S
C393 C394 1.355 . S
C393 C395 1.415 1_554 S
C394 C393 1.355 . S
C394 C396 1.419 . S
C395 C390 1.425 . S
C395 C392 1.409 . S
C395 C393 1.415 1_556 S
C396 H386 0.930 . S
C396 C394 1.419 . S
C396 C397 1.362 . S
C397 H387 0.930 1_554 S
C397 C390 1.409 1_554 S
C397 C396 1.362 . S
H398 C404 0.930 . S
H399 C407 0.930 . S
H400 C408 0.930 . S
H401 C409 0.930 . S
H402 C412 0.930 . S
H403 C413 0.930 . S
C404 H398 0.930 . S
C404 C405 1.355 1_655 S
C404 C406 1.415 . S
C405 C404 1.355 1_455 S
C405 C407 1.419 . S
C406 C404 1.415 . S
C406 C411 1.425 1_655 S
C406 C413 1.409 . S
C407 H399 0.930 . S
C407 C405 1.419 . S
C407 C408 1.362 . S
C408 H400 0.930 . S
C408 C407 1.362 . S
C408 C411 1.409 . S
C409 H401 0.930 . S
C409 C410 1.355 . S
C409 C411 1.415 . S
C410 C409 1.355 . S
C410 C412 1.419 1_455 S
C411 C406 1.425 1_455 S
C411 C408 1.409 . S
C411 C409 1.415 . S
C412 H402 0.930 . S
C412 C410 1.419 1_655 S
C412 C413 1.362 . S
C413 H403 0.930 . S
C413 C406 1.409 . S
C413 C412 1.362 . S
C133 C8 2.010 . S
C138 C125 2.022 . S
C149 C26 1.367 . S
C154 C103 1.403 . S
C165 C48 1.521 . S
C170 C114 1.585 . S
C181 C19 1.764 . S
C186 C119 1.773 . S
C202 C97 1.365 . S
C197 C36 1.319 . S
C218 C108 1.597 . S
C213 C59 1.497 . S
C229 C28 1.550 . S
C234 C81 1.620 . S
C245 C46 1.088 . S
C250 C86 1.137 1_655 S
C261 C16 1.363 . S
C266 C64 1.320 1_565 S
C282 C75 1.523 . S
C277 C39 1.543 . S
C298 C92 1.107 . S
C293 C56 1.110 . S
C309 C6 1.399 . S
C314 C70 1.422 . S
C330 C87 1.441 . S
C325 C9 1.449 . S
C341 C21 1.534 . S
C346 C65 1.538 . S
C357 C49 1.511 . S
C362 C76 1.491 . S
C378 C109 1.500 . S
C373 C29 1.495 . S
C394 C120 1.591 . S
C389 C41 1.541 . S
C405 C1 1.477 . S
C410 C98 1.519 . S
