# Generated by pormake.
# Topology zzz, (3,6)-cn, num edge types: 1
# Building blocks:
#     Node 0, Type 0, BuildingBlock: KAKCAD_clean_linker_0, # of connection points: 3
#     Node 1, Type 0, BuildingBlock: KAKCAD_clean_linker_0, # of connection points: 3
#     Node 2, Type 0, BuildingBlock: KAKCAD_clean_linker_0, # of connection points: 3
#     Node 3, Type 0, BuildingBlock: KAKCAD_clean_linker_0, # of connection points: 3
#     Node 4, Type 0, BuildingBlock: KAKCAD_clean_linker_0, # of connection points: 3
#     Node 5, Type 0, BuildingBlock: KAKCAD_clean_linker_0, # of connection points: 3
#     Node 6, Type 0, BuildingBlock: KAKCAD_clean_linker_0, # of connection points: 3
#     Node 7, Type 0, BuildingBlock: KAKCAD_clean_linker_0, # of connection points: 3
#     Node 8, Type 1, BuildingBlock: CUWYAW_clean_sbu_0, # of connection points: 6
#     Node 9, Type 1, BuildingBlock: CUWYAW_clean_sbu_0, # of connection points: 6
#     Node 10, Type 1, BuildingBlock: CUWYAW_clean_sbu_0, # of connection points: 6
#     Node 11, Type 1, BuildingBlock: CUWYAW_clean_sbu_0, # of connection points: 6
#     Edge 12, Type (0, 1), BuildingBlock: XUDNAN_clean_linker_2, # of connection points: 2
#     Edge 13, Type (0, 1), BuildingBlock: XUDNAN_clean_linker_2, # of connection points: 2
#     Edge 14, Type (0, 1), BuildingBlock: XUDNAN_clean_linker_2, # of connection points: 2
#     Edge 15, Type (0, 1), BuildingBlock: XUDNAN_clean_linker_2, # of connection points: 2
#     Edge 16, Type (0, 1), BuildingBlock: XUDNAN_clean_linker_2, # of connection points: 2
#     Edge 17, Type (0, 1), BuildingBlock: XUDNAN_clean_linker_2, # of connection points: 2
#     Edge 18, Type (0, 1), BuildingBlock: XUDNAN_clean_linker_2, # of connection points: 2
#     Edge 19, Type (0, 1), BuildingBlock: XUDNAN_clean_linker_2, # of connection points: 2
#     Edge 20, Type (0, 1), BuildingBlock: XUDNAN_clean_linker_2, # of connection points: 2
#     Edge 21, Type (0, 1), BuildingBlock: XUDNAN_clean_linker_2, # of connection points: 2
#     Edge 22, Type (0, 1), BuildingBlock: XUDNAN_clean_linker_2, # of connection points: 2
#     Edge 23, Type (0, 1), BuildingBlock: XUDNAN_clean_linker_2, # of connection points: 2
#     Edge 24, Type (0, 1), BuildingBlock: XUDNAN_clean_linker_2, # of connection points: 2
#     Edge 25, Type (0, 1), BuildingBlock: XUDNAN_clean_linker_2, # of connection points: 2
#     Edge 26, Type (0, 1), BuildingBlock: XUDNAN_clean_linker_2, # of connection points: 2
#     Edge 27, Type (0, 1), BuildingBlock: XUDNAN_clean_linker_2, # of connection points: 2
#     Edge 28, Type (0, 1), BuildingBlock: XUDNAN_clean_linker_2, # of connection points: 2
#     Edge 29, Type (0, 1), BuildingBlock: XUDNAN_clean_linker_2, # of connection points: 2
#     Edge 30, Type (0, 1), BuildingBlock: XUDNAN_clean_linker_2, # of connection points: 2
#     Edge 31, Type (0, 1), BuildingBlock: XUDNAN_clean_linker_2, # of connection points: 2
#     Edge 32, Type (0, 1), BuildingBlock: XUDNAN_clean_linker_2, # of connection points: 2
#     Edge 33, Type (0, 1), BuildingBlock: XUDNAN_clean_linker_2, # of connection points: 2
#     Edge 34, Type (0, 1), BuildingBlock: XUDNAN_clean_linker_2, # of connection points: 2
#     Edge 35, Type (0, 1), BuildingBlock: XUDNAN_clean_linker_2, # of connection points: 2
# Relax obj value: 0.425
# Max RMSD: 0.250
# Mean RMSD: 0.230
data_MOF--net-zzz--node1-CUWYAW_clean_sbu_0--node2-KAKCAD_clean_linker_0--edge1-XUDNAN_clean_linker_2
_symmetry_space_group_name_H-M    P1
_symmetry_Int_Tables_number       1
_symmetry_cell_setting            triclinic
loop_
_symmetry_equiv_pos_as_xyz
'x, y, z'
_cell_length_a     58.509059
_cell_length_b     58.666575
_cell_length_c     19.087542
_cell_angle_alpha  89.833988
_cell_angle_beta   90.030581
_cell_angle_gamma 90.000298
loop_
_atom_site_label
_atom_site_type_symbol
_atom_site_fract_x
_atom_site_fract_y
_atom_site_fract_z
_atom_type_partial_charge
C0 C 0.75294 0.49022 0.97842 0.0
C1 C 0.77028 0.47364 0.97821 0.0
C2 C 0.74507 0.4993 0.04168 0.0
C3 C 0.75429 0.49189 0.10601 0.0
C4 C 0.77143 0.47517 0.10559 0.0
C5 C 0.77946 0.46635 0.0427 0.0
C6 C 0.74555 0.50069 0.17381 0.0
C7 C 0.72218 0.50415 0.18319 0.0
C8 C 0.71326 0.51038 0.24842 0.0
C9 C 0.72814 0.51304 0.30635 0.0
C10 C 0.75198 0.50943 0.2979 0.0
C11 C 0.76031 0.50401 0.23073 0.0
C12 C 0.76875 0.5102 0.35741 0.0
C13 C 0.76837 0.52755 0.40824 0.0
C14 C 0.78678 0.49425 0.35978 0.0
C15 C 0.80465 0.49641 0.4079 0.0
C16 C 0.80487 0.51427 0.45654 0.0
C17 C 0.68803 0.51247 0.252 0.0
C18 C 0.67779 0.53341 0.23451 0.0
C19 C 0.67499 0.49245 0.24604 0.0
C20 C 0.65319 0.49302 0.21583 0.0
C21 C 0.64383 0.51368 0.19193 0.0
C22 C 0.65576 0.53403 0.20521 0.0
C23 C 0.78621 0.52948 0.45758 0.0
H24 H 0.74556 0.49627 0.92977 0.0
H25 H 0.73193 0.51229 0.04011 0.0
H26 H 0.77864 0.46873 0.15402 0.0
H27 H 0.79333 0.45415 0.04495 0.0
H28 H 0.71055 0.5012 0.13985 0.0
H29 H 0.77854 0.50212 0.22267 0.0
H30 H 0.7212 0.51713 0.35738 0.0
H31 H 0.75482 0.54012 0.40812 0.0
H32 H 0.78739 0.48021 0.32309 0.0
H33 H 0.81843 0.48408 0.40682 0.0
H34 H 0.68769 0.549 0.23662 0.0
H35 H 0.68267 0.47604 0.25742 0.0
H36 H 0.78585 0.54337 0.49483 0.0
H37 H 0.64902 0.55018 0.18687 0.0
H38 H 0.64434 0.4771 0.2064 0.0
C39 C 0.07837 0.7671 0.04879 0.0
C40 C 0.08965 0.78779 0.06285 0.0
C41 C 0.06592 0.75593 0.10103 0.0
C42 C 0.06532 0.76448 0.16989 0.0
C43 C 0.07901 0.78347 0.18578 0.0
C44 C 0.09056 0.79523 0.13299 0.0
C45 C 0.04893 0.75512 0.22279 0.0
C46 C 0.04192 0.73229 0.22051 0.0
C47 C 0.02437 0.72397 0.26409 0.0
C48 C 1.01443 0.73886 0.31394 0.0
C49 C 0.02173 0.76181 0.31831 0.0
C50 C 0.03872 0.76959 0.27211 0.0
C51 C 1.01222 0.77851 0.36974 0.0
C52 C 1.00625 0.80056 0.34693 0.0
C53 C 1.01293 0.7742 0.44212 0.0
C54 C 1.00952 0.792 0.49033 0.0
C55 C 1.00543 0.81456 0.46729 0.0
C56 C 0.01543 0.70051 0.24976 0.0
C57 C 0.99189 0.69666 0.24131 0.0
C58 C 0.03062 0.68294 0.23076 0.0
C59 C 0.02281 0.66344 0.19612 0.0
C60 C 0.99944 0.66053 0.18103 0.0
C61 C 0.98399 0.67683 0.20801 0.0
C62 C 1.00306 0.81831 0.39475 0.0
H63 H 0.07801 0.76003 0.99652 0.0
H64 H 0.05579 0.74135 0.08577 0.0
H65 H 0.07999 0.79006 0.2386 0.0
H66 H 0.09889 0.81096 0.14749 0.0
H67 H 0.04956 0.72105 0.18232 0.0
H68 H 0.04364 0.78736 0.27404 0.0
H69 H 1.0009 0.7328 0.34794 0.0
H70 H 1.0054 0.80444 0.29145 0.0
H71 H 0.01753 0.75744 0.46143 0.0
H72 H 1.01088 0.78816 0.54567 0.0
H73 H 0.97965 0.70967 0.25566 0.0
H74 H 0.04886 0.68504 0.23802 0.0
H75 H 1.00012 0.83525 0.37409 0.0
H76 H 0.96577 0.67493 0.20044 0.0
H77 H 0.03546 0.65153 0.17704 0.0
C78 C 0.73904 0.10376 0.1184 0.0
C79 C 0.72186 0.11586 0.15411 0.0
C80 C 0.75296 0.08828 0.1541 0.0
C81 C 0.75075 0.08524 0.22697 0.0
C82 C 0.73617 0.10005 0.26377 0.0
C83 C 0.72162 0.11487 0.2278 0.0
C84 C 0.76103 0.06495 0.2625 0.0
C85 C 0.78123 0.05496 0.23771 0.0
C86 C 0.78904 0.03389 0.26386 0.0
C87 C 0.77695 0.02323 0.31916 0.0
C88 C 0.75699 0.03351 0.34614 0.0
C89 C 0.74918 0.05401 0.31696 0.0
C90 C 0.7429 0.02336 0.40293 0.0
C91 C 0.7267 1.00643 0.38748 0.0
C92 C 0.74137 0.03481 0.46724 0.0
C93 C 0.72339 0.03031 0.51364 0.0
C94 C 0.7063 0.01432 0.49677 0.0
C95 C 0.80934 0.02337 0.2296 0.0
C96 C 0.81022 0.02225 0.15605 0.0
C97 C 0.82891 0.01728 0.268 0.0
C98 C 0.84933 1.01163 0.23321 0.0
C99 C 0.85055 1.01185 0.15931 0.0
C100 C 0.83047 0.01664 0.12145 0.0
C101 C 0.70861 1.00192 0.43395 0.0
H102 H 0.74057 0.10483 0.06197 0.0
H103 H 0.76412 0.07754 0.12331 0.0
H104 H 0.73478 0.09914 0.32026 0.0
H105 H 0.70896 0.124 0.25799 0.0
H106 H 0.79092 0.06341 0.19686 0.0
H107 H 0.73308 0.06087 0.33547 0.0
H108 H 0.78273 1.00703 0.33999 0.0
H109 H 0.72716 0.99778 0.33744 0.0
H110 H 0.75326 0.04839 0.47947 0.0
H111 H 0.72216 0.04048 0.56071 0.0
H112 H 0.79537 0.02675 0.12498 0.0
H113 H 0.82876 0.01806 0.32469 0.0
H114 H 0.696 0.98928 0.41947 0.0
H115 H 0.8306 0.01728 0.06476 0.0
H116 H 0.86431 1.00768 0.26425 0.0
C117 C 0.51236 0.72982 0.47969 0.0
C118 C 0.51795 0.70735 0.45948 0.0
C119 C 0.51039 0.74735 0.42958 0.0
C120 C 0.51405 0.74282 0.35824 0.0
C121 C 0.52141 0.72089 0.33897 0.0
C122 C 0.52315 0.70342 0.38853 0.0
C123 C 0.50672 0.75922 0.30269 0.0
C124 C 0.51304 0.78251 0.30227 0.0
C125 C 0.50519 0.79702 0.24804 0.0
C126 C 0.49096 0.78829 0.19542 0.0
C127 C 0.485 0.76529 0.19488 0.0
C128 C 0.49272 0.75097 0.24854 0.0
C129 C 0.47183 0.75567 0.13613 0.0
C130 C 0.44993 0.76385 0.11946 0.0
C131 C 0.48097 0.7374 0.09831 0.0
C132 C 0.46815 0.72685 0.0463 0.0
C133 C 0.44579 0.73422 0.03147 0.0
C134 C 0.51246 0.82105 0.24053 0.0
C135 C 0.49626 0.83844 0.24951 0.0
C136 C 0.53298 0.82605 0.20565 0.0
C137 C 0.5365 0.84763 0.17581 0.0
C138 C 0.51957 0.86462 0.18044 0.0
C139 C 0.49984 0.86005 0.22024 0.0
C140 C 0.43685 0.753 0.06788 0.0
H141 H 0.50875 0.73377 0.53393 0.0
H142 H 0.50469 0.76406 0.44612 0.0
H143 H 0.5246 0.71688 0.28446 0.0
H144 H 0.52729 0.68651 0.36996 0.0
H145 H 0.52416 0.78915 0.34275 0.0
H146 H 0.48754 0.73321 0.24823 0.0
H147 H 0.48529 0.79926 0.15297 0.0
H148 H 0.44262 0.77797 0.14823 0.0
H149 H 0.4979 0.73095 0.11014 0.0
H150 H 0.47535 0.71214 0.02018 0.0
H151 H 0.48005 0.83478 0.27458 0.0
H152 H 0.54547 0.81275 0.19663 0.0
H153 H 0.41962 0.75888 0.05766 0.0
H154 H 0.48633 0.87259 0.22433 0.0
H155 H 0.552 0.85066 0.14618 0.0
C156 C 0.25667 0.46917 0.39273 0.0
C157 C 0.23747 0.45482 0.39012 0.0
C158 C 0.26829 0.47496 0.33139 0.0
C159 C 0.26111 0.46625 0.26642 0.0
C160 C 0.2433 0.45026 0.26481 0.0
C161 C 0.23153 0.44468 0.3259 0.0
C162 C 0.27109 0.47501 0.2003 0.0
C163 C 0.29446 0.47938 0.19567 0.0
C164 C 0.30408 0.48891 0.13511 0.0
C165 C 0.28984 0.494 0.07697 0.0
C166 C 0.26612 0.48918 0.08075 0.0
C167 C 0.25708 0.47994 0.14268 0.0
C168 C 0.24974 0.49255 0.02188 0.0
C169 C 0.2363 0.51243 0.01889 0.0
C170 C 0.24237 0.47329 0.98455 0.0
C171 C 0.22117 0.47322 0.95027 0.0
C172 C 0.20684 0.49247 0.95204 0.0
C173 C 0.32905 0.49336 0.13808 0.0
C174 C 0.33689 0.51521 0.15618 0.0
C175 C 0.34379 0.47468 0.14797 0.0
C176 C 0.36483 0.4774 0.1819 0.0
C177 C 0.37178 0.49892 0.20594 0.0
C178 C 0.35817 0.518 0.18938 0.0
C179 C 0.21512 0.51246 0.98374 0.0
H180 H 0.26186 0.47703 0.4415 0.0
H181 H 0.282 0.48732 0.33451 0.0
H182 H 0.23776 0.44281 0.21579 0.0
H183 H 0.21671 0.43372 0.32147 0.0
H184 H 0.3054 0.47542 0.24 0.0
H185 H 0.23883 0.47685 0.14607 0.0
H186 H 0.29708 0.50125 0.02969 0.0
H187 H 0.24118 0.52728 0.04901 0.0
H188 H 0.25202 0.45754 0.98757 0.0
H189 H 0.21521 0.45753 0.92668 0.0
H190 H 0.32567 0.5298 0.15099 0.0
H191 H 0.33799 0.45759 0.1359 0.0
H192 H 0.20435 0.52744 0.98686 0.0
H193 H 0.36304 0.5348 0.20736 0.0
H194 H 0.37505 0.46242 0.1931 0.0
C195 C 0.0838 0.22061 0.35519 0.0
C196 C 0.10041 0.20657 0.32363 0.0
C197 C 0.07707 0.24091 0.3233 0.0
C198 C 0.08657 0.24738 0.25894 0.0
C199 C 0.10539 0.23527 0.23274 0.0
C200 C 0.11251 0.21517 0.26554 0.0
C201 C 0.07307 0.26228 0.21226 0.0
C202 C 0.06517 0.28347 0.23478 0.0
C203 C 0.04866 0.29563 0.1961 0.0
C204 C 0.03935 0.28555 0.13468 0.0
C205 C 0.04769 0.26422 0.11089 0.0
C206 C 0.06466 0.25311 0.15 0.0
C207 C 0.03845 0.25164 0.04902 0.0
C208 C 0.01539 0.24489 0.04617 0.0
C209 C 0.05396 0.24155 1.00188 0.0
C210 C 0.04717 0.2237 0.95814 0.0
C211 C 0.02456 0.21579 0.95894 0.0
C212 C 0.04119 0.31823 0.22407 0.0
C213 C 0.01796 0.32355 0.23365 0.0
C214 C 0.05769 0.33341 0.2507 0.0
C215 C 0.05129 0.35247 0.28988 0.0
C216 C 0.02816 0.35716 0.30298 0.0
C217 C 1.01151 0.34286 0.27257 0.0
C218 C 1.00847 0.22718 1.00109 0.0
H219 H 0.07394 0.21487 0.39981 0.0
H220 H 0.0625 0.24998 0.34449 0.0
H221 H 0.11315 0.24019 0.18344 0.0
H222 H 0.12598 0.20529 0.24131 0.0
H223 H 0.07137 0.2901 0.28425 0.0
H224 H 0.0702 0.2362 0.13454 0.0
H225 H 0.02612 0.2943 0.10537 0.0
H226 H 1.00312 0.25203 0.08245 0.0
H227 H 0.07185 0.24632 1.00279 0.0
H228 H 0.05985 0.21541 0.92564 0.0
H229 H 1.00483 0.31216 0.21439 0.0
H230 H 0.07574 0.33005 0.2434 0.0
H231 H 0.99089 0.22142 1.00254 0.0
H232 H 0.99352 0.34601 0.28156 0.0
H233 H 0.06454 0.36337 0.31096 0.0
C234 C 0.28001 0.0966 0.34647 0.0
C235 C 0.29934 0.10705 0.31676 0.0
C236 C 0.2608 0.09231 0.30532 0.0
C237 C 0.26061 0.09886 0.23444 0.0
C238 C 0.27792 0.11348 0.20986 0.0
C239 C 0.29733 0.11738 0.25061 0.0
C240 C 0.24665 0.08559 0.18396 0.0
C241 C 0.22442 0.07866 0.20019 0.0
C242 C 0.21315 0.06189 0.16031 0.0
C243 C 0.22476 0.0519 0.10269 0.0
C244 C 0.24691 0.05957 0.08411 0.0
C245 C 0.25742 0.0763 0.12522 0.0
C246 C 0.26094 0.04983 0.02608 0.0
C247 C 0.26762 0.0268 0.02676 0.0
C248 C 0.27236 0.06492 0.98045 0.0
C249 C 0.29133 0.05778 0.9418 0.0
C250 C 0.2991 0.03521 0.94632 0.0
C251 C 0.18999 0.05444 0.18433 0.0
C252 C 0.18485 0.03129 0.19557 0.0
C253 C 0.17416 0.07092 0.20715 0.0
C254 C 0.15478 0.06463 0.24535 0.0
C255 C 0.15039 0.04165 0.26077 0.0
C256 C 0.16515 0.02494 0.23322 0.0
C257 C 0.28647 0.01951 0.98673 0.0
H258 H 0.28089 0.08909 0.39834 0.0
H259 H 0.24761 0.08134 0.32655 0.0
H260 H 0.2778 0.11945 0.15609 0.0
H261 H 0.31179 0.12589 0.22662 0.0
H262 H 0.21628 0.08558 0.24649 0.0
H263 H 0.27502 0.08086 0.1141 0.0
H264 H 0.21662 0.03859 0.07241 0.0
H265 H 0.25945 0.01486 0.06215 0.0
H266 H 0.26767 0.08279 0.97889 0.0
H267 H 0.30052 0.07016 0.91035 0.0
H268 H 0.19672 0.01818 0.17921 0.0
H269 H 0.17738 0.08889 0.19845 0.0
H270 H 0.29207 1.00196 0.99089 0.0
H271 H 0.16216 1.00707 0.24417 0.0
H272 H 0.14351 0.07786 0.26464 0.0
C273 C 0.50061 0.30291 1.00938 0.0
C274 C 0.51495 0.30664 0.95105 0.0
C275 C 0.5051 0.28512 0.05697 0.0
C276 C 0.52396 0.27067 0.04711 0.0
C277 C 0.53762 0.2737 0.98738 0.0
C278 C 0.53316 0.29136 0.93991 0.0
C279 C 0.5328 0.25641 0.10551 0.0
C280 C 0.52309 0.2353 0.12504 0.0
C281 C 0.53336 0.22217 0.17871 0.0
C282 C 0.55288 0.23051 0.21302 0.0
C283 C 0.56205 0.25191 0.19613 0.0
C284 C 0.55193 0.26456 0.14184 0.0
C285 C 0.5808 0.26211 0.23862 0.0
C286 C 0.58138 0.25909 0.31174 0.0
C287 C 0.59663 0.2771 0.2077 0.0
C288 C 0.61062 0.2908 0.24923 0.0
C289 C 0.60951 0.28946 0.32278 0.0
C290 C 0.52401 0.19997 0.20269 0.0
C291 C 0.50407 0.19918 0.24348 0.0
C292 C 0.53759 0.1803 0.1976 0.0
C293 C 0.53199 0.16057 0.23523 0.0
C294 C 0.5128 0.16012 0.2797 0.0
C295 C 0.49855 0.17947 0.28182 0.0
C296 C 0.5958 0.27239 0.35321 0.0
H297 H 0.48629 0.31413 0.01937 0.0
H298 H 0.49464 0.28346 0.10351 0.0
H299 H 0.5526 0.26316 0.97958 0.0
H300 H 0.54485 0.29377 0.89658 0.0
H301 H 0.50809 0.22899 0.09807 0.0
H302 H 0.55847 0.28133 0.12866 0.0
H303 H 0.56064 0.22037 0.25423 0.0
H304 H 0.56959 0.24764 0.33776 0.0
H305 H 0.59728 0.27928 0.15139 0.0
H306 H 0.62092 0.30362 0.22335 0.0
H307 H 0.49356 0.21427 0.24924 0.0
H308 H 0.55328 0.18063 0.16745 0.0
H309 H 0.59502 0.27033 0.40956 0.0
H310 H 0.48353 0.17964 0.31494 0.0
H311 H 0.54352 0.14616 0.23272 0.0
C312 C 0.97054 0.03377 0.56258 0.0
Eu313 Eu 0.98944 0.01766 0.67486 0.0
C314 C 0.98248 0.04841 0.51097 0.0
C315 C 0.98145 0.07223 0.51747 0.0
C316 C 0.99787 0.08596 0.48525 0.0
C317 C 0.01562 0.07615 0.44582 0.0
C318 C 0.01531 0.05258 0.4336 0.0
C319 C 0.99882 0.03886 0.46547 0.0
C320 C 0.97093 1.0069 0.80134 0.0
C321 C 1.00978 0.06079 0.76209 0.0
C322 C 0.05128 0.99483 0.87828 0.0
Eu323 Eu 0.02472 1.01026 0.78011 0.0
C324 C 0.06646 0.97497 0.87675 0.0
C325 C 0.07327 0.96589 0.81203 0.0
C326 C 0.08448 0.94495 0.80911 0.0
C327 C 0.0889 0.93262 0.87083 0.0
C328 C 0.08313 0.94238 0.93584 0.0
C329 C 0.07194 0.96341 0.93871 0.0
C330 C 0.04181 0.02124 0.65107 0.0
C331 C 1.00503 0.96605 0.69313 0.0
O332 O 0.97801 1.01285 0.56726 0.0
O333 O 0.96721 0.04277 0.62435 0.0
O334 O 0.96223 1.00099 0.74151 0.0
O335 O 0.98806 0.01965 0.7917 0.0
O336 O 1.00326 0.05342 0.69967 0.0
O337 O 0.01579 0.04604 0.81072 0.0
O338 O 0.02947 0.98998 0.87484 0.0
O339 O 0.05701 1.01162 0.83671 0.0
O340 O 0.04999 0.02891 0.70943 0.0
O341 O 0.02563 1.00775 0.66381 0.0
O342 O 0.01688 0.97364 0.74727 0.0
O343 O 0.99356 0.98022 0.65272 0.0
H344 H 0.96896 0.08014 0.5515 0.0
H345 H 0.99722 0.1042 0.49368 0.0
H346 H 0.02864 0.04452 0.40313 0.0
H347 H 1.00002 0.02058 0.45856 0.0
H348 H 0.06898 0.97451 0.76347 0.0
H349 H 0.08881 0.93794 0.75837 0.0
H350 H 0.08593 0.93314 0.9843 0.0
H351 H 0.06658 0.97007 0.98896 0.0
C352 C 0.48397 0.98453 0.56087 0.0
Eu353 Eu 0.50015 0.99801 0.6796 0.0
C354 C 0.46903 0.99912 0.51848 0.0
C355 C 0.45808 0.99152 0.45761 0.0
C356 C 0.44346 1.00632 0.42092 0.0
C357 C 0.44016 0.02885 0.44434 0.0
C358 C 0.45154 0.03631 0.50452 0.0
C359 C 0.46551 0.0215 0.54158 0.0
C360 C 0.51165 0.97781 0.80245 0.0
C361 C 0.45757 0.01863 0.77327 0.0
C362 C 0.52142 0.05023 0.92528 0.0
Eu363 Eu 0.50983 0.03205 0.807 0.0
C364 C 0.53804 0.06811 0.9415 0.0
C365 C 0.55141 0.07738 0.88753 0.0
C366 C 0.56869 0.09293 0.90284 0.0
C367 C 0.57289 0.09947 0.97241 0.0
C368 C 0.55867 0.09104 0.02599 0.0
C369 C 0.54136 0.07538 1.01057 0.0
C370 C 0.50668 0.05506 0.68151 0.0
C371 C 0.55199 1.01379 0.70852 0.0
O372 O 0.50476 0.99246 0.56773 0.0
O373 O 0.47519 0.97804 0.62085 0.0
O374 O 0.51559 0.96872 0.74136 0.0
O375 O 0.4998 0.99566 0.79539 0.0
O376 O 0.46473 1.01022 0.71266 0.0
O377 O 0.47194 0.02602 0.82174 0.0
O378 O 0.53028 0.03112 0.90206 0.0
O379 O 0.50362 0.05697 0.88889 0.0
O380 O 0.51019 0.06517 0.74082 0.0
O381 O 0.5048 0.03424 0.69442 0.0
O382 O 0.54546 0.0214 0.77094 0.0
O383 O 0.53724 1.00648 0.66104 0.0
H384 H 0.4605 0.97423 0.43935 0.0
H385 H 0.43456 1.00017 0.37493 0.0
H386 H 0.44888 0.05334 0.52482 0.0
H387 H 0.47341 0.0275 0.58926 0.0
H388 H 0.54895 0.07199 0.83378 0.0
H389 H 0.57933 0.09924 0.86058 0.0
H390 H 0.56173 0.09557 0.08017 0.0
H391 H 0.53109 0.0684 0.05271 0.0
C392 C 0.55278 0.49216 0.53854 0.0
Eu393 Eu 0.52801 0.50305 0.64581 0.0
C394 C 0.57048 0.47474 0.5301 0.0
C395 C 0.57604 0.46052 0.58679 0.0
C396 C 0.5907 0.44205 0.57733 0.0
C397 C 0.60003 0.43752 0.511 0.0
C398 C 0.59545 0.45261 0.45527 0.0
C399 C 0.58068 0.47109 0.46477 0.0
C400 C 0.54399 0.50561 0.7802 0.0
C401 C 0.50725 0.45957 0.73341 0.0
C402 C 0.45654 0.52358 0.83557 0.0
Eu403 Eu 0.48664 0.50952 0.7456 0.0
C404 C 0.4471 0.5464 0.84919 0.0
C405 C 0.42339 0.54997 0.8462 0.0
C406 C 0.41442 0.57202 0.85077 0.0
C407 C 0.42908 0.59084 0.85826 0.0
C408 C 0.45278 0.58707 0.86314 0.0
C409 C 0.46169 0.56514 0.85829 0.0
C410 C 0.47647 0.49915 0.60991 0.0
C411 C 0.51018 0.55445 0.67122 0.0
O412 O 0.53213 0.48411 0.54903 0.0
O413 O 0.55798 0.50897 0.58078 0.0
O414 O 0.55693 0.50266 0.726 0.0
O415 O 0.52356 0.5068 0.7599 0.0
O416 O 0.51739 0.46676 0.67516 0.0
O417 O 0.49641 0.47373 0.77563 0.0
O418 O 0.47808 0.52032 0.8515 0.0
O419 O 0.45107 0.51492 0.77486 0.0
O420 O 0.46616 0.49027 0.6637 0.0
O421 O 0.49172 0.51278 0.63059 0.0
O422 O 0.49618 0.54626 0.71978 0.0
O423 O 0.5231 0.54099 0.63232 0.0
H424 H 0.5683 0.46317 0.63769 0.0
H425 H 0.594 0.43074 0.62116 0.0
H426 H 0.60216 0.44934 0.40337 0.0
H427 H 0.57651 0.48194 0.42055 0.0
H428 H 0.41185 0.53574 0.83856 0.0
H429 H 0.39611 0.57439 0.84701 0.0
H430 H 0.46453 0.6011 0.87089 0.0
H431 H 0.48007 0.56298 0.86029 0.0
C432 C 0.03338 0.53877 0.59623 0.0
Eu433 Eu 1.008 0.52309 0.69609 0.0
C434 C 0.05397 0.52642 0.5743 0.0
C435 C 0.0734 0.53762 0.549 0.0
C436 C 0.09388 0.5255 0.5404 0.0
C437 C 0.09533 0.50221 0.55933 0.0
C438 C 0.07555 0.49125 0.58376 0.0
C439 C 0.05515 0.50306 0.58956 0.0
C440 C 0.99191 0.54538 0.8097 0.0
C441 C 0.04425 0.50064 0.80745 0.0
C442 C 0.96888 0.46639 0.88399 0.0
Eu443 Eu 0.99257 0.49157 0.79969 0.0
C444 C 0.94844 0.45388 0.86202 0.0
C445 C 0.94434 0.45112 0.78992 0.0
C446 C 0.92285 0.4445 0.76601 0.0
C447 C 0.90518 0.44038 0.81389 0.0
C448 C 0.90986 0.44138 0.88629 0.0
C449 C 0.93135 0.44827 0.91022 0.0
C450 C 1.00601 0.47104 0.6776 0.0
C451 C 0.95465 0.51517 0.69586 0.0
O452 O 1.01423 0.52798 0.58433 0.0
O453 O 0.03432 0.54684 0.6599 0.0
O454 O 0.98888 0.55196 0.74536 0.0
O455 O 1.00428 0.52762 0.81258 0.0
O456 O 0.04068 0.50676 0.74165 0.0
O457 O 0.02669 0.4972 0.84893 0.0
O458 O 0.96666 0.48855 0.88131 0.0
O459 O 0.98795 0.45946 0.85574 0.0
O460 O 1.01172 0.46385 0.73916 0.0
O461 O 0.99393 0.48857 0.68364 0.0
O462 O 0.95882 0.50506 0.75639 0.0
O463 O 0.97161 0.52246 0.65626 0.0
H464 H 0.07289 0.5557 0.5375 0.0
H465 H 0.10852 0.53453 0.51963 0.0
H466 H 0.07575 0.47365 0.60088 0.0
H467 H 0.04044 0.49406 0.60963 0.0
H468 H 0.95731 0.45561 0.75178 0.0
H469 H 0.91964 0.44396 0.71012 0.0
H470 H 0.89639 0.43868 0.92436 0.0
H471 H 0.93415 0.4506 0.96585 0.0
H472 H 0.14143 0.0598 0.38969 0.0
H473 H 0.11672 1.00943 0.24229 0.0
H474 H 0.08503 0.99981 0.32362 0.0
H475 H 0.13032 0.0268 0.54434 0.0
H476 H 0.12226 0.0511 0.59634 0.0
H477 H 0.14213 0.0545 0.52508 0.0
H478 H 0.11612 0.08566 0.47092 0.0
H479 H 0.09589 0.08215 0.54145 0.0
H480 H 0.08674 0.07892 0.45196 0.0
H481 H 0.05566 0.99613 0.42237 0.0
H482 H 0.03332 0.99643 0.5325 0.0
H483 H 0.07841 0.04824 0.61655 0.0
C484 C 0.12923 0.04686 0.37428 0.0
C485 C 0.13138 0.0355 0.30931 0.0
C486 C 0.11537 0.01835 0.29172 0.0
C487 C 0.09728 1.01287 0.33748 0.0
C488 C 0.09562 0.02448 0.40109 0.0
C489 C 0.11137 0.04094 0.41974 0.0
C490 C 0.10649 0.05022 0.49226 0.0
C491 C 0.12649 0.04535 0.54246 0.0
C492 C 0.10101 0.07578 0.48899 0.0
C493 C 0.0855 0.03648 0.51178 0.0
C494 C 0.07933 0.02186 0.4583 0.0
C495 C 0.06045 1.00747 0.46452 0.0
C496 C 0.04781 1.0078 0.52723 0.0
C497 C 0.05418 0.02229 0.58321 0.0
C498 C 0.07315 0.03695 0.57477 0.0
H499 H 0.50049 0.16095 0.41882 0.0
H500 H 0.51737 0.11442 0.25031 0.0
H501 H 0.51559 0.08208 0.33342 0.0
H502 H 0.53352 0.13499 0.54801 0.0
H503 H 0.51359 0.13944 0.61864 0.0
H504 H 0.51383 0.15862 0.54492 0.0
H505 H 0.4708 0.15085 0.52321 0.0
H506 H 0.47036 0.1318 0.59743 0.0
H507 H 0.46101 0.12191 0.5128 0.0
H508 H 0.5153 0.05512 0.43767 0.0
H509 H 0.51541 0.03598 0.55345 0.0
H510 H 0.49797 0.09986 0.65314 0.0
C511 C 0.5032 0.14391 0.39885 0.0
C512 C 0.509 0.14029 0.32772 0.0
C513 C 0.51303 0.1177 0.3045 0.0
C514 C 0.51195 0.09918 0.35131 0.0
C515 C 0.50673 0.10343 0.42135 0.0
C516 C 0.50222 0.12523 0.4449 0.0
C517 C 0.49818 0.1254 0.5234 0.0
C518 C 0.51584 0.1405 0.56092 0.0
C519 C 0.47363 0.13293 0.54018 0.0
C520 C 0.50173 0.10041 0.54069 0.0
C521 C 0.50643 0.08795 0.48105 0.0
C522 C 0.51125 0.06467 0.48445 0.0
C523 C 0.51118 0.0539 0.55035 0.0
C524 C 0.50617 0.0663 0.6119 0.0
C525 C 0.50153 0.08988 0.60677 0.0
H526 H 0.38013 0.47361 0.3238 0.0
H527 H 0.40754 0.52945 0.20072 0.0
H528 H 0.43922 0.53369 0.28621 0.0
H529 H 0.39092 0.49858 0.48906 0.0
H530 H 0.39778 0.47207 0.53216 0.0
H531 H 0.37869 0.47225 0.45819 0.0
H532 H 0.40454 0.44298 0.39479 0.0
H533 H 0.42375 0.44275 0.46862 0.0
H534 H 0.43443 0.44929 0.38231 0.0
H535 H 0.46753 0.53223 0.38811 0.0
H536 H 0.48794 0.52739 0.50083 0.0
H537 H 0.44081 0.47357 0.55936 0.0
C538 C 0.39306 0.48644 0.31407 0.0
C539 C 0.39159 0.50097 0.25487 0.0
C540 C 0.40843 0.51804 0.24535 0.0
C541 C 0.42651 0.5205 0.29354 0.0
C542 C 0.4274 0.50591 0.35149 0.0
C543 C 0.41098 0.48933 0.36211 0.0
C544 C 0.4148 0.47688 0.43094 0.0
C545 C 0.39433 0.48015 0.4805 0.0
C546 C 0.41967 0.45147 0.41839 0.0
C547 C 0.43586 0.48911 0.45786 0.0
C548 C 0.44308 0.50561 0.41091 0.0
C549 C 0.46201 0.51932 0.42504 0.0
C550 C 0.47355 0.51641 0.48917 0.0
C551 C 0.46599 0.5001 0.53895 0.0
C552 C 0.44708 0.48611 0.52232 0.0
H553 H 0.04723 0.36875 0.42993 0.0
H554 H 0.99434 0.38911 0.28323 0.0
H555 H 0.98395 0.4212 0.36097 0.0
H556 H 0.01567 0.38062 0.58569 0.0
H557 H 0.04001 0.3909 0.63415 0.0
H558 H 0.04392 0.37024 0.56561 0.0
H559 H 0.07292 0.39712 0.50441 0.0
H560 H 0.06904 0.41789 0.57275 0.0
H561 H 0.06447 0.42583 0.48258 0.0
H562 H 0.97986 0.45163 0.45423 0.0
H563 H 0.98003 0.4759 0.55985 0.0
H564 H 0.03438 0.43473 0.64892 0.0
C565 C 0.03361 0.38009 0.41376 0.0
C566 C 0.02169 0.37646 0.35002 0.0
C567 C 1.00365 0.39145 0.33174 0.0
C568 C 0.99774 0.40981 0.37541 0.0
C569 C 1.00989 0.41293 0.43765 0.0
C570 C 0.02734 0.39836 0.45709 0.0
C571 C 0.03711 0.40492 0.52802 0.0
C572 C 0.03398 0.38551 0.58152 0.0
C573 C 0.06238 0.41185 0.52152 0.0
C574 C 0.02228 0.4253 0.54591 0.0
C575 C 1.00693 0.42986 0.49253 0.0
C576 C 0.99172 0.44811 0.4964 0.0
C577 C 0.99198 0.46184 0.5566 0.0
C578 C 1.00708 0.45708 0.61286 0.0
C579 C 0.02252 0.43864 0.60702 0.0
H580 H 0.85853 0.99059 0.03232 0.0
H581 H 0.89303 0.0275 0.19843 0.0
H582 H 0.92867 0.02704 0.12951 0.0
H583 H 0.90782 0.95585 0.9762 0.0
H584 H 0.90018 0.95803 0.88493 0.0
H585 H 0.87824 0.95869 0.95115 0.0
H586 H 0.86363 0.99721 0.9018 0.0
H587 H 0.88553 0.99672 0.83571 0.0
H588 H 0.88321 0.0208 0.8937 0.0
H589 H 0.95973 0.02608 0.03673 0.0
H590 H 0.98328 0.02415 0.92915 0.0
H591 H 0.92831 0.98866 0.82291 0.0
C592 C 0.8736 0.99839 0.05476 0.0
C593 C 0.8728 1.009 0.12137 0.0
C594 C 0.89312 0.01885 0.14841 0.0
C595 C 0.91349 0.01882 0.10932 0.0
C596 C 0.91345 1.00878 0.04317 0.0
C597 C 0.89404 0.9986 0.01633 0.0
C598 C 0.89804 0.99024 0.94219 0.0
C599 C 0.89595 0.96415 0.93843 0.0
C600 C 0.88163 1.00195 0.89031 0.0
C601 C 0.92253 0.99786 0.93071 0.0
C602 C 0.93122 1.00832 0.9898 0.0
C603 C 0.95315 0.01769 0.9905 0.0
C604 C 0.96641 0.01654 0.92914 0.0
C605 C 0.95768 1.00622 0.8677 0.0
C606 C 0.93556 0.9965 0.86917 0.0
H607 H 0.53359 0.86899 0.04383 0.0
H608 H 0.50803 0.9083 0.21926 0.0
H609 H 0.50605 0.94253 0.14354 0.0
H610 H 0.56789 0.91521 0.96262 0.0
H611 H 0.56074 0.90614 0.87515 0.0
H612 H 0.56243 0.88552 0.94515 0.0
H613 H 0.52116 0.8723 0.91747 0.0
H614 H 0.51927 0.89295 0.84786 0.0
H615 H 0.49832 0.89293 0.91704 0.0
H616 H 0.50351 0.9716 0.04546 0.0
H617 H 0.50103 0.99303 0.93385 0.0
H618 H 0.5288 0.93484 0.82314 0.0
C619 C 0.52824 0.88494 0.06702 0.0
C620 C 0.52114 0.88595 0.13784 0.0
C621 C 0.51353 0.90706 0.16524 0.0
C622 C 0.51243 0.92663 0.12266 0.0
C623 C 0.51909 0.92489 0.05271 0.0
C624 C 0.527 0.9046 0.02522 0.0
C625 C 0.5317 0.90682 0.94737 0.0
C626 C 0.55721 0.90321 0.93167 0.0
C627 C 0.51671 0.89027 0.90497 0.0
C628 C 0.52472 0.93138 0.93491 0.0
C629 C 0.51766 0.94158 0.99641 0.0
C630 C 0.5093 0.96386 0.99724 0.0
C631 C 0.50794 0.97591 0.9336 0.0
C632 C 0.51487 0.96567 0.86996 0.0
C633 C 0.52362 0.94321 0.87106 0.0
H634 H 0.64014 0.49021 0.07019 0.0
H635 H 0.60334 0.5377 0.20172 0.0
H636 H 0.57155 0.5385 0.11513 0.0
H637 H 0.6265 0.51732 0.91094 0.0
H638 H 0.62464 0.49128 0.86137 0.0
H639 H 0.64281 0.49268 0.9373 0.0
H640 H 0.62184 0.45786 0.99108 0.0
H641 H 0.60356 0.45638 0.91523 0.0
H642 H 0.59122 0.45868 1.00142 0.0
H643 H 0.54382 0.53414 1.00975 0.0
H644 H 0.5256 0.52852 0.89318 0.0
H645 H 0.58269 0.48634 0.83005 0.0
C646 C 0.62514 0.50039 0.0815 0.0
C647 C 0.62391 0.5135 0.14332 0.0
C648 C 0.60443 0.5273 0.15506 0.0
C649 C 0.58631 0.52779 0.10625 0.0
C650 C 0.58812 0.51465 0.04546 0.0
C651 C 0.60724 0.50141 0.03289 0.0
C652 C 0.60621 0.49042 0.96133 0.0
C653 C 0.62622 0.49841 0.91502 0.0
C654 C 0.60567 0.46429 0.96768 0.0
C655 C 0.58362 0.49961 0.93497 0.0
C656 C 0.57311 0.51321 0.98442 0.0
C657 C 0.55198 0.52352 0.97086 0.0
C658 C 0.54167 0.52016 0.90476 0.0
C659 C 0.55277 0.50703 0.85285 0.0
C660 C 0.57384 0.4965 0.8688 0.0
H661 H 0.01841 0.61747 0.15587 0.0
H662 H 0.96342 0.66236 0.08822 0.0
H663 H 0.95302 0.63503 0.99706 0.0
H664 H 0.03639 0.60351 0.98627 0.0
H665 H 0.04367 0.57431 1.00567 0.0
H666 H 0.0448 0.59543 0.07377 0.0
H667 H 0.01723 0.57121 0.14957 0.0
H668 H 0.01603 0.54997 0.08159 0.0
H669 H 0.99003 0.56262 0.11394 0.0
H670 H 0.95103 0.60574 0.90411 0.0
H671 H 0.95787 0.57621 0.81496 0.0
H672 H 1.01476 0.55006 0.93673 0.0
C673 C 1.00402 0.62158 0.12258 0.0
C674 C 0.99165 0.64228 0.13101 0.0
C675 C 0.97289 0.64656 0.08553 0.0
C676 C 0.96689 0.63112 0.03265 0.0
C677 C 0.97976 0.61134 0.02497 0.0
C678 C 0.99792 0.60643 0.06864 0.0
C679 C 1.01011 0.58485 0.04493 0.0
C680 C 0.03523 0.58983 0.02656 0.0
C681 C 1.00823 0.56605 0.10085 0.0
C682 C 0.99634 0.57882 0.97994 0.0
C683 C 0.97875 0.59426 0.97018 0.0
C684 C 0.96452 0.59336 0.91174 0.0
C685 C 0.96857 0.57654 0.86129 0.0
C686 C 0.98667 0.56074 0.86919 0.0
C687 C 1.00049 0.56162 0.93008 0.0
H688 H 0.09285 0.18556 0.45109 0.0
H689 H 0.10679 0.17104 0.2322 0.0
H690 H 0.09357 0.13196 0.24899 0.0
H691 H 0.10058 0.12514 0.52209 0.0
H692 H 0.0761 0.12783 0.57888 0.0
H693 H 0.09385 0.15227 0.56056 0.0
H694 H 0.0593 0.17522 0.51687 0.0
H695 H 0.04079 0.1516 0.5355 0.0
H696 H 0.04142 0.16371 0.44861 0.0
H697 H 0.06895 0.09909 0.27736 0.0
H698 H 0.0379 0.07407 0.31926 0.0
H699 H 0.03728 0.11016 0.5174 0.0
C700 C 0.09393 0.17395 0.40727 0.0
C701 C 0.10072 0.18171 0.34025 0.0
C702 C 0.10208 0.16576 0.28459 0.0
C703 C 0.09437 0.14336 0.2934 0.0
C704 C 0.08542 0.13706 0.35811 0.0
C705 C 0.08557 0.15175 0.4147 0.0
C706 C 0.07123 0.14252 0.4744 0.0
C707 C 0.08633 0.13656 0.53774 0.0
C708 C 0.05206 0.15926 0.49495 0.0
C709 C 0.06164 0.12131 0.44048 0.0
C710 C 0.07049 0.11811 0.37416 0.0
C711 C 0.06236 0.10104 0.32996 0.0
C712 C 0.04465 0.08696 0.35407 0.0
C713 C 0.03507 0.09027 0.42137 0.0
C714 C 0.04409 0.10737 0.46538 0.0
H715 H 0.31351 0.06555 0.36067 0.0
H716 H 0.33747 0.13474 0.32756 0.0
H717 H 0.37719 0.12193 0.35111 0.0
H718 H 0.35303 0.05005 0.50016 0.0
H719 H 0.35569 0.02129 0.46816 0.0
H720 H 0.32955 0.03686 0.45442 0.0
H721 H 0.33297 0.02933 0.32097 0.0
H722 H 0.35952 0.01439 0.33401 0.0
H723 H 0.35831 0.03839 0.27495 0.0
H724 H 0.4144 0.10065 0.37518 0.0
H725 H 0.44535 0.07353 0.40553 0.0
H726 H 0.3959 0.01862 0.41697 0.0
C727 C 0.32691 0.07828 0.36078 0.0
C728 C 0.32235 0.10127 0.34379 0.0
C729 C 0.34061 0.1171 0.3414 0.0
C730 C 0.36317 0.10994 0.35427 0.0
C731 C 0.36704 0.08692 0.36867 0.0
C732 C 0.34932 0.07142 0.37257 0.0
C733 C 0.35779 0.04752 0.38637 0.0
C734 C 0.34847 0.0384 0.45645 0.0
C735 C 0.35179 0.03147 0.32543 0.0
C736 C 0.38315 0.05187 0.38995 0.0
C737 C 0.38823 0.07467 0.37962 0.0
C738 C 0.41059 0.08278 0.38305 0.0
C739 C 0.42802 0.06728 0.39985 0.0
C740 C 0.42292 0.044 0.41249 0.0
C741 C 0.4003 0.03619 0.40575 0.0
H742 H 0.59055 0.30814 0.43991 0.0
H743 H 0.64917 0.31441 0.30197 0.0
H744 H 0.6579 0.35187 0.35379 0.0
H745 H 0.571 0.35949 0.4234 0.0
H746 H 0.56194 0.36419 0.51245 0.0
H747 H 0.56385 0.33572 0.4794 0.0
H748 H 0.59143 0.32448 0.5799 0.0
H749 H 0.58928 0.35298 0.61446 0.0
H750 H 0.61692 0.34104 0.59482 0.0
H751 H 0.65389 0.39196 0.39715 0.0
H752 H 0.63947 0.42951 0.43633 0.0
H753 H 0.5851 0.39582 0.55059 0.0
C754 C 0.60602 0.31662 0.42309 0.0
C755 C 0.61904 0.30825 0.36634 0.0
C756 C 0.63867 0.32055 0.34461 0.0
C757 C 0.64391 0.34178 0.37425 0.0
C758 C 0.62976 0.3502 0.42694 0.0
C759 C 0.61158 0.33764 0.45258 0.0
C760 C 0.59712 0.35148 0.5025 0.0
C761 C 0.57203 0.3528 0.47787 0.0
C762 C 0.5988 0.34193 0.57737 0.0
C763 C 0.60892 0.3743 0.4967 0.0
C764 C 0.62798 0.37321 0.45399 0.0
C765 C 0.63953 0.39288 0.43273 0.0
C766 C 0.63115 0.41413 0.45474 0.0
C767 C 0.61145 0.41546 0.49749 0.0
C768 C 0.6007 0.39524 0.52011 0.0
H769 H 0.22492 0.48998 0.47436 0.0
H770 H 0.21184 0.41835 0.43569 0.0
H771 H 0.17548 0.42139 0.49967 0.0
H772 H 0.19131 0.49249 0.65484 0.0
H773 H 0.18279 0.52109 0.63184 0.0
H774 H 0.21062 0.51074 0.60698 0.0
H775 H 0.20088 0.52223 0.47892 0.0
H776 H 0.17262 0.53089 0.50308 0.0
H777 H 0.17646 0.50947 0.4366 0.0
H778 H 0.13693 0.43503 0.52509 0.0
H779 H 0.10118 0.45624 0.53375 0.0
H780 H 0.13947 0.51862 0.57084 0.0
C781 C 0.21522 0.47454 0.48334 0.0
C782 C 0.22106 0.454 0.44923 0.0
C783 C 0.20751 0.43436 0.46049 0.0
C784 C 0.18688 0.4359 0.49721 0.0
C785 C 0.1805 0.457 0.52422 0.0
C786 C 0.19471 0.47581 0.52049 0.0
C787 C 0.18249 0.49725 0.54397 0.0
C788 C 0.19238 0.50588 0.61359 0.0
C789 C 0.18315 0.51602 0.48722 0.0
C790 C 0.1586 0.48799 0.55384 0.0
C791 C 0.15792 0.46469 0.54353 0.0
C792 C 0.13734 0.45302 0.53732 0.0
C793 C 0.11698 0.46537 0.54237 0.0
C794 C 0.11719 0.48925 0.55476 0.0
C795 C 0.13844 0.50047 0.56158 0.0
H796 H 0.12278 0.8217 0.06529 0.0
H797 H 0.07286 0.78999 0.92752 0.0
H798 H 0.07779 0.82085 0.84378 0.0
H799 H 0.098 0.87149 0.05979 0.0
H800 H 0.12309 0.88929 0.06339 0.0
H801 H 0.12409 0.86096 0.09849 0.0
H802 H 0.1584 0.85133 0.01807 0.0
H803 H 0.1576 0.87988 0.98283 0.0
H804 H 0.15608 0.85574 0.92483 0.0
H805 H 0.07843 0.85869 0.79198 0.0
H806 H 0.07357 0.90007 0.78075 0.0
H807 H 0.11961 0.91046 0.95588 0.0
C808 C 0.11318 0.82085 0.01698 0.0
C809 C 0.09728 0.80312 1.00446 0.0
C810 C 0.0856 0.80277 0.93918 0.0
C811 C 0.08821 0.82047 0.89064 0.0
C812 C 0.10239 0.83867 0.90775 0.0
C813 C 0.11484 0.83895 0.96935 0.0
C814 C 0.12454 0.86247 0.98335 0.0
C815 C 0.11695 0.87157 0.05545 0.0
C816 C 0.15071 0.86234 0.97685 0.0
C817 C 0.11374 0.87576 0.9238 0.0
C818 C 0.10199 0.86149 0.87887 0.0
C819 C 0.08816 0.86998 0.82537 0.0
C820 C 0.08551 0.8936 0.81934 0.0
C821 C 0.09632 0.90849 0.86732 0.0
C822 C 0.11132 0.89943 0.91824 0.0
H823 H 0.70354 0.10021 0.03145 0.0
H824 H 0.69371 0.15219 0.19016 0.0
H825 H 0.65479 0.15892 0.14527 0.0
H826 H 0.6663 0.12911 0.89031 0.0
H827 H 0.65687 0.10145 0.86127 0.0
H828 H 0.68552 0.10513 0.89421 0.0
H829 H 0.67834 0.07279 0.98413 0.0
H830 H 0.64968 0.06933 0.95309 0.0
H831 H 0.65475 0.07518 0.04445 0.0
H832 H 0.6144 0.15222 0.10464 0.0
H833 H 0.57789 0.13577 0.06258 0.0
H834 H 0.6155 0.09052 0.92572 0.0
C835 C 0.69395 0.114 0.05466 0.0
C836 C 0.70184 0.1254 0.11523 0.0
C837 C 0.68802 0.14278 0.14471 0.0
C838 C 0.6659 0.14692 0.11906 0.0
C839 C 0.65813 0.13412 0.06241 0.0
C840 C 0.67208 0.11853 0.02911 0.0
C841 C 0.65906 0.10487 0.9752 0.0
C842 C 0.66743 0.11049 0.90083 0.0
C843 C 0.66054 0.07905 0.99023 0.0
C844 C 0.63524 0.11391 0.98718 0.0
C845 C 0.63497 0.13104 0.0368 0.0
C846 C 0.61447 0.13946 0.06383 0.0
C847 C 0.59384 0.12992 0.04014 0.0
C848 C 0.59395 0.11221 0.98994 0.0
C849 C 0.6149 0.10463 0.96212 0.0
H850 H 0.45686 0.71737 0.90332 0.0
H851 H 0.40314 0.71791 0.05902 0.0
H852 H 0.38555 0.6844 1.00367 0.0
H853 H 0.42065 0.68833 0.75287 0.0
H854 H 0.44561 0.67241 0.72714 0.0
H855 H 0.44856 0.70118 0.75903 0.0
H856 H 0.4772 0.68698 0.85271 0.0
H857 H 0.4742 0.65836 0.82208 0.0
H858 H 0.46862 0.66479 0.91282 0.0
H859 H 0.38206 0.64513 0.96171 0.0
H860 H 0.39164 0.60544 0.93203 0.0
H861 H 0.4468 0.62938 0.79941 0.0
C862 C 0.44068 0.7111 0.92305 0.0
C863 C 0.43131 0.72013 0.9851 0.0
C864 C 0.41039 0.71145 1.01079 0.0
C865 C 0.40029 0.69234 0.97963 0.0
C866 C 0.41112 0.68243 0.92215 0.0
C867 C 0.43057 0.69193 0.89266 0.0
C868 C 0.4415 0.67584 0.84053 0.0
C869 C 0.43891 0.68499 0.76543 0.0
C870 C 0.46684 0.67122 0.85823 0.0
C871 C 0.42684 0.65492 0.85169 0.0
C872 C 0.40888 0.65927 0.89684 0.0
C873 C 0.39546 0.64169 0.92415 0.0
C874 C 0.40105 0.61913 0.9071 0.0
C875 C 0.42003 0.61437 0.86365 0.0
C876 C 0.43222 0.63258 0.83291 0.0
H877 H 0.78572 0.43082 0.9499 0.0
H878 H 0.77918 0.49811 0.8583 0.0
H879 H 0.80684 0.48778 0.76743 0.0
H880 H 0.83882 0.4323 0.96245 0.0
H881 H 0.84611 0.40305 0.94391 0.0
H882 H 0.81822 0.40978 0.97529 0.0
H883 H 0.80014 0.39037 0.86694 0.0
H884 H 0.82832 0.38343 0.83511 0.0
H885 H 0.80868 0.39897 0.78008 0.0
H886 H 0.84325 0.47708 0.71757 0.0
H887 H 0.88443 0.46947 0.72312 0.0
H888 H 0.87201 0.41063 0.85464 0.0
C889 C 0.78952 0.44302 0.90893 0.0
C890 C 0.78056 0.46532 0.91185 0.0
C891 C 0.78559 0.4808 0.85705 0.0
C892 C 0.80138 0.47501 0.80489 0.0
C893 C 0.81205 0.45374 0.80833 0.0
C894 C 0.80607 0.43778 0.85879 0.0
C895 C 0.82391 0.41914 0.86477 0.0
C896 C 0.83226 0.41596 0.94103 0.0
C897 C 0.81471 0.39665 0.83491 0.0
C898 C 0.84232 0.4289 0.81784 0.0
C899 C 0.8345 0.44789 0.78167 0.0
C900 C 0.84934 0.46189 0.74384 0.0
C901 C 0.8728 0.45744 0.74731 0.0
C902 C 0.8812 0.4395 0.78975 0.0
C903 C 0.86575 0.42426 0.82145 0.0
H904 H 0.04233 0.17321 0.97856 0.0
H905 H 0.99327 0.21046 0.85267 0.0
H906 H 0.98489 0.17522 0.78537 0.0
H907 H 0.06423 0.13666 0.84393 0.0
H908 H 0.06655 0.11204 0.90021 0.0
H909 H 0.06895 0.14024 0.9366 0.0
H910 H 0.03616 0.13126 0.02358 0.0
H911 H 0.03376 0.103 0.98774 0.0
H912 H 1.00907 0.12136 0.99042 0.0
H913 H 0.9835 0.13559 0.72822 0.0
H914 H 0.98566 0.09478 0.69588 0.0
H915 H 0.03354 0.08308 0.86574 0.0
C916 C 0.02982 0.1739 0.93674 0.0
C917 C 0.01855 0.19457 0.92026 0.0
C918 C 1.00208 0.1948 0.86594 0.0
C919 C 0.99732 0.17488 0.82737 0.0
C920 C 1.0089 0.15478 0.84457 0.0
C921 C 0.02455 0.15411 0.89883 0.0
C922 C 0.034 0.13024 0.90899 0.0
C923 C 0.05997 0.12978 0.89668 0.0
C924 C 0.02787 0.12092 0.98201 0.0
C925 C 0.02137 0.1175 0.85179 0.0
C926 C 1.0072 0.13198 0.81444 0.0
C927 C 0.99438 0.12413 0.75768 0.0
C928 C 0.99579 0.10091 0.73945 0.0
C929 C 1.00962 0.08563 0.77851 0.0
C930 C 0.02263 0.09422 0.83518 0.0
H931 H 0.34117 0.05438 0.96771 0.0
H932 H 0.30683 1.00148 0.8498 0.0
H933 H 0.34341 0.99204 0.79064 0.0
H934 H 0.3797 0.07328 0.83351 0.0
H935 H 0.40343 0.07755 0.89229 0.0
H936 H 0.37458 0.08033 0.92402 0.0
H937 H 0.38273 0.05021 0.02033 0.0
H938 H 0.41164 0.04743 0.98912 0.0
H939 H 0.3936 0.02261 0.99574 0.0
H940 H 0.38366 0.98989 0.74025 0.0
H941 H 0.42478 0.99204 0.71191 0.0
H942 H 0.4336 0.04455 0.8693 0.0
C943 C 0.3414 0.04082 0.92933 0.0
C944 C 0.32115 0.02875 0.9127 0.0
C945 C 0.32214 1.0109 0.86312 0.0
C946 C 0.34282 1.00552 0.82917 0.0
C947 C 0.36245 0.01789 0.84631 0.0
C948 C 0.36197 0.03493 0.8961 0.0
C949 C 0.38559 0.04507 0.907 0.0
C950 C 0.38583 0.07057 0.88806 0.0
C951 C 0.39388 0.04109 0.98253 0.0
C952 C 0.39948 0.03126 0.85509 0.0
C953 C 0.38575 0.01586 0.82 0.0
C954 C 0.39456 1.00175 0.76794 0.0
C955 C 0.41798 1.00318 0.75196 0.0
C956 C 0.43256 0.01838 0.78852 0.0
C957 C 0.42303 0.03261 0.84073 0.0
H958 H 0.50262 0.35061 0.98772 0.0
H959 H 0.52121 0.30925 0.80824 0.0
H960 H 0.52068 0.34354 0.73324 0.0
H961 H 0.46371 0.38884 0.89201 0.0
H962 H 0.47198 0.41344 0.94239 0.0
H963 H 0.47302 0.38546 0.98149 0.0
H964 H 0.51568 0.39166 0.01248 0.0
H965 H 0.51482 0.41955 0.973 0.0
H966 H 0.5356 0.39896 0.94398 0.0
H967 H 0.52079 0.3829 0.67892 0.0
H968 H 0.51883 0.42379 0.64815 0.0
H969 H 0.49825 0.43941 0.86115 0.0
C970 C 0.50609 0.3486 0.93238 0.0
C971 C 0.51209 0.32705 0.90432 0.0
C972 C 0.51692 0.32549 0.83161 0.0
C973 C 0.51655 0.3449 0.78833 0.0
C974 C 0.51107 0.36588 0.81802 0.0
C975 C 0.50564 0.36781 0.88821 0.0
C976 C 0.50069 0.39245 0.9072 0.0
C977 C 0.47587 0.3952 0.93224 0.0
C978 C 0.51772 0.40116 0.96243 0.0
C979 C 0.50441 0.40407 0.83695 0.0
C980 C 0.51049 0.38844 0.78625 0.0
C981 C 0.51576 0.39524 0.71804 0.0
C982 C 0.51466 0.41855 0.70108 0.0
C983 C 0.50816 0.43489 0.75188 0.0
C984 C 0.50294 0.42739 0.82069 0.0
H985 H 0.18068 0.51706 0.85514 0.0
H986 H 0.17704 0.46267 1.0091 0.0
H987 H 0.13571 0.45869 0.98707 0.0
H988 H 0.12626 0.54258 0.89182 0.0
H989 H 0.11907 0.54855 0.80177 0.0
H990 H 0.14859 0.54728 0.82835 0.0
H991 H 0.1564 0.51668 0.7341 0.0
H992 H 0.1269 0.51794 0.70719 0.0
H993 H 0.1394 0.49106 0.7325 0.0
H994 H 0.09463 0.46214 0.95576 0.0
H995 H 0.05626 0.47041 0.90886 0.0
H996 H 0.0854 0.52039 0.7666 0.0
C997 C 0.17112 0.50425 0.88368 0.0
C998 C 0.18211 0.49008 0.93383 0.0
C999 C 0.16905 0.47352 0.97012 0.0
C1000 C 0.14553 0.47119 0.95813 0.0
C1001 C 0.13517 0.48532 0.9087 0.0
C1002 C 0.14749 0.5013 0.87109 0.0
C1003 C 0.13187 0.51397 0.82018 0.0
C1004 C 0.13143 0.53962 0.83653 0.0
C1005 C 0.13908 0.50964 0.74396 0.0
C1006 C 0.1089 0.50287 0.83617 0.0
C1007 C 0.1113 0.48653 0.88792 0.0
C1008 C 0.09257 0.47469 0.91459 0.0
C1009 C 0.07079 0.47959 0.88776 0.0
C1010 C 0.06776 0.49594 0.83384 0.0
C1011 C 0.08719 0.5076 0.80728 0.0
H1012 H 0.98106 0.85528 0.45934 0.0
H1013 H 0.03089 0.81957 0.58805 0.0
H1014 H 0.03403 0.85324 0.66405 0.0
H1015 H 1.0097 0.9084 0.46173 0.0
H1016 H 0.98399 0.92531 0.46396 0.0
H1017 H 0.98363 0.89755 0.42403 0.0
H1018 H 0.95048 0.88529 0.50579 0.0
H1019 H 0.95071 0.91306 0.54591 0.0
H1020 H 0.95381 0.88787 0.59934 0.0
H1021 H 0.03384 0.89201 0.72226 0.0
H1022 H 0.03044 0.93241 0.7566 0.0
H1023 H 0.98215 0.94359 0.5871 0.0
C1024 C 0.99261 0.85436 0.50354 0.0
C1025 C 1.00557 0.83437 0.51732 0.0
C1026 C 0.02027 0.83422 0.57661 0.0
C1027 C 0.02236 0.85344 0.62004 0.0
C1028 C 1.00971 0.8729 0.60389 0.0
C1029 C 0.99509 0.87349 0.54708 0.0
C1030 C 0.98437 0.89693 0.53888 0.0
C1031 C 0.99081 0.90767 0.46795 0.0
C1032 C 0.9583 0.89571 0.54804 0.0
C1033 C 0.99551 0.90955 0.59928 0.0
C1034 C 1.00992 0.89532 0.63655 0.0
C1035 C 0.02249 0.90324 0.69364 0.0
C1036 C 0.02041 0.92629 0.71282 0.0
C1037 C 1.00595 0.94132 0.67489 0.0
C1038 C 0.99327 0.93263 0.61759 0.0
H1039 H 0.66132 1.00812 0.45586 0.0
H1040 H 0.7038 0.01573 0.64092 0.0
H1041 H 0.66924 0.01604 0.71492 0.0
H1042 H 0.6163 0.04409 0.5097 0.0
H1043 H 0.59377 0.02676 0.47357 0.0
H1044 H 0.62184 0.02617 0.43502 0.0
H1045 H 0.62358 0.98237 0.45154 0.0
H1046 H 0.59541 0.98279 0.4896 0.0
H1047 H 0.61889 0.97029 0.53729 0.0
H1048 H 0.62965 0.01793 0.76862 0.0
H1049 H 0.58851 0.01873 0.79793 0.0
H1050 H 0.57186 1.00823 0.5787 0.0
C1051 C 0.66348 1.00934 0.51204 0.0
C1052 C 0.68549 1.01199 0.54218 0.0
C1053 C 0.68725 0.01402 0.61608 0.0
C1054 C 0.66767 0.0141 0.65875 0.0
C1055 C 0.6463 1.01194 0.62716 0.0
C1056 C 0.6441 1.00933 0.55554 0.0
C1057 C 0.61911 1.00767 0.53461 0.0
C1058 C 0.61237 0.02735 0.48532 0.0
C1059 C 0.61395 0.98439 0.5013 0.0
C1060 C 0.6076 1.00997 0.6055 0.0
C1061 C 0.62358 1.0125 0.65822 0.0
C1062 C 0.61701 0.01573 0.72777 0.0
C1063 C 0.59355 0.01623 0.74392 0.0
C1064 C 0.57683 1.01338 0.69089 0.0
C1065 C 0.58412 1.0102 0.62077 0.0
H1066 H 0.54375 0.66765 0.46195 0.0
H1067 H 0.48819 0.70172 0.57047 0.0
H1068 H 0.48268 0.66762 0.64411 0.0
H1069 H 0.51616 0.61489 0.44908 0.0
H1070 H 0.54164 0.59802 0.46055 0.0
H1071 H 0.54359 0.62621 0.42364 0.0
H1072 H 0.5727 0.63764 0.51965 0.0
H1073 H 0.57091 0.60941 0.55677 0.0
H1074 H 0.56529 0.63397 0.61065 0.0
H1075 H 0.48072 0.62822 0.69891 0.0
H1076 H 0.48242 0.58729 0.72873 0.0
H1077 H 0.53775 0.57835 0.57983 0.0
C1078 C 0.53047 0.66815 0.50134 0.0
C1079 C 0.5165 0.68771 0.50997 0.0
C1080 C 0.49955 0.68736 0.56321 0.0
C1081 C 0.49612 0.66791 0.60518 0.0
C1082 C 0.50972 0.64877 0.59351 0.0
C1083 C 0.52661 0.64879 0.54297 0.0
C1084 C 0.53776 0.62552 0.53714 0.0
C1085 C 0.53458 0.61558 0.46323 0.0
C1086 C 0.56317 0.62671 0.55727 0.0
C1087 C 0.52415 0.61224 0.59112 0.0
C1088 C 0.50826 0.62602 0.6238 0.0
C1089 C 0.49324 0.61736 0.67398 0.0
C1090 C 0.49435 0.59401 0.69063 0.0
C1091 C 0.51025 0.57945 0.65688 0.0
C1092 C 0.52545 0.58891 0.60694 0.0
H1093 H 0.85047 0.51445 0.42253 0.0
H1094 H 0.80439 0.5197 0.59951 0.0
H1095 H 0.83765 0.52152 0.67991 0.0
H1096 H 0.8926 0.4794 0.50456 0.0
H1097 H 0.91655 0.49332 0.46328 0.0
H1098 H 0.88918 0.49283 0.42012 0.0
H1099 H 0.88969 0.53691 0.41122 0.0
H1100 H 0.91708 0.53753 0.45434 0.0
H1101 H 0.8935 0.55361 0.48951 0.0
H1102 H 0.87622 0.51983 0.74132 0.0
H1103 H 0.91667 0.51802 0.77834 0.0
H1104 H 0.93783 0.51643 0.56071 0.0
C1105 C 0.84739 0.51608 0.47824 0.0
C1106 C 0.8248 0.51689 0.50484 0.0
C1107 C 0.8215 0.51922 0.57796 0.0
C1108 C 0.84031 0.52016 0.62397 0.0
C1109 C 0.86235 0.51909 0.59602 0.0
C1110 C 0.86596 0.5174 0.5247 0.0
C1111 C 0.89133 0.51675 0.50789 0.0
C1112 C 0.89779 0.49424 0.47183 0.0
C1113 C 0.89831 0.53743 0.46309 0.0
C1114 C 0.90151 0.51813 0.58089 0.0
C1115 C 0.88449 0.51925 0.63105 0.0
C1116 C 0.88965 0.51936 0.70237 0.0
C1117 C 0.9127 0.51828 0.7229 0.0
C1118 C 0.93048 0.51749 0.67248 0.0
C1119 C 0.92469 0.51756 0.60049 0.0
loop_
_geom_bond_atom_site_label_1
_geom_bond_atom_site_label_2
_geom_bond_distance
_geom_bond_site_symmetry_2
_ccdc_geom_bond_type
C0 C1 1.386 . S
C0 C2 1.397 . S
C0 H24 0.931 . S
C1 C0 1.386 . S
C1 C5 1.397 . S
C2 C0 1.397 . S
C2 C3 1.384 . S
C2 H25 0.930 . S
C3 C2 1.384 . S
C3 C4 1.377 . S
C3 C6 1.481 . S
C4 C3 1.377 . S
C4 C5 1.389 . S
C4 H26 0.929 . S
C5 C1 1.397 . S
C5 C4 1.389 . S
C5 H27 0.931 . S
C6 C3 1.481 . S
C6 C7 1.387 . S
C6 C11 1.390 . S
C7 C6 1.387 . S
C7 C8 1.401 . S
C7 H28 0.930 . S
C8 C7 1.401 . S
C8 C9 1.376 . S
C8 C17 1.511 . S
C9 C8 1.376 . S
C9 C10 1.392 . S
C9 H30 0.931 . S
C10 C9 1.392 . S
C10 C11 1.361 . S
C10 C12 1.500 . S
C11 C6 1.390 . S
C11 C10 1.361 . S
C11 H29 0.931 . S
C12 C10 1.500 . S
C12 C13 1.371 . S
C12 C14 1.365 . S
C13 C12 1.371 . S
C13 C23 1.386 . S
C13 H31 0.931 . S
C14 C12 1.365 . S
C14 C15 1.409 . S
C14 H32 0.929 . S
C15 C14 1.409 . S
C15 C16 1.380 . S
C15 H33 0.930 . S
C16 C15 1.380 . S
C16 C23 1.357 . S
C17 C8 1.511 . S
C17 C18 1.341 . S
C17 C19 1.371 . S
C18 C17 1.341 . S
C18 C22 1.394 . S
C18 H34 0.930 . S
C19 C17 1.371 . S
C19 C20 1.392 . S
C19 H35 0.931 . S
C20 C19 1.392 . S
C20 C21 1.331 . S
C20 H38 0.932 . S
C21 C20 1.331 . S
C21 C22 1.336 . S
C22 C18 1.394 . S
C22 C21 1.336 . S
C22 H37 0.929 . S
C23 C13 1.386 . S
C23 C16 1.357 . S
C23 H36 0.928 . S
H24 C0 0.931 . S
H25 C2 0.930 . S
H26 C4 0.929 . S
H27 C5 0.931 . S
H28 C7 0.930 . S
H29 C11 0.931 . S
H30 C9 0.931 . S
H31 C13 0.931 . S
H32 C14 0.929 . S
H33 C15 0.930 . S
H34 C18 0.930 . S
H35 C19 0.931 . S
H36 C23 0.928 . S
H37 C22 0.929 . S
H38 C20 0.932 . S
C39 C40 1.394 . S
C39 C41 1.397 . S
C39 H63 0.931 . S
C40 C39 1.394 . S
C40 C44 1.389 1_655 S
C41 C39 1.397 . S
C41 C42 1.389 . S
C41 H64 0.930 . S
C42 C41 1.389 . S
C42 C43 1.373 1_655 S
C42 C45 1.480 . S
C43 C42 1.373 1_455 S
C43 C44 1.389 . S
C43 H65 0.929 . S
C44 C40 1.389 1_455 S
C44 C43 1.389 . S
C44 H66 0.931 . S
C45 C42 1.480 . S
C45 C46 1.388 . S
C45 C50 1.390 . S
C46 C45 1.388 . S
C46 C47 1.402 . S
C46 H67 0.930 . S
C47 C46 1.402 . S
C47 C48 1.376 . S
C47 C56 1.513 . S
C48 C47 1.376 . S
C48 C49 1.392 . S
C48 H69 0.934 . S
C49 C48 1.392 . S
C49 C50 1.361 . S
C49 C51 1.499 1_655 S
C50 C45 1.390 . S
C50 C49 1.361 . S
C50 H68 0.931 . S
C51 C49 1.499 1_455 S
C51 C52 1.362 1_455 S
C51 C53 1.374 . S
C52 C51 1.362 1_655 S
C52 C62 1.386 . S
C52 H70 0.931 . S
C53 C51 1.374 . S
C53 C54 1.409 . S
C53 H71 0.929 . S
C54 C53 1.409 . S
C54 C55 1.379 . S
C54 H72 0.930 . S
C55 C54 1.379 . S
C55 C62 1.358 1_455 S
C56 C47 1.513 . S
C56 C57 1.341 . S
C56 C58 1.371 1_655 S
C57 C56 1.341 . S
C57 C61 1.394 . S
C57 H73 0.930 . S
C58 C56 1.371 1_455 S
C58 C59 1.392 . S
C58 H74 0.931 . S
C59 C58 1.392 . S
C59 C60 1.322 1_455 S
C59 H77 0.932 . S
C60 C59 1.322 1_655 S
C60 C61 1.345 . S
C61 C57 1.394 . S
C61 C60 1.345 . S
C61 H76 0.929 . S
C62 C52 1.386 . S
C62 C55 1.358 1_655 S
C62 H75 0.928 . S
H63 C39 0.931 . S
H64 C41 0.930 . S
H65 C43 0.929 . S
H66 C44 0.931 . S
H67 C46 0.930 . S
H68 C50 0.931 . S
H69 C48 0.934 . S
H70 C52 0.931 . S
H71 C53 0.929 . S
H72 C54 0.930 . S
H73 C57 0.930 . S
H74 C58 0.931 . S
H75 C62 0.928 . S
H76 C61 0.929 . S
H77 C59 0.932 . S
C78 C79 1.394 . S
C78 C80 1.397 . S
C78 H102 0.931 . S
C79 C78 1.394 . S
C79 C83 1.389 1_565 S
C80 C78 1.397 . S
C80 C81 1.389 . S
C80 H103 0.930 . S
C81 C80 1.389 . S
C81 C82 1.373 1_565 S
C81 C84 1.481 . S
C82 C81 1.373 1_545 S
C82 C83 1.389 . S
C82 H104 0.929 . S
C83 C79 1.389 1_545 S
C83 C82 1.389 . S
C83 H105 0.931 . S
C84 C81 1.481 . S
C84 C85 1.388 . S
C84 C89 1.390 . S
C85 C84 1.388 . S
C85 C86 1.402 . S
C85 H106 0.930 . S
C86 C85 1.402 . S
C86 C87 1.376 . S
C86 C95 1.513 . S
C87 C86 1.376 . S
C87 C88 1.392 . S
C87 H108 0.934 . S
C88 C87 1.392 . S
C88 C89 1.361 . S
C88 C90 1.499 1_565 S
C89 C84 1.390 . S
C89 C88 1.361 . S
C89 H107 0.931 . S
C90 C88 1.499 1_545 S
C90 C91 1.362 1_545 S
C90 C92 1.374 . S
C91 C90 1.362 1_565 S
C91 C101 1.386 . S
C91 H109 0.931 . S
C92 C90 1.374 . S
C92 C93 1.409 . S
C92 H110 0.929 . S
C93 C92 1.409 . S
C93 C94 1.379 . S
C93 H111 0.930 . S
C94 C93 1.379 . S
C94 C101 1.359 1_545 S
C95 C86 1.513 . S
C95 C96 1.341 . S
C95 C97 1.371 1_565 S
C96 C95 1.341 . S
C96 C100 1.394 . S
C96 H112 0.930 . S
C97 C95 1.371 1_545 S
C97 C98 1.392 . S
C97 H113 0.931 . S
C98 C97 1.392 . S
C98 C99 1.322 1_545 S
C98 H116 0.932 . S
C99 C98 1.322 1_565 S
C99 C100 1.345 . S
C100 C96 1.394 . S
C100 C99 1.345 . S
C100 H115 0.929 . S
C101 C91 1.386 . S
C101 C94 1.359 1_565 S
C101 H114 0.928 . S
H102 C78 0.931 . S
H103 C80 0.930 . S
H104 C82 0.929 . S
H105 C83 0.931 . S
H106 C85 0.930 . S
H107 C89 0.931 . S
H108 C87 0.934 . S
H109 C91 0.931 . S
H110 C92 0.929 . S
H111 C93 0.930 . S
H112 C96 0.930 . S
H113 C97 0.931 . S
H114 C101 0.928 . S
H115 C100 0.929 . S
H116 C98 0.932 . S
C117 C118 1.386 . S
C117 C119 1.397 . S
C117 H141 0.931 . S
C118 C117 1.386 . S
C118 C122 1.397 . S
C119 C117 1.397 . S
C119 C120 1.384 . S
C119 H142 0.930 . S
C120 C119 1.384 . S
C120 C121 1.377 . S
C120 C123 1.481 . S
C121 C120 1.377 . S
C121 C122 1.389 . S
C121 H143 0.929 . S
C122 C118 1.397 . S
C122 C121 1.389 . S
C122 H144 0.931 . S
C123 C120 1.481 . S
C123 C124 1.387 . S
C123 C128 1.390 . S
C124 C123 1.387 . S
C124 C125 1.401 . S
C124 H145 0.930 . S
C125 C124 1.401 . S
C125 C126 1.376 . S
C125 C134 1.511 . S
C126 C125 1.376 . S
C126 C127 1.392 . S
C126 H147 0.931 . S
C127 C126 1.392 . S
C127 C128 1.361 . S
C127 C129 1.500 . S
C128 C123 1.390 . S
C128 C127 1.361 . S
C128 H146 0.931 . S
C129 C127 1.500 . S
C129 C130 1.371 . S
C129 C131 1.365 . S
C130 C129 1.371 . S
C130 C140 1.386 . S
C130 H148 0.931 . S
C131 C129 1.365 . S
C131 C132 1.409 . S
C131 H149 0.929 . S
C132 C131 1.409 . S
C132 C133 1.380 . S
C132 H150 0.930 . S
C133 C132 1.380 . S
C133 C140 1.357 . S
C134 C125 1.511 . S
C134 C135 1.341 . S
C134 C136 1.371 . S
C135 C134 1.341 . S
C135 C139 1.394 . S
C135 H151 0.930 . S
C136 C134 1.371 . S
C136 C137 1.392 . S
C136 H152 0.931 . S
C137 C136 1.392 . S
C137 C138 1.331 . S
C137 H155 0.932 . S
C138 C137 1.331 . S
C138 C139 1.336 . S
C139 C135 1.394 . S
C139 C138 1.336 . S
C139 H154 0.929 . S
C140 C130 1.386 . S
C140 C133 1.357 . S
C140 H153 0.928 . S
H141 C117 0.931 . S
H142 C119 0.930 . S
H143 C121 0.929 . S
H144 C122 0.931 . S
H145 C124 0.930 . S
H146 C128 0.931 . S
H147 C126 0.931 . S
H148 C130 0.931 . S
H149 C131 0.929 . S
H150 C132 0.930 . S
H151 C135 0.930 . S
H152 C136 0.931 . S
H153 C140 0.928 . S
H154 C139 0.929 . S
H155 C137 0.932 . S
C156 C157 1.386 . S
C156 C158 1.397 . S
C156 H180 0.931 . S
C157 C156 1.386 . S
C157 C161 1.397 . S
C158 C156 1.397 . S
C158 C159 1.384 . S
C158 H181 0.930 . S
C159 C158 1.384 . S
C159 C160 1.377 . S
C159 C162 1.481 . S
C160 C159 1.377 . S
C160 C161 1.389 . S
C160 H182 0.929 . S
C161 C157 1.397 . S
C161 C160 1.389 . S
C161 H183 0.931 . S
C162 C159 1.481 . S
C162 C163 1.387 . S
C162 C167 1.390 . S
C163 C162 1.387 . S
C163 C164 1.401 . S
C163 H184 0.930 . S
C164 C163 1.401 . S
C164 C165 1.376 . S
C164 C173 1.511 . S
C165 C164 1.376 . S
C165 C166 1.392 1_554 S
C165 H186 0.931 1_554 S
C166 C165 1.392 1_556 S
C166 C167 1.361 1_556 S
C166 C168 1.500 . S
C167 C162 1.390 . S
C167 C166 1.361 1_554 S
C167 H185 0.931 . S
C168 C166 1.500 . S
C168 C169 1.371 . S
C168 C170 1.365 . S
C169 C168 1.371 . S
C169 C179 1.386 . S
C169 H187 0.931 . S
C170 C168 1.365 . S
C170 C171 1.409 . S
C170 H188 0.929 . S
C171 C170 1.409 . S
C171 C172 1.380 . S
C171 H189 0.930 . S
C172 C171 1.380 . S
C172 C179 1.357 . S
C173 C164 1.511 . S
C173 C174 1.341 . S
C173 C175 1.371 . S
C174 C173 1.341 . S
C174 C178 1.394 . S
C174 H190 0.930 . S
C175 C173 1.371 . S
C175 C176 1.392 . S
C175 H191 0.931 1_554 S
C176 C175 1.392 . S
C176 C177 1.331 . S
C176 H194 0.932 . S
C177 C176 1.331 . S
C177 C178 1.336 . S
C178 C174 1.394 . S
C178 C177 1.336 . S
C178 H193 0.929 . S
C179 C169 1.386 . S
C179 C172 1.357 . S
C179 H192 0.928 . S
H180 C156 0.931 . S
H181 C158 0.930 . S
H182 C160 0.929 . S
H183 C161 0.931 . S
H184 C163 0.930 . S
H185 C167 0.931 . S
H186 C165 0.931 1_556 S
H187 C169 0.931 . S
H188 C170 0.929 . S
H189 C171 0.930 . S
H190 C174 0.930 . S
H191 C175 0.931 1_556 S
H192 C179 0.928 . S
H193 C178 0.929 . S
H194 C176 0.932 . S
C195 C196 1.387 . S
C195 C197 1.397 . S
C195 H219 0.931 . S
C196 C195 1.387 . S
C196 C200 1.396 1_655 S
C197 C195 1.397 . S
C197 C198 1.382 . S
C197 H220 0.930 . S
C198 C197 1.382 . S
C198 C199 1.380 1_655 S
C198 C201 1.480 . S
C199 C198 1.380 1_455 S
C199 C200 1.389 . S
C199 H221 0.929 . S
C200 C196 1.396 1_455 S
C200 C199 1.389 . S
C200 H222 0.931 . S
C201 C198 1.480 . S
C201 C202 1.388 . S
C201 C206 1.390 . S
C202 C201 1.388 . S
C202 C203 1.402 . S
C202 H223 0.930 . S
C203 C202 1.402 . S
C203 C204 1.376 . S
C203 C212 1.512 . S
C204 C203 1.376 . S
C204 C205 1.392 1_654 S
C204 H225 0.933 1_554 S
C205 C204 1.392 1_456 S
C205 C206 1.361 1_456 S
C205 C207 1.499 . S
C206 C201 1.390 . S
C206 C205 1.361 1_654 S
C206 H224 0.931 . S
C207 C205 1.499 . S
C207 C208 1.357 1_455 S
C207 C209 1.380 . S
C208 C207 1.357 1_655 S
C208 C218 1.386 . S
C208 H226 0.931 . S
C209 C207 1.380 . S
C209 C210 1.409 . S
C209 H227 0.929 . S
C210 C209 1.409 . S
C210 C211 1.384 . S
C210 H228 0.930 . S
C211 C210 1.384 . S
C211 C218 1.353 1_455 S
C212 C203 1.512 . S
C212 C213 1.341 . S
C212 C214 1.371 1_655 S
C213 C212 1.341 . S
C213 C217 1.394 . S
C213 H229 0.930 . S
C214 C212 1.371 1_455 S
C214 C215 1.392 . S
C214 H230 0.931 1_554 S
C215 C214 1.392 . S
C215 C216 1.326 1_455 S
C215 H233 0.932 . S
C216 C215 1.326 1_655 S
C216 C217 1.341 . S
C217 C213 1.394 . S
C217 C216 1.341 . S
C217 H232 0.929 . S
C218 C208 1.386 . S
C218 C211 1.353 1_655 S
C218 H231 0.928 . S
H219 C195 0.931 . S
H220 C197 0.930 . S
H221 C199 0.929 . S
H222 C200 0.931 . S
H223 C202 0.930 . S
H224 C206 0.931 . S
H225 C204 0.933 1_556 S
H226 C208 0.931 . S
H227 C209 0.929 . S
H228 C210 0.930 . S
H229 C213 0.930 . S
H230 C214 0.931 1_556 S
H231 C218 0.928 . S
H232 C217 0.929 . S
H233 C215 0.932 . S
C234 C235 1.387 . S
C234 C236 1.397 . S
C234 H258 0.931 . S
C235 C234 1.387 . S
C235 C239 1.396 1_565 S
C236 C234 1.397 . S
C236 C237 1.382 . S
C236 H259 0.930 . S
C237 C236 1.382 . S
C237 C238 1.380 1_565 S
C237 C240 1.480 . S
C238 C237 1.380 1_545 S
C238 C239 1.389 . S
C238 H260 0.929 . S
C239 C235 1.396 1_545 S
C239 C238 1.389 . S
C239 H261 0.931 . S
C240 C237 1.480 . S
C240 C241 1.388 . S
C240 C245 1.390 . S
C241 C240 1.388 . S
C241 C242 1.402 . S
C241 H262 0.930 . S
C242 C241 1.402 . S
C242 C243 1.376 . S
C242 C251 1.512 . S
C243 C242 1.376 . S
C243 C244 1.392 1_564 S
C243 H264 0.933 1_554 S
C244 C243 1.392 1_546 S
C244 C245 1.361 1_546 S
C244 C246 1.499 . S
C245 C240 1.390 . S
C245 C244 1.361 1_564 S
C245 H263 0.931 . S
C246 C244 1.499 . S
C246 C247 1.357 1_545 S
C246 C248 1.380 . S
C247 C246 1.357 1_565 S
C247 C257 1.386 . S
C247 H265 0.931 . S
C248 C246 1.380 . S
C248 C249 1.409 . S
C248 H266 0.929 . S
C249 C248 1.409 . S
C249 C250 1.384 . S
C249 H267 0.930 . S
C250 C249 1.384 . S
C250 C257 1.353 1_545 S
C251 C242 1.512 . S
C251 C252 1.341 . S
C251 C253 1.371 1_565 S
C252 C251 1.341 . S
C252 C256 1.394 . S
C252 H268 0.930 . S
C253 C251 1.371 1_545 S
C253 C254 1.392 . S
C253 H269 0.931 1_554 S
C254 C253 1.392 . S
C254 C255 1.326 1_545 S
C254 H272 0.932 . S
C255 C254 1.326 1_565 S
C255 C256 1.341 . S
C256 C252 1.394 . S
C256 C255 1.341 . S
C256 H271 0.929 . S
C257 C247 1.386 . S
C257 C250 1.353 1_565 S
C257 H270 0.928 . S
H258 C234 0.931 . S
H259 C236 0.930 . S
H260 C238 0.929 . S
H261 C239 0.931 . S
H262 C241 0.930 . S
H263 C245 0.931 . S
H264 C243 0.933 1_556 S
H265 C247 0.931 . S
H266 C248 0.929 . S
H267 C249 0.930 . S
H268 C252 0.930 . S
H269 C253 0.931 1_556 S
H270 C257 0.928 . S
H271 C256 0.929 . S
H272 C254 0.932 . S
C273 C274 1.386 . S
C273 C275 1.397 . S
C273 H297 0.931 . S
C274 C273 1.386 . S
C274 C278 1.397 . S
C275 C273 1.397 . S
C275 C276 1.384 . S
C275 H298 0.930 . S
C276 C275 1.384 . S
C276 C277 1.377 . S
C276 C279 1.481 . S
C277 C276 1.377 . S
C277 C278 1.389 . S
C277 H299 0.929 . S
C278 C274 1.397 . S
C278 C277 1.389 . S
C278 H300 0.931 . S
C279 C276 1.481 . S
C279 C280 1.387 1_556 S
C279 C284 1.390 1_556 S
C280 C279 1.387 1_554 S
C280 C281 1.401 . S
C280 H301 0.930 1_554 S
C281 C280 1.401 . S
C281 C282 1.376 . S
C281 C290 1.511 . S
C282 C281 1.376 . S
C282 C283 1.392 . S
C282 H303 0.931 . S
C283 C282 1.392 . S
C283 C284 1.361 . S
C283 C285 1.500 . S
C284 C279 1.390 1_554 S
C284 C283 1.361 . S
C284 H302 0.931 . S
C285 C283 1.500 . S
C285 C286 1.371 . S
C285 C287 1.365 . S
C286 C285 1.371 . S
C286 C296 1.386 . S
C286 H304 0.931 . S
C287 C285 1.365 . S
C287 C288 1.409 . S
C287 H305 0.929 . S
C288 C287 1.409 . S
C288 C289 1.380 . S
C288 H306 0.930 . S
C289 C288 1.380 . S
C289 C296 1.357 . S
C290 C281 1.511 . S
C290 C291 1.341 . S
C290 C292 1.371 . S
C291 C290 1.341 . S
C291 C295 1.394 . S
C291 H307 0.916 1_554 S
C292 C290 1.371 . S
C292 C293 1.392 . S
C292 H308 0.931 . S
C293 C292 1.392 . S
C293 C294 1.331 . S
C293 H311 0.932 . S
C294 C293 1.331 . S
C294 C295 1.336 . S
C295 C291 1.394 . S
C295 C294 1.336 . S
C295 H310 0.929 . S
C296 C286 1.386 . S
C296 C289 1.357 . S
C296 H309 0.928 . S
H297 C273 0.931 . S
H298 C275 0.930 . S
H299 C277 0.929 . S
H300 C278 0.931 . S
H301 C280 0.930 1_556 S
H302 C284 0.931 . S
H303 C282 0.931 . S
H304 C286 0.931 . S
H305 C287 0.929 . S
H306 C288 0.930 . S
H307 C291 0.916 1_556 S
H308 C292 0.931 . S
H309 C296 0.928 . S
H310 C295 0.929 . S
H311 C293 0.932 . S
C312 Eu313 2.835 . S
C312 C314 1.500 . S
C312 O332 1.257 . S
C312 O333 1.260 . S
Eu313 C312 2.835 . S
Eu313 O332 2.473 . S
Eu313 O333 2.480 . S
Eu313 O334 2.430 . S
Eu313 O335 2.670 1_545 S
Eu313 O336 2.394 . S
Eu313 O341 2.355 1_655 S
Eu313 O343 2.374 1_545 S
C314 C312 1.500 . S
C314 C315 1.377 . S
C314 C319 1.377 . S
C315 C314 1.377 . S
C315 C316 1.395 . S
C315 H344 0.931 . S
C316 C315 1.395 . S
C316 C317 1.383 . S
C316 H345 0.931 . S
C317 C316 1.383 . S
C317 C318 1.394 . S
C318 C317 1.394 . S
C318 C319 1.378 . S
C318 H346 0.931 1_655 S
C319 C314 1.377 . S
C319 C318 1.378 . S
C319 H347 0.931 1_655 S
C320 O334 1.286 . S
C320 O335 1.251 1_545 S
C321 O336 1.251 1_455 S
C321 O337 1.251 . S
C322 Eu323 2.835 . S
C322 C324 1.500 . S
C322 O338 1.257 . S
C322 O339 1.260 . S
Eu323 C322 2.835 . S
Eu323 O335 2.355 1_455 S
Eu323 O337 2.374 1_565 S
Eu323 O338 2.473 . S
Eu323 O339 2.480 . S
Eu323 O340 2.430 . S
Eu323 O341 2.670 1_565 S
Eu323 O342 2.394 . S
C324 C322 1.500 . S
C324 C325 1.377 . S
C324 C329 1.377 . S
C325 C324 1.377 . S
C325 C326 1.395 . S
C325 H348 0.931 . S
C326 C325 1.395 . S
C326 C327 1.383 . S
C326 H349 0.931 . S
C327 C326 1.383 . S
C327 C328 1.394 . S
C328 C327 1.394 . S
C328 C329 1.378 . S
C328 H350 0.931 1_455 S
C329 C324 1.377 . S
C329 C328 1.378 . S
C329 H351 0.931 1_455 S
C330 O340 1.280 . S
C330 O341 1.255 1_565 S
C331 O342 1.251 1_655 S
C331 O343 1.251 . S
O332 C312 1.257 . S
O332 Eu313 2.473 . S
O333 C312 1.260 . S
O333 Eu313 2.480 . S
O334 Eu313 2.430 . S
O334 C320 1.286 . S
O335 Eu313 2.670 1_565 S
O335 C320 1.251 1_565 S
O335 Eu323 2.355 1_655 S
O336 Eu313 2.394 . S
O336 C321 1.251 1_655 S
O337 C321 1.251 . S
O337 Eu323 2.374 1_545 S
O338 C322 1.257 . S
O338 Eu323 2.473 . S
O339 C322 1.260 . S
O339 Eu323 2.480 . S
O340 Eu323 2.430 . S
O340 C330 1.280 . S
O341 Eu313 2.355 1_455 S
O341 Eu323 2.670 1_545 S
O341 C330 1.255 1_545 S
O342 Eu323 2.394 . S
O342 C331 1.251 1_455 S
O343 Eu313 2.374 1_565 S
O343 C331 1.251 . S
H344 C315 0.931 . S
H345 C316 0.931 . S
H346 C318 0.931 1_455 S
H347 C319 0.931 1_455 S
H348 C325 0.931 . S
H349 C326 0.931 . S
H350 C328 0.931 1_655 S
H351 C329 0.931 1_655 S
C352 Eu353 2.835 . S
C352 C354 1.500 . S
C352 O372 1.257 . S
C352 O373 1.260 . S
Eu353 C352 2.835 . S
Eu353 O372 2.473 . S
Eu353 O373 2.480 . S
Eu353 O374 2.430 . S
Eu353 O375 2.670 . S
Eu353 O376 2.394 . S
Eu353 O381 2.355 1_565 S
Eu353 O383 2.374 . S
C354 C352 1.500 . S
C354 C355 1.377 . S
C354 C359 1.377 . S
C355 C354 1.377 . S
C355 C356 1.395 . S
C355 H384 0.931 . S
C356 C355 1.395 . S
C356 C357 1.383 . S
C356 H385 0.931 . S
C357 C356 1.383 . S
C357 C358 1.394 . S
C358 C357 1.394 . S
C358 C359 1.378 . S
C358 H386 0.931 1_565 S
C359 C354 1.377 . S
C359 C358 1.378 . S
C359 H387 0.931 1_565 S
C360 O374 1.259 . S
C360 O375 1.270 . S
C361 O376 1.251 1_545 S
C361 O377 1.251 . S
C362 Eu363 2.835 . S
C362 C364 1.500 . S
C362 O378 1.257 . S
C362 O379 1.260 . S
Eu363 C362 2.835 . S
Eu363 O375 2.355 1_545 S
Eu363 O377 2.374 . S
Eu363 O378 2.473 . S
Eu363 O379 2.480 . S
Eu363 O380 2.430 . S
Eu363 O381 2.670 . S
Eu363 O382 2.394 . S
C364 C362 1.500 . S
C364 C365 1.377 . S
C364 C369 1.377 . S
C365 C364 1.377 . S
C365 C366 1.395 . S
C365 H388 0.931 . S
C366 C365 1.395 . S
C366 C367 1.383 . S
C366 H389 0.931 . S
C367 C366 1.383 . S
C367 C368 1.394 . S
C368 C367 1.394 . S
C368 C369 1.378 . S
C368 H390 0.931 1_545 S
C369 C364 1.377 . S
C369 C368 1.378 . S
C369 H391 0.931 1_545 S
C370 O380 1.259 . S
C370 O381 1.270 . S
C371 O382 1.251 1_565 S
C371 O383 1.251 . S
O372 C352 1.257 . S
O372 Eu353 2.473 . S
O373 C352 1.260 . S
O373 Eu353 2.480 . S
O374 Eu353 2.430 . S
O374 C360 1.259 . S
O375 Eu353 2.670 . S
O375 C360 1.270 . S
O375 Eu363 2.355 1_565 S
O376 Eu353 2.394 . S
O376 C361 1.251 1_565 S
O377 C361 1.251 . S
O377 Eu363 2.374 . S
O378 C362 1.257 . S
O378 Eu363 2.473 . S
O379 C362 1.260 . S
O379 Eu363 2.480 . S
O380 Eu363 2.430 . S
O380 C370 1.259 . S
O381 Eu353 2.355 1_545 S
O381 Eu363 2.670 . S
O381 C370 1.270 . S
O382 Eu363 2.394 . S
O382 C371 1.251 1_545 S
O383 Eu353 2.374 . S
O383 C371 1.251 . S
H384 C355 0.931 . S
H385 C356 0.931 . S
H386 C358 0.931 1_545 S
H387 C359 0.931 1_545 S
H388 C365 0.931 . S
H389 C366 0.931 . S
H390 C368 0.931 1_565 S
H391 C369 0.931 1_565 S
C392 Eu393 2.835 . S
C392 C394 1.500 . S
C392 O412 1.257 . S
C392 O413 1.260 . S
Eu393 C392 2.835 . S
Eu393 O412 2.473 . S
Eu393 O413 2.480 . S
Eu393 O414 2.430 . S
Eu393 O415 2.670 . S
Eu393 O416 2.394 . S
Eu393 O421 2.355 . S
Eu393 O423 2.374 . S
C394 C392 1.500 . S
C394 C395 1.377 . S
C394 C399 1.377 . S
C395 C394 1.377 . S
C395 C396 1.395 . S
C395 H424 0.931 . S
C396 C395 1.395 . S
C396 C397 1.383 . S
C396 H425 0.931 . S
C397 C396 1.383 . S
C397 C398 1.394 . S
C398 C397 1.394 . S
C398 C399 1.378 . S
C398 H426 0.931 . S
C399 C394 1.377 . S
C399 C398 1.378 . S
C399 H427 0.931 . S
C400 O414 1.259 . S
C400 O415 1.270 . S
C401 O416 1.251 . S
C401 O417 1.251 . S
C402 Eu403 2.835 . S
C402 C404 1.500 . S
C402 O418 1.257 . S
C402 O419 1.260 . S
Eu403 C402 2.835 . S
Eu403 O415 2.355 . S
Eu403 O417 2.374 . S
Eu403 O418 2.473 . S
Eu403 O419 2.480 . S
Eu403 O420 2.430 . S
Eu403 O421 2.670 . S
Eu403 O422 2.394 . S
C404 C402 1.500 . S
C404 C405 1.377 . S
C404 C409 1.377 . S
C405 C404 1.377 . S
C405 C406 1.395 . S
C405 H428 0.931 . S
C406 C405 1.395 . S
C406 C407 1.383 . S
C406 H429 0.931 . S
C407 C406 1.383 . S
C407 C408 1.394 . S
C408 C407 1.394 . S
C408 C409 1.378 . S
C408 H430 0.931 . S
C409 C404 1.377 . S
C409 C408 1.378 . S
C409 H431 0.931 . S
C410 O420 1.259 . S
C410 O421 1.270 . S
C411 O422 1.251 . S
C411 O423 1.251 . S
O412 C392 1.257 . S
O412 Eu393 2.473 . S
O413 C392 1.260 . S
O413 Eu393 2.480 . S
O414 Eu393 2.430 . S
O414 C400 1.259 . S
O415 Eu393 2.670 . S
O415 C400 1.270 . S
O415 Eu403 2.355 . S
O416 Eu393 2.394 . S
O416 C401 1.251 . S
O417 C401 1.251 . S
O417 Eu403 2.374 . S
O418 C402 1.257 . S
O418 Eu403 2.473 . S
O419 C402 1.260 . S
O419 Eu403 2.480 . S
O420 Eu403 2.430 . S
O420 C410 1.259 . S
O421 Eu393 2.355 . S
O421 Eu403 2.670 . S
O421 C410 1.270 . S
O422 Eu403 2.394 . S
O422 C411 1.251 . S
O423 Eu393 2.374 . S
O423 C411 1.251 . S
H424 C395 0.931 . S
H425 C396 0.931 . S
H426 C398 0.931 . S
H427 C399 0.931 . S
H428 C405 0.931 . S
H429 C406 0.931 . S
H430 C408 0.931 . S
H431 C409 0.931 . S
C432 Eu433 2.835 . S
C432 C434 1.500 . S
C432 O452 1.257 . S
C432 O453 1.260 . S
Eu433 C432 2.835 . S
Eu433 O452 2.473 . S
Eu433 O453 2.480 . S
Eu433 O454 2.430 . S
Eu433 O455 2.670 1_455 S
Eu433 O456 2.394 . S
Eu433 O461 2.355 . S
Eu433 O463 2.374 1_455 S
C434 C432 1.500 . S
C434 C435 1.377 . S
C434 C439 1.377 . S
C435 C434 1.377 . S
C435 C436 1.395 . S
C435 H464 0.931 . S
C436 C435 1.395 . S
C436 C437 1.383 . S
C436 H465 0.931 . S
C437 C436 1.383 . S
C437 C438 1.394 . S
C438 C437 1.394 . S
C438 C439 1.378 . S
C438 H466 0.931 . S
C439 C434 1.377 . S
C439 C438 1.378 . S
C439 H467 0.931 . S
C440 O454 1.267 . S
C440 O455 1.264 1_455 S
C441 O456 1.251 . S
C441 O457 1.251 . S
C442 Eu443 2.835 . S
C442 C444 1.500 . S
C442 O458 1.257 . S
C442 O459 1.260 . S
Eu443 C442 2.835 . S
Eu443 O455 2.355 . S
Eu443 O457 2.374 1_655 S
Eu443 O458 2.473 . S
Eu443 O459 2.480 . S
Eu443 O460 2.430 . S
Eu443 O461 2.670 1_655 S
Eu443 O462 2.394 . S
C444 C442 1.500 . S
C444 C445 1.377 . S
C444 C449 1.377 . S
C445 C444 1.377 . S
C445 C446 1.395 . S
C445 H468 0.931 . S
C446 C445 1.395 . S
C446 C447 1.383 . S
C446 H469 0.931 . S
C447 C446 1.383 . S
C447 C448 1.394 . S
C448 C447 1.394 . S
C448 C449 1.378 . S
C448 H470 0.931 . S
C449 C444 1.377 . S
C449 C448 1.378 . S
C449 H471 0.931 . S
C450 O460 1.262 . S
C450 O461 1.268 1_655 S
C451 O462 1.251 . S
C451 O463 1.251 . S
O452 C432 1.257 . S
O452 Eu433 2.473 . S
O453 C432 1.260 . S
O453 Eu433 2.480 . S
O454 Eu433 2.430 . S
O454 C440 1.267 . S
O455 Eu433 2.670 1_655 S
O455 C440 1.264 1_655 S
O455 Eu443 2.355 . S
O456 Eu433 2.394 . S
O456 C441 1.251 . S
O457 C441 1.251 . S
O457 Eu443 2.374 1_455 S
O458 C442 1.257 . S
O458 Eu443 2.473 . S
O459 C442 1.260 . S
O459 Eu443 2.480 . S
O460 Eu443 2.430 . S
O460 C450 1.262 . S
O461 Eu433 2.355 . S
O461 Eu443 2.670 1_455 S
O461 C450 1.268 1_455 S
O462 Eu443 2.394 . S
O462 C451 1.251 . S
O463 Eu433 2.374 1_655 S
O463 C451 1.251 . S
H464 C435 0.931 . S
H465 C436 0.931 . S
H466 C438 0.931 . S
H467 C439 0.931 . S
H468 C445 0.931 . S
H469 C446 0.931 . S
H470 C448 0.931 . S
H471 C449 0.931 . S
H472 C484 0.930 . S
H473 C486 0.930 . S
H474 C487 0.930 . S
H475 C491 0.959 . S
H476 C491 0.959 . S
H477 C491 0.961 . S
H478 C492 0.960 . S
H479 C492 0.961 . S
H480 C492 0.959 . S
H481 C495 0.929 . S
H482 C496 0.931 . S
H483 C498 0.930 . S
C484 H472 0.930 . S
C484 C485 1.399 1_545 S
C484 C489 1.399 . S
C485 C484 1.399 1_565 S
C485 C486 1.376 . S
C486 H473 0.930 . S
C486 C485 1.376 . S
C486 C487 1.388 . S
C487 H474 0.930 . S
C487 C486 1.388 . S
C487 C488 1.390 . S
C488 C487 1.390 . S
C488 C489 1.394 1_565 S
C488 C494 1.465 . S
C489 C484 1.399 . S
C489 C488 1.394 1_545 S
C489 C490 1.516 . S
C490 C489 1.516 . S
C490 C491 1.502 . S
C490 C492 1.561 . S
C490 C493 1.526 . S
C491 H475 0.959 . S
C491 H476 0.959 . S
C491 H477 0.961 . S
C491 C490 1.502 . S
C492 H478 0.960 . S
C492 H479 0.961 . S
C492 H480 0.959 . S
C492 C490 1.561 . S
C493 C490 1.526 . S
C493 C494 1.396 1_545 S
C493 C498 1.390 . S
C494 C488 1.465 . S
C494 C493 1.396 1_565 S
C494 C495 1.399 . S
C495 H481 0.929 . S
C495 C494 1.399 . S
C495 C496 1.385 . S
C496 H482 0.931 . S
C496 C495 1.385 . S
C496 C497 1.389 . S
C497 C496 1.389 . S
C497 C498 1.387 1_565 S
C498 H483 0.930 . S
C498 C493 1.390 . S
C498 C497 1.387 1_545 S
H499 C511 0.930 . S
H500 C513 0.930 . S
H501 C514 0.930 . S
H502 C518 0.959 . S
H503 C518 0.959 . S
H504 C518 0.961 . S
H505 C519 0.960 . S
H506 C519 0.961 . S
H507 C519 0.959 . S
H508 C522 0.929 . S
H509 C523 0.931 . S
H510 C525 0.930 . S
C511 H499 0.930 . S
C511 C512 1.399 . S
C511 C516 1.399 . S
C512 C511 1.399 . S
C512 C513 1.376 . S
C513 H500 0.930 . S
C513 C512 1.376 . S
C513 C514 1.388 . S
C514 H501 0.930 . S
C514 C513 1.388 . S
C514 C515 1.390 . S
C515 C514 1.390 . S
C515 C516 1.394 . S
C515 C521 1.465 . S
C516 C511 1.399 . S
C516 C515 1.394 . S
C516 C517 1.516 . S
C517 C516 1.516 . S
C517 C518 1.502 . S
C517 C519 1.561 . S
C517 C520 1.526 . S
C518 H502 0.959 . S
C518 H503 0.959 . S
C518 H504 0.961 . S
C518 C517 1.502 . S
C519 H505 0.960 . S
C519 H506 0.961 . S
C519 H507 0.959 . S
C519 C517 1.561 . S
C520 C517 1.526 . S
C520 C521 1.396 . S
C520 C525 1.390 . S
C521 C515 1.465 . S
C521 C520 1.396 . S
C521 C522 1.399 . S
C522 H508 0.929 . S
C522 C521 1.399 . S
C522 C523 1.385 . S
C523 H509 0.931 . S
C523 C522 1.385 . S
C523 C524 1.389 . S
C524 C523 1.389 . S
C524 C525 1.387 . S
C525 H510 0.930 . S
C525 C520 1.390 . S
C525 C524 1.387 . S
H526 C538 0.930 . S
H527 C540 0.930 . S
H528 C541 0.930 . S
H529 C545 0.959 . S
H530 C545 0.959 . S
H531 C545 0.961 . S
H532 C546 0.960 . S
H533 C546 0.961 . S
H534 C546 0.959 . S
H535 C549 0.929 . S
H536 C550 0.931 . S
H537 C552 0.930 . S
C538 H526 0.930 . S
C538 C539 1.399 . S
C538 C543 1.399 . S
C539 C538 1.399 . S
C539 C540 1.376 . S
C540 H527 0.930 . S
C540 C539 1.376 . S
C540 C541 1.388 . S
C541 H528 0.930 . S
C541 C540 1.388 . S
C541 C542 1.390 . S
C542 C541 1.390 . S
C542 C543 1.394 . S
C542 C548 1.465 . S
C543 C538 1.399 . S
C543 C542 1.394 . S
C543 C544 1.516 . S
C544 C543 1.516 . S
C544 C545 1.502 . S
C544 C546 1.561 . S
C544 C547 1.526 . S
C545 H529 0.959 . S
C545 H530 0.959 . S
C545 H531 0.961 . S
C545 C544 1.502 . S
C546 H532 0.960 . S
C546 H533 0.961 . S
C546 H534 0.959 . S
C546 C544 1.561 . S
C547 C544 1.526 . S
C547 C548 1.396 . S
C547 C552 1.390 . S
C548 C542 1.465 . S
C548 C547 1.396 . S
C548 C549 1.399 . S
C549 H535 0.929 . S
C549 C548 1.399 . S
C549 C550 1.385 . S
C550 H536 0.931 . S
C550 C549 1.385 . S
C550 C551 1.389 . S
C551 C550 1.389 . S
C551 C552 1.387 . S
C552 H537 0.930 . S
C552 C547 1.390 . S
C552 C551 1.387 . S
H553 C565 0.930 . S
H554 C567 0.930 . S
H555 C568 0.930 . S
H556 C572 0.959 . S
H557 C572 0.959 . S
H558 C572 0.961 . S
H559 C573 0.960 . S
H560 C573 0.961 . S
H561 C573 0.959 . S
H562 C576 0.929 . S
H563 C577 0.931 . S
H564 C579 0.930 . S
C565 H553 0.930 . S
C565 C566 1.399 1_455 S
C565 C570 1.399 . S
C566 C565 1.399 1_655 S
C566 C567 1.376 . S
C567 H554 0.930 . S
C567 C566 1.376 . S
C567 C568 1.388 . S
C568 H555 0.930 . S
C568 C567 1.388 . S
C568 C569 1.390 . S
C569 C568 1.390 . S
C569 C570 1.394 1_655 S
C569 C575 1.465 . S
C570 C565 1.399 . S
C570 C569 1.394 1_455 S
C570 C571 1.516 . S
C571 C570 1.516 . S
C571 C572 1.502 . S
C571 C573 1.561 1_455 S
C571 C574 1.526 . S
C572 H556 0.959 . S
C572 H557 0.959 . S
C572 H558 0.961 . S
C572 C571 1.502 . S
C573 H559 0.960 . S
C573 H560 0.961 . S
C573 H561 0.959 . S
C573 C571 1.561 1_655 S
C574 C571 1.526 . S
C574 C575 1.396 1_455 S
C574 C579 1.390 . S
C575 C569 1.465 . S
C575 C574 1.396 1_655 S
C575 C576 1.399 . S
C576 H562 0.929 . S
C576 C575 1.399 . S
C576 C577 1.385 . S
C577 H563 0.931 . S
C577 C576 1.385 . S
C577 C578 1.390 . S
C578 C577 1.390 . S
C578 C579 1.386 1_655 S
C579 H564 0.930 . S
C579 C574 1.390 . S
C579 C578 1.386 1_455 S
H580 C592 0.930 . S
H581 C594 0.930 . S
H582 C595 0.930 . S
H583 C599 0.959 . S
H584 C599 0.959 . S
H585 C599 0.961 . S
H586 C600 0.960 . S
H587 C600 0.961 1_556 S
H588 C600 0.959 1_556 S
H589 C603 0.929 . S
H590 C604 0.931 . S
H591 C606 0.930 . S
C592 H580 0.930 . S
C592 C593 1.399 1_565 S
C592 C597 1.399 . S
C593 C592 1.399 1_545 S
C593 C594 1.376 . S
C594 H581 0.930 . S
C594 C593 1.376 . S
C594 C595 1.388 . S
C595 H582 0.930 . S
C595 C594 1.388 . S
C595 C596 1.390 . S
C596 C595 1.390 . S
C596 C597 1.394 1_545 S
C596 C602 1.465 1_554 S
C597 C592 1.399 . S
C597 C596 1.394 1_565 S
C597 C598 1.516 . S
C598 C597 1.516 . S
C598 C599 1.502 . S
C598 C600 1.561 . S
C598 C601 1.526 1_554 S
C599 H583 0.959 . S
C599 H584 0.959 . S
C599 H585 0.961 . S
C599 C598 1.502 . S
C600 H586 0.960 . S
C600 H587 0.961 1_554 S
C600 H588 0.959 1_554 S
C600 C598 1.561 . S
C601 C598 1.526 1_556 S
C601 C602 1.396 1_565 S
C601 C606 1.390 . S
C602 C596 1.465 1_556 S
C602 C601 1.396 1_545 S
C602 C603 1.399 . S
C603 H589 0.929 . S
C603 C602 1.399 . S
C603 C604 1.385 . S
C604 H590 0.931 . S
C604 C603 1.385 . S
C604 C605 1.389 . S
C605 C604 1.389 . S
C605 C606 1.387 1_545 S
C606 H591 0.930 . S
C606 C601 1.390 . S
C606 C605 1.387 1_565 S
H607 C619 0.930 . S
H608 C621 0.930 . S
H609 C622 0.930 . S
H610 C626 0.959 1_554 S
H611 C626 0.959 . S
H612 C626 0.961 1_554 S
H613 C627 0.960 1_554 S
H614 C627 0.961 . S
H615 C627 0.959 . S
H616 C630 0.929 1_554 S
H617 C631 0.931 . S
H618 C633 0.930 . S
C619 H607 0.930 . S
C619 C620 1.399 . S
C619 C624 1.399 . S
C620 C619 1.399 . S
C620 C621 1.376 . S
C621 H608 0.930 . S
C621 C620 1.376 . S
C621 C622 1.388 . S
C622 H609 0.930 . S
C622 C621 1.388 . S
C622 C623 1.390 . S
C623 C622 1.390 . S
C623 C624 1.394 . S
C623 C629 1.465 . S
C624 C619 1.399 . S
C624 C623 1.394 . S
C624 C625 1.502 1_554 S
C625 C624 1.502 1_556 S
C625 C626 1.504 . S
C625 C627 1.566 . S
C625 C628 1.533 . S
C626 H610 0.959 1_556 S
C626 H611 0.959 . S
C626 H612 0.961 1_556 S
C626 C625 1.504 . S
C627 H613 0.960 1_556 S
C627 H614 0.961 . S
C627 H615 0.959 . S
C627 C625 1.566 . S
C628 C625 1.533 . S
C628 C629 1.396 1_556 S
C628 C633 1.390 . S
C629 C623 1.465 . S
C629 C628 1.396 1_554 S
C629 C630 1.399 1_554 S
C630 H616 0.929 1_556 S
C630 C629 1.399 1_556 S
C630 C631 1.385 . S
C631 H617 0.931 . S
C631 C630 1.385 . S
C631 C632 1.389 . S
C632 C631 1.389 . S
C632 C633 1.387 . S
C633 H618 0.930 . S
C633 C628 1.390 . S
C633 C632 1.387 . S
H634 C646 0.930 . S
H635 C648 0.930 . S
H636 C649 0.930 . S
H637 C653 0.959 . S
H638 C653 0.959 . S
H639 C653 0.961 1_554 S
H640 C654 0.960 . S
H641 C654 0.961 1_556 S
H642 C654 0.959 . S
H643 C657 0.929 . S
H644 C658 0.931 . S
H645 C660 0.930 . S
C646 H634 0.930 . S
C646 C647 1.399 . S
C646 C651 1.399 . S
C647 C646 1.399 . S
C647 C648 1.376 . S
C648 H635 0.930 . S
C648 C647 1.376 . S
C648 C649 1.388 . S
C649 H636 0.930 . S
C649 C648 1.388 . S
C649 C650 1.390 . S
C650 C649 1.390 . S
C650 C651 1.394 . S
C650 C656 1.465 . S
C651 C646 1.399 . S
C651 C650 1.394 . S
C651 C652 1.516 . S
C652 C651 1.516 . S
C652 C653 1.502 1_554 S
C652 C654 1.561 . S
C652 C655 1.526 1_554 S
C653 H637 0.959 . S
C653 H638 0.959 . S
C653 H639 0.961 1_556 S
C653 C652 1.502 1_556 S
C654 H640 0.960 . S
C654 H641 0.961 1_554 S
C654 H642 0.959 . S
C654 C652 1.561 . S
C655 C652 1.526 1_556 S
C655 C656 1.396 1_556 S
C655 C660 1.390 . S
C656 C650 1.465 . S
C656 C655 1.396 1_554 S
C656 C657 1.399 1_554 S
C657 H643 0.929 . S
C657 C656 1.399 1_556 S
C657 C658 1.385 . S
C658 H644 0.931 . S
C658 C657 1.385 . S
C658 C659 1.389 . S
C659 C658 1.389 . S
C659 C660 1.387 . S
C660 H645 0.930 . S
C660 C655 1.390 . S
C660 C659 1.387 . S
H661 C673 0.930 . S
H662 C675 0.930 . S
H663 C676 0.930 . S
H664 C680 0.959 . S
H665 C680 0.959 . S
H666 C680 0.961 . S
H667 C681 0.960 . S
H668 C681 0.961 . S
H669 C681 0.959 . S
H670 C684 0.929 . S
H671 C685 0.931 . S
H672 C687 0.926 1_455 S
C673 H661 0.930 . S
C673 C674 1.399 1_455 S
C673 C678 1.399 1_455 S
C674 C673 1.399 1_655 S
C674 C675 1.376 . S
C675 H662 0.930 . S
C675 C674 1.376 . S
C675 C676 1.388 . S
C676 H663 0.930 . S
C676 C675 1.388 . S
C676 C677 1.390 . S
C677 C676 1.390 . S
C677 C678 1.394 . S
C677 C683 1.465 1_554 S
C678 C673 1.399 1_655 S
C678 C677 1.394 . S
C678 C679 1.516 . S
C679 C678 1.516 . S
C679 C680 1.502 1_655 S
C679 C681 1.561 . S
C679 C682 1.526 1_554 S
C680 H664 0.959 . S
C680 H665 0.959 . S
C680 H666 0.961 . S
C680 C679 1.502 1_455 S
C681 H667 0.960 . S
C681 H668 0.961 . S
C681 H669 0.959 . S
C681 C679 1.561 . S
C682 C679 1.526 1_556 S
C682 C683 1.396 . S
C682 C687 1.391 . S
C683 C677 1.465 1_556 S
C683 C682 1.396 . S
C683 C684 1.399 . S
C684 H670 0.929 . S
C684 C683 1.399 . S
C684 C685 1.385 . S
C685 H671 0.931 . S
C685 C684 1.385 . S
C685 C686 1.389 . S
C686 C685 1.389 . S
C686 C687 1.388 . S
C687 H672 0.926 1_655 S
C687 C682 1.391 . S
C687 C686 1.388 . S
H688 C700 0.930 1_455 S
H689 C702 0.930 . S
H690 C703 0.930 . S
H691 C707 0.959 . S
H692 C707 0.959 1_655 S
H693 C707 0.961 . S
H694 C708 0.960 . S
H695 C708 0.961 . S
H696 C708 0.959 . S
H697 C711 0.929 . S
H698 C712 0.931 . S
H699 C714 0.930 . S
C700 H688 0.930 1_655 S
C700 C701 1.399 1_655 S
C700 C705 1.399 . S
C701 C700 1.399 1_455 S
C701 C702 1.376 1_455 S
C702 H689 0.930 . S
C702 C701 1.376 1_655 S
C702 C703 1.388 . S
C703 H690 0.930 . S
C703 C702 1.388 . S
C703 C704 1.390 . S
C704 C703 1.390 . S
C704 C705 1.394 . S
C704 C710 1.465 . S
C705 C700 1.399 . S
C705 C704 1.394 . S
C705 C706 1.516 . S
C706 C705 1.516 . S
C706 C707 1.502 1_655 S
C706 C708 1.561 . S
C706 C709 1.526 . S
C707 H691 0.959 . S
C707 H692 0.959 1_455 S
C707 H693 0.961 . S
C707 C706 1.502 1_455 S
C708 H694 0.960 . S
C708 H695 0.961 . S
C708 H696 0.959 . S
C708 C706 1.561 . S
C709 C706 1.526 . S
C709 C710 1.396 . S
C709 C714 1.390 . S
C710 C704 1.465 . S
C710 C709 1.396 . S
C710 C711 1.399 . S
C711 H697 0.929 . S
C711 C710 1.399 . S
C711 C712 1.385 . S
C712 H698 0.931 . S
C712 C711 1.385 . S
C712 C713 1.389 . S
C713 C712 1.389 . S
C713 C714 1.387 . S
C714 H699 0.930 . S
C714 C709 1.390 . S
C714 C713 1.387 . S
H715 C727 0.930 . S
H716 C729 0.930 . S
H717 C730 0.930 . S
H718 C734 0.959 . S
H719 C734 0.959 . S
H720 C734 0.961 . S
H721 C735 0.960 . S
H722 C735 0.961 . S
H723 C735 0.959 . S
H724 C738 0.929 1_545 S
H725 C739 0.931 . S
H726 C741 0.930 . S
C727 H715 0.930 . S
C727 C728 1.399 1_565 S
C727 C732 1.399 . S
C728 C727 1.399 1_545 S
C728 C729 1.376 . S
C729 H716 0.930 . S
C729 C728 1.376 . S
C729 C730 1.388 . S
C730 H717 0.930 . S
C730 C729 1.388 . S
C730 C731 1.390 1_545 S
C731 C730 1.390 1_565 S
C731 C732 1.394 . S
C731 C737 1.465 . S
C732 C727 1.399 . S
C732 C731 1.394 . S
C732 C733 1.516 . S
C733 C732 1.516 . S
C733 C734 1.502 . S
C733 C735 1.561 . S
C733 C736 1.526 . S
C734 H718 0.959 . S
C734 H719 0.959 . S
C734 H720 0.961 . S
C734 C733 1.502 . S
C735 H721 0.960 . S
C735 H722 0.961 . S
C735 H723 0.959 . S
C735 C733 1.561 . S
C736 C733 1.526 . S
C736 C737 1.396 . S
C736 C741 1.390 . S
C737 C731 1.465 . S
C737 C736 1.396 . S
C737 C738 1.399 . S
C738 H724 0.929 1_565 S
C738 C737 1.399 . S
C738 C739 1.385 . S
C739 H725 0.931 . S
C739 C738 1.385 . S
C739 C740 1.389 . S
C740 C739 1.389 . S
C740 C741 1.387 . S
C741 H726 0.930 . S
C741 C736 1.390 . S
C741 C740 1.387 . S
H742 C754 0.930 . S
H743 C756 0.930 . S
H744 C757 0.930 . S
H745 C761 0.959 . S
H746 C761 0.959 . S
H747 C761 0.961 . S
H748 C762 0.960 . S
H749 C762 0.961 . S
H750 C762 0.959 . S
H751 C765 0.929 . S
H752 C766 0.931 . S
H753 C768 0.930 . S
C754 H742 0.930 . S
C754 C755 1.399 . S
C754 C759 1.399 . S
C755 C754 1.399 . S
C755 C756 1.376 . S
C756 H743 0.930 . S
C756 C755 1.376 . S
C756 C757 1.388 . S
C757 H744 0.930 . S
C757 C756 1.388 . S
C757 C758 1.390 . S
C758 C757 1.390 . S
C758 C759 1.394 . S
C758 C764 1.465 . S
C759 C754 1.399 . S
C759 C758 1.394 . S
C759 C760 1.516 . S
C760 C759 1.516 . S
C760 C761 1.502 . S
C760 C762 1.561 . S
C760 C763 1.526 . S
C761 H745 0.959 . S
C761 H746 0.959 . S
C761 H747 0.961 . S
C761 C760 1.502 . S
C762 H748 0.960 . S
C762 H749 0.961 . S
C762 H750 0.959 . S
C762 C760 1.561 . S
C763 C760 1.526 . S
C763 C764 1.396 . S
C763 C768 1.390 . S
C764 C758 1.465 . S
C764 C763 1.396 . S
C764 C765 1.399 . S
C765 H751 0.929 . S
C765 C764 1.399 . S
C765 C766 1.385 . S
C766 H752 0.931 . S
C766 C765 1.385 . S
C766 C767 1.389 . S
C767 C766 1.389 . S
C767 C768 1.387 . S
C768 H753 0.930 . S
C768 C763 1.390 . S
C768 C767 1.387 . S
H769 C781 0.930 . S
H770 C783 0.930 . S
H771 C784 0.930 . S
H772 C788 0.959 . S
H773 C788 0.959 . S
H774 C788 0.961 . S
H775 C789 0.960 . S
H776 C789 0.961 . S
H777 C789 0.959 . S
H778 C792 0.929 . S
H779 C793 0.931 . S
H780 C795 0.930 . S
C781 H769 0.930 . S
C781 C782 1.399 . S
C781 C786 1.399 . S
C782 C781 1.399 . S
C782 C783 1.376 . S
C783 H770 0.930 . S
C783 C782 1.376 . S
C783 C784 1.388 . S
C784 H771 0.930 . S
C784 C783 1.388 . S
C784 C785 1.390 . S
C785 C784 1.390 . S
C785 C786 1.394 . S
C785 C791 1.465 . S
C786 C781 1.399 . S
C786 C785 1.394 . S
C786 C787 1.516 . S
C787 C786 1.516 . S
C787 C788 1.502 . S
C787 C789 1.561 . S
C787 C790 1.526 . S
C788 H772 0.959 . S
C788 H773 0.959 . S
C788 H774 0.961 . S
C788 C787 1.502 . S
C789 H775 0.960 . S
C789 H776 0.961 . S
C789 H777 0.959 . S
C789 C787 1.561 . S
C790 C787 1.526 . S
C790 C791 1.396 . S
C790 C795 1.390 . S
C791 C785 1.465 . S
C791 C790 1.396 . S
C791 C792 1.399 . S
C792 H778 0.929 . S
C792 C791 1.399 . S
C792 C793 1.385 . S
C793 H779 0.931 . S
C793 C792 1.385 . S
C793 C794 1.389 . S
C794 C793 1.389 . S
C794 C795 1.387 . S
C795 H780 0.930 . S
C795 C790 1.390 . S
C795 C794 1.387 . S
H796 C808 0.930 . S
H797 C810 0.930 . S
H798 C811 0.930 1_556 S
H799 C815 0.959 . S
H800 C815 0.959 . S
H801 C815 0.961 . S
H802 C816 0.960 . S
H803 C816 0.961 . S
H804 C816 0.959 1_556 S
H805 C819 0.929 . S
H806 C820 0.931 . S
H807 C822 0.930 1_554 S
C808 H796 0.930 . S
C808 C809 1.399 1_455 S
C808 C813 1.399 . S
C809 C808 1.399 1_655 S
C809 C810 1.376 . S
C810 H797 0.930 . S
C810 C809 1.376 . S
C810 C811 1.388 . S
C811 H798 0.930 1_554 S
C811 C810 1.388 . S
C811 C812 1.390 1_655 S
C812 C811 1.390 1_455 S
C812 C813 1.394 . S
C812 C818 1.465 1_554 S
C813 C808 1.399 . S
C813 C812 1.394 . S
C813 C814 1.516 . S
C814 C813 1.516 . S
C814 C815 1.502 . S
C814 C816 1.561 . S
C814 C817 1.526 . S
C815 H799 0.959 . S
C815 H800 0.959 . S
C815 H801 0.961 . S
C815 C814 1.502 . S
C816 H802 0.960 . S
C816 H803 0.961 . S
C816 H804 0.959 1_554 S
C816 C814 1.561 . S
C817 C814 1.526 . S
C817 C818 1.396 1_554 S
C817 C822 1.390 1_554 S
C818 C812 1.465 1_556 S
C818 C817 1.396 1_556 S
C818 C819 1.399 1_455 S
C819 H805 0.929 . S
C819 C818 1.399 1_655 S
C819 C820 1.385 1_655 S
C820 H806 0.931 . S
C820 C819 1.385 1_455 S
C820 C821 1.389 . S
C821 C820 1.389 . S
C821 C822 1.387 . S
C822 H807 0.930 1_556 S
C822 C817 1.390 1_556 S
C822 C821 1.387 . S
H823 C835 0.930 . S
H824 C837 0.930 . S
H825 C838 0.930 . S
H826 C842 0.959 . S
H827 C842 0.959 . S
H828 C842 0.961 . S
H829 C843 0.960 . S
H830 C843 0.961 . S
H831 C843 0.959 . S
H832 C846 0.929 . S
H833 C847 0.931 . S
H834 C849 0.958 . S
C835 H823 0.930 . S
C835 C836 1.401 . S
C835 C840 1.399 . S
C836 C835 1.401 . S
C836 C837 1.373 1_565 S
C837 H824 0.930 . S
C837 C836 1.373 1_545 S
C837 C838 1.388 . S
C838 H825 0.930 . S
C838 C837 1.388 . S
C838 C839 1.390 . S
C839 C838 1.390 . S
C839 C840 1.394 1_545 S
C839 C845 1.465 . S
C840 C835 1.399 . S
C840 C839 1.394 1_565 S
C840 C841 1.516 . S
C841 C840 1.516 . S
C841 C842 1.502 1_554 S
C841 C843 1.561 . S
C841 C844 1.527 1_565 S
C842 H826 0.959 . S
C842 H827 0.959 . S
C842 H828 0.961 . S
C842 C841 1.502 1_556 S
C843 H829 0.960 . S
C843 H830 0.961 . S
C843 H831 0.959 . S
C843 C841 1.561 . S
C844 C841 1.527 1_545 S
C844 C845 1.398 . S
C844 C849 1.386 1_554 S
C845 C839 1.465 . S
C845 C844 1.398 . S
C845 C846 1.399 . S
C846 H832 0.929 . S
C846 C845 1.399 . S
C846 C847 1.385 1_554 S
C847 H833 0.931 . S
C847 C846 1.385 1_556 S
C847 C848 1.389 . S
C848 C847 1.389 . S
C848 C849 1.387 . S
C849 H834 0.958 . S
C849 C844 1.386 1_556 S
C849 C848 1.387 . S
H850 C862 0.930 . S
H851 C864 0.930 . S
H852 C865 0.930 . S
H853 C869 0.959 . S
H854 C869 0.959 . S
H855 C869 0.961 . S
H856 C870 0.960 . S
H857 C870 0.961 . S
H858 C870 0.959 . S
H859 C873 0.929 . S
H860 C874 0.931 . S
H861 C876 0.930 1_554 S
C862 H850 0.930 . S
C862 C863 1.399 . S
C862 C867 1.399 . S
C863 C862 1.399 . S
C863 C864 1.376 . S
C864 H851 0.930 . S
C864 C863 1.376 . S
C864 C865 1.388 . S
C865 H852 0.930 . S
C865 C864 1.388 . S
C865 C866 1.390 . S
C866 C865 1.390 . S
C866 C867 1.394 . S
C866 C872 1.465 . S
C867 C862 1.399 . S
C867 C866 1.394 . S
C867 C868 1.516 . S
C868 C867 1.516 . S
C868 C869 1.502 . S
C868 C870 1.561 . S
C868 C871 1.526 . S
C869 H853 0.959 . S
C869 H854 0.959 . S
C869 H855 0.961 . S
C869 C868 1.502 . S
C870 H856 0.960 . S
C870 H857 0.961 . S
C870 H858 0.959 . S
C870 C868 1.561 . S
C871 C868 1.526 . S
C871 C872 1.396 . S
C871 C876 1.390 1_554 S
C872 C866 1.465 . S
C872 C871 1.396 . S
C872 C873 1.399 1_554 S
C873 H859 0.929 . S
C873 C872 1.399 1_556 S
C873 C874 1.385 . S
C874 H860 0.931 . S
C874 C873 1.385 . S
C874 C875 1.389 . S
C875 C874 1.389 . S
C875 C876 1.387 . S
C876 H861 0.930 1_556 S
C876 C871 1.390 1_556 S
C876 C875 1.387 . S
H877 C889 0.930 . S
H878 C891 0.930 . S
H879 C892 0.930 . S
H880 C896 0.959 . S
H881 C896 0.959 . S
H882 C896 0.961 . S
H883 C897 0.960 . S
H884 C897 0.961 1_556 S
H885 C897 0.959 1_556 S
H886 C900 0.929 . S
H887 C901 0.931 . S
H888 C903 0.930 . S
C889 H877 0.930 . S
C889 C890 1.399 . S
C889 C894 1.399 . S
C890 C889 1.399 . S
C890 C891 1.376 . S
C891 H878 0.930 . S
C891 C890 1.376 . S
C891 C892 1.388 . S
C892 H879 0.930 . S
C892 C891 1.388 . S
C892 C893 1.390 . S
C893 C892 1.390 . S
C893 C894 1.394 . S
C893 C899 1.465 1_554 S
C894 C889 1.399 . S
C894 C893 1.394 . S
C894 C895 1.516 . S
C895 C894 1.516 . S
C895 C896 1.502 . S
C895 C897 1.561 . S
C895 C898 1.526 . S
C896 H880 0.959 . S
C896 H881 0.959 . S
C896 H882 0.961 . S
C896 C895 1.502 . S
C897 H883 0.960 . S
C897 H884 0.961 1_554 S
C897 H885 0.959 1_554 S
C897 C895 1.561 . S
C898 C895 1.526 . S
C898 C899 1.396 1_554 S
C898 C903 1.390 1_554 S
C899 C893 1.465 1_556 S
C899 C898 1.396 1_556 S
C899 C900 1.399 . S
C900 H886 0.929 . S
C900 C899 1.399 . S
C900 C901 1.385 . S
C901 H887 0.931 . S
C901 C900 1.385 . S
C901 C902 1.389 . S
C902 C901 1.389 . S
C902 C903 1.387 . S
C903 H888 0.930 . S
C903 C898 1.390 1_556 S
C903 C902 1.387 . S
H904 C916 0.930 . S
H905 C918 0.930 . S
H906 C919 0.930 . S
H907 C923 0.959 . S
H908 C923 0.959 . S
H909 C923 0.961 . S
H910 C924 0.960 . S
H911 C924 0.961 . S
H912 C924 0.959 . S
H913 C927 0.929 . S
H914 C928 0.931 . S
H915 C930 0.930 . S
C916 H904 0.930 . S
C916 C917 1.407 . S
C916 C921 1.399 . S
C917 C916 1.407 . S
C917 C918 1.368 1_455 S
C918 H905 0.930 . S
C918 C917 1.368 1_655 S
C918 C919 1.388 . S
C919 H906 0.930 . S
C919 C918 1.388 . S
C919 C920 1.390 . S
C920 C919 1.390 . S
C920 C921 1.394 1_655 S
C920 C926 1.466 . S
C921 C916 1.399 . S
C921 C920 1.394 1_455 S
C921 C922 1.516 . S
C922 C921 1.516 . S
C922 C923 1.502 . S
C922 C924 1.561 1_455 S
C922 C925 1.526 . S
C923 H907 0.959 . S
C923 H908 0.959 . S
C923 H909 0.961 . S
C923 C922 1.502 . S
C924 H910 0.960 . S
C924 H911 0.961 . S
C924 H912 0.959 . S
C924 C922 1.561 1_655 S
C925 C922 1.526 . S
C925 C926 1.393 1_455 S
C925 C930 1.390 . S
C926 C920 1.466 . S
C926 C925 1.393 1_655 S
C926 C927 1.401 . S
C927 H913 0.929 . S
C927 C926 1.401 . S
C927 C928 1.385 . S
C928 H914 0.931 . S
C928 C927 1.385 . S
C928 C929 1.389 1_655 S
C929 C928 1.389 1_455 S
C929 C930 1.387 . S
C930 H915 0.930 . S
C930 C925 1.390 . S
C930 C929 1.387 . S
H931 C943 0.930 . S
H932 C945 0.930 . S
H933 C946 0.930 . S
H934 C950 0.959 . S
H935 C950 0.959 . S
H936 C950 0.961 . S
H937 C951 0.960 . S
H938 C951 0.961 . S
H939 C951 0.959 . S
H940 C954 0.929 . S
H941 C955 0.931 . S
H942 C957 0.930 . S
C943 H931 0.930 . S
C943 C944 1.399 . S
C943 C948 1.399 . S
C944 C943 1.399 . S
C944 C945 1.376 1_545 S
C945 H932 0.930 . S
C945 C944 1.376 1_565 S
C945 C946 1.388 . S
C946 H933 0.930 . S
C946 C945 1.388 . S
C946 C947 1.390 . S
C947 C946 1.390 . S
C947 C948 1.394 1_565 S
C947 C953 1.465 . S
C948 C943 1.399 . S
C948 C947 1.394 1_545 S
C948 C949 1.516 . S
C949 C948 1.516 . S
C949 C950 1.502 . S
C949 C951 1.561 . S
C949 C952 1.526 . S
C950 H934 0.959 . S
C950 H935 0.959 . S
C950 H936 0.961 . S
C950 C949 1.502 . S
C951 H937 0.960 . S
C951 H938 0.961 . S
C951 H939 0.959 . S
C951 C949 1.561 . S
C952 C949 1.526 . S
C952 C953 1.396 1_545 S
C952 C957 1.390 . S
C953 C947 1.465 . S
C953 C952 1.396 1_565 S
C953 C954 1.399 . S
C954 H940 0.929 . S
C954 C953 1.399 . S
C954 C955 1.385 . S
C955 H941 0.931 . S
C955 C954 1.385 . S
C955 C956 1.389 1_565 S
C956 C955 1.389 1_545 S
C956 C957 1.387 . S
C957 H942 0.930 . S
C957 C952 1.390 . S
C957 C956 1.387 . S
H958 C970 0.930 . S
H959 C972 0.930 . S
H960 C973 0.930 . S
H961 C977 0.959 . S
H962 C977 0.959 . S
H963 C977 0.961 . S
H964 C978 0.960 . S
H965 C978 0.961 . S
H966 C978 0.959 . S
H967 C981 0.929 . S
H968 C982 0.931 . S
H969 C984 0.930 . S
C970 H958 0.930 . S
C970 C971 1.399 . S
C970 C975 1.399 . S
C971 C970 1.399 . S
C971 C972 1.376 . S
C972 H959 0.930 . S
C972 C971 1.376 . S
C972 C973 1.388 . S
C973 H960 0.930 . S
C973 C972 1.388 . S
C973 C974 1.390 . S
C974 C973 1.390 . S
C974 C975 1.394 . S
C974 C980 1.465 . S
C975 C970 1.399 . S
C975 C974 1.394 . S
C975 C976 1.516 . S
C976 C975 1.516 . S
C976 C977 1.502 . S
C976 C978 1.561 . S
C976 C979 1.526 . S
C977 H961 0.959 . S
C977 H962 0.959 . S
C977 H963 0.961 . S
C977 C976 1.502 . S
C978 H964 0.960 . S
C978 H965 0.961 . S
C978 H966 0.959 . S
C978 C976 1.561 . S
C979 C976 1.526 . S
C979 C980 1.396 . S
C979 C984 1.390 . S
C980 C974 1.465 . S
C980 C979 1.396 . S
C980 C981 1.399 . S
C981 H967 0.929 . S
C981 C980 1.399 . S
C981 C982 1.385 . S
C982 H968 0.931 . S
C982 C981 1.385 . S
C982 C983 1.389 . S
C983 C982 1.389 . S
C983 C984 1.387 . S
C984 H969 0.930 . S
C984 C979 1.390 . S
C984 C983 1.387 . S
H985 C997 0.930 . S
H986 C999 0.930 . S
H987 C1000 0.930 . S
H988 C1004 0.959 . S
H989 C1004 0.959 . S
H990 C1004 0.961 . S
H991 C1005 0.960 . S
H992 C1005 0.961 . S
H993 C1005 0.959 . S
H994 C1008 0.929 . S
H995 C1009 0.931 . S
H996 C1011 0.930 . S
C997 H985 0.930 . S
C997 C998 1.399 . S
C997 C1002 1.399 . S
C998 C997 1.399 . S
C998 C999 1.376 . S
C999 H986 0.930 . S
C999 C998 1.376 . S
C999 C1000 1.388 . S
C1000 H987 0.930 . S
C1000 C999 1.388 . S
C1000 C1001 1.390 . S
C1001 C1000 1.390 . S
C1001 C1002 1.394 . S
C1001 C1007 1.465 . S
C1002 C997 1.399 . S
C1002 C1001 1.394 . S
C1002 C1003 1.516 . S
C1003 C1002 1.516 . S
C1003 C1004 1.502 . S
C1003 C1005 1.561 . S
C1003 C1006 1.526 . S
C1004 H988 0.959 . S
C1004 H989 0.959 . S
C1004 H990 0.961 . S
C1004 C1003 1.502 . S
C1005 H991 0.960 . S
C1005 H992 0.961 . S
C1005 H993 0.959 . S
C1005 C1003 1.561 . S
C1006 C1003 1.526 . S
C1006 C1007 1.396 . S
C1006 C1011 1.390 . S
C1007 C1001 1.465 . S
C1007 C1006 1.396 . S
C1007 C1008 1.399 . S
C1008 H994 0.929 . S
C1008 C1007 1.399 . S
C1008 C1009 1.385 . S
C1009 H995 0.931 . S
C1009 C1008 1.385 . S
C1009 C1010 1.389 . S
C1010 C1009 1.389 . S
C1010 C1011 1.387 . S
C1011 H996 0.930 . S
C1011 C1006 1.390 . S
C1011 C1010 1.387 . S
H1012 C1024 0.930 . S
H1013 C1026 0.930 . S
H1014 C1027 0.930 . S
H1015 C1031 0.959 . S
H1016 C1031 0.959 . S
H1017 C1031 0.961 . S
H1018 C1032 0.960 . S
H1019 C1032 0.961 . S
H1020 C1032 0.959 1_455 S
H1021 C1035 0.929 . S
H1022 C1036 0.931 . S
H1023 C1038 0.930 . S
C1024 H1012 0.930 . S
C1024 C1025 1.401 . S
C1024 C1029 1.399 . S
C1025 C1024 1.401 . S
C1025 C1026 1.374 1_655 S
C1026 H1013 0.930 . S
C1026 C1025 1.374 1_455 S
C1026 C1027 1.388 . S
C1027 H1014 0.930 . S
C1027 C1026 1.388 . S
C1027 C1028 1.390 . S
C1028 C1027 1.390 . S
C1028 C1029 1.394 1_455 S
C1028 C1034 1.465 . S
C1029 C1024 1.399 . S
C1029 C1028 1.394 1_655 S
C1029 C1030 1.516 . S
C1030 C1029 1.516 . S
C1030 C1031 1.502 . S
C1030 C1032 1.561 . S
C1030 C1033 1.526 . S
C1031 H1015 0.959 . S
C1031 H1016 0.959 . S
C1031 H1017 0.961 . S
C1031 C1030 1.502 . S
C1032 H1018 0.960 . S
C1032 H1019 0.961 . S
C1032 H1020 0.959 1_655 S
C1032 C1030 1.561 . S
C1033 C1030 1.526 . S
C1033 C1034 1.396 1_655 S
C1033 C1038 1.390 . S
C1034 C1028 1.465 . S
C1034 C1033 1.396 1_455 S
C1034 C1035 1.399 . S
C1035 H1021 0.929 . S
C1035 C1034 1.399 . S
C1035 C1036 1.385 . S
C1036 H1022 0.931 . S
C1036 C1035 1.385 . S
C1036 C1037 1.389 1_455 S
C1037 C1036 1.389 1_655 S
C1037 C1038 1.387 . S
C1038 H1023 0.930 . S
C1038 C1033 1.390 . S
C1038 C1037 1.387 . S
H1039 C1051 0.930 . S
H1040 C1053 0.930 . S
H1041 C1054 0.930 . S
H1042 C1058 0.959 . S
H1043 C1058 0.959 . S
H1044 C1058 0.961 . S
H1045 C1059 0.960 . S
H1046 C1059 0.961 . S
H1047 C1059 0.959 1_565 S
H1048 C1062 0.929 . S
H1049 C1063 0.931 . S
H1050 C1065 0.930 . S
C1051 H1039 0.930 . S
C1051 C1052 1.399 1_545 S
C1051 C1056 1.399 . S
C1052 C1051 1.399 1_565 S
C1052 C1053 1.376 . S
C1053 H1040 0.930 . S
C1053 C1052 1.376 . S
C1053 C1054 1.388 . S
C1054 H1041 0.930 . S
C1054 C1053 1.388 . S
C1054 C1055 1.390 . S
C1055 C1054 1.390 . S
C1055 C1056 1.394 1_565 S
C1055 C1061 1.465 . S
C1056 C1051 1.399 . S
C1056 C1055 1.394 1_545 S
C1056 C1057 1.516 . S
C1057 C1056 1.516 . S
C1057 C1058 1.502 . S
C1057 C1059 1.561 . S
C1057 C1060 1.526 . S
C1058 H1042 0.959 . S
C1058 H1043 0.959 . S
C1058 H1044 0.961 . S
C1058 C1057 1.502 . S
C1059 H1045 0.960 . S
C1059 H1046 0.961 . S
C1059 H1047 0.959 1_545 S
C1059 C1057 1.561 . S
C1060 C1057 1.526 . S
C1060 C1061 1.396 1_545 S
C1060 C1065 1.390 . S
C1061 C1055 1.465 . S
C1061 C1060 1.396 1_565 S
C1061 C1062 1.399 . S
C1062 H1048 0.929 . S
C1062 C1061 1.399 . S
C1062 C1063 1.385 . S
C1063 H1049 0.931 . S
C1063 C1062 1.385 . S
C1063 C1064 1.389 . S
C1064 C1063 1.389 . S
C1064 C1065 1.387 1_565 S
C1065 H1050 0.930 . S
C1065 C1060 1.390 . S
C1065 C1064 1.387 1_545 S
H1066 C1078 0.930 . S
H1067 C1080 0.930 . S
H1068 C1081 0.930 . S
H1069 C1085 0.959 . S
H1070 C1085 0.959 . S
H1071 C1085 0.961 . S
H1072 C1086 0.960 . S
H1073 C1086 0.961 . S
H1074 C1086 0.959 . S
H1075 C1089 0.929 . S
H1076 C1090 0.931 . S
H1077 C1092 0.930 . S
C1078 H1066 0.930 . S
C1078 C1079 1.399 . S
C1078 C1083 1.399 . S
C1079 C1078 1.399 . S
C1079 C1080 1.376 . S
C1080 H1067 0.930 . S
C1080 C1079 1.376 . S
C1080 C1081 1.388 . S
C1081 H1068 0.930 . S
C1081 C1080 1.388 . S
C1081 C1082 1.390 . S
C1082 C1081 1.390 . S
C1082 C1083 1.394 . S
C1082 C1088 1.465 . S
C1083 C1078 1.399 . S
C1083 C1082 1.394 . S
C1083 C1084 1.516 . S
C1084 C1083 1.516 . S
C1084 C1085 1.502 . S
C1084 C1086 1.561 . S
C1084 C1087 1.526 . S
C1085 H1069 0.959 . S
C1085 H1070 0.959 . S
C1085 H1071 0.961 . S
C1085 C1084 1.502 . S
C1086 H1072 0.960 . S
C1086 H1073 0.961 . S
C1086 H1074 0.959 . S
C1086 C1084 1.561 . S
C1087 C1084 1.526 . S
C1087 C1088 1.396 . S
C1087 C1092 1.390 . S
C1088 C1082 1.465 . S
C1088 C1087 1.396 . S
C1088 C1089 1.399 . S
C1089 H1075 0.929 . S
C1089 C1088 1.399 . S
C1089 C1090 1.385 . S
C1090 H1076 0.931 . S
C1090 C1089 1.385 . S
C1090 C1091 1.389 . S
C1091 C1090 1.389 . S
C1091 C1092 1.387 . S
C1092 H1077 0.930 . S
C1092 C1087 1.390 . S
C1092 C1091 1.387 . S
H1093 C1105 0.930 . S
H1094 C1107 0.930 . S
H1095 C1108 0.930 . S
H1096 C1112 0.959 . S
H1097 C1112 0.959 . S
H1098 C1112 0.961 . S
H1099 C1113 0.960 . S
H1100 C1113 0.961 . S
H1101 C1113 0.959 . S
H1102 C1116 0.929 . S
H1103 C1117 0.931 . S
H1104 C1119 0.930 . S
C1105 H1093 0.930 . S
C1105 C1106 1.399 . S
C1105 C1110 1.399 . S
C1106 C1105 1.399 . S
C1106 C1107 1.376 . S
C1107 H1094 0.930 . S
C1107 C1106 1.376 . S
C1107 C1108 1.388 . S
C1108 H1095 0.930 . S
C1108 C1107 1.388 . S
C1108 C1109 1.390 . S
C1109 C1108 1.390 . S
C1109 C1110 1.394 . S
C1109 C1115 1.465 . S
C1110 C1105 1.399 . S
C1110 C1109 1.394 . S
C1110 C1111 1.516 . S
C1111 C1110 1.516 . S
C1111 C1112 1.502 . S
C1111 C1113 1.561 . S
C1111 C1114 1.526 . S
C1112 H1096 0.959 . S
C1112 H1097 0.959 . S
C1112 H1098 0.961 . S
C1112 C1111 1.502 . S
C1113 H1099 0.960 . S
C1113 H1100 0.961 . S
C1113 H1101 0.959 . S
C1113 C1111 1.561 . S
C1114 C1111 1.526 . S
C1114 C1115 1.396 . S
C1114 C1119 1.390 . S
C1115 C1109 1.465 . S
C1115 C1114 1.396 . S
C1115 C1116 1.399 . S
C1116 H1102 0.929 . S
C1116 C1115 1.399 . S
C1116 C1117 1.385 . S
C1117 H1103 0.931 . S
C1117 C1116 1.385 . S
C1117 C1118 1.389 . S
C1118 C1117 1.389 . S
C1118 C1119 1.387 . S
C1119 H1104 0.930 . S
C1119 C1114 1.390 . S
C1119 C1118 1.387 . S
C485 C255 2.227 . S
C497 C330 2.399 . S
C524 C370 2.434 . S
C512 C294 2.193 . S
C551 C410 2.415 . S
C539 C177 2.246 . S
C578 C450 2.416 . S
C566 C216 2.185 . S
C605 C320 2.405 . S
C593 C99 2.179 1_545 S
C620 C138 2.225 . S
C632 C360 2.426 . S
C647 C21 2.243 . S
C659 C400 2.426 . S
C674 C60 2.178 . S
C686 C440 2.419 1_655 S
C713 C317 0.458 . S
C701 C196 0.269 1_455 S
C740 C357 0.359 . S
C728 C235 0.366 1_545 S
C767 C397 0.485 . S
C755 C289 0.273 . S
C782 C157 0.362 . S
C794 C437 0.329 . S
C809 C40 0.500 . S
C821 C327 0.280 . S
C848 C367 0.516 . S
C836 C79 0.280 . S
C875 C407 0.474 . S
C863 C133 0.343 . S
C890 C1 0.477 . S
C902 C447 0.274 . S
C917 C211 2.844 . S
C929 C321 3.184 . S
C944 C250 2.750 . S
C956 C361 3.161 . S
C983 C401 3.147 . S
C971 C274 2.803 . S
C1010 C441 3.191 . S
C998 C172 2.766 . S
C1025 C55 2.799 1_655 S
C1037 C331 3.200 . S
C1064 C371 3.176 . S
C1052 C94 2.791 1_565 S
C1091 C411 3.148 . S
C1079 C118 2.791 . S
C1106 C16 2.828 . S
C1118 C451 3.188 . S
