# Generated by pormake.
# Topology sqc, (4,8)-cn, num edge types: 1
# Building blocks:
#     Node 0, Type 0, BuildingBlock: NAWXER_clean_linker_0, # of connection points: 4
#     Node 1, Type 0, BuildingBlock: NAWXER_clean_linker_0, # of connection points: 4
#     Node 2, Type 0, BuildingBlock: NAWXER_clean_linker_0, # of connection points: 4
#     Node 3, Type 0, BuildingBlock: NAWXER_clean_linker_0, # of connection points: 4
#     Node 4, Type 0, BuildingBlock: NAWXER_clean_linker_0, # of connection points: 4
#     Node 5, Type 0, BuildingBlock: NAWXER_clean_linker_0, # of connection points: 4
#     Node 6, Type 0, BuildingBlock: NAWXER_clean_linker_0, # of connection points: 4
#     Node 7, Type 0, BuildingBlock: NAWXER_clean_linker_0, # of connection points: 4
#     Node 8, Type 1, BuildingBlock: TAGTUT_clean_sbu_3, # of connection points: 8
#     Node 9, Type 1, BuildingBlock: TAGTUT_clean_sbu_3, # of connection points: 8
#     Node 10, Type 1, BuildingBlock: TAGTUT_clean_sbu_3, # of connection points: 8
#     Node 11, Type 1, BuildingBlock: TAGTUT_clean_sbu_3, # of connection points: 8
#     Edge 12, Type (0, 1), BuildingBlock: XIVTED_clean_linker_0, # of connection points: 2
#     Edge 13, Type (0, 1), BuildingBlock: XIVTED_clean_linker_0, # of connection points: 2
#     Edge 14, Type (0, 1), BuildingBlock: XIVTED_clean_linker_0, # of connection points: 2
#     Edge 15, Type (0, 1), BuildingBlock: XIVTED_clean_linker_0, # of connection points: 2
#     Edge 16, Type (0, 1), BuildingBlock: XIVTED_clean_linker_0, # of connection points: 2
#     Edge 17, Type (0, 1), BuildingBlock: XIVTED_clean_linker_0, # of connection points: 2
#     Edge 18, Type (0, 1), BuildingBlock: XIVTED_clean_linker_0, # of connection points: 2
#     Edge 19, Type (0, 1), BuildingBlock: XIVTED_clean_linker_0, # of connection points: 2
#     Edge 20, Type (0, 1), BuildingBlock: XIVTED_clean_linker_0, # of connection points: 2
#     Edge 21, Type (0, 1), BuildingBlock: XIVTED_clean_linker_0, # of connection points: 2
#     Edge 22, Type (0, 1), BuildingBlock: XIVTED_clean_linker_0, # of connection points: 2
#     Edge 23, Type (0, 1), BuildingBlock: XIVTED_clean_linker_0, # of connection points: 2
#     Edge 24, Type (0, 1), BuildingBlock: XIVTED_clean_linker_0, # of connection points: 2
#     Edge 25, Type (0, 1), BuildingBlock: XIVTED_clean_linker_0, # of connection points: 2
#     Edge 26, Type (0, 1), BuildingBlock: XIVTED_clean_linker_0, # of connection points: 2
#     Edge 27, Type (0, 1), BuildingBlock: XIVTED_clean_linker_0, # of connection points: 2
#     Edge 28, Type (0, 1), BuildingBlock: XIVTED_clean_linker_0, # of connection points: 2
#     Edge 29, Type (0, 1), BuildingBlock: XIVTED_clean_linker_0, # of connection points: 2
#     Edge 30, Type (0, 1), BuildingBlock: XIVTED_clean_linker_0, # of connection points: 2
#     Edge 31, Type (0, 1), BuildingBlock: XIVTED_clean_linker_0, # of connection points: 2
#     Edge 32, Type (0, 1), BuildingBlock: XIVTED_clean_linker_0, # of connection points: 2
#     Edge 33, Type (0, 1), BuildingBlock: XIVTED_clean_linker_0, # of connection points: 2
#     Edge 34, Type (0, 1), BuildingBlock: XIVTED_clean_linker_0, # of connection points: 2
#     Edge 35, Type (0, 1), BuildingBlock: XIVTED_clean_linker_0, # of connection points: 2
#     Edge 36, Type (0, 1), BuildingBlock: XIVTED_clean_linker_0, # of connection points: 2
#     Edge 37, Type (0, 1), BuildingBlock: XIVTED_clean_linker_0, # of connection points: 2
#     Edge 38, Type (0, 1), BuildingBlock: XIVTED_clean_linker_0, # of connection points: 2
#     Edge 39, Type (0, 1), BuildingBlock: XIVTED_clean_linker_0, # of connection points: 2
#     Edge 40, Type (0, 1), BuildingBlock: XIVTED_clean_linker_0, # of connection points: 2
#     Edge 41, Type (0, 1), BuildingBlock: XIVTED_clean_linker_0, # of connection points: 2
#     Edge 42, Type (0, 1), BuildingBlock: XIVTED_clean_linker_0, # of connection points: 2
#     Edge 43, Type (0, 1), BuildingBlock: XIVTED_clean_linker_0, # of connection points: 2
# Relax obj value: 0.135
# Max RMSD: 0.256
# Mean RMSD: 0.159
data_MOF--net-sqc--node1-TAGTUT_clean_sbu_3--node2-NAWXER_clean_linker_0--edge1-XIVTED_clean_linker_0
_symmetry_space_group_name_H-M    P1
_symmetry_Int_Tables_number       1
_symmetry_cell_setting            triclinic
loop_
_symmetry_equiv_pos_as_xyz
'x, y, z'
_cell_length_a     28.152328
_cell_length_b     28.134441
_cell_length_c     87.105776
_cell_angle_alpha  90.851027
_cell_angle_beta   90.007216
_cell_angle_gamma 89.966614
loop_
_atom_site_label
_atom_site_type_symbol
_atom_site_fract_x
_atom_site_fract_y
_atom_site_fract_z
_atom_type_partial_charge
C0 C 0.21964 0.99453 0.46882 0.0
C1 C 0.22454 0.94529 0.46607 0.0
C2 C 0.17616 0.01382 0.47347 0.0
C3 C 0.13704 0.98418 0.47622 0.0
C4 C 0.18443 0.91608 0.46808 0.0
C5 C 0.14136 0.93529 0.47318 0.0
C6 C 0.09155 0.00334 0.48229 0.0
C7 C 0.20614 0.04263 0.51603 0.0
C8 C 0.21514 0.09184 0.5159 0.0
C9 C 0.1645 0.02417 0.50957 0.0
C10 C 0.13128 0.05457 0.50281 0.0
C11 C 0.18111 0.12217 0.50939 0.0
C12 C 0.13941 0.10369 0.50302 0.0
C13 C 0.08889 0.0355 0.49493 0.0
C14 C 0.88536 0.01764 0.51292 0.0
C15 C 0.87406 0.0645 0.51731 0.0
C16 C 0.92741 0.00776 0.50503 0.0
C17 C 0.95892 0.04457 0.50133 0.0
C18 C 0.90534 0.10142 0.51344 0.0
C19 C 0.94766 0.09145 0.50562 0.0
C20 C 0.00451 0.03347 0.49365 0.0
C21 C 0.89314 0.01485 0.45795 0.0
C22 C 0.88251 0.96708 0.45461 0.0
C23 C 0.93371 0.02668 0.46636 0.0
C24 C 0.9645 0.99097 0.47149 0.0
C25 C 0.91336 0.93134 0.45975 0.0
C26 C 0.95437 0.94326 0.468 0.0
C27 C 0.00713 0.00382 0.4805 0.0
H28 H 0.2494 0.01846 0.46754 0.0
H29 H 0.17342 0.05195 0.47505 0.0
H30 H 0.18593 0.87832 0.4656 0.0
H31 H 0.11146 0.91173 0.47492 0.0
H32 H 0.23102 0.01837 0.52126 0.0
H33 H 0.15846 0.98615 0.50969 0.0
H34 H 0.18702 0.16015 0.50897 0.0
H35 H 0.11412 0.12765 0.49783 0.0
H36 H 0.86194 0.98852 0.51575 0.0
H37 H 0.93583 0.97114 0.50214 0.0
H38 H 0.89787 0.13779 0.51691 0.0
H39 H 0.97169 0.12026 0.50299 0.0
H40 H 0.86996 0.04302 0.4541 0.0
H41 H 0.94126 0.0638 0.46877 0.0
H42 H 0.90625 0.89427 0.45711 0.0
H43 H 0.97784 0.91528 0.47181 0.0
N44 N 0.05043 0.98898 0.47547 0.0
N45 N 0.04548 0.04909 0.50021 0.0
C46 C 0.42043 0.5491 0.7318 0.0
C47 C 0.40358 0.53629 0.71713 0.0
C48 C 0.4057 0.5918 0.73875 0.0
C49 C 0.37439 0.6221 0.73101 0.0
C50 C 0.37273 0.56704 0.70942 0.0
C51 C 0.35855 0.60964 0.71625 0.0
C52 C 0.35813 0.66743 0.73785 0.0
C53 C 0.28957 0.55052 0.76303 0.0
C54 C 0.29885 0.54914 0.77887 0.0
C55 C 0.30096 0.59057 0.7546 0.0
C56 C 0.324 0.62952 0.76159 0.0
C57 C 0.32055 0.58891 0.78598 0.0
C58 C 0.33305 0.62868 0.77741 0.0
C59 C 0.33672 0.67159 0.75246 0.0
C60 C 0.25275 0.86683 0.75224 0.0
C61 C 0.27213 0.8881 0.76552 0.0
C62 C 0.27026 0.8233 0.74677 0.0
C63 C 0.30721 0.80027 0.75454 0.0
C64 C 0.3089 0.86472 0.77333 0.0
C65 C 0.32598 0.82093 0.76795 0.0
C66 C 0.32653 0.75483 0.74866 0.0
C67 C 0.37545 0.86711 0.71515 0.0
C68 C 0.36336 0.85677 0.69981 0.0
C69 C 0.36886 0.83303 0.72647 0.0
C70 C 0.34908 0.78863 0.7226 0.0
C71 C 0.34307 0.81268 0.69602 0.0
C72 C 0.33592 0.77899 0.70732 0.0
C73 C 0.34592 0.7499 0.73378 0.0
H74 H 0.44448 0.52598 0.73789 0.0
H75 H 0.41884 0.60126 0.75008 0.0
H76 H 0.36 0.5584 0.69797 0.0
H77 H 0.33463 0.6327 0.71006 0.0
H78 H 0.27339 0.52069 0.75704 0.0
H79 H 0.29148 0.59101 0.74255 0.0
H80 H 0.32715 0.58984 0.79822 0.0
H81 H 0.34985 0.65873 0.78312 0.0
H82 H 0.22438 0.88407 0.74603 0.0
H83 H 0.25498 0.80757 0.73647 0.0
H84 H 0.32392 0.87996 0.78374 0.0
H85 H 0.35432 0.8035 0.77413 0.0
H86 H 0.39172 0.90078 0.71827 0.0
H87 H 0.38072 0.8408 0.73806 0.0
H88 H 0.33315 0.80411 0.68429 0.0
H89 H 0.32075 0.74492 0.70406 0.0
N90 N 0.36124 0.7065 0.72907 0.0
N91 N 0.32251 0.71544 0.75748 0.0
C92 C 0.47334 -0.0021 0.96401 0.0
C93 C 0.4681 0.04458 0.95868 0.0
C94 C 0.50844 0.98727 0.97476 0.0
C95 C 0.53876 0.02315 0.98031 0.0
C96 C 0.4963 0.0809 0.96516 0.0
C97 C 0.53161 0.07017 0.97576 0.0
C98 C 0.58311 0.01078 0.98823 0.0
C99 C 0.4732 0.98474 0.02489 0.0
C100 C 0.47518 0.94034 0.0321 0.0
C101 C 0.5076 -0.00261 0.01412 0.0
C102 C 0.54406 0.96544 0.0101 0.0
C103 C 0.51089 0.90799 0.02767 0.0
C104 C 0.54472 0.92034 0.01677 0.0
C105 C 0.58559 0.98059 0.00099 0.0
C106 C 0.79252 0.97956 0.01707 0.0
C107 C 0.79632 0.93186 0.02153 0.0
C108 C 0.75201 0.99549 0.00949 0.0
C109 C 0.71508 0.96374 0.00592 0.0
C110 C 0.7596 0.90003 0.01771 0.0
C111 C 0.71934 0.91589 0.01 0.0
C112 C 0.67019 0.98051 -0.00084 0.0
C113 C 0.78125 0.00961 0.96344 0.0
C114 C 0.78529 0.05764 0.95938 0.0
C115 C 0.74343 0.99444 0.97247 0.0
C116 C 0.70943 0.02718 0.97784 0.0
C117 C 0.75116 0.0903 0.96478 0.0
C118 C 0.71349 0.07514 0.97388 0.0
C119 C 0.66765 0.01139 0.9866 0.0
H120 H 0.45245 0.96905 0.95917 0.0
H121 H 0.51405 0.95056 0.97788 0.0
H122 H 0.49235 0.1174 0.96158 0.0
H123 H 0.55483 0.09829 0.97989 0.0
H124 H 0.4458 0.01031 0.02783 0.0
H125 H 0.50686 0.03298 0.00959 0.0
H126 H 0.51423 0.87379 0.0331 0.0
H127 H 0.57269 0.89515 0.014 0.0
H128 H 0.8204 0.00488 0.01973 0.0
H129 H 0.74906 0.03286 0.00685 0.0
H130 H 0.76101 0.86328 0.0212 0.0
H131 H 0.69101 0.89089 0.00749 0.0
H132 H 0.80716 0.98363 0.95955 0.0
H133 H 0.74032 0.957 0.975 0.0
H134 H 0.75279 0.12736 0.96164 0.0
H135 H 0.68724 0.10085 0.97773 0.0
N136 N 0.62422 0.02523 0.98164 0.0
N137 N 0.62912 0.96657 0.00587 0.0
C138 C 0.26862 0.11107 0.22737 0.0
C139 C 0.21899 0.10735 0.22576 0.0
C140 C 0.28925 0.15302 0.2329 0.0
C141 C 0.26079 0.19226 0.23682 0.0
C142 C 0.19059 0.14668 0.22999 0.0
C143 C 0.21139 0.18893 0.23528 0.0
C144 C 0.28274 0.23678 0.24242 0.0
C145 C 0.2918 0.13783 0.2828 0.0
C146 C 0.33817 0.12939 0.28805 0.0
C147 C 0.28354 0.17187 0.27159 0.0
C148 C 0.32164 0.19734 0.26532 0.0
C149 C 0.37626 0.15395 0.28143 0.0
C150 C 0.36803 0.18772 0.27022 0.0
C151 C 0.31337 0.2381 0.25521 0.0
C152 C 0.33778 0.44286 0.26917 0.0
C153 C 0.38475 0.44209 0.27463 0.0
C154 C 0.31953 0.40418 0.26091 0.0
C155 C 0.34817 0.36438 0.25775 0.0
C156 C 0.41391 0.40302 0.27095 0.0
C157 C 0.39566 0.36439 0.26264 0.0
C158 C 0.32727 0.32037 0.2513 0.0
C159 C 0.31976 0.42865 0.21486 0.0
C160 C 0.27331 0.44457 0.21205 0.0
C161 C 0.32747 0.38736 0.2232 0.0
C162 C 0.28888 0.36133 0.22888 0.0
C163 C 0.23474 0.41797 0.21753 0.0
C164 C 0.24249 0.37647 0.22578 0.0
C165 C 0.29691 0.31917 0.23842 0.0
H166 H 0.29184 0.08217 0.2239 0.0
H167 H 0.32757 0.15516 0.23384 0.0
H168 H 0.15227 0.14501 0.22915 0.0
H169 H 0.18889 0.21886 0.23835 0.0
H170 H 0.2618 0.11965 0.28782 0.0
H171 H 0.24727 0.17973 0.26835 0.0
H172 H 0.41245 0.14754 0.2851 0.0
H173 H 0.39788 0.20716 0.2656 0.0
H174 H 0.31463 0.4727 0.27172 0.0
H175 H 0.2824 0.40453 0.25767 0.0
H176 H 0.45005 0.40116 0.27515 0.0
H177 H 0.41816 0.33376 0.26047 0.0
H178 H 0.35012 0.44837 0.21075 0.0
H179 H 0.36361 0.37587 0.22528 0.0
H180 H 0.19855 0.42892 0.21527 0.0
H181 H 0.21228 0.35673 0.23 0.0
N182 N 0.27542 0.27742 0.23447 0.0
N183 N 0.33447 0.27978 0.25913 0.0
C184 C 0.8961 0.05069 0.22688 0.0
C185 C 0.88415 0.04488 0.21129 0.0
C186 C 0.88136 0.0913 0.23506 0.0
C187 C 0.85473 0.12646 0.22768 0.0
C188 C 0.85791 0.08046 0.20399 0.0
C189 C 0.84356 0.12089 0.21208 0.0
C190 C 0.83889 0.17005 0.23571 0.0
C191 C 0.75941 0.04803 0.25608 0.0
C192 C 0.76923 0.04227 0.27176 0.0
C193 C 0.77267 0.08962 0.24867 0.0
C194 C 0.79645 0.12597 0.25676 0.0
C195 C 0.79289 0.07888 0.27984 0.0
C196 C 0.80613 0.12048 0.27241 0.0
C197 C 0.81052 0.1701 0.24905 0.0
C198 C 0.71075 0.34246 0.26125 0.0
C199 C 0.73851 0.38236 0.26526 0.0
C200 C 0.73209 0.30072 0.2558 0.0
C201 C 0.78145 0.2983 0.25394 0.0
C202 C 0.78815 0.3796 0.26342 0.0
C203 C 0.80938 0.338 0.25777 0.0
C204 C 0.80321 0.2544 0.24771 0.0
C205 C 0.89856 0.34057 0.21023 0.0
C206 C 0.86137 0.36542 0.20316 0.0
C207 C 0.88881 0.30617 0.22111 0.0
C208 C 0.84183 0.29649 0.22532 0.0
C209 C 0.81437 0.35712 0.20788 0.0
C210 C 0.80465 0.32273 0.21885 0.0
C211 C 0.83193 0.25413 0.23448 0.0
H212 H 0.91643 0.02376 0.23274 0.0
H213 H 0.89094 0.09539 0.24705 0.0
H214 H 0.84902 0.07737 0.19191 0.0
H215 H 0.82332 0.1478 0.20616 0.0
H216 H 0.74131 0.02047 0.24954 0.0
H217 H 0.764 0.09354 0.23663 0.0
H218 H 0.80011 0.07592 0.292 0.0
H219 H 0.82408 0.14835 0.27888 0.0
H220 H 0.67244 0.34343 0.26226 0.0
H221 H 0.70993 0.27052 0.25278 0.0
H222 H 0.81079 0.40915 0.26669 0.0
H223 H 0.84766 0.33662 0.25656 0.0
H224 H 0.9352 0.34689 0.20707 0.0
H225 H 0.91792 0.28601 0.22592 0.0
H226 H 0.78496 0.37541 0.20254 0.0
H227 H 0.76802 0.3149 0.22165 0.0
N228 N 0.84851 0.21203 0.22898 0.0
N229 N 0.79365 0.21233 0.25459 0.0
C230 C 0.75915 0.94427 0.72658 0.0
C231 C 0.76919 0.94064 0.71079 0.0
C232 C 0.76433 0.90505 0.73606 0.0
C233 C 0.7817 0.86162 0.73016 0.0
C234 C 0.78542 0.8967 0.70483 0.0
C235 C 0.79176 0.85778 0.71442 0.0
C236 C 0.78731 0.81959 0.74013 0.0
C237 C 0.88977 0.92269 0.76409 0.0
C238 C 0.87315 0.9384 0.77853 0.0
C239 C 0.86565 0.88684 0.75599 0.0
C240 C 0.8248 0.86622 0.76226 0.0
C241 C 0.83065 0.91929 0.78428 0.0
C242 C 0.80715 0.88306 0.77633 0.0
C243 C 0.80419 0.82295 0.75538 0.0
C244 C 0.84894 0.62894 0.7738 0.0
C245 C 0.83181 0.6293 0.78895 0.0
C246 C 0.83403 0.66342 0.76352 0.0
C247 C 0.80189 0.69883 0.76825 0.0
C248 C 0.79807 0.66349 0.79347 0.0
C249 C 0.78363 0.69837 0.78323 0.0
C250 C 0.7928 0.73997 0.75843 0.0
C251 C 0.71769 0.61629 0.73746 0.0
C252 C 0.73935 0.5999 0.72385 0.0
C253 C 0.72927 0.66089 0.74363 0.0
C254 C 0.76258 0.68989 0.73627 0.0
C255 C 0.77225 0.62927 0.71641 0.0
C256 C 0.78347 0.67407 0.72251 0.0
C257 C 0.77684 0.73598 0.74314 0.0
H258 H 0.74695 0.97734 0.73172 0.0
H259 H 0.75389 0.90878 0.74797 0.0
H260 H 0.7923 0.89181 0.69269 0.0
H261 H 0.80439 0.82453 0.70948 0.0
H262 H 0.92249 0.93643 0.75937 0.0
H263 H 0.88015 0.87361 0.74522 0.0
H264 H 0.81602 0.93152 0.79514 0.0
H265 H 0.77567 0.86742 0.78132 0.0
H266 H 0.87483 0.60274 0.77005 0.0
H267 H 0.84936 0.66379 0.75211 0.0
H268 H 0.78467 0.66466 0.80513 0.0
H269 H 0.75928 0.72585 0.78712 0.0
H270 H 0.69213 0.59444 0.7434 0.0
H271 H 0.7123 0.67271 0.75418 0.0
H272 H 0.78881 0.61787 0.70575 0.0
H273 H 0.80915 0.696 0.71665 0.0
N274 N 0.77461 0.77591 0.73452 0.0
N275 N 0.80586 0.78321 0.76394 0.0
C276 C 0.71598 0.45126 0.96743 0.0
C277 C 0.72391 0.40192 0.9682 0.0
C278 C 0.67434 0.47134 0.97335 0.0
C279 C 0.63989 0.44243 0.98012 0.0
C280 C 0.68879 0.37315 0.97483 0.0
C281 C 0.64696 0.3932 0.98059 0.0
C282 C 0.59736 0.46334 0.98737 0.0
C283 C 0.72607 0.49929 0.01547 0.0
C284 C 0.73214 0.54822 0.01856 0.0
C285 C 0.68281 0.4817 0.00997 0.0
C286 C 0.64518 0.51276 0.00671 0.0
C287 C 0.69348 0.5789 0.01594 0.0
C288 C 0.6507 0.56138 0.01002 0.0
C289 C 0.59979 0.49539 0.0 0.0
C290 C 0.39584 0.4976 0.02093 0.0
C291 C 0.39488 0.54324 0.02756 0.0
C292 C 0.43462 0.48317 0.01202 0.0
C293 C 0.47231 0.51474 0.00918 0.0
C294 C 0.43238 0.57482 0.02476 0.0
C295 C 0.47069 0.56074 0.0156 0.0
C296 C 0.51512 0.49892 0.00062 0.0
C297 C 0.39671 0.48865 0.96661 0.0
C298 C 0.38359 0.44184 0.96274 0.0
C299 C 0.43865 0.49758 0.9747 0.0
C300 C 0.46825 0.45987 0.97904 0.0
C301 C 0.41321 0.40413 0.96713 0.0
C302 C 0.45545 0.41313 0.97508 0.0
C303 C 0.51302 0.46942 0.98738 0.0
H304 H 0.74164 0.4744 0.96208 0.0
H305 H 0.66915 0.50943 0.97278 0.0
H306 H 0.69383 0.33515 0.97579 0.0
H307 H 0.62073 0.37045 0.98585 0.0
H308 H 0.75472 0.4743 0.01719 0.0
H309 H 0.67904 0.44373 0.00824 0.0
H310 H 0.69583 0.6165 0.01861 0.0
H311 H 0.62194 0.58605 0.0079 0.0
H312 H 0.36773 0.47242 0.02324 0.0
H313 H 0.43575 0.44678 0.00783 0.0
H314 H 0.43235 0.61015 0.0299 0.0
H315 H 0.49944 0.58558 0.01374 0.0
H316 H 0.3746 0.51834 0.96333 0.0
H317 H 0.44827 0.53402 0.97741 0.0
H318 H 0.40434 0.36776 0.96405 0.0
H319 H 0.47799 0.38361 0.97823 0.0
N320 N 0.55415 0.45182 0.98145 0.0
N321 N 0.55846 0.5116 0.00621 0.0
C322 C 0.95821 0.49794 0.51831 0.0
C323 C 0.95562 0.45202 0.52448 0.0
C324 C -0.00381 0.51054 0.50885 0.0
C325 C 0.03173 0.47718 0.50523 0.0
C326 C 0.99014 0.41825 0.52017 0.0
C327 C 0.02763 0.4307 0.51065 0.0
C328 C 0.07702 0.49168 0.4982 0.0
C329 C 0.97256 0.51742 0.45975 0.0
C330 C 0.97476 0.56246 0.45296 0.0
C331 C 0.00563 0.50445 0.4709 0.0
C332 C 0.04084 0.5367 0.47573 0.0
C333 C 0.00931 0.59499 0.45814 0.0
C334 C 0.0418 0.58228 0.46941 0.0
C335 C 0.08109 0.52156 0.48539 0.0
C336 C 0.28864 0.51474 0.47064 0.0
C337 C 0.2948 0.5619 0.46589 0.0
C338 C 0.24705 0.50115 0.47808 0.0
C339 C 0.21133 0.53473 0.48124 0.0
C340 C 0.25913 0.59549 0.46922 0.0
C341 C 0.21778 0.58197 0.47679 0.0
C342 C 0.16552 0.52032 0.48794 0.0
C343 C 0.27455 0.48911 0.52404 0.0
C344 C 0.27715 0.44102 0.52815 0.0
C345 C 0.23718 0.50534 0.51501 0.0
C346 C 0.20222 0.47359 0.5097 0.0
C347 C 0.2419 0.40943 0.52288 0.0
C348 C 0.20469 0.42564 0.51379 0.0
C349 C 0.1614 0.49032 0.50067 0.0
H350 H 0.93186 0.52463 0.52122 0.0
H351 H -0.00096 0.54695 0.5051 0.0
H352 H 0.98996 0.38281 0.52485 0.0
H353 H 0.05485 0.40447 0.50811 0.0
H354 H 0.94599 0.49169 0.45622 0.0
H355 H 0.00487 0.46852 0.47517 0.0
H356 H 0.01274 0.62967 0.45304 0.0
H357 H 0.06897 0.60763 0.4728 0.0
H358 H 0.31558 0.48807 0.46836 0.0
H359 H 0.24236 0.46415 0.48096 0.0
H360 H 0.26227 0.63188 0.46546 0.0
H361 H 0.19037 0.60831 0.47894 0.0
H362 H 0.30135 0.51427 0.52784 0.0
H363 H 0.2353 0.54278 0.51235 0.0
H364 H 0.24244 0.37237 0.52607 0.0
H365 H 0.1777 0.40069 0.50997 0.0
N366 N 0.1174 0.4772 0.50525 0.0
N367 N 0.12525 0.53475 0.48085 0.0
C368 C 0.13743 0.66517 0.13965 0.0
C369 C 0.96966 0.59929 0.12636 0.0
C370 C 0.98645 0.6746 0.08405 0.0
Mg371 Mg 0.18838 0.76189 0.13007 0.0
Mg372 Mg 0.13123 0.85496 0.11707 0.0
O373 O 0.14079 0.78952 0.11556 0.0
Mg374 Mg 0.08789 0.74363 0.11845 0.0
O375 O 0.03917 0.69374 0.12151 0.0
Mg376 Mg 0.06997 0.63983 0.10997 0.0
Mg377 Mg 0.97515 0.70554 0.11739 0.0
C378 C 0.04463 0.82663 0.09573 0.0
O379 O 0.04505 0.7907 0.13531 0.0
O380 O 0.24218 0.81455 0.1193 0.0
O381 O 0.96855 0.77066 0.13081 0.0
O382 O 0.17114 0.81699 0.14981 0.0
O383 O 0.20074 0.876 0.10985 0.0
O384 O 0.12213 0.87198 0.14058 0.0
O385 O 0.12679 0.69333 0.10168 0.0
O386 O 0.20015 0.70785 0.11075 0.0
C387 C 0.17172 0.68527 0.10173 0.0
C388 C 0.23993 0.85399 0.11205 0.0
O389 O 0.04733 0.78242 0.09922 0.0
O390 O 0.01135 0.59267 0.12068 0.0
O391 O 0.07086 0.85886 0.10195 0.0
O392 O 0.02162 0.64935 0.0885 0.0
O393 O 0.94912 0.63997 0.12643 0.0
O394 O 0.96576 0.70406 0.09308 0.0
O395 O 0.13031 0.70971 0.13777 0.0
O396 O 0.11741 0.63353 0.13111 0.0
C397 C 0.14484 0.85386 0.15169 0.0
C398 C 0.00022 0.79632 0.13755 0.0
C399 C 0.66109 0.81447 0.38315 0.0
C400 C 0.73776 0.64779 0.37383 0.0
C401 C 0.6406 0.63956 0.33523 0.0
Mg402 Mg 0.55627 0.85221 0.37512 0.0
Mg403 Mg 0.4644 0.78086 0.36974 0.0
O404 O 0.52724 0.79534 0.36472 0.0
Mg405 Mg 0.57957 0.74896 0.36793 0.0
O406 O 0.63551 0.70686 0.37091 0.0
Mg407 Mg 0.68035 0.73581 0.35569 0.0
Mg408 Mg 0.62848 0.641 0.36983 0.0
C409 C 0.49327 0.68846 0.3508 0.0
O410 O 0.54363 0.71086 0.38811 0.0
O411 O 0.49334 0.89459 0.36515 0.0
O412 O 0.56998 0.63524 0.38578 0.0
O413 O 0.51243 0.84242 0.39747 0.0
O414 O 0.43315 0.84394 0.36031 0.0
O415 O 0.45832 0.78521 0.39415 0.0
O416 O 0.61791 0.78243 0.34773 0.0
O417 O 0.59831 0.85834 0.35273 0.0
C418 C 0.61984 0.8267 0.3446 0.0
C419 C 0.45139 0.88566 0.36006 0.0
O420 O 0.53786 0.69714 0.35238 0.0
O421 O 0.73776 0.68726 0.36656 0.0
O422 O 0.4607 0.71331 0.35744 0.0
O423 O 0.66542 0.67752 0.33679 0.0
O424 O 0.69982 0.62398 0.37631 0.0
O425 O 0.61833 0.6217 0.34648 0.0
O426 O 0.61696 0.80321 0.38335 0.0
O427 O 0.69089 0.79317 0.37428 0.0
C428 C 0.47903 0.81619 0.40264 0.0
C429 C 0.5433 0.667 0.39208 0.0
C430 C 0.64135 0.16055 0.63495 0.0
C431 C 0.46819 0.09864 0.62527 0.0
C432 C 0.47412 0.18709 0.58522 0.0
Mg433 Mg 0.68948 0.25977 0.62546 0.0
Mg434 Mg 0.62746 0.3558 0.61701 0.0
O435 O 0.63652 0.29068 0.61389 0.0
Mg436 Mg 0.58531 0.244 0.61779 0.0
O437 O 0.53805 0.1931 0.6214 0.0
Mg438 Mg 0.56389 0.14277 0.60712 0.0
Mg439 Mg 0.47366 0.2069 0.61945 0.0
C440 C 0.5338 0.33125 0.59872 0.0
O441 O 0.54887 0.28701 0.63733 0.0
O442 O 0.73826 0.31495 0.61366 0.0
O443 O 0.47145 0.26752 0.6348 0.0
O444 O 0.68066 0.31117 0.64683 0.0
O445 O 0.69361 0.37812 0.60731 0.0
O446 O 0.62839 0.36791 0.641 0.0
O447 O 0.61745 0.19846 0.59845 0.0
O448 O 0.69408 0.20981 0.60457 0.0
C449 C 0.66175 0.19015 0.59629 0.0
C450 C 0.73323 0.35571 0.60737 0.0
O451 O 0.53835 0.28655 0.60122 0.0
O452 O 0.50822 0.09266 0.61836 0.0
O453 O 0.56149 0.36289 0.60457 0.0
O454 O 0.5092 0.15903 0.58757 0.0
O455 O 0.44871 0.13954 0.6269 0.0
O456 O 0.45775 0.21401 0.59584 0.0
O457 O 0.63433 0.20559 0.63441 0.0
O458 O 0.61819 0.1311 0.62639 0.0
C459 C 0.6556 0.34766 0.65058 0.0
C460 C 0.50495 0.29162 0.64116 0.0
C461 C 0.16881 0.30163 0.88756 0.0
C462 C 0.2379 0.13197 0.87712 0.0
C463 C 0.15959 0.14106 0.83424 0.0
Mg464 Mg 0.07001 0.34737 0.87643 0.0
Mg465 Mg 0.97957 0.2814 0.86529 0.0
O466 O 0.04388 0.29531 0.86279 0.0
Mg467 Mg 0.09163 0.24515 0.86707 0.0
O468 O 0.1428 0.19887 0.87139 0.0
Mg469 Mg 0.19525 0.22847 0.85918 0.0
Mg470 Mg 0.13152 0.13416 0.86776 0.0
C471 C 0.01083 0.19083 0.84596 0.0
O472 O 0.04521 0.20493 0.88431 0.0
O473 O 0.01321 0.39545 0.86487 0.0
O474 O 0.06604 0.12809 0.88062 0.0
O475 O 0.01688 0.33315 0.8965 0.0
O476 O 0.95314 0.34785 0.85713 0.0
O477 O 0.96502 0.27762 0.88906 0.0
O478 O 0.14011 0.28174 0.8499 0.0
O479 O 0.12342 0.35711 0.85692 0.0
C480 C 0.1468 0.32668 0.8488 0.0
C481 C 0.97268 0.38889 0.85832 0.0
O482 O 0.05511 0.19812 0.84866 0.0
O483 O 0.24382 0.17282 0.87094 0.0
O484 O 0.97749 0.21603 0.85198 0.0
O485 O 0.18546 0.17659 0.83825 0.0
O486 O 0.19768 0.11062 0.87716 0.0
O487 O 0.13117 0.12161 0.84362 0.0
O488 O 0.12445 0.29322 0.88554 0.0
O489 O 0.20095 0.28035 0.87959 0.0
C490 C 0.98206 0.30532 0.89934 0.0
C491 C 0.03969 0.16034 0.88679 0.0
H492 H 0.26187 0.85596 0.47137 0.0
H493 H 0.49096 0.89781 0.41967 0.0
H494 H 0.29341 0.98729 0.44826 0.0
H495 H 0.41424 0.76492 0.41909 0.0
H496 H 0.43601 0.92843 0.43916 0.0
H497 H 0.3336 0.82098 0.46009 0.0
C498 C 0.28364 0.87766 0.46402 0.0
C499 C 0.2706 0.9247 0.46062 0.0
C500 C 0.43218 0.89212 0.43504 0.0
C501 C 0.35402 0.88522 0.44838 0.0
C502 C 0.4637 0.8744 0.424 0.0
C503 C 0.45671 0.82893 0.41752 0.0
C504 C 0.39402 0.86391 0.43978 0.0
C505 C 0.42069 0.80031 0.42365 0.0
C506 C 0.32489 0.85769 0.45777 0.0
C507 C 0.30168 0.95123 0.45144 0.0
N508 N 0.3902 0.81851 0.43431 0.0
N509 N 0.34175 0.93107 0.44562 0.0
H510 H 0.34127 0.95113 0.69918 0.0
H511 H 0.49842 0.00566 0.62626 0.0
H512 H 0.40959 0.83952 0.67283 0.0
H513 H 0.38788 0.09997 0.64283 0.0
H514 H 0.46811 0.94394 0.64318 0.0
H515 H 0.36111 0.00738 0.67898 0.0
C516 C 0.36039 0.9386 0.68911 0.0
C517 C 0.3739 0.89088 0.6876 0.0
C518 C 0.45021 0.978 0.64291 0.0
C519 C 0.39677 0.95457 0.66457 0.0
C520 C 0.46743 0.0132 0.63325 0.0
C521 C 0.44613 0.05832 0.63327 0.0
C522 C 0.41194 0.98835 0.65275 0.0
C523 C 0.40589 0.06597 0.64253 0.0
C524 C 0.37138 0.97048 0.67756 0.0
C525 C 0.39832 0.8761 0.67432 0.0
N526 N 0.39057 0.03159 0.65206 0.0
N527 N 0.40943 0.90799 0.66334 0.0
H528 H 0.48522 0.10336 0.93457 0.0
H529 H 0.23708 0.04976 0.89355 0.0
H530 H 0.37938 0.00807 0.95255 0.0
H531 H 0.32732 0.16816 0.88197 0.0
H532 H 0.29582 0.02461 0.91229 0.0
H533 H 0.43327 0.11955 0.91289 0.0
C534 C 0.45085 0.08615 0.93405 0.0
C535 C 0.43636 0.05479 0.94555 0.0
C536 C 0.30292 0.05584 0.90554 0.0
C537 C 0.37729 0.07227 0.92048 0.0
C538 C 0.26954 0.07014 0.89476 0.0
C539 C 0.2769 0.11163 0.8863 0.0
C540 C 0.34406 0.08306 0.90787 0.0
C541 C 0.31987 0.13624 0.88832 0.0
C542 C 0.42144 0.09508 0.92157 0.0
C543 C 0.39208 0.03237 0.94396 0.0
N544 N 0.35165 0.12181 0.89901 0.0
N545 N 0.36403 0.04167 0.93168 0.0
H546 H 0.14183 0.10177 0.20656 0.0
H547 H 0.20315 0.84208 0.17681 0.0
H548 H 0.24713 0.01373 0.22841 0.0
H549 H 0.08684 0.92718 0.16016 0.0
H550 H 0.21244 0.89817 0.19842 0.0
H551 H 0.11347 0.03275 0.19238 0.0
C552 C 0.15854 0.06782 0.20864 0.0
C553 C 0.19755 0.06403 0.2186 0.0
C554 C 0.18428 0.90391 0.19019 0.0
C555 C 0.16598 0.98449 0.20183 0.0
C556 C 0.17887 0.87182 0.17788 0.0
C557 C 0.14473 0.88036 0.16649 0.0
C558 C 0.15541 0.94469 0.19102 0.0
C559 C 0.11418 0.91944 0.16849 0.0
C560 C 0.14246 0.02825 0.2004 0.0
C561 C 0.2179 0.0188 0.22054 0.0
N562 N 0.12066 0.95038 0.18036 0.0
N563 N 0.20241 0.98096 0.21203 0.0
H564 H 0.3056 0.05476 0.51488 0.0
H565 H 0.40313 0.24557 0.57547 0.0
H566 H 0.2254 0.17408 0.53284 0.0
H567 H 0.48054 0.11876 0.56238 0.0
H568 H 0.34597 0.22892 0.55524 0.0
H569 H 0.37606 0.085 0.52825 0.0
C570 C 0.30278 0.08735 0.52159 0.0
C571 C 0.25923 0.11155 0.52289 0.0
C572 C 0.37581 0.20503 0.55661 0.0
C573 C 0.33997 0.14673 0.53797 0.0
C574 C 0.40884 0.21476 0.56811 0.0
C575 C 0.44653 0.18322 0.57079 0.0
C576 C 0.37983 0.16297 0.54785 0.0
C577 C 0.45185 0.14386 0.56083 0.0
C578 C 0.34314 0.10479 0.5291 0.0
C579 C 0.2581 0.15427 0.53141 0.0
N580 N 0.41828 0.13433 0.54997 0.0
N581 N 0.2977 0.17021 0.53872 0.0
H582 H 0.32187 0.96626 0.77535 0.0
H583 H 0.10327 0.07538 0.81962 0.0
H584 H 0.17913 0.91334 0.7696 0.0
H585 H 0.2369 0.14918 0.81535 0.0
H586 H 0.12733 0.02116 0.79898 0.0
H587 H 0.29002 0.03758 0.78803 0.0
C588 C 0.28377 0.96993 0.77666 0.0
C589 C 0.25309 0.93368 0.77161 0.0
C590 C 0.15103 0.04981 0.80231 0.0
C591 C 0.21635 0.01498 0.78612 0.0
C592 C 0.13721 0.08095 0.81408 0.0
C593 C 0.16839 0.1165 0.81938 0.0
C594 C 0.19675 0.0536 0.79601 0.0
C595 C 0.21186 0.12207 0.81173 0.0
C596 C 0.26556 0.01076 0.78378 0.0
C597 C 0.20399 0.94046 0.77335 0.0
N598 N 0.22522 0.09024 0.80065 0.0
N599 N 0.18717 0.97997 0.78068 0.0
H600 H 0.43677 0.8534 0.03905 0.0
H601 H 0.25926 0.94412 0.10247 0.0
H602 H 0.43829 0.00026 0.05436 0.0
H603 H 0.31575 0.80141 0.10222 0.0
H604 H 0.32062 0.96681 0.08404 0.0
H605 H 0.38663 0.83414 0.06088 0.0
C606 C 0.42689 0.88163 0.047 0.0
C607 C 0.4421 0.92859 0.04481 0.0
C608 C 0.32002 0.93079 0.08826 0.0
C609 C 0.38378 0.90668 0.06969 0.0
C610 C 0.28515 0.91784 0.09877 0.0
C611 C 0.28231 0.87076 0.1038 0.0
C612 C 0.35136 0.89611 0.0825 0.0
C613 C 0.31672 0.83812 0.09867 0.0
C614 C 0.39822 0.87052 0.05947 0.0
C615 C 0.42688 0.96373 0.05537 0.0
N616 N 0.34931 0.85118 0.08805 0.0
N617 N 0.39828 0.95211 0.0673 0.0
H618 H 0.3949 0.14434 0.31297 0.0
H619 H 0.37023 0.87865 0.34271 0.0
H620 H 0.30117 0.04034 0.29229 0.0
H621 H 0.47298 0.98035 0.35985 0.0
H622 H 0.33476 0.94092 0.32715 0.0
H623 H 0.41449 0.088 0.33297 0.0
C624 C 0.37845 0.10953 0.31266 0.0
C625 C 0.34709 0.09656 0.30082 0.0
C626 C 0.36473 0.94966 0.33446 0.0
C627 C 0.36905 0.03196 0.32374 0.0
C628 C 0.38492 0.91419 0.34339 0.0
C629 C 0.42516 0.92411 0.35241 0.0
C630 C 0.38488 0.99528 0.33459 0.0
C631 C 0.44248 0.97085 0.35289 0.0
C632 C 0.38941 0.07748 0.32413 0.0
C633 C 0.32572 0.05157 0.30119 0.0
N634 N 0.42252 0.00455 0.34398 0.0
N635 N 0.33752 0.02059 0.31239 0.0
H636 H 0.80813 0.13565 0.51427 0.0
H637 H 0.71987 0.11438 0.59883 0.0
H638 H 0.84428 0.01605 0.54242 0.0
H639 H 0.64151 0.19551 0.56577 0.0
H640 H 0.76207 0.07409 0.57787 0.0
H641 H 0.74409 0.15623 0.53226 0.0
C642 C 0.80221 0.11348 0.52414 0.0
C643 C 0.83176 0.07439 0.52696 0.0
C644 C 0.73486 0.09983 0.57512 0.0
C645 C 0.75897 0.09767 0.54753 0.0
C646 C 0.71076 0.12264 0.58708 0.0
C647 C 0.67739 0.15803 0.58391 0.0
C648 C 0.72658 0.11375 0.55994 0.0
C649 C 0.6669 0.16804 0.56857 0.0
C650 C 0.76548 0.12496 0.53432 0.0
C651 C 0.82226 0.04643 0.5398 0.0
N652 N 0.6923 0.14675 0.5571 0.0
N653 N 0.78718 0.05905 0.54974 0.0
H654 H 0.81596 0.99008 0.2935 0.0
H655 H 0.58011 0.85901 0.31872 0.0
H656 H 0.68343 -0.00226 0.26874 0.0
H657 H 0.71544 0.83316 0.34008 0.0
H658 H 0.62014 0.90175 0.29825 0.0
H659 H 0.78308 0.92583 0.30888 0.0
C660 C 0.7801 0.97798 0.29122 0.0
C661 C 0.75219 -0.00032 0.27994 0.0
C662 C 0.64141 0.88599 0.3072 0.0
C663 C 0.71447 0.9262 0.29742 0.0
C664 C 0.61853 0.86145 0.31881 0.0
C665 C 0.64481 0.8426 0.3309 0.0
C666 C 0.69081 0.89275 0.30795 0.0
C667 C 0.6943 0.84704 0.33078 0.0
C668 C 0.76148 0.9411 0.29992 0.0
C669 C 0.7063 0.982 0.27726 0.0
N670 N 0.7158 0.87243 0.31957 0.0
N671 N 0.68872 0.94674 0.28606 0.0
H672 H 0.84475 0.84683 0.02035 0.0
H673 H 0.00844 0.91534 0.09224 0.0
H674 H 0.83858 0.98089 0.0451 0.0
H675 H 0.00192 0.77325 0.07298 0.0
H676 H 0.95092 0.9412 0.07334 0.0
H677 H 0.90672 0.82025 0.03799 0.0
C678 C 0.8565 0.87072 0.02944 0.0
C679 C 0.83645 0.91622 0.03123 0.0
C680 C 0.96188 0.90429 0.07323 0.0
C681 C 0.90739 0.88622 0.05129 0.0
C682 C 0.99486 0.8895 0.08401 0.0
C683 C 0.00959 0.8419 0.08426 0.0
C684 C 0.94352 0.87137 0.06254 0.0
C685 C 0.99074 0.81003 0.07334 0.0
C686 C 0.89191 0.85557 0.03946 0.0
C687 C 0.85348 0.94589 0.04308 0.0
N688 N 0.95857 0.82535 0.06287 0.0
N689 N 0.88784 0.93031 0.05266 0.0
H690 H 0.92436 0.01651 0.76917 0.0
H691 H 0.94124 0.12806 0.85178 0.0
H692 H 0.88616 0.93793 0.80959 0.0
H693 H 0.04852 0.16186 0.81834 0.0
H694 H 0.91397 0.06286 0.83523 0.0
H695 H 0.96556 0.07469 0.7857 0.0
C696 C 0.92492 0.01119 0.78146 0.0
C697 C 0.90079 0.97278 0.78802 0.0
C698 C 0.94371 0.08429 0.83154 0.0
C699 C 0.94701 0.03928 0.80682 0.0
C700 C 0.95903 0.12154 0.84092 0.0
C701 C -0.00315 0.15019 0.83629 0.0
C702 C 0.96562 0.0764 0.81728 0.0
C703 C 0.01916 0.14028 0.82222 0.0
C704 C 0.94841 0.04437 0.79084 0.0
C705 C 0.90271 0.96781 0.80403 0.0
N706 N 0.00267 0.10443 0.813 0.0
N707 N 0.92478 0.00102 0.81288 0.0
H708 H 0.85552 0.00602 0.42751 0.0
H709 H 0.63956 0.8262 0.41355 0.0
H710 H 0.81456 0.89995 0.46021 0.0
H711 H 0.72663 0.8822 0.37734 0.0
H712 H 0.68578 0.87317 0.43236 0.0
H713 H 0.79046 0.97997 0.41072 0.0
C714 C 0.83229 0.97778 0.43125 0.0
C715 C 0.8406 0.95465 0.44515 0.0
C716 C 0.69391 0.87587 0.42025 0.0
C717 C 0.76627 0.92505 0.42612 0.0
C718 C 0.66742 0.84952 0.40955 0.0
C719 C 0.67984 0.85024 0.39398 0.0
C720 C 0.7322 0.90355 0.41519 0.0
C721 C 0.71641 0.88051 0.38931 0.0
C722 C 0.79536 0.96291 0.42168 0.0
C723 C 0.80966 0.91811 0.44945 0.0
N724 N 0.74156 0.9058 0.39989 0.0
N725 N 0.77389 0.90421 0.43992 0.0
H726 H 0.83109 0.99107 0.19154 0.0
H727 H 0.04935 0.83233 0.16214 0.0
H728 H 0.97222 0.00324 0.21051 0.0
H729 H 0.91359 0.83944 0.13932 0.0
H730 H 0.02044 0.88906 0.18158 0.0
H731 H 0.85906 0.92819 0.17424 0.0
C732 C 0.86798 0.98023 0.1921 0.0
C733 C 0.89957 0.00268 0.20231 0.0
C734 C -0.00284 0.87844 0.17225 0.0
C735 C 0.9319 0.93083 0.18255 0.0
C736 C 0.01379 0.8465 0.16108 0.0
C737 C 0.98414 0.83196 0.14896 0.0
C738 C 0.95056 0.89583 0.17125 0.0
C739 C 0.93773 0.84993 0.14843 0.0
C740 C 0.88393 0.94437 0.18223 0.0
C741 C 0.94674 0.98671 0.20281 0.0
N742 N 0.92243 0.88105 0.1594 0.0
N743 N 0.96166 0.95194 0.19293 0.0
H744 H 0.83771 0.13981 0.96112 0.0
H745 H 0.9918 0.07626 0.88642 0.0
H746 H 0.82025 0.01134 0.93396 0.0
H747 H 0.00287 0.20956 0.91125 0.0
H748 H 0.93026 0.05102 0.90427 0.0
H749 H 0.89938 0.16566 0.94336 0.0
C750 C 0.84678 0.11707 0.95141 0.0
C751 C 0.82384 0.07328 0.94904 0.0
C752 C 0.94596 0.08589 0.9058 0.0
C753 C 0.89467 0.10236 0.9288 0.0
C754 C 0.98114 0.10024 0.89564 0.0
C755 C 0.00193 0.14526 0.8973 0.0
C756 C 0.93182 0.11665 0.9178 0.0
C757 C 0.98692 0.17497 0.90941 0.0
C758 C 0.88213 0.13175 0.94132 0.0
C759 C 0.83749 0.04499 0.93639 0.0
N760 N 0.95279 0.16009 0.91925 0.0
N761 N 0.87199 0.06003 0.92675 0.0
H762 H 0.81771 0.96505 0.68449 0.0
H763 H 0.65118 0.18598 0.66514 0.0
H764 H 0.70077 0.01058 0.71337 0.0
H765 H 0.70425 0.08871 0.63048 0.0
H766 H 0.6922 0.13945 0.68486 0.0
H767 H 0.79705 0.02743 0.66642 0.0
C768 C 0.7879 0.98805 0.68713 0.0
C769 C 0.76056 0.98165 0.70046 0.0
C770 C 0.69566 0.12911 0.67288 0.0
C771 C 0.73828 0.05437 0.68007 0.0
C772 C 0.67269 0.15574 0.66167 0.0
C773 C 0.67421 0.14068 0.64628 0.0
C774 C 0.72094 0.08801 0.66852 0.0
C775 C 0.70204 0.10104 0.6423 0.0
C776 C 0.77656 0.02396 0.67687 0.0
C777 C 0.72336 0.014 0.70341 0.0
N778 N 0.72418 0.07583 0.65338 0.0
N779 N 0.71322 0.04877 0.69327 0.0
H780 H 0.73331 0.31665 0.95283 0.0
H781 H 0.99154 0.37392 0.922 0.0
H782 H 0.81491 0.43794 0.96854 0.0
H783 H 0.91088 0.24845 0.90975 0.0
H784 H 0.93414 0.3913 0.94244 0.0
H785 H 0.80383 0.28487 0.94036 0.0
C786 C 0.76619 0.33637 0.95388 0.0
C787 C 0.76782 0.38045 0.96162 0.0
C788 C 0.92966 0.35942 0.93547 0.0
C789 C 0.84892 0.34459 0.94692 0.0
C790 C 0.96257 0.34934 0.92385 0.0
C791 C 0.95563 0.3101 0.91396 0.0
C792 C 0.88964 0.33008 0.93714 0.0
C793 C 0.91749 0.27943 0.91695 0.0
C794 C 0.80657 0.31823 0.94665 0.0
C795 C 0.81158 0.40446 0.96235 0.0
N796 N 0.88562 0.29047 0.92809 0.0
N797 N 0.85024 0.38653 0.95492 0.0
H798 H 0.82153 0.45244 0.19733 0.0
H799 H 9e-05 0.5071 0.12886 0.0
H800 H 0.92404 0.35151 0.17959 0.0
H801 H 0.88722 0.60218 0.14304 0.0
H802 H 0.96843 0.44704 0.14595 0.0
H803 H 0.84121 0.50573 0.17634 0.0
C804 C 0.84793 0.44137 0.18897 0.0
C805 C 0.87168 0.3978 0.19034 0.0
C806 C 0.95027 0.48086 0.1452 0.0
C807 C 0.89452 0.45854 0.16637 0.0
C808 C 0.9683 0.51518 0.13541 0.0
C809 C 0.94672 0.56005 0.13466 0.0
C810 C 0.91062 0.49161 0.1544 0.0
C811 C 0.90536 0.56828 0.14333 0.0
C812 C 0.8592 0.47179 0.177 0.0
C813 C 0.90571 0.38531 0.17921 0.0
N814 N 0.88902 0.53461 0.15299 0.0
N815 N 0.91633 0.41565 0.16776 0.0
H816 H 0.93523 0.64927 0.44647 0.0
H817 H 0.76279 0.55777 0.38187 0.0
H818 H 0.94199 0.50406 0.42967 0.0
H819 H 0.81072 0.7034 0.38416 0.0
H820 H 0.82594 0.53599 0.39975 0.0
H821 H 0.88576 0.6693 0.42454 0.0
C822 C 0.92669 0.6216 0.43815 0.0
C823 C 0.94293 0.57481 0.44 0.0
C824 C 0.82315 0.57252 0.3961 0.0
C825 C 0.88548 0.59754 0.415 0.0
C826 C 0.78724 0.58494 0.3859 0.0
C827 C 0.78143 0.63248 0.38164 0.0
C828 C 0.85256 0.60811 0.40232 0.0
C829 C 0.81405 0.66632 0.38714 0.0
C830 C 0.89841 0.63314 0.42563 0.0
C831 C 0.9296 0.54037 0.42896 0.0
N832 N 0.84771 0.65365 0.39747 0.0
N833 N 0.90131 0.55235 0.41699 0.0
H834 H 0.79837 0.53083 0.71219 0.0
H835 H 0.59644 0.41154 0.66442 0.0
H836 H 0.65038 0.56312 0.71988 0.0
H837 H 0.73121 0.34107 0.67047 0.0
H838 H 0.61411 0.46318 0.6862 0.0
H839 H 0.77502 0.45844 0.69813 0.0
C840 C 0.76099 0.52237 0.71104 0.0
C841 C 0.7262 0.55326 0.717 0.0
C842 C 0.63947 0.43577 0.68304 0.0
C843 C 0.69933 0.47083 0.70099 0.0
C844 C 0.62924 0.40593 0.67062 0.0
C845 C 0.66225 0.37164 0.66564 0.0
C846 C 0.68392 0.43272 0.69021 0.0
C847 C 0.70466 0.3669 0.67396 0.0
C848 C 0.74772 0.4809 0.70316 0.0
C849 C 0.67832 0.54032 0.71545 0.0
N850 N 0.71483 0.39795 0.68564 0.0
N851 N 0.66627 0.5005 0.70736 0.0
H852 H 0.79587 0.50326 0.03757 0.0
H853 H 0.92219 0.72779 0.06797 0.0
H854 H 0.77349 0.63634 0.01438 0.0
H855 H 0.99419 0.59224 0.06723 0.0
H856 H 0.86745 0.69771 0.04832 0.0
H857 H 0.86771 0.53586 0.04897 0.0
C858 C 0.80617 0.539 0.0346 0.0
C859 C 0.77781 0.56695 0.02496 0.0
C860 C 0.89604 0.67505 0.05218 0.0
C861 C 0.85989 0.60501 0.03856 0.0
C862 C 0.92744 0.69223 0.06335 0.0
C863 C 0.96262 0.66237 0.06938 0.0
C864 C 0.89905 0.62735 0.04736 0.0
C865 C 0.96752 0.61649 0.06299 0.0
C866 C 0.84734 0.55764 0.04121 0.0
C867 C 0.79312 0.61364 0.02203 0.0
N868 N 0.93524 0.59993 0.05263 0.0
N869 N 0.83262 0.63147 0.02902 0.0
H870 H 0.76318 0.47634 0.26131 0.0
H871 H 0.58467 0.56445 0.32675 0.0
H872 H 0.66261 0.38744 0.28493 0.0
H873 H 0.70258 0.64892 0.31102 0.0
H874 H 0.59993 0.50721 0.30621 0.0
H875 H 0.73051 0.54576 0.27492 0.0
C876 C 0.73413 0.47133 0.26927 0.0
C877 C 0.7161 0.42567 0.27209 0.0
C878 C 0.62211 0.53857 0.30708 0.0
C879 C 0.67798 0.50515 0.2874 0.0
C880 C 0.6132 0.57158 0.31877 0.0
C881 C 0.64284 0.61131 0.32078 0.0
C882 C 0.66148 0.54474 0.29745 0.0
C883 C 0.6791 0.61859 0.31 0.0
C884 C 0.71528 0.51107 0.27692 0.0
C885 C 0.67757 0.42172 0.28223 0.0
N886 N 0.68803 0.58505 0.29895 0.0
N887 N 0.66014 0.4608 0.28958 0.0
H888 H 0.9098 0.36707 0.52878 0.0
H889 H 0.7486 0.44735 0.59838 0.0
H890 H 0.92063 0.50963 0.54764 0.0
H891 H 0.80442 0.30487 0.59373 0.0
H892 H 0.80343 0.47308 0.57826 0.0
H893 H 0.86017 0.34533 0.55051 0.0
C894 C 0.90177 0.39388 0.53744 0.0
C895 C 0.92003 0.44017 0.53642 0.0
C896 C 0.804 0.43639 0.58185 0.0
C897 C 0.86249 0.41552 0.56116 0.0
C898 C 0.77295 0.42172 0.59333 0.0
C899 C 0.77195 0.37389 0.5977 0.0
C900 C 0.83322 0.40272 0.5745 0.0
C901 C 0.80415 0.34211 0.59077 0.0
C902 C 0.87347 0.38136 0.54984 0.0
C903 C 0.90707 0.47367 0.54782 0.0
N904 N 0.83294 0.35693 0.57932 0.0
N905 N 0.879 0.46068 0.55974 0.0
H906 H 0.92507 0.61199 0.79471 0.0
H907 H 0.87922 0.39688 0.85027 0.0
H908 H 0.78399 0.57274 0.80906 0.0
H909 H 0.01285 0.47194 0.84881 0.0
H910 H 0.84337 0.4588 0.83466 0.0
H911 H 0.95826 0.55767 0.81355 0.0
C912 C 0.90114 0.59167 0.80181 0.0
C913 C 0.8518 0.59635 0.80029 0.0
C914 C 0.88036 0.46199 0.83793 0.0
C915 C 0.88938 0.53453 0.82187 0.0
C916 C 0.90089 0.42666 0.84681 0.0
C917 C 0.9492 0.42912 0.85074 0.0
C918 C 0.90855 0.49955 0.83273 0.0
C919 C 0.9755 0.46864 0.84603 0.0
C920 C 0.92005 0.5611 0.81265 0.0
C921 C 0.82226 0.56997 0.80992 0.0
N922 N 0.95498 0.50201 0.83708 0.0
N923 N 0.84152 0.53973 0.82023 0.0
H924 H 0.4071 0.57001 0.05714 0.0
H925 H 0.14709 0.66224 0.07191 0.0
H926 H 0.2983 0.54542 0.02313 0.0
H927 H 0.24602 0.62836 0.10795 0.0
H928 H 0.19773 0.61812 0.05351 0.0
H929 H 0.3462 0.59303 0.07566 0.0
C930 C 0.37017 0.56958 0.05362 0.0
C931 C 0.35747 0.55636 0.03865 0.0
C932 C 0.20757 0.6195 0.06553 0.0
C933 C 0.28741 0.58259 0.05971 0.0
C934 C 0.17864 0.64436 0.076 0.0
C935 C 0.19311 0.64959 0.09134 0.0
C936 C 0.25091 0.60032 0.07058 0.0
C937 C 0.23421 0.62597 0.09613 0.0
C938 C 0.33535 0.58227 0.0642 0.0
C939 C 0.30919 0.55568 0.03463 0.0
N940 N 0.26202 0.60304 0.08575 0.0
N941 N 0.27568 0.56933 0.04508 0.0
H942 H 0.22093 0.49145 0.77445 0.0
H943 H 0.21886 0.38659 0.85566 0.0
H944 H 0.34256 0.5108 0.80421 0.0
H945 H 0.15298 0.31096 0.81795 0.0
H946 H 0.2657 0.43223 0.83737 0.0
H947 H 0.19517 0.42565 0.79015 0.0
C948 C 0.24286 0.48153 0.78409 0.0
C949 C 0.28411 0.50723 0.78797 0.0
C950 C 0.24194 0.40482 0.83309 0.0
C951 C 0.25357 0.43237 0.80629 0.0
C952 C 0.21535 0.37883 0.8435 0.0
C953 C 0.18236 0.34518 0.8382 0.0
C954 C 0.23406 0.39816 0.81731 0.0
C955 C 0.17844 0.33651 0.82239 0.0
C956 C 0.22791 0.44385 0.79307 0.0
C957 C 0.30997 0.49301 0.80093 0.0
N958 N 0.20322 0.36377 0.81242 0.0
N959 N 0.29386 0.45702 0.80977 0.0
H960 H 0.32702 0.35737 0.52606 0.0
H961 H 0.48747 0.41617 0.59969 0.0
H962 H 0.31454 0.48603 0.55342 0.0
H963 H 0.49446 0.28333 0.57443 0.0
H964 H 0.42505 0.44299 0.5824 0.0
H965 H 0.38903 0.32966 0.54339 0.0
C966 C 0.33725 0.37974 0.53573 0.0
C967 C 0.31564 0.42414 0.53828 0.0
C968 C 0.44002 0.40786 0.58066 0.0
C969 C 0.38689 0.39296 0.55802 0.0
C970 C 0.47568 0.39261 0.5905 0.0
C971 C 0.49553 0.34724 0.58856 0.0
C972 C 0.42448 0.37767 0.56871 0.0
C973 C 0.47918 0.31812 0.5765 0.0
C974 C 0.37279 0.364 0.54557 0.0
C975 C 0.33074 0.45193 0.55086 0.0
N976 N 0.4446 0.33389 0.56697 0.0
N977 N 0.36543 0.43586 0.56026 0.0
H978 H 0.47211 0.48566 0.27544 0.0
H979 H 0.41011 0.63875 0.351 0.0
H980 H 0.33642 0.48292 0.29851 0.0
H981 H 0.54184 0.65239 0.32617 0.0
H982 H 0.38409 0.57869 0.33234 0.0
H983 H 0.50015 0.54434 0.29441 0.0
C984 C 0.44821 0.49753 0.28446 0.0
C985 C 0.40177 0.47967 0.28534 0.0
C986 C 0.41884 0.59458 0.33101 0.0
C987 C 0.43345 0.54655 0.30701 0.0
C988 C 0.4337 0.6288 0.34167 0.0
C989 C 0.47844 0.65004 0.3402 0.0
C990 C 0.44883 0.58175 0.31874 0.0
C991 C 0.50756 0.63599 0.32789 0.0
C992 C 0.46415 0.53105 0.29524 0.0
C993 C 0.37218 0.49639 0.29721 0.0
N994 N 0.4922 0.60276 0.31758 0.0
N995 N 0.38856 0.52879 0.30758 0.0
H996 H 0.35604 0.48717 0.93674 0.0
H997 H 0.14433 0.30623 0.91789 0.0
H998 H 0.31433 0.37489 0.96712 0.0
H999 H 0.23141 0.37311 0.88375 0.0
H1000 H 0.18749 0.35092 0.93805 0.0
H1001 H 0.29112 0.46475 0.91942 0.0
C1002 C 0.33262 0.45841 0.93991 0.0
C1003 C 0.34085 0.4324 0.95326 0.0
C1004 C 0.19618 0.3566 0.9261 0.0
C1005 C 0.26672 0.4067 0.93355 0.0
C1006 C 0.1714 0.33154 0.91466 0.0
C1007 C 0.18476 0.33609 0.89926 0.0
C1008 C 0.23371 0.38674 0.92196 0.0
C1009 C 0.22038 0.36867 0.89555 0.0
C1010 C 0.29575 0.44556 0.93001 0.0
C1011 C 0.3096 0.39526 0.95678 0.0
N1012 N 0.24388 0.39258 0.90684 0.0
N1013 N 0.27404 0.38321 0.9469 0.0
H1014 H 0.34709 0.4707 0.7031 0.0
H1015 H 0.56106 0.32533 0.66462 0.0
H1016 H 0.49386 0.50144 0.7134 0.0
H1017 H 0.41817 0.3306 0.6468 0.0
H1018 H 0.53672 0.37844 0.68586 0.0
H1019 H 0.37239 0.40551 0.68625 0.0
C1020 C 0.38469 0.46322 0.70193 0.0
C1021 C 0.41854 0.49179 0.70939 0.0
C1022 C 0.51092 0.368 0.67723 0.0
C1023 C 0.44777 0.41773 0.69007 0.0
C1024 C 0.52485 0.3382 0.66506 0.0
C1025 C 0.49186 0.32447 0.65378 0.0
C1026 C 0.4637 0.38376 0.67807 0.0
C1027 C 0.44491 0.34058 0.65518 0.0
C1028 C 0.39912 0.42617 0.6923 0.0
C1029 C 0.46676 0.4802 0.70776 0.0
N1030 N 0.43231 0.3695 0.66706 0.0
N1031 N 0.4801 0.44429 0.69807 0.0
H1032 H 0.33775 0.50951 0.44314 0.0
H1033 H 0.5025 0.7212 0.41493 0.0
H1034 H 0.34615 0.64503 0.46696 0.0
H1035 H 0.50953 0.57779 0.39677 0.0
H1036 H 0.44579 0.69453 0.43432 0.0
H1037 H 0.40205 0.53398 0.42642 0.0
C1038 C 0.3536 0.54417 0.44503 0.0
C1039 C 0.33643 0.57526 0.45649 0.0
C1040 C 0.45983 0.66898 0.42609 0.0
C1041 C 0.40948 0.60403 0.43706 0.0
C1042 C 0.49187 0.68424 0.41497 0.0
C1043 C 0.5102 0.65178 0.40413 0.0
C1044 C 0.44575 0.62111 0.42619 0.0
C1045 C 0.49621 0.60405 0.4049 0.0
C1046 C 0.39015 0.55828 0.43538 0.0
C1047 C 0.35777 0.62018 0.45813 0.0
N1048 N 0.46454 0.59024 0.41566 0.0
N1049 N 0.393 0.63337 0.44843 0.0
H1050 H 0.3169 0.46982 0.18537 0.0
H1051 H 0.14049 0.68689 0.17032 0.0
H1052 H 0.21062 0.51722 0.21786 0.0
H1053 H 0.20975 0.60395 0.13486 0.0
H1054 H 0.18485 0.64223 0.18978 0.0
H1055 H 0.29629 0.53624 0.16887 0.0
C1056 C 0.2898 0.4947 0.18916 0.0
C1057 C 0.26488 0.48765 0.20288 0.0
C1058 C 0.1911 0.63472 0.17771 0.0
C1059 C 0.24106 0.56347 0.18405 0.0
C1060 C 0.16618 0.66036 0.16667 0.0
C1061 C 0.17145 0.6485 0.1511 0.0
C1062 C 0.22163 0.59772 0.17299 0.0
C1063 C 0.20463 0.61366 0.14683 0.0
C1064 C 0.27796 0.53247 0.17972 0.0
C1065 C 0.22995 0.52088 0.2072 0.0
N1066 N 0.22822 0.58917 0.15773 0.0
N1067 N 0.21872 0.55718 0.19774 0.0
loop_
_geom_bond_atom_site_label_1
_geom_bond_atom_site_label_2
_geom_bond_distance
_geom_bond_site_symmetry_2
_ccdc_geom_bond_type
C0 C1 1.384 . S
C0 C2 1.384 . S
C0 H28 0.931 1_565 S
C1 C0 1.384 . S
C1 C4 1.382 . S
C2 C0 1.384 . S
C2 C3 1.381 . S
C2 H29 0.930 1_565 S
C3 C2 1.381 . S
C3 C5 1.381 . S
C3 C6 1.487 . S
C4 C1 1.382 . S
C4 C5 1.387 . S
C4 H30 0.930 . S
C5 C3 1.381 . S
C5 C4 1.387 . S
C5 H31 0.931 . S
C6 C3 1.487 . S
C6 C13 1.399 1_565 S
C6 N44 1.343 . S
C7 C8 1.384 . S
C7 C9 1.384 . S
C7 H32 0.931 1_545 S
C8 C7 1.384 . S
C8 C11 1.382 . S
C9 C7 1.384 . S
C9 C10 1.381 . S
C9 H33 0.930 1_545 S
C10 C9 1.381 . S
C10 C12 1.381 . S
C10 C13 1.487 . S
C11 C8 1.382 . S
C11 C12 1.387 . S
C11 H34 0.930 . S
C12 C10 1.381 . S
C12 C11 1.387 . S
C12 H35 0.931 . S
C13 C6 1.399 1_545 S
C13 C10 1.487 . S
C13 N45 1.343 . S
C14 C15 1.384 . S
C14 C16 1.384 . S
C14 H36 0.931 1_545 S
C15 C14 1.384 . S
C15 C18 1.382 . S
C16 C14 1.384 . S
C16 C17 1.381 . S
C16 H37 0.930 1_545 S
C17 C16 1.381 . S
C17 C19 1.381 . S
C17 C20 1.487 . S
C18 C15 1.382 . S
C18 C19 1.387 . S
C18 H38 0.930 . S
C19 C17 1.381 . S
C19 C18 1.387 . S
C19 H39 0.931 . S
C20 C17 1.487 . S
C20 C27 1.399 1_545 S
C20 N45 1.343 1_655 S
C21 C22 1.384 . S
C21 C23 1.384 . S
C21 H40 0.931 1_565 S
C22 C21 1.384 . S
C22 C25 1.382 . S
C23 C21 1.384 . S
C23 C24 1.381 . S
C23 H41 0.930 1_565 S
C24 C23 1.381 . S
C24 C26 1.381 . S
C24 C27 1.487 . S
C25 C22 1.382 . S
C25 C26 1.387 . S
C25 H42 0.930 . S
C26 C24 1.381 . S
C26 C25 1.387 . S
C26 H43 0.931 . S
C27 C20 1.399 1_565 S
C27 C24 1.487 . S
C27 N44 1.343 1_655 S
H28 C0 0.931 1_545 S
H29 C2 0.930 1_545 S
H30 C4 0.930 . S
H31 C5 0.931 . S
H32 C7 0.931 1_565 S
H33 C9 0.930 1_565 S
H34 C11 0.930 . S
H35 C12 0.931 . S
H36 C14 0.931 1_565 S
H37 C16 0.930 1_565 S
H38 C18 0.930 . S
H39 C19 0.931 . S
H40 C21 0.931 1_545 S
H41 C23 0.930 1_545 S
H42 C25 0.930 . S
H43 C26 0.931 . S
N44 C6 1.343 . S
N44 C27 1.343 1_455 S
N45 C13 1.343 . S
N45 C20 1.343 1_455 S
C46 C47 1.384 . S
C46 C48 1.384 . S
C46 H74 0.931 . S
C47 C46 1.384 . S
C47 C50 1.382 . S
C48 C46 1.384 . S
C48 C49 1.381 . S
C48 H75 0.930 . S
C49 C48 1.381 . S
C49 C51 1.381 . S
C49 C52 1.487 . S
C50 C47 1.382 . S
C50 C51 1.387 . S
C50 H76 0.930 . S
C51 C49 1.381 . S
C51 C50 1.387 . S
C51 H77 0.931 . S
C52 C49 1.487 . S
C52 C59 1.399 . S
C52 N90 1.343 . S
C53 C54 1.384 . S
C53 C55 1.384 . S
C53 H78 0.931 . S
C54 C53 1.384 . S
C54 C57 1.382 . S
C55 C53 1.384 . S
C55 C56 1.381 . S
C55 H79 0.930 . S
C56 C55 1.381 . S
C56 C58 1.381 . S
C56 C59 1.487 . S
C57 C54 1.382 . S
C57 C58 1.387 . S
C57 H80 0.930 . S
C58 C56 1.381 . S
C58 C57 1.387 . S
C58 H81 0.931 . S
C59 C52 1.399 . S
C59 C56 1.487 . S
C59 N91 1.343 . S
C60 C61 1.384 . S
C60 C62 1.384 . S
C60 H82 0.931 . S
C61 C60 1.384 . S
C61 C64 1.382 . S
C62 C60 1.384 . S
C62 C63 1.381 . S
C62 H83 0.930 . S
C63 C62 1.381 . S
C63 C65 1.381 . S
C63 C66 1.487 . S
C64 C61 1.382 . S
C64 C65 1.387 . S
C64 H84 0.930 . S
C65 C63 1.381 . S
C65 C64 1.387 . S
C65 H85 0.931 . S
C66 C63 1.487 . S
C66 C73 1.399 . S
C66 N91 1.343 . S
C67 C68 1.384 . S
C67 C69 1.384 . S
C67 H86 0.931 . S
C68 C67 1.384 . S
C68 C71 1.382 . S
C69 C67 1.384 . S
C69 C70 1.381 . S
C69 H87 0.930 . S
C70 C69 1.381 . S
C70 C72 1.381 . S
C70 C73 1.487 . S
C71 C68 1.382 . S
C71 C72 1.387 . S
C71 H88 0.930 . S
C72 C70 1.381 . S
C72 C71 1.387 . S
C72 H89 0.931 . S
C73 C66 1.399 . S
C73 C70 1.487 . S
C73 N90 1.343 . S
H74 C46 0.931 . S
H75 C48 0.930 . S
H76 C50 0.930 . S
H77 C51 0.931 . S
H78 C53 0.931 . S
H79 C55 0.930 . S
H80 C57 0.930 . S
H81 C58 0.931 . S
H82 C60 0.931 . S
H83 C62 0.930 . S
H84 C64 0.930 . S
H85 C65 0.931 . S
H86 C67 0.931 . S
H87 C69 0.930 . S
H88 C71 0.930 . S
H89 C72 0.931 . S
N90 C52 1.343 . S
N90 C73 1.343 . S
N91 C59 1.343 . S
N91 C66 1.343 . S
C92 C93 1.384 . S
C92 C94 1.384 . S
C92 H120 0.931 1_545 S
C93 C92 1.384 . S
C93 C96 1.382 . S
C94 C92 1.384 . S
C94 C95 1.381 . S
C94 H121 0.930 1_545 S
C95 C94 1.381 . S
C95 C97 1.381 . S
C95 C98 1.487 . S
C96 C93 1.382 . S
C96 C97 1.387 . S
C96 H122 0.930 . S
C97 C95 1.381 . S
C97 C96 1.387 . S
C97 H123 0.931 . S
C98 C95 1.487 . S
C98 C105 1.399 1_546 S
C98 N136 1.343 . S
C99 C100 1.384 . S
C99 C101 1.384 . S
C99 H124 0.931 1_565 S
C100 C99 1.384 . S
C100 C103 1.382 . S
C101 C99 1.384 . S
C101 C102 1.381 . S
C101 H125 0.930 1_565 S
C102 C101 1.381 . S
C102 C104 1.381 . S
C102 C105 1.487 . S
C103 C100 1.382 . S
C103 C104 1.387 . S
C103 H126 0.930 . S
C104 C102 1.381 . S
C104 C103 1.387 . S
C104 H127 0.931 . S
C105 C98 1.399 1_564 S
C105 C102 1.487 . S
C105 N137 1.343 . S
C106 C107 1.384 . S
C106 C108 1.384 . S
C106 H128 0.931 1_565 S
C107 C106 1.384 . S
C107 C110 1.382 . S
C108 C106 1.384 . S
C108 C109 1.381 . S
C108 H129 0.930 1_565 S
C109 C108 1.381 . S
C109 C111 1.381 . S
C109 C112 1.487 . S
C110 C107 1.382 . S
C110 C111 1.387 . S
C110 H130 0.930 . S
C111 C109 1.381 . S
C111 C110 1.387 . S
C111 H131 0.931 . S
C112 C109 1.487 . S
C112 C119 1.399 1_564 S
C112 N137 1.343 . S
C113 C114 1.384 . S
C113 C115 1.384 . S
C113 H132 0.931 1_545 S
C114 C113 1.384 . S
C114 C117 1.382 . S
C115 C113 1.384 . S
C115 C116 1.381 . S
C115 H133 0.930 1_545 S
C116 C115 1.381 . S
C116 C118 1.381 . S
C116 C119 1.487 . S
C117 C114 1.382 . S
C117 C118 1.387 . S
C117 H134 0.930 . S
C118 C116 1.381 . S
C118 C117 1.387 . S
C118 H135 0.931 . S
C119 C112 1.399 1_546 S
C119 C116 1.487 . S
C119 N136 1.343 . S
H120 C92 0.931 1_565 S
H121 C94 0.930 1_565 S
H122 C96 0.930 . S
H123 C97 0.931 . S
H124 C99 0.931 1_545 S
H125 C101 0.930 1_545 S
H126 C103 0.930 . S
H127 C104 0.931 . S
H128 C106 0.931 1_545 S
H129 C108 0.930 1_545 S
H130 C110 0.930 . S
H131 C111 0.931 . S
H132 C113 0.931 1_565 S
H133 C115 0.930 1_565 S
H134 C117 0.930 . S
H135 C118 0.931 . S
N136 C98 1.343 . S
N136 C119 1.343 . S
N137 C105 1.343 . S
N137 C112 1.343 . S
C138 C139 1.384 . S
C138 C140 1.384 . S
C138 H166 0.931 . S
C139 C138 1.384 . S
C139 C142 1.382 . S
C140 C138 1.384 . S
C140 C141 1.381 . S
C140 H167 0.930 . S
C141 C140 1.381 . S
C141 C143 1.381 . S
C141 C144 1.487 . S
C142 C139 1.382 . S
C142 C143 1.387 . S
C142 H168 0.930 . S
C143 C141 1.381 . S
C143 C142 1.387 . S
C143 H169 0.931 . S
C144 C141 1.487 . S
C144 C151 1.399 . S
C144 N182 1.343 . S
C145 C146 1.384 . S
C145 C147 1.384 . S
C145 H170 0.931 . S
C146 C145 1.384 . S
C146 C149 1.382 . S
C147 C145 1.384 . S
C147 C148 1.381 . S
C147 H171 0.930 . S
C148 C147 1.381 . S
C148 C150 1.381 . S
C148 C151 1.487 . S
C149 C146 1.382 . S
C149 C150 1.387 . S
C149 H172 0.930 . S
C150 C148 1.381 . S
C150 C149 1.387 . S
C150 H173 0.931 . S
C151 C144 1.399 . S
C151 C148 1.487 . S
C151 N183 1.343 . S
C152 C153 1.384 . S
C152 C154 1.384 . S
C152 H174 0.931 . S
C153 C152 1.384 . S
C153 C156 1.382 . S
C154 C152 1.384 . S
C154 C155 1.381 . S
C154 H175 0.930 . S
C155 C154 1.381 . S
C155 C157 1.381 . S
C155 C158 1.487 . S
C156 C153 1.382 . S
C156 C157 1.387 . S
C156 H176 0.930 . S
C157 C155 1.381 . S
C157 C156 1.387 . S
C157 H177 0.931 . S
C158 C155 1.487 . S
C158 C165 1.399 . S
C158 N183 1.343 . S
C159 C160 1.384 . S
C159 C161 1.384 . S
C159 H178 0.931 . S
C160 C159 1.384 . S
C160 C163 1.382 . S
C161 C159 1.384 . S
C161 C162 1.381 . S
C161 H179 0.930 . S
C162 C161 1.381 . S
C162 C164 1.381 . S
C162 C165 1.487 . S
C163 C160 1.382 . S
C163 C164 1.387 . S
C163 H180 0.930 . S
C164 C162 1.381 . S
C164 C163 1.387 . S
C164 H181 0.931 . S
C165 C158 1.399 . S
C165 C162 1.487 . S
C165 N182 1.343 . S
H166 C138 0.931 . S
H167 C140 0.930 . S
H168 C142 0.930 . S
H169 C143 0.931 . S
H170 C145 0.931 . S
H171 C147 0.930 . S
H172 C149 0.930 . S
H173 C150 0.931 . S
H174 C152 0.931 . S
H175 C154 0.930 . S
H176 C156 0.930 . S
H177 C157 0.931 . S
H178 C159 0.931 . S
H179 C161 0.930 . S
H180 C163 0.930 . S
H181 C164 0.931 . S
N182 C144 1.343 . S
N182 C165 1.343 . S
N183 C151 1.343 . S
N183 C158 1.343 . S
C184 C185 1.384 . S
C184 C186 1.384 . S
C184 H212 0.931 . S
C185 C184 1.384 . S
C185 C188 1.382 . S
C186 C184 1.384 . S
C186 C187 1.381 . S
C186 H213 0.930 . S
C187 C186 1.381 . S
C187 C189 1.381 . S
C187 C190 1.487 . S
C188 C185 1.382 . S
C188 C189 1.387 . S
C188 H214 0.930 . S
C189 C187 1.381 . S
C189 C188 1.387 . S
C189 H215 0.931 . S
C190 C187 1.487 . S
C190 C197 1.399 . S
C190 N228 1.343 . S
C191 C192 1.384 . S
C191 C193 1.384 . S
C191 H216 0.931 . S
C192 C191 1.384 . S
C192 C195 1.382 . S
C193 C191 1.384 . S
C193 C194 1.381 . S
C193 H217 0.930 . S
C194 C193 1.381 . S
C194 C196 1.381 . S
C194 C197 1.487 . S
C195 C192 1.382 . S
C195 C196 1.387 . S
C195 H218 0.930 . S
C196 C194 1.381 . S
C196 C195 1.387 . S
C196 H219 0.931 . S
C197 C190 1.399 . S
C197 C194 1.487 . S
C197 N229 1.343 . S
C198 C199 1.384 . S
C198 C200 1.384 . S
C198 H220 0.931 . S
C199 C198 1.384 . S
C199 C202 1.382 . S
C200 C198 1.384 . S
C200 C201 1.381 . S
C200 H221 0.930 . S
C201 C200 1.381 . S
C201 C203 1.381 . S
C201 C204 1.487 . S
C202 C199 1.382 . S
C202 C203 1.387 . S
C202 H222 0.930 . S
C203 C201 1.381 . S
C203 C202 1.387 . S
C203 H223 0.931 . S
C204 C201 1.487 . S
C204 C211 1.399 . S
C204 N229 1.343 . S
C205 C206 1.384 . S
C205 C207 1.384 . S
C205 H224 0.931 . S
C206 C205 1.384 . S
C206 C209 1.382 . S
C207 C205 1.384 . S
C207 C208 1.381 . S
C207 H225 0.930 . S
C208 C207 1.381 . S
C208 C210 1.381 . S
C208 C211 1.487 . S
C209 C206 1.382 . S
C209 C210 1.387 . S
C209 H226 0.930 . S
C210 C208 1.381 . S
C210 C209 1.387 . S
C210 H227 0.931 . S
C211 C204 1.399 . S
C211 C208 1.487 . S
C211 N228 1.343 . S
H212 C184 0.931 . S
H213 C186 0.930 . S
H214 C188 0.930 . S
H215 C189 0.931 . S
H216 C191 0.931 . S
H217 C193 0.930 . S
H218 C195 0.930 . S
H219 C196 0.931 . S
H220 C198 0.931 . S
H221 C200 0.930 . S
H222 C202 0.930 . S
H223 C203 0.931 . S
H224 C205 0.931 . S
H225 C207 0.930 . S
H226 C209 0.930 . S
H227 C210 0.931 . S
N228 C190 1.343 . S
N228 C211 1.343 . S
N229 C197 1.343 . S
N229 C204 1.343 . S
C230 C231 1.384 . S
C230 C232 1.384 . S
C230 H258 0.931 . S
C231 C230 1.384 . S
C231 C234 1.382 . S
C232 C230 1.384 . S
C232 C233 1.381 . S
C232 H259 0.930 . S
C233 C232 1.381 . S
C233 C235 1.381 . S
C233 C236 1.487 . S
C234 C231 1.382 . S
C234 C235 1.387 . S
C234 H260 0.930 . S
C235 C233 1.381 . S
C235 C234 1.387 . S
C235 H261 0.931 . S
C236 C233 1.487 . S
C236 C243 1.399 . S
C236 N274 1.343 . S
C237 C238 1.384 . S
C237 C239 1.384 . S
C237 H262 0.931 . S
C238 C237 1.384 . S
C238 C241 1.382 . S
C239 C237 1.384 . S
C239 C240 1.381 . S
C239 H263 0.930 . S
C240 C239 1.381 . S
C240 C242 1.381 . S
C240 C243 1.487 . S
C241 C238 1.382 . S
C241 C242 1.387 . S
C241 H264 0.930 . S
C242 C240 1.381 . S
C242 C241 1.387 . S
C242 H265 0.931 . S
C243 C236 1.399 . S
C243 C240 1.487 . S
C243 N275 1.343 . S
C244 C245 1.384 . S
C244 C246 1.384 . S
C244 H266 0.931 . S
C245 C244 1.384 . S
C245 C248 1.382 . S
C246 C244 1.384 . S
C246 C247 1.381 . S
C246 H267 0.930 . S
C247 C246 1.381 . S
C247 C249 1.381 . S
C247 C250 1.487 . S
C248 C245 1.382 . S
C248 C249 1.387 . S
C248 H268 0.930 . S
C249 C247 1.381 . S
C249 C248 1.387 . S
C249 H269 0.931 . S
C250 C247 1.487 . S
C250 C257 1.399 . S
C250 N275 1.343 . S
C251 C252 1.384 . S
C251 C253 1.384 . S
C251 H270 0.931 . S
C252 C251 1.384 . S
C252 C255 1.382 . S
C253 C251 1.384 . S
C253 C254 1.381 . S
C253 H271 0.930 . S
C254 C253 1.381 . S
C254 C256 1.381 . S
C254 C257 1.487 . S
C255 C252 1.382 . S
C255 C256 1.387 . S
C255 H272 0.930 . S
C256 C254 1.381 . S
C256 C255 1.387 . S
C256 H273 0.931 . S
C257 C250 1.399 . S
C257 C254 1.487 . S
C257 N274 1.343 . S
H258 C230 0.931 . S
H259 C232 0.930 . S
H260 C234 0.930 . S
H261 C235 0.931 . S
H262 C237 0.931 . S
H263 C239 0.930 . S
H264 C241 0.930 . S
H265 C242 0.931 . S
H266 C244 0.931 . S
H267 C246 0.930 . S
H268 C248 0.930 . S
H269 C249 0.931 . S
H270 C251 0.931 . S
H271 C253 0.930 . S
H272 C255 0.930 . S
H273 C256 0.931 . S
N274 C236 1.343 . S
N274 C257 1.343 . S
N275 C243 1.343 . S
N275 C250 1.343 . S
C276 C277 1.384 . S
C276 C278 1.384 . S
C276 H304 0.931 . S
C277 C276 1.384 . S
C277 C280 1.382 . S
C278 C276 1.384 . S
C278 C279 1.381 . S
C278 H305 0.930 . S
C279 C278 1.381 . S
C279 C281 1.381 . S
C279 C282 1.487 . S
C280 C277 1.382 . S
C280 C281 1.387 . S
C280 H306 0.930 . S
C281 C279 1.381 . S
C281 C280 1.387 . S
C281 H307 0.931 . S
C282 C279 1.487 . S
C282 C289 1.399 1_556 S
C282 N320 1.343 . S
C283 C284 1.384 . S
C283 C285 1.384 . S
C283 H308 0.931 . S
C284 C283 1.384 . S
C284 C287 1.382 . S
C285 C283 1.384 . S
C285 C286 1.381 . S
C285 H309 0.930 . S
C286 C285 1.381 . S
C286 C288 1.381 . S
C286 C289 1.487 . S
C287 C284 1.382 . S
C287 C288 1.387 . S
C287 H310 0.930 . S
C288 C286 1.381 . S
C288 C287 1.387 . S
C288 H311 0.931 . S
C289 C282 1.399 1_554 S
C289 C286 1.487 . S
C289 N321 1.343 . S
C290 C291 1.384 . S
C290 C292 1.384 . S
C290 H312 0.931 . S
C291 C290 1.384 . S
C291 C294 1.382 . S
C292 C290 1.384 . S
C292 C293 1.381 . S
C292 H313 0.930 . S
C293 C292 1.381 . S
C293 C295 1.381 . S
C293 C296 1.487 . S
C294 C291 1.382 . S
C294 C295 1.387 . S
C294 H314 0.930 . S
C295 C293 1.381 . S
C295 C294 1.387 . S
C295 H315 0.931 . S
C296 C293 1.487 . S
C296 C303 1.399 1_554 S
C296 N321 1.343 . S
C297 C298 1.384 . S
C297 C299 1.384 . S
C297 H316 0.931 . S
C298 C297 1.384 . S
C298 C301 1.382 . S
C299 C297 1.384 . S
C299 C300 1.381 . S
C299 H317 0.930 . S
C300 C299 1.381 . S
C300 C302 1.381 . S
C300 C303 1.487 . S
C301 C298 1.382 . S
C301 C302 1.387 . S
C301 H318 0.930 . S
C302 C300 1.381 . S
C302 C301 1.387 . S
C302 H319 0.931 . S
C303 C296 1.399 1_556 S
C303 C300 1.487 . S
C303 N320 1.343 . S
H304 C276 0.931 . S
H305 C278 0.930 . S
H306 C280 0.930 . S
H307 C281 0.931 . S
H308 C283 0.931 . S
H309 C285 0.930 . S
H310 C287 0.930 . S
H311 C288 0.931 . S
H312 C290 0.931 . S
H313 C292 0.930 . S
H314 C294 0.930 . S
H315 C295 0.931 . S
H316 C297 0.931 . S
H317 C299 0.930 . S
H318 C301 0.930 . S
H319 C302 0.931 . S
N320 C282 1.343 . S
N320 C303 1.343 . S
N321 C289 1.343 . S
N321 C296 1.343 . S
C322 C323 1.384 . S
C322 C324 1.384 1_655 S
C322 H350 0.931 . S
C323 C322 1.384 . S
C323 C326 1.382 1_655 S
C324 C322 1.384 1_455 S
C324 C325 1.381 . S
C324 H351 0.930 . S
C325 C324 1.381 . S
C325 C327 1.381 . S
C325 C328 1.487 . S
C326 C323 1.382 1_455 S
C326 C327 1.387 . S
C326 H352 0.930 . S
C327 C325 1.381 . S
C327 C326 1.387 . S
C327 H353 0.931 . S
C328 C325 1.487 . S
C328 C335 1.399 . S
C328 N366 1.343 . S
C329 C330 1.384 . S
C329 C331 1.384 1_655 S
C329 H354 0.931 . S
C330 C329 1.384 . S
C330 C333 1.382 1_655 S
C331 C329 1.384 1_455 S
C331 C332 1.381 . S
C331 H355 0.930 . S
C332 C331 1.381 . S
C332 C334 1.381 . S
C332 C335 1.487 . S
C333 C330 1.382 1_455 S
C333 C334 1.387 . S
C333 H356 0.930 . S
C334 C332 1.381 . S
C334 C333 1.387 . S
C334 H357 0.931 . S
C335 C328 1.399 . S
C335 C332 1.487 . S
C335 N367 1.343 . S
C336 C337 1.384 . S
C336 C338 1.384 . S
C336 H358 0.931 . S
C337 C336 1.384 . S
C337 C340 1.382 . S
C338 C336 1.384 . S
C338 C339 1.381 . S
C338 H359 0.930 . S
C339 C338 1.381 . S
C339 C341 1.381 . S
C339 C342 1.487 . S
C340 C337 1.382 . S
C340 C341 1.387 . S
C340 H360 0.930 . S
C341 C339 1.381 . S
C341 C340 1.387 . S
C341 H361 0.931 . S
C342 C339 1.487 . S
C342 C349 1.399 . S
C342 N367 1.343 . S
C343 C344 1.384 . S
C343 C345 1.384 . S
C343 H362 0.931 . S
C344 C343 1.384 . S
C344 C347 1.382 . S
C345 C343 1.384 . S
C345 C346 1.381 . S
C345 H363 0.930 . S
C346 C345 1.381 . S
C346 C348 1.381 . S
C346 C349 1.487 . S
C347 C344 1.382 . S
C347 C348 1.387 . S
C347 H364 0.930 . S
C348 C346 1.381 . S
C348 C347 1.387 . S
C348 H365 0.931 . S
C349 C342 1.399 . S
C349 C346 1.487 . S
C349 N366 1.343 . S
H350 C322 0.931 . S
H351 C324 0.930 . S
H352 C326 0.930 . S
H353 C327 0.931 . S
H354 C329 0.931 . S
H355 C331 0.930 . S
H356 C333 0.930 . S
H357 C334 0.931 . S
H358 C336 0.931 . S
H359 C338 0.930 . S
H360 C340 0.930 . S
H361 C341 0.931 . S
H362 C343 0.931 . S
H363 C345 0.930 . S
H364 C347 0.930 . S
H365 C348 0.931 . S
N366 C328 1.343 . S
N366 C349 1.343 . S
N367 C335 1.343 . S
N367 C342 1.343 . S
C368 O395 1.312 . S
C368 O396 1.208 . S
C369 O390 1.331 1_655 S
C369 O393 1.244 . S
C370 O392 1.264 1_655 S
C370 O394 1.273 . S
Mg371 O373 1.936 . S
Mg371 O380 2.081 . S
Mg371 O382 2.023 . S
Mg371 O386 2.031 . S
Mg371 O395 2.291 . S
Mg372 O373 1.963 . S
Mg372 O383 1.942 . S
Mg372 O384 1.955 . S
Mg372 O391 1.986 . S
O373 Mg371 1.936 . S
O373 Mg372 1.963 . S
O373 Mg374 1.915 . S
Mg374 O373 1.915 . S
Mg374 O375 1.915 . S
Mg374 O379 2.013 . S
Mg374 O385 2.114 . S
Mg374 O389 2.013 . S
Mg374 O395 2.114 . S
O375 Mg374 1.915 . S
O375 Mg376 1.936 . S
O375 Mg377 1.963 1_455 S
Mg376 O375 1.936 . S
Mg376 O385 2.291 . S
Mg376 O390 2.081 . S
Mg376 O392 2.023 . S
Mg376 O396 2.031 . S
Mg377 O375 1.963 1_655 S
Mg377 O381 1.986 . S
Mg377 O393 1.942 . S
Mg377 O394 1.955 . S
C378 O389 1.191 . S
C378 O391 1.307 . S
O379 Mg374 2.013 . S
O379 C398 1.191 . S
O380 Mg371 2.081 . S
O380 C388 1.331 . S
O381 Mg377 1.986 . S
O381 C398 1.307 1_655 S
O382 Mg371 2.023 . S
O382 C397 1.264 . S
O383 Mg372 1.942 . S
O383 C388 1.244 . S
O384 Mg372 1.955 . S
O384 C397 1.273 . S
O385 Mg374 2.114 . S
O385 Mg376 2.291 . S
O385 C387 1.312 . S
O386 Mg371 2.031 . S
O386 C387 1.208 . S
C387 O385 1.312 . S
C387 O386 1.208 . S
C388 O380 1.331 . S
C388 O383 1.244 . S
O389 Mg374 2.013 . S
O389 C378 1.191 . S
O390 C369 1.331 1_455 S
O390 Mg376 2.081 . S
O391 Mg372 1.986 . S
O391 C378 1.307 . S
O392 C370 1.264 1_455 S
O392 Mg376 2.023 . S
O393 C369 1.244 . S
O393 Mg377 1.942 . S
O394 C370 1.273 . S
O394 Mg377 1.955 . S
O395 C368 1.312 . S
O395 Mg371 2.291 . S
O395 Mg374 2.114 . S
O396 C368 1.208 . S
O396 Mg376 2.031 . S
C397 O382 1.264 . S
C397 O384 1.273 . S
C398 O379 1.191 . S
C398 O381 1.307 1_455 S
C399 O426 1.312 . S
C399 O427 1.208 . S
C400 O421 1.331 . S
C400 O424 1.244 . S
C401 O423 1.264 . S
C401 O425 1.273 . S
Mg402 O404 1.936 . S
Mg402 O411 2.081 . S
Mg402 O413 2.023 . S
Mg402 O417 2.031 . S
Mg402 O426 2.291 . S
Mg403 O404 1.963 . S
Mg403 O414 1.942 . S
Mg403 O415 1.955 . S
Mg403 O422 1.986 . S
O404 Mg402 1.936 . S
O404 Mg403 1.963 . S
O404 Mg405 1.915 . S
Mg405 O404 1.915 . S
Mg405 O406 1.915 . S
Mg405 O410 2.013 . S
Mg405 O416 2.114 . S
Mg405 O420 2.013 . S
Mg405 O426 2.114 . S
O406 Mg405 1.915 . S
O406 Mg407 1.936 . S
O406 Mg408 1.963 . S
Mg407 O406 1.936 . S
Mg407 O416 2.291 . S
Mg407 O421 2.081 . S
Mg407 O423 2.023 . S
Mg407 O427 2.031 . S
Mg408 O406 1.963 . S
Mg408 O412 1.986 . S
Mg408 O424 1.942 . S
Mg408 O425 1.955 . S
C409 O420 1.191 . S
C409 O422 1.307 . S
O410 Mg405 2.013 . S
O410 C429 1.191 . S
O411 Mg402 2.081 . S
O411 C419 1.331 . S
O412 Mg408 1.986 . S
O412 C429 1.307 . S
O413 Mg402 2.023 . S
O413 C428 1.264 . S
O414 Mg403 1.942 . S
O414 C419 1.244 . S
O415 Mg403 1.955 . S
O415 C428 1.273 . S
O416 Mg405 2.114 . S
O416 Mg407 2.291 . S
O416 C418 1.312 . S
O417 Mg402 2.031 . S
O417 C418 1.208 . S
C418 O416 1.312 . S
C418 O417 1.208 . S
C419 O411 1.331 . S
C419 O414 1.244 . S
O420 Mg405 2.013 . S
O420 C409 1.191 . S
O421 C400 1.331 . S
O421 Mg407 2.081 . S
O422 Mg403 1.986 . S
O422 C409 1.307 . S
O423 C401 1.264 . S
O423 Mg407 2.023 . S
O424 C400 1.244 . S
O424 Mg408 1.942 . S
O425 C401 1.273 . S
O425 Mg408 1.955 . S
O426 C399 1.312 . S
O426 Mg402 2.291 . S
O426 Mg405 2.114 . S
O427 C399 1.208 . S
O427 Mg407 2.031 . S
C428 O413 1.264 . S
C428 O415 1.273 . S
C429 O410 1.191 . S
C429 O412 1.307 . S
C430 O457 1.312 . S
C430 O458 1.208 . S
C431 O452 1.331 . S
C431 O455 1.244 . S
C432 O454 1.264 . S
C432 O456 1.273 . S
Mg433 O435 1.936 . S
Mg433 O442 2.081 . S
Mg433 O444 2.023 . S
Mg433 O448 2.031 . S
Mg433 O457 2.291 . S
Mg434 O435 1.963 . S
Mg434 O445 1.942 . S
Mg434 O446 1.955 . S
Mg434 O453 1.986 . S
O435 Mg433 1.936 . S
O435 Mg434 1.963 . S
O435 Mg436 1.915 . S
Mg436 O435 1.915 . S
Mg436 O437 1.915 . S
Mg436 O441 2.013 . S
Mg436 O447 2.114 . S
Mg436 O451 2.013 . S
Mg436 O457 2.114 . S
O437 Mg436 1.915 . S
O437 Mg438 1.936 . S
O437 Mg439 1.963 . S
Mg438 O437 1.936 . S
Mg438 O447 2.291 . S
Mg438 O452 2.081 . S
Mg438 O454 2.023 . S
Mg438 O458 2.031 . S
Mg439 O437 1.963 . S
Mg439 O443 1.986 . S
Mg439 O455 1.942 . S
Mg439 O456 1.955 . S
C440 O451 1.191 . S
C440 O453 1.307 . S
O441 Mg436 2.013 . S
O441 C460 1.191 . S
O442 Mg433 2.081 . S
O442 C450 1.331 . S
O443 Mg439 1.986 . S
O443 C460 1.307 . S
O444 Mg433 2.023 . S
O444 C459 1.264 . S
O445 Mg434 1.942 . S
O445 C450 1.244 . S
O446 Mg434 1.955 . S
O446 C459 1.273 . S
O447 Mg436 2.114 . S
O447 Mg438 2.291 . S
O447 C449 1.312 . S
O448 Mg433 2.031 . S
O448 C449 1.208 . S
C449 O447 1.312 . S
C449 O448 1.208 . S
C450 O442 1.331 . S
C450 O445 1.244 . S
O451 Mg436 2.013 . S
O451 C440 1.191 . S
O452 C431 1.331 . S
O452 Mg438 2.081 . S
O453 Mg434 1.986 . S
O453 C440 1.307 . S
O454 C432 1.264 . S
O454 Mg438 2.023 . S
O455 C431 1.244 . S
O455 Mg439 1.942 . S
O456 C432 1.273 . S
O456 Mg439 1.955 . S
O457 C430 1.312 . S
O457 Mg433 2.291 . S
O457 Mg436 2.114 . S
O458 C430 1.208 . S
O458 Mg438 2.031 . S
C459 O444 1.264 . S
C459 O446 1.273 . S
C460 O441 1.191 . S
C460 O443 1.307 . S
C461 O488 1.312 . S
C461 O489 1.208 . S
C462 O483 1.331 . S
C462 O486 1.244 . S
C463 O485 1.264 . S
C463 O487 1.273 . S
Mg464 O466 1.936 . S
Mg464 O473 2.081 . S
Mg464 O475 2.023 . S
Mg464 O479 2.031 . S
Mg464 O488 2.291 . S
Mg465 O466 1.963 1_655 S
Mg465 O476 1.942 . S
Mg465 O477 1.955 . S
Mg465 O484 1.986 . S
O466 Mg464 1.936 . S
O466 Mg465 1.963 1_455 S
O466 Mg467 1.915 . S
Mg467 O466 1.915 . S
Mg467 O468 1.915 . S
Mg467 O472 2.013 . S
Mg467 O478 2.114 . S
Mg467 O482 2.013 . S
Mg467 O488 2.114 . S
O468 Mg467 1.915 . S
O468 Mg469 1.936 . S
O468 Mg470 1.963 . S
Mg469 O468 1.936 . S
Mg469 O478 2.291 . S
Mg469 O483 2.081 . S
Mg469 O485 2.023 . S
Mg469 O489 2.031 . S
Mg470 O468 1.963 . S
Mg470 O474 1.986 . S
Mg470 O486 1.942 . S
Mg470 O487 1.955 . S
C471 O482 1.191 . S
C471 O484 1.307 1_455 S
O472 Mg467 2.013 . S
O472 C491 1.191 . S
O473 Mg464 2.081 . S
O473 C481 1.331 1_455 S
O474 Mg470 1.986 . S
O474 C491 1.307 . S
O475 Mg464 2.023 . S
O475 C490 1.264 1_455 S
O476 Mg465 1.942 . S
O476 C481 1.244 . S
O477 Mg465 1.955 . S
O477 C490 1.273 . S
O478 Mg467 2.114 . S
O478 Mg469 2.291 . S
O478 C480 1.312 . S
O479 Mg464 2.031 . S
O479 C480 1.208 . S
C480 O478 1.312 . S
C480 O479 1.208 . S
C481 O473 1.331 1_655 S
C481 O476 1.244 . S
O482 Mg467 2.013 . S
O482 C471 1.191 . S
O483 C462 1.331 . S
O483 Mg469 2.081 . S
O484 Mg465 1.986 . S
O484 C471 1.307 1_655 S
O485 C463 1.264 . S
O485 Mg469 2.023 . S
O486 C462 1.244 . S
O486 Mg470 1.942 . S
O487 C463 1.273 . S
O487 Mg470 1.955 . S
O488 C461 1.312 . S
O488 Mg464 2.291 . S
O488 Mg467 2.114 . S
O489 C461 1.208 . S
O489 Mg469 2.031 . S
C490 O475 1.264 1_655 S
C490 O477 1.273 . S
C491 O472 1.191 . S
C491 O474 1.307 . S
H492 C498 0.930 . S
H493 C502 0.930 . S
H494 C507 0.929 . S
H495 C505 0.929 . S
H496 C500 0.929 . S
H497 C506 0.929 . S
C498 H492 0.930 . S
C498 C499 1.367 . S
C498 C506 1.378 . S
C499 C498 1.367 . S
C499 C507 1.433 . S
C500 H496 0.929 . S
C500 C502 1.378 . S
C500 C504 1.350 . S
C501 C504 1.463 . S
C501 C506 1.350 . S
C501 N509 1.427 . S
C502 H493 0.930 . S
C502 C500 1.378 . S
C502 C503 1.367 . S
C503 C502 1.367 . S
C503 C505 1.433 . S
C504 C500 1.350 . S
C504 C501 1.463 . S
C504 N508 1.427 . S
C505 H495 0.929 . S
C505 C503 1.433 . S
C505 N508 1.384 . S
C506 H497 0.929 . S
C506 C498 1.378 . S
C506 C501 1.350 . S
C507 H494 0.929 . S
C507 C499 1.433 . S
C507 N509 1.384 . S
N508 C504 1.427 . S
N508 C505 1.384 . S
N509 C501 1.427 . S
N509 C507 1.384 . S
H510 C516 0.930 . S
H511 C520 0.930 . S
H512 C525 0.929 . S
H513 C523 0.929 . S
H514 C518 0.929 1_565 S
H515 C524 0.929 1_545 S
C516 H510 0.930 . S
C516 C517 1.367 . S
C516 C524 1.378 . S
C517 C516 1.367 . S
C517 C525 1.433 . S
C518 H514 0.929 1_545 S
C518 C520 1.378 . S
C518 C522 1.350 . S
C519 C522 1.463 1_565 S
C519 C524 1.350 . S
C519 N527 1.427 . S
C520 H511 0.930 . S
C520 C518 1.378 . S
C520 C521 1.367 . S
C521 C520 1.367 . S
C521 C523 1.433 . S
C522 C518 1.350 . S
C522 C519 1.463 1_545 S
C522 N526 1.427 . S
C523 H513 0.929 . S
C523 C521 1.433 . S
C523 N526 1.384 . S
C524 H515 0.929 1_565 S
C524 C516 1.378 . S
C524 C519 1.350 . S
C525 H512 0.929 . S
C525 C517 1.433 . S
C525 N527 1.384 . S
N526 C522 1.427 . S
N526 C523 1.384 . S
N527 C519 1.427 . S
N527 C525 1.384 . S
H528 C534 0.930 . S
H529 C538 0.930 . S
H530 C543 0.929 . S
H531 C541 0.929 . S
H532 C536 0.929 . S
H533 C542 0.929 . S
C534 H528 0.930 . S
C534 C535 1.367 . S
C534 C542 1.378 . S
C535 C534 1.367 . S
C535 C543 1.433 . S
C536 H532 0.929 . S
C536 C538 1.378 . S
C536 C540 1.350 . S
C537 C540 1.463 . S
C537 C542 1.350 . S
C537 N545 1.427 . S
C538 H529 0.930 . S
C538 C536 1.378 . S
C538 C539 1.367 . S
C539 C538 1.367 . S
C539 C541 1.433 . S
C540 C536 1.350 . S
C540 C537 1.463 . S
C540 N544 1.427 . S
C541 H531 0.929 . S
C541 C539 1.433 . S
C541 N544 1.384 . S
C542 H533 0.929 . S
C542 C534 1.378 . S
C542 C537 1.350 . S
C543 H530 0.929 . S
C543 C535 1.433 . S
C543 N545 1.384 . S
N544 C540 1.427 . S
N544 C541 1.384 . S
N545 C537 1.427 . S
N545 C543 1.384 . S
H546 C552 0.930 . S
H547 C556 0.930 . S
H548 C561 0.929 . S
H549 C559 0.929 . S
H550 C554 0.929 . S
H551 C560 0.929 . S
C552 H546 0.930 . S
C552 C553 1.367 . S
C552 C560 1.378 . S
C553 C552 1.367 . S
C553 C561 1.433 . S
C554 H550 0.929 . S
C554 C556 1.378 . S
C554 C558 1.350 . S
C555 C558 1.463 1_545 S
C555 C560 1.350 . S
C555 N563 1.427 . S
C556 H547 0.930 . S
C556 C554 1.378 . S
C556 C557 1.367 . S
C557 C556 1.367 . S
C557 C559 1.433 . S
C558 C554 1.350 . S
C558 C555 1.463 1_565 S
C558 N562 1.427 . S
C559 H549 0.929 . S
C559 C557 1.433 . S
C559 N562 1.384 . S
C560 H551 0.929 . S
C560 C552 1.378 . S
C560 C555 1.350 . S
C561 H548 0.929 . S
C561 C553 1.433 . S
C561 N563 1.384 . S
N562 C558 1.427 . S
N562 C559 1.384 . S
N563 C555 1.427 . S
N563 C561 1.384 . S
H564 C570 0.930 . S
H565 C574 0.930 . S
H566 C579 0.929 . S
H567 C577 0.929 . S
H568 C572 0.929 . S
H569 C578 0.929 . S
C570 H564 0.930 . S
C570 C571 1.367 . S
C570 C578 1.378 . S
C571 C570 1.367 . S
C571 C579 1.433 . S
C572 H568 0.929 . S
C572 C574 1.378 . S
C572 C576 1.350 . S
C573 C576 1.463 . S
C573 C578 1.350 . S
C573 N581 1.427 . S
C574 H565 0.930 . S
C574 C572 1.378 . S
C574 C575 1.367 . S
C575 C574 1.367 . S
C575 C577 1.433 . S
C576 C572 1.350 . S
C576 C573 1.463 . S
C576 N580 1.427 . S
C577 H567 0.929 . S
C577 C575 1.433 . S
C577 N580 1.384 . S
C578 H569 0.929 . S
C578 C570 1.378 . S
C578 C573 1.350 . S
C579 H566 0.929 . S
C579 C571 1.433 . S
C579 N581 1.384 . S
N580 C576 1.427 . S
N580 C577 1.384 . S
N581 C573 1.427 . S
N581 C579 1.384 . S
H582 C588 0.930 . S
H583 C592 0.930 . S
H584 C597 0.929 . S
H585 C595 0.929 . S
H586 C590 0.929 . S
H587 C596 0.929 . S
C588 H582 0.930 . S
C588 C589 1.367 . S
C588 C596 1.378 . S
C589 C588 1.367 . S
C589 C597 1.433 . S
C590 H586 0.929 . S
C590 C592 1.378 . S
C590 C594 1.350 . S
C591 C594 1.463 1_565 S
C591 C596 1.350 . S
C591 N599 1.427 . S
C592 H583 0.930 . S
C592 C590 1.378 . S
C592 C593 1.367 . S
C593 C592 1.367 . S
C593 C595 1.433 . S
C594 C590 1.350 . S
C594 C591 1.463 1_545 S
C594 N598 1.427 . S
C595 H585 0.929 . S
C595 C593 1.433 . S
C595 N598 1.384 . S
C596 H587 0.929 . S
C596 C588 1.378 . S
C596 C591 1.350 . S
C597 H584 0.929 . S
C597 C589 1.433 . S
C597 N599 1.384 . S
N598 C594 1.427 . S
N598 C595 1.384 . S
N599 C591 1.427 . S
N599 C597 1.384 . S
H600 C606 0.930 . S
H601 C610 0.930 . S
H602 C615 0.929 . S
H603 C613 0.929 . S
H604 C608 0.929 . S
H605 C614 0.929 . S
C606 H600 0.930 . S
C606 C607 1.367 . S
C606 C614 1.378 . S
C607 C606 1.367 . S
C607 C615 1.433 . S
C608 H604 0.929 . S
C608 C610 1.378 . S
C608 C612 1.350 . S
C609 C612 1.463 . S
C609 C614 1.350 . S
C609 N617 1.427 . S
C610 H601 0.930 . S
C610 C608 1.378 . S
C610 C611 1.367 . S
C611 C610 1.367 . S
C611 C613 1.433 . S
C612 C608 1.350 . S
C612 C609 1.463 . S
C612 N616 1.427 . S
C613 H603 0.929 . S
C613 C611 1.433 . S
C613 N616 1.384 . S
C614 H605 0.929 . S
C614 C606 1.378 . S
C614 C609 1.350 . S
C615 H602 0.929 . S
C615 C607 1.433 . S
C615 N617 1.384 . S
N616 C612 1.427 . S
N616 C613 1.384 . S
N617 C609 1.427 . S
N617 C615 1.384 . S
H618 C624 0.930 . S
H619 C628 0.930 . S
H620 C633 0.929 . S
H621 C631 0.929 . S
H622 C626 0.929 . S
H623 C632 0.929 . S
C624 H618 0.930 . S
C624 C625 1.367 . S
C624 C632 1.378 . S
C625 C624 1.367 . S
C625 C633 1.433 . S
C626 H622 0.929 . S
C626 C628 1.378 . S
C626 C630 1.350 . S
C627 C630 1.463 1_545 S
C627 C632 1.350 . S
C627 N635 1.427 . S
C628 H619 0.930 . S
C628 C626 1.378 . S
C628 C629 1.367 . S
C629 C628 1.367 . S
C629 C631 1.433 . S
C630 C626 1.350 . S
C630 C627 1.463 1_565 S
C630 N634 1.427 . S
C631 H621 0.929 . S
C631 C629 1.433 . S
C631 N634 1.384 . S
C632 H623 0.929 . S
C632 C624 1.378 . S
C632 C627 1.350 . S
C633 H620 0.929 . S
C633 C625 1.433 . S
C633 N635 1.384 . S
N634 C630 1.427 . S
N634 C631 1.384 . S
N635 C627 1.427 . S
N635 C633 1.384 . S
H636 C642 0.930 . S
H637 C646 0.930 . S
H638 C651 0.929 . S
H639 C649 0.929 . S
H640 C644 0.929 . S
H641 C650 0.929 . S
C642 H636 0.930 . S
C642 C643 1.367 . S
C642 C650 1.378 . S
C643 C642 1.367 . S
C643 C651 1.433 . S
C644 H640 0.929 . S
C644 C646 1.378 . S
C644 C648 1.350 . S
C645 C648 1.463 . S
C645 C650 1.350 . S
C645 N653 1.427 . S
C646 H637 0.930 . S
C646 C644 1.378 . S
C646 C647 1.367 . S
C647 C646 1.367 . S
C647 C649 1.433 . S
C648 C644 1.350 . S
C648 C645 1.463 . S
C648 N652 1.427 . S
C649 H639 0.929 . S
C649 C647 1.433 . S
C649 N652 1.384 . S
C650 H641 0.929 . S
C650 C642 1.378 . S
C650 C645 1.350 . S
C651 H638 0.929 . S
C651 C643 1.433 . S
C651 N653 1.384 . S
N652 C648 1.427 . S
N652 C649 1.384 . S
N653 C645 1.427 . S
N653 C651 1.384 . S
H654 C660 0.930 . S
H655 C664 0.930 . S
H656 C669 0.929 1_545 S
H657 C667 0.929 . S
H658 C662 0.929 . S
H659 C668 0.929 . S
C660 H654 0.930 . S
C660 C661 1.367 . S
C660 C668 1.378 . S
C661 C660 1.367 . S
C661 C669 1.433 . S
C662 H658 0.929 . S
C662 C664 1.378 . S
C662 C666 1.350 . S
C663 C666 1.463 . S
C663 C668 1.350 . S
C663 N671 1.427 . S
C664 H655 0.930 . S
C664 C662 1.378 . S
C664 C665 1.367 . S
C665 C664 1.367 . S
C665 C667 1.433 . S
C666 C662 1.350 . S
C666 C663 1.463 . S
C666 N670 1.427 . S
C667 H657 0.929 . S
C667 C665 1.433 . S
C667 N670 1.384 . S
C668 H659 0.929 . S
C668 C660 1.378 . S
C668 C663 1.350 . S
C669 H656 0.929 1_565 S
C669 C661 1.433 . S
C669 N671 1.384 . S
N670 C666 1.427 . S
N670 C667 1.384 . S
N671 C663 1.427 . S
N671 C669 1.384 . S
H672 C678 0.930 . S
H673 C682 0.930 . S
H674 C687 0.929 . S
H675 C685 0.929 . S
H676 C680 0.929 . S
H677 C686 0.929 . S
C678 H672 0.930 . S
C678 C679 1.367 . S
C678 C686 1.378 . S
C679 C678 1.367 . S
C679 C687 1.433 . S
C680 H676 0.929 . S
C680 C682 1.378 . S
C680 C684 1.350 . S
C681 C684 1.463 . S
C681 C686 1.350 . S
C681 N689 1.427 . S
C682 H673 0.930 . S
C682 C680 1.378 . S
C682 C683 1.367 1_655 S
C683 C682 1.367 1_455 S
C683 C685 1.433 . S
C684 C680 1.350 . S
C684 C681 1.463 . S
C684 N688 1.427 . S
C685 H675 0.929 . S
C685 C683 1.433 . S
C685 N688 1.384 1_455 S
C686 H677 0.929 . S
C686 C678 1.378 . S
C686 C681 1.350 . S
C687 H674 0.929 . S
C687 C679 1.433 . S
C687 N689 1.384 . S
N688 C684 1.427 . S
N688 C685 1.384 1_655 S
N689 C681 1.427 . S
N689 C687 1.384 . S
H690 C696 0.930 . S
H691 C700 0.930 . S
H692 C705 0.929 1_565 S
H693 C703 0.929 . S
H694 C698 0.929 . S
H695 C704 0.929 . S
C696 H690 0.930 . S
C696 C697 1.367 . S
C696 C704 1.378 . S
C697 C696 1.367 . S
C697 C705 1.433 . S
C698 H694 0.929 . S
C698 C700 1.378 . S
C698 C702 1.350 . S
C699 C702 1.463 . S
C699 C704 1.350 . S
C699 N707 1.427 . S
C700 H691 0.930 . S
C700 C698 1.378 . S
C700 C701 1.367 1_655 S
C701 C700 1.367 1_455 S
C701 C703 1.433 . S
C702 C698 1.350 . S
C702 C699 1.463 . S
C702 N706 1.427 . S
C703 H693 0.929 . S
C703 C701 1.433 . S
C703 N706 1.384 1_455 S
C704 H695 0.929 . S
C704 C696 1.378 . S
C704 C699 1.350 . S
C705 H692 0.929 1_545 S
C705 C697 1.433 . S
C705 N707 1.384 . S
N706 C702 1.427 . S
N706 C703 1.384 1_655 S
N707 C699 1.427 . S
N707 C705 1.384 . S
H708 C714 0.930 . S
H709 C718 0.930 . S
H710 C723 0.929 . S
H711 C721 0.929 . S
H712 C716 0.929 . S
H713 C722 0.929 . S
C714 H708 0.930 . S
C714 C715 1.367 . S
C714 C722 1.378 . S
C715 C714 1.367 . S
C715 C723 1.433 . S
C716 H712 0.929 . S
C716 C718 1.378 . S
C716 C720 1.350 . S
C717 C720 1.463 . S
C717 C722 1.350 . S
C717 N725 1.427 . S
C718 H709 0.930 . S
C718 C716 1.378 . S
C718 C719 1.367 . S
C719 C718 1.367 . S
C719 C721 1.433 . S
C720 C716 1.350 . S
C720 C717 1.463 . S
C720 N724 1.427 . S
C721 H711 0.929 . S
C721 C719 1.433 . S
C721 N724 1.384 . S
C722 H713 0.929 . S
C722 C714 1.378 . S
C722 C717 1.350 . S
C723 H710 0.929 . S
C723 C715 1.433 . S
C723 N725 1.384 . S
N724 C720 1.427 . S
N724 C721 1.384 . S
N725 C717 1.427 . S
N725 C723 1.384 . S
H726 C732 0.930 . S
H727 C736 0.930 . S
H728 C741 0.929 . S
H729 C739 0.929 . S
H730 C734 0.929 . S
H731 C740 0.929 . S
C732 H726 0.930 . S
C732 C733 1.367 . S
C732 C740 1.378 . S
C733 C732 1.367 . S
C733 C741 1.433 . S
C734 H730 0.929 . S
C734 C736 1.378 . S
C734 C738 1.350 1_455 S
C735 C738 1.463 . S
C735 C740 1.350 . S
C735 N743 1.427 . S
C736 H727 0.930 . S
C736 C734 1.378 . S
C736 C737 1.367 . S
C737 C736 1.367 . S
C737 C739 1.433 1_455 S
C738 C734 1.350 1_655 S
C738 C735 1.463 . S
C738 N742 1.427 . S
C739 H729 0.929 . S
C739 C737 1.433 1_655 S
C739 N742 1.384 . S
C740 H731 0.929 . S
C740 C732 1.378 . S
C740 C735 1.350 . S
C741 H728 0.929 . S
C741 C733 1.433 . S
C741 N743 1.384 . S
N742 C738 1.427 . S
N742 C739 1.384 . S
N743 C735 1.427 . S
N743 C741 1.384 . S
H744 C750 0.930 . S
H745 C754 0.930 . S
H746 C759 0.929 . S
H747 C757 0.929 . S
H748 C752 0.929 . S
H749 C758 0.929 . S
C750 H744 0.930 . S
C750 C751 1.367 . S
C750 C758 1.378 . S
C751 C750 1.367 . S
C751 C759 1.433 . S
C752 H748 0.929 . S
C752 C754 1.378 . S
C752 C756 1.350 . S
C753 C756 1.463 . S
C753 C758 1.350 . S
C753 N761 1.427 . S
C754 H745 0.930 . S
C754 C752 1.378 . S
C754 C755 1.367 1_655 S
C755 C754 1.367 1_455 S
C755 C757 1.433 . S
C756 C752 1.350 . S
C756 C753 1.463 . S
C756 N760 1.427 . S
C757 H747 0.929 . S
C757 C755 1.433 . S
C757 N760 1.384 1_455 S
C758 H749 0.929 . S
C758 C750 1.378 . S
C758 C753 1.350 . S
C759 H746 0.929 . S
C759 C751 1.433 . S
C759 N761 1.384 . S
N760 C756 1.427 . S
N760 C757 1.384 1_655 S
N761 C753 1.427 . S
N761 C759 1.384 . S
H762 C768 0.930 . S
H763 C772 0.930 . S
H764 C777 0.929 1_565 S
H765 C775 0.929 . S
H766 C770 0.929 . S
H767 C776 0.929 . S
C768 H762 0.930 . S
C768 C769 1.367 . S
C768 C776 1.378 . S
C769 C768 1.367 . S
C769 C777 1.433 . S
C770 H766 0.929 . S
C770 C772 1.378 . S
C770 C774 1.350 . S
C771 C774 1.463 . S
C771 C776 1.350 . S
C771 N779 1.427 . S
C772 H763 0.930 . S
C772 C770 1.378 . S
C772 C773 1.367 . S
C773 C772 1.367 . S
C773 C775 1.433 . S
C774 C770 1.350 . S
C774 C771 1.463 . S
C774 N778 1.427 . S
C775 H765 0.929 . S
C775 C773 1.433 . S
C775 N778 1.384 . S
C776 H767 0.929 . S
C776 C768 1.378 . S
C776 C771 1.350 . S
C777 H764 0.929 1_545 S
C777 C769 1.433 . S
C777 N779 1.384 . S
N778 C774 1.427 . S
N778 C775 1.384 . S
N779 C771 1.427 . S
N779 C777 1.384 . S
H780 C786 0.930 . S
H781 C790 0.930 . S
H782 C795 0.929 . S
H783 C793 0.929 . S
H784 C788 0.929 . S
H785 C794 0.929 . S
C786 H780 0.930 . S
C786 C787 1.367 . S
C786 C794 1.378 . S
C787 C786 1.367 . S
C787 C795 1.433 . S
C788 H784 0.929 . S
C788 C790 1.378 . S
C788 C792 1.350 . S
C789 C792 1.463 . S
C789 C794 1.350 . S
C789 N797 1.427 . S
C790 H781 0.930 . S
C790 C788 1.378 . S
C790 C791 1.367 . S
C791 C790 1.367 . S
C791 C793 1.433 . S
C792 C788 1.350 . S
C792 C789 1.463 . S
C792 N796 1.427 . S
C793 H783 0.929 . S
C793 C791 1.433 . S
C793 N796 1.384 . S
C794 H785 0.929 . S
C794 C786 1.378 . S
C794 C789 1.350 . S
C795 H782 0.929 . S
C795 C787 1.433 . S
C795 N797 1.384 . S
N796 C792 1.427 . S
N796 C793 1.384 . S
N797 C789 1.427 . S
N797 C795 1.384 . S
H798 C804 0.930 . S
H799 C808 0.930 1_455 S
H800 C813 0.929 . S
H801 C811 0.929 . S
H802 C806 0.929 1_455 S
H803 C812 0.929 . S
C804 H798 0.930 . S
C804 C805 1.367 . S
C804 C812 1.378 . S
C805 C804 1.367 . S
C805 C813 1.433 . S
C806 H802 0.929 1_655 S
C806 C808 1.378 . S
C806 C810 1.350 . S
C807 C810 1.463 . S
C807 C812 1.350 . S
C807 N815 1.427 . S
C808 H799 0.930 1_655 S
C808 C806 1.378 . S
C808 C809 1.367 . S
C809 C808 1.367 . S
C809 C811 1.433 . S
C810 C806 1.350 . S
C810 C807 1.463 . S
C810 N814 1.427 . S
C811 H801 0.929 . S
C811 C809 1.433 . S
C811 N814 1.384 . S
C812 H803 0.929 . S
C812 C804 1.378 . S
C812 C807 1.350 . S
C813 H800 0.929 . S
C813 C805 1.433 . S
C813 N815 1.384 . S
N814 C810 1.427 . S
N814 C811 1.384 . S
N815 C807 1.427 . S
N815 C813 1.384 . S
H816 C822 0.930 . S
H817 C826 0.930 . S
H818 C831 0.929 . S
H819 C829 0.929 . S
H820 C824 0.929 . S
H821 C830 0.929 . S
C822 H816 0.930 . S
C822 C823 1.367 . S
C822 C830 1.378 . S
C823 C822 1.367 . S
C823 C831 1.433 . S
C824 H820 0.929 . S
C824 C826 1.378 . S
C824 C828 1.350 . S
C825 C828 1.463 . S
C825 C830 1.350 . S
C825 N833 1.427 . S
C826 H817 0.930 . S
C826 C824 1.378 . S
C826 C827 1.367 . S
C827 C826 1.367 . S
C827 C829 1.433 . S
C828 C824 1.350 . S
C828 C825 1.463 . S
C828 N832 1.427 . S
C829 H819 0.929 . S
C829 C827 1.433 . S
C829 N832 1.384 . S
C830 H821 0.929 . S
C830 C822 1.378 . S
C830 C825 1.350 . S
C831 H818 0.929 . S
C831 C823 1.433 . S
C831 N833 1.384 . S
N832 C828 1.427 . S
N832 C829 1.384 . S
N833 C825 1.427 . S
N833 C831 1.384 . S
H834 C840 0.930 . S
H835 C844 0.930 . S
H836 C849 0.929 . S
H837 C847 0.929 . S
H838 C842 0.929 . S
H839 C848 0.929 . S
C840 H834 0.930 . S
C840 C841 1.367 . S
C840 C848 1.378 . S
C841 C840 1.367 . S
C841 C849 1.433 . S
C842 H838 0.929 . S
C842 C844 1.378 . S
C842 C846 1.350 . S
C843 C846 1.463 . S
C843 C848 1.350 . S
C843 N851 1.427 . S
C844 H835 0.930 . S
C844 C842 1.378 . S
C844 C845 1.367 . S
C845 C844 1.367 . S
C845 C847 1.433 . S
C846 C842 1.350 . S
C846 C843 1.463 . S
C846 N850 1.427 . S
C847 H837 0.929 . S
C847 C845 1.433 . S
C847 N850 1.384 . S
C848 H839 0.929 . S
C848 C840 1.378 . S
C848 C843 1.350 . S
C849 H836 0.929 . S
C849 C841 1.433 . S
C849 N851 1.384 . S
N850 C846 1.427 . S
N850 C847 1.384 . S
N851 C843 1.427 . S
N851 C849 1.384 . S
H852 C858 0.930 . S
H853 C862 0.930 . S
H854 C867 0.929 . S
H855 C865 0.929 . S
H856 C860 0.929 . S
H857 C866 0.929 . S
C858 H852 0.930 . S
C858 C859 1.367 . S
C858 C866 1.378 . S
C859 C858 1.367 . S
C859 C867 1.433 . S
C860 H856 0.929 . S
C860 C862 1.378 . S
C860 C864 1.350 . S
C861 C864 1.463 . S
C861 C866 1.350 . S
C861 N869 1.427 . S
C862 H853 0.930 . S
C862 C860 1.378 . S
C862 C863 1.367 . S
C863 C862 1.367 . S
C863 C865 1.433 . S
C864 C860 1.350 . S
C864 C861 1.463 . S
C864 N868 1.427 . S
C865 H855 0.929 . S
C865 C863 1.433 . S
C865 N868 1.384 . S
C866 H857 0.929 . S
C866 C858 1.378 . S
C866 C861 1.350 . S
C867 H854 0.929 . S
C867 C859 1.433 . S
C867 N869 1.384 . S
N868 C864 1.427 . S
N868 C865 1.384 . S
N869 C861 1.427 . S
N869 C867 1.384 . S
H870 C876 0.930 . S
H871 C880 0.930 . S
H872 C885 0.929 . S
H873 C883 0.929 . S
H874 C878 0.929 . S
H875 C884 0.929 . S
C876 H870 0.930 . S
C876 C877 1.367 . S
C876 C884 1.378 . S
C877 C876 1.367 . S
C877 C885 1.433 . S
C878 H874 0.929 . S
C878 C880 1.378 . S
C878 C882 1.350 . S
C879 C882 1.463 . S
C879 C884 1.350 . S
C879 N887 1.427 . S
C880 H871 0.930 . S
C880 C878 1.378 . S
C880 C881 1.367 . S
C881 C880 1.367 . S
C881 C883 1.433 . S
C882 C878 1.350 . S
C882 C879 1.463 . S
C882 N886 1.427 . S
C883 H873 0.929 . S
C883 C881 1.433 . S
C883 N886 1.384 . S
C884 H875 0.929 . S
C884 C876 1.378 . S
C884 C879 1.350 . S
C885 H872 0.929 . S
C885 C877 1.433 . S
C885 N887 1.384 . S
N886 C882 1.427 . S
N886 C883 1.384 . S
N887 C879 1.427 . S
N887 C885 1.384 . S
H888 C894 0.930 . S
H889 C898 0.930 . S
H890 C903 0.929 . S
H891 C901 0.929 . S
H892 C896 0.929 . S
H893 C902 0.929 . S
C894 H888 0.930 . S
C894 C895 1.367 . S
C894 C902 1.378 . S
C895 C894 1.367 . S
C895 C903 1.433 . S
C896 H892 0.929 . S
C896 C898 1.378 . S
C896 C900 1.350 . S
C897 C900 1.463 . S
C897 C902 1.350 . S
C897 N905 1.427 . S
C898 H889 0.930 . S
C898 C896 1.378 . S
C898 C899 1.367 . S
C899 C898 1.367 . S
C899 C901 1.433 . S
C900 C896 1.350 . S
C900 C897 1.463 . S
C900 N904 1.427 . S
C901 H891 0.929 . S
C901 C899 1.433 . S
C901 N904 1.384 . S
C902 H893 0.929 . S
C902 C894 1.378 . S
C902 C897 1.350 . S
C903 H890 0.929 . S
C903 C895 1.433 . S
C903 N905 1.384 . S
N904 C900 1.427 . S
N904 C901 1.384 . S
N905 C897 1.427 . S
N905 C903 1.384 . S
H906 C912 0.930 . S
H907 C916 0.930 . S
H908 C921 0.929 . S
H909 C919 0.929 1_455 S
H910 C914 0.929 . S
H911 C920 0.929 . S
C912 H906 0.930 . S
C912 C913 1.367 . S
C912 C920 1.378 . S
C913 C912 1.367 . S
C913 C921 1.433 . S
C914 H910 0.929 . S
C914 C916 1.378 . S
C914 C918 1.350 . S
C915 C918 1.463 . S
C915 C920 1.350 . S
C915 N923 1.427 . S
C916 H907 0.930 . S
C916 C914 1.378 . S
C916 C917 1.367 . S
C917 C916 1.367 . S
C917 C919 1.433 . S
C918 C914 1.350 . S
C918 C915 1.463 . S
C918 N922 1.427 . S
C919 H909 0.929 1_655 S
C919 C917 1.433 . S
C919 N922 1.384 . S
C920 H911 0.929 . S
C920 C912 1.378 . S
C920 C915 1.350 . S
C921 H908 0.929 . S
C921 C913 1.433 . S
C921 N923 1.384 . S
N922 C918 1.427 . S
N922 C919 1.384 . S
N923 C915 1.427 . S
N923 C921 1.384 . S
H924 C930 0.930 . S
H925 C934 0.930 . S
H926 C939 0.929 . S
H927 C937 0.929 . S
H928 C932 0.929 . S
H929 C938 0.929 . S
C930 H924 0.930 . S
C930 C931 1.367 . S
C930 C938 1.378 . S
C931 C930 1.367 . S
C931 C939 1.433 . S
C932 H928 0.929 . S
C932 C934 1.378 . S
C932 C936 1.350 . S
C933 C936 1.463 . S
C933 C938 1.350 . S
C933 N941 1.427 . S
C934 H925 0.930 . S
C934 C932 1.378 . S
C934 C935 1.367 . S
C935 C934 1.367 . S
C935 C937 1.433 . S
C936 C932 1.350 . S
C936 C933 1.463 . S
C936 N940 1.427 . S
C937 H927 0.929 . S
C937 C935 1.433 . S
C937 N940 1.384 . S
C938 H929 0.929 . S
C938 C930 1.378 . S
C938 C933 1.350 . S
C939 H926 0.929 . S
C939 C931 1.433 . S
C939 N941 1.384 . S
N940 C936 1.427 . S
N940 C937 1.384 . S
N941 C933 1.427 . S
N941 C939 1.384 . S
H942 C948 0.930 . S
H943 C952 0.930 . S
H944 C957 0.929 . S
H945 C955 0.929 . S
H946 C950 0.929 . S
H947 C956 0.929 . S
C948 H942 0.930 . S
C948 C949 1.367 . S
C948 C956 1.378 . S
C949 C948 1.367 . S
C949 C957 1.433 . S
C950 H946 0.929 . S
C950 C952 1.378 . S
C950 C954 1.350 . S
C951 C954 1.463 . S
C951 C956 1.350 . S
C951 N959 1.427 . S
C952 H943 0.930 . S
C952 C950 1.378 . S
C952 C953 1.367 . S
C953 C952 1.367 . S
C953 C955 1.433 . S
C954 C950 1.350 . S
C954 C951 1.463 . S
C954 N958 1.427 . S
C955 H945 0.929 . S
C955 C953 1.433 . S
C955 N958 1.384 . S
C956 H947 0.929 . S
C956 C948 1.378 . S
C956 C951 1.350 . S
C957 H944 0.929 . S
C957 C949 1.433 . S
C957 N959 1.384 . S
N958 C954 1.427 . S
N958 C955 1.384 . S
N959 C951 1.427 . S
N959 C957 1.384 . S
H960 C966 0.930 . S
H961 C970 0.930 . S
H962 C975 0.929 . S
H963 C973 0.929 . S
H964 C968 0.929 . S
H965 C974 0.929 . S
C966 H960 0.930 . S
C966 C967 1.367 . S
C966 C974 1.378 . S
C967 C966 1.367 . S
C967 C975 1.433 . S
C968 H964 0.929 . S
C968 C970 1.378 . S
C968 C972 1.350 . S
C969 C972 1.463 . S
C969 C974 1.350 . S
C969 N977 1.427 . S
C970 H961 0.930 . S
C970 C968 1.378 . S
C970 C971 1.367 . S
C971 C970 1.367 . S
C971 C973 1.433 . S
C972 C968 1.350 . S
C972 C969 1.463 . S
C972 N976 1.427 . S
C973 H963 0.929 . S
C973 C971 1.433 . S
C973 N976 1.384 . S
C974 H965 0.929 . S
C974 C966 1.378 . S
C974 C969 1.350 . S
C975 H962 0.929 . S
C975 C967 1.433 . S
C975 N977 1.384 . S
N976 C972 1.427 . S
N976 C973 1.384 . S
N977 C969 1.427 . S
N977 C975 1.384 . S
H978 C984 0.930 . S
H979 C988 0.930 . S
H980 C993 0.929 . S
H981 C991 0.929 . S
H982 C986 0.929 . S
H983 C992 0.929 . S
C984 H978 0.930 . S
C984 C985 1.367 . S
C984 C992 1.378 . S
C985 C984 1.367 . S
C985 C993 1.433 . S
C986 H982 0.929 . S
C986 C988 1.378 . S
C986 C990 1.350 . S
C987 C990 1.463 . S
C987 C992 1.350 . S
C987 N995 1.427 . S
C988 H979 0.930 . S
C988 C986 1.378 . S
C988 C989 1.367 . S
C989 C988 1.367 . S
C989 C991 1.433 . S
C990 C986 1.350 . S
C990 C987 1.463 . S
C990 N994 1.427 . S
C991 H981 0.929 . S
C991 C989 1.433 . S
C991 N994 1.384 . S
C992 H983 0.929 . S
C992 C984 1.378 . S
C992 C987 1.350 . S
C993 H980 0.929 . S
C993 C985 1.433 . S
C993 N995 1.384 . S
N994 C990 1.427 . S
N994 C991 1.384 . S
N995 C987 1.427 . S
N995 C993 1.384 . S
H996 C1002 0.930 . S
H997 C1006 0.930 . S
H998 C1011 0.929 . S
H999 C1009 0.929 . S
H1000 C1004 0.929 . S
H1001 C1010 0.929 . S
C1002 H996 0.930 . S
C1002 C1003 1.367 . S
C1002 C1010 1.378 . S
C1003 C1002 1.367 . S
C1003 C1011 1.433 . S
C1004 H1000 0.929 . S
C1004 C1006 1.378 . S
C1004 C1008 1.350 . S
C1005 C1008 1.463 . S
C1005 C1010 1.350 . S
C1005 N1013 1.427 . S
C1006 H997 0.930 . S
C1006 C1004 1.378 . S
C1006 C1007 1.367 . S
C1007 C1006 1.367 . S
C1007 C1009 1.433 . S
C1008 C1004 1.350 . S
C1008 C1005 1.463 . S
C1008 N1012 1.427 . S
C1009 H999 0.929 . S
C1009 C1007 1.433 . S
C1009 N1012 1.384 . S
C1010 H1001 0.929 . S
C1010 C1002 1.378 . S
C1010 C1005 1.350 . S
C1011 H998 0.929 . S
C1011 C1003 1.433 . S
C1011 N1013 1.384 . S
N1012 C1008 1.427 . S
N1012 C1009 1.384 . S
N1013 C1005 1.427 . S
N1013 C1011 1.384 . S
H1014 C1020 0.930 . S
H1015 C1024 0.930 . S
H1016 C1029 0.929 . S
H1017 C1027 0.929 . S
H1018 C1022 0.929 . S
H1019 C1028 0.929 . S
C1020 H1014 0.930 . S
C1020 C1021 1.367 . S
C1020 C1028 1.378 . S
C1021 C1020 1.367 . S
C1021 C1029 1.433 . S
C1022 H1018 0.929 . S
C1022 C1024 1.378 . S
C1022 C1026 1.350 . S
C1023 C1026 1.463 . S
C1023 C1028 1.350 . S
C1023 N1031 1.427 . S
C1024 H1015 0.930 . S
C1024 C1022 1.378 . S
C1024 C1025 1.367 . S
C1025 C1024 1.367 . S
C1025 C1027 1.433 . S
C1026 C1022 1.350 . S
C1026 C1023 1.463 . S
C1026 N1030 1.427 . S
C1027 H1017 0.929 . S
C1027 C1025 1.433 . S
C1027 N1030 1.384 . S
C1028 H1019 0.929 . S
C1028 C1020 1.378 . S
C1028 C1023 1.350 . S
C1029 H1016 0.929 . S
C1029 C1021 1.433 . S
C1029 N1031 1.384 . S
N1030 C1026 1.427 . S
N1030 C1027 1.384 . S
N1031 C1023 1.427 . S
N1031 C1029 1.384 . S
H1032 C1038 0.930 . S
H1033 C1042 0.930 . S
H1034 C1047 0.929 . S
H1035 C1045 0.929 . S
H1036 C1040 0.929 . S
H1037 C1046 0.929 . S
C1038 H1032 0.930 . S
C1038 C1039 1.367 . S
C1038 C1046 1.378 . S
C1039 C1038 1.367 . S
C1039 C1047 1.433 . S
C1040 H1036 0.929 . S
C1040 C1042 1.378 . S
C1040 C1044 1.350 . S
C1041 C1044 1.463 . S
C1041 C1046 1.350 . S
C1041 N1049 1.427 . S
C1042 H1033 0.930 . S
C1042 C1040 1.378 . S
C1042 C1043 1.367 . S
C1043 C1042 1.367 . S
C1043 C1045 1.433 . S
C1044 C1040 1.350 . S
C1044 C1041 1.463 . S
C1044 N1048 1.427 . S
C1045 H1035 0.929 . S
C1045 C1043 1.433 . S
C1045 N1048 1.384 . S
C1046 H1037 0.929 . S
C1046 C1038 1.378 . S
C1046 C1041 1.350 . S
C1047 H1034 0.929 . S
C1047 C1039 1.433 . S
C1047 N1049 1.384 . S
N1048 C1044 1.427 . S
N1048 C1045 1.384 . S
N1049 C1041 1.427 . S
N1049 C1047 1.384 . S
H1050 C1056 0.930 . S
H1051 C1060 0.930 . S
H1052 C1065 0.929 . S
H1053 C1063 0.929 . S
H1054 C1058 0.929 . S
H1055 C1064 0.929 . S
C1056 H1050 0.930 . S
C1056 C1057 1.367 . S
C1056 C1064 1.378 . S
C1057 C1056 1.367 . S
C1057 C1065 1.433 . S
C1058 H1054 0.929 . S
C1058 C1060 1.378 . S
C1058 C1062 1.350 . S
C1059 C1062 1.463 . S
C1059 C1064 1.350 . S
C1059 N1067 1.427 . S
C1060 H1051 0.930 . S
C1060 C1058 1.378 . S
C1060 C1061 1.367 . S
C1061 C1060 1.367 . S
C1061 C1063 1.433 . S
C1062 C1058 1.350 . S
C1062 C1059 1.463 . S
C1062 N1066 1.427 . S
C1063 H1053 0.929 . S
C1063 C1061 1.433 . S
C1063 N1066 1.384 . S
C1064 H1055 0.929 . S
C1064 C1056 1.378 . S
C1064 C1059 1.350 . S
C1065 H1052 0.929 . S
C1065 C1057 1.433 . S
C1065 N1067 1.384 . S
N1066 C1062 1.427 . S
N1066 C1063 1.384 . S
N1067 C1059 1.427 . S
N1067 C1065 1.384 . S
C503 C428 1.778 . S
C499 C1 1.839 . S
C517 C68 1.755 . S
C521 C431 1.716 . S
C535 C93 1.736 . S
C539 C462 1.701 . S
C557 C397 1.759 . S
C553 C139 1.814 . S
C575 C432 1.774 . S
C571 C8 1.836 . S
C593 C463 1.756 . S
C589 C61 1.806 . S
C611 C388 1.694 . S
C607 C100 1.734 . S
C629 C419 1.725 . S
C625 C146 1.760 . S
C643 C15 1.304 . S
C647 C449 1.212 . S
C661 C192 1.287 1_565 S
C665 C418 1.207 . S
C679 C107 1.218 . S
C683 C378 1.199 . S
C701 C471 1.215 . S
C697 C238 1.234 1_545 S
C719 C399 1.223 . S
C715 C22 1.304 . S
C733 C185 1.229 1_565 S
C737 C398 1.225 . S
C751 C114 1.219 . S
C755 C491 1.204 . S
C773 C430 1.206 . S
C769 C231 1.287 1_545 S
C787 C277 1.839 . S
C791 C490 1.788 . S
C805 C206 1.752 . S
C809 C369 1.722 . S
C823 C330 1.736 . S
C827 C400 1.696 . S
C841 C252 1.806 . S
C845 C459 1.755 . S
C863 C370 1.783 . S
C859 C284 1.835 . S
C877 C199 1.806 . S
C881 C401 1.753 . S
C895 C323 1.736 . S
C899 C450 1.695 . S
C917 C481 1.716 . S
C913 C245 1.755 . S
C931 C291 1.300 . S
C935 C387 1.234 . S
C949 C54 1.286 . S
C953 C480 1.222 . S
C967 C344 1.216 . S
C971 C440 1.200 . S
C989 C409 1.215 . S
C985 C153 1.230 . S
C1007 C461 1.232 . S
C1003 C298 1.303 . S
C1025 C460 1.225 . S
C1021 C47 1.231 . S
C1043 C429 1.211 . S
C1039 C337 1.217 . S
C1061 C368 1.211 . S
C1057 C160 1.288 . S
