# Generated by pormake.
# Topology rtl, (3,6)-cn, num edge types: 1
# Building blocks:
#     Node 0, Type 0, BuildingBlock: PAMTOO_clean_linker_0, # of connection points: 3
#     Node 1, Type 0, BuildingBlock: PAMTOO_clean_linker_0, # of connection points: 3
#     Node 2, Type 0, BuildingBlock: PAMTOO_clean_linker_0, # of connection points: 3
#     Node 3, Type 0, BuildingBlock: PAMTOO_clean_linker_0, # of connection points: 3
#     Node 4, Type 1, BuildingBlock: VOLQOD_clean_sbu_1, # of connection points: 6
#     Node 5, Type 1, BuildingBlock: VOLQOD_clean_sbu_1, # of connection points: 6
#     Edge 6, Type (0, 1), BuildingBlock: MIFKUJ_clean_linker_0, # of connection points: 2
#     Edge 7, Type (0, 1), BuildingBlock: MIFKUJ_clean_linker_0, # of connection points: 2
#     Edge 8, Type (0, 1), BuildingBlock: MIFKUJ_clean_linker_0, # of connection points: 2
#     Edge 9, Type (0, 1), BuildingBlock: MIFKUJ_clean_linker_0, # of connection points: 2
#     Edge 10, Type (0, 1), BuildingBlock: MIFKUJ_clean_linker_0, # of connection points: 2
#     Edge 11, Type (0, 1), BuildingBlock: MIFKUJ_clean_linker_0, # of connection points: 2
#     Edge 12, Type (0, 1), BuildingBlock: MIFKUJ_clean_linker_0, # of connection points: 2
#     Edge 13, Type (0, 1), BuildingBlock: MIFKUJ_clean_linker_0, # of connection points: 2
#     Edge 14, Type (0, 1), BuildingBlock: MIFKUJ_clean_linker_0, # of connection points: 2
#     Edge 15, Type (0, 1), BuildingBlock: MIFKUJ_clean_linker_0, # of connection points: 2
#     Edge 16, Type (0, 1), BuildingBlock: MIFKUJ_clean_linker_0, # of connection points: 2
#     Edge 17, Type (0, 1), BuildingBlock: MIFKUJ_clean_linker_0, # of connection points: 2
# Relax obj value: 0.041
# Max RMSD: 0.144
# Mean RMSD: 0.098
data_MOF--net-rtl--node1-VOLQOD_clean_sbu_1--node2-PAMTOO_clean_linker_0--edge1-MIFKUJ_clean_linker_0
_symmetry_space_group_name_H-M    P1
_symmetry_Int_Tables_number       1
_symmetry_cell_setting            triclinic
loop_
_symmetry_equiv_pos_as_xyz
'x, y, z'
_cell_length_a     48.773501
_cell_length_b     48.764798
_cell_length_c     28.261827
_cell_angle_alpha  92.23279
_cell_angle_beta   90.336882
_cell_angle_gamma 90.09286
loop_
_atom_site_label
_atom_site_type_symbol
_atom_site_fract_x
_atom_site_fract_y
_atom_site_fract_z
_atom_type_partial_charge
H0 H 0.14999 0.84236 0.00214 0.0
H1 H 0.19829 0.78046 0.06764 0.0
H2 H 0.20116 0.78842 0.91691 0.0
H3 H 0.19917 0.73085 0.94868 0.0
C4 C 0.20997 0.73396 0.98328 0.0
O5 O 0.21907 0.7607 0.98826 0.0
H6 H 0.19522 0.7295 0.01192 0.0
C7 C 0.16454 0.82559 -0.00083 0.0
C8 C 0.17478 0.81739 0.95453 0.0
C9 C 0.17278 0.81242 0.04011 0.0
C10 C 0.19169 0.79084 0.03635 0.0
C11 C 0.2015 0.782 0.99182 0.0
C12 C 0.19312 0.79524 0.95103 0.0
H13 H 0.64571 0.66674 0.5189 0.0
H14 H 0.70504 0.71239 0.44146 0.0
H15 H 0.69392 0.7299 0.59011 0.0
H16 H 0.69762 0.77821 0.52662 0.0
C17 C 0.71347 0.76986 0.50181 0.0
O18 O 0.72028 0.74361 0.51411 0.0
H19 H 0.70498 0.76944 0.46518 0.0
C20 C 0.66138 0.6825 0.51787 0.0
C21 C 0.66823 0.69754 0.55961 0.0
C22 C 0.67453 0.68748 0.475 0.0
C23 C 0.69459 0.70814 0.47411 0.0
C24 C 0.70131 0.7235 0.51549 0.0
C25 C 0.68841 0.71802 0.55826 0.0
H26 H 0.86128 0.17217 0.00123 0.0
H27 H 0.8077 0.23023 0.93721 0.0
H28 H 0.8062 0.22112 0.0877 0.0
H29 H 0.75259 0.22449 0.0415 0.0
C30 C 0.75765 0.2381 0.01203 0.0
O31 O 0.78459 0.24652 0.01671 0.0
H32 H 0.75467 0.22635 0.97783 0.0
C33 C 0.84549 0.18774 0.0046 0.0
C34 C 0.835 0.19497 0.04945 0.0
C35 C 0.83569 0.20007 0.96386 0.0
C36 C 0.8159 0.22081 0.96837 0.0
C37 C 0.80532 0.22829 0.01305 0.0
C38 C 0.81502 0.2156 0.05355 0.0
H39 H 0.35045 0.34044 0.46965 0.0
H40 H 0.29032 0.30158 0.55577 0.0
H41 H 0.28633 0.29132 0.40422 0.0
H42 H 0.23369 0.30029 0.4516 0.0
C43 C 0.23756 0.28924 0.48471 0.0
O44 O 0.26366 0.27848 0.48427 0.0
H45 H 0.2353 0.30418 0.51523 0.0
C46 C 0.33254 0.32743 0.4728 0.0
C47 C 0.31992 0.31625 0.43173 0.0
C48 C 0.32196 0.32256 0.51773 0.0
C49 C 0.29888 0.30558 0.52141 0.0
C50 C 0.28608 0.29443 0.48049 0.0
C51 C 0.29648 0.29986 0.43568 0.0
O52 O 0.93921 0.98003 0.50526 0.0
Zn53 Zn 0.96283 0.01364 0.50269 0.0
O54 O 0.00163 0.00466 0.50403 0.0
Zn55 Zn 0.01835 0.02134 0.56168 0.0
Zn56 Zn 0.00557 0.96478 0.50334 0.0
Zn57 Zn 0.01917 0.01887 0.44793 0.0
O58 O 0.04764 0.0486 0.54515 0.0
O59 O 0.04714 0.04749 0.46655 0.0
O60 O 0.95289 0.03925 0.55653 0.0
O61 O 0.99059 0.04306 0.60063 0.0
O62 O 0.03549 0.99236 0.60167 0.0
O63 O 0.02619 0.9535 0.56103 0.0
O64 O 0.02744 0.95096 0.44716 0.0
O65 O 0.95281 0.03308 0.44428 0.0
O66 O 0.03866 0.98889 0.41078 0.0
O67 O 0.99177 0.03674 0.40496 0.0
C68 C 0.94431 0.95443 0.50411 0.0
C69 C 0.05646 0.05709 0.50598 0.0
C70 C 0.03693 0.9663 0.59666 0.0
C71 C 0.96558 0.04901 0.59282 0.0
C72 C 0.03983 0.96296 0.41424 0.0
C73 C 0.96612 0.04107 0.40881 0.0
O74 O 0.96885 0.94554 0.5024 0.0
O75 O 0.56131 0.47663 0.9937 0.0
Zn76 Zn 0.53875 0.5112 -0.00224 0.0
O77 O 0.49947 0.50347 -0.00249 0.0
Zn78 Zn 0.48274 0.51929 0.94183 0.0
Zn79 Zn 0.4941 0.46382 0.99469 0.0
Zn80 Zn 0.4826 0.51925 0.05527 0.0
O81 O 0.45197 0.54461 0.96091 0.0
O82 O 0.45353 0.54694 0.0395 0.0
O83 O 0.5492 0.535 0.94445 0.0
O84 O 0.51008 0.54148 0.90605 0.0
O85 O 0.46701 0.48989 0.8975 0.0
O86 O 0.47431 0.45147 0.93518 0.0
O87 O 0.47154 0.45175 0.049 0.0
O88 O 0.54965 0.53173 0.05758 0.0
O89 O 0.46365 0.48997 0.0919 0.0
O90 O 0.51105 0.5378 0.0979 0.0
C91 C 0.55488 0.45135 0.99496 0.0
C92 C 0.4431 0.55418 0.00048 0.0
C93 C 0.46489 0.46394 0.89988 0.0
C94 C 0.53572 0.54573 0.91123 0.0
C95 C 0.46087 0.46415 0.08478 0.0
C96 C 0.53686 0.54102 0.09388 0.0
O97 O 0.52995 0.44372 -0.00343 0.0
H98 H 0.21864 0.25485 0.4135 0.0
H99 H 0.18775 0.21545 0.41943 0.0
H100 H 0.18123 0.23193 0.57012 0.0
H101 H 0.21258 0.27104 0.56423 0.0
H102 H 0.18913 0.1785 0.55057 0.0
H103 H 0.12867 0.2478 0.4951 0.0
H104 H 0.11314 0.28396 0.4426 0.0
H105 H 0.11203 0.22595 0.32435 0.0
H106 H 0.12792 0.18949 0.37602 0.0
H107 H 0.07529 0.08866 0.58175 0.0
H108 H 0.10639 0.12796 0.58027 0.0
H109 H 0.11511 0.11556 0.42912 0.0
H110 H 0.08368 0.07664 0.43007 0.0
H111 H 0.10515 0.16788 0.45164 0.0
H112 H 0.16665 0.09882 0.50696 0.0
H113 H 0.18209 0.06269 0.55962 0.0
H114 H 0.18099 0.12032 0.67841 0.0
H115 H 0.16519 0.15672 0.62654 0.0
C116 C 0.21029 0.25016 0.4477 0.0
C117 C 0.21736 0.2662 0.48824 0.0
C118 C 0.19268 0.22774 0.4511 0.0
C119 C 0.18183 0.22104 0.49512 0.0
C120 C 0.18922 0.23686 0.53579 0.0
C121 C 0.20693 0.25924 0.53239 0.0
C122 C 0.16328 0.19713 0.49877 0.0
C123 C 0.17054 0.17635 0.52947 0.0
C124 C 0.13934 0.19409 0.47052 0.0
C125 C 0.12973 0.21597 0.43937 0.0
C126 C 0.12532 0.2428 0.45783 0.0
C127 C 0.11642 0.26334 0.42823 0.0
C128 C 0.11167 0.25727 0.38015 0.0
C129 C 0.11575 0.23062 0.36159 0.0
C130 C 0.12468 0.21001 0.39103 0.0
C131 C 0.08403 0.09412 0.54825 0.0
C132 C 0.07695 0.07952 0.50601 0.0
C133 C 0.10187 0.11656 0.54749 0.0
C134 C 0.11319 0.12459 0.50461 0.0
C135 C 0.10654 0.10976 0.46258 0.0
C136 C 0.08862 0.08745 0.46324 0.0
C137 C 0.13114 0.14909 0.50305 0.0
C138 C 0.12372 0.17004 0.47281 0.0
C139 C 0.1549 0.15226 0.53174 0.0
C140 C 0.16447 0.13042 0.56294 0.0
C141 C 0.16949 0.10373 0.54437 0.0
C142 C 0.17835 0.08322 0.57407 0.0
C143 C 0.18245 0.08919 0.62235 0.0
C144 C 0.17777 0.11571 0.64102 0.0
C145 C 0.16889 0.1363 0.61148 0.0
H146 H 0.1893 0.07327 0.64529 0.0
H147 H 0.10477 0.27321 0.35729 0.0
H148 H 0.24063 0.72364 0.06149 0.0
H149 H 0.28049 0.69324 0.06732 0.0
H150 H 0.27332 0.67175 0.91818 0.0
H151 H 0.23345 0.70204 0.9124 0.0
H152 H 0.28143 0.62672 0.97125 0.0
H153 H 0.32166 0.71601 0.95663 0.0
H154 H 0.32913 0.76498 0.97791 0.0
H155 H 0.357 0.74408 0.1163 0.0
H156 H 0.34932 0.69497 0.09606 0.0
H157 H 0.4112 0.56838 0.92555 0.0
H158 H 0.37162 0.59889 0.92648 0.0
H159 H 0.3821 0.61428 0.0768 0.0
H160 H 0.42188 0.58368 0.07635 0.0
H161 H 0.37195 0.66183 0.02756 0.0
H162 H 0.33322 0.57241 0.04128 0.0
H163 H 0.32599 0.52344 0.01983 0.0
H164 H 0.29532 0.54454 0.88328 0.0
H165 H 0.30275 0.59366 0.90366 0.0
C166 C 0.24761 0.7123 0.03012 0.0
C167 C 0.234 0.71492 0.98663 0.0
C168 C 0.27036 0.69509 0.03338 0.0
C169 C 0.27992 0.68038 0.9931 0.0
C170 C 0.26621 0.68288 0.94967 0.0
C171 C 0.24352 0.70016 0.94638 0.0
C172 C 0.30422 0.66235 0.99616 0.0
C173 C 0.30129 0.63445 0.98304 0.0
C174 C 0.32994 0.67233 0.01278 0.0
C175 C 0.33463 0.70184 0.02501 0.0
C176 C 0.32915 0.72187 0.99175 0.0
C177 C 0.33347 0.74965 0.00359 0.0
C178 C 0.34345 0.75764 0.04848 0.0
C179 C 0.34922 0.73786 0.08157 0.0
C180 C 0.34491 0.71005 0.06992 0.0
C181 C 0.40522 0.57829 0.95886 0.0
C182 C 0.41968 0.57348 0.00094 0.0
C183 C 0.38251 0.59565 0.95931 0.0
C184 C 0.3738 0.60858 0.00178 0.0
C185 C 0.38849 0.60439 0.04369 0.0
C186 C 0.41115 0.58684 0.04336 0.0
C187 C 0.34918 0.6263 0.00218 0.0
C188 C 0.35204 0.6541 0.01599 0.0
C189 C 0.32339 0.61624 0.98621 0.0
C190 C 0.31879 0.58671 0.97385 0.0
C191 C 0.32515 0.56661 0.00652 0.0
C192 C 0.32098 0.53882 0.99459 0.0
C193 C 0.31027 0.53088 0.95017 0.0
C194 C 0.30365 0.55072 0.91765 0.0
C195 C 0.30782 0.57855 0.92939 0.0
H196 H 0.30705 0.50935 0.941 0.0
H197 H 0.34679 0.77916 0.05758 0.0
H198 H 0.7159 0.82457 0.52563 0.0
H199 H 0.75587 0.85509 0.52512 0.0
H200 H 0.80677 0.78705 0.47891 0.0
H201 H 0.7668 0.75652 0.47877 0.0
H202 H 0.8298 0.81974 0.55409 0.0
H203 H 0.78884 0.83035 0.40085 0.0
H204 H 0.75122 0.8395 0.34501 0.0
H205 H 0.74112 0.9202 0.40873 0.0
H206 H 0.77843 0.91138 0.46544 0.0
H207 H 0.94614 0.89842 0.49162 0.0
H208 H 0.90762 0.86628 0.49115 0.0
H209 H 0.85179 0.93358 0.51791 0.0
H210 H 0.89001 0.96587 0.51736 0.0
H211 H 0.83174 0.89998 0.45145 0.0
H212 H 0.87104 0.88999 0.60571 0.0
H213 H 0.90779 0.88152 0.66361 0.0
H214 H 0.92004 0.80082 0.60117 0.0
H215 H 0.88359 0.80895 0.54245 0.0
C216 C 0.73568 0.81613 0.5158 0.0
C217 C 0.73843 0.78809 0.5035 0.0
C218 C 0.75842 0.83355 0.51529 0.0
C219 C 0.78423 0.82325 0.50207 0.0
C220 C 0.78704 0.79529 0.48959 0.0
C221 C 0.76425 0.7779 0.48965 0.0
C222 C 0.80824 0.84179 0.50089 0.0
C223 C 0.83046 0.83708 0.5312 0.0
C224 C 0.80868 0.86473 0.47181 0.0
C225 C 0.78625 0.87009 0.43771 0.0
C226 C 0.77843 0.84996 0.40324 0.0
C227 C 0.7572 0.8551 0.37137 0.0
C228 C 0.74374 0.88038 0.3734 0.0
C229 C 0.75154 0.90061 0.40724 0.0
C230 C 0.77274 0.89555 0.43923 0.0
C231 C 0.92567 0.90639 0.49753 0.0
C232 C 0.92118 0.93473 0.50458 0.0
C233 C 0.90369 0.88796 0.49743 0.0
C234 C 0.87685 0.89749 0.50501 0.0
C235 C 0.87232 0.92576 0.51196 0.0
C236 C 0.89423 0.9442 0.51174 0.0
C237 C 0.85336 0.87813 0.50497 0.0
C238 C 0.83119 0.88264 0.47435 0.0
C239 C 0.85288 0.85515 0.5341 0.0
C240 C 0.87479 0.85019 0.56937 0.0
C241 C 0.88173 0.87052 0.60408 0.0
C242 C 0.90247 0.86577 0.63709 0.0
C243 C 0.91629 0.84068 0.63598 0.0
C244 C 0.90935 0.82026 0.60193 0.0
C245 C 0.88863 0.82492 0.5688 0.0
H246 H 0.93234 0.83703 0.66158 0.0
H247 H 0.72731 0.88433 0.34868 0.0
H248 H 0.70578 0.24084 0.04694 0.0
H249 H 0.67293 0.27861 0.04272 0.0
H250 H 0.73308 0.32699 0.97181 0.0
H251 H 0.76595 0.28908 0.97543 0.0
H252 H 0.70394 0.35633 0.04551 0.0
H253 H 0.68632 0.29852 0.90697 0.0
H254 H 0.67682 0.25471 0.86341 0.0
H255 H 0.60227 0.24555 0.94132 0.0
H256 H 0.61153 0.28914 0.98588 0.0
H257 H 0.60908 0.45747 0.9728 0.0
H258 H 0.64506 0.42265 0.97432 0.0
H259 H 0.58632 0.36348 0.02149 0.0
H260 H 0.55014 0.39783 0.01844 0.0
H261 H 0.61688 0.34062 0.95672 0.0
H262 H 0.63443 0.39679 0.0976 0.0
H263 H 0.64357 0.44001 0.14332 0.0
H264 H 0.71743 0.4517 0.06461 0.0
H265 H 0.70853 0.40874 0.01798 0.0
C266 C 0.71208 0.25969 0.03107 0.0
C267 C 0.73858 0.26233 0.01262 0.0
C268 C 0.69332 0.28115 0.02848 0.0
C269 C 0.70065 0.30553 0.00699 0.0
C270 C 0.72717 0.30838 0.98886 0.0
C271 C 0.74589 0.28679 0.99106 0.0
C272 C 0.68024 0.32765 0.00222 0.0
C273 C 0.68504 0.35312 0.02559 0.0
C274 C 0.65544 0.32313 0.97697 0.0
C275 C 0.64975 0.29697 0.95007 0.0
C276 C 0.66802 0.28705 0.9151 0.0
C277 C 0.66265 0.26228 0.89018 0.0
C278 C 0.63899 0.24732 0.89967 0.0
C279 C 0.6206 0.25715 0.93404 0.0
C280 C 0.62589 0.28189 0.95911 0.0
C281 C 0.60385 0.43703 0.98349 0.0
C282 C 0.57677 0.43041 0.99556 0.0
C283 C 0.62446 0.41719 0.98458 0.0
C284 C 0.61849 0.39054 -0.0013 0.0
C285 C 0.59143 0.38389 0.01047 0.0
C286 C 0.57076 0.40357 0.00876 0.0
C287 C 0.64023 0.36936 0.00071 0.0
C288 C 0.63575 0.344 0.97664 0.0
C289 C 0.6652 0.37395 0.02571 0.0
C290 C 0.67066 0.39969 0.05397 0.0
C291 C 0.65252 0.40868 0.08982 0.0
C292 C 0.65767 0.43311 0.11593 0.0
C293 C 0.68102 0.44862 0.10677 0.0
C294 C 0.69932 0.43968 0.0716 0.0
C295 C 0.69425 0.41529 0.04535 0.0
H296 H 0.68498 0.46754 0.12697 0.0
H297 H 0.63487 0.22815 0.88033 0.0
H298 H 0.11918 0.81938 0.06241 0.0
H299 H 0.10051 0.84234 0.13349 0.0
H300 H 0.18202 0.8502 0.1927 0.0
H301 H 0.20082 0.82679 0.12146 0.0
H302 H 0.14296 0.84132 0.26159 0.0
H303 H 0.15823 0.90125 0.13645 0.0
H304 H 0.15611 0.91688 0.05463 0.0
H305 H 0.06833 0.92108 0.06233 0.0
H306 H 0.06985 0.90467 0.14377 0.0
H307 H 0.07738 0.98159 0.35169 0.0
H308 H 0.10502 0.95451 0.29547 0.0
H309 H 0.06703 0.88029 0.34186 0.0
H310 H 0.03994 0.90717 0.39927 0.0
H311 H 0.09115 0.92514 0.22279 0.0
H312 H 0.10985 0.82614 0.32841 0.0
H313 H 0.11719 0.81365 0.41128 0.0
H314 H 0.1468 0.89493 0.4463 0.0
H315 H 0.14005 0.9078 0.36354 0.0
C316 C 0.13304 0.82556 0.09098 0.0
C317 C 0.16143 0.82174 0.08635 0.0
C318 C 0.12238 0.83862 0.13152 0.0
C319 C 0.13997 0.84842 0.16785 0.0
C320 C 0.16815 0.84283 0.16493 0.0
C321 C 0.17885 0.82952 0.12433 0.0
C322 C 0.12906 0.86692 0.20597 0.0
C323 C 0.13163 0.85965 0.25331 0.0
C324 C 0.11523 0.8914 0.19508 0.0
C325 C 0.11415 0.90147 0.14613 0.0
C326 C 0.13844 0.90523 0.12056 0.0
C327 C 0.13736 0.91421 0.07422 0.0
C328 C 0.1121 0.91988 0.05324 0.0
C329 C 0.08787 0.91658 0.07857 0.0
C330 C 0.08883 0.9074 0.12482 0.0
C331 C 0.07496 0.95949 0.35008 0.0
C332 C 0.05642 0.94654 0.37992 0.0
C333 C 0.09082 0.94403 0.31794 0.0
C334 C 0.08835 0.91533 0.31475 0.0
C335 C 0.06975 0.90235 0.34437 0.0
C336 C 0.05411 0.91777 0.37693 0.0
C337 C 0.10412 0.89914 0.27867 0.0
C338 C 0.10254 0.90689 0.23145 0.0
C339 C 0.11964 0.87571 0.29002 0.0
C340 C 0.12418 0.86799 0.33978 0.0
C341 C 0.11806 0.84131 0.35372 0.0
C342 C 0.1221 0.83417 0.4007 0.0
C343 C 0.13238 0.85351 0.43407 0.0
C344 C 0.13875 0.88 0.42047 0.0
C345 C 0.13478 0.88723 0.37354 0.0
H346 H 0.13545 0.84795 0.47043 0.0
H347 H 0.11134 0.92694 0.01744 0.0
H348 H 0.69264 0.6877 0.64439 0.0
H349 H 0.671 0.66794 0.71342 0.0
H350 H 0.59214 0.67132 0.64395 0.0
H351 H 0.61358 0.69137 0.57531 0.0
H352 H 0.58868 0.68239 0.74081 0.0
H353 H 0.62833 0.61483 0.632 0.0
H354 H 0.66585 0.59408 0.58483 0.0
H355 H 0.7126 0.58264 0.71176 0.0
H356 H 0.67548 0.60376 0.75964 0.0
H357 H 0.51396 0.57331 0.8372 0.0
H358 H 0.5377 0.60427 0.7852 0.0
H359 H 0.61341 0.59127 0.86068 0.0
H360 H 0.59 0.56 0.91245 0.0
H361 H 0.62091 0.58765 0.76702 0.0
H362 H 0.57815 0.651 0.87685 0.0
H363 H 0.53996 0.67143 0.92274 0.0
H364 H 0.49829 0.69036 0.79382 0.0
H365 H 0.53607 0.66968 0.74711 0.0
C366 C 0.67059 0.68495 0.64452 0.0
C367 C 0.65478 0.6907 0.60442 0.0
C368 C 0.6583 0.67355 0.68376 0.0
C369 C 0.63006 0.6678 0.68336 0.0
C370 C 0.61397 0.67553 0.64486 0.0
C371 C 0.62624 0.68679 0.60561 0.0
C372 C 0.61774 0.65103 0.72023 0.0
C373 C 0.59562 0.66165 0.74654 0.0
C374 C 0.62709 0.62411 0.72799 0.0
C375 C 0.64929 0.61116 0.69932 0.0
C376 C 0.6467 0.60808 0.64981 0.0
C377 C 0.66788 0.59623 0.62295 0.0
C378 C 0.69163 0.58711 0.64527 0.0
C379 C 0.69421 0.58976 0.69452 0.0
C380 C 0.67312 0.60167 0.72153 0.0
C381 C 0.53566 0.577 0.84278 0.0
C382 C 0.55006 0.56415 0.87904 0.0
C383 C 0.54915 0.59487 0.81322 0.0
C384 C 0.57723 0.60036 0.81954 0.0
C385 C 0.59171 0.58739 0.85535 0.0
C386 C 0.57826 0.56951 0.8849 0.0
C387 C 0.5917 0.61892 0.78771 0.0
C388 C 0.61418 0.60854 0.76203 0.0
C389 C 0.58257 0.646 0.7805 0.0
C390 C 0.55986 0.65858 0.80848 0.0
C391 C 0.56075 0.65933 0.85827 0.0
C392 C 0.53919 0.67099 0.88443 0.0
C393 C 0.51669 0.68213 0.86121 0.0
C394 C 0.51573 0.6817 0.81176 0.0
C395 C 0.53723 0.67004 0.78542 0.0
H396 H 0.50001 0.69115 0.88153 0.0
H397 H 0.708 0.57793 0.62442 0.0
H398 H 0.84896 0.21574 0.13807 0.0
H399 H 0.86841 0.19039 0.20368 0.0
H400 H 0.86223 0.115 0.11906 0.0
H401 H 0.84186 0.13986 0.05466 0.0
H402 H 0.84926 0.1056 0.20593 0.0
H403 H 0.92266 0.15206 0.1284 0.0
H404 H 0.94704 0.19217 0.09858 0.0
H405 H 0.95204 0.22784 0.23971 0.0
H406 H 0.92736 0.18806 0.27028 0.0
H407 H 0.98512 0.05653 0.32266 0.0
H408 H 0.96075 0.08313 0.26403 0.0
H409 H 0.89033 0.08857 0.35561 0.0
H410 H 0.91413 0.06149 0.41361 0.0
H411 H 0.94121 0.13355 0.26664 0.0
H412 H 0.83213 0.08907 0.2906 0.0
H413 H 0.81018 0.04584 0.31287 0.0
H414 H 0.88098 0.00052 0.26566 0.0
H415 H 0.90319 0.04341 0.24255 0.0
C416 C 0.85133 0.1937 0.13393 0.0
C417 C 0.84434 0.17983 0.09102 0.0
C418 C 0.86263 0.17929 0.1712 0.0
C419 C 0.86722 0.15088 0.1659 0.0
C420 C 0.85902 0.13691 0.12389 0.0
C421 C 0.84764 0.1512 0.08692 0.0
C422 C 0.88162 0.1356 0.2029 0.0
C423 C 0.86927 0.11183 0.21947 0.0
C424 C 0.90799 0.14339 0.21979 0.0
C425 C 0.92291 0.16725 0.20152 0.0
C426 C 0.92879 0.16856 0.15301 0.0
C427 C 0.94269 0.19121 0.13598 0.0
C428 C 0.95102 0.21258 0.16721 0.0
C429 C 0.94553 0.2113 0.21556 0.0
C430 C 0.9316 0.1887 0.23275 0.0
C431 C 0.96439 0.06326 0.33017 0.0
C432 C 0.9515 0.05669 0.37264 0.0
C433 C 0.95055 0.07856 0.29676 0.0
C434 C 0.92364 0.0876 0.30527 0.0
C435 C 0.91089 0.08138 0.34789 0.0
C436 C 0.92458 0.06591 0.38106 0.0
C437 C 0.90885 0.10354 0.2696 0.0
C438 C 0.92108 0.12747 0.25343 0.0
C439 C 0.8827 0.09546 0.25202 0.0
C440 C 0.86942 0.0695 0.26535 0.0
C441 C 0.84297 0.06986 0.28485 0.0
C442 C 0.83049 0.04542 0.29763 0.0
C443 C 0.84422 0.02046 0.29084 0.0
C444 C 0.87042 0.01988 0.27108 0.0
C445 C 0.88297 0.04425 0.25819 0.0
H446 H 0.83453 0.00157 0.3008 0.0
H447 H 0.96178 0.2301 0.15397 0.0
H448 H 0.33539 0.29967 0.60178 0.0
H449 H 0.35948 0.32184 0.66948 0.0
H450 H 0.36132 0.398 0.59667 0.0
H451 H 0.33754 0.37598 0.52915 0.0
H452 H 0.41029 0.38685 0.63161 0.0
H453 H 0.31755 0.38765 0.68952 0.0
H454 H 0.27324 0.36713 0.71059 0.0
H455 H 0.31379 0.31685 0.81081 0.0
H456 H 0.35842 0.33681 0.78985 0.0
H457 H 0.4452 0.48258 0.81615 0.0
H458 H 0.4211 0.45627 0.75343 0.0
H459 H 0.42818 0.38308 0.83349 0.0
H460 H 0.45218 0.40921 0.89666 0.0
H461 H 0.37641 0.38963 0.79689 0.0
H462 H 0.46891 0.39073 0.74133 0.0
H463 H 0.51302 0.41171 0.72042 0.0
H464 H 0.47257 0.45883 0.61552 0.0
H465 H 0.42813 0.43842 0.63628 0.0
C466 C 0.34066 0.32121 0.60061 0.0
C467 C 0.33478 0.33607 0.56017 0.0
C468 C 0.35441 0.33385 0.6392 0.0
C469 C 0.36213 0.36159 0.63812 0.0
C470 C 0.35573 0.37653 0.59812 0.0
C471 C 0.34217 0.36392 0.55958 0.0
C472 C 0.37767 0.37506 0.67779 0.0
C473 C 0.40271 0.38771 0.66766 0.0
C474 C 0.36818 0.37547 0.72503 0.0
C475 C 0.34136 0.3635 0.73773 0.0
C476 C 0.31705 0.37205 0.71577 0.0
C477 C 0.29187 0.36055 0.72774 0.0
C478 C 0.29071 0.34064 0.76191 0.0
C479 C 0.31472 0.33224 0.78428 0.0
C480 C 0.33996 0.34365 0.77239 0.0
C481 C 0.44171 0.46088 0.82046 0.0
C482 C 0.45072 0.44799 0.86138 0.0
C483 C 0.428 0.44587 0.7845 0.0
C484 C 0.42309 0.41771 0.78872 0.0
C485 C 0.43182 0.4048 0.82961 0.0
C486 C 0.44563 0.41977 0.86554 0.0
C487 C 0.4087 0.40182 0.75042 0.0
C488 C 0.38398 0.38864 0.76085 0.0
C489 C 0.41843 0.40097 0.70337 0.0
C490 C 0.44515 0.41322 0.69068 0.0
C491 C 0.46938 0.40573 0.71407 0.0
C492 C 0.49445 0.41749 0.7022 0.0
C493 C 0.49559 0.43664 0.66675 0.0
C494 C 0.47166 0.44402 0.64301 0.0
C495 C 0.44653 0.43234 0.65479 0.0
H496 H 0.51502 0.44572 0.6576 0.0
H497 H 0.27119 0.33177 0.77114 0.0
H498 H 0.66615 0.70633 0.386 0.0
H499 H 0.64706 0.68079 0.31718 0.0
H500 H 0.64436 0.60736 0.39746 0.0
H501 H 0.6646 0.63239 0.46548 0.0
H502 H 0.65706 0.59448 0.30903 0.0
H503 H 0.58818 0.64905 0.38892 0.0
H504 H 0.56799 0.69179 0.42261 0.0
H505 H 0.56851 0.72661 0.28536 0.0
H506 H 0.58906 0.68417 0.25098 0.0
H507 H 0.51847 0.55935 0.18092 0.0
H508 H 0.5448 0.58345 0.24365 0.0
H509 H 0.61658 0.58113 0.15508 0.0
H510 H 0.59068 0.55658 0.0927 0.0
H511 H 0.56962 0.63151 0.24768 0.0
H512 H 0.67363 0.57531 0.22322 0.0
H513 H 0.69085 0.52977 0.19645 0.0
H514 H 0.61455 0.4929 0.23479 0.0
H515 H 0.59701 0.53812 0.26234 0.0
C516 C 0.66214 0.68459 0.38858 0.0
C517 C 0.66645 0.67147 0.4314 0.0
C518 C 0.651 0.67008 0.34938 0.0
C519 C 0.64373 0.64232 0.35256 0.0
C520 C 0.64962 0.62881 0.3943 0.0
C521 C 0.66092 0.64321 0.43331 0.0
C522 C 0.62815 0.62782 0.31396 0.0
C523 C 0.63805 0.60265 0.29536 0.0
C524 C 0.60297 0.63814 0.297 0.0
C525 C 0.5904 0.66357 0.31749 0.0
C526 C 0.58414 0.6659 0.36599 0.0
C527 C 0.57262 0.69005 0.3852 0.0
C528 C 0.56703 0.71193 0.35617 0.0
C529 C 0.57289 0.70966 0.30782 0.0
C530 C 0.58446 0.68556 0.28845 0.0
C531 C 0.53987 0.56392 0.17481 0.0
C532 C 0.55249 0.55591 0.13188 0.0
C533 C 0.55487 0.57775 0.21064 0.0
C534 C 0.58272 0.58382 0.20421 0.0
C535 C 0.59525 0.57623 0.16114 0.0
C536 C 0.58035 0.56226 0.12544 0.0
C537 C 0.59862 0.59826 0.24245 0.0
C538 C 0.58877 0.62344 0.26099 0.0
C539 C 0.62342 0.58754 0.26027 0.0
C540 C 0.63392 0.56017 0.24437 0.0
C541 C 0.66057 0.55747 0.22609 0.0
C542 C 0.67038 0.53171 0.21075 0.0
C543 C 0.65377 0.50847 0.21378 0.0
C544 C 0.62735 0.51093 0.23229 0.0
C545 C 0.61746 0.53662 0.24771 0.0
H546 H 0.66139 0.48856 0.20193 0.0
H547 H 0.55812 0.73062 0.3711 0.0
H548 H 0.85349 0.22938 0.88882 0.0
H549 H 0.87212 0.21067 0.81349 0.0
H550 H 0.85793 0.12847 0.8593 0.0
H551 H 0.83893 0.14689 0.93329 0.0
H552 H 0.91665 0.1787 0.79941 0.0
H553 H 0.84097 0.08629 0.77016 0.0
H554 H 0.79167 0.07688 0.77973 0.0
H555 H 0.77382 0.16265 0.76968 0.0
H556 H 0.82295 0.17256 0.75932 0.0
H557 H 0.98001 0.06579 0.68327 0.0
H558 H 0.95561 0.09831 0.73583 0.0
H559 H 0.89503 0.11018 0.62659 0.0
H560 H 0.91865 0.07701 0.57472 0.0
H561 H 0.87018 0.10465 0.7038 0.0
H562 H 0.94409 0.16042 0.65831 0.0
H563 H 0.9921 0.1732 0.64338 0.0
H564 H 0.01101 0.16736 0.79121 0.0
H565 H 0.96319 0.15414 0.80696 0.0
C566 C 0.854 0.20736 0.88224 0.0
C567 C 0.84501 0.18955 0.91687 0.0
C568 C 0.86474 0.19672 0.83949 0.0
C569 C 0.86619 0.1682 0.83072 0.0
C570 C 0.85664 0.15054 0.86497 0.0
C571 C 0.84603 0.16108 0.90744 0.0
C572 C 0.879 0.15633 0.78723 0.0
C573 C 0.90646 0.16272 0.77805 0.0
C574 C 0.8654 0.13607 0.75861 0.0
C575 C 0.83572 0.13017 0.76419 0.0
C576 C 0.82653 0.10313 0.76966 0.0
C577 C 0.7986 0.09771 0.77531 0.0
C578 C 0.77963 0.11915 0.7754 0.0
C579 C 0.78854 0.14606 0.76974 0.0
C580 C 0.81643 0.1516 0.76404 0.0
C581 C 0.96151 0.07537 0.67049 0.0
C582 C 0.95118 0.0687 0.62498 0.0
C583 C 0.94771 0.09415 0.70038 0.0
C584 C 0.92368 0.10704 0.68492 0.0
C585 C 0.9135 0.10053 0.63934 0.0
C586 C 0.92702 0.08149 0.60976 0.0
C587 C 0.90831 0.12609 0.71723 0.0
C588 C 0.88033 0.12099 0.72436 0.0
C589 C 0.92126 0.14806 0.74294 0.0
C590 C 0.95005 0.15612 0.73376 0.0
C591 C 0.95852 0.16168 0.6876 0.0
C592 C 0.9857 0.16903 0.67899 0.0
C593 C 0.0046 0.17105 0.71631 0.0
C594 C 0.99634 0.16578 0.76233 0.0
C595 C 0.96919 0.1584 0.77114 0.0
H596 H 0.02564 0.17674 0.70957 0.0
H597 H 0.75803 0.11491 0.77981 0.0
H598 H 0.37201 0.30978 0.40026 0.0
H599 H 0.39264 0.33196 0.33294 0.0
H600 H 0.31327 0.36261 0.29267 0.0
H601 H 0.29245 0.33997 0.35979 0.0
H602 H 0.34688 0.35072 0.21464 0.0
H603 H 0.35025 0.40122 0.36309 0.0
H604 H 0.35963 0.40667 0.44878 0.0
H605 H 0.44524 0.39202 0.42417 0.0
H606 H 0.43628 0.38585 0.33838 0.0
H607 H 0.43052 0.4835 0.16028 0.0
H608 H 0.40252 0.45683 0.21342 0.0
H609 H 0.42646 0.38211 0.13807 0.0
H610 H 0.454 0.40852 0.08436 0.0
H611 H 0.41575 0.41918 0.27359 0.0
H612 H 0.37479 0.33579 0.13808 0.0
H613 H 0.36198 0.33163 0.05352 0.0
H614 H 0.34548 0.41809 0.05317 0.0
H615 H 0.35781 0.42271 0.13784 0.0
C616 C 0.35889 0.32055 0.37614 0.0
C617 C 0.33077 0.3235 0.38525 0.0
C618 C 0.37065 0.33321 0.33784 0.0
C619 C 0.35453 0.34938 0.30859 0.0
C620 C 0.32602 0.35027 0.31501 0.0
C621 C 0.31417 0.33735 0.35323 0.0
C622 C 0.36793 0.36809 0.27587 0.0
C623 C 0.36197 0.36567 0.22734 0.0
C624 C 0.38692 0.38819 0.29292 0.0
C625 C 0.39256 0.39287 0.34432 0.0
C626 C 0.37106 0.39903 0.37597 0.0
C627 C 0.37629 0.40222 0.42456 0.0
C628 C 0.40301 0.39965 0.44192 0.0
C629 C 0.42456 0.39398 0.41068 0.0
C630 C 0.41941 0.39064 0.36205 0.0
C631 C 0.42981 0.46139 0.15497 0.0
C632 C 0.44445 0.44817 0.11795 0.0
C633 C 0.4138 0.44619 0.18538 0.0
C634 C 0.41209 0.41752 0.17928 0.0
C635 C 0.427 0.40425 0.14282 0.0
C636 C 0.44289 0.41941 0.11231 0.0
C637 C 0.39539 0.40134 0.21184 0.0
C638 C 0.40066 0.4043 0.26062 0.0
C639 C 0.3753 0.38225 0.19504 0.0
C640 C 0.36747 0.37961 0.14423 0.0
C641 C 0.36831 0.35389 0.12001 0.0
C642 C 0.36115 0.35146 0.07205 0.0
C643 C 0.353 0.37459 0.04796 0.0
C644 C 0.3519 0.4002 0.07182 0.0
C645 C 0.359 0.40274 0.11979 0.0
H646 H 0.3475 0.37267 0.01082 0.0
H647 H 0.40701 0.40209 0.47956 0.0
H648 H 0.17089 0.8726 0.94503 0.0
H649 H 0.14979 0.89663 0.88002 0.0
H650 H 0.13691 0.81947 0.8032 0.0
H651 H 0.15797 0.79515 0.86858 0.0
H652 H 0.15223 0.86158 0.74449 0.0
H653 H 0.08625 0.84511 0.86347 0.0
H654 H 0.06746 0.84496 0.9442 0.0
H655 H 0.07083 0.93298 0.95375 0.0
H656 H 0.09032 0.93366 0.87341 0.0
H657 H 0.04677 0.91106 0.59459 0.0
H658 H 0.07232 0.88505 0.65219 0.0
H659 H 0.08698 0.95934 0.73641 0.0
H660 H 0.06123 0.98561 0.67914 0.0
H661 H 0.07027 0.91669 0.78964 0.0
H662 H 0.13731 0.93176 0.6682 0.0
H663 H 0.15416 0.93014 0.58604 0.0
H664 H 0.1459 0.8424 0.57937 0.0
H665 H 0.12867 0.84353 0.66137 0.0
C666 C 0.16375 0.86074 0.91415 0.0
C667 C 0.16566 0.83196 0.91216 0.0
C668 C 0.15178 0.8745 0.87701 0.0
C669 C 0.14137 0.85976 0.83725 0.0
C670 C 0.14477 0.83117 0.83371 0.0
C671 C 0.15681 0.81733 0.87099 0.0
C672 C 0.12524 0.87416 0.80131 0.0
C673 C 0.13413 0.87338 0.75416 0.0
C674 C 0.10173 0.88967 0.81415 0.0
C675 C 0.09003 0.88941 0.86255 0.0
C676 C 0.08327 0.86444 0.88295 0.0
C677 C 0.07248 0.86425 0.92863 0.0
C678 C 0.06801 0.88894 0.95412 0.0
C679 C 0.07434 0.91387 0.93397 0.0
C680 C 0.0853 0.91417 0.88837 0.0
C681 C 0.05537 0.92193 0.62537 0.0
C682 C 0.05197 0.95048 0.63217 0.0
C683 C 0.0701 0.90702 0.65812 0.0
C684 C 0.08181 0.92033 0.69822 0.0
C685 C 0.07816 0.94872 0.70555 0.0
C686 C 0.06347 0.96369 0.67275 0.0
C687 C 0.09753 0.90458 0.73297 0.0
C688 C 0.08843 0.90498 0.77995 0.0
C689 C 0.12061 0.88851 0.71977 0.0
C690 C 0.13147 0.88776 0.67079 0.0
C691 C 0.13893 0.91213 0.64913 0.0
C692 C 0.14858 0.9113 0.6026 0.0
C693 C 0.15103 0.88619 0.57746 0.0
C694 C 0.14396 0.86184 0.59888 0.0
C695 C 0.13429 0.86256 0.64541 0.0
H696 H 0.15846 0.88559 0.54142 0.0
H697 H 0.05955 0.88873 0.9894 0.0
loop_
_geom_bond_atom_site_label_1
_geom_bond_atom_site_label_2
_geom_bond_distance
_geom_bond_site_symmetry_2
_ccdc_geom_bond_type
H0 C7 0.929 . S
H1 C10 0.930 . S
H2 C12 0.929 . S
H3 C4 0.969 . S
C4 H3 0.969 . S
C4 O5 1.550 1_554 S
C4 H6 0.973 . S
O5 C4 1.550 1_556 S
O5 C11 1.412 . S
H6 C4 0.973 . S
C7 H0 0.929 . S
C7 C8 1.393 1_554 S
C7 C9 1.370 . S
C8 C7 1.393 1_556 S
C8 C12 1.377 . S
C9 C7 1.370 . S
C9 C10 1.374 . S
C10 H1 0.930 . S
C10 C9 1.374 . S
C10 C11 1.383 1_554 S
C11 O5 1.412 . S
C11 C10 1.383 1_556 S
C11 C12 1.394 . S
C12 H2 0.929 . S
C12 C8 1.377 . S
C12 C11 1.394 . S
H13 C20 0.929 . S
H14 C23 0.930 . S
H15 C25 0.929 . S
H16 C17 0.969 . S
C17 H16 0.969 . S
C17 O18 1.550 . S
C17 H19 0.973 . S
O18 C17 1.550 . S
O18 C24 1.412 . S
H19 C17 0.973 . S
C20 H13 0.929 . S
C20 C21 1.400 . S
C20 C22 1.364 . S
C21 C20 1.400 . S
C21 C25 1.377 . S
C22 C20 1.364 . S
C22 C23 1.374 . S
C23 H14 0.930 . S
C23 C22 1.374 . S
C23 C24 1.383 . S
C24 O18 1.412 . S
C24 C23 1.383 . S
C24 C25 1.394 . S
C25 H15 0.929 . S
C25 C21 1.377 . S
C25 C24 1.394 . S
H26 C33 0.929 . S
H27 C36 0.930 . S
H28 C38 0.929 . S
H29 C30 0.969 . S
C30 H29 0.969 . S
C30 O31 1.550 1_556 S
C30 H32 0.973 . S
O31 C30 1.550 1_554 S
O31 C37 1.412 . S
H32 C30 0.973 . S
C33 H26 0.929 . S
C33 C34 1.400 . S
C33 C35 1.364 1_554 S
C34 C33 1.400 . S
C34 C38 1.377 . S
C35 C33 1.364 1_556 S
C35 C36 1.374 . S
C36 H27 0.930 . S
C36 C35 1.374 . S
C36 C37 1.383 1_556 S
C37 O31 1.412 . S
C37 C36 1.383 1_554 S
C37 C38 1.394 . S
C38 H28 0.929 . S
C38 C34 1.377 . S
C38 C37 1.394 . S
H39 C46 0.929 . S
H40 C49 0.930 . S
H41 C51 0.929 . S
H42 C43 0.969 . S
C43 H42 0.969 . S
C43 O44 1.550 . S
C43 H45 0.973 . S
O44 C43 1.550 . S
O44 C50 1.412 . S
H45 C43 0.973 . S
C46 H39 0.929 . S
C46 C47 1.400 . S
C46 C48 1.364 . S
C47 C46 1.400 . S
C47 C51 1.377 . S
C48 C46 1.364 . S
C48 C49 1.374 . S
C49 H40 0.930 . S
C49 C48 1.374 . S
C49 C50 1.383 . S
C50 O44 1.412 . S
C50 C49 1.383 . S
C50 C51 1.394 . S
C51 H41 0.929 . S
C51 C47 1.377 . S
C51 C50 1.394 . S
O52 Zn53 1.953 1_565 S
O52 C68 1.225 . S
Zn53 O52 1.953 1_545 S
Zn53 O54 1.949 1_655 S
Zn53 O60 1.919 . S
Zn53 O65 1.924 . S
O54 Zn53 1.949 1_455 S
O54 Zn55 1.923 . S
O54 Zn56 1.950 1_545 S
O54 Zn57 1.945 . S
Zn55 O54 1.923 . S
Zn55 O58 1.933 . S
Zn55 O61 1.941 1_455 S
Zn55 O62 1.965 1_545 S
Zn56 O54 1.950 1_565 S
Zn56 O63 1.938 . S
Zn56 O64 1.906 . S
Zn56 O74 1.953 1_455 S
Zn57 O54 1.945 . S
Zn57 O59 1.932 . S
Zn57 O66 1.977 . S
Zn57 O67 1.910 1_455 S
O58 Zn55 1.933 . S
O58 C69 1.226 . S
O59 Zn57 1.932 . S
O59 C69 1.307 . S
O60 Zn53 1.919 . S
O60 C71 1.253 . S
O61 Zn55 1.941 1_655 S
O61 C71 1.283 . S
O62 Zn55 1.965 1_565 S
O62 C70 1.303 . S
O63 Zn56 1.938 . S
O63 C70 1.247 . S
O64 Zn56 1.906 . S
O64 C72 1.304 . S
O65 Zn53 1.924 . S
O65 C73 1.311 . S
O66 Zn57 1.977 . S
O66 C72 1.272 1_545 S
O67 Zn57 1.910 1_655 S
O67 C73 1.231 . S
C68 O52 1.225 . S
C68 O74 1.298 . S
C69 O58 1.226 . S
C69 O59 1.307 . S
C70 O62 1.303 . S
C70 O63 1.247 . S
C71 O60 1.253 . S
C71 O61 1.283 . S
C72 O64 1.304 . S
C72 O66 1.272 1_565 S
C73 O65 1.311 . S
C73 O67 1.231 . S
O74 Zn56 1.953 1_655 S
O74 C68 1.298 . S
O75 Zn76 1.953 . S
O75 C91 1.222 1_556 S
Zn76 O75 1.953 . S
Zn76 O77 1.949 1_556 S
Zn76 O83 1.919 . S
Zn76 O88 1.924 1_556 S
O77 Zn76 1.949 1_554 S
O77 Zn78 1.923 1_554 S
O77 Zn79 1.950 . S
O77 Zn80 1.945 . S
Zn78 O77 1.923 1_556 S
Zn78 O81 1.933 . S
Zn78 O84 1.941 . S
Zn78 O85 1.965 . S
Zn79 O77 1.950 . S
Zn79 O86 1.938 1_554 S
Zn79 O87 1.906 . S
Zn79 O97 1.953 . S
Zn80 O77 1.945 . S
Zn80 O82 1.932 . S
Zn80 O89 1.977 . S
Zn80 O90 1.910 . S
O81 Zn78 1.933 . S
O81 C92 1.226 1_556 S
O82 Zn80 1.932 . S
O82 C92 1.307 . S
O83 Zn76 1.919 . S
O83 C94 1.253 . S
O84 Zn78 1.941 . S
O84 C94 1.283 . S
O85 Zn78 1.965 . S
O85 C93 1.303 . S
O86 Zn79 1.938 1_556 S
O86 C93 1.247 . S
O87 Zn79 1.906 . S
O87 C95 1.304 . S
O88 Zn76 1.924 1_554 S
O88 C96 1.311 . S
O89 Zn80 1.977 . S
O89 C95 1.272 . S
O90 Zn80 1.910 . S
O90 C96 1.231 . S
C91 O75 1.222 1_554 S
C91 O97 1.302 . S
C92 O81 1.226 1_554 S
C92 O82 1.307 . S
C93 O85 1.303 . S
C93 O86 1.247 . S
C94 O83 1.253 . S
C94 O84 1.283 . S
C95 O87 1.304 . S
C95 O89 1.272 . S
C96 O88 1.311 . S
C96 O90 1.231 . S
O97 Zn79 1.953 . S
O97 C91 1.302 . S
H98 C116 0.951 . S
H99 C118 0.951 . S
H100 C120 0.950 . S
H101 C121 0.950 . S
H102 C123 0.950 . S
H103 C126 0.950 . S
H104 C127 0.950 . S
H105 C129 0.950 . S
H106 C130 0.950 . S
H107 C131 0.951 . S
H108 C133 0.951 . S
H109 C135 0.950 . S
H110 C136 0.950 . S
H111 C138 0.950 . S
H112 C141 0.950 . S
H113 C142 0.950 . S
H114 C144 0.950 . S
H115 C145 0.950 . S
C116 H98 0.951 . S
C116 C117 1.366 . S
C116 C118 1.388 . S
C117 C116 1.366 . S
C117 C121 1.385 . S
C118 H99 0.951 . S
C118 C116 1.388 . S
C118 C119 1.366 . S
C119 C118 1.366 . S
C119 C120 1.414 . S
C119 C122 1.499 . S
C120 H100 0.950 . S
C120 C119 1.414 . S
C120 C121 1.374 . S
C121 H101 0.950 . S
C121 C117 1.385 . S
C121 C120 1.374 . S
C122 C119 1.499 . S
C122 C123 1.373 . S
C122 C124 1.389 . S
C123 H102 0.950 . S
C123 C122 1.373 . S
C123 C139 1.377 . S
C124 C122 1.389 . S
C124 C125 1.524 . S
C124 C138 1.377 . S
C125 C124 1.524 . S
C125 C126 1.397 . S
C125 C130 1.363 . S
C126 H103 0.950 . S
C126 C125 1.397 . S
C126 C127 1.334 . S
C127 H104 0.950 . S
C127 C126 1.334 . S
C127 C128 1.287 . S
C128 C127 1.287 . S
C128 C129 1.524 . S
C128 H147 0.913 . S
C129 H105 0.950 . S
C129 C128 1.524 . S
C129 C130 1.415 . S
C130 H106 0.950 . S
C130 C125 1.363 . S
C130 C129 1.415 . S
C131 H107 0.951 . S
C131 C132 1.366 . S
C131 C133 1.388 . S
C132 C131 1.366 . S
C132 C136 1.385 . S
C133 H108 0.951 . S
C133 C131 1.388 . S
C133 C134 1.366 . S
C134 C133 1.366 . S
C134 C135 1.414 . S
C134 C137 1.499 . S
C135 H109 0.950 . S
C135 C134 1.414 . S
C135 C136 1.374 . S
C136 H110 0.950 . S
C136 C132 1.385 . S
C136 C135 1.374 . S
C137 C134 1.499 . S
C137 C138 1.373 . S
C137 C139 1.389 . S
C138 H111 0.950 . S
C138 C124 1.377 . S
C138 C137 1.373 . S
C139 C123 1.377 . S
C139 C137 1.389 . S
C139 C140 1.524 . S
C140 C139 1.524 . S
C140 C141 1.397 . S
C140 C145 1.363 . S
C141 H112 0.950 . S
C141 C140 1.397 . S
C141 C142 1.334 . S
C142 H113 0.950 . S
C142 C141 1.334 . S
C142 C143 1.287 . S
C143 C142 1.287 . S
C143 C144 1.524 . S
C143 H146 0.999 . S
C144 H114 0.950 . S
C144 C143 1.524 . S
C144 C145 1.415 . S
C145 H115 0.950 . S
C145 C140 1.363 . S
C145 C144 1.415 . S
H146 C143 0.999 . S
H147 C128 0.913 . S
H148 C166 0.951 . S
H149 C168 0.951 . S
H150 C170 0.950 . S
H151 C171 0.950 . S
H152 C173 0.950 . S
H153 C176 0.950 . S
H154 C177 0.950 . S
H155 C179 0.950 . S
H156 C180 0.950 . S
H157 C181 0.951 . S
H158 C183 0.951 . S
H159 C185 0.950 . S
H160 C186 0.950 . S
H161 C188 0.950 . S
H162 C191 0.950 . S
H163 C192 0.950 . S
H164 C194 0.950 . S
H165 C195 0.950 . S
C166 H148 0.951 . S
C166 C167 1.366 . S
C166 C168 1.388 . S
C167 C166 1.366 . S
C167 C171 1.385 1_554 S
C168 H149 0.951 . S
C168 C166 1.388 . S
C168 C169 1.366 . S
C169 C168 1.366 . S
C169 C170 1.414 1_554 S
C169 C172 1.499 . S
C170 H150 0.950 . S
C170 C169 1.414 1_556 S
C170 C171 1.374 . S
C171 H151 0.950 . S
C171 C167 1.385 1_556 S
C171 C170 1.374 . S
C172 C169 1.499 . S
C172 C173 1.373 . S
C172 C174 1.389 . S
C173 H152 0.950 . S
C173 C172 1.373 . S
C173 C189 1.377 . S
C174 C172 1.389 . S
C174 C175 1.524 1_554 S
C174 C188 1.377 . S
C175 C174 1.524 1_556 S
C175 C176 1.397 . S
C175 C180 1.363 1_556 S
C176 H153 0.950 . S
C176 C175 1.397 . S
C176 C177 1.334 . S
C177 H154 0.950 . S
C177 C176 1.334 . S
C177 C178 1.287 . S
C178 C177 1.287 . S
C178 C179 1.524 1_556 S
C178 H197 0.913 . S
C179 H155 0.950 . S
C179 C178 1.524 1_554 S
C179 C180 1.415 . S
C180 H156 0.950 . S
C180 C175 1.363 1_554 S
C180 C179 1.415 . S
C181 H157 0.951 . S
C181 C182 1.366 1_556 S
C181 C183 1.388 . S
C182 C181 1.366 1_554 S
C182 C186 1.385 . S
C183 H158 0.951 . S
C183 C181 1.388 . S
C183 C184 1.366 1_556 S
C184 C183 1.366 1_554 S
C184 C185 1.414 . S
C184 C187 1.499 . S
C185 H159 0.950 . S
C185 C184 1.414 . S
C185 C186 1.374 . S
C186 H160 0.950 . S
C186 C182 1.385 . S
C186 C185 1.374 . S
C187 C184 1.499 . S
C187 C188 1.373 . S
C187 C189 1.389 . S
C188 H161 0.950 . S
C188 C174 1.377 . S
C188 C187 1.373 . S
C189 C173 1.377 . S
C189 C187 1.389 . S
C189 C190 1.524 . S
C190 C189 1.524 . S
C190 C191 1.397 . S
C190 C195 1.363 1_554 S
C191 H162 0.950 . S
C191 C190 1.397 . S
C191 C192 1.334 . S
C192 H163 0.950 . S
C192 C191 1.334 . S
C192 C193 1.287 . S
C193 C192 1.287 . S
C193 C194 1.524 1_554 S
C193 H196 0.999 . S
C194 H164 0.950 . S
C194 C193 1.524 1_556 S
C194 C195 1.415 . S
C195 H165 0.950 . S
C195 C190 1.363 1_556 S
C195 C194 1.415 . S
H196 C193 0.999 . S
H197 C178 0.913 . S
H198 C216 0.951 . S
H199 C218 0.951 . S
H200 C220 0.950 . S
H201 C221 0.950 . S
H202 C223 0.950 . S
H203 C226 0.950 . S
H204 C227 0.950 . S
H205 C229 0.950 . S
H206 C230 0.950 . S
H207 C231 0.951 . S
H208 C233 0.951 . S
H209 C235 0.950 . S
H210 C236 0.950 . S
H211 C238 0.950 . S
H212 C241 0.950 . S
H213 C242 0.950 . S
H214 C244 0.950 . S
H215 C245 0.950 . S
C216 H198 0.951 . S
C216 C217 1.366 . S
C216 C218 1.388 . S
C217 C216 1.366 . S
C217 C221 1.385 . S
C218 H199 0.951 . S
C218 C216 1.388 . S
C218 C219 1.366 . S
C219 C218 1.366 . S
C219 C220 1.414 . S
C219 C222 1.499 . S
C220 H200 0.950 . S
C220 C219 1.414 . S
C220 C221 1.374 . S
C221 H201 0.950 . S
C221 C217 1.385 . S
C221 C220 1.374 . S
C222 C219 1.499 . S
C222 C223 1.373 . S
C222 C224 1.389 . S
C223 H202 0.950 . S
C223 C222 1.373 . S
C223 C239 1.377 . S
C224 C222 1.389 . S
C224 C225 1.524 . S
C224 C238 1.377 . S
C225 C224 1.524 . S
C225 C226 1.397 . S
C225 C230 1.363 . S
C226 H203 0.950 . S
C226 C225 1.397 . S
C226 C227 1.334 . S
C227 H204 0.950 . S
C227 C226 1.334 . S
C227 C228 1.287 . S
C228 C227 1.287 . S
C228 C229 1.524 . S
C228 H247 0.913 . S
C229 H205 0.950 . S
C229 C228 1.524 . S
C229 C230 1.415 . S
C230 H206 0.950 . S
C230 C225 1.363 . S
C230 C229 1.415 . S
C231 H207 0.951 . S
C231 C232 1.366 . S
C231 C233 1.388 . S
C232 C231 1.366 . S
C232 C236 1.385 . S
C233 H208 0.951 . S
C233 C231 1.388 . S
C233 C234 1.366 . S
C234 C233 1.366 . S
C234 C235 1.414 . S
C234 C237 1.499 . S
C235 H209 0.950 . S
C235 C234 1.414 . S
C235 C236 1.374 . S
C236 H210 0.950 . S
C236 C232 1.385 . S
C236 C235 1.374 . S
C237 C234 1.499 . S
C237 C238 1.373 . S
C237 C239 1.389 . S
C238 H211 0.950 . S
C238 C224 1.377 . S
C238 C237 1.373 . S
C239 C223 1.377 . S
C239 C237 1.389 . S
C239 C240 1.524 . S
C240 C239 1.524 . S
C240 C241 1.397 . S
C240 C245 1.363 . S
C241 H212 0.950 . S
C241 C240 1.397 . S
C241 C242 1.334 . S
C242 H213 0.950 . S
C242 C241 1.334 . S
C242 C243 1.287 . S
C243 C242 1.287 . S
C243 C244 1.524 . S
C243 H246 0.999 . S
C244 H214 0.950 . S
C244 C243 1.524 . S
C244 C245 1.415 . S
C245 H215 0.950 . S
C245 C240 1.363 . S
C245 C244 1.415 . S
H246 C243 0.999 . S
H247 C228 0.913 . S
H248 C266 0.951 . S
H249 C268 0.951 . S
H250 C270 0.950 . S
H251 C271 0.950 . S
H252 C273 0.950 . S
H253 C276 0.950 . S
H254 C277 0.950 . S
H255 C279 0.950 . S
H256 C280 0.950 1_554 S
H257 C281 0.951 . S
H258 C283 0.951 . S
H259 C285 0.950 . S
H260 C286 0.950 . S
H261 C288 0.950 . S
H262 C291 0.950 . S
H263 C292 0.950 . S
H264 C294 0.950 . S
H265 C295 0.950 1_556 S
C266 H248 0.951 . S
C266 C267 1.361 1_554 S
C266 C268 1.388 . S
C267 C266 1.361 1_556 S
C267 C271 1.390 . S
C268 H249 0.951 . S
C268 C266 1.388 . S
C268 C269 1.366 1_554 S
C269 C268 1.366 1_556 S
C269 C270 1.414 . S
C269 C272 1.499 . S
C270 H250 0.950 . S
C270 C269 1.414 . S
C270 C271 1.374 . S
C271 H251 0.950 . S
C271 C267 1.390 . S
C271 C270 1.374 . S
C272 C269 1.499 . S
C272 C273 1.373 1_556 S
C272 C274 1.389 . S
C273 H252 0.950 . S
C273 C272 1.373 1_554 S
C273 C289 1.377 . S
C274 C272 1.389 . S
C274 C275 1.524 . S
C274 C288 1.377 . S
C275 C274 1.524 . S
C275 C276 1.397 . S
C275 C280 1.363 . S
C276 H253 0.950 . S
C276 C275 1.397 . S
C276 C277 1.334 . S
C277 H254 0.950 . S
C277 C276 1.334 . S
C277 C278 1.287 . S
C278 C277 1.287 . S
C278 C279 1.524 . S
C278 H297 0.913 . S
C279 H255 0.950 . S
C279 C278 1.524 . S
C279 C280 1.415 . S
C280 H256 0.950 1_556 S
C280 C275 1.363 . S
C280 C279 1.415 . S
C281 H257 0.951 . S
C281 C282 1.362 1_556 S
C281 C283 1.388 . S
C282 C281 1.362 1_554 S
C282 C286 1.389 . S
C283 H258 0.951 . S
C283 C281 1.388 . S
C283 C284 1.366 1_556 S
C284 C283 1.366 1_554 S
C284 C285 1.414 . S
C284 C287 1.499 . S
C285 H259 0.950 . S
C285 C284 1.414 . S
C285 C286 1.374 . S
C286 H260 0.950 . S
C286 C282 1.389 . S
C286 C285 1.374 . S
C287 C284 1.499 . S
C287 C288 1.373 1_554 S
C287 C289 1.389 . S
C288 H261 0.950 . S
C288 C274 1.377 . S
C288 C287 1.373 1_556 S
C289 C273 1.377 . S
C289 C287 1.389 . S
C289 C290 1.524 . S
C290 C289 1.524 . S
C290 C291 1.397 . S
C290 C295 1.363 . S
C291 H262 0.950 . S
C291 C290 1.397 . S
C291 C292 1.334 . S
C292 H263 0.950 . S
C292 C291 1.334 . S
C292 C293 1.287 . S
C293 C292 1.287 . S
C293 C294 1.524 . S
C293 H296 0.999 . S
C294 H264 0.950 . S
C294 C293 1.524 . S
C294 C295 1.415 . S
C295 H265 0.950 1_554 S
C295 C290 1.363 . S
C295 C294 1.415 . S
H296 C293 0.999 . S
H297 C278 0.913 . S
H298 C316 0.951 . S
H299 C318 0.951 . S
H300 C320 0.950 . S
H301 C321 0.950 . S
H302 C323 0.950 . S
H303 C326 0.950 . S
H304 C327 0.950 . S
H305 C329 0.950 . S
H306 C330 0.950 . S
H307 C331 0.951 . S
H308 C333 0.951 . S
H309 C335 0.950 . S
H310 C336 0.950 . S
H311 C338 0.950 . S
H312 C341 0.950 . S
H313 C342 0.950 . S
H314 C344 0.950 . S
H315 C345 0.950 . S
C316 H298 0.951 . S
C316 C317 1.366 . S
C316 C318 1.388 . S
C317 C316 1.366 . S
C317 C321 1.385 . S
C318 H299 0.951 . S
C318 C316 1.388 . S
C318 C319 1.366 . S
C319 C318 1.366 . S
C319 C320 1.414 . S
C319 C322 1.499 . S
C320 H300 0.950 . S
C320 C319 1.414 . S
C320 C321 1.374 . S
C321 H301 0.950 . S
C321 C317 1.385 . S
C321 C320 1.374 . S
C322 C319 1.499 . S
C322 C323 1.373 . S
C322 C324 1.389 . S
C323 H302 0.950 . S
C323 C322 1.373 . S
C323 C339 1.377 . S
C324 C322 1.389 . S
C324 C325 1.524 . S
C324 C338 1.377 . S
C325 C324 1.524 . S
C325 C326 1.397 . S
C325 C330 1.363 . S
C326 H303 0.950 . S
C326 C325 1.397 . S
C326 C327 1.334 . S
C327 H304 0.950 . S
C327 C326 1.334 . S
C327 C328 1.287 . S
C328 C327 1.287 . S
C328 C329 1.524 . S
C328 H347 0.913 . S
C329 H305 0.950 . S
C329 C328 1.524 . S
C329 C330 1.415 . S
C330 H306 0.950 . S
C330 C325 1.363 . S
C330 C329 1.415 . S
C331 H307 0.951 . S
C331 C332 1.366 . S
C331 C333 1.388 . S
C332 C331 1.366 . S
C332 C336 1.385 . S
C333 H308 0.951 . S
C333 C331 1.388 . S
C333 C334 1.366 . S
C334 C333 1.366 . S
C334 C335 1.414 . S
C334 C337 1.499 . S
C335 H309 0.950 . S
C335 C334 1.414 . S
C335 C336 1.374 . S
C336 H310 0.950 . S
C336 C332 1.385 . S
C336 C335 1.374 . S
C337 C334 1.499 . S
C337 C338 1.373 . S
C337 C339 1.389 . S
C338 H311 0.950 . S
C338 C324 1.377 . S
C338 C337 1.373 . S
C339 C323 1.377 . S
C339 C337 1.389 . S
C339 C340 1.524 . S
C340 C339 1.524 . S
C340 C341 1.397 . S
C340 C345 1.363 . S
C341 H312 0.950 . S
C341 C340 1.397 . S
C341 C342 1.334 . S
C342 H313 0.950 . S
C342 C341 1.334 . S
C342 C343 1.287 . S
C343 C342 1.287 . S
C343 C344 1.524 . S
C343 H346 0.999 . S
C344 H314 0.950 . S
C344 C343 1.524 . S
C344 C345 1.415 . S
C345 H315 0.950 . S
C345 C340 1.363 . S
C345 C344 1.415 . S
H346 C343 0.999 . S
H347 C328 0.913 . S
H348 C366 0.951 . S
H349 C368 0.951 . S
H350 C370 0.950 . S
H351 C371 0.950 . S
H352 C373 0.950 . S
H353 C376 0.950 . S
H354 C377 0.950 . S
H355 C379 0.950 . S
H356 C380 0.950 . S
H357 C381 0.951 . S
H358 C383 0.951 . S
H359 C385 0.950 . S
H360 C386 0.950 . S
H361 C388 0.950 . S
H362 C391 0.950 . S
H363 C392 0.950 . S
H364 C394 0.950 . S
H365 C395 0.950 . S
C366 H348 0.951 . S
C366 C367 1.366 . S
C366 C368 1.388 . S
C367 C366 1.366 . S
C367 C371 1.385 . S
C368 H349 0.951 . S
C368 C366 1.388 . S
C368 C369 1.366 . S
C369 C368 1.366 . S
C369 C370 1.414 . S
C369 C372 1.499 . S
C370 H350 0.950 . S
C370 C369 1.414 . S
C370 C371 1.374 . S
C371 H351 0.950 . S
C371 C367 1.385 . S
C371 C370 1.374 . S
C372 C369 1.499 . S
C372 C373 1.373 . S
C372 C374 1.389 . S
C373 H352 0.950 . S
C373 C372 1.373 . S
C373 C389 1.377 . S
C374 C372 1.389 . S
C374 C375 1.524 . S
C374 C388 1.377 . S
C375 C374 1.524 . S
C375 C376 1.397 . S
C375 C380 1.363 . S
C376 H353 0.950 . S
C376 C375 1.397 . S
C376 C377 1.334 . S
C377 H354 0.950 . S
C377 C376 1.334 . S
C377 C378 1.287 . S
C378 C377 1.287 . S
C378 C379 1.524 . S
C378 H397 0.913 . S
C379 H355 0.950 . S
C379 C378 1.524 . S
C379 C380 1.415 . S
C380 H356 0.950 . S
C380 C375 1.363 . S
C380 C379 1.415 . S
C381 H357 0.951 . S
C381 C382 1.366 . S
C381 C383 1.388 . S
C382 C381 1.366 . S
C382 C386 1.385 . S
C383 H358 0.951 . S
C383 C381 1.388 . S
C383 C384 1.366 . S
C384 C383 1.366 . S
C384 C385 1.414 . S
C384 C387 1.499 . S
C385 H359 0.950 . S
C385 C384 1.414 . S
C385 C386 1.374 . S
C386 H360 0.950 . S
C386 C382 1.385 . S
C386 C385 1.374 . S
C387 C384 1.499 . S
C387 C388 1.373 . S
C387 C389 1.389 . S
C388 H361 0.950 . S
C388 C374 1.377 . S
C388 C387 1.373 . S
C389 C373 1.377 . S
C389 C387 1.389 . S
C389 C390 1.524 . S
C390 C389 1.524 . S
C390 C391 1.397 . S
C390 C395 1.363 . S
C391 H362 0.950 . S
C391 C390 1.397 . S
C391 C392 1.334 . S
C392 H363 0.950 . S
C392 C391 1.334 . S
C392 C393 1.287 . S
C393 C392 1.287 . S
C393 C394 1.524 . S
C393 H396 0.999 . S
C394 H364 0.950 . S
C394 C393 1.524 . S
C394 C395 1.415 . S
C395 H365 0.950 . S
C395 C390 1.363 . S
C395 C394 1.415 . S
H396 C393 0.999 . S
H397 C378 0.913 . S
H398 C416 0.951 . S
H399 C418 0.951 . S
H400 C420 0.950 . S
H401 C421 0.950 . S
H402 C423 0.950 . S
H403 C426 0.950 . S
H404 C427 0.950 . S
H405 C429 0.950 . S
H406 C430 0.950 . S
H407 C431 0.951 . S
H408 C433 0.951 . S
H409 C435 0.950 . S
H410 C436 0.950 . S
H411 C438 0.950 . S
H412 C441 0.950 . S
H413 C442 0.950 . S
H414 C444 0.950 1_565 S
H415 C445 0.950 . S
C416 H398 0.951 . S
C416 C417 1.366 . S
C416 C418 1.388 . S
C417 C416 1.366 . S
C417 C421 1.385 . S
C418 H399 0.951 . S
C418 C416 1.388 . S
C418 C419 1.366 . S
C419 C418 1.366 . S
C419 C420 1.414 . S
C419 C422 1.499 . S
C420 H400 0.950 . S
C420 C419 1.414 . S
C420 C421 1.374 . S
C421 H401 0.950 . S
C421 C417 1.385 . S
C421 C420 1.374 . S
C422 C419 1.499 . S
C422 C423 1.373 . S
C422 C424 1.389 . S
C423 H402 0.950 . S
C423 C422 1.373 . S
C423 C439 1.377 . S
C424 C422 1.389 . S
C424 C425 1.524 . S
C424 C438 1.377 . S
C425 C424 1.524 . S
C425 C426 1.397 . S
C425 C430 1.363 . S
C426 H403 0.950 . S
C426 C425 1.397 . S
C426 C427 1.334 . S
C427 H404 0.950 . S
C427 C426 1.334 . S
C427 C428 1.287 . S
C428 C427 1.287 . S
C428 C429 1.524 . S
C428 H447 0.913 . S
C429 H405 0.950 . S
C429 C428 1.524 . S
C429 C430 1.415 . S
C430 H406 0.950 . S
C430 C425 1.363 . S
C430 C429 1.415 . S
C431 H407 0.951 . S
C431 C432 1.366 . S
C431 C433 1.388 . S
C432 C431 1.366 . S
C432 C436 1.385 . S
C433 H408 0.951 . S
C433 C431 1.388 . S
C433 C434 1.366 . S
C434 C433 1.366 . S
C434 C435 1.414 . S
C434 C437 1.499 . S
C435 H409 0.950 . S
C435 C434 1.414 . S
C435 C436 1.374 . S
C436 H410 0.950 . S
C436 C432 1.385 . S
C436 C435 1.374 . S
C437 C434 1.499 . S
C437 C438 1.373 . S
C437 C439 1.389 . S
C438 H411 0.950 . S
C438 C424 1.377 . S
C438 C437 1.373 . S
C439 C423 1.377 . S
C439 C437 1.389 . S
C439 C440 1.524 . S
C440 C439 1.524 . S
C440 C441 1.397 . S
C440 C445 1.363 . S
C441 H412 0.950 . S
C441 C440 1.397 . S
C441 C442 1.334 . S
C442 H413 0.950 . S
C442 C441 1.334 . S
C442 C443 1.287 . S
C443 C442 1.287 . S
C443 C444 1.524 . S
C443 H446 0.999 1_545 S
C444 H414 0.950 1_545 S
C444 C443 1.524 . S
C444 C445 1.415 . S
C445 H415 0.950 . S
C445 C440 1.363 . S
C445 C444 1.415 . S
H446 C443 0.999 1_565 S
H447 C428 0.913 . S
H448 C466 0.951 . S
H449 C468 0.951 . S
H450 C470 0.950 . S
H451 C471 0.950 . S
H452 C473 0.950 . S
H453 C476 0.950 . S
H454 C477 0.950 . S
H455 C479 0.950 . S
H456 C480 0.950 . S
H457 C481 0.951 . S
H458 C483 0.951 . S
H459 C485 0.950 . S
H460 C486 0.950 . S
H461 C488 0.950 . S
H462 C491 0.950 . S
H463 C492 0.950 . S
H464 C494 0.950 . S
H465 C495 0.950 . S
C466 H448 0.951 . S
C466 C467 1.366 . S
C466 C468 1.388 . S
C467 C466 1.366 . S
C467 C471 1.385 . S
C468 H449 0.951 . S
C468 C466 1.388 . S
C468 C469 1.366 . S
C469 C468 1.366 . S
C469 C470 1.414 . S
C469 C472 1.499 . S
C470 H450 0.950 . S
C470 C469 1.414 . S
C470 C471 1.374 . S
C471 H451 0.950 . S
C471 C467 1.385 . S
C471 C470 1.374 . S
C472 C469 1.499 . S
C472 C473 1.373 . S
C472 C474 1.389 . S
C473 H452 0.950 . S
C473 C472 1.373 . S
C473 C489 1.377 . S
C474 C472 1.389 . S
C474 C475 1.524 . S
C474 C488 1.377 . S
C475 C474 1.524 . S
C475 C476 1.397 . S
C475 C480 1.363 . S
C476 H453 0.950 . S
C476 C475 1.397 . S
C476 C477 1.334 . S
C477 H454 0.950 . S
C477 C476 1.334 . S
C477 C478 1.287 . S
C478 C477 1.287 . S
C478 C479 1.524 . S
C478 H497 0.913 . S
C479 H455 0.950 . S
C479 C478 1.524 . S
C479 C480 1.415 . S
C480 H456 0.950 . S
C480 C475 1.363 . S
C480 C479 1.415 . S
C481 H457 0.951 . S
C481 C482 1.366 . S
C481 C483 1.388 . S
C482 C481 1.366 . S
C482 C486 1.385 . S
C483 H458 0.951 . S
C483 C481 1.388 . S
C483 C484 1.366 . S
C484 C483 1.366 . S
C484 C485 1.414 . S
C484 C487 1.499 . S
C485 H459 0.950 . S
C485 C484 1.414 . S
C485 C486 1.374 . S
C486 H460 0.950 . S
C486 C482 1.385 . S
C486 C485 1.374 . S
C487 C484 1.499 . S
C487 C488 1.373 . S
C487 C489 1.389 . S
C488 H461 0.950 . S
C488 C474 1.377 . S
C488 C487 1.373 . S
C489 C473 1.377 . S
C489 C487 1.389 . S
C489 C490 1.524 . S
C490 C489 1.524 . S
C490 C491 1.397 . S
C490 C495 1.363 . S
C491 H462 0.950 . S
C491 C490 1.397 . S
C491 C492 1.334 . S
C492 H463 0.950 . S
C492 C491 1.334 . S
C492 C493 1.287 . S
C493 C492 1.287 . S
C493 C494 1.524 . S
C493 H496 0.999 . S
C494 H464 0.950 . S
C494 C493 1.524 . S
C494 C495 1.415 . S
C495 H465 0.950 . S
C495 C490 1.363 . S
C495 C494 1.415 . S
H496 C493 0.999 . S
H497 C478 0.913 . S
H498 C516 0.951 . S
H499 C518 0.951 . S
H500 C520 0.950 . S
H501 C521 0.950 . S
H502 C523 0.950 . S
H503 C526 0.950 . S
H504 C527 0.950 . S
H505 C529 0.950 . S
H506 C530 0.950 . S
H507 C531 0.951 . S
H508 C533 0.951 . S
H509 C535 0.950 . S
H510 C536 0.950 . S
H511 C538 0.950 . S
H512 C541 0.950 . S
H513 C542 0.950 . S
H514 C544 0.950 . S
H515 C545 0.950 . S
C516 H498 0.951 . S
C516 C517 1.366 . S
C516 C518 1.388 . S
C517 C516 1.366 . S
C517 C521 1.385 . S
C518 H499 0.951 . S
C518 C516 1.388 . S
C518 C519 1.366 . S
C519 C518 1.366 . S
C519 C520 1.414 . S
C519 C522 1.499 . S
C520 H500 0.950 . S
C520 C519 1.414 . S
C520 C521 1.374 . S
C521 H501 0.950 . S
C521 C517 1.385 . S
C521 C520 1.374 . S
C522 C519 1.499 . S
C522 C523 1.373 . S
C522 C524 1.389 . S
C523 H502 0.950 . S
C523 C522 1.373 . S
C523 C539 1.377 . S
C524 C522 1.389 . S
C524 C525 1.524 . S
C524 C538 1.377 . S
C525 C524 1.524 . S
C525 C526 1.397 . S
C525 C530 1.363 . S
C526 H503 0.950 . S
C526 C525 1.397 . S
C526 C527 1.334 . S
C527 H504 0.950 . S
C527 C526 1.334 . S
C527 C528 1.287 . S
C528 C527 1.287 . S
C528 C529 1.524 . S
C528 H547 0.913 . S
C529 H505 0.950 . S
C529 C528 1.524 . S
C529 C530 1.415 . S
C530 H506 0.950 . S
C530 C525 1.363 . S
C530 C529 1.415 . S
C531 H507 0.951 . S
C531 C532 1.366 . S
C531 C533 1.388 . S
C532 C531 1.366 . S
C532 C536 1.385 . S
C533 H508 0.951 . S
C533 C531 1.388 . S
C533 C534 1.366 . S
C534 C533 1.366 . S
C534 C535 1.414 . S
C534 C537 1.499 . S
C535 H509 0.950 . S
C535 C534 1.414 . S
C535 C536 1.374 . S
C536 H510 0.950 . S
C536 C532 1.385 . S
C536 C535 1.374 . S
C537 C534 1.499 . S
C537 C538 1.373 . S
C537 C539 1.389 . S
C538 H511 0.950 . S
C538 C524 1.377 . S
C538 C537 1.373 . S
C539 C523 1.377 . S
C539 C537 1.389 . S
C539 C540 1.524 . S
C540 C539 1.524 . S
C540 C541 1.397 . S
C540 C545 1.363 . S
C541 H512 0.950 . S
C541 C540 1.397 . S
C541 C542 1.334 . S
C542 H513 0.950 . S
C542 C541 1.334 . S
C542 C543 1.287 . S
C543 C542 1.287 . S
C543 C544 1.524 . S
C543 H546 0.999 . S
C544 H514 0.950 . S
C544 C543 1.524 . S
C544 C545 1.415 . S
C545 H515 0.950 . S
C545 C540 1.363 . S
C545 C544 1.415 . S
H546 C543 0.999 . S
H547 C528 0.913 . S
H548 C566 0.951 . S
H549 C568 0.951 . S
H550 C570 0.950 . S
H551 C571 0.950 . S
H552 C573 0.950 . S
H553 C576 0.950 . S
H554 C577 0.950 . S
H555 C579 0.950 . S
H556 C580 0.950 . S
H557 C581 0.951 . S
H558 C583 0.951 . S
H559 C585 0.950 . S
H560 C586 0.950 . S
H561 C588 0.950 . S
H562 C591 0.950 . S
H563 C592 0.950 . S
H564 C594 0.950 1_455 S
H565 C595 0.950 . S
C566 H548 0.951 . S
C566 C567 1.366 . S
C566 C568 1.388 . S
C567 C566 1.366 . S
C567 C571 1.385 . S
C568 H549 0.951 . S
C568 C566 1.388 . S
C568 C569 1.366 . S
C569 C568 1.366 . S
C569 C570 1.414 . S
C569 C572 1.499 . S
C570 H550 0.950 . S
C570 C569 1.414 . S
C570 C571 1.374 . S
C571 H551 0.950 . S
C571 C567 1.385 . S
C571 C570 1.374 . S
C572 C569 1.499 . S
C572 C573 1.373 . S
C572 C574 1.389 . S
C573 H552 0.950 . S
C573 C572 1.373 . S
C573 C589 1.377 . S
C574 C572 1.389 . S
C574 C575 1.524 . S
C574 C588 1.377 . S
C575 C574 1.524 . S
C575 C576 1.397 . S
C575 C580 1.363 . S
C576 H553 0.950 . S
C576 C575 1.397 . S
C576 C577 1.334 . S
C577 H554 0.950 . S
C577 C576 1.334 . S
C577 C578 1.287 . S
C578 C577 1.287 . S
C578 C579 1.524 . S
C578 H597 0.913 . S
C579 H555 0.950 . S
C579 C578 1.524 . S
C579 C580 1.415 . S
C580 H556 0.950 . S
C580 C575 1.363 . S
C580 C579 1.415 . S
C581 H557 0.951 . S
C581 C582 1.366 . S
C581 C583 1.388 . S
C582 C581 1.366 . S
C582 C586 1.385 . S
C583 H558 0.951 . S
C583 C581 1.388 . S
C583 C584 1.366 . S
C584 C583 1.366 . S
C584 C585 1.414 . S
C584 C587 1.499 . S
C585 H559 0.950 . S
C585 C584 1.414 . S
C585 C586 1.374 . S
C586 H560 0.950 . S
C586 C582 1.385 . S
C586 C585 1.374 . S
C587 C584 1.499 . S
C587 C588 1.373 . S
C587 C589 1.389 . S
C588 H561 0.950 . S
C588 C574 1.377 . S
C588 C587 1.373 . S
C589 C573 1.377 . S
C589 C587 1.389 . S
C589 C590 1.524 . S
C590 C589 1.524 . S
C590 C591 1.397 . S
C590 C595 1.363 . S
C591 H562 0.950 . S
C591 C590 1.397 . S
C591 C592 1.334 1_655 S
C592 H563 0.950 . S
C592 C591 1.334 1_455 S
C592 C593 1.287 . S
C593 C592 1.287 . S
C593 C594 1.524 1_455 S
C593 H596 0.999 . S
C594 H564 0.950 1_655 S
C594 C593 1.524 1_655 S
C594 C595 1.415 . S
C595 H565 0.950 . S
C595 C590 1.363 . S
C595 C594 1.415 . S
H596 C593 0.999 . S
H597 C578 0.913 . S
H598 C616 0.951 . S
H599 C618 0.951 . S
H600 C620 0.950 . S
H601 C621 0.950 . S
H602 C623 0.950 . S
H603 C626 0.950 . S
H604 C627 0.950 . S
H605 C629 0.950 . S
H606 C630 0.950 . S
H607 C631 0.951 . S
H608 C633 0.951 . S
H609 C635 0.950 . S
H610 C636 0.950 . S
H611 C638 0.950 . S
H612 C641 0.950 . S
H613 C642 0.950 . S
H614 C644 0.950 . S
H615 C645 0.950 . S
C616 H598 0.951 . S
C616 C617 1.366 . S
C616 C618 1.388 . S
C617 C616 1.366 . S
C617 C621 1.385 . S
C618 H599 0.951 . S
C618 C616 1.388 . S
C618 C619 1.366 . S
C619 C618 1.366 . S
C619 C620 1.414 . S
C619 C622 1.499 . S
C620 H600 0.950 . S
C620 C619 1.414 . S
C620 C621 1.374 . S
C621 H601 0.950 . S
C621 C617 1.385 . S
C621 C620 1.374 . S
C622 C619 1.499 . S
C622 C623 1.373 . S
C622 C624 1.389 . S
C623 H602 0.950 . S
C623 C622 1.373 . S
C623 C639 1.377 . S
C624 C622 1.389 . S
C624 C625 1.524 . S
C624 C638 1.377 . S
C625 C624 1.524 . S
C625 C626 1.397 . S
C625 C630 1.363 . S
C626 H603 0.950 . S
C626 C625 1.397 . S
C626 C627 1.334 . S
C627 H604 0.950 . S
C627 C626 1.334 . S
C627 C628 1.287 . S
C628 C627 1.287 . S
C628 C629 1.524 . S
C628 H647 0.913 . S
C629 H605 0.950 . S
C629 C628 1.524 . S
C629 C630 1.415 . S
C630 H606 0.950 . S
C630 C625 1.363 . S
C630 C629 1.415 . S
C631 H607 0.951 . S
C631 C632 1.366 . S
C631 C633 1.388 . S
C632 C631 1.366 . S
C632 C636 1.385 . S
C633 H608 0.951 . S
C633 C631 1.388 . S
C633 C634 1.366 . S
C634 C633 1.366 . S
C634 C635 1.414 . S
C634 C637 1.499 . S
C635 H609 0.950 . S
C635 C634 1.414 . S
C635 C636 1.374 . S
C636 H610 0.950 . S
C636 C632 1.385 . S
C636 C635 1.374 . S
C637 C634 1.499 . S
C637 C638 1.373 . S
C637 C639 1.389 . S
C638 H611 0.950 . S
C638 C624 1.377 . S
C638 C637 1.373 . S
C639 C623 1.377 . S
C639 C637 1.389 . S
C639 C640 1.524 . S
C640 C639 1.524 . S
C640 C641 1.397 . S
C640 C645 1.363 . S
C641 H612 0.950 . S
C641 C640 1.397 . S
C641 C642 1.334 . S
C642 H613 0.950 . S
C642 C641 1.334 . S
C642 C643 1.287 . S
C643 C642 1.287 . S
C643 C644 1.524 . S
C643 H646 0.999 . S
C644 H614 0.950 . S
C644 C643 1.524 . S
C644 C645 1.415 . S
C645 H615 0.950 . S
C645 C640 1.363 . S
C645 C644 1.415 . S
H646 C643 0.999 . S
H647 C628 0.913 . S
H648 C666 0.951 . S
H649 C668 0.951 . S
H650 C670 0.950 . S
H651 C671 0.950 . S
H652 C673 0.950 . S
H653 C676 0.950 . S
H654 C677 0.950 . S
H655 C679 0.950 . S
H656 C680 0.950 . S
H657 C681 0.951 . S
H658 C683 0.951 . S
H659 C685 0.950 . S
H660 C686 0.950 . S
H661 C688 0.950 . S
H662 C691 0.950 . S
H663 C692 0.950 . S
H664 C694 0.950 . S
H665 C695 0.950 . S
C666 H648 0.951 . S
C666 C667 1.366 . S
C666 C668 1.388 . S
C667 C666 1.366 . S
C667 C671 1.385 . S
C668 H649 0.951 . S
C668 C666 1.388 . S
C668 C669 1.366 . S
C669 C668 1.366 . S
C669 C670 1.414 . S
C669 C672 1.499 . S
C670 H650 0.950 . S
C670 C669 1.414 . S
C670 C671 1.374 . S
C671 H651 0.950 . S
C671 C667 1.385 . S
C671 C670 1.374 . S
C672 C669 1.499 . S
C672 C673 1.373 . S
C672 C674 1.389 . S
C673 H652 0.950 . S
C673 C672 1.373 . S
C673 C689 1.377 . S
C674 C672 1.389 . S
C674 C675 1.524 . S
C674 C688 1.377 . S
C675 C674 1.524 . S
C675 C676 1.397 . S
C675 C680 1.363 . S
C676 H653 0.950 . S
C676 C675 1.397 . S
C676 C677 1.334 . S
C677 H654 0.950 . S
C677 C676 1.334 . S
C677 C678 1.287 . S
C678 C677 1.287 . S
C678 C679 1.524 . S
C678 H697 0.913 . S
C679 H655 0.950 . S
C679 C678 1.524 . S
C679 C680 1.415 . S
C680 H656 0.950 . S
C680 C675 1.363 . S
C680 C679 1.415 . S
C681 H657 0.951 . S
C681 C682 1.366 . S
C681 C683 1.388 . S
C682 C681 1.366 . S
C682 C686 1.385 . S
C683 H658 0.951 . S
C683 C681 1.388 . S
C683 C684 1.366 . S
C684 C683 1.366 . S
C684 C685 1.414 . S
C684 C687 1.499 . S
C685 H659 0.950 . S
C685 C684 1.414 . S
C685 C686 1.374 . S
C686 H660 0.950 . S
C686 C682 1.385 . S
C686 C685 1.374 . S
C687 C684 1.499 . S
C687 C688 1.373 . S
C687 C689 1.389 . S
C688 H661 0.950 . S
C688 C674 1.377 . S
C688 C687 1.373 . S
C689 C673 1.377 . S
C689 C687 1.389 . S
C689 C690 1.524 . S
C690 C689 1.524 . S
C690 C691 1.397 . S
C690 C695 1.363 . S
C691 H662 0.950 . S
C691 C690 1.397 . S
C691 C692 1.334 . S
C692 H663 0.950 . S
C692 C691 1.334 . S
C692 C693 1.287 . S
C693 C692 1.287 . S
C693 C694 1.524 . S
C693 H696 0.999 . S
C694 H664 0.950 . S
C694 C693 1.524 . S
C694 C695 1.415 . S
C695 H665 0.950 . S
C695 C690 1.363 . S
C695 C694 1.415 . S
H696 C693 0.999 . S
H697 C678 0.913 . S
C132 C69 1.479 . S
C117 C43 1.428 . S
C167 C4 1.439 . S
C182 C92 1.484 . S
C217 C17 1.477 . S
C232 C68 1.525 . S
C267 C30 1.474 . S
C282 C91 1.522 . S
C332 C72 1.414 . S
C317 C9 1.432 . S
C382 C94 1.459 . S
C367 C21 1.503 . S
C417 C34 1.464 . S
C432 C73 1.420 . S
C467 C48 1.488 . S
C482 C93 1.452 . S
C532 C96 1.417 . S
C517 C22 1.441 . S
C582 C71 1.464 . S
C567 C35 1.497 . S
C632 C95 1.416 . S
C617 C47 1.453 . S
C667 C8 1.492 . S
C682 C70 1.447 . S
