# Generated by pormake.
# Topology zzz, (3,6)-cn, num edge types: 1
# Building blocks:
#     Node 0, Type 0, BuildingBlock: BETDAH_clean_linker_0, # of connection points: 3
#     Node 1, Type 0, BuildingBlock: BETDAH_clean_linker_0, # of connection points: 3
#     Node 2, Type 0, BuildingBlock: BETDAH_clean_linker_0, # of connection points: 3
#     Node 3, Type 0, BuildingBlock: BETDAH_clean_linker_0, # of connection points: 3
#     Node 4, Type 0, BuildingBlock: BETDAH_clean_linker_0, # of connection points: 3
#     Node 5, Type 0, BuildingBlock: BETDAH_clean_linker_0, # of connection points: 3
#     Node 6, Type 0, BuildingBlock: BETDAH_clean_linker_0, # of connection points: 3
#     Node 7, Type 0, BuildingBlock: BETDAH_clean_linker_0, # of connection points: 3
#     Node 8, Type 1, BuildingBlock: KUMBOL_clean_sbu_0, # of connection points: 6
#     Node 9, Type 1, BuildingBlock: KUMBOL_clean_sbu_0, # of connection points: 6
#     Node 10, Type 1, BuildingBlock: KUMBOL_clean_sbu_0, # of connection points: 6
#     Node 11, Type 1, BuildingBlock: KUMBOL_clean_sbu_0, # of connection points: 6
#     Edge 12, Type (0, 1), BuildingBlock: EZIPEK_clean_linker_0, # of connection points: 2
#     Edge 13, Type (0, 1), BuildingBlock: EZIPEK_clean_linker_0, # of connection points: 2
#     Edge 14, Type (0, 1), BuildingBlock: EZIPEK_clean_linker_0, # of connection points: 2
#     Edge 15, Type (0, 1), BuildingBlock: EZIPEK_clean_linker_0, # of connection points: 2
#     Edge 16, Type (0, 1), BuildingBlock: EZIPEK_clean_linker_0, # of connection points: 2
#     Edge 17, Type (0, 1), BuildingBlock: EZIPEK_clean_linker_0, # of connection points: 2
#     Edge 18, Type (0, 1), BuildingBlock: EZIPEK_clean_linker_0, # of connection points: 2
#     Edge 19, Type (0, 1), BuildingBlock: EZIPEK_clean_linker_0, # of connection points: 2
#     Edge 20, Type (0, 1), BuildingBlock: EZIPEK_clean_linker_0, # of connection points: 2
#     Edge 21, Type (0, 1), BuildingBlock: EZIPEK_clean_linker_0, # of connection points: 2
#     Edge 22, Type (0, 1), BuildingBlock: EZIPEK_clean_linker_0, # of connection points: 2
#     Edge 23, Type (0, 1), BuildingBlock: EZIPEK_clean_linker_0, # of connection points: 2
#     Edge 24, Type (0, 1), BuildingBlock: EZIPEK_clean_linker_0, # of connection points: 2
#     Edge 25, Type (0, 1), BuildingBlock: EZIPEK_clean_linker_0, # of connection points: 2
#     Edge 26, Type (0, 1), BuildingBlock: EZIPEK_clean_linker_0, # of connection points: 2
#     Edge 27, Type (0, 1), BuildingBlock: EZIPEK_clean_linker_0, # of connection points: 2
#     Edge 28, Type (0, 1), BuildingBlock: EZIPEK_clean_linker_0, # of connection points: 2
#     Edge 29, Type (0, 1), BuildingBlock: EZIPEK_clean_linker_0, # of connection points: 2
#     Edge 30, Type (0, 1), BuildingBlock: EZIPEK_clean_linker_0, # of connection points: 2
#     Edge 31, Type (0, 1), BuildingBlock: EZIPEK_clean_linker_0, # of connection points: 2
#     Edge 32, Type (0, 1), BuildingBlock: EZIPEK_clean_linker_0, # of connection points: 2
#     Edge 33, Type (0, 1), BuildingBlock: EZIPEK_clean_linker_0, # of connection points: 2
#     Edge 34, Type (0, 1), BuildingBlock: EZIPEK_clean_linker_0, # of connection points: 2
#     Edge 35, Type (0, 1), BuildingBlock: EZIPEK_clean_linker_0, # of connection points: 2
# Relax obj value: 0.233
# Max RMSD: 0.183
# Mean RMSD: 0.120
data_MOF--net-zzz--node1-KUMBOL_clean_sbu_0--node2-BETDAH_clean_linker_0--edge1-EZIPEK_clean_linker_0
_symmetry_space_group_name_H-M    P1
_symmetry_Int_Tables_number       1
_symmetry_cell_setting            triclinic
loop_
_symmetry_equiv_pos_as_xyz
'x, y, z'
_cell_length_a     36.263727
_cell_length_b     36.473823
_cell_length_c     11.150825
_cell_angle_alpha  91.865119
_cell_angle_beta   89.744066
_cell_angle_gamma 90.086987
loop_
_atom_site_label
_atom_site_type_symbol
_atom_site_fract_x
_atom_site_fract_y
_atom_site_fract_z
_atom_type_partial_charge
H0 H 0.86662 0.50383 0.25848 0.0
H1 H 0.75482 0.51882 0.15223 0.0
H2 H 0.79787 0.5807 0.45821 0.0
C3 C 0.84068 0.51824 0.27162 0.0
C4 C 0.83687 0.54374 0.36804 0.0
C5 C 0.81087 0.50868 0.19736 0.0
C6 C 0.7772 0.52657 0.21161 0.0
C7 C 0.77209 0.5532 0.30359 0.0
C8 C 0.80197 0.56134 0.38369 0.0
N9 N 0.73692 0.57075 0.3189 0.0
C10 C 0.70651 0.56555 0.24141 0.0
H11 H 0.96467 0.85639 0.31681 0.0
H12 H 0.98978 0.74958 0.1659 0.0
H13 H 0.06564 0.80383 0.40816 0.0
C14 C 0.98267 0.8332 0.30755 0.0
C15 C 1.01531 0.8341 0.37482 0.0
C16 C 0.9742 0.80413 0.22489 0.0
C17 C 0.997 0.77305 0.22222 0.0
C18 C 0.03052 0.77279 0.28364 0.0
C19 C 0.03968 0.80356 0.3606 0.0
N20 N 0.05579 0.74277 0.26403 0.0
C21 C 0.05054 0.71206 0.18462 0.0
H22 H 0.7003 1.0027 0.31543 0.0
H23 H 0.81379 1.0177 0.21347 0.0
H24 H 0.7701 0.07205 0.53119 0.0
C25 C 0.72763 1.01339 0.33253 0.0
C26 C 0.73174 0.03646 0.43451 0.0
C27 C 0.75683 1.00693 0.24907 0.0
C28 C 0.79122 1.02258 0.27484 0.0
C29 C 0.79643 0.04626 0.37492 0.0
C30 C 0.7666 0.05299 0.45557 0.0
N31 N 0.83081 0.06497 0.39101 0.0
C32 C 0.85984 0.06325 0.30712 0.0
H33 H 0.60834 0.74325 0.40426 0.0
H34 H 0.58305 0.83973 0.20801 0.0
H35 H 0.53064 0.82104 0.54569 0.0
C36 C 0.59498 0.76952 0.39606 0.0
C37 C 0.56937 0.77925 0.4852 0.0
C38 C 0.59795 0.78923 0.28925 0.0
C39 C 0.58093 0.82384 0.28729 0.0
C40 C 0.5581 0.83659 0.38176 0.0
C41 C 0.55127 0.81343 0.47909 0.0
N42 N 0.5395 0.87104 0.37537 0.0
C43 C 0.5414 0.89419 0.27724 0.0
H44 H 0.23001 0.47061 0.17643 0.0
H45 H 0.33887 0.48201 0.3149 0.0
H46 H 0.30193 0.55177 0.0349 0.0
C47 C 0.25625 0.48422 0.17667 0.0
C48 C 0.26152 0.51242 0.09659 0.0
C49 C 0.28352 0.47339 0.25705 0.0
C50 C 0.31789 0.49052 0.25461 0.0
C51 C 0.32509 0.519 0.17634 0.0
C52 C 0.29671 0.5299 0.09613 0.0
N53 N 0.36016 0.53728 0.17931 0.0
C54 C 0.38954 0.53016 0.2583 0.0
H55 H 0.98606 0.21962 0.05866 0.0
H56 H 1.01044 0.31661 0.26802 0.0
H57 H 0.0804 0.28504 0.96754 0.0
C58 C 1.00212 0.24467 0.06916 0.0
C59 C 0.03346 0.24918 0.99621 0.0
C60 C 0.99535 0.26762 0.17036 0.0
C61 C 1.01585 0.29955 0.18855 0.0
C62 C 0.04585 0.30713 0.1134 0.0
C63 C 0.05534 0.28121 0.01873 0.0
N64 N 0.06859 0.33854 0.13965 0.0
C65 C 0.06162 0.3654 0.23109 0.0
H66 H 0.34194 0.99817 0.07736 0.0
H67 H 0.23535 1.02051 0.2266 0.0
H68 H 0.29759 0.10709 0.06334 0.0
C69 C 0.31929 1.01715 0.09294 0.0
C70 C 0.32311 0.0532 0.05376 0.0
C71 C 0.28961 1.00651 0.16545 0.0
C72 C 0.25968 0.03014 0.18075 0.0
C73 C 0.26249 0.0669 0.14812 0.0
C74 C 0.29449 0.07849 0.08458 0.0
N75 N 0.23507 0.09286 0.18775 0.0
C76 C 0.20562 0.08479 0.2655 0.0
H77 H 0.56943 0.37506 0.09728 0.0
H78 H 0.5469 0.27513 0.27474 0.0
H79 H 0.48835 0.30066 0.95078 0.0
C80 C 0.55577 0.34853 0.09749 0.0
C81 C 0.52931 0.34067 0.01031 0.0
C82 C 0.56136 0.32556 0.19397 0.0
C83 C 0.54263 0.29217 0.19844 0.0
C84 C 0.51672 0.28215 0.10973 0.0
C85 C 0.5097 0.30694 0.01581 0.0
N86 N 0.496 0.24878 0.11826 0.0
C87 C 0.49987 0.22346 0.21028 0.0
Gd88 Gd 0.98845 0.04805 0.63872 0.0
Gd89 Gd 0.05811 1.0236 0.84625 0.0
C90 C 0.13332 0.10666 0.04424 0.0
C91 C 0.18967 0.10271 0.92673 0.0
C92 C 0.13796 0.06212 0.8807 0.0
C93 C 0.11706 0.07962 0.96794 0.0
C94 C 0.17507 0.07241 0.86216 0.0
C95 C 0.16876 0.11982 0.01825 0.0
C96 C 0.1151 0.11685 0.15059 0.0
C97 C 0.08236 0.09913 0.18015 0.0
N98 N 0.08288 0.0662 0.98996 0.0
C99 C 0.06644 0.07419 0.09793 0.0
H100 H 0.03982 0.06352 0.11907 0.0
C101 C 0.14569 1.00893 0.75753 0.0
N102 N 0.12316 0.03225 0.82372 0.0
C103 C 0.1824 1.01835 0.7345 0.0
C104 C 0.19692 0.05074 0.78461 0.0
H105 H 0.13531 0.98371 0.71778 0.0
H106 H 0.18119 0.1414 0.07366 0.0
H107 H 1.01827 0.05462 0.34866 0.0
H108 H 0.12703 0.13673 0.21354 0.0
H109 H 0.06861 0.1057 0.26451 0.0
H110 H 0.21785 0.11151 0.91216 0.0
H111 H 0.92461 1.00403 0.81741 0.0
H112 H 1.00027 0.9505 0.17518 0.0
H113 H 0.02969 1.01053 0.17978 0.0
H114 H 0.90917 0.89601 0.42021 0.0
H115 H 0.19949 1.00053 0.67819 0.0
H116 H 0.22549 0.05776 0.76774 0.0
H117 H 0.95052 0.91195 0.25347 0.0
H118 H 0.88542 0.95082 0.80701 0.0
N119 N 0.99034 1.01495 0.45337 0.0
C120 C 0.99613 0.96895 0.25138 0.0
C121 C 1.01245 1.00325 0.25335 0.0
C122 C 0.97262 0.9598 0.3442 0.0
C123 C 0.97115 0.98293 0.44759 0.0
C124 C 1.00699 0.02724 0.35189 0.0
N125 N 0.95098 0.99434 0.64654 0.0
C126 C 0.94953 0.97333 0.54394 0.0
C127 C 0.90366 0.95644 0.73267 0.0
C128 C 0.90338 0.93378 0.63027 0.0
C129 C 0.92719 0.98678 0.73879 0.0
C130 C 0.92628 0.9421 0.53411 0.0
H131 H 0.88523 0.91015 0.62596 0.0
O132 O 0.93301 0.06784 0.67725 0.0
O133 O 1.0235 0.07207 0.79009 0.0
O134 O 1.00577 0.03696 0.95745 0.0
O135 O 0.96152 0.05425 0.82078 0.0
O136 O 1.01427 0.10449 0.6455 0.0
O137 O 0.95844 0.07783 0.50504 0.0
O138 O 0.08833 0.98298 0.94764 0.0
O139 O 1.01901 0.99937 0.70557 0.0
O140 O 0.04389 0.05704 0.54067 0.0
O141 O 0.08795 0.04746 0.68756 0.0
O142 O 0.07093 0.97844 0.71011 0.0
O143 O 0.02943 0.98647 0.96101 0.0
C144 C 0.03027 0.10426 0.74912 0.0
C145 C 0.92669 0.92002 0.42901 0.0
C146 C 0.95036 0.92864 0.33511 0.0
C147 C 0.92947 0.08262 0.57379 0.0
C148 C 0.90987 0.11782 0.57056 0.0
C149 C 0.87131 0.11748 0.56755 0.0
C150 C 0.92865 0.14999 0.54417 0.0
C151 C 0.91059 0.17753 0.4807 0.0
C152 C 0.85231 0.14675 0.51915 0.0
C153 C 0.87194 0.17557 0.46929 0.0
C154 C 0.97155 0.04696 0.93078 0.0
C155 C 0.04061 0.9758 0.65244 0.0
C156 C 0.05836 0.96747 0.98593 0.0
C157 C 0.05464 0.92699 0.97143 0.0
C158 C 0.0861 0.90489 0.96151 0.0
C159 C 1.01949 0.9101 0.97149 0.0
C160 C 1.01518 0.87173 0.9564 0.0
C161 C 0.08262 0.86691 0.95174 0.0
C162 C 0.04783 0.85049 0.95036 0.0
C163 C 0.07879 0.05599 0.57754 0.0
H164 H 0.85613 0.09352 0.59474 0.0
H165 H 0.95826 0.15095 0.55643 0.0
H166 H 0.82259 0.14559 0.51122 0.0
H167 H 0.85697 0.19541 0.41833 0.0
H168 H 0.11344 0.9169 0.96314 0.0
H169 H 0.9957 0.92728 0.98279 0.0
H170 H 0.1071 0.84997 0.94676 0.0
H171 H 0.04706 0.82085 0.94806 0.0
Gd172 Gd 0.51332 1.0215 0.62818 0.0
Gd173 Gd 0.54013 0.09435 0.84985 0.0
C174 C 0.44285 0.14521 0.0563 0.0
C175 C 0.43178 0.20101 0.94948 0.0
C176 C 0.4835 0.16143 0.89501 0.0
C177 C 0.47263 0.13687 0.97872 0.0
C178 C 0.46456 0.1949 0.88421 0.0
C179 C 0.42089 0.17607 0.03594 0.0
C180 C 0.43842 0.12446 0.15838 0.0
C181 C 0.46567 0.0992 0.1872 0.0
N182 N 0.49518 0.10811 0.99775 0.0
C183 C 0.49429 0.09162 0.1058 0.0
H184 H 0.51447 0.07123 0.12782 0.0
C185 C 0.53453 0.18379 0.78863 0.0
N186 N 0.51621 0.15513 0.83932 0.0
C187 C 0.51664 0.21724 0.77266 0.0
C188 C 0.48087 0.22234 0.81696 0.0
H189 H 0.56232 0.1802 0.75566 0.0
H190 H 0.39727 0.1824 0.09272 0.0
H191 H 0.56482 0.04229 0.39039 0.0
H192 H 0.41551 0.12942 0.21916 0.0
H193 H 0.46406 0.08454 0.26981 0.0
H194 H 0.41636 0.22618 0.94065 0.0
H195 H 0.47017 0.94407 0.72081 0.0
H196 H 0.64982 0.96141 0.34771 0.0
H197 H 0.62117 1.01993 0.28782 0.0
H198 H 0.60975 0.86718 0.60715 0.0
H199 H 0.53053 0.23911 0.72705 0.0
H200 H 0.46725 0.24844 0.80628 0.0
H201 H 0.64592 0.90492 0.47003 0.0
H202 H 0.48775 0.88077 0.77081 0.0
N203 N 0.56399 0.99957 0.51486 0.0
C204 C 0.62546 0.97164 0.39385 0.0
C205 C 0.60925 1.00436 0.35913 0.0
C206 C 0.60871 0.95137 0.48335 0.0
C207 C 0.5771 0.96595 0.54121 0.0
C208 C 0.57777 1.01749 0.41908 0.0
N209 N 0.52376 0.958 0.65775 0.0
C210 C 0.55633 0.94437 0.61529 0.0
C211 C 0.50759 0.89862 0.72926 0.0
C212 C 0.54295 0.88581 0.70069 0.0
C213 C 0.49788 0.93456 0.70277 0.0
C214 C 0.56715 0.90813 0.63743 0.0
H215 H 0.55045 0.85799 0.72136 0.0
O216 O 0.50149 1.00432 0.44319 0.0
O217 O 0.49343 0.06249 0.77031 0.0
O218 O 0.53787 0.03706 0.93976 0.0
O219 O 0.53266 0.9915 0.7887 0.0
O220 O 0.46197 1.01636 0.74584 0.0
O221 O 0.45679 1.01826 0.56287 0.0
O222 O 0.58267 0.13264 0.90991 0.0
O223 O 0.56051 0.05421 0.70715 0.0
O224 O 0.52026 0.07655 0.5333 0.0
O225 O 0.51638 0.12153 0.68641 0.0
O226 O 0.59083 0.10097 0.73158 0.0
O227 O 0.57073 0.08451 0.01172 0.0
C228 C 0.46503 0.04606 0.81134 0.0
C229 C 0.60067 0.8948 0.58993 0.0
C230 C 0.62128 0.9163 0.51195 0.0
C231 C 0.46613 1.00282 0.46078 0.0
C232 C 0.44761 0.96756 0.43115 0.0
C233 C 0.46553 0.93388 0.4455 0.0
C234 C 0.41054 0.96735 0.39729 0.0
C235 C 0.39111 0.93407 0.38178 0.0
C236 C 0.44594 0.90085 0.43621 0.0
C237 C 0.40862 0.90091 0.40599 0.0
C238 C 0.53715 1.00169 0.90166 0.0
C239 C 0.58909 0.07091 0.66849 0.0
C240 C 0.59162 0.11333 1.00108 0.0
C241 C 0.63106 0.10812 0.02081 0.0
C242 C 0.65073 0.135 0.08613 0.0
C243 C 0.6486 0.07562 0.98215 0.0
C244 C 0.68446 0.06787 0.02004 0.0
C245 C 0.68742 0.1289 0.11585 0.0
C246 C 0.70395 0.09531 0.0856 0.0
C247 C 0.5164 0.1114 0.57148 0.0
H248 H 0.49473 0.93295 0.46246 0.0
H249 H 0.39657 0.99318 0.38434 0.0
H250 H 0.4599 0.87516 0.45049 0.0
H251 H 0.39369 0.8752 0.39874 0.0
H252 H 0.63755 0.16039 0.11562 0.0
H253 H 0.63359 0.05612 0.9271 0.0
H254 H 0.70262 0.14961 0.16689 0.0
H255 H 0.73176 0.09044 0.1164 0.0
Gd256 Gd 0.50439 0.57317 0.83991 0.0
Gd257 Gd 0.58664 0.55001 0.67168 0.0
C258 C 0.68887 0.49901 0.84189 0.0
C259 C 0.72408 0.55258 0.90569 0.0
C260 C 0.66437 0.55979 0.80904 0.0
C261 C 0.66058 0.52198 0.79999 0.0
C262 C 0.69686 0.57531 0.8592 0.0
C263 C 0.72002 0.51451 0.89753 0.0
C264 C 0.68576 0.46109 0.82274 0.0
C265 C 0.6566 0.44707 0.7548 0.0
N266 N 0.63045 0.50759 0.74373 0.0
C267 C 0.63007 0.47097 0.71199 0.0
H268 H 0.60993 0.46043 0.64979 0.0
C269 C 0.64311 0.61839 0.75965 0.0
N270 N 0.63721 0.58135 0.76506 0.0
C271 C 0.67458 0.63485 0.80903 0.0
C272 C 0.70145 0.61329 0.85998 0.0
H273 H 0.62483 0.63604 0.7142 0.0
H274 H 0.74149 0.49721 0.93191 0.0
H275 H 0.47552 0.63397 0.64145 0.0
H276 H 0.70677 0.44266 0.85416 0.0
H277 H 0.65514 0.41803 0.732 0.0
H278 H 0.74856 0.56429 0.94686 0.0
H279 H 0.46329 0.52804 0.05927 0.0
H280 H 0.37621 0.59488 0.47901 0.0
H281 H 0.4263 0.64091 0.49323 0.0
H282 H 0.34393 0.49362 0.72067 0.0
H283 H 0.67837 0.66425 0.80559 0.0
H284 H 0.72595 0.62615 0.89763 0.0
H285 H 0.34647 0.53919 0.56131 0.0
H286 H 0.41314 0.48213 0.08033 0.0
N287 N 0.45756 0.58197 0.69712 0.0
C288 C 0.39873 0.5911 0.54092 0.0
C289 C 0.42702 0.61699 0.54815 0.0
C290 C 0.39891 0.56167 0.6182 0.0
C291 C 0.42877 0.55817 0.69778 0.0
C292 C 0.45587 0.6123 0.62887 0.0
N293 N 0.45325 0.53498 0.87415 0.0
C294 C 0.42701 0.53321 0.78797 0.0
C295 C 0.41682 0.49611 0.9971 0.0
C296 C 0.39204 0.49015 0.90319 0.0
C297 C 0.44584 0.521 0.98371 0.0
C298 C 0.39573 0.51053 0.79972 0.0
H299 H 0.3687 0.47203 0.91526 0.0
O300 O 0.49808 0.59411 0.0241 0.0
O301 O 0.56702 0.57379 0.84323 0.0
O302 O 0.56354 0.49698 0.75866 0.0
O303 O 0.50496 0.51045 0.83566 0.0
O304 O 0.54087 0.55284 0.99037 0.0
O305 O 0.4651 0.61627 0.88419 0.0
O306 O 0.59577 0.5718 0.49489 0.0
O307 O 0.52567 0.56025 0.6537 0.0
O308 O 0.52722 0.62723 0.77253 0.0
O309 O 0.57327 0.6104 0.63544 0.0
O310 O 0.54637 0.51372 0.56611 0.0
O311 O 0.63174 0.53037 0.55826 0.0
C312 C 0.57277 0.55942 0.94372 0.0
C313 C 0.36781 0.51124 0.7133 0.0
C314 C 0.36923 0.53707 0.6231 0.0
C315 C 0.47348 0.61833 0.99679 0.0
C316 C 0.47815 0.65551 0.04713 0.0
C317 C 0.44889 0.67273 0.10904 0.0
C318 C 0.51141 0.6742 0.03246 0.0
C319 C 0.51664 0.7088 0.08703 0.0
C320 C 0.45324 0.7083 0.15731 0.0
C321 C 0.4871 0.72628 0.14695 0.0
C322 C 0.53198 0.48666 0.81119 0.0
C323 C 0.51676 0.53286 0.58473 0.0
C324 C 0.61861 0.54566 0.46479 0.0
C325 C 0.60629 0.52008 0.36921 0.0
C326 C 0.58065 0.53244 0.28681 0.0
C327 C 0.6115 0.48203 0.38067 0.0
C328 C 0.59067 0.45687 0.31227 0.0
C329 C 0.55846 0.50757 0.22456 0.0
C330 C 0.56439 0.47 0.23282 0.0
C331 C 0.55172 0.63555 0.68927 0.0
H332 H 0.42275 0.65876 0.1196 0.0
H333 H 0.53362 0.66144 0.9826 0.0
H334 H 0.43063 0.72164 0.2049 0.0
H335 H 0.49059 0.75336 0.18815 0.0
H336 H 0.57614 0.56148 0.2761 0.0
H337 H 0.62985 0.47181 0.44815 0.0
H338 H 0.53614 0.51799 0.1733 0.0
H339 H 0.54725 0.45075 0.18324 0.0
Gd340 Gd 0.03154 0.49798 0.82657 0.0
Gd341 Gd 0.06902 0.56928 0.62825 0.0
C342 C 0.05818 0.6944 0.67642 0.0
C343 C 1.01377 0.70897 0.52286 0.0
C344 C 0.03365 0.64595 0.54721 0.0
C345 C 0.05527 0.65683 0.64289 0.0
C346 C 1.01325 0.67198 0.48403 0.0
C347 C 0.03649 0.72025 0.6183 0.0
C348 C 0.08386 0.70503 0.76397 0.0
C349 C 0.10693 0.67868 0.81143 0.0
N350 N 0.07596 0.63108 0.69637 0.0
C351 C 0.10316 0.6419 0.77398 0.0
H352 H 0.12302 0.62268 0.80406 0.0
C353 C 1.01875 0.59948 0.40357 0.0
N354 N 0.03491 0.61027 0.51003 0.0
C355 C 0.99743 0.62397 0.33946 0.0
C356 C 0.99423 0.66032 0.38079 0.0
H357 H 1.02112 0.5715 0.37034 0.0
H358 H 0.03798 0.74912 0.64395 0.0
H359 H 0.97662 0.44472 0.66387 0.0
H360 H 0.087 0.73357 0.79222 0.0
H361 H 0.12811 0.68674 0.87511 0.0
H362 H 0.99784 0.72926 0.4768 0.0
H363 H 0.07343 0.48486 0.09102 0.0
H364 H 1.0268 0.34073 0.59244 0.0
H365 H 0.97629 0.38451 0.55616 0.0
H366 H 0.12071 0.34063 0.89115 0.0
H367 H 0.98386 0.61487 0.2575 0.0
H368 H 0.97825 0.67944 0.32987 0.0
H369 H 0.08195 0.32495 0.71642 0.0
H370 H 0.1114 0.43786 0.18582 0.0
N371 N 0.03024 0.43929 0.73144 0.0
C372 C 0.02793 0.36817 0.63255 0.0
C373 C 0.99959 0.39286 0.61092 0.0
C374 C 0.05546 0.37816 0.71486 0.0
C375 C 0.05536 0.41424 0.76526 0.0
C376 C 1.00061 0.42789 0.6657 0.0
N377 N 0.06981 0.45522 0.92361 0.0
C378 C 0.07618 0.42264 0.86505 0.0
C379 C 0.10355 0.4343 0.09317 0.0
C380 C 0.11414 0.4028 0.02796 0.0
C381 C 0.08122 0.46029 0.04014 0.0
C382 C 0.09895 0.39574 0.91466 0.0
H383 H 0.13134 0.3827 0.0701 0.0
O384 O 1.00725 0.47759 0.99003 0.0
O385 O 0.04486 0.55763 0.8071 0.0
O386 O 0.11089 0.55945 0.77992 0.0
O387 O 0.09326 0.5048 0.8663 0.0
O388 O 0.0287 0.54298 0.97338 0.0
O389 O 0.9721 0.49514 0.84697 0.0
O390 O 0.09904 0.58089 0.46504 0.0
O391 O 0.05482 0.5097 0.64581 0.0
O392 O 0.98771 0.51269 0.68683 0.0
O393 O 1.00563 0.56857 0.6098 0.0
O394 O 0.06159 0.52738 0.47538 0.0
O395 O 0.12847 0.56194 0.61828 0.0
C396 C 0.03912 0.57071 0.91308 0.0
C397 C 0.10288 0.3614 0.85539 0.0
C398 C 0.08084 0.35246 0.75592 0.0
C399 C 0.97402 0.47816 0.94758 0.0
C400 C 0.95245 0.44412 0.95232 0.0
C401 C 0.96797 0.40931 0.92962 0.0
C402 C 0.91466 0.44712 0.97044 0.0
C403 C 0.89154 0.41629 0.95868 0.0
C404 C 0.94519 0.37842 0.91645 0.0
C405 C 0.9069 0.38195 0.92821 0.0
C406 C 0.1181 0.5309 0.8481 0.0
C407 C 0.05416 0.49888 0.53546 0.0
C408 C 0.12965 0.56696 0.50351 0.0
C409 C 0.14589 0.53715 0.42726 0.0
C410 C 0.14235 0.53844 0.30286 0.0
C411 C 0.16262 0.50626 0.47679 0.0
C412 C 0.17474 0.47633 0.4026 0.0
C413 C 0.14996 0.5077 0.23094 0.0
C414 C 0.16554 0.47688 0.27995 0.0
C415 C 0.98037 0.54251 0.62464 0.0
H416 H 0.99741 0.40601 0.92048 0.0
H417 H 0.90308 0.47396 0.99226 0.0
H418 H 0.95725 0.3518 0.89607 0.0
H419 H 0.88953 0.358 0.91515 0.0
H420 H 0.13304 0.56301 0.26164 0.0
H421 H 0.16635 0.50622 0.57242 0.0
H422 H 0.14443 0.50792 0.13621 0.0
H423 H 0.17252 0.45456 0.21813 0.0
C424 C 0.1469 0.05101 0.30751 0.0
C425 C 0.17406 0.0769 0.34497 0.0
C426 C 0.13751 0.09139 0.52812 0.0
C427 C 0.11047 0.06467 0.49298 0.0
N428 N 0.09327 1.01485 0.35758 0.0
N429 N 0.19908 0.11661 0.50042 0.0
C430 C 0.11619 0.04352 0.38441 0.0
C431 C 0.17041 0.09561 0.458 0.0
N432 N 0.15024 0.03382 0.19703 0.0
N433 N 0.13126 0.11376 0.62685 0.0
H434 H 0.22316 0.12074 0.45099 0.0
H435 H 0.20051 0.12738 0.58788 0.0
H436 H 0.10808 0.11154 0.68152 0.0
H437 H 0.14746 0.13646 0.64994 0.0
H438 H 0.12963 1.01794 0.15664 0.0
H439 H 0.17287 0.03755 0.14065 0.0
H440 H 0.09727 0.99596 0.28685 0.0
H441 H 0.07173 1.00776 0.41371 0.0
C442 C 0.47246 0.18057 0.35766 0.0
C443 C 0.50399 0.19625 0.30473 0.0
C444 C 0.54232 0.16334 0.44616 0.0
C445 C 0.51181 0.14133 0.48103 0.0
N446 N 0.44679 0.12892 0.46465 0.0
N447 N 0.57019 0.19806 0.28804 0.0
C448 C 0.47635 0.15015 0.43578 0.0
C449 C 0.53929 0.18626 0.34562 0.0
N450 N 0.43922 0.19558 0.33178 0.0
N451 N 0.57364 0.16441 0.51287 0.0
H452 H 0.5691 0.21438 0.21302 0.0
H453 H 0.59652 0.18866 0.30833 0.0
H454 H 0.57695 0.14852 0.58758 0.0
H455 H 0.59496 0.18302 0.49876 0.0
H456 H 0.41429 0.18797 0.3707 0.0
H457 H 0.41429 0.18797 0.3707 0.0
H458 H 0.42031 0.13257 0.43177 0.0
H459 H 0.44965 0.10503 0.51236 0.0
C460 C 0.45002 0.55652 0.32797 0.0
C461 C 0.42339 0.52815 0.33221 0.0
C462 C 0.45923 0.50053 0.49494 0.0
C463 C 0.48473 0.53044 0.49569 0.0
N464 N 0.51046 0.5782 0.37659 0.0
N465 N 0.41228 0.46576 0.38463 0.0
C466 C 0.4819 0.55561 0.40124 0.0
C467 C 0.43065 0.49794 0.40587 0.0
N468 N 0.44617 0.58514 0.2536 0.0
N469 N 0.46194 0.47463 0.57977 0.0
H470 H 0.39511 0.4619 0.31067 0.0
H471 H 0.418 0.44167 0.42853 0.0
H472 H 0.48362 0.47413 0.64009 0.0
H473 H 0.44164 0.45503 0.59449 0.0
H474 H 0.42394 0.58836 0.19575 0.0
H475 H 0.42394 0.58836 0.19575 0.0
H476 H 0.5104 0.59578 0.30444 0.0
H477 H 0.53447 0.57832 0.4265 0.0
C478 C 0.07966 0.40055 0.42041 0.0
C479 C 0.05622 0.39624 0.31943 0.0
C480 C 0.02836 0.45652 0.36988 0.0
C481 C 0.05184 0.46132 0.47239 0.0
N482 N 0.1069 0.4416 0.57135 0.0
N483 N 1.0026 0.41592 0.21435 0.0
C484 C 0.07926 0.43411 0.49162 0.0
C485 C 0.02899 0.42304 0.29916 0.0
N486 N 0.10143 0.37183 0.45118 0.0
N487 N 1.00708 0.48504 0.33401 0.0
H488 H 1.00235 0.39192 0.16081 0.0
H489 H 0.97909 0.43192 0.20516 0.0
H490 H 1.00342 0.50919 0.38491 0.0
H491 H 0.99425 0.48554 0.25072 0.0
H492 H 0.11678 0.3715 0.52975 0.0
H493 H 0.10208 0.34705 0.40169 0.0
H494 H 0.13009 0.42516 0.5805 0.0
H495 H 0.10793 0.46591 0.6226 0.0
C496 C 0.90208 0.09129 0.15586 0.0
C497 C 0.88891 0.06002 0.21479 0.0
C498 C 0.92966 1.02058 0.08921 0.0
C499 C 0.94298 0.05185 0.02905 0.0
N500 N 0.93356 0.11567 0.98365 0.0
N501 N 0.88584 0.99601 0.23585 0.0
C502 C 0.92693 0.08691 0.0564 0.0
C503 C 0.90192 0.02484 0.18074 0.0
N504 N 0.89099 0.12536 0.19563 0.0
N505 N 0.94253 0.98674 0.05499 0.0
H506 H 0.89077 0.96838 0.21556 0.0
H507 H 0.89077 0.96838 0.21556 0.0
H508 H 0.96 0.98217 0.98184 0.0
H509 H 0.93691 0.96312 0.10034 0.0
H510 H 0.90308 0.14961 0.16801 0.0
H511 H 0.87137 0.12923 0.26341 0.0
H512 H 0.91967 0.1406 0.99135 0.0
H513 H 0.95046 0.11394 0.90808 0.0
C514 C 0.57337 0.9266 0.1093 0.0
C515 C 0.54091 0.91859 0.17461 0.0
C516 C 0.50526 0.95425 0.03307 0.0
C517 C 0.53828 0.97054 0.98981 0.0
N518 N 0.59903 0.95211 0.92761 0.0
N519 N 0.47575 0.91874 0.18782 0.0
C520 C 0.57137 0.95079 0.01034 0.0
C521 C 0.50672 0.93062 0.13202 0.0
N522 N 0.60554 0.90996 0.13904 0.0
N523 N 0.47343 0.95727 0.9701 0.0
H524 H 0.44919 0.92795 0.17 0.0
H525 H 0.44919 0.92795 0.17 0.0
H526 H 0.47149 0.97404 0.89761 0.0
H527 H 0.45007 0.94123 0.98298 0.0
H528 H 0.62891 0.90957 0.08533 0.0
H529 H 0.60869 0.89604 0.2185 0.0
H530 H 0.62402 0.93838 0.93268 0.0
H531 H 0.59459 0.96326 0.84455 0.0
C532 C 0.65842 0.59581 0.11832 0.0
C533 C 0.67373 0.56322 0.16238 0.0
C534 C 0.62589 0.52721 0.0519 0.0
C535 C 0.60851 0.56026 0.01613 0.0
N536 N 0.60673 0.62597 0.02706 0.0
N537 N 0.67545 0.49748 0.16075 0.0
C538 C 0.62463 0.59445 0.05235 0.0
C539 C 0.65841 0.52876 0.12586 0.0
N540 N 0.67718 0.62812 0.13515 0.0
N541 N 0.61076 0.49432 0.01662 0.0
H542 H 0.69738 0.49777 0.22093 0.0
H543 H 0.66902 0.47125 0.12852 0.0
H544 H 0.58632 0.49251 0.96895 0.0
H545 H 0.62101 0.46873 0.03717 0.0
H546 H 0.67148 0.65165 0.08843 0.0
H547 H 0.70118 0.63051 0.18606 0.0
H548 H 0.61645 0.65208 0.04896 0.0
H549 H 0.58079 0.6257 0.98851 0.0
C550 C 0.02997 0.67508 0.99893 0.0
C551 C 0.04861 0.67723 0.11096 0.0
C552 C 0.06276 0.61109 0.0872 0.0
C553 C 0.04514 0.60866 0.97274 0.0
N554 N 1.00132 0.6365 0.84332 0.0
N555 N 0.08715 0.64785 0.25389 0.0
C556 C 1.02595 0.64032 0.93477 0.0
C557 C 0.06589 0.64533 0.15291 0.0
N558 N 1.01724 0.70658 0.95111 0.0
N559 N 0.07473 0.57994 0.13871 0.0
H560 H 0.08946 0.67177 0.30722 0.0
H561 H 0.10448 0.62687 0.28022 0.0
H562 H 0.08101 0.55578 0.09057 0.0
H563 H 0.07589 0.578 0.23149 0.0
H564 H 1.00577 0.70766 0.866 0.0
H565 H 1.02151 0.73233 0.99203 0.0
H566 H 0.98314 0.65698 0.81888 0.0
H567 H 0.99717 0.61147 0.79815 0.0
C568 C 0.99119 0.22007 0.32098 0.0
C569 C 0.97577 0.25153 0.27281 0.0
C570 C 0.92131 0.24147 0.39623 0.0
C571 C 0.93288 0.20438 0.41172 0.0
N572 N 0.97598 0.15714 0.33853 0.0
N573 N 0.92574 0.29321 0.26197 0.0
C574 C 0.96724 0.19311 0.36071 0.0
C575 C 0.94039 0.26278 0.3102 0.0
N576 N 0.02832 0.21573 0.32726 0.0
N577 N 0.89442 0.25686 0.46722 0.0
H578 H 0.89889 0.30228 0.27912 0.0
H579 H 0.89889 0.30228 0.27912 0.0
H580 H 0.88287 0.24329 0.53922 0.0
H581 H 0.88726 0.28447 0.46416 0.0
H582 H 0.04014 0.19295 0.36634 0.0
H583 H 0.04636 0.2369 0.30582 0.0
H584 H 1.00124 0.14921 0.3009 0.0
H585 H 0.95654 0.13611 0.34223 0.0
C586 C 0.30919 0.94214 0.17925 0.0
C587 C 0.29456 0.97351 0.23977 0.0
C588 C 0.32787 0.95647 0.41966 0.0
C589 C 0.35192 0.93556 0.34515 0.0
N590 N 0.36309 0.90346 0.15552 0.0
N591 N 0.28352 1.00558 0.43122 0.0
C592 C 0.34119 0.92561 0.22634 0.0
C593 C 0.3007 0.97831 0.3656 0.0
N594 N 0.29461 0.93119 0.0715 0.0
N595 N 0.33256 0.95656 0.54108 0.0
H596 H 0.26087 1.01992 0.4012 0.0
H597 H 0.29179 1.01402 0.51709 0.0
H598 H 0.35296 0.94074 0.58025 0.0
H599 H 0.31434 0.96912 0.60203 0.0
H600 H 0.30276 0.9074 0.02441 0.0
H601 H 0.27194 0.94471 0.03602 0.0
H602 H 0.35874 0.89899 0.06395 0.0
H603 H 0.38653 0.89062 0.18748 0.0
C604 C 0.55496 0.36208 0.37516 0.0
C605 C 0.57951 0.34221 0.30075 0.0
C606 C 0.6215 0.3945 0.3041 0.0
C607 C 0.5908 0.41712 0.33722 0.0
N608 N 0.52807 0.42164 0.41358 0.0
N609 N 0.64072 0.33387 0.22795 0.0
C610 C 0.5576 0.40067 0.37817 0.0
C611 C 0.61514 0.35634 0.28183 0.0
N612 N 0.52756 0.34415 0.43323 0.0
N613 N 0.65559 0.40945 0.28809 0.0
H614 H 0.63497 0.30608 0.21131 0.0
H615 H 0.66644 0.34248 0.19817 0.0
H616 H 0.66097 0.43723 0.30207 0.0
H617 H 0.67918 0.39405 0.26957 0.0
H618 H 0.50971 0.35723 0.49435 0.0
H619 H 0.52567 0.31559 0.42879 0.0
H620 H 0.502 0.4107 0.42947 0.0
H621 H 0.52945 0.4501 0.425 0.0
C622 C 0.2492 0.4187 0.31858 0.0
C623 C 0.27286 0.44797 0.35341 0.0
C624 C 0.23124 0.46304 0.51751 0.0
C625 C 0.20266 0.4489 0.4445 0.0
N626 N 0.18615 0.39525 0.32729 0.0
N627 N 0.29492 0.48279 0.52518 0.0
C628 C 0.21261 0.41925 0.36567 0.0
C629 C 0.26711 0.46448 0.46814 0.0
N630 N 0.26011 0.39511 0.22831 0.0
N631 N 0.22405 0.47313 0.63312 0.0
H632 H 0.32223 0.47948 0.498 0.0
H633 H 0.2907 0.50023 0.59971 0.0
H634 H 0.19839 0.46728 0.66953 0.0
H635 H 0.24386 0.48328 0.69271 0.0
H636 H 0.24364 0.37421 0.19201 0.0
H637 H 0.28665 0.39692 0.19191 0.0
H638 H 0.19095 0.37299 0.2686 0.0
H639 H 0.1591 0.39837 0.35767 0.0
C640 C 0.93168 0.84438 0.11592 0.0
C641 C 0.94674 0.80912 0.1253 0.0
C642 C 0.97502 0.8149 0.93047 0.0
C643 C 0.97773 0.85298 0.95984 0.0
N644 N 0.93156 0.89958 1.00028 0.0
N645 N 0.94619 0.75735 0.98747 0.0
C646 C 0.94778 0.86758 0.02958 0.0
C647 C 0.95603 0.79268 0.0129 0.0
N648 N 0.9041 0.85515 0.19217 0.0
N649 N 0.99099 0.80076 0.82854 0.0
H650 H 0.93221 0.7421 0.05117 0.0
H651 H 0.94974 0.74474 0.90305 0.0
H652 H 1.00404 0.81783 0.76799 0.0
H653 H 0.99167 0.77279 0.80678 0.0
H654 H 0.89257 0.88129 0.19465 0.0
H655 H 0.89364 0.83704 0.25466 0.0
H656 H 0.90733 0.90926 0.0403 0.0
H657 H 0.94011 0.91414 0.92656 0.0
C658 C 0.76405 1.0076 0.027 0.0
C659 C 0.74979 0.98939 0.12678 0.0
C660 C 0.68808 0.99979 0.06094 0.0
C661 C 0.70199 0.03109 1.00107 0.0
N662 N 0.75152 0.05411 0.88055 0.0
N663 N 0.70517 0.94383 0.16371 0.0
C664 C 0.73957 0.03061 0.96488 0.0
C665 C 0.71425 0.97559 0.11043 0.0
N666 N 0.79975 1.00214 0.99311 0.0
N667 N 0.65147 0.99544 0.08275 0.0
H668 H 0.72519 0.9288 0.20801 0.0
H669 H 0.6792 0.93207 0.15933 0.0
H670 H 0.64125 0.97497 0.13625 0.0
H671 H 0.63118 1.01218 0.04911 0.0
H672 H 0.81154 1.01359 0.91764 0.0
H673 H 0.81636 0.98369 0.038 0.0
H674 H 0.77916 0.05738 0.85751 0.0
H675 H 0.7329 0.0704 0.83487 0.0
C676 C 0.61417 0.73182 0.182 0.0
C677 C 0.61015 0.76985 0.17358 0.0
C678 C 0.56054 0.75902 0.03189 0.0
C679 C 0.55372 0.72559 0.0907 0.0
N680 N 0.57652 0.6791 0.22377 0.0
N681 N 0.60364 0.81009 0.01005 0.0
C682 C 0.58191 0.71059 0.16316 0.0
C683 C 0.59168 0.78022 0.069 0.0
N684 N 0.64551 0.71812 0.22949 0.0
N685 N 0.53703 0.77058 0.94591 0.0
H686 H 0.62647 0.82502 0.04138 0.0
H687 H 0.59246 0.81841 0.9295 0.0
H688 H 0.51509 0.75435 0.91491 0.0
H689 H 0.5392 0.79605 0.90689 0.0
H690 H 0.64925 0.69029 0.24338 0.0
H691 H 0.66773 0.73541 0.25061 0.0
H692 H 0.59533 0.66978 0.28629 0.0
H693 H 0.55257 0.6634 0.2167 0.0
C694 C 0.82067 0.48111 0.9897 0.0
C695 C 0.81446 0.47655 0.11398 0.0
C696 C 0.83875 0.41451 0.09869 0.0
C697 C 0.85174 0.42203 0.98251 0.0
N698 N 0.83951 0.45199 0.79956 0.0
N699 N 0.80657 0.43393 0.2752 0.0
C700 C 0.83574 0.45124 0.92102 0.0
C701 C 0.81889 0.44152 0.1633 0.0
N702 N 0.81602 0.5146 0.9409 0.0
N703 N 0.84708 0.38289 0.15357 0.0
H704 H 0.79114 0.45241 0.32854 0.0
H705 H 0.79114 0.45241 0.32854 0.0
H706 H 0.86166 0.36136 0.11148 0.0
H707 H 0.86166 0.36136 0.11148 0.0
H708 H 0.82359 0.52033 0.8533 0.0
H709 H 0.80622 0.53726 0.99068 0.0
H710 H 0.82716 0.4717 0.7475 0.0
H711 H 0.85266 0.43058 0.75173 0.0
C712 C 0.04474 0.2102 0.79829 0.0
C713 C 0.04618 0.21481 0.92494 0.0
C714 C 0.03775 0.14872 0.93952 0.0
C715 C 0.0404 0.14161 0.81317 0.0
N716 N 0.05703 0.16976 0.62514 0.0
N717 N 0.0605 0.18591 0.10682 0.0
C718 C 0.04744 0.17367 0.74328 0.0
C719 C 0.04958 0.18283 0.99065 0.0
N720 N 0.03978 0.24018 0.73047 0.0
N721 N 1.01866 0.12615 0.01021 0.0
H722 H 0.07324 0.20982 0.13992 0.0
H723 H 0.05896 0.16456 0.16569 0.0
H724 H 1.00749 0.1023 0.97643 0.0
H725 H 1.01146 0.13312 0.09865 0.0
H726 H 0.03459 0.23829 0.63858 0.0
H727 H 0.03877 0.26667 0.76872 0.0
H728 H 0.06514 0.19188 0.57433 0.0
H729 H 0.06124 0.14435 0.58199 0.0
C730 C 0.39222 0.05264 0.06708 0.0
C731 C 0.36072 0.06345 1.00267 0.0
C732 C 0.403 0.07901 0.83616 0.0
C733 C 0.43264 0.05988 0.88957 0.0
N734 N 0.45232 0.02564 0.05916 0.0
N735 N 0.3364 0.086 0.81841 0.0
C736 C 0.42608 0.0457 1.00552 0.0
C737 C 0.36619 0.07698 0.88549 0.0
N738 N 0.3897 0.04904 0.18859 0.0
N739 N 0.41015 0.09931 0.73847 0.0
H740 H 0.30947 0.08466 0.85104 0.0
H741 H 0.33836 0.09231 0.72815 0.0
H742 H 0.43703 0.10265 0.70737 0.0
H743 H 0.39064 0.11605 0.6993 0.0
H744 H 0.41212 0.04313 0.24265 0.0
H745 H 0.36587 0.05599 0.23702 0.0
H746 H 0.44758 1.01046 0.13538 0.0
H747 H 0.47886 1.02438 0.02555 0.0
C748 C 0.49792 0.40055 0.98029 0.0
C749 C 0.52009 0.37209 0.93051 0.0
C750 C 0.54217 0.41599 0.78139 0.0
C751 C 0.52659 0.44633 0.84801 0.0
N752 N 0.4977 0.46438 0.03544 0.0
N753 N 0.56584 0.35347 0.78499 0.0
C754 C 0.50579 0.43764 0.95257 0.0
C755 C 0.54291 0.38007 0.83098 0.0
N756 N 0.47108 0.39245 0.06142 0.0
N757 N 0.55456 0.42075 0.6681 0.0
H758 H 0.56521 0.32665 0.81495 0.0
H759 H 0.58653 0.35858 0.72255 0.0
H760 H 0.55036 0.44515 0.62451 0.0
H761 H 0.56553 0.39953 0.6148 0.0
H762 H 0.45216 0.41186 0.09417 0.0
H763 H 0.46549 0.36558 0.08543 0.0
H764 H 0.48473 0.45973 0.11721 0.0
H765 H 0.50969 0.48997 0.03009 0.0
C766 C 0.21353 0.4919 0.94426 0.0
C767 C 0.22879 0.52105 0.01595 0.0
C768 C 0.17275 0.55779 0.97356 0.0
C769 C 0.15644 0.52769 0.90675 0.0
N770 N 0.16044 0.46314 0.85113 0.0
N771 N 0.21981 0.57996 0.11427 0.0
C772 C 0.17658 0.49396 0.89944 0.0
C773 C 0.20781 0.5538 0.03292 0.0
N774 N 0.23509 0.46198 0.91675 0.0
N775 N 0.15362 0.58975 0.98752 0.0
H776 H 0.24494 0.57821 0.15857 0.0
H777 H 0.20407 0.60226 0.14438 0.0
H778 H 0.12578 0.59147 0.9676 0.0
H779 H 0.16524 0.61447 0.01756 0.0
H780 H 0.22718 0.44039 0.85915 0.0
H781 H 0.2627 0.46038 0.94209 0.0
H782 H 0.17031 0.43677 0.86402 0.0
H783 H 0.1372 0.46362 0.79772 0.0
C784 C 0.05075 0.89432 0.41623 0.0
C785 C 1.02363 0.86876 0.45222 0.0
C786 C 1.00611 0.9134 0.61778 0.0
C787 C 0.03288 0.9395 0.5801 0.0
N788 N 0.09163 0.9436 0.4756 0.0
N789 N 0.97328 0.8553 0.58425 0.0
C790 C 0.05826 0.92678 0.48847 0.0
C791 C 1.00087 0.87876 0.55272 0.0
N792 N 0.06853 0.8888 0.30888 0.0
N793 N 0.98754 0.92025 0.72226 0.0
H794 H 0.97093 0.82871 0.54776 0.0
H795 H 0.95166 0.86233 0.64207 0.0
H796 H 0.99087 0.94418 0.77423 0.0
H797 H 0.97055 0.90118 0.76156 0.0
H798 H 0.08494 0.90885 0.27059 0.0
H799 H 0.06413 0.8658 0.25272 0.0
H800 H 0.11259 0.93273 0.42099 0.0
H801 H 0.10015 0.96628 0.52705 0.0
C802 C 0.68287 1.02288 0.59376 0.0
C803 C 0.69718 0.04649 0.50548 0.0
C804 C 0.63705 0.07798 0.50415 0.0
C805 C 0.62348 0.0572 0.60074 0.0
N806 N 0.63641 1.01193 0.74612 0.0
N807 N 0.68679 0.09951 0.38489 0.0
C808 C 0.64726 0.03005 0.64746 0.0
C809 C 0.67425 0.07498 0.46493 0.0
N810 N 0.70301 0.99306 0.62465 0.0
N811 N 0.61357 0.09953 0.44316 0.0
H812 H 0.71384 0.10019 0.35273 0.0
H813 H 0.71384 0.10019 0.35273 0.0
H814 H 0.62191 0.11525 0.37123 0.0
H815 H 0.58527 0.09828 0.45747 0.0
H816 H 0.69264 0.97217 0.67663 0.0
H817 H 0.72965 0.98821 0.59215 0.0
H818 H 0.65367 0.99502 0.79405 0.0
H819 H 0.61068 1.01645 0.78524 0.0
C820 C 0.57868 0.73849 0.66355 0.0
C821 C 0.55714 0.74866 0.56404 0.0
C822 C 0.53282 0.6859 0.54713 0.0
C823 C 0.55328 0.67518 0.64882 0.0
N824 N 0.59031 0.6945 0.81818 0.0
N825 N 0.50532 0.73491 0.43709 0.0
C826 C 0.57436 0.70265 0.71207 0.0
C827 C 0.53129 0.72331 0.51545 0.0
N828 N 0.60392 0.76289 0.70942 0.0
N829 N 0.5163 0.65998 0.47567 0.0
H830 H 0.50356 0.76205 0.41121 0.0
H831 H 0.48316 0.7186 0.4091 0.0
H832 H 0.5172 0.63271 0.49699 0.0
H833 H 0.50463 0.66515 0.39266 0.0
H834 H 0.62357 0.7564 0.77304 0.0
H835 H 0.60584 0.78968 0.67959 0.0
H836 H 0.60441 0.71335 0.87294 0.0
H837 H 0.58733 0.66889 0.85463 0.0
C838 C 0.89078 0.57987 0.46884 0.0
C839 C 0.86922 0.54734 0.45506 0.0
C840 C 0.92154 0.51301 0.53386 0.0
C841 C 0.94206 0.54545 0.5639 0.0
N842 N 0.93853 0.61202 0.58153 0.0
N843 N 0.86292 0.48401 0.5115 0.0
C844 C 0.9245 0.57964 0.53762 0.0
C845 C 0.88383 0.51484 0.5025 0.0
N846 N 0.88011 0.6108 0.41291 0.0
N847 N 0.93848 0.47992 0.52336 0.0
H848 H 0.83466 0.48316 0.49429 0.0
H849 H 0.83466 0.48316 0.49429 0.0
H850 H 0.96691 0.47812 0.51683 0.0
H851 H 0.92429 0.45562 0.50223 0.0
H852 H 0.8969 0.63393 0.40772 0.0
H853 H 0.85577 0.61219 0.36388 0.0
H854 H 0.92501 0.63701 0.57354 0.0
H855 H 0.96125 0.61367 0.63726 0.0
loop_
_geom_bond_atom_site_label_1
_geom_bond_atom_site_label_2
_geom_bond_distance
_geom_bond_site_symmetry_2
_ccdc_geom_bond_type
H0 C3 0.929 . S
H1 C6 0.929 . S
H2 C8 0.930 . S
C3 H0 0.929 . S
C3 C4 1.398 . S
C3 C5 1.396 . S
C4 C3 1.398 . S
C4 C8 1.407 . S
C5 C3 1.396 . S
C5 C6 1.394 . S
C6 H1 0.929 . S
C6 C5 1.394 . S
C6 C7 1.382 . S
C7 C6 1.382 . S
C7 C8 1.392 . S
C7 N9 1.420 . S
C8 H2 0.930 . S
C8 C4 1.407 . S
C8 C7 1.392 . S
N9 C7 1.420 . S
N9 C10 1.244 . S
C10 N9 1.244 . S
H11 C14 0.929 . S
H12 C17 0.929 . S
H13 C19 0.930 . S
C14 H11 0.929 . S
C14 C15 1.398 . S
C14 C16 1.396 . S
C15 C14 1.398 . S
C15 C19 1.407 . S
C16 C14 1.396 . S
C16 C17 1.394 . S
C17 H12 0.929 . S
C17 C16 1.394 . S
C17 C18 1.382 . S
C18 C17 1.382 . S
C18 C19 1.392 . S
C18 N20 1.420 . S
C19 H13 0.930 . S
C19 C15 1.407 . S
C19 C18 1.392 . S
N20 C18 1.420 . S
N20 C21 1.244 . S
C21 N20 1.244 . S
H22 C25 0.929 . S
H23 C28 0.929 . S
H24 C30 0.930 . S
C25 H22 0.929 . S
C25 C26 1.398 . S
C25 C27 1.396 . S
C26 C25 1.398 . S
C26 C30 1.407 . S
C27 C25 1.396 . S
C27 C28 1.394 . S
C28 H23 0.929 . S
C28 C27 1.394 . S
C28 C29 1.382 . S
C29 C28 1.382 . S
C29 C30 1.392 . S
C29 N31 1.420 . S
C30 H24 0.930 . S
C30 C26 1.407 . S
C30 C29 1.392 . S
N31 C29 1.420 . S
N31 C32 1.244 . S
C32 N31 1.244 . S
H33 C36 0.929 . S
H34 C39 0.929 . S
H35 C41 0.930 . S
C36 H33 0.929 . S
C36 C37 1.398 . S
C36 C38 1.396 . S
C37 C36 1.398 . S
C37 C41 1.407 . S
C38 C36 1.396 . S
C38 C39 1.394 . S
C39 H34 0.929 . S
C39 C38 1.394 . S
C39 C40 1.382 . S
C40 C39 1.382 . S
C40 C41 1.392 . S
C40 N42 1.420 . S
C41 H35 0.930 . S
C41 C37 1.407 . S
C41 C40 1.392 . S
N42 C40 1.420 . S
N42 C43 1.244 . S
C43 N42 1.244 . S
H44 C47 0.929 . S
H45 C50 0.929 . S
H46 C52 0.930 . S
C47 H44 0.929 . S
C47 C48 1.398 . S
C47 C49 1.396 1_556 S
C48 C47 1.398 . S
C48 C52 1.407 . S
C49 C47 1.396 1_554 S
C49 C50 1.394 . S
C50 H45 0.929 . S
C50 C49 1.394 . S
C50 C51 1.382 . S
C51 C50 1.382 . S
C51 C52 1.392 1_554 S
C51 N53 1.420 . S
C52 H46 0.930 . S
C52 C48 1.407 . S
C52 C51 1.392 1_556 S
N53 C51 1.420 . S
N53 C54 1.244 . S
C54 N53 1.244 . S
H55 C58 0.929 . S
H56 C61 0.929 . S
H57 C63 0.930 . S
C58 H55 0.929 . S
C58 C59 1.398 . S
C58 C60 1.396 1_556 S
C59 C58 1.398 . S
C59 C63 1.407 . S
C60 C58 1.396 1_554 S
C60 C61 1.394 . S
C61 H56 0.929 . S
C61 C60 1.394 . S
C61 C62 1.382 . S
C62 C61 1.382 . S
C62 C63 1.392 1_554 S
C62 N64 1.420 . S
C63 H57 0.930 . S
C63 C59 1.407 . S
C63 C62 1.392 1_556 S
N64 C62 1.420 . S
N64 C65 1.244 . S
C65 N64 1.244 . S
H66 C69 0.929 . S
H67 C72 0.929 . S
H68 C74 0.930 . S
C69 H66 0.929 . S
C69 C70 1.398 . S
C69 C71 1.396 1_556 S
C70 C69 1.398 . S
C70 C74 1.407 . S
C71 C69 1.396 1_554 S
C71 C72 1.394 . S
C72 H67 0.929 . S
C72 C71 1.394 . S
C72 C73 1.382 . S
C73 C72 1.382 . S
C73 C74 1.392 1_554 S
C73 N75 1.420 . S
C74 H68 0.930 . S
C74 C70 1.407 . S
C74 C73 1.392 1_556 S
N75 C73 1.420 . S
N75 C76 1.244 . S
C76 N75 1.244 . S
H77 C80 0.929 . S
H78 C83 0.929 . S
H79 C85 0.930 . S
C80 H77 0.929 . S
C80 C81 1.398 . S
C80 C82 1.396 1_556 S
C81 C80 1.398 . S
C81 C85 1.407 . S
C82 C80 1.396 1_554 S
C82 C83 1.394 . S
C83 H78 0.929 . S
C83 C82 1.394 . S
C83 C84 1.382 . S
C84 C83 1.382 . S
C84 C85 1.392 1_554 S
C84 N86 1.420 . S
C85 H79 0.930 . S
C85 C81 1.407 . S
C85 C84 1.392 1_556 S
N86 C84 1.420 . S
N86 C87 1.244 . S
C87 N86 1.244 . S
Gd88 N119 2.661 1_545 S
Gd88 N125 2.601 . S
Gd88 O132 2.545 . S
Gd88 O133 2.606 1_655 S
Gd88 O135 2.429 . S
Gd88 O136 2.545 1_655 S
Gd88 O137 2.412 . S
Gd88 O139 2.362 1_545 S
Gd88 O140 2.324 1_655 S
Gd88 C147 2.828 . S
Gd89 N98 2.661 1_566 S
Gd89 N102 2.601 1_565 S
Gd89 O133 2.362 1_565 S
Gd89 O134 2.324 1_455 S
Gd89 O138 2.545 . S
Gd89 O139 2.606 1_455 S
Gd89 O141 2.429 . S
Gd89 O142 2.545 . S
Gd89 O143 2.412 1_556 S
Gd89 C156 2.828 . S
C90 C93 1.417 . S
C90 C95 1.431 . S
C90 C96 1.412 . S
C91 C94 1.437 . S
C91 C95 1.317 . S
C91 H110 0.929 . S
C92 C93 1.426 . S
C92 C94 1.413 . S
C92 N102 1.359 1_554 S
C93 C90 1.417 . S
C93 C92 1.426 . S
C93 N98 1.350 . S
C94 C91 1.437 . S
C94 C92 1.413 . S
C94 C104 1.391 . S
C95 C90 1.431 . S
C95 C91 1.317 . S
C95 H106 0.930 . S
C96 C90 1.412 . S
C96 C97 1.355 . S
C96 H108 0.930 . S
C97 C96 1.355 . S
C97 C99 1.402 . S
C97 H109 0.930 1_455 S
N98 Gd89 2.661 1_544 S
N98 C93 1.350 . S
N98 C99 1.307 . S
C99 C97 1.402 . S
C99 N98 1.307 . S
C99 H100 0.930 1_455 S
H100 C99 0.930 1_655 S
C101 N102 1.334 1_565 S
C101 C103 1.394 . S
C101 H105 0.930 . S
N102 Gd89 2.601 1_545 S
N102 C92 1.359 1_556 S
N102 C101 1.334 1_545 S
C103 C101 1.394 . S
C103 C104 1.359 1_566 S
C103 H115 0.930 . S
C104 C94 1.391 . S
C104 C103 1.359 1_544 S
C104 H116 0.929 . S
H105 C101 0.930 . S
H106 C95 0.930 . S
H107 C124 0.930 . S
H108 C96 0.930 . S
H109 C97 0.930 1_655 S
H110 C91 0.929 . S
H111 C129 0.930 . S
H112 C120 0.930 . S
H113 C121 0.930 . S
H114 C145 0.929 . S
H115 C103 0.930 . S
H116 C104 0.929 . S
H117 C146 0.930 . S
H118 C127 0.930 . S
N119 Gd88 2.661 1_565 S
N119 C123 1.350 . S
N119 C124 1.307 1_655 S
C120 H112 0.930 . S
C120 C121 1.355 1_655 S
C120 C122 1.412 . S
C121 H113 0.930 . S
C121 C120 1.355 1_455 S
C121 C124 1.402 . S
C122 C120 1.412 . S
C122 C123 1.417 . S
C122 C146 1.431 . S
C123 N119 1.350 . S
C123 C122 1.417 . S
C123 C126 1.426 . S
C124 H107 0.930 . S
C124 N119 1.307 1_455 S
C124 C121 1.402 . S
N125 Gd88 2.601 . S
N125 C126 1.359 1_545 S
N125 C129 1.334 . S
C126 C123 1.426 . S
C126 N125 1.359 1_565 S
C126 C130 1.413 . S
C127 H118 0.930 . S
C127 C128 1.359 . S
C127 C129 1.394 . S
C128 C127 1.359 . S
C128 C130 1.391 1_545 S
C128 H131 0.929 . S
C129 H111 0.930 . S
C129 N125 1.334 . S
C129 C127 1.394 . S
C130 C126 1.413 . S
C130 C128 1.391 1_565 S
C130 C145 1.437 . S
H131 C128 0.929 . S
O132 Gd88 2.545 . S
O132 C147 1.258 . S
O133 Gd88 2.606 1_455 S
O133 Gd89 2.362 1_545 S
O133 C144 1.284 . S
O134 Gd89 2.324 1_655 S
O134 C154 1.254 1_565 S
O135 Gd88 2.429 . S
O135 C154 1.268 . S
O136 Gd88 2.545 1_455 S
O136 C144 1.250 . S
O137 Gd88 2.412 . S
O137 C147 1.252 . S
O138 Gd89 2.545 . S
O138 C156 1.258 . S
O139 Gd88 2.362 1_565 S
O139 Gd89 2.606 1_655 S
O139 C155 1.284 . S
O140 Gd88 2.324 1_455 S
O140 C163 1.254 . S
O141 Gd89 2.429 . S
O141 C163 1.268 1_565 S
O142 Gd89 2.545 . S
O142 C155 1.250 1_455 S
O143 Gd89 2.412 1_554 S
O143 C156 1.252 1_554 S
C144 O133 1.284 . S
C144 O136 1.250 . S
C145 H114 0.929 . S
C145 C130 1.437 . S
C145 C146 1.317 . S
C146 H117 0.930 . S
C146 C122 1.431 . S
C146 C145 1.317 . S
C147 Gd88 2.828 . S
C147 O132 1.258 . S
C147 O137 1.252 . S
C147 C148 1.497 . S
C148 C147 1.497 . S
C148 C149 1.395 . S
C148 C150 1.380 . S
C149 C148 1.395 . S
C149 C152 1.398 . S
C149 H164 0.930 . S
C150 C148 1.380 . S
C150 C151 1.391 . S
C150 H165 0.930 1_655 S
C151 C150 1.391 . S
C151 C153 1.387 . S
C152 C149 1.398 . S
C152 C153 1.380 . S
C152 H166 0.930 . S
C153 C151 1.387 . S
C153 C152 1.380 . S
C153 H167 0.930 . S
C154 O134 1.254 1_545 S
C154 O135 1.268 . S
C155 O139 1.284 . S
C155 O142 1.250 1_655 S
C156 Gd89 2.828 . S
C156 O138 1.258 . S
C156 O143 1.252 1_556 S
C156 C157 1.497 1_556 S
C157 C156 1.497 1_554 S
C157 C158 1.395 . S
C157 C159 1.380 . S
C158 C157 1.395 . S
C158 C161 1.398 . S
C158 H168 0.930 . S
C159 C157 1.380 . S
C159 C160 1.391 . S
C159 H169 0.930 . S
C160 C159 1.391 . S
C160 C162 1.387 . S
C161 C158 1.398 . S
C161 C162 1.380 . S
C161 H170 0.930 . S
C162 C160 1.387 . S
C162 C161 1.380 . S
C162 H171 0.930 . S
C163 O140 1.254 . S
C163 O141 1.268 1_545 S
H164 C149 0.930 . S
H165 C150 0.930 1_455 S
H166 C152 0.930 . S
H167 C153 0.930 . S
H168 C158 0.930 . S
H169 C159 0.930 . S
H170 C161 0.930 . S
H171 C162 0.930 . S
Gd172 N203 2.661 . S
Gd172 N209 2.601 . S
Gd172 O216 2.545 . S
Gd172 O217 2.606 1_565 S
Gd172 O219 2.429 . S
Gd172 O220 2.545 1_565 S
Gd172 O221 2.412 . S
Gd172 O223 2.362 . S
Gd172 O224 2.324 1_565 S
Gd172 C231 2.828 . S
Gd173 N182 2.661 1_556 S
Gd173 N186 2.601 . S
Gd173 O217 2.362 . S
Gd173 O218 2.324 1_545 S
Gd173 O222 2.545 . S
Gd173 O223 2.606 1_545 S
Gd173 O225 2.429 . S
Gd173 O226 2.545 . S
Gd173 O227 2.412 1_556 S
Gd173 C240 2.828 . S
C174 C177 1.417 . S
C174 C179 1.431 . S
C174 C180 1.412 . S
C175 C178 1.437 . S
C175 C179 1.317 . S
C175 H194 0.929 . S
C176 C177 1.426 . S
C176 C178 1.413 . S
C176 N186 1.359 1_554 S
C177 C174 1.417 . S
C177 C176 1.426 . S
C177 N182 1.350 . S
C178 C175 1.437 . S
C178 C176 1.413 . S
C178 C188 1.391 . S
C179 C174 1.431 . S
C179 C175 1.317 . S
C179 H190 0.930 . S
C180 C174 1.412 . S
C180 C181 1.355 . S
C180 H192 0.930 . S
C181 C180 1.355 . S
C181 C183 1.402 . S
C181 H193 0.930 1_545 S
N182 Gd173 2.661 1_554 S
N182 C177 1.350 . S
N182 C183 1.307 . S
C183 C181 1.402 . S
C183 N182 1.307 . S
C183 H184 0.930 1_545 S
H184 C183 0.930 1_565 S
C185 N186 1.334 . S
C185 C187 1.394 . S
C185 H189 0.930 . S
N186 Gd173 2.601 . S
N186 C176 1.359 1_556 S
N186 C185 1.334 . S
C187 C185 1.394 . S
C187 C188 1.359 1_556 S
C187 H199 0.930 . S
C188 C178 1.391 . S
C188 C187 1.359 1_554 S
C188 H200 0.929 . S
H189 C185 0.930 . S
H190 C179 0.930 . S
H191 C208 0.930 . S
H192 C180 0.930 . S
H193 C181 0.930 1_565 S
H194 C175 0.929 . S
H195 C213 0.930 . S
H196 C204 0.930 . S
H197 C205 0.930 . S
H198 C229 0.929 . S
H199 C187 0.930 . S
H200 C188 0.929 . S
H201 C230 0.930 . S
H202 C211 0.930 . S
N203 Gd172 2.661 . S
N203 C207 1.350 . S
N203 C208 1.307 1_565 S
C204 H196 0.930 . S
C204 C205 1.355 1_565 S
C204 C206 1.412 . S
C205 H197 0.930 . S
C205 C204 1.355 1_545 S
C205 C208 1.402 . S
C206 C204 1.412 . S
C206 C207 1.417 . S
C206 C230 1.431 . S
C207 N203 1.350 . S
C207 C206 1.417 . S
C207 C210 1.426 . S
C208 H191 0.930 . S
C208 N203 1.307 1_545 S
C208 C205 1.402 . S
N209 Gd172 2.601 . S
N209 C210 1.359 . S
N209 C213 1.334 . S
C210 C207 1.426 . S
C210 N209 1.359 . S
C210 C214 1.413 . S
C211 H202 0.930 . S
C211 C212 1.359 . S
C211 C213 1.394 . S
C212 C211 1.359 . S
C212 C214 1.391 . S
C212 H215 0.929 . S
C213 H195 0.930 . S
C213 N209 1.334 . S
C213 C211 1.394 . S
C214 C210 1.413 . S
C214 C212 1.391 . S
C214 C229 1.437 . S
H215 C212 0.929 . S
O216 Gd172 2.545 . S
O216 C231 1.258 . S
O217 Gd172 2.606 1_545 S
O217 Gd173 2.362 . S
O217 C228 1.284 . S
O218 Gd173 2.324 1_565 S
O218 C238 1.254 . S
O219 Gd172 2.429 . S
O219 C238 1.268 . S
O220 Gd172 2.545 1_545 S
O220 C228 1.250 . S
O221 Gd172 2.412 . S
O221 C231 1.252 . S
O222 Gd173 2.545 . S
O222 C240 1.258 . S
O223 Gd172 2.362 . S
O223 Gd173 2.606 1_565 S
O223 C239 1.284 . S
O224 Gd172 2.324 1_545 S
O224 C247 1.254 . S
O225 Gd173 2.429 . S
O225 C247 1.268 . S
O226 Gd173 2.545 . S
O226 C239 1.250 1_545 S
O227 Gd173 2.412 1_554 S
O227 C240 1.252 1_554 S
C228 O217 1.284 . S
C228 O220 1.250 . S
C229 H198 0.929 . S
C229 C214 1.437 . S
C229 C230 1.317 . S
C230 H201 0.930 . S
C230 C206 1.431 . S
C230 C229 1.317 . S
C231 Gd172 2.828 . S
C231 O216 1.258 . S
C231 O221 1.252 . S
C231 C232 1.497 . S
C232 C231 1.497 . S
C232 C233 1.395 . S
C232 C234 1.380 . S
C233 C232 1.395 . S
C233 C236 1.398 . S
C233 H248 0.930 . S
C234 C232 1.380 . S
C234 C235 1.391 . S
C234 H249 0.930 1_565 S
C235 C234 1.391 . S
C235 C237 1.387 . S
C236 C233 1.398 . S
C236 C237 1.380 . S
C236 H250 0.930 . S
C237 C235 1.387 . S
C237 C236 1.380 . S
C237 H251 0.930 . S
C238 O218 1.254 . S
C238 O219 1.268 . S
C239 O223 1.284 . S
C239 O226 1.250 1_565 S
C240 Gd173 2.828 . S
C240 O222 1.258 . S
C240 O227 1.252 1_556 S
C240 C241 1.497 1_556 S
C241 C240 1.497 1_554 S
C241 C242 1.395 . S
C241 C243 1.380 . S
C242 C241 1.395 . S
C242 C245 1.398 . S
C242 H252 0.930 . S
C243 C241 1.380 . S
C243 C244 1.391 . S
C243 H253 0.930 . S
C244 C243 1.391 . S
C244 C246 1.387 . S
C245 C242 1.398 . S
C245 C246 1.380 . S
C245 H254 0.930 . S
C246 C244 1.387 . S
C246 C245 1.380 . S
C246 H255 0.930 . S
C247 O224 1.254 . S
C247 O225 1.268 . S
H248 C233 0.930 . S
H249 C234 0.930 1_545 S
H250 C236 0.930 . S
H251 C237 0.930 . S
H252 C242 0.930 . S
H253 C243 0.930 . S
H254 C245 0.930 . S
H255 C246 0.930 . S
Gd256 N287 2.661 . S
Gd256 N293 2.601 . S
Gd256 O300 2.545 1_556 S
Gd256 O301 2.606 . S
Gd256 O303 2.429 . S
Gd256 O304 2.545 . S
Gd256 O305 2.412 . S
Gd256 O307 2.362 . S
Gd256 O308 2.324 . S
Gd256 C315 2.828 1_556 S
Gd257 N266 2.661 . S
Gd257 N270 2.601 . S
Gd257 O301 2.362 . S
Gd257 O302 2.324 . S
Gd257 O306 2.545 . S
Gd257 O307 2.606 . S
Gd257 O309 2.429 . S
Gd257 O310 2.545 . S
Gd257 O311 2.412 . S
Gd257 C324 2.828 . S
C258 C261 1.417 . S
C258 C263 1.431 . S
C258 C264 1.412 . S
C259 C262 1.437 . S
C259 C263 1.317 . S
C259 H278 0.929 . S
C260 C261 1.426 . S
C260 C262 1.413 . S
C260 N270 1.359 . S
C261 C258 1.417 . S
C261 C260 1.426 . S
C261 N266 1.350 . S
C262 C259 1.437 . S
C262 C260 1.413 . S
C262 C272 1.391 . S
C263 C258 1.431 . S
C263 C259 1.317 . S
C263 H274 0.930 . S
C264 C258 1.412 . S
C264 C265 1.355 . S
C264 H276 0.930 . S
C265 C264 1.355 . S
C265 C267 1.402 . S
C265 H277 0.930 . S
N266 Gd257 2.661 . S
N266 C261 1.350 . S
N266 C267 1.307 . S
C267 C265 1.402 . S
C267 N266 1.307 . S
C267 H268 0.930 . S
H268 C267 0.930 . S
C269 N270 1.334 . S
C269 C271 1.394 . S
C269 H273 0.930 . S
N270 Gd257 2.601 . S
N270 C260 1.359 . S
N270 C269 1.334 . S
C271 C269 1.394 . S
C271 C272 1.359 . S
C271 H283 0.930 . S
C272 C262 1.391 . S
C272 C271 1.359 . S
C272 H284 0.929 . S
H273 C269 0.930 . S
H274 C263 0.930 . S
H275 C292 0.930 . S
H276 C264 0.930 . S
H277 C265 0.930 . S
H278 C259 0.929 . S
H279 C297 0.930 . S
H280 C288 0.930 . S
H281 C289 0.930 . S
H282 C313 0.929 . S
H283 C271 0.930 . S
H284 C272 0.929 . S
H285 C314 0.930 . S
H286 C295 0.930 . S
N287 Gd256 2.661 . S
N287 C291 1.350 . S
N287 C292 1.307 . S
C288 H280 0.930 . S
C288 C289 1.355 . S
C288 C290 1.412 . S
C289 H281 0.930 . S
C289 C288 1.355 . S
C289 C292 1.402 . S
C290 C288 1.412 . S
C290 C291 1.417 . S
C290 C314 1.431 . S
C291 N287 1.350 . S
C291 C290 1.417 . S
C291 C294 1.426 . S
C292 H275 0.930 . S
C292 N287 1.307 . S
C292 C289 1.402 . S
N293 Gd256 2.601 . S
N293 C294 1.359 . S
N293 C297 1.334 1_556 S
C294 C291 1.426 . S
C294 N293 1.359 . S
C294 C298 1.413 . S
C295 H286 0.930 . S
C295 C296 1.359 . S
C295 C297 1.394 . S
C296 C295 1.359 . S
C296 C298 1.391 1_554 S
C296 H299 0.929 . S
C297 H279 0.930 . S
C297 N293 1.334 1_554 S
C297 C295 1.394 . S
C298 C294 1.413 . S
C298 C296 1.391 1_556 S
C298 C313 1.437 . S
H299 C296 0.929 . S
O300 Gd256 2.545 1_554 S
O300 C315 1.258 . S
O301 Gd256 2.606 . S
O301 Gd257 2.362 . S
O301 C312 1.284 . S
O302 Gd257 2.324 . S
O302 C322 1.254 . S
O303 Gd256 2.429 . S
O303 C322 1.268 . S
O304 Gd256 2.545 . S
O304 C312 1.250 . S
O305 Gd256 2.412 . S
O305 C315 1.252 1_556 S
O306 Gd257 2.545 . S
O306 C324 1.258 . S
O307 Gd256 2.362 . S
O307 Gd257 2.606 . S
O307 C323 1.284 . S
O308 Gd256 2.324 . S
O308 C331 1.254 . S
O309 Gd257 2.429 . S
O309 C331 1.268 . S
O310 Gd257 2.545 . S
O310 C323 1.250 . S
O311 Gd257 2.412 . S
O311 C324 1.252 . S
C312 O301 1.284 . S
C312 O304 1.250 . S
C313 H282 0.929 . S
C313 C298 1.437 . S
C313 C314 1.317 . S
C314 H285 0.930 . S
C314 C290 1.431 . S
C314 C313 1.317 . S
C315 Gd256 2.828 1_554 S
C315 O300 1.258 . S
C315 O305 1.252 1_554 S
C315 C316 1.497 . S
C316 C315 1.497 . S
C316 C317 1.395 . S
C316 C318 1.380 . S
C317 C316 1.395 . S
C317 C320 1.398 . S
C317 H332 0.930 . S
C318 C316 1.380 . S
C318 C319 1.391 . S
C318 H333 0.930 . S
C319 C318 1.391 . S
C319 C321 1.387 . S
C320 C317 1.398 . S
C320 C321 1.380 . S
C320 H334 0.930 . S
C321 C319 1.387 . S
C321 C320 1.380 . S
C321 H335 0.930 . S
C322 O302 1.254 . S
C322 O303 1.268 . S
C323 O307 1.284 . S
C323 O310 1.250 . S
C324 Gd257 2.828 . S
C324 O306 1.258 . S
C324 O311 1.252 . S
C324 C325 1.497 . S
C325 C324 1.497 . S
C325 C326 1.395 . S
C325 C327 1.380 . S
C326 C325 1.395 . S
C326 C329 1.398 . S
C326 H336 0.930 . S
C327 C325 1.380 . S
C327 C328 1.391 . S
C327 H337 0.930 . S
C328 C327 1.391 . S
C328 C330 1.387 . S
C329 C326 1.398 . S
C329 C330 1.380 . S
C329 H338 0.930 . S
C330 C328 1.387 . S
C330 C329 1.380 . S
C330 H339 0.930 . S
C331 O308 1.254 . S
C331 O309 1.268 . S
H332 C317 0.930 . S
H333 C318 0.930 . S
H334 C320 0.930 . S
H335 C321 0.930 . S
H336 C326 0.930 . S
H337 C327 0.930 . S
H338 C329 0.930 . S
H339 C330 0.930 . S
Gd340 N371 2.661 . S
Gd340 N377 2.608 . S
Gd340 O384 2.545 1_556 S
Gd340 O385 2.606 1_655 S
Gd340 O387 2.429 1_655 S
Gd340 O388 2.545 . S
Gd340 O389 2.412 . S
Gd340 O391 2.362 1_655 S
Gd340 O392 2.324 . S
Gd340 C399 2.828 1_556 S
Gd341 N350 2.661 . S
Gd341 N354 2.601 . S
Gd341 O385 2.362 . S
Gd341 O386 2.324 . S
Gd341 O390 2.545 . S
Gd341 O391 2.606 . S
Gd341 O393 2.429 1_455 S
Gd341 O394 2.545 . S
Gd341 O395 2.412 . S
Gd341 C408 2.828 . S
C342 C345 1.417 . S
C342 C347 1.431 . S
C342 C348 1.412 . S
C343 C346 1.437 . S
C343 C347 1.317 . S
C343 H362 0.929 . S
C344 C345 1.426 . S
C344 C346 1.413 . S
C344 N354 1.359 . S
C345 C342 1.417 . S
C345 C344 1.426 . S
C345 N350 1.350 . S
C346 C343 1.437 . S
C346 C344 1.413 . S
C346 C356 1.391 . S
C347 C342 1.431 . S
C347 C343 1.317 . S
C347 H358 0.930 . S
C348 C342 1.412 . S
C348 C349 1.355 . S
C348 H360 0.930 . S
C349 C348 1.355 . S
C349 C351 1.402 . S
C349 H361 0.930 . S
N350 Gd341 2.661 . S
N350 C345 1.350 . S
N350 C351 1.307 . S
C351 C349 1.402 . S
C351 N350 1.307 . S
C351 H352 0.930 . S
H352 C351 0.930 . S
C353 N354 1.334 1_655 S
C353 C355 1.394 . S
C353 H357 0.930 . S
N354 Gd341 2.601 . S
N354 C344 1.359 . S
N354 C353 1.334 1_455 S
C355 C353 1.394 . S
C355 C356 1.359 1_655 S
C355 H367 0.930 . S
C356 C346 1.391 . S
C356 C355 1.359 1_455 S
C356 H368 0.929 1_455 S
H357 C353 0.930 . S
H358 C347 0.930 . S
H359 C376 0.930 . S
H360 C348 0.930 . S
H361 C349 0.930 . S
H362 C343 0.929 . S
H363 C381 0.930 . S
H364 C372 0.930 . S
H365 C373 0.930 . S
H366 C397 0.929 . S
H367 C355 0.930 . S
H368 C356 0.929 1_655 S
H369 C398 0.930 . S
H370 C379 0.930 . S
N371 Gd340 2.661 . S
N371 C375 1.350 . S
N371 C376 1.307 . S
C372 H364 0.930 . S
C372 C373 1.355 . S
C372 C374 1.412 . S
C373 H365 0.930 . S
C373 C372 1.355 . S
C373 C376 1.402 . S
C374 C372 1.412 . S
C374 C375 1.417 . S
C374 C398 1.431 . S
C375 N371 1.350 . S
C375 C374 1.417 . S
C375 C378 1.426 . S
C376 H359 0.930 . S
C376 N371 1.307 . S
C376 C373 1.402 . S
N377 Gd340 2.608 . S
N377 C378 1.372 . S
N377 C381 1.317 1_656 S
C378 C375 1.426 . S
C378 N377 1.372 . S
C378 C382 1.413 . S
C379 H370 0.930 . S
C379 C380 1.359 . S
C379 C381 1.394 . S
C380 C379 1.359 . S
C380 C382 1.391 1_454 S
C380 H383 0.929 . S
C381 H363 0.930 . S
C381 N377 1.317 1_454 S
C381 C379 1.394 . S
C382 C378 1.413 . S
C382 C380 1.391 1_656 S
C382 C397 1.437 . S
H383 C380 0.929 . S
O384 Gd340 2.545 1_554 S
O384 C399 1.258 . S
O385 Gd340 2.606 1_455 S
O385 Gd341 2.362 . S
O385 C396 1.284 1_455 S
O386 Gd341 2.324 . S
O386 C406 1.254 . S
O387 Gd340 2.429 1_455 S
O387 C406 1.268 . S
O388 Gd340 2.545 . S
O388 C396 1.250 . S
O389 Gd340 2.412 . S
O389 C399 1.252 1_556 S
O390 Gd341 2.545 . S
O390 C408 1.258 . S
O391 Gd340 2.362 1_455 S
O391 Gd341 2.606 . S
O391 C407 1.284 . S
O392 Gd340 2.324 . S
O392 C415 1.254 . S
O393 Gd341 2.429 1_655 S
O393 C415 1.268 . S
O394 Gd341 2.545 . S
O394 C407 1.250 . S
O395 Gd341 2.412 . S
O395 C408 1.252 . S
C396 O385 1.284 1_655 S
C396 O388 1.250 . S
C397 H366 0.929 . S
C397 C382 1.437 . S
C397 C398 1.317 . S
C398 H369 0.930 . S
C398 C374 1.431 . S
C398 C397 1.317 . S
C399 Gd340 2.828 1_554 S
C399 O384 1.258 . S
C399 O389 1.252 1_554 S
C399 C400 1.497 . S
C400 C399 1.497 . S
C400 C401 1.395 . S
C400 C402 1.380 . S
C401 C400 1.395 . S
C401 C404 1.398 . S
C401 H416 0.930 . S
C402 C400 1.380 . S
C402 C403 1.391 . S
C402 H417 0.930 . S
C403 C402 1.391 . S
C403 C405 1.387 . S
C404 C401 1.398 . S
C404 C405 1.380 . S
C404 H418 0.930 . S
C405 C403 1.387 . S
C405 C404 1.380 . S
C405 H419 0.930 . S
C406 O386 1.254 . S
C406 O387 1.268 . S
C407 O391 1.284 . S
C407 O394 1.250 . S
C408 Gd341 2.828 . S
C408 O390 1.258 . S
C408 O395 1.252 . S
C408 C409 1.497 . S
C409 C408 1.497 . S
C409 C410 1.395 . S
C409 C411 1.380 . S
C410 C409 1.395 . S
C410 C413 1.398 . S
C410 H420 0.930 . S
C411 C409 1.380 . S
C411 C412 1.391 . S
C411 H421 0.930 . S
C412 C411 1.391 . S
C412 C414 1.387 . S
C413 C410 1.398 . S
C413 C414 1.380 . S
C413 H422 0.930 . S
C414 C412 1.387 . S
C414 C413 1.380 . S
C414 H423 0.930 . S
C415 O392 1.254 . S
C415 O393 1.268 . S
H416 C401 0.930 . S
H417 C402 0.930 . S
H418 C404 0.930 . S
H419 C405 0.930 . S
H420 C410 0.930 . S
H421 C411 0.930 . S
H422 C413 0.930 . S
H423 C414 0.930 . S
C424 C425 1.363 . S
C424 C430 1.379 . S
C424 N432 1.356 . S
C425 C424 1.363 . S
C425 C431 1.363 . S
C426 C427 1.363 . S
C426 C431 1.379 . S
C426 N433 1.356 . S
C427 C426 1.363 . S
C427 C430 1.363 . S
N428 C430 1.356 1_565 S
N428 H440 0.984 . S
N428 H441 0.985 . S
N429 C431 1.356 . S
N429 H434 0.984 . S
N429 H435 0.985 . S
C430 C424 1.379 . S
C430 C427 1.363 . S
C430 N428 1.356 1_545 S
C431 C425 1.363 . S
C431 C426 1.379 . S
C431 N429 1.356 . S
N432 C424 1.356 . S
N432 H438 0.984 1_545 S
N432 H439 0.984 . S
N433 C426 1.356 . S
N433 H436 0.984 . S
N433 H437 0.985 . S
H434 N429 0.984 . S
H435 N429 0.985 . S
H436 N433 0.984 . S
H437 N433 0.985 . S
H438 N432 0.984 1_565 S
H439 N432 0.984 . S
H440 N428 0.984 . S
H441 N428 0.985 . S
C442 C443 1.363 . S
C442 C448 1.379 . S
C442 N450 1.356 . S
C443 C442 1.363 . S
C443 C449 1.363 . S
C444 C445 1.363 . S
C444 C449 1.379 . S
C444 N451 1.356 . S
C445 C444 1.363 . S
C445 C448 1.363 . S
N446 C448 1.356 . S
N446 H458 0.984 . S
N446 H459 0.985 . S
N447 C449 1.356 . S
N447 H452 0.984 . S
N447 H453 0.985 . S
C448 C442 1.379 . S
C448 C445 1.363 . S
C448 N446 1.356 . S
C449 C443 1.363 . S
C449 C444 1.379 . S
C449 N447 1.356 . S
N450 C442 1.356 . S
N450 H456 0.984 . S
N450 H457 0.984 . S
N451 C444 1.356 . S
N451 H454 0.984 . S
N451 H455 0.985 . S
H452 N447 0.984 . S
H453 N447 0.985 . S
H454 N451 0.984 . S
H455 N451 0.985 . S
H456 N450 0.984 . S
H457 N450 0.984 . S
H458 N446 0.984 . S
H459 N446 0.985 . S
C460 C461 1.363 . S
C460 C466 1.379 . S
C460 N468 1.356 . S
C461 C460 1.363 . S
C461 C467 1.363 . S
C462 C463 1.363 . S
C462 C467 1.379 . S
C462 N469 1.356 . S
C463 C462 1.363 . S
C463 C466 1.363 . S
N464 C466 1.356 . S
N464 H476 0.984 . S
N464 H477 0.985 . S
N465 C467 1.356 . S
N465 H470 0.984 . S
N465 H471 0.985 . S
C466 C460 1.379 . S
C466 C463 1.363 . S
C466 N464 1.356 . S
C467 C461 1.363 . S
C467 C462 1.379 . S
C467 N465 1.356 . S
N468 C460 1.356 . S
N468 H474 0.984 . S
N468 H475 0.984 . S
N469 C462 1.356 . S
N469 H472 0.984 . S
N469 H473 0.985 . S
H470 N465 0.984 . S
H471 N465 0.985 . S
H472 N469 0.984 . S
H473 N469 0.985 . S
H474 N468 0.984 . S
H475 N468 0.984 . S
H476 N464 0.984 . S
H477 N464 0.985 . S
C478 C479 1.363 . S
C478 C484 1.379 . S
C478 N486 1.356 . S
C479 C478 1.363 . S
C479 C485 1.363 . S
C480 C481 1.363 . S
C480 C485 1.379 . S
C480 N487 1.356 . S
C481 C480 1.363 . S
C481 C484 1.363 . S
N482 C484 1.356 . S
N482 H494 0.984 1_455 S
N482 H495 0.985 . S
N483 C485 1.356 . S
N483 H488 0.984 . S
N483 H489 0.985 . S
C484 C478 1.379 . S
C484 C481 1.363 . S
C484 N482 1.356 . S
C485 C479 1.363 . S
C485 C480 1.379 . S
C485 N483 1.356 . S
N486 C478 1.356 . S
N486 H492 0.984 . S
N486 H493 0.984 . S
N487 C480 1.356 . S
N487 H490 0.984 . S
N487 H491 0.985 . S
H488 N483 0.984 . S
H489 N483 0.985 . S
H490 N487 0.984 . S
H491 N487 0.985 . S
H492 N486 0.984 . S
H493 N486 0.984 . S
H494 N482 0.984 1_655 S
H495 N482 0.985 . S
C496 C497 1.363 1_545 S
C496 C502 1.379 . S
C496 N504 1.356 . S
C497 C496 1.363 1_565 S
C497 C503 1.363 . S
C498 C499 1.363 1_554 S
C498 C503 1.379 . S
C498 N505 1.356 1_554 S
C499 C498 1.363 1_556 S
C499 C502 1.363 1_566 S
N500 C502 1.356 1_556 S
N500 H512 0.984 1_556 S
N500 H513 0.985 . S
N501 C503 1.356 . S
N501 H506 0.984 . S
N501 H507 0.985 . S
C502 C496 1.379 . S
C502 C499 1.363 1_544 S
C502 N500 1.356 1_554 S
C503 C497 1.363 . S
C503 C498 1.379 . S
C503 N501 1.356 . S
N504 C496 1.356 . S
N504 H510 0.984 . S
N504 H511 0.984 . S
N505 C498 1.356 1_556 S
N505 H508 0.984 . S
N505 H509 0.985 . S
H506 N501 0.984 . S
H507 N501 0.985 . S
H508 N505 0.984 . S
H509 N505 0.985 . S
H510 N504 0.984 . S
H511 N504 0.984 . S
H512 N500 0.984 1_554 S
H513 N500 0.985 . S
C514 C515 1.363 . S
C514 C520 1.379 . S
C514 N522 1.356 . S
C515 C514 1.363 . S
C515 C521 1.363 . S
C516 C517 1.363 1_554 S
C516 C521 1.379 . S
C516 N523 1.356 . S
C517 C516 1.363 1_556 S
C517 C520 1.363 1_556 S
N518 C520 1.356 1_556 S
N518 H530 0.984 . S
N518 H531 0.985 . S
N519 C521 1.356 . S
N519 H524 0.984 . S
N519 H525 0.985 . S
C520 C514 1.379 . S
C520 C517 1.363 1_554 S
C520 N518 1.356 1_554 S
C521 C515 1.363 . S
C521 C516 1.379 . S
C521 N519 1.356 . S
N522 C514 1.356 . S
N522 H528 0.984 . S
N522 H529 0.984 . S
N523 C516 1.356 . S
N523 H526 0.984 1_554 S
N523 H527 0.985 . S
H524 N519 0.984 . S
H525 N519 0.985 . S
H526 N523 0.984 1_556 S
H527 N523 0.985 . S
H528 N522 0.984 . S
H529 N522 0.984 . S
H530 N518 0.984 . S
H531 N518 0.985 . S
C532 C533 1.363 . S
C532 C538 1.379 . S
C532 N540 1.356 . S
C533 C532 1.363 . S
C533 C539 1.363 . S
C534 C535 1.363 1_554 S
C534 C539 1.379 . S
C534 N541 1.356 1_554 S
C535 C534 1.363 1_556 S
C535 C538 1.363 1_556 S
N536 C538 1.356 1_556 S
N536 H548 0.984 . S
N536 H549 0.985 . S
N537 C539 1.356 . S
N537 H542 0.984 . S
N537 H543 0.985 . S
C538 C532 1.379 . S
C538 C535 1.363 1_554 S
C538 N536 1.356 1_554 S
C539 C533 1.363 . S
C539 C534 1.379 . S
C539 N537 1.356 . S
N540 C532 1.356 . S
N540 H546 0.984 . S
N540 H547 0.984 . S
N541 C534 1.356 1_556 S
N541 H544 0.984 . S
N541 H545 0.985 . S
H542 N537 0.984 . S
H543 N537 0.985 . S
H544 N541 0.984 . S
H545 N541 0.985 . S
H546 N540 0.984 . S
H547 N540 0.984 . S
H548 N536 0.984 . S
H549 N536 0.985 . S
C550 C551 1.363 . S
C550 C556 1.379 . S
C550 N558 1.356 . S
C551 C550 1.363 . S
C551 C557 1.363 . S
C552 C553 1.363 1_554 S
C552 C557 1.379 . S
C552 N559 1.356 1_655 S
C553 C552 1.363 1_556 S
C553 C556 1.363 1_556 S
N554 C556 1.356 1_556 S
N554 H566 0.984 . S
N554 H567 0.985 . S
N555 C557 1.356 . S
N555 H560 0.984 . S
N555 H561 0.985 1_655 S
C556 C550 1.379 . S
C556 C553 1.363 1_554 S
C556 N554 1.356 1_554 S
C557 C551 1.363 . S
C557 C552 1.379 . S
C557 N555 1.356 . S
N558 C550 1.356 . S
N558 H564 0.984 . S
N558 H565 0.984 . S
N559 C552 1.356 1_455 S
N559 H562 0.984 1_554 S
N559 H563 0.985 . S
H560 N555 0.984 . S
H561 N555 0.985 1_455 S
H562 N559 0.984 1_556 S
H563 N559 0.985 . S
H564 N558 0.984 . S
H565 N558 0.984 . S
H566 N554 0.984 . S
H567 N554 0.985 . S
C568 C569 1.363 . S
C568 C574 1.379 . S
C568 N576 1.356 . S
C569 C568 1.363 . S
C569 C575 1.363 . S
C570 C571 1.368 . S
C570 C575 1.379 1_655 S
C570 N577 1.356 . S
C571 C570 1.368 . S
C571 C574 1.343 1_655 S
N572 C574 1.356 . S
N572 H584 0.984 . S
N572 H585 0.985 . S
N573 C575 1.356 . S
N573 H578 0.984 . S
N573 H579 0.985 1_455 S
C574 C568 1.379 . S
C574 C571 1.343 1_455 S
C574 N572 1.356 . S
C575 C569 1.363 . S
C575 C570 1.379 1_455 S
C575 N573 1.356 . S
N576 C568 1.356 . S
N576 H582 0.984 . S
N576 H583 0.984 . S
N577 C570 1.356 . S
N577 H580 0.984 . S
N577 H581 0.985 . S
H578 N573 0.984 . S
H579 N573 0.985 1_655 S
H580 N577 0.984 . S
H581 N577 0.985 . S
H582 N576 0.984 . S
H583 N576 0.984 . S
H584 N572 0.984 . S
H585 N572 0.985 . S
C586 C587 1.363 . S
C586 C592 1.379 1_545 S
C586 N594 1.356 . S
C587 C586 1.363 . S
C587 C593 1.363 . S
C588 C589 1.346 1_545 S
C588 C593 1.379 . S
C588 N595 1.356 . S
C589 C588 1.346 1_565 S
C589 C592 1.367 . S
N590 C592 1.356 . S
N590 H602 0.984 . S
N590 H603 0.985 . S
N591 C593 1.356 . S
N591 H596 0.984 . S
N591 H597 0.985 . S
C592 C586 1.379 1_565 S
C592 C589 1.367 . S
C592 N590 1.356 . S
C593 C587 1.363 . S
C593 C588 1.379 . S
C593 N591 1.356 . S
N594 C586 1.356 . S
N594 H600 0.989 1_554 S
N594 H601 0.984 1_554 S
N595 C588 1.356 . S
N595 H598 0.984 . S
N595 H599 0.985 . S
H596 N591 0.984 . S
H597 N591 0.985 . S
H598 N595 0.984 . S
H599 N595 0.985 . S
H600 N594 0.989 1_556 S
H601 N594 0.984 1_556 S
H602 N590 0.984 . S
H603 N590 0.985 . S
C604 C605 1.363 . S
C604 C610 1.379 . S
C604 N612 1.356 . S
C605 C604 1.363 . S
C605 C611 1.363 . S
C606 C607 1.363 . S
C606 C611 1.379 . S
C606 N613 1.356 . S
C607 C606 1.363 . S
C607 C610 1.363 . S
N608 C610 1.356 . S
N608 H620 0.984 . S
N608 H621 0.985 . S
N609 C611 1.356 1_556 S
N609 H614 0.984 . S
N609 H615 0.985 . S
C610 C604 1.379 . S
C610 C607 1.363 . S
C610 N608 1.356 . S
C611 C605 1.363 . S
C611 C606 1.379 . S
C611 N609 1.356 1_554 S
N612 C604 1.356 . S
N612 H618 0.984 . S
N612 H619 0.984 . S
N613 C606 1.356 . S
N613 H616 0.984 . S
N613 H617 0.985 1_554 S
H614 N609 0.984 . S
H615 N609 0.985 . S
H616 N613 0.984 . S
H617 N613 0.985 1_556 S
H618 N612 0.984 . S
H619 N612 0.984 . S
H620 N608 0.984 . S
H621 N608 0.985 . S
C622 C623 1.363 . S
C622 C628 1.379 . S
C622 N630 1.356 . S
C623 C622 1.363 . S
C623 C629 1.363 . S
C624 C625 1.363 . S
C624 C629 1.379 . S
C624 N631 1.356 . S
C625 C624 1.363 . S
C625 C628 1.363 . S
N626 C628 1.356 . S
N626 H638 0.984 . S
N626 H639 0.985 . S
N627 C629 1.356 . S
N627 H632 0.984 . S
N627 H633 0.985 1_554 S
C628 C622 1.379 . S
C628 C625 1.363 . S
C628 N626 1.356 . S
C629 C623 1.363 . S
C629 C624 1.379 . S
C629 N627 1.356 . S
N630 C622 1.356 . S
N630 H636 0.984 . S
N630 H637 0.984 . S
N631 C624 1.356 . S
N631 H634 0.984 . S
N631 H635 0.985 . S
H632 N627 0.984 . S
H633 N627 0.985 1_556 S
H634 N631 0.984 . S
H635 N631 0.985 . S
H636 N630 0.984 . S
H637 N630 0.984 . S
H638 N626 0.984 . S
H639 N626 0.985 . S
C640 C641 1.363 . S
C640 C646 1.379 . S
C640 N648 1.356 . S
C641 C640 1.363 . S
C641 C647 1.363 . S
C642 C643 1.363 . S
C642 C647 1.379 1_455 S
C642 N649 1.356 . S
C643 C642 1.363 . S
C643 C646 1.363 1_455 S
N644 C646 1.356 1_455 S
N644 H656 0.984 1_455 S
N644 H657 0.985 . S
N645 C647 1.356 . S
N645 H650 0.984 . S
N645 H651 0.985 . S
C646 C640 1.379 . S
C646 C643 1.363 1_655 S
C646 N644 1.356 1_655 S
C647 C641 1.363 . S
C647 C642 1.379 1_655 S
C647 N645 1.356 . S
N648 C640 1.356 . S
N648 H654 0.984 . S
N648 H655 0.984 . S
N649 C642 1.356 . S
N649 H652 0.984 . S
N649 H653 0.985 . S
H650 N645 0.984 . S
H651 N645 0.985 . S
H652 N649 0.984 . S
H653 N649 0.985 . S
H654 N648 0.984 . S
H655 N648 0.984 . S
H656 N644 0.984 1_655 S
H657 N644 0.985 . S
C658 C659 1.363 . S
C658 C664 1.379 1_565 S
C658 N666 1.356 . S
C659 C658 1.363 . S
C659 C665 1.363 . S
C660 C661 1.363 . S
C660 C665 1.379 1_545 S
C660 N667 1.356 . S
C661 C660 1.363 . S
C661 C664 1.363 . S
N662 C664 1.356 . S
N662 H674 0.984 1_554 S
N662 H675 0.985 . S
N663 C665 1.356 . S
N663 H668 0.984 . S
N663 H669 0.985 . S
C664 C658 1.379 1_545 S
C664 C661 1.363 . S
C664 N662 1.356 . S
C665 C659 1.363 . S
C665 C660 1.379 1_565 S
C665 N663 1.356 . S
N666 C658 1.356 . S
N666 H672 0.984 . S
N666 H673 0.984 . S
N667 C660 1.356 . S
N667 H670 0.984 . S
N667 H671 0.985 . S
H668 N663 0.984 . S
H669 N663 0.985 . S
H670 N667 0.984 . S
H671 N667 0.985 . S
H672 N666 0.984 . S
H673 N666 0.984 . S
H674 N662 0.984 1_556 S
H675 N662 0.985 . S
C676 C677 1.363 . S
C676 C682 1.379 . S
C676 N684 1.356 . S
C677 C676 1.363 . S
C677 C683 1.363 . S
C678 C679 1.363 . S
C678 C683 1.379 . S
C678 N685 1.356 . S
C679 C678 1.363 . S
C679 C682 1.363 . S
N680 C682 1.356 . S
N680 H692 0.984 . S
N680 H693 0.985 . S
N681 C683 1.356 . S
N681 H686 0.984 . S
N681 H687 0.985 . S
C682 C676 1.379 . S
C682 C679 1.363 . S
C682 N680 1.356 . S
C683 C677 1.363 . S
C683 C678 1.379 . S
C683 N681 1.356 . S
N684 C676 1.356 . S
N684 H690 0.984 . S
N684 H691 0.984 . S
N685 C678 1.356 . S
N685 H688 0.984 . S
N685 H689 0.985 . S
H686 N681 0.984 . S
H687 N681 0.985 . S
H688 N685 0.984 . S
H689 N685 0.985 . S
H690 N684 0.984 . S
H691 N684 0.984 . S
H692 N680 0.984 . S
H693 N680 0.985 . S
C694 C695 1.363 . S
C694 C700 1.379 . S
C694 N702 1.356 . S
C695 C694 1.363 . S
C695 C701 1.363 . S
C696 C697 1.363 . S
C696 C701 1.379 . S
C696 N703 1.356 . S
C697 C696 1.363 . S
C697 C700 1.363 . S
N698 C700 1.356 . S
N698 H710 0.984 1_554 S
N698 H711 0.985 . S
N699 C701 1.356 . S
N699 H704 0.984 . S
N699 H705 0.985 . S
C700 C694 1.379 . S
C700 C697 1.363 . S
C700 N698 1.356 . S
C701 C695 1.363 . S
C701 C696 1.379 . S
C701 N699 1.356 . S
N702 C694 1.356 . S
N702 H708 0.984 . S
N702 H709 0.984 . S
N703 C696 1.356 . S
N703 H706 0.984 . S
N703 H707 0.985 . S
H704 N699 0.984 . S
H705 N699 0.985 . S
H706 N703 0.984 . S
H707 N703 0.985 . S
H708 N702 0.984 . S
H709 N702 0.984 . S
H710 N698 0.984 1_556 S
H711 N698 0.985 . S
C712 C713 1.363 . S
C712 C718 1.379 . S
C712 N720 1.356 . S
C713 C712 1.363 . S
C713 C719 1.363 . S
C714 C715 1.363 . S
C714 C719 1.379 . S
C714 N721 1.356 . S
C715 C714 1.363 . S
C715 C718 1.363 . S
N716 C718 1.356 . S
N716 H728 0.984 . S
N716 H729 0.985 . S
N717 C719 1.356 . S
N717 H722 0.984 . S
N717 H723 0.985 1_556 S
C718 C712 1.379 . S
C718 C715 1.363 . S
C718 N716 1.356 . S
C719 C713 1.363 . S
C719 C714 1.379 . S
C719 N717 1.356 . S
N720 C712 1.356 . S
N720 H726 0.984 . S
N720 H727 0.984 . S
N721 C714 1.356 . S
N721 H724 0.984 . S
N721 H725 0.985 1_556 S
H722 N717 0.984 . S
H723 N717 0.985 1_554 S
H724 N721 0.984 . S
H725 N721 0.985 1_554 S
H726 N720 0.984 . S
H727 N720 0.984 . S
H728 N716 0.984 . S
H729 N716 0.985 . S
C730 C731 1.363 . S
C730 C736 1.379 . S
C730 N738 1.356 . S
C731 C730 1.363 . S
C731 C737 1.363 . S
C732 C733 1.363 . S
C732 C737 1.379 . S
C732 N739 1.356 . S
C733 C732 1.363 . S
C733 C736 1.363 . S
N734 C736 1.356 . S
N734 H746 0.984 1_556 S
N734 H747 0.985 . S
N735 C737 1.356 . S
N735 H740 0.984 . S
N735 H741 0.985 . S
C736 C730 1.379 . S
C736 C733 1.363 . S
C736 N734 1.356 . S
C737 C731 1.363 . S
C737 C732 1.379 . S
C737 N735 1.356 . S
N738 C730 1.356 . S
N738 H744 0.984 1_556 S
N738 H745 0.984 . S
N739 C732 1.356 . S
N739 H742 0.984 . S
N739 H743 0.985 . S
H740 N735 0.984 . S
H741 N735 0.985 . S
H742 N739 0.984 . S
H743 N739 0.985 . S
H744 N738 0.984 1_554 S
H745 N738 0.984 . S
H746 N734 0.984 1_554 S
H747 N734 0.985 . S
C748 C749 1.363 . S
C748 C754 1.379 . S
C748 N756 1.356 . S
C749 C748 1.363 . S
C749 C755 1.363 . S
C750 C751 1.363 . S
C750 C755 1.379 . S
C750 N757 1.356 . S
C751 C750 1.363 . S
C751 C754 1.363 . S
N752 C754 1.356 . S
N752 H764 0.984 1_556 S
N752 H765 0.985 . S
N753 C755 1.356 . S
N753 H758 0.984 . S
N753 H759 0.985 . S
C754 C748 1.379 . S
C754 C751 1.363 . S
C754 N752 1.356 . S
C755 C749 1.363 . S
C755 C750 1.379 . S
C755 N753 1.356 . S
N756 C748 1.356 . S
N756 H762 0.984 1_556 S
N756 H763 0.984 . S
N757 C750 1.356 . S
N757 H760 0.984 . S
N757 H761 0.985 . S
H758 N753 0.984 . S
H759 N753 0.985 . S
H760 N757 0.984 . S
H761 N757 0.985 . S
H762 N756 0.984 1_554 S
H763 N756 0.984 . S
H764 N752 0.984 1_554 S
H765 N752 0.985 . S
C766 C767 1.363 . S
C766 C772 1.379 . S
C766 N774 1.356 . S
C767 C766 1.363 . S
C767 C773 1.363 . S
C768 C769 1.363 . S
C768 C773 1.379 . S
C768 N775 1.356 . S
C769 C768 1.363 . S
C769 C772 1.363 . S
N770 C772 1.356 . S
N770 H782 0.984 . S
N770 H783 0.985 . S
N771 C773 1.356 . S
N771 H776 0.984 . S
N771 H777 0.985 . S
C772 C766 1.379 . S
C772 C769 1.363 . S
C772 N770 1.356 . S
C773 C767 1.363 . S
C773 C768 1.379 . S
C773 N771 1.356 . S
N774 C766 1.356 . S
N774 H780 0.984 . S
N774 H781 0.984 . S
N775 C768 1.356 . S
N775 H778 0.984 . S
N775 H779 0.985 . S
H776 N771 0.984 . S
H777 N771 0.985 . S
H778 N775 0.984 . S
H779 N775 0.985 . S
H780 N774 0.984 . S
H781 N774 0.984 . S
H782 N770 0.984 . S
H783 N770 0.985 . S
C784 C785 1.363 . S
C784 C790 1.379 . S
C784 N792 1.356 . S
C785 C784 1.363 . S
C785 C791 1.363 . S
C786 C787 1.363 . S
C786 C791 1.379 . S
C786 N793 1.356 . S
C787 C786 1.363 . S
C787 C790 1.363 . S
N788 C790 1.356 1_455 S
N788 H800 0.984 . S
N788 H801 0.985 . S
N789 C791 1.356 . S
N789 H794 0.984 . S
N789 H795 0.985 . S
C790 C784 1.379 . S
C790 C787 1.363 . S
C790 N788 1.356 1_655 S
C791 C785 1.363 . S
C791 C786 1.379 . S
C791 N789 1.356 . S
N792 C784 1.356 . S
N792 H798 0.984 1_655 S
N792 H799 0.984 . S
N793 C786 1.356 . S
N793 H796 0.984 . S
N793 H797 0.985 . S
H794 N789 0.984 . S
H795 N789 0.985 . S
H796 N793 0.984 . S
H797 N793 0.985 . S
H798 N792 0.984 1_455 S
H799 N792 0.984 . S
H800 N788 0.984 . S
H801 N788 0.985 . S
C802 C803 1.363 . S
C802 C808 1.379 . S
C802 N810 1.356 . S
C803 C802 1.363 . S
C803 C809 1.363 . S
C804 C805 1.363 . S
C804 C809 1.379 . S
C804 N811 1.356 . S
C805 C804 1.363 . S
C805 C808 1.363 . S
N806 C808 1.356 . S
N806 H818 0.984 . S
N806 H819 0.985 . S
N807 C809 1.356 . S
N807 H812 0.984 . S
N807 H813 0.985 . S
C808 C802 1.379 . S
C808 C805 1.363 . S
C808 N806 1.356 . S
C809 C803 1.363 . S
C809 C804 1.379 . S
C809 N807 1.356 . S
N810 C802 1.356 . S
N810 H816 0.984 . S
N810 H817 0.984 . S
N811 C804 1.356 . S
N811 H814 0.984 . S
N811 H815 0.985 1_565 S
H812 N807 0.984 . S
H813 N807 0.985 . S
H814 N811 0.984 . S
H815 N811 0.985 1_545 S
H816 N810 0.984 . S
H817 N810 0.984 . S
H818 N806 0.984 . S
H819 N806 0.985 . S
C820 C821 1.363 . S
C820 C826 1.379 . S
C820 N828 1.356 . S
C821 C820 1.363 . S
C821 C827 1.363 . S
C822 C823 1.363 . S
C822 C827 1.379 . S
C822 N829 1.356 . S
C823 C822 1.363 . S
C823 C826 1.363 . S
N824 C826 1.356 . S
N824 H836 0.984 . S
N824 H837 0.985 . S
N825 C827 1.356 . S
N825 H830 0.984 . S
N825 H831 0.985 . S
C826 C820 1.379 . S
C826 C823 1.363 . S
C826 N824 1.356 . S
C827 C821 1.363 . S
C827 C822 1.379 . S
C827 N825 1.356 . S
N828 C820 1.356 . S
N828 H834 0.984 . S
N828 H835 0.984 . S
N829 C822 1.356 . S
N829 H832 0.984 . S
N829 H833 0.985 . S
H830 N825 0.984 . S
H831 N825 0.985 . S
H832 N829 0.984 . S
H833 N829 0.985 . S
H834 N828 0.984 . S
H835 N828 0.984 . S
H836 N824 0.984 . S
H837 N824 0.985 . S
C838 C839 1.363 . S
C838 C844 1.379 . S
C838 N846 1.356 . S
C839 C838 1.363 . S
C839 C845 1.363 . S
C840 C841 1.363 . S
C840 C845 1.379 . S
C840 N847 1.356 . S
C841 C840 1.363 . S
C841 C844 1.363 . S
N842 C844 1.356 . S
N842 H854 0.984 . S
N842 H855 0.985 . S
N843 C845 1.356 . S
N843 H848 0.984 . S
N843 H849 0.985 . S
C844 C838 1.379 . S
C844 C841 1.363 . S
C844 N842 1.356 . S
C845 C839 1.363 . S
C845 C840 1.379 . S
C845 N843 1.356 . S
N846 C838 1.356 . S
N846 H852 0.984 . S
N846 H853 0.984 . S
N847 C840 1.356 . S
N847 H850 0.984 . S
N847 H851 0.985 . S
H848 N843 0.984 . S
H849 N843 0.985 . S
H850 N847 0.984 . S
H851 N847 0.985 . S
H852 N846 0.984 . S
H853 N846 0.984 . S
H854 N842 0.984 . S
H855 N842 0.985 . S
C425 C76 1.957 . S
C427 C163 2.090 . S
C445 C247 2.101 . S
C443 C87 1.966 . S
C463 C323 2.000 . S
C461 C54 2.035 . S
C481 C407 1.992 . S
C479 C65 2.027 . S
C499 C154 2.091 1_565 S
C497 C32 1.965 . S
C515 C43 1.973 . S
C517 C238 2.100 . S
C533 C10 2.043 . S
C535 C312 2.000 . S
C551 C21 2.035 . S
C553 C396 1.993 . S
C571 C151 0.959 . S
C569 C60 0.893 . S
C589 C235 0.925 . S
C587 C71 0.869 . S
C607 C328 0.885 . S
C605 C82 0.845 . S
C623 C49 0.868 . S
C625 C412 0.917 . S
C641 C16 0.885 . S
C643 C160 0.944 . S
C661 C244 0.910 . S
C659 C27 0.863 . S
C679 C319 0.885 . S
C677 C38 0.840 . S
C695 C5 0.861 . S
C697 C403 0.917 . S
C713 C59 2.101 . S
C715 C144 2.205 . S
C731 C70 2.081 . S
C733 C228 2.187 . S
C751 C322 2.286 . S
C749 C81 2.005 . S
C769 C406 2.304 . S
C767 C48 2.024 . S
C785 C15 2.093 . S
C787 C155 2.206 . S
C805 C239 2.187 . S
C803 C26 2.075 . S
C823 C331 2.286 . S
C821 C37 1.997 . S
C839 C4 2.015 . S
C841 C415 2.303 . S
