# Generated by pormake.
# Topology cml, (3,6)-cn, num edge types: 1
# Building blocks:
#     Node 0, Type 0, BuildingBlock: VETTIZ_charged_linker_0, # of connection points: 3
#     Node 1, Type 0, BuildingBlock: VETTIZ_charged_linker_0, # of connection points: 3
#     Node 2, Type 0, BuildingBlock: VETTIZ_charged_linker_0, # of connection points: 3
#     Node 3, Type 0, BuildingBlock: VETTIZ_charged_linker_0, # of connection points: 3
#     Node 4, Type 0, BuildingBlock: VETTIZ_charged_linker_0, # of connection points: 3
#     Node 5, Type 0, BuildingBlock: VETTIZ_charged_linker_0, # of connection points: 3
#     Node 6, Type 0, BuildingBlock: VETTIZ_charged_linker_0, # of connection points: 3
#     Node 7, Type 0, BuildingBlock: VETTIZ_charged_linker_0, # of connection points: 3
#     Node 8, Type 1, BuildingBlock: OJICUG_clean_sbu_0, # of connection points: 6
#     Node 9, Type 1, BuildingBlock: OJICUG_clean_sbu_0, # of connection points: 6
#     Node 10, Type 1, BuildingBlock: OJICUG_clean_sbu_0, # of connection points: 6
#     Node 11, Type 1, BuildingBlock: OJICUG_clean_sbu_0, # of connection points: 6
#     Edge 12, Type (0, 1), BuildingBlock: UVAHIK_clean_linker_0, # of connection points: 2
#     Edge 13, Type (0, 1), BuildingBlock: UVAHIK_clean_linker_0, # of connection points: 2
#     Edge 14, Type (0, 1), BuildingBlock: UVAHIK_clean_linker_0, # of connection points: 2
#     Edge 15, Type (0, 1), BuildingBlock: UVAHIK_clean_linker_0, # of connection points: 2
#     Edge 16, Type (0, 1), BuildingBlock: UVAHIK_clean_linker_0, # of connection points: 2
#     Edge 17, Type (0, 1), BuildingBlock: UVAHIK_clean_linker_0, # of connection points: 2
#     Edge 18, Type (0, 1), BuildingBlock: UVAHIK_clean_linker_0, # of connection points: 2
#     Edge 19, Type (0, 1), BuildingBlock: UVAHIK_clean_linker_0, # of connection points: 2
#     Edge 20, Type (0, 1), BuildingBlock: UVAHIK_clean_linker_0, # of connection points: 2
#     Edge 21, Type (0, 1), BuildingBlock: UVAHIK_clean_linker_0, # of connection points: 2
#     Edge 22, Type (0, 1), BuildingBlock: UVAHIK_clean_linker_0, # of connection points: 2
#     Edge 23, Type (0, 1), BuildingBlock: UVAHIK_clean_linker_0, # of connection points: 2
#     Edge 24, Type (0, 1), BuildingBlock: UVAHIK_clean_linker_0, # of connection points: 2
#     Edge 25, Type (0, 1), BuildingBlock: UVAHIK_clean_linker_0, # of connection points: 2
#     Edge 26, Type (0, 1), BuildingBlock: UVAHIK_clean_linker_0, # of connection points: 2
#     Edge 27, Type (0, 1), BuildingBlock: UVAHIK_clean_linker_0, # of connection points: 2
#     Edge 28, Type (0, 1), BuildingBlock: UVAHIK_clean_linker_0, # of connection points: 2
#     Edge 29, Type (0, 1), BuildingBlock: UVAHIK_clean_linker_0, # of connection points: 2
#     Edge 30, Type (0, 1), BuildingBlock: UVAHIK_clean_linker_0, # of connection points: 2
#     Edge 31, Type (0, 1), BuildingBlock: UVAHIK_clean_linker_0, # of connection points: 2
#     Edge 32, Type (0, 1), BuildingBlock: UVAHIK_clean_linker_0, # of connection points: 2
#     Edge 33, Type (0, 1), BuildingBlock: UVAHIK_clean_linker_0, # of connection points: 2
#     Edge 34, Type (0, 1), BuildingBlock: UVAHIK_clean_linker_0, # of connection points: 2
#     Edge 35, Type (0, 1), BuildingBlock: UVAHIK_clean_linker_0, # of connection points: 2
# Relax obj value: 0.076
# Max RMSD: 0.088
# Mean RMSD: 0.083
data_MOF--net-cml--node1-OJICUG_clean_sbu_0--node2-VETTIZ_charged_linker_0--edge1-UVAHIK_clean_linker_0
_symmetry_space_group_name_H-M    P1
_symmetry_Int_Tables_number       1
_symmetry_cell_setting            triclinic
loop_
_symmetry_equiv_pos_as_xyz
'x, y, z'
_cell_length_a     58.185444
_cell_length_b     58.783598
_cell_length_c     55.566719
_cell_angle_alpha  90.018167
_cell_angle_beta   90.005539
_cell_angle_gamma 89.95855
loop_
_atom_site_label
_atom_site_type_symbol
_atom_site_fract_x
_atom_site_fract_y
_atom_site_fract_z
_atom_type_partial_charge
C0 C 0.27484 0.37705 0.09148 0.0
C1 C 0.29242 0.3881 0.10437 0.0
C2 C 0.30105 0.40893 0.09564 0.0
C3 C 0.27627 0.40642 0.0608 0.0
C4 C 0.26696 0.38657 0.06984 0.0
C5 C 0.24875 0.37695 0.05348 0.0
H6 H 0.1968 0.37776 0.94458 0.0
C7 C 0.26581 0.41086 0.03708 0.0
C8 C 0.24944 0.39383 0.03274 0.0
H9 H 0.18332 0.33302 0.0048 0.0
H10 H 0.21054 0.35376 0.02901 0.0
H11 H 0.19644 0.42405 0.97658 0.0
H12 H 0.25062 0.38043 0.95086 0.0
H13 H 0.2598 0.40863 0.94703 0.0
H14 H 0.2346 0.39885 0.9313 0.0
H15 H 0.20511 0.42353 0.94559 0.0
H16 H 0.21912 0.44169 0.96729 0.0
C17 C 0.22542 0.37756 0.06694 0.0
C18 C 0.25647 0.35286 0.04559 0.0
C19 C 0.29893 0.4731 0.98438 0.0
C20 C 0.2951 0.47956 0.96036 0.0
C21 C 0.27707 0.46919 0.94744 0.0
C22 C 0.26371 0.45202 0.95801 0.0
C23 C 0.26851 0.44504 0.98169 0.0
C24 C 0.28563 0.45583 0.99456 0.0
C25 C 0.28879 0.44592 0.01925 0.0
C26 C 0.27082 0.42724 0.01908 0.0
C27 C 0.25907 0.42674 0.99703 0.0
C28 C 0.28319 0.46462 0.03805 0.0
C29 C 0.31359 0.43628 0.02078 0.0
C30 C 0.19941 0.37256 0.96307 0.0
C31 C 0.18802 0.35347 0.97259 0.0
C32 C 0.19221 0.34729 0.99675 0.0
C33 C 0.20794 0.35944 0.01088 0.0
C34 C 0.21966 0.37801 0.00083 0.0
C35 C 0.21494 0.38459 0.97748 0.0
C36 C 0.22859 0.4051 0.96998 0.0
C37 C 0.24234 0.40968 0.99266 0.0
C38 C 0.2373 0.39355 0.01055 0.0
C39 C 0.21158 0.42468 0.96436 0.0
C40 C 0.24417 0.39813 0.94858 0.0
H41 H 0.30064 0.43381 0.0682 0.0
H42 H 0.2676 0.36122 0.09794 0.0
H43 H 0.27498 0.35288 0.04059 0.0
H44 H 0.24728 0.34654 0.02959 0.0
H45 H 0.25411 0.3404 0.06041 0.0
H46 H 0.22493 0.39153 0.08046 0.0
H47 H 0.22219 0.36136 0.07663 0.0
H48 H 0.2108 0.38116 0.05478 0.0
H49 H 0.31237 0.481 0.99497 0.0
H50 H 0.2738 0.47378 0.92888 0.0
H51 H 0.25055 0.44446 0.9471 0.0
H52 H 0.26993 0.47661 0.03113 0.0
H53 H 0.29869 0.47476 0.04259 0.0
H54 H 0.27568 0.45764 0.05477 0.0
H55 H 0.31879 0.42846 0.00337 0.0
H56 H 0.31553 0.42251 0.03409 0.0
H57 H 0.32615 0.44993 0.02499 0.0
H58 H 0.31472 0.41772 0.10505 0.0
C59 C 0.29302 0.41817 0.07405 0.0
C60 C 0.79621 0.62162 0.46368 0.0
C61 C 0.80576 0.64201 0.4724 0.0
C62 C 0.79912 0.64988 0.49538 0.0
C63 C 0.77347 0.61779 0.50009 0.0
C64 C 0.78012 0.60992 0.47771 0.0
C65 C 0.76745 0.5887 0.47052 0.0
H66 H 0.68321 0.51288 0.4939 0.0
C67 C 0.75591 0.60211 0.50966 0.0
C68 C 0.75236 0.58497 0.49244 0.0
H69 H 0.72419 0.51897 0.42931 0.0
H70 H 0.74685 0.54852 0.44797 0.0
H71 H 0.72464 0.5184 0.53175 0.0
H72 H 0.6761 0.56533 0.50112 0.0
H73 H 0.67796 0.5714 0.53199 0.0
H74 H 0.66829 0.54378 0.52247 0.0
H75 H 0.69562 0.52031 0.54243 0.0
H76 H 0.71818 0.53804 0.55458 0.0
C77 C 0.78519 0.56928 0.46736 0.0
C78 C 0.75318 0.59409 0.44762 0.0
C79 C 0.71629 0.61942 0.58925 0.0
C80 C 0.69895 0.6081 0.60221 0.0
C81 C 0.69094 0.58691 0.59377 0.0
C82 C 0.69944 0.57751 0.57244 0.0
C83 C 0.71603 0.58944 0.55917 0.0
C84 C 0.72464 0.60972 0.56791 0.0
C85 C 0.74269 0.61962 0.55158 0.0
C86 C 0.74299 0.6022 0.53135 0.0
C87 C 0.72712 0.58476 0.53581 0.0
C88 C 0.76577 0.62017 0.56549 0.0
C89 C 0.73415 0.6432 0.54286 0.0
C90 C 0.69707 0.52057 0.48375 0.0
C91 C 0.70169 0.5138 0.45997 0.0
C92 C 0.72027 0.52384 0.44765 0.0
C93 C 0.73326 0.54117 0.45844 0.0
C94 C 0.72749 0.54866 0.48172 0.0
C95 C 0.70996 0.53804 0.49413 0.0
C96 C 0.70574 0.54853 0.51839 0.0
C97 C 0.72329 0.56759 0.5183 0.0
C98 C 0.73595 0.56761 0.49679 0.0
C99 C 0.71112 0.53047 0.53793 0.0
C100 C 0.68072 0.55767 0.51879 0.0
H101 H 0.77871 0.64487 0.52647 0.0
H102 H 0.80103 0.61491 0.44624 0.0
H103 H 0.74761 0.61221 0.44736 0.0
H104 H 0.73699 0.58434 0.44662 0.0
H105 H 0.76335 0.59098 0.43103 0.0
H106 H 0.79866 0.57021 0.48154 0.0
H107 H 0.79389 0.57044 0.44962 0.0
H108 H 0.77751 0.55221 0.46926 0.0
H109 H 0.72304 0.63556 0.59545 0.0
H110 H 0.67745 0.57792 0.60325 0.0
H111 H 0.69231 0.56156 0.5668 0.0
H112 H 0.76723 0.60537 0.57788 0.0
H113 H 0.76727 0.63587 0.5765 0.0
H114 H 0.78088 0.61879 0.55355 0.0
H115 H 0.71528 0.64295 0.53962 0.0
H116 H 0.74171 0.64843 0.52552 0.0
H117 H 0.73769 0.65657 0.5565 0.0
H118 H 0.80583 0.66571 0.50245 0.0
C119 C 0.78317 0.63784 0.50928 0.0
C120 C 0.71416 0.47463 0.96534 0.0
C121 C 0.6952 0.487 0.97403 0.0
C122 C 0.68639 0.48182 0.99703 0.0
C123 C 0.71391 0.45116 0.00126 0.0
C124 C 0.72321 0.45688 0.97922 0.0
C125 C 0.74256 0.44131 0.97211 0.0
H126 H 0.80501 0.34659 0.99375 0.0
C127 C 0.72611 0.43084 0.01025 0.0
C128 C 0.74311 0.42513 0.99342 0.0
H129 H 0.80792 0.39152 0.93207 0.0
H130 H 0.78028 0.41628 0.9505 0.0
H131 H 0.80109 0.38606 0.03515 0.0
H132 H 0.75038 0.34681 0.99671 0.0
H133 H 0.74221 0.34781 0.02709 0.0
H134 H 0.76895 0.33445 0.01896 0.0
H135 H 0.7966 0.35633 0.04086 0.0
H136 H 0.77969 0.37789 0.05577 0.0
C137 C 0.76483 0.45565 0.9704 0.0
C138 C 0.73566 0.42909 0.94843 0.0
C139 C 0.69617 0.39027 0.08428 0.0
C140 C 0.70261 0.37014 0.0961 0.0
C141 C 0.72273 0.35873 0.08875 0.0
C142 C 0.73558 0.3667 0.06909 0.0
C143 C 0.72819 0.38623 0.05665 0.0
C144 C 0.70912 0.39797 0.06475 0.0
C145 C 0.70385 0.41854 0.04969 0.0
C146 C 0.72251 0.41689 0.03073 0.0
C147 C 0.7366 0.39783 0.03472 0.0
C148 C 0.70667 0.44001 0.06565 0.0
C149 C 0.67951 0.41543 0.03881 0.0
C150 C 0.79967 0.36171 0.98414 0.0
C151 C 0.8088 0.36695 0.96131 0.0
C152 C 0.80157 0.38711 0.94977 0.0
C153 C 0.78525 0.40142 0.96041 0.0
C154 C 0.77567 0.39545 0.98272 0.0
C155 C 0.78307 0.37602 0.99435 0.0
C156 C 0.77029 0.37196 0.01751 0.0
C157 C 0.75402 0.39217 0.01781 0.0
C158 C 0.75726 0.40581 0.99734 0.0
C159 C 0.78772 0.37292 0.03854 0.0
C160 C 0.75733 0.34903 0.01522 0.0
H161 H 0.68788 0.46066 0.02781 0.0
H162 H 0.72153 0.47837 0.94788 0.0
H163 H 0.71679 0.42607 0.94773 0.0
H164 H 0.74332 0.41199 0.94662 0.0
H165 H 0.74034 0.43943 0.93244 0.0
H166 H 0.76509 0.46916 0.98443 0.0
H167 H 0.76622 0.46413 0.9526 0.0
H168 H 0.78055 0.44556 0.97369 0.0
H169 H 0.68107 0.39968 0.08989 0.0
H170 H 0.72808 0.34324 0.0977 0.0
H171 H 0.75048 0.35707 0.06399 0.0
H172 H 0.71963 0.43722 0.08008 0.0
H173 H 0.69021 0.44467 0.07451 0.0
H174 H 0.7132 0.45482 0.05546 0.0
H175 H 0.67678 0.39748 0.03313 0.0
H176 H 0.67659 0.4256 0.02243 0.0
H177 H 0.666 0.41973 0.05218 0.0
H178 H 0.67167 0.49092 0.00411 0.0
C179 C 0.69569 0.46406 0.01071 0.0
C180 C 0.1966 0.61937 0.46423 0.0
C181 C 0.18701 0.63915 0.47434 0.0
C182 C 0.19312 0.64525 0.49807 0.0
C183 C 0.21928 0.61326 0.50032 0.0
C184 C 0.21253 0.60671 0.47752 0.0
C185 C 0.22477 0.58561 0.46915 0.0
H186 H 0.30927 0.50859 0.48607 0.0
C187 C 0.23713 0.59723 0.50864 0.0
C188 C 0.2402 0.58079 0.49057 0.0
H189 H 0.26317 0.51465 0.42534 0.0
H190 H 0.24276 0.54495 0.44542 0.0
H191 H 0.31675 0.56091 0.49369 0.0
H192 H 0.27002 0.5139 0.52713 0.0
H193 H 0.27884 0.53285 0.54975 0.0
H194 H 0.29989 0.51499 0.53506 0.0
H195 H 0.32592 0.53932 0.51443 0.0
H196 H 0.31663 0.56689 0.52463 0.0
C197 C 0.23874 0.59176 0.4463 0.0
C198 C 0.20666 0.56661 0.4654 0.0
C199 C 0.28098 0.61329 0.58599 0.0
C200 C 0.29933 0.6021 0.59747 0.0
C201 C 0.30739 0.58136 0.58789 0.0
C202 C 0.29785 0.57226 0.56687 0.0
C203 C 0.28011 0.58405 0.55511 0.0
C204 C 0.27161 0.60394 0.56495 0.0
C205 C 0.25239 0.61384 0.55016 0.0
C206 C 0.25119 0.59689 0.52954 0.0
C207 C 0.26764 0.57963 0.53245 0.0
C208 C 0.25997 0.63776 0.54155 0.0
C209 C 0.23017 0.61371 0.56555 0.0
C210 C 0.2945 0.51612 0.47727 0.0
C211 C 0.28792 0.50929 0.45401 0.0
C212 C 0.2688 0.51982 0.4431 0.0
C213 C 0.25695 0.53739 0.45482 0.0
C214 C 0.26439 0.54468 0.47762 0.0
C215 C 0.28257 0.53376 0.48866 0.0
C216 C 0.28828 0.54392 0.51276 0.0
C217 C 0.27066 0.56292 0.51426 0.0
C218 C 0.25685 0.56338 0.49355 0.0
C219 C 0.31321 0.55317 0.51159 0.0
C220 C 0.28426 0.52554 0.53231 0.0
H221 H 0.21329 0.63811 0.5289 0.0
H222 H 0.19242 0.6142 0.44604 0.0
H223 H 0.19219 0.5684 0.47836 0.0
H224 H 0.21363 0.54941 0.4688 0.0
H225 H 0.1993 0.56724 0.44697 0.0
H226 H 0.24638 0.60904 0.44797 0.0
H227 H 0.22762 0.59171 0.43005 0.0
H228 H 0.25349 0.58037 0.44314 0.0
H229 H 0.27417 0.62907 0.59312 0.0
H230 H 0.32161 0.57247 0.59626 0.0
H231 H 0.30501 0.55663 0.56032 0.0
H232 H 0.27821 0.63748 0.53556 0.0
H233 H 0.25848 0.65042 0.55632 0.0
H234 H 0.25014 0.644 0.52593 0.0
H235 H 0.23033 0.59953 0.57882 0.0
H236 H 0.21455 0.61076 0.55464 0.0
H237 H 0.22821 0.62984 0.57576 0.0
H238 H 0.18559 0.66006 0.50657 0.0
C239 C 0.20915 0.63242 0.51109 0.0
C240 C 0.77973 0.87995 0.08905 0.0
C241 C 0.79758 0.89141 0.10109 0.0
C242 C 0.80555 0.91228 0.09177 0.0
C243 C 0.77918 0.90925 0.05824 0.0
C244 C 0.77076 0.88921 0.06777 0.0
C245 C 0.75206 0.8791 0.05239 0.0
H246 H 0.69374 0.87923 0.94709 0.0
C247 C 0.76723 0.91357 0.03525 0.0
C248 C 0.75113 0.8961 0.03179 0.0
H249 H 0.68626 0.8328 0.00701 0.0
H250 H 0.71387 0.85438 0.02984 0.0
H251 H 0.69303 0.92457 0.97974 0.0
H252 H 0.74794 0.88439 0.94991 0.0
H253 H 0.75501 0.91314 0.94559 0.0
H254 H 0.72944 0.90185 0.9318 0.0
H255 H 0.7005 0.92582 0.94844 0.0
H256 H 0.71444 0.94369 0.9705 0.0
C257 C 0.72946 0.87891 0.06715 0.0
C258 C 0.76018 0.85532 0.0439 0.0
C259 C 0.79419 0.97805 0.98153 0.0
C260 C 0.78807 0.98499 0.95817 0.0
C261 C 0.76952 0.97415 0.94656 0.0
C262 C 0.75777 0.95621 0.95771 0.0
C263 C 0.76472 0.94887 0.98066 0.0
C264 C 0.78237 0.96004 0.99235 0.0
C265 C 0.78768 0.94977 0.01648 0.0
C266 C 0.77042 0.93044 0.01729 0.0
C267 C 0.75714 0.92991 0.99621 0.0
C268 C 0.78279 0.9679 0.0361 0.0
C269 C 0.81282 0.94098 0.0159 0.0
C270 C 0.69778 0.87383 0.96523 0.0
C271 C 0.68796 0.85403 0.97505 0.0
C272 C 0.69394 0.84763 0.99873 0.0
C273 C 0.7099 0.86027 0.01205 0.0
C274 C 0.72007 0.87956 0.00167 0.0
C275 C 0.71361 0.88631 0.97884 0.0
C276 C 0.72582 0.90755 0.9709 0.0
C277 C 0.74083 0.91229 0.99266 0.0
C278 C 0.73762 0.89568 0.0105 0.0
C279 C 0.70763 0.92646 0.96697 0.0
C280 C 0.74025 0.90167 0.94828 0.0
H281 H 0.8035 0.937 0.06421 0.0
H282 H 0.77301 0.86406 0.09594 0.0
H283 H 0.77856 0.85584 0.03839 0.0
H284 H 0.75081 0.84901 0.02801 0.0
H285 H 0.75852 0.8426 0.05858 0.0
H286 H 0.72903 0.89312 0.08039 0.0
H287 H 0.72754 0.86277 0.07735 0.0
H288 H 0.71407 0.88157 0.05582 0.0
H289 H 0.80854 0.98579 0.99085 0.0
H290 H 0.76426 0.97938 0.9287 0.0
H291 H 0.74403 0.94845 0.9478 0.0
H292 H 0.7685 0.97938 0.03061 0.0
H293 H 0.79814 0.97866 0.03945 0.0
H294 H 0.777 0.96035 0.05328 0.0
H295 H 0.81701 0.93359 0.99798 0.0
H296 H 0.81614 0.92711 0.02879 0.0
H297 H 0.82517 0.955 0.01938 0.0
H298 H 0.81941 0.92136 0.10054 0.0
C299 C 0.79641 0.92127 0.07052 0.0
C300 C 0.29593 0.12177 0.46245 0.0
C301 C 0.30293 0.14338 0.47051 0.0
C302 C 0.29443 0.15151 0.49271 0.0
C303 C 0.27191 0.11723 0.49783 0.0
C304 C 0.28037 0.10916 0.47622 0.0
C305 C 0.26999 0.08667 0.46933 0.0
H306 H 0.19036 0.00569 0.49036 0.0
C307 C 0.25532 0.10042 0.50716 0.0
C308 C 0.2541 0.08248 0.49052 0.0
H309 H 0.23537 0.01223 0.42884 0.0
H310 H 0.25426 0.04424 0.44757 0.0
H311 H 0.22977 0.01541 0.53094 0.0
H312 H 0.17929 0.05722 0.49568 0.0
H313 H 0.17906 0.06439 0.52636 0.0
H314 H 0.17202 0.03582 0.51743 0.0
H315 H 0.20004 0.01492 0.53946 0.0
H316 H 0.22002 0.03493 0.55257 0.0
C317 C 0.28949 0.06877 0.46814 0.0
C318 C 0.2566 0.08994 0.44541 0.0
C319 C 0.21176 0.1164 0.58469 0.0
C320 C 0.19483 0.1042 0.59733 0.0
C321 C 0.18828 0.08252 0.5889 0.0
C322 C 0.19797 0.07338 0.56797 0.0
C323 C 0.21432 0.08606 0.55514 0.0
C324 C 0.2213 0.10699 0.56378 0.0
C325 C 0.23908 0.11787 0.54786 0.0
C326 C 0.24141 0.10011 0.52815 0.0
C327 C 0.22668 0.08165 0.53241 0.0
C328 C 0.26155 0.12041 0.56258 0.0
C329 C 0.2291 0.14058 0.53823 0.0
C330 C 0.20463 0.01369 0.48114 0.0
C331 C 0.21131 0.00651 0.45804 0.0
C332 C 0.22972 0.01765 0.44652 0.0
C333 C 0.24063 0.03623 0.45741 0.0
C334 C 0.2329 0.04396 0.47995 0.0
C335 C 0.21553 0.03241 0.49166 0.0
C336 C 0.20915 0.04331 0.51522 0.0
C337 C 0.22514 0.06368 0.51541 0.0
C338 C 0.23894 0.064 0.49469 0.0
C339 C 0.21482 0.02633 0.53572 0.0
C340 C 0.18353 0.0505 0.51387 0.0
H341 H 0.27313 0.14578 0.523 0.0
H342 H 0.30223 0.11482 0.44565 0.0
H343 H 0.24981 0.10757 0.44378 0.0
H344 H 0.2412 0.07904 0.4441 0.0
H345 H 0.26782 0.08675 0.42959 0.0
H346 H 0.30204 0.07142 0.48299 0.0
H347 H 0.29902 0.06998 0.45086 0.0
H348 H 0.28323 0.05117 0.47045 0.0
H349 H 0.21739 0.13297 0.59085 0.0
H350 H 0.17511 0.07285 0.59812 0.0
H351 H 0.19198 0.05698 0.56233 0.0
H352 H 0.26413 0.1055 0.57462 0.0
H353 H 0.26103 0.13588 0.57406 0.0
H354 H 0.27708 0.12096 0.55118 0.0
H355 H 0.21021 0.13928 0.53543 0.0
H356 H 0.23599 0.14534 0.52042 0.0
H357 H 0.2322 0.15472 0.55108 0.0
H358 H 0.29912 0.16822 0.49926 0.0
C359 C 0.27911 0.13852 0.50643 0.0
C360 C 0.21792 0.97995 0.96845 0.0
C361 C 0.19981 0.99301 0.97803 0.0
C362 C 0.19178 0.98805 0.0014 0.0
C363 C 0.21787 0.95603 0.00403 0.0
C364 C 0.22657 0.96156 0.98166 0.0
C365 C 0.2445 0.94487 0.97333 0.0
H366 H 0.29678 0.84318 0.9873 0.0
C367 C 0.22877 0.93459 0.01186 0.0
C368 C 0.24446 0.92798 0.99402 0.0
H369 H 0.30787 0.89323 0.93135 0.0
H370 H 0.28149 0.91879 0.95091 0.0
H371 H 0.299 0.88015 0.03121 0.0
H372 H 0.24275 0.84964 0.9924 0.0
H373 H 0.23554 0.84993 0.02311 0.0
H374 H 0.26018 0.83388 0.01322 0.0
H375 H 0.29095 0.85093 0.0353 0.0
H376 H 0.27739 0.87349 0.05215 0.0
C377 C 0.26776 0.95756 0.9712 0.0
C378 C 0.23596 0.93398 0.94954 0.0
C379 C 0.2006 0.89608 0.08791 0.0
C380 C 0.20527 0.87495 0.09868 0.0
C381 C 0.22195 0.86063 0.0882 0.0
C382 C 0.23363 0.86723 0.06721 0.0
C383 C 0.22841 0.88828 0.05644 0.0
C384 C 0.21224 0.90233 0.06695 0.0
C385 C 0.20813 0.92366 0.05271 0.0
C386 C 0.22473 0.92029 0.03199 0.0
C387 C 0.23653 0.89955 0.03419 0.0
C388 C 0.21496 0.94427 0.06855 0.0
C389 C 0.18268 0.92366 0.04427 0.0
C390 C 0.29377 0.85973 0.97935 0.0
C391 C 0.30427 0.86598 0.95749 0.0
C392 C 0.29964 0.88769 0.94781 0.0
C393 C 0.28441 0.90261 0.95929 0.0
C394 C 0.27359 0.89583 0.98071 0.0
C395 C 0.2787 0.87492 0.99067 0.0
C396 C 0.26614 0.87095 0.01397 0.0
C397 C 0.25246 0.89285 0.01616 0.0
C398 C 0.25667 0.90719 0.99643 0.0
C399 C 0.28417 0.86857 0.03433 0.0
C400 C 0.25038 0.84994 0.01076 0.0
H401 H 0.1935 0.96652 0.03186 0.0
H402 H 0.22474 0.98353 0.95072 0.0
H403 H 0.2173 0.92999 0.95067 0.0
H404 H 0.24439 0.91767 0.94531 0.0
H405 H 0.2385 0.94573 0.93412 0.0
H406 H 0.26868 0.97213 0.98395 0.0
H407 H 0.27033 0.96441 0.95277 0.0
H408 H 0.28257 0.94668 0.97606 0.0
H409 H 0.18751 0.90727 0.09514 0.0
H410 H 0.22592 0.8443 0.09623 0.0
H411 H 0.24604 0.85556 0.06 0.0
H412 H 0.23039 0.94026 0.0796 0.0
H413 H 0.20085 0.94896 0.08108 0.0
H414 H 0.21984 0.95937 0.05789 0.0
H415 H 0.17624 0.90602 0.04155 0.0
H416 H 0.18019 0.93195 0.02663 0.0
H417 H 0.17135 0.93196 0.05774 0.0
H418 H 0.17774 -0.00235 0.00919 0.0
C419 C 0.20078 0.96974 0.01446 0.0
C420 C 0.70042 0.12001 0.45922 0.0
C421 C 0.6926 0.14118 0.46773 0.0
C422 C 0.70094 0.14933 0.48997 0.0
C423 C 0.72447 0.11559 0.49462 0.0
C424 C 0.7163 0.10762 0.47285 0.0
C425 C 0.7268 0.08518 0.46597 0.0
H426 H 0.80402 0.00229 0.48935 0.0
C427 C 0.7409 0.09867 0.50414 0.0
C428 C 0.74227 0.08078 0.48743 0.0
H429 H 0.7614 0.01012 0.42616 0.0
H430 H 0.74289 0.0428 0.44409 0.0
H431 H 0.81642 0.05359 0.49478 0.0
H432 H 0.76412 0.01289 0.52826 0.0
H433 H 0.77304 0.03247 0.55021 0.0
H434 H 0.79343 0.0122 0.53824 0.0
H435 H 0.8225 0.03206 0.51679 0.0
H436 H 0.81596 0.06083 0.52543 0.0
C437 C 0.74066 0.08863 0.4424 0.0
C438 C 0.70732 0.06732 0.46414 0.0
C439 C 0.78337 0.1136 0.58273 0.0
C440 C 0.7995 0.10074 0.59581 0.0
C441 C 0.80549 0.07885 0.58752 0.0
C442 C 0.79605 0.07009 0.56633 0.0
C443 C 0.7805 0.08335 0.55308 0.0
C444 C 0.77398 0.1045 0.56155 0.0
C445 C 0.75663 0.11574 0.54532 0.0
C446 C 0.75431 0.09805 0.5255 0.0
C447 C 0.76855 0.07928 0.53006 0.0
C448 C 0.76716 0.13824 0.5359 0.0
C449 C 0.73398 0.11874 0.55964 0.0
C450 C 0.79034 0.01071 0.47958 0.0
C451 C 0.7842 0.00365 0.45629 0.0
C452 C 0.76661 0.01539 0.44402 0.0
C453 C 0.75592 0.03437 0.45446 0.0
C454 C 0.76305 0.04186 0.47731 0.0
C455 C 0.7797 0.02981 0.48964 0.0
C456 C 0.78564 0.04054 0.51338 0.0
C457 C 0.7702 0.06134 0.51305 0.0
C458 C 0.75703 0.06203 0.49191 0.0
C459 C 0.81148 0.04704 0.51284 0.0
C460 C 0.77893 0.02372 0.53369 0.0
H461 H 0.72249 0.14381 0.52016 0.0
H462 H 0.69423 0.11309 0.44237 0.0
H463 H 0.69442 0.06991 0.47867 0.0
H464 H 0.71349 0.04969 0.4665 0.0
H465 H 0.6982 0.06864 0.44663 0.0
H466 H 0.74777 0.10617 0.44128 0.0
H467 H 0.72968 0.08594 0.4263 0.0
H468 H 0.75589 0.07747 0.44118 0.0
H469 H 0.77822 0.13035 0.5888 0.0
H470 H 0.81806 0.06869 0.5971 0.0
H471 H 0.80161 0.05349 0.56086 0.0
H472 H 0.78581 0.13607 0.53204 0.0
H473 H 0.76539 0.15206 0.5494 0.0
H474 H 0.75957 0.14393 0.51873 0.0
H475 H 0.73133 0.10434 0.57234 0.0
H476 H 0.71858 0.11865 0.54803 0.0
H477 H 0.73422 0.13468 0.57038 0.0
H478 H 0.69551 0.16572 0.49683 0.0
C479 C 0.71675 0.13664 0.50347 0.0
Sc480 Sc -0.00204 0.80119 0.30603 0.0
Sc481 Sc -0.00186 0.86126 0.3115 0.0
Sc482 Sc 0.00018 0.82734 0.36319 0.0
O483 O -0.00125 0.82988 0.32685 0.0
C484 C 0.96594 0.78666 0.34974 0.0
C485 C 0.96252 0.83389 0.27873 0.0
C486 C 0.9643 0.86768 0.35632 0.0
C487 C 0.03191 0.83364 0.27664 0.0
C488 C 0.03432 0.78803 0.34703 0.0
C489 C 0.03372 0.8694 0.35409 0.0
O490 O 0.97148 0.78529 0.32763 0.0
O491 O 0.97053 0.85205 0.28785 0.0
O492 O 0.97241 0.85101 0.36816 0.0
O493 O 0.02449 0.81397 0.28226 0.0
O494 O 0.02785 0.80345 0.36154 0.0
O495 O 0.02586 0.87416 0.33337 0.0
O496 O 0.02469 0.78448 0.32678 0.0
O497 O 0.02369 0.85188 0.28546 0.0
O498 O 0.02559 0.85348 0.36692 0.0
O499 O 0.97093 0.81433 0.28311 0.0
O500 O 0.9753 0.80058 0.36418 0.0
O501 O 0.97232 0.8738 0.33603 0.0
Sc502 Sc 0.99656 0.19415 0.80499 0.0
Sc503 Sc -0.00192 0.1344 0.81234 0.0
Sc504 Sc 0.99589 0.16961 0.86317 0.0
O505 O 0.99683 0.16612 0.82681 0.0
C506 C 0.03007 0.20949 0.84746 0.0
C507 C 0.03239 0.16165 0.77804 0.0
C508 C 0.03183 0.12895 0.85714 0.0
C509 C 0.96302 0.16004 0.77726 0.0
C510 C 0.96145 0.20879 0.84638 0.0
C511 C 0.96249 0.1273 0.85542 0.0
O512 O 0.02267 0.21125 0.82598 0.0
O513 O 0.02488 0.14354 0.78769 0.0
O514 O 0.02293 0.14521 0.86898 0.0
O515 O 0.97017 0.18006 0.7818 0.0
O516 O 0.96895 0.19452 0.86164 0.0
O517 O 0.9713 0.12164 0.83537 0.0
O518 O 0.96975 0.2108 0.82531 0.0
O519 O 0.97172 0.14236 0.78676 0.0
O520 O 0.96959 0.1442 0.86759 0.0
O521 O 0.0237 0.18113 0.78219 0.0
O522 O 0.02201 0.19536 0.86257 0.0
O523 O 0.02465 0.12305 0.83647 0.0
Sc524 Sc 0.49668 0.29957 0.30488 0.0
Sc525 Sc 0.49888 0.35972 0.3072 0.0
Sc526 Sc 0.4976 0.32815 0.36074 0.0
O527 O 0.49775 0.3291 0.32424 0.0
C528 C 0.46197 0.28879 0.34797 0.0
C529 C 0.46295 0.33192 0.27506 0.0
C530 C 0.46439 0.37026 0.35039 0.0
C531 C 0.53253 0.3295 0.27486 0.0
C532 C 0.53029 0.28619 0.34806 0.0
C533 C 0.53372 0.36781 0.3507 0.0
O534 O 0.46959 0.28515 0.32684 0.0
O535 O 0.47191 0.35023 0.28279 0.0
O536 O 0.47196 0.35434 0.36366 0.0
O537 O 0.52374 0.31051 0.28084 0.0
O538 O 0.52276 0.30159 0.36203 0.0
O539 O 0.52594 0.37269 0.32995 0.0
O540 O 0.52287 0.28343 0.3267 0.0
O541 O 0.52524 0.34842 0.28292 0.0
O542 O 0.52516 0.35222 0.36373 0.0
O543 O 0.47017 0.31231 0.28114 0.0
O544 O 0.47032 0.30384 0.36182 0.0
O545 O 0.47249 0.37438 0.32961 0.0
Sc546 Sc 0.49633 0.69586 0.80516 0.0
Sc547 Sc 0.49724 0.63579 0.80998 0.0
Sc548 Sc 0.49726 0.66923 0.86214 0.0
O549 O 0.49692 0.66701 0.82572 0.0
C550 C 0.53127 0.70919 0.84738 0.0
C551 C 0.53159 0.66415 0.77654 0.0
C552 C 0.53186 0.62784 0.85348 0.0
C553 C 0.46207 0.66297 0.77651 0.0
C554 C 0.46262 0.70941 0.84795 0.0
C555 C 0.46259 0.62811 0.85385 0.0
O556 O 0.52241 0.71264 0.82674 0.0
O557 O 0.52344 0.64572 0.78491 0.0
O558 O 0.52333 0.64361 0.86628 0.0
O559 O 0.46998 0.68263 0.78136 0.0
O560 O 0.47153 0.69538 0.86262 0.0
O561 O 0.47102 0.62252 0.83357 0.0
O562 O 0.4692 0.71123 0.8262 0.0
O563 O 0.47022 0.64486 0.78561 0.0
O564 O 0.4701 0.64477 0.86612 0.0
O565 O 0.52361 0.68364 0.78204 0.0
O566 O 0.52433 0.69379 0.86164 0.0
O567 O 0.52441 0.62311 0.83259 0.0
C568 C 0.15816 0.35006 0.93998 0.0
C569 C 0.17243 0.33966 0.95722 0.0
C570 C 0.14408 0.33692 0.92507 0.0
C571 C 0.13609 0.27756 0.90332 0.0
H572 H 0.07418 0.29798 0.88902 0.0
C573 C 0.063 0.21788 0.87474 0.0
C574 C 0.04868 0.22468 0.85568 0.0
C575 C 0.07969 0.23258 0.88377 0.0
C576 C 0.09155 0.29225 0.89257 0.0
H577 H 0.18312 0.30719 0.97208 0.0
H578 H 0.15789 0.28447 0.947 0.0
H579 H 0.09991 0.32255 0.91197 0.0
H580 H 0.04086 0.25207 0.83086 0.0
H581 H 0.06992 0.2781 0.84715 0.0
H582 H 0.12725 0.24682 0.88481 0.0
C583 C 0.15792 0.30274 0.94455 0.0
C584 C 0.10633 0.30631 0.90569 0.0
C585 C 0.17213 0.31584 0.95928 0.0
C586 C 0.05171 0.24637 0.84551 0.0
C587 C 0.0682 0.26127 0.85487 0.0
C588 C 0.12124 0.26343 0.89047 0.0
C589 C 0.14381 0.31308 0.92715 0.0
C590 C 0.12866 0.29896 0.9116 0.0
C591 C 0.08223 0.25452 0.87418 0.0
C592 C 0.09873 0.2705 0.88531 0.0
H593 H 0.15774 0.36838 0.93806 0.0
H594 H 0.13358 0.34546 0.91176 0.0
H595 H 0.15334 0.27158 0.90699 0.0
H596 H 0.06116 0.20122 0.88286 0.0
H597 H 0.09015 0.22703 0.8988 0.0
C598 C 0.84043 0.66708 0.46821 0.0
C599 C 0.82203 0.65541 0.45743 0.0
C600 C 0.85484 0.68086 0.45446 0.0
C601 C 0.87684 0.69147 0.39421 0.0
H602 H 0.88709 0.75248 0.41848 0.0
C603 C 0.93383 0.75821 0.34469 0.0
C604 C 0.94816 0.77127 0.35967 0.0
C605 C 0.91697 0.74404 0.35469 0.0
C606 C 0.88459 0.73544 0.41154 0.0
H607 H 0.80473 0.6488 0.42349 0.0
H608 H 0.83046 0.67244 0.39939 0.0
H609 H 0.86116 0.72707 0.43982 0.0
H610 H 0.9564 0.77913 0.39691 0.0
H611 H 0.9277 0.75435 0.41408 0.0
H612 H 0.90095 0.69961 0.36634 0.0
C613 C 0.83353 0.67088 0.41855 0.0
C614 C 0.8697 0.72094 0.42375 0.0
C615 C 0.81889 0.65728 0.43237 0.0
C616 C 0.94549 0.7696 0.38475 0.0
C617 C 0.92887 0.75544 0.39465 0.0
C618 C 0.89202 0.70594 0.38208 0.0
C619 C 0.85137 0.68308 0.42957 0.0
C620 C 0.866 0.69871 0.41547 0.0
C621 C 0.91423 0.74266 0.37981 0.0
C622 C 0.89642 0.72794 0.39093 0.0
H623 H 0.84372 0.66562 0.48733 0.0
H624 H 0.86874 0.68983 0.46331 0.0
H625 H 0.87422 0.67436 0.3875 0.0
H626 H 0.93545 0.75911 0.32529 0.0
H627 H 0.90588 0.73446 0.34277 0.0
C628 C 0.84238 0.35916 0.93391 0.0
C629 C 0.82479 0.35097 0.94895 0.0
C630 C 0.85637 0.3441 0.92109 0.0
C631 C 0.85897 0.28379 0.90056 0.0
H632 H 0.92329 0.29782 0.89003 0.0
C633 C 0.92809 0.21824 0.87282 0.0
C634 C 0.94314 0.22453 0.8542 0.0
C635 C 0.91224 0.23382 0.88197 0.0
C636 C 0.90528 0.29384 0.89262 0.0
H637 H 0.80842 0.32031 0.96241 0.0
H638 H 0.83362 0.2942 0.94133 0.0
H639 H 0.89917 0.32466 0.91197 0.0
H640 H 0.95307 0.25189 0.83019 0.0
H641 H 0.92559 0.27938 0.84668 0.0
H642 H 0.86557 0.25243 0.88208 0.0
C643 C 0.83617 0.31228 0.93878 0.0
C644 C 0.89141 0.30922 0.90513 0.0
C645 C 0.82196 0.32732 0.9513 0.0
C646 C 0.94161 0.24655 0.84446 0.0
C647 C 0.92603 0.26229 0.85396 0.0
C648 C 0.87295 0.26826 0.8884 0.0
C649 C 0.85338 0.32045 0.92326 0.0
C650 C 0.86808 0.30434 0.90941 0.0
C651 C 0.91142 0.25611 0.87298 0.0
C652 C 0.89623 0.27312 0.88442 0.0
H653 H 0.84534 0.37724 0.93191 0.0
H654 H 0.86927 0.35109 0.90917 0.0
H655 H 0.84099 0.27964 0.90297 0.0
H656 H 0.92883 0.20135 0.8806 0.0
H657 H 0.90122 0.22871 0.89672 0.0
C658 C 0.17313 0.67769 0.46159 0.0
C659 C 0.17146 0.65388 0.45993 0.0
C660 C 0.1589 0.69166 0.44783 0.0
C661 C 0.124 0.69349 0.39299 0.0
H662 H 0.09415 0.74415 0.42495 0.0
C663 C 0.05373 0.74994 0.34831 0.0
C664 C 0.05308 0.77295 0.3551 0.0
C665 C 0.06936 0.73503 0.35922 0.0
C666 C 0.10263 0.73032 0.41561 0.0
H667 H 0.15338 0.62613 0.44243 0.0
H668 H 0.1287 0.65069 0.41808 0.0
H669 H 0.11863 0.71871 0.44799 0.0
H670 H 0.0694 0.79883 0.37702 0.0
H671 H 0.09708 0.77316 0.39531 0.0
H672 H 0.10813 0.70531 0.36049 0.0
C673 C 0.14117 0.65842 0.43002 0.0
C674 C 0.11657 0.71569 0.42888 0.0
C675 C 0.15531 0.6444 0.44397 0.0
C676 C 0.06927 0.78109 0.37173 0.0
C677 C 0.08502 0.76633 0.38234 0.0
C678 C 0.11013 0.70829 0.37961 0.0
C679 C 0.14278 0.68219 0.43192 0.0
C680 C 0.1275 0.69721 0.41771 0.0
C681 C 0.08472 0.74298 0.37689 0.0
C682 C 0.09944 0.72699 0.39076 0.0
H683 H 0.18573 0.6856 0.47324 0.0
H684 H 0.16074 0.70994 0.44939 0.0
H685 H 0.13236 0.67943 0.38392 0.0
H686 H 0.04137 0.74322 0.33558 0.0
H687 H 0.06863 0.71714 0.35465 0.0
C688 C 0.65612 0.84976 0.94466 0.0
C689 C 0.6721 0.83977 0.96048 0.0
C690 C 0.64151 0.8362 0.93075 0.0
C691 C 0.61502 0.77987 0.92982 0.0
H692 H 0.60651 0.79027 0.86146 0.0
C693 C 0.56571 0.71566 0.87298 0.0
C694 C 0.54996 0.72406 0.85602 0.0
C695 C 0.58166 0.7301 0.88373 0.0
C696 C 0.6085 0.78731 0.88058 0.0
H697 H 0.68557 0.8076 0.97353 0.0
H698 H 0.65972 0.78407 0.94976 0.0
H699 H 0.63177 0.81537 0.88463 0.0
H700 H 0.5392 0.75394 0.83617 0.0
H701 H 0.56681 0.77949 0.85551 0.0
H702 H 0.59156 0.75223 0.92618 0.0
C703 C 0.65841 0.8024 0.94828 0.0
C704 C 0.62297 0.80165 0.89381 0.0
C705 C 0.67314 0.81591 0.96199 0.0
C706 C 0.5512 0.74703 0.84916 0.0
C707 C 0.56703 0.76162 0.86022 0.0
C708 C 0.60046 0.76571 0.91672 0.0
C709 C 0.64243 0.81239 0.93256 0.0
C710 C 0.62654 0.79788 0.91851 0.0
C711 C 0.58203 0.7534 0.87811 0.0
C712 C 0.59723 0.76904 0.89187 0.0
H713 H 0.65465 0.86808 0.94325 0.0
H714 H 0.62917 0.84433 0.91895 0.0
H715 H 0.61711 0.77684 0.94893 0.0
H716 H 0.56541 0.69793 0.87832 0.0
H717 H 0.59343 0.72302 0.89685 0.0
C718 C 0.3348 0.17195 0.4665 0.0
C719 C 0.31843 0.15771 0.45557 0.0
C720 C 0.34855 0.18625 0.45258 0.0
C721 C 0.37404 0.19389 0.3937 0.0
H722 H 0.37672 0.25755 0.41176 0.0
C723 C 0.43116 0.25903 0.34285 0.0
C724 C 0.44311 0.27449 0.35755 0.0
C725 C 0.41386 0.24523 0.35256 0.0
C726 C 0.37635 0.2398 0.40658 0.0
H727 H 0.30395 0.14729 0.42123 0.0
H728 H 0.3287 0.17172 0.39695 0.0
H729 H 0.35129 0.23188 0.4335 0.0
H730 H 0.44623 0.28746 0.39404 0.0
H731 H 0.41685 0.26327 0.41087 0.0
H732 H 0.39986 0.20152 0.36747 0.0
C733 C 0.33065 0.17179 0.41634 0.0
C734 C 0.36172 0.22516 0.41899 0.0
C735 C 0.3166 0.15772 0.43028 0.0
C736 C 0.43731 0.27593 0.38207 0.0
C737 C 0.42025 0.26211 0.39174 0.0
C738 C 0.38898 0.2085 0.38146 0.0
C739 C 0.3465 0.18638 0.42742 0.0
C740 C 0.36074 0.20202 0.41295 0.0
C741 C 0.40828 0.2466 0.37717 0.0
C742 C 0.39064 0.23154 0.38811 0.0
H743 H 0.33708 0.17205 0.48584 0.0
H744 H 0.36093 0.19714 0.46149 0.0
H745 H 0.37356 0.17606 0.38877 0.0
H746 H 0.43517 0.25755 0.32387 0.0
H747 H 0.40483 0.23359 0.34081 0.0
C748 C 0.31944 0.84842 0.91937 0.0
C749 C 0.31971 0.84986 0.94467 0.0
C750 C 0.33366 0.83299 0.90735 0.0
C751 C 0.36422 0.77924 0.91593 0.0
H752 H 0.40227 0.79872 0.86247 0.0
C753 C 0.43921 0.72506 0.88184 0.0
C754 C 0.44427 0.72464 0.8571 0.0
C755 C 0.42258 0.73979 0.89092 0.0
C756 C 0.39146 0.79288 0.87708 0.0
H757 H 0.33562 0.83645 0.97704 0.0
H758 H 0.36 0.80919 0.95604 0.0
H759 H 0.37598 0.82574 0.88143 0.0
H760 H 0.43544 0.73922 0.82243 0.0
H761 H 0.40595 0.76474 0.83834 0.0
H762 H 0.37942 0.74641 0.91163 0.0
C763 C 0.34863 0.81994 0.94559 0.0
C764 C 0.37649 0.8084 0.88798 0.0
C765 C 0.33461 0.83552 0.95761 0.0
C766 C 0.43203 0.73917 0.8416 0.0
C767 C 0.41521 0.75388 0.85073 0.0
C768 C 0.37898 0.7637 0.90492 0.0
C769 C 0.34825 0.81849 0.92037 0.0
C770 C 0.36304 0.8018 0.90778 0.0
C771 C 0.41036 0.7544 0.87553 0.0
C772 C 0.39312 0.77043 0.88566 0.0
H773 H 0.30791 0.8589 0.90883 0.0
H774 H 0.3329 0.83206 0.8879 0.0
H775 H 0.35372 0.77362 0.93089 0.0
H776 H 0.44836 0.71427 0.89439 0.0
H777 H 0.41967 0.74005 0.91018 0.0
C778 C 0.65809 0.16669 0.4651 0.0
C779 C 0.6758 0.15469 0.45351 0.0
C780 C 0.64229 0.17938 0.4518 0.0
C781 C 0.63377 0.2068 0.39251 0.0
H782 H 0.57043 0.20942 0.41405 0.0
C783 C 0.5603 0.25567 0.34272 0.0
C784 C 0.54763 0.27022 0.35783 0.0
C785 C 0.57611 0.24024 0.35251 0.0
C786 C 0.58807 0.20882 0.40784 0.0
H787 H 0.69089 0.14682 0.41876 0.0
H788 H 0.66284 0.16837 0.3955 0.0
H789 H 0.59752 0.18454 0.43465 0.0
H790 H 0.5417 0.27994 0.39507 0.0
H791 H 0.5689 0.253 0.41192 0.0
H792 H 0.62403 0.23115 0.36559 0.0
C793 C 0.66137 0.16823 0.41492 0.0
C794 C 0.60363 0.19469 0.4197 0.0
C795 C 0.67728 0.15564 0.42826 0.0
C796 C 0.55116 0.26906 0.38284 0.0
C797 C 0.56663 0.25351 0.39257 0.0
C798 C 0.61809 0.2208 0.38046 0.0
C799 C 0.64367 0.18025 0.42654 0.0
C800 C 0.62679 0.19388 0.41255 0.0
C801 C 0.57915 0.23887 0.37755 0.0
C802 C 0.59523 0.22229 0.38838 0.0
H803 H 0.65626 0.16613 0.48448 0.0
H804 H 0.62912 0.18872 0.4614 0.0
H805 H 0.65151 0.20673 0.38663 0.0
H806 H 0.55802 0.2562 0.32338 0.0
H807 H 0.5856 0.22909 0.34058 0.0
C808 C 0.33452 0.49492 0.95293 0.0
C809 C 0.31075 0.49609 0.94859 0.0
C810 C 0.34947 0.5104 0.94221 0.0
C811 C 0.3555 0.54971 0.89134 0.0
H812 H 0.40472 0.57465 0.93034 0.0
C813 C 0.4347 0.59557 0.85128 0.0
C814 C 0.44328 0.61459 0.86375 0.0
C815 C 0.41695 0.58251 0.86105 0.0
C816 C 0.39094 0.56805 0.91924 0.0
H817 H 0.28406 0.51432 0.92935 0.0
H818 H 0.31035 0.54146 0.91042 0.0
H819 H 0.37648 0.54955 0.94867 0.0
H820 H 0.43934 0.63512 0.89601 0.0
H821 H 0.40838 0.61242 0.91288 0.0
H822 H 0.37003 0.56834 0.8619 0.0
C823 C 0.31733 0.52843 0.92211 0.0
C824 C 0.37491 0.55347 0.9297 0.0
C825 C 0.3023 0.51291 0.93293 0.0
C826 C 0.43334 0.62049 0.88597 0.0
C827 C 0.41562 0.60743 0.89572 0.0
C828 C 0.37162 0.56429 0.88084 0.0
C829 C 0.34105 0.52741 0.92681 0.0
C830 C 0.35717 0.54394 0.91582 0.0
C831 C 0.40739 0.58816 0.8835 0.0
C832 C 0.38961 0.57347 0.89466 0.0
H833 H 0.34167 0.48182 0.96441 0.0
H834 H 0.36771 0.50886 0.94577 0.0
H835 H 0.34208 0.54252 0.88018 0.0
H836 H 0.44189 0.59055 0.8341 0.0
H837 H 0.41113 0.56762 0.85132 0.0
C838 C 0.66224 0.49929 0.45108 0.0
C839 C 0.68612 0.49754 0.44769 0.0
C840 C 0.64732 0.48415 0.43983 0.0
C841 C 0.64184 0.4447 0.38904 0.0
H842 H 0.59135 0.4208 0.42693 0.0
C843 C 0.56247 0.39961 0.34776 0.0
C844 C 0.55339 0.38093 0.36039 0.0
C845 C 0.58039 0.41246 0.35758 0.0
C846 C 0.60547 0.42711 0.41614 0.0
H847 H 0.71302 0.47866 0.42947 0.0
H848 H 0.68673 0.45207 0.40961 0.0
H849 H 0.61956 0.44552 0.44583 0.0
H850 H 0.55673 0.36063 0.39289 0.0
H851 H 0.58793 0.38291 0.4098 0.0
H852 H 0.62764 0.42614 0.35932 0.0
C853 C 0.67968 0.4653 0.421 0.0
C854 C 0.6215 0.44147 0.42691 0.0
C855 C 0.6947 0.48049 0.43236 0.0
C856 C 0.56307 0.37505 0.38274 0.0
C857 C 0.58095 0.38785 0.39251 0.0
C858 C 0.6257 0.43033 0.3782 0.0
C859 C 0.65585 0.46689 0.42482 0.0
C860 C 0.63971 0.45061 0.41345 0.0
C861 C 0.58958 0.4069 0.38023 0.0
C862 C 0.60728 0.4215 0.39163 0.0
H863 H 0.65501 0.51261 0.46224 0.0
H864 H 0.62901 0.48611 0.4427 0.0
H865 H 0.65564 0.45161 0.3782 0.0
H866 H 0.55548 0.40459 0.33048 0.0
H867 H 0.58656 0.42716 0.34778 0.0
C868 C 0.67933 0.49932 0.9342 0.0
C869 C 0.68348 0.50404 0.95862 0.0
C870 C 0.66606 0.51409 0.92027 0.0
C871 C 0.64111 0.57211 0.91835 0.0
H872 H 0.59332 0.54304 0.88064 0.0
C873 C 0.56019 0.61956 0.88632 0.0
C874 C 0.55139 0.61458 0.86333 0.0
C875 C 0.57844 0.60702 0.89577 0.0
C876 C 0.60679 0.55145 0.89073 0.0
H877 H 0.67803 0.52856 0.98721 0.0
H878 H 0.65451 0.55417 0.96301 0.0
H879 H 0.6221 0.51979 0.90079 0.0
H880 H 0.55527 0.59269 0.8321 0.0
H881 H 0.58722 0.57087 0.84865 0.0
H882 H 0.62544 0.60377 0.90866 0.0
C883 C 0.66163 0.53912 0.95458 0.0
C884 C 0.62331 0.53812 0.90228 0.0
C885 C 0.67489 0.52433 0.96852 0.0
C886 C 0.5615 0.59691 0.84993 0.0
C887 C 0.57977 0.58435 0.85942 0.0
C888 C 0.62458 0.58545 0.90679 0.0
C889 C 0.65666 0.53391 0.93044 0.0
C890 C 0.64045 0.54828 0.9165 0.0
C891 C 0.58837 0.5892 0.8825 0.0
C892 C 0.60703 0.57524 0.89316 0.0
H893 H 0.68553 0.48373 0.92607 0.0
H894 H 0.66276 0.50976 0.90163 0.0
H895 H 0.65431 0.58044 0.92889 0.0
H896 H 0.55288 0.63305 0.89716 0.0
H897 H 0.58444 0.61097 0.91375 0.0
C898 C 0.30778 0.49629 0.41643 0.0
C899 C 0.302 0.49245 0.44065 0.0
C900 C 0.3231 0.48184 0.40455 0.0
C901 C 0.35148 0.4255 0.40797 0.0
H902 H 0.3999 0.45538 0.37191 0.0
C903 C 0.43556 0.38002 0.3823 0.0
C904 C 0.44488 0.38412 0.35934 0.0
C905 C 0.41681 0.39259 0.39058 0.0
C906 C 0.38632 0.44673 0.3816 0.0
H907 H 0.30682 0.46978 0.47101 0.0
H908 H 0.33384 0.44476 0.4504 0.0
H909 H 0.36872 0.47792 0.38888 0.0
H910 H 0.44161 0.40471 0.32708 0.0
H911 H 0.40879 0.42659 0.34158 0.0
H912 H 0.36931 0.39433 0.40099 0.0
C913 C 0.32645 0.45886 0.44054 0.0
C914 C 0.36843 0.45964 0.3913 0.0
C915 C 0.31114 0.47332 0.45242 0.0
C916 C 0.43498 0.40116 0.34491 0.0
C917 C 0.4162 0.41376 0.35322 0.0
C918 C 0.36937 0.41257 0.39825 0.0
C919 C 0.33295 0.46323 0.41661 0.0
C920 C 0.35095 0.44921 0.40483 0.0
C921 C 0.40688 0.40956 0.37614 0.0
C922 C 0.38715 0.42309 0.38522 0.0
H923 H 0.3012 0.51099 0.4069 0.0
H924 H 0.32756 0.48548 0.38602 0.0
H925 H 0.33808 0.41693 0.41801 0.0
H926 H 0.44272 0.36706 0.39395 0.0
H927 H 0.41028 0.3892 0.40848 0.0
C928 C 0.81046 0.02149 0.95771 0.0
C929 C 0.8021 0.00229 0.94545 0.0
C930 C 0.82574 0.0364 0.94645 0.0
C931 C 0.86904 0.03683 0.89854 0.0
H932 H 0.86767 0.10224 0.90752 0.0
C933 C 0.93352 0.096 0.85104 0.0
C934 C 0.94297 0.11377 0.86481 0.0
C935 C 0.9151 0.08326 0.85982 0.0
C936 C 0.86838 0.08398 0.90502 0.0
H937 H 0.80266 0.98407 0.91149 0.0
H938 H 0.82897 0.01033 0.89171 0.0
H939 H 0.83696 0.07883 0.92437 0.0
H940 H 0.94026 0.13211 0.89862 0.0
H941 H 0.90837 0.10962 0.91405 0.0
H942 H 0.90058 0.04184 0.87957 0.0
C943 C 0.82393 0.01369 0.91014 0.0
C944 C 0.85078 0.0706 0.91463 0.0
C945 C 0.80863 -0.00119 0.92138 0.0
C946 C 0.93343 0.11857 0.88751 0.0
C947 C 0.91502 0.10578 0.8963 0.0
C948 C 0.88663 0.05019 0.88898 0.0
C949 C 0.833 0.03239 0.9227 0.0
C950 C 0.85099 0.04686 0.91158 0.0
C951 C 0.9057 0.08793 0.88259 0.0
C952 C 0.88658 0.0739 0.89221 0.0
H953 H 0.80554 0.02475 0.9762 0.0
H954 H 0.83252 0.05059 0.95666 0.0
H955 H 0.86993 0.01855 0.89626 0.0
H956 H 0.94028 0.09192 0.8334 0.0
H957 H 0.9081 0.06983 0.84866 0.0
C958 C 0.18963 0.96967 0.45764 0.0
C959 C 0.19768 0.98894 0.44531 0.0
C960 C 0.17409 0.95485 0.44666 0.0
C961 C 0.14782 0.9387 0.38825 0.0
H962 H 0.09597 0.92218 0.42845 0.0
C963 C 0.06349 0.90024 0.35037 0.0
C964 C 0.05345 0.88251 0.3637 0.0
C965 C 0.08223 0.91233 0.35961 0.0
C966 C 0.11045 0.92639 0.41704 0.0
H967 H 0.19645 0.0073 0.41149 0.0
H968 H 0.1693 0.98147 0.39234 0.0
H969 H 0.12759 0.94376 0.44563 0.0
H970 H 0.05557 0.86341 0.39712 0.0
H971 H 0.08814 0.88432 0.413 0.0
H972 H 0.13039 0.92148 0.35956 0.0
C973 C 0.17518 0.97765 0.41039 0.0
C974 C 0.12862 0.93871 0.42692 0.0
C975 C 0.19077 0.99245 0.42136 0.0
C976 C 0.06269 0.87707 0.38638 0.0
C977 C 0.08135 0.88912 0.39557 0.0
C978 C 0.12958 0.92635 0.37834 0.0
C979 C 0.16621 0.95903 0.42315 0.0
C980 C 0.14751 0.94503 0.41266 0.0
C981 C 0.09127 0.90695 0.38237 0.0
C982 C 0.1107 0.92007 0.39266 0.0
H983 H 0.19493 0.96635 0.47599 0.0
H984 H 0.16785 0.94037 0.45678 0.0
H985 H 0.16222 0.94317 0.37685 0.0
H986 H 0.05685 0.90486 0.33282 0.0
H987 H 0.08938 0.92614 0.34911 0.0
C988 C 0.17927 0.03038 0.97315 0.0
C989 C 0.18773 0.01013 0.96299 0.0
C990 C 0.16521 0.04492 0.95974 0.0
C991 C 0.12493 0.04256 0.909 0.0
H992 H 0.12538 0.10832 0.9144 0.0
C993 C 0.06214 0.09862 0.85514 0.0
C994 C 0.05149 0.11647 0.8678 0.0
C995 C 0.08055 0.08674 0.86528 0.0
C996 C 0.12497 0.08995 0.91285 0.0
H997 H 0.18879 0.9898 0.93039 0.0
H998 H 0.16486 0.01542 0.90688 0.0
H999 H 0.15525 0.08601 0.93441 0.0
H1000 H 0.05217 0.13599 0.90099 0.0
H1001 H 0.08404 0.11505 0.91874 0.0
H1002 H 0.09452 0.04638 0.88783 0.0
C1003 C 0.16877 0.01987 0.92535 0.0
C1004 C 0.14208 0.0772 0.92427 0.0
C1005 C 0.18276 0.00534 0.93875 0.0
C1006 C 0.0599 0.12233 0.89072 0.0
C1007 C 0.07832 0.11044 0.90084 0.0
C1008 C 0.10788 0.05528 0.89759 0.0
C1009 C 0.15934 0.03951 0.93588 0.0
C1010 C 0.14214 0.05334 0.92261 0.0
C1011 C 0.08875 0.09243 0.8883 0.0
C1012 C 0.10758 0.07911 0.89954 0.0
H1013 H 0.18303 0.03471 0.99169 0.0
H1014 H 0.15815 0.05986 0.96843 0.0
H1015 H 0.1242 0.02418 0.90774 0.0
H1016 H 0.05626 0.09373 0.83738 0.0
H1017 H 0.08842 0.07314 0.85503 0.0
C1018 C 0.80469 0.9661 0.45694 0.0
C1019 C 0.79766 0.98553 0.44419 0.0
C1020 C 0.82018 0.95074 0.44668 0.0
C1021 C 0.84818 0.93381 0.38933 0.0
H1022 H 0.89852 0.91654 0.43129 0.0
C1023 C 0.93401 0.89802 0.35345 0.0
C1024 C 0.94424 0.88006 0.3663 0.0
C1025 C 0.91476 0.90928 0.36263 0.0
C1026 C 0.88444 0.92092 0.41941 0.0
H1027 H 0.80064 0.00363 0.41033 0.0
H1028 H 0.82766 0.97688 0.39244 0.0
H1029 H 0.86634 0.93805 0.44753 0.0
H1030 H 0.94203 0.8598 0.39891 0.0
H1031 H 0.90845 0.87939 0.41481 0.0
H1032 H 0.8666 0.91698 0.36109 0.0
C1033 C 0.82103 0.97334 0.41026 0.0
C1034 C 0.86595 0.93321 0.42873 0.0
C1035 C 0.80551 0.98867 0.4205 0.0
C1036 C 0.93472 0.87364 0.38856 0.0
C1037 C 0.91549 0.88491 0.39774 0.0
C1038 C 0.86672 0.92151 0.37999 0.0
C1039 C 0.829 0.95452 0.42347 0.0
C1040 C 0.84769 0.93997 0.41377 0.0
C1041 C 0.9053 0.90285 0.38488 0.0
C1042 C 0.88515 0.91512 0.39489 0.0
H1043 H 0.79866 0.96307 0.4751 0.0
H1044 H 0.82564 0.93616 0.45713 0.0
H1045 H 0.83425 0.93853 0.3774 0.0
H1046 H 0.94084 0.90342 0.33624 0.0
H1047 H 0.90748 0.92324 0.35245 0.0
C1048 C 0.30934 0.39096 0.14572 0.0
C1049 C 0.30306 0.3775 0.1259 0.0
C1050 C 0.32266 0.3819 0.16427 0.0
C1051 C 0.3657 0.33721 0.17399 0.0
H1052 H 0.36254 0.3588 0.23984 0.0
C1053 C 0.43422 0.31476 0.24641 0.0
C1054 C 0.44262 0.33375 0.25909 0.0
C1055 C 0.41477 0.31675 0.2317 0.0
C1056 C 0.3636 0.35259 0.22152 0.0
H1057 H 0.30471 0.34356 0.11068 0.0
H1058 H 0.32761 0.32755 0.1434 0.0
H1059 H 0.33136 0.3676 0.212 0.0
H1060 H 0.43689 0.36961 0.26645 0.0
H1061 H 0.40316 0.37295 0.24095 0.0
H1062 H 0.39821 0.32261 0.18347 0.0
C1063 C 0.32255 0.34526 0.14436 0.0
C1064 C 0.34577 0.35765 0.20556 0.0
C1065 C 0.3092 0.35436 0.12576 0.0
C1066 C 0.43102 0.35464 0.25687 0.0
C1067 C 0.41152 0.35653 0.24244 0.0
C1068 C 0.38347 0.33203 0.19001 0.0
C1069 C 0.32997 0.3591 0.16349 0.0
C1070 C 0.34693 0.35061 0.18141 0.0
C1071 C 0.40317 0.33765 0.22969 0.0
C1072 C 0.38292 0.34026 0.21373 0.0
H1073 H 0.30461 0.40878 0.14649 0.0
H1074 H 0.32819 0.39314 0.17858 0.0
H1075 H 0.36731 0.33173 0.15546 0.0
H1076 H 0.44272 0.29842 0.24774 0.0
H1077 H 0.40867 0.3019 0.22207 0.0
C1078 C 0.68229 0.6054 0.64369 0.0
C1079 C 0.68808 0.61872 0.62361 0.0
C1080 C 0.66924 0.61455 0.6624 0.0
C1081 C 0.62604 0.65887 0.67284 0.0
H1082 H 0.63188 0.63882 0.73903 0.0
C1083 C 0.55929 0.68149 0.74691 0.0
C1084 C 0.55176 0.66261 0.76031 0.0
C1085 C 0.57841 0.67966 0.73171 0.0
C1086 C 0.63007 0.6446 0.72061 0.0
H1087 H 0.68569 0.65243 0.60796 0.0
H1088 H 0.66319 0.66857 0.64092 0.0
H1089 H 0.66215 0.62978 0.71018 0.0
H1090 H 0.55875 0.62713 0.76852 0.0
H1091 H 0.59185 0.62405 0.74216 0.0
H1092 H 0.59366 0.6732 0.68322 0.0
C1093 C 0.66848 0.65093 0.642 0.0
C1094 C 0.64737 0.6394 0.70409 0.0
C1095 C 0.68158 0.64176 0.62325 0.0
C1096 C 0.56394 0.64201 0.7584 0.0
C1097 C 0.5831 0.64027 0.74346 0.0
C1098 C 0.60877 0.66416 0.68942 0.0
C1099 C 0.66169 0.63727 0.66151 0.0
C1100 C 0.64524 0.64588 0.67984 0.0
C1101 C 0.59053 0.65903 0.72992 0.0
C1102 C 0.6103 0.65647 0.71329 0.0
H1103 H 0.6873 0.58767 0.64462 0.0
H1104 H 0.66416 0.60346 0.67702 0.0
H1105 H 0.62372 0.66392 0.65426 0.0
H1106 H 0.55032 0.69761 0.74799 0.0
H1107 H 0.58381 0.6944 0.72148 0.0
C1108 C 0.66378 0.35967 0.11158 0.0
C1109 C 0.68764 0.36074 0.11523 0.0
C1110 C 0.64927 0.35195 0.12977 0.0
C1111 C 0.62301 0.32531 0.16742 0.0
H1112 H 0.63125 0.35272 0.2303 0.0
C1113 C 0.55947 0.30993 0.24605 0.0
C1114 C 0.55233 0.3298 0.25805 0.0
C1115 C 0.57802 0.31053 0.23002 0.0
C1116 C 0.62878 0.34486 0.21286 0.0
H1117 H 0.71512 0.35404 0.14056 0.0
H1118 H 0.68958 0.34058 0.17267 0.0
H1119 H 0.66006 0.35888 0.19905 0.0
H1120 H 0.55948 0.36579 0.26285 0.0
H1121 H 0.59155 0.36678 0.23493 0.0
H1122 H 0.59126 0.31207 0.18091 0.0
C1123 C 0.68219 0.3458 0.15566 0.0
C1124 C 0.64539 0.34819 0.19505 0.0
C1125 C 0.69679 0.35336 0.13729 0.0
C1126 C 0.56439 0.35016 0.2539 0.0
C1127 C 0.58296 0.35071 0.23804 0.0
C1128 C 0.60645 0.32189 0.18527 0.0
C1129 C 0.65825 0.3452 0.15212 0.0
C1130 C 0.64238 0.33895 0.17195 0.0
C1131 C 0.58993 0.33095 0.22583 0.0
C1132 C 0.60887 0.33212 0.20797 0.0
H1133 H 0.65629 0.36499 0.09463 0.0
H1134 H 0.6309 0.35196 0.12657 0.0
H1135 H 0.62036 0.31776 0.14985 0.0
H1136 H 0.55063 0.29394 0.24886 0.0
H1137 H 0.58308 0.29501 0.22094 0.0
C1138 C 0.31762 0.59867 0.63816 0.0
C1139 C 0.31086 0.61235 0.61868 0.0
C1140 C 0.33047 0.60782 0.65703 0.0
C1141 C 0.37127 0.65378 0.66953 0.0
H1142 H 0.36417 0.63311 0.73537 0.0
C1143 C 0.43455 0.67917 0.74589 0.0
C1144 C 0.44225 0.66073 0.75988 0.0
C1145 C 0.41603 0.67651 0.73 0.0
C1146 C 0.36637 0.63905 0.71706 0.0
H1147 H 0.3117 0.64655 0.60408 0.0
H1148 H 0.33399 0.66262 0.63725 0.0
H1149 H 0.3355 0.62269 0.70531 0.0
H1150 H 0.43612 0.62517 0.76842 0.0
H1151 H 0.40419 0.62063 0.74085 0.0
H1152 H 0.40251 0.66961 0.6812 0.0
C1153 C 0.32949 0.64476 0.63778 0.0
C1154 C 0.34996 0.63306 0.69985 0.0
C1155 C 0.31653 0.6356 0.61892 0.0
C1156 C 0.43079 0.63975 0.75789 0.0
C1157 C 0.41228 0.63717 0.74223 0.0
C1158 C 0.38769 0.6598 0.68678 0.0
C1159 C 0.33691 0.63087 0.65686 0.0
C1160 C 0.35255 0.63984 0.67575 0.0
C1161 C 0.40472 0.65546 0.72803 0.0
C1162 C 0.38573 0.65195 0.71057 0.0
H1163 H 0.3133 0.58075 0.63861 0.0
H1164 H 0.3361 0.59658 0.67131 0.0
H1165 H 0.37389 0.65911 0.65108 0.0
H1166 H 0.44296 0.69557 0.74701 0.0
H1167 H 0.41052 0.69093 0.71932 0.0
C1168 C 0.81505 0.89513 0.14213 0.0
C1169 C 0.80881 0.88132 0.12256 0.0
C1170 C 0.82801 0.88627 0.16109 0.0
C1171 C 0.87003 0.84127 0.17333 0.0
H1172 H 0.86332 0.86227 0.23912 0.0
C1173 C 0.93472 0.8173 0.2487 0.0
C1174 C 0.94234 0.83587 0.26256 0.0
C1175 C 0.91591 0.81965 0.23316 0.0
C1176 C 0.86541 0.85626 0.22082 0.0
H1177 H 0.8105 0.84713 0.10799 0.0
H1178 H 0.8329 0.83155 0.14133 0.0
H1179 H 0.83402 0.87188 0.20939 0.0
H1180 H 0.93572 0.87132 0.27127 0.0
H1181 H 0.90322 0.87533 0.24426 0.0
H1182 H 0.90174 0.82617 0.18466 0.0
C1183 C 0.82797 0.84931 0.14185 0.0
C1184 C 0.84865 0.86177 0.2038 0.0
C1185 C 0.81494 0.85818 0.12288 0.0
C1186 C 0.93046 0.85665 0.26082 0.0
C1187 C 0.91163 0.85893 0.24549 0.0
C1188 C 0.88679 0.83572 0.19039 0.0
C1189 C 0.83504 0.86338 0.16093 0.0
C1190 C 0.85107 0.85486 0.17971 0.0
C1191 C 0.9042 0.84052 0.23139 0.0
C1192 C 0.88496 0.84368 0.21416 0.0
H1193 H 0.81035 0.91296 0.14254 0.0
H1194 H 0.83332 0.89766 0.17537 0.0
H1195 H 0.87256 0.83588 0.15489 0.0
H1196 H 0.94344 0.80105 0.24963 0.0
H1197 H 0.91049 0.80514 0.22258 0.0
C1198 C 0.17593 0.13711 0.61828 0.0
C1199 C 0.18318 0.11429 0.61857 0.0
C1200 C 0.16295 0.14596 0.63728 0.0
C1201 C 0.14468 0.1346 0.70023 0.0
H1202 H 0.08985 0.16792 0.68187 0.0
C1203 C 0.0646 0.13922 0.75997 0.0
C1204 C 0.05221 0.15973 0.7614 0.0
C1205 C 0.08301 0.13697 0.74409 0.0
C1206 C 0.10529 0.15901 0.68736 0.0
H1207 H 0.18354 0.08323 0.63958 0.0
H1208 H 0.16057 0.09846 0.67245 0.0
H1209 H 0.11831 0.15813 0.65138 0.0
H1210 H 0.04976 0.1941 0.74739 0.0
H1211 H 0.08197 0.19004 0.71939 0.0
H1212 H 0.13121 0.1348 0.73608 0.0
C1213 C 0.16502 0.10962 0.65767 0.0
C1214 C 0.12163 0.15341 0.66989 0.0
C1215 C 0.17796 0.10079 0.63869 0.0
C1216 C 0.0589 0.17806 0.74672 0.0
C1217 C 0.07728 0.17573 0.73064 0.0
C1218 C 0.12832 0.14014 0.71767 0.0
C1219 C 0.157 0.13219 0.65699 0.0
C1220 C 0.14124 0.14066 0.67603 0.0
C1221 C 0.08947 0.15512 0.72913 0.0
C1222 C 0.10818 0.15191 0.71131 0.0
H1223 H 0.17955 0.14792 0.60296 0.0
H1224 H 0.15724 0.16348 0.63634 0.0
H1225 H 0.15982 0.12516 0.70563 0.0
H1226 H 0.06004 0.12476 0.77106 0.0
H1227 H 0.09182 0.12076 0.74311 0.0
C1228 C 0.18221 0.84576 0.12121 0.0
C1229 C 0.19175 0.8677 0.11998 0.0
C1230 C 0.16669 0.84016 0.13954 0.0
C1231 C 0.1246 0.86832 0.17809 0.0
H1232 H 0.1227 0.81162 0.21369 0.0
C1233 C 0.06263 0.85668 0.25684 0.0
C1234 C 0.05123 0.83573 0.25938 0.0
C1235 C 0.08058 0.85914 0.24047 0.0
C1236 C 0.12286 0.82742 0.20367 0.0
H1237 H 0.194 0.90033 0.13803 0.0
H1238 H 0.16695 0.89061 0.16987 0.0
H1239 H 0.15355 0.81825 0.18449 0.0
H1240 H 0.05015 0.80078 0.24688 0.0
H1241 H 0.08135 0.80526 0.21775 0.0
H1242 H 0.09388 0.87748 0.19669 0.0
C1243 C 0.17106 0.87789 0.15643 0.0
C1244 C 0.14055 0.83123 0.18704 0.0
C1245 C 0.18655 0.88345 0.13822 0.0
C1246 C 0.05853 0.81716 0.24534 0.0
C1247 C 0.07649 0.81969 0.22875 0.0
C1248 C 0.10692 0.86448 0.1945 0.0
C1249 C 0.16044 0.85644 0.15688 0.0
C1250 C 0.14172 0.85186 0.17433 0.0
C1251 C 0.08755 0.84081 0.22597 0.0
C1252 C 0.10596 0.84413 0.20774 0.0
H1253 H 0.18577 0.83331 0.10733 0.0
H1254 H 0.15872 0.82352 0.13941 0.0
H1255 H 0.12471 0.88415 0.16812 0.0
H1256 H 0.05776 0.87128 0.26759 0.0
H1257 H 0.08906 0.8755 0.23924 0.0
C1258 C 0.82031 0.13232 0.61705 0.0
C1259 C 0.81111 0.1102 0.61736 0.0
C1260 C 0.8343 0.13989 0.63592 0.0
C1261 C 0.8735 0.11595 0.68055 0.0
H1262 H 0.87375 0.17623 0.70893 0.0
C1263 C 0.93165 0.13597 0.76033 0.0
C1264 C 0.94359 0.15676 0.76039 0.0
C1265 C 0.91405 0.13201 0.74389 0.0
C1266 C 0.87402 0.15941 0.70097 0.0
H1267 H 0.8077 0.07943 0.63854 0.0
H1268 H 0.83201 0.09262 0.67142 0.0
H1269 H 0.84462 0.1664 0.67877 0.0
H1270 H 0.94582 0.19 0.74364 0.0
H1271 H 0.91519 0.18282 0.71435 0.0
H1272 H 0.90295 0.10891 0.70213 0.0
C1273 C 0.82888 0.10392 0.65637 0.0
C1274 C 0.85732 0.15378 0.68379 0.0
C1275 C 0.81495 0.09638 0.63757 0.0
C1276 C 0.93699 0.17379 0.744 0.0
C1277 C 0.91939 0.16971 0.72731 0.0
C1278 C 0.89016 0.12157 0.69752 0.0
C1279 C 0.83931 0.12545 0.65539 0.0
C1280 C 0.85678 0.13188 0.67361 0.0
C1281 C 0.908 0.1486 0.72683 0.0
C1282 C 0.89051 0.14326 0.70817 0.0
H1283 H 0.81774 0.14331 0.60163 0.0
H1284 H 0.84216 0.15654 0.63464 0.0
H1285 H 0.87392 0.09913 0.67257 0.0
H1286 H 0.93594 0.12262 0.77299 0.0
H1287 H 0.90525 0.11579 0.74446 0.0
loop_
_geom_bond_atom_site_label_1
_geom_bond_atom_site_label_2
_geom_bond_distance
_geom_bond_site_symmetry_2
_ccdc_geom_bond_type
C0 C1 1.391 . S
C0 C4 1.391 . S
C0 H42 0.948 . S
C1 C0 1.391 . S
C1 C2 1.391 . S
C2 C1 1.391 . S
C2 H58 0.947 . S
C2 C59 1.392 . S
C3 C4 1.391 . S
C3 C7 1.397 . S
C3 C59 1.419 . S
C4 C0 1.391 . S
C4 C3 1.391 . S
C4 C5 1.399 . S
C5 C4 1.399 . S
C5 C8 1.396 . S
C5 C17 1.453 . S
C5 C18 1.684 . S
H6 C30 0.948 . S
C7 C3 1.397 . S
C7 C8 1.394 . S
C7 C26 1.723 . S
C8 C5 1.396 . S
C8 C7 1.394 . S
C8 C38 1.723 . S
H9 C32 0.947 1_554 S
H10 C33 0.948 . S
H11 C39 0.982 . S
H12 C40 0.979 . S
H13 C40 0.980 . S
H14 C40 0.983 . S
H15 C39 0.979 . S
H16 C39 0.977 . S
C17 C5 1.453 . S
C17 H46 0.982 . S
C17 H47 0.979 . S
C17 H48 0.977 . S
C18 C5 1.684 . S
C18 H43 0.979 . S
C18 H44 0.980 . S
C18 H45 0.983 . S
C19 C20 1.391 . S
C19 C24 1.391 . S
C19 H49 0.948 . S
C20 C19 1.391 . S
C20 C21 1.391 . S
C21 C20 1.391 . S
C21 C22 1.392 . S
C21 H50 0.947 . S
C22 C21 1.392 . S
C22 C23 1.419 . S
C22 H51 0.948 . S
C23 C22 1.419 . S
C23 C24 1.391 . S
C23 C27 1.397 . S
C24 C19 1.391 . S
C24 C23 1.391 . S
C24 C25 1.399 1_556 S
C25 C24 1.399 1_554 S
C25 C26 1.396 . S
C25 C28 1.453 . S
C25 C29 1.684 . S
C26 C7 1.723 . S
C26 C25 1.396 . S
C26 C27 1.394 1_554 S
C27 C23 1.397 . S
C27 C26 1.394 1_556 S
C27 C37 1.723 . S
C28 C25 1.453 . S
C28 H52 0.982 . S
C28 H53 0.979 . S
C28 H54 0.977 . S
C29 C25 1.684 . S
C29 H55 0.979 . S
C29 H56 0.980 . S
C29 H57 0.983 . S
C30 H6 0.948 . S
C30 C31 1.391 . S
C30 C35 1.391 . S
C31 C30 1.391 . S
C31 C32 1.391 . S
C32 H9 0.947 1_556 S
C32 C31 1.391 . S
C32 C33 1.392 1_556 S
C33 H10 0.948 . S
C33 C32 1.392 1_554 S
C33 C34 1.419 1_554 S
C34 C33 1.419 1_556 S
C34 C35 1.391 . S
C34 C38 1.397 1_556 S
C35 C30 1.391 . S
C35 C34 1.391 . S
C35 C36 1.399 . S
C36 C35 1.399 . S
C36 C37 1.396 . S
C36 C39 1.453 . S
C36 C40 1.684 . S
C37 C27 1.723 . S
C37 C36 1.396 . S
C37 C38 1.394 1_556 S
C38 C8 1.723 . S
C38 C34 1.397 1_554 S
C38 C37 1.394 1_554 S
C39 H11 0.982 . S
C39 H15 0.979 . S
C39 H16 0.977 . S
C39 C36 1.453 . S
C40 H12 0.979 . S
C40 H13 0.980 . S
C40 H14 0.983 . S
C40 C36 1.684 . S
H41 C59 0.948 . S
H42 C0 0.948 . S
H43 C18 0.979 . S
H44 C18 0.980 . S
H45 C18 0.983 . S
H46 C17 0.982 . S
H47 C17 0.979 . S
H48 C17 0.977 . S
H49 C19 0.948 . S
H50 C21 0.947 . S
H51 C22 0.948 . S
H52 C28 0.982 . S
H53 C28 0.979 . S
H54 C28 0.977 . S
H55 C29 0.979 . S
H56 C29 0.980 . S
H57 C29 0.983 . S
H58 C2 0.947 . S
C59 C2 1.392 . S
C59 C3 1.419 . S
C59 H41 0.948 . S
C60 C61 1.391 . S
C60 C64 1.391 . S
C60 H102 0.948 . S
C61 C60 1.391 . S
C61 C62 1.391 . S
C62 C61 1.391 . S
C62 H118 0.947 . S
C62 C119 1.392 . S
C63 C64 1.391 . S
C63 C67 1.397 . S
C63 C119 1.419 . S
C64 C60 1.391 . S
C64 C63 1.391 . S
C64 C65 1.399 . S
C65 C64 1.399 . S
C65 C68 1.396 . S
C65 C77 1.453 . S
C65 C78 1.684 . S
H66 C90 0.948 . S
C67 C63 1.397 . S
C67 C68 1.394 . S
C67 C86 1.723 . S
C68 C65 1.396 . S
C68 C67 1.394 . S
C68 C98 1.723 . S
H69 C92 0.947 . S
H70 C93 0.948 . S
H71 C99 0.982 . S
H72 C100 0.979 . S
H73 C100 0.980 . S
H74 C100 0.983 . S
H75 C99 0.979 . S
H76 C99 0.977 . S
C77 C65 1.453 . S
C77 H106 0.982 . S
C77 H107 0.979 . S
C77 H108 0.977 . S
C78 C65 1.684 . S
C78 H103 0.979 . S
C78 H104 0.980 . S
C78 H105 0.983 . S
C79 C80 1.391 . S
C79 C84 1.391 . S
C79 H109 0.948 . S
C80 C79 1.391 . S
C80 C81 1.391 . S
C81 C80 1.391 . S
C81 C82 1.392 . S
C81 H110 0.947 . S
C82 C81 1.392 . S
C82 C83 1.419 . S
C82 H111 0.948 . S
C83 C82 1.419 . S
C83 C84 1.391 . S
C83 C87 1.397 . S
C84 C79 1.391 . S
C84 C83 1.391 . S
C84 C85 1.399 . S
C85 C84 1.399 . S
C85 C86 1.396 . S
C85 C88 1.453 . S
C85 C89 1.684 . S
C86 C67 1.723 . S
C86 C85 1.396 . S
C86 C87 1.394 . S
C87 C83 1.397 . S
C87 C86 1.394 . S
C87 C97 1.723 . S
C88 C85 1.453 . S
C88 H112 0.982 . S
C88 H113 0.979 . S
C88 H114 0.977 . S
C89 C85 1.684 . S
C89 H115 0.979 . S
C89 H116 0.980 . S
C89 H117 0.983 . S
C90 H66 0.948 . S
C90 C91 1.391 . S
C90 C95 1.391 . S
C91 C90 1.391 . S
C91 C92 1.391 . S
C92 H69 0.947 . S
C92 C91 1.391 . S
C92 C93 1.392 . S
C93 H70 0.948 . S
C93 C92 1.392 . S
C93 C94 1.419 . S
C94 C93 1.419 . S
C94 C95 1.391 . S
C94 C98 1.397 . S
C95 C90 1.391 . S
C95 C94 1.391 . S
C95 C96 1.399 . S
C96 C95 1.399 . S
C96 C97 1.396 . S
C96 C99 1.453 . S
C96 C100 1.684 . S
C97 C87 1.723 . S
C97 C96 1.396 . S
C97 C98 1.394 . S
C98 C68 1.723 . S
C98 C94 1.397 . S
C98 C97 1.394 . S
C99 H71 0.982 . S
C99 H75 0.979 . S
C99 H76 0.977 . S
C99 C96 1.453 . S
C100 H72 0.979 . S
C100 H73 0.980 . S
C100 H74 0.983 . S
C100 C96 1.684 . S
H101 C119 0.948 . S
H102 C60 0.948 . S
H103 C78 0.979 . S
H104 C78 0.980 . S
H105 C78 0.983 . S
H106 C77 0.982 . S
H107 C77 0.979 . S
H108 C77 0.977 . S
H109 C79 0.948 . S
H110 C81 0.947 . S
H111 C82 0.948 . S
H112 C88 0.982 . S
H113 C88 0.979 . S
H114 C88 0.977 . S
H115 C89 0.979 . S
H116 C89 0.980 . S
H117 C89 0.983 . S
H118 C62 0.947 . S
C119 C62 1.392 . S
C119 C63 1.419 . S
C119 H101 0.948 . S
C120 C121 1.391 . S
C120 C124 1.391 . S
C120 H162 0.948 . S
C121 C120 1.391 . S
C121 C122 1.391 . S
C122 C121 1.391 . S
C122 H178 0.947 . S
C122 C179 1.392 . S
C123 C124 1.391 . S
C123 C127 1.383 1_556 S
C123 C179 1.419 . S
C124 C120 1.391 . S
C124 C123 1.391 . S
C124 C125 1.399 . S
C125 C124 1.399 . S
C125 C128 1.396 . S
C125 C137 1.453 . S
C125 C138 1.684 . S
H126 C150 0.936 1_554 S
C127 C123 1.383 1_554 S
C127 C128 1.375 1_554 S
C127 C146 1.752 . S
C128 C125 1.396 . S
C128 C127 1.375 1_556 S
C128 C158 1.723 . S
H129 C152 0.947 . S
H130 C153 0.948 . S
H131 C159 0.982 . S
H132 C160 0.979 . S
H133 C160 0.980 . S
H134 C160 0.983 . S
H135 C159 0.979 . S
H136 C159 0.977 . S
C137 C125 1.453 . S
C137 H166 0.982 . S
C137 H167 0.979 . S
C137 H168 0.977 . S
C138 C125 1.684 . S
C138 H163 0.979 . S
C138 H164 0.980 . S
C138 H165 0.983 . S
C139 C140 1.391 . S
C139 C144 1.391 . S
C139 H169 0.948 . S
C140 C139 1.391 . S
C140 C141 1.391 . S
C141 C140 1.391 . S
C141 C142 1.392 . S
C141 H170 0.947 . S
C142 C141 1.392 . S
C142 C143 1.419 . S
C142 H171 0.948 . S
C143 C142 1.419 . S
C143 C144 1.391 . S
C143 C147 1.397 . S
C144 C139 1.391 . S
C144 C143 1.391 . S
C144 C145 1.399 . S
C145 C144 1.399 . S
C145 C146 1.396 . S
C145 C148 1.453 . S
C145 C149 1.684 . S
C146 C127 1.752 . S
C146 C145 1.396 . S
C146 C147 1.394 . S
C147 C143 1.397 . S
C147 C146 1.394 . S
C147 C157 1.723 . S
C148 C145 1.453 . S
C148 H172 0.982 . S
C148 H173 0.979 . S
C148 H174 0.977 . S
C149 C145 1.684 . S
C149 H175 0.979 . S
C149 H176 0.980 . S
C149 H177 0.983 . S
C150 H126 0.936 1_556 S
C150 C151 1.391 . S
C150 C155 1.391 . S
C151 C150 1.391 . S
C151 C152 1.391 . S
C152 H129 0.947 . S
C152 C151 1.391 . S
C152 C153 1.392 . S
C153 H130 0.948 . S
C153 C152 1.392 . S
C153 C154 1.419 . S
C154 C153 1.419 . S
C154 C155 1.391 . S
C154 C158 1.397 . S
C155 C150 1.391 . S
C155 C154 1.391 . S
C155 C156 1.399 1_556 S
C156 C155 1.399 1_554 S
C156 C157 1.396 . S
C156 C159 1.453 . S
C156 C160 1.684 . S
C157 C147 1.723 . S
C157 C156 1.396 . S
C157 C158 1.394 1_554 S
C158 C128 1.723 . S
C158 C154 1.397 . S
C158 C157 1.394 1_556 S
C159 H131 0.982 . S
C159 H135 0.979 . S
C159 H136 0.977 . S
C159 C156 1.453 . S
C160 H132 0.979 . S
C160 H133 0.980 . S
C160 H134 0.983 . S
C160 C156 1.684 . S
H161 C179 0.948 1_554 S
H162 C120 0.948 . S
H163 C138 0.979 . S
H164 C138 0.980 . S
H165 C138 0.983 . S
H166 C137 0.982 . S
H167 C137 0.979 . S
H168 C137 0.977 . S
H169 C139 0.948 . S
H170 C141 0.947 . S
H171 C142 0.948 . S
H172 C148 0.982 . S
H173 C148 0.979 . S
H174 C148 0.977 . S
H175 C149 0.979 . S
H176 C149 0.980 . S
H177 C149 0.983 . S
H178 C122 0.947 . S
C179 C122 1.392 . S
C179 C123 1.419 . S
C179 H161 0.948 1_556 S
C180 C181 1.391 . S
C180 C184 1.391 . S
C180 H222 0.948 . S
C181 C180 1.391 . S
C181 C182 1.391 . S
C182 C181 1.391 . S
C182 H238 0.947 . S
C182 C239 1.392 . S
C183 C184 1.391 . S
C183 C187 1.397 . S
C183 C239 1.419 . S
C184 C180 1.391 . S
C184 C183 1.391 . S
C184 C185 1.399 . S
C185 C184 1.399 . S
C185 C188 1.396 . S
C185 C197 1.453 . S
C185 C198 1.684 . S
H186 C210 0.948 . S
C187 C183 1.397 . S
C187 C188 1.394 . S
C187 C206 1.723 . S
C188 C185 1.396 . S
C188 C187 1.394 . S
C188 C218 1.723 . S
H189 C212 0.947 . S
H190 C213 0.948 . S
H191 C219 0.982 . S
H192 C220 0.979 . S
H193 C220 0.980 . S
H194 C220 0.983 . S
H195 C219 0.979 . S
H196 C219 0.977 . S
C197 C185 1.453 . S
C197 H226 0.982 . S
C197 H227 0.979 . S
C197 H228 0.977 . S
C198 C185 1.684 . S
C198 H223 0.979 . S
C198 H224 0.980 . S
C198 H225 0.983 . S
C199 C200 1.391 . S
C199 C204 1.391 . S
C199 H229 0.948 . S
C200 C199 1.391 . S
C200 C201 1.391 . S
C201 C200 1.391 . S
C201 C202 1.392 . S
C201 H230 0.947 . S
C202 C201 1.392 . S
C202 C203 1.419 . S
C202 H231 0.948 . S
C203 C202 1.419 . S
C203 C204 1.391 . S
C203 C207 1.397 . S
C204 C199 1.391 . S
C204 C203 1.391 . S
C204 C205 1.399 . S
C205 C204 1.399 . S
C205 C206 1.396 . S
C205 C208 1.453 . S
C205 C209 1.684 . S
C206 C187 1.723 . S
C206 C205 1.396 . S
C206 C207 1.394 . S
C207 C203 1.397 . S
C207 C206 1.394 . S
C207 C217 1.723 . S
C208 C205 1.453 . S
C208 H232 0.982 . S
C208 H233 0.979 . S
C208 H234 0.977 . S
C209 C205 1.684 . S
C209 H235 0.979 . S
C209 H236 0.980 . S
C209 H237 0.983 . S
C210 H186 0.948 . S
C210 C211 1.391 . S
C210 C215 1.391 . S
C211 C210 1.391 . S
C211 C212 1.391 . S
C212 H189 0.947 . S
C212 C211 1.391 . S
C212 C213 1.392 . S
C213 H190 0.948 . S
C213 C212 1.392 . S
C213 C214 1.419 . S
C214 C213 1.419 . S
C214 C215 1.391 . S
C214 C218 1.397 . S
C215 C210 1.391 . S
C215 C214 1.391 . S
C215 C216 1.399 . S
C216 C215 1.399 . S
C216 C217 1.396 . S
C216 C219 1.453 . S
C216 C220 1.684 . S
C217 C207 1.723 . S
C217 C216 1.396 . S
C217 C218 1.394 . S
C218 C188 1.723 . S
C218 C214 1.397 . S
C218 C217 1.394 . S
C219 H191 0.982 . S
C219 H195 0.979 . S
C219 H196 0.977 . S
C219 C216 1.453 . S
C220 H192 0.979 . S
C220 H193 0.980 . S
C220 H194 0.983 . S
C220 C216 1.684 . S
H221 C239 0.948 . S
H222 C180 0.948 . S
H223 C198 0.979 . S
H224 C198 0.980 . S
H225 C198 0.983 . S
H226 C197 0.982 . S
H227 C197 0.979 . S
H228 C197 0.977 . S
H229 C199 0.948 . S
H230 C201 0.947 . S
H231 C202 0.948 . S
H232 C208 0.982 . S
H233 C208 0.979 . S
H234 C208 0.977 . S
H235 C209 0.979 . S
H236 C209 0.980 . S
H237 C209 0.983 . S
H238 C182 0.947 . S
C239 C182 1.392 . S
C239 C183 1.419 . S
C239 H221 0.948 . S
C240 C241 1.391 . S
C240 C244 1.391 . S
C240 H282 0.948 . S
C241 C240 1.391 . S
C241 C242 1.391 . S
C242 C241 1.391 . S
C242 H298 0.947 . S
C242 C299 1.392 . S
C243 C244 1.391 . S
C243 C247 1.397 . S
C243 C299 1.419 . S
C244 C240 1.391 . S
C244 C243 1.391 . S
C244 C245 1.399 . S
C245 C244 1.399 . S
C245 C248 1.396 . S
C245 C257 1.453 . S
C245 C258 1.684 . S
H246 C270 0.948 . S
C247 C243 1.397 . S
C247 C248 1.394 . S
C247 C266 1.723 . S
C248 C245 1.396 . S
C248 C247 1.394 . S
C248 C278 1.723 . S
H249 C272 0.947 1_554 S
H250 C273 0.948 . S
H251 C279 0.982 . S
H252 C280 0.979 . S
H253 C280 0.980 . S
H254 C280 0.983 . S
H255 C279 0.979 . S
H256 C279 0.977 . S
C257 C245 1.453 . S
C257 H286 0.982 . S
C257 H287 0.979 . S
C257 H288 0.977 . S
C258 C245 1.684 . S
C258 H283 0.979 . S
C258 H284 0.980 . S
C258 H285 0.983 . S
C259 C260 1.391 . S
C259 C264 1.391 . S
C259 H289 0.948 . S
C260 C259 1.391 . S
C260 C261 1.391 . S
C261 C260 1.391 . S
C261 C262 1.392 . S
C261 H290 0.947 . S
C262 C261 1.392 . S
C262 C263 1.419 . S
C262 H291 0.948 . S
C263 C262 1.419 . S
C263 C264 1.391 . S
C263 C267 1.397 . S
C264 C259 1.391 . S
C264 C263 1.391 . S
C264 C265 1.399 1_556 S
C265 C264 1.399 1_554 S
C265 C266 1.396 . S
C265 C268 1.453 . S
C265 C269 1.684 . S
C266 C247 1.723 . S
C266 C265 1.396 . S
C266 C267 1.394 1_554 S
C267 C263 1.397 . S
C267 C266 1.394 1_556 S
C267 C277 1.723 . S
C268 C265 1.453 . S
C268 H292 0.982 . S
C268 H293 0.979 . S
C268 H294 0.977 . S
C269 C265 1.684 . S
C269 H295 0.979 . S
C269 H296 0.980 . S
C269 H297 0.983 . S
C270 H246 0.948 . S
C270 C271 1.391 . S
C270 C275 1.391 . S
C271 C270 1.391 . S
C271 C272 1.391 . S
C272 H249 0.947 1_556 S
C272 C271 1.391 . S
C272 C273 1.392 1_556 S
C273 H250 0.948 . S
C273 C272 1.392 1_554 S
C273 C274 1.419 1_554 S
C274 C273 1.419 1_556 S
C274 C275 1.391 . S
C274 C278 1.397 1_556 S
C275 C270 1.391 . S
C275 C274 1.391 . S
C275 C276 1.399 . S
C276 C275 1.399 . S
C276 C277 1.396 . S
C276 C279 1.453 . S
C276 C280 1.684 . S
C277 C267 1.723 . S
C277 C276 1.396 . S
C277 C278 1.394 1_556 S
C278 C248 1.723 . S
C278 C274 1.397 1_554 S
C278 C277 1.394 1_554 S
C279 H251 0.982 . S
C279 H255 0.979 . S
C279 H256 0.977 . S
C279 C276 1.453 . S
C280 H252 0.979 . S
C280 H253 0.980 . S
C280 H254 0.983 . S
C280 C276 1.684 . S
H281 C299 0.948 . S
H282 C240 0.948 . S
H283 C258 0.979 . S
H284 C258 0.980 . S
H285 C258 0.983 . S
H286 C257 0.982 . S
H287 C257 0.979 . S
H288 C257 0.977 . S
H289 C259 0.948 . S
H290 C261 0.947 . S
H291 C262 0.948 . S
H292 C268 0.982 . S
H293 C268 0.979 . S
H294 C268 0.977 . S
H295 C269 0.979 . S
H296 C269 0.980 . S
H297 C269 0.983 . S
H298 C242 0.947 . S
C299 C242 1.392 . S
C299 C243 1.419 . S
C299 H281 0.948 . S
C300 C301 1.391 . S
C300 C304 1.391 . S
C300 H342 0.948 . S
C301 C300 1.391 . S
C301 C302 1.391 . S
C302 C301 1.391 . S
C302 H358 0.947 . S
C302 C359 1.392 . S
C303 C304 1.391 . S
C303 C307 1.397 . S
C303 C359 1.419 . S
C304 C300 1.391 . S
C304 C303 1.391 . S
C304 C305 1.399 . S
C305 C304 1.399 . S
C305 C308 1.396 . S
C305 C317 1.453 . S
C305 C318 1.684 . S
H306 C330 0.948 . S
C307 C303 1.397 . S
C307 C308 1.394 . S
C307 C326 1.723 . S
C308 C305 1.396 . S
C308 C307 1.394 . S
C308 C338 1.723 . S
H309 C332 0.947 . S
H310 C333 0.948 . S
H311 C339 0.982 . S
H312 C340 0.979 . S
H313 C340 0.980 . S
H314 C340 0.983 . S
H315 C339 0.979 . S
H316 C339 0.977 . S
C317 C305 1.453 . S
C317 H346 0.982 . S
C317 H347 0.979 . S
C317 H348 0.977 . S
C318 C305 1.684 . S
C318 H343 0.979 . S
C318 H344 0.980 . S
C318 H345 0.983 . S
C319 C320 1.391 . S
C319 C324 1.391 . S
C319 H349 0.948 . S
C320 C319 1.391 . S
C320 C321 1.391 . S
C321 C320 1.391 . S
C321 C322 1.392 . S
C321 H350 0.947 . S
C322 C321 1.392 . S
C322 C323 1.419 . S
C322 H351 0.948 . S
C323 C322 1.419 . S
C323 C324 1.391 . S
C323 C327 1.397 . S
C324 C319 1.391 . S
C324 C323 1.391 . S
C324 C325 1.399 . S
C325 C324 1.399 . S
C325 C326 1.396 . S
C325 C328 1.453 . S
C325 C329 1.684 . S
C326 C307 1.723 . S
C326 C325 1.396 . S
C326 C327 1.394 . S
C327 C323 1.397 . S
C327 C326 1.394 . S
C327 C337 1.723 . S
C328 C325 1.453 . S
C328 H352 0.982 . S
C328 H353 0.979 . S
C328 H354 0.977 . S
C329 C325 1.684 . S
C329 H355 0.979 . S
C329 H356 0.980 . S
C329 H357 0.983 . S
C330 H306 0.948 . S
C330 C331 1.391 . S
C330 C335 1.391 . S
C331 C330 1.391 . S
C331 C332 1.391 . S
C332 H309 0.947 . S
C332 C331 1.391 . S
C332 C333 1.392 . S
C333 H310 0.948 . S
C333 C332 1.392 . S
C333 C334 1.419 . S
C334 C333 1.419 . S
C334 C335 1.391 . S
C334 C338 1.397 . S
C335 C330 1.391 . S
C335 C334 1.391 . S
C335 C336 1.399 . S
C336 C335 1.399 . S
C336 C337 1.396 . S
C336 C339 1.453 . S
C336 C340 1.684 . S
C337 C327 1.723 . S
C337 C336 1.396 . S
C337 C338 1.394 . S
C338 C308 1.723 . S
C338 C334 1.397 . S
C338 C337 1.394 . S
C339 H311 0.982 . S
C339 H315 0.979 . S
C339 H316 0.977 . S
C339 C336 1.453 . S
C340 H312 0.979 . S
C340 H313 0.980 . S
C340 H314 0.983 . S
C340 C336 1.684 . S
H341 C359 0.948 . S
H342 C300 0.948 . S
H343 C318 0.979 . S
H344 C318 0.980 . S
H345 C318 0.983 . S
H346 C317 0.982 . S
H347 C317 0.979 . S
H348 C317 0.977 . S
H349 C319 0.948 . S
H350 C321 0.947 . S
H351 C322 0.948 . S
H352 C328 0.982 . S
H353 C328 0.979 . S
H354 C328 0.977 . S
H355 C329 0.979 . S
H356 C329 0.980 . S
H357 C329 0.983 . S
H358 C302 0.947 . S
C359 C302 1.392 . S
C359 C303 1.419 . S
C359 H341 0.948 . S
C360 C361 1.391 . S
C360 C364 1.391 . S
C360 H402 0.948 . S
C361 C360 1.391 . S
C361 C362 1.391 . S
C362 C361 1.391 . S
C362 H418 0.947 . S
C362 C419 1.392 . S
C363 C364 1.391 . S
C363 C367 1.383 1_556 S
C363 C419 1.419 . S
C364 C360 1.391 . S
C364 C363 1.391 . S
C364 C365 1.399 . S
C365 C364 1.399 . S
C365 C368 1.396 . S
C365 C377 1.453 . S
C365 C378 1.684 . S
H366 C390 0.936 1_554 S
C367 C363 1.383 1_554 S
C367 C368 1.375 1_554 S
C367 C386 1.752 . S
C368 C365 1.396 . S
C368 C367 1.375 1_556 S
C368 C398 1.723 . S
H369 C392 0.947 . S
H370 C393 0.948 . S
H371 C399 0.982 . S
H372 C400 0.979 . S
H373 C400 0.980 . S
H374 C400 0.983 . S
H375 C399 0.979 . S
H376 C399 0.977 . S
C377 C365 1.453 . S
C377 H406 0.982 . S
C377 H407 0.979 . S
C377 H408 0.977 . S
C378 C365 1.684 . S
C378 H403 0.979 . S
C378 H404 0.980 . S
C378 H405 0.983 . S
C379 C380 1.391 . S
C379 C384 1.391 . S
C379 H409 0.948 . S
C380 C379 1.391 . S
C380 C381 1.391 . S
C381 C380 1.391 . S
C381 C382 1.392 . S
C381 H410 0.947 . S
C382 C381 1.392 . S
C382 C383 1.419 . S
C382 H411 0.948 . S
C383 C382 1.419 . S
C383 C384 1.391 . S
C383 C387 1.397 . S
C384 C379 1.391 . S
C384 C383 1.391 . S
C384 C385 1.399 . S
C385 C384 1.399 . S
C385 C386 1.396 . S
C385 C388 1.453 . S
C385 C389 1.684 . S
C386 C367 1.752 . S
C386 C385 1.396 . S
C386 C387 1.394 . S
C387 C383 1.397 . S
C387 C386 1.394 . S
C387 C397 1.723 . S
C388 C385 1.453 . S
C388 H412 0.982 . S
C388 H413 0.979 . S
C388 H414 0.977 . S
C389 C385 1.684 . S
C389 H415 0.979 . S
C389 H416 0.980 . S
C389 H417 0.983 . S
C390 H366 0.936 1_556 S
C390 C391 1.391 . S
C390 C395 1.391 . S
C391 C390 1.391 . S
C391 C392 1.391 . S
C392 H369 0.947 . S
C392 C391 1.391 . S
C392 C393 1.392 . S
C393 H370 0.948 . S
C393 C392 1.392 . S
C393 C394 1.419 . S
C394 C393 1.419 . S
C394 C395 1.391 . S
C394 C398 1.397 . S
C395 C390 1.391 . S
C395 C394 1.391 . S
C395 C396 1.399 1_556 S
C396 C395 1.399 1_554 S
C396 C397 1.396 . S
C396 C399 1.453 . S
C396 C400 1.684 . S
C397 C387 1.723 . S
C397 C396 1.396 . S
C397 C398 1.394 1_554 S
C398 C368 1.723 . S
C398 C394 1.397 . S
C398 C397 1.394 1_556 S
C399 H371 0.982 . S
C399 H375 0.979 . S
C399 H376 0.977 . S
C399 C396 1.453 . S
C400 H372 0.979 . S
C400 H373 0.980 . S
C400 H374 0.983 . S
C400 C396 1.684 . S
H401 C419 0.948 1_554 S
H402 C360 0.948 . S
H403 C378 0.979 . S
H404 C378 0.980 . S
H405 C378 0.983 . S
H406 C377 0.982 . S
H407 C377 0.979 . S
H408 C377 0.977 . S
H409 C379 0.948 . S
H410 C381 0.947 . S
H411 C382 0.948 . S
H412 C388 0.982 . S
H413 C388 0.979 . S
H414 C388 0.977 . S
H415 C389 0.979 . S
H416 C389 0.980 . S
H417 C389 0.983 . S
H418 C362 0.947 . S
C419 C362 1.392 . S
C419 C363 1.419 . S
C419 H401 0.948 1_556 S
C420 C421 1.391 . S
C420 C424 1.391 . S
C420 H462 0.948 . S
C421 C420 1.391 . S
C421 C422 1.391 . S
C422 C421 1.391 . S
C422 H478 0.947 . S
C422 C479 1.392 . S
C423 C424 1.391 . S
C423 C427 1.397 . S
C423 C479 1.419 . S
C424 C420 1.391 . S
C424 C423 1.391 . S
C424 C425 1.399 . S
C425 C424 1.399 . S
C425 C428 1.396 . S
C425 C437 1.453 . S
C425 C438 1.684 . S
H426 C450 0.948 . S
C427 C423 1.397 . S
C427 C428 1.394 . S
C427 C446 1.723 . S
C428 C425 1.396 . S
C428 C427 1.394 . S
C428 C458 1.723 . S
H429 C452 0.947 . S
H430 C453 0.948 . S
H431 C459 0.982 . S
H432 C460 0.979 . S
H433 C460 0.980 . S
H434 C460 0.983 . S
H435 C459 0.979 . S
H436 C459 0.977 . S
C437 C425 1.453 . S
C437 H466 0.982 . S
C437 H467 0.979 . S
C437 H468 0.977 . S
C438 C425 1.684 . S
C438 H463 0.979 . S
C438 H464 0.980 . S
C438 H465 0.983 . S
C439 C440 1.391 . S
C439 C444 1.391 . S
C439 H469 0.948 . S
C440 C439 1.391 . S
C440 C441 1.391 . S
C441 C440 1.391 . S
C441 C442 1.392 . S
C441 H470 0.947 . S
C442 C441 1.392 . S
C442 C443 1.419 . S
C442 H471 0.948 . S
C443 C442 1.419 . S
C443 C444 1.391 . S
C443 C447 1.397 . S
C444 C439 1.391 . S
C444 C443 1.391 . S
C444 C445 1.399 . S
C445 C444 1.399 . S
C445 C446 1.396 . S
C445 C448 1.453 . S
C445 C449 1.684 . S
C446 C427 1.723 . S
C446 C445 1.396 . S
C446 C447 1.394 . S
C447 C443 1.397 . S
C447 C446 1.394 . S
C447 C457 1.723 . S
C448 C445 1.453 . S
C448 H472 0.982 . S
C448 H473 0.979 . S
C448 H474 0.977 . S
C449 C445 1.684 . S
C449 H475 0.979 . S
C449 H476 0.980 . S
C449 H477 0.983 . S
C450 H426 0.948 . S
C450 C451 1.391 . S
C450 C455 1.391 . S
C451 C450 1.391 . S
C451 C452 1.391 . S
C452 H429 0.947 . S
C452 C451 1.391 . S
C452 C453 1.392 . S
C453 H430 0.948 . S
C453 C452 1.392 . S
C453 C454 1.419 . S
C454 C453 1.419 . S
C454 C455 1.391 . S
C454 C458 1.397 . S
C455 C450 1.391 . S
C455 C454 1.391 . S
C455 C456 1.399 . S
C456 C455 1.399 . S
C456 C457 1.396 . S
C456 C459 1.453 . S
C456 C460 1.684 . S
C457 C447 1.723 . S
C457 C456 1.396 . S
C457 C458 1.394 . S
C458 C428 1.723 . S
C458 C454 1.397 . S
C458 C457 1.394 . S
C459 H431 0.982 . S
C459 H435 0.979 . S
C459 H436 0.977 . S
C459 C456 1.453 . S
C460 H432 0.979 . S
C460 H433 0.980 . S
C460 H434 0.983 . S
C460 C456 1.684 . S
H461 C479 0.948 . S
H462 C420 0.948 . S
H463 C438 0.979 . S
H464 C438 0.980 . S
H465 C438 0.983 . S
H466 C437 0.982 . S
H467 C437 0.979 . S
H468 C437 0.977 . S
H469 C439 0.948 . S
H470 C441 0.947 . S
H471 C442 0.948 . S
H472 C448 0.982 . S
H473 C448 0.979 . S
H474 C448 0.977 . S
H475 C449 0.979 . S
H476 C449 0.980 . S
H477 C449 0.983 . S
H478 C422 0.947 . S
C479 C422 1.392 . S
C479 C423 1.419 . S
C479 H461 0.948 . S
Sc480 O483 2.025 . S
Sc480 O490 2.105 1_455 S
Sc480 O493 2.105 . S
Sc480 O496 2.105 . S
Sc480 O499 2.105 1_455 S
Sc481 O483 2.025 . S
Sc481 O491 2.105 1_455 S
Sc481 O495 2.105 . S
Sc481 O497 2.105 . S
Sc481 O501 2.105 1_455 S
Sc482 O483 2.025 . S
Sc482 O492 2.105 1_455 S
Sc482 O494 2.105 . S
Sc482 O498 2.105 . S
Sc482 O500 2.105 1_455 S
O483 Sc480 2.025 . S
O483 Sc481 2.025 . S
O483 Sc482 2.025 . S
C484 O490 1.268 . S
C484 O500 1.268 . S
C485 O491 1.268 . S
C485 O499 1.268 . S
C486 O492 1.268 . S
C486 O501 1.268 . S
C487 O493 1.268 . S
C487 O497 1.268 . S
C488 O494 1.268 . S
C488 O496 1.268 . S
C489 O495 1.268 . S
C489 O498 1.268 . S
O490 Sc480 2.105 1_655 S
O490 C484 1.268 . S
O491 Sc481 2.105 1_655 S
O491 C485 1.268 . S
O492 Sc482 2.105 1_655 S
O492 C486 1.268 . S
O493 Sc480 2.105 . S
O493 C487 1.268 . S
O494 Sc482 2.105 . S
O494 C488 1.268 . S
O495 Sc481 2.105 . S
O495 C489 1.268 . S
O496 Sc480 2.105 . S
O496 C488 1.268 . S
O497 Sc481 2.105 . S
O497 C487 1.268 . S
O498 Sc482 2.105 . S
O498 C489 1.268 . S
O499 Sc480 2.105 1_655 S
O499 C485 1.268 . S
O500 Sc482 2.105 1_655 S
O500 C484 1.268 . S
O501 Sc481 2.105 1_655 S
O501 C486 1.268 . S
Sc502 O505 2.025 . S
Sc502 O512 2.105 . S
Sc502 O515 2.105 1_455 S
Sc502 O518 2.105 1_455 S
Sc502 O521 2.105 . S
Sc503 O505 2.025 . S
Sc503 O513 2.105 . S
Sc503 O517 2.105 1_455 S
Sc503 O519 2.105 1_455 S
Sc503 O523 2.105 . S
Sc504 O505 2.025 . S
Sc504 O514 2.105 . S
Sc504 O516 2.105 1_455 S
Sc504 O520 2.105 1_455 S
Sc504 O522 2.105 . S
O505 Sc502 2.025 . S
O505 Sc503 2.025 . S
O505 Sc504 2.025 . S
C506 O512 1.268 . S
C506 O522 1.268 . S
C507 O513 1.268 . S
C507 O521 1.268 . S
C508 O514 1.268 . S
C508 O523 1.268 . S
C509 O515 1.268 . S
C509 O519 1.268 . S
C510 O516 1.268 . S
C510 O518 1.268 . S
C511 O517 1.268 . S
C511 O520 1.268 . S
O512 Sc502 2.105 . S
O512 C506 1.268 . S
O513 Sc503 2.105 . S
O513 C507 1.268 . S
O514 Sc504 2.105 . S
O514 C508 1.268 . S
O515 Sc502 2.105 1_655 S
O515 C509 1.268 . S
O516 Sc504 2.105 1_655 S
O516 C510 1.268 . S
O517 Sc503 2.105 1_655 S
O517 C511 1.268 . S
O518 Sc502 2.105 1_655 S
O518 C510 1.268 . S
O519 Sc503 2.105 1_655 S
O519 C509 1.268 . S
O520 Sc504 2.105 1_655 S
O520 C511 1.268 . S
O521 Sc502 2.105 . S
O521 C507 1.268 . S
O522 Sc504 2.105 . S
O522 C506 1.268 . S
O523 Sc503 2.105 . S
O523 C508 1.268 . S
Sc524 O527 2.025 . S
Sc524 O534 2.105 . S
Sc524 O537 2.105 . S
Sc524 O540 2.105 . S
Sc524 O543 2.105 . S
Sc525 O527 2.025 . S
Sc525 O535 2.105 . S
Sc525 O539 2.105 . S
Sc525 O541 2.105 . S
Sc525 O545 2.105 . S
Sc526 O527 2.025 . S
Sc526 O536 2.105 . S
Sc526 O538 2.105 . S
Sc526 O542 2.105 . S
Sc526 O544 2.105 . S
O527 Sc524 2.025 . S
O527 Sc525 2.025 . S
O527 Sc526 2.025 . S
C528 O534 1.268 . S
C528 O544 1.268 . S
C529 O535 1.268 . S
C529 O543 1.268 . S
C530 O536 1.268 . S
C530 O545 1.268 . S
C531 O537 1.268 . S
C531 O541 1.268 . S
C532 O538 1.268 . S
C532 O540 1.268 . S
C533 O539 1.268 . S
C533 O542 1.268 . S
O534 Sc524 2.105 . S
O534 C528 1.268 . S
O535 Sc525 2.105 . S
O535 C529 1.268 . S
O536 Sc526 2.105 . S
O536 C530 1.268 . S
O537 Sc524 2.105 . S
O537 C531 1.268 . S
O538 Sc526 2.105 . S
O538 C532 1.268 . S
O539 Sc525 2.105 . S
O539 C533 1.268 . S
O540 Sc524 2.105 . S
O540 C532 1.268 . S
O541 Sc525 2.105 . S
O541 C531 1.268 . S
O542 Sc526 2.105 . S
O542 C533 1.268 . S
O543 Sc524 2.105 . S
O543 C529 1.268 . S
O544 Sc526 2.105 . S
O544 C528 1.268 . S
O545 Sc525 2.105 . S
O545 C530 1.268 . S
Sc546 O549 2.025 . S
Sc546 O556 2.105 . S
Sc546 O559 2.105 . S
Sc546 O562 2.105 . S
Sc546 O565 2.105 . S
Sc547 O549 2.025 . S
Sc547 O557 2.105 . S
Sc547 O561 2.105 . S
Sc547 O563 2.105 . S
Sc547 O567 2.105 . S
Sc548 O549 2.025 . S
Sc548 O558 2.105 . S
Sc548 O560 2.105 . S
Sc548 O564 2.105 . S
Sc548 O566 2.105 . S
O549 Sc546 2.025 . S
O549 Sc547 2.025 . S
O549 Sc548 2.025 . S
C550 O556 1.268 . S
C550 O566 1.268 . S
C551 O557 1.268 . S
C551 O565 1.268 . S
C552 O558 1.268 . S
C552 O567 1.268 . S
C553 O559 1.268 . S
C553 O563 1.268 . S
C554 O560 1.268 . S
C554 O562 1.268 . S
C555 O561 1.268 . S
C555 O564 1.268 . S
O556 Sc546 2.105 . S
O556 C550 1.268 . S
O557 Sc547 2.105 . S
O557 C551 1.268 . S
O558 Sc548 2.105 . S
O558 C552 1.268 . S
O559 Sc546 2.105 . S
O559 C553 1.268 . S
O560 Sc548 2.105 . S
O560 C554 1.268 . S
O561 Sc547 2.105 . S
O561 C555 1.268 . S
O562 Sc546 2.105 . S
O562 C554 1.268 . S
O563 Sc547 2.105 . S
O563 C553 1.268 . S
O564 Sc548 2.105 . S
O564 C555 1.268 . S
O565 Sc546 2.105 . S
O565 C551 1.268 . S
O566 Sc548 2.105 . S
O566 C550 1.268 . S
O567 Sc547 2.105 . S
O567 C552 1.268 . S
C568 C569 1.349 . S
C568 C570 1.327 . S
C568 H593 0.950 . S
C569 C568 1.349 . S
C569 C585 1.349 . S
C570 C568 1.327 . S
C570 C589 1.429 . S
C570 H594 0.950 . S
C571 C588 1.574 . S
C571 C590 1.368 . S
C571 H595 0.949 . S
H572 C576 0.949 . S
C573 C574 1.349 . S
C573 C575 1.327 . S
C573 H596 0.950 . S
C574 C573 1.349 . S
C574 C586 1.349 . S
C575 C573 1.327 . S
C575 C591 1.429 . S
C575 H597 0.950 . S
C576 H572 0.949 . S
C576 C584 1.574 . S
C576 C592 1.368 . S
H577 C585 0.950 . S
H578 C583 0.950 . S
H579 C584 0.949 . S
H580 C586 0.950 . S
H581 C587 0.950 . S
H582 C588 0.949 . S
C583 H578 0.950 . S
C583 C585 1.327 . S
C583 C589 1.429 . S
C584 C576 1.574 . S
C584 H579 0.949 . S
C584 C590 1.368 . S
C585 C569 1.349 . S
C585 H577 0.950 . S
C585 C583 1.327 . S
C586 C574 1.349 . S
C586 H580 0.950 . S
C586 C587 1.327 . S
C587 H581 0.950 . S
C587 C586 1.327 . S
C587 C591 1.429 . S
C588 C571 1.574 . S
C588 H582 0.949 . S
C588 C592 1.368 . S
C589 C570 1.429 . S
C589 C583 1.429 . S
C589 C590 1.523 . S
C590 C571 1.368 . S
C590 C584 1.368 . S
C590 C589 1.523 . S
C591 C575 1.429 . S
C591 C587 1.429 . S
C591 C592 1.523 . S
C592 C576 1.368 . S
C592 C588 1.368 . S
C592 C591 1.523 . S
H593 C568 0.950 . S
H594 C570 0.950 . S
H595 C571 0.949 . S
H596 C573 0.950 . S
H597 C575 0.950 . S
C598 C599 1.349 . S
C598 C600 1.327 . S
C598 H623 0.950 . S
C599 C598 1.349 . S
C599 C615 1.349 . S
C600 C598 1.327 . S
C600 C619 1.429 . S
C600 H624 0.950 . S
C601 C618 1.574 . S
C601 C620 1.368 . S
C601 H625 0.949 . S
H602 C606 0.949 . S
C603 C604 1.349 . S
C603 C605 1.327 . S
C603 H626 0.950 . S
C604 C603 1.349 . S
C604 C616 1.349 . S
C605 C603 1.327 . S
C605 C621 1.429 . S
C605 H627 0.950 . S
C606 H602 0.949 . S
C606 C614 1.574 . S
C606 C622 1.368 . S
H607 C615 0.950 . S
H608 C613 0.950 . S
H609 C614 0.949 . S
H610 C616 0.950 . S
H611 C617 0.950 . S
H612 C618 0.949 . S
C613 H608 0.950 . S
C613 C615 1.327 . S
C613 C619 1.429 . S
C614 C606 1.574 . S
C614 H609 0.949 . S
C614 C620 1.368 . S
C615 C599 1.349 . S
C615 H607 0.950 . S
C615 C613 1.327 . S
C616 C604 1.349 . S
C616 H610 0.950 . S
C616 C617 1.327 . S
C617 H611 0.950 . S
C617 C616 1.327 . S
C617 C621 1.429 . S
C618 C601 1.574 . S
C618 H612 0.949 . S
C618 C622 1.368 . S
C619 C600 1.429 . S
C619 C613 1.429 . S
C619 C620 1.523 . S
C620 C601 1.368 . S
C620 C614 1.368 . S
C620 C619 1.523 . S
C621 C605 1.429 . S
C621 C617 1.429 . S
C621 C622 1.523 . S
C622 C606 1.368 . S
C622 C618 1.368 . S
C622 C621 1.523 . S
H623 C598 0.950 . S
H624 C600 0.950 . S
H625 C601 0.949 . S
H626 C603 0.950 . S
H627 C605 0.950 . S
C628 C629 1.349 . S
C628 C630 1.327 . S
C628 H653 0.950 . S
C629 C628 1.349 . S
C629 C645 1.349 . S
C630 C628 1.327 . S
C630 C649 1.429 . S
C630 H654 0.950 . S
C631 C648 1.574 . S
C631 C650 1.368 . S
C631 H655 0.949 . S
H632 C636 0.949 . S
C633 C634 1.349 . S
C633 C635 1.327 . S
C633 H656 0.950 . S
C634 C633 1.349 . S
C634 C646 1.349 . S
C635 C633 1.327 . S
C635 C651 1.429 . S
C635 H657 0.950 . S
C636 H632 0.949 . S
C636 C644 1.574 . S
C636 C652 1.368 . S
H637 C645 0.950 . S
H638 C643 0.950 . S
H639 C644 0.949 . S
H640 C646 0.950 . S
H641 C647 0.950 . S
H642 C648 0.949 . S
C643 H638 0.950 . S
C643 C645 1.327 . S
C643 C649 1.429 . S
C644 C636 1.574 . S
C644 H639 0.949 . S
C644 C650 1.368 . S
C645 C629 1.349 . S
C645 H637 0.950 . S
C645 C643 1.327 . S
C646 C634 1.349 . S
C646 H640 0.950 . S
C646 C647 1.327 . S
C647 H641 0.950 . S
C647 C646 1.327 . S
C647 C651 1.429 . S
C648 C631 1.574 . S
C648 H642 0.949 . S
C648 C652 1.368 . S
C649 C630 1.429 . S
C649 C643 1.429 . S
C649 C650 1.523 . S
C650 C631 1.368 . S
C650 C644 1.368 . S
C650 C649 1.523 . S
C651 C635 1.429 . S
C651 C647 1.429 . S
C651 C652 1.523 . S
C652 C636 1.368 . S
C652 C648 1.368 . S
C652 C651 1.523 . S
H653 C628 0.950 . S
H654 C630 0.950 . S
H655 C631 0.949 . S
H656 C633 0.950 . S
H657 C635 0.950 . S
C658 C659 1.349 . S
C658 C660 1.327 . S
C658 H683 0.950 . S
C659 C658 1.349 . S
C659 C675 1.349 . S
C660 C658 1.327 . S
C660 C679 1.429 . S
C660 H684 0.950 . S
C661 C678 1.574 . S
C661 C680 1.368 . S
C661 H685 0.949 . S
H662 C666 0.949 . S
C663 C664 1.349 . S
C663 C665 1.327 . S
C663 H686 0.950 . S
C664 C663 1.349 . S
C664 C676 1.349 . S
C665 C663 1.327 . S
C665 C681 1.429 . S
C665 H687 0.950 . S
C666 H662 0.949 . S
C666 C674 1.574 . S
C666 C682 1.368 . S
H667 C675 0.950 . S
H668 C673 0.950 . S
H669 C674 0.949 . S
H670 C676 0.950 . S
H671 C677 0.950 . S
H672 C678 0.949 . S
C673 H668 0.950 . S
C673 C675 1.327 . S
C673 C679 1.429 . S
C674 C666 1.574 . S
C674 H669 0.949 . S
C674 C680 1.368 . S
C675 C659 1.349 . S
C675 H667 0.950 . S
C675 C673 1.327 . S
C676 C664 1.349 . S
C676 H670 0.950 . S
C676 C677 1.327 . S
C677 H671 0.950 . S
C677 C676 1.327 . S
C677 C681 1.429 . S
C678 C661 1.574 . S
C678 H672 0.949 . S
C678 C682 1.368 . S
C679 C660 1.429 . S
C679 C673 1.429 . S
C679 C680 1.523 . S
C680 C661 1.368 . S
C680 C674 1.368 . S
C680 C679 1.523 . S
C681 C665 1.429 . S
C681 C677 1.429 . S
C681 C682 1.523 . S
C682 C666 1.368 . S
C682 C678 1.368 . S
C682 C681 1.523 . S
H683 C658 0.950 . S
H684 C660 0.950 . S
H685 C661 0.949 . S
H686 C663 0.950 . S
H687 C665 0.950 . S
C688 C689 1.349 . S
C688 C690 1.327 . S
C688 H713 0.950 . S
C689 C688 1.349 . S
C689 C705 1.349 . S
C690 C688 1.327 . S
C690 C709 1.429 . S
C690 H714 0.950 . S
C691 C708 1.574 . S
C691 C710 1.368 . S
C691 H715 0.949 . S
H692 C696 0.949 . S
C693 C694 1.349 . S
C693 C695 1.327 . S
C693 H716 0.950 . S
C694 C693 1.349 . S
C694 C706 1.349 . S
C695 C693 1.327 . S
C695 C711 1.429 . S
C695 H717 0.950 . S
C696 H692 0.949 . S
C696 C704 1.574 . S
C696 C712 1.368 . S
H697 C705 0.950 . S
H698 C703 0.950 . S
H699 C704 0.949 . S
H700 C706 0.950 . S
H701 C707 0.950 . S
H702 C708 0.949 . S
C703 H698 0.950 . S
C703 C705 1.327 . S
C703 C709 1.429 . S
C704 C696 1.574 . S
C704 H699 0.949 . S
C704 C710 1.368 . S
C705 C689 1.349 . S
C705 H697 0.950 . S
C705 C703 1.327 . S
C706 C694 1.349 . S
C706 H700 0.950 . S
C706 C707 1.327 . S
C707 H701 0.950 . S
C707 C706 1.327 . S
C707 C711 1.429 . S
C708 C691 1.574 . S
C708 H702 0.949 . S
C708 C712 1.368 . S
C709 C690 1.429 . S
C709 C703 1.429 . S
C709 C710 1.523 . S
C710 C691 1.368 . S
C710 C704 1.368 . S
C710 C709 1.523 . S
C711 C695 1.429 . S
C711 C707 1.429 . S
C711 C712 1.523 . S
C712 C696 1.368 . S
C712 C708 1.368 . S
C712 C711 1.523 . S
H713 C688 0.950 . S
H714 C690 0.950 . S
H715 C691 0.949 . S
H716 C693 0.950 . S
H717 C695 0.950 . S
C718 C719 1.349 . S
C718 C720 1.327 . S
C718 H743 0.950 . S
C719 C718 1.349 . S
C719 C735 1.349 . S
C720 C718 1.327 . S
C720 C739 1.429 . S
C720 H744 0.950 . S
C721 C738 1.574 . S
C721 C740 1.368 . S
C721 H745 0.949 . S
H722 C726 0.949 . S
C723 C724 1.349 . S
C723 C725 1.327 . S
C723 H746 0.950 . S
C724 C723 1.349 . S
C724 C736 1.349 . S
C725 C723 1.327 . S
C725 C741 1.429 . S
C725 H747 0.950 . S
C726 H722 0.949 . S
C726 C734 1.574 . S
C726 C742 1.368 . S
H727 C735 0.950 . S
H728 C733 0.950 . S
H729 C734 0.949 . S
H730 C736 0.950 . S
H731 C737 0.950 . S
H732 C738 0.949 . S
C733 H728 0.950 . S
C733 C735 1.327 . S
C733 C739 1.429 . S
C734 C726 1.574 . S
C734 H729 0.949 . S
C734 C740 1.368 . S
C735 C719 1.349 . S
C735 H727 0.950 . S
C735 C733 1.327 . S
C736 C724 1.349 . S
C736 H730 0.950 . S
C736 C737 1.327 . S
C737 H731 0.950 . S
C737 C736 1.327 . S
C737 C741 1.429 . S
C738 C721 1.574 . S
C738 H732 0.949 . S
C738 C742 1.368 . S
C739 C720 1.429 . S
C739 C733 1.429 . S
C739 C740 1.523 . S
C740 C721 1.368 . S
C740 C734 1.368 . S
C740 C739 1.523 . S
C741 C725 1.429 . S
C741 C737 1.429 . S
C741 C742 1.523 . S
C742 C726 1.368 . S
C742 C738 1.368 . S
C742 C741 1.523 . S
H743 C718 0.950 . S
H744 C720 0.950 . S
H745 C721 0.949 . S
H746 C723 0.950 . S
H747 C725 0.950 . S
C748 C749 1.349 . S
C748 C750 1.327 . S
C748 H773 0.950 . S
C749 C748 1.349 . S
C749 C765 1.349 . S
C750 C748 1.327 . S
C750 C769 1.429 . S
C750 H774 0.950 . S
C751 C768 1.574 . S
C751 C770 1.368 . S
C751 H775 0.949 . S
H752 C756 0.949 . S
C753 C754 1.349 . S
C753 C755 1.327 . S
C753 H776 0.950 . S
C754 C753 1.349 . S
C754 C766 1.349 . S
C755 C753 1.327 . S
C755 C771 1.429 . S
C755 H777 0.950 . S
C756 H752 0.949 . S
C756 C764 1.574 . S
C756 C772 1.368 . S
H757 C765 0.950 . S
H758 C763 0.950 . S
H759 C764 0.949 . S
H760 C766 0.950 . S
H761 C767 0.950 . S
H762 C768 0.949 . S
C763 H758 0.950 . S
C763 C765 1.327 . S
C763 C769 1.429 . S
C764 C756 1.574 . S
C764 H759 0.949 . S
C764 C770 1.368 . S
C765 C749 1.349 . S
C765 H757 0.950 . S
C765 C763 1.327 . S
C766 C754 1.349 . S
C766 H760 0.950 . S
C766 C767 1.327 . S
C767 H761 0.950 . S
C767 C766 1.327 . S
C767 C771 1.429 . S
C768 C751 1.574 . S
C768 H762 0.949 . S
C768 C772 1.368 . S
C769 C750 1.429 . S
C769 C763 1.429 . S
C769 C770 1.523 . S
C770 C751 1.368 . S
C770 C764 1.368 . S
C770 C769 1.523 . S
C771 C755 1.429 . S
C771 C767 1.429 . S
C771 C772 1.523 . S
C772 C756 1.368 . S
C772 C768 1.368 . S
C772 C771 1.523 . S
H773 C748 0.950 . S
H774 C750 0.950 . S
H775 C751 0.949 . S
H776 C753 0.950 . S
H777 C755 0.950 . S
C778 C779 1.349 . S
C778 C780 1.327 . S
C778 H803 0.950 . S
C779 C778 1.349 . S
C779 C795 1.349 . S
C780 C778 1.327 . S
C780 C799 1.429 . S
C780 H804 0.950 . S
C781 C798 1.574 . S
C781 C800 1.368 . S
C781 H805 0.949 . S
H782 C786 0.949 . S
C783 C784 1.349 . S
C783 C785 1.327 . S
C783 H806 0.950 . S
C784 C783 1.349 . S
C784 C796 1.349 . S
C785 C783 1.327 . S
C785 C801 1.429 . S
C785 H807 0.950 . S
C786 H782 0.949 . S
C786 C794 1.574 . S
C786 C802 1.368 . S
H787 C795 0.950 . S
H788 C793 0.950 . S
H789 C794 0.949 . S
H790 C796 0.950 . S
H791 C797 0.950 . S
H792 C798 0.949 . S
C793 H788 0.950 . S
C793 C795 1.327 . S
C793 C799 1.429 . S
C794 C786 1.574 . S
C794 H789 0.949 . S
C794 C800 1.368 . S
C795 C779 1.349 . S
C795 H787 0.950 . S
C795 C793 1.327 . S
C796 C784 1.349 . S
C796 H790 0.950 . S
C796 C797 1.327 . S
C797 H791 0.950 . S
C797 C796 1.327 . S
C797 C801 1.429 . S
C798 C781 1.574 . S
C798 H792 0.949 . S
C798 C802 1.368 . S
C799 C780 1.429 . S
C799 C793 1.429 . S
C799 C800 1.523 . S
C800 C781 1.368 . S
C800 C794 1.368 . S
C800 C799 1.523 . S
C801 C785 1.429 . S
C801 C797 1.429 . S
C801 C802 1.523 . S
C802 C786 1.368 . S
C802 C798 1.368 . S
C802 C801 1.523 . S
H803 C778 0.950 . S
H804 C780 0.950 . S
H805 C781 0.949 . S
H806 C783 0.950 . S
H807 C785 0.950 . S
C808 C809 1.349 . S
C808 C810 1.327 . S
C808 H833 0.950 . S
C809 C808 1.349 . S
C809 C825 1.349 . S
C810 C808 1.327 . S
C810 C829 1.429 . S
C810 H834 0.950 . S
C811 C828 1.574 . S
C811 C830 1.368 . S
C811 H835 0.949 . S
H812 C816 0.949 . S
C813 C814 1.349 . S
C813 C815 1.327 . S
C813 H836 0.950 . S
C814 C813 1.349 . S
C814 C826 1.349 . S
C815 C813 1.327 . S
C815 C831 1.429 . S
C815 H837 0.950 . S
C816 H812 0.949 . S
C816 C824 1.574 . S
C816 C832 1.368 . S
H817 C825 0.950 . S
H818 C823 0.950 . S
H819 C824 0.949 . S
H820 C826 0.950 . S
H821 C827 0.950 . S
H822 C828 0.949 . S
C823 H818 0.950 . S
C823 C825 1.327 . S
C823 C829 1.429 . S
C824 C816 1.574 . S
C824 H819 0.949 . S
C824 C830 1.368 . S
C825 C809 1.349 . S
C825 H817 0.950 . S
C825 C823 1.327 . S
C826 C814 1.349 . S
C826 H820 0.950 . S
C826 C827 1.327 . S
C827 H821 0.950 . S
C827 C826 1.327 . S
C827 C831 1.429 . S
C828 C811 1.574 . S
C828 H822 0.949 . S
C828 C832 1.368 . S
C829 C810 1.429 . S
C829 C823 1.429 . S
C829 C830 1.523 . S
C830 C811 1.368 . S
C830 C824 1.368 . S
C830 C829 1.523 . S
C831 C815 1.429 . S
C831 C827 1.429 . S
C831 C832 1.523 . S
C832 C816 1.368 . S
C832 C828 1.368 . S
C832 C831 1.523 . S
H833 C808 0.950 . S
H834 C810 0.950 . S
H835 C811 0.949 . S
H836 C813 0.950 . S
H837 C815 0.950 . S
C838 C839 1.349 . S
C838 C840 1.327 . S
C838 H863 0.950 . S
C839 C838 1.349 . S
C839 C855 1.349 . S
C840 C838 1.327 . S
C840 C859 1.429 . S
C840 H864 0.950 . S
C841 C858 1.574 . S
C841 C860 1.368 . S
C841 H865 0.949 . S
H842 C846 0.949 . S
C843 C844 1.349 . S
C843 C845 1.327 . S
C843 H866 0.950 . S
C844 C843 1.349 . S
C844 C856 1.349 . S
C845 C843 1.327 . S
C845 C861 1.429 . S
C845 H867 0.950 . S
C846 H842 0.949 . S
C846 C854 1.574 . S
C846 C862 1.368 . S
H847 C855 0.950 . S
H848 C853 0.950 . S
H849 C854 0.949 . S
H850 C856 0.950 . S
H851 C857 0.950 . S
H852 C858 0.949 . S
C853 H848 0.950 . S
C853 C855 1.327 . S
C853 C859 1.429 . S
C854 C846 1.574 . S
C854 H849 0.949 . S
C854 C860 1.368 . S
C855 C839 1.349 . S
C855 H847 0.950 . S
C855 C853 1.327 . S
C856 C844 1.349 . S
C856 H850 0.950 . S
C856 C857 1.327 . S
C857 H851 0.950 . S
C857 C856 1.327 . S
C857 C861 1.429 . S
C858 C841 1.574 . S
C858 H852 0.949 . S
C858 C862 1.368 . S
C859 C840 1.429 . S
C859 C853 1.429 . S
C859 C860 1.523 . S
C860 C841 1.368 . S
C860 C854 1.368 . S
C860 C859 1.523 . S
C861 C845 1.429 . S
C861 C857 1.429 . S
C861 C862 1.523 . S
C862 C846 1.368 . S
C862 C858 1.368 . S
C862 C861 1.523 . S
H863 C838 0.950 . S
H864 C840 0.950 . S
H865 C841 0.949 . S
H866 C843 0.950 . S
H867 C845 0.950 . S
C868 C869 1.349 . S
C868 C870 1.327 . S
C868 H893 0.950 . S
C869 C868 1.349 . S
C869 C885 1.349 . S
C870 C868 1.327 . S
C870 C889 1.429 . S
C870 H894 0.950 . S
C871 C888 1.574 . S
C871 C890 1.368 . S
C871 H895 0.949 . S
H872 C876 0.949 . S
C873 C874 1.349 . S
C873 C875 1.327 . S
C873 H896 0.950 . S
C874 C873 1.349 . S
C874 C886 1.349 . S
C875 C873 1.327 . S
C875 C891 1.429 . S
C875 H897 0.950 . S
C876 H872 0.949 . S
C876 C884 1.574 . S
C876 C892 1.368 . S
H877 C885 0.950 . S
H878 C883 0.950 . S
H879 C884 0.949 . S
H880 C886 0.950 . S
H881 C887 0.950 . S
H882 C888 0.949 . S
C883 H878 0.950 . S
C883 C885 1.327 . S
C883 C889 1.429 . S
C884 C876 1.574 . S
C884 H879 0.949 . S
C884 C890 1.368 . S
C885 C869 1.349 . S
C885 H877 0.950 . S
C885 C883 1.327 . S
C886 C874 1.349 . S
C886 H880 0.950 . S
C886 C887 1.327 . S
C887 H881 0.950 . S
C887 C886 1.327 . S
C887 C891 1.429 . S
C888 C871 1.574 . S
C888 H882 0.949 . S
C888 C892 1.368 . S
C889 C870 1.429 . S
C889 C883 1.429 . S
C889 C890 1.523 . S
C890 C871 1.368 . S
C890 C884 1.368 . S
C890 C889 1.523 . S
C891 C875 1.429 . S
C891 C887 1.429 . S
C891 C892 1.523 . S
C892 C876 1.368 . S
C892 C888 1.368 . S
C892 C891 1.523 . S
H893 C868 0.950 . S
H894 C870 0.950 . S
H895 C871 0.949 . S
H896 C873 0.950 . S
H897 C875 0.950 . S
C898 C899 1.349 . S
C898 C900 1.327 . S
C898 H923 0.950 . S
C899 C898 1.349 . S
C899 C915 1.349 . S
C900 C898 1.327 . S
C900 C919 1.429 . S
C900 H924 0.950 . S
C901 C918 1.574 . S
C901 C920 1.368 . S
C901 H925 0.949 . S
H902 C906 0.949 . S
C903 C904 1.349 . S
C903 C905 1.327 . S
C903 H926 0.950 . S
C904 C903 1.349 . S
C904 C916 1.349 . S
C905 C903 1.327 . S
C905 C921 1.429 . S
C905 H927 0.950 . S
C906 H902 0.949 . S
C906 C914 1.574 . S
C906 C922 1.368 . S
H907 C915 0.950 . S
H908 C913 0.950 . S
H909 C914 0.949 . S
H910 C916 0.950 . S
H911 C917 0.950 . S
H912 C918 0.949 . S
C913 H908 0.950 . S
C913 C915 1.327 . S
C913 C919 1.429 . S
C914 C906 1.574 . S
C914 H909 0.949 . S
C914 C920 1.368 . S
C915 C899 1.349 . S
C915 H907 0.950 . S
C915 C913 1.327 . S
C916 C904 1.349 . S
C916 H910 0.950 . S
C916 C917 1.327 . S
C917 H911 0.950 . S
C917 C916 1.327 . S
C917 C921 1.429 . S
C918 C901 1.574 . S
C918 H912 0.949 . S
C918 C922 1.368 . S
C919 C900 1.429 . S
C919 C913 1.429 . S
C919 C920 1.523 . S
C920 C901 1.368 . S
C920 C914 1.368 . S
C920 C919 1.523 . S
C921 C905 1.429 . S
C921 C917 1.429 . S
C921 C922 1.523 . S
C922 C906 1.368 . S
C922 C918 1.368 . S
C922 C921 1.523 . S
H923 C898 0.950 . S
H924 C900 0.950 . S
H925 C901 0.949 . S
H926 C903 0.950 . S
H927 C905 0.950 . S
C928 C929 1.349 1_545 S
C928 C930 1.327 . S
C928 H953 0.950 . S
C929 C928 1.349 1_565 S
C929 C945 1.349 . S
C930 C928 1.327 . S
C930 C949 1.429 . S
C930 H954 0.950 . S
C931 C948 1.574 . S
C931 C950 1.368 . S
C931 H955 0.949 . S
H932 C936 0.949 . S
C933 C934 1.349 . S
C933 C935 1.327 . S
C933 H956 0.950 . S
C934 C933 1.349 . S
C934 C946 1.349 . S
C935 C933 1.327 . S
C935 C951 1.429 . S
C935 H957 0.950 . S
C936 H932 0.949 . S
C936 C944 1.574 . S
C936 C952 1.368 . S
H937 C945 0.950 . S
H938 C943 0.950 1_565 S
H939 C944 0.949 . S
H940 C946 0.950 . S
H941 C947 0.950 . S
H942 C948 0.949 . S
C943 H938 0.950 1_545 S
C943 C945 1.327 1_545 S
C943 C949 1.429 . S
C944 C936 1.574 . S
C944 H939 0.949 . S
C944 C950 1.368 . S
C945 C929 1.349 . S
C945 H937 0.950 . S
C945 C943 1.327 1_565 S
C946 C934 1.349 . S
C946 H940 0.950 . S
C946 C947 1.327 . S
C947 H941 0.950 . S
C947 C946 1.327 . S
C947 C951 1.429 . S
C948 C931 1.574 . S
C948 H942 0.949 . S
C948 C952 1.368 . S
C949 C930 1.429 . S
C949 C943 1.429 . S
C949 C950 1.523 . S
C950 C931 1.368 . S
C950 C944 1.368 . S
C950 C949 1.523 . S
C951 C935 1.429 . S
C951 C947 1.429 . S
C951 C952 1.523 . S
C952 C936 1.368 . S
C952 C948 1.368 . S
C952 C951 1.523 . S
H953 C928 0.950 . S
H954 C930 0.950 . S
H955 C931 0.949 . S
H956 C933 0.950 . S
H957 C935 0.950 . S
C958 C959 1.349 1_565 S
C958 C960 1.327 . S
C958 H983 0.950 . S
C959 C958 1.349 1_545 S
C959 C975 1.349 1_545 S
C960 C958 1.327 . S
C960 C979 1.429 . S
C960 H984 0.950 . S
C961 C978 1.574 . S
C961 C980 1.368 . S
C961 H985 0.949 . S
H962 C966 0.949 . S
C963 C964 1.349 . S
C963 C965 1.327 . S
C963 H986 0.950 . S
C964 C963 1.349 . S
C964 C976 1.349 . S
C965 C963 1.327 . S
C965 C981 1.429 . S
C965 H987 0.950 . S
C966 H962 0.949 . S
C966 C974 1.574 . S
C966 C982 1.368 . S
H967 C975 0.950 1_545 S
H968 C973 0.950 . S
H969 C974 0.949 . S
H970 C976 0.950 . S
H971 C977 0.950 . S
H972 C978 0.949 . S
C973 H968 0.950 . S
C973 C975 1.327 . S
C973 C979 1.429 . S
C974 C966 1.574 . S
C974 H969 0.949 . S
C974 C980 1.368 . S
C975 C959 1.349 1_565 S
C975 H967 0.950 1_565 S
C975 C973 1.327 . S
C976 C964 1.349 . S
C976 H970 0.950 . S
C976 C977 1.327 . S
C977 H971 0.950 . S
C977 C976 1.327 . S
C977 C981 1.429 . S
C978 C961 1.574 . S
C978 H972 0.949 . S
C978 C982 1.368 . S
C979 C960 1.429 . S
C979 C973 1.429 . S
C979 C980 1.523 . S
C980 C961 1.368 . S
C980 C974 1.368 . S
C980 C979 1.523 . S
C981 C965 1.429 . S
C981 C977 1.429 . S
C981 C982 1.523 . S
C982 C966 1.368 . S
C982 C978 1.368 . S
C982 C981 1.523 . S
H983 C958 0.950 . S
H984 C960 0.950 . S
H985 C961 0.949 . S
H986 C963 0.950 . S
H987 C965 0.950 . S
C988 C989 1.349 1_545 S
C988 C990 1.327 . S
C988 H1013 0.950 . S
C989 C988 1.349 1_565 S
C989 C1005 1.349 . S
C990 C988 1.327 . S
C990 C1009 1.429 . S
C990 H1014 0.950 . S
C991 C1008 1.574 . S
C991 C1010 1.368 . S
C991 H1015 0.949 . S
H992 C996 0.949 . S
C993 C994 1.349 . S
C993 C995 1.327 . S
C993 H1016 0.950 . S
C994 C993 1.349 . S
C994 C1006 1.349 . S
C995 C993 1.327 . S
C995 C1011 1.429 . S
C995 H1017 0.950 . S
C996 H992 0.949 . S
C996 C1004 1.574 . S
C996 C1012 1.368 . S
H997 C1005 0.950 . S
H998 C1003 0.950 1_565 S
H999 C1004 0.949 . S
H1000 C1006 0.950 . S
H1001 C1007 0.950 . S
H1002 C1008 0.949 . S
C1003 H998 0.950 1_545 S
C1003 C1005 1.327 1_545 S
C1003 C1009 1.429 . S
C1004 C996 1.574 . S
C1004 H999 0.949 . S
C1004 C1010 1.368 . S
C1005 C989 1.349 . S
C1005 H997 0.950 . S
C1005 C1003 1.327 1_565 S
C1006 C994 1.349 . S
C1006 H1000 0.950 . S
C1006 C1007 1.327 . S
C1007 H1001 0.950 . S
C1007 C1006 1.327 . S
C1007 C1011 1.429 . S
C1008 C991 1.574 . S
C1008 H1002 0.949 . S
C1008 C1012 1.368 . S
C1009 C990 1.429 . S
C1009 C1003 1.429 . S
C1009 C1010 1.523 . S
C1010 C991 1.368 . S
C1010 C1004 1.368 . S
C1010 C1009 1.523 . S
C1011 C995 1.429 . S
C1011 C1007 1.429 . S
C1011 C1012 1.523 . S
C1012 C996 1.368 . S
C1012 C1008 1.368 . S
C1012 C1011 1.523 . S
H1013 C988 0.950 . S
H1014 C990 0.950 . S
H1015 C991 0.949 . S
H1016 C993 0.950 . S
H1017 C995 0.950 . S
C1018 C1019 1.349 1_565 S
C1018 C1020 1.327 . S
C1018 H1043 0.950 . S
C1019 C1018 1.349 1_545 S
C1019 C1035 1.349 . S
C1020 C1018 1.327 . S
C1020 C1039 1.429 . S
C1020 H1044 0.950 . S
C1021 C1038 1.574 . S
C1021 C1040 1.368 . S
C1021 H1045 0.949 . S
H1022 C1026 0.949 . S
C1023 C1024 1.349 . S
C1023 C1025 1.327 . S
C1023 H1046 0.950 . S
C1024 C1023 1.349 . S
C1024 C1036 1.349 . S
C1025 C1023 1.327 . S
C1025 C1041 1.429 . S
C1025 H1047 0.950 . S
C1026 H1022 0.949 . S
C1026 C1034 1.574 . S
C1026 C1042 1.368 . S
H1027 C1035 0.950 . S
H1028 C1033 0.950 . S
H1029 C1034 0.949 . S
H1030 C1036 0.950 . S
H1031 C1037 0.950 . S
H1032 C1038 0.949 . S
C1033 H1028 0.950 . S
C1033 C1035 1.327 1_565 S
C1033 C1039 1.429 . S
C1034 C1026 1.574 . S
C1034 H1029 0.949 . S
C1034 C1040 1.368 . S
C1035 C1019 1.349 . S
C1035 H1027 0.950 . S
C1035 C1033 1.327 1_545 S
C1036 C1024 1.349 . S
C1036 H1030 0.950 . S
C1036 C1037 1.327 . S
C1037 H1031 0.950 . S
C1037 C1036 1.327 . S
C1037 C1041 1.429 . S
C1038 C1021 1.574 . S
C1038 H1032 0.949 . S
C1038 C1042 1.368 . S
C1039 C1020 1.429 . S
C1039 C1033 1.429 . S
C1039 C1040 1.523 . S
C1040 C1021 1.368 . S
C1040 C1034 1.368 . S
C1040 C1039 1.523 . S
C1041 C1025 1.429 . S
C1041 C1037 1.429 . S
C1041 C1042 1.523 . S
C1042 C1026 1.368 . S
C1042 C1038 1.368 . S
C1042 C1041 1.523 . S
H1043 C1018 0.950 . S
H1044 C1020 0.950 . S
H1045 C1021 0.949 . S
H1046 C1023 0.950 . S
H1047 C1025 0.950 . S
C1048 C1049 1.349 . S
C1048 C1050 1.327 . S
C1048 H1073 0.950 . S
C1049 C1048 1.349 . S
C1049 C1065 1.349 . S
C1050 C1048 1.327 . S
C1050 C1069 1.429 . S
C1050 H1074 0.950 . S
C1051 C1068 1.574 . S
C1051 C1070 1.368 . S
C1051 H1075 0.949 . S
H1052 C1056 0.949 . S
C1053 C1054 1.349 . S
C1053 C1055 1.327 . S
C1053 H1076 0.950 . S
C1054 C1053 1.349 . S
C1054 C1066 1.349 . S
C1055 C1053 1.327 . S
C1055 C1071 1.429 . S
C1055 H1077 0.950 . S
C1056 H1052 0.949 . S
C1056 C1064 1.574 . S
C1056 C1072 1.368 . S
H1057 C1065 0.950 . S
H1058 C1063 0.950 . S
H1059 C1064 0.949 . S
H1060 C1066 0.950 . S
H1061 C1067 0.950 . S
H1062 C1068 0.949 . S
C1063 H1058 0.950 . S
C1063 C1065 1.327 . S
C1063 C1069 1.429 . S
C1064 C1056 1.574 . S
C1064 H1059 0.949 . S
C1064 C1070 1.368 . S
C1065 C1049 1.349 . S
C1065 H1057 0.950 . S
C1065 C1063 1.327 . S
C1066 C1054 1.349 . S
C1066 H1060 0.950 . S
C1066 C1067 1.327 . S
C1067 H1061 0.950 . S
C1067 C1066 1.327 . S
C1067 C1071 1.429 . S
C1068 C1051 1.574 . S
C1068 H1062 0.949 . S
C1068 C1072 1.368 . S
C1069 C1050 1.429 . S
C1069 C1063 1.429 . S
C1069 C1070 1.523 . S
C1070 C1051 1.368 . S
C1070 C1064 1.368 . S
C1070 C1069 1.523 . S
C1071 C1055 1.429 . S
C1071 C1067 1.429 . S
C1071 C1072 1.523 . S
C1072 C1056 1.368 . S
C1072 C1068 1.368 . S
C1072 C1071 1.523 . S
H1073 C1048 0.950 . S
H1074 C1050 0.950 . S
H1075 C1051 0.949 . S
H1076 C1053 0.950 . S
H1077 C1055 0.950 . S
C1078 C1079 1.349 . S
C1078 C1080 1.327 . S
C1078 H1103 0.950 . S
C1079 C1078 1.349 . S
C1079 C1095 1.349 . S
C1080 C1078 1.327 . S
C1080 C1099 1.429 . S
C1080 H1104 0.950 . S
C1081 C1098 1.574 . S
C1081 C1100 1.368 . S
C1081 H1105 0.949 . S
H1082 C1086 0.949 . S
C1083 C1084 1.349 . S
C1083 C1085 1.327 . S
C1083 H1106 0.950 . S
C1084 C1083 1.349 . S
C1084 C1096 1.349 . S
C1085 C1083 1.327 . S
C1085 C1101 1.429 . S
C1085 H1107 0.950 . S
C1086 H1082 0.949 . S
C1086 C1094 1.574 . S
C1086 C1102 1.368 . S
H1087 C1095 0.950 . S
H1088 C1093 0.950 . S
H1089 C1094 0.949 . S
H1090 C1096 0.950 . S
H1091 C1097 0.950 . S
H1092 C1098 0.949 . S
C1093 H1088 0.950 . S
C1093 C1095 1.327 . S
C1093 C1099 1.429 . S
C1094 C1086 1.574 . S
C1094 H1089 0.949 . S
C1094 C1100 1.368 . S
C1095 C1079 1.349 . S
C1095 H1087 0.950 . S
C1095 C1093 1.327 . S
C1096 C1084 1.349 . S
C1096 H1090 0.950 . S
C1096 C1097 1.327 . S
C1097 H1091 0.950 . S
C1097 C1096 1.327 . S
C1097 C1101 1.429 . S
C1098 C1081 1.574 . S
C1098 H1092 0.949 . S
C1098 C1102 1.368 . S
C1099 C1080 1.429 . S
C1099 C1093 1.429 . S
C1099 C1100 1.523 . S
C1100 C1081 1.368 . S
C1100 C1094 1.368 . S
C1100 C1099 1.523 . S
C1101 C1085 1.429 . S
C1101 C1097 1.429 . S
C1101 C1102 1.523 . S
C1102 C1086 1.368 . S
C1102 C1098 1.368 . S
C1102 C1101 1.523 . S
H1103 C1078 0.950 . S
H1104 C1080 0.950 . S
H1105 C1081 0.949 . S
H1106 C1083 0.950 . S
H1107 C1085 0.950 . S
C1108 C1109 1.349 . S
C1108 C1110 1.327 . S
C1108 H1133 0.950 . S
C1109 C1108 1.349 . S
C1109 C1125 1.349 . S
C1110 C1108 1.327 . S
C1110 C1129 1.429 . S
C1110 H1134 0.950 . S
C1111 C1128 1.574 . S
C1111 C1130 1.368 . S
C1111 H1135 0.949 . S
H1112 C1116 0.949 . S
C1113 C1114 1.349 . S
C1113 C1115 1.327 . S
C1113 H1136 0.950 . S
C1114 C1113 1.349 . S
C1114 C1126 1.349 . S
C1115 C1113 1.327 . S
C1115 C1131 1.429 . S
C1115 H1137 0.950 . S
C1116 H1112 0.949 . S
C1116 C1124 1.574 . S
C1116 C1132 1.368 . S
H1117 C1125 0.950 . S
H1118 C1123 0.950 . S
H1119 C1124 0.949 . S
H1120 C1126 0.950 . S
H1121 C1127 0.950 . S
H1122 C1128 0.949 . S
C1123 H1118 0.950 . S
C1123 C1125 1.327 . S
C1123 C1129 1.429 . S
C1124 C1116 1.574 . S
C1124 H1119 0.949 . S
C1124 C1130 1.368 . S
C1125 C1109 1.349 . S
C1125 H1117 0.950 . S
C1125 C1123 1.327 . S
C1126 C1114 1.349 . S
C1126 H1120 0.950 . S
C1126 C1127 1.327 . S
C1127 H1121 0.950 . S
C1127 C1126 1.327 . S
C1127 C1131 1.429 . S
C1128 C1111 1.574 . S
C1128 H1122 0.949 . S
C1128 C1132 1.368 . S
C1129 C1110 1.429 . S
C1129 C1123 1.429 . S
C1129 C1130 1.523 . S
C1130 C1111 1.368 . S
C1130 C1124 1.368 . S
C1130 C1129 1.523 . S
C1131 C1115 1.429 . S
C1131 C1127 1.429 . S
C1131 C1132 1.523 . S
C1132 C1116 1.368 . S
C1132 C1128 1.368 . S
C1132 C1131 1.523 . S
H1133 C1108 0.950 . S
H1134 C1110 0.950 . S
H1135 C1111 0.949 . S
H1136 C1113 0.950 . S
H1137 C1115 0.950 . S
C1138 C1139 1.349 . S
C1138 C1140 1.327 . S
C1138 H1163 0.950 . S
C1139 C1138 1.349 . S
C1139 C1155 1.349 . S
C1140 C1138 1.327 . S
C1140 C1159 1.429 . S
C1140 H1164 0.950 . S
C1141 C1158 1.574 . S
C1141 C1160 1.368 . S
C1141 H1165 0.949 . S
H1142 C1146 0.949 . S
C1143 C1144 1.349 . S
C1143 C1145 1.327 . S
C1143 H1166 0.950 . S
C1144 C1143 1.349 . S
C1144 C1156 1.349 . S
C1145 C1143 1.327 . S
C1145 C1161 1.429 . S
C1145 H1167 0.950 . S
C1146 H1142 0.949 . S
C1146 C1154 1.574 . S
C1146 C1162 1.368 . S
H1147 C1155 0.950 . S
H1148 C1153 0.950 . S
H1149 C1154 0.949 . S
H1150 C1156 0.950 . S
H1151 C1157 0.950 . S
H1152 C1158 0.949 . S
C1153 H1148 0.950 . S
C1153 C1155 1.327 . S
C1153 C1159 1.429 . S
C1154 C1146 1.574 . S
C1154 H1149 0.949 . S
C1154 C1160 1.368 . S
C1155 C1139 1.349 . S
C1155 H1147 0.950 . S
C1155 C1153 1.327 . S
C1156 C1144 1.349 . S
C1156 H1150 0.950 . S
C1156 C1157 1.327 . S
C1157 H1151 0.950 . S
C1157 C1156 1.327 . S
C1157 C1161 1.429 . S
C1158 C1141 1.574 . S
C1158 H1152 0.949 . S
C1158 C1162 1.368 . S
C1159 C1140 1.429 . S
C1159 C1153 1.429 . S
C1159 C1160 1.523 . S
C1160 C1141 1.368 . S
C1160 C1154 1.368 . S
C1160 C1159 1.523 . S
C1161 C1145 1.429 . S
C1161 C1157 1.429 . S
C1161 C1162 1.523 . S
C1162 C1146 1.368 . S
C1162 C1158 1.368 . S
C1162 C1161 1.523 . S
H1163 C1138 0.950 . S
H1164 C1140 0.950 . S
H1165 C1141 0.949 . S
H1166 C1143 0.950 . S
H1167 C1145 0.950 . S
C1168 C1169 1.349 . S
C1168 C1170 1.327 . S
C1168 H1193 0.950 . S
C1169 C1168 1.349 . S
C1169 C1185 1.349 . S
C1170 C1168 1.327 . S
C1170 C1189 1.429 . S
C1170 H1194 0.950 . S
C1171 C1188 1.574 . S
C1171 C1190 1.368 . S
C1171 H1195 0.949 . S
H1172 C1176 0.949 . S
C1173 C1174 1.349 . S
C1173 C1175 1.327 . S
C1173 H1196 0.950 . S
C1174 C1173 1.349 . S
C1174 C1186 1.349 . S
C1175 C1173 1.327 . S
C1175 C1191 1.429 . S
C1175 H1197 0.950 . S
C1176 H1172 0.949 . S
C1176 C1184 1.574 . S
C1176 C1192 1.368 . S
H1177 C1185 0.950 . S
H1178 C1183 0.950 . S
H1179 C1184 0.949 . S
H1180 C1186 0.950 . S
H1181 C1187 0.950 . S
H1182 C1188 0.949 . S
C1183 H1178 0.950 . S
C1183 C1185 1.327 . S
C1183 C1189 1.429 . S
C1184 C1176 1.574 . S
C1184 H1179 0.949 . S
C1184 C1190 1.368 . S
C1185 C1169 1.349 . S
C1185 H1177 0.950 . S
C1185 C1183 1.327 . S
C1186 C1174 1.349 . S
C1186 H1180 0.950 . S
C1186 C1187 1.327 . S
C1187 H1181 0.950 . S
C1187 C1186 1.327 . S
C1187 C1191 1.429 . S
C1188 C1171 1.574 . S
C1188 H1182 0.949 . S
C1188 C1192 1.368 . S
C1189 C1170 1.429 . S
C1189 C1183 1.429 . S
C1189 C1190 1.523 . S
C1190 C1171 1.368 . S
C1190 C1184 1.368 . S
C1190 C1189 1.523 . S
C1191 C1175 1.429 . S
C1191 C1187 1.429 . S
C1191 C1192 1.523 . S
C1192 C1176 1.368 . S
C1192 C1188 1.368 . S
C1192 C1191 1.523 . S
H1193 C1168 0.950 . S
H1194 C1170 0.950 . S
H1195 C1171 0.949 . S
H1196 C1173 0.950 . S
H1197 C1175 0.950 . S
C1198 C1199 1.349 . S
C1198 C1200 1.327 . S
C1198 H1223 0.950 . S
C1199 C1198 1.349 . S
C1199 C1215 1.349 . S
C1200 C1198 1.327 . S
C1200 C1219 1.429 . S
C1200 H1224 0.950 . S
C1201 C1218 1.574 . S
C1201 C1220 1.368 . S
C1201 H1225 0.949 . S
H1202 C1206 0.949 . S
C1203 C1204 1.349 . S
C1203 C1205 1.327 . S
C1203 H1226 0.950 . S
C1204 C1203 1.349 . S
C1204 C1216 1.349 . S
C1205 C1203 1.327 . S
C1205 C1221 1.429 . S
C1205 H1227 0.950 . S
C1206 H1202 0.949 . S
C1206 C1214 1.574 . S
C1206 C1222 1.368 . S
H1207 C1215 0.950 . S
H1208 C1213 0.950 . S
H1209 C1214 0.949 . S
H1210 C1216 0.950 . S
H1211 C1217 0.950 . S
H1212 C1218 0.949 . S
C1213 H1208 0.950 . S
C1213 C1215 1.327 . S
C1213 C1219 1.429 . S
C1214 C1206 1.574 . S
C1214 H1209 0.949 . S
C1214 C1220 1.368 . S
C1215 C1199 1.349 . S
C1215 H1207 0.950 . S
C1215 C1213 1.327 . S
C1216 C1204 1.349 . S
C1216 H1210 0.950 . S
C1216 C1217 1.327 . S
C1217 H1211 0.950 . S
C1217 C1216 1.327 . S
C1217 C1221 1.429 . S
C1218 C1201 1.574 . S
C1218 H1212 0.949 . S
C1218 C1222 1.368 . S
C1219 C1200 1.429 . S
C1219 C1213 1.429 . S
C1219 C1220 1.523 . S
C1220 C1201 1.368 . S
C1220 C1214 1.368 . S
C1220 C1219 1.523 . S
C1221 C1205 1.429 . S
C1221 C1217 1.429 . S
C1221 C1222 1.523 . S
C1222 C1206 1.368 . S
C1222 C1218 1.368 . S
C1222 C1221 1.523 . S
H1223 C1198 0.950 . S
H1224 C1200 0.950 . S
H1225 C1201 0.949 . S
H1226 C1203 0.950 . S
H1227 C1205 0.950 . S
C1228 C1229 1.349 . S
C1228 C1230 1.327 . S
C1228 H1253 0.950 . S
C1229 C1228 1.349 . S
C1229 C1245 1.349 . S
C1230 C1228 1.327 . S
C1230 C1249 1.429 . S
C1230 H1254 0.950 . S
C1231 C1248 1.574 . S
C1231 C1250 1.368 . S
C1231 H1255 0.949 . S
H1232 C1236 0.949 . S
C1233 C1234 1.349 . S
C1233 C1235 1.327 . S
C1233 H1256 0.950 . S
C1234 C1233 1.349 . S
C1234 C1246 1.349 . S
C1235 C1233 1.327 . S
C1235 C1251 1.429 . S
C1235 H1257 0.950 . S
C1236 H1232 0.949 . S
C1236 C1244 1.574 . S
C1236 C1252 1.368 . S
H1237 C1245 0.950 . S
H1238 C1243 0.950 . S
H1239 C1244 0.949 . S
H1240 C1246 0.950 . S
H1241 C1247 0.950 . S
H1242 C1248 0.949 . S
C1243 H1238 0.950 . S
C1243 C1245 1.327 . S
C1243 C1249 1.429 . S
C1244 C1236 1.574 . S
C1244 H1239 0.949 . S
C1244 C1250 1.368 . S
C1245 C1229 1.349 . S
C1245 H1237 0.950 . S
C1245 C1243 1.327 . S
C1246 C1234 1.349 . S
C1246 H1240 0.950 . S
C1246 C1247 1.327 . S
C1247 H1241 0.950 . S
C1247 C1246 1.327 . S
C1247 C1251 1.429 . S
C1248 C1231 1.574 . S
C1248 H1242 0.949 . S
C1248 C1252 1.368 . S
C1249 C1230 1.429 . S
C1249 C1243 1.429 . S
C1249 C1250 1.523 . S
C1250 C1231 1.368 . S
C1250 C1244 1.368 . S
C1250 C1249 1.523 . S
C1251 C1235 1.429 . S
C1251 C1247 1.429 . S
C1251 C1252 1.523 . S
C1252 C1236 1.368 . S
C1252 C1248 1.368 . S
C1252 C1251 1.523 . S
H1253 C1228 0.950 . S
H1254 C1230 0.950 . S
H1255 C1231 0.949 . S
H1256 C1233 0.950 . S
H1257 C1235 0.950 . S
C1258 C1259 1.349 . S
C1258 C1260 1.327 . S
C1258 H1283 0.950 . S
C1259 C1258 1.349 . S
C1259 C1275 1.349 . S
C1260 C1258 1.327 . S
C1260 C1279 1.429 . S
C1260 H1284 0.950 . S
C1261 C1278 1.574 . S
C1261 C1280 1.368 . S
C1261 H1285 0.949 . S
H1262 C1266 0.949 . S
C1263 C1264 1.349 . S
C1263 C1265 1.327 . S
C1263 H1286 0.950 . S
C1264 C1263 1.349 . S
C1264 C1276 1.349 . S
C1265 C1263 1.327 . S
C1265 C1281 1.429 . S
C1265 H1287 0.950 . S
C1266 H1262 0.949 . S
C1266 C1274 1.574 . S
C1266 C1282 1.368 . S
H1267 C1275 0.950 . S
H1268 C1273 0.950 . S
H1269 C1274 0.949 . S
H1270 C1276 0.950 . S
H1271 C1277 0.950 . S
H1272 C1278 0.949 . S
C1273 H1268 0.950 . S
C1273 C1275 1.327 . S
C1273 C1279 1.429 . S
C1274 C1266 1.574 . S
C1274 H1269 0.949 . S
C1274 C1280 1.368 . S
C1275 C1259 1.349 . S
C1275 H1267 0.950 . S
C1275 C1273 1.327 . S
C1276 C1264 1.349 . S
C1276 H1270 0.950 . S
C1276 C1277 1.327 . S
C1277 H1271 0.950 . S
C1277 C1276 1.327 . S
C1277 C1281 1.429 . S
C1278 C1261 1.574 . S
C1278 H1272 0.949 . S
C1278 C1282 1.368 . S
C1279 C1260 1.429 . S
C1279 C1273 1.429 . S
C1279 C1280 1.523 . S
C1280 C1261 1.368 . S
C1280 C1274 1.368 . S
C1280 C1279 1.523 . S
C1281 C1265 1.429 . S
C1281 C1277 1.429 . S
C1281 C1282 1.523 . S
C1282 C1266 1.368 . S
C1282 C1278 1.368 . S
C1282 C1281 1.523 . S
H1283 C1258 0.950 . S
H1284 C1260 0.950 . S
H1285 C1261 0.949 . S
H1286 C1263 0.950 . S
H1287 C1265 0.950 . S
C569 C31 1.495 . S
C574 C506 1.503 . S
C604 C484 1.506 . S
C599 C61 1.498 . S
C634 C510 1.506 . S
C629 C151 1.486 . S
C664 C488 1.506 . S
C659 C181 1.526 . S
C694 C550 1.506 . S
C689 C271 1.495 . S
C724 C528 1.506 . S
C719 C301 1.495 . S
C749 C391 1.484 . S
C754 C554 1.506 . S
C784 C532 1.506 . S
C779 C421 1.529 . S
C809 C20 1.521 . S
C814 C555 1.532 . S
C844 C533 1.532 . S
C839 C91 1.521 . S
C869 C121 1.459 . S
C874 C552 1.532 . S
C899 C211 1.551 . S
C904 C530 1.532 . S
C934 C511 1.532 . S
C929 C260 1.523 . S
C959 C331 1.521 . S
C964 C489 1.529 . S
C994 C508 1.532 . S
C989 C361 1.458 . S
C1024 C486 1.532 . S
C1019 C451 1.553 . S
C1054 C529 1.491 . S
C1049 C1 1.423 . S
C1084 C551 1.491 . S
C1079 C80 1.423 . S
C1109 C140 1.477 . S
C1114 C531 1.491 . S
C1144 C553 1.491 . S
C1139 C200 1.459 . S
C1174 C485 1.491 . S
C1169 C241 1.424 . S
C1199 C320 1.423 . S
C1204 C507 1.489 . S
C1229 C380 1.477 . S
C1234 C487 1.488 . S
C1259 C440 1.458 . S
C1264 C509 1.494 . S
