# Generated by pormake.
# Topology tsx, (6,3)-cn, num edge types: 1
# Building blocks:
#     Node 0, Type 0, BuildingBlock: FUNLAD_clean_sbu_0, # of connection points: 6
#     Node 1, Type 0, BuildingBlock: FUNLAD_clean_sbu_0, # of connection points: 6
#     Node 2, Type 1, BuildingBlock: QEWDON_clean_linker_0, # of connection points: 3
#     Node 3, Type 1, BuildingBlock: QEWDON_clean_linker_0, # of connection points: 3
#     Node 4, Type 1, BuildingBlock: QEWDON_clean_linker_0, # of connection points: 3
#     Node 5, Type 1, BuildingBlock: QEWDON_clean_linker_0, # of connection points: 3
#     Edge 6, Type (0, 1), BuildingBlock: UVAHIK_clean_linker_0, # of connection points: 2
#     Edge 7, Type (0, 1), BuildingBlock: UVAHIK_clean_linker_0, # of connection points: 2
#     Edge 8, Type (0, 1), BuildingBlock: UVAHIK_clean_linker_0, # of connection points: 2
#     Edge 9, Type (0, 1), BuildingBlock: UVAHIK_clean_linker_0, # of connection points: 2
#     Edge 10, Type (0, 1), BuildingBlock: UVAHIK_clean_linker_0, # of connection points: 2
#     Edge 11, Type (0, 1), BuildingBlock: UVAHIK_clean_linker_0, # of connection points: 2
#     Edge 12, Type (0, 1), BuildingBlock: UVAHIK_clean_linker_0, # of connection points: 2
#     Edge 13, Type (0, 1), BuildingBlock: UVAHIK_clean_linker_0, # of connection points: 2
#     Edge 14, Type (0, 1), BuildingBlock: UVAHIK_clean_linker_0, # of connection points: 2
#     Edge 15, Type (0, 1), BuildingBlock: UVAHIK_clean_linker_0, # of connection points: 2
#     Edge 16, Type (0, 1), BuildingBlock: UVAHIK_clean_linker_0, # of connection points: 2
#     Edge 17, Type (0, 1), BuildingBlock: UVAHIK_clean_linker_0, # of connection points: 2
# Relax obj value: 0.116
# Max RMSD: 0.174
# Mean RMSD: 0.150
data_MOF--net-tsx--node1-FUNLAD_clean_sbu_0--node2-QEWDON_clean_linker_0--edge1-UVAHIK_clean_linker_0
_symmetry_space_group_name_H-M    P1
_symmetry_Int_Tables_number       1
_symmetry_cell_setting            triclinic
loop_
_symmetry_equiv_pos_as_xyz
'x, y, z'
_cell_length_a     26.774418
_cell_length_b     29.611269
_cell_length_c     49.008287
_cell_angle_alpha  91.051367
_cell_angle_beta   107.04363
_cell_angle_gamma 89.868913
loop_
_atom_site_label
_atom_site_type_symbol
_atom_site_fract_x
_atom_site_fract_y
_atom_site_fract_z
_atom_type_partial_charge
C0 C 0.94378 0.94273 0.99275 0.0
N1 N 0.03122 0.01227 0.06664 0.0
C2 C 0.98775 0.00959 0.07552 0.0
C3 C -0.00822 0.01239 0.10446 0.0
C4 C 0.04101 0.01825 0.12455 0.0
C5 C 0.08541 0.0201 0.11485 0.0
C6 C 0.07958 0.01701 0.08561 0.0
Zn7 Zn 0.0216 0.01194 0.02394 0.0
C8 C 0.09256 0.95017 0.00687 0.0
N9 N -0.00338 0.01304 0.93424 0.0
C10 C 0.94763 0.01373 0.91567 0.0
C11 C 0.03966 0.01437 0.92491 0.0
C12 C 0.0344 0.01685 0.89585 0.0
C13 C 0.98434 0.01836 0.87616 0.0
C14 C 0.94055 0.01653 0.88639 0.0
Zn15 Zn 0.0067 0.01215 0.97695 0.0
O16 O 0.96635 0.95844 0.01764 0.0
C17 C 0.93475 0.07293 -0.00521 0.0
O18 O 0.95377 0.95951 0.97133 0.0
H19 H 0.07824 0.01384 0.94006 0.0
H20 H 0.94969 0.00583 0.06007 0.0
H21 H 0.91397 0.01266 0.92358 0.0
O22 O 0.96177 0.0597 0.01909 0.0
O23 O 0.94515 0.05856 0.97251 0.0
H24 H 0.11358 0.01912 0.07804 0.0
O25 O 0.06027 0.06528 0.98261 0.0
O26 O 0.0773 0.06418 0.02921 0.0
O27 O 0.06791 0.96451 0.9823 0.0
O28 O 0.08088 0.96476 0.02869 0.0
C29 C 0.08572 0.08028 0.00712 0.0
H30 H 0.95664 0.00992 0.11103 0.0
H31 H 0.12406 0.0249 0.12961 0.0
H32 H 0.06925 0.01732 0.88891 0.0
H33 H 0.90125 0.01806 0.87201 0.0
C34 C 0.44447 0.44808 0.49382 0.0
N35 N 0.53477 0.52072 0.56525 0.0
C36 C 0.49208 0.51971 0.5749 0.0
C37 C 0.49779 0.52246 0.60404 0.0
C38 C 0.54791 0.52652 0.62349 0.0
C39 C 0.59139 0.52712 0.61297 0.0
C40 C 0.58388 0.52414 0.58358 0.0
Zn41 Zn 0.52319 0.51853 0.52243 0.0
C42 C 0.59246 0.4544 0.50549 0.0
N43 N 0.49455 0.5147 0.43261 0.0
C44 C 0.44543 0.51556 0.41417 0.0
C45 C 0.53741 0.51635 0.42313 0.0
C46 C 0.53188 0.51997 0.39414 0.0
C47 C 0.48173 0.52231 0.37464 0.0
C48 C 0.43807 0.51942 0.3849 0.0
Zn49 Zn 0.50607 0.51532 0.47541 0.0
O50 O 0.46695 0.4668 0.51782 0.0
C51 C 0.43596 0.57858 0.49318 0.0
O52 O 0.45404 0.46178 0.47149 0.0
H53 H 0.5761 0.51574 0.43816 0.0
H54 H 0.45341 0.51694 0.55996 0.0
H55 H 0.41193 0.51427 0.42222 0.0
O56 O 0.46493 0.56761 0.51758 0.0
O57 O 0.44407 0.56149 0.47092 0.0
H58 H 0.61723 0.52491 0.57539 0.0
O59 O 0.55915 0.56898 0.47946 0.0
O60 O 0.57987 0.56901 0.52621 0.0
O61 O 0.56764 0.46823 0.48083 0.0
O62 O 0.58111 0.46978 0.52723 0.0
C63 C 0.58661 0.5842 0.5035 0.0
H64 H 0.46326 0.52098 0.61123 0.0
H65 H 0.63069 0.53053 0.62724 0.0
H66 H 0.5666 0.52111 0.3871 0.0
H67 H 0.39872 0.52135 0.3706 0.0
H68 H 0.04946 0.05942 0.43099 0.0
C69 C 0.0628 0.0261 0.43868 0.0
C70 C 0.06882 -0.00757 0.41949 0.0
C71 C 0.07386 0.01688 0.46776 0.0
H72 H 0.08985 0.92318 0.41481 0.0
C73 C 0.08412 0.94905 0.42953 0.0
C74 C 0.09419 0.93927 0.45858 0.0
C75 C 0.08995 0.97373 0.47776 0.0
C76 C 0.06414 0.05129 0.48722 0.0
H77 H 0.09722 0.96661 0.50022 0.0
C78 C 0.00256 0.07183 0.48028 0.0
C79 C -0.00304 0.13124 0.52005 0.0
C80 C 0.11265 0.06847 0.51635 0.0
H81 H 0.15045 0.0532 0.51893 0.0
C82 C 0.10951 0.10672 0.54222 0.0
H83 H 0.97382 0.05941 0.46074 0.0
C84 C 0.05704 0.1367 0.54486 0.0
H85 H 0.06201 0.16048 0.56248 0.0
H86 H 0.14558 0.11282 0.55896 0.0
H87 H 0.96546 0.06223 0.57141 0.0
C88 C 0.95172 0.02967 0.56161 0.0
C89 C 0.94231 -0.00516 0.57837 0.0
C90 C 0.94579 0.02207 0.53256 0.0
H91 H 0.92037 0.92505 0.57878 0.0
C92 C 0.92811 0.95207 0.56591 0.0
C93 C 0.9229 0.94404 0.53688 0.0
C94 C 0.93086 0.97949 0.52006 0.0
C95 C 0.96461 0.05612 0.51696 0.0
H96 H 0.92811 0.97339 0.49778 0.0
C97 C 0.03009 0.06412 0.52602 0.0
C98 C 0.05308 0.12941 0.49595 0.0
C99 C 0.92283 0.0871 0.49151 0.0
H100 H 0.88178 0.07931 0.4873 0.0
C101 C 0.93715 0.12936 0.47183 0.0
H102 H 0.05417 0.04272 0.5428 0.0
C103 C -0.00327 0.15029 0.47316 0.0
H104 H -0.00095 0.17774 0.45932 0.0
H105 H 0.90412 0.14494 0.45674 0.0
H106 H 0.55639 0.5535 0.92804 0.0
C107 C 0.56879 0.52027 0.93629 0.0
C108 C 0.57659 0.48606 0.91793 0.0
C109 C 0.57638 0.5117 0.96519 0.0
H110 H 0.59684 0.4163 0.91446 0.0
C111 C 0.58996 0.4427 0.92855 0.0
C112 C 0.5964 0.43353 0.9574 0.0
C113 C 0.59054 0.46857 0.97586 0.0
C114 C 0.56397 0.54682 0.98329 0.0
H115 H 0.59501 0.46195 -0.00186 0.0
C116 C 0.50065 0.5629 0.97584 0.0
C117 C 0.49072 0.62821 0.01111 0.0
C118 C 0.61149 0.57116 0.0103 0.0
H119 H 0.65062 0.55851 0.01328 0.0
C120 C 0.60561 0.6134 0.03327 0.0
H121 H 0.47264 0.54581 0.95774 0.0
C122 C 0.5507 0.64097 0.03446 0.0
H123 H 0.55387 0.6677 0.05023 0.0
H124 H 0.6414 0.62413 0.04892 0.0
H125 H 0.47539 0.56237 0.07002 0.0
C126 C 0.46103 0.52919 0.06162 0.0
C127 C 0.45247 0.49648 0.07998 0.0
C128 C 0.45203 0.51897 0.03259 0.0
H129 H 0.42915 0.42788 0.08336 0.0
C130 C 0.43656 0.45306 0.06921 0.0
C131 C 0.42844 0.4423 0.04021 0.0
C132 C 0.43528 0.47579 0.02177 0.0
C133 C 0.46657 0.55181 0.01454 0.0
H134 H 0.42975 0.46781 -0.00061 0.0
C135 C 0.5309 0.56458 0.02187 0.0
C136 C 0.54524 0.62498 0.98605 0.0
C137 C 0.42075 0.57605 0.98733 0.0
H138 H 0.38083 0.56554 0.98439 0.0
C139 C 0.42948 0.61515 0.96401 0.0
H140 H 0.55772 0.54776 0.04009 0.0
C141 C 0.48619 0.63892 0.96259 0.0
H142 H 0.48482 0.664 0.94661 0.0
H143 H 0.39446 0.62637 0.94826 0.0
C144 C 0.12611 0.14147 0.98662 0.0
C145 C 0.12742 0.11354 0.00962 0.0
C146 C 0.16744 0.17077 0.98802 0.0
C147 C 0.28028 0.22599 0.03992 0.0
H148 H 0.31547 0.25743 0.97122 0.0
C149 C 0.43366 0.35881 0.0457 0.0
C150 C 0.41105 0.39632 0.02958 0.0
C151 C 0.40984 0.31658 0.03975 0.0
C152 C 0.30631 0.24848 0.99055 0.0
H153 H 0.173 0.09339 0.05188 0.0
H154 H 0.24619 0.1434 0.05404 0.0
H155 H 0.25132 0.19781 0.96912 0.0
H156 H 0.34952 0.41839 0.99272 0.0
H157 H 0.30783 0.34421 0.98221 0.0
H158 H 0.33504 0.27669 0.06127 0.0
C159 C 0.21262 0.14386 0.03524 0.0
C160 C 0.26929 0.21478 0.98937 0.0
C161 C 0.17073 0.11522 0.03406 0.0
C162 C 0.3676 0.38998 0.00549 0.0
C163 C 0.34386 0.34757 -0.00056 0.0
C164 C 0.31782 0.25897 0.04117 0.0
C165 C 0.21144 0.17206 0.01224 0.0
C166 C 0.25484 0.20403 0.01392 0.0
C167 C 0.36332 0.31123 0.01747 0.0
C168 C 0.33027 0.27119 0.01641 0.0
H169 H 0.093 0.14077 0.96754 0.0
H170 H 0.16451 0.19276 0.97021 0.0
H171 H 0.26961 0.21932 0.05913 0.0
H172 H 0.46795 0.36272 0.06399 0.0
H173 H 0.42582 0.28878 0.05368 0.0
C174 C 0.13701 0.88974 0.98668 0.0
C175 C 0.13383 0.91621 0.01016 0.0
C176 C 0.17525 0.85653 0.99017 0.0
C177 C 0.23993 0.77137 0.01049 0.0
H178 H 0.38491 0.80733 0.04278 0.0
C179 C 0.41394 0.6475 0.0299 0.0
C180 C 0.44864 0.65971 0.0146 0.0
C181 C 0.37579 0.67776 0.0329 0.0
C182 C 0.34452 0.79689 0.03401 0.0
H183 H 0.16826 0.92939 0.05554 0.0
H184 H 0.23599 0.87193 0.06137 0.0
H185 H 0.3155 0.8624 0.04048 0.0
H186 H 0.47496 0.71486 -0.00624 0.0
H187 H 0.40904 0.76791 -0.00058 0.0
H188 H 0.26907 0.706 0.00367 0.0
C189 C 0.20851 0.87663 0.04045 0.0
C190 C 0.30502 0.82817 0.03276 0.0
C191 C 0.1698 0.90933 0.03709 0.0
C192 C 0.44746 0.70391 0.00462 0.0
C193 C 0.4101 0.73439 0.00807 0.0
C194 C 0.27942 0.73986 0.01216 0.0
C195 C 0.21127 0.84988 0.01706 0.0
C196 C 0.25256 0.81584 0.02047 0.0
C197 C 0.37351 0.72127 0.0218 0.0
C198 C 0.33195 0.75273 0.0234 0.0
H199 H 0.10962 0.89429 0.96573 0.0
H200 H 0.17717 0.83647 0.97179 0.0
H201 H 0.19958 0.76122 0.0011 0.0
H202 H 0.41563 0.61458 0.0392 0.0
H203 H 0.34832 0.66737 0.044 0.0
C204 C 0.87335 0.89512 0.96091 0.0
C205 C 0.90605 0.90542 0.98846 0.0
C206 C 0.83666 0.86049 0.95667 0.0
C207 C 0.73918 0.8127 0.96175 0.0
H208 H 0.77169 0.69432 -0.005 0.0
C209 C 0.59246 0.69884 0.99163 0.0
C210 C 0.58929 0.65353 0.98244 0.0
C211 C 0.63138 0.72689 0.98792 0.0
C212 C 0.76238 0.72705 0.98529 0.0
H213 H 0.92719 0.88696 0.03302 0.0
H214 H 0.86291 0.82592 0.02546 0.0
H215 H 0.84254 0.74822 -0.00225 0.0
H216 H 0.62083 0.60358 0.95905 0.0
H217 H 0.69096 0.65225 0.95385 0.0
H218 H 0.65893 0.7924 0.95052 0.0
C219 C 0.86594 0.84476 0.00727 0.0
C220 C 0.80262 0.75782 0.98705 0.0
C221 C 0.90227 0.87983 0.0116 0.0
C222 C 0.6239 0.63754 0.96775 0.0
C223 C 0.66367 0.66542 0.96451 0.0
C224 C 0.69899 0.78225 0.96039 0.0
C225 C 0.83255 0.83524 0.97982 0.0
C226 C 0.79112 0.80108 0.97569 0.0
C227 C 0.66765 0.71018 0.97471 0.0
C228 C 0.71031 0.73958 0.97258 0.0
H229 H 0.87543 0.91429 0.94266 0.0
H230 H 0.81126 0.85358 0.93533 0.0
H231 H 0.72949 0.84603 0.953 0.0
H232 H 0.56519 0.71258 0.00204 0.0
H233 H 0.6338 0.76145 -0.00412 0.0
C234 C 0.84729 0.10223 0.96793 0.0
C235 C 0.89014 0.10297 0.9926 0.0
C236 C 0.80399 0.12941 0.96638 0.0
C237 C 0.74372 0.20397 0.01055 0.0
H238 H 0.6833 0.26157 0.93796 0.0
C239 C 0.65314 0.38119 0.99267 0.0
C240 C 0.61126 0.38759 0.96797 0.0
C241 C 0.67448 0.33823 -0.00093 0.0
C242 C 0.69891 0.24505 0.95823 0.0
H243 H 0.92176 0.13232 0.03501 0.0
H244 H 0.84779 0.1819 0.0317 0.0
H245 H 0.74746 0.20266 0.94145 0.0
H246 H 0.55453 0.35383 0.93266 0.0
H247 H 0.59252 0.27889 0.94359 0.0
H248 H 0.69748 0.2496 0.02755 0.0
C249 C 0.84634 0.15916 0.01393 0.0
C250 C 0.73574 0.21112 0.96026 0.0
C251 C 0.88909 0.13122 0.01572 0.0
C252 C 0.5877 0.34984 0.95144 0.0
C253 C 0.60913 0.30704 0.95775 0.0
C254 C 0.70743 0.23864 0.00859 0.0
C255 C 0.80325 0.15869 0.98921 0.0
C256 C 0.7595 0.19079 0.98657 0.0
C257 C 0.6542 0.30134 0.98078 0.0
C258 C 0.6855 0.25993 0.98249 0.0
H259 H 0.84684 0.08004 0.95003 0.0
H260 H 0.77112 0.12743 0.94723 0.0
H261 H 0.76035 0.18835 0.03101 0.0
H262 H 0.67196 0.40974 0.00577 0.0
H263 H 0.70946 0.33465 0.01687 0.0
C264 C 0.67423 0.61611 0.52828 0.0
C265 C 0.62913 0.61607 0.50485 0.0
C266 C 0.71655 0.64359 0.52854 0.0
C267 C 0.76983 0.71637 0.48198 0.0
H268 H 0.84095 0.77438 0.55444 0.0
C269 C 0.86498 0.89237 0.50047 0.0
C270 C 0.90835 0.89848 0.5246 0.0
C271 C 0.84313 0.84942 0.49332 0.0
C272 C 0.82236 0.7577 0.53414 0.0
H273 H 0.59228 0.64457 0.46341 0.0
H274 H 0.6647 0.69491 0.46462 0.0
H275 H 0.77609 0.71693 0.55263 0.0
H276 H 0.96744 0.86456 0.55774 0.0
H277 H 0.92896 0.78953 0.54538 0.0
H278 H 0.81396 0.7605 0.46342 0.0
C279 C 0.66855 0.67248 0.48232 0.0
C280 C 0.78507 0.72463 0.53307 0.0
C281 C 0.62671 0.64418 0.48178 0.0
C282 C 0.93322 0.86062 0.53941 0.0
C283 C 0.91146 0.81781 0.53229 0.0
C284 C 0.80665 0.75023 0.48301 0.0
C285 C 0.71409 0.67243 0.50568 0.0
C286 C 0.75756 0.70413 0.50693 0.0
C287 C 0.86456 0.81237 0.51027 0.0
C288 C 0.83254 0.77159 0.50907 0.0
H289 H 0.67741 0.59396 0.54606 0.0
H290 H 0.75132 0.64191 0.54662 0.0
H291 H 0.75019 0.70057 0.46157 0.0
H292 H 0.84535 0.92115 0.4887 0.0
H293 H 0.80681 0.84603 0.4763 0.0
C294 C 0.6406 0.39699 0.48522 0.0
C295 C 0.63421 0.42077 0.50898 0.0
C296 C 0.6803 0.36517 0.48865 0.0
C297 C 0.77215 0.29557 0.54277 0.0
H298 H 0.8471 0.29116 0.48606 0.0
C299 C 0.91718 0.15403 0.53559 0.0
C300 C 0.9584 0.16553 0.5247 0.0
C301 C 0.8797 0.1862 0.53685 0.0
C302 C 0.82709 0.29236 0.50233 0.0
H303 H 0.66416 0.43014 0.55494 0.0
H304 H 0.73438 0.37554 0.56081 0.0
H305 H 0.77682 0.34499 0.48117 0.0
H306 H -0.00133 0.2211 0.51209 0.0
H307 H 0.93432 0.27757 0.515 0.0
H308 H 0.82374 0.24371 0.56436 0.0
C309 C 0.70805 0.38064 0.53963 0.0
C310 C 0.78617 0.32271 0.49924 0.0
C311 C 0.66805 0.41212 0.53624 0.0
C312 C 0.96548 0.21085 0.51889 0.0
C313 C 0.92861 0.24311 0.52052 0.0
C314 C 0.81349 0.26537 0.546 0.0
C315 C 0.71469 0.35693 0.51587 0.0
C316 C 0.7581 0.32453 0.51933 0.0
C317 C 0.88416 0.23072 0.52832 0.0
C318 C 0.84135 0.26348 0.52578 0.0
H319 H 0.61476 0.40271 0.46399 0.0
H320 H 0.68386 0.34686 0.46998 0.0
H321 H 0.75087 0.29589 0.55846 0.0
H322 H 0.91251 0.11999 0.54201 0.0
H323 H 0.84628 0.17571 0.54338 0.0
C324 C 0.39041 0.39998 0.51528 0.0
C325 C 0.4089 0.40975 0.49207 0.0
C326 C 0.35762 0.36308 0.51392 0.0
C327 C 0.26682 0.28682 0.46297 0.0
H328 H 0.27554 0.22142 0.53208 0.0
C329 C 0.12699 0.1415 0.47441 0.0
C330 C 0.10093 0.15443 0.49437 0.0
C331 C 0.16983 0.1664 0.4722 0.0
C332 C 0.27328 0.23906 0.51257 0.0
H333 H 0.40816 0.38857 0.44931 0.0
H334 H 0.35161 0.32338 0.44718 0.0
H335 H 0.34291 0.27669 0.53197 0.0
H336 H 0.0946 0.2069 0.52467 0.0
H337 H 0.17077 0.24885 0.52188 0.0
H338 H 0.19656 0.24913 0.44385 0.0
C339 C 0.36172 0.34469 0.46622 0.0
C340 C 0.31135 0.27093 0.51254 0.0
C341 C 0.39412 0.38195 0.46746 0.0
C342 C 0.11605 0.19429 0.51058 0.0
C343 C 0.15928 0.21854 0.50882 0.0
C344 C 0.2291 0.25437 0.46291 0.0
C345 C 0.34319 0.33486 0.48946 0.0
C346 C 0.30743 0.29636 0.48807 0.0
C347 C 0.18664 0.20454 0.48982 0.0
C348 C 0.23131 0.2315 0.488 0.0
H349 H 0.4009 0.42105 0.53444 0.0
H350 H 0.34295 0.35712 0.53192 0.0
H351 H 0.26251 0.30606 0.44384 0.0
H352 H 0.11425 0.11239 0.46052 0.0
H353 H 0.18993 0.15586 0.45693 0.0
C354 C 0.39209 0.63868 0.51379 0.0
C355 C 0.39177 0.60915 0.49103 0.0
C356 C 0.34962 0.66684 0.51222 0.0
C357 C 0.23661 0.71701 0.45938 0.0
H358 H 0.20215 0.75712 0.5275 0.0
C359 C 0.08779 0.85544 0.45223 0.0
C360 C 0.11124 0.89341 0.46856 0.0
C361 C 0.11032 0.81294 0.45814 0.0
C362 C 0.21106 0.74574 0.50832 0.0
H363 H 0.34642 0.58451 0.44922 0.0
H364 H 0.2713 0.63252 0.4468 0.0
H365 H 0.2651 0.69606 0.53057 0.0
H366 H 0.17339 0.91614 0.50557 0.0
H367 H 0.21267 0.84161 0.516 0.0
H368 H 0.18306 0.7669 0.43725 0.0
C369 C 0.30495 0.63512 0.46551 0.0
C370 C 0.24737 0.71116 0.51005 0.0
C371 C 0.34793 0.6076 0.46686 0.0
C372 C 0.15454 0.88744 0.49263 0.0
C373 C 0.17692 0.8448 0.49865 0.0
C374 C 0.19979 0.75091 0.4576 0.0
C375 C 0.30548 0.66541 0.48807 0.0
C376 C 0.26177 0.69741 0.48574 0.0
C377 C 0.15637 0.80771 0.48061 0.0
C378 C 0.18779 0.76641 0.48216 0.0
H379 H 0.42554 0.6405 0.53268 0.0
H380 H 0.35203 0.69042 0.52971 0.0
H381 H 0.24722 0.70799 0.44031 0.0
H382 H 0.05356 0.859 0.43397 0.0
H383 H 0.09349 0.78462 0.44418 0.0
C384 C 0.00851 0.0477 0.16444 0.0
C385 C 0.04558 0.02264 0.15536 0.0
C386 C 0.01092 0.04997 0.19323 0.0
C387 C 0.09783 0.034 0.26587 0.0
H388 H 0.96893 0.01016 0.28415 0.0
C389 C 0.03209 0.97258 0.3677 0.0
C390 C 0.06082 0.00248 0.38909 0.0
C391 C 0.02818 0.97992 0.33914 0.0
C392 C 0.00516 0.01695 0.27934 0.0
H393 H 0.11495 0.98114 0.16951 0.0
H394 H 0.11937 0.98546 0.21996 0.0
H395 H 0.96809 0.01377 0.23431 0.0
H396 H 0.10717 0.06388 0.39751 0.0
H397 H 0.10031 0.07676 0.34735 0.0
H398 H 0.13507 0.03614 0.31097 0.0
C399 C 0.08864 0.00352 0.20472 0.0
C400 C 0.00463 0.01938 0.25086 0.0
C401 C 0.0861 0.00105 0.17585 0.0
C402 C 0.0845 0.0405 0.38137 0.0
C403 C 0.08098 0.04763 0.35277 0.0
C404 C 0.09829 0.03191 0.29439 0.0
C405 C 0.05063 0.02749 0.21361 0.0
C406 C 0.05105 0.02743 0.24385 0.0
C407 C 0.05323 0.01713 0.33145 0.0
C408 C 0.05205 0.02281 0.30135 0.0
H409 H 0.97748 0.06555 0.14925 0.0
H410 H 0.98161 0.06928 0.19958 0.0
H411 H 0.13408 0.04058 0.26104 0.0
H412 H 0.01321 0.94317 0.37313 0.0
H413 H 0.00689 0.95568 0.32315 0.0
C414 C 0.93844 -0.00243 0.82507 0.0
C415 C 0.97808 0.0218 0.84518 0.0
C416 C 0.93384 -0.00035 0.796 0.0
C417 C 0.0117 0.01883 0.74767 0.0
H418 H 0.87782 0.03188 0.69016 0.0
C419 C 0.92517 0.04006 0.61827 0.0
C420 C 0.94854 0.00259 0.60903 0.0
C421 C 0.9293 0.04619 0.64717 0.0
C422 C 0.91548 0.02861 0.70603 0.0
H423 H 0.04264 0.06863 0.85038 0.0
H424 H 0.03521 0.07135 0.79966 0.0
H425 H 0.8826 0.03628 0.74079 0.0
H426 H -0.00419 0.943 0.62258 0.0
H427 H 0.00335 0.95387 0.67315 0.0
H428 H 0.04447 0.01038 0.71297 0.0
C429 C 0.00805 0.05053 0.8065 0.0
C430 C 0.91814 0.03074 0.7349 0.0
C431 C 0.01239 0.04877 0.83552 0.0
C432 C 0.97707 0.97194 0.62919 0.0
C433 C 0.98172 0.97835 0.65807 0.0
C434 C 0.00896 0.0162 0.71883 0.0
C435 C 0.96899 0.02573 0.78651 0.0
C436 C 0.96624 0.02559 0.75596 0.0
C437 C 0.95751 0.0153 0.66729 0.0
C438 C 0.96079 0.02073 0.69777 0.0
H439 H 0.9118 0.97603 0.8318 0.0
H440 H 0.90375 0.97979 0.78101 0.0
H441 H 0.0492 0.01439 0.7635 0.0
H442 H 0.90281 0.06405 0.60306 0.0
H443 H 0.91056 0.07508 0.65382 0.0
C444 C 0.59452 0.50584 0.67395 0.0
C445 C 0.5544 0.52958 0.65454 0.0
C446 C 0.59827 0.50639 0.70298 0.0
C447 C 0.51667 0.51951 0.75036 0.0
H448 H 0.64826 0.53088 0.81025 0.0
C449 C 0.59639 0.53358 0.88075 0.0
C450 C 0.57166 0.49561 0.8878 0.0
C451 C 0.59405 0.5413 0.85239 0.0
C452 C 0.61122 0.52804 0.79372 0.0
H453 H 0.48852 0.57445 0.65054 0.0
H454 H 0.49469 0.57478 0.70116 0.0
H455 H 0.6464 0.53915 0.76036 0.0
H456 H 0.52403 0.43667 0.8709 0.0
H457 H 0.51972 0.45027 0.82126 0.0
H458 H 0.48156 0.50785 0.78362 0.0
C459 C 0.52274 0.55533 0.69383 0.0
C460 C 0.61024 0.5324 0.76525 0.0
C461 C 0.51916 0.555 0.66487 0.0
C462 C 0.54369 0.46602 0.866 0.0
C463 C 0.54091 0.47398 0.83764 0.0
C464 C 0.51773 0.51475 0.77877 0.0
C465 C 0.56185 0.53052 0.71307 0.0
C466 C 0.56297 0.52795 0.74333 0.0
C467 C 0.56644 0.51146 0.83062 0.0
C468 C 0.56504 0.51869 0.80068 0.0
H469 H 0.62194 0.48558 0.66662 0.0
H470 H 0.62851 0.48661 0.71736 0.0
H471 H 0.47978 0.51548 0.73384 0.0
H472 H 0.61851 0.55672 0.89724 0.0
H473 H 0.61375 0.5706 0.84746 0.0
C474 C 0.43671 0.50432 0.32304 0.0
C475 C 0.4755 0.52817 0.34387 0.0
C476 C 0.43314 0.508 0.29416 0.0
C477 C 0.51482 0.53036 0.24838 0.0
H478 H 0.3835 0.54014 0.18844 0.0
C479 C 0.43518 0.54551 0.1182 0.0
C480 C 0.45946 0.50741 0.11034 0.0
C481 C 0.4382 0.55364 0.1468 0.0
C482 C 0.42047 0.53791 0.205 0.0
H483 H 0.53895 0.57658 0.35064 0.0
H484 H 0.53327 0.58221 0.30028 0.0
H485 H 0.38426 0.54478 0.23849 0.0
H486 H 0.5075 0.44898 0.12592 0.0
H487 H 0.5133 0.46344 0.17599 0.0
H488 H 0.5509 0.52242 0.21497 0.0
C489 C 0.50611 0.56032 0.30636 0.0
C490 C 0.42083 0.54016 0.23354 0.0
C491 C 0.50947 0.55689 0.33516 0.0
C492 C 0.48824 0.47843 0.13152 0.0
C493 C 0.49181 0.48686 0.1601 0.0
C494 C 0.51438 0.52763 0.2199 0.0
C495 C 0.46843 0.53543 0.28565 0.0
C496 C 0.46797 0.53598 0.25545 0.0
C497 C 0.46622 0.52416 0.16793 0.0
C498 C 0.46716 0.53089 0.19798 0.0
H499 H 0.41024 0.48165 0.32908 0.0
H500 H 0.40404 0.48811 0.27859 0.0
H501 H 0.55164 0.52664 0.26489 0.0
H502 H 0.41254 0.56816 0.10215 0.0
H503 H 0.4184 0.58274 0.1524 0.0
loop_
_geom_bond_atom_site_label_1
_geom_bond_atom_site_label_2
_geom_bond_distance
_geom_bond_site_symmetry_2
_ccdc_geom_bond_type
C0 O16 1.251 . S
C0 O18 1.254 1_554 S
N1 C2 1.333 . S
N1 C6 1.307 . S
N1 Zn7 2.020 . S
C2 N1 1.333 . S
C2 C3 1.379 . S
C2 H20 0.952 1_445 S
C3 C2 1.379 . S
C3 C4 1.390 . S
C3 H30 0.949 1_445 S
C4 C3 1.390 . S
C4 C5 1.357 . S
C5 C4 1.357 . S
C5 C6 1.370 . S
C5 H31 0.950 . S
C6 N1 1.307 . S
C6 C5 1.370 . S
C6 H24 0.948 . S
Zn7 N1 2.020 . S
Zn7 O16 2.039 1_445 S
Zn7 O22 2.034 1_455 S
Zn7 O26 2.025 . S
Zn7 O28 2.024 1_545 S
C8 O27 1.246 1_554 S
C8 O28 1.249 . S
N9 C10 1.307 1_455 S
N9 C11 1.333 . S
N9 Zn15 2.020 . S
C10 N9 1.307 1_655 S
C10 C14 1.370 . S
C10 H21 0.948 1_545 S
C11 N9 1.333 . S
C11 C12 1.379 . S
C11 H19 0.952 . S
C12 C11 1.379 . S
C12 C13 1.390 1_455 S
C12 H32 0.949 . S
C13 C12 1.390 1_655 S
C13 C14 1.357 . S
C14 C10 1.370 . S
C14 C13 1.357 . S
C14 H33 0.950 1_545 S
Zn15 N9 2.020 . S
Zn15 O18 2.025 1_445 S
Zn15 O23 2.024 1_455 S
Zn15 O25 2.039 . S
Zn15 O27 2.034 1_545 S
O16 C0 1.251 . S
O16 Zn7 2.039 1_665 S
C17 O22 1.246 . S
C17 O23 1.249 1_554 S
O18 C0 1.254 1_556 S
O18 Zn15 2.025 1_665 S
H19 C11 0.952 . S
H20 C2 0.952 1_665 S
H21 C10 0.948 1_565 S
O22 Zn7 2.034 1_655 S
O22 C17 1.246 . S
O23 Zn15 2.024 1_655 S
O23 C17 1.249 1_556 S
H24 C6 0.948 . S
O25 Zn15 2.039 . S
O25 C29 1.251 1_556 S
O26 Zn7 2.025 . S
O26 C29 1.254 . S
O27 C8 1.246 1_556 S
O27 Zn15 2.034 1_565 S
O28 Zn7 2.024 1_565 S
O28 C8 1.249 . S
C29 O25 1.251 1_554 S
C29 O26 1.254 . S
H30 C3 0.949 1_665 S
H31 C5 0.950 . S
H32 C12 0.949 . S
H33 C14 0.950 1_565 S
C34 O50 1.251 . S
C34 O52 1.254 . S
N35 C36 1.333 . S
N35 C40 1.307 . S
N35 Zn41 2.020 . S
C36 N35 1.333 . S
C36 C37 1.379 . S
C36 H54 0.952 . S
C37 C36 1.379 . S
C37 C38 1.390 . S
C37 H64 0.949 . S
C38 C37 1.390 . S
C38 C39 1.357 . S
C39 C38 1.357 . S
C39 C40 1.370 . S
C39 H65 0.950 . S
C40 N35 1.307 . S
C40 C39 1.370 . S
C40 H58 0.948 . S
Zn41 N35 2.020 . S
Zn41 O50 2.039 . S
Zn41 O56 2.034 . S
Zn41 O60 2.025 . S
Zn41 O62 2.024 . S
C42 O61 1.246 . S
C42 O62 1.249 . S
N43 C44 1.307 . S
N43 C45 1.333 . S
N43 Zn49 2.020 . S
C44 N43 1.307 . S
C44 C48 1.370 . S
C44 H55 0.948 . S
C45 N43 1.333 . S
C45 C46 1.379 . S
C45 H53 0.952 . S
C46 C45 1.379 . S
C46 C47 1.390 . S
C46 H66 0.949 . S
C47 C46 1.390 . S
C47 C48 1.357 . S
C48 C44 1.370 . S
C48 C47 1.357 . S
C48 H67 0.950 . S
Zn49 N43 2.020 . S
Zn49 O52 2.025 . S
Zn49 O57 2.024 . S
Zn49 O59 2.039 . S
Zn49 O61 2.034 . S
O50 C34 1.251 . S
O50 Zn41 2.039 . S
C51 O56 1.246 . S
C51 O57 1.249 . S
O52 C34 1.254 . S
O52 Zn49 2.025 . S
H53 C45 0.952 . S
H54 C36 0.952 . S
H55 C44 0.948 . S
O56 Zn41 2.034 . S
O56 C51 1.246 . S
O57 Zn49 2.024 . S
O57 C51 1.249 . S
H58 C40 0.948 . S
O59 Zn49 2.039 . S
O59 C63 1.251 . S
O60 Zn41 2.025 . S
O60 C63 1.254 . S
O61 C42 1.246 . S
O61 Zn49 2.034 . S
O62 Zn41 2.024 . S
O62 C42 1.249 . S
C63 O59 1.251 . S
C63 O60 1.254 . S
H64 C37 0.949 . S
H65 C39 0.950 . S
H66 C46 0.949 . S
H67 C48 0.950 . S
H68 C69 0.949 . S
C69 H68 0.949 . S
C69 C70 1.395 . S
C69 C71 1.391 . S
C70 C69 1.395 . S
C70 C73 1.390 1_545 S
C71 C69 1.391 . S
C71 C75 1.401 . S
C71 C76 1.491 . S
H72 C73 0.950 . S
C73 C70 1.390 1_565 S
C73 H72 0.950 . S
C73 C74 1.378 . S
C74 C73 1.378 . S
C74 C75 1.398 1_565 S
C75 C71 1.401 . S
C75 C74 1.398 1_545 S
C75 H77 0.948 1_545 S
C76 C71 1.491 . S
C76 C78 1.382 1_455 S
C76 C80 1.404 . S
H77 C75 0.948 1_565 S
C78 C76 1.382 1_655 S
C78 C79 1.390 . S
C78 H83 0.949 . S
C79 C78 1.390 . S
C79 C84 1.399 1_655 S
C80 C76 1.404 . S
C80 H81 0.950 . S
C80 C82 1.375 . S
H81 C80 0.950 . S
C82 C80 1.375 . S
C82 C84 1.382 . S
C82 H86 0.950 . S
H83 C78 0.949 . S
C84 C79 1.399 1_455 S
C84 C82 1.382 . S
C84 H85 0.952 . S
H85 C84 0.952 . S
H86 C82 0.950 . S
H87 C88 0.956 . S
C88 H87 0.956 . S
C88 C89 1.388 1_455 S
C88 C90 1.392 1_455 S
C89 C88 1.388 1_655 S
C89 C92 1.390 1_545 S
C90 C88 1.392 1_655 S
C90 C94 1.387 . S
C90 C95 1.491 1_655 S
H91 C92 0.950 . S
C92 C89 1.390 1_565 S
C92 H91 0.950 . S
C92 C93 1.378 . S
C93 C92 1.378 . S
C93 C94 1.409 1_565 S
C94 C90 1.387 . S
C94 C93 1.409 1_545 S
C94 H96 0.947 1_545 S
C95 C90 1.491 1_455 S
C95 C97 1.382 . S
C95 C99 1.404 1_455 S
H96 C94 0.947 1_565 S
C97 C95 1.382 . S
C97 C98 1.390 . S
C97 H102 0.949 . S
C98 C97 1.390 . S
C98 C103 1.399 . S
C99 C95 1.404 1_655 S
C99 H100 0.950 . S
C99 C101 1.375 . S
H100 C99 0.950 . S
C101 C99 1.375 . S
C101 C103 1.382 1_655 S
C101 H105 0.950 . S
H102 C97 0.949 . S
C103 C98 1.399 . S
C103 C101 1.382 1_455 S
C103 H104 0.952 . S
H104 C103 0.952 . S
H105 C101 0.950 . S
H106 C107 0.949 . S
C107 H106 0.949 . S
C107 C108 1.395 . S
C107 C109 1.391 . S
C108 C107 1.395 . S
C108 C111 1.390 . S
C109 C107 1.391 . S
C109 C113 1.387 . S
C109 C114 1.491 1_556 S
H110 C111 0.950 . S
C111 C108 1.390 . S
C111 H110 0.950 . S
C111 C112 1.378 . S
C112 C111 1.378 . S
C112 C113 1.409 . S
C113 C109 1.387 . S
C113 C112 1.409 . S
C113 H115 0.951 1_556 S
C114 C109 1.491 1_554 S
C114 C116 1.382 1_554 S
C114 C118 1.404 . S
H115 C113 0.951 1_554 S
C116 C114 1.382 1_556 S
C116 C117 1.390 1_556 S
C116 H121 0.949 . S
C117 C116 1.390 1_554 S
C117 C122 1.399 . S
C118 C114 1.404 . S
C118 H119 0.950 . S
C118 C120 1.375 . S
H119 C118 0.950 . S
C120 C118 1.375 . S
C120 C122 1.382 . S
C120 H124 0.950 . S
H121 C116 0.949 . S
C122 C117 1.399 . S
C122 C120 1.382 . S
C122 H123 0.952 . S
H123 C122 0.952 . S
H124 C120 0.950 . S
H125 C126 0.949 . S
C126 H125 0.949 . S
C126 C127 1.395 . S
C126 C128 1.391 . S
C127 C126 1.395 . S
C127 C130 1.390 . S
C128 C126 1.391 . S
C128 C132 1.387 . S
C128 C133 1.491 . S
H129 C130 0.950 . S
C130 C127 1.390 . S
C130 H129 0.950 . S
C130 C131 1.378 . S
C131 C130 1.378 . S
C131 C132 1.409 . S
C132 C128 1.387 . S
C132 C131 1.409 . S
C132 H134 0.951 1_554 S
C133 C128 1.491 . S
C133 C135 1.382 . S
C133 C137 1.404 1_554 S
H134 C132 0.951 1_556 S
C135 C133 1.382 . S
C135 C136 1.390 . S
C135 H140 0.949 . S
C136 C135 1.390 . S
C136 C141 1.399 1_554 S
C137 C133 1.404 1_556 S
C137 H138 0.950 . S
C137 C139 1.375 . S
H138 C137 0.950 . S
C139 C137 1.375 . S
C139 C141 1.382 . S
C139 H143 0.950 . S
H140 C135 0.949 . S
C141 C136 1.399 1_556 S
C141 C139 1.382 . S
C141 H142 0.952 . S
H142 C141 0.952 . S
H143 C139 0.950 . S
C144 C145 1.349 1_556 S
C144 C146 1.327 . S
C144 H169 0.950 . S
C145 C144 1.349 1_554 S
C145 C161 1.349 . S
C146 C144 1.327 . S
C146 C165 1.429 1_556 S
C146 H170 0.950 . S
C147 C164 1.574 . S
C147 C166 1.368 . S
C147 H171 0.949 . S
H148 C152 0.949 . S
C149 C150 1.349 . S
C149 C151 1.327 . S
C149 H172 0.950 . S
C150 C149 1.349 . S
C150 C162 1.349 . S
C151 C149 1.327 . S
C151 C167 1.429 . S
C151 H173 0.950 . S
C152 H148 0.949 . S
C152 C160 1.574 . S
C152 C168 1.368 1_556 S
H153 C161 0.950 . S
H154 C159 0.950 . S
H155 C160 0.949 . S
H156 C162 0.950 1_556 S
H157 C163 0.956 . S
H158 C164 0.949 . S
C159 H154 0.950 . S
C159 C161 1.327 . S
C159 C165 1.429 . S
C160 C152 1.574 . S
C160 H155 0.949 . S
C160 C166 1.368 1_556 S
C161 C145 1.349 . S
C161 H153 0.950 . S
C161 C159 1.327 . S
C162 C150 1.349 . S
C162 H156 0.950 1_554 S
C162 C163 1.328 1_554 S
C163 H157 0.956 . S
C163 C162 1.328 1_556 S
C163 C167 1.421 1_556 S
C164 C147 1.574 . S
C164 H158 0.949 . S
C164 C168 1.368 . S
C165 C146 1.429 1_554 S
C165 C159 1.429 . S
C165 C166 1.523 . S
C166 C147 1.368 . S
C166 C160 1.368 1_554 S
C166 C165 1.523 . S
C167 C151 1.429 . S
C167 C163 1.421 1_554 S
C167 C168 1.523 . S
C168 C152 1.368 1_554 S
C168 C164 1.368 . S
C168 C167 1.523 . S
H169 C144 0.950 . S
H170 C146 0.950 . S
H171 C147 0.949 . S
H172 C149 0.950 . S
H173 C151 0.950 . S
C174 C175 1.349 1_556 S
C174 C176 1.327 . S
C174 H199 0.950 . S
C175 C174 1.349 1_554 S
C175 C191 1.349 . S
C176 C174 1.327 . S
C176 C195 1.429 1_556 S
C176 H200 0.950 . S
C177 C194 1.574 . S
C177 C196 1.368 . S
C177 H201 0.949 . S
H178 C182 0.949 . S
C179 C180 1.349 . S
C179 C181 1.327 . S
C179 H202 0.950 . S
C180 C179 1.349 . S
C180 C192 1.349 1_554 S
C181 C179 1.327 . S
C181 C197 1.429 . S
C181 H203 0.950 . S
C182 H178 0.949 . S
C182 C190 1.574 . S
C182 C198 1.368 1_556 S
H183 C191 0.950 . S
H184 C189 0.950 . S
H185 C190 0.949 . S
H186 C192 0.950 . S
H187 C193 0.950 . S
H188 C194 0.949 . S
C189 H184 0.950 . S
C189 C191 1.327 . S
C189 C195 1.429 . S
C190 C182 1.574 . S
C190 H185 0.949 . S
C190 C196 1.368 1_556 S
C191 C175 1.349 . S
C191 H183 0.950 . S
C191 C189 1.327 . S
C192 C180 1.349 1_556 S
C192 H186 0.950 . S
C192 C193 1.327 . S
C193 H187 0.950 . S
C193 C192 1.327 . S
C193 C197 1.429 1_556 S
C194 C177 1.574 . S
C194 H188 0.949 . S
C194 C198 1.368 . S
C195 C176 1.429 1_554 S
C195 C189 1.429 . S
C195 C196 1.523 . S
C196 C177 1.368 . S
C196 C190 1.368 1_554 S
C196 C195 1.523 . S
C197 C181 1.429 . S
C197 C193 1.429 1_554 S
C197 C198 1.523 . S
C198 C182 1.368 1_554 S
C198 C194 1.368 . S
C198 C197 1.523 . S
H199 C174 0.950 . S
H200 C176 0.950 . S
H201 C177 0.949 . S
H202 C179 0.950 . S
H203 C181 0.950 . S
C204 C205 1.349 1_556 S
C204 C206 1.327 . S
C204 H229 0.950 . S
C205 C204 1.349 1_554 S
C205 C221 1.349 . S
C206 C204 1.327 . S
C206 C225 1.429 1_556 S
C206 H230 0.950 . S
C207 C224 1.574 . S
C207 C226 1.368 . S
C207 H231 0.949 . S
H208 C212 0.949 . S
C209 C210 1.349 . S
C209 C211 1.327 . S
C209 H232 0.950 . S
C210 C209 1.349 . S
C210 C222 1.349 1_554 S
C211 C209 1.327 . S
C211 C227 1.429 . S
C211 H233 0.950 . S
C212 H208 0.949 . S
C212 C220 1.574 . S
C212 C228 1.368 1_556 S
H213 C221 0.950 . S
H214 C219 0.950 . S
H215 C220 0.949 . S
H216 C222 0.950 . S
H217 C223 0.950 . S
H218 C224 0.949 . S
C219 H214 0.950 . S
C219 C221 1.327 . S
C219 C225 1.429 . S
C220 C212 1.574 . S
C220 H215 0.949 . S
C220 C226 1.368 1_556 S
C221 C205 1.349 . S
C221 H213 0.950 . S
C221 C219 1.327 . S
C222 C210 1.349 1_556 S
C222 H216 0.950 . S
C222 C223 1.327 . S
C223 H217 0.950 . S
C223 C222 1.327 . S
C223 C227 1.429 1_556 S
C224 C207 1.574 . S
C224 H218 0.949 . S
C224 C228 1.368 . S
C225 C206 1.429 1_554 S
C225 C219 1.429 . S
C225 C226 1.523 . S
C226 C207 1.368 . S
C226 C220 1.368 1_554 S
C226 C225 1.523 . S
C227 C211 1.429 . S
C227 C223 1.429 1_554 S
C227 C228 1.523 . S
C228 C212 1.368 1_554 S
C228 C224 1.368 . S
C228 C227 1.523 . S
H229 C204 0.950 . S
H230 C206 0.950 . S
H231 C207 0.949 . S
H232 C209 0.950 . S
H233 C211 0.950 . S
C234 C235 1.354 . S
C234 C236 1.327 . S
C234 H259 0.950 . S
C235 C234 1.354 . S
C235 C251 1.343 1_556 S
C236 C234 1.327 . S
C236 C255 1.429 . S
C236 H260 0.950 . S
C237 C254 1.574 . S
C237 C256 1.368 1_554 S
C237 H261 0.949 . S
H238 C242 0.949 . S
C239 C240 1.349 1_554 S
C239 C241 1.327 . S
C239 H262 0.950 . S
C240 C239 1.349 1_556 S
C240 C252 1.349 . S
C241 C239 1.327 . S
C241 C257 1.429 1_554 S
C241 H263 0.950 . S
C242 H238 0.949 . S
C242 C250 1.574 . S
C242 C258 1.368 . S
H243 C251 0.950 . S
H244 C249 0.950 . S
H245 C250 0.949 . S
H246 C252 0.950 . S
H247 C253 0.950 . S
H248 C254 0.949 . S
C249 H244 0.950 . S
C249 C251 1.327 . S
C249 C255 1.429 1_554 S
C250 C242 1.574 . S
C250 H245 0.949 . S
C250 C256 1.368 . S
C251 C235 1.343 1_554 S
C251 H243 0.950 . S
C251 C249 1.327 . S
C252 C240 1.349 . S
C252 H246 0.950 . S
C252 C253 1.327 . S
C253 H247 0.950 . S
C253 C252 1.327 . S
C253 C257 1.429 . S
C254 C237 1.574 . S
C254 H248 0.949 . S
C254 C258 1.368 1_554 S
C255 C236 1.429 . S
C255 C249 1.429 1_556 S
C255 C256 1.523 . S
C256 C237 1.368 1_556 S
C256 C250 1.368 . S
C256 C255 1.523 . S
C257 C241 1.429 1_556 S
C257 C253 1.429 . S
C257 C258 1.523 . S
C258 C242 1.368 . S
C258 C254 1.368 1_556 S
C258 C257 1.523 . S
H259 C234 0.950 . S
H260 C236 0.950 . S
H261 C237 0.949 . S
H262 C239 0.950 . S
H263 C241 0.950 . S
C264 C265 1.349 . S
C264 C266 1.327 . S
C264 H289 0.950 . S
C265 C264 1.349 . S
C265 C281 1.349 . S
C266 C264 1.327 . S
C266 C285 1.429 . S
C266 H290 0.950 . S
C267 C284 1.574 . S
C267 C286 1.368 . S
C267 H291 0.949 . S
H268 C272 0.949 . S
C269 C270 1.349 . S
C269 C271 1.327 . S
C269 H292 0.950 . S
C270 C269 1.349 . S
C270 C282 1.349 . S
C271 C269 1.327 . S
C271 C287 1.429 . S
C271 H293 0.950 . S
C272 H268 0.949 . S
C272 C280 1.574 . S
C272 C288 1.368 . S
H273 C281 0.950 . S
H274 C279 0.950 . S
H275 C280 0.949 . S
H276 C282 0.950 . S
H277 C283 0.950 . S
H278 C284 0.949 . S
C279 H274 0.950 . S
C279 C281 1.327 . S
C279 C285 1.429 . S
C280 C272 1.574 . S
C280 H275 0.949 . S
C280 C286 1.368 . S
C281 C265 1.349 . S
C281 H273 0.950 . S
C281 C279 1.327 . S
C282 C270 1.349 . S
C282 H276 0.950 . S
C282 C283 1.327 . S
C283 H277 0.950 . S
C283 C282 1.327 . S
C283 C287 1.429 . S
C284 C267 1.574 . S
C284 H278 0.949 . S
C284 C288 1.368 . S
C285 C266 1.429 . S
C285 C279 1.429 . S
C285 C286 1.523 . S
C286 C267 1.368 . S
C286 C280 1.368 . S
C286 C285 1.523 . S
C287 C271 1.429 . S
C287 C283 1.429 . S
C287 C288 1.523 . S
C288 C272 1.368 . S
C288 C284 1.368 . S
C288 C287 1.523 . S
H289 C264 0.950 . S
H290 C266 0.950 . S
H291 C267 0.949 . S
H292 C269 0.950 . S
H293 C271 0.950 . S
C294 C295 1.349 . S
C294 C296 1.327 . S
C294 H319 0.950 . S
C295 C294 1.349 . S
C295 C311 1.349 . S
C296 C294 1.327 . S
C296 C315 1.429 . S
C296 H320 0.950 . S
C297 C314 1.574 . S
C297 C316 1.368 . S
C297 H321 0.949 . S
H298 C302 0.949 . S
C299 C300 1.349 . S
C299 C301 1.327 . S
C299 H322 0.950 . S
C300 C299 1.349 . S
C300 C312 1.349 . S
C301 C299 1.327 . S
C301 C317 1.429 . S
C301 H323 0.950 . S
C302 H298 0.949 . S
C302 C310 1.574 . S
C302 C318 1.368 . S
H303 C311 0.950 . S
H304 C309 0.950 . S
H305 C310 0.949 . S
H306 C312 0.950 . S
H307 C313 0.950 . S
H308 C314 0.949 . S
C309 H304 0.950 . S
C309 C311 1.327 . S
C309 C315 1.429 . S
C310 C302 1.574 . S
C310 H305 0.949 . S
C310 C316 1.368 . S
C311 C295 1.349 . S
C311 H303 0.950 . S
C311 C309 1.327 . S
C312 C300 1.349 . S
C312 H306 0.950 . S
C312 C313 1.327 . S
C313 H307 0.950 . S
C313 C312 1.327 . S
C313 C317 1.429 . S
C314 C297 1.574 . S
C314 H308 0.949 . S
C314 C318 1.368 . S
C315 C296 1.429 . S
C315 C309 1.429 . S
C315 C316 1.523 . S
C316 C297 1.368 . S
C316 C310 1.368 . S
C316 C315 1.523 . S
C317 C301 1.429 . S
C317 C313 1.429 . S
C317 C318 1.523 . S
C318 C302 1.368 . S
C318 C314 1.368 . S
C318 C317 1.523 . S
H319 C294 0.950 . S
H320 C296 0.950 . S
H321 C297 0.949 . S
H322 C299 0.950 . S
H323 C301 0.950 . S
C324 C325 1.349 . S
C324 C326 1.327 . S
C324 H349 0.950 . S
C325 C324 1.349 . S
C325 C341 1.349 . S
C326 C324 1.327 . S
C326 C345 1.429 . S
C326 H350 0.950 . S
C327 C344 1.574 . S
C327 C346 1.368 . S
C327 H351 0.949 . S
H328 C332 0.949 . S
C329 C330 1.349 . S
C329 C331 1.327 . S
C329 H352 0.950 . S
C330 C329 1.349 . S
C330 C342 1.349 . S
C331 C329 1.327 . S
C331 C347 1.429 . S
C331 H353 0.950 . S
C332 H328 0.949 . S
C332 C340 1.574 . S
C332 C348 1.368 . S
H333 C341 0.950 . S
H334 C339 0.950 . S
H335 C340 0.949 . S
H336 C342 0.950 . S
H337 C343 0.950 . S
H338 C344 0.949 . S
C339 H334 0.950 . S
C339 C341 1.327 . S
C339 C345 1.429 . S
C340 C332 1.574 . S
C340 H335 0.949 . S
C340 C346 1.368 . S
C341 C325 1.349 . S
C341 H333 0.950 . S
C341 C339 1.327 . S
C342 C330 1.349 . S
C342 H336 0.950 . S
C342 C343 1.327 . S
C343 H337 0.950 . S
C343 C342 1.327 . S
C343 C347 1.429 . S
C344 C327 1.574 . S
C344 H338 0.949 . S
C344 C348 1.368 . S
C345 C326 1.429 . S
C345 C339 1.429 . S
C345 C346 1.523 . S
C346 C327 1.368 . S
C346 C340 1.368 . S
C346 C345 1.523 . S
C347 C331 1.429 . S
C347 C343 1.429 . S
C347 C348 1.523 . S
C348 C332 1.368 . S
C348 C344 1.368 . S
C348 C347 1.523 . S
H349 C324 0.950 . S
H350 C326 0.950 . S
H351 C327 0.949 . S
H352 C329 0.950 . S
H353 C331 0.950 . S
C354 C355 1.349 . S
C354 C356 1.327 . S
C354 H379 0.950 . S
C355 C354 1.349 . S
C355 C371 1.349 . S
C356 C354 1.327 . S
C356 C375 1.429 . S
C356 H380 0.950 . S
C357 C374 1.574 . S
C357 C376 1.368 . S
C357 H381 0.949 . S
H358 C362 0.949 . S
C359 C360 1.349 . S
C359 C361 1.327 . S
C359 H382 0.950 . S
C360 C359 1.349 . S
C360 C372 1.349 . S
C361 C359 1.327 . S
C361 C377 1.429 . S
C361 H383 0.950 . S
C362 H358 0.949 . S
C362 C370 1.574 . S
C362 C378 1.368 . S
H363 C371 0.950 . S
H364 C369 0.950 . S
H365 C370 0.949 . S
H366 C372 0.950 . S
H367 C373 0.950 . S
H368 C374 0.949 . S
C369 H364 0.950 . S
C369 C371 1.327 . S
C369 C375 1.429 . S
C370 C362 1.574 . S
C370 H365 0.949 . S
C370 C376 1.368 . S
C371 C355 1.349 . S
C371 H363 0.950 . S
C371 C369 1.327 . S
C372 C360 1.349 . S
C372 H366 0.950 . S
C372 C373 1.327 . S
C373 H367 0.950 . S
C373 C372 1.327 . S
C373 C377 1.429 . S
C374 C357 1.574 . S
C374 H368 0.949 . S
C374 C378 1.368 . S
C375 C356 1.429 . S
C375 C369 1.429 . S
C375 C376 1.523 . S
C376 C357 1.368 . S
C376 C370 1.368 . S
C376 C375 1.523 . S
C377 C361 1.429 . S
C377 C373 1.429 . S
C377 C378 1.523 . S
C378 C362 1.368 . S
C378 C374 1.368 . S
C378 C377 1.523 . S
H379 C354 0.950 . S
H380 C356 0.950 . S
H381 C357 0.949 . S
H382 C359 0.950 . S
H383 C361 0.950 . S
C384 C385 1.349 . S
C384 C386 1.327 . S
C384 H409 0.950 . S
C385 C384 1.349 . S
C385 C401 1.349 1_545 S
C386 C384 1.327 . S
C386 C405 1.429 . S
C386 H410 0.950 . S
C387 C404 1.574 . S
C387 C406 1.368 1_565 S
C387 H411 0.949 . S
H388 C392 0.949 . S
C389 C390 1.349 1_565 S
C389 C391 1.327 . S
C389 H412 0.950 . S
C390 C389 1.349 1_545 S
C390 C402 1.349 . S
C391 C389 1.327 . S
C391 C407 1.429 1_565 S
C391 H413 0.950 . S
C392 H388 0.949 . S
C392 C400 1.574 . S
C392 C408 1.368 . S
H393 C401 0.950 . S
H394 C399 0.950 . S
H395 C400 0.949 . S
H396 C402 0.950 . S
H397 C403 0.950 . S
H398 C404 0.949 . S
C399 H394 0.950 . S
C399 C401 1.327 . S
C399 C405 1.429 1_565 S
C400 C392 1.574 . S
C400 H395 0.949 . S
C400 C406 1.368 . S
C401 C385 1.349 1_565 S
C401 H393 0.950 . S
C401 C399 1.327 . S
C402 C390 1.349 . S
C402 H396 0.950 . S
C402 C403 1.327 . S
C403 H397 0.950 . S
C403 C402 1.327 . S
C403 C407 1.429 . S
C404 C387 1.574 . S
C404 H398 0.949 . S
C404 C408 1.368 1_565 S
C405 C386 1.429 . S
C405 C399 1.429 1_545 S
C405 C406 1.523 . S
C406 C387 1.368 1_545 S
C406 C400 1.368 . S
C406 C405 1.523 . S
C407 C391 1.429 1_545 S
C407 C403 1.429 . S
C407 C408 1.523 . S
C408 C392 1.368 . S
C408 C404 1.368 1_545 S
C408 C407 1.523 . S
H409 C384 0.950 . S
H410 C386 0.950 . S
H411 C387 0.949 . S
H412 C389 0.950 . S
H413 C391 0.950 . S
C414 C415 1.349 1_565 S
C414 C416 1.327 . S
C414 H439 0.950 . S
C415 C414 1.349 1_545 S
C415 C431 1.349 1_655 S
C416 C414 1.327 . S
C416 C435 1.429 1_565 S
C416 H440 0.950 . S
C417 C434 1.574 . S
C417 C436 1.368 1_455 S
C417 H441 0.949 . S
H418 C422 0.949 . S
C419 C420 1.349 1_455 S
C419 C421 1.327 . S
C419 H442 0.950 . S
C420 C419 1.349 1_655 S
C420 C432 1.349 1_545 S
C421 C419 1.327 . S
C421 C437 1.429 1_455 S
C421 H443 0.950 . S
C422 H418 0.949 . S
C422 C430 1.574 . S
C422 C438 1.368 1_565 S
H423 C431 0.950 . S
H424 C429 0.950 . S
H425 C430 0.949 . S
H426 C432 0.950 . S
H427 C433 0.950 . S
H428 C434 0.949 . S
C429 H424 0.950 . S
C429 C431 1.327 . S
C429 C435 1.429 1_455 S
C430 C422 1.574 . S
C430 H425 0.949 . S
C430 C436 1.368 1_565 S
C431 C415 1.349 1_455 S
C431 H423 0.950 . S
C431 C429 1.327 . S
C432 C420 1.349 1_565 S
C432 H426 0.950 . S
C432 C433 1.327 . S
C433 H427 0.950 . S
C433 C432 1.327 . S
C433 C437 1.429 1_565 S
C434 C417 1.574 . S
C434 H428 0.949 . S
C434 C438 1.368 1_455 S
C435 C416 1.429 1_545 S
C435 C429 1.429 1_655 S
C435 C436 1.523 . S
C436 C417 1.368 1_655 S
C436 C430 1.368 1_545 S
C436 C435 1.523 . S
C437 C421 1.429 1_655 S
C437 C433 1.429 1_545 S
C437 C438 1.523 . S
C438 C422 1.368 1_545 S
C438 C434 1.368 1_655 S
C438 C437 1.523 . S
H439 C414 0.950 . S
H440 C416 0.950 . S
H441 C417 0.949 . S
H442 C419 0.950 . S
H443 C421 0.950 . S
C444 C445 1.349 . S
C444 C446 1.327 . S
C444 H469 0.950 . S
C445 C444 1.349 . S
C445 C461 1.349 . S
C446 C444 1.327 . S
C446 C465 1.429 . S
C446 H470 0.950 . S
C447 C464 1.574 . S
C447 C466 1.368 . S
C447 H471 0.949 . S
H448 C452 0.949 . S
C449 C450 1.349 . S
C449 C451 1.327 . S
C449 H472 0.950 . S
C450 C449 1.349 . S
C450 C462 1.349 . S
C451 C449 1.327 . S
C451 C467 1.429 . S
C451 H473 0.950 . S
C452 H448 0.949 . S
C452 C460 1.574 . S
C452 C468 1.368 . S
H453 C461 0.950 . S
H454 C459 0.950 . S
H455 C460 0.949 . S
H456 C462 0.950 . S
H457 C463 0.950 . S
H458 C464 0.949 . S
C459 H454 0.950 . S
C459 C461 1.327 . S
C459 C465 1.429 . S
C460 C452 1.574 . S
C460 H455 0.949 . S
C460 C466 1.368 . S
C461 C445 1.349 . S
C461 H453 0.950 . S
C461 C459 1.327 . S
C462 C450 1.349 . S
C462 H456 0.950 . S
C462 C463 1.327 . S
C463 H457 0.950 . S
C463 C462 1.327 . S
C463 C467 1.429 . S
C464 C447 1.574 . S
C464 H458 0.949 . S
C464 C468 1.368 . S
C465 C446 1.429 . S
C465 C459 1.429 . S
C465 C466 1.523 . S
C466 C447 1.368 . S
C466 C460 1.368 . S
C466 C465 1.523 . S
C467 C451 1.429 . S
C467 C463 1.429 . S
C467 C468 1.523 . S
C468 C452 1.368 . S
C468 C464 1.368 . S
C468 C467 1.523 . S
H469 C444 0.950 . S
H470 C446 0.950 . S
H471 C447 0.949 . S
H472 C449 0.950 . S
H473 C451 0.950 . S
C474 C475 1.349 . S
C474 C476 1.327 . S
C474 H499 0.950 . S
C475 C474 1.349 . S
C475 C491 1.349 . S
C476 C474 1.327 . S
C476 C495 1.429 . S
C476 H500 0.950 . S
C477 C494 1.574 . S
C477 C496 1.368 . S
C477 H501 0.949 . S
H478 C482 0.949 . S
C479 C480 1.349 . S
C479 C481 1.327 . S
C479 H502 0.950 . S
C480 C479 1.349 . S
C480 C492 1.349 . S
C481 C479 1.327 . S
C481 C497 1.429 . S
C481 H503 0.950 . S
C482 H478 0.949 . S
C482 C490 1.574 . S
C482 C498 1.368 . S
H483 C491 0.950 . S
H484 C489 0.950 . S
H485 C490 0.949 . S
H486 C492 0.950 . S
H487 C493 0.950 . S
H488 C494 0.949 . S
C489 H484 0.950 . S
C489 C491 1.327 . S
C489 C495 1.429 . S
C490 C482 1.574 . S
C490 H485 0.949 . S
C490 C496 1.368 . S
C491 C475 1.349 . S
C491 H483 0.950 . S
C491 C489 1.327 . S
C492 C480 1.349 . S
C492 H486 0.950 . S
C492 C493 1.327 . S
C493 H487 0.950 . S
C493 C492 1.327 . S
C493 C497 1.429 . S
C494 C477 1.574 . S
C494 H488 0.949 . S
C494 C498 1.368 . S
C495 C476 1.429 . S
C495 C489 1.429 . S
C495 C496 1.523 . S
C496 C477 1.368 . S
C496 C490 1.368 . S
C496 C495 1.523 . S
C497 C481 1.429 . S
C497 C493 1.429 . S
C497 C498 1.523 . S
C498 C482 1.368 . S
C498 C494 1.368 . S
C498 C497 1.523 . S
H499 C474 0.950 . S
H500 C476 0.950 . S
H501 C477 0.949 . S
H502 C479 0.950 . S
H503 C481 0.950 . S
C150 C131 1.529 . S
C145 C29 1.557 . S
C175 C8 1.366 . S
C180 C117 1.330 . S
C205 C0 1.375 . S
C210 C136 1.337 . S
C235 C17 1.564 1_556 S
C240 C112 1.536 . S
C265 C63 1.557 . S
C270 C93 1.529 . S
C295 C42 1.366 . S
C300 C79 1.330 . S
C330 C98 1.337 . S
C325 C34 1.375 . S
C360 C74 1.536 . S
C355 C51 1.563 . S
C385 C4 1.552 . S
C390 C70 1.541 . S
C415 C13 1.542 . S
C420 C89 1.528 . S
C450 C108 1.541 . S
C445 C38 1.552 . S
C475 C47 1.542 . S
C480 C127 1.529 . S
