# Generated by pormake.
# Topology anh, (6,3)-cn, num edge types: 1
# Building blocks:
#     Node 0, Type 0, BuildingBlock: BETDEL_clean_sbu_0, # of connection points: 6
#     Node 1, Type 0, BuildingBlock: BETDEL_clean_sbu_0, # of connection points: 6
#     Node 2, Type 0, BuildingBlock: BETDEL_clean_sbu_0, # of connection points: 6
#     Node 3, Type 1, BuildingBlock: KAKCAD_clean_linker_0, # of connection points: 3
#     Node 4, Type 1, BuildingBlock: KAKCAD_clean_linker_0, # of connection points: 3
#     Node 5, Type 1, BuildingBlock: KAKCAD_clean_linker_0, # of connection points: 3
#     Node 6, Type 1, BuildingBlock: KAKCAD_clean_linker_0, # of connection points: 3
#     Node 7, Type 1, BuildingBlock: KAKCAD_clean_linker_0, # of connection points: 3
#     Node 8, Type 1, BuildingBlock: KAKCAD_clean_linker_0, # of connection points: 3
#     Edge 9, Type (0, 1), BuildingBlock: CIFDUS_clean_linker_0, # of connection points: 2
#     Edge 10, Type (0, 1), BuildingBlock: CIFDUS_clean_linker_0, # of connection points: 2
#     Edge 11, Type (0, 1), BuildingBlock: CIFDUS_clean_linker_0, # of connection points: 2
#     Edge 12, Type (0, 1), BuildingBlock: CIFDUS_clean_linker_0, # of connection points: 2
#     Edge 13, Type (0, 1), BuildingBlock: CIFDUS_clean_linker_0, # of connection points: 2
#     Edge 14, Type (0, 1), BuildingBlock: CIFDUS_clean_linker_0, # of connection points: 2
#     Edge 15, Type (0, 1), BuildingBlock: CIFDUS_clean_linker_0, # of connection points: 2
#     Edge 16, Type (0, 1), BuildingBlock: CIFDUS_clean_linker_0, # of connection points: 2
#     Edge 17, Type (0, 1), BuildingBlock: CIFDUS_clean_linker_0, # of connection points: 2
#     Edge 18, Type (0, 1), BuildingBlock: CIFDUS_clean_linker_0, # of connection points: 2
#     Edge 19, Type (0, 1), BuildingBlock: CIFDUS_clean_linker_0, # of connection points: 2
#     Edge 20, Type (0, 1), BuildingBlock: CIFDUS_clean_linker_0, # of connection points: 2
#     Edge 21, Type (0, 1), BuildingBlock: CIFDUS_clean_linker_0, # of connection points: 2
#     Edge 22, Type (0, 1), BuildingBlock: CIFDUS_clean_linker_0, # of connection points: 2
#     Edge 23, Type (0, 1), BuildingBlock: CIFDUS_clean_linker_0, # of connection points: 2
#     Edge 24, Type (0, 1), BuildingBlock: CIFDUS_clean_linker_0, # of connection points: 2
#     Edge 25, Type (0, 1), BuildingBlock: CIFDUS_clean_linker_0, # of connection points: 2
#     Edge 26, Type (0, 1), BuildingBlock: CIFDUS_clean_linker_0, # of connection points: 2
# Relax obj value: 0.143
# Max RMSD: 0.166
# Mean RMSD: 0.134
data_MOF--net-anh--node1-BETDEL_clean_sbu_0--node2-KAKCAD_clean_linker_0--edge1-CIFDUS_clean_linker_0
_symmetry_space_group_name_H-M    P1
_symmetry_Int_Tables_number       1
_symmetry_cell_setting            triclinic
loop_
_symmetry_equiv_pos_as_xyz
'x, y, z'
_cell_length_a     32.264068
_cell_length_b     32.295477
_cell_length_c     58.109841
_cell_angle_alpha  90.629251
_cell_angle_beta   89.787352
_cell_angle_gamma 119.59122
loop_
_atom_site_label
_atom_site_type_symbol
_atom_site_fract_x
_atom_site_fract_y
_atom_site_fract_z
_atom_type_partial_charge
Dy0 Dy 0.07268 0.49482 0.16388 0.0
C1 C 0.95974 0.58345 0.1784 0.0
C2 C 0.13672 0.46523 0.15636 0.0
Dy3 Dy 0.0184 0.55084 0.16435 0.0
O4 O 0.10889 0.454 0.17405 0.0
O5 O 0.1282 0.49122 0.14239 0.0
O6 O 0.04627 0.46862 0.19911 0.0
O7 O 0.05918 0.53655 0.18962 0.0
C8 C 0.04299 0.50564 0.20521 0.0
C9 C 0.03078 0.53159 0.12021 0.0
O10 O 0.0918 0.61276 0.17009 0.0
O11 O 0.13411 0.5721 0.16548 0.0
O12 O 0.9928 0.60368 0.16291 0.0
O13 O 0.96056 0.54674 0.18676 0.0
O14 O 1.01126 0.55697 0.12595 0.0
O15 O 0.04221 0.51925 0.13846 0.0
O16 O 0.99863 0.43338 0.15624 0.0
O17 O 0.96003 0.47448 0.16798 0.0
C18 C 0.13282 0.61258 0.16843 0.0
C19 C 0.95902 0.43409 0.16212 0.0
Dy20 Dy 0.47409 0.01432 0.49281 0.0
C21 C 0.66895 0.14344 0.51729 0.0
C22 C 0.38746 0.94484 0.47945 0.0
Dy23 Dy 0.58512 0.08011 0.49807 0.0
O24 O 0.39476 0.97907 0.49366 0.0
O25 O 0.42756 0.95178 0.4709 0.0
O26 O 0.45617 1.00697 0.53109 0.0
O27 O 0.52485 0.0453 0.51946 0.0
C28 C 0.5004 0.03229 0.53732 0.0
C29 C 0.55039 0.0675 0.45465 0.0
O30 O 0.58036 1.00868 0.50371 0.0
O31 O 0.49858 0.96011 0.49689 0.0
O32 O 0.66496 0.11853 0.49873 0.0
O33 O 0.62728 0.13139 0.5256 0.0
O34 O 0.58881 0.10533 0.46165 0.0
O35 O 0.53615 0.03748 0.47056 0.0
O36 O 0.48173 0.08658 0.48555 0.0
O37 O 0.55616 0.13035 0.50272 0.0
C38 C 0.54156 0.96581 0.50151 0.0
C39 C 0.51647 0.12719 0.49436 0.0
Dy40 Dy 0.60084 0.61771 0.83505 0.0
C41 C 0.52544 0.42584 0.84576 0.0
C42 C 0.62724 0.71062 0.83991 0.0
Dy43 Dy 0.55158 0.5141 0.83066 0.0
O44 O 0.60273 0.67806 0.85473 0.0
O45 O 0.63742 0.69243 0.82215 0.0
O46 O 0.62975 0.60899 0.8685 0.0
O47 O 0.55938 0.56071 0.85906 0.0
C48 C 0.59057 0.57154 0.87437 0.0
C49 C 0.56556 0.54358 0.7872 0.0
O50 O 0.48645 0.52238 0.83561 0.0
O51 O 0.5264 0.6024 0.82706 0.0
O52 O 0.50111 0.43538 0.831 0.0
O53 O 0.5631 0.46457 0.85233 0.0
O54 O 0.54402 0.49918 0.79311 0.0
O55 O 0.57854 0.57087 0.80477 0.0
O56 O 0.66628 0.6144 0.82643 0.0
O57 O 0.62996 0.53356 0.83255 0.0
C58 C 0.48612 0.56239 0.83097 0.0
C59 C 0.66898 0.57529 0.82916 0.0
C60 C 0.54663 0.08027 0.30248 0.0
C61 C 0.53061 0.04125 0.3174 0.0
C62 C 0.55087 0.07483 0.27883 0.0
C63 C 0.53977 0.03031 0.26929 0.0
C64 C 0.52372 0.99118 0.28414 0.0
C65 C 0.51911 0.99654 0.30784 0.0
C66 C 0.54502 0.02504 0.24399 0.0
C67 C 0.58346 0.06107 0.23187 0.0
C68 C 0.58867 0.0581 0.20791 0.0
C69 C 0.55417 0.01651 0.19597 0.0
C70 C 0.51534 0.97932 0.20804 0.0
C71 C 0.51148 0.98445 0.23189 0.0
C72 C 0.47788 0.93395 0.19692 0.0
C73 C 0.44216 0.93306 0.18273 0.0
C74 C 0.4723 0.89012 0.20428 0.0
C75 C 0.43193 0.84678 0.19814 0.0
C76 C 0.39516 0.84553 0.18457 0.0
C77 C 0.63088 0.09936 0.19648 0.0
C78 C 0.64411 0.1465 0.20303 0.0
C79 C 0.66157 0.09285 0.18143 0.0
C80 C 0.70511 0.13206 0.17416 0.0
C81 C 0.71929 0.17911 0.18163 0.0
C82 C 0.68734 0.1854 0.19589 0.0
C83 C 0.40132 0.88949 0.17669 0.0
H84 H 0.55667 0.11547 0.30907 0.0
H85 H 0.56266 0.10568 0.26798 0.0
H86 H 0.51525 0.9564 0.2775 0.0
H87 H 0.50618 0.96547 0.31862 0.0
H88 H 0.61034 0.09158 0.24135 0.0
H89 H 0.48133 0.95672 0.24102 0.0
H90 H 0.55743 0.01311 0.17758 0.0
H91 H 0.44471 0.96616 0.17721 0.0
H92 H 0.4985 0.8895 0.21567 0.0
H93 H 0.42868 0.81424 0.20495 0.0
H94 H 0.62148 0.15334 0.21444 0.0
H95 H 0.65296 0.05727 0.17604 0.0
H96 H 0.37425 0.89035 0.16607 0.0
H97 H 0.69637 0.22038 0.20242 0.0
H98 H 0.72792 0.1253 0.16288 0.0
C99 C 0.53536 0.57887 0.64112 0.0
C100 C 0.5688 0.56834 0.65103 0.0
C101 C 0.52662 0.57368 0.61738 0.0
C102 C 0.55117 0.55799 0.60282 0.0
C103 C 0.58449 0.54734 0.61271 0.0
C104 C 0.59312 0.55236 0.63646 0.0
C105 C 0.54261 0.55353 0.57741 0.0
C106 C 0.53637 0.58783 0.56567 0.0
C107 C 0.52886 0.58495 0.54175 0.0
C108 C 0.52766 0.54632 0.52924 0.0
C109 C 0.53355 0.5111 0.54086 0.0
C110 C 0.54108 0.5154 0.56481 0.0
C111 C 0.53355 0.46975 0.52891 0.0
C112 C 0.49069 0.42775 0.52373 0.0
C113 C 0.57638 0.46859 0.52718 0.0
C114 C 0.5764 0.42627 0.52147 0.0
C115 C 0.53346 0.3832 0.51771 0.0
C116 C 0.52181 0.62301 0.53095 0.0
C117 C 0.48541 0.63113 0.53925 0.0
C118 C 0.55539 0.6563 0.51566 0.0
C119 C 0.55339 0.6975 0.5095 0.0
C120 C 0.51744 0.70612 0.5183 0.0
C121 C 0.48312 0.67175 0.53298 0.0
C122 C 0.49063 0.38502 0.5181 0.0
H123 H 0.51618 0.59163 0.65167 0.0
H124 H 0.50027 0.58168 0.61046 0.0
H125 H 0.60446 0.53565 0.60206 0.0
H126 H 0.61856 0.54314 0.64342 0.0
H127 H 0.53838 0.61787 0.57515 0.0
H128 H 0.54523 0.48833 0.57371 0.0
H129 H 0.522 0.54359 0.5108 0.0
H130 H 0.457 0.42725 0.52537 0.0
H131 H 0.6099 0.50009 0.53137 0.0
H132 H 0.61032 0.42704 0.52083 0.0
H133 H 0.45949 0.60668 0.55137 0.0
H134 H 0.58441 0.65159 0.50931 0.0
H135 H 0.4568 0.35287 0.51541 0.0
H136 H 0.45526 0.67707 0.54042 0.0
H137 H 0.58024 0.72282 0.49802 0.0
C138 C 0.10181 0.55729 0.97463 0.0
C139 C 0.0575 0.52602 0.98466 0.0
C140 C 0.10552 0.56638 0.95096 0.0
C141 C 0.06509 0.54419 0.93659 0.0
C142 C 0.02087 0.51292 0.94664 0.0
C143 C 0.01709 0.50423 0.97028 0.0
C144 C 0.06895 0.55244 0.91118 0.0
C145 C 0.10847 0.5568 0.8989 0.0
C146 C 0.11116 0.56111 0.87481 0.0
C147 C 0.0731 0.56129 0.86271 0.0
C148 C 0.03316 0.55757 0.87484 0.0
C149 C 0.03202 0.55361 0.89895 0.0
C150 C 0.99035 0.55459 0.86315 0.0
C151 C 0.99278 0.59267 0.85049 0.0
C152 C 0.94513 0.51532 0.86746 0.0
C153 C 0.90349 0.51427 0.85982 0.0
C154 C 0.90532 0.55264 0.84765 0.0
C155 C 0.15312 0.56217 0.86314 0.0
C156 C 0.19965 0.59777 0.86906 0.0
C157 C 0.14758 0.52317 0.84979 0.0
C158 C 0.18741 0.51859 0.84364 0.0
C159 C 0.23381 0.55335 0.85032 0.0
C160 C 0.23949 0.59372 0.86249 0.0
C161 C 0.95075 0.59185 0.84295 0.0
H162 H 0.13386 0.57451 0.98501 0.0
H163 H 0.14013 0.59106 0.94396 0.0
H164 H 0.98899 0.49448 0.93619 0.0
H165 H 0.98216 0.48066 0.9773 0.0
H166 H 0.13662 0.55468 0.908 0.0
H167 H 1.00174 0.55123 0.90826 0.0
H168 H 0.07419 0.56347 0.84411 0.0
H169 H 0.02701 0.6238 0.8472 0.0
H170 H 0.9419 0.48567 0.87739 0.0
H171 H 0.86955 0.48376 0.86419 0.0
H172 H 0.20504 0.62781 0.87969 0.0
H173 H 0.11223 0.49477 0.84533 0.0
H174 H 0.95383 0.622 0.83355 0.0
H175 H 0.27458 0.62093 0.86807 0.0
H176 H 0.18184 0.48715 0.83419 0.0
C177 C 0.98584 0.52465 0.34974 0.0
C178 C 0.02802 0.52867 0.34071 0.0
C179 C 0.98178 0.53018 0.37336 0.0
C180 C 0.02027 0.54084 0.38803 0.0
C181 C 0.06295 0.54627 0.37887 0.0
C182 C 0.06663 0.53972 0.35536 0.0
C183 C 1.01559 0.54459 0.41303 0.0
C184 C 0.98091 0.50561 0.42525 0.0
C185 C 0.97972 0.50759 0.44935 0.0
C186 C 1.01172 0.54912 0.46104 0.0
C187 C 0.04633 0.58798 0.44903 0.0
C188 C 0.04827 0.5857 0.42496 0.0
C189 C 0.08303 0.62882 0.46198 0.0
C190 C 0.07096 0.64766 0.48114 0.0
C191 C 0.13082 0.64763 0.45578 0.0
C192 C 0.16593 0.68591 0.4679 0.0
C193 C 0.15415 0.70583 0.48679 0.0
C194 C 0.94805 0.46537 0.4627 0.0
C195 C 0.89968 0.43834 0.45704 0.0
C196 C 0.96643 0.45219 0.4814 0.0
C197 C 0.93684 0.41222 0.49419 0.0
C198 C 0.88858 0.38509 0.48846 0.0
C199 C 0.87003 0.39845 0.46992 0.0
C200 C 0.10637 0.68593 0.49352 0.0
H201 H 0.95562 0.51579 0.33864 0.0
H202 H 0.94864 0.52592 0.38021 0.0
H203 H 0.09291 0.5542 0.39 0.0
H204 H 0.0994 0.54283 0.34861 0.0
H205 H 0.95682 0.47301 0.41614 0.0
H206 H 0.07543 0.61563 0.4155 0.0
H207 H 1.01098 0.55035 0.47969 0.0
H208 H 0.03412 0.63339 0.48627 0.0
H209 H 0.14114 0.63295 0.44145 0.0
H210 H 0.20218 0.70103 0.46171 0.0
H211 H 0.88489 0.44812 0.44276 0.0
H212 H 1.00388 0.47237 0.4859 0.0
H213 H 0.09632 0.7006 0.50794 0.0
H214 H 0.83285 0.37736 0.46504 0.0
H215 H 0.95164 0.40226 0.50841 0.0
C216 C 0.51553 0.02544 0.6871 0.0
C217 C 0.54324 0.06318 0.6723 0.0
C218 C 0.52626 0.02919 0.71043 0.0
C219 C 0.56484 0.07086 0.71946 0.0
C220 C 0.59308 0.10852 0.70466 0.0
C221 C 0.58257 0.10453 0.68113 0.0
C222 C 0.57441 0.0745 0.74442 0.0
C223 C 0.57344 0.03602 0.75579 0.0
C224 C 0.57656 0.03609 0.77982 0.0
C225 C 0.58145 0.07512 0.79245 0.0
C226 C 0.58295 0.11391 0.78135 0.0
C227 C 0.58014 0.11406 0.75726 0.0
C228 C 0.58306 0.15183 0.79544 0.0
C229 C 0.54985 0.13958 0.81336 0.0
C230 C 0.61621 0.19974 0.79149 0.0
C231 C 0.61552 0.23515 0.80516 0.0
C232 C 0.58134 0.22274 0.82263 0.0
C233 C 0.57545 0.99571 0.79171 0.0
C234 C 0.54445 0.94899 0.78415 0.0
C235 C 0.60791 1.00391 0.8096 0.0
C236 C 0.61235 0.96638 0.81827 0.0
C237 C 0.58477 0.92073 0.8089 0.0
C238 C 0.54935 0.91162 0.79261 0.0
C239 C 0.54899 0.1748 0.82685 0.0
H240 H 0.48531 0.99303 0.68061 0.0
H241 H 0.50369 0.99979 0.72152 0.0
H242 H 0.62318 0.14084 0.71128 0.0
H243 H 0.60434 0.13408 0.66997 0.0
H244 H 0.57025 1.00598 0.74585 0.0
H245 H 0.5795 0.14342 0.74872 0.0
H246 H 0.58312 0.07497 0.81109 0.0
H247 H 0.52378 0.10271 0.81658 0.0
H248 H 0.6423 0.20966 0.77785 0.0
H249 H 0.64028 0.27217 0.80148 0.0
H250 H 0.51814 0.9417 0.77088 0.0
H251 H 0.63219 0.03964 0.81575 0.0
H252 H 0.52221 0.16475 0.84017 0.0
H253 H 0.52772 0.8762 0.7854 0.0
H254 H 0.64 0.97366 0.83079 0.0
C255 C 0.57846 0.49139 0.01958 0.0
C256 C 0.57184 0.5261 0.00866 0.0
C257 C 0.57027 0.484 0.04318 0.0
C258 C 0.5557 0.51156 0.05617 0.0
C259 C 0.54851 0.54594 0.04495 0.0
C260 C 0.5564 0.55302 0.02135 0.0
C261 C 0.5499 0.50599 0.08146 0.0
C262 C 0.58296 0.50013 0.09472 0.0
C263 C 0.57948 0.49825 0.1188 0.0
C264 C 0.54256 0.50172 0.12957 0.0
C265 C 0.50996 0.50846 0.11673 0.0
C266 C 0.51317 0.50965 0.09264 0.0
C267 C 0.47426 0.51663 0.12876 0.0
C268 C 0.45197 0.49129 0.14879 0.0
C269 C 0.46304 0.55062 0.12058 0.0
C270 C 0.42785 0.55681 0.13128 0.0
C271 C 0.40375 0.52959 0.15058 0.0
C272 C 0.61704 0.49797 0.13304 0.0
C273 C 0.63746 0.46981 0.12688 0.0
C274 C 0.63431 0.52815 0.15248 0.0
C275 C 0.67239 0.53151 0.16498 0.0
C276 C 0.69396 0.50509 0.15817 0.0
C277 C 0.67599 0.47351 0.13939 0.0
C278 C 0.41755 0.49826 0.1598 0.0
H279 H 0.59044 0.47041 0.0099 0.0
H280 H 0.57557 0.45691 0.05126 0.0
H281 H 0.53813 0.56835 0.0545 0.0
H282 H 0.55152 0.58023 0.01308 0.0
H283 H 0.61287 0.49972 0.08641 0.0
H284 H 0.48711 0.51354 0.08258 0.0
H285 H 0.54042 0.50109 0.14818 0.0
H286 H 0.45984 0.46483 0.15557 0.0
H287 H 0.48071 0.57178 0.10561 0.0
H288 H 0.41774 0.58092 0.12357 0.0
H289 H 0.62454 0.44605 0.11209 0.0
H290 H 0.62005 0.55108 0.15741 0.0
H291 H 0.40003 0.47732 0.17485 0.0
H292 H 0.69322 0.45364 0.13376 0.0
H293 H 0.6868 0.55677 0.17917 0.0
H294 H 0.21951 0.54498 0.15453 0.0
H295 H 0.15618 0.39352 0.1637 0.0
H296 H 0.23582 0.40158 0.16674 0.0
H297 H 0.32185 0.4509 0.16217 0.0
H298 H 0.38513 0.60337 0.15528 0.0
H299 H 0.30607 0.59593 0.15651 0.0
C300 C 0.22342 0.51379 0.15698 0.0
C301 C 0.18305 0.46848 0.15778 0.0
C302 C 0.26868 0.51904 0.15939 0.0
C303 C 0.18749 0.42838 0.16221 0.0
C304 C 0.23271 0.43312 0.16415 0.0
C305 C 0.31873 0.48281 0.16177 0.0
C306 C 0.35913 0.52754 0.15811 0.0
C307 C 0.27345 0.47821 0.16224 0.0
C308 C 0.3543 0.56843 0.15754 0.0
C309 C 0.30925 0.5642 0.15814 0.0
H310 H 0.76321 0.17281 0.51492 0.0
H311 H 0.6616 0.22108 0.52617 0.0
H312 H 0.72345 0.30321 0.52094 0.0
H313 H 0.80321 0.35927 0.50723 0.0
H314 H 0.90597 0.31249 0.49649 0.0
H315 H 0.84769 0.23212 0.50863 0.0
C316 C 0.75535 0.20164 0.51706 0.0
C317 C 0.7085 0.19141 0.52084 0.0
C318 C 0.79115 0.24891 0.51412 0.0
C319 C 0.69791 0.22851 0.52353 0.0
C320 C 0.73307 0.27544 0.52033 0.0
C321 C 0.81291 0.33156 0.50804 0.0
C322 C 0.85789 0.34083 0.50058 0.0
C323 C 0.77932 0.28574 0.51473 0.0
C324 C 0.87103 0.30551 0.50205 0.0
C325 C 0.83775 0.25965 0.5088 0.0
H326 H 0.65239 0.77081 0.80488 0.0
H327 H 0.60604 0.75201 0.87558 0.0
H328 H 0.591 0.81899 0.8728 0.0
H329 H 0.58234 0.87659 0.84852 0.0
H330 H 0.62163 0.88853 0.77692 0.0
H331 H 0.64782 0.83001 0.78157 0.0
C332 C 0.64019 0.78223 0.81982 0.0
C333 C 0.63015 0.75699 0.8403 0.0
C334 C 0.62934 0.81867 0.81772 0.0
C335 C 0.61405 0.77148 0.85961 0.0
C336 C 0.60499 0.80929 0.85797 0.0
C337 C 0.59679 0.86615 0.83412 0.0
C338 C 0.59958 0.88549 0.8124 0.0
C339 C 0.61089 0.83197 0.83684 0.0
C340 C 0.61854 0.87277 0.79366 0.0
C341 C 0.6338 0.83984 0.79634 0.0
H342 H 0.88058 0.52975 0.2028 0.0
H343 H 0.94179 0.64376 0.15362 0.0
H344 H 0.86249 0.63034 0.14396 0.0
H345 H 0.77591 0.57852 0.14544 0.0
H346 H 0.71432 0.46043 0.19208 0.0
H347 H 0.79402 0.48238 0.20676 0.0
C348 C 0.87661 0.55264 0.19052 0.0
C349 C 0.91657 0.58741 0.17879 0.0
C350 C 0.83098 0.54298 0.1842 0.0
C351 C 0.91133 0.61693 0.16291 0.0
C352 C 0.86604 0.6088 0.15715 0.0
C353 C 0.78031 0.55807 0.15897 0.0
C354 C 0.74044 0.51792 0.16768 0.0
C355 C 0.82572 0.57062 0.16696 0.0
C356 C 0.74532 0.4912 0.18516 0.0
C357 C 0.79055 0.50392 0.19355 0.0
H358 H 0.297 0.92048 0.49056 0.0
H359 H 0.39103 0.86348 0.47745 0.0
H360 H 0.32838 0.78426 0.48766 0.0
H361 H 0.2453 0.73025 0.49577 0.0
H362 H 0.14657 0.78377 0.49975 0.0
H363 H 0.2128 0.86532 0.50019 0.0
C364 C 0.30322 0.8904 0.48965 0.0
C365 C 0.34755 0.89708 0.48251 0.0
C366 C 0.2666 0.84464 0.49483 0.0
C367 C 0.3563 0.85857 0.48201 0.0
C368 C 0.32091 0.8135 0.48829 0.0
C369 C 0.23836 0.75985 0.49696 0.0
C370 C 0.19136 0.7512 0.49668 0.0
C371 C 0.2757 0.80602 0.49415 0.0
C372 C 0.18258 0.78948 0.49958 0.0
C373 C 0.22036 0.83617 0.49926 0.0
H374 H 0.59277 0.40827 0.86167 0.0
H375 H 0.44984 0.33974 0.83413 0.0
H376 H 0.45278 0.26614 0.82797 0.0
H377 H 0.50114 0.22744 0.82405 0.0
H378 H 0.64789 0.30053 0.8462 0.0
H379 H 0.6389 0.36722 0.86071 0.0
C380 C 0.56174 0.37677 0.85495 0.0
C381 C 0.52118 0.37901 0.84821 0.0
C382 C 0.56502 0.33615 0.85005 0.0
C383 C 0.48131 0.33839 0.83941 0.0
C384 C 0.48322 0.29666 0.83569 0.0
C385 C 0.53067 0.25752 0.83262 0.0
C386 C 0.575 0.25961 0.83424 0.0
C387 C 0.52566 0.29603 0.83996 0.0
C388 C 0.61356 0.29876 0.84485 0.0
C389 C 0.60836 0.33659 0.85311 0.0
H390 H 0.47009 0.87251 0.50089 0.0
H391 H 0.6227 0.95906 0.50798 0.0
H392 H 0.62928 0.88726 0.51248 0.0
H393 H 0.59133 0.7992 0.51571 0.0
H394 H 0.43862 0.71387 0.50861 0.0
H395 H 0.43278 0.78547 0.50289 0.0
C396 C 0.50495 0.87596 0.50338 0.0
C397 C 0.54581 0.92175 0.50418 0.0
C398 C 0.50853 0.83436 0.50605 0.0
C399 C 0.59047 0.92473 0.50741 0.0
C400 C 0.5943 0.88347 0.50995 0.0
C401 C 0.55682 0.79616 0.51262 0.0
C402 C 0.51543 0.75067 0.51281 0.0
C403 C 0.55355 0.83798 0.50943 0.0
C404 C 0.47108 0.74803 0.50896 0.0
C405 C 0.46767 0.78913 0.5056 0.0
H406 H 0.6938 0.50548 0.82338 0.0
H407 H 0.75355 0.65485 0.83955 0.0
H408 H 0.83163 0.66202 0.84573 0.0
H409 H 0.88299 0.62513 0.84849 0.0
H410 H 0.82385 0.47651 0.83064 0.0
H411 H 0.74666 0.47021 0.8231 0.0
C412 C 0.72397 0.5397 0.82807 0.0
C413 C 0.71733 0.57949 0.83096 0.0
C414 C 0.76937 0.54383 0.83141 0.0
C415 C 0.75723 0.62355 0.83697 0.0
C416 C 0.80212 0.62772 0.84063 0.0
C417 C 0.85349 0.59151 0.84261 0.0
C418 C 0.85962 0.55118 0.84057 0.0
C419 C 0.80868 0.58803 0.83811 0.0
C420 C 0.82041 0.50799 0.83297 0.0
C421 C 0.77603 0.50432 0.82853 0.0
H422 H 0.22685 0.63161 0.16752 0.0
H423 H 0.14218 0.70085 0.17479 0.0
H424 H 0.21412 0.7776 0.17943 0.0
H425 H 0.30161 0.82618 0.18266 0.0
H426 H 0.38706 0.758 0.17509 0.0
H427 H 0.31514 0.68103 0.16955 0.0
C428 C 0.22402 0.66342 0.17008 0.0
C429 C 0.1784 0.65961 0.17084 0.0
C430 C 0.26612 0.7083 0.17281 0.0
C431 C 0.17621 0.70185 0.17415 0.0
C432 C 0.21762 0.74619 0.17682 0.0
C433 C 0.30476 0.79471 0.1795 0.0
C434 C 0.35041 0.79863 0.1795 0.0
C435 C 0.26287 0.75001 0.17629 0.0
C436 C 0.35288 0.75667 0.17562 0.0
C437 C 0.31151 0.71232 0.17232 0.0
H438 H 0.56781 0.20577 0.52119 0.0
H439 H 0.45377 0.14789 0.47136 0.0
H440 H 0.44833 0.2211 0.47396 0.0
H441 H 0.47739 0.30312 0.49023 0.0
H442 H 0.58972 0.35691 0.54118 0.0
H443 H 0.59428 0.28431 0.5381 0.0
C444 C 0.54171 0.20891 0.51077 0.0
C445 C 0.51147 0.17103 0.49594 0.0
C446 C 0.53856 0.25089 0.5125 0.0
C447 C 0.47756 0.17614 0.48293 0.0
C448 C 0.47452 0.2182 0.4844 0.0
C449 C 0.50274 0.29894 0.50073 0.0
C450 C 0.53394 0.33669 0.51557 0.0
C451 C 0.50497 0.25607 0.49912 0.0
C452 C 0.56626 0.32981 0.52904 0.0
C453 C 0.56868 0.28784 0.52748 0.0
H454 H 0.397 0.49661 0.84741 0.0
H455 H 0.47241 0.63332 0.8144 0.0
H456 H 0.40189 0.64218 0.81682 0.0
H457 H 0.31944 0.6136 0.83008 0.0
H458 H 0.24251 0.47642 0.86215 0.0
H459 H 0.31226 0.46558 0.85849 0.0
C460 C 0.39789 0.52812 0.84054 0.0
C461 C 0.44059 0.56437 0.83092 0.0
C462 C 0.35673 0.53325 0.84202 0.0
C463 C 0.44061 0.60492 0.82215 0.0
C464 C 0.4001 0.61014 0.82352 0.0
C465 C 0.31789 0.5812 0.83612 0.0
C466 C 0.27564 0.54586 0.84636 0.0
C467 C 0.35814 0.57497 0.83374 0.0
C468 C 0.2743 0.504 0.85398 0.0
C469 C 0.31435 0.49787 0.85199 0.0
H470 H 0.93701 0.33861 0.16322 0.0
H471 H 0.8719 0.42769 0.16392 0.0
H472 H 0.79389 0.35834 0.16894 0.0
H473 H 0.74296 0.27265 0.1743 0.0
H474 H 0.80586 0.18179 0.17522 0.0
H475 H 0.88428 0.25052 0.16784 0.0
C476 C 0.90573 0.34281 0.16421 0.0
C477 C 0.9112 0.3891 0.16318 0.0
C478 C 0.85987 0.30205 0.16738 0.0
C479 C 0.86969 0.39316 0.16471 0.0
C480 C 0.82459 0.35323 0.16761 0.0
C481 C 0.77364 0.2675 0.17311 0.0
C482 C 0.76751 0.22125 0.17554 0.0
C483 C 0.81915 0.30754 0.16925 0.0
C484 C 0.80845 0.21628 0.17323 0.0
C485 C 0.85379 0.25594 0.16918 0.0
H486 H 0.99781 0.46118 0.08781 0.0
H487 H 0.10448 0.6071 0.10058 0.0
H488 H 0.125 0.61783 0.05967 0.0
H489 H 0.10559 0.5886 0.01988 0.0
H490 H 0.99908 0.44215 0.00678 0.0
H491 H 0.98512 0.42896 0.04798 0.0
C492 C 0.02651 0.49475 0.08163 0.0
C493 C 0.05013 0.53317 0.09706 0.0
C494 C 0.03727 0.50095 0.05794 0.0
C495 C 0.08642 0.57694 0.08893 0.0
C496 C 0.0978 0.58318 0.06554 0.0
C497 C 0.08007 0.55344 0.02595 0.0
C498 C 0.05289 0.51676 0.01 0.0
C499 C 0.07243 0.54587 0.04977 0.0
C500 C 0.01965 0.4716 0.01847 0.0
C501 C 1.01186 0.46381 0.04212 0.0
H502 H 0.523 0.10537 0.42035 0.0
H503 H 0.562 0.99833 0.43419 0.0
H504 H 0.55827 0.97954 0.39305 0.0
H505 H 0.54888 0.9972 0.35298 0.0
H506 H 0.50319 0.09971 0.33927 0.0
H507 H 0.50452 0.11647 0.38032 0.0
C508 C 0.53013 0.07763 0.41426 0.0
C509 C 0.54298 0.05339 0.43011 0.0
C510 C 0.52709 0.06644 0.39059 0.0
C511 C 0.55188 0.01728 0.42221 0.0
C512 C 0.54992 1.00667 0.3987 0.0
C513 C 0.53833 0.02259 0.35889 0.0
C514 C 0.52695 0.0478 0.34276 0.0
C515 C 0.53817 0.03146 0.38267 0.0
C516 C 0.51366 0.08076 0.35104 0.0
C517 C 0.51403 0.09019 0.37462 0.0
H518 H 0.63582 0.58367 0.75499 0.0
H519 H 0.48605 0.53049 0.76629 0.0
H520 H 0.47377 0.53564 0.72516 0.0
H521 H 0.504 0.54732 0.68567 0.0
H522 H 0.65393 0.60034 0.6738 0.0
H523 H 0.66766 0.60267 0.7152 0.0
C524 C 0.6009 0.57464 0.74841 0.0
C525 C 0.56197 0.55751 0.76355 0.0
C526 C 0.59392 0.57658 0.72456 0.0
C527 C 0.51657 0.54452 0.75489 0.0
C528 C 0.50949 0.54704 0.73137 0.0
C529 C 0.5399 0.56032 0.69207 0.0
C530 C 0.57771 0.57311 0.67644 0.0
C531 C 0.54765 0.56184 0.71596 0.0
C532 C 0.62384 0.58919 0.68528 0.0
C533 C 0.63186 0.59092 0.70903 0.0
H534 H 0.44836 0.02516 0.57453 0.0
H535 H 0.5904 0.0619 0.55332 0.0
H536 H 0.61772 0.07866 0.59338 0.0
H537 H 0.59957 0.07904 0.63478 0.0
H538 H 0.456 0.03837 0.65543 0.0
H539 H 0.43059 0.02656 0.61526 0.0
C540 C 0.48534 0.03707 0.57871 0.0
C541 C 0.51767 0.04338 0.56113 0.0
C542 C 0.50029 0.04556 0.60168 0.0
C543 C 0.56538 0.05842 0.56662 0.0
C544 C 0.58079 0.06743 0.58951 0.0
C545 C 0.56293 0.06815 0.63035 0.0
C546 C 0.52958 0.0594 0.64787 0.0
C547 C 0.54844 0.06087 0.60721 0.0
C548 C 0.48207 0.04484 0.64212 0.0
C549 C 0.46756 0.03817 0.61922 0.0
H550 H 0.6524 0.59803 0.90983 0.0
H551 H 0.50496 0.50515 0.89176 0.0
H552 H 0.48601 0.48166 0.93201 0.0
H553 H 0.511 0.49101 0.97276 0.0
H554 H 0.65831 0.58382 0.99054 0.0
H555 H 0.678 0.60424 0.94996 0.0
C556 C 0.61623 0.57233 0.91471 0.0
C557 C 0.58005 0.55356 0.89802 0.0
C558 C 0.60565 0.55933 0.9378 0.0
C559 C 0.53335 0.52012 0.90442 0.0
C560 C 0.52248 0.50682 0.9274 0.0
C561 C 0.54734 0.51538 0.96755 0.0
C562 C 0.58335 0.53608 0.98422 0.0
C563 C 0.55822 0.52675 0.94427 0.0
C564 C 0.63036 0.56765 0.97769 0.0
C565 C 0.64151 0.57926 0.95461 0.0
H566 H 0.04325 0.45665 0.24211 0.0
H567 H 0.02964 0.5776 0.22213 0.0
H568 H 0.02192 0.59475 0.26268 0.0
H569 H 0.02096 0.57577 0.30397 0.0
H570 H 0.04131 0.4585 0.3232 0.0
H571 H 0.04487 0.4394 0.28266 0.0
C572 C 0.0383 0.48662 0.24661 0.0
C573 C 0.03654 0.51562 0.22928 0.0
C574 C 0.03547 0.49697 0.26977 0.0
C575 C 0.03076 0.55467 0.23528 0.0
C576 C 0.02651 0.56451 0.25841 0.0
C577 C 0.02608 0.54607 0.29911 0.0
C578 C 0.03077 0.51836 0.31625 0.0
C579 C 0.0291 0.53602 0.2758 0.0
C580 C 0.03783 0.48021 0.31009 0.0
C581 C 0.03972 0.46927 0.28701 0.0
loop_
_geom_bond_atom_site_label_1
_geom_bond_atom_site_label_2
_geom_bond_distance
_geom_bond_site_symmetry_2
_ccdc_geom_bond_type
Dy0 O4 2.398 . S
Dy0 O5 2.491 . S
Dy0 O6 2.403 . S
Dy0 O7 2.664 . S
Dy0 O11 2.326 . S
Dy0 O15 2.310 . S
Dy0 O16 2.351 1_455 S
C1 O12 1.185 . S
C1 O13 1.355 . S
C2 O4 1.185 . S
C2 O5 1.355 . S
Dy3 O7 2.310 1_655 S
Dy3 O10 2.351 1_655 S
Dy3 O12 2.398 . S
Dy3 O13 2.491 . S
Dy3 O14 2.403 1_655 S
Dy3 O15 2.664 1_655 S
Dy3 O17 2.326 . S
O4 Dy0 2.398 . S
O4 C2 1.185 . S
O5 Dy0 2.491 . S
O5 C2 1.355 . S
O6 Dy0 2.403 . S
O6 C8 1.254 . S
O7 Dy0 2.664 . S
O7 Dy3 2.310 1_455 S
O7 C8 1.268 . S
C8 O6 1.254 . S
C8 O7 1.268 . S
C9 O14 1.254 . S
C9 O15 1.268 . S
O10 Dy3 2.351 1_455 S
O10 C18 1.249 . S
O11 Dy0 2.326 . S
O11 C18 1.267 . S
O12 C1 1.185 . S
O12 Dy3 2.398 . S
O13 C1 1.355 . S
O13 Dy3 2.491 . S
O14 Dy3 2.403 1_455 S
O14 C9 1.254 . S
O15 Dy0 2.310 . S
O15 Dy3 2.664 1_455 S
O15 C9 1.268 . S
O16 Dy0 2.351 1_655 S
O16 C19 1.249 . S
O17 Dy3 2.326 . S
O17 C19 1.267 . S
C18 O10 1.249 . S
C18 O11 1.267 . S
C19 O16 1.249 . S
C19 O17 1.267 . S
Dy20 O24 2.398 . S
Dy20 O25 2.491 . S
Dy20 O26 2.403 1_565 S
Dy20 O27 2.664 1_565 S
Dy20 O31 2.326 . S
Dy20 O35 2.310 1_565 S
Dy20 O36 2.352 1_565 S
C21 O32 1.185 . S
C21 O33 1.355 . S
C22 O24 1.185 . S
C22 O25 1.355 . S
Dy23 O27 2.310 . S
Dy23 O30 2.351 1_545 S
Dy23 O32 2.398 . S
Dy23 O33 2.491 . S
Dy23 O34 2.403 . S
Dy23 O35 2.664 . S
Dy23 O37 2.326 . S
O24 Dy20 2.398 . S
O24 C22 1.185 . S
O25 Dy20 2.491 . S
O25 C22 1.355 . S
O26 Dy20 2.403 1_545 S
O26 C28 1.254 . S
O27 Dy20 2.664 1_545 S
O27 Dy23 2.310 . S
O27 C28 1.268 . S
C28 O26 1.254 . S
C28 O27 1.268 . S
C29 O34 1.254 . S
C29 O35 1.268 . S
O30 Dy23 2.351 1_565 S
O30 C38 1.249 . S
O31 Dy20 2.326 . S
O31 C38 1.267 . S
O32 C21 1.185 . S
O32 Dy23 2.398 . S
O33 C21 1.355 . S
O33 Dy23 2.491 . S
O34 Dy23 2.403 . S
O34 C29 1.254 . S
O35 Dy20 2.310 1_545 S
O35 Dy23 2.664 . S
O35 C29 1.268 . S
O36 Dy20 2.352 1_545 S
O36 C39 1.249 . S
O37 Dy23 2.326 . S
O37 C39 1.267 . S
C38 O30 1.249 . S
C38 O31 1.267 . S
C39 O36 1.249 . S
C39 O37 1.267 . S
Dy40 O44 2.398 . S
Dy40 O45 2.491 . S
Dy40 O46 2.403 . S
Dy40 O47 2.664 . S
Dy40 O51 2.326 . S
Dy40 O55 2.310 . S
Dy40 O56 2.351 . S
C41 O52 1.185 . S
C41 O53 1.355 . S
C42 O44 1.185 . S
C42 O45 1.355 . S
Dy43 O47 2.310 . S
Dy43 O50 2.351 . S
Dy43 O52 2.398 . S
Dy43 O53 2.491 . S
Dy43 O54 2.403 . S
Dy43 O55 2.664 . S
Dy43 O57 2.326 . S
O44 Dy40 2.398 . S
O44 C42 1.185 . S
O45 Dy40 2.491 . S
O45 C42 1.355 . S
O46 Dy40 2.403 . S
O46 C48 1.254 . S
O47 Dy40 2.664 . S
O47 Dy43 2.310 . S
O47 C48 1.268 . S
C48 O46 1.254 . S
C48 O47 1.268 . S
C49 O54 1.254 . S
C49 O55 1.268 . S
O50 Dy43 2.351 . S
O50 C58 1.249 . S
O51 Dy40 2.326 . S
O51 C58 1.267 . S
O52 C41 1.185 . S
O52 Dy43 2.398 . S
O53 C41 1.355 . S
O53 Dy43 2.491 . S
O54 Dy43 2.403 . S
O54 C49 1.254 . S
O55 Dy40 2.310 . S
O55 Dy43 2.664 . S
O55 C49 1.268 . S
O56 Dy40 2.351 . S
O56 C59 1.249 . S
O57 Dy43 2.326 . S
O57 C59 1.267 . S
C58 O50 1.249 . S
C58 O51 1.267 . S
C59 O56 1.249 . S
C59 O57 1.267 . S
C60 C61 1.386 . S
C60 C62 1.397 . S
C60 H84 0.931 . S
C61 C60 1.386 . S
C61 C65 1.397 1_545 S
C62 C60 1.397 . S
C62 C63 1.384 . S
C62 H85 0.930 . S
C63 C62 1.384 . S
C63 C64 1.377 1_545 S
C63 C66 1.481 . S
C64 C63 1.377 1_565 S
C64 C65 1.389 . S
C64 H86 0.929 . S
C65 C61 1.397 1_565 S
C65 C64 1.389 . S
C65 H87 0.931 . S
C66 C63 1.481 . S
C66 C67 1.387 . S
C66 C71 1.390 1_545 S
C67 C66 1.387 . S
C67 C68 1.401 . S
C67 H88 0.930 . S
C68 C67 1.401 . S
C68 C69 1.376 . S
C68 C77 1.511 . S
C69 C68 1.376 . S
C69 C70 1.392 1_545 S
C69 H90 0.931 . S
C70 C69 1.392 1_565 S
C70 C71 1.361 . S
C70 C72 1.500 . S
C71 C66 1.390 1_565 S
C71 C70 1.361 . S
C71 H89 0.931 . S
C72 C70 1.500 . S
C72 C73 1.371 . S
C72 C74 1.365 . S
C73 C72 1.371 . S
C73 C83 1.386 . S
C73 H91 0.931 . S
C74 C72 1.365 . S
C74 C75 1.409 . S
C74 H92 0.929 . S
C75 C74 1.409 . S
C75 C76 1.380 . S
C75 H93 0.930 . S
C76 C75 1.380 . S
C76 C83 1.357 . S
C77 C68 1.511 . S
C77 C78 1.341 . S
C77 C79 1.371 . S
C78 C77 1.341 . S
C78 C82 1.394 . S
C78 H94 0.930 . S
C79 C77 1.371 . S
C79 C80 1.392 . S
C79 H95 0.931 . S
C80 C79 1.392 . S
C80 C81 1.331 . S
C80 H98 0.932 . S
C81 C80 1.331 . S
C81 C82 1.336 . S
C82 C78 1.394 . S
C82 C81 1.336 . S
C82 H97 0.929 . S
C83 C73 1.386 . S
C83 C76 1.357 . S
C83 H96 0.928 . S
H84 C60 0.931 . S
H85 C62 0.930 . S
H86 C64 0.929 . S
H87 C65 0.931 . S
H88 C67 0.930 . S
H89 C71 0.931 . S
H90 C69 0.931 . S
H91 C73 0.931 . S
H92 C74 0.929 . S
H93 C75 0.930 . S
H94 C78 0.930 . S
H95 C79 0.931 . S
H96 C83 0.928 . S
H97 C82 0.929 . S
H98 C80 0.932 . S
C99 C100 1.386 . S
C99 C101 1.397 . S
C99 H123 0.931 . S
C100 C99 1.386 . S
C100 C104 1.397 . S
C101 C99 1.397 . S
C101 C102 1.384 . S
C101 H124 0.930 . S
C102 C101 1.384 . S
C102 C103 1.377 . S
C102 C105 1.481 . S
C103 C102 1.377 . S
C103 C104 1.389 . S
C103 H125 0.929 . S
C104 C100 1.397 . S
C104 C103 1.389 . S
C104 H126 0.931 . S
C105 C102 1.481 . S
C105 C106 1.387 . S
C105 C110 1.390 . S
C106 C105 1.387 . S
C106 C107 1.401 . S
C106 H127 0.930 . S
C107 C106 1.401 . S
C107 C108 1.376 . S
C107 C116 1.511 . S
C108 C107 1.376 . S
C108 C109 1.392 . S
C108 H129 0.931 . S
C109 C108 1.392 . S
C109 C110 1.361 . S
C109 C111 1.500 . S
C110 C105 1.390 . S
C110 C109 1.361 . S
C110 H128 0.931 . S
C111 C109 1.500 . S
C111 C112 1.371 . S
C111 C113 1.365 . S
C112 C111 1.371 . S
C112 C122 1.386 . S
C112 H130 0.931 . S
C113 C111 1.365 . S
C113 C114 1.409 . S
C113 H131 0.929 . S
C114 C113 1.409 . S
C114 C115 1.380 . S
C114 H132 0.930 . S
C115 C114 1.380 . S
C115 C122 1.357 . S
C116 C107 1.511 . S
C116 C117 1.341 . S
C116 C118 1.371 . S
C117 C116 1.341 . S
C117 C121 1.394 . S
C117 H133 0.930 . S
C118 C116 1.371 . S
C118 C119 1.392 . S
C118 H134 0.931 . S
C119 C118 1.392 . S
C119 C120 1.331 . S
C119 H137 0.932 . S
C120 C119 1.331 . S
C120 C121 1.336 . S
C121 C117 1.394 . S
C121 C120 1.336 . S
C121 H136 0.929 . S
C122 C112 1.386 . S
C122 C115 1.357 . S
C122 H135 0.928 . S
H123 C99 0.931 . S
H124 C101 0.930 . S
H125 C103 0.929 . S
H126 C104 0.931 . S
H127 C106 0.930 . S
H128 C110 0.931 . S
H129 C108 0.931 . S
H130 C112 0.931 . S
H131 C113 0.929 . S
H132 C114 0.930 . S
H133 C117 0.930 . S
H134 C118 0.931 . S
H135 C122 0.928 . S
H136 C121 0.929 . S
H137 C119 0.932 . S
C138 C139 1.386 . S
C138 C140 1.397 . S
C138 H162 0.931 . S
C139 C138 1.386 . S
C139 C143 1.397 . S
C140 C138 1.397 . S
C140 C141 1.384 . S
C140 H163 0.930 . S
C141 C140 1.384 . S
C141 C142 1.377 . S
C141 C144 1.481 . S
C142 C141 1.377 . S
C142 C143 1.389 . S
C142 H164 0.929 1_455 S
C143 C139 1.397 . S
C143 C142 1.389 . S
C143 H165 0.931 1_455 S
C144 C141 1.481 . S
C144 C145 1.387 . S
C144 C149 1.390 . S
C145 C144 1.387 . S
C145 C146 1.401 . S
C145 H166 0.930 . S
C146 C145 1.401 . S
C146 C147 1.376 . S
C146 C155 1.511 . S
C147 C146 1.376 . S
C147 C148 1.392 . S
C147 H168 0.931 . S
C148 C147 1.392 . S
C148 C149 1.361 . S
C148 C150 1.500 1_455 S
C149 C144 1.390 . S
C149 C148 1.361 . S
C149 H167 0.931 1_455 S
C150 C148 1.500 1_655 S
C150 C151 1.371 . S
C150 C152 1.365 . S
C151 C150 1.371 . S
C151 C161 1.386 . S
C151 H169 0.931 1_655 S
C152 C150 1.365 . S
C152 C153 1.409 . S
C152 H170 0.929 . S
C153 C152 1.409 . S
C153 C154 1.380 . S
C153 H171 0.930 . S
C154 C153 1.380 . S
C154 C161 1.357 . S
C155 C146 1.511 . S
C155 C156 1.341 . S
C155 C157 1.371 . S
C156 C155 1.341 . S
C156 C160 1.394 . S
C156 H172 0.930 . S
C157 C155 1.371 . S
C157 C158 1.392 . S
C157 H173 0.931 . S
C158 C157 1.392 . S
C158 C159 1.331 . S
C158 H176 0.932 . S
C159 C158 1.331 . S
C159 C160 1.336 . S
C160 C156 1.394 . S
C160 C159 1.336 . S
C160 H175 0.929 . S
C161 C151 1.386 . S
C161 C154 1.357 . S
C161 H174 0.928 . S
H162 C138 0.931 . S
H163 C140 0.930 . S
H164 C142 0.929 1_655 S
H165 C143 0.931 1_655 S
H166 C145 0.930 . S
H167 C149 0.931 1_655 S
H168 C147 0.931 . S
H169 C151 0.931 1_455 S
H170 C152 0.929 . S
H171 C153 0.930 . S
H172 C156 0.930 . S
H173 C157 0.931 . S
H174 C161 0.928 . S
H175 C160 0.929 . S
H176 C158 0.932 . S
C177 C178 1.386 1_655 S
C177 C179 1.397 . S
C177 H201 0.931 . S
C178 C177 1.386 1_455 S
C178 C182 1.397 . S
C179 C177 1.397 . S
C179 C180 1.384 1_655 S
C179 H202 0.930 . S
C180 C179 1.384 1_455 S
C180 C181 1.377 . S
C180 C183 1.481 . S
C181 C180 1.377 . S
C181 C182 1.389 . S
C181 H203 0.929 . S
C182 C178 1.397 . S
C182 C181 1.389 . S
C182 H204 0.931 . S
C183 C180 1.481 . S
C183 C184 1.387 1_455 S
C183 C188 1.390 . S
C184 C183 1.387 1_655 S
C184 C185 1.401 . S
C184 H205 0.930 . S
C185 C184 1.401 . S
C185 C186 1.376 1_655 S
C185 C194 1.511 . S
C186 C185 1.376 1_455 S
C186 C187 1.392 . S
C186 H207 0.931 . S
C187 C186 1.392 . S
C187 C188 1.361 . S
C187 C189 1.500 . S
C188 C183 1.390 . S
C188 C187 1.361 . S
C188 H206 0.931 . S
C189 C187 1.500 . S
C189 C190 1.371 . S
C189 C191 1.365 . S
C190 C189 1.371 . S
C190 C200 1.386 . S
C190 H208 0.931 . S
C191 C189 1.365 . S
C191 C192 1.409 . S
C191 H209 0.929 . S
C192 C191 1.409 . S
C192 C193 1.380 . S
C192 H210 0.930 . S
C193 C192 1.380 . S
C193 C200 1.357 . S
C194 C185 1.511 . S
C194 C195 1.341 . S
C194 C196 1.371 . S
C195 C194 1.341 . S
C195 C199 1.394 . S
C195 H211 0.930 . S
C196 C194 1.371 . S
C196 C197 1.392 . S
C196 H212 0.931 . S
C197 C196 1.392 . S
C197 C198 1.331 . S
C197 H215 0.932 . S
C198 C197 1.331 . S
C198 C199 1.336 . S
C199 C195 1.394 . S
C199 C198 1.336 . S
C199 H214 0.929 . S
C200 C190 1.386 . S
C200 C193 1.357 . S
C200 H213 0.928 . S
H201 C177 0.931 . S
H202 C179 0.930 . S
H203 C181 0.929 . S
H204 C182 0.931 . S
H205 C184 0.930 . S
H206 C188 0.931 . S
H207 C186 0.931 . S
H208 C190 0.931 . S
H209 C191 0.929 . S
H210 C192 0.930 . S
H211 C195 0.930 . S
H212 C196 0.931 . S
H213 C200 0.928 . S
H214 C199 0.929 . S
H215 C197 0.932 . S
C216 C217 1.386 . S
C216 C218 1.397 . S
C216 H240 0.931 1_545 S
C217 C216 1.386 . S
C217 C221 1.397 . S
C218 C216 1.397 . S
C218 C219 1.384 . S
C218 H241 0.930 1_545 S
C219 C218 1.384 . S
C219 C220 1.377 . S
C219 C222 1.481 . S
C220 C219 1.377 . S
C220 C221 1.389 . S
C220 H242 0.929 . S
C221 C217 1.397 . S
C221 C220 1.389 . S
C221 H243 0.931 . S
C222 C219 1.481 . S
C222 C223 1.387 . S
C222 C227 1.390 . S
C223 C222 1.387 . S
C223 C224 1.401 . S
C223 H244 0.930 1_545 S
C224 C223 1.401 . S
C224 C225 1.376 . S
C224 C233 1.511 1_545 S
C225 C224 1.376 . S
C225 C226 1.392 . S
C225 H246 0.931 . S
C226 C225 1.392 . S
C226 C227 1.361 . S
C226 C228 1.500 . S
C227 C222 1.390 . S
C227 C226 1.361 . S
C227 H245 0.931 . S
C228 C226 1.500 . S
C228 C229 1.371 . S
C228 C230 1.365 . S
C229 C228 1.371 . S
C229 C239 1.386 . S
C229 H247 0.931 . S
C230 C228 1.365 . S
C230 C231 1.409 . S
C230 H248 0.929 . S
C231 C230 1.409 . S
C231 C232 1.380 . S
C231 H249 0.930 . S
C232 C231 1.380 . S
C232 C239 1.357 . S
C233 C224 1.511 1_565 S
C233 C234 1.341 . S
C233 C235 1.371 . S
C234 C233 1.341 . S
C234 C238 1.394 . S
C234 H250 0.930 . S
C235 C233 1.371 . S
C235 C236 1.392 . S
C235 H251 0.931 1_565 S
C236 C235 1.392 . S
C236 C237 1.331 . S
C236 H254 0.932 . S
C237 C236 1.331 . S
C237 C238 1.336 . S
C238 C234 1.394 . S
C238 C237 1.336 . S
C238 H253 0.929 . S
C239 C229 1.386 . S
C239 C232 1.357 . S
C239 H252 0.928 . S
H240 C216 0.931 1_565 S
H241 C218 0.930 1_565 S
H242 C220 0.929 . S
H243 C221 0.931 . S
H244 C223 0.930 1_565 S
H245 C227 0.931 . S
H246 C225 0.931 . S
H247 C229 0.931 . S
H248 C230 0.929 . S
H249 C231 0.930 . S
H250 C234 0.930 . S
H251 C235 0.931 1_545 S
H252 C239 0.928 . S
H253 C238 0.929 . S
H254 C236 0.932 . S
C255 C256 1.386 . S
C255 C257 1.397 . S
C255 H279 0.931 . S
C256 C255 1.386 . S
C256 C260 1.397 . S
C257 C255 1.397 . S
C257 C258 1.384 . S
C257 H280 0.930 . S
C258 C257 1.384 . S
C258 C259 1.377 . S
C258 C261 1.481 . S
C259 C258 1.377 . S
C259 C260 1.389 . S
C259 H281 0.929 . S
C260 C256 1.397 . S
C260 C259 1.389 . S
C260 H282 0.931 . S
C261 C258 1.481 . S
C261 C262 1.387 . S
C261 C266 1.390 . S
C262 C261 1.387 . S
C262 C263 1.401 . S
C262 H283 0.930 . S
C263 C262 1.401 . S
C263 C264 1.376 . S
C263 C272 1.511 . S
C264 C263 1.376 . S
C264 C265 1.392 . S
C264 H285 0.931 . S
C265 C264 1.392 . S
C265 C266 1.361 . S
C265 C267 1.500 . S
C266 C261 1.390 . S
C266 C265 1.361 . S
C266 H284 0.931 . S
C267 C265 1.500 . S
C267 C268 1.371 . S
C267 C269 1.365 . S
C268 C267 1.371 . S
C268 C278 1.386 . S
C268 H286 0.931 . S
C269 C267 1.365 . S
C269 C270 1.409 . S
C269 H287 0.929 . S
C270 C269 1.409 . S
C270 C271 1.380 . S
C270 H288 0.930 . S
C271 C270 1.380 . S
C271 C278 1.357 . S
C272 C263 1.511 . S
C272 C273 1.341 . S
C272 C274 1.371 . S
C273 C272 1.341 . S
C273 C277 1.394 . S
C273 H289 0.930 . S
C274 C272 1.371 . S
C274 C275 1.392 . S
C274 H290 0.931 . S
C275 C274 1.392 . S
C275 C276 1.331 . S
C275 H293 0.932 . S
C276 C275 1.331 . S
C276 C277 1.336 . S
C277 C273 1.394 . S
C277 C276 1.336 . S
C277 H292 0.929 . S
C278 C268 1.386 . S
C278 C271 1.357 . S
C278 H291 0.928 . S
H279 C255 0.931 . S
H280 C257 0.930 . S
H281 C259 0.929 . S
H282 C260 0.931 . S
H283 C262 0.930 . S
H284 C266 0.931 . S
H285 C264 0.931 . S
H286 C268 0.931 . S
H287 C269 0.929 . S
H288 C270 0.930 . S
H289 C273 0.930 . S
H290 C274 0.931 . S
H291 C278 0.928 . S
H292 C277 0.929 . S
H293 C275 0.932 . S
H294 C300 0.930 . S
H295 C303 0.930 . S
H296 C304 0.930 . S
H297 C305 0.930 . S
H298 C308 0.930 . S
H299 C309 0.930 . S
C300 H294 0.930 . S
C300 C301 1.355 . S
C300 C302 1.415 . S
C301 C300 1.355 . S
C301 C303 1.419 . S
C302 C300 1.415 . S
C302 C307 1.425 . S
C302 C309 1.409 . S
C303 H295 0.930 . S
C303 C301 1.419 . S
C303 C304 1.362 . S
C304 H296 0.930 . S
C304 C303 1.362 . S
C304 C307 1.409 . S
C305 H297 0.930 . S
C305 C306 1.355 . S
C305 C307 1.415 . S
C306 C305 1.355 . S
C306 C308 1.419 . S
C307 C302 1.425 . S
C307 C304 1.409 . S
C307 C305 1.415 . S
C308 H298 0.930 . S
C308 C306 1.419 . S
C308 C309 1.362 . S
C309 H299 0.930 . S
C309 C302 1.409 . S
C309 C308 1.362 . S
H310 C316 0.930 . S
H311 C319 0.930 . S
H312 C320 0.930 . S
H313 C321 0.930 . S
H314 C324 0.930 . S
H315 C325 0.930 . S
C316 H310 0.930 . S
C316 C317 1.355 . S
C316 C318 1.415 . S
C317 C316 1.355 . S
C317 C319 1.419 . S
C318 C316 1.415 . S
C318 C323 1.425 . S
C318 C325 1.409 . S
C319 H311 0.930 . S
C319 C317 1.419 . S
C319 C320 1.362 . S
C320 H312 0.930 . S
C320 C319 1.362 . S
C320 C323 1.409 . S
C321 H313 0.930 . S
C321 C322 1.355 . S
C321 C323 1.415 . S
C322 C321 1.355 . S
C322 C324 1.419 . S
C323 C318 1.425 . S
C323 C320 1.409 . S
C323 C321 1.415 . S
C324 H314 0.930 . S
C324 C322 1.419 . S
C324 C325 1.362 . S
C325 H315 0.930 . S
C325 C318 1.409 . S
C325 C324 1.362 . S
H326 C332 0.930 . S
H327 C335 0.930 . S
H328 C336 0.930 . S
H329 C337 0.930 . S
H330 C340 0.930 . S
H331 C341 0.930 . S
C332 H326 0.930 . S
C332 C333 1.355 . S
C332 C334 1.415 . S
C333 C332 1.355 . S
C333 C335 1.419 . S
C334 C332 1.415 . S
C334 C339 1.425 . S
C334 C341 1.409 . S
C335 H327 0.930 . S
C335 C333 1.419 . S
C335 C336 1.362 . S
C336 H328 0.930 . S
C336 C335 1.362 . S
C336 C339 1.409 . S
C337 H329 0.930 . S
C337 C338 1.355 . S
C337 C339 1.415 . S
C338 C337 1.355 . S
C338 C340 1.419 . S
C339 C334 1.425 . S
C339 C336 1.409 . S
C339 C337 1.415 . S
C340 H330 0.930 . S
C340 C338 1.419 . S
C340 C341 1.362 . S
C341 H331 0.930 . S
C341 C334 1.409 . S
C341 C340 1.362 . S
H342 C348 0.930 . S
H343 C351 0.930 . S
H344 C352 0.930 . S
H345 C353 0.930 . S
H346 C356 0.930 . S
H347 C357 0.930 . S
C348 H342 0.930 . S
C348 C349 1.355 . S
C348 C350 1.415 . S
C349 C348 1.355 . S
C349 C351 1.419 . S
C350 C348 1.415 . S
C350 C355 1.425 . S
C350 C357 1.409 . S
C351 H343 0.930 . S
C351 C349 1.419 . S
C351 C352 1.362 . S
C352 H344 0.930 . S
C352 C351 1.362 . S
C352 C355 1.409 . S
C353 H345 0.930 . S
C353 C354 1.355 . S
C353 C355 1.415 . S
C354 C353 1.355 . S
C354 C356 1.419 . S
C355 C350 1.425 . S
C355 C352 1.409 . S
C355 C353 1.415 . S
C356 H346 0.930 . S
C356 C354 1.419 . S
C356 C357 1.362 . S
C357 H347 0.930 . S
C357 C350 1.409 . S
C357 C356 1.362 . S
H358 C364 0.930 . S
H359 C367 0.930 . S
H360 C368 0.930 . S
H361 C369 0.930 . S
H362 C372 0.930 . S
H363 C373 0.930 . S
C364 H358 0.930 . S
C364 C365 1.355 . S
C364 C366 1.415 . S
C365 C364 1.355 . S
C365 C367 1.419 . S
C366 C364 1.415 . S
C366 C371 1.425 . S
C366 C373 1.409 . S
C367 H359 0.930 . S
C367 C365 1.419 . S
C367 C368 1.362 . S
C368 H360 0.930 . S
C368 C367 1.362 . S
C368 C371 1.409 . S
C369 H361 0.930 . S
C369 C370 1.355 . S
C369 C371 1.415 . S
C370 C369 1.355 . S
C370 C372 1.419 . S
C371 C366 1.425 . S
C371 C368 1.409 . S
C371 C369 1.415 . S
C372 H362 0.930 . S
C372 C370 1.419 . S
C372 C373 1.362 . S
C373 H363 0.930 . S
C373 C366 1.409 . S
C373 C372 1.362 . S
H374 C380 0.930 . S
H375 C383 0.930 . S
H376 C384 0.930 . S
H377 C385 0.930 . S
H378 C388 0.930 . S
H379 C389 0.930 . S
C380 H374 0.930 . S
C380 C381 1.355 . S
C380 C382 1.415 . S
C381 C380 1.355 . S
C381 C383 1.419 . S
C382 C380 1.415 . S
C382 C387 1.425 . S
C382 C389 1.409 . S
C383 H375 0.930 . S
C383 C381 1.419 . S
C383 C384 1.362 . S
C384 H376 0.930 . S
C384 C383 1.362 . S
C384 C387 1.409 . S
C385 H377 0.930 . S
C385 C386 1.355 . S
C385 C387 1.415 . S
C386 C385 1.355 . S
C386 C388 1.419 . S
C387 C382 1.425 . S
C387 C384 1.409 . S
C387 C385 1.415 . S
C388 H378 0.930 . S
C388 C386 1.419 . S
C388 C389 1.362 . S
C389 H379 0.930 . S
C389 C382 1.409 . S
C389 C388 1.362 . S
H390 C396 0.930 . S
H391 C399 0.930 . S
H392 C400 0.930 . S
H393 C401 0.930 . S
H394 C404 0.930 . S
H395 C405 0.930 . S
C396 H390 0.930 . S
C396 C397 1.355 . S
C396 C398 1.415 . S
C397 C396 1.355 . S
C397 C399 1.419 . S
C398 C396 1.415 . S
C398 C403 1.425 . S
C398 C405 1.409 . S
C399 H391 0.930 . S
C399 C397 1.419 . S
C399 C400 1.362 . S
C400 H392 0.930 . S
C400 C399 1.362 . S
C400 C403 1.409 . S
C401 H393 0.930 . S
C401 C402 1.355 . S
C401 C403 1.415 . S
C402 C401 1.355 . S
C402 C404 1.419 . S
C403 C398 1.425 . S
C403 C400 1.409 . S
C403 C401 1.415 . S
C404 H394 0.930 . S
C404 C402 1.419 . S
C404 C405 1.362 . S
C405 H395 0.930 . S
C405 C398 1.409 . S
C405 C404 1.362 . S
H406 C412 0.930 . S
H407 C415 0.930 . S
H408 C416 0.930 . S
H409 C417 0.930 . S
H410 C420 0.930 . S
H411 C421 0.930 . S
C412 H406 0.930 . S
C412 C413 1.355 . S
C412 C414 1.415 . S
C413 C412 1.355 . S
C413 C415 1.419 . S
C414 C412 1.415 . S
C414 C419 1.425 . S
C414 C421 1.409 . S
C415 H407 0.930 . S
C415 C413 1.419 . S
C415 C416 1.362 . S
C416 H408 0.930 . S
C416 C415 1.362 . S
C416 C419 1.409 . S
C417 H409 0.930 . S
C417 C418 1.355 . S
C417 C419 1.415 . S
C418 C417 1.355 . S
C418 C420 1.419 . S
C419 C414 1.425 . S
C419 C416 1.409 . S
C419 C417 1.415 . S
C420 H410 0.930 . S
C420 C418 1.419 . S
C420 C421 1.362 . S
C421 H411 0.930 . S
C421 C414 1.409 . S
C421 C420 1.362 . S
H422 C428 0.930 . S
H423 C431 0.930 . S
H424 C432 0.930 . S
H425 C433 0.930 . S
H426 C436 0.930 . S
H427 C437 0.930 . S
C428 H422 0.930 . S
C428 C429 1.355 . S
C428 C430 1.415 . S
C429 C428 1.355 . S
C429 C431 1.419 . S
C430 C428 1.415 . S
C430 C435 1.425 . S
C430 C437 1.409 . S
C431 H423 0.930 . S
C431 C429 1.419 . S
C431 C432 1.362 . S
C432 H424 0.930 . S
C432 C431 1.362 . S
C432 C435 1.409 . S
C433 H425 0.930 . S
C433 C434 1.355 . S
C433 C435 1.415 . S
C434 C433 1.355 . S
C434 C436 1.419 . S
C435 C430 1.425 . S
C435 C432 1.409 . S
C435 C433 1.415 . S
C436 H426 0.930 . S
C436 C434 1.419 . S
C436 C437 1.362 . S
C437 H427 0.930 . S
C437 C430 1.409 . S
C437 C436 1.362 . S
H438 C444 0.930 . S
H439 C447 0.930 . S
H440 C448 0.930 . S
H441 C449 0.930 . S
H442 C452 0.930 . S
H443 C453 0.930 . S
C444 H438 0.930 . S
C444 C445 1.355 . S
C444 C446 1.415 . S
C445 C444 1.355 . S
C445 C447 1.419 . S
C446 C444 1.415 . S
C446 C451 1.425 . S
C446 C453 1.409 . S
C447 H439 0.930 . S
C447 C445 1.419 . S
C447 C448 1.362 . S
C448 H440 0.930 . S
C448 C447 1.362 . S
C448 C451 1.409 . S
C449 H441 0.930 . S
C449 C450 1.355 . S
C449 C451 1.415 . S
C450 C449 1.355 . S
C450 C452 1.419 . S
C451 C446 1.425 . S
C451 C448 1.409 . S
C451 C449 1.415 . S
C452 H442 0.930 . S
C452 C450 1.419 . S
C452 C453 1.362 . S
C453 H443 0.930 . S
C453 C446 1.409 . S
C453 C452 1.362 . S
H454 C460 0.930 . S
H455 C463 0.930 . S
H456 C464 0.930 . S
H457 C465 0.930 . S
H458 C468 0.930 . S
H459 C469 0.930 . S
C460 H454 0.930 . S
C460 C461 1.355 . S
C460 C462 1.415 . S
C461 C460 1.355 . S
C461 C463 1.419 . S
C462 C460 1.415 . S
C462 C467 1.425 . S
C462 C469 1.409 . S
C463 H455 0.930 . S
C463 C461 1.419 . S
C463 C464 1.362 . S
C464 H456 0.930 . S
C464 C463 1.362 . S
C464 C467 1.409 . S
C465 H457 0.930 . S
C465 C466 1.355 . S
C465 C467 1.415 . S
C466 C465 1.355 . S
C466 C468 1.419 . S
C467 C462 1.425 . S
C467 C464 1.409 . S
C467 C465 1.415 . S
C468 H458 0.930 . S
C468 C466 1.419 . S
C468 C469 1.362 . S
C469 H459 0.930 . S
C469 C462 1.409 . S
C469 C468 1.362 . S
H470 C476 0.930 . S
H471 C479 0.930 . S
H472 C480 0.930 . S
H473 C481 0.930 . S
H474 C484 0.930 . S
H475 C485 0.930 . S
C476 H470 0.930 . S
C476 C477 1.355 . S
C476 C478 1.415 . S
C477 C476 1.355 . S
C477 C479 1.419 . S
C478 C476 1.415 . S
C478 C483 1.425 . S
C478 C485 1.409 . S
C479 H471 0.930 . S
C479 C477 1.419 . S
C479 C480 1.362 . S
C480 H472 0.930 . S
C480 C479 1.362 . S
C480 C483 1.409 . S
C481 H473 0.930 . S
C481 C482 1.355 . S
C481 C483 1.415 . S
C482 C481 1.355 . S
C482 C484 1.419 . S
C483 C478 1.425 . S
C483 C480 1.409 . S
C483 C481 1.415 . S
C484 H474 0.930 . S
C484 C482 1.419 . S
C484 C485 1.362 . S
C485 H475 0.930 . S
C485 C478 1.409 . S
C485 C484 1.362 . S
H486 C492 0.930 . S
H487 C495 0.930 . S
H488 C496 0.930 . S
H489 C497 0.930 . S
H490 C500 0.930 1_655 S
H491 C501 0.930 1_655 S
C492 H486 0.930 . S
C492 C493 1.355 . S
C492 C494 1.415 . S
C493 C492 1.355 . S
C493 C495 1.419 . S
C494 C492 1.415 . S
C494 C499 1.425 . S
C494 C501 1.409 . S
C495 H487 0.930 . S
C495 C493 1.419 . S
C495 C496 1.362 . S
C496 H488 0.930 . S
C496 C495 1.362 . S
C496 C499 1.409 . S
C497 H489 0.930 . S
C497 C498 1.355 . S
C497 C499 1.415 . S
C498 C497 1.355 . S
C498 C500 1.419 . S
C499 C494 1.425 . S
C499 C496 1.409 . S
C499 C497 1.415 . S
C500 H490 0.930 1_455 S
C500 C498 1.419 . S
C500 C501 1.362 . S
C501 H491 0.930 1_455 S
C501 C494 1.409 . S
C501 C500 1.362 . S
H502 C508 0.930 . S
H503 C511 0.930 . S
H504 C512 0.930 1_565 S
H505 C513 0.930 . S
H506 C516 0.930 . S
H507 C517 0.930 . S
C508 H502 0.930 . S
C508 C509 1.355 . S
C508 C510 1.415 . S
C509 C508 1.355 . S
C509 C511 1.419 . S
C510 C508 1.415 . S
C510 C515 1.425 . S
C510 C517 1.409 . S
C511 H503 0.930 . S
C511 C509 1.419 . S
C511 C512 1.362 . S
C512 H504 0.930 1_545 S
C512 C511 1.362 . S
C512 C515 1.409 . S
C513 H505 0.930 . S
C513 C514 1.355 . S
C513 C515 1.415 . S
C514 C513 1.355 . S
C514 C516 1.419 . S
C515 C510 1.425 . S
C515 C512 1.409 . S
C515 C513 1.415 . S
C516 H506 0.930 . S
C516 C514 1.419 . S
C516 C517 1.362 . S
C517 H507 0.930 . S
C517 C510 1.409 . S
C517 C516 1.362 . S
H518 C524 0.930 . S
H519 C527 0.930 . S
H520 C528 0.930 . S
H521 C529 0.930 . S
H522 C532 0.930 . S
H523 C533 0.930 . S
C524 H518 0.930 . S
C524 C525 1.355 . S
C524 C526 1.415 . S
C525 C524 1.355 . S
C525 C527 1.419 . S
C526 C524 1.415 . S
C526 C531 1.425 . S
C526 C533 1.409 . S
C527 H519 0.930 . S
C527 C525 1.419 . S
C527 C528 1.362 . S
C528 H520 0.930 . S
C528 C527 1.362 . S
C528 C531 1.409 . S
C529 H521 0.930 . S
C529 C530 1.355 . S
C529 C531 1.415 . S
C530 C529 1.355 . S
C530 C532 1.419 . S
C531 C526 1.425 . S
C531 C528 1.409 . S
C531 C529 1.415 . S
C532 H522 0.930 . S
C532 C530 1.419 . S
C532 C533 1.362 . S
C533 H523 0.930 . S
C533 C526 1.409 . S
C533 C532 1.362 . S
H534 C540 0.930 . S
H535 C543 0.930 . S
H536 C544 0.930 . S
H537 C545 0.930 . S
H538 C548 0.930 . S
H539 C549 0.930 . S
C540 H534 0.930 . S
C540 C541 1.355 . S
C540 C542 1.415 . S
C541 C540 1.355 . S
C541 C543 1.419 . S
C542 C540 1.415 . S
C542 C547 1.425 . S
C542 C549 1.409 . S
C543 H535 0.930 . S
C543 C541 1.419 . S
C543 C544 1.362 . S
C544 H536 0.930 . S
C544 C543 1.362 . S
C544 C547 1.409 . S
C545 H537 0.930 . S
C545 C546 1.355 . S
C545 C547 1.415 . S
C546 C545 1.355 . S
C546 C548 1.419 . S
C547 C542 1.425 . S
C547 C544 1.409 . S
C547 C545 1.415 . S
C548 H538 0.930 . S
C548 C546 1.419 . S
C548 C549 1.362 . S
C549 H539 0.930 . S
C549 C542 1.409 . S
C549 C548 1.362 . S
H550 C556 0.930 . S
H551 C559 0.930 . S
H552 C560 0.930 . S
H553 C561 0.930 . S
H554 C564 0.930 . S
H555 C565 0.930 . S
C556 H550 0.930 . S
C556 C557 1.355 . S
C556 C558 1.415 . S
C557 C556 1.355 . S
C557 C559 1.419 . S
C558 C556 1.415 . S
C558 C563 1.425 . S
C558 C565 1.409 . S
C559 H551 0.930 . S
C559 C557 1.419 . S
C559 C560 1.362 . S
C560 H552 0.930 . S
C560 C559 1.362 . S
C560 C563 1.409 . S
C561 H553 0.930 . S
C561 C562 1.355 . S
C561 C563 1.415 . S
C562 C561 1.355 . S
C562 C564 1.419 . S
C563 C558 1.425 . S
C563 C560 1.409 . S
C563 C561 1.415 . S
C564 H554 0.930 . S
C564 C562 1.419 . S
C564 C565 1.362 . S
C565 H555 0.930 . S
C565 C558 1.409 . S
C565 C564 1.362 . S
H566 C572 0.930 . S
H567 C575 0.930 . S
H568 C576 0.930 . S
H569 C577 0.930 . S
H570 C580 0.930 . S
H571 C581 0.930 . S
C572 H566 0.930 . S
C572 C573 1.355 . S
C572 C574 1.415 . S
C573 C572 1.355 . S
C573 C575 1.419 . S
C574 C572 1.415 . S
C574 C579 1.425 . S
C574 C581 1.409 . S
C575 H567 0.930 . S
C575 C573 1.419 . S
C575 C576 1.362 . S
C576 H568 0.930 . S
C576 C575 1.362 . S
C576 C579 1.409 . S
C577 H569 0.930 . S
C577 C578 1.355 . S
C577 C579 1.415 . S
C578 C577 1.355 . S
C578 C580 1.419 . S
C579 C574 1.425 . S
C579 C576 1.409 . S
C579 C577 1.415 . S
C580 H570 0.930 . S
C580 C578 1.419 . S
C580 C581 1.362 . S
C581 H571 0.930 . S
C581 C574 1.409 . S
C581 C580 1.362 . S
C301 C2 1.095 . S
C306 C271 1.097 . S
C317 C21 1.099 . S
C322 C198 1.065 . S
C333 C42 1.124 . S
C338 C237 1.076 . S
C349 C1 1.045 . S
C354 C276 1.091 . S
C370 C193 1.084 . S
C365 C22 1.134 . S
C386 C232 1.082 . S
C381 C41 1.029 . S
C397 C38 1.950 . S
C402 C120 1.916 . S
C413 C59 2.016 . S
C418 C154 1.981 . S
C429 C18 1.934 . S
C434 C76 1.908 . S
C450 C115 1.928 . S
C445 C39 1.986 . S
C466 C159 1.872 . S
C461 C58 1.955 . S
C477 C19 2.010 . S
C482 C81 1.960 . S
C498 C139 1.568 1_554 S
C493 C9 1.497 . S
C509 C29 1.484 . S
C514 C61 1.565 . S
C525 C49 1.489 . S
C530 C100 1.567 . S
C546 C217 1.380 . S
C541 C28 1.387 . S
C562 C256 1.379 1_556 S
C557 C48 1.379 . S
C573 C8 1.384 . S
C578 C178 1.380 . S
