# Generated by pormake.
# Topology pyr, (3,6)-cn, num edge types: 1
# Building blocks:
#     Node 0, Type 0, BuildingBlock: PAMTOO_clean_linker_0, # of connection points: 3
#     Node 1, Type 0, BuildingBlock: PAMTOO_clean_linker_0, # of connection points: 3
#     Node 2, Type 0, BuildingBlock: PAMTOO_clean_linker_0, # of connection points: 3
#     Node 3, Type 0, BuildingBlock: PAMTOO_clean_linker_0, # of connection points: 3
#     Node 4, Type 0, BuildingBlock: PAMTOO_clean_linker_0, # of connection points: 3
#     Node 5, Type 0, BuildingBlock: PAMTOO_clean_linker_0, # of connection points: 3
#     Node 6, Type 0, BuildingBlock: PAMTOO_clean_linker_0, # of connection points: 3
#     Node 7, Type 0, BuildingBlock: PAMTOO_clean_linker_0, # of connection points: 3
#     Node 8, Type 1, BuildingBlock: MIFKUJ_clean_sbu_0, # of connection points: 6
#     Node 9, Type 1, BuildingBlock: MIFKUJ_clean_sbu_0, # of connection points: 6
#     Node 10, Type 1, BuildingBlock: MIFKUJ_clean_sbu_0, # of connection points: 6
#     Node 11, Type 1, BuildingBlock: MIFKUJ_clean_sbu_0, # of connection points: 6
#     Edge 12, Type (0, 1), BuildingBlock: MIFKUJ_clean_linker_0, # of connection points: 2
#     Edge 13, Type (0, 1), BuildingBlock: MIFKUJ_clean_linker_0, # of connection points: 2
#     Edge 14, Type (0, 1), BuildingBlock: MIFKUJ_clean_linker_0, # of connection points: 2
#     Edge 15, Type (0, 1), BuildingBlock: MIFKUJ_clean_linker_0, # of connection points: 2
#     Edge 16, Type (0, 1), BuildingBlock: MIFKUJ_clean_linker_0, # of connection points: 2
#     Edge 17, Type (0, 1), BuildingBlock: MIFKUJ_clean_linker_0, # of connection points: 2
#     Edge 18, Type (0, 1), BuildingBlock: MIFKUJ_clean_linker_0, # of connection points: 2
#     Edge 19, Type (0, 1), BuildingBlock: MIFKUJ_clean_linker_0, # of connection points: 2
#     Edge 20, Type (0, 1), BuildingBlock: MIFKUJ_clean_linker_0, # of connection points: 2
#     Edge 21, Type (0, 1), BuildingBlock: MIFKUJ_clean_linker_0, # of connection points: 2
#     Edge 22, Type (0, 1), BuildingBlock: MIFKUJ_clean_linker_0, # of connection points: 2
#     Edge 23, Type (0, 1), BuildingBlock: MIFKUJ_clean_linker_0, # of connection points: 2
#     Edge 24, Type (0, 1), BuildingBlock: MIFKUJ_clean_linker_0, # of connection points: 2
#     Edge 25, Type (0, 1), BuildingBlock: MIFKUJ_clean_linker_0, # of connection points: 2
#     Edge 26, Type (0, 1), BuildingBlock: MIFKUJ_clean_linker_0, # of connection points: 2
#     Edge 27, Type (0, 1), BuildingBlock: MIFKUJ_clean_linker_0, # of connection points: 2
#     Edge 28, Type (0, 1), BuildingBlock: MIFKUJ_clean_linker_0, # of connection points: 2
#     Edge 29, Type (0, 1), BuildingBlock: MIFKUJ_clean_linker_0, # of connection points: 2
#     Edge 30, Type (0, 1), BuildingBlock: MIFKUJ_clean_linker_0, # of connection points: 2
#     Edge 31, Type (0, 1), BuildingBlock: MIFKUJ_clean_linker_0, # of connection points: 2
#     Edge 32, Type (0, 1), BuildingBlock: MIFKUJ_clean_linker_0, # of connection points: 2
#     Edge 33, Type (0, 1), BuildingBlock: MIFKUJ_clean_linker_0, # of connection points: 2
#     Edge 34, Type (0, 1), BuildingBlock: MIFKUJ_clean_linker_0, # of connection points: 2
#     Edge 35, Type (0, 1), BuildingBlock: MIFKUJ_clean_linker_0, # of connection points: 2
# Relax obj value: 0.081
# Max RMSD: 0.212
# Mean RMSD: 0.139
data_MOF--net-pyr--node1-MIFKUJ_clean_sbu_0--node2-PAMTOO_clean_linker_0--edge1-MIFKUJ_clean_linker_0
_symmetry_space_group_name_H-M    P1
_symmetry_Int_Tables_number       1
_symmetry_cell_setting            triclinic
loop_
_symmetry_equiv_pos_as_xyz
'x, y, z'
_cell_length_a     49.559075
_cell_length_b     46.099503
_cell_length_c     49.159204
_cell_angle_alpha  86.052309
_cell_angle_beta   89.676022
_cell_angle_gamma 101.0692
loop_
_atom_site_label
_atom_site_type_symbol
_atom_site_fract_x
_atom_site_fract_y
_atom_site_fract_z
_atom_type_partial_charge
H0 H 0.17963 0.19892 0.24086 0.0
H1 H 0.24269 0.14674 0.24794 0.0
H2 H 0.24113 0.20598 0.17696 0.0
H3 H 0.24822 0.14553 0.16821 0.0
C4 C 0.26285 0.14251 0.18481 0.0
O5 O 0.2664 0.16657 0.20059 0.0
H6 H 0.25381 0.12205 0.19758 0.0
C7 C 0.19762 0.19244 0.23235 0.0
C8 C 0.20884 0.2055 0.20705 0.0
C9 C 0.20964 0.17129 0.2472 0.0
C10 C 0.23342 0.16332 0.23683 0.0
C11 C 0.24458 0.17576 0.21142 0.0
C12 C 0.23246 0.19692 0.19673 0.0
H13 H 0.33477 0.89979 0.71726 0.0
H14 H 0.33063 0.83907 0.65377 0.0
H15 H 0.39805 0.84852 0.70852 0.0
H16 H 0.40924 0.85056 0.64779 0.0
C17 C 0.39388 0.83029 0.64393 0.0
O18 O 0.37659 0.82205 0.66642 0.0
H19 H 0.38165 0.83543 0.62597 0.0
C20 C 0.34306 0.8832 0.70709 0.0
C21 C 0.36797 0.87569 0.71592 0.0
C22 C 0.3294 0.87035 0.68452 0.0
C23 C 0.34087 0.84954 0.67099 0.0
C24 C 0.36565 0.84199 0.67958 0.0
C25 C 0.37907 0.85494 0.70195 0.0
H26 H 0.74737 0.29931 0.85692 0.0
H27 H 0.68619 0.31613 0.79927 0.0
H28 H 0.76209 0.3784 0.80246 0.0
H29 H 0.71831 0.40774 0.79513 0.0
C30 C 0.70253 0.39058 0.78636 0.0
O31 O 0.71438 0.36725 0.77949 0.0
H32 H 0.68596 0.38249 0.80202 0.0
C33 C 0.74111 0.31288 0.84013 0.0
C34 C 0.75816 0.33996 0.83125 0.0
C35 C 0.7152 0.30395 0.82862 0.0
C36 C 0.70628 0.32243 0.80808 0.0
C37 C 0.72328 0.34917 0.79878 0.0
C38 C 0.74923 0.35764 0.81 0.0
H39 H 0.84209 0.7178 0.33533 0.0
H40 H 0.84151 0.64756 0.28191 0.0
H41 H 0.90964 0.72078 0.27895 0.0
H42 H 0.89225 0.69947 0.22502 0.0
C43 C 0.88374 0.67587 0.23156 0.0
O44 O 0.88895 0.67046 0.25874 0.0
H45 H 0.86116 0.67182 0.22818 0.0
C46 C 0.85159 0.7084 0.31901 0.0
C47 C 0.87734 0.72296 0.30819 0.0
C48 C 0.83841 0.68122 0.30974 0.0
C49 C 0.85137 0.66842 0.28951 0.0
C50 C 0.87691 0.6828 0.27847 0.0
C51 C 0.88992 0.70989 0.28782 0.0
H52 H 0.83586 0.88397 0.80858 0.0
H53 H 0.82676 0.81313 0.87195 0.0
H54 H 0.88783 0.8189 0.80882 0.0
H55 H 0.85898 0.76001 0.82404 0.0
C56 C 0.85725 0.76108 0.84653 0.0
O57 O 0.8667 0.78964 0.85358 0.0
H58 H 0.83519 0.75399 0.85266 0.0
C59 C 0.84218 0.86437 0.81783 0.0
C60 C 0.86328 0.85306 0.80541 0.0
C61 C 0.82863 0.84999 0.84174 0.0
C62 C 0.83657 0.82423 0.85329 0.0
C63 C 0.85793 0.81324 0.84141 0.0
C64 C 0.87114 0.82755 0.81758 0.0
H65 H 0.74562 0.13954 0.31282 0.0
H66 H 0.69296 0.20423 0.31281 0.0
H67 H 0.75007 0.1993 0.37684 0.0
H68 H 0.69709 0.20817 0.39696 0.0
C69 C 0.68935 0.21796 0.37795 0.0
O70 O 0.71033 0.22477 0.35859 0.0
H71 H 0.67224 0.20134 0.37029 0.0
C72 C 0.73882 0.15787 0.32159 0.0
C73 C 0.75087 0.16828 0.34583 0.0
C74 C 0.71759 0.17032 0.3093 0.0
C75 C 0.70869 0.19351 0.32186 0.0
C76 C 0.72 0.20337 0.34633 0.0
C77 C 0.74114 0.19098 0.35816 0.0
H78 H 0.3428 0.7001 0.15188 0.0
H79 H 0.33645 0.62802 0.21365 0.0
H80 H 0.40666 0.69907 0.21082 0.0
H81 H 0.41705 0.6383 0.2171 0.0
C82 C 0.40033 0.62858 0.23217 0.0
O83 O 0.38344 0.64855 0.23598 0.0
H84 H 0.38824 0.6083 0.2239 0.0
C85 C 0.351 0.68964 0.16957 0.0
C86 C 0.37641 0.70289 0.1799 0.0
C87 C 0.33636 0.66272 0.18171 0.0
C88 C 0.34739 0.64895 0.20422 0.0
C89 C 0.37264 0.66217 0.2147 0.0
C90 C 0.38695 0.68924 0.20278 0.0
H91 H 0.16335 0.32114 0.76225 0.0
H92 H 0.2274 0.39932 0.76162 0.0
H93 H 0.23317 0.33217 0.70738 0.0
H94 H 0.28106 0.35619 0.74437 0.0
C95 C 0.28188 0.37966 0.73663 0.0
O96 O 0.25744 0.3826 0.72442 0.0
H97 H 0.28516 0.39387 0.75414 0.0
C98 C 0.18249 0.33437 0.75404 0.0
C99 C 0.1966 0.3235 0.7333 0.0
C100 C 0.19342 0.36164 0.76476 0.0
C101 C 0.21867 0.378 0.75423 0.0
C102 C 0.23299 0.36703 0.73397 0.0
C103 C 0.22199 0.34001 0.72348 0.0
Zn104 Zn 0.06771 0.02388 0.55561 0.0
Zn105 Zn 0.00134 0.01225 0.49834 0.0
C106 C 0.10068 0.06784 0.58422 0.0
O107 O 0.11953 0.0562 0.57241 0.0
C108 C 0.96995 0.96912 0.46674 0.0
O109 O 0.95002 0.98022 0.47721 0.0
O110 O 0.09127 0.99422 0.56749 0.0
O111 O 0.02728 0.00533 0.55713 0.0
O112 O 0.98803 0.9947 0.53599 0.0
C113 C 0.0943 0.98716 0.59259 0.0
O114 O 0.08016 0.99767 0.61098 0.0
O115 O 0.07547 0.05739 0.58029 0.0
C116 C 0.97768 0.05078 0.4607 0.0
O117 O 0.99506 0.04299 0.44365 0.0
O118 O 0.97763 0.04154 0.48569 0.0
O119 O 0.0418 0.03071 0.49668 0.0
O120 O 0.08092 0.04129 0.51808 0.0
O121 O 0.99462 0.97925 0.47307 0.0
C122 C 0.0018 0.99378 0.55768 0.0
C123 C 0.0673 0.04213 0.49632 0.0
Zn124 Zn 0.56668 0.98723 0.98347 0.0
Zn125 Zn 0.53761 0.03348 0.03712 0.0
C126 C 0.51656 0.98189 0.9512 0.0
O127 O 0.50385 0.97991 0.97497 0.0
C128 C 0.57203 0.07467 0.06903 0.0
O129 O 0.55598 0.09193 0.05848 0.0
O130 O 0.59796 0.96738 0.97239 0.0
O131 O 0.58171 0.02968 0.99138 0.0
O132 O 0.54714 0.05184 0.99904 0.0
C133 C 0.62315 0.98002 0.97036 0.0
O134 O 0.63037 0.0075 0.97702 0.0
O135 O 0.54268 0.98616 0.95026 0.0
C136 C 0.49895 0.04692 0.07621 0.0
O137 O 0.51456 0.03454 0.09313 0.0
O138 O 0.50448 0.04873 0.05075 0.0
O139 O 0.52803 0.989 0.04238 0.0
O140 O 0.54508 0.96126 0.01396 0.0
O141 O 0.56895 0.04818 0.06205 0.0
C142 C 0.56795 0.04958 0.9847 0.0
C143 C 0.53072 0.96382 0.03489 0.0
Zn144 Zn 0.56188 0.5064 0.49703 0.0
Zn145 Zn 0.54656 0.55497 0.533 0.0
C146 C 0.59007 0.5396 0.45245 0.0
O147 O 0.57061 0.52145 0.44068 0.0
C148 C 0.51663 0.51317 0.57218 0.0
O149 O 0.53651 0.52613 0.58732 0.0
O150 O 0.56781 0.46932 0.47983 0.0
O151 O 0.57084 0.49962 0.53642 0.0
O152 O 0.58247 0.54584 0.5474 0.0
C153 C 0.59283 0.46634 0.47961 0.0
O154 O 0.61123 0.48616 0.49085 0.0
O155 O 0.59056 0.53866 0.47836 0.0
C156 C 0.51264 0.59263 0.55197 0.0
O157 O 0.49423 0.57159 0.54233 0.0
O158 O 0.53797 0.59107 0.55024 0.0
O159 O 0.54229 0.56259 0.49262 0.0
O160 O 0.52506 0.51589 0.48674 0.0
O161 O 0.51654 0.52119 0.54695 0.0
C162 C 0.5842 0.51868 0.55128 0.0
C163 C 0.52642 0.54325 0.47992 0.0
Zn164 Zn 0.03164 0.51235 0.00203 0.0
Zn165 Zn 0.05034 0.46644 0.04525 0.0
C166 C 0.99899 0.47328 0.96872 0.0
O167 O 0.01893 0.48655 0.95187 0.0
C168 C 0.08456 0.51087 0.07435 0.0
O169 O 0.06537 0.50167 0.09319 0.0
O170 O 0.02395 0.54872 0.98043 0.0
O171 O 0.03058 0.52245 0.04093 0.0
O172 O 0.01545 0.47748 0.0596 0.0
C173 C 1.00082 0.55465 0.98698 0.0
O174 O 0.98585 0.5376 0.00621 0.0
O175 O 0.99951 0.48011 0.99339 0.0
C176 C 0.08418 0.42781 0.06356 0.0
O177 O 0.09943 0.44536 0.04484 0.0
O178 O 0.05985 0.4317 0.06811 0.0
O179 O 0.05177 0.45546 0.00644 0.0
O180 O 0.066 0.5008 0.98811 0.0
O181 O 0.08233 0.49976 0.05131 0.0
C182 C 0.01638 0.50525 0.05918 0.0
C183 C 0.06522 0.47308 0.98793 0.0
H184 H 0.23113 0.17169 0.29824 0.0
H185 H 0.20747 0.15054 0.34115 0.0
H186 H 0.13482 0.11643 0.29644 0.0
H187 H 0.15801 0.13901 0.25393 0.0
H188 H 0.11948 0.13826 0.33846 0.0
H189 H 0.18227 0.07221 0.32502 0.0
H190 H 0.22766 0.05929 0.31756 0.0
H191 H 0.25594 0.0964 0.39243 0.0
H192 H 0.21081 0.10987 0.40016 0.0
H193 H 0.04901 0.0379 0.44386 0.0
H194 H 0.07361 0.05979 0.40178 0.0
H195 H 0.14255 0.09933 0.44878 0.0
H196 H 0.11834 0.07715 0.49076 0.0
H197 H 0.16013 0.07546 0.40643 0.0
H198 H 0.09648 0.14037 0.41992 0.0
H199 H 0.05045 0.15157 0.42767 0.0
H200 H 0.02324 0.11495 0.35231 0.0
H201 H 0.06903 0.10319 0.34428 0.0
C202 C 0.21018 0.15947 0.29773 0.0
C203 C 0.19634 0.15681 0.27294 0.0
C204 C 0.19668 0.14728 0.32218 0.0
C205 C 0.16938 0.13143 0.32212 0.0
C206 C 0.15578 0.12856 0.29716 0.0
C207 C 0.16905 0.1413 0.27286 0.0
C208 C 0.15461 0.11839 0.34796 0.0
C209 C 0.12828 0.12419 0.3531 0.0
C210 C 0.16621 0.1006 0.36755 0.0
C211 C 0.19325 0.09227 0.36304 0.0
C212 C 0.19822 0.07776 0.33981 0.0
C213 C 0.22389 0.07033 0.33554 0.0
C214 C 0.24469 0.07709 0.35448 0.0
C215 C 0.23983 0.09121 0.37776 0.0
C216 C 0.2142 0.09873 0.38211 0.0
C217 C 0.06929 0.05147 0.44523 0.0
C218 C 0.0816 0.05592 0.47068 0.0
C219 C 0.08336 0.06399 0.42115 0.0
C220 C 0.10986 0.08152 0.42209 0.0
C221 C 0.12217 0.0859 0.4475 0.0
C222 C 0.10823 0.07324 0.4715 0.0
C223 C 0.12498 0.09509 0.39667 0.0
C224 C 0.15137 0.08948 0.3917 0.0
C225 C 0.1134 0.11291 0.37716 0.0
C226 C 0.0861 0.12067 0.38163 0.0
C227 C 0.08064 0.13459 0.40507 0.0
C228 C 0.0546 0.14104 0.40951 0.0
C229 C 0.03391 0.13389 0.39054 0.0
C230 C 0.03927 0.12043 0.36701 0.0
C231 C 0.06527 0.11391 0.36248 0.0
H232 H 0.01373 0.13881 0.39406 0.0
H233 H 0.26455 0.07132 0.35113 0.0
H234 H 0.42305 0.89706 0.72039 0.0
H235 H 0.44732 0.91792 0.75983 0.0
H236 H 0.3703 0.90675 0.80429 0.0
H237 H 0.34583 0.88589 0.76478 0.0
H238 H 0.40259 0.95925 0.81298 0.0
H239 H 0.41308 0.85802 0.81602 0.0
H240 H 0.42488 0.81335 0.79796 0.0
H241 H 0.50858 0.85859 0.78475 0.0
H242 H 0.49718 0.9037 0.80238 0.0
H243 H 0.46058 0.96874 0.94607 0.0
H244 H 0.43476 0.95412 0.90535 0.0
H245 H 0.5106 0.96657 0.85873 0.0
H246 H 0.53659 0.98099 0.89933 0.0
H247 H 0.47818 0.91354 0.85148 0.0
H248 H 0.46714 0.0149 0.8495 0.0
H249 H 0.45465 0.05891 0.86823 0.0
H250 H 0.37124 0.01245 0.88064 0.0
H251 H 0.38332 0.96799 0.86233 0.0
C252 C 0.41128 0.89891 0.7386 0.0
C253 C 0.38254 0.88954 0.73955 0.0
C254 C 0.42517 0.9109 0.76112 0.0
C255 C 0.41068 0.9135 0.78519 0.0
C256 C 0.38191 0.90494 0.78595 0.0
C257 C 0.36796 0.89305 0.76336 0.0
C258 C 0.42568 0.9245 0.80969 0.0
C259 C 0.41889 0.94903 0.82162 0.0
C260 C 0.44725 0.91148 0.82072 0.0
C261 C 0.45421 0.88432 0.81029 0.0
C262 C 0.43396 0.85851 0.80908 0.0
C263 C 0.44058 0.8331 0.79895 0.0
C264 C 0.46745 0.83315 0.79015 0.0
C265 C 0.48777 0.8586 0.79154 0.0
C266 C 0.48124 0.88408 0.80162 0.0
C267 C 0.47177 0.96872 0.92709 0.0
C268 C 0.50068 0.97594 0.92602 0.0
C269 C 0.45695 0.96043 0.90379 0.0
C270 C 0.47074 0.95932 0.87895 0.0
C271 C 0.49954 0.96719 0.87769 0.0
C272 C 0.51436 0.97553 0.90093 0.0
C273 C 0.4553 0.94848 0.85464 0.0
C274 C 0.46194 0.92383 0.84281 0.0
C275 C 0.43352 0.9613 0.84386 0.0
C276 C 0.4262 0.98803 0.85479 0.0
C277 C 0.44618 0.01398 0.85643 0.0
C278 C 0.43917 0.03902 0.86693 0.0
C279 C 0.41219 0.03845 0.87569 0.0
C280 C 0.39214 0.01285 0.87389 0.0
C281 C 0.39905 0.98773 0.86343 0.0
H282 H 0.4068 0.05786 0.88381 0.0
H283 H 0.47254 0.81346 0.78231 0.0
H284 H 0.72601 0.40417 0.73508 0.0
H285 H 0.70748 0.42827 0.69529 0.0
H286 H 0.63573 0.43469 0.74297 0.0
H287 H 0.65381 0.40984 0.78239 0.0
H288 H 0.62042 0.41656 0.69582 0.0
H289 H 0.68837 0.49529 0.72665 0.0
H290 H 0.73454 0.51973 0.74022 0.0
H291 H 0.76677 0.51113 0.66054 0.0
H292 H 0.72084 0.48626 0.6466 0.0
H293 H 0.60661 0.54981 0.59426 0.0
H294 H 0.62792 0.5303 0.63476 0.0
H295 H 0.61716 0.44466 0.60169 0.0
H296 H 0.59575 0.46368 0.56161 0.0
H297 H 0.6731 0.50513 0.64285 0.0
H298 H 0.59889 0.39411 0.6443 0.0
H299 H 0.55007 0.37327 0.63615 0.0
H300 H 0.52723 0.4531 0.66048 0.0
H301 H 0.57595 0.47479 0.66753 0.0
C302 C 0.70614 0.41046 0.73688 0.0
C303 C 0.69098 0.40451 0.76156 0.0
C304 C 0.69572 0.4245 0.71427 0.0
C305 C 0.67027 0.43347 0.71617 0.0
C306 C 0.65532 0.42783 0.74095 0.0
C307 C 0.66562 0.41361 0.76344 0.0
C308 C 0.65874 0.44807 0.69226 0.0
C309 C 0.63206 0.4359 0.6843 0.0
C310 C 0.67361 0.47365 0.67738 0.0
C311 C 0.70122 0.48866 0.68567 0.0
C312 C 0.70535 0.4984 0.71209 0.0
C313 C 0.73147 0.51237 0.71983 0.0
C314 C 0.75359 0.51691 0.70128 0.0
C315 C 0.74962 0.50756 0.6749 0.0
C316 C 0.72354 0.49355 0.66706 0.0
C317 C 0.60898 0.52689 0.59556 0.0
C318 C 0.59924 0.50825 0.57481 0.0
C319 C 0.62114 0.51578 0.6187 0.0
C320 C 0.62365 0.48588 0.62145 0.0
C321 C 0.61487 0.46761 0.6003 0.0
C322 C 0.60272 0.47861 0.57731 0.0
C323 C 0.63503 0.47336 0.64649 0.0
C324 C 0.66164 0.48579 0.65449 0.0
C325 C 0.61996 0.44845 0.66193 0.0
C326 C 0.59094 0.43608 0.6562 0.0
C327 C 0.58341 0.40727 0.64758 0.0
C328 C 0.5558 0.3954 0.64298 0.0
C329 C 0.53555 0.41199 0.64745 0.0
C330 C 0.54292 0.4405 0.65645 0.0
C331 C 0.57053 0.45268 0.66052 0.0
H332 H 0.51416 0.40269 0.64414 0.0
H333 H 0.77379 0.52773 0.70731 0.0
H334 H 0.93515 0.6869 0.20813 0.0
H335 H 0.95628 0.6542 0.18106 0.0
H336 H 0.88288 0.5866 0.1919 0.0
H337 H 0.86183 0.61929 0.2193 0.0
H338 H 0.92986 0.56357 0.19765 0.0
H339 H 0.89367 0.62821 0.13286 0.0
H340 H 0.88667 0.67626 0.1118 0.0
H341 H 0.97344 0.70269 0.09548 0.0
H342 H 0.98101 0.65495 0.11679 0.0
H343 H 0.96944 0.48119 0.08898 0.0
H344 H 0.94518 0.5066 0.12084 0.0
H345 H 0.00996 0.58403 0.11024 0.0
H346 H 0.03351 0.55929 0.07798 0.0
H347 H 0.96289 0.59951 0.10364 0.0
H348 H 0.99993 0.53643 0.17012 0.0
H349 H 0.00758 0.48871 0.19134 0.0
H350 H 0.92059 0.4596 0.20461 0.0
H351 H 0.9124 0.50704 0.18314 0.0
C352 C 0.92356 0.66511 0.20459 0.0
C353 C 0.89667 0.65579 0.21505 0.0
C354 C 0.93559 0.64647 0.18919 0.0
C355 C 0.92093 0.61819 0.18409 0.0
C356 C 0.89444 0.60841 0.19545 0.0
C357 C 0.8824 0.62708 0.21087 0.0
C358 C 0.93314 0.59922 0.16636 0.0
C359 C 0.93679 0.5712 0.17696 0.0
C360 C 0.94243 0.60938 0.13951 0.0
C361 C 0.93792 0.6381 0.12663 0.0
C362 C 0.91128 0.64436 0.12497 0.0
C363 C 0.90721 0.67152 0.11295 0.0
C364 C 0.9296 0.69254 0.10236 0.0
C365 C 0.95612 0.6864 0.10371 0.0
C366 C 0.96031 0.65929 0.11573 0.0
C367 C 0.97856 0.50348 0.09382 0.0
C368 C 0.00313 0.51842 0.08087 0.0
C369 C 0.96477 0.51795 0.11203 0.0
C370 C 0.97574 0.54728 0.1179 0.0
C371 C 1.00094 0.56156 0.10583 0.0
C372 C 0.01439 0.54737 0.08741 0.0
C373 C 0.9605 0.56413 0.13514 0.0
C374 C 0.956 0.59175 0.12433 0.0
C375 C 0.95062 0.55361 0.16178 0.0
C376 C 0.95554 0.52514 0.17476 0.0
C377 C 0.98242 0.51976 0.17737 0.0
C378 C 0.98686 0.49278 0.18948 0.0
C379 C 0.96458 0.4711 0.19925 0.0
C380 C 0.93782 0.47639 0.19699 0.0
C381 C 0.93327 0.50333 0.18488 0.0
H382 H 0.96806 0.45022 0.20862 0.0
H383 H 0.9264 0.71355 0.09305 0.0
H384 H 0.30813 0.13128 0.2122 0.0
H385 H 0.3503 0.11946 0.19308 0.0
H386 H 0.32026 0.13246 0.11181 0.0
H387 H 0.27816 0.14408 0.13088 0.0
H388 H 0.33728 0.08074 0.11879 0.0
H389 H 0.37367 0.18172 0.1357 0.0
H390 H 0.38424 0.2254 0.16282 0.0
H391 H 0.43195 0.17958 0.2173 0.0
H392 H 0.42135 0.13545 0.19072 0.0
H393 H 0.45903 0.06846 0.04724 0.0
H394 H 0.42064 0.08827 0.06523 0.0
H395 H 0.44809 0.07325 0.14718 0.0
H396 H 0.48653 0.05349 0.1294 0.0
H397 H 0.43308 0.12747 0.13918 0.0
H398 H 0.39477 0.02623 0.12489 0.0
H399 H 0.38415 0.98171 0.09903 0.0
H400 H 0.33997 0.02743 0.04079 0.0
H401 H 0.35058 0.07243 0.06627 0.0
C402 C 0.31084 0.13207 0.19026 0.0
C403 C 0.28999 0.13864 0.17301 0.0
C404 C 0.33491 0.12539 0.17934 0.0
C405 C 0.33852 0.1252 0.15097 0.0
C406 C 0.31794 0.13246 0.13374 0.0
C407 C 0.29395 0.13919 0.14464 0.0
C408 C 0.36281 0.1155 0.1393 0.0
C409 C 0.35822 0.09134 0.12288 0.0
C410 C 0.39016 0.12871 0.14526 0.0
C411 C 0.39647 0.15516 0.16137 0.0
C412 C 0.3862 0.18085 0.15361 0.0
C413 C 0.39225 0.20572 0.16886 0.0
C414 C 0.40869 0.20524 0.19181 0.0
C415 C 0.41918 0.17991 0.19954 0.0
C416 C 0.41318 0.15497 0.18438 0.0
C417 C 0.45693 0.0694 0.06908 0.0
C418 C 0.47576 0.05921 0.08688 0.0
C419 C 0.43495 0.08069 0.07934 0.0
C420 C 0.43139 0.08205 0.10758 0.0
C421 C 0.45044 0.07242 0.12534 0.0
C422 C 0.47232 0.06097 0.11512 0.0
C423 C 0.40744 0.09288 0.11863 0.0
C424 C 0.4121 0.1171 0.13498 0.0
C425 C 0.38011 0.07969 0.11274 0.0
C426 C 0.37373 0.05277 0.09731 0.0
C427 C 0.383 0.02687 0.10644 0.0
C428 C 0.37693 0.00153 0.09187 0.0
C429 C 0.36148 0.00174 0.06819 0.0
C430 C 0.35199 0.02731 0.0591 0.0
C431 C 0.35799 0.05274 0.07362 0.0
H432 H 0.35678 0.98209 0.05693 0.0
H433 H 0.41336 0.22452 0.20358 0.0
H434 H 0.31501 0.88175 0.63175 0.0
H435 H 0.27335 0.89785 0.61558 0.0
H436 H 0.24413 0.89603 0.6986 0.0
H437 H 0.28549 0.87913 0.71495 0.0
H438 H 0.20282 0.87308 0.66501 0.0
H439 H 0.27298 0.96062 0.66573 0.0
H440 H 0.31837 0.99212 0.65483 0.0
H441 H 0.3019 0.98951 0.56928 0.0
H442 H 0.25655 0.95761 0.57966 0.0
H443 H 0.10526 0.9672 0.64424 0.0
H444 H 0.14366 0.94396 0.65873 0.0
H445 H 0.17103 0.94654 0.575 0.0
H446 H 0.13279 0.97004 0.56031 0.0
H447 H 0.21284 0.96786 0.6081 0.0
H448 H 0.1412 0.8818 0.60798 0.0
H449 H 0.09506 0.85247 0.6197 0.0
H450 H 0.11372 0.85354 0.70485 0.0
H451 H 0.15984 0.88333 0.69366 0.0
C452 C 0.29957 0.88438 0.64658 0.0
C453 C 0.30364 0.87926 0.67466 0.0
C454 C 0.27585 0.8938 0.6373 0.0
C455 C 0.25577 0.89845 0.6559 0.0
C456 C 0.2594 0.89265 0.6839 0.0
C457 C 0.28316 0.88326 0.69321 0.0
C458 C 0.23142 0.91027 0.64613 0.0
C459 C 0.20498 0.89393 0.65279 0.0
C460 C 0.23425 0.93723 0.62978 0.0
C461 C 0.26149 0.95646 0.62347 0.0
C462 C 0.27914 0.96655 0.64458 0.0
C463 C 0.30484 0.98452 0.6385 0.0
C464 C 0.31305 0.99274 0.61138 0.0
C465 C 0.29554 0.98307 0.59028 0.0
C466 C 0.26982 0.96507 0.59625 0.0
C467 C 0.11927 0.96255 0.62885 0.0
C468 C 0.11595 0.97049 0.60111 0.0
C469 C 0.14118 0.94919 0.63717 0.0
C470 C 0.16014 0.94338 0.61793 0.0
C471 C 0.15664 0.95083 0.59018 0.0
C472 C 0.13468 0.96412 0.58182 0.0
C473 C 0.18423 0.93064 0.62688 0.0
C474 C 0.21065 0.94687 0.62014 0.0
C475 C 0.18134 0.90367 0.64321 0.0
C476 C 0.15391 0.88502 0.64998 0.0
C477 C 0.13542 0.87592 0.62922 0.0
C478 C 0.10927 0.85921 0.63576 0.0
C479 C 0.10144 0.85122 0.66301 0.0
C480 C 0.11981 0.85978 0.68376 0.0
C481 C 0.14597 0.87655 0.67732 0.0
H482 H 0.08115 0.83836 0.66804 0.0
H483 H 0.33295 0.00666 0.60671 0.0
H484 H 0.79617 0.3076 0.85049 0.0
H485 H 0.83808 0.32527 0.87546 0.0
H486 H 0.8214 0.41388 0.86856 0.0
H487 H 0.77927 0.39642 0.84435 0.0
H488 H 0.87468 0.41294 0.85564 0.0
H489 H 0.80822 0.3731 0.92692 0.0
H490 H 0.77354 0.33426 0.95116 0.0
H491 H 0.83398 0.27954 0.96408 0.0
H492 H 0.86893 0.3179 0.93951 0.0
H493 H 0.94558 0.46098 0.98745 0.0
H494 H 0.90585 0.43277 0.96498 0.0
H495 H 0.96003 0.41045 0.90413 0.0
H496 H 0.99952 0.43942 0.92588 0.0
H497 H 0.88902 0.37559 0.95057 0.0
H498 H 0.9429 0.41653 0.85331 0.0
H499 H 0.97324 0.46007 0.82994 0.0
H500 H 0.93053 0.51794 0.8707 0.0
H501 H 0.90106 0.47484 0.89516 0.0
C502 C 0.80132 0.33081 0.85445 0.0
C503 C 0.78435 0.35059 0.84531 0.0
C504 C 0.82531 0.34085 0.86866 0.0
C505 C 0.83276 0.37084 0.87392 0.0
C506 C 0.81608 0.39067 0.86456 0.0
C507 C 0.79208 0.38065 0.85054 0.0
C508 C 0.85796 0.38189 0.88908 0.0
C509 C 0.87789 0.40447 0.87628 0.0
C510 C 0.86202 0.3712 0.91616 0.0
C511 C 0.8411 0.34822 0.93111 0.0
C512 C 0.81405 0.35268 0.93472 0.0
C513 C 0.79436 0.33077 0.94855 0.0
C514 C 0.80153 0.30441 0.95908 0.0
C515 C 0.82844 0.29995 0.95587 0.0
C516 C 0.8482 0.32177 0.942 0.0
C517 C 0.94897 0.44971 0.96948 0.0
C518 C 0.97551 0.45273 0.95809 0.0
C519 C 0.9263 0.43363 0.95666 0.0
C520 C 0.92991 0.42015 0.93246 0.0
C521 C 0.95665 0.42147 0.92224 0.0
C522 C 0.9792 0.43788 0.93476 0.0
C523 C 0.90573 0.40642 0.91697 0.0
C524 C 0.886 0.38347 0.92972 0.0
C525 C 0.90153 0.41691 0.88993 0.0
C526 C 0.92013 0.44266 0.8762 0.0
C527 C 0.94032 0.43862 0.85746 0.0
C528 C 0.95748 0.46321 0.84417 0.0
C529 C 0.95411 0.49184 0.84906 0.0
C530 C 0.93363 0.49589 0.86731 0.0
C531 C 0.91684 0.47141 0.88105 0.0
H532 H 0.96722 0.51087 0.83858 0.0
H533 H 0.78625 0.28747 0.96978 0.0
H534 H 0.82158 0.62257 0.32608 0.0
H535 H 0.77746 0.59853 0.34748 0.0
H536 H 0.75038 0.68225 0.34212 0.0
H537 H 0.79413 0.70622 0.32018 0.0
H538 H 0.7555 0.60856 0.39497 0.0
H539 H 0.68086 0.66937 0.33253 0.0
H540 H 0.6767 0.69056 0.28562 0.0
H541 H 0.72617 0.6325 0.25521 0.0
H542 H 0.73027 0.61066 0.30185 0.0
H543 H 0.63032 0.58418 0.46854 0.0
H544 H 0.67067 0.61019 0.44184 0.0
H545 H 0.64213 0.56097 0.37258 0.0
H546 H 0.60148 0.5357 0.39877 0.0
H547 H 0.66471 0.61501 0.35549 0.0
H548 H 0.68979 0.53926 0.41637 0.0
H549 H 0.69325 0.51259 0.46107 0.0
H550 H 0.74302 0.59075 0.49013 0.0
H551 H 0.73948 0.61803 0.44571 0.0
C552 C 0.80605 0.63573 0.32911 0.0
C553 C 0.81129 0.66627 0.32152 0.0
C554 C 0.78097 0.62204 0.34151 0.0
C555 C 0.76064 0.6386 0.34629 0.0
C556 C 0.76569 0.66901 0.33838 0.0
C557 C 0.79076 0.68271 0.32607 0.0
C558 C 0.7345 0.62433 0.3604 0.0
C559 C 0.73565 0.60997 0.38633 0.0
C560 C 0.70862 0.62574 0.34891 0.0
C561 C 0.70612 0.63863 0.32075 0.0
C562 C 0.69078 0.66107 0.31583 0.0
C563 C 0.68844 0.67319 0.28928 0.0
C564 C 0.70125 0.66296 0.26747 0.0
C565 C 0.71635 0.6405 0.27214 0.0
C566 C 0.71873 0.62828 0.29863 0.0
C567 C 0.63249 0.57923 0.44751 0.0
C568 C 0.61287 0.55773 0.43582 0.0
C569 C 0.65558 0.59401 0.43231 0.0
C570 C 0.65968 0.58708 0.40538 0.0
C571 C 0.63944 0.56664 0.39332 0.0
C572 C 0.61621 0.55216 0.40837 0.0
C573 C 0.68573 0.5997 0.39028 0.0
C574 C 0.68456 0.61374 0.36416 0.0
C575 C 0.71162 0.59723 0.40125 0.0
C576 C 0.71418 0.58074 0.42781 0.0
C577 C 0.70135 0.5508 0.43234 0.0
C578 C 0.70332 0.53557 0.45762 0.0
C579 C 0.7183 0.54998 0.47844 0.0
C580 C 0.7314 0.57963 0.47399 0.0
C581 C 0.72943 0.59498 0.44877 0.0
H582 H 0.7198 0.53817 0.49801 0.0
H583 H 0.69941 0.67238 0.24693 0.0
H584 H 0.23376 0.25596 0.17668 0.0
H585 H 0.21174 0.29296 0.15247 0.0
H586 H 0.13204 0.24334 0.1792 0.0
H587 H 0.15374 0.20539 0.20194 0.0
H588 H 0.12906 0.26269 0.1291 0.0
H589 H 0.16506 0.30734 0.20974 0.0
H590 H 0.20034 0.32475 0.24319 0.0
H591 H 0.24683 0.38393 0.18106 0.0
H592 H 0.212 0.36656 0.14713 0.0
H593 H 0.05734 0.38203 0.0985 0.0
H594 H 0.07748 0.34372 0.12362 0.0
H595 H 0.15737 0.38327 0.08915 0.0
H596 H 0.13757 0.42134 0.06407 0.0
H597 H 0.15879 0.36921 0.14455 0.0
H598 H 0.12214 0.32276 0.06397 0.0
H599 H 0.08572 0.30554 0.03157 0.0
H600 H 0.03884 0.24997 0.09576 0.0
H601 H 0.07483 0.26719 0.12865 0.0
C602 C 0.21153 0.25267 0.17709 0.0
C603 C 0.19558 0.22776 0.19155 0.0
C604 C 0.19896 0.27408 0.16353 0.0
C605 C 0.17021 0.27132 0.16448 0.0
C606 C 0.15424 0.24615 0.17833 0.0
C607 C 0.16675 0.22459 0.19161 0.0
C608 C 0.15671 0.29451 0.15099 0.0
C609 C 0.13533 0.28592 0.13283 0.0
C610 C 0.16506 0.32494 0.15549 0.0
C611 C 0.18605 0.33542 0.17584 0.0
C612 C 0.18291 0.32389 0.20316 0.0
C613 C 0.20281 0.33378 0.22222 0.0
C614 C 0.22584 0.35538 0.21424 0.0
C615 C 0.229 0.36717 0.1872 0.0
C616 C 0.20917 0.35733 0.16806 0.0
C617 C 0.07918 0.38254 0.09632 0.0
C618 C 0.09581 0.40464 0.07919 0.0
C619 C 0.09064 0.36063 0.11061 0.0
C620 C 0.1189 0.3606 0.10811 0.0
C621 C 0.13554 0.38289 0.09137 0.0
C622 C 0.12412 0.40457 0.07695 0.0
C623 C 0.13134 0.33731 0.1227 0.0
C624 C 0.1525 0.34593 0.14102 0.0
C625 C 0.12262 0.30692 0.11857 0.0
C626 C 0.10102 0.29651 0.09882 0.0
C627 C 0.10395 0.30707 0.07122 0.0
C628 C 0.08341 0.29727 0.05276 0.0
C629 C 0.05994 0.27674 0.06162 0.0
C630 C 0.057 0.26591 0.08894 0.0
C631 C 0.07747 0.27566 0.1075 0.0
H632 H 0.04407 0.26918 0.04729 0.0
H633 H 0.24122 0.36301 0.22903 0.0
H634 H 0.66155 0.29609 0.84528 0.0
H635 H 0.63309 0.25105 0.86723 0.0
H636 H 0.69953 0.20406 0.85805 0.0
H637 H 0.72818 0.24913 0.83629 0.0
H638 H 0.64481 0.17072 0.84665 0.0
H639 H 0.69469 0.22809 0.91516 0.0
H640 H 0.71049 0.2736 0.93879 0.0
H641 H 0.62684 0.27767 0.95853 0.0
H642 H 0.61052 0.23241 0.93459 0.0
H643 H 0.61201 0.05288 0.95001 0.0
H644 H 0.63326 0.09481 0.91903 0.0
H645 H 0.57104 0.14311 0.94136 0.0
H646 H 0.54987 0.10146 0.97273 0.0
H647 H 0.62152 0.17617 0.94426 0.0
H648 H 0.57156 0.11611 0.87898 0.0
H649 H 0.55589 0.07048 0.8555 0.0
H650 H 0.63888 0.07097 0.82959 0.0
H651 H 0.65513 0.11637 0.85331 0.0
C652 C 0.66988 0.276 0.84752 0.0
C653 C 0.69706 0.27605 0.83924 0.0
C654 C 0.65366 0.25037 0.86009 0.0
C655 C 0.6643 0.22434 0.86429 0.0
C656 C 0.69098 0.22393 0.85488 0.0
C657 C 0.70734 0.24967 0.84267 0.0
C658 C 0.64844 0.19834 0.88051 0.0
C659 C 0.63985 0.17173 0.86804 0.0
C660 C 0.64162 0.19999 0.90825 0.0
C661 C 0.65137 0.22708 0.92281 0.0
C662 C 0.67965 0.23885 0.92431 0.0
C663 C 0.6887 0.26457 0.9378 0.0
C664 C 0.66967 0.27857 0.95008 0.0
C665 C 0.64155 0.26683 0.94896 0.0
C666 C 0.63239 0.24114 0.93544 0.0
C667 C 0.60273 0.07233 0.94825 0.0
C668 C 0.57941 0.07389 0.96411 0.0
C669 C 0.61481 0.09622 0.93036 0.0
C670 C 0.60368 0.12206 0.9278 0.0
C671 C 0.57999 0.1234 0.94306 0.0
C672 C 0.56788 0.09951 0.96093 0.0
C673 C 0.6177 0.14831 0.91048 0.0
C674 C 0.62613 0.17506 0.9228 0.0
C675 C 0.62431 0.14671 0.88262 0.0
C676 C 0.6146 0.11952 0.86814 0.0
C677 C 0.58651 0.10637 0.86846 0.0
C678 C 0.57751 0.08056 0.85508 0.0
C679 C 0.59639 0.0678 0.84111 0.0
C680 C 0.62429 0.08087 0.84044 0.0
C681 C 0.6334 0.10666 0.85383 0.0
H682 H 0.58938 0.04782 0.83076 0.0
H683 H 0.67671 0.29848 0.96053 0.0
H684 H 0.8538 0.76952 0.32039 0.0
H685 H 0.8749 0.81365 0.34264 0.0
H686 H 0.95311 0.78564 0.34153 0.0
H687 H 0.93173 0.74056 0.32028 0.0
H688 H 0.94265 0.80119 0.39025 0.0
H689 H 0.94135 0.84611 0.30046 0.0
H690 H 0.92192 0.8583 0.25601 0.0
H691 H 0.86339 0.89954 0.29588 0.0
H692 H 0.88219 0.88723 0.34061 0.0
H693 H 0.00528 0.93718 0.44554 0.0
H694 H 0.99438 0.89758 0.41432 0.0
H695 H 0.90971 0.90796 0.41362 0.0
H696 H 0.92039 0.94758 0.44464 0.0
H697 H 0.92989 0.90309 0.36232 0.0
H698 H 0.92825 0.85225 0.45212 0.0
H699 H 0.9479 0.83988 0.49643 0.0
H700 H 0.01318 0.81008 0.45537 0.0
H701 H 0.99408 0.82264 0.4108 0.0
C702 C 0.87551 0.77274 0.32482 0.0
C703 C 0.89103 0.75139 0.31878 0.0
C704 C 0.88765 0.79821 0.33724 0.0
C705 C 0.91568 0.80315 0.34351 0.0
C706 C 0.93146 0.78232 0.33678 0.0
C707 C 0.91927 0.75669 0.32445 0.0
C708 C 0.92779 0.82892 0.35895 0.0
C709 C 0.94042 0.82358 0.3838 0.0
C710 C 0.92447 0.85808 0.35081 0.0
C711 C 0.91308 0.86555 0.32393 0.0
C712 C 0.9242 0.85758 0.29978 0.0
C713 C 0.91332 0.86455 0.27452 0.0
C714 C 0.89141 0.87964 0.27313 0.0
C715 C 0.88036 0.88784 0.29699 0.0
C716 C 0.89114 0.88091 0.3223 0.0
C717 C 0.98435 0.93106 0.4387 0.0
C718 C 0.96366 0.94539 0.44768 0.0
C719 C 0.97817 0.9084 0.42092 0.0
C720 C 0.95121 0.89974 0.41183 0.0
C721 C 0.93065 0.91435 0.4204 0.0
C722 C 0.93677 0.93687 0.43825 0.0
C723 C 0.94415 0.87513 0.39372 0.0
C724 C 0.9325 0.88074 0.36843 0.0
C725 C 0.94847 0.84626 0.40137 0.0
C726 C 0.95993 0.83871 0.42815 0.0
C727 C 0.94693 0.8433 0.45255 0.0
C728 C 0.95794 0.83621 0.4777 0.0
C729 C 0.98183 0.82429 0.47871 0.0
C730 C 0.99471 0.81936 0.45456 0.0
C731 C 0.98379 0.82645 0.42935 0.0
H732 H 0.99032 0.8188 0.49821 0.0
H733 H 0.88302 0.88501 0.25356 0.0
H734 H 0.44772 0.83445 0.62842 0.0
H735 H 0.47073 0.79485 0.61532 0.0
H736 H 0.39537 0.73108 0.63073 0.0
H737 H 0.37226 0.77072 0.6438 0.0
H738 H 0.44024 0.71036 0.65111 0.0
H739 H 0.41392 0.75522 0.56717 0.0
H740 H 0.41097 0.79615 0.53298 0.0
H741 H 0.49899 0.81601 0.52425 0.0
H742 H 0.50247 0.77543 0.55872 0.0
H743 H 0.46161 0.59372 0.57181 0.0
H744 H 0.44538 0.63499 0.59074 0.0
H745 H 0.52627 0.68931 0.57905 0.0
H746 H 0.54291 0.6477 0.56031 0.0
H747 H 0.4822 0.71622 0.55849 0.0
H748 H 0.50737 0.66756 0.64075 0.0
H749 H 0.50866 0.62522 0.67387 0.0
H750 H 0.42096 0.61103 0.68466 0.0
H751 H 0.41908 0.65305 0.65127 0.0
C752 C 0.43618 0.81192 0.62931 0.0
C753 C 0.40837 0.80553 0.63763 0.0
C754 C 0.44929 0.78936 0.6217 0.0
C755 C 0.43474 0.76002 0.622 0.0
C756 C 0.40701 0.75353 0.63053 0.0
C757 C 0.39385 0.77614 0.638 0.0
C758 C 0.44825 0.73624 0.61274 0.0
C759 C 0.44921 0.71152 0.63078 0.0
C760 C 0.46047 0.73805 0.58641 0.0
C761 C 0.45847 0.76253 0.56577 0.0
C762 C 0.43266 0.7685 0.55816 0.0
C763 C 0.43089 0.7916 0.53869 0.0
C764 C 0.45478 0.80873 0.52652 0.0
C765 C 0.4805 0.80276 0.53375 0.0
C766 C 0.48239 0.77971 0.55324 0.0
C767 C 0.47604 0.61438 0.57337 0.0
C768 C 0.50354 0.6175 0.56451 0.0
C769 C 0.46674 0.6379 0.58431 0.0
C770 C 0.48465 0.66513 0.5864 0.0
C771 C 0.51217 0.6684 0.57765 0.0
C772 C 0.52164 0.64463 0.56706 0.0
C773 C 0.47408 0.69033 0.59681 0.0
C774 C 0.47355 0.71526 0.57893 0.0
C775 C 0.46206 0.68858 0.62319 0.0
C776 C 0.46307 0.6633 0.64331 0.0
C777 C 0.48832 0.65525 0.64999 0.0
C778 C 0.48917 0.63134 0.66886 0.0
C779 C 0.4649 0.6154 0.68131 0.0
C780 C 0.43974 0.62338 0.67497 0.0
C781 C 0.43878 0.64727 0.6561 0.0
H782 H 0.4656 0.59689 0.69591 0.0
H783 H 0.45337 0.82659 0.51143 0.0
H784 H 0.88253 0.91233 0.79312 0.0
H785 H 0.90636 0.93617 0.75129 0.0
H786 H 0.89907 0.85085 0.71802 0.0
H787 H 0.87571 0.82692 0.75997 0.0
H788 H 0.94838 0.8816 0.70718 0.0
H789 H 0.85691 0.90059 0.69797 0.0
H790 H 0.81545 0.91823 0.71233 0.0
H791 H 0.86255 0.00647 0.71491 0.0
H792 H 0.90438 0.98927 0.70091 0.0
H793 H 0.94757 0.96814 0.56549 0.0
H794 H 0.92451 0.94411 0.6074 0.0
H795 H 1.00095 0.96293 0.65015 0.0
H796 H 0.02431 0.9869 0.60812 0.0
H797 H 0.91636 0.96446 0.65543 0.0
H798 H 0.00192 0.90594 0.69901 0.0
H799 H 0.04058 0.88484 0.68235 0.0
H800 H 1.00003 0.8694 0.60627 0.0
H801 H 0.96101 0.89002 0.62259 0.0
C802 C 0.88585 0.89871 0.7768 0.0
C803 C 0.87721 0.86776 0.77982 0.0
C804 C 0.89948 0.91234 0.75289 0.0
C805 C 0.90432 0.89536 0.73132 0.0
C806 C 0.89572 0.86444 0.73436 0.0
C807 C 0.88235 0.85079 0.75835 0.0
C808 C 0.91828 0.90974 0.70556 0.0
C809 C 0.9414 0.89977 0.69592 0.0
C810 C 0.90898 0.93314 0.69053 0.0
C811 C 0.8838 0.94359 0.69862 0.0
C812 C 0.85845 0.92372 0.70175 0.0
C813 C 0.83489 0.93364 0.70981 0.0
C814 C 0.83638 0.96344 0.71459 0.0
C815 C 0.86143 0.98339 0.71123 0.0
C816 C 0.88506 0.97358 0.70321 0.0
C817 C 0.95957 0.96719 0.58376 0.0
C818 C 0.98789 0.97939 0.58336 0.0
C819 C 0.94628 0.9535 0.60777 0.0
C820 C 0.96098 0.95151 0.63191 0.0
C821 C 0.98922 0.96386 0.63169 0.0
C822 C 0.00255 0.97763 0.60765 0.0
C823 C 0.94662 0.93654 0.65724 0.0
C824 C 0.92343 0.9464 0.66678 0.0
C825 C 0.95548 0.91261 0.67183 0.0
C826 C 0.97872 0.89987 0.66193 0.0
C827 C 0.00124 0.89797 0.67876 0.0
C828 C 0.02321 0.8861 0.66937 0.0
C829 C 0.02282 0.8759 0.64323 0.0
C830 C 1.00038 0.87743 0.62646 0.0
C831 C 0.97835 0.88925 0.63576 0.0
H832 H 0.03986 0.86675 0.636 0.0
H833 H 0.81812 0.97107 0.72084 0.0
H834 H 0.74094 0.14651 0.26691 0.0
H835 H 0.71896 0.12739 0.22598 0.0
H836 H 0.64331 0.15199 0.251 0.0
H837 H 0.66401 0.1678 0.29336 0.0
H838 H 0.62981 0.1043 0.23064 0.0
H839 H 0.69268 0.19314 0.19915 0.0
H840 H 0.7375 0.22725 0.19294 0.0
H841 H 0.76982 0.16186 0.15161 0.0
H842 H 0.72527 0.12722 0.15787 0.0
H843 H 0.57124 0.12151 0.09968 0.0
H844 H 0.59939 0.13573 0.13905 0.0
H845 H 0.64375 0.06551 0.12798 0.0
H846 H 0.61511 0.05051 0.08878 0.0
H847 H 0.67466 0.13278 0.13968 0.0
H848 H 0.60657 0.0451 0.17216 0.0
H849 H 0.55883 0.01713 0.17576 0.0
H850 H 0.53361 0.08921 0.21341 0.0
H851 H 0.58117 0.11778 0.2096 0.0
C852 C 0.71946 0.14735 0.26411 0.0
C853 C 0.70448 0.15905 0.28371 0.0
C854 C 0.70701 0.13688 0.24026 0.0
C855 C 0.67956 0.13882 0.23487 0.0
C856 C 0.66454 0.15029 0.25444 0.0
C857 C 0.67668 0.1599 0.27862 0.0
C858 C 0.66619 0.12867 0.20914 0.0
C859 C 0.63973 0.11081 0.21085 0.0
C860 C 0.67896 0.13669 0.18305 0.0
C861 C 0.70574 0.15748 0.17924 0.0
C862 C 0.70941 0.18597 0.18891 0.0
C863 C 0.73475 0.2054 0.18535 0.0
C864 C 0.75652 0.19669 0.17196 0.0
C865 C 0.75296 0.16856 0.16202 0.0
C866 C 0.72766 0.14902 0.16555 0.0
C867 C 0.58719 0.10926 0.10535 0.0
C868 C 0.59091 0.08482 0.09116 0.0
C869 C 0.60322 0.11744 0.12786 0.0
C870 C 0.62355 0.10165 0.13631 0.0
C871 C 0.62815 0.07797 0.12162 0.0
C872 C 0.61174 0.0694 0.09935 0.0
C873 C 0.63865 0.10891 0.16158 0.0
C874 C 0.6652 0.12619 0.15967 0.0
C875 C 0.62575 0.10114 0.18743 0.0
C876 C 0.59735 0.08365 0.19037 0.0
C877 C 0.5908 0.05506 0.18101 0.0
C878 C 0.56378 0.03908 0.18312 0.0
C879 C 0.54318 0.05141 0.19474 0.0
C880 C 0.54958 0.07969 0.20438 0.0
C881 C 0.57657 0.09577 0.20228 0.0
H882 H 0.52227 0.03903 0.19632 0.0
H883 H 0.77612 0.21177 0.16923 0.0
H884 H 0.38101 0.58228 0.26946 0.0
H885 H 0.40157 0.56927 0.31274 0.0
H886 H 0.46719 0.64543 0.29865 0.0
H887 H 0.44679 0.65813 0.25511 0.0
H888 H 0.48747 0.59814 0.3149 0.0
H889 H 0.41667 0.64485 0.34571 0.0
H890 H 0.36988 0.65505 0.35022 0.0
H891 H 0.34111 0.5666 0.38551 0.0
H892 H 0.38768 0.5557 0.38084 0.0
H893 H 0.53778 0.59643 0.45029 0.0
H894 H 0.5153 0.61145 0.40898 0.0
H895 H 0.46024 0.52654 0.41309 0.0
H896 H 0.48293 0.51107 0.45436 0.0
H897 H 0.43497 0.57915 0.40268 0.0
H898 H 0.50864 0.53427 0.37055 0.0
H899 H 0.55685 0.52801 0.36779 0.0
H900 H 0.58162 0.61862 0.33659 0.0
H901 H 0.53356 0.62557 0.33959 0.0
C902 C 0.39985 0.59612 0.27566 0.0
C903 C 0.41269 0.62083 0.25887 0.0
C904 C 0.41147 0.58884 0.30042 0.0
C905 C 0.43587 0.60645 0.30898 0.0
C906 C 0.44844 0.63145 0.29238 0.0
C907 C 0.43683 0.6387 0.26759 0.0
C908 C 0.44866 0.59827 0.33489 0.0
C909 C 0.47606 0.59439 0.33413 0.0
C910 C 0.43371 0.59303 0.35997 0.0
C911 C 0.40561 0.59936 0.36263 0.0
C912 C 0.40031 0.62747 0.35418 0.0
C913 C 0.37384 0.6334 0.35682 0.0
C914 C 0.35252 0.61146 0.36807 0.0
C915 C 0.35764 0.58355 0.37676 0.0
C916 C 0.38408 0.57749 0.37413 0.0
C917 C 0.52079 0.58098 0.44252 0.0
C918 C 0.51211 0.55253 0.45552 0.0
C919 C 0.50804 0.58959 0.41891 0.0
C920 C 0.48623 0.57004 0.40805 0.0
C921 C 0.47706 0.54189 0.42127 0.0
C922 C 0.49009 0.53306 0.44471 0.0
C923 C 0.47351 0.57885 0.38246 0.0
C924 C 0.44622 0.58289 0.38336 0.0
C925 C 0.48868 0.58475 0.35761 0.0
C926 C 0.51754 0.58051 0.35554 0.0
C927 C 0.52439 0.55294 0.36333 0.0
C928 C 0.55169 0.54925 0.36169 0.0
C929 C 0.57229 0.57292 0.35207 0.0
C930 C 0.56563 0.60032 0.34406 0.0
C931 C 0.53837 0.60414 0.3457 0.0
H932 H 0.5934 0.57001 0.35072 0.0
H933 H 0.33204 0.6161 0.37012 0.0
H934 H 0.21607 0.39137 0.80811 0.0
H935 H 0.19236 0.40976 0.84477 0.0
H936 H 0.11413 0.37392 0.81039 0.0
H937 H 0.13777 0.35729 0.77242 0.0
H938 H 0.11191 0.4251 0.8276 0.0
H939 H 0.14064 0.33858 0.86651 0.0
H940 H 0.173 0.30535 0.87823 0.0
H941 H 0.22077 0.37206 0.92441 0.0
H942 H 0.1889 0.40584 0.91265 0.0
H943 H 0.06615 0.4151 0.98092 0.0
H944 H 0.08516 0.39472 0.94226 0.0
H945 H 0.11138 0.48291 0.90419 0.0
H946 H 0.09197 0.50353 0.94263 0.0
H947 H 0.13587 0.40159 0.92341 0.0
H948 H 0.10734 0.48077 0.83593 0.0
H949 H 0.07043 0.50846 0.82473 0.0
H950 H 0.0138 0.44616 0.87654 0.0
H951 H 0.05036 0.41809 0.88807 0.0
C952 C 0.19383 0.3878 0.80799 0.0
C953 C 0.17887 0.37276 0.78723 0.0
C954 C 0.18028 0.39799 0.82924 0.0
C955 C 0.15144 0.39274 0.83064 0.0
C956 C 0.1364 0.37809 0.80982 0.0
C957 C 0.14997 0.36827 0.78829 0.0
C958 C 0.13705 0.40243 0.85392 0.0
C959 C 0.11713 0.41991 0.84854 0.0
C960 C 0.14334 0.39511 0.8813 0.0
C961 C 0.16251 0.37482 0.8885 0.0
C962 C 0.15815 0.34623 0.87901 0.0
C963 C 0.17639 0.32729 0.88568 0.0
C964 C 0.19896 0.33661 0.90201 0.0
C965 C 0.2033 0.36488 0.91175 0.0
C966 C 0.18514 0.38392 0.9051 0.0
C967 C 0.07591 0.43021 0.96432 0.0
C968 C 0.07751 0.46096 0.96482 0.0
C969 C 0.0868 0.4185 0.94226 0.0
C970 C 0.09942 0.43726 0.92025 0.0
C971 C 0.10132 0.468 0.92079 0.0
C972 C 0.09038 0.47976 0.94285 0.0
C973 C 0.11118 0.42468 0.89705 0.0
C974 C 0.13063 0.4067 0.90246 0.0
C975 C 0.10379 0.43075 0.86979 0.0
C976 C 0.08168 0.44751 0.86303 0.0
C977 C 0.08701 0.47297 0.84491 0.0
C978 C 0.06616 0.48876 0.83857 0.0
C979 C 0.03983 0.47916 0.85006 0.0
C980 C 0.03427 0.4537 0.86787 0.0
C981 C 0.05507 0.4379 0.87437 0.0
H982 H 0.02372 0.4914 0.8451 0.0
H983 H 0.21306 0.32192 0.90715 0.0
H984 H 0.77775 0.82035 0.85958 0.0
H985 H 0.74184 0.84053 0.88224 0.0
H986 H 0.79425 0.92704 0.87699 0.0
H987 H 0.83008 0.90708 0.85408 0.0
H988 H 0.76909 0.90789 0.92986 0.0
H989 H 0.74499 0.91615 0.83489 0.0
H990 H 0.73349 0.89704 0.78992 0.0
H991 H 0.66347 0.83635 0.82538 0.0
H992 H 0.67482 0.8548 0.87068 0.0
H993 H 0.67793 0.0018 0.9606 0.0
H994 H 0.71164 0.97724 0.94012 0.0
H995 H 0.64943 0.89857 0.93412 0.0
H996 H 0.61535 0.92325 0.95418 0.0
H997 H 0.6785 0.91037 0.88824 0.0
H998 H 0.69985 0.90125 0.98204 0.0
H999 H 0.71051 0.91738 0.0282 0.0
H1000 H 0.7843 0.97527 0.99728 0.0
H1001 H 0.77388 0.95981 0.95083 0.0
C1002 C 0.78156 0.84367 0.86327 0.0
C1003 C 0.80665 0.86219 0.85501 0.0
C1004 C 0.76104 0.85516 0.87611 0.0
C1005 C 0.7654 0.88528 0.88123 0.0
C1006 C 0.79051 0.90375 0.87322 0.0
C1007 C 0.81085 0.89237 0.85999 0.0
C1008 C 0.74384 0.89759 0.89505 0.0
C1009 C 0.74938 0.90878 0.92067 0.0
C1010 C 0.7178 0.89769 0.88345 0.0
C1011 C 0.71094 0.88662 0.85623 0.0
C1012 C 0.7273 0.89853 0.83315 0.0
C1013 C 0.72077 0.88785 0.80759 0.0
C1014 C 0.69781 0.86543 0.80481 0.0
C1015 C 0.68128 0.85368 0.82757 0.0
C1016 C 0.68774 0.86425 0.85319 0.0
C1017 C 0.67139 0.97921 0.9551 0.0
C1018 C 0.64391 0.9645 0.95913 0.0
C1019 C 0.69076 0.96512 0.94346 0.0
C1020 C 0.6832 0.93589 0.93583 0.0
C1021 C 0.65578 0.92111 0.93986 0.0
C1022 C 0.63635 0.93523 0.95144 0.0
C1023 C 0.70381 0.92116 0.92303 0.0
C1024 C 0.69812 0.90942 0.8976 0.0
C1025 C 0.72958 0.92012 0.93501 0.0
C1026 C 0.73594 0.92957 0.9629 0.0
C1027 C 0.71823 0.91761 0.98504 0.0
C1028 C 0.72426 0.9266 0.01127 0.0
C1029 C 0.74803 0.94739 0.01566 0.0
C1030 C 0.76587 0.95919 0.99384 0.0
C1031 C 0.75993 0.9503 0.96755 0.0
H1032 H 0.75267 0.95431 0.03599 0.0
H1033 H 0.69278 0.85721 0.785 0.0
H1034 H 0.75695 0.15076 0.3994 0.0
H1035 H 0.79536 0.13132 0.41981 0.0
H1036 H 0.83515 0.13847 0.34066 0.0
H1037 H 0.79646 0.15727 0.32011 0.0
H1038 H 0.83992 0.08836 0.36684 0.0
H1039 H 0.85477 0.19011 0.39008 0.0
H1040 H 0.84204 0.23363 0.40955 0.0
H1041 H 0.83016 0.18642 0.48843 0.0
H1042 H 0.84249 0.14248 0.46934 0.0
H1043 H 0.97294 0.07504 0.40904 0.0
H1044 H 0.93466 0.09613 0.39063 0.0
H1045 H 0.8948 0.08273 0.46996 0.0
H1046 H 0.9332 0.06193 0.48866 0.0
H1047 H 0.8896 0.13535 0.44475 0.0
H1048 H 0.87524 0.03413 0.42209 0.0
H1049 H 0.88801 0.99036 0.40313 0.0
H1050 H 0.89861 0.03619 0.3236 0.0
H1051 H 0.88633 0.08042 0.34218 0.0
C1052 C 0.77393 0.14823 0.38639 0.0
C1053 C 0.77377 0.15566 0.35818 0.0
C1054 C 0.79592 0.1372 0.39808 0.0
C1055 C 0.81844 0.13391 0.38187 0.0
C1056 C 0.81806 0.14084 0.35361 0.0
C1057 C 0.79593 0.15154 0.34187 0.0
C1058 C 0.84241 0.12324 0.39427 0.0
C1059 C 0.851 0.09893 0.38362 0.0
C1060 C 0.85648 0.13644 0.41669 0.0
C1061 C 0.84931 0.16293 0.42823 0.0
C1062 C 0.84928 0.18896 0.41154 0.0
C1063 C 0.84216 0.21371 0.42251 0.0
C1064 C 0.83523 0.21277 0.4502 0.0
C1065 C 0.8355 0.18711 0.46699 0.0
C1066 C 0.84257 0.16229 0.45611 0.0
C1067 C 0.95617 0.07681 0.42266 0.0
C1068 C 0.95603 0.06655 0.45028 0.0
C1069 C 0.93424 0.08877 0.41206 0.0
C1070 C 0.91162 0.09049 0.42881 0.0
C1071 C 0.91198 0.08149 0.45664 0.0
C1072 C 0.93396 0.0696 0.46729 0.0
C1073 C 0.88723 0.10077 0.41708 0.0
C1074 C 0.87853 0.12488 0.42792 0.0
C1075 C 0.87301 0.08736 0.39487 0.0
C1076 C 0.88012 0.06068 0.38358 0.0
C1077 C 0.88048 0.03495 0.4006 0.0
C1078 C 0.88761 0.01005 0.38991 0.0
C1079 C 0.89417 0.01052 0.36219 0.0
C1080 C 0.89355 0.03587 0.34507 0.0
C1081 C 0.8865 0.06085 0.35567 0.0
H1082 H 0.89969 0.99122 0.35395 0.0
H1083 H 0.82971 0.23195 0.45865 0.0
H1084 H 0.32229 0.60717 0.16426 0.0
H1085 H 0.2787 0.58472 0.14398 0.0
H1086 H 0.24711 0.66426 0.15414 0.0
H1087 H 0.29096 0.68712 0.17372 0.0
H1088 H 0.21248 0.6013 0.17384 0.0
H1089 H 0.26113 0.66213 0.09709 0.0
H1090 H 0.30164 0.67892 0.06662 0.0
H1091 H 0.29731 0.58996 0.04364 0.0
H1092 H 0.25703 0.57258 0.07434 0.0
H1093 H 0.08914 0.55843 0.10486 0.0
H1094 H 0.13153 0.58866 0.12054 0.0
H1095 H 0.17927 0.53674 0.07727 0.0
H1096 H 0.13694 0.50815 0.05992 0.0
H1097 H 0.20622 0.58846 0.07452 0.0
H1098 H 0.16166 0.52517 0.14968 0.0
H1099 H 0.12367 0.50333 0.1819 0.0
H1100 H 0.12278 0.58916 0.21033 0.0
H1101 H 0.16055 0.61157 0.17803 0.0
C1102 C 0.30597 0.61975 0.16221 0.0
C1103 C 0.30983 0.6488 0.17045 0.0
C1104 C 0.28122 0.607 0.15062 0.0
C1105 C 0.25988 0.62294 0.14758 0.0
C1106 C 0.26345 0.65171 0.15634 0.0
C1107 C 0.28841 0.66471 0.1674 0.0
C1108 C 0.23386 0.60952 0.13509 0.0
C1109 C 0.21084 0.59884 0.15208 0.0
C1110 C 0.23227 0.60551 0.1069 0.0
C1111 C 0.25626 0.61602 0.08822 0.0
C1112 C 0.26898 0.64611 0.08574 0.0
C1113 C 0.29187 0.65574 0.06839 0.0
C1114 C 0.30209 0.63551 0.05326 0.0
C1115 C 0.28939 0.60561 0.05539 0.0
C1116 C 0.26653 0.59586 0.07275 0.0
C1117 C 0.10878 0.55393 0.09838 0.0
C1118 C 0.10993 0.53103 0.08131 0.0
C1119 C 0.13298 0.57096 0.10755 0.0
C1120 C 0.1587 0.56445 0.10084 0.0
C1121 C 0.15978 0.54222 0.08287 0.0
C1122 C 0.1356 0.52587 0.07295 0.0
C1123 C 0.18436 0.57994 0.11324 0.0
C1124 C 0.2075 0.59098 0.09628 0.0
C1125 C 0.18628 0.58353 0.14166 0.0
C1126 C 0.16373 0.57008 0.16125 0.0
C1127 C 0.15325 0.5394 0.1627 0.0
C1128 C 0.13177 0.52693 0.18098 0.0
C1129 C 0.12077 0.54486 0.19809 0.0
C1130 C 0.13129 0.57531 0.19703 0.0
C1131 C 0.15275 0.5879 0.17876 0.0
H1132 H 0.10413 0.53516 0.21223 0.0
H1133 H 0.3198 0.64301 0.03983 0.0
H1134 H 0.33319 0.36802 0.74238 0.0
H1135 H 0.37364 0.38486 0.71234 0.0
H1136 H 0.3253 0.42965 0.65703 0.0
H1137 H 0.28497 0.41324 0.68697 0.0
H1138 H 0.36062 0.3976 0.63069 0.0
H1139 H 0.36384 0.46904 0.69897 0.0
H1140 H 0.36398 0.48455 0.74599 0.0
H1141 H 0.4364 0.44852 0.76258 0.0
H1142 H 0.43646 0.43242 0.71573 0.0
H1143 H 0.46325 0.50233 0.55603 0.0
H1144 H 0.4237 0.47324 0.58182 0.0
H1145 H 0.47807 0.44685 0.64305 0.0
H1146 H 0.51748 0.47728 0.61784 0.0
H1147 H 0.44005 0.46576 0.66675 0.0
H1148 H 0.43994 0.39726 0.59832 0.0
H1149 H 0.44047 0.38069 0.55172 0.0
H1150 H 0.36389 0.4085 0.53562 0.0
H1151 H 0.36307 0.42562 0.58201 0.0
C1152 C 0.33119 0.38119 0.72365 0.0
C1153 C 0.30586 0.38889 0.71688 0.0
C1154 C 0.35423 0.39079 0.70657 0.0
C1155 C 0.35236 0.40842 0.68249 0.0
C1156 C 0.32703 0.41582 0.67542 0.0
C1157 C 0.30402 0.40644 0.69261 0.0
C1158 C 0.37714 0.42051 0.66541 0.0
C1159 C 0.37798 0.41268 0.63839 0.0
C1160 C 0.39996 0.43949 0.67583 0.0
C1161 C 0.39996 0.44923 0.70396 0.0
C1162 C 0.37965 0.46419 0.71272 0.0
C1163 C 0.37972 0.47313 0.73932 0.0
C1164 C 0.40014 0.46744 0.75729 0.0
C1165 C 0.42057 0.45286 0.74866 0.0
C1166 C 0.42057 0.44384 0.72208 0.0
C1167 C 0.46674 0.48983 0.57473 0.0
C1168 C 0.49331 0.49205 0.58516 0.0
C1169 C 0.44414 0.47309 0.58942 0.0
C1170 C 0.44787 0.45765 0.61436 0.0
C1171 C 0.47465 0.45868 0.62396 0.0
C1172 C 0.49712 0.47594 0.6096 0.0
C1173 C 0.42385 0.44289 0.63174 0.0
C1174 C 0.423 0.45036 0.65891 0.0
C1175 C 0.40121 0.42333 0.62147 0.0
C1176 C 0.40156 0.41295 0.59358 0.0
C1177 C 0.42331 0.40004 0.58478 0.0
C1178 C 0.42364 0.39052 0.55841 0.0
C1179 C 0.40226 0.3936 0.5407 0.0
C1180 C 0.38045 0.40614 0.54935 0.0
C1181 C 0.38002 0.41573 0.57569 0.0
H1182 H 0.40256 0.38621 0.5203 0.0
H1183 H 0.40017 0.47439 0.77788 0.0
H1184 H 0.84284 0.7202 0.89 0.0
H1185 H 0.87124 0.68833 0.91297 0.0
H1186 H 0.93893 0.72573 0.85774 0.0
H1187 H 0.9102 0.75719 0.83433 0.0
H1188 H 0.93501 0.66742 0.86525 0.0
H1189 H 0.93774 0.74667 0.92292 0.0
H1190 H 0.91911 0.78146 0.95023 0.0
H1191 H 0.87635 0.70872 0.00284 0.0
H1192 H 0.89438 0.67344 0.97557 0.0
H1193 H 0.02641 0.59658 0.94769 0.0
H1194 H 0.00686 0.636 0.92365 0.0
H1195 H 0.93112 0.60714 0.97001 0.0
H1196 H 0.95058 0.56858 0.9944 0.0
H1197 H 0.94465 0.66588 0.9657 0.0
H1198 H 0.9441 0.58649 0.90575 0.0
H1199 H 0.96778 0.55457 0.87988 0.0
H1200 H 0.00887 0.63026 0.8299 0.0
H1201 H 0.98711 0.66304 0.85678 0.0
C1202 C 0.86373 0.72144 0.88271 0.0
C1203 C 0.87435 0.74091 0.86033 0.0
C1204 C 0.88 0.70339 0.89591 0.0
C1205 C 0.90736 0.70488 0.88729 0.0
C1206 C 0.91791 0.72418 0.86475 0.0
C1207 C 0.90157 0.74214 0.85145 0.0
C1208 C 0.92489 0.68635 0.90194 0.0
C1209 C 0.93747 0.66738 0.88717 0.0
C1210 C 0.92808 0.68625 0.93054 0.0
C1211 C 0.91723 0.7074 0.94705 0.0
C1212 C 0.9242 0.73807 0.94018 0.0
C1213 C 0.91376 0.75788 0.95568 0.0
C1214 C 0.89651 0.7473 0.97822 0.0
C1215 C 0.88969 0.71688 0.98535 0.0
C1216 C 0.90003 0.69697 0.9699 0.0
C1217 C 0.00567 0.59881 0.95284 0.0
C1218 C 0.99 0.57931 0.97283 0.0
C1219 C 0.99451 0.6213 0.93908 0.0
C1220 C 0.96739 0.6243 0.94481 0.0
C1221 C 0.95207 0.6053 0.96522 0.0
C1222 C 0.96323 0.58311 0.97908 0.0
C1223 C 0.95418 0.64637 0.92916 0.0
C1224 C 0.94239 0.66607 0.94375 0.0
C1225 C 0.95203 0.6473 0.90037 0.0
C1226 C 0.96423 0.62732 0.88358 0.0
C1227 C 0.95838 0.59642 0.88943 0.0
C1228 C 0.97146 0.57814 0.87457 0.0
C1229 C 0.98956 0.59029 0.85308 0.0
C1230 C 0.99483 0.62085 0.84655 0.0
C1231 C 0.98232 0.63933 0.86175 0.0
H1232 H 0.99955 0.57604 0.84154 0.0
H1233 H 0.88846 0.76268 0.99019 0.0
H1234 H 0.39273 0.71168 0.1267 0.0
H1235 H 0.42031 0.75662 0.10354 0.0
H1236 H 0.42332 0.80059 0.1784 0.0
H1237 H 0.39634 0.75531 0.2019 0.0
H1238 H 0.4063 0.8312 0.12346 0.0
H1239 H 0.47644 0.78533 0.16806 0.0
H1240 H 0.49933 0.74317 0.17939 0.0
H1241 H 0.51523 0.73645 0.09431 0.0
H1242 H 0.492 0.77829 0.08247 0.0
H1243 H 0.50296 0.96044 0.08359 0.0
H1244 H 0.47769 0.9162 0.10905 0.0
H1245 H 0.49962 0.86184 0.04768 0.0
H1246 H 0.5255 0.906 0.02226 0.0
H1247 H 0.50386 0.83599 0.09661 0.0
H1248 H 0.43575 0.87848 0.04999 0.0
H1249 H 0.41019 0.9172 0.03432 0.0
H1250 H 0.38737 0.92701 0.11709 0.0
H1251 H 0.41319 0.88863 0.13331 0.0
C1252 C 0.39926 0.73099 0.13814 0.0
C1253 C 0.39249 0.73022 0.16599 0.0
C1254 C 0.415 0.75651 0.12496 0.0
C1255 C 0.42377 0.78174 0.13935 0.0
C1256 C 0.41667 0.78123 0.16706 0.0
C1257 C 0.40141 0.75547 0.18041 0.0
C1258 C 0.44045 0.8086 0.12528 0.0
C1259 C 0.42777 0.83259 0.11799 0.0
C1260 C 0.46805 0.80966 0.11727 0.0
C1261 C 0.48222 0.78471 0.12437 0.0
C1262 C 0.48457 0.77467 0.15176 0.0
C1263 C 0.49766 0.75088 0.15828 0.0
C1264 C 0.50866 0.73709 0.13758 0.0
C1265 C 0.50667 0.74713 0.11032 0.0
C1266 C 0.49356 0.77089 0.1037 0.0
C1267 C 0.50251 0.93909 0.07548 0.0
C1268 C 0.51617 0.93681 0.05077 0.0
C1269 C 0.48795 0.91381 0.09005 0.0
C1270 C 0.48642 0.88574 0.08008 0.0
C1271 C 0.5005 0.88328 0.05574 0.0
C1272 C 0.51523 0.90857 0.0412 0.0
C1273 C 0.46987 0.85904 0.09494 0.0
C1274 C 0.48247 0.83491 0.10225 0.0
C1275 C 0.44197 0.85759 0.10244 0.0
C1276 C 0.42665 0.88091 0.09288 0.0
C1277 C 0.42552 0.8891 0.06488 0.0
C1278 C 0.41095 0.91095 0.05589 0.0
C1279 C 0.39722 0.92459 0.07469 0.0
C1280 C 0.39806 0.91645 0.10255 0.0
C1281 C 0.41265 0.89464 0.11166 0.0
H1282 H 0.38585 0.94138 0.06764 0.0
H1283 H 0.5188 0.71867 0.14267 0.0
H1284 H 0.2229 0.27856 0.72265 0.0
H1285 H 0.20456 0.23383 0.6996 0.0
H1286 H 0.12555 0.25986 0.69408 0.0
H1287 H 0.14376 0.3046 0.71739 0.0
H1288 H 0.12015 0.20061 0.70651 0.0
H1289 H 0.16968 0.273 0.64002 0.0
H1290 H 0.20982 0.30944 0.62164 0.0
H1291 H 0.25803 0.24131 0.62251 0.0
H1292 H 0.21827 0.20454 0.64128 0.0
H1293 H 0.06882 0.10514 0.60249 0.0
H1294 H 0.0834 0.14781 0.62956 0.0
H1295 H 0.16551 0.12929 0.6325 0.0
H1296 H 0.15131 0.08732 0.60474 0.0
H1297 H 0.168 0.18569 0.62113 0.0
H1298 H 0.11886 0.11325 0.68817 0.0
H1299 H 0.07895 0.07677 0.70698 0.0
H1300 H 0.03022 0.14446 0.70531 0.0
H1301 H 0.06975 0.18128 0.68615 0.0
C1302 C 0.2016 0.27468 0.71659 0.0
C1303 C 0.18483 0.29519 0.72152 0.0
C1304 C 0.19115 0.24914 0.70346 0.0
C1305 C 0.16384 0.24382 0.69469 0.0
C1306 C 0.1467 0.2636 0.70062 0.0
C1307 C 0.15711 0.2891 0.71394 0.0
C1308 C 0.15361 0.21831 0.67831 0.0
C1309 C 0.13038 0.19747 0.68767 0.0
C1310 C 0.16725 0.21406 0.65395 0.0
C1311 C 0.19106 0.23607 0.64226 0.0
C1312 C 0.18889 0.26583 0.63644 0.0
C1313 C 0.21157 0.28654 0.62594 0.0
C1314 C 0.23647 0.27771 0.62096 0.0
C1315 C 0.23873 0.24813 0.62639 0.0
C1316 C 0.21612 0.22733 0.63694 0.0
C1317 C 0.08994 0.11011 0.60904 0.0
C1318 C 0.10893 0.0929 0.6015 0.0
C1319 C 0.09822 0.13442 0.6246 0.0
C1320 C 0.1255 0.14158 0.63334 0.0
C1321 C 0.14438 0.12424 0.62596 0.0
C1322 C 0.13622 0.10021 0.61014 0.0
C1323 C 0.13472 0.1676 0.6495 0.0
C1324 C 0.15773 0.18869 0.64 0.0
C1325 C 0.12089 0.172 0.67372 0.0
C1326 C 0.09719 0.14995 0.6855 0.0
C1327 C 0.09958 0.12031 0.69165 0.0
C1328 C 0.07703 0.09958 0.7024 0.0
C1329 C 0.05204 0.10828 0.70727 0.0
C1330 C 0.04958 0.13775 0.7015 0.0
C1331 C 0.07205 0.15856 0.69072 0.0
H1332 H 0.03461 0.09219 0.71558 0.0
H1333 H 0.25401 0.29378 0.61285 0.0
H1334 H 0.7195 0.27289 0.38699 0.0
H1335 H 0.7026 0.31625 0.40113 0.0
H1336 H 0.61919 0.26728 0.40002 0.0
H1337 H 0.63601 0.22424 0.38512 0.0
H1338 H 0.6218 0.3231 0.37948 0.0
H1339 H 0.65488 0.27588 0.45982 0.0
H1340 H 0.68921 0.25541 0.48735 0.0
H1341 H 0.74341 0.34039 0.48091 0.0
H1342 H 0.70953 0.36127 0.45303 0.0
H1343 H 0.56071 0.4156 0.46259 0.0
H1344 H 0.57639 0.37421 0.44275 0.0
H1345 H 0.66054 0.42044 0.44675 0.0
H1346 H 0.64514 0.46123 0.46717 0.0
H1347 H 0.65713 0.36584 0.46519 0.0
H1348 H 0.62455 0.41373 0.38561 0.0
H1349 H 0.59084 0.43477 0.35768 0.0
H1350 H 0.53658 0.34985 0.36196 0.0
H1351 H 0.56981 0.32839 0.39025 0.0
C1352 C 0.69755 0.27163 0.38932 0.0
C1353 C 0.67902 0.24541 0.38454 0.0
C1354 C 0.68791 0.29628 0.3976 0.0
C1355 C 0.65961 0.29492 0.40193 0.0
C1356 C 0.64108 0.2689 0.39673 0.0
C1357 C 0.6507 0.24432 0.38826 0.0
C1358 C 0.64937 0.32017 0.41283 0.0
C1359 C 0.62929 0.33226 0.39837 0.0
C1360 C 0.65951 0.33253 0.4372 0.0
C1361 C 0.67978 0.32005 0.45414 0.0
C1362 C 0.67419 0.29015 0.46414 0.0
C1363 C 0.69356 0.27848 0.47982 0.0
C1364 C 0.7185 0.29657 0.48582 0.0
C1365 C 0.72409 0.3264 0.47622 0.0
C1366 C 0.70481 0.33816 0.4605 0.0
C1367 C 0.58252 0.41693 0.45912 0.0
C1368 C 0.60167 0.4416 0.46659 0.0
C1369 C 0.59147 0.39335 0.44765 0.0
C1370 C 0.61968 0.39427 0.44304 0.0
C1371 C 0.63871 0.41911 0.45018 0.0
C1372 C 0.62983 0.44246 0.46186 0.0
C1373 C 0.62966 0.36903 0.43176 0.0
C1374 C 0.64965 0.35681 0.44623 0.0
C1375 C 0.61951 0.35671 0.40736 0.0
C1376 C 0.59954 0.36954 0.39028 0.0
C1377 C 0.60533 0.3996 0.38077 0.0
C1378 C 0.58633 0.41159 0.36485 0.0
C1379 C 0.56155 0.39368 0.35811 0.0
C1380 C 0.55576 0.36371 0.36723 0.0
C1381 C 0.57468 0.35162 0.38319 0.0
H1382 H 0.54686 0.403 0.34578 0.0
H1383 H 0.73347 0.2875 0.49796 0.0
loop_
_geom_bond_atom_site_label_1
_geom_bond_atom_site_label_2
_geom_bond_distance
_geom_bond_site_symmetry_2
_ccdc_geom_bond_type
H0 C7 0.929 . S
H1 C10 0.930 . S
H2 C12 0.929 . S
H3 C4 0.969 . S
C4 H3 0.969 . S
C4 O5 1.550 . S
C4 H6 0.973 . S
O5 C4 1.550 . S
O5 C11 1.412 . S
H6 C4 0.973 . S
C7 H0 0.929 . S
C7 C8 1.400 . S
C7 C9 1.364 . S
C8 C7 1.400 . S
C8 C12 1.377 . S
C9 C7 1.364 . S
C9 C10 1.374 . S
C10 H1 0.930 . S
C10 C9 1.374 . S
C10 C11 1.383 . S
C11 O5 1.412 . S
C11 C10 1.383 . S
C11 C12 1.394 . S
C12 H2 0.929 . S
C12 C8 1.377 . S
C12 C11 1.394 . S
H13 C20 0.929 . S
H14 C23 0.930 . S
H15 C25 0.929 . S
H16 C17 0.969 . S
C17 H16 0.969 . S
C17 O18 1.550 . S
C17 H19 0.973 . S
O18 C17 1.550 . S
O18 C24 1.412 . S
H19 C17 0.973 . S
C20 H13 0.929 . S
C20 C21 1.400 . S
C20 C22 1.364 . S
C21 C20 1.400 . S
C21 C25 1.377 . S
C22 C20 1.364 . S
C22 C23 1.374 . S
C23 H14 0.930 . S
C23 C22 1.374 . S
C23 C24 1.383 . S
C24 O18 1.412 . S
C24 C23 1.383 . S
C24 C25 1.394 . S
C25 H15 0.929 . S
C25 C21 1.377 . S
C25 C24 1.394 . S
H26 C33 0.929 . S
H27 C36 0.930 . S
H28 C38 0.929 . S
H29 C30 0.969 . S
C30 H29 0.969 . S
C30 O31 1.550 . S
C30 H32 0.973 . S
O31 C30 1.550 . S
O31 C37 1.412 . S
H32 C30 0.973 . S
C33 H26 0.929 . S
C33 C34 1.400 . S
C33 C35 1.364 . S
C34 C33 1.400 . S
C34 C38 1.377 . S
C35 C33 1.364 . S
C35 C36 1.374 . S
C36 H27 0.930 . S
C36 C35 1.374 . S
C36 C37 1.383 . S
C37 O31 1.412 . S
C37 C36 1.383 . S
C37 C38 1.394 . S
C38 H28 0.929 . S
C38 C34 1.377 . S
C38 C37 1.394 . S
H39 C46 0.929 . S
H40 C49 0.930 . S
H41 C51 0.929 . S
H42 C43 0.969 . S
C43 H42 0.969 . S
C43 O44 1.550 . S
C43 H45 0.973 . S
O44 C43 1.550 . S
O44 C50 1.412 . S
H45 C43 0.973 . S
C46 H39 0.929 . S
C46 C47 1.400 . S
C46 C48 1.364 . S
C47 C46 1.400 . S
C47 C51 1.377 . S
C48 C46 1.364 . S
C48 C49 1.374 . S
C49 H40 0.930 . S
C49 C48 1.374 . S
C49 C50 1.383 . S
C50 O44 1.412 . S
C50 C49 1.383 . S
C50 C51 1.394 . S
C51 H41 0.929 . S
C51 C47 1.377 . S
C51 C50 1.394 . S
H52 C59 0.929 . S
H53 C62 0.930 . S
H54 C64 0.929 . S
H55 C56 0.969 . S
C56 H55 0.969 . S
C56 O57 1.550 . S
C56 H58 0.973 . S
O57 C56 1.550 . S
O57 C63 1.412 . S
H58 C56 0.973 . S
C59 H52 0.929 . S
C59 C60 1.400 . S
C59 C61 1.364 . S
C60 C59 1.400 . S
C60 C64 1.377 . S
C61 C59 1.364 . S
C61 C62 1.374 . S
C62 H53 0.930 . S
C62 C61 1.374 . S
C62 C63 1.383 . S
C63 O57 1.412 . S
C63 C62 1.383 . S
C63 C64 1.394 . S
C64 H54 0.929 . S
C64 C60 1.377 . S
C64 C63 1.394 . S
H65 C72 0.929 . S
H66 C75 0.930 . S
H67 C77 0.929 . S
H68 C69 0.969 . S
C69 H68 0.969 . S
C69 O70 1.550 . S
C69 H71 0.973 . S
O70 C69 1.550 . S
O70 C76 1.412 . S
H71 C69 0.973 . S
C72 H65 0.929 . S
C72 C73 1.400 . S
C72 C74 1.364 . S
C73 C72 1.400 . S
C73 C77 1.377 . S
C74 C72 1.364 . S
C74 C75 1.374 . S
C75 H66 0.930 . S
C75 C74 1.374 . S
C75 C76 1.383 . S
C76 O70 1.412 . S
C76 C75 1.383 . S
C76 C77 1.394 . S
C77 H67 0.929 . S
C77 C73 1.377 . S
C77 C76 1.394 . S
H78 C85 0.929 . S
H79 C88 0.930 . S
H80 C90 0.929 . S
H81 C82 0.969 . S
C82 H81 0.969 . S
C82 O83 1.550 . S
C82 H84 0.973 . S
O83 C82 1.550 . S
O83 C89 1.412 . S
H84 C82 0.973 . S
C85 H78 0.929 . S
C85 C86 1.400 . S
C85 C87 1.364 . S
C86 C85 1.400 . S
C86 C90 1.377 . S
C87 C85 1.364 . S
C87 C88 1.374 . S
C88 H79 0.930 . S
C88 C87 1.374 . S
C88 C89 1.383 . S
C89 O83 1.412 . S
C89 C88 1.383 . S
C89 C90 1.394 . S
C90 H80 0.929 . S
C90 C86 1.377 . S
C90 C89 1.394 . S
H91 C98 0.929 . S
H92 C101 0.930 . S
H93 C103 0.929 . S
H94 C95 0.969 . S
C95 H94 0.969 . S
C95 O96 1.550 . S
C95 H97 0.973 . S
O96 C95 1.550 . S
O96 C102 1.412 . S
H97 C95 0.973 . S
C98 H91 0.929 . S
C98 C99 1.400 . S
C98 C100 1.364 . S
C99 C98 1.400 . S
C99 C103 1.377 . S
C100 C98 1.364 . S
C100 C101 1.374 . S
C101 H92 0.930 . S
C101 C100 1.374 . S
C101 C102 1.383 . S
C102 O96 1.412 . S
C102 C101 1.383 . S
C102 C103 1.394 . S
C103 H93 0.929 . S
C103 C99 1.377 . S
C103 C102 1.394 . S
Zn104 O110 1.969 . S
Zn104 O111 1.965 1_545 S
Zn104 O115 2.024 . S
Zn104 O120 1.969 . S
Zn105 O112 1.969 1_545 S
Zn105 O118 1.969 . S
Zn105 O119 1.965 1_655 S
Zn105 O121 2.024 1_545 S
C106 O107 1.229 . S
C106 O115 1.058 . S
O107 C106 1.229 . S
C108 O109 1.229 . S
C108 O121 1.058 . S
O109 C108 1.229 . S
O110 Zn104 1.969 . S
O110 C113 1.267 1_545 S
O111 Zn104 1.965 1_565 S
O111 C122 1.242 1_455 S
O112 Zn105 1.969 1_565 S
O112 C122 1.272 . S
C113 O110 1.267 1_565 S
C113 O114 1.228 . S
O114 C113 1.228 . S
O115 Zn104 2.024 . S
O115 C106 1.058 . S
C116 O117 1.228 . S
C116 O118 1.267 . S
O117 C116 1.228 . S
O118 Zn105 1.969 . S
O118 C116 1.267 . S
O119 Zn105 1.965 1_455 S
O119 C123 1.260 . S
O120 Zn104 1.969 . S
O120 C123 1.258 . S
O121 Zn105 2.024 1_565 S
O121 C108 1.058 . S
C122 O111 1.242 1_655 S
C122 O112 1.272 . S
C123 O119 1.260 . S
C123 O120 1.258 . S
Zn124 O130 1.969 . S
Zn124 O131 1.965 1_565 S
Zn124 O135 2.024 . S
Zn124 O140 1.969 1_556 S
Zn125 O132 1.969 . S
Zn125 O138 1.969 . S
Zn125 O139 1.965 . S
Zn125 O141 2.024 . S
C126 O127 1.229 . S
C126 O135 1.058 . S
O127 C126 1.229 . S
C128 O129 1.229 . S
C128 O141 1.058 . S
O129 C128 1.229 . S
O130 Zn124 1.969 . S
O130 C133 1.267 . S
O131 Zn124 1.965 1_545 S
O131 C142 1.260 . S
O132 Zn125 1.969 . S
O132 C142 1.258 1_554 S
C133 O130 1.267 . S
C133 O134 1.228 . S
O134 C133 1.228 . S
O135 Zn124 2.024 . S
O135 C126 1.058 . S
C136 O137 1.228 . S
C136 O138 1.267 . S
O137 C136 1.228 . S
O138 Zn125 1.969 . S
O138 C136 1.267 . S
O139 Zn125 1.965 . S
O139 C143 1.260 1_545 S
O140 Zn124 1.969 1_554 S
O140 C143 1.258 . S
O141 Zn125 2.024 . S
O141 C128 1.058 . S
C142 O131 1.260 . S
C142 O132 1.258 1_556 S
C143 O139 1.260 1_565 S
C143 O140 1.258 . S
Zn144 O150 1.969 . S
Zn144 O151 1.965 . S
Zn144 O155 2.024 . S
Zn144 O160 1.969 . S
Zn145 O152 1.969 . S
Zn145 O158 1.969 . S
Zn145 O159 1.965 . S
Zn145 O161 2.024 . S
C146 O147 1.229 . S
C146 O155 1.058 . S
O147 C146 1.229 . S
C148 O149 1.229 . S
C148 O161 1.058 . S
O149 C148 1.229 . S
O150 Zn144 1.969 . S
O150 C153 1.267 . S
O151 Zn144 1.965 . S
O151 C162 1.260 . S
O152 Zn145 1.969 . S
O152 C162 1.258 . S
C153 O150 1.267 . S
C153 O154 1.228 . S
O154 C153 1.228 . S
O155 Zn144 2.024 . S
O155 C146 1.058 . S
C156 O157 1.228 . S
C156 O158 1.267 . S
O157 C156 1.228 . S
O158 Zn145 1.969 . S
O158 C156 1.267 . S
O159 Zn145 1.965 . S
O159 C163 1.260 . S
O160 Zn144 1.969 . S
O160 C163 1.258 . S
O161 Zn145 2.024 . S
O161 C148 1.058 . S
C162 O151 1.260 . S
C162 O152 1.258 . S
C163 O159 1.260 . S
C163 O160 1.258 . S
Zn164 O170 1.969 . S
Zn164 O171 1.965 1_556 S
Zn164 O175 2.024 1_456 S
Zn164 O180 1.969 . S
Zn165 O172 1.969 . S
Zn165 O178 1.969 . S
Zn165 O179 1.965 . S
Zn165 O181 2.024 . S
C166 O167 1.229 . S
C166 O175 1.058 1_556 S
O167 C166 1.229 . S
C168 O169 1.229 . S
C168 O181 1.058 . S
O169 C168 1.229 . S
O170 Zn164 1.969 . S
O170 C173 1.267 1_455 S
O171 Zn164 1.965 1_554 S
O171 C182 1.260 . S
O172 Zn165 1.969 . S
O172 C182 1.258 . S
C173 O170 1.267 1_655 S
C173 O174 1.228 . S
O174 C173 1.228 . S
O175 Zn164 2.024 1_654 S
O175 C166 1.058 1_554 S
C176 O177 1.228 . S
C176 O178 1.267 . S
O177 C176 1.228 . S
O178 Zn165 1.969 . S
O178 C176 1.267 . S
O179 Zn165 1.965 . S
O179 C183 1.260 1_554 S
O180 Zn164 1.969 . S
O180 C183 1.258 . S
O181 Zn165 2.024 . S
O181 C168 1.058 . S
C182 O171 1.260 . S
C182 O172 1.258 . S
C183 O179 1.260 1_556 S
C183 O180 1.258 . S
H184 C202 0.951 . S
H185 C204 0.951 . S
H186 C206 0.950 . S
H187 C207 0.950 . S
H188 C209 0.950 . S
H189 C212 0.950 . S
H190 C213 0.950 . S
H191 C215 0.950 . S
H192 C216 0.950 . S
H193 C217 0.951 . S
H194 C219 0.951 . S
H195 C221 0.950 . S
H196 C222 0.950 . S
H197 C224 0.950 . S
H198 C227 0.950 . S
H199 C228 0.950 . S
H200 C230 0.950 . S
H201 C231 0.950 . S
C202 H184 0.951 . S
C202 C203 1.366 . S
C202 C204 1.388 . S
C203 C202 1.366 . S
C203 C207 1.385 . S
C204 H185 0.951 . S
C204 C202 1.388 . S
C204 C205 1.366 . S
C205 C204 1.366 . S
C205 C206 1.414 . S
C205 C208 1.499 . S
C206 H186 0.950 . S
C206 C205 1.414 . S
C206 C207 1.374 . S
C207 H187 0.950 . S
C207 C203 1.385 . S
C207 C206 1.374 . S
C208 C205 1.499 . S
C208 C209 1.373 . S
C208 C210 1.389 . S
C209 H188 0.950 . S
C209 C208 1.373 . S
C209 C225 1.377 . S
C210 C208 1.389 . S
C210 C211 1.524 . S
C210 C224 1.377 . S
C211 C210 1.524 . S
C211 C212 1.397 . S
C211 C216 1.363 . S
C212 H189 0.950 . S
C212 C211 1.397 . S
C212 C213 1.334 . S
C213 H190 0.950 . S
C213 C212 1.334 . S
C213 C214 1.287 . S
C214 C213 1.287 . S
C214 C215 1.524 . S
C214 H233 0.913 . S
C215 H191 0.950 . S
C215 C214 1.524 . S
C215 C216 1.415 . S
C216 H192 0.950 . S
C216 C211 1.363 . S
C216 C215 1.415 . S
C217 H193 0.951 . S
C217 C218 1.366 . S
C217 C219 1.388 . S
C218 C217 1.366 . S
C218 C222 1.385 . S
C219 H194 0.951 . S
C219 C217 1.388 . S
C219 C220 1.366 . S
C220 C219 1.366 . S
C220 C221 1.414 . S
C220 C223 1.499 . S
C221 H195 0.950 . S
C221 C220 1.414 . S
C221 C222 1.374 . S
C222 H196 0.950 . S
C222 C218 1.385 . S
C222 C221 1.374 . S
C223 C220 1.499 . S
C223 C224 1.373 . S
C223 C225 1.389 . S
C224 H197 0.950 . S
C224 C210 1.377 . S
C224 C223 1.373 . S
C225 C209 1.377 . S
C225 C223 1.389 . S
C225 C226 1.524 . S
C226 C225 1.524 . S
C226 C227 1.397 . S
C226 C231 1.363 . S
C227 H198 0.950 . S
C227 C226 1.397 . S
C227 C228 1.334 . S
C228 H199 0.950 . S
C228 C227 1.334 . S
C228 C229 1.287 . S
C229 C228 1.287 . S
C229 C230 1.524 . S
C229 H232 0.999 . S
C230 H200 0.950 . S
C230 C229 1.524 . S
C230 C231 1.415 . S
C231 H201 0.950 . S
C231 C226 1.363 . S
C231 C230 1.415 . S
H232 C229 0.999 . S
H233 C214 0.913 . S
H234 C252 0.951 . S
H235 C254 0.951 . S
H236 C256 0.950 . S
H237 C257 0.950 . S
H238 C259 0.950 . S
H239 C262 0.950 . S
H240 C263 0.950 . S
H241 C265 0.950 . S
H242 C266 0.950 . S
H243 C267 0.951 . S
H244 C269 0.951 . S
H245 C271 0.950 . S
H246 C272 0.950 . S
H247 C274 0.950 . S
H248 C277 0.950 . S
H249 C278 0.950 . S
H250 C280 0.950 . S
H251 C281 0.950 . S
C252 H234 0.951 . S
C252 C253 1.366 . S
C252 C254 1.388 . S
C253 C252 1.366 . S
C253 C257 1.385 . S
C254 H235 0.951 . S
C254 C252 1.388 . S
C254 C255 1.366 . S
C255 C254 1.366 . S
C255 C256 1.414 . S
C255 C258 1.499 . S
C256 H236 0.950 . S
C256 C255 1.414 . S
C256 C257 1.374 . S
C257 H237 0.950 . S
C257 C253 1.385 . S
C257 C256 1.374 . S
C258 C255 1.499 . S
C258 C259 1.373 . S
C258 C260 1.389 . S
C259 H238 0.950 . S
C259 C258 1.373 . S
C259 C275 1.377 . S
C260 C258 1.389 . S
C260 C261 1.524 . S
C260 C274 1.377 . S
C261 C260 1.524 . S
C261 C262 1.397 . S
C261 C266 1.363 . S
C262 H239 0.950 . S
C262 C261 1.397 . S
C262 C263 1.334 . S
C263 H240 0.950 . S
C263 C262 1.334 . S
C263 C264 1.287 . S
C264 C263 1.287 . S
C264 C265 1.524 . S
C264 H283 0.913 . S
C265 H241 0.950 . S
C265 C264 1.524 . S
C265 C266 1.415 . S
C266 H242 0.950 . S
C266 C261 1.363 . S
C266 C265 1.415 . S
C267 H243 0.951 . S
C267 C268 1.366 . S
C267 C269 1.388 . S
C268 C267 1.366 . S
C268 C272 1.385 . S
C269 H244 0.951 . S
C269 C267 1.388 . S
C269 C270 1.366 . S
C270 C269 1.366 . S
C270 C271 1.414 . S
C270 C273 1.499 . S
C271 H245 0.950 . S
C271 C270 1.414 . S
C271 C272 1.374 . S
C272 H246 0.950 . S
C272 C268 1.385 . S
C272 C271 1.374 . S
C273 C270 1.499 . S
C273 C274 1.373 . S
C273 C275 1.389 . S
C274 H247 0.950 . S
C274 C260 1.377 . S
C274 C273 1.373 . S
C275 C259 1.377 . S
C275 C273 1.389 . S
C275 C276 1.524 . S
C276 C275 1.524 . S
C276 C277 1.397 . S
C276 C281 1.363 . S
C277 H248 0.950 . S
C277 C276 1.397 . S
C277 C278 1.334 1_565 S
C278 H249 0.950 . S
C278 C277 1.334 1_545 S
C278 C279 1.287 . S
C279 C278 1.287 . S
C279 C280 1.524 1_545 S
C279 H282 0.999 . S
C280 H250 0.950 . S
C280 C279 1.524 1_565 S
C280 C281 1.415 . S
C281 H251 0.950 . S
C281 C276 1.363 . S
C281 C280 1.415 . S
H282 C279 0.999 . S
H283 C264 0.913 . S
H284 C302 0.951 . S
H285 C304 0.951 . S
H286 C306 0.950 . S
H287 C307 0.950 . S
H288 C309 0.950 . S
H289 C312 0.950 . S
H290 C313 0.950 . S
H291 C315 0.950 . S
H292 C316 0.950 . S
H293 C317 0.951 . S
H294 C319 0.951 . S
H295 C321 0.950 . S
H296 C322 0.950 . S
H297 C324 0.950 . S
H298 C327 0.950 . S
H299 C328 0.950 . S
H300 C330 0.950 . S
H301 C331 0.950 . S
C302 H284 0.951 . S
C302 C303 1.366 . S
C302 C304 1.388 . S
C303 C302 1.366 . S
C303 C307 1.385 . S
C304 H285 0.951 . S
C304 C302 1.388 . S
C304 C305 1.366 . S
C305 C304 1.366 . S
C305 C306 1.414 . S
C305 C308 1.499 . S
C306 H286 0.950 . S
C306 C305 1.414 . S
C306 C307 1.374 . S
C307 H287 0.950 . S
C307 C303 1.385 . S
C307 C306 1.374 . S
C308 C305 1.499 . S
C308 C309 1.373 . S
C308 C310 1.389 . S
C309 H288 0.950 . S
C309 C308 1.373 . S
C309 C325 1.377 . S
C310 C308 1.389 . S
C310 C311 1.524 . S
C310 C324 1.377 . S
C311 C310 1.524 . S
C311 C312 1.397 . S
C311 C316 1.363 . S
C312 H289 0.950 . S
C312 C311 1.397 . S
C312 C313 1.334 . S
C313 H290 0.950 . S
C313 C312 1.334 . S
C313 C314 1.287 . S
C314 C313 1.287 . S
C314 C315 1.524 . S
C314 H333 0.913 . S
C315 H291 0.950 . S
C315 C314 1.524 . S
C315 C316 1.415 . S
C316 H292 0.950 . S
C316 C311 1.363 . S
C316 C315 1.415 . S
C317 H293 0.951 . S
C317 C318 1.366 . S
C317 C319 1.388 . S
C318 C317 1.366 . S
C318 C322 1.385 . S
C319 H294 0.951 . S
C319 C317 1.388 . S
C319 C320 1.366 . S
C320 C319 1.366 . S
C320 C321 1.414 . S
C320 C323 1.499 . S
C321 H295 0.950 . S
C321 C320 1.414 . S
C321 C322 1.374 . S
C322 H296 0.950 . S
C322 C318 1.385 . S
C322 C321 1.374 . S
C323 C320 1.499 . S
C323 C324 1.373 . S
C323 C325 1.389 . S
C324 H297 0.950 . S
C324 C310 1.377 . S
C324 C323 1.373 . S
C325 C309 1.377 . S
C325 C323 1.389 . S
C325 C326 1.524 . S
C326 C325 1.524 . S
C326 C327 1.397 . S
C326 C331 1.363 . S
C327 H298 0.950 . S
C327 C326 1.397 . S
C327 C328 1.334 . S
C328 H299 0.950 . S
C328 C327 1.334 . S
C328 C329 1.287 . S
C329 C328 1.287 . S
C329 C330 1.524 . S
C329 H332 0.999 . S
C330 H300 0.950 . S
C330 C329 1.524 . S
C330 C331 1.415 . S
C331 H301 0.950 . S
C331 C326 1.363 . S
C331 C330 1.415 . S
H332 C329 0.999 . S
H333 C314 0.913 . S
H334 C352 0.951 . S
H335 C354 0.951 . S
H336 C356 0.950 . S
H337 C357 0.950 . S
H338 C359 0.950 . S
H339 C362 0.950 . S
H340 C363 0.950 . S
H341 C365 0.950 1_455 S
H342 C366 0.950 . S
H343 C367 0.951 . S
H344 C369 0.951 . S
H345 C371 0.950 . S
H346 C372 0.950 . S
H347 C374 0.950 . S
H348 C377 0.950 . S
H349 C378 0.950 . S
H350 C380 0.950 . S
H351 C381 0.950 . S
C352 H334 0.951 . S
C352 C353 1.366 . S
C352 C354 1.388 . S
C353 C352 1.366 . S
C353 C357 1.385 . S
C354 H335 0.951 . S
C354 C352 1.388 . S
C354 C355 1.366 . S
C355 C354 1.366 . S
C355 C356 1.414 . S
C355 C358 1.499 . S
C356 H336 0.950 . S
C356 C355 1.414 . S
C356 C357 1.374 . S
C357 H337 0.950 . S
C357 C353 1.385 . S
C357 C356 1.374 . S
C358 C355 1.499 . S
C358 C359 1.373 . S
C358 C360 1.389 . S
C359 H338 0.950 . S
C359 C358 1.373 . S
C359 C375 1.377 . S
C360 C358 1.389 . S
C360 C361 1.524 . S
C360 C374 1.377 . S
C361 C360 1.524 . S
C361 C362 1.397 . S
C361 C366 1.363 . S
C362 H339 0.950 . S
C362 C361 1.397 . S
C362 C363 1.334 . S
C363 H340 0.950 . S
C363 C362 1.334 . S
C363 C364 1.287 . S
C364 C363 1.287 . S
C364 C365 1.524 . S
C364 H383 0.913 . S
C365 H341 0.950 1_655 S
C365 C364 1.524 . S
C365 C366 1.415 . S
C366 H342 0.950 . S
C366 C361 1.363 . S
C366 C365 1.415 . S
C367 H343 0.951 . S
C367 C368 1.350 1_655 S
C367 C369 1.388 . S
C368 C367 1.350 1_455 S
C368 C372 1.391 . S
C369 H344 0.951 . S
C369 C367 1.388 . S
C369 C370 1.366 . S
C370 C369 1.366 . S
C370 C371 1.414 1_655 S
C370 C373 1.499 . S
C371 H345 0.950 . S
C371 C370 1.414 1_455 S
C371 C372 1.374 . S
C372 H346 0.950 . S
C372 C368 1.391 . S
C372 C371 1.374 . S
C373 C370 1.499 . S
C373 C374 1.373 . S
C373 C375 1.389 . S
C374 H347 0.950 . S
C374 C360 1.377 . S
C374 C373 1.373 . S
C375 C359 1.377 . S
C375 C373 1.389 . S
C375 C376 1.524 . S
C376 C375 1.524 . S
C376 C377 1.397 . S
C376 C381 1.363 . S
C377 H348 0.950 . S
C377 C376 1.397 . S
C377 C378 1.334 . S
C378 H349 0.950 . S
C378 C377 1.334 . S
C378 C379 1.287 . S
C379 C378 1.287 . S
C379 C380 1.524 . S
C379 H382 0.999 . S
C380 H350 0.950 . S
C380 C379 1.524 . S
C380 C381 1.415 . S
C381 H351 0.950 . S
C381 C376 1.363 . S
C381 C380 1.415 . S
H382 C379 0.999 . S
H383 C364 0.913 . S
H384 C402 0.951 . S
H385 C404 0.951 . S
H386 C406 0.950 . S
H387 C407 0.950 . S
H388 C409 0.950 . S
H389 C412 0.950 . S
H390 C413 0.950 . S
H391 C415 0.950 . S
H392 C416 0.950 . S
H393 C417 0.951 . S
H394 C419 0.951 . S
H395 C421 0.950 . S
H396 C422 0.950 . S
H397 C424 0.950 . S
H398 C427 0.950 . S
H399 C428 0.950 1_565 S
H400 C430 0.950 . S
H401 C431 0.950 . S
C402 H384 0.951 . S
C402 C403 1.366 . S
C402 C404 1.388 . S
C403 C402 1.366 . S
C403 C407 1.385 . S
C404 H385 0.951 . S
C404 C402 1.388 . S
C404 C405 1.366 . S
C405 C404 1.366 . S
C405 C406 1.414 . S
C405 C408 1.499 . S
C406 H386 0.950 . S
C406 C405 1.414 . S
C406 C407 1.374 . S
C407 H387 0.950 . S
C407 C403 1.385 . S
C407 C406 1.374 . S
C408 C405 1.499 . S
C408 C409 1.373 . S
C408 C410 1.389 . S
C409 H388 0.950 . S
C409 C408 1.373 . S
C409 C425 1.377 . S
C410 C408 1.389 . S
C410 C411 1.524 . S
C410 C424 1.377 . S
C411 C410 1.524 . S
C411 C412 1.397 . S
C411 C416 1.363 . S
C412 H389 0.950 . S
C412 C411 1.397 . S
C412 C413 1.334 . S
C413 H390 0.950 . S
C413 C412 1.334 . S
C413 C414 1.287 . S
C414 C413 1.287 . S
C414 C415 1.524 . S
C414 H433 0.913 . S
C415 H391 0.950 . S
C415 C414 1.524 . S
C415 C416 1.415 . S
C416 H392 0.950 . S
C416 C411 1.363 . S
C416 C415 1.415 . S
C417 H393 0.951 . S
C417 C418 1.366 . S
C417 C419 1.388 . S
C418 C417 1.366 . S
C418 C422 1.385 . S
C419 H394 0.951 . S
C419 C417 1.388 . S
C419 C420 1.366 . S
C420 C419 1.366 . S
C420 C421 1.414 . S
C420 C423 1.499 . S
C421 H395 0.950 . S
C421 C420 1.414 . S
C421 C422 1.374 . S
C422 H396 0.950 . S
C422 C418 1.385 . S
C422 C421 1.374 . S
C423 C420 1.499 . S
C423 C424 1.373 . S
C423 C425 1.389 . S
C424 H397 0.950 . S
C424 C410 1.377 . S
C424 C423 1.373 . S
C425 C409 1.377 . S
C425 C423 1.389 . S
C425 C426 1.524 . S
C426 C425 1.524 . S
C426 C427 1.397 . S
C426 C431 1.363 . S
C427 H398 0.950 . S
C427 C426 1.397 . S
C427 C428 1.334 . S
C428 H399 0.950 1_545 S
C428 C427 1.334 . S
C428 C429 1.287 . S
C429 C428 1.287 . S
C429 C430 1.524 . S
C429 H432 0.999 1_545 S
C430 H400 0.950 . S
C430 C429 1.524 . S
C430 C431 1.415 . S
C431 H401 0.950 . S
C431 C426 1.363 . S
C431 C430 1.415 . S
H432 C429 0.999 1_565 S
H433 C414 0.913 . S
H434 C452 0.951 . S
H435 C454 0.951 . S
H436 C456 0.950 . S
H437 C457 0.950 . S
H438 C459 0.950 . S
H439 C462 0.950 . S
H440 C463 0.950 . S
H441 C465 0.950 1_545 S
H442 C466 0.950 . S
H443 C467 0.951 . S
H444 C469 0.951 . S
H445 C471 0.950 . S
H446 C472 0.950 . S
H447 C474 0.950 . S
H448 C477 0.950 . S
H449 C478 0.950 . S
H450 C480 0.950 . S
H451 C481 0.950 . S
C452 H434 0.951 . S
C452 C453 1.366 . S
C452 C454 1.388 . S
C453 C452 1.366 . S
C453 C457 1.385 . S
C454 H435 0.951 . S
C454 C452 1.388 . S
C454 C455 1.366 . S
C455 C454 1.366 . S
C455 C456 1.414 . S
C455 C458 1.499 . S
C456 H436 0.950 . S
C456 C455 1.414 . S
C456 C457 1.374 . S
C457 H437 0.950 . S
C457 C453 1.385 . S
C457 C456 1.374 . S
C458 C455 1.499 . S
C458 C459 1.373 . S
C458 C460 1.389 . S
C459 H438 0.950 . S
C459 C458 1.373 . S
C459 C475 1.377 . S
C460 C458 1.389 . S
C460 C461 1.524 . S
C460 C474 1.377 . S
C461 C460 1.524 . S
C461 C462 1.397 . S
C461 C466 1.363 . S
C462 H439 0.950 . S
C462 C461 1.397 . S
C462 C463 1.334 . S
C463 H440 0.950 . S
C463 C462 1.334 . S
C463 C464 1.288 1_565 S
C464 C463 1.288 1_545 S
C464 C465 1.525 1_545 S
C464 H483 0.912 . S
C465 H441 0.950 1_565 S
C465 C464 1.525 1_565 S
C465 C466 1.415 . S
C466 H442 0.950 . S
C466 C461 1.363 . S
C466 C465 1.415 . S
C467 H443 0.951 . S
C467 C468 1.366 . S
C467 C469 1.388 . S
C468 C467 1.366 . S
C468 C472 1.385 . S
C469 H444 0.951 . S
C469 C467 1.388 . S
C469 C470 1.366 . S
C470 C469 1.366 . S
C470 C471 1.414 . S
C470 C473 1.499 . S
C471 H445 0.950 . S
C471 C470 1.414 . S
C471 C472 1.374 . S
C472 H446 0.950 . S
C472 C468 1.385 . S
C472 C471 1.374 . S
C473 C470 1.499 . S
C473 C474 1.373 . S
C473 C475 1.389 . S
C474 H447 0.950 . S
C474 C460 1.377 . S
C474 C473 1.373 . S
C475 C459 1.377 . S
C475 C473 1.389 . S
C475 C476 1.524 . S
C476 C475 1.524 . S
C476 C477 1.397 . S
C476 C481 1.363 . S
C477 H448 0.950 . S
C477 C476 1.397 . S
C477 C478 1.334 . S
C478 H449 0.950 . S
C478 C477 1.334 . S
C478 C479 1.287 . S
C479 C478 1.287 . S
C479 C480 1.524 . S
C479 H482 0.999 . S
C480 H450 0.950 . S
C480 C479 1.524 . S
C480 C481 1.415 . S
C481 H451 0.950 . S
C481 C476 1.363 . S
C481 C480 1.415 . S
H482 C479 0.999 . S
H483 C464 0.912 . S
H484 C502 0.951 . S
H485 C504 0.951 . S
H486 C506 0.950 . S
H487 C507 0.950 . S
H488 C509 0.950 . S
H489 C512 0.950 . S
H490 C513 0.950 . S
H491 C515 0.950 . S
H492 C516 0.950 . S
H493 C517 0.951 . S
H494 C519 0.951 . S
H495 C521 0.950 . S
H496 C522 0.950 . S
H497 C524 0.950 . S
H498 C527 0.950 . S
H499 C528 0.950 . S
H500 C530 0.950 . S
H501 C531 0.950 . S
C502 H484 0.951 . S
C502 C503 1.366 . S
C502 C504 1.388 . S
C503 C502 1.366 . S
C503 C507 1.385 . S
C504 H485 0.951 . S
C504 C502 1.388 . S
C504 C505 1.366 . S
C505 C504 1.366 . S
C505 C506 1.414 . S
C505 C508 1.499 . S
C506 H486 0.950 . S
C506 C505 1.414 . S
C506 C507 1.374 . S
C507 H487 0.950 . S
C507 C503 1.385 . S
C507 C506 1.374 . S
C508 C505 1.499 . S
C508 C509 1.373 . S
C508 C510 1.389 . S
C509 H488 0.950 . S
C509 C508 1.373 . S
C509 C525 1.377 . S
C510 C508 1.389 . S
C510 C511 1.524 . S
C510 C524 1.377 . S
C511 C510 1.524 . S
C511 C512 1.397 . S
C511 C516 1.363 . S
C512 H489 0.950 . S
C512 C511 1.397 . S
C512 C513 1.334 . S
C513 H490 0.950 . S
C513 C512 1.334 . S
C513 C514 1.287 . S
C514 C513 1.287 . S
C514 C515 1.524 . S
C514 H533 0.913 . S
C515 H491 0.950 . S
C515 C514 1.524 . S
C515 C516 1.415 . S
C516 H492 0.950 . S
C516 C511 1.363 . S
C516 C515 1.415 . S
C517 H493 0.951 . S
C517 C518 1.366 . S
C517 C519 1.388 . S
C518 C517 1.366 . S
C518 C522 1.385 . S
C519 H494 0.951 . S
C519 C517 1.388 . S
C519 C520 1.366 . S
C520 C519 1.366 . S
C520 C521 1.414 . S
C520 C523 1.499 . S
C521 H495 0.950 . S
C521 C520 1.414 . S
C521 C522 1.374 . S
C522 H496 0.950 . S
C522 C518 1.385 . S
C522 C521 1.374 . S
C523 C520 1.499 . S
C523 C524 1.373 . S
C523 C525 1.389 . S
C524 H497 0.950 . S
C524 C510 1.377 . S
C524 C523 1.373 . S
C525 C509 1.377 . S
C525 C523 1.389 . S
C525 C526 1.524 . S
C526 C525 1.524 . S
C526 C527 1.397 . S
C526 C531 1.363 . S
C527 H498 0.950 . S
C527 C526 1.397 . S
C527 C528 1.334 . S
C528 H499 0.950 . S
C528 C527 1.334 . S
C528 C529 1.287 . S
C529 C528 1.287 . S
C529 C530 1.524 . S
C529 H532 0.999 . S
C530 H500 0.950 . S
C530 C529 1.524 . S
C530 C531 1.415 . S
C531 H501 0.950 . S
C531 C526 1.363 . S
C531 C530 1.415 . S
H532 C529 0.999 . S
H533 C514 0.913 . S
H534 C552 0.951 . S
H535 C554 0.951 . S
H536 C556 0.950 . S
H537 C557 0.950 . S
H538 C559 0.950 . S
H539 C562 0.950 . S
H540 C563 0.950 . S
H541 C565 0.950 . S
H542 C566 0.950 . S
H543 C567 0.951 . S
H544 C569 0.951 . S
H545 C571 0.950 . S
H546 C572 0.950 . S
H547 C574 0.950 . S
H548 C577 0.950 . S
H549 C578 0.950 . S
H550 C580 0.950 . S
H551 C581 0.950 . S
C552 H534 0.951 . S
C552 C553 1.366 . S
C552 C554 1.388 . S
C553 C552 1.366 . S
C553 C557 1.385 . S
C554 H535 0.951 . S
C554 C552 1.388 . S
C554 C555 1.366 . S
C555 C554 1.366 . S
C555 C556 1.414 . S
C555 C558 1.499 . S
C556 H536 0.950 . S
C556 C555 1.414 . S
C556 C557 1.374 . S
C557 H537 0.950 . S
C557 C553 1.385 . S
C557 C556 1.374 . S
C558 C555 1.499 . S
C558 C559 1.373 . S
C558 C560 1.389 . S
C559 H538 0.950 . S
C559 C558 1.373 . S
C559 C575 1.377 . S
C560 C558 1.389 . S
C560 C561 1.524 . S
C560 C574 1.377 . S
C561 C560 1.524 . S
C561 C562 1.397 . S
C561 C566 1.363 . S
C562 H539 0.950 . S
C562 C561 1.397 . S
C562 C563 1.334 . S
C563 H540 0.950 . S
C563 C562 1.334 . S
C563 C564 1.287 . S
C564 C563 1.287 . S
C564 C565 1.524 . S
C564 H583 0.913 . S
C565 H541 0.950 . S
C565 C564 1.524 . S
C565 C566 1.415 . S
C566 H542 0.950 . S
C566 C561 1.363 . S
C566 C565 1.415 . S
C567 H543 0.951 . S
C567 C568 1.366 . S
C567 C569 1.388 . S
C568 C567 1.366 . S
C568 C572 1.385 . S
C569 H544 0.951 . S
C569 C567 1.388 . S
C569 C570 1.366 . S
C570 C569 1.366 . S
C570 C571 1.414 . S
C570 C573 1.499 . S
C571 H545 0.950 . S
C571 C570 1.414 . S
C571 C572 1.374 . S
C572 H546 0.950 . S
C572 C568 1.385 . S
C572 C571 1.374 . S
C573 C570 1.499 . S
C573 C574 1.373 . S
C573 C575 1.389 . S
C574 H547 0.950 . S
C574 C560 1.377 . S
C574 C573 1.373 . S
C575 C559 1.377 . S
C575 C573 1.389 . S
C575 C576 1.524 . S
C576 C575 1.524 . S
C576 C577 1.397 . S
C576 C581 1.363 . S
C577 H548 0.950 . S
C577 C576 1.397 . S
C577 C578 1.334 . S
C578 H549 0.950 . S
C578 C577 1.334 . S
C578 C579 1.287 . S
C579 C578 1.287 . S
C579 C580 1.524 . S
C579 H582 0.999 . S
C580 H550 0.950 . S
C580 C579 1.524 . S
C580 C581 1.415 . S
C581 H551 0.950 . S
C581 C576 1.363 . S
C581 C580 1.415 . S
H582 C579 0.999 . S
H583 C564 0.913 . S
H584 C602 0.951 . S
H585 C604 0.951 . S
H586 C606 0.950 . S
H587 C607 0.950 . S
H588 C609 0.950 . S
H589 C612 0.950 . S
H590 C613 0.950 . S
H591 C615 0.950 . S
H592 C616 0.950 . S
H593 C617 0.951 . S
H594 C619 0.951 . S
H595 C621 0.950 . S
H596 C622 0.950 . S
H597 C624 0.950 . S
H598 C627 0.950 . S
H599 C628 0.950 . S
H600 C630 0.950 . S
H601 C631 0.950 . S
C602 H584 0.951 . S
C602 C603 1.366 . S
C602 C604 1.388 . S
C603 C602 1.366 . S
C603 C607 1.385 . S
C604 H585 0.951 . S
C604 C602 1.388 . S
C604 C605 1.366 . S
C605 C604 1.366 . S
C605 C606 1.414 . S
C605 C608 1.499 . S
C606 H586 0.950 . S
C606 C605 1.414 . S
C606 C607 1.374 . S
C607 H587 0.950 . S
C607 C603 1.385 . S
C607 C606 1.374 . S
C608 C605 1.499 . S
C608 C609 1.373 . S
C608 C610 1.389 . S
C609 H588 0.950 . S
C609 C608 1.373 . S
C609 C625 1.377 . S
C610 C608 1.389 . S
C610 C611 1.524 . S
C610 C624 1.377 . S
C611 C610 1.524 . S
C611 C612 1.397 . S
C611 C616 1.363 . S
C612 H589 0.950 . S
C612 C611 1.397 . S
C612 C613 1.334 . S
C613 H590 0.950 . S
C613 C612 1.334 . S
C613 C614 1.287 . S
C614 C613 1.287 . S
C614 C615 1.524 . S
C614 H633 0.913 . S
C615 H591 0.950 . S
C615 C614 1.524 . S
C615 C616 1.415 . S
C616 H592 0.950 . S
C616 C611 1.363 . S
C616 C615 1.415 . S
C617 H593 0.951 . S
C617 C618 1.366 . S
C617 C619 1.388 . S
C618 C617 1.366 . S
C618 C622 1.385 . S
C619 H594 0.951 . S
C619 C617 1.388 . S
C619 C620 1.366 . S
C620 C619 1.366 . S
C620 C621 1.414 . S
C620 C623 1.499 . S
C621 H595 0.950 . S
C621 C620 1.414 . S
C621 C622 1.374 . S
C622 H596 0.950 . S
C622 C618 1.385 . S
C622 C621 1.374 . S
C623 C620 1.499 . S
C623 C624 1.373 . S
C623 C625 1.389 . S
C624 H597 0.950 . S
C624 C610 1.377 . S
C624 C623 1.373 . S
C625 C609 1.377 . S
C625 C623 1.389 . S
C625 C626 1.524 . S
C626 C625 1.524 . S
C626 C627 1.397 . S
C626 C631 1.363 . S
C627 H598 0.950 . S
C627 C626 1.397 . S
C627 C628 1.334 . S
C628 H599 0.950 . S
C628 C627 1.334 . S
C628 C629 1.287 . S
C629 C628 1.287 . S
C629 C630 1.524 . S
C629 H632 0.999 . S
C630 H600 0.950 . S
C630 C629 1.524 . S
C630 C631 1.415 . S
C631 H601 0.950 . S
C631 C626 1.363 . S
C631 C630 1.415 . S
H632 C629 0.999 . S
H633 C614 0.913 . S
H634 C652 0.951 . S
H635 C654 0.951 . S
H636 C656 0.950 . S
H637 C657 0.950 . S
H638 C659 0.950 . S
H639 C662 0.950 . S
H640 C663 0.950 . S
H641 C665 0.950 . S
H642 C666 0.950 . S
H643 C667 0.951 . S
H644 C669 0.951 . S
H645 C671 0.950 . S
H646 C672 0.950 . S
H647 C674 0.950 . S
H648 C677 0.950 . S
H649 C678 0.950 . S
H650 C680 0.950 . S
H651 C681 0.950 . S
C652 H634 0.951 . S
C652 C653 1.366 . S
C652 C654 1.388 . S
C653 C652 1.366 . S
C653 C657 1.385 . S
C654 H635 0.951 . S
C654 C652 1.388 . S
C654 C655 1.366 . S
C655 C654 1.366 . S
C655 C656 1.414 . S
C655 C658 1.499 . S
C656 H636 0.950 . S
C656 C655 1.414 . S
C656 C657 1.374 . S
C657 H637 0.950 . S
C657 C653 1.385 . S
C657 C656 1.374 . S
C658 C655 1.499 . S
C658 C659 1.373 . S
C658 C660 1.389 . S
C659 H638 0.950 . S
C659 C658 1.373 . S
C659 C675 1.377 . S
C660 C658 1.389 . S
C660 C661 1.524 . S
C660 C674 1.377 . S
C661 C660 1.524 . S
C661 C662 1.397 . S
C661 C666 1.363 . S
C662 H639 0.950 . S
C662 C661 1.397 . S
C662 C663 1.334 . S
C663 H640 0.950 . S
C663 C662 1.334 . S
C663 C664 1.287 . S
C664 C663 1.287 . S
C664 C665 1.524 . S
C664 H683 0.913 . S
C665 H641 0.950 . S
C665 C664 1.524 . S
C665 C666 1.415 . S
C666 H642 0.950 . S
C666 C661 1.363 . S
C666 C665 1.415 . S
C667 H643 0.951 . S
C667 C668 1.366 . S
C667 C669 1.388 . S
C668 C667 1.366 . S
C668 C672 1.385 . S
C669 H644 0.951 . S
C669 C667 1.388 . S
C669 C670 1.366 . S
C670 C669 1.366 . S
C670 C671 1.414 . S
C670 C673 1.499 . S
C671 H645 0.950 . S
C671 C670 1.414 . S
C671 C672 1.374 . S
C672 H646 0.950 . S
C672 C668 1.385 . S
C672 C671 1.374 . S
C673 C670 1.499 . S
C673 C674 1.373 . S
C673 C675 1.389 . S
C674 H647 0.950 . S
C674 C660 1.377 . S
C674 C673 1.373 . S
C675 C659 1.377 . S
C675 C673 1.389 . S
C675 C676 1.524 . S
C676 C675 1.524 . S
C676 C677 1.397 . S
C676 C681 1.363 . S
C677 H648 0.950 . S
C677 C676 1.397 . S
C677 C678 1.334 . S
C678 H649 0.950 . S
C678 C677 1.334 . S
C678 C679 1.287 . S
C679 C678 1.287 . S
C679 C680 1.524 . S
C679 H682 0.999 . S
C680 H650 0.950 . S
C680 C679 1.524 . S
C680 C681 1.415 . S
C681 H651 0.950 . S
C681 C676 1.363 . S
C681 C680 1.415 . S
H682 C679 0.999 . S
H683 C664 0.913 . S
H684 C702 0.951 . S
H685 C704 0.951 . S
H686 C706 0.950 . S
H687 C707 0.950 . S
H688 C709 0.950 . S
H689 C712 0.950 . S
H690 C713 0.950 . S
H691 C715 0.950 . S
H692 C716 0.950 . S
H693 C717 0.951 1_455 S
H694 C719 0.951 . S
H695 C721 0.950 . S
H696 C722 0.950 . S
H697 C724 0.950 . S
H698 C727 0.950 . S
H699 C728 0.950 . S
H700 C730 0.950 1_455 S
H701 C731 0.950 . S
C702 H684 0.951 . S
C702 C703 1.366 . S
C702 C704 1.388 . S
C703 C702 1.366 . S
C703 C707 1.385 . S
C704 H685 0.951 . S
C704 C702 1.388 . S
C704 C705 1.366 . S
C705 C704 1.366 . S
C705 C706 1.414 . S
C705 C708 1.499 . S
C706 H686 0.950 . S
C706 C705 1.414 . S
C706 C707 1.374 . S
C707 H687 0.950 . S
C707 C703 1.385 . S
C707 C706 1.374 . S
C708 C705 1.499 . S
C708 C709 1.373 . S
C708 C710 1.389 . S
C709 H688 0.950 . S
C709 C708 1.373 . S
C709 C725 1.377 . S
C710 C708 1.389 . S
C710 C711 1.524 . S
C710 C724 1.377 . S
C711 C710 1.524 . S
C711 C712 1.397 . S
C711 C716 1.363 . S
C712 H689 0.950 . S
C712 C711 1.397 . S
C712 C713 1.334 . S
C713 H690 0.950 . S
C713 C712 1.334 . S
C713 C714 1.287 . S
C714 C713 1.287 . S
C714 C715 1.524 . S
C714 H733 0.913 . S
C715 H691 0.950 . S
C715 C714 1.524 . S
C715 C716 1.415 . S
C716 H692 0.950 . S
C716 C711 1.363 . S
C716 C715 1.415 . S
C717 H693 0.951 1_655 S
C717 C718 1.366 . S
C717 C719 1.388 . S
C718 C717 1.366 . S
C718 C722 1.385 . S
C719 H694 0.951 . S
C719 C717 1.388 . S
C719 C720 1.366 . S
C720 C719 1.366 . S
C720 C721 1.414 . S
C720 C723 1.499 . S
C721 H695 0.950 . S
C721 C720 1.414 . S
C721 C722 1.374 . S
C722 H696 0.950 . S
C722 C718 1.385 . S
C722 C721 1.374 . S
C723 C720 1.499 . S
C723 C724 1.373 . S
C723 C725 1.389 . S
C724 H697 0.950 . S
C724 C710 1.377 . S
C724 C723 1.373 . S
C725 C709 1.377 . S
C725 C723 1.389 . S
C725 C726 1.524 . S
C726 C725 1.524 . S
C726 C727 1.397 . S
C726 C731 1.363 . S
C727 H698 0.950 . S
C727 C726 1.397 . S
C727 C728 1.334 . S
C728 H699 0.950 . S
C728 C727 1.334 . S
C728 C729 1.287 . S
C729 C728 1.287 . S
C729 C730 1.524 . S
C729 H732 0.999 . S
C730 H700 0.950 1_655 S
C730 C729 1.524 . S
C730 C731 1.415 . S
C731 H701 0.950 . S
C731 C726 1.363 . S
C731 C730 1.415 . S
H732 C729 0.999 . S
H733 C714 0.913 . S
H734 C752 0.951 . S
H735 C754 0.951 . S
H736 C756 0.950 . S
H737 C757 0.950 . S
H738 C759 0.950 . S
H739 C762 0.950 . S
H740 C763 0.950 . S
H741 C765 0.950 . S
H742 C766 0.950 . S
H743 C767 0.951 . S
H744 C769 0.951 . S
H745 C771 0.950 . S
H746 C772 0.950 . S
H747 C774 0.950 . S
H748 C777 0.950 . S
H749 C778 0.950 . S
H750 C780 0.950 . S
H751 C781 0.950 . S
C752 H734 0.951 . S
C752 C753 1.366 . S
C752 C754 1.388 . S
C753 C752 1.366 . S
C753 C757 1.385 . S
C754 H735 0.951 . S
C754 C752 1.388 . S
C754 C755 1.366 . S
C755 C754 1.366 . S
C755 C756 1.414 . S
C755 C758 1.499 . S
C756 H736 0.950 . S
C756 C755 1.414 . S
C756 C757 1.374 . S
C757 H737 0.950 . S
C757 C753 1.385 . S
C757 C756 1.374 . S
C758 C755 1.499 . S
C758 C759 1.373 . S
C758 C760 1.389 . S
C759 H738 0.950 . S
C759 C758 1.373 . S
C759 C775 1.377 . S
C760 C758 1.389 . S
C760 C761 1.524 . S
C760 C774 1.377 . S
C761 C760 1.524 . S
C761 C762 1.397 . S
C761 C766 1.363 . S
C762 H739 0.950 . S
C762 C761 1.397 . S
C762 C763 1.334 . S
C763 H740 0.950 . S
C763 C762 1.334 . S
C763 C764 1.287 . S
C764 C763 1.287 . S
C764 C765 1.524 . S
C764 H783 0.913 . S
C765 H741 0.950 . S
C765 C764 1.524 . S
C765 C766 1.415 . S
C766 H742 0.950 . S
C766 C761 1.363 . S
C766 C765 1.415 . S
C767 H743 0.951 . S
C767 C768 1.366 . S
C767 C769 1.388 . S
C768 C767 1.366 . S
C768 C772 1.385 . S
C769 H744 0.951 . S
C769 C767 1.388 . S
C769 C770 1.366 . S
C770 C769 1.366 . S
C770 C771 1.414 . S
C770 C773 1.499 . S
C771 H745 0.950 . S
C771 C770 1.414 . S
C771 C772 1.374 . S
C772 H746 0.950 . S
C772 C768 1.385 . S
C772 C771 1.374 . S
C773 C770 1.499 . S
C773 C774 1.373 . S
C773 C775 1.389 . S
C774 H747 0.950 . S
C774 C760 1.377 . S
C774 C773 1.373 . S
C775 C759 1.377 . S
C775 C773 1.389 . S
C775 C776 1.524 . S
C776 C775 1.524 . S
C776 C777 1.397 . S
C776 C781 1.363 . S
C777 H748 0.950 . S
C777 C776 1.397 . S
C777 C778 1.334 . S
C778 H749 0.950 . S
C778 C777 1.334 . S
C778 C779 1.287 . S
C779 C778 1.287 . S
C779 C780 1.524 . S
C779 H782 0.999 . S
C780 H750 0.950 . S
C780 C779 1.524 . S
C780 C781 1.415 . S
C781 H751 0.950 . S
C781 C776 1.363 . S
C781 C780 1.415 . S
H782 C779 0.999 . S
H783 C764 0.913 . S
H784 C802 0.951 . S
H785 C804 0.951 . S
H786 C806 0.950 . S
H787 C807 0.950 . S
H788 C809 0.950 . S
H789 C812 0.950 . S
H790 C813 0.950 . S
H791 C815 0.950 . S
H792 C816 0.950 . S
H793 C817 0.951 . S
H794 C819 0.951 . S
H795 C821 0.950 . S
H796 C822 0.950 1_545 S
H797 C824 0.950 . S
H798 C827 0.950 . S
H799 C828 0.950 . S
H800 C830 0.950 . S
H801 C831 0.950 . S
C802 H784 0.951 . S
C802 C803 1.366 . S
C802 C804 1.388 . S
C803 C802 1.366 . S
C803 C807 1.385 . S
C804 H785 0.951 . S
C804 C802 1.388 . S
C804 C805 1.366 . S
C805 C804 1.366 . S
C805 C806 1.414 . S
C805 C808 1.499 . S
C806 H786 0.950 . S
C806 C805 1.414 . S
C806 C807 1.374 . S
C807 H787 0.950 . S
C807 C803 1.385 . S
C807 C806 1.374 . S
C808 C805 1.499 . S
C808 C809 1.373 . S
C808 C810 1.389 . S
C809 H788 0.950 . S
C809 C808 1.373 . S
C809 C825 1.377 . S
C810 C808 1.389 . S
C810 C811 1.524 . S
C810 C824 1.377 . S
C811 C810 1.524 . S
C811 C812 1.397 . S
C811 C816 1.363 . S
C812 H789 0.950 . S
C812 C811 1.397 . S
C812 C813 1.334 . S
C813 H790 0.950 . S
C813 C812 1.334 . S
C813 C814 1.287 . S
C814 C813 1.287 . S
C814 C815 1.524 . S
C814 H833 0.913 . S
C815 H791 0.950 . S
C815 C814 1.524 . S
C815 C816 1.415 . S
C816 H792 0.950 . S
C816 C811 1.363 . S
C816 C815 1.415 . S
C817 H793 0.951 . S
C817 C818 1.366 . S
C817 C819 1.388 . S
C818 C817 1.366 . S
C818 C822 1.385 . S
C819 H794 0.951 . S
C819 C817 1.388 . S
C819 C820 1.366 . S
C820 C819 1.366 . S
C820 C821 1.414 . S
C820 C823 1.499 . S
C821 H795 0.950 . S
C821 C820 1.414 . S
C821 C822 1.374 . S
C822 H796 0.950 1_565 S
C822 C818 1.385 . S
C822 C821 1.374 . S
C823 C820 1.499 . S
C823 C824 1.373 . S
C823 C825 1.389 . S
C824 H797 0.950 . S
C824 C810 1.377 . S
C824 C823 1.373 . S
C825 C809 1.377 . S
C825 C823 1.389 . S
C825 C826 1.524 . S
C826 C825 1.524 . S
C826 C827 1.397 . S
C826 C831 1.363 . S
C827 H798 0.950 . S
C827 C826 1.397 . S
C827 C828 1.334 1_655 S
C828 H799 0.950 . S
C828 C827 1.334 1_455 S
C828 C829 1.285 1_455 S
C829 C828 1.285 1_655 S
C829 C830 1.539 . S
C829 H832 0.986 1_655 S
C830 H800 0.950 . S
C830 C829 1.539 . S
C830 C831 1.415 . S
C831 H801 0.950 . S
C831 C826 1.363 . S
C831 C830 1.415 . S
H832 C829 0.986 1_455 S
H833 C814 0.913 . S
H834 C852 0.951 . S
H835 C854 0.951 . S
H836 C856 0.950 . S
H837 C857 0.950 . S
H838 C859 0.950 . S
H839 C862 0.950 . S
H840 C863 0.950 . S
H841 C865 0.950 . S
H842 C866 0.950 . S
H843 C867 0.951 . S
H844 C869 0.951 . S
H845 C871 0.950 . S
H846 C872 0.950 . S
H847 C874 0.950 . S
H848 C877 0.950 . S
H849 C878 0.950 . S
H850 C880 0.950 . S
H851 C881 0.950 . S
C852 H834 0.951 . S
C852 C853 1.366 . S
C852 C854 1.388 . S
C853 C852 1.366 . S
C853 C857 1.385 . S
C854 H835 0.951 . S
C854 C852 1.388 . S
C854 C855 1.366 . S
C855 C854 1.366 . S
C855 C856 1.414 . S
C855 C858 1.499 . S
C856 H836 0.950 . S
C856 C855 1.414 . S
C856 C857 1.374 . S
C857 H837 0.950 . S
C857 C853 1.385 . S
C857 C856 1.374 . S
C858 C855 1.499 . S
C858 C859 1.373 . S
C858 C860 1.389 . S
C859 H838 0.950 . S
C859 C858 1.373 . S
C859 C875 1.377 . S
C860 C858 1.389 . S
C860 C861 1.524 . S
C860 C874 1.377 . S
C861 C860 1.524 . S
C861 C862 1.397 . S
C861 C866 1.363 . S
C862 H839 0.950 . S
C862 C861 1.397 . S
C862 C863 1.334 . S
C863 H840 0.950 . S
C863 C862 1.334 . S
C863 C864 1.287 . S
C864 C863 1.287 . S
C864 C865 1.524 . S
C864 H883 0.913 . S
C865 H841 0.950 . S
C865 C864 1.524 . S
C865 C866 1.415 . S
C866 H842 0.950 . S
C866 C861 1.363 . S
C866 C865 1.415 . S
C867 H843 0.951 . S
C867 C868 1.366 . S
C867 C869 1.388 . S
C868 C867 1.366 . S
C868 C872 1.385 . S
C869 H844 0.951 . S
C869 C867 1.388 . S
C869 C870 1.366 . S
C870 C869 1.366 . S
C870 C871 1.414 . S
C870 C873 1.499 . S
C871 H845 0.950 . S
C871 C870 1.414 . S
C871 C872 1.374 . S
C872 H846 0.950 . S
C872 C868 1.385 . S
C872 C871 1.374 . S
C873 C870 1.499 . S
C873 C874 1.373 . S
C873 C875 1.389 . S
C874 H847 0.950 . S
C874 C860 1.377 . S
C874 C873 1.373 . S
C875 C859 1.377 . S
C875 C873 1.389 . S
C875 C876 1.524 . S
C876 C875 1.524 . S
C876 C877 1.397 . S
C876 C881 1.363 . S
C877 H848 0.950 . S
C877 C876 1.397 . S
C877 C878 1.334 . S
C878 H849 0.950 . S
C878 C877 1.334 . S
C878 C879 1.287 . S
C879 C878 1.287 . S
C879 C880 1.524 . S
C879 H882 0.999 . S
C880 H850 0.950 . S
C880 C879 1.524 . S
C880 C881 1.415 . S
C881 H851 0.950 . S
C881 C876 1.363 . S
C881 C880 1.415 . S
H882 C879 0.999 . S
H883 C864 0.913 . S
H884 C902 0.951 . S
H885 C904 0.951 . S
H886 C906 0.950 . S
H887 C907 0.950 . S
H888 C909 0.950 . S
H889 C912 0.950 . S
H890 C913 0.950 . S
H891 C915 0.950 . S
H892 C916 0.950 . S
H893 C917 0.951 . S
H894 C919 0.951 . S
H895 C921 0.950 . S
H896 C922 0.950 . S
H897 C924 0.950 . S
H898 C927 0.950 . S
H899 C928 0.950 . S
H900 C930 0.950 . S
H901 C931 0.950 . S
C902 H884 0.951 . S
C902 C903 1.366 . S
C902 C904 1.388 . S
C903 C902 1.366 . S
C903 C907 1.385 . S
C904 H885 0.951 . S
C904 C902 1.388 . S
C904 C905 1.366 . S
C905 C904 1.366 . S
C905 C906 1.414 . S
C905 C908 1.499 . S
C906 H886 0.950 . S
C906 C905 1.414 . S
C906 C907 1.374 . S
C907 H887 0.950 . S
C907 C903 1.385 . S
C907 C906 1.374 . S
C908 C905 1.499 . S
C908 C909 1.373 . S
C908 C910 1.389 . S
C909 H888 0.950 . S
C909 C908 1.373 . S
C909 C925 1.377 . S
C910 C908 1.389 . S
C910 C911 1.524 . S
C910 C924 1.377 . S
C911 C910 1.524 . S
C911 C912 1.397 . S
C911 C916 1.363 . S
C912 H889 0.950 . S
C912 C911 1.397 . S
C912 C913 1.334 . S
C913 H890 0.950 . S
C913 C912 1.334 . S
C913 C914 1.287 . S
C914 C913 1.287 . S
C914 C915 1.524 . S
C914 H933 0.913 . S
C915 H891 0.950 . S
C915 C914 1.524 . S
C915 C916 1.415 . S
C916 H892 0.950 . S
C916 C911 1.363 . S
C916 C915 1.415 . S
C917 H893 0.951 . S
C917 C918 1.366 . S
C917 C919 1.388 . S
C918 C917 1.366 . S
C918 C922 1.385 . S
C919 H894 0.951 . S
C919 C917 1.388 . S
C919 C920 1.366 . S
C920 C919 1.366 . S
C920 C921 1.414 . S
C920 C923 1.499 . S
C921 H895 0.950 . S
C921 C920 1.414 . S
C921 C922 1.374 . S
C922 H896 0.950 . S
C922 C918 1.385 . S
C922 C921 1.374 . S
C923 C920 1.499 . S
C923 C924 1.373 . S
C923 C925 1.389 . S
C924 H897 0.950 . S
C924 C910 1.377 . S
C924 C923 1.373 . S
C925 C909 1.377 . S
C925 C923 1.389 . S
C925 C926 1.524 . S
C926 C925 1.524 . S
C926 C927 1.397 . S
C926 C931 1.363 . S
C927 H898 0.950 . S
C927 C926 1.397 . S
C927 C928 1.334 . S
C928 H899 0.950 . S
C928 C927 1.334 . S
C928 C929 1.287 . S
C929 C928 1.287 . S
C929 C930 1.524 . S
C929 H932 0.999 . S
C930 H900 0.950 . S
C930 C929 1.524 . S
C930 C931 1.415 . S
C931 H901 0.950 . S
C931 C926 1.363 . S
C931 C930 1.415 . S
H932 C929 0.999 . S
H933 C914 0.913 . S
H934 C952 0.951 . S
H935 C954 0.951 . S
H936 C956 0.950 . S
H937 C957 0.950 . S
H938 C959 0.950 . S
H939 C962 0.950 . S
H940 C963 0.950 . S
H941 C965 0.950 . S
H942 C966 0.950 . S
H943 C967 0.951 . S
H944 C969 0.951 . S
H945 C971 0.950 . S
H946 C972 0.950 . S
H947 C974 0.950 . S
H948 C977 0.950 . S
H949 C978 0.950 . S
H950 C980 0.950 . S
H951 C981 0.950 . S
C952 H934 0.951 . S
C952 C953 1.366 . S
C952 C954 1.388 . S
C953 C952 1.366 . S
C953 C957 1.385 . S
C954 H935 0.951 . S
C954 C952 1.388 . S
C954 C955 1.366 . S
C955 C954 1.366 . S
C955 C956 1.414 . S
C955 C958 1.499 . S
C956 H936 0.950 . S
C956 C955 1.414 . S
C956 C957 1.374 . S
C957 H937 0.950 . S
C957 C953 1.385 . S
C957 C956 1.374 . S
C958 C955 1.499 . S
C958 C959 1.373 . S
C958 C960 1.389 . S
C959 H938 0.950 . S
C959 C958 1.373 . S
C959 C975 1.377 . S
C960 C958 1.389 . S
C960 C961 1.524 . S
C960 C974 1.377 . S
C961 C960 1.524 . S
C961 C962 1.397 . S
C961 C966 1.363 . S
C962 H939 0.950 . S
C962 C961 1.397 . S
C962 C963 1.334 . S
C963 H940 0.950 . S
C963 C962 1.334 . S
C963 C964 1.287 . S
C964 C963 1.287 . S
C964 C965 1.524 . S
C964 H983 0.913 . S
C965 H941 0.950 . S
C965 C964 1.524 . S
C965 C966 1.415 . S
C966 H942 0.950 . S
C966 C961 1.363 . S
C966 C965 1.415 . S
C967 H943 0.951 . S
C967 C968 1.366 . S
C967 C969 1.388 . S
C968 C967 1.366 . S
C968 C972 1.385 . S
C969 H944 0.951 . S
C969 C967 1.388 . S
C969 C970 1.366 . S
C970 C969 1.366 . S
C970 C971 1.414 . S
C970 C973 1.499 . S
C971 H945 0.950 . S
C971 C970 1.414 . S
C971 C972 1.374 . S
C972 H946 0.950 . S
C972 C968 1.385 . S
C972 C971 1.374 . S
C973 C970 1.499 . S
C973 C974 1.373 . S
C973 C975 1.389 . S
C974 H947 0.950 . S
C974 C960 1.377 . S
C974 C973 1.373 . S
C975 C959 1.377 . S
C975 C973 1.389 . S
C975 C976 1.524 . S
C976 C975 1.524 . S
C976 C977 1.397 . S
C976 C981 1.363 . S
C977 H948 0.950 . S
C977 C976 1.397 . S
C977 C978 1.334 . S
C978 H949 0.950 . S
C978 C977 1.334 . S
C978 C979 1.287 . S
C979 C978 1.287 . S
C979 C980 1.524 . S
C979 H982 0.999 . S
C980 H950 0.950 . S
C980 C979 1.524 . S
C980 C981 1.415 . S
C981 H951 0.950 . S
C981 C976 1.363 . S
C981 C980 1.415 . S
H982 C979 0.999 . S
H983 C964 0.913 . S
H984 C1002 0.951 . S
H985 C1004 0.951 . S
H986 C1006 0.950 . S
H987 C1007 0.950 . S
H988 C1009 0.950 . S
H989 C1012 0.950 . S
H990 C1013 0.950 . S
H991 C1015 0.950 . S
H992 C1016 0.950 . S
H993 C1017 0.951 . S
H994 C1019 0.951 . S
H995 C1021 0.950 . S
H996 C1022 0.950 . S
H997 C1024 0.950 . S
H998 C1027 0.950 . S
H999 C1028 0.950 1_554 S
H1000 C1030 0.950 . S
H1001 C1031 0.950 . S
C1002 H984 0.951 . S
C1002 C1003 1.366 . S
C1002 C1004 1.388 . S
C1003 C1002 1.366 . S
C1003 C1007 1.385 . S
C1004 H985 0.951 . S
C1004 C1002 1.388 . S
C1004 C1005 1.366 . S
C1005 C1004 1.366 . S
C1005 C1006 1.414 . S
C1005 C1008 1.499 . S
C1006 H986 0.950 . S
C1006 C1005 1.414 . S
C1006 C1007 1.374 . S
C1007 H987 0.950 . S
C1007 C1003 1.385 . S
C1007 C1006 1.374 . S
C1008 C1005 1.499 . S
C1008 C1009 1.373 . S
C1008 C1010 1.389 . S
C1009 H988 0.950 . S
C1009 C1008 1.373 . S
C1009 C1025 1.377 . S
C1010 C1008 1.389 . S
C1010 C1011 1.524 . S
C1010 C1024 1.377 . S
C1011 C1010 1.524 . S
C1011 C1012 1.397 . S
C1011 C1016 1.363 . S
C1012 H989 0.950 . S
C1012 C1011 1.397 . S
C1012 C1013 1.334 . S
C1013 H990 0.950 . S
C1013 C1012 1.334 . S
C1013 C1014 1.287 . S
C1014 C1013 1.287 . S
C1014 C1015 1.524 . S
C1014 H1033 0.913 . S
C1015 H991 0.950 . S
C1015 C1014 1.524 . S
C1015 C1016 1.415 . S
C1016 H992 0.950 . S
C1016 C1011 1.363 . S
C1016 C1015 1.415 . S
C1017 H993 0.951 . S
C1017 C1018 1.366 . S
C1017 C1019 1.388 . S
C1018 C1017 1.366 . S
C1018 C1022 1.385 . S
C1019 H994 0.951 . S
C1019 C1017 1.388 . S
C1019 C1020 1.366 . S
C1020 C1019 1.366 . S
C1020 C1021 1.414 . S
C1020 C1023 1.499 . S
C1021 H995 0.950 . S
C1021 C1020 1.414 . S
C1021 C1022 1.374 . S
C1022 H996 0.950 . S
C1022 C1018 1.385 . S
C1022 C1021 1.374 . S
C1023 C1020 1.499 . S
C1023 C1024 1.373 . S
C1023 C1025 1.389 . S
C1024 H997 0.950 . S
C1024 C1010 1.377 . S
C1024 C1023 1.373 . S
C1025 C1009 1.377 . S
C1025 C1023 1.389 . S
C1025 C1026 1.524 . S
C1026 C1025 1.524 . S
C1026 C1027 1.397 . S
C1026 C1031 1.363 . S
C1027 H998 0.950 . S
C1027 C1026 1.397 . S
C1027 C1028 1.334 . S
C1028 H999 0.950 1_556 S
C1028 C1027 1.334 . S
C1028 C1029 1.285 1_556 S
C1029 C1028 1.285 1_554 S
C1029 C1030 1.522 1_554 S
C1029 H1032 1.003 . S
C1030 H1000 0.950 . S
C1030 C1029 1.522 1_556 S
C1030 C1031 1.415 . S
C1031 H1001 0.950 . S
C1031 C1026 1.363 . S
C1031 C1030 1.415 . S
H1032 C1029 1.003 . S
H1033 C1014 0.913 . S
H1034 C1052 0.951 . S
H1035 C1054 0.951 . S
H1036 C1056 0.950 . S
H1037 C1057 0.950 . S
H1038 C1059 0.950 . S
H1039 C1062 0.950 . S
H1040 C1063 0.950 . S
H1041 C1065 0.950 . S
H1042 C1066 0.950 . S
H1043 C1067 0.951 . S
H1044 C1069 0.951 . S
H1045 C1071 0.950 . S
H1046 C1072 0.950 . S
H1047 C1074 0.950 . S
H1048 C1077 0.950 . S
H1049 C1078 0.950 . S
H1050 C1080 0.950 . S
H1051 C1081 0.950 . S
C1052 H1034 0.951 . S
C1052 C1053 1.366 . S
C1052 C1054 1.388 . S
C1053 C1052 1.366 . S
C1053 C1057 1.385 . S
C1054 H1035 0.951 . S
C1054 C1052 1.388 . S
C1054 C1055 1.366 . S
C1055 C1054 1.366 . S
C1055 C1056 1.414 . S
C1055 C1058 1.499 . S
C1056 H1036 0.950 . S
C1056 C1055 1.414 . S
C1056 C1057 1.374 . S
C1057 H1037 0.950 . S
C1057 C1053 1.385 . S
C1057 C1056 1.374 . S
C1058 C1055 1.499 . S
C1058 C1059 1.373 . S
C1058 C1060 1.389 . S
C1059 H1038 0.950 . S
C1059 C1058 1.373 . S
C1059 C1075 1.377 . S
C1060 C1058 1.389 . S
C1060 C1061 1.524 . S
C1060 C1074 1.377 . S
C1061 C1060 1.524 . S
C1061 C1062 1.397 . S
C1061 C1066 1.363 . S
C1062 H1039 0.950 . S
C1062 C1061 1.397 . S
C1062 C1063 1.334 . S
C1063 H1040 0.950 . S
C1063 C1062 1.334 . S
C1063 C1064 1.287 . S
C1064 C1063 1.287 . S
C1064 C1065 1.524 . S
C1064 H1083 0.913 . S
C1065 H1041 0.950 . S
C1065 C1064 1.524 . S
C1065 C1066 1.415 . S
C1066 H1042 0.950 . S
C1066 C1061 1.363 . S
C1066 C1065 1.415 . S
C1067 H1043 0.951 . S
C1067 C1068 1.366 . S
C1067 C1069 1.388 . S
C1068 C1067 1.366 . S
C1068 C1072 1.385 . S
C1069 H1044 0.951 . S
C1069 C1067 1.388 . S
C1069 C1070 1.366 . S
C1070 C1069 1.366 . S
C1070 C1071 1.414 . S
C1070 C1073 1.499 . S
C1071 H1045 0.950 . S
C1071 C1070 1.414 . S
C1071 C1072 1.374 . S
C1072 H1046 0.950 . S
C1072 C1068 1.385 . S
C1072 C1071 1.374 . S
C1073 C1070 1.499 . S
C1073 C1074 1.373 . S
C1073 C1075 1.389 . S
C1074 H1047 0.950 . S
C1074 C1060 1.377 . S
C1074 C1073 1.373 . S
C1075 C1059 1.377 . S
C1075 C1073 1.389 . S
C1075 C1076 1.524 . S
C1076 C1075 1.524 . S
C1076 C1077 1.397 . S
C1076 C1081 1.363 . S
C1077 H1048 0.950 . S
C1077 C1076 1.397 . S
C1077 C1078 1.334 . S
C1078 H1049 0.950 . S
C1078 C1077 1.334 . S
C1078 C1079 1.287 . S
C1079 C1078 1.287 . S
C1079 C1080 1.524 . S
C1079 H1082 0.999 . S
C1080 H1050 0.950 . S
C1080 C1079 1.524 . S
C1080 C1081 1.415 . S
C1081 H1051 0.950 . S
C1081 C1076 1.363 . S
C1081 C1080 1.415 . S
H1082 C1079 0.999 . S
H1083 C1064 0.913 . S
H1084 C1102 0.951 . S
H1085 C1104 0.951 . S
H1086 C1106 0.950 . S
H1087 C1107 0.950 . S
H1088 C1109 0.950 . S
H1089 C1112 0.950 . S
H1090 C1113 0.950 . S
H1091 C1115 0.950 . S
H1092 C1116 0.950 . S
H1093 C1117 0.951 . S
H1094 C1119 0.951 . S
H1095 C1121 0.950 . S
H1096 C1122 0.950 . S
H1097 C1124 0.950 . S
H1098 C1127 0.950 . S
H1099 C1128 0.950 . S
H1100 C1130 0.950 . S
H1101 C1131 0.950 . S
C1102 H1084 0.951 . S
C1102 C1103 1.366 . S
C1102 C1104 1.388 . S
C1103 C1102 1.366 . S
C1103 C1107 1.385 . S
C1104 H1085 0.951 . S
C1104 C1102 1.388 . S
C1104 C1105 1.366 . S
C1105 C1104 1.366 . S
C1105 C1106 1.414 . S
C1105 C1108 1.499 . S
C1106 H1086 0.950 . S
C1106 C1105 1.414 . S
C1106 C1107 1.374 . S
C1107 H1087 0.950 . S
C1107 C1103 1.385 . S
C1107 C1106 1.374 . S
C1108 C1105 1.499 . S
C1108 C1109 1.373 . S
C1108 C1110 1.389 . S
C1109 H1088 0.950 . S
C1109 C1108 1.373 . S
C1109 C1125 1.377 . S
C1110 C1108 1.389 . S
C1110 C1111 1.524 . S
C1110 C1124 1.377 . S
C1111 C1110 1.524 . S
C1111 C1112 1.397 . S
C1111 C1116 1.363 . S
C1112 H1089 0.950 . S
C1112 C1111 1.397 . S
C1112 C1113 1.334 . S
C1113 H1090 0.950 . S
C1113 C1112 1.334 . S
C1113 C1114 1.287 . S
C1114 C1113 1.287 . S
C1114 C1115 1.524 . S
C1114 H1133 0.913 . S
C1115 H1091 0.950 . S
C1115 C1114 1.524 . S
C1115 C1116 1.415 . S
C1116 H1092 0.950 . S
C1116 C1111 1.363 . S
C1116 C1115 1.415 . S
C1117 H1093 0.951 . S
C1117 C1118 1.366 . S
C1117 C1119 1.388 . S
C1118 C1117 1.366 . S
C1118 C1122 1.385 . S
C1119 H1094 0.951 . S
C1119 C1117 1.388 . S
C1119 C1120 1.366 . S
C1120 C1119 1.366 . S
C1120 C1121 1.414 . S
C1120 C1123 1.499 . S
C1121 H1095 0.950 . S
C1121 C1120 1.414 . S
C1121 C1122 1.374 . S
C1122 H1096 0.950 . S
C1122 C1118 1.385 . S
C1122 C1121 1.374 . S
C1123 C1120 1.499 . S
C1123 C1124 1.373 . S
C1123 C1125 1.389 . S
C1124 H1097 0.950 . S
C1124 C1110 1.377 . S
C1124 C1123 1.373 . S
C1125 C1109 1.377 . S
C1125 C1123 1.389 . S
C1125 C1126 1.524 . S
C1126 C1125 1.524 . S
C1126 C1127 1.397 . S
C1126 C1131 1.363 . S
C1127 H1098 0.950 . S
C1127 C1126 1.397 . S
C1127 C1128 1.334 . S
C1128 H1099 0.950 . S
C1128 C1127 1.334 . S
C1128 C1129 1.287 . S
C1129 C1128 1.287 . S
C1129 C1130 1.524 . S
C1129 H1132 0.999 . S
C1130 H1100 0.950 . S
C1130 C1129 1.524 . S
C1130 C1131 1.415 . S
C1131 H1101 0.950 . S
C1131 C1126 1.363 . S
C1131 C1130 1.415 . S
H1132 C1129 0.999 . S
H1133 C1114 0.913 . S
H1134 C1152 0.951 . S
H1135 C1154 0.951 . S
H1136 C1156 0.950 . S
H1137 C1157 0.950 . S
H1138 C1159 0.950 . S
H1139 C1162 0.950 . S
H1140 C1163 0.950 . S
H1141 C1165 0.950 . S
H1142 C1166 0.950 . S
H1143 C1167 0.951 . S
H1144 C1169 0.951 . S
H1145 C1171 0.950 . S
H1146 C1172 0.950 . S
H1147 C1174 0.950 . S
H1148 C1177 0.950 . S
H1149 C1178 0.950 . S
H1150 C1180 0.950 . S
H1151 C1181 0.950 . S
C1152 H1134 0.951 . S
C1152 C1153 1.366 . S
C1152 C1154 1.388 . S
C1153 C1152 1.366 . S
C1153 C1157 1.385 . S
C1154 H1135 0.951 . S
C1154 C1152 1.388 . S
C1154 C1155 1.366 . S
C1155 C1154 1.366 . S
C1155 C1156 1.414 . S
C1155 C1158 1.499 . S
C1156 H1136 0.950 . S
C1156 C1155 1.414 . S
C1156 C1157 1.374 . S
C1157 H1137 0.950 . S
C1157 C1153 1.385 . S
C1157 C1156 1.374 . S
C1158 C1155 1.499 . S
C1158 C1159 1.373 . S
C1158 C1160 1.389 . S
C1159 H1138 0.950 . S
C1159 C1158 1.373 . S
C1159 C1175 1.377 . S
C1160 C1158 1.389 . S
C1160 C1161 1.524 . S
C1160 C1174 1.377 . S
C1161 C1160 1.524 . S
C1161 C1162 1.397 . S
C1161 C1166 1.363 . S
C1162 H1139 0.950 . S
C1162 C1161 1.397 . S
C1162 C1163 1.334 . S
C1163 H1140 0.950 . S
C1163 C1162 1.334 . S
C1163 C1164 1.287 . S
C1164 C1163 1.287 . S
C1164 C1165 1.524 . S
C1164 H1183 0.913 . S
C1165 H1141 0.950 . S
C1165 C1164 1.524 . S
C1165 C1166 1.415 . S
C1166 H1142 0.950 . S
C1166 C1161 1.363 . S
C1166 C1165 1.415 . S
C1167 H1143 0.951 . S
C1167 C1168 1.366 . S
C1167 C1169 1.388 . S
C1168 C1167 1.366 . S
C1168 C1172 1.385 . S
C1169 H1144 0.951 . S
C1169 C1167 1.388 . S
C1169 C1170 1.366 . S
C1170 C1169 1.366 . S
C1170 C1171 1.414 . S
C1170 C1173 1.499 . S
C1171 H1145 0.950 . S
C1171 C1170 1.414 . S
C1171 C1172 1.374 . S
C1172 H1146 0.950 . S
C1172 C1168 1.385 . S
C1172 C1171 1.374 . S
C1173 C1170 1.499 . S
C1173 C1174 1.373 . S
C1173 C1175 1.389 . S
C1174 H1147 0.950 . S
C1174 C1160 1.377 . S
C1174 C1173 1.373 . S
C1175 C1159 1.377 . S
C1175 C1173 1.389 . S
C1175 C1176 1.524 . S
C1176 C1175 1.524 . S
C1176 C1177 1.397 . S
C1176 C1181 1.363 . S
C1177 H1148 0.950 . S
C1177 C1176 1.397 . S
C1177 C1178 1.334 . S
C1178 H1149 0.950 . S
C1178 C1177 1.334 . S
C1178 C1179 1.287 . S
C1179 C1178 1.287 . S
C1179 C1180 1.524 . S
C1179 H1182 0.999 . S
C1180 H1150 0.950 . S
C1180 C1179 1.524 . S
C1180 C1181 1.415 . S
C1181 H1151 0.950 . S
C1181 C1176 1.363 . S
C1181 C1180 1.415 . S
H1182 C1179 0.999 . S
H1183 C1164 0.913 . S
H1184 C1202 0.951 . S
H1185 C1204 0.951 . S
H1186 C1206 0.950 . S
H1187 C1207 0.950 . S
H1188 C1209 0.950 . S
H1189 C1212 0.950 . S
H1190 C1213 0.950 . S
H1191 C1215 0.941 1_554 S
H1192 C1216 0.950 . S
H1193 C1217 0.951 1_455 S
H1194 C1219 0.951 . S
H1195 C1221 0.950 . S
H1196 C1222 0.950 . S
H1197 C1224 0.950 . S
H1198 C1227 0.950 . S
H1199 C1228 0.950 . S
H1200 C1230 0.950 . S
H1201 C1231 0.950 . S
C1202 H1184 0.951 . S
C1202 C1203 1.366 . S
C1202 C1204 1.388 . S
C1203 C1202 1.366 . S
C1203 C1207 1.385 . S
C1204 H1185 0.951 . S
C1204 C1202 1.388 . S
C1204 C1205 1.366 . S
C1205 C1204 1.366 . S
C1205 C1206 1.414 . S
C1205 C1208 1.499 . S
C1206 H1186 0.950 . S
C1206 C1205 1.414 . S
C1206 C1207 1.374 . S
C1207 H1187 0.950 . S
C1207 C1203 1.385 . S
C1207 C1206 1.374 . S
C1208 C1205 1.499 . S
C1208 C1209 1.373 . S
C1208 C1210 1.389 . S
C1209 H1188 0.950 . S
C1209 C1208 1.373 . S
C1209 C1225 1.377 . S
C1210 C1208 1.389 . S
C1210 C1211 1.524 . S
C1210 C1224 1.377 . S
C1211 C1210 1.524 . S
C1211 C1212 1.397 . S
C1211 C1216 1.363 . S
C1212 H1189 0.950 . S
C1212 C1211 1.397 . S
C1212 C1213 1.334 . S
C1213 H1190 0.950 . S
C1213 C1212 1.334 . S
C1213 C1214 1.287 . S
C1214 C1213 1.287 . S
C1214 C1215 1.524 . S
C1214 H1233 0.913 . S
C1215 H1191 0.941 1_556 S
C1215 C1214 1.524 . S
C1215 C1216 1.415 . S
C1216 H1192 0.950 . S
C1216 C1211 1.363 . S
C1216 C1215 1.415 . S
C1217 H1193 0.951 1_655 S
C1217 C1218 1.366 . S
C1217 C1219 1.388 . S
C1218 C1217 1.366 . S
C1218 C1222 1.385 . S
C1219 H1194 0.951 . S
C1219 C1217 1.388 . S
C1219 C1220 1.366 . S
C1220 C1219 1.366 . S
C1220 C1221 1.414 . S
C1220 C1223 1.499 . S
C1221 H1195 0.950 . S
C1221 C1220 1.414 . S
C1221 C1222 1.374 . S
C1222 H1196 0.950 . S
C1222 C1218 1.385 . S
C1222 C1221 1.374 . S
C1223 C1220 1.499 . S
C1223 C1224 1.373 . S
C1223 C1225 1.389 . S
C1224 H1197 0.950 . S
C1224 C1210 1.377 . S
C1224 C1223 1.373 . S
C1225 C1209 1.377 . S
C1225 C1223 1.389 . S
C1225 C1226 1.524 . S
C1226 C1225 1.524 . S
C1226 C1227 1.397 . S
C1226 C1231 1.363 . S
C1227 H1198 0.950 . S
C1227 C1226 1.397 . S
C1227 C1228 1.334 . S
C1228 H1199 0.950 . S
C1228 C1227 1.334 . S
C1228 C1229 1.287 . S
C1229 C1228 1.287 . S
C1229 C1230 1.524 . S
C1229 H1232 0.999 . S
C1230 H1200 0.950 . S
C1230 C1229 1.524 . S
C1230 C1231 1.415 . S
C1231 H1201 0.950 . S
C1231 C1226 1.363 . S
C1231 C1230 1.415 . S
H1232 C1229 0.999 . S
H1233 C1214 0.913 . S
H1234 C1252 0.951 . S
H1235 C1254 0.951 . S
H1236 C1256 0.950 . S
H1237 C1257 0.950 . S
H1238 C1259 0.950 . S
H1239 C1262 0.950 . S
H1240 C1263 0.950 . S
H1241 C1265 0.950 . S
H1242 C1266 0.950 . S
H1243 C1267 0.951 . S
H1244 C1269 0.951 . S
H1245 C1271 0.950 . S
H1246 C1272 0.950 . S
H1247 C1274 0.950 . S
H1248 C1277 0.950 . S
H1249 C1278 0.950 . S
H1250 C1280 0.950 . S
H1251 C1281 0.950 . S
C1252 H1234 0.951 . S
C1252 C1253 1.366 . S
C1252 C1254 1.388 . S
C1253 C1252 1.366 . S
C1253 C1257 1.385 . S
C1254 H1235 0.951 . S
C1254 C1252 1.388 . S
C1254 C1255 1.366 . S
C1255 C1254 1.366 . S
C1255 C1256 1.414 . S
C1255 C1258 1.499 . S
C1256 H1236 0.950 . S
C1256 C1255 1.414 . S
C1256 C1257 1.374 . S
C1257 H1237 0.950 . S
C1257 C1253 1.385 . S
C1257 C1256 1.374 . S
C1258 C1255 1.499 . S
C1258 C1259 1.373 . S
C1258 C1260 1.389 . S
C1259 H1238 0.950 . S
C1259 C1258 1.373 . S
C1259 C1275 1.377 . S
C1260 C1258 1.389 . S
C1260 C1261 1.524 . S
C1260 C1274 1.377 . S
C1261 C1260 1.524 . S
C1261 C1262 1.397 . S
C1261 C1266 1.363 . S
C1262 H1239 0.950 . S
C1262 C1261 1.397 . S
C1262 C1263 1.334 . S
C1263 H1240 0.950 . S
C1263 C1262 1.334 . S
C1263 C1264 1.287 . S
C1264 C1263 1.287 . S
C1264 C1265 1.524 . S
C1264 H1283 0.913 . S
C1265 H1241 0.950 . S
C1265 C1264 1.524 . S
C1265 C1266 1.415 . S
C1266 H1242 0.950 . S
C1266 C1261 1.363 . S
C1266 C1265 1.415 . S
C1267 H1243 0.951 . S
C1267 C1268 1.366 . S
C1267 C1269 1.388 . S
C1268 C1267 1.366 . S
C1268 C1272 1.385 . S
C1269 H1244 0.951 . S
C1269 C1267 1.388 . S
C1269 C1270 1.366 . S
C1270 C1269 1.366 . S
C1270 C1271 1.414 . S
C1270 C1273 1.499 . S
C1271 H1245 0.950 . S
C1271 C1270 1.414 . S
C1271 C1272 1.374 . S
C1272 H1246 0.950 . S
C1272 C1268 1.385 . S
C1272 C1271 1.374 . S
C1273 C1270 1.499 . S
C1273 C1274 1.373 . S
C1273 C1275 1.389 . S
C1274 H1247 0.950 . S
C1274 C1260 1.377 . S
C1274 C1273 1.373 . S
C1275 C1259 1.377 . S
C1275 C1273 1.389 . S
C1275 C1276 1.524 . S
C1276 C1275 1.524 . S
C1276 C1277 1.397 . S
C1276 C1281 1.363 . S
C1277 H1248 0.950 . S
C1277 C1276 1.397 . S
C1277 C1278 1.334 . S
C1278 H1249 0.950 . S
C1278 C1277 1.334 . S
C1278 C1279 1.287 . S
C1279 C1278 1.287 . S
C1279 C1280 1.524 . S
C1279 H1282 0.999 . S
C1280 H1250 0.950 . S
C1280 C1279 1.524 . S
C1280 C1281 1.415 . S
C1281 H1251 0.950 . S
C1281 C1276 1.363 . S
C1281 C1280 1.415 . S
H1282 C1279 0.999 . S
H1283 C1264 0.913 . S
H1284 C1302 0.951 . S
H1285 C1304 0.951 . S
H1286 C1306 0.950 . S
H1287 C1307 0.950 . S
H1288 C1309 0.950 . S
H1289 C1312 0.950 . S
H1290 C1313 0.950 . S
H1291 C1315 0.950 . S
H1292 C1316 0.950 . S
H1293 C1317 0.951 . S
H1294 C1319 0.951 . S
H1295 C1321 0.950 . S
H1296 C1322 0.950 . S
H1297 C1324 0.950 . S
H1298 C1327 0.950 . S
H1299 C1328 0.950 . S
H1300 C1330 0.950 . S
H1301 C1331 0.950 . S
C1302 H1284 0.951 . S
C1302 C1303 1.366 . S
C1302 C1304 1.388 . S
C1303 C1302 1.366 . S
C1303 C1307 1.385 . S
C1304 H1285 0.951 . S
C1304 C1302 1.388 . S
C1304 C1305 1.366 . S
C1305 C1304 1.366 . S
C1305 C1306 1.414 . S
C1305 C1308 1.499 . S
C1306 H1286 0.950 . S
C1306 C1305 1.414 . S
C1306 C1307 1.374 . S
C1307 H1287 0.950 . S
C1307 C1303 1.385 . S
C1307 C1306 1.374 . S
C1308 C1305 1.499 . S
C1308 C1309 1.373 . S
C1308 C1310 1.389 . S
C1309 H1288 0.950 . S
C1309 C1308 1.373 . S
C1309 C1325 1.377 . S
C1310 C1308 1.389 . S
C1310 C1311 1.524 . S
C1310 C1324 1.377 . S
C1311 C1310 1.524 . S
C1311 C1312 1.397 . S
C1311 C1316 1.363 . S
C1312 H1289 0.950 . S
C1312 C1311 1.397 . S
C1312 C1313 1.334 . S
C1313 H1290 0.950 . S
C1313 C1312 1.334 . S
C1313 C1314 1.287 . S
C1314 C1313 1.287 . S
C1314 C1315 1.524 . S
C1314 H1333 0.913 . S
C1315 H1291 0.950 . S
C1315 C1314 1.524 . S
C1315 C1316 1.415 . S
C1316 H1292 0.950 . S
C1316 C1311 1.363 . S
C1316 C1315 1.415 . S
C1317 H1293 0.951 . S
C1317 C1318 1.366 . S
C1317 C1319 1.388 . S
C1318 C1317 1.366 . S
C1318 C1322 1.385 . S
C1319 H1294 0.951 . S
C1319 C1317 1.388 . S
C1319 C1320 1.366 . S
C1320 C1319 1.366 . S
C1320 C1321 1.414 . S
C1320 C1323 1.499 . S
C1321 H1295 0.950 . S
C1321 C1320 1.414 . S
C1321 C1322 1.374 . S
C1322 H1296 0.950 . S
C1322 C1318 1.385 . S
C1322 C1321 1.374 . S
C1323 C1320 1.499 . S
C1323 C1324 1.373 . S
C1323 C1325 1.389 . S
C1324 H1297 0.950 . S
C1324 C1310 1.377 . S
C1324 C1323 1.373 . S
C1325 C1309 1.377 . S
C1325 C1323 1.389 . S
C1325 C1326 1.524 . S
C1326 C1325 1.524 . S
C1326 C1327 1.397 . S
C1326 C1331 1.363 . S
C1327 H1298 0.950 . S
C1327 C1326 1.397 . S
C1327 C1328 1.334 . S
C1328 H1299 0.950 . S
C1328 C1327 1.334 . S
C1328 C1329 1.287 . S
C1329 C1328 1.287 . S
C1329 C1330 1.524 . S
C1329 H1332 0.999 . S
C1330 H1300 0.950 . S
C1330 C1329 1.524 . S
C1330 C1331 1.415 . S
C1331 H1301 0.950 . S
C1331 C1326 1.363 . S
C1331 C1330 1.415 . S
H1332 C1329 0.999 . S
H1333 C1314 0.913 . S
H1334 C1352 0.951 . S
H1335 C1354 0.951 . S
H1336 C1356 0.950 . S
H1337 C1357 0.950 . S
H1338 C1359 0.950 . S
H1339 C1362 0.950 . S
H1340 C1363 0.950 . S
H1341 C1365 0.950 . S
H1342 C1366 0.950 . S
H1343 C1367 0.951 . S
H1344 C1369 0.951 . S
H1345 C1371 0.950 . S
H1346 C1372 0.950 . S
H1347 C1374 0.950 . S
H1348 C1377 0.950 . S
H1349 C1378 0.950 . S
H1350 C1380 0.950 . S
H1351 C1381 0.950 . S
C1352 H1334 0.951 . S
C1352 C1353 1.366 . S
C1352 C1354 1.388 . S
C1353 C1352 1.366 . S
C1353 C1357 1.385 . S
C1354 H1335 0.951 . S
C1354 C1352 1.388 . S
C1354 C1355 1.366 . S
C1355 C1354 1.366 . S
C1355 C1356 1.414 . S
C1355 C1358 1.499 . S
C1356 H1336 0.950 . S
C1356 C1355 1.414 . S
C1356 C1357 1.374 . S
C1357 H1337 0.950 . S
C1357 C1353 1.385 . S
C1357 C1356 1.374 . S
C1358 C1355 1.499 . S
C1358 C1359 1.373 . S
C1358 C1360 1.389 . S
C1359 H1338 0.950 . S
C1359 C1358 1.373 . S
C1359 C1375 1.377 . S
C1360 C1358 1.389 . S
C1360 C1361 1.524 . S
C1360 C1374 1.377 . S
C1361 C1360 1.524 . S
C1361 C1362 1.397 . S
C1361 C1366 1.363 . S
C1362 H1339 0.950 . S
C1362 C1361 1.397 . S
C1362 C1363 1.334 . S
C1363 H1340 0.950 . S
C1363 C1362 1.334 . S
C1363 C1364 1.287 . S
C1364 C1363 1.287 . S
C1364 C1365 1.524 . S
C1364 H1383 0.913 . S
C1365 H1341 0.950 . S
C1365 C1364 1.524 . S
C1365 C1366 1.415 . S
C1366 H1342 0.950 . S
C1366 C1361 1.363 . S
C1366 C1365 1.415 . S
C1367 H1343 0.951 . S
C1367 C1368 1.366 . S
C1367 C1369 1.388 . S
C1368 C1367 1.366 . S
C1368 C1372 1.385 . S
C1369 H1344 0.951 . S
C1369 C1367 1.388 . S
C1369 C1370 1.366 . S
C1370 C1369 1.366 . S
C1370 C1371 1.414 . S
C1370 C1373 1.499 . S
C1371 H1345 0.950 . S
C1371 C1370 1.414 . S
C1371 C1372 1.374 . S
C1372 H1346 0.950 . S
C1372 C1368 1.385 . S
C1372 C1371 1.374 . S
C1373 C1370 1.499 . S
C1373 C1374 1.373 . S
C1373 C1375 1.389 . S
C1374 H1347 0.950 . S
C1374 C1360 1.377 . S
C1374 C1373 1.373 . S
C1375 C1359 1.377 . S
C1375 C1373 1.389 . S
C1375 C1376 1.524 . S
C1376 C1375 1.524 . S
C1376 C1377 1.397 . S
C1376 C1381 1.363 . S
C1377 H1348 0.950 . S
C1377 C1376 1.397 . S
C1377 C1378 1.334 . S
C1378 H1349 0.950 . S
C1378 C1377 1.334 . S
C1378 C1379 1.287 . S
C1379 C1378 1.287 . S
C1379 C1380 1.524 . S
C1379 H1382 0.999 . S
C1380 H1350 0.950 . S
C1380 C1379 1.524 . S
C1380 C1381 1.415 . S
C1381 H1351 0.950 . S
C1381 C1376 1.363 . S
C1381 C1380 1.415 . S
H1382 C1379 0.999 . S
H1383 C1364 0.913 . S
C203 C9 1.959 . S
C218 C123 1.951 . S
C253 C21 1.292 . S
C268 C126 1.261 . S
C318 C162 1.306 . S
C303 C30 1.284 . S
C353 C43 1.420 . S
C368 C182 1.433 . S
C418 C136 1.615 . S
C403 C4 1.598 . S
C468 C113 2.174 . S
C453 C22 2.189 . S
C518 C166 1.159 . S
C503 C34 1.260 . S
C568 C146 1.148 . S
C553 C48 1.209 . S
C603 C8 1.427 . S
C618 C176 1.370 . S
C668 C142 1.682 . S
C653 C35 1.693 . S
C703 C47 1.793 . S
C718 C108 1.750 . S
C753 C17 1.123 . S
C768 C156 1.103 . S
C818 C122 1.479 . S
C803 C60 1.495 . S
C853 C74 1.528 . S
C868 C128 1.458 . S
C903 C82 1.122 . S
C918 C163 1.138 . S
C953 C100 1.942 . S
C968 C183 1.921 . S
C1003 C61 2.132 . S
C1018 C133 2.105 . S
C1068 C116 1.672 . S
C1053 C73 1.703 . S
C1118 C168 1.679 . S
C1103 C87 1.752 . S
C1168 C148 1.002 . S
C1153 C95 1.055 . S
C1203 C56 1.379 . S
C1218 C173 1.343 . S
C1268 C143 1.700 . S
C1253 C86 1.727 . S
C1318 C106 1.602 . S
C1303 C99 1.660 . S
C1353 C69 1.174 . S
C1368 C153 1.183 . S
