# Generated by pormake.
# Topology sqc, (4,8)-cn, num edge types: 1
# Building blocks:
#     Node 0, Type 0, BuildingBlock: NAHDIM_clean_linker_0, # of connection points: 4
#     Node 1, Type 0, BuildingBlock: NAHDIM_clean_linker_0, # of connection points: 4
#     Node 2, Type 0, BuildingBlock: NAHDIM_clean_linker_0, # of connection points: 4
#     Node 3, Type 0, BuildingBlock: NAHDIM_clean_linker_0, # of connection points: 4
#     Node 4, Type 0, BuildingBlock: NAHDIM_clean_linker_0, # of connection points: 4
#     Node 5, Type 0, BuildingBlock: NAHDIM_clean_linker_0, # of connection points: 4
#     Node 6, Type 0, BuildingBlock: NAHDIM_clean_linker_0, # of connection points: 4
#     Node 7, Type 0, BuildingBlock: NAHDIM_clean_linker_0, # of connection points: 4
#     Node 8, Type 1, BuildingBlock: TAGTUT_clean_sbu_3, # of connection points: 8
#     Node 9, Type 1, BuildingBlock: TAGTUT_clean_sbu_3, # of connection points: 8
#     Node 10, Type 1, BuildingBlock: TAGTUT_clean_sbu_3, # of connection points: 8
#     Node 11, Type 1, BuildingBlock: TAGTUT_clean_sbu_3, # of connection points: 8
#     Edge 12, Type (0, 1), None
#     Edge 13, Type (0, 1), None
#     Edge 14, Type (0, 1), None
#     Edge 15, Type (0, 1), None
#     Edge 16, Type (0, 1), None
#     Edge 17, Type (0, 1), None
#     Edge 18, Type (0, 1), None
#     Edge 19, Type (0, 1), None
#     Edge 20, Type (0, 1), None
#     Edge 21, Type (0, 1), None
#     Edge 22, Type (0, 1), None
#     Edge 23, Type (0, 1), None
#     Edge 24, Type (0, 1), None
#     Edge 25, Type (0, 1), None
#     Edge 26, Type (0, 1), None
#     Edge 27, Type (0, 1), None
#     Edge 28, Type (0, 1), None
#     Edge 29, Type (0, 1), None
#     Edge 30, Type (0, 1), None
#     Edge 31, Type (0, 1), None
#     Edge 32, Type (0, 1), None
#     Edge 33, Type (0, 1), None
#     Edge 34, Type (0, 1), None
#     Edge 35, Type (0, 1), None
#     Edge 36, Type (0, 1), None
#     Edge 37, Type (0, 1), None
#     Edge 38, Type (0, 1), None
#     Edge 39, Type (0, 1), None
#     Edge 40, Type (0, 1), None
#     Edge 41, Type (0, 1), None
#     Edge 42, Type (0, 1), None
#     Edge 43, Type (0, 1), None
# Relax obj value: 0.119
# Max RMSD: 0.245
# Mean RMSD: 0.119
data_MOF--net-sqc--node1-TAGTUT_clean_sbu_3--node2-NAHDIM_clean_linker_0--edge1-none
_symmetry_space_group_name_H-M    P1
_symmetry_Int_Tables_number       1
_symmetry_cell_setting            triclinic
loop_
_symmetry_equiv_pos_as_xyz
'x, y, z'
_cell_length_a     19.852758
_cell_length_b     19.693197
_cell_length_c     65.786338
_cell_angle_alpha  90.160045
_cell_angle_beta   89.259536
_cell_angle_gamma 89.867702
loop_
_atom_site_label
_atom_site_type_symbol
_atom_site_fract_x
_atom_site_fract_y
_atom_site_fract_z
_atom_type_partial_charge
C0 C 0.62805 0.84462 0.4052 0.0
C1 C 0.68778 0.80349 0.39673 0.0
C2 C 0.79364 0.85755 0.40695 0.0
C3 C 0.81982 0.80635 0.41947 0.0
C4 C 0.87435 0.81955 0.43228 0.0
C5 C 0.90384 0.88487 0.4324 0.0
C6 C 0.87786 0.93634 0.41973 0.0
C7 C 0.82332 0.92178 0.40708 0.0
C8 C 0.90177 0.76317 0.4453 0.0
C9 C 0.90869 0.00629 0.41921 0.0
C10 C 0.4275 0.79157 0.42134 0.0
C11 C 0.37944 0.79898 0.40344 0.0
C12 C 0.27881 0.86228 0.41477 0.0
C13 C 0.24399 0.92319 0.41218 0.0
C14 C 0.1807 0.93379 0.42127 0.0
C15 C 0.15188 0.88201 0.43339 0.0
C16 C 0.18649 0.81987 0.43602 0.0
C17 C 0.24976 0.81049 0.42665 0.0
C18 C 0.14533 0.00092 0.41833 0.0
C19 C 0.15703 0.76403 0.44903 0.0
C20 C 0.27954 0.05274 0.54999 0.0
C21 C 0.25255 0.09827 0.53576 0.0
C22 C 0.18791 0.08829 0.52779 0.0
C23 C 0.14998 0.03059 0.53364 0.0
C24 C 0.17641 0.98537 0.5482 0.0
C25 C 0.24059 -0.00269 0.55623 0.0
C26 C 0.16224 0.1385 0.51243 0.0
C27 C 0.13768 0.92325 0.5548 0.0
C28 C 0.64989 0.04094 0.58057 0.0
C29 C 0.70471 0.09474 0.58327 0.0
C30 C 0.78471 0.08798 0.55439 0.0
C31 C 0.80758 0.12185 0.53703 0.0
C32 C 0.86482 0.09956 0.52618 0.0
C33 C 0.90025 0.04142 0.53299 0.0
C34 C 0.87586 0.00531 0.55014 0.0
C35 C 0.81832 0.02878 0.56062 0.0
C36 C 0.88543 0.13801 0.50726 0.0
C37 C 0.9104 0.94162 0.55741 0.0
C38 C 0.96571 0.89756 0.44426 0.0
C39 C 0.02747 0.88247 0.43485 0.0
C40 C 0.0881 0.89528 0.44461 0.0
C41 C 0.08782 0.92338 0.46437 0.0
C42 C 0.14827 0.93644 0.47456 0.0
C43 C 0.14777 0.96504 0.49386 0.0
C44 C 0.08684 0.9827 0.50365 0.0
C45 C 0.0862 0.01385 0.52304 0.0
C46 C 0.02471 0.03213 0.53215 0.0
C47 C 0.96338 0.01895 0.52255 0.0
C48 C 0.96316 0.98646 0.50332 0.0
C49 C 0.90265 0.97096 0.49339 0.0
C50 C 0.90319 0.94151 0.4741 0.0
C51 C 0.96424 0.92591 0.46408 0.0
C52 C 0.0257 0.93919 0.4741 0.0
C53 C 0.0252 0.96928 0.49374 0.0
C54 C 0.444 0.08627 0.53979 0.0
C55 C 0.38979 0.10987 0.55497 0.0
O56 O 0.74219 0.84657 0.39389 0.0
O57 O 0.73001 0.11391 0.56443 0.0
O58 O 0.34247 0.05888 0.55792 0.0
O59 O 0.34063 0.8568 0.40589 0.0
H60 H 0.69844 0.76279 0.40784 0.0
H61 H 0.61418 0.88589 0.39455 0.0
H62 H 0.64178 0.86789 0.41998 0.0
H63 H 0.58385 0.81113 0.40784 0.0
H64 H 0.79983 0.7554 0.41887 0.0
H65 H 0.80351 0.96066 0.39716 0.0
H66 H 0.95331 0.74956 0.43992 0.0
H67 H 0.86981 0.71697 0.44486 0.0
H68 H 0.90563 0.7806 0.46131 0.0
H69 H 0.88122 0.04136 0.40902 0.0
H70 H 0.96188 0.00268 0.4139 0.0
H71 H 0.90882 0.02829 0.43477 0.0
H72 H 0.34747 0.75275 0.40248 0.0
H73 H 0.45824 0.8382 0.42322 0.0
H74 H 0.46166 0.74753 0.41893 0.0
H75 H 0.39832 0.78312 0.43562 0.0
H76 H 0.267 0.96279 0.40305 0.0
H77 H 0.2765 0.76336 0.42907 0.0
H78 H 0.13751 0.02625 0.43328 0.0
H79 H 0.09493 -0.00779 0.4117 0.0
H80 H 0.17421 0.03562 0.4082 0.0
H81 H 0.19239 0.72082 0.45087 0.0
H82 H 0.10998 0.74519 0.44204 0.0
H83 H 0.14363 0.78394 0.46436 0.0
H84 H 0.36661 0.15674 0.54896 0.0
H85 H 0.28133 0.14111 0.53037 0.0
H86 H 0.26138 0.9624 0.56722 0.0
H87 H 0.10711 0.13553 0.51021 0.0
H88 H 0.18755 0.12857 0.49758 0.0
H89 H 0.17468 0.19099 0.51726 0.0
H90 H 0.16535 0.89268 0.56616 0.0
H91 H 0.12723 0.89076 0.54139 0.0
H92 H 0.08843 0.93883 0.56152 0.0
H93 H 0.74551 0.07374 0.59284 0.0
H94 H 0.63002 0.0245 0.59562 0.0
H95 H 0.67128 -0.0043 0.57269 0.0
H96 H 0.60795 0.0611 0.5713 0.0
H97 H 0.78052 0.16654 0.53202 0.0
H98 H 0.79997 0.00017 0.57355 0.0
H99 H 0.85587 0.1187 0.49427 0.0
H100 H 0.93963 0.13197 0.5034 0.0
H101 H 0.874 0.19302 0.50894 0.0
H102 H 0.87894 0.91312 0.56855 0.0
H103 H 0.95831 0.95554 0.56484 0.0
H104 H 0.92282 0.90763 0.54438 0.0
H105 H 0.0284 0.86151 0.41957 0.0
H106 H 0.19686 0.92469 0.46775 0.0
H107 H 0.19599 0.9735 0.50091 0.0
H108 H 0.02462 0.05754 0.5468 0.0
H109 H 0.85413 0.98177 0.50038 0.0
H110 H 0.85519 0.93135 0.46709 0.0
H111 H 0.48289 0.12629 0.53778 0.0
H112 H 0.42074 0.07629 0.52481 0.0
H113 H 0.46845 0.0388 0.54509 0.0
C114 C 0.12553 0.03801 0.81605 0.0
C115 C 0.11412 0.00192 0.83656 0.0
C116 C 0.17733 0.89636 0.8296 0.0
C117 C 0.23857 0.86369 0.83305 0.0
C118 C 0.25746 0.8057 0.82196 0.0
C119 C 0.2137 0.77993 0.80703 0.0
C120 C 0.15034 0.81109 0.80399 0.0
C121 C 0.13242 0.86865 0.81548 0.0
C122 C 0.32507 0.77325 0.82573 0.0
C123 C 0.10297 0.78584 0.78791 0.0
C124 C 0.10676 0.25422 0.8151 0.0
C125 C 0.10052 0.32365 0.82552 0.0
C126 C 0.18358 0.41043 0.81563 0.0
C127 C 0.14973 0.43572 0.79857 0.0
C128 C 0.16911 0.49729 0.78961 0.0
C129 C 0.22574 0.53234 0.79715 0.0
C130 C 0.26258 0.50465 0.81344 0.0
C131 C 0.24065 0.4442 0.82254 0.0
C132 C 0.12824 0.5252 0.77229 0.0
C133 C 0.32403 0.53982 0.82164 0.0
C134 C 0.43258 0.4802 0.67178 0.0
C135 C 0.3863 0.5311 0.66657 0.0
C136 C 0.36672 0.58105 0.68061 0.0
C137 C 0.39971 0.58543 0.69958 0.0
C138 C 0.45211 0.53877 0.70396 0.0
C139 C 0.46589 0.48528 0.69031 0.0
C140 C 0.30928 0.62778 0.67512 0.0
C141 C 0.49304 0.54368 0.72308 0.0
C142 C 0.36479 0.92819 0.6343 0.0
C143 C 0.36581 -0.00788 0.64782 0.0
C144 C 0.38842 0.93634 0.68042 0.0
C145 C 0.32523 0.90496 0.68251 0.0
C146 C 0.3159 0.85119 0.69614 0.0
C147 C 0.37036 0.82983 0.70822 0.0
C148 C 0.43096 0.86706 0.70806 0.0
C149 C 0.43961 0.91957 0.69391 0.0
C150 C 0.24893 0.81507 0.69685 0.0
C151 C 0.48784 0.84957 0.72206 0.0
C152 C 0.23585 0.72253 0.79394 0.0
C153 C 0.22304 0.65665 0.80064 0.0
C154 C 0.24329 0.6003 0.78911 0.0
C155 C 0.27775 0.6096 0.77036 0.0
C156 C 0.29883 0.55414 0.75833 0.0
C157 C 0.33155 0.56411 0.73971 0.0
C158 C 0.34638 0.62987 0.73271 0.0
C159 C 0.38094 0.64104 0.714 0.0
C160 C 0.39251 0.70749 0.7075 0.0
C161 C 0.36729 0.76303 0.71837 0.0
C162 C 0.33556 0.75335 0.73737 0.0
C163 C 0.3139 0.80887 0.74922 0.0
C164 C 0.28183 0.79894 0.76785 0.0
C165 C 0.26941 0.73307 0.77517 0.0
C166 C 0.29085 0.67634 0.76341 0.0
C167 C 0.32494 0.68649 0.74459 0.0
C168 C 0.33063 0.38584 0.65292 0.0
C169 C 0.40192 0.40207 0.64432 0.0
O170 O 0.16485 0.95507 0.83987 0.0
O171 O 0.40285 0.98078 0.66522 0.0
O172 O 0.44351 0.42432 0.65983 0.0
O173 O 0.16321 0.35424 0.82595 0.0
H174 H 0.06418 0.97648 0.83675 0.0
H175 H 0.1216 0.00196 0.80318 0.0
H176 H 0.17658 0.06101 0.81531 0.0
H177 H 0.08739 0.07866 0.81394 0.0
H178 H 0.27246 0.88497 0.84416 0.0
H179 H 0.08398 0.89225 0.81304 0.0
H180 H 0.31813 0.719 0.82978 0.0
H181 H 0.35283 0.79886 0.83814 0.0
H182 H 0.35631 0.77502 0.81162 0.0
H183 H 0.05086 0.80492 0.79046 0.0
H184 H 0.10206 0.72954 0.78743 0.0
H185 H 0.12096 0.80386 0.77282 0.0
H186 H 0.06348 0.3547 0.81712 0.0
H187 H 0.05718 0.22815 0.81503 0.0
H188 H 0.14399 0.22176 0.82301 0.0
H189 H 0.12392 0.26103 0.7991 0.0
H190 H 0.10802 0.40825 0.79213 0.0
H191 H 0.26727 0.42369 0.83544 0.0
H192 H 0.15708 0.51899 0.75785 0.0
H193 H 0.11826 0.58026 0.77447 0.0
H194 H 0.07926 0.49862 0.77074 0.0
H195 H 0.35346 0.50627 0.83178 0.0
H196 H 0.30797 0.5853 0.83046 0.0
H197 H 0.35725 0.55718 0.80898 0.0
H198 H 0.39825 0.44182 0.63243 0.0
H199 H 0.36235 0.53023 0.6519 0.0
H200 H 0.502 0.44653 0.69429 0.0
H201 H 0.27583 0.63736 0.68848 0.0
H202 H 0.27829 0.60643 0.66271 0.0
H203 H 0.32984 0.67708 0.66981 0.0
H204 H 0.54515 0.52476 0.72037 0.0
H205 H 0.46979 0.51123 0.735 0.0
H206 H 0.49571 0.59646 0.72896 0.0
H207 H 0.31344 0.0075 0.65198 0.0
H208 H 0.34057 0.93967 0.61956 0.0
H209 H 0.33551 0.88683 0.64159 0.0
H210 H 0.41679 0.90929 0.63131 0.0
H211 H 0.28386 0.92012 0.67299 0.0
H212 H 0.48748 0.94567 0.69274 0.0
H213 H 0.22916 0.81399 0.7127 0.0
H214 H 0.25559 0.76173 0.69177 0.0
H215 H 0.21087 0.8397 0.68705 0.0
H216 H 0.51267 0.89648 0.72747 0.0
H217 H 0.52544 0.81851 0.71359 0.0
H218 H 0.47073 0.8206 0.73561 0.0
H219 H 0.19656 0.64914 0.81499 0.0
H220 H 0.28975 0.50236 0.76311 0.0
H221 H 0.34505 0.51955 0.7309 0.0
H222 H 0.41807 0.71605 0.69304 0.0
H223 H 0.32192 0.86063 0.74424 0.0
H224 H 0.26647 0.84361 0.77636 0.0
H225 H 0.29645 0.37079 0.64045 0.0
H226 H 0.30645 0.4298 0.66056 0.0
H227 H 0.33333 0.34388 0.66415 0.0
C228 C 0.81644 0.8112 0.15003 0.0
C229 C 0.84256 0.82944 0.12881 0.0
C230 C 0.77898 0.91853 0.11073 0.0
C231 C 0.75852 0.87997 0.09389 0.0
C232 C 0.70942 0.90475 0.08061 0.0
C233 C 0.68178 0.97047 0.08379 0.0
C234 C 0.70479 0.01063 0.10016 0.0
C235 C 0.75287 0.98393 0.11342 0.0
C236 C 0.68716 0.8602 0.06323 0.0
C237 C 0.67826 0.08151 0.10386 0.0
C238 C 0.13163 0.07946 0.08838 0.0
C239 C 0.18326 0.02155 0.08868 0.0
C240 C 0.30575 0.03408 0.09079 0.0
C241 C 0.35465 0.08212 0.09556 0.0
C242 C 0.42067 0.07632 0.08787 0.0
C243 C 0.43874 0.01929 0.07577 0.0
C244 C 0.39068 0.96772 0.07221 0.0
C245 C 0.3243 0.97649 0.07932 0.0
C246 C 0.47056 0.13187 0.0924 0.0
C247 C 0.40875 0.90386 0.06056 0.0
C248 C 0.39644 0.06964 0.93652 0.0
C249 C 0.44379 0.12188 0.93895 0.0
C250 C 0.49082 0.11994 0.95458 0.0
C251 C 0.49679 0.06058 0.96659 0.0
C252 C 0.45359 0.00467 0.96278 0.0
C253 C 0.40251 0.01104 0.94828 0.0
C254 C 0.53308 0.18242 0.95823 0.0
C255 C 0.46076 0.9379 0.97379 0.0
C256 C 0.01075 0.18805 0.96494 0.0
C257 C 0.96777 0.14638 0.95038 0.0
C258 C 0.84988 0.14375 0.95989 0.0
C259 C 0.80895 0.18386 0.97242 0.0
C260 C 0.753 0.15607 0.98253 0.0
C261 C 0.73716 0.08658 0.9796 0.0
C262 C 0.7787 0.04567 0.96693 0.0
C263 C 0.8347 0.07483 0.95712 0.0
C264 C 0.71036 0.20139 -0.00391 0.0
C265 C 0.76312 0.97167 0.96343 0.0
C266 C 0.6272 -0.0042 0.07043 0.0
C267 C 0.56133 -0.0028 0.0783 0.0
C268 C 0.50682 0.01525 0.06615 0.0
C269 C 0.51754 0.02879 0.04523 0.0
C270 C 0.4638 0.0441 0.03222 0.0
C271 C 0.47465 0.05305 0.01143 0.0
C272 C 0.53986 0.04922 0.00296 0.0
C273 C 0.55176 0.05556 0.98176 0.0
C274 C 0.61803 0.06011 0.97447 0.0
C275 C 0.6724 0.06016 -0.01234 0.0
C276 C 0.66192 0.04528 0.00841 0.0
C277 C 0.71624 0.03622 0.0216 0.0
C278 C 0.70513 0.02001 0.04196 0.0
C279 C 0.63928 0.01438 0.04995 0.0
C280 C 0.58398 0.02774 0.03712 0.0
C281 C 0.59524 0.04022 0.01613 0.0
C282 C 0.30185 0.18911 0.92848 0.0
C283 C 0.3238 0.13296 0.91333 0.0
O284 O 0.82441 0.89594 0.12451 0.0
O285 O 0.90331 0.17298 0.95044 0.0
O286 O 0.34361 0.07476 0.92354 0.0
O287 O 0.24166 0.04506 0.09757 0.0
H288 H 0.82034 0.79205 0.11824 0.0
H289 H 0.76065 0.81552 0.15056 0.0
H290 H 0.83766 0.84604 0.16154 0.0
H291 H 0.83051 0.75814 0.15389 0.0
H292 H 0.7807 0.83088 0.09073 0.0
H293 H 0.76984 0.01395 0.12621 0.0
H294 H 0.70343 0.80669 0.06516 0.0
H295 H 0.70972 0.87905 0.04882 0.0
H296 H 0.63155 0.86166 0.06173 0.0
H297 H 0.71142 0.11102 0.11409 0.0
H298 H 0.62764 0.07828 0.11113 0.0
H299 H 0.67314 0.10946 0.08932 0.0
H300 H 0.19265 0.00698 0.07252 0.0
H301 H 0.08393 0.06201 0.08143 0.0
H302 H 0.15173 0.12226 0.07918 0.0
H303 H 0.12094 0.09837 0.10404 0.0
H304 H 0.34018 0.1257 0.10474 0.0
H305 H 0.28749 0.938 0.07587 0.0
H306 H 0.49624 0.14875 0.0782 0.0
H307 H 0.50962 0.11186 0.10271 0.0
H308 H 0.44631 0.17658 0.09983 0.0
H309 H 0.37195 0.86249 0.06351 0.0
H310 H 0.4598 0.88557 0.0646 0.0
H311 H 0.40885 0.91475 0.04402 0.0
H312 H 0.36562 0.15186 0.90345 0.0
H313 H 0.44344 0.16561 0.92905 0.0
H314 H 0.3672 0.9699 0.94599 0.0
H315 H 0.54197 0.19032 0.9747 0.0
H316 H 0.50864 0.22871 0.95211 0.0
H317 H 0.58251 0.17667 0.95035 0.0
H318 H 0.44024 0.89524 0.9647 0.0
H319 H 0.43182 0.94013 -0.01169 0.0
H320 H 0.51417 0.92655 0.97726 0.0
H321 H 0.96869 0.09285 0.95581 0.0
H322 H 0.06305 0.16785 0.96524 0.0
H323 H -0.01091 0.18515 0.98057 0.0
H324 H 0.01217 0.24222 0.96025 0.0
H325 H 0.82142 0.23699 0.9744 0.0
H326 H 0.86575 0.04427 0.94697 0.0
H327 H 0.71348 0.18355 0.01204 0.0
H328 H 0.65673 0.19874 -0.00839 0.0
H329 H 0.72687 0.25524 -0.00444 0.0
H330 H 0.80563 0.94447 0.95584 0.0
H331 H 0.71807 0.96738 0.9537 0.0
H332 H 0.75125 0.94633 0.97811 0.0
H333 H 0.55228 0.98372 0.09408 0.0
H334 H 0.4125 0.04803 0.03785 0.0
H335 H 0.43136 0.06346 0.00209 0.0
H336 H 0.62736 0.06776 0.95835 0.0
H337 H 0.76783 0.03984 0.01615 0.0
H338 H 0.74871 0.01228 0.05142 0.0
H339 H 0.34405 0.20887 0.93751 0.0
H340 H 0.26286 0.16971 0.93925 0.0
H341 H 0.28065 0.23326 0.92019 0.0
C342 C 0.26527 0.80974 0.182 0.0
C343 C 0.23511 0.87416 0.17292 0.0
C344 C 0.28367 0.98247 0.16136 0.0
C345 C 0.34301 0.01509 0.1553 0.0
C346 C 0.34644 0.08621 0.15435 0.0
C347 C 0.28905 0.12539 0.15975 0.0
C348 C 0.2266 0.09249 0.1629 0.0
C349 C 0.22458 0.02134 0.164 0.0
C350 C 0.41305 0.11946 0.14951 0.0
C351 C 0.16302 0.13196 0.16717 0.0
C352 C 0.2989 0.65855 0.10301 0.0
C353 C 0.25516 0.61012 0.11553 0.0
C354 C 0.27761 0.48991 0.12257 0.0
C355 C 0.24076 0.48422 0.1408 0.0
C356 C 0.24932 0.42806 0.15369 0.0
C357 C 0.29724 0.37669 0.14848 0.0
C358 C 0.33435 0.38264 0.12996 0.0
C359 C 0.32295 0.43844 0.11714 0.0
C360 C 0.20735 0.42568 0.17298 0.0
C361 C 0.3873 0.33117 0.12373 0.0
C362 C 0.4481 0.53555 0.27464 0.0
C363 C 0.38476 0.53027 0.26539 0.0
C364 C 0.36608 0.47069 0.25516 0.0
C365 C 0.41379 0.41748 0.25267 0.0
C366 C 0.47862 0.42431 0.26124 0.0
C367 C 0.49347 0.48193 0.27277 0.0
C368 C 0.29455 0.4648 0.24773 0.0
C369 C 0.53223 0.37022 0.25882 0.0
C370 C 0.42994 0.08672 0.345 0.0
C371 C 0.41444 0.03069 0.32956 0.0
C372 C 0.42568 0.08467 0.29584 0.0
C373 C 0.36271 0.11773 0.29592 0.0
C374 C 0.3449 0.16141 0.28001 0.0
C375 C 0.39144 0.17373 0.26399 0.0
C376 C 0.45421 0.13942 0.26366 0.0
C377 C 0.46997 0.09471 0.27947 0.0
C378 C 0.27729 0.19658 0.28076 0.0
C379 C 0.50614 0.15255 0.24717 0.0
C380 C 0.29918 0.19499 0.16801 0.0
C381 C 0.29188 0.25183 0.15544 0.0
C382 C 0.30865 0.31735 0.1623 0.0
C383 C 0.33468 0.32544 0.18219 0.0
C384 C 0.3592 0.38833 0.18908 0.0
C385 C 0.38046 0.39669 0.20904 0.0
C386 C 0.37737 0.34269 0.22295 0.0
C387 C 0.39405 0.35138 0.24365 0.0
C388 C 0.39317 0.29553 0.25668 0.0
C389 C 0.37962 0.23044 0.24961 0.0
C390 C 0.35982 0.22105 0.22926 0.0
C391 C 0.34193 0.1568 0.22196 0.0
C392 C 0.32218 0.14818 0.20194 0.0
C393 C 0.31906 0.20365 0.18844 0.0
C394 C 0.33695 0.26895 0.19551 0.0
C395 C 0.35776 0.27764 0.21593 0.0
C396 C 0.45402 0.69557 0.26824 0.0
C397 C 0.43571 0.65281 0.28689 0.0
O398 O 0.28637 0.91446 0.16508 0.0
O399 O 0.44669 0.0439 0.3112 0.0
O400 O 0.46748 0.59037 0.28573 0.0
O401 O 0.27028 0.54375 0.10982 0.0
H402 H 0.20834 0.90136 0.18546 0.0
H403 H 0.22463 0.77671 0.18821 0.0
H404 H 0.29941 0.82342 0.1946 0.0
H405 H 0.29468 0.78093 0.17034 0.0
H406 H 0.38788 0.98485 0.1525 0.0
H407 H 0.17727 -0.00275 0.16786 0.0
H408 H 0.4055 0.16558 0.14012 0.0
H409 H 0.44781 0.08427 0.14129 0.0
H410 H 0.43716 0.1353 0.16389 0.0
H411 H 0.1187 0.1048 0.16105 0.0
H412 H 0.16491 0.18348 0.16041 0.0
H413 H 0.15609 0.13676 0.18386 0.0
H414 H 0.26792 0.61858 0.13178 0.0
H415 H 0.29117 0.7118 0.10817 0.0
H416 H 0.28636 0.65482 0.0867 0.0
H417 H 0.35294 0.64544 0.10483 0.0
H418 H 0.20448 0.52323 0.14492 0.0
H419 H 0.35115 0.44316 0.10302 0.0
H420 H 0.23247 0.45611 0.1849 0.0
H421 H 0.20056 0.37332 0.17872 0.0
H422 H 0.15694 0.44876 0.17062 0.0
H423 H 0.42245 0.35168 0.112 0.0
H424 H 0.36237 0.28582 0.11721 0.0
H425 H 0.41708 0.31456 0.137 0.0
H426 H 0.3802 0.64655 0.28787 0.0
H427 H 0.34839 0.571 0.26655 0.0
H428 H 0.54099 0.48516 0.28047 0.0
H429 H 0.29237 0.48226 0.23174 0.0
H430 H 0.25963 0.49739 0.25681 0.0
H431 H 0.2759 0.41177 0.24843 0.0
H432 H 0.5832 0.39124 0.26133 0.0
H433 H 0.53083 0.34671 0.24347 0.0
H434 H 0.52394 0.32986 0.27031 0.0
H435 H 0.35899 0.02778 0.32765 0.0
H436 H 0.40628 0.07478 0.35996 0.0
H437 H 0.40928 0.13591 0.33968 0.0
H438 H 0.4852 0.09235 0.34689 0.0
H439 H 0.32752 0.1111 0.30841 0.0
H440 H 0.5183 0.069 0.27951 0.0
H441 H 0.25388 0.19603 0.26552 0.0
H442 H 0.28435 0.25043 0.28527 0.0
H443 H 0.24221 0.1725 0.29187 0.0
H444 H 0.48482 0.1402 0.2321 0.0
H445 H 0.55274 0.12211 0.24922 0.0
H446 H 0.51981 0.2072 0.24707 0.0
H447 H 0.27343 0.24481 0.14014 0.0
H448 H 0.36213 0.43189 0.17911 0.0
H449 H 0.39871 0.44622 0.2135 0.0
H450 H 0.40584 0.30245 0.27256 0.0
H451 H 0.34266 0.11257 0.2317 0.0
H452 H 0.30882 0.09726 0.19734 0.0
H453 H 0.42838 0.74575 0.26907 0.0
H454 H 0.43755 0.66945 0.25418 0.0
H455 H 0.50935 0.7036 0.26725 0.0
C456 C 0.67493 0.62237 0.26138 0.0
C457 C 0.67863 0.56124 0.27557 0.0
C458 C 0.76047 0.46816 0.27236 0.0
C459 C 0.81554 0.44306 0.28302 0.0
C460 C 0.83599 0.37502 0.28103 0.0
C461 C 0.80065 0.33114 0.26785 0.0
C462 C 0.74529 0.35653 0.25678 0.0
C463 C 0.72643 0.42507 0.25893 0.0
C464 C 0.89551 0.3501 0.29295 0.0
C465 C 0.70614 0.31121 0.24267 0.0
C466 C 0.79458 0.79852 0.31847 0.0
C467 C 0.74162 0.85453 0.31628 0.0
C468 C 0.77102 0.97505 0.31566 0.0
C469 C 0.72629 -0.00447 0.30048 0.0
C470 C 0.73831 0.05495 0.28933 0.0
C471 C 0.79598 0.09437 0.29356 0.0
C472 C 0.83678 0.07767 0.31029 0.0
C473 C 0.82345 0.01811 0.32123 0.0
C474 C 0.69213 0.07314 0.27212 0.0
C475 C 0.89745 0.11983 0.31556 0.0
C476 C 0.03536 0.8479 0.19826 0.0
C477 C 0.97062 0.87105 0.19338 0.0
C478 C 0.95058 0.9379 0.19797 0.0
C479 C -0.00323 0.98276 0.20723 0.0
C480 C 0.0622 0.9596 0.21196 0.0
C481 C 0.08038 0.89227 0.20752 0.0
C482 C 0.88094 0.96106 0.19212 0.0
C483 C 0.11323 0.00623 0.22145 0.0
C484 C 0.96604 0.35204 0.1008 0.0
C485 C 0.96271 0.38408 0.12208 0.0
C486 C 0.00716 0.30829 0.14795 0.0
C487 C 0.9551 0.26023 0.14731 0.0
C488 C 0.94624 0.21337 0.16305 0.0
C489 C -0.00925 0.21431 0.17968 0.0
C490 C 0.04549 0.26023 0.17984 0.0
C491 C 0.0531 0.30631 0.16379 0.0
C492 C 0.88808 0.16412 0.16216 0.0
C493 C 0.09429 0.26385 0.19723 0.0
C494 C 0.82269 0.25924 0.26528 0.0
C495 C 0.80158 0.21173 0.27981 0.0
C496 C 0.82087 0.14355 0.27824 0.0
C497 C 0.86243 0.12161 0.26185 0.0
C498 C 0.88324 0.05333 0.25997 0.0
C499 C 0.92225 0.03165 0.24348 0.0
C500 C 0.94155 0.07718 0.22812 0.0
C501 C 0.97824 0.05501 0.21074 0.0
C502 C -0.00464 0.10142 0.19559 0.0
C503 C 0.97707 0.16968 0.19725 0.0
C504 C 0.94119 0.19317 0.21459 0.0
C505 C 0.92225 0.26176 0.21674 0.0
C506 C 0.88495 0.28386 0.23355 0.0
C507 C 0.8636 0.23795 0.24862 0.0
C508 C 0.88314 0.1688 0.24689 0.0
C509 C 0.92253 0.1465 0.22996 0.0
C510 C 0.05149 0.66846 0.20341 0.0
C511 C 0.01727 0.72657 0.19211 0.0
O512 O 0.7434 0.53462 0.27484 0.0
O513 O 0.01385 0.35803 0.13385 0.0
O514 O 0.05698 0.78401 0.19381 0.0
O515 O 0.76626 0.91371 0.32489 0.0
H516 H 0.64103 0.52368 0.27046 0.0
H517 H 0.68565 0.60587 0.2455 0.0
H518 H 0.7124 0.66159 0.26565 0.0
H519 H 0.62367 0.64509 0.262 0.0
H520 H 0.84221 0.47701 0.2931 0.0
H521 H 0.68605 0.44506 0.24981 0.0
H522 H 0.87861 0.31066 0.3039 0.0
H523 H 0.92023 0.39161 0.30154 0.0
H524 H 0.93322 0.32628 0.28254 0.0
H525 H 0.66384 0.33837 0.23535 0.0
H526 H 0.6857 0.26722 0.25127 0.0
H527 H 0.73994 0.2909 0.23053 0.0
H528 H 0.73322 0.86024 0.29969 0.0
H529 H 0.7788 0.75178 0.31034 0.0
H530 H 0.80275 0.78669 0.33476 0.0
H531 H 0.84314 0.81551 0.31165 0.0
H532 H 0.68316 0.96432 0.29692 0.0
H533 H 0.85643 0.00279 0.33341 0.0
H534 H 0.71881 0.06466 0.25739 0.0
H535 H 0.67824 0.12774 0.273 0.0
H536 H 0.6454 0.04221 0.2723 0.0
H537 H 0.91872 0.10544 0.33049 0.0
H538 H 0.88384 0.17456 0.31592 0.0
H539 H 0.93703 0.11276 0.30366 0.0
H540 H 0.96713 0.73388 0.19959 0.0
H541 H 0.93613 0.8376 0.18564 0.0
H542 H 0.13002 0.87369 0.21133 0.0
H543 H 0.88441 -0.01024 0.17765 0.0
H544 H 0.85838 -0.00488 0.20382 0.0
H545 H 0.84639 0.9175 0.18998 0.0
H546 H 0.1602 0.97909 0.22559 0.0
H547 H 0.09134 0.03056 0.23529 0.0
H548 H 0.1264 0.04726 0.21058 0.0
H549 H 0.91253 0.37346 0.12912 0.0
H550 H 0.92648 0.37419 0.09102 0.0
H551 H 0.95749 0.29647 0.10178 0.0
H552 H 0.01625 0.36049 0.09359 0.0
H553 H 0.92067 0.25953 0.1347 0.0
H554 H 0.09358 0.34288 0.16394 0.0
H555 H 0.85689 0.16796 0.17626 0.0
H556 H 0.90785 0.11144 0.16116 0.0
H557 H 0.85528 0.17327 0.14889 0.0
H558 H 0.08026 0.3074 0.20717 0.0
H559 H 0.14626 0.27292 0.19143 0.0
H560 H 0.09462 0.21714 0.20661 0.0
H561 H 0.76962 0.22791 0.29242 0.0
H562 H 0.86933 0.01551 0.27115 0.0
H563 H 0.93633 0.97854 0.24278 0.0
H564 H 0.02157 0.08369 0.18201 0.0
H565 H 0.93579 0.29924 0.20541 0.0
H566 H 0.87202 0.33723 0.23437 0.0
H567 H 0.02016 0.6218 0.20289 0.0
H568 H 0.05826 0.68277 0.2196 0.0
H569 H 0.10182 0.65729 0.19656 0.0
C570 C 0.642 0.42649 0.68416 0.0
C571 C 0.64151 0.47147 0.66515 0.0
C572 C 0.71082 0.56989 0.67467 0.0
C573 C 0.77436 0.59922 0.67223 0.0
C574 C 0.79151 0.65878 0.68263 0.0
C575 C 0.74342 0.68988 0.69567 0.0
C576 C 0.67824 0.66158 0.69781 0.0
C577 C 0.66268 0.6015 0.68741 0.0
C578 C 0.8614 0.68771 0.68002 0.0
C579 C 0.62551 0.69381 0.71148 0.0
C580 C 0.71587 0.22527 0.66997 0.0
C581 C 0.67732 0.1596 0.66563 0.0
C582 C 0.73398 0.05372 0.67529 0.0
C583 C 0.68188 0.02473 0.68698 0.0
C584 C 0.69408 0.96834 0.69937 0.0
C585 C 0.75903 0.93887 0.69968 0.0
C586 C 0.81164 0.96776 0.68789 0.0
C587 C 0.7983 0.02479 0.67579 0.0
C588 C 0.63656 0.93827 0.71138 0.0
C589 C 0.88138 0.9372 0.68766 0.0
C590 C 0.89184 0.01254 0.83434 0.0
C591 C 0.84133 0.96419 0.83803 0.0
C592 C 0.82621 0.91459 0.82353 0.0
C593 C 0.86706 0.90823 0.80575 0.0
C594 C 0.92148 0.95385 0.80269 0.0
C595 C 0.93163 0.00662 0.81675 0.0
C596 C 0.76589 0.86947 0.82741 0.0
C597 C 0.96892 0.94819 0.78464 0.0
C598 C 0.8015 0.54923 0.8708 0.0
C599 C 0.81439 0.48627 0.85739 0.0
C600 C 0.85131 0.55047 0.82697 0.0
C601 C 0.78972 0.58066 0.82201 0.0
C602 C 0.78788 0.63665 0.80887 0.0
C603 C 0.84879 0.66144 0.80021 0.0
C604 C 0.91017 0.62779 0.80414 0.0
C605 C 0.91049 0.57243 0.81743 0.0
C606 C 0.72124 0.67087 0.80489 0.0
C607 C 0.97594 0.65243 0.79521 0.0
C608 C 0.76231 0.75003 0.70787 0.0
C609 C 0.75562 0.8141 0.69913 0.0
C610 C 0.76944 0.87307 0.71017 0.0
C611 C 0.79016 0.86819 0.73064 0.0
C612 C 0.80102 0.92628 0.74262 0.0
C613 C 0.82096 0.92053 0.76281 0.0
C614 C 0.8331 0.85659 0.77156 0.0
C615 C 0.85613 0.84974 0.79178 0.0
C616 C 0.86537 0.78491 0.79991 0.0
C617 C 0.84897 0.72666 0.789 0.0
C618 C 0.82852 0.73214 0.76864 0.0
C619 C 0.81522 0.67406 0.75696 0.0
C620 C 0.79386 0.67979 0.73702 0.0
C621 C 0.78507 0.74386 0.72802 0.0
C622 C 0.79897 0.80317 0.73946 0.0
C623 C 0.82083 0.79734 0.75984 0.0
C624 C 0.79104 0.11085 0.85409 0.0
C625 C 0.85996 0.08854 0.86266 0.0
O626 O 0.69896 0.51099 0.66458 0.0
O627 O 0.85656 0.50063 0.841 0.0
O628 O 0.90221 0.06644 0.84697 0.0
O629 O 0.72375 0.10758 0.66282 0.0
H630 H 0.5955 0.50377 0.66501 0.0
H631 H 0.63452 0.458 0.69802 0.0
H632 H 0.69089 0.39929 0.68543 0.0
H633 H 0.60093 0.38835 0.68354 0.0
H634 H 0.81101 0.57451 0.66233 0.0
H635 H 0.6132 0.57961 0.6895 0.0
H636 H 0.8581 0.74052 0.67424 0.0
H637 H 0.89307 0.65726 0.66932 0.0
H638 H 0.88662 0.68973 0.69498 0.0
H639 H 0.57424 0.67407 0.70842 0.0
H640 H 0.62516 0.74973 0.70953 0.0
H641 H 0.63782 0.68303 0.72757 0.0
H642 H 0.6439 0.15101 0.67901 0.0
H643 H 0.68029 0.26799 0.6728 0.0
H644 H 0.75004 0.23806 0.65704 0.0
H645 H 0.7468 0.21871 0.68378 0.0
H646 H 0.63102 0.04413 0.68599 0.0
H647 H 0.83808 0.04689 0.66653 0.0
H648 H 0.65234 0.92589 0.72708 0.0
H649 H 0.6209 0.89035 0.70392 0.0
H650 H 0.59268 0.97328 0.71223 0.0
H651 H 0.91791 0.96821 0.67877 0.0
H652 H 0.87957 0.88547 0.68093 0.0
H653 H 0.89975 0.93206 0.70346 0.0
H654 H 0.85274 0.04735 0.87399 0.0
H655 H 0.81187 0.9659 0.85197 0.0
H656 H 0.97089 0.04367 0.81403 0.0
H657 H 0.7399 0.85686 0.81304 0.0
H658 H 0.72889 0.89389 0.83794 0.0
H659 H 0.78276 0.82146 0.83455 0.0
H660 H 0.01971 0.96731 0.78842 0.0
H661 H 0.94984 0.98019 0.7721 0.0
H662 H 0.97388 0.89526 0.77901 0.0
H663 H 0.76584 0.46546 0.8519 0.0
H664 H 0.77443 0.53459 0.88502 0.0
H665 H 0.76956 0.58688 0.86294 0.0
H666 H 0.8498 0.57397 0.87485 0.0
H667 H 0.7434 0.56157 0.82869 0.0
H668 H 0.9576 0.54767 0.82112 0.0
H669 H 0.71002 0.66822 0.78843 0.0
H670 H 0.7239 0.72534 0.80917 0.0
H671 H 0.67899 0.64706 0.81349 0.0
H672 H 0.97037 0.66494 0.77887 0.0
H673 H 0.01691 0.6144 0.79685 0.0
H674 H -0.00917 0.69942 0.80331 0.0
H675 H 0.7384 0.81815 0.68359 0.0
H676 H 0.79351 0.97676 0.73656 0.0
H677 H 0.82696 0.96689 0.77145 0.0
H678 H 0.88244 0.77973 0.81544 0.0
H679 H 0.82129 0.6235 0.76311 0.0
H680 H 0.78433 0.63325 0.72875 0.0
H681 H 0.75586 0.12516 0.86666 0.0
H682 H 0.76592 0.07021 0.8454 0.0
H683 H 0.79759 0.15501 0.84376 0.0
C684 C 0.81722 0.67201 0.06624 0.0
C685 C 0.80037 0.65284 0.08842 0.0
C686 C 0.69466 0.59046 0.08283 0.0
C687 C 0.667 0.52549 0.08154 0.0
C688 C 0.60449 0.51482 0.07239 0.0
C689 C 0.57005 0.57057 0.06377 0.0
C690 C 0.59447 0.6372 0.06684 0.0
C691 C 0.65605 0.64655 0.07671 0.0
C692 C 0.57765 0.44344 0.07073 0.0
C693 C 0.55729 0.69822 0.05881 0.0
C694 C 0.01443 0.67566 0.04693 0.0
C695 C 0.08779 0.68777 0.0528 0.0
C696 C 0.1885 0.61436 0.05204 0.0
C697 C 0.2352 0.66485 0.04643 0.0
C698 C 0.30386 0.6493 0.04402 0.0
C699 C 0.32648 0.58218 0.04746 0.0
C700 C 0.2803 0.53224 0.0542 0.0
C701 C 0.21179 0.54892 0.0562 0.0
C702 C 0.35206 0.70422 0.03726 0.0
C703 C 0.30253 0.46027 0.05818 0.0
C704 C 0.2726 0.39756 0.93173 0.0
C705 C 0.3069 0.4567 0.92564 0.0
C706 C 0.36845 0.47464 0.93454 0.0
C707 C 0.39619 0.43251 0.9497 0.0
C708 C 0.36304 0.37155 0.95518 0.0
C709 C 0.301 0.3559 0.94645 0.0
C710 C 0.40185 0.54054 0.92864 0.0
C711 C 0.3908 0.32489 0.97123 0.0
C712 C 0.96065 0.41289 0.96216 0.0
C713 C 0.89528 0.39123 0.95191 0.0
C714 C 0.78341 0.4472 0.95361 0.0
C715 C 0.7513 0.51037 0.9536 0.0
C716 C 0.68163 0.51628 0.957 0.0
C717 C 0.64311 0.45733 0.96113 0.0
C718 C 0.6744 0.39272 0.95982 0.0
C719 C 0.74414 0.3882 0.9559 0.0
C720 C 0.64987 0.58599 0.95694 0.0
C721 C 0.63464 0.3285 0.9632 0.0
C722 C 0.51537 0.55835 0.04902 0.0
C723 C 0.44858 0.57175 0.05487 0.0
C724 C 0.39594 0.56246 0.04121 0.0
C725 C 0.40971 0.5372 0.02144 0.0
C726 C 0.35769 0.52589 0.00754 0.0
C727 C 0.37144 0.50014 -0.01173 0.0
C728 C 0.43792 0.48564 0.98195 0.0
C729 C 0.45197 0.45754 0.96255 0.0
C730 C 0.51889 0.44864 0.95604 0.0
C731 C 0.57251 0.46427 0.96891 0.0
C732 C 0.55877 0.48754 -0.01103 0.0
C733 C 0.61084 0.49979 0.0028 0.0
C734 C 0.59692 0.52365 0.02232 0.0
C735 C 0.5302 0.53521 0.02902 0.0
C736 C 0.47706 0.52365 0.01532 0.0
C737 C 0.49131 0.49906 -0.00462 0.0
C738 C 0.1269 0.45631 0.91283 0.0
C739 C 0.17993 0.40275 0.90715 0.0
O740 O 0.7592 0.59615 0.08933 0.0
O741 O 0.85183 0.44644 0.95159 0.0
O742 O 0.21126 0.37968 0.9245 0.0
O743 O 0.12089 0.6258 0.05328 0.0
H744 H 0.77505 0.69658 0.09606 0.0
H745 H 0.77179 0.68935 0.05812 0.0
H746 H 0.83872 0.62775 0.05786 0.0
H747 H 0.85417 0.71433 0.06583 0.0
H748 H 0.69592 0.4826 0.08697 0.0
H749 H 0.67478 0.69748 0.07885 0.0
H750 H 0.52198 0.44291 0.07265 0.0
H751 H 0.60024 0.40942 0.08225 0.0
H752 H 0.59012 0.42272 0.05543 0.0
H753 H 0.58409 0.74644 0.0619 0.0
H754 H 0.50655 0.70114 0.06604 0.0
H755 H 0.5504 0.69316 0.04215 0.0
H756 H 0.11006 0.72123 0.04095 0.0
H757 H -0.01454 0.72399 0.04757 0.0
H758 H -0.00975 0.63808 0.05721 0.0
H759 H 0.01249 0.65549 0.03116 0.0
H760 H 0.21883 0.71618 0.04349 0.0
H761 H 0.17573 0.51041 0.06074 0.0
H762 H 0.3754 0.69013 0.02241 0.0
H763 H 0.39321 0.70912 0.04843 0.0
H764 H 0.32694 0.75438 0.03571 0.0
H765 H 0.26521 0.4324 0.06771 0.0
H766 H 0.35206 0.45935 0.06581 0.0
H767 H 0.30837 0.43311 0.04345 0.0
H768 H 0.21677 0.42578 0.89634 0.0
H769 H 0.28476 0.49059 0.91466 0.0
H770 H 0.2736 0.31126 0.9514 0.0
H771 H 0.40193 0.57539 0.94194 0.0
H772 H 0.37593 0.56609 0.91588 0.0
H773 H 0.45514 0.53103 0.92414 0.0
H774 H 0.3696 0.27289 0.97003 0.0
H775 H 0.37745 0.34538 -0.01351 0.0
H776 H 0.44656 0.32169 0.97009 0.0
H777 H 0.87398 0.34908 0.96112 0.0
H778 H -0.00239 0.37044 0.96195 0.0
H779 H 0.94998 0.42697 0.97825 0.0
H780 H 0.98327 0.45753 0.95436 0.0
H781 H 0.78147 0.55559 0.95129 0.0
H782 H 0.7672 0.33853 0.95501 0.0
H783 H 0.64324 0.60407 0.97283 0.0
H784 H 0.59946 0.58458 0.94982 0.0
H785 H 0.68182 0.62334 0.94867 0.0
H786 H 0.66599 0.28218 0.96109 0.0
H787 H 0.5925 0.32617 0.95232 0.0
H788 H 0.61254 0.3285 0.97879 0.0
H789 H 0.43754 0.59051 0.07008 0.0
H790 H 0.3055 0.5362 0.01139 0.0
H791 H 0.32906 0.49231 0.97836 0.0
H792 H 0.52925 0.42882 0.94092 0.0
H793 H 0.66314 0.49095 -0.00125 0.0
H794 H 0.63946 0.53286 0.03206 0.0
H795 H 0.1003 0.4738 0.89904 0.0
H796 H 0.15172 0.50085 0.91989 0.0
H797 H 0.08965 0.43548 0.9239 0.0
C798 C 0.85115 0.46238 0.34684 0.0
C799 C 0.79608 0.47581 0.36305 0.0
C800 C 0.86823 0.48604 0.39316 0.0
C801 C 0.88978 0.41808 0.39386 0.0
C802 C 0.94399 0.39922 0.40613 0.0
C803 C 0.97567 0.44895 0.41823 0.0
C804 C 0.94967 0.51584 0.41898 0.0
C805 C 0.89638 0.53351 0.40631 0.0
C806 C 0.96943 0.327 0.40551 0.0
C807 C 0.9805 0.56981 0.43224 0.0
C808 C 0.45366 0.59623 0.39992 0.0
C809 C 0.41727 0.59597 0.37942 0.0
C810 C 0.32886 0.51428 0.38797 0.0
C811 C 0.291 0.55904 0.40034 0.0
C812 C 0.23797 0.5355 0.41263 0.0
C813 C 0.22107 0.46584 0.41231 0.0
C814 C 0.25761 0.42072 0.39952 0.0
C815 C 0.31114 0.44561 0.38748 0.0
C816 C 0.19956 0.5856 0.42577 0.0
C817 C 0.24009 0.34632 0.39863 0.0
C818 C 0.36435 0.32066 0.54129 0.0
C819 C 0.32292 0.37639 0.54564 0.0
C820 C 0.26777 0.39134 0.53343 0.0
C821 C 0.25226 0.34779 0.51691 0.0
C822 C 0.29548 0.29218 0.51219 0.0
C823 C 0.35106 0.27943 0.52456 0.0
C824 C 0.2262 0.45377 0.53838 0.0
C825 C 0.2855 0.24692 0.4939 0.0
C826 C 0.89064 0.45653 0.59847 0.0
C827 C 0.84118 0.42704 0.58312 0.0
C828 C 0.91281 0.36988 0.55732 0.0
C829 C 0.93566 0.429 0.54754 0.0
C830 C 0.98315 0.42534 0.53158 0.0
C831 C 0.00783 0.36109 0.52507 0.0
C832 C -0.01556 0.30153 0.53486 0.0
C833 C 0.93676 0.30679 0.5507 0.0
C834 C 0.00935 0.49065 0.52244 0.0
C835 C 0.01237 0.23255 0.5294 0.0
C836 C 0.04101 0.43397 0.42783 0.0
C837 C 0.09906 0.44755 0.41635 0.0
C838 C 0.16297 0.44155 0.42471 0.0
C839 C 0.16964 0.41969 0.44504 0.0
C840 C 0.23315 0.41431 0.45411 0.0
C841 C 0.23905 0.39413 0.47426 0.0
C842 C 0.18174 0.37798 0.48605 0.0
C843 C 0.18704 0.35646 0.50645 0.0
C844 C 0.12872 0.34622 0.51813 0.0
C845 C 0.06491 0.35763 0.51024 0.0
C846 C 0.05832 0.37378 0.48944 0.0
C847 C -0.00528 0.3804 0.48053 0.0
C848 C -0.01118 0.39907 0.46023 0.0
C849 C 0.04635 0.41219 0.44818 0.0
C850 C 0.11104 0.40477 0.45678 0.0
C851 C 0.11706 0.38467 0.47736 0.0
C852 C 0.52188 0.34274 0.53656 0.0
C853 C 0.47128 0.35493 0.55397 0.0
O854 O 0.82226 0.50899 0.37973 0.0
O855 O 0.8696 0.37099 0.57353 0.0
O856 O 0.41956 0.30841 0.55251 0.0
O857 O 0.38325 0.53518 0.37675 0.0
H858 H 0.77218 0.42718 0.36776 0.0
H859 H 0.88874 0.42515 0.35225 0.0
H860 H 0.87801 0.51008 0.34285 0.0
H861 H 0.82843 0.44097 0.33287 0.0
H862 H 0.86606 0.38012 0.38445 0.0
H863 H 0.87818 0.58545 0.406 0.0
H864 H 0.02029 0.32575 0.39829 0.0
H865 H 0.93568 0.29296 0.39683 0.0
H866 H 0.97433 0.30715 0.4212 0.0
H867 H 0.94738 0.61509 0.43379 0.0
H868 H 0.02905 0.58614 0.42536 0.0
H869 H -0.00914 0.54957 0.44761 0.0
H870 H 0.38133 0.63925 0.37879 0.0
H871 H 0.41718 0.5955 0.41282 0.0
H872 H 0.4848 0.64269 0.4015 0.0
H873 H 0.48705 0.55107 0.40111 0.0
H874 H 0.30248 0.61263 0.4007 0.0
H875 H 0.34004 0.41132 0.37783 0.0
H876 H 0.19599 0.56707 0.44167 0.0
H877 H 0.14765 0.59092 0.41998 0.0
H878 H 0.22342 0.63652 0.42577 0.0
H879 H 0.27349 0.31765 0.38797 0.0
H880 H 0.18709 0.34031 0.39375 0.0
H881 H 0.2441 0.32379 0.41402 0.0
H882 H 0.45264 0.40812 0.55263 0.0
H883 H 0.33399 0.40832 0.55862 0.0
H884 H 0.38509 0.23782 0.52099 0.0
H885 H 0.20694 0.47792 0.52436 0.0
H886 H 0.25585 0.49193 0.54691 0.0
H887 H 0.18243 0.4391 0.54805 0.0
H888 H 0.30261 0.19427 0.49701 0.0
H889 H 0.31701 0.26622 0.48113 0.0
H890 H 0.23255 0.24551 0.48882 0.0
H891 H 0.82733 0.46668 0.5719 0.0
H892 H 0.86731 0.50023 0.60667 0.0
H893 H 0.93673 0.47486 0.59051 0.0
H894 H 0.90561 0.41741 0.60971 0.0
H895 H 0.9183 0.47839 0.55256 0.0
H896 H 0.91927 0.26145 0.55843 0.0
H897 H -0.00866 0.49548 0.50662 0.0
H898 H 0.06529 0.49048 0.52192 0.0
H899 H -0.00783 0.53612 0.53111 0.0
H900 H 0.98118 0.1909 0.53581 0.0
H901 H 0.06358 0.22748 0.53578 0.0
H902 H 0.01652 0.22663 0.51265 0.0
H903 H 0.09429 0.46583 0.40087 0.0
H904 H 0.27897 0.42591 0.44573 0.0
H905 H 0.28912 0.39184 0.48055 0.0
H906 H 0.13326 0.33256 0.53403 0.0
H907 H 0.94894 0.37127 0.48922 0.0
H908 H 0.93864 0.4038 0.45412 0.0
H909 H 0.564 0.37972 0.53732 0.0
H910 H 0.49665 0.34936 0.52172 0.0
H911 H 0.54267 0.29034 0.53726 0.0
C912 C 0.18151 0.62623 0.11271 0.0
C913 C 0.97005 0.45988 0.12145 0.0
C914 C 0.86358 0.63719 0.09989 0.0
Mg915 Mg 0.1798 0.79254 0.1085 0.0
Mg916 Mg 0.06308 0.88918 0.13142 0.0
O917 O 0.0828 0.8141 0.1148 0.0
Mg918 Mg 0.05035 0.7206 0.1213 0.0
O919 O 0.02217 0.62344 0.12553 0.0
Mg920 Mg 0.02925 0.59425 0.09607 0.0
Mg921 Mg 0.93956 0.60528 0.13863 0.0
C922 C 0.9179 0.82247 0.12802 0.0
O923 O 0.04662 0.73249 0.1564 0.0
O924 O 0.18919 0.9039 0.09753 0.0
O925 O 0.96268 0.66175 0.16637 0.0
O926 O 0.212 0.82766 0.1403 0.0
O927 O 0.10667 0.96645 0.11214 0.0
O928 O 0.12759 0.87977 0.15708 0.0
O929 O 0.05209 0.70281 0.08757 0.0
O930 O 0.14422 0.75735 0.07713 0.0
C931 C 0.09277 0.72064 0.07338 0.0
C932 C 0.15764 0.96036 0.10007 0.0
O933 O 0.94298 0.76532 0.12215 0.0
O934 O 0.0033 0.48658 0.10668 0.0
O935 O 0.95417 0.87318 0.13357 0.0
O936 O 0.91583 0.61539 0.09023 0.0
O937 O 0.94258 0.49534 0.13573 0.0
O938 O 0.8622 0.64273 0.1192 0.0
O939 O 0.1581 0.68221 0.12006 0.0
O940 O 0.14328 0.58332 0.1036 0.0
C941 C 0.18772 0.85683 0.15618 0.0
C942 C 0.00772 0.7068 0.1702 0.0
C943 C 0.67221 0.76876 0.37689 0.0
C944 C 0.74406 0.52192 0.35424 0.0
C945 C 0.66285 0.58192 0.29715 0.0
Mg946 Mg 0.55569 0.86627 0.35951 0.0
Mg947 Mg 0.42112 0.80542 0.33751 0.0
O948 O 0.51547 0.80993 0.33718 0.0
Mg949 Mg 0.56767 0.72418 0.34168 0.0
O950 O 0.62554 0.64292 0.34701 0.0
Mg951 Mg 0.71344 0.67978 0.33668 0.0
Mg952 Mg 0.59995 0.55469 0.33935 0.0
C953 C 0.45601 0.68911 0.3059 0.0
O954 O 0.48567 0.66933 0.35973 0.0
O955 O 0.49276 0.95637 0.34647 0.0
O956 O 0.50228 0.55645 0.35565 0.0
O957 O 0.4703 0.84148 0.3827 0.0
O958 O 0.40175 0.91077 0.33158 0.0
O959 O 0.38982 0.78107 0.36774 0.0
O960 O 0.65498 0.77394 0.32522 0.0
O961 O 0.64375 0.88087 0.33673 0.0
C962 C 0.67578 0.83553 0.3263 0.0
C963 C 0.437 0.96215 0.33682 0.0
O964 O 0.5163 0.68197 0.31267 0.0
O965 O 0.76215 0.58239 0.34934 0.0
O966 O 0.4125 0.72987 0.31386 0.0
O967 O 0.70155 0.62504 0.30572 0.0
O968 O 0.68363 0.50035 0.35234 0.0
O969 O 0.6151 0.552 0.30678 0.0
O970 O 0.61251 0.7709 0.36978 0.0
O971 O 0.71897 0.73465 0.36784 0.0
C972 C 0.4168 0.80546 0.38361 0.0
C973 C 0.46872 0.60733 0.36288 0.0
C974 C 0.63309 0.1651 0.64719 0.0
C975 C 0.39872 0.04882 0.63632 0.0
C976 C 0.41862 0.1287 0.57525 0.0
Mg977 Mg 0.70514 0.28715 0.62392 0.0
Mg978 Mg 0.62296 0.40999 0.60082 0.0
O979 O 0.63574 0.31648 0.60381 0.0
Mg980 Mg 0.56044 0.25461 0.61228 0.0
O981 O 0.49282 0.18513 0.62147 0.0
Mg982 Mg 0.53866 0.10059 0.61127 0.0
Mg983 Mg 0.40045 0.19161 0.6172 0.0
C984 C 0.50638 0.34866 0.57389 0.0
O985 O 0.49543 0.33587 0.63027 0.0
O986 O 0.78124 0.35321 0.60584 0.0
O987 O 0.38991 0.29312 0.62879 0.0
O988 O 0.68061 0.377 0.64533 0.0
O989 O 0.72255 0.43411 0.58958 0.0
O990 O 0.60894 0.44961 0.63092 0.0
O991 O 0.61624 0.17009 0.59541 0.0
O992 O 0.72298 0.19591 0.60258 0.0
C993 C 0.67951 0.15737 0.59411 0.0
C994 C 0.77805 0.40437 0.59381 0.0
O995 O 0.50633 0.2912 0.58325 0.0
O996 O 0.45816 0.03913 0.62893 0.0
O997 O 0.54185 0.39987 0.57937 0.0
O998 O 0.47041 0.0974 0.58216 0.0
O999 O 0.36676 0.10487 0.63432 0.0
O1000 O 0.38568 0.17182 0.58589 0.0
O1001 O 0.62202 0.2235 0.63939 0.0
O1002 O 0.60516 0.11132 0.6401 0.0
C1003 C 0.64221 0.4292 0.6462 0.0
C1004 C 0.43151 0.33956 0.63413 0.0
C1005 C 0.15028 0.34229 0.89658 0.0
C1006 C 0.26354 0.11922 0.9004 0.0
C1007 C 0.11524 0.0518 0.8539 0.0
Mg1008 Mg 0.0022 0.38954 0.88731 0.0
Mg1009 Mg 0.86506 0.29603 0.8916 0.0
O1010 O 0.95324 0.30306 0.88138 0.0
Mg1011 Mg 0.02764 0.23693 0.88702 0.0
O1012 O 0.10863 0.17888 0.89165 0.0
Mg1013 Mg 0.16779 0.20812 0.86829 0.0
Mg1014 Mg 0.11008 0.08751 0.89939 0.0
C1015 C 0.89194 0.14802 0.87344 0.0
O1016 O -0.00967 0.20391 0.9189 0.0
O1017 O 0.91224 0.44551 0.87376 0.0
O1018 O 0.03515 0.09912 0.92368 0.0
O1019 O 0.95316 0.39767 0.91958 0.0
O1020 O 0.82039 0.37885 0.87473 0.0
O1021 O 0.86991 0.32201 0.92316 0.0
O1022 O 0.07252 0.26216 0.85609 0.0
O1023 O 0.04948 0.37339 0.85526 0.0
C1024 C 0.0733 0.31928 0.84688 0.0
C1025 C 0.85031 0.434 0.86971 0.0
O1026 O 0.95676 0.15368 0.87362 0.0
O1027 O 0.25665 0.15771 0.88484 0.0
O1028 O 0.85193 0.19249 0.8814 0.0
O1029 O 0.14335 0.10953 0.85115 0.0
O1030 O 0.21407 0.08719 0.90856 0.0
O1031 O 0.09491 0.03232 0.87145 0.0
O1032 O 0.08876 0.32551 0.89963 0.0
O1033 O 0.18992 0.30503 0.88594 0.0
C1034 C 0.90793 0.36793 0.93042 0.0
C1035 C -0.00223 0.14928 0.92939 0.0
loop_
_geom_bond_atom_site_label_1
_geom_bond_atom_site_label_2
_geom_bond_distance
_geom_bond_site_symmetry_2
_ccdc_geom_bond_type
C0 C1 1.560 . S
C0 H61 0.959 . S
C0 H62 0.959 . S
C0 H63 0.960 . S
C1 C0 1.560 . S
C1 O56 1.426 . S
C1 H60 0.980 . S
C2 C3 1.407 . S
C2 C7 1.418 . S
C2 O56 1.334 . S
C3 C2 1.407 . S
C3 C4 1.360 . S
C3 H64 0.929 . S
C4 C3 1.360 . S
C4 C5 1.401 . S
C4 C8 1.527 . S
C5 C4 1.401 . S
C5 C6 1.405 . S
C5 C38 1.587 . S
C6 C5 1.405 . S
C6 C7 1.332 . S
C6 C9 1.496 1_565 S
C7 C2 1.418 . S
C7 C6 1.332 . S
C7 H65 0.941 . S
C8 C4 1.527 . S
C8 H66 0.959 . S
C8 H67 0.961 . S
C8 H68 0.961 . S
C9 C6 1.496 1_545 S
C9 H69 0.960 . S
C9 H70 0.965 . S
C9 H71 0.961 . S
C10 C11 1.517 . S
C10 H73 0.961 . S
C10 H74 0.960 . S
C10 H75 0.959 . S
C11 C10 1.517 . S
C11 O59 1.468 . S
C11 H72 0.980 . S
C12 C13 1.349 . S
C12 C17 1.367 . S
C12 O59 1.408 . S
C13 C12 1.349 . S
C13 C14 1.407 . S
C13 H76 0.930 . S
C14 C13 1.407 . S
C14 C15 1.449 . S
C14 C18 1.535 . S
C15 C14 1.449 . S
C15 C16 1.384 . S
C15 C40 1.553 . S
C16 C15 1.384 . S
C16 C17 1.364 . S
C16 C19 1.450 . S
C17 C12 1.367 . S
C17 C16 1.364 . S
C17 H77 0.931 . S
C18 C14 1.535 . S
C18 H78 0.959 . S
C18 H79 0.961 . S
C18 H80 0.959 . S
C19 C16 1.450 . S
C19 H81 0.960 . S
C19 H82 0.960 . S
C19 H83 0.960 . S
C20 C21 1.309 . S
C20 C25 1.304 . S
C20 O58 1.435 . S
C21 C20 1.309 . S
C21 C22 1.476 . S
C21 H85 0.930 . S
C22 C21 1.476 . S
C22 C23 1.400 . S
C22 C26 1.567 . S
C23 C22 1.400 . S
C23 C24 1.373 . S
C23 C45 1.432 . S
C24 C23 1.373 . S
C24 C25 1.339 . S
C24 C27 1.530 1_545 S
C25 C20 1.304 . S
C25 C24 1.339 . S
C25 H86 0.930 1_545 S
C26 C22 1.567 . S
C26 H87 0.961 . S
C26 H88 0.960 . S
C26 H89 0.958 . S
C27 C24 1.530 1_565 S
C27 H90 0.961 . S
C27 H91 0.960 . S
C27 H92 0.960 . S
C28 C29 1.530 . S
C28 H94 0.961 . S
C28 H95 0.961 . S
C28 H96 0.959 . S
C29 C28 1.530 . S
C29 O57 1.412 . S
C29 H93 0.980 . S
C30 C31 1.288 . S
C30 C35 1.377 . S
C30 O57 1.393 . S
C31 C30 1.288 . S
C31 C32 1.369 . S
C31 H97 0.932 . S
C32 C31 1.369 . S
C32 C33 1.398 . S
C32 C36 1.527 . S
C33 C32 1.398 . S
C33 C34 1.380 . S
C33 C47 1.497 . S
C34 C33 1.380 . S
C34 C35 1.383 . S
C34 C37 1.603 1_545 S
C35 C30 1.377 . S
C35 C34 1.383 . S
C35 H98 0.929 . S
C36 C32 1.527 . S
C36 H99 0.961 . S
C36 H100 0.959 . S
C36 H101 0.959 . S
C37 C34 1.603 1_565 S
C37 H102 0.960 . S
C37 H103 0.962 . S
C37 H104 0.961 . S
C38 C5 1.587 . S
C38 C39 1.360 1_655 S
C38 C51 1.412 . S
C39 C38 1.360 1_455 S
C39 C40 1.365 . S
C39 H105 0.929 . S
C40 C15 1.553 . S
C40 C39 1.365 . S
C40 C41 1.404 . S
C41 C40 1.404 . S
C41 C42 1.395 . S
C41 C52 1.451 . S
C42 C41 1.395 . S
C42 C43 1.322 . S
C42 H106 0.930 . S
C43 C42 1.322 . S
C43 C44 1.459 . S
C43 H107 0.929 . S
C44 C43 1.459 . S
C44 C45 1.445 1_565 S
C44 C53 1.395 . S
C45 C23 1.432 . S
C45 C44 1.445 1_545 S
C45 C46 1.370 . S
C46 C45 1.370 . S
C46 C47 1.438 1_455 S
C46 H108 0.930 . S
C47 C33 1.497 . S
C47 C46 1.438 1_655 S
C47 C48 1.360 . S
C48 C47 1.360 . S
C48 C49 1.401 . S
C48 C53 1.446 1_645 S
C49 C48 1.401 . S
C49 C50 1.347 1_545 S
C49 H109 0.929 . S
C50 C49 1.347 1_565 S
C50 C51 1.455 . S
C50 H110 0.930 . S
C51 C38 1.412 . S
C51 C50 1.455 . S
C51 C52 1.331 1_655 S
C52 C41 1.451 . S
C52 C51 1.331 1_455 S
C52 C53 1.497 . S
C53 C44 1.395 . S
C53 C48 1.446 1_465 S
C53 C52 1.497 . S
C54 C55 1.582 . S
C54 H111 0.962 . S
C54 H112 0.959 . S
C54 H113 0.958 . S
C55 C54 1.582 . S
C55 O58 1.458 . S
C55 H84 0.980 . S
O56 C1 1.426 . S
O56 C2 1.334 . S
O57 C29 1.412 . S
O57 C30 1.393 . S
O58 C20 1.435 . S
O58 C55 1.458 . S
O59 C11 1.468 . S
O59 C12 1.408 . S
H60 C1 0.980 . S
H61 C0 0.959 . S
H62 C0 0.959 . S
H63 C0 0.960 . S
H64 C3 0.929 . S
H65 C7 0.941 . S
H66 C8 0.959 . S
H67 C8 0.961 . S
H68 C8 0.961 . S
H69 C9 0.960 . S
H70 C9 0.965 . S
H71 C9 0.961 . S
H72 C11 0.980 . S
H73 C10 0.961 . S
H74 C10 0.960 . S
H75 C10 0.959 . S
H76 C13 0.930 . S
H77 C17 0.931 . S
H78 C18 0.959 . S
H79 C18 0.961 . S
H80 C18 0.959 . S
H81 C19 0.960 . S
H82 C19 0.960 . S
H83 C19 0.960 . S
H84 C55 0.980 . S
H85 C21 0.930 . S
H86 C25 0.930 1_565 S
H87 C26 0.961 . S
H88 C26 0.960 . S
H89 C26 0.958 . S
H90 C27 0.961 . S
H91 C27 0.960 . S
H92 C27 0.960 . S
H93 C29 0.980 . S
H94 C28 0.961 . S
H95 C28 0.961 . S
H96 C28 0.959 . S
H97 C31 0.932 . S
H98 C35 0.929 . S
H99 C36 0.961 . S
H100 C36 0.959 . S
H101 C36 0.959 . S
H102 C37 0.960 . S
H103 C37 0.962 . S
H104 C37 0.961 . S
H105 C39 0.929 . S
H106 C42 0.930 . S
H107 C43 0.929 . S
H108 C46 0.930 . S
H109 C49 0.929 . S
H110 C50 0.930 . S
H111 C54 0.962 . S
H112 C54 0.959 . S
H113 C54 0.958 . S
C114 C115 1.560 . S
C114 H175 0.959 1_445 S
C114 H176 0.959 . S
C114 H177 0.960 . S
C115 C114 1.560 . S
C115 O170 1.426 1_545 S
C115 H174 0.980 1_545 S
C116 C117 1.407 . S
C116 C121 1.418 . S
C116 O170 1.334 . S
C117 C116 1.407 . S
C117 C118 1.360 . S
C117 H178 0.929 . S
C118 C117 1.360 . S
C118 C119 1.401 . S
C118 C122 1.527 . S
C119 C118 1.401 . S
C119 C120 1.405 . S
C119 C152 1.587 . S
C120 C119 1.405 . S
C120 C121 1.332 . S
C120 C123 1.496 . S
C121 C116 1.418 . S
C121 C120 1.332 . S
C121 H179 0.929 . S
C122 C118 1.527 . S
C122 H180 0.959 . S
C122 H181 0.961 . S
C122 H182 0.961 . S
C123 C120 1.496 . S
C123 H183 0.960 . S
C123 H184 0.960 . S
C123 H185 0.961 . S
C124 C125 1.517 . S
C124 H187 0.961 . S
C124 H188 0.960 . S
C124 H189 0.959 . S
C125 C124 1.517 . S
C125 O173 1.468 . S
C125 H186 0.980 . S
C126 C127 1.349 . S
C126 C131 1.367 . S
C126 O173 1.408 . S
C127 C126 1.349 . S
C127 C128 1.407 . S
C127 H190 0.930 . S
C128 C127 1.407 . S
C128 C129 1.449 . S
C128 C132 1.535 . S
C129 C128 1.449 . S
C129 C130 1.384 . S
C129 C154 1.553 . S
C130 C129 1.384 . S
C130 C131 1.364 . S
C130 C133 1.450 . S
C131 C126 1.367 . S
C131 C130 1.364 . S
C131 H191 0.931 . S
C132 C128 1.535 . S
C132 H192 0.959 . S
C132 H193 0.961 . S
C132 H194 0.959 . S
C133 C130 1.450 . S
C133 H195 0.960 . S
C133 H196 0.960 . S
C133 H197 0.960 . S
C134 C135 1.309 . S
C134 C139 1.304 . S
C134 O172 1.435 . S
C135 C134 1.309 . S
C135 C136 1.476 . S
C135 H199 0.930 . S
C136 C135 1.476 . S
C136 C137 1.400 . S
C136 C140 1.567 . S
C137 C136 1.400 . S
C137 C138 1.373 . S
C137 C159 1.432 . S
C138 C137 1.373 . S
C138 C139 1.339 . S
C138 C141 1.530 . S
C139 C134 1.304 . S
C139 C138 1.339 . S
C139 H200 0.930 . S
C140 C136 1.567 . S
C140 H201 0.961 . S
C140 H202 0.960 . S
C140 H203 0.958 . S
C141 C138 1.530 . S
C141 H204 0.961 . S
C141 H205 0.960 . S
C141 H206 0.960 . S
C142 C143 1.530 . S
C142 H208 0.961 . S
C142 H209 0.961 . S
C142 H210 0.959 . S
C143 C142 1.530 . S
C143 O171 1.412 1_545 S
C143 H207 0.980 . S
C144 C145 1.288 . S
C144 C149 1.377 . S
C144 O171 1.393 . S
C145 C144 1.288 . S
C145 C146 1.369 . S
C145 H211 0.932 . S
C146 C145 1.369 . S
C146 C147 1.398 . S
C146 C150 1.527 . S
C147 C146 1.398 . S
C147 C148 1.380 . S
C147 C161 1.497 . S
C148 C147 1.380 . S
C148 C149 1.383 . S
C148 C151 1.603 . S
C149 C144 1.377 . S
C149 C148 1.383 . S
C149 H212 0.929 . S
C150 C146 1.527 . S
C150 H213 0.961 . S
C150 H214 0.959 . S
C150 H215 0.959 . S
C151 C148 1.603 . S
C151 H216 0.960 . S
C151 H217 0.962 . S
C151 H218 0.961 . S
C152 C119 1.587 . S
C152 C153 1.360 . S
C152 C165 1.412 . S
C153 C152 1.360 . S
C153 C154 1.365 . S
C153 H219 0.929 . S
C154 C129 1.553 . S
C154 C153 1.365 . S
C154 C155 1.404 . S
C155 C154 1.404 . S
C155 C156 1.395 . S
C155 C166 1.451 . S
C156 C155 1.395 . S
C156 C157 1.322 . S
C156 H220 0.930 . S
C157 C156 1.322 . S
C157 C158 1.459 . S
C157 H221 0.929 . S
C158 C157 1.459 . S
C158 C159 1.445 . S
C158 C167 1.395 . S
C159 C137 1.432 . S
C159 C158 1.445 . S
C159 C160 1.370 . S
C160 C159 1.370 . S
C160 C161 1.438 . S
C160 H222 0.930 . S
C161 C147 1.497 . S
C161 C160 1.438 . S
C161 C162 1.360 . S
C162 C161 1.360 . S
C162 C163 1.401 . S
C162 C167 1.446 . S
C163 C162 1.401 . S
C163 C164 1.347 . S
C163 H223 0.929 . S
C164 C163 1.347 . S
C164 C165 1.455 . S
C164 H224 0.930 . S
C165 C152 1.412 . S
C165 C164 1.455 . S
C165 C166 1.331 . S
C166 C155 1.451 . S
C166 C165 1.331 . S
C166 C167 1.497 . S
C167 C158 1.395 . S
C167 C162 1.446 . S
C167 C166 1.497 . S
C168 C169 1.582 . S
C168 H225 0.962 . S
C168 H226 0.959 . S
C168 H227 0.958 . S
C169 C168 1.582 . S
C169 O172 1.458 . S
C169 H198 0.980 . S
O170 C115 1.426 1_565 S
O170 C116 1.334 . S
O171 C143 1.412 1_565 S
O171 C144 1.393 . S
O172 C134 1.435 . S
O172 C169 1.458 . S
O173 C125 1.468 . S
O173 C126 1.408 . S
H174 C115 0.980 1_565 S
H175 C114 0.959 1_665 S
H176 C114 0.959 . S
H177 C114 0.960 . S
H178 C117 0.929 . S
H179 C121 0.929 . S
H180 C122 0.959 . S
H181 C122 0.961 . S
H182 C122 0.961 . S
H183 C123 0.960 . S
H184 C123 0.960 . S
H185 C123 0.961 . S
H186 C125 0.980 . S
H187 C124 0.961 . S
H188 C124 0.960 . S
H189 C124 0.959 . S
H190 C127 0.930 . S
H191 C131 0.931 . S
H192 C132 0.959 . S
H193 C132 0.961 . S
H194 C132 0.959 . S
H195 C133 0.960 . S
H196 C133 0.960 . S
H197 C133 0.960 . S
H198 C169 0.980 . S
H199 C135 0.930 . S
H200 C139 0.930 . S
H201 C140 0.961 . S
H202 C140 0.960 . S
H203 C140 0.958 . S
H204 C141 0.961 . S
H205 C141 0.960 . S
H206 C141 0.960 . S
H207 C143 0.980 . S
H208 C142 0.961 . S
H209 C142 0.961 . S
H210 C142 0.959 . S
H211 C145 0.932 . S
H212 C149 0.929 . S
H213 C150 0.961 . S
H214 C150 0.959 . S
H215 C150 0.959 . S
H216 C151 0.960 . S
H217 C151 0.962 . S
H218 C151 0.961 . S
H219 C153 0.929 . S
H220 C156 0.930 . S
H221 C157 0.929 . S
H222 C160 0.930 . S
H223 C163 0.929 . S
H224 C164 0.930 . S
H225 C168 0.962 . S
H226 C168 0.959 . S
H227 C168 0.958 . S
C228 C229 1.560 1_455 S
C228 H289 0.959 1_455 S
C228 H290 0.959 . S
C228 H291 0.960 . S
C229 C228 1.560 1_655 S
C229 O284 1.426 . S
C229 H288 0.980 . S
C230 C231 1.407 . S
C230 C235 1.418 . S
C230 O284 1.334 . S
C231 C230 1.407 . S
C231 C232 1.360 . S
C231 H292 0.929 . S
C232 C231 1.360 . S
C232 C233 1.401 . S
C232 C236 1.527 . S
C233 C232 1.401 . S
C233 C234 1.405 . S
C233 C266 1.587 . S
C234 C233 1.405 . S
C234 C235 1.332 . S
C234 C237 1.496 1_565 S
C235 C230 1.418 . S
C235 C234 1.332 . S
C235 H293 0.929 . S
C236 C232 1.527 . S
C236 H294 0.959 . S
C236 H295 0.961 . S
C236 H296 0.961 . S
C237 C234 1.496 1_545 S
C237 H297 0.960 . S
C237 H298 0.960 1_545 S
C237 H299 0.961 . S
C238 C239 1.517 . S
C238 H301 0.961 . S
C238 H302 0.960 . S
C238 H303 0.959 . S
C239 C238 1.517 . S
C239 O287 1.468 . S
C239 H300 0.980 . S
C240 C241 1.349 . S
C240 C245 1.367 . S
C240 O287 1.408 . S
C241 C240 1.349 . S
C241 C242 1.407 . S
C241 H304 0.930 . S
C242 C241 1.407 . S
C242 C243 1.449 . S
C242 C246 1.535 . S
C243 C242 1.449 . S
C243 C244 1.384 . S
C243 C268 1.553 . S
C244 C243 1.384 . S
C244 C245 1.364 . S
C244 C247 1.450 . S
C245 C240 1.367 . S
C245 C244 1.364 . S
C245 H305 0.931 . S
C246 C242 1.535 . S
C246 H306 0.959 . S
C246 H307 0.961 . S
C246 H308 0.959 . S
C247 C244 1.450 . S
C247 H309 0.960 . S
C247 H310 0.960 . S
C247 H311 0.960 . S
C248 C249 1.309 . S
C248 C253 1.304 . S
C248 O286 1.435 . S
C249 C248 1.309 . S
C249 C250 1.476 . S
C249 H313 0.930 . S
C250 C249 1.476 . S
C250 C251 1.400 . S
C250 C254 1.567 . S
C251 C250 1.400 . S
C251 C252 1.373 . S
C251 C273 1.432 . S
C252 C251 1.373 . S
C252 C253 1.339 . S
C252 C255 1.530 1_545 S
C253 C248 1.304 . S
C253 C252 1.339 . S
C253 H314 0.930 1_545 S
C254 C250 1.567 . S
C254 H315 0.961 . S
C254 H316 0.960 . S
C254 H317 0.958 . S
C255 C252 1.530 1_565 S
C255 H318 0.961 . S
C255 H319 0.960 . S
C255 H320 0.960 . S
C256 C257 1.530 . S
C256 H322 0.961 . S
C256 H323 0.961 . S
C256 H324 0.959 . S
C257 C256 1.530 . S
C257 O285 1.412 1_455 S
C257 H321 0.980 . S
C258 C259 1.288 . S
C258 C263 1.377 . S
C258 O285 1.393 . S
C259 C258 1.288 . S
C259 C260 1.369 . S
C259 H325 0.932 . S
C260 C259 1.369 . S
C260 C261 1.398 . S
C260 C264 1.527 . S
C261 C260 1.398 . S
C261 C262 1.380 . S
C261 C275 1.497 . S
C262 C261 1.380 . S
C262 C263 1.383 . S
C262 C265 1.603 1_545 S
C263 C258 1.377 . S
C263 C262 1.383 . S
C263 H326 0.929 . S
C264 C260 1.527 . S
C264 H327 0.961 . S
C264 H328 0.959 . S
C264 H329 0.959 . S
C265 C262 1.603 1_565 S
C265 H330 0.960 . S
C265 H331 0.962 . S
C265 H332 0.961 . S
C266 C233 1.587 . S
C266 C267 1.360 . S
C266 C279 1.412 . S
C267 C266 1.360 . S
C267 C268 1.365 . S
C267 H333 0.929 . S
C268 C243 1.553 . S
C268 C267 1.365 . S
C268 C269 1.404 . S
C269 C268 1.404 . S
C269 C270 1.395 . S
C269 C280 1.451 . S
C270 C269 1.395 . S
C270 C271 1.322 1_554 S
C270 H334 0.930 . S
C271 C270 1.322 1_556 S
C271 C272 1.459 . S
C271 H335 0.929 . S
C272 C271 1.459 . S
C272 C273 1.445 1_565 S
C272 C281 1.395 . S
C273 C251 1.432 . S
C273 C272 1.445 1_545 S
C273 C274 1.370 . S
C274 C273 1.370 . S
C274 C275 1.438 . S
C274 H336 0.930 . S
C275 C261 1.497 . S
C275 C274 1.438 . S
C275 C276 1.360 . S
C276 C275 1.360 . S
C276 C277 1.401 . S
C276 C281 1.446 1_545 S
C277 C276 1.401 . S
C277 C278 1.347 1_546 S
C277 H337 0.929 . S
C278 C277 1.347 1_564 S
C278 C279 1.455 . S
C278 H338 0.930 . S
C279 C266 1.412 . S
C279 C278 1.455 . S
C279 C280 1.331 . S
C280 C269 1.451 . S
C280 C279 1.331 . S
C280 C281 1.497 1_554 S
C281 C272 1.395 . S
C281 C276 1.446 1_565 S
C281 C280 1.497 1_556 S
C282 C283 1.582 . S
C282 H339 0.962 . S
C282 H340 0.959 . S
C282 H341 0.958 . S
C283 C282 1.582 . S
C283 O286 1.458 . S
C283 H312 0.980 . S
O284 C229 1.426 . S
O284 C230 1.334 . S
O285 C257 1.412 1_655 S
O285 C258 1.393 . S
O286 C248 1.435 . S
O286 C283 1.458 . S
O287 C239 1.468 . S
O287 C240 1.408 . S
H288 C229 0.980 . S
H289 C228 0.959 1_655 S
H290 C228 0.959 . S
H291 C228 0.960 . S
H292 C231 0.929 . S
H293 C235 0.929 . S
H294 C236 0.959 . S
H295 C236 0.961 . S
H296 C236 0.961 . S
H297 C237 0.960 . S
H298 C237 0.960 1_565 S
H299 C237 0.961 . S
H300 C239 0.980 . S
H301 C238 0.961 . S
H302 C238 0.960 . S
H303 C238 0.959 . S
H304 C241 0.930 . S
H305 C245 0.931 . S
H306 C246 0.959 . S
H307 C246 0.961 . S
H308 C246 0.959 . S
H309 C247 0.960 . S
H310 C247 0.960 . S
H311 C247 0.960 . S
H312 C283 0.980 . S
H313 C249 0.930 . S
H314 C253 0.930 1_565 S
H315 C254 0.961 . S
H316 C254 0.960 . S
H317 C254 0.958 . S
H318 C255 0.961 . S
H319 C255 0.960 . S
H320 C255 0.960 . S
H321 C257 0.980 . S
H322 C256 0.961 . S
H323 C256 0.961 . S
H324 C256 0.959 . S
H325 C259 0.932 . S
H326 C263 0.929 . S
H327 C264 0.961 . S
H328 C264 0.959 . S
H329 C264 0.959 . S
H330 C265 0.960 . S
H331 C265 0.962 . S
H332 C265 0.961 . S
H333 C267 0.929 . S
H334 C270 0.930 . S
H335 C271 0.929 . S
H336 C274 0.930 . S
H337 C277 0.929 . S
H338 C278 0.930 . S
H339 C282 0.962 . S
H340 C282 0.959 . S
H341 C282 0.958 . S
C342 C343 1.563 . S
C342 H403 0.959 1_565 S
C342 H404 0.959 . S
C342 H405 0.960 . S
C343 C342 1.563 . S
C343 O398 1.422 1_565 S
C343 H402 0.976 1_565 S
C344 C345 1.407 . S
C344 C349 1.418 . S
C344 O398 1.334 . S
C345 C344 1.407 . S
C345 C346 1.360 . S
C345 H406 0.929 . S
C346 C345 1.360 . S
C346 C347 1.401 . S
C346 C350 1.527 . S
C347 C346 1.401 . S
C347 C348 1.405 . S
C347 C380 1.587 . S
C348 C347 1.405 . S
C348 C349 1.332 . S
C348 C351 1.496 . S
C349 C344 1.418 . S
C349 C348 1.332 . S
C349 H407 0.929 . S
C350 C346 1.527 . S
C350 H408 0.959 . S
C350 H409 0.961 . S
C350 H410 0.961 . S
C351 C348 1.496 . S
C351 H411 0.960 . S
C351 H412 0.960 . S
C351 H413 0.961 . S
C352 C353 1.517 . S
C352 H415 0.961 . S
C352 H416 0.960 . S
C352 H417 0.959 . S
C353 C352 1.517 . S
C353 O401 1.468 . S
C353 H414 0.980 . S
C354 C355 1.349 . S
C354 C359 1.367 . S
C354 O401 1.408 . S
C355 C354 1.349 . S
C355 C356 1.407 . S
C355 H418 0.930 . S
C356 C355 1.407 . S
C356 C357 1.449 . S
C356 C360 1.535 . S
C357 C356 1.449 . S
C357 C358 1.384 . S
C357 C382 1.553 . S
C358 C357 1.384 . S
C358 C359 1.364 . S
C358 C361 1.450 . S
C359 C354 1.367 . S
C359 C358 1.364 . S
C359 H419 0.931 . S
C360 C356 1.535 . S
C360 H420 0.959 . S
C360 H421 0.961 . S
C360 H422 0.959 . S
C361 C358 1.450 . S
C361 H423 0.960 . S
C361 H424 0.960 . S
C361 H425 0.960 . S
C362 C363 1.309 . S
C362 C367 1.304 . S
C362 O400 1.435 . S
C363 C362 1.309 . S
C363 C364 1.476 . S
C363 H427 0.930 . S
C364 C363 1.476 . S
C364 C365 1.400 . S
C364 C368 1.567 . S
C365 C364 1.400 . S
C365 C366 1.373 . S
C365 C387 1.432 . S
C366 C365 1.373 . S
C366 C367 1.339 . S
C366 C369 1.530 . S
C367 C362 1.304 . S
C367 C366 1.339 . S
C367 H428 0.930 . S
C368 C364 1.567 . S
C368 H429 0.961 . S
C368 H430 0.960 . S
C368 H431 0.958 . S
C369 C366 1.530 . S
C369 H432 0.961 . S
C369 H433 0.960 . S
C369 H434 0.960 . S
C370 C371 1.530 . S
C370 H436 0.961 . S
C370 H437 0.961 . S
C370 H438 0.959 . S
C371 C370 1.530 . S
C371 O399 1.412 1_565 S
C371 H435 0.980 . S
C372 C373 1.288 . S
C372 C377 1.377 . S
C372 O399 1.393 . S
C373 C372 1.288 . S
C373 C374 1.369 . S
C373 H439 0.932 . S
C374 C373 1.369 . S
C374 C375 1.398 . S
C374 C378 1.527 . S
C375 C374 1.398 . S
C375 C376 1.380 . S
C375 C389 1.497 . S
C376 C375 1.380 . S
C376 C377 1.383 . S
C376 C379 1.603 . S
C377 C372 1.377 . S
C377 C376 1.383 . S
C377 H440 0.929 . S
C378 C374 1.527 . S
C378 H441 0.961 . S
C378 H442 0.959 . S
C378 H443 0.959 . S
C379 C376 1.603 . S
C379 H444 0.960 . S
C379 H445 0.962 . S
C379 H446 0.961 . S
C380 C347 1.587 . S
C380 C381 1.360 . S
C380 C393 1.412 . S
C381 C380 1.360 . S
C381 C382 1.365 . S
C381 H447 0.929 . S
C382 C357 1.553 . S
C382 C381 1.365 . S
C382 C383 1.404 . S
C383 C382 1.404 . S
C383 C384 1.395 . S
C383 C394 1.451 . S
C384 C383 1.395 . S
C384 C385 1.322 . S
C384 H448 0.930 . S
C385 C384 1.322 . S
C385 C386 1.459 . S
C385 H449 0.929 . S
C386 C385 1.459 . S
C386 C387 1.445 . S
C386 C395 1.395 . S
C387 C365 1.432 . S
C387 C386 1.445 . S
C387 C388 1.370 . S
C388 C387 1.370 . S
C388 C389 1.438 . S
C388 H450 0.930 . S
C389 C375 1.497 . S
C389 C388 1.438 . S
C389 C390 1.360 . S
C390 C389 1.360 . S
C390 C391 1.401 . S
C390 C395 1.446 . S
C391 C390 1.401 . S
C391 C392 1.347 . S
C391 H451 0.929 . S
C392 C391 1.347 . S
C392 C393 1.455 . S
C392 H452 0.930 . S
C393 C380 1.412 . S
C393 C392 1.455 . S
C393 C394 1.331 . S
C394 C383 1.451 . S
C394 C393 1.331 . S
C394 C395 1.497 . S
C395 C386 1.395 . S
C395 C390 1.446 . S
C395 C394 1.497 . S
C396 C397 1.582 . S
C396 H453 0.962 . S
C396 H454 0.959 . S
C396 H455 0.958 . S
C397 C396 1.582 . S
C397 O400 1.458 . S
C397 H426 0.980 . S
O398 C343 1.422 1_545 S
O398 C344 1.334 . S
O399 C371 1.412 1_545 S
O399 C372 1.393 . S
O400 C362 1.435 . S
O400 C397 1.458 . S
O401 C353 1.468 . S
O401 C354 1.408 . S
H402 C343 0.976 1_545 S
H403 C342 0.959 1_545 S
H404 C342 0.959 . S
H405 C342 0.960 . S
H406 C345 0.929 . S
H407 C349 0.929 . S
H408 C350 0.959 . S
H409 C350 0.961 . S
H410 C350 0.961 . S
H411 C351 0.960 . S
H412 C351 0.960 . S
H413 C351 0.961 . S
H414 C353 0.980 . S
H415 C352 0.961 . S
H416 C352 0.960 . S
H417 C352 0.959 . S
H418 C355 0.930 . S
H419 C359 0.931 . S
H420 C360 0.959 . S
H421 C360 0.961 . S
H422 C360 0.959 . S
H423 C361 0.960 . S
H424 C361 0.960 . S
H425 C361 0.960 . S
H426 C397 0.980 . S
H427 C363 0.930 . S
H428 C367 0.930 . S
H429 C368 0.961 . S
H430 C368 0.960 . S
H431 C368 0.958 . S
H432 C369 0.961 . S
H433 C369 0.960 . S
H434 C369 0.960 . S
H435 C371 0.980 . S
H436 C370 0.961 . S
H437 C370 0.961 . S
H438 C370 0.959 . S
H439 C373 0.932 . S
H440 C377 0.929 . S
H441 C378 0.961 . S
H442 C378 0.959 . S
H443 C378 0.959 . S
H444 C379 0.960 . S
H445 C379 0.962 . S
H446 C379 0.961 . S
H447 C381 0.929 . S
H448 C384 0.930 . S
H449 C385 0.929 . S
H450 C388 0.930 . S
H451 C391 0.929 . S
H452 C392 0.930 . S
H453 C396 0.962 . S
H454 C396 0.959 . S
H455 C396 0.958 . S
C456 C457 1.560 . S
C456 H517 0.959 . S
C456 H518 0.959 . S
C456 H519 0.960 . S
C457 C456 1.560 . S
C457 O512 1.426 . S
C457 H516 0.980 . S
C458 C459 1.407 . S
C458 C463 1.418 . S
C458 O512 1.334 . S
C459 C458 1.407 . S
C459 C460 1.360 . S
C459 H520 0.929 . S
C460 C459 1.360 . S
C460 C461 1.401 . S
C460 C464 1.527 . S
C461 C460 1.401 . S
C461 C462 1.405 . S
C461 C494 1.587 . S
C462 C461 1.405 . S
C462 C463 1.332 . S
C462 C465 1.496 . S
C463 C458 1.418 . S
C463 C462 1.332 . S
C463 H521 0.929 . S
C464 C460 1.527 . S
C464 H522 0.959 . S
C464 H523 0.961 . S
C464 H524 0.961 . S
C465 C462 1.496 . S
C465 H525 0.960 . S
C465 H526 0.960 . S
C465 H527 0.961 . S
C466 C467 1.517 . S
C466 H529 0.961 . S
C466 H530 0.960 . S
C466 H531 0.959 . S
C467 C466 1.517 . S
C467 O515 1.468 . S
C467 H528 0.980 . S
C468 C469 1.349 . S
C468 C473 1.367 . S
C468 O515 1.408 . S
C469 C468 1.349 . S
C469 C470 1.407 1_565 S
C469 H532 0.930 . S
C470 C469 1.407 1_545 S
C470 C471 1.449 . S
C470 C474 1.535 . S
C471 C470 1.449 . S
C471 C472 1.384 . S
C471 C496 1.553 . S
C472 C471 1.384 . S
C472 C473 1.364 1_545 S
C472 C475 1.450 . S
C473 C468 1.367 . S
C473 C472 1.364 1_565 S
C473 H533 0.931 . S
C474 C470 1.535 . S
C474 H534 0.959 . S
C474 H535 0.961 . S
C474 H536 0.959 . S
C475 C472 1.450 . S
C475 H537 0.960 . S
C475 H538 0.960 . S
C475 H539 0.960 . S
C476 C477 1.309 . S
C476 C481 1.304 1_655 S
C476 O514 1.435 1_655 S
C477 C476 1.309 . S
C477 C478 1.476 . S
C477 H541 0.930 . S
C478 C477 1.476 . S
C478 C479 1.400 1_565 S
C478 C482 1.567 1_565 S
C479 C478 1.400 1_545 S
C479 C480 1.373 1_655 S
C479 C501 1.432 . S
C480 C479 1.373 1_455 S
C480 C481 1.339 1_545 S
C480 C483 1.530 . S
C481 C476 1.304 1_455 S
C481 C480 1.339 1_565 S
C481 H542 0.930 . S
C482 C478 1.567 1_545 S
C482 H543 0.961 . S
C482 H544 0.960 1_545 S
C482 H545 0.958 . S
C483 C480 1.530 . S
C483 H546 0.961 . S
C483 H547 0.960 . S
C483 H548 0.960 . S
C484 C485 1.530 . S
C484 H550 0.961 . S
C484 H551 0.961 . S
C484 H552 0.959 . S
C485 C484 1.530 . S
C485 O513 1.412 . S
C485 H549 0.980 . S
C486 C487 1.288 . S
C486 C491 1.377 . S
C486 O513 1.393 . S
C487 C486 1.288 . S
C487 C488 1.369 . S
C487 H553 0.932 . S
C488 C487 1.369 . S
C488 C489 1.398 . S
C488 C492 1.527 . S
C489 C488 1.398 . S
C489 C490 1.380 . S
C489 C503 1.497 . S
C490 C489 1.380 . S
C490 C491 1.383 . S
C490 C493 1.603 1_655 S
C491 C486 1.377 . S
C491 C490 1.383 . S
C491 H554 0.929 1_655 S
C492 C488 1.527 . S
C492 H555 0.961 . S
C492 H556 0.959 . S
C492 H557 0.959 . S
C493 C490 1.603 1_455 S
C493 H558 0.960 . S
C493 H559 0.962 . S
C493 H560 0.961 . S
C494 C461 1.587 . S
C494 C495 1.360 . S
C494 C507 1.412 . S
C495 C494 1.360 . S
C495 C496 1.365 . S
C495 H561 0.929 . S
C496 C471 1.553 . S
C496 C495 1.365 . S
C496 C497 1.404 . S
C497 C496 1.404 . S
C497 C498 1.395 . S
C497 C508 1.451 . S
C498 C497 1.395 . S
C498 C499 1.322 . S
C498 H562 0.944 . S
C499 C498 1.322 . S
C499 C500 1.459 . S
C499 H563 0.929 1_545 S
C500 C499 1.459 . S
C500 C501 1.445 . S
C500 C509 1.395 . S
C501 C479 1.432 . S
C501 C500 1.445 . S
C501 C502 1.370 . S
C502 C501 1.370 . S
C502 C503 1.438 . S
C502 H564 0.930 . S
C503 C489 1.497 . S
C503 C502 1.438 . S
C503 C504 1.360 . S
C504 C503 1.360 . S
C504 C505 1.401 . S
C504 C509 1.446 . S
C505 C504 1.401 . S
C505 C506 1.347 . S
C505 H565 0.929 . S
C506 C505 1.347 . S
C506 C507 1.455 . S
C506 H566 0.930 . S
C507 C494 1.412 . S
C507 C506 1.455 . S
C507 C508 1.331 . S
C508 C497 1.451 . S
C508 C507 1.331 . S
C508 C509 1.497 . S
C509 C500 1.395 . S
C509 C504 1.446 . S
C509 C508 1.497 . S
C510 C511 1.582 1_455 S
C510 H567 0.962 . S
C510 H568 0.959 . S
C510 H569 0.958 . S
C511 C510 1.582 1_655 S
C511 O514 1.458 1_655 S
C511 H540 0.980 . S
O512 C457 1.426 . S
O512 C458 1.334 . S
O513 C485 1.412 . S
O513 C486 1.393 . S
O514 C476 1.435 1_455 S
O514 C511 1.458 1_455 S
O515 C467 1.468 . S
O515 C468 1.408 . S
H516 C457 0.980 . S
H517 C456 0.959 . S
H518 C456 0.959 . S
H519 C456 0.960 . S
H520 C459 0.929 . S
H521 C463 0.929 . S
H522 C464 0.959 . S
H523 C464 0.961 . S
H524 C464 0.961 . S
H525 C465 0.960 . S
H526 C465 0.960 . S
H527 C465 0.961 . S
H528 C467 0.980 . S
H529 C466 0.961 . S
H530 C466 0.960 . S
H531 C466 0.959 . S
H532 C469 0.930 . S
H533 C473 0.931 . S
H534 C474 0.959 . S
H535 C474 0.961 . S
H536 C474 0.959 . S
H537 C475 0.960 . S
H538 C475 0.960 . S
H539 C475 0.960 . S
H540 C511 0.980 . S
H541 C477 0.930 . S
H542 C481 0.930 . S
H543 C482 0.961 . S
H544 C482 0.960 1_565 S
H545 C482 0.958 . S
H546 C483 0.961 . S
H547 C483 0.960 . S
H548 C483 0.960 . S
H549 C485 0.980 . S
H550 C484 0.961 . S
H551 C484 0.961 . S
H552 C484 0.959 . S
H553 C487 0.932 . S
H554 C491 0.929 1_455 S
H555 C492 0.961 . S
H556 C492 0.959 . S
H557 C492 0.959 . S
H558 C493 0.960 . S
H559 C493 0.962 . S
H560 C493 0.961 . S
H561 C495 0.929 . S
H562 C498 0.944 . S
H563 C499 0.929 1_565 S
H564 C502 0.930 . S
H565 C505 0.929 . S
H566 C506 0.930 . S
H567 C510 0.962 . S
H568 C510 0.959 . S
H569 C510 0.958 . S
C570 C571 1.560 . S
C570 H631 0.959 . S
C570 H632 0.959 . S
C570 H633 0.960 . S
C571 C570 1.560 . S
C571 O626 1.426 . S
C571 H630 0.980 . S
C572 C573 1.407 . S
C572 C577 1.418 . S
C572 O626 1.334 . S
C573 C572 1.407 . S
C573 C574 1.360 . S
C573 H634 0.929 . S
C574 C573 1.360 . S
C574 C575 1.401 . S
C574 C578 1.527 . S
C575 C574 1.401 . S
C575 C576 1.405 . S
C575 C608 1.587 . S
C576 C575 1.405 . S
C576 C577 1.332 . S
C576 C579 1.496 . S
C577 C572 1.418 . S
C577 C576 1.332 . S
C577 H635 0.929 . S
C578 C574 1.527 . S
C578 H636 0.959 . S
C578 H637 0.961 . S
C578 H638 0.961 . S
C579 C576 1.496 . S
C579 H639 0.960 . S
C579 H640 0.960 . S
C579 H641 0.961 . S
C580 C581 1.517 . S
C580 H643 0.961 . S
C580 H644 0.960 . S
C580 H645 0.959 . S
C581 C580 1.517 . S
C581 O629 1.468 . S
C581 H642 0.980 . S
C582 C583 1.349 . S
C582 C587 1.367 . S
C582 O629 1.408 . S
C583 C582 1.349 . S
C583 C584 1.407 1_545 S
C583 H646 0.930 . S
C584 C583 1.407 1_565 S
C584 C585 1.449 . S
C584 C588 1.535 . S
C585 C584 1.449 . S
C585 C586 1.384 . S
C585 C610 1.553 . S
C586 C585 1.384 . S
C586 C587 1.364 1_565 S
C586 C589 1.450 . S
C587 C582 1.367 . S
C587 C586 1.364 1_545 S
C587 H647 0.931 . S
C588 C584 1.535 . S
C588 H648 0.959 . S
C588 H649 0.961 . S
C588 H650 0.959 . S
C589 C586 1.450 . S
C589 H651 0.960 . S
C589 H652 0.960 . S
C589 H653 0.960 . S
C590 C591 1.309 . S
C590 C595 1.304 1_655 S
C590 O628 1.435 1_655 S
C591 C590 1.309 . S
C591 C592 1.476 . S
C591 H655 0.930 . S
C592 C591 1.476 . S
C592 C593 1.400 1_545 S
C592 C596 1.567 1_545 S
C593 C592 1.400 1_565 S
C593 C594 1.373 1_655 S
C593 C615 1.432 . S
C594 C593 1.373 1_455 S
C594 C595 1.339 1_565 S
C594 C597 1.530 . S
C595 C590 1.304 1_455 S
C595 C594 1.339 1_545 S
C595 H656 0.930 . S
C596 C592 1.567 1_565 S
C596 H657 0.961 . S
C596 H658 0.960 1_565 S
C596 H659 0.958 . S
C597 C594 1.530 . S
C597 H660 0.961 . S
C597 H661 0.960 . S
C597 H662 0.960 . S
C598 C599 1.530 . S
C598 H664 0.961 . S
C598 H665 0.961 . S
C598 H666 0.959 . S
C599 C598 1.530 . S
C599 O627 1.412 . S
C599 H663 0.980 . S
C600 C601 1.288 . S
C600 C605 1.377 . S
C600 O627 1.393 . S
C601 C600 1.288 . S
C601 C602 1.369 . S
C601 H667 0.932 . S
C602 C601 1.369 . S
C602 C603 1.398 . S
C602 C606 1.527 . S
C603 C602 1.398 . S
C603 C604 1.380 . S
C603 C617 1.497 . S
C604 C603 1.380 . S
C604 C605 1.383 . S
C604 C607 1.603 1_655 S
C605 C600 1.377 . S
C605 C604 1.383 . S
C605 H668 0.932 . S
C606 C602 1.527 . S
C606 H669 0.961 . S
C606 H670 0.959 . S
C606 H671 0.959 . S
C607 C604 1.603 1_455 S
C607 H672 0.960 . S
C607 H673 0.962 . S
C607 H674 0.961 . S
C608 C575 1.587 . S
C608 C609 1.360 . S
C608 C621 1.412 . S
C609 C608 1.360 . S
C609 C610 1.365 . S
C609 H675 0.929 . S
C610 C585 1.553 . S
C610 C609 1.365 . S
C610 C611 1.404 . S
C611 C610 1.404 . S
C611 C612 1.395 . S
C611 C622 1.451 . S
C612 C611 1.395 . S
C612 C613 1.322 . S
C612 H676 0.930 1_565 S
C613 C612 1.322 . S
C613 C614 1.459 . S
C613 H677 0.929 1_565 S
C614 C613 1.459 . S
C614 C615 1.445 . S
C614 C623 1.395 . S
C615 C593 1.432 . S
C615 C614 1.445 . S
C615 C616 1.370 . S
C616 C615 1.370 . S
C616 C617 1.438 . S
C616 H678 0.930 . S
C617 C603 1.497 . S
C617 C616 1.438 . S
C617 C618 1.360 . S
C618 C617 1.360 . S
C618 C619 1.401 . S
C618 C623 1.446 . S
C619 C618 1.401 . S
C619 C620 1.347 . S
C619 H679 0.929 . S
C620 C619 1.347 . S
C620 C621 1.455 . S
C620 H680 0.930 . S
C621 C608 1.412 . S
C621 C620 1.455 . S
C621 C622 1.331 . S
C622 C611 1.451 . S
C622 C621 1.331 . S
C622 C623 1.497 . S
C623 C614 1.395 . S
C623 C618 1.446 . S
C623 C622 1.497 . S
C624 C625 1.582 1_455 S
C624 H681 0.962 . S
C624 H682 0.959 . S
C624 H683 0.958 . S
C625 C624 1.582 1_655 S
C625 O628 1.458 1_655 S
C625 H654 0.980 . S
O626 C571 1.426 . S
O626 C572 1.334 . S
O627 C599 1.412 . S
O627 C600 1.393 . S
O628 C590 1.435 1_455 S
O628 C625 1.458 1_455 S
O629 C581 1.468 . S
O629 C582 1.408 . S
H630 C571 0.980 . S
H631 C570 0.959 . S
H632 C570 0.959 . S
H633 C570 0.960 . S
H634 C573 0.929 . S
H635 C577 0.929 . S
H636 C578 0.959 . S
H637 C578 0.961 . S
H638 C578 0.961 . S
H639 C579 0.960 . S
H640 C579 0.960 . S
H641 C579 0.961 . S
H642 C581 0.980 . S
H643 C580 0.961 . S
H644 C580 0.960 . S
H645 C580 0.959 . S
H646 C583 0.930 . S
H647 C587 0.931 . S
H648 C588 0.959 . S
H649 C588 0.961 . S
H650 C588 0.959 . S
H651 C589 0.960 . S
H652 C589 0.960 . S
H653 C589 0.960 . S
H654 C625 0.980 . S
H655 C591 0.930 . S
H656 C595 0.930 . S
H657 C596 0.961 . S
H658 C596 0.960 1_545 S
H659 C596 0.958 . S
H660 C597 0.961 . S
H661 C597 0.960 . S
H662 C597 0.960 . S
H663 C599 0.980 . S
H664 C598 0.961 . S
H665 C598 0.961 . S
H666 C598 0.959 . S
H667 C601 0.932 . S
H668 C605 0.932 . S
H669 C606 0.961 . S
H670 C606 0.959 . S
H671 C606 0.959 . S
H672 C607 0.960 . S
H673 C607 0.962 . S
H674 C607 0.961 . S
H675 C609 0.929 . S
H676 C612 0.930 1_545 S
H677 C613 0.929 1_545 S
H678 C616 0.930 . S
H679 C619 0.929 . S
H680 C620 0.930 . S
H681 C624 0.962 . S
H682 C624 0.959 . S
H683 C624 0.958 . S
C684 C685 1.560 . S
C684 H745 0.959 . S
C684 H746 0.959 . S
C684 H747 0.960 . S
C685 C684 1.560 . S
C685 O740 1.426 . S
C685 H744 0.980 . S
C686 C687 1.407 . S
C686 C691 1.418 . S
C686 O740 1.334 . S
C687 C686 1.407 . S
C687 C688 1.360 . S
C687 H748 0.929 . S
C688 C687 1.360 . S
C688 C689 1.401 . S
C688 C692 1.527 . S
C689 C688 1.401 . S
C689 C690 1.405 . S
C689 C722 1.587 . S
C690 C689 1.405 . S
C690 C691 1.332 . S
C690 C693 1.496 . S
C691 C686 1.418 . S
C691 C690 1.332 . S
C691 H749 0.929 . S
C692 C688 1.527 . S
C692 H750 0.959 . S
C692 H751 0.961 . S
C692 H752 0.961 . S
C693 C690 1.496 . S
C693 H753 0.960 . S
C693 H754 0.960 . S
C693 H755 0.961 . S
C694 C695 1.517 . S
C694 H757 0.961 . S
C694 H758 0.960 . S
C694 H759 0.959 . S
C695 C694 1.517 . S
C695 O743 1.468 . S
C695 H756 0.980 . S
C696 C697 1.349 . S
C696 C701 1.367 . S
C696 O743 1.408 . S
C697 C696 1.349 . S
C697 C698 1.407 . S
C697 H760 0.930 . S
C698 C697 1.407 . S
C698 C699 1.449 . S
C698 C702 1.535 . S
C699 C698 1.449 . S
C699 C700 1.384 . S
C699 C724 1.553 . S
C700 C699 1.384 . S
C700 C701 1.364 . S
C700 C703 1.450 . S
C701 C696 1.367 . S
C701 C700 1.364 . S
C701 H761 0.931 . S
C702 C698 1.535 . S
C702 H762 0.959 . S
C702 H763 0.961 . S
C702 H764 0.959 . S
C703 C700 1.450 . S
C703 H765 0.960 . S
C703 H766 0.960 . S
C703 H767 0.960 . S
C704 C705 1.309 . S
C704 C709 1.304 . S
C704 O742 1.435 . S
C705 C704 1.309 . S
C705 C706 1.476 . S
C705 H769 0.930 . S
C706 C705 1.476 . S
C706 C707 1.400 . S
C706 C710 1.567 . S
C707 C706 1.400 . S
C707 C708 1.373 . S
C707 C729 1.432 . S
C708 C707 1.373 . S
C708 C709 1.339 . S
C708 C711 1.530 . S
C709 C704 1.304 . S
C709 C708 1.339 . S
C709 H770 0.930 . S
C710 C706 1.567 . S
C710 H771 0.961 . S
C710 H772 0.960 . S
C710 H773 0.958 . S
C711 C708 1.530 . S
C711 H774 0.961 . S
C711 H775 1.003 . S
C711 H776 0.960 . S
C712 C713 1.530 . S
C712 H778 0.961 . S
C712 H779 0.961 . S
C712 H780 0.959 . S
C713 C712 1.530 . S
C713 O741 1.412 . S
C713 H777 0.980 . S
C714 C715 1.288 . S
C714 C719 1.377 . S
C714 O741 1.393 . S
C715 C714 1.288 . S
C715 C716 1.369 . S
C715 H781 0.932 . S
C716 C715 1.369 . S
C716 C717 1.398 . S
C716 C720 1.527 . S
C717 C716 1.398 . S
C717 C718 1.380 . S
C717 C731 1.497 . S
C718 C717 1.380 . S
C718 C719 1.383 . S
C718 C721 1.603 . S
C719 C714 1.377 . S
C719 C718 1.383 . S
C719 H782 0.929 . S
C720 C716 1.527 . S
C720 H783 0.961 . S
C720 H784 0.959 . S
C720 H785 0.959 . S
C721 C718 1.603 . S
C721 H786 0.960 . S
C721 H787 0.962 . S
C721 H788 0.961 . S
C722 C689 1.587 . S
C722 C723 1.360 . S
C722 C735 1.412 . S
C723 C722 1.360 . S
C723 C724 1.365 . S
C723 H789 0.929 . S
C724 C699 1.553 . S
C724 C723 1.365 . S
C724 C725 1.404 . S
C725 C724 1.404 . S
C725 C726 1.395 . S
C725 C736 1.451 . S
C726 C725 1.395 . S
C726 C727 1.322 . S
C726 H790 0.930 . S
C727 C726 1.322 . S
C727 C728 1.459 1_554 S
C727 H791 0.929 . S
C728 C727 1.459 1_556 S
C728 C729 1.445 . S
C728 C737 1.395 1_556 S
C729 C707 1.432 . S
C729 C728 1.445 . S
C729 C730 1.370 . S
C730 C729 1.370 . S
C730 C731 1.438 . S
C730 H792 0.930 . S
C731 C717 1.497 . S
C731 C730 1.438 . S
C731 C732 1.360 . S
C732 C731 1.360 . S
C732 C733 1.401 1_556 S
C732 C737 1.446 1_556 S
C733 C732 1.401 1_554 S
C733 C734 1.347 . S
C733 H793 0.929 1_554 S
C734 C733 1.347 . S
C734 C735 1.455 . S
C734 H794 0.930 . S
C735 C722 1.412 . S
C735 C734 1.455 . S
C735 C736 1.331 . S
C736 C725 1.451 . S
C736 C735 1.331 . S
C736 C737 1.497 . S
C737 C728 1.395 1_554 S
C737 C732 1.446 1_554 S
C737 C736 1.497 . S
C738 C739 1.582 . S
C738 H795 0.962 . S
C738 H796 0.959 . S
C738 H797 0.958 . S
C739 C738 1.582 . S
C739 O742 1.458 . S
C739 H768 0.980 . S
O740 C685 1.426 . S
O740 C686 1.334 . S
O741 C713 1.412 . S
O741 C714 1.393 . S
O742 C704 1.435 . S
O742 C739 1.458 . S
O743 C695 1.468 . S
O743 C696 1.408 . S
H744 C685 0.980 . S
H745 C684 0.959 . S
H746 C684 0.959 . S
H747 C684 0.960 . S
H748 C687 0.929 . S
H749 C691 0.929 . S
H750 C692 0.959 . S
H751 C692 0.961 . S
H752 C692 0.961 . S
H753 C693 0.960 . S
H754 C693 0.960 . S
H755 C693 0.961 . S
H756 C695 0.980 . S
H757 C694 0.961 . S
H758 C694 0.960 . S
H759 C694 0.959 . S
H760 C697 0.930 . S
H761 C701 0.931 . S
H762 C702 0.959 . S
H763 C702 0.961 . S
H764 C702 0.959 . S
H765 C703 0.960 . S
H766 C703 0.960 . S
H767 C703 0.960 . S
H768 C739 0.980 . S
H769 C705 0.930 . S
H770 C709 0.930 . S
H771 C710 0.961 . S
H772 C710 0.960 . S
H773 C710 0.958 . S
H774 C711 0.961 . S
H775 C711 1.003 . S
H776 C711 0.960 . S
H777 C713 0.980 . S
H778 C712 0.961 . S
H779 C712 0.961 . S
H780 C712 0.959 . S
H781 C715 0.932 . S
H782 C719 0.929 . S
H783 C720 0.961 . S
H784 C720 0.959 . S
H785 C720 0.959 . S
H786 C721 0.960 . S
H787 C721 0.962 . S
H788 C721 0.961 . S
H789 C723 0.929 . S
H790 C726 0.930 . S
H791 C727 0.929 . S
H792 C730 0.930 . S
H793 C733 0.929 1_556 S
H794 C734 0.930 . S
H795 C738 0.962 . S
H796 C738 0.959 . S
H797 C738 0.958 . S
C798 C799 1.560 . S
C798 H859 0.959 . S
C798 H860 0.959 . S
C798 H861 0.960 . S
C799 C798 1.560 . S
C799 O854 1.426 . S
C799 H858 0.980 . S
C800 C801 1.407 . S
C800 C805 1.418 . S
C800 O854 1.334 . S
C801 C800 1.407 . S
C801 C802 1.360 . S
C801 H862 0.929 . S
C802 C801 1.360 . S
C802 C803 1.401 1_655 S
C802 C806 1.527 1_655 S
C803 C802 1.401 1_455 S
C803 C804 1.405 . S
C803 C836 1.587 . S
C804 C803 1.405 . S
C804 C805 1.332 1_455 S
C804 C807 1.496 . S
C805 C800 1.418 . S
C805 C804 1.332 1_655 S
C805 H863 0.929 . S
C806 C802 1.527 1_455 S
C806 H864 0.959 . S
C806 H865 0.961 1_455 S
C806 H866 0.961 . S
C807 C804 1.496 . S
C807 H867 0.960 . S
C807 H868 0.960 . S
C807 H869 0.961 . S
C808 C809 1.517 . S
C808 H871 0.961 . S
C808 H872 0.960 . S
C808 H873 0.959 . S
C809 C808 1.517 . S
C809 O857 1.468 . S
C809 H870 0.980 . S
C810 C811 1.349 . S
C810 C815 1.367 . S
C810 O857 1.408 . S
C811 C810 1.349 . S
C811 C812 1.407 . S
C811 H874 0.930 . S
C812 C811 1.407 . S
C812 C813 1.449 . S
C812 C816 1.535 . S
C813 C812 1.449 . S
C813 C814 1.384 . S
C813 C838 1.553 . S
C814 C813 1.384 . S
C814 C815 1.364 . S
C814 C817 1.450 . S
C815 C810 1.367 . S
C815 C814 1.364 . S
C815 H875 0.931 . S
C816 C812 1.535 . S
C816 H876 0.959 . S
C816 H877 0.961 . S
C816 H878 0.959 . S
C817 C814 1.450 . S
C817 H879 0.960 . S
C817 H880 0.960 . S
C817 H881 0.960 . S
C818 C819 1.309 . S
C818 C823 1.304 . S
C818 O856 1.435 . S
C819 C818 1.309 . S
C819 C820 1.476 . S
C819 H883 0.930 . S
C820 C819 1.476 . S
C820 C821 1.400 . S
C820 C824 1.567 . S
C821 C820 1.400 . S
C821 C822 1.373 . S
C821 C843 1.432 . S
C822 C821 1.373 . S
C822 C823 1.339 . S
C822 C825 1.530 . S
C823 C818 1.304 . S
C823 C822 1.339 . S
C823 H884 0.930 . S
C824 C820 1.567 . S
C824 H885 0.961 . S
C824 H886 0.960 . S
C824 H887 0.958 . S
C825 C822 1.530 . S
C825 H888 0.961 . S
C825 H889 0.960 . S
C825 H890 0.960 . S
C826 C827 1.530 . S
C826 H892 0.961 . S
C826 H893 0.961 . S
C826 H894 0.959 . S
C827 C826 1.530 . S
C827 O855 1.412 . S
C827 H891 0.980 . S
C828 C829 1.288 . S
C828 C833 1.377 . S
C828 O855 1.393 . S
C829 C828 1.288 . S
C829 C830 1.369 1_655 S
C829 H895 0.932 . S
C830 C829 1.369 1_455 S
C830 C831 1.398 . S
C830 C834 1.527 . S
C831 C830 1.398 . S
C831 C832 1.380 . S
C831 C845 1.497 . S
C832 C831 1.380 . S
C832 C833 1.383 1_455 S
C832 C835 1.603 . S
C833 C828 1.377 . S
C833 C832 1.383 1_655 S
C833 H896 0.929 . S
C834 C830 1.527 . S
C834 H897 0.961 . S
C834 H898 0.959 . S
C834 H899 0.959 . S
C835 C832 1.603 . S
C835 H900 0.960 . S
C835 H901 0.962 . S
C835 H902 0.961 1_455 S
C836 C803 1.587 . S
C836 C837 1.360 . S
C836 C849 1.412 . S
C837 C836 1.360 . S
C837 C838 1.365 . S
C837 H903 0.929 . S
C838 C813 1.553 . S
C838 C837 1.365 . S
C838 C839 1.404 . S
C839 C838 1.404 . S
C839 C840 1.395 . S
C839 C850 1.451 . S
C840 C839 1.395 . S
C840 C841 1.322 . S
C840 H904 0.930 . S
C841 C840 1.322 . S
C841 C842 1.459 . S
C841 H905 0.929 . S
C842 C841 1.459 . S
C842 C843 1.445 . S
C842 C851 1.395 . S
C843 C821 1.432 . S
C843 C842 1.445 . S
C843 C844 1.370 . S
C844 C843 1.370 . S
C844 C845 1.438 . S
C844 H906 0.930 . S
C845 C831 1.497 . S
C845 C844 1.438 . S
C845 C846 1.360 . S
C846 C845 1.360 . S
C846 C847 1.401 . S
C846 C851 1.446 . S
C847 C846 1.401 . S
C847 C848 1.347 . S
C847 H907 0.929 . S
C848 C847 1.347 . S
C848 C849 1.455 . S
C848 H908 0.930 . S
C849 C836 1.412 . S
C849 C848 1.455 . S
C849 C850 1.331 . S
C850 C839 1.451 . S
C850 C849 1.331 . S
C850 C851 1.497 . S
C851 C842 1.395 . S
C851 C846 1.446 . S
C851 C850 1.497 . S
C852 C853 1.582 . S
C852 H909 0.962 . S
C852 H910 0.959 . S
C852 H911 0.958 . S
C853 C852 1.582 . S
C853 O856 1.458 . S
C853 H882 0.980 . S
O854 C799 1.426 . S
O854 C800 1.334 . S
O855 C827 1.412 . S
O855 C828 1.393 . S
O856 C818 1.435 . S
O856 C853 1.458 . S
O857 C809 1.468 . S
O857 C810 1.408 . S
H858 C799 0.980 . S
H859 C798 0.959 . S
H860 C798 0.959 . S
H861 C798 0.960 . S
H862 C801 0.929 . S
H863 C805 0.929 . S
H864 C806 0.959 . S
H865 C806 0.961 1_655 S
H866 C806 0.961 . S
H867 C807 0.960 . S
H868 C807 0.960 . S
H869 C807 0.961 . S
H870 C809 0.980 . S
H871 C808 0.961 . S
H872 C808 0.960 . S
H873 C808 0.959 . S
H874 C811 0.930 . S
H875 C815 0.931 . S
H876 C816 0.959 . S
H877 C816 0.961 . S
H878 C816 0.959 . S
H879 C817 0.960 . S
H880 C817 0.960 . S
H881 C817 0.960 . S
H882 C853 0.980 . S
H883 C819 0.930 . S
H884 C823 0.930 . S
H885 C824 0.961 . S
H886 C824 0.960 . S
H887 C824 0.958 . S
H888 C825 0.961 . S
H889 C825 0.960 . S
H890 C825 0.960 . S
H891 C827 0.980 . S
H892 C826 0.961 . S
H893 C826 0.961 . S
H894 C826 0.959 . S
H895 C829 0.932 . S
H896 C833 0.929 . S
H897 C834 0.961 . S
H898 C834 0.959 . S
H899 C834 0.959 . S
H900 C835 0.960 . S
H901 C835 0.962 . S
H902 C835 0.961 1_655 S
H903 C837 0.929 . S
H904 C840 0.930 . S
H905 C841 0.929 . S
H906 C844 0.930 . S
H907 C847 0.929 . S
H908 C848 0.930 . S
H909 C852 0.962 . S
H910 C852 0.959 . S
H911 C852 0.958 . S
C912 O939 1.312 . S
C912 O940 1.208 . S
C913 O934 1.331 . S
C913 O937 1.244 . S
C914 O936 1.264 . S
C914 O938 1.273 . S
Mg915 O917 1.936 . S
Mg915 O924 2.081 . S
Mg915 O926 2.023 . S
Mg915 O930 2.031 . S
Mg915 O939 2.291 . S
Mg916 O917 1.963 . S
Mg916 O927 1.942 . S
Mg916 O928 1.955 . S
Mg916 O935 1.986 . S
O917 Mg915 1.936 . S
O917 Mg916 1.963 . S
O917 Mg918 1.915 . S
Mg918 O917 1.915 . S
Mg918 O919 1.915 . S
Mg918 O923 2.013 . S
Mg918 O929 2.114 . S
Mg918 O933 2.013 . S
Mg918 O939 2.114 . S
O919 Mg918 1.915 . S
O919 Mg920 1.936 . S
O919 Mg921 1.963 1_455 S
Mg920 O919 1.936 . S
Mg920 O929 2.291 . S
Mg920 O934 2.081 1_455 S
Mg920 O936 2.023 1_455 S
Mg920 O940 2.031 . S
Mg921 O919 1.963 1_655 S
Mg921 O925 1.986 . S
Mg921 O937 1.942 . S
Mg921 O938 1.955 . S
C922 O933 1.191 . S
C922 O935 1.307 . S
O923 Mg918 2.013 . S
O923 C942 1.191 1_455 S
O924 Mg915 2.081 . S
O924 C932 1.331 . S
O925 Mg921 1.986 . S
O925 C942 1.307 . S
O926 Mg915 2.023 . S
O926 C941 1.264 . S
O927 Mg916 1.942 . S
O927 C932 1.244 . S
O928 Mg916 1.955 . S
O928 C941 1.273 . S
O929 Mg918 2.114 . S
O929 Mg920 2.291 . S
O929 C931 1.312 . S
O930 Mg915 2.031 . S
O930 C931 1.208 . S
C931 O929 1.312 . S
C931 O930 1.208 . S
C932 O924 1.331 . S
C932 O927 1.244 . S
O933 Mg918 2.013 . S
O933 C922 1.191 . S
O934 C913 1.331 . S
O934 Mg920 2.081 1_655 S
O935 Mg916 1.986 . S
O935 C922 1.307 . S
O936 C914 1.264 . S
O936 Mg920 2.023 1_655 S
O937 C913 1.244 . S
O937 Mg921 1.942 . S
O938 C914 1.273 . S
O938 Mg921 1.955 . S
O939 C912 1.312 . S
O939 Mg915 2.291 . S
O939 Mg918 2.114 . S
O940 C912 1.208 . S
O940 Mg920 2.031 . S
C941 O926 1.264 . S
C941 O928 1.273 . S
C942 O923 1.191 1_655 S
C942 O925 1.307 . S
C943 O970 1.312 . S
C943 O971 1.208 . S
C944 O965 1.331 . S
C944 O968 1.244 . S
C945 O967 1.264 . S
C945 O969 1.273 . S
Mg946 O948 1.936 . S
Mg946 O955 2.081 . S
Mg946 O957 2.023 . S
Mg946 O961 2.031 . S
Mg946 O970 2.291 . S
Mg947 O948 1.963 . S
Mg947 O958 1.942 . S
Mg947 O959 1.955 . S
Mg947 O966 1.986 . S
O948 Mg946 1.936 . S
O948 Mg947 1.963 . S
O948 Mg949 1.915 . S
Mg949 O948 1.915 . S
Mg949 O950 1.915 . S
Mg949 O954 2.013 . S
Mg949 O960 2.114 . S
Mg949 O964 2.013 . S
Mg949 O970 2.114 . S
O950 Mg949 1.915 . S
O950 Mg951 1.936 . S
O950 Mg952 1.963 . S
Mg951 O950 1.936 . S
Mg951 O960 2.291 . S
Mg951 O965 2.081 . S
Mg951 O967 2.023 . S
Mg951 O971 2.031 . S
Mg952 O950 1.963 . S
Mg952 O956 1.986 . S
Mg952 O968 1.942 . S
Mg952 O969 1.955 . S
C953 O964 1.191 . S
C953 O966 1.307 . S
O954 Mg949 2.013 . S
O954 C973 1.191 . S
O955 Mg946 2.081 . S
O955 C963 1.331 . S
O956 Mg952 1.986 . S
O956 C973 1.307 . S
O957 Mg946 2.023 . S
O957 C972 1.264 . S
O958 Mg947 1.942 . S
O958 C963 1.244 . S
O959 Mg947 1.955 . S
O959 C972 1.273 . S
O960 Mg949 2.114 . S
O960 Mg951 2.291 . S
O960 C962 1.312 . S
O961 Mg946 2.031 . S
O961 C962 1.208 . S
C962 O960 1.312 . S
C962 O961 1.208 . S
C963 O955 1.331 . S
C963 O958 1.244 . S
O964 Mg949 2.013 . S
O964 C953 1.191 . S
O965 C944 1.331 . S
O965 Mg951 2.081 . S
O966 Mg947 1.986 . S
O966 C953 1.307 . S
O967 C945 1.264 . S
O967 Mg951 2.023 . S
O968 C944 1.244 . S
O968 Mg952 1.942 . S
O969 C945 1.273 . S
O969 Mg952 1.955 . S
O970 C943 1.312 . S
O970 Mg946 2.291 . S
O970 Mg949 2.114 . S
O971 C943 1.208 . S
O971 Mg951 2.031 . S
C972 O957 1.264 . S
C972 O959 1.273 . S
C973 O954 1.191 . S
C973 O956 1.307 . S
C974 O1001 1.312 . S
C974 O1002 1.208 . S
C975 O996 1.331 . S
C975 O999 1.244 . S
C976 O998 1.264 . S
C976 O1000 1.273 . S
Mg977 O979 1.936 . S
Mg977 O986 2.081 . S
Mg977 O988 2.023 . S
Mg977 O992 2.031 . S
Mg977 O1001 2.291 . S
Mg978 O979 1.963 . S
Mg978 O989 1.942 . S
Mg978 O990 1.955 . S
Mg978 O997 1.986 . S
O979 Mg977 1.936 . S
O979 Mg978 1.963 . S
O979 Mg980 1.915 . S
Mg980 O979 1.915 . S
Mg980 O981 1.915 . S
Mg980 O985 2.013 . S
Mg980 O991 2.114 . S
Mg980 O995 2.013 . S
Mg980 O1001 2.114 . S
O981 Mg980 1.915 . S
O981 Mg982 1.936 . S
O981 Mg983 1.963 . S
Mg982 O981 1.936 . S
Mg982 O991 2.291 . S
Mg982 O996 2.081 . S
Mg982 O998 2.023 . S
Mg982 O1002 2.031 . S
Mg983 O981 1.963 . S
Mg983 O987 1.986 . S
Mg983 O999 1.942 . S
Mg983 O1000 1.955 . S
C984 O995 1.191 . S
C984 O997 1.307 . S
O985 Mg980 2.013 . S
O985 C1004 1.191 . S
O986 Mg977 2.081 . S
O986 C994 1.331 . S
O987 Mg983 1.986 . S
O987 C1004 1.307 . S
O988 Mg977 2.023 . S
O988 C1003 1.264 . S
O989 Mg978 1.942 . S
O989 C994 1.244 . S
O990 Mg978 1.955 . S
O990 C1003 1.273 . S
O991 Mg980 2.114 . S
O991 Mg982 2.291 . S
O991 C993 1.312 . S
O992 Mg977 2.031 . S
O992 C993 1.208 . S
C993 O991 1.312 . S
C993 O992 1.208 . S
C994 O986 1.331 . S
C994 O989 1.244 . S
O995 Mg980 2.013 . S
O995 C984 1.191 . S
O996 C975 1.331 . S
O996 Mg982 2.081 . S
O997 Mg978 1.986 . S
O997 C984 1.307 . S
O998 C976 1.264 . S
O998 Mg982 2.023 . S
O999 C975 1.244 . S
O999 Mg983 1.942 . S
O1000 C976 1.273 . S
O1000 Mg983 1.955 . S
O1001 C974 1.312 . S
O1001 Mg977 2.291 . S
O1001 Mg980 2.114 . S
O1002 C974 1.208 . S
O1002 Mg982 2.031 . S
C1003 O988 1.264 . S
C1003 O990 1.273 . S
C1004 O985 1.191 . S
C1004 O987 1.307 . S
C1005 O1032 1.312 . S
C1005 O1033 1.208 . S
C1006 O1027 1.331 . S
C1006 O1030 1.244 . S
C1007 O1029 1.264 . S
C1007 O1031 1.273 . S
Mg1008 O1010 1.941 . S
Mg1008 O1017 2.081 1_455 S
Mg1008 O1019 2.023 1_455 S
Mg1008 O1023 2.031 . S
Mg1008 O1032 2.291 . S
Mg1009 O1010 1.950 1_655 S
Mg1009 O1020 1.942 . S
Mg1009 O1021 1.955 . S
Mg1009 O1028 1.986 . S
O1010 Mg1008 1.941 . S
O1010 Mg1009 1.950 1_455 S
O1010 Mg1011 1.924 . S
Mg1011 O1010 1.924 . S
Mg1011 O1012 1.915 . S
Mg1011 O1016 2.012 1_455 S
Mg1011 O1022 2.114 . S
Mg1011 O1026 2.013 . S
Mg1011 O1032 2.114 . S
O1012 Mg1011 1.915 . S
O1012 Mg1013 1.936 . S
O1012 Mg1014 1.963 . S
Mg1013 O1012 1.936 . S
Mg1013 O1022 2.291 . S
Mg1013 O1027 2.081 . S
Mg1013 O1029 2.023 . S
Mg1013 O1033 2.031 . S
Mg1014 O1012 1.963 . S
Mg1014 O1018 1.986 . S
Mg1014 O1030 1.942 . S
Mg1014 O1031 1.955 . S
C1015 O1026 1.191 1_655 S
C1015 O1028 1.307 . S
O1016 Mg1011 2.012 1_655 S
O1016 C1035 1.191 . S
O1017 Mg1008 2.081 1_655 S
O1017 C1025 1.331 . S
O1018 Mg1014 1.986 . S
O1018 C1035 1.307 1_455 S
O1019 Mg1008 2.023 1_655 S
O1019 C1034 1.264 . S
O1020 Mg1009 1.942 . S
O1020 C1025 1.244 . S
O1021 Mg1009 1.955 . S
O1021 C1034 1.273 . S
O1022 Mg1011 2.114 . S
O1022 Mg1013 2.291 . S
O1022 C1024 1.312 . S
O1023 Mg1008 2.031 . S
O1023 C1024 1.208 . S
C1024 O1022 1.312 . S
C1024 O1023 1.208 . S
C1025 O1017 1.331 . S
C1025 O1020 1.244 . S
O1026 Mg1011 2.013 . S
O1026 C1015 1.191 1_455 S
O1027 C1006 1.331 . S
O1027 Mg1013 2.081 . S
O1028 Mg1009 1.986 . S
O1028 C1015 1.307 . S
O1029 C1007 1.264 . S
O1029 Mg1013 2.023 . S
O1030 C1006 1.244 . S
O1030 Mg1014 1.942 . S
O1031 C1007 1.273 . S
O1031 Mg1014 1.955 . S
O1032 C1005 1.312 . S
O1032 Mg1008 2.291 . S
O1032 Mg1011 2.114 . S
O1033 C1005 1.208 . S
O1033 Mg1013 2.031 . S
C1034 O1019 1.264 . S
C1034 O1021 1.273 . S
C1035 O1016 1.191 . S
C1035 O1018 1.307 1_655 S
C972 C11 2.368 . S
C143 C975 1.770 . S
C283 C1006 1.558 . S
C941 C343 2.777 . S
C976 C55 1.686 . S
C1007 C115 2.769 . S
C932 C239 2.379 . S
C963 C371 1.798 . S
C29 C993 1.117 . S
C467 C962 0.868 . S
C229 C922 0.313 1_655 S
C1015 C625 1.622 . S
C943 C1 0.427 . S
C511 C942 1.590 . S
C257 C1035 1.086 1_455 S
C974 C581 0.881 . S
C713 C1034 1.897 . S
C485 C913 1.768 . S
C799 C944 2.749 . S
C571 C1003 2.786 . S
C914 C685 2.718 . S
C457 C945 2.788 . S
C827 C994 1.826 . S
C1025 C599 1.786 . S
C695 C931 0.908 . S
C125 C1024 0.896 . S
C853 C984 1.658 . S
C953 C397 1.675 . S
C1005 C739 1.724 . S
C1004 C169 1.633 . S
C973 C809 0.676 . S
C912 C353 0.921 . S
