# Generated by pormake.
# Topology pth, (4,4)-cn, num edge types: 1
# Building blocks:
#     Node 0, Type 0, BuildingBlock: QUQFOY_clean_sbu_3, # of connection points: 4
#     Node 1, Type 0, BuildingBlock: QUQFOY_clean_sbu_3, # of connection points: 4
#     Node 2, Type 0, BuildingBlock: QUQFOY_clean_sbu_3, # of connection points: 4
#     Node 3, Type 1, BuildingBlock: AZAVOO_clean_linker_0, # of connection points: 4
#     Node 4, Type 1, BuildingBlock: AZAVOO_clean_linker_0, # of connection points: 4
#     Node 5, Type 1, BuildingBlock: AZAVOO_clean_linker_0, # of connection points: 4
#     Edge 6, Type (0, 1), BuildingBlock: FUNLAD_clean_linker_1, # of connection points: 2
#     Edge 7, Type (0, 1), BuildingBlock: FUNLAD_clean_linker_1, # of connection points: 2
#     Edge 8, Type (0, 1), BuildingBlock: FUNLAD_clean_linker_1, # of connection points: 2
#     Edge 9, Type (0, 1), BuildingBlock: FUNLAD_clean_linker_1, # of connection points: 2
#     Edge 10, Type (0, 1), BuildingBlock: FUNLAD_clean_linker_1, # of connection points: 2
#     Edge 11, Type (0, 1), BuildingBlock: FUNLAD_clean_linker_1, # of connection points: 2
#     Edge 12, Type (0, 1), BuildingBlock: FUNLAD_clean_linker_1, # of connection points: 2
#     Edge 13, Type (0, 1), BuildingBlock: FUNLAD_clean_linker_1, # of connection points: 2
#     Edge 14, Type (0, 1), BuildingBlock: FUNLAD_clean_linker_1, # of connection points: 2
#     Edge 15, Type (0, 1), BuildingBlock: FUNLAD_clean_linker_1, # of connection points: 2
#     Edge 16, Type (0, 1), BuildingBlock: FUNLAD_clean_linker_1, # of connection points: 2
#     Edge 17, Type (0, 1), BuildingBlock: FUNLAD_clean_linker_1, # of connection points: 2
# Relax obj value: 0.107
# Max RMSD: 0.224
# Mean RMSD: 0.148
data_MOF--net-pth--node1-QUQFOY_clean_sbu_3--node2-AZAVOO_clean_linker_0--edge1-FUNLAD_clean_linker_1
_symmetry_space_group_name_H-M    P1
_symmetry_Int_Tables_number       1
_symmetry_cell_setting            triclinic
loop_
_symmetry_equiv_pos_as_xyz
'x, y, z'
_cell_length_a     27.278535
_cell_length_b     27.354075
_cell_length_c     75.253342
_cell_angle_alpha  92.485346
_cell_angle_beta   89.614044
_cell_angle_gamma 120.86558
loop_
_atom_site_label
_atom_site_type_symbol
_atom_site_fract_x
_atom_site_fract_y
_atom_site_fract_z
_atom_type_partial_charge
C0 C 0.00972 0.12316 0.11514 0.0
O1 O 0.98867 0.13353 0.10182 0.0
Cd2 Cd 0.99519 0.10423 0.07168 0.0
O3 O 0.03422 0.09437 0.11323 0.0
Cd4 Cd 0.05634 0.04302 0.0898 0.0
C5 C 0.14095 0.16387 0.06836 0.0
O6 O 0.97026 0.00681 0.07139 0.0
O7 O 0.03719 0.99433 0.0607 0.0
O8 O 0.02569 0.96447 0.10919 0.0
C9 C 0.98789 0.98747 0.05886 0.0
O10 O 0.09522 0.16219 0.06375 0.0
C11 C 0.07375 0.96791 0.11016 0.0
O12 O 0.13984 0.12753 0.07863 0.0
O13 O 0.11444 0.00624 0.10146 0.0
C14 C 0.15342 0.13336 0.42603 0.0
O15 O 0.16468 0.15649 0.41113 0.0
Cd16 Cd 0.09199 0.12831 0.38859 0.0
O17 O 0.10221 0.09691 0.42999 0.0
Cd18 Cd 0.00308 0.05057 0.41812 0.0
C19 C 0.03908 0.98305 0.38686 0.0
O20 O 0.01403 0.13099 0.40238 0.0
O21 O 0.9364 0.05073 0.39638 0.0
O22 O 0.97883 0.06977 0.44763 0.0
C23 C 0.96625 0.10379 0.39418 0.0
O24 O 0.06658 0.03083 0.37958 0.0
C25 C 0.93664 0.01982 0.44945 0.0
O26 O 0.01363 0.97807 0.40152 0.0
O27 O 0.92528 0.98339 0.43671 0.0
C28 C 0.95944 0.10356 0.72612 0.0
O29 O 0.95628 0.13504 0.73843 0.0
Cd30 Cd 0.01175 0.16277 0.76557 0.0
O31 O 0.99339 0.08494 0.72761 0.0
Cd32 Cd 0.06252 0.09261 0.75047 0.0
C33 C 0.96049 0.031 0.78109 0.0
O34 O 0.10896 0.1956 0.75777 0.0
O35 O 0.12838 0.147 0.77522 0.0
O36 O 0.11703 0.088 0.72538 0.0
C37 C 0.13947 0.19532 0.77032 0.0
O38 O 0.96697 0.08011 0.78416 0.0
C39 C 0.13114 0.05574 0.73259 0.0
O40 O 0.98613 0.02193 0.76837 0.0
O41 O 0.11172 0.03885 0.74789 0.0
H42 H 0.01088 0.49958 0.13921 0.0
H43 H 0.17905 0.92902 0.29633 0.0
H44 H 0.93796 0.44236 0.23283 0.0
H45 H 0.91447 0.35431 0.21602 0.0
H46 H 0.06944 0.36804 0.23618 0.0
H47 H 0.09321 0.45694 0.25242 0.0
H48 H 0.98266 0.55687 0.21283 0.0
H49 H 0.98162 0.53571 0.18088 0.0
H50 H 0.12315 0.50905 0.18835 0.0
H51 H 0.12436 0.53132 0.22028 0.0
H52 H 0.01491 0.66818 0.23438 0.0
H53 H 0.04425 0.74009 0.21222 0.0
H54 H 0.19808 0.73445 0.20328 0.0
H55 H 0.16889 0.66339 0.22601 0.0
H56 H 0.99146 0.65535 0.27521 0.0
H57 H 0.01157 0.74837 0.28734 0.0
H58 H 0.19108 0.8186 0.27696 0.0
H59 H 0.17037 0.7251 0.26497 0.0
H60 H 0.95466 0.54215 0.29408 0.0
H61 H 0.94443 0.57932 0.32318 0.0
H62 H 0.12793 0.68836 0.32767 0.0
H63 H 0.13759 0.65141 0.29852 0.0
H64 H 0.93726 0.42901 0.27498 0.0
H65 H 0.92076 0.35812 0.29655 0.0
H66 H 0.09816 0.45882 0.31348 0.0
H67 H 0.11388 0.52933 0.29187 0.0
O68 O 0.01205 0.50771 0.1519 0.0
O69 O 0.08706 0.49795 0.15625 0.0
O70 O 0.07719 0.85354 0.29663 0.0
O71 O 0.16986 0.89198 0.29141 0.0
C72 C 0.03697 0.51509 0.25043 0.0
C73 C 0.05397 0.55876 0.23826 0.0
C74 C 0.07025 0.61457 0.2445 0.0
C75 C 0.06721 0.62617 0.26279 0.0
C76 C 0.05148 0.58275 0.27498 0.0
C77 C 0.03759 0.52755 0.26884 0.0
C78 C 0.0177 0.45633 0.24355 0.0
C79 C 0.96624 0.42567 0.23382 0.0
C80 C 0.95292 0.37544 0.22426 0.0
C81 C 0.99093 0.3552 0.22421 0.0
C82 C 0.04013 0.38342 0.23529 0.0
C83 C 0.05351 0.43388 0.24482 0.0
C84 C 0.05365 0.54576 0.21885 0.0
C85 C 0.01359 0.54674 0.20752 0.0
C86 C 0.01298 0.53445 0.18929 0.0
C87 C 0.05236 0.52077 0.18205 0.0
C88 C 0.09233 0.51957 0.19348 0.0
C89 C 0.09302 0.53211 0.21172 0.0
C90 C 0.08964 0.66048 0.23172 0.0
C91 C 0.0551 0.6828 0.22772 0.0
C92 C 0.07166 0.72332 0.21483 0.0
C93 C 0.12286 0.74167 0.20556 0.0
C94 C 0.15819 0.72056 0.21006 0.0
C95 C 0.14161 0.68008 0.22299 0.0
C96 C 0.07948 0.68354 0.26924 0.0
C97 C 0.03508 0.69093 0.27554 0.0
C98 C 0.04669 0.74408 0.28247 0.0
C99 C 0.103 0.7909 0.28319 0.0
C100 C 0.14728 0.78344 0.27663 0.0
C101 C 0.13558 0.73018 0.26971 0.0
C102 C 0.04676 0.59498 0.2941 0.0
C103 C 0.99266 0.57292 0.30159 0.0
C104 C 0.98692 0.59421 0.31817 0.0
C105 C 0.03511 0.63813 0.32737 0.0
C106 C 0.08974 0.65603 0.32061 0.0
C107 C 0.09545 0.63463 0.30405 0.0
C108 C 0.02681 0.48403 0.28182 0.0
C109 C 0.97251 0.43534 0.28329 0.0
C110 C 0.96333 0.39473 0.29562 0.0
C111 C 0.00858 0.4024 0.30663 0.0
C112 C 0.06259 0.45165 0.30517 0.0
C113 C 0.07167 0.49194 0.29285 0.0
C114 C 0.05169 0.50804 0.16265 0.0
C115 C 0.11565 0.84723 0.29082 0.0
H116 H 0.58609 0.00841 0.46489 0.0
H117 H 0.24633 0.14144 0.60377 0.0
H118 H 0.55654 0.95472 0.56088 0.0
H119 H 0.63494 0.94577 0.54886 0.0
H120 H 0.75395 0.12153 0.5653 0.0
H121 H 0.67483 0.12935 0.57782 0.0
H122 H 0.47627 0.97395 0.534 0.0
H123 H 0.50792 0.97327 0.50352 0.0
H124 H 0.65815 0.13909 0.51457 0.0
H125 H 0.62548 0.1396 0.54491 0.0
H126 H 0.37627 0.9841 0.55125 0.0
H127 H 0.32233 -0.00316 0.52787 0.0
H128 H 0.46518 0.16715 0.52092 0.0
H129 H 0.51786 0.15425 0.54453 0.0
H130 H 0.35741 0.97529 0.59024 0.0
H131 H 0.27603 0.98571 0.5983 0.0
H132 H 0.37888 0.16682 0.59066 0.0
H133 H 0.46005 0.1558 0.58281 0.0
H134 H 0.43066 0.95483 0.61237 0.0
H135 H 0.37533 0.94204 0.63942 0.0
H136 H 0.45468 0.12483 0.64676 0.0
H137 H 0.5084 0.13705 0.61953 0.0
H138 H 0.5667 0.96818 0.6019 0.0
H139 H 0.63227 0.97607 0.62544 0.0
H140 H 0.67163 0.14783 0.63903 0.0
H141 H 0.60664 0.1397 0.61536 0.0
O142 O 0.57403 0.00985 0.47693 0.0
O143 O 0.64994 0.09558 0.48319 0.0
O144 O 0.22651 0.04267 0.60421 0.0
O145 O 0.27759 0.13602 0.6005 0.0
C146 C 0.56133 0.05036 0.57431 0.0
C147 C 0.53041 0.05601 0.56033 0.0
C148 C 0.48247 0.06107 0.56417 0.0
C149 C 0.46458 0.05891 0.58189 0.0
C150 C 0.49549 0.05317 0.59582 0.0
C151 C 0.54495 0.05073 0.59212 0.0
C152 C 0.61011 0.04285 0.56997 0.0
C153 C 0.59975 0.9909 0.56217 0.0
C154 C 0.64461 0.98617 0.55511 0.0
C155 C 0.70051 0.0338 0.55554 0.0
C156 C 0.71122 0.08441 0.56463 0.0
C157 C 0.66626 0.08899 0.57178 0.0
C158 C 0.5486 0.05677 0.54164 0.0
C159 C 0.51574 0.01026 0.52975 0.0
C160 C 0.53406 0.00991 0.51238 0.0
C161 C 0.58565 0.05608 0.50662 0.0
C162 C 0.61823 0.10284 0.51858 0.0
C163 C 0.59973 0.10323 0.53591 0.0
C164 C 0.45069 0.06842 0.54964 0.0
C165 C 0.39559 0.02422 0.54472 0.0
C166 C 0.36498 0.03158 0.53138 0.0
C167 C 0.38874 0.0833 0.52278 0.0
C168 C 0.44458 0.12726 0.52754 0.0
C169 C 0.47517 0.11982 0.54092 0.0
C170 C 0.41453 0.06483 0.58602 0.0
C171 C 0.3622 0.01714 0.59033 0.0
C172 C 0.31582 0.02323 0.59491 0.0
C173 C 0.321 0.07717 0.59517 0.0
C174 C 0.37345 0.12473 0.59062 0.0
C175 C 0.41982 0.11857 0.58609 0.0
C176 C 0.47367 0.04684 0.61413 0.0
C177 C 0.43745 0.99207 0.6202 0.0
C178 C 0.40585 0.98483 0.63555 0.0
C179 C 0.4113 0.03232 0.64528 0.0
C180 C 0.45062 0.08742 0.6398 0.0
C181 C 0.48128 0.09455 0.62424 0.0
C182 C 0.58199 0.05339 0.60692 0.0
C183 C 0.58967 0.00748 0.60996 0.0
C184 C 0.62753 0.01231 0.62333 0.0
C185 C 0.65804 0.0632 0.63389 0.0
C186 C 0.64891 0.1083 0.63106 0.0
C187 C 0.61165 0.10364 0.61762 0.0
C188 C 0.60533 0.05525 0.48823 0.0
C189 C 0.27207 0.08399 0.60022 0.0
H190 H 0.5712 0.73961 0.03502 0.0
H191 H 0.28288 0.2282 0.90433 0.0
H192 H 0.5752 0.74619 0.93986 0.0
H193 H 0.65125 0.83251 0.95518 0.0
H194 H 0.7724 0.78123 0.9401 0.0
H195 H 0.69571 0.69388 0.92617 0.0
H196 H 0.48544 0.64835 0.96284 0.0
H197 H 0.50669 0.68703 0.9936 0.0
H198 H 0.66202 0.681 0.99274 0.0
H199 H 0.64016 0.64216 0.96202 0.0
H200 H 0.39324 0.52734 0.9453 0.0
H201 H 0.3381 0.46874 0.96989 0.0
H202 H 0.48584 0.46293 0.98728 0.0
H203 H 0.53954 0.51982 0.96246 0.0
H204 H 0.39055 0.50902 0.90257 0.0
H205 H 0.31312 0.41157 0.89506 0.0
H206 H 0.40885 0.34611 0.92002 0.0
H207 H 0.4863 0.4437 0.92716 0.0
H208 H 0.48039 0.60999 0.87998 0.0
H209 H 0.44023 0.56093 0.85124 0.0
H210 H 0.49619 0.44249 0.86132 0.0
H211 H 0.53832 0.49355 0.88981 0.0
H212 H 0.56723 0.71712 0.89282 0.0
H213 H 0.63636 0.78183 0.87155 0.0
H214 H 0.73026 0.6946 0.87481 0.0
H215 H 0.65973 0.62866 0.89556 0.0
O216 O 0.56346 0.72395 0.0229 0.0
O217 O 0.64272 0.71978 0.02181 0.0
O218 O 0.26468 0.30287 0.89482 0.0
O219 O 0.31288 0.26718 0.90708 0.0
C220 C 0.582 0.65491 0.92759 0.0
C221 C 0.54875 0.62015 0.94142 0.0
C222 C 0.50389 0.5639 0.93743 0.0
C223 C 0.49157 0.54256 0.91959 0.0
C224 C 0.5252 0.57726 0.90575 0.0
C225 C 0.57074 0.63315 0.9098 0.0
C226 C 0.62983 0.71344 0.93215 0.0
C227 C 0.61851 0.75443 0.9396 0.0
C228 C 0.66202 0.80369 0.94833 0.0
C229 C 0.71752 0.81288 0.94962 0.0
C230 C 0.72991 0.77484 0.94023 0.0
C231 C 0.68616 0.72509 0.93183 0.0
C232 C 0.56132 0.64262 0.96022 0.0
C233 C 0.52393 0.65526 0.96936 0.0
C234 C 0.53626 0.67747 0.98691 0.0
C235 C 0.58622 0.68736 0.99562 0.0
C236 C 0.62338 0.67421 0.98641 0.0
C237 C 0.611 0.65201 0.96887 0.0
C238 C 0.47012 0.52732 0.95206 0.0
C239 C 0.41326 0.5127 0.95433 0.0
C240 C 0.38205 0.47955 0.96841 0.0
C241 C 0.40703 0.46025 0.98039 0.0
C242 C 0.46439 0.47551 0.97813 0.0
C243 C 0.49549 0.50854 0.96401 0.0
C244 C 0.44398 0.48338 0.91541 0.0
C245 C 0.39471 0.47355 0.90637 0.0
C246 C 0.35054 0.41787 0.90213 0.0
C247 C 0.35477 0.37102 0.90697 0.0
C248 C 0.40417 0.38116 0.9161 0.0
C249 C 0.4484 0.43685 0.92026 0.0
C250 C 0.51153 0.55481 0.88704 0.0
C251 C 0.4853 0.57441 0.87574 0.0
C252 C 0.46152 0.54561 0.85943 0.0
C253 C 0.46304 0.49624 0.85433 0.0
C254 C 0.49375 0.4799 0.86502 0.0
C255 C 0.51778 0.50892 0.88127 0.0
C256 C 0.60853 0.66824 0.89559 0.0
C257 C 0.60196 0.71123 0.88858 0.0
C258 C 0.64127 0.7479 0.87644 0.0
C259 C 0.6882 0.7426 0.87149 0.0
C260 C 0.69419 0.69912 0.8784 0.0
C261 C 0.65405 0.66154 0.89014 0.0
C262 C 0.59937 0.71131 0.01422 0.0
C263 C 0.30797 0.31176 0.90255 0.0
H264 H 0.0294 0.13859 0.1439 0.0
C265 C 0.00866 0.14655 0.13304 0.0
H266 H 0.96733 0.18999 0.12535 0.0
H267 H 0.95579 0.19754 0.21406 0.0
H268 H 0.88898 0.09552 0.21084 0.0
H269 H 0.86853 0.04504 0.18139 0.0
H270 H 0.91527 0.09612 0.15503 0.0
C271 C 0.98621 0.17968 0.13615 0.0
C272 C 0.9945 0.21002 0.15374 0.0
C273 C 0.9656 0.17968 0.16891 0.0
C274 C 0.97591 0.20908 0.18579 0.0
C275 C 0.94818 0.17754 0.20084 0.0
C276 C 0.90998 0.11894 0.19919 0.0
C277 C 0.89858 0.09049 0.18262 0.0
C278 C 0.92591 0.12028 0.16761 0.0
H279 H 0.93857 0.28507 0.20453 0.0
C280 C 0.9804 0.30859 0.21107 0.0
H281 H 0.06557 0.32655 0.20979 0.0
H282 H 0.05744 0.28064 0.12732 0.0
H283 H 0.12279 0.38273 0.13045 0.0
H284 H 0.13867 0.43418 0.15955 0.0
H285 H 0.08898 0.38413 0.1856 0.0
C286 C 0.02223 0.30112 0.20455 0.0
C287 C 0.01378 0.2689 0.18732 0.0
C288 C 0.04252 0.29924 0.17213 0.0
C289 C 0.03291 0.26973 0.15533 0.0
C290 C 0.06267 0.30095 0.1404 0.0
C291 C 0.10038 0.35962 0.142 0.0
C292 C 0.10928 0.38859 0.15836 0.0
C293 C 0.0806 0.35912 0.17327 0.0
H294 H 0.86045 0.96447 0.465 0.0
C295 C 0.89999 0.00555 0.46513 0.0
H296 H 0.95098 0.08524 0.47878 0.0
H297 H 0.74062 0.08336 0.51465 0.0
H298 H 0.76997 0.1578 0.4937 0.0
H299 H 0.84498 0.1764 0.47195 0.0
H300 H 0.89111 0.12071 0.47105 0.0
C301 C 0.91228 0.04349 0.47881 0.0
C302 C 0.86956 0.03375 0.49267 0.0
C303 C 0.84367 0.06742 0.49315 0.0
C304 C 0.80062 0.05687 0.50571 0.0
C305 C 0.7742 0.09 0.50557 0.0
C306 C 0.79043 0.13277 0.49355 0.0
C307 C 0.83267 0.14325 0.48132 0.0
C308 C 0.85894 0.11099 0.481 0.0
H309 H 0.791 0.06755 0.54861 0.0
C310 C 0.74734 0.03402 0.54534 0.0
H311 H 0.69463 0.96932 0.52601 0.0
H312 H 0.9147 0.96541 0.49648 0.0
H313 H 0.88557 0.89122 0.51766 0.0
H314 H 0.80956 0.87192 0.53911 0.0
H315 H 0.76244 0.92705 0.5396 0.0
C316 C 0.7376 0.00102 0.53047 0.0
C317 C 0.78423 0.01327 0.51792 0.0
C318 C 0.81069 0.98027 0.51767 0.0
C319 C 0.8538 0.99079 0.5051 0.0
C320 C 0.88071 0.95825 0.50545 0.0
C321 C 0.86462 0.91578 0.5176 0.0
C322 C 0.82187 0.90496 0.5297 0.0
C323 C 0.79514 0.9368 0.52983 0.0
H324 H 0.90031 0.94024 0.78539 0.0
C325 C 0.91997 0.9829 0.79159 0.0
H326 H 0.92651 0.03336 0.81438 0.0
H327 H 0.68947 0.87638 0.84806 0.0
H328 H 0.68874 0.96307 0.84369 0.0
H329 H 0.76496 0.04069 0.82698 0.0
H330 H 0.84288 0.03253 0.81487 0.0
C331 C 0.90642 0.99056 0.80826 0.0
C332 C 0.86019 0.94271 0.81808 0.0
C333 C 0.81367 0.94743 0.82454 0.0
C334 C 0.76856 0.90179 0.8336 0.0
C335 C 0.72411 0.90887 0.84064 0.0
C336 C 0.72319 0.95859 0.83829 0.0
C337 C 0.76614 0.00232 0.82892 0.0
C338 C 0.81087 -0.00294 0.82208 0.0
H339 H 0.77769 0.79955 0.86401 0.0
C340 C 0.73362 0.78466 0.86028 0.0
H341 H 0.67818 0.78847 0.84181 0.0
H342 H 0.94822 0.92352 0.81119 0.0
H343 H 0.94503 0.83375 0.81313 0.0
H344 H 0.85893 0.74893 0.8238 0.0
H345 H 0.77673 0.75434 0.83336 0.0
C346 C 0.72224 0.80402 0.8457 0.0
C347 C 0.76874 0.85053 0.83557 0.0
C348 C 0.8141 0.84495 0.82846 0.0
C349 C 0.8614 0.8922 0.82068 0.0
C350 C 0.90928 0.8877 0.81585 0.0
C351 C 0.9083 0.83656 0.8171 0.0
C352 C 0.86001 0.78895 0.82321 0.0
C353 C 0.81334 0.79283 0.82884 0.0
H354 H 0.04329 0.89641 0.12775 0.0
C355 C 0.08113 0.9296 0.12145 0.0
H356 H 0.17109 0.9706 0.11974 0.0
H357 H 0.15922 0.88669 0.19895 0.0
H358 H 0.20604 0.98898 0.20433 0.0
H359 H 0.22259 0.05214 0.17971 0.0
H360 H 0.19191 0.01308 0.14954 0.0
C361 C 0.13226 0.93613 0.12517 0.0
C362 C 0.13641 0.90038 0.13869 0.0
C363 C 0.15697 0.92408 0.15605 0.0
C364 C 0.14836 0.88771 0.17016 0.0
C365 C 0.16591 0.91223 0.18762 0.0
C366 C 0.19262 0.97098 0.19092 0.0
C367 C 0.20186 0.00654 0.17707 0.0
C368 C 0.18403 0.98358 0.15982 0.0
H369 H 0.18557 0.80738 0.18799 0.0
C370 C 0.14053 0.78272 0.19121 0.0
H371 H 0.05722 0.76092 0.18333 0.0
H372 H 0.10283 0.84353 0.10626 0.0
H373 H 0.06088 0.74151 0.10033 0.0
H374 H 0.04648 0.67813 0.12471 0.0
H375 H 0.07388 0.71626 0.15513 0.0
C376 C 0.10279 0.78851 0.18151 0.0
C377 C 0.12058 0.82788 0.16667 0.0
C378 C 0.10477 0.80489 0.14899 0.0
C379 C 0.11285 0.84125 0.13497 0.0
C380 C 0.09666 0.81739 0.11742 0.0
C381 C 0.07289 0.75907 0.11384 0.0
C382 C 0.0648 0.72339 0.12756 0.0
C383 C 0.08049 0.74578 0.14496 0.0
H384 H 0.24408 0.17773 0.43468 0.0
C385 C 0.20076 0.14691 0.43845 0.0
H386 H 0.14887 0.08958 0.45777 0.0
H387 H 0.39374 0.10475 0.47444 0.0
H388 H 0.38216 0.05981 0.44502 0.0
H389 H 0.30399 0.0442 0.42485 0.0
H390 H 0.23781 0.07438 0.43381 0.0
C391 C 0.19197 0.11962 0.45362 0.0
C392 C 0.23997 0.1297 0.46545 0.0
C393 C 0.27713 0.11 0.46011 0.0
C394 C 0.3205 0.1165 0.47203 0.0
C395 C 0.35867 0.0988 0.46615 0.0
C396 C 0.35274 0.07328 0.44926 0.0
C397 C 0.30886 0.06469 0.43789 0.0
C398 C 0.27131 0.0826 0.44318 0.0
H399 H 0.31719 0.04989 0.50333 0.0
C400 C 0.35417 0.0889 0.50874 0.0
H401 H 0.39792 0.17921 0.50868 0.0
H402 H 0.17844 0.17542 0.47931 0.0
H403 H 0.18943 0.21917 0.50891 0.0
H404 H 0.26228 0.227 0.52999 0.0
H405 H 0.3248 0.19148 0.52158 0.0
C406 C 0.36412 0.13893 0.50288 0.0
C407 C 0.32483 0.14008 0.48951 0.0
C408 C 0.28895 0.1614 0.49464 0.0
C409 C 0.24649 0.15624 0.48257 0.0
C410 C 0.211 0.17769 0.48803 0.0
C411 C 0.21692 0.203 0.50496 0.0
C412 C 0.25797 0.20746 0.51682 0.0
C413 C 0.29362 0.1869 0.51182 0.0
H414 H 0.1885 0.28877 0.77531 0.0
C415 C 0.18348 0.2488 0.77937 0.0
H416 H 0.21113 0.2093 0.79695 0.0
H417 H 0.4304 0.47493 0.80263 0.0
H418 H 0.44959 0.45727 0.77219 0.0
H419 H 0.38217 0.3681 0.75541 0.0
H420 H 0.29491 0.29638 0.76885 0.0
C421 C 0.21683 0.24909 0.79246 0.0
C422 C 0.25831 0.30268 0.80242 0.0
C423 C 0.30964 0.34355 0.79444 0.0
C424 C 0.34936 0.3942 0.80428 0.0
C425 C 0.39953 0.43511 0.79588 0.0
C426 C 0.41093 0.42561 0.7784 0.0
C427 C 0.3729 0.37546 0.76894 0.0
C428 C 0.32282 0.33473 0.77679 0.0
H429 H 0.43866 0.42556 0.83429 0.0
C430 C 0.42881 0.45764 0.83906 0.0
H431 H 0.36678 0.48214 0.83851 0.0
H432 H 0.16338 0.23341 0.82148 0.0
H433 H 0.14509 0.25034 0.85204 0.0
H434 H 0.21496 0.33707 0.86935 0.0
H435 H 0.30362 0.40707 0.85631 0.0
C436 C 0.38062 0.45392 0.83306 0.0
C437 C 0.33821 0.40306 0.82218 0.0
C438 C 0.28675 0.3623 0.83013 0.0
C439 C 0.24676 0.31207 0.82023 0.0
C440 C 0.19556 0.27212 0.82845 0.0
C441 C 0.18445 0.28131 0.84598 0.0
C442 C 0.22379 0.33011 0.85573 0.0
C443 C 0.27448 0.37013 0.84801 0.0
H444 H 0.92571 0.05922 0.69989 0.0
C445 C 0.92259 0.08689 0.71007 0.0
H446 H 0.88194 0.13255 0.71774 0.0
H447 H 0.8103 0.14135 0.6385 0.0
H448 H 0.89582 0.23503 0.64165 0.0
H449 H 0.96001 0.26187 0.66783 0.0
H450 H 0.9393 0.19494 0.69093 0.0
C451 C 0.88478 0.10383 0.70792 0.0
C452 C 0.84744 0.08634 0.6918 0.0
C453 C 0.85968 0.12624 0.67859 0.0
C454 C 0.82208 0.11119 0.6637 0.0
C455 C 0.83641 0.1512 0.65038 0.0
C456 C 0.88562 0.20497 0.65195 0.0
C457 C 0.9218 0.22005 0.66668 0.0
C458 C 0.90932 0.18128 0.67986 0.0
H459 H 0.7096 0.10427 0.65838 0.0
C460 C 0.69947 0.07125 0.64803 0.0
H461 H 0.72054 0.0108 0.63791 0.0
H462 H 0.81214 -0.00078 0.71455 0.0
H463 H 0.72771 0.90492 0.71103 0.0
H464 H 0.66252 0.87884 0.68516 0.0
H465 H 0.68133 0.94705 0.66265 0.0
C466 C 0.72825 0.04344 0.64808 0.0
C467 C 0.77147 0.05674 0.66232 0.0
C468 C 0.76056 0.01596 0.6751 0.0
C469 C 0.79843 0.03086 0.68994 0.0
C470 C 0.78538 0.98996 0.70286 0.0
C471 C 0.73691 0.9357 0.70104 0.0
C472 C 0.70018 0.92103 0.68648 0.0
C473 C 0.7115 0.96058 0.67366 0.0
H474 H 0.96886 0.93871 0.03329 0.0
C475 C 0.95454 0.96068 0.04238 0.0
H476 H 0.89545 0.98828 0.04637 0.0
H477 H 0.85511 0.96421 0.96169 0.0
H478 H 0.91124 0.06724 0.96612 0.0
H479 H 0.95236 0.11204 0.99567 0.0
H480 H 0.93776 0.05404 0.02096 0.0
C481 C 0.90891 0.96415 0.03796 0.0
C482 C 0.87803 0.93754 0.02084 0.0
C483 C 0.88568 0.97208 0.00636 0.0
C484 C 0.86137 0.94628 0.98938 0.0
C485 C 0.87159 0.98164 0.97495 0.0
C486 C 0.90397 0.04082 0.9773 0.0
C487 C 0.92718 0.06605 0.99393 0.0
C488 C 0.91848 0.0323 0.00833 0.0
H489 H 0.745 0.88505 0.9693 0.0
C490 C 0.75807 0.85733 0.96278 0.0
H491 H 0.81688 0.82877 0.96419 0.0
H492 H 0.84962 0.8597 0.04647 0.0
H493 H 0.79208 0.75679 0.04228 0.0
H494 H 0.75032 0.71173 0.01285 0.0
H495 H 0.76519 0.76914 0.98751 0.0
C496 C 0.80391 0.85779 0.96947 0.0
C497 C 0.82873 0.88606 0.9871 0.0
C498 C 0.81941 0.8516 0.00178 0.0
C499 C 0.84384 0.87742 0.01869 0.0
C500 C 0.83305 0.84218 0.03322 0.0
C501 C 0.79981 0.78306 0.03104 0.0
C502 C 0.77625 0.7577 0.01447 0.0
C503 C 0.78543 0.79128 -0.0 0.0
H504 H 0.06197 0.94058 0.36578 0.0
C505 C 0.0387 0.93368 0.3781 0.0
H506 H 0.99033 0.8741 0.39738 0.0
H507 H -0.00077 0.7352 0.3223 0.0
H508 H 0.94134 0.76814 0.30897 0.0
H509 H 0.9148 0.82955 0.32628 0.0
H510 H 0.947 0.85918 0.35697 0.0
C511 C 0.01224 0.8816 0.38479 0.0
C512 C 0.01685 0.83468 0.37575 0.0
C513 C 0.99533 0.81557 0.35812 0.0
C514 C 0.00889 0.77857 0.34837 0.0
C515 C 0.98938 0.76247 0.33047 0.0
C516 C 0.95607 0.78106 0.32263 0.0
C517 C 0.94127 0.81576 0.33236 0.0
C518 C 0.96042 0.83283 0.34991 0.0
H519 H 0.98596 0.64713 0.34952 0.0
C520 C 0.02634 0.66883 0.34262 0.0
H521 H 0.09927 0.74937 0.33807 0.0
H522 H 0.05878 0.85758 0.41002 0.0
H523 H 0.11149 0.81958 0.42391 0.0
H524 H 0.13235 0.7529 0.40719 0.0
H525 H 0.10077 0.72402 0.37637 0.0
C526 C 0.06082 0.72531 0.34568 0.0
C527 C 0.04183 0.75886 0.35653 0.0
C528 C 0.05947 0.77428 0.37456 0.0
C529 C 0.04701 0.81235 0.38421 0.0
C530 C 0.06666 0.82847 0.40208 0.0
C531 C 0.09699 0.80697 0.41022 0.0
C532 C 0.10877 0.76945 0.4008 0.0
C533 C 0.09047 0.75325 0.38315 0.0
H534 H 0.19546 0.02985 0.73292 0.0
C535 C 0.17279 0.04311 0.7244 0.0
H536 H 0.16401 0.06627 0.69886 0.0
H537 H 0.4086 0.1629 0.67049 0.0
H538 H 0.39901 0.24595 0.67223 0.0
H539 H 0.31711 0.24337 0.68721 0.0
H540 H 0.24384 0.15727 0.70024 0.0
C541 C 0.18644 0.05226 0.70721 0.0
C542 C 0.23808 0.05394 0.69984 0.0
C543 C 0.28187 0.10549 0.69289 0.0
C544 C 0.33011 0.10757 0.68481 0.0
C545 C 0.37164 0.15889 0.67718 0.0
C546 C 0.36668 0.20711 0.67804 0.0
C547 C 0.32054 0.20562 0.68644 0.0
C548 C 0.27856 0.15564 0.6938 0.0
H549 H 0.32568 0.98876 0.65685 0.0
C550 C 0.36943 0.02347 0.65921 0.0
H551 H 0.4257 0.09328 0.67613 0.0
H552 H 0.16028 0.94662 0.71054 0.0
H553 H 0.17451 0.8663 0.71146 0.0
H554 H 0.26414 0.87416 0.70103 0.0
H555 H 0.33928 0.96206 0.68905 0.0
C556 C 0.38194 0.05905 0.67357 0.0
C557 C 0.33544 0.05858 0.6842 0.0
C558 C 0.29382 0.00841 0.69235 0.0
C559 C 0.24393 0.00524 0.69953 0.0
C560 C 0.20053 0.95266 0.70591 0.0
C561 C 0.20792 0.90597 0.70636 0.0
C562 C 0.25824 0.91029 0.70041 0.0
C563 C 0.3008 0.96078 0.69344 0.0
H564 H 0.23355 0.20383 0.06355 0.0
C565 C 0.19567 0.20587 0.06064 0.0
H566 H 0.16119 0.24604 0.04604 0.0
H567 H 0.40439 0.46133 0.03121 0.0
H568 H 0.38567 0.49812 0.05878 0.0
H569 H 0.30508 0.43506 0.0776 0.0
H570 H 0.24288 0.33473 0.06901 0.0
C571 C 0.19851 0.2432 0.04907 0.0
C572 C 0.25105 0.27932 0.03906 0.0
C573 C 0.28671 0.33763 0.04426 0.0
C574 C 0.33268 0.37406 0.03333 0.0
C575 C 0.36817 0.4321 0.03889 0.0
C576 C 0.35807 0.45364 0.05471 0.0
C577 C 0.31272 0.41812 0.06531 0.0
C578 C 0.27729 0.36072 0.06022 0.0
H579 H 0.33215 0.42393 -0.00216 0.0
C580 C 0.37183 0.42486 0.99506 0.0
H581 H 0.42072 0.38725 0.00123 0.0
H582 H 0.19241 0.16855 0.02577 0.0
H583 H 0.21292 0.13143 -0.00128 0.0
H584 H 0.29322 0.19462 0.97985 0.0
H585 H 0.35336 0.29538 0.98792 0.0
C586 C 0.38394 0.39117 0.00426 0.0
C587 C 0.34224 0.35205 0.01713 0.0
C588 C 0.30874 0.29302 0.01248 0.0
C589 C 0.26273 0.25658 0.02341 0.0
C590 C 0.22834 0.19813 0.01808 0.0
C591 C 0.23956 0.17625 0.00255 0.0
C592 C 0.28475 0.21182 0.99193 0.0
C593 C 0.31895 0.26959 -0.00327 0.0
H594 H 0.91081 0.10393 0.37292 0.0
C595 C 0.9497 0.13056 0.38076 0.0
H596 H 0.02313 0.21224 0.3847 0.0
H597 H 0.03129 0.28392 0.3062 0.0
H598 H 0.10413 0.25804 0.30536 0.0
H599 H 0.11722 0.21018 0.33038 0.0
H600 H 0.05735 0.18759 0.35631 0.0
C601 C 0.9831 0.18586 0.37738 0.0
C602 C 0.97177 0.21077 0.36191 0.0
C603 C 0.00752 0.22407 0.34695 0.0
C604 C 0.0006 0.2524 0.33267 0.0
C605 C 0.03586 0.26389 0.31765 0.0
C606 C 0.07753 0.24887 0.31694 0.0
C607 C 0.08486 0.22188 0.33101 0.0
C608 C 0.0503 0.20935 0.34585 0.0
H609 H 0.03693 0.37484 0.32952 0.0
C610 C 0.00211 0.36094 0.3199 0.0
H611 H 0.92223 0.2899 0.31107 0.0
H612 H 0.89421 0.18883 0.38826 0.0
H613 H 0.81924 0.21176 0.38851 0.0
H614 H 0.80704 0.26053 0.36358 0.0
H615 H 0.86993 0.28681 0.33825 0.0
C616 C 0.95828 0.30683 0.32026 0.0
C617 C 0.95885 0.26856 0.3336 0.0
C618 C 0.92081 0.25215 0.34802 0.0
C619 C 0.92749 0.2235 0.3623 0.0
C620 C 0.89044 0.20972 0.37691 0.0
C621 C 0.84736 0.22284 0.37726 0.0
C622 C 0.84052 0.25036 0.36323 0.0
C623 C 0.87688 0.26521 0.34878 0.0
loop_
_geom_bond_atom_site_label_1
_geom_bond_atom_site_label_2
_geom_bond_distance
_geom_bond_site_symmetry_2
_ccdc_geom_bond_type
C0 O1 1.306 . S
C0 O3 1.160 . S
O1 C0 1.306 . S
O1 Cd2 2.228 . S
Cd2 O1 2.228 . S
Cd2 O6 2.273 1_455 S
Cd2 O10 2.277 . S
O3 C0 1.160 . S
O3 Cd4 2.203 . S
Cd4 O3 2.203 . S
Cd4 O6 2.411 1_455 S
Cd4 O7 2.333 1_545 S
Cd4 O8 2.352 1_545 S
Cd4 O12 2.277 . S
Cd4 O13 2.356 . S
C5 O10 1.209 . S
C5 O12 1.226 . S
O6 Cd2 2.273 1_655 S
O6 Cd4 2.411 1_655 S
O6 C9 1.320 . S
O7 Cd4 2.333 1_565 S
O7 C9 1.214 1_465 S
O8 Cd4 2.352 1_565 S
O8 C11 1.258 . S
C9 O6 1.320 . S
C9 O7 1.214 1_645 S
O10 Cd2 2.277 . S
O10 C5 1.209 . S
C11 O8 1.258 . S
C11 O13 1.282 1_565 S
O12 Cd4 2.277 . S
O12 C5 1.226 . S
O13 Cd4 2.356 . S
O13 C11 1.282 1_545 S
C14 O15 1.306 . S
C14 O17 1.160 . S
O15 C14 1.306 . S
O15 Cd16 2.228 . S
Cd16 O15 2.228 . S
Cd16 O20 2.273 . S
Cd16 O24 2.277 . S
O17 C14 1.160 . S
O17 Cd18 2.203 1_455 S
Cd18 O17 2.203 1_655 S
Cd18 O20 2.411 1_655 S
Cd18 O21 2.333 . S
Cd18 O22 2.352 . S
Cd18 O26 2.277 1_545 S
Cd18 O27 2.357 1_545 S
C19 O24 1.209 1_565 S
C19 O26 1.226 1_455 S
O20 Cd16 2.273 . S
O20 Cd18 2.411 1_455 S
O20 C23 1.320 . S
O21 Cd18 2.333 . S
O21 C23 1.214 1_655 S
O22 Cd18 2.352 . S
O22 C25 1.258 . S
C23 O20 1.320 . S
C23 O21 1.214 1_455 S
O24 Cd16 2.277 . S
O24 C19 1.209 1_545 S
C25 O22 1.258 . S
C25 O27 1.282 1_545 S
O26 Cd18 2.277 1_565 S
O26 C19 1.226 1_655 S
O27 Cd18 2.357 1_565 S
O27 C25 1.282 1_565 S
C28 O29 1.306 . S
C28 O31 1.160 . S
O29 C28 1.306 . S
O29 Cd30 2.228 . S
Cd30 O29 2.228 . S
Cd30 O34 2.273 . S
Cd30 O38 2.277 . S
O31 C28 1.160 . S
O31 Cd32 2.203 . S
Cd32 O31 2.203 . S
Cd32 O34 2.411 . S
Cd32 O35 2.333 . S
Cd32 O36 2.352 . S
Cd32 O40 2.277 . S
Cd32 O41 2.356 . S
C33 O38 1.209 . S
C33 O40 1.226 . S
O34 Cd30 2.273 . S
O34 Cd32 2.411 . S
O34 C37 1.320 . S
O35 Cd32 2.333 . S
O35 C37 1.214 . S
O36 Cd32 2.352 . S
O36 C39 1.258 . S
C37 O34 1.320 . S
C37 O35 1.214 . S
O38 Cd30 2.277 . S
O38 C33 1.209 . S
C39 O36 1.258 . S
C39 O41 1.282 . S
O40 Cd32 2.277 . S
O40 C33 1.226 . S
O41 Cd32 2.356 . S
O41 C39 1.282 . S
H42 O68 0.856 . S
H43 O71 0.854 . S
H44 C79 0.930 . S
H45 C80 0.930 . S
H46 C82 0.930 . S
H47 C83 0.930 . S
H48 C85 0.931 1_655 S
H49 C86 0.930 1_655 S
H50 C88 0.930 . S
H51 C89 0.929 . S
H52 C91 0.930 1_655 S
H53 C92 0.931 1_655 S
H54 C94 0.930 . S
H55 C95 0.929 . S
H56 C97 0.931 1_655 S
H57 C98 0.930 1_655 S
H58 C100 0.930 . S
H59 C101 0.932 . S
H60 C103 0.930 . S
H61 C104 0.929 . S
H62 C106 0.931 . S
H63 C107 0.930 . S
H64 C109 0.929 . S
H65 C110 0.931 1_655 S
H66 C112 0.930 . S
H67 C113 0.929 . S
O68 H42 0.856 . S
O68 C114 1.300 . S
O69 C114 1.209 . S
O70 C115 1.199 . S
O71 H43 0.854 . S
O71 C115 1.297 . S
C72 C73 1.404 . S
C72 C77 1.397 . S
C72 C78 1.492 . S
C73 C72 1.404 . S
C73 C74 1.396 . S
C73 C84 1.492 . S
C74 C73 1.396 . S
C74 C75 1.397 . S
C74 C90 1.509 . S
C75 C74 1.397 . S
C75 C76 1.412 . S
C75 C96 1.485 . S
C76 C75 1.412 . S
C76 C77 1.388 . S
C76 C102 1.490 . S
C77 C72 1.397 . S
C77 C76 1.388 . S
C77 C108 1.519 . S
C78 C72 1.492 . S
C78 C79 1.363 1_455 S
C78 C83 1.390 . S
C79 H44 0.930 . S
C79 C78 1.363 1_655 S
C79 C80 1.372 . S
C80 H45 0.930 . S
C80 C79 1.372 . S
C80 C81 1.383 1_655 S
C81 C80 1.383 1_455 S
C81 C82 1.395 . S
C82 H46 0.930 . S
C82 C81 1.395 . S
C82 C83 1.362 . S
C83 H47 0.930 . S
C83 C78 1.390 . S
C83 C82 1.362 . S
C84 C73 1.492 . S
C84 C85 1.377 . S
C84 C89 1.397 . S
C85 H48 0.931 1_455 S
C85 C84 1.377 . S
C85 C86 1.376 . S
C86 H49 0.930 1_455 S
C86 C85 1.376 . S
C86 C87 1.376 . S
C87 C86 1.376 . S
C87 C88 1.378 . S
C87 C114 1.486 . S
C88 H50 0.930 . S
C88 C87 1.378 . S
C88 C89 1.376 . S
C89 H51 0.929 . S
C89 C84 1.397 . S
C89 C88 1.376 . S
C90 C74 1.509 . S
C90 C91 1.391 . S
C90 C95 1.386 . S
C91 H52 0.930 1_455 S
C91 C90 1.391 . S
C91 C92 1.375 . S
C92 H53 0.931 1_455 S
C92 C91 1.375 . S
C92 C93 1.375 . S
C93 C92 1.375 . S
C93 C94 1.361 . S
C94 H54 0.930 . S
C94 C93 1.361 . S
C94 C95 1.399 . S
C95 H55 0.929 . S
C95 C90 1.386 . S
C95 C94 1.399 . S
C96 C75 1.485 . S
C96 C97 1.394 . S
C96 C101 1.360 . S
C97 H56 0.931 1_455 S
C97 C96 1.394 . S
C97 C98 1.372 . S
C98 H57 0.930 1_455 S
C98 C97 1.372 . S
C98 C99 1.397 . S
C99 C98 1.397 . S
C99 C100 1.390 . S
C99 C115 1.476 . S
C100 H58 0.930 . S
C100 C99 1.390 . S
C100 C101 1.366 . S
C101 H59 0.932 . S
C101 C96 1.360 . S
C101 C100 1.366 . S
C102 C76 1.490 . S
C102 C103 1.380 1_455 S
C102 C107 1.386 . S
C103 H60 0.930 . S
C103 C102 1.380 1_655 S
C103 C104 1.381 . S
C104 H61 0.929 . S
C104 C103 1.381 . S
C104 C105 1.371 1_655 S
C105 C104 1.371 1_455 S
C105 C106 1.380 . S
C106 H62 0.931 . S
C106 C105 1.380 . S
C106 C107 1.387 . S
C107 H63 0.930 . S
C107 C102 1.386 . S
C107 C106 1.387 . S
C108 C77 1.519 . S
C108 C109 1.377 1_455 S
C108 C113 1.361 . S
C109 H64 0.929 . S
C109 C108 1.377 1_655 S
C109 C110 1.386 1_655 S
C110 H65 0.931 1_455 S
C110 C109 1.386 1_455 S
C110 C111 1.363 . S
C111 C110 1.363 . S
C111 C112 1.385 . S
C112 H66 0.930 . S
C112 C111 1.385 . S
C112 C113 1.396 . S
C113 H67 0.929 . S
C113 C108 1.361 . S
C113 C112 1.396 . S
C114 O68 1.300 . S
C114 O69 1.209 . S
C114 C87 1.486 . S
C115 O70 1.199 . S
C115 O71 1.297 . S
C115 C99 1.476 . S
H116 O142 0.856 . S
H117 O145 0.854 . S
H118 C153 0.930 1_565 S
H119 C154 0.930 1_565 S
H120 C156 0.930 . S
H121 C157 0.930 . S
H122 C159 0.931 . S
H123 C160 0.930 . S
H124 C162 0.930 . S
H125 C163 0.929 . S
H126 C165 0.930 . S
H127 C166 0.931 . S
H128 C168 0.930 . S
H129 C169 0.929 . S
H130 C171 0.931 . S
H131 C172 0.930 . S
H132 C174 0.930 . S
H133 C175 0.932 . S
H134 C177 0.930 . S
H135 C178 0.929 1_565 S
H136 C180 0.931 . S
H137 C181 0.930 . S
H138 C183 0.929 . S
H139 C184 0.931 . S
H140 C186 0.930 . S
H141 C187 0.929 . S
O142 H116 0.856 . S
O142 C188 1.300 . S
O143 C188 1.209 . S
O144 C189 1.199 . S
O145 H117 0.854 . S
O145 C189 1.297 . S
C146 C147 1.404 . S
C146 C151 1.397 . S
C146 C152 1.492 . S
C147 C146 1.404 . S
C147 C148 1.396 . S
C147 C158 1.492 . S
C148 C147 1.396 . S
C148 C149 1.397 . S
C148 C164 1.509 . S
C149 C148 1.397 . S
C149 C150 1.412 . S
C149 C170 1.485 . S
C150 C149 1.412 . S
C150 C151 1.388 . S
C150 C176 1.490 . S
C151 C146 1.397 . S
C151 C150 1.388 . S
C151 C182 1.519 . S
C152 C146 1.492 . S
C152 C153 1.363 . S
C152 C157 1.390 . S
C153 H118 0.930 1_545 S
C153 C152 1.363 . S
C153 C154 1.372 . S
C154 H119 0.930 1_545 S
C154 C153 1.372 . S
C154 C155 1.383 . S
C155 C154 1.383 . S
C155 C156 1.395 . S
C156 H120 0.930 . S
C156 C155 1.395 . S
C156 C157 1.362 . S
C157 H121 0.930 . S
C157 C152 1.390 . S
C157 C156 1.362 . S
C158 C147 1.492 . S
C158 C159 1.377 . S
C158 C163 1.397 . S
C159 H122 0.931 . S
C159 C158 1.377 . S
C159 C160 1.376 . S
C160 H123 0.930 . S
C160 C159 1.376 . S
C160 C161 1.376 . S
C161 C160 1.376 . S
C161 C162 1.378 . S
C161 C188 1.486 . S
C162 H124 0.930 . S
C162 C161 1.378 . S
C162 C163 1.376 . S
C163 H125 0.929 . S
C163 C158 1.397 . S
C163 C162 1.376 . S
C164 C148 1.509 . S
C164 C165 1.391 . S
C164 C169 1.386 . S
C165 H126 0.930 . S
C165 C164 1.391 . S
C165 C166 1.375 . S
C166 H127 0.931 . S
C166 C165 1.375 . S
C166 C167 1.375 . S
C167 C166 1.375 . S
C167 C168 1.361 . S
C168 H128 0.930 . S
C168 C167 1.361 . S
C168 C169 1.399 . S
C169 H129 0.929 . S
C169 C164 1.386 . S
C169 C168 1.399 . S
C170 C149 1.485 . S
C170 C171 1.394 . S
C170 C175 1.360 . S
C171 H130 0.931 . S
C171 C170 1.394 . S
C171 C172 1.372 . S
C172 H131 0.930 . S
C172 C171 1.372 . S
C172 C173 1.397 . S
C173 C172 1.397 . S
C173 C174 1.390 . S
C173 C189 1.476 . S
C174 H132 0.930 . S
C174 C173 1.390 . S
C174 C175 1.366 . S
C175 H133 0.932 . S
C175 C170 1.360 . S
C175 C174 1.366 . S
C176 C150 1.490 . S
C176 C177 1.380 . S
C176 C181 1.386 . S
C177 H134 0.930 . S
C177 C176 1.380 . S
C177 C178 1.381 . S
C178 H135 0.929 1_545 S
C178 C177 1.381 . S
C178 C179 1.371 . S
C179 C178 1.371 . S
C179 C180 1.380 . S
C180 H136 0.931 . S
C180 C179 1.380 . S
C180 C181 1.387 . S
C181 H137 0.930 . S
C181 C176 1.386 . S
C181 C180 1.387 . S
C182 C151 1.519 . S
C182 C183 1.377 . S
C182 C187 1.361 . S
C183 H138 0.929 . S
C183 C182 1.377 . S
C183 C184 1.386 . S
C184 H139 0.931 . S
C184 C183 1.386 . S
C184 C185 1.363 . S
C185 C184 1.363 . S
C185 C186 1.385 . S
C186 H140 0.930 . S
C186 C185 1.385 . S
C186 C187 1.396 . S
C187 H141 0.929 . S
C187 C182 1.361 . S
C187 C186 1.396 . S
C188 O142 1.300 . S
C188 O143 1.209 . S
C188 C161 1.486 . S
C189 O144 1.199 . S
C189 O145 1.297 . S
C189 C173 1.476 . S
H190 O216 0.856 . S
H191 O219 0.854 . S
H192 C227 0.930 . S
H193 C228 0.930 . S
H194 C230 0.930 . S
H195 C231 0.930 . S
H196 C233 0.931 . S
H197 C234 0.930 . S
H198 C236 0.916 1_554 S
H199 C237 0.929 . S
H200 C239 0.930 . S
H201 C240 0.931 . S
H202 C242 0.930 . S
H203 C243 0.929 . S
H204 C245 0.931 . S
H205 C246 0.930 . S
H206 C248 0.930 . S
H207 C249 0.932 . S
H208 C251 0.930 . S
H209 C252 0.929 . S
H210 C254 0.931 . S
H211 C255 0.930 . S
H212 C257 0.929 . S
H213 C258 0.931 . S
H214 C260 0.930 . S
H215 C261 0.929 . S
O216 H190 0.856 . S
O216 C262 1.300 . S
O217 C262 1.209 . S
O218 C263 1.199 . S
O219 H191 0.854 . S
O219 C263 1.297 . S
C220 C221 1.404 . S
C220 C225 1.397 . S
C220 C226 1.492 . S
C221 C220 1.404 . S
C221 C222 1.396 . S
C221 C232 1.492 . S
C222 C221 1.396 . S
C222 C223 1.397 . S
C222 C238 1.509 . S
C223 C222 1.397 . S
C223 C224 1.412 . S
C223 C244 1.485 . S
C224 C223 1.412 . S
C224 C225 1.388 . S
C224 C250 1.490 . S
C225 C220 1.397 . S
C225 C224 1.388 . S
C225 C256 1.519 . S
C226 C220 1.492 . S
C226 C227 1.363 . S
C226 C231 1.390 . S
C227 H192 0.930 . S
C227 C226 1.363 . S
C227 C228 1.372 . S
C228 H193 0.930 . S
C228 C227 1.372 . S
C228 C229 1.383 . S
C229 C228 1.383 . S
C229 C230 1.395 . S
C230 H194 0.930 . S
C230 C229 1.395 . S
C230 C231 1.362 . S
C231 H195 0.930 . S
C231 C226 1.390 . S
C231 C230 1.362 . S
C232 C221 1.492 . S
C232 C233 1.377 . S
C232 C237 1.397 . S
C233 H196 0.931 . S
C233 C232 1.377 . S
C233 C234 1.376 1_556 S
C234 H197 0.930 . S
C234 C233 1.376 1_554 S
C234 C235 1.376 . S
C235 C234 1.376 . S
C235 C236 1.345 1_554 S
C235 C262 1.486 . S
C236 H198 0.916 1_556 S
C236 C235 1.345 1_556 S
C236 C237 1.425 . S
C237 H199 0.929 . S
C237 C232 1.397 . S
C237 C236 1.425 . S
C238 C222 1.509 . S
C238 C239 1.391 . S
C238 C243 1.386 . S
C239 H200 0.930 . S
C239 C238 1.391 . S
C239 C240 1.375 . S
C240 H201 0.931 . S
C240 C239 1.375 . S
C240 C241 1.375 . S
C241 C240 1.375 . S
C241 C242 1.361 . S
C242 H202 0.930 . S
C242 C241 1.361 . S
C242 C243 1.399 . S
C243 H203 0.929 . S
C243 C238 1.386 . S
C243 C242 1.399 . S
C244 C223 1.485 . S
C244 C245 1.394 . S
C244 C249 1.360 . S
C245 H204 0.931 . S
C245 C244 1.394 . S
C245 C246 1.372 . S
C246 H205 0.930 . S
C246 C245 1.372 . S
C246 C247 1.397 . S
C247 C246 1.397 . S
C247 C248 1.390 . S
C247 C263 1.476 . S
C248 H206 0.930 . S
C248 C247 1.390 . S
C248 C249 1.366 . S
C249 H207 0.932 . S
C249 C244 1.360 . S
C249 C248 1.366 . S
C250 C224 1.490 . S
C250 C251 1.380 . S
C250 C255 1.386 . S
C251 H208 0.930 . S
C251 C250 1.380 . S
C251 C252 1.381 . S
C252 H209 0.929 . S
C252 C251 1.381 . S
C252 C253 1.371 . S
C253 C252 1.371 . S
C253 C254 1.380 . S
C254 H210 0.931 . S
C254 C253 1.380 . S
C254 C255 1.387 . S
C255 H211 0.930 . S
C255 C250 1.386 . S
C255 C254 1.387 . S
C256 C225 1.519 . S
C256 C257 1.377 . S
C256 C261 1.361 . S
C257 H212 0.929 . S
C257 C256 1.377 . S
C257 C258 1.386 . S
C258 H213 0.931 . S
C258 C257 1.386 . S
C258 C259 1.363 . S
C259 C258 1.363 . S
C259 C260 1.385 . S
C260 H214 0.930 . S
C260 C259 1.385 . S
C260 C261 1.396 . S
C261 H215 0.929 . S
C261 C256 1.361 . S
C261 C260 1.396 . S
C262 O216 1.300 . S
C262 O217 1.209 . S
C262 C235 1.486 . S
C263 O218 1.199 . S
C263 O219 1.297 . S
C263 C247 1.476 . S
H264 C265 0.951 . S
C265 H264 0.951 . S
C265 C271 1.265 . S
H266 C271 0.950 1_655 S
H267 C275 0.949 . S
H268 C276 0.950 . S
H269 C277 0.951 . S
H270 C278 0.951 . S
C271 C265 1.265 . S
C271 H266 0.950 1_455 S
C271 C272 1.478 . S
C272 C271 1.478 . S
C272 C273 1.397 1_455 S
C272 C289 1.394 . S
C273 C272 1.397 1_655 S
C273 C274 1.438 1_655 S
C273 C278 1.429 . S
C274 C273 1.438 1_455 S
C274 C275 1.428 1_455 S
C274 C287 1.394 . S
C275 H267 0.949 . S
C275 C274 1.428 1_655 S
C275 C276 1.345 . S
C276 H268 0.950 . S
C276 C275 1.345 . S
C276 C277 1.424 . S
C277 H269 0.951 . S
C277 C276 1.424 . S
C277 C278 1.347 . S
C278 H270 0.951 . S
C278 C273 1.429 . S
C278 C277 1.347 . S
H279 C280 0.951 1_655 S
C280 H279 0.951 1_455 S
C280 C286 1.265 . S
H281 C286 0.950 . S
H282 C290 0.949 . S
H283 C291 0.950 . S
H284 C292 0.951 . S
H285 C293 0.951 . S
C286 C280 1.265 . S
C286 H281 0.950 . S
C286 C287 1.478 . S
C287 C274 1.394 . S
C287 C286 1.478 . S
C287 C288 1.397 . S
C288 C287 1.397 . S
C288 C289 1.438 . S
C288 C293 1.429 . S
C289 C272 1.394 . S
C289 C288 1.438 . S
C289 C290 1.428 . S
C290 H282 0.949 . S
C290 C289 1.428 . S
C290 C291 1.345 . S
C291 H283 0.950 . S
C291 C290 1.345 . S
C291 C292 1.424 . S
C292 H284 0.951 . S
C292 C291 1.424 . S
C292 C293 1.347 . S
C293 H285 0.951 . S
C293 C288 1.429 . S
C293 C292 1.347 . S
H294 C295 0.951 . S
C295 H294 0.951 . S
C295 C301 1.265 . S
H296 C301 0.950 . S
H297 C305 0.949 . S
H298 C306 0.950 . S
H299 C307 0.951 . S
H300 C308 0.951 . S
C301 C295 1.265 . S
C301 H296 0.950 . S
C301 C302 1.478 . S
C302 C301 1.478 . S
C302 C303 1.397 . S
C302 C319 1.394 1_545 S
C303 C302 1.397 . S
C303 C304 1.438 . S
C303 C308 1.429 . S
C304 C303 1.438 . S
C304 C305 1.428 . S
C304 C317 1.394 . S
C305 H297 0.949 . S
C305 C304 1.428 . S
C305 C306 1.345 . S
C306 H298 0.950 . S
C306 C305 1.345 . S
C306 C307 1.424 . S
C307 H299 0.951 . S
C307 C306 1.424 . S
C307 C308 1.347 . S
C308 H300 0.951 . S
C308 C303 1.429 . S
C308 C307 1.347 . S
H309 C310 0.951 . S
C310 H309 0.951 . S
C310 C316 1.265 . S
H311 C316 0.950 . S
H312 C320 0.949 . S
H313 C321 0.950 . S
H314 C322 0.951 . S
H315 C323 0.951 . S
C316 C310 1.265 . S
C316 H311 0.950 . S
C316 C317 1.478 . S
C317 C304 1.394 . S
C317 C316 1.478 . S
C317 C318 1.397 1_545 S
C318 C317 1.397 1_565 S
C318 C319 1.438 . S
C318 C323 1.429 . S
C319 C302 1.394 1_565 S
C319 C318 1.438 . S
C319 C320 1.428 . S
C320 H312 0.949 . S
C320 C319 1.428 . S
C320 C321 1.345 . S
C321 H313 0.950 . S
C321 C320 1.345 . S
C321 C322 1.424 . S
C322 H314 0.951 . S
C322 C321 1.424 . S
C322 C323 1.347 . S
C323 H315 0.951 . S
C323 C318 1.429 . S
C323 C322 1.347 . S
H324 C325 0.951 . S
C325 H324 0.951 . S
C325 C331 1.265 . S
H326 C331 0.950 . S
H327 C335 0.949 . S
H328 C336 0.950 . S
H329 C337 0.951 . S
H330 C338 0.951 1_545 S
C331 C325 1.265 . S
C331 H326 0.950 . S
C331 C332 1.478 . S
C332 C331 1.478 . S
C332 C333 1.397 . S
C332 C349 1.394 . S
C333 C332 1.397 . S
C333 C334 1.438 . S
C333 C338 1.429 . S
C334 C333 1.438 . S
C334 C335 1.428 . S
C334 C347 1.394 . S
C335 H327 0.949 . S
C335 C334 1.428 . S
C335 C336 1.345 . S
C336 H328 0.950 . S
C336 C335 1.345 . S
C336 C337 1.424 1_565 S
C337 H329 0.951 . S
C337 C336 1.424 1_545 S
C337 C338 1.347 1_545 S
C338 H330 0.951 1_565 S
C338 C333 1.429 . S
C338 C337 1.347 1_565 S
H339 C340 0.951 . S
C340 H339 0.951 . S
C340 C346 1.265 . S
H341 C346 0.950 . S
H342 C350 0.949 . S
H343 C351 0.950 . S
H344 C352 0.951 . S
H345 C353 0.951 . S
C346 C340 1.265 . S
C346 H341 0.950 . S
C346 C347 1.478 . S
C347 C334 1.394 . S
C347 C346 1.478 . S
C347 C348 1.397 . S
C348 C347 1.397 . S
C348 C349 1.438 . S
C348 C353 1.429 . S
C349 C332 1.394 . S
C349 C348 1.438 . S
C349 C350 1.428 . S
C350 H342 0.949 . S
C350 C349 1.428 . S
C350 C351 1.345 . S
C351 H343 0.950 . S
C351 C350 1.345 . S
C351 C352 1.424 . S
C352 H344 0.951 . S
C352 C351 1.424 . S
C352 C353 1.347 . S
C353 H345 0.951 . S
C353 C348 1.429 . S
C353 C352 1.347 . S
H354 C355 0.951 . S
C355 H354 0.951 . S
C355 C361 1.265 . S
H356 C361 0.950 . S
H357 C365 0.949 . S
H358 C366 0.950 . S
H359 C367 0.951 . S
H360 C368 0.951 1_545 S
C361 C355 1.265 . S
C361 H356 0.950 . S
C361 C362 1.478 . S
C362 C361 1.478 . S
C362 C363 1.397 . S
C362 C379 1.394 . S
C363 C362 1.397 . S
C363 C364 1.438 . S
C363 C368 1.429 . S
C364 C363 1.438 . S
C364 C365 1.428 . S
C364 C377 1.394 . S
C365 H357 0.949 . S
C365 C364 1.428 . S
C365 C366 1.345 . S
C366 H358 0.950 . S
C366 C365 1.345 . S
C366 C367 1.424 1_565 S
C367 H359 0.951 . S
C367 C366 1.424 1_545 S
C367 C368 1.347 1_545 S
C368 H360 0.951 1_565 S
C368 C363 1.429 . S
C368 C367 1.347 1_565 S
H369 C370 0.951 . S
C370 H369 0.951 . S
C370 C376 1.265 . S
H371 C376 0.950 . S
H372 C380 0.949 . S
H373 C381 0.950 1_655 S
H374 C382 0.951 . S
H375 C383 0.951 . S
C376 C370 1.265 . S
C376 H371 0.950 . S
C376 C377 1.478 . S
C377 C364 1.394 . S
C377 C376 1.478 . S
C377 C378 1.397 . S
C378 C377 1.397 . S
C378 C379 1.438 . S
C378 C383 1.429 . S
C379 C362 1.394 . S
C379 C378 1.438 . S
C379 C380 1.428 . S
C380 H372 0.949 . S
C380 C379 1.428 . S
C380 C381 1.345 . S
C381 H373 0.950 1_455 S
C381 C380 1.345 . S
C381 C382 1.424 1_455 S
C382 H374 0.951 . S
C382 C381 1.424 1_655 S
C382 C383 1.347 1_655 S
C383 H375 0.951 . S
C383 C378 1.429 . S
C383 C382 1.347 1_455 S
H384 C385 0.951 . S
C385 H384 0.951 . S
C385 C391 1.265 . S
H386 C391 0.950 1_565 S
H387 C395 0.949 . S
H388 C396 0.950 . S
H389 C397 0.951 . S
H390 C398 0.951 . S
C391 C385 1.265 . S
C391 H386 0.950 1_545 S
C391 C392 1.478 . S
C392 C391 1.478 . S
C392 C393 1.397 . S
C392 C409 1.394 . S
C393 C392 1.397 . S
C393 C394 1.438 . S
C393 C398 1.429 1_545 S
C394 C393 1.438 . S
C394 C395 1.428 . S
C394 C407 1.394 . S
C395 H387 0.949 . S
C395 C394 1.428 . S
C395 C396 1.345 1_545 S
C396 H388 0.950 . S
C396 C395 1.345 1_565 S
C396 C397 1.424 . S
C397 H389 0.951 . S
C397 C396 1.424 . S
C397 C398 1.347 . S
C398 H390 0.951 . S
C398 C393 1.429 1_565 S
C398 C397 1.347 . S
H399 C400 0.951 . S
C400 H399 0.951 . S
C400 C406 1.265 . S
H401 C406 0.950 . S
H402 C410 0.949 . S
H403 C411 0.950 . S
H404 C412 0.951 . S
H405 C413 0.951 . S
C406 C400 1.265 . S
C406 H401 0.950 . S
C406 C407 1.478 . S
C407 C394 1.394 . S
C407 C406 1.478 . S
C407 C408 1.397 . S
C408 C407 1.397 . S
C408 C409 1.438 . S
C408 C413 1.429 . S
C409 C392 1.394 . S
C409 C408 1.438 . S
C409 C410 1.428 . S
C410 H402 0.949 . S
C410 C409 1.428 . S
C410 C411 1.345 . S
C411 H403 0.950 . S
C411 C410 1.345 . S
C411 C412 1.424 . S
C412 H404 0.951 . S
C412 C411 1.424 . S
C412 C413 1.347 . S
C413 H405 0.951 . S
C413 C408 1.429 . S
C413 C412 1.347 . S
H414 C415 0.951 . S
C415 H414 0.951 . S
C415 C421 1.265 . S
H416 C421 0.950 . S
H417 C425 0.949 . S
H418 C426 0.950 . S
H419 C427 0.951 . S
H420 C428 0.951 . S
C421 C415 1.265 . S
C421 H416 0.950 . S
C421 C422 1.478 . S
C422 C421 1.478 . S
C422 C423 1.397 . S
C422 C439 1.394 . S
C423 C422 1.397 . S
C423 C424 1.438 . S
C423 C428 1.429 . S
C424 C423 1.438 . S
C424 C425 1.428 . S
C424 C437 1.394 . S
C425 H417 0.949 . S
C425 C424 1.428 . S
C425 C426 1.345 . S
C426 H418 0.950 . S
C426 C425 1.345 . S
C426 C427 1.424 . S
C427 H419 0.951 . S
C427 C426 1.424 . S
C427 C428 1.347 . S
C428 H420 0.951 . S
C428 C423 1.429 . S
C428 C427 1.347 . S
H429 C430 0.951 . S
C430 H429 0.951 . S
C430 C436 1.265 . S
H431 C436 0.950 . S
H432 C440 0.949 . S
H433 C441 0.950 . S
H434 C442 0.951 . S
H435 C443 0.951 . S
C436 C430 1.265 . S
C436 H431 0.950 . S
C436 C437 1.478 . S
C437 C424 1.394 . S
C437 C436 1.478 . S
C437 C438 1.397 . S
C438 C437 1.397 . S
C438 C439 1.438 . S
C438 C443 1.429 . S
C439 C422 1.394 . S
C439 C438 1.438 . S
C439 C440 1.428 . S
C440 H432 0.949 . S
C440 C439 1.428 . S
C440 C441 1.345 . S
C441 H433 0.950 . S
C441 C440 1.345 . S
C441 C442 1.424 . S
C442 H434 0.951 . S
C442 C441 1.424 . S
C442 C443 1.347 . S
C443 H435 0.951 . S
C443 C438 1.429 . S
C443 C442 1.347 . S
H444 C445 0.951 . S
C445 H444 0.951 . S
C445 C451 1.265 . S
H446 C451 0.950 . S
H447 C455 0.949 . S
H448 C456 0.950 . S
H449 C457 0.951 . S
H450 C458 0.951 . S
C451 C445 1.265 . S
C451 H446 0.950 . S
C451 C452 1.478 . S
C452 C451 1.478 . S
C452 C453 1.397 . S
C452 C469 1.394 . S
C453 C452 1.397 . S
C453 C454 1.438 . S
C453 C458 1.429 . S
C454 C453 1.438 . S
C454 C455 1.428 . S
C454 C467 1.394 . S
C455 H447 0.949 . S
C455 C454 1.428 . S
C455 C456 1.345 . S
C456 H448 0.950 . S
C456 C455 1.345 . S
C456 C457 1.424 . S
C457 H449 0.951 . S
C457 C456 1.424 . S
C457 C458 1.347 . S
C458 H450 0.951 . S
C458 C453 1.429 . S
C458 C457 1.347 . S
H459 C460 0.951 . S
C460 H459 0.951 . S
C460 C466 1.265 . S
H461 C466 0.950 . S
H462 C470 0.949 . S
H463 C471 0.950 . S
H464 C472 0.951 . S
H465 C473 0.951 . S
C466 C460 1.265 . S
C466 H461 0.950 . S
C466 C467 1.478 . S
C467 C454 1.394 . S
C467 C466 1.478 . S
C467 C468 1.397 . S
C468 C467 1.397 . S
C468 C469 1.438 . S
C468 C473 1.429 1_545 S
C469 C452 1.394 . S
C469 C468 1.438 . S
C469 C470 1.428 . S
C470 H462 0.949 . S
C470 C469 1.428 . S
C470 C471 1.345 1_545 S
C471 H463 0.950 . S
C471 C470 1.345 1_565 S
C471 C472 1.424 . S
C472 H464 0.951 . S
C472 C471 1.424 . S
C472 C473 1.347 . S
C473 H465 0.951 . S
C473 C468 1.429 1_565 S
C473 C472 1.347 . S
H474 C475 0.951 . S
C475 H474 0.951 . S
C475 C481 1.265 . S
H476 C481 0.950 1_545 S
H477 C485 0.949 . S
H478 C486 0.950 . S
H479 C487 0.951 . S
H480 C488 0.951 . S
C481 C475 1.265 . S
C481 H476 0.950 1_565 S
C481 C482 1.478 . S
C482 C481 1.478 . S
C482 C483 1.397 . S
C482 C499 1.394 . S
C483 C482 1.397 . S
C483 C484 1.438 1_554 S
C483 C488 1.429 1_565 S
C484 C483 1.438 1_556 S
C484 C485 1.428 . S
C484 C497 1.394 . S
C485 H477 0.949 . S
C485 C484 1.428 . S
C485 C486 1.345 1_565 S
C486 H478 0.950 . S
C486 C485 1.345 1_545 S
C486 C487 1.424 . S
C487 H479 0.951 . S
C487 C486 1.424 . S
C487 C488 1.347 1_556 S
C488 H480 0.951 . S
C488 C483 1.429 1_545 S
C488 C487 1.347 1_554 S
H489 C490 0.951 . S
C490 H489 0.951 . S
C490 C496 1.265 . S
H491 C496 0.950 . S
H492 C500 0.949 . S
H493 C501 0.950 . S
H494 C502 0.951 . S
H495 C503 0.951 . S
C496 C490 1.265 . S
C496 H491 0.950 . S
C496 C497 1.478 . S
C497 C484 1.394 . S
C497 C496 1.478 . S
C497 C498 1.397 1_556 S
C498 C497 1.397 1_554 S
C498 C499 1.438 . S
C498 C503 1.429 . S
C499 C482 1.394 . S
C499 C498 1.438 . S
C499 C500 1.428 . S
C500 H492 0.949 . S
C500 C499 1.428 . S
C500 C501 1.345 . S
C501 H493 0.950 . S
C501 C500 1.345 . S
C501 C502 1.424 . S
C502 H494 0.951 . S
C502 C501 1.424 . S
C502 C503 1.347 . S
C503 H495 0.951 . S
C503 C498 1.429 . S
C503 C502 1.347 . S
H504 C505 0.951 . S
C505 H504 0.951 . S
C505 C511 1.265 1_455 S
H506 C511 0.950 . S
H507 C515 0.949 . S
H508 C516 0.950 . S
H509 C517 0.951 . S
H510 C518 0.951 . S
C511 C505 1.265 1_655 S
C511 H506 0.950 . S
C511 C512 1.478 . S
C512 C511 1.478 . S
C512 C513 1.397 . S
C512 C529 1.394 1_655 S
C513 C512 1.397 . S
C513 C514 1.438 1_655 S
C513 C518 1.429 . S
C514 C513 1.438 1_455 S
C514 C515 1.428 . S
C514 C527 1.394 . S
C515 H507 0.949 . S
C515 C514 1.428 . S
C515 C516 1.345 1_455 S
C516 H508 0.950 . S
C516 C515 1.345 1_655 S
C516 C517 1.424 . S
C517 H509 0.951 . S
C517 C516 1.424 . S
C517 C518 1.347 . S
C518 H510 0.951 . S
C518 C513 1.429 . S
C518 C517 1.347 . S
H519 C520 0.960 . S
C520 H519 0.960 . S
C520 C526 1.263 1_655 S
H521 C526 0.950 . S
H522 C530 0.949 . S
H523 C531 0.950 . S
H524 C532 0.951 . S
H525 C533 0.951 . S
C526 C520 1.263 1_455 S
C526 H521 0.950 . S
C526 C527 1.478 . S
C527 C514 1.394 . S
C527 C526 1.478 . S
C527 C528 1.397 . S
C528 C527 1.397 . S
C528 C529 1.438 . S
C528 C533 1.429 . S
C529 C512 1.394 1_455 S
C529 C528 1.438 . S
C529 C530 1.428 . S
C530 H522 0.949 . S
C530 C529 1.428 . S
C530 C531 1.345 . S
C531 H523 0.950 . S
C531 C530 1.345 . S
C531 C532 1.424 . S
C532 H524 0.951 . S
C532 C531 1.424 . S
C532 C533 1.347 . S
C533 H525 0.951 . S
C533 C528 1.429 . S
C533 C532 1.347 . S
H534 C535 0.951 . S
C535 H534 0.951 . S
C535 C541 1.265 . S
H536 C541 0.950 . S
H537 C545 0.949 . S
H538 C546 0.950 . S
H539 C547 0.951 . S
H540 C548 0.951 . S
C541 C535 1.265 . S
C541 H536 0.950 . S
C541 C542 1.478 . S
C542 C541 1.478 . S
C542 C543 1.397 . S
C542 C559 1.394 . S
C543 C542 1.397 . S
C543 C544 1.438 . S
C543 C548 1.429 . S
C544 C543 1.438 . S
C544 C545 1.428 . S
C544 C557 1.394 . S
C545 H537 0.949 . S
C545 C544 1.428 . S
C545 C546 1.345 . S
C546 H538 0.950 . S
C546 C545 1.345 . S
C546 C547 1.424 . S
C547 H539 0.951 . S
C547 C546 1.424 . S
C547 C548 1.347 . S
C548 H540 0.951 . S
C548 C543 1.429 . S
C548 C547 1.347 . S
H549 C550 0.951 . S
C550 H549 0.951 . S
C550 C556 1.265 . S
H551 C556 0.950 . S
H552 C560 0.946 . S
H553 C561 0.950 . S
H554 C562 0.951 . S
H555 C563 0.951 . S
C556 C550 1.265 . S
C556 H551 0.950 . S
C556 C557 1.478 . S
C557 C544 1.394 . S
C557 C556 1.478 . S
C557 C558 1.397 . S
C558 C557 1.397 . S
C558 C559 1.438 . S
C558 C563 1.429 1_545 S
C559 C542 1.394 . S
C559 C558 1.438 . S
C559 C560 1.428 . S
C560 H552 0.946 . S
C560 C559 1.428 . S
C560 C561 1.345 1_545 S
C561 H553 0.950 . S
C561 C560 1.345 1_565 S
C561 C562 1.424 . S
C562 H554 0.951 . S
C562 C561 1.424 . S
C562 C563 1.347 . S
C563 H555 0.951 . S
C563 C558 1.429 1_565 S
C563 C562 1.347 . S
H564 C565 0.951 . S
C565 H564 0.951 . S
C565 C571 1.265 . S
H566 C571 0.950 . S
H567 C575 0.949 . S
H568 C576 0.950 . S
H569 C577 0.951 . S
H570 C578 0.951 . S
C571 C565 1.265 . S
C571 H566 0.950 . S
C571 C572 1.478 . S
C572 C571 1.478 . S
C572 C573 1.397 . S
C572 C589 1.394 . S
C573 C572 1.397 . S
C573 C574 1.438 . S
C573 C578 1.429 . S
C574 C573 1.438 . S
C574 C575 1.428 . S
C574 C587 1.394 . S
C575 H567 0.949 . S
C575 C574 1.428 . S
C575 C576 1.345 . S
C576 H568 0.950 . S
C576 C575 1.345 . S
C576 C577 1.424 . S
C577 H569 0.951 . S
C577 C576 1.424 . S
C577 C578 1.347 . S
C578 H570 0.951 . S
C578 C573 1.429 . S
C578 C577 1.347 . S
H579 C580 0.943 1_554 S
C580 H579 0.943 1_556 S
C580 C586 1.265 1_556 S
H581 C586 0.950 . S
H582 C590 0.949 . S
H583 C591 0.950 . S
H584 C592 0.951 . S
H585 C593 0.951 . S
C586 C580 1.265 1_554 S
C586 H581 0.950 . S
C586 C587 1.478 . S
C587 C574 1.394 . S
C587 C586 1.478 . S
C587 C588 1.397 . S
C588 C587 1.397 . S
C588 C589 1.438 . S
C588 C593 1.429 1_554 S
C589 C572 1.394 . S
C589 C588 1.438 . S
C589 C590 1.428 . S
C590 H582 0.949 . S
C590 C589 1.428 . S
C590 C591 1.345 . S
C591 H583 0.950 . S
C591 C590 1.345 . S
C591 C592 1.424 1_554 S
C592 H584 0.951 . S
C592 C591 1.424 1_556 S
C592 C593 1.347 . S
C593 H585 0.951 . S
C593 C588 1.429 1_556 S
C593 C592 1.347 . S
H594 C595 0.951 . S
C595 H594 0.951 . S
C595 C601 1.265 . S
H596 C601 0.950 . S
H597 C605 0.949 . S
H598 C606 0.950 . S
H599 C607 0.951 . S
H600 C608 0.951 . S
C601 C595 1.265 . S
C601 H596 0.950 . S
C601 C602 1.478 . S
C602 C601 1.478 . S
C602 C603 1.397 . S
C602 C619 1.394 1_455 S
C603 C602 1.397 . S
C603 C604 1.438 . S
C603 C608 1.429 . S
C604 C603 1.438 . S
C604 C605 1.428 . S
C604 C617 1.394 . S
C605 H597 0.949 . S
C605 C604 1.428 . S
C605 C606 1.345 . S
C606 H598 0.950 . S
C606 C605 1.345 . S
C606 C607 1.424 . S
C607 H599 0.951 . S
C607 C606 1.424 . S
C607 C608 1.347 . S
C608 H600 0.951 . S
C608 C603 1.429 . S
C608 C607 1.347 . S
H609 C610 0.951 . S
C610 H609 0.951 . S
C610 C616 1.265 . S
H611 C616 0.950 . S
H612 C620 0.949 . S
H613 C621 0.950 . S
H614 C622 0.951 . S
H615 C623 0.951 . S
C616 C610 1.265 . S
C616 H611 0.950 . S
C616 C617 1.478 . S
C617 C604 1.394 . S
C617 C616 1.478 . S
C617 C618 1.397 . S
C618 C617 1.397 . S
C618 C619 1.438 1_455 S
C618 C623 1.429 1_455 S
C619 C602 1.394 1_655 S
C619 C618 1.438 1_655 S
C619 C620 1.428 . S
C620 H612 0.949 . S
C620 C619 1.428 . S
C620 C621 1.345 . S
C621 H613 0.950 . S
C621 C620 1.345 . S
C621 C622 1.424 . S
C622 H614 0.951 . S
C622 C621 1.424 . S
C622 C623 1.347 . S
C623 H615 0.951 . S
C623 C618 1.429 1_655 S
C623 C622 1.347 . S
C280 C81 1.389 . S
C265 C0 1.495 . S
C295 C25 1.458 . S
C310 C155 1.418 . S
C325 C33 2.125 1_665 S
C340 C259 2.129 . S
C355 C11 0.796 . S
C370 C93 0.815 . S
C400 C167 0.754 . S
C385 C14 0.772 . S
C415 C37 1.572 . S
C430 C253 1.456 . S
C460 C185 2.124 . S
C445 C28 2.134 1_655 S
C475 C9 1.550 1_565 S
C490 C229 1.486 . S
C520 C105 1.487 1_655 S
C505 C19 1.587 . S
C550 C179 1.326 . S
C535 C39 1.461 . S
C580 C241 0.812 . S
C565 C5 0.839 . S
C595 C23 2.232 . S
C610 C111 2.225 . S
