# Generated by pormake.
# Topology rtl, (3,6)-cn, num edge types: 1
# Building blocks:
#     Node 0, Type 0, BuildingBlock: BETDIP_clean_linker_0, # of connection points: 3
#     Node 1, Type 0, BuildingBlock: BETDIP_clean_linker_0, # of connection points: 3
#     Node 2, Type 0, BuildingBlock: BETDIP_clean_linker_0, # of connection points: 3
#     Node 3, Type 0, BuildingBlock: BETDIP_clean_linker_0, # of connection points: 3
#     Node 4, Type 1, BuildingBlock: KUMBOL_clean_sbu_1, # of connection points: 6
#     Node 5, Type 1, BuildingBlock: KUMBOL_clean_sbu_1, # of connection points: 6
#     Edge 6, Type (0, 1), BuildingBlock: UVAHIK_clean_linker_0, # of connection points: 2
#     Edge 7, Type (0, 1), BuildingBlock: UVAHIK_clean_linker_0, # of connection points: 2
#     Edge 8, Type (0, 1), BuildingBlock: UVAHIK_clean_linker_0, # of connection points: 2
#     Edge 9, Type (0, 1), BuildingBlock: UVAHIK_clean_linker_0, # of connection points: 2
#     Edge 10, Type (0, 1), BuildingBlock: UVAHIK_clean_linker_0, # of connection points: 2
#     Edge 11, Type (0, 1), BuildingBlock: UVAHIK_clean_linker_0, # of connection points: 2
#     Edge 12, Type (0, 1), BuildingBlock: UVAHIK_clean_linker_0, # of connection points: 2
#     Edge 13, Type (0, 1), BuildingBlock: UVAHIK_clean_linker_0, # of connection points: 2
#     Edge 14, Type (0, 1), BuildingBlock: UVAHIK_clean_linker_0, # of connection points: 2
#     Edge 15, Type (0, 1), BuildingBlock: UVAHIK_clean_linker_0, # of connection points: 2
#     Edge 16, Type (0, 1), BuildingBlock: UVAHIK_clean_linker_0, # of connection points: 2
#     Edge 17, Type (0, 1), BuildingBlock: UVAHIK_clean_linker_0, # of connection points: 2
# Relax obj value: 0.051
# Max RMSD: 0.207
# Mean RMSD: 0.154
data_MOF--net-rtl--node1-KUMBOL_clean_sbu_1--node2-BETDIP_clean_linker_0--edge1-UVAHIK_clean_linker_0
_symmetry_space_group_name_H-M    P1
_symmetry_Int_Tables_number       1
_symmetry_cell_setting            triclinic
loop_
_symmetry_equiv_pos_as_xyz
'x, y, z'
_cell_length_a     45.410899
_cell_length_b     45.381994
_cell_length_c     34.169922
_cell_angle_alpha  80.950843
_cell_angle_beta   100.09551
_cell_angle_gamma 90.793093
loop_
_atom_site_label
_atom_site_type_symbol
_atom_site_fract_x
_atom_site_fract_y
_atom_site_fract_z
_atom_type_partial_charge
H0 H 0.24731 0.84655 0.95962 0.0
H1 H 0.25749 0.84148 0.08832 0.0
H2 H 0.19178 0.90085 0.01011 0.0
H3 H 0.28135 0.79869 0.09015 0.0
C4 C 0.28958 0.79876 0.06218 0.0
C5 C 0.2408 0.85383 0.98566 0.0
C6 C 0.21804 0.87537 0.98035 0.0
C7 C 0.25515 0.8413 0.02427 0.0
C8 C 0.24668 0.85072 0.0582 0.0
C9 C 0.22355 0.87203 0.0532 0.0
C10 C 0.20964 0.88444 0.01418 0.0
N11 N 0.27765 0.81918 0.02721 0.0
H12 H 0.68823 0.73596 0.68439 0.0
H13 H 0.68438 0.73934 0.55674 0.0
H14 H 0.62984 0.67764 0.61978 0.0
H15 H 0.69897 0.78612 0.56004 0.0
C16 C 0.71552 0.78402 0.58747 0.0
C17 C 0.67899 0.72828 0.65636 0.0
C18 C 0.65788 0.70534 0.6561 0.0
C19 C 0.68842 0.74119 0.62055 0.0
C20 C 0.67653 0.73068 0.58436 0.0
C21 C 0.65533 0.70785 0.58377 0.0
C22 C 0.64625 0.69523 0.61986 0.0
N23 N 0.71064 0.76374 0.62192 0.0
H24 H 0.76355 0.17527 0.96509 0.0
H25 H 0.77729 0.17099 0.09401 0.0
H26 H 0.82994 0.1155 0.04202 0.0
H27 H 0.73305 0.19158 0.08311 0.0
C28 C 0.72985 0.20543 0.05375 0.0
C29 C 0.77477 0.16564 0.99495 0.0
C30 C 0.79732 0.14382 0.99951 0.0
C31 C 0.76654 0.17511 0.02873 0.0
C32 C 0.78186 0.1631 0.06741 0.0
C33 C 0.8045 0.14155 0.07211 0.0
C34 C 0.81199 0.13178 0.03824 0.0
N35 N 0.74391 0.19763 0.02268 0.0
H36 H 0.3395 0.28036 0.39029 0.0
H37 H 0.34018 0.27077 0.5177 0.0
H38 H 0.39914 0.33247 0.46424 0.0
H39 H 0.32297 0.22674 0.51147 0.0
C40 C 0.30837 0.22933 0.48236 0.0
C41 C 0.34877 0.28618 0.41946 0.0
C42 C 0.37064 0.30847 0.42278 0.0
C43 C 0.33819 0.27171 0.45367 0.0
C44 C 0.34901 0.28044 0.49128 0.0
C45 C 0.37101 0.30223 0.49527 0.0
C46 C 0.38208 0.31567 0.46108 0.0
N47 N 0.31571 0.24959 0.44932 0.0
C48 C 0.96516 0.10113 0.49291 0.0
C49 C 0.91408 0.09138 0.46307 0.0
C50 C 0.94127 0.08162 0.48838 0.0
C51 C 0.91124 0.1208 0.44244 0.0
C52 C 0.96234 0.13067 0.47223 0.0
C53 C 0.93527 0.14039 0.44705 0.0
N54 N 0.99131 0.09105 0.51693 0.0
C55 C 0.01522 0.10939 0.52239 0.0
C56 C 0.9869 0.14957 0.47739 0.0
C57 C 0.01342 0.13889 0.50265 0.0
Gd58 Gd 0.02628 0.97713 0.50252 0.0
Gd59 Gd 0.99156 0.0418 0.54983 0.0
N60 N 0.94482 0.05301 0.50818 0.0
C61 C 0.89046 0.07132 0.45937 0.0
C62 C 0.92133 0.03395 0.50633 0.0
C63 C 0.89402 0.04258 0.4814 0.0
H64 H 0.92311 0.01237 0.52465 0.0
H65 H 0.87559 0.02719 0.47966 0.0
H66 H 0.09671 1.00334 0.52153 0.0
H67 H 0.03543 0.10151 0.5428 0.0
H68 H 0.14527 0.98642 0.5622 0.0
H69 H 0.86923 0.07795 0.44019 0.0
H70 H 0.8905 0.12865 0.42288 0.0
H71 H 0.98066 0.91872 0.51158 0.0
H72 H 0.98557 0.17246 0.46214 0.0
H73 H 0.03241 0.15341 0.50715 0.0
H74 H 0.12853 0.88551 0.61951 0.0
H75 H 0.93269 0.16302 0.43096 0.0
H76 H 0.03053 0.84569 0.58767 0.0
H77 H 0.98296 0.86669 0.54653 0.0
N78 N 0.02606 0.92745 0.5341 0.0
C79 C 0.05259 0.91621 0.55583 0.0
C80 C 1.0013 0.91003 0.5303 0.0
C81 C 0.02957 0.86863 0.57269 0.0
C82 C 1.00264 0.88043 0.54963 0.0
C83 C 0.05499 0.88651 0.57599 0.0
H84 H 0.08477 0.85291 0.61466 0.0
N85 N 0.07416 0.96348 0.53945 0.0
C86 C 0.07733 0.93471 0.55862 0.0
C87 C 0.12951 0.94287 0.58339 0.0
C88 C 0.10502 0.92379 0.58153 0.0
C89 C 0.09838 0.98159 0.53947 0.0
C90 C 0.12623 0.97178 0.56192 0.0
O91 O 0.99116 0.04778 0.48252 0.0
O92 O 0.98373 1.00037 0.46877 0.0
O93 O 0.04963 0.98295 0.45004 0.0
O94 O 0.02038 0.94504 0.46219 0.0
O95 O 0.97484 0.99452 0.56398 0.0
O96 O 0.97743 0.97463 0.50678 0.0
O97 O 0.03131 0.97132 0.57065 0.0
O98 O 0.0329 0.01866 0.5879 0.0
O99 O 0.96254 0.0394 0.59445 0.0
O100 O 0.995 0.07457 0.59019 0.0
O101 O 0.04579 0.0236 0.49313 0.0
O102 O 0.04089 0.04533 0.5488 0.0
C103 C 0.98071 0.02928 0.4578 0.0
C104 C 0.96702 0.97444 0.54033 0.0
C105 C 0.04084 0.94701 0.40179 0.0
C106 C 0.06831 0.9412 0.34818 0.0
C107 C 0.02012 0.91777 0.34988 0.0
C108 C 0.01793 0.92932 0.38469 0.0
C109 C 0.04515 0.92365 0.3317 0.0
C110 C 0.06617 0.95304 0.3833 0.0
C111 C 0.03772 0.95858 0.43889 0.0
C112 C 0.10744 0.89424 0.60171 0.0
C113 C 0.08252 0.87565 0.59892 0.0
H114 H 0.15115 0.93532 0.60069 0.0
C115 C 0.03989 0.99004 0.59605 0.0
C116 C 0.05405 0.04295 0.51796 0.0
C117 C 0.98115 0.05906 0.65359 0.0
C118 C 0.96372 0.06167 0.71636 0.0
C119 C 0.01555 0.04871 0.71715 0.0
C120 C 0.00992 0.05125 0.67522 0.0
C121 C 0.99254 0.05377 0.73772 0.0
C122 C 0.95814 0.06438 0.67427 0.0
C123 C 0.97461 0.06225 0.60954 0.0
H124 H 1.00241 0.90411 0.33705 0.0
H125 H 0.99819 0.92442 0.39821 0.0
H126 H 0.04661 0.91426 0.30481 0.0
H127 H 0.08412 0.96644 0.39625 0.0
H128 H 0.03782 0.04297 0.73373 0.0
H129 H 0.02797 0.04731 0.65969 0.0
H130 H 0.99731 0.05208 0.7702 0.0
H131 H 0.93593 0.07067 0.65765 0.0
C132 C 0.60222 0.54919 0.04765 0.0
C133 C 0.59329 0.60179 0.02131 0.0
C134 C 0.58334 0.57419 0.03929 0.0
C135 C 0.62222 0.60391 0.0119 0.0
C136 C 0.6314 0.55136 0.03865 0.0
C137 C 0.64124 0.57881 0.02066 0.0
N138 N 0.59192 0.52266 0.06413 0.0
C139 C 0.61011 0.49801 0.07474 0.0
C140 C 0.64986 0.52585 0.04812 0.0
C141 C 0.63923 0.49912 0.06653 0.0
Gd142 Gd 0.47996 0.49224 0.99505 0.0
Gd143 Gd 0.54326 0.52335 0.07757 0.0
N144 N 0.55527 0.57147 0.04845 0.0
C145 C 0.5739 0.62652 0.01347 0.0
C146 C 0.53688 0.59585 0.04263 0.0
C147 C 0.5457 0.62358 0.0245 0.0
H148 H 0.51572 0.59435 0.05269 0.0
H149 H 0.53086 0.64277 0.0195 0.0
H150 H 0.49865 0.42069 0.01002 0.0
H151 H 0.60244 0.47758 0.0902 0.0
H152 H 0.47612 0.37177 0.02964 0.0
H153 H 0.58068 0.64808 0.99959 0.0
H154 H 0.63019 0.62494 0.99806 0.0
H155 H 0.42328 0.54321 0.97852 0.0
H156 H 0.67245 0.52664 0.0418 0.0
H157 H 0.65353 0.47943 0.0747 0.0
H158 H 0.37839 0.39704 0.05068 0.0
H159 H 0.66356 0.58089 0.01347 0.0
H160 H 0.34781 0.49976 0.01921 0.0
H161 H 0.37183 0.54549 0.99088 0.0
N162 N 0.43052 0.49765 0.00557 0.0
C163 C 0.41719 0.47191 0.01917 0.0
C164 C 0.41412 0.52355 0.99381 0.0
C165 C 0.371 0.49888 0.01557 0.0
C166 C 0.3845 0.52476 0.99968 0.0
C167 C 0.38706 0.47187 0.02451 0.0
H168 H 0.3504 0.44438 0.04109 0.0
N169 N 0.46152 0.44565 0.01792 0.0
C170 C 0.43294 0.44511 0.02478 0.0
C171 C 0.43504 0.39116 0.03801 0.0
C172 C 0.41904 0.41777 0.03555 0.0
C173 C 0.47666 0.41984 0.01807 0.0
C174 C 0.46387 0.3922 0.0288 0.0
O175 O 0.54909 0.52532 0.01241 0.0
O176 O 0.50233 0.53535 0.97495 0.0
O177 O 0.4919 0.4734 0.94512 0.0
O178 O 0.44715 0.49094 0.94106 0.0
O179 O 0.49679 0.54293 0.06939 0.0
O180 O 0.4755 0.54059 0.00316 0.0
O181 O 0.48803 0.46787 0.05925 0.0
O182 O 0.50054 0.50511 0.09688 0.0
O183 O 0.55509 0.55134 0.12418 0.0
O184 O 0.56751 0.50376 0.13647 0.0
O185 O 0.52705 0.47364 0.00561 0.0
O186 O 0.54719 0.47434 0.07273 0.0
C187 C 0.5314 0.5391 0.98036 0.0
C188 C 0.47683 0.55163 0.03686 0.0
C189 C 0.46247 0.48512 0.88009 0.0
C190 C 0.4544 0.4678 0.81532 0.0
C191 C 0.45895 0.52079 0.81871 0.0
C192 C 0.46276 0.51471 0.86073 0.0
C193 C 0.45493 0.49745 0.79604 0.0
C194 C 0.45811 0.46179 0.85734 0.0
C195 C 0.46519 0.47755 0.92374 0.0
C196 C 0.38942 0.41781 0.04225 0.0
C197 C 0.3735 0.44478 0.03684 0.0
H198 H 0.42508 0.36972 0.04606 0.0
C199 C 0.48942 0.47871 0.09291 0.0
C200 C 0.54462 0.46234 0.03946 0.0
C201 C 0.58204 0.53237 0.19156 0.0
C202 C 0.58873 0.55912 0.24923 0.0
C203 C 0.61541 0.51243 0.25349 0.0
C204 C 0.60217 0.51023 0.21405 0.0
C205 C 0.60869 0.53665 0.27103 0.0
C206 C 0.57542 0.55708 0.2093 0.0
C207 C 0.56792 0.52911 0.15009 0.0
H208 H 0.45891 0.54364 0.80365 0.0
H209 H 0.46568 0.53295 0.87799 0.0
H210 H 0.45167 0.50251 0.7635 0.0
H211 H 0.45745 0.43891 0.87232 0.0
H212 H 0.63091 0.49526 0.27056 0.0
H213 H 0.60777 0.49117 0.20112 0.0
H214 H 0.61917 0.53793 0.30175 0.0
H215 H 0.55995 0.5744 0.19243 0.0
C216 C 0.26571 0.20361 0.44435 0.0
C217 C 0.27978 0.21335 0.47993 0.0
C218 C 0.23967 0.18661 0.44414 0.0
C219 C 0.17673 0.16936 0.49825 0.0
H220 H 0.17467 0.09304 0.46036 0.0
C221 C 0.09318 0.07899 0.5408 0.0
C222 C 0.07935 0.06285 0.51089 0.0
C223 C 0.11665 0.09819 0.53391 0.0
C224 C 0.17468 0.11449 0.4705 0.0
H225 H 0.27756 0.21408 0.54252 0.0
H226 H 0.23173 0.18535 0.54188 0.0
H227 H 0.2166 0.1265 0.45203 0.0
H228 H 0.07991 0.05364 0.45059 0.0
H229 H 0.12093 0.08721 0.43859 0.0
H230 H 0.13505 0.15746 0.51699 0.0
C231 C 0.24081 0.19041 0.51434 0.0
C232 C 0.19866 0.13363 0.46568 0.0
C233 C 0.26708 0.20669 0.51478 0.0
C234 C 0.09 0.06584 0.47423 0.0
C235 C 0.11358 0.08499 0.46739 0.0
C236 C 0.15273 0.15036 0.50287 0.0
C237 C 0.22702 0.17986 0.47921 0.0
C238 C 0.20015 0.16101 0.48015 0.0
C239 C 0.127 0.1016 0.49702 0.0
C240 C 0.15167 0.12247 0.48972 0.0
H241 H 0.27528 0.20836 0.41718 0.0
H242 H 0.22942 0.17875 0.41665 0.0
H243 H 0.17714 0.19052 0.50923 0.0
H244 H 0.08594 0.07678 0.56968 0.0
H245 H 0.12693 0.11015 0.55772 0.0
C246 C 0.32175 0.77373 0.0239 0.0
C247 C 0.31054 0.77475 0.05949 0.0
C248 C 0.34044 0.75018 0.02116 0.0
C249 C 0.3604 0.67226 0.0673 0.0
H250 H 0.42801 0.68508 0.01155 0.0
C251 C 0.44823 0.58055 0.07418 0.0
C252 C 0.457 0.57685 0.03784 0.0
C253 C 0.43042 0.60491 0.07603 0.0
C254 C 0.40901 0.68116 0.02684 0.0
H255 H 0.31055 0.75243 0.12032 0.0
H256 H 0.34345 0.7114 0.11581 0.0
H257 H 0.39752 0.72767 0.01722 0.0
H258 H 0.45467 0.59588 0.97512 0.0
H259 H 0.42349 0.63881 0.97835 0.0
H260 H 0.37206 0.62582 0.07724 0.0
C261 C 0.33747 0.72852 0.08977 0.0
C262 C 0.39155 0.70553 0.0301 0.0
C263 C 0.31881 0.7521 0.0925 0.0
C264 C 0.44783 0.59806 0.00336 0.0
C265 C 0.43028 0.62271 0.00533 0.0
C266 C 0.37792 0.64798 0.0642 0.0
C267 C 0.34828 0.72712 0.05393 0.0
C268 C 0.36706 0.70136 0.05048 0.0
C269 C 0.42131 0.6263 0.04168 0.0
C270 C 0.40244 0.65216 0.04404 0.0
H271 H 0.31586 0.7909 0.9979 0.0
H272 H 0.34813 0.74968 0.99301 0.0
H273 H 0.34136 0.66815 0.08245 0.0
H274 H 0.4551 0.56452 0.10124 0.0
H275 H 0.42414 0.60725 0.10456 0.0
C276 C 0.74671 0.81992 0.55084 0.0
C277 C 0.74237 0.80294 0.5873 0.0
C278 C 0.77153 0.8382 0.5491 0.0
C279 C 0.84722 0.85255 0.60389 0.0
H280 H 0.83623 0.92697 0.52926 0.0
C281 C 0.93862 0.94373 0.58844 0.0
C282 C 0.94253 0.95395 0.54871 0.0
C283 C 0.91493 0.92483 0.59606 0.0
C284 C 0.83967 0.90621 0.55011 0.0
H285 H 0.76084 0.7915 0.65079 0.0
H286 H 0.80413 0.8242 0.64808 0.0
H287 H 0.79338 0.89556 0.53833 0.0
H288 H 0.92484 0.95265 0.48584 0.0
H289 H 0.88314 0.92028 0.4991 0.0
H290 H 0.89369 0.86389 0.61595 0.0
C291 C 0.78846 0.82302 0.62057 0.0
C292 C 0.81513 0.88807 0.55523 0.0
C293 C 0.76358 0.80442 0.62222 0.0
C294 C 0.92243 0.94496 0.51677 0.0
C295 C 0.89849 0.9266 0.52435 0.0
C296 C 0.8718 0.87099 0.59911 0.0
C297 C 0.79262 0.84034 0.58396 0.0
C298 C 0.81861 0.86066 0.58149 0.0
C299 C 0.89441 0.91643 0.56403 0.0
C300 C 0.86831 0.8977 0.57155 0.0
H301 H 0.73087 0.81895 0.52339 0.0
H302 H 0.77427 0.85046 0.52014 0.0
H303 H 0.85085 0.83156 0.62418 0.0
H304 H 0.95393 0.95025 0.61357 0.0
H305 H 0.91224 0.91736 0.62692 0.0
C306 C 0.69977 0.2483 0.00955 0.0
C307 C 0.71166 0.23299 0.04801 0.0
C308 C 0.68218 0.27413 0.00546 0.0
C309 C 0.66746 0.33422 0.06066 0.0
H310 H 0.58995 0.34218 0.99086 0.0
C311 C 0.57985 0.42046 0.07459 0.0
C312 C 0.56353 0.43615 0.03886 0.0
C313 C 0.59821 0.39623 0.0735 0.0
C314 C 0.6117 0.34049 0.0101 0.0
H315 H 0.71493 0.23256 0.11205 0.0
H316 H 0.68481 0.27774 0.10501 0.0
H317 H 0.62248 0.29954 0.99149 0.0
H318 H 0.55318 0.43815 0.97392 0.0
H319 H 0.58523 0.3961 0.97214 0.0
H320 H 0.65686 0.37498 0.07943 0.0
C321 C 0.68891 0.26993 0.07805 0.0
C322 C 0.63032 0.3161 0.0104 0.0
C323 C 0.70598 0.24399 0.0821 0.0
C324 C 0.56549 0.42665 1.0021 0.0
C325 C 0.58378 0.40242 1.00102 0.0
C326 C 0.64897 0.3586 0.06026 0.0
C327 C 0.67675 0.28525 0.03975 0.0
C328 C 0.65816 0.31247 0.03623 0.0
C329 C 0.60056 0.38707 0.03666 0.0
C330 C 0.62066 0.36178 0.03551 0.0
H331 H 0.70373 0.24017 0.98275 0.0
H332 H 0.6731 0.28555 0.97557 0.0
H333 H 0.68904 0.33225 0.08037 0.0
H334 H 0.57848 0.42686 0.10346 0.0
H335 H 0.6104 0.38451 0.1016 0.0
C336 C 0.23238 0.8907 0.11982 0.0
C337 C 0.21266 0.88076 0.08824 0.0
C338 C 0.22129 0.90147 0.15076 0.0
C339 C 0.15028 0.93028 0.17264 0.0
H340 H 0.19161 0.91703 0.28327 0.0
C341 C 0.09355 0.96673 0.29358 0.0
C342 C 0.09472 0.94556 0.32842 0.0
C343 C 0.11371 0.96492 0.2674 0.0
C344 C 0.17967 0.92086 0.25256 0.0
H345 H 0.16623 0.87246 0.06548 0.0
H346 H 0.14698 0.89003 0.11976 0.0
H347 H 0.21402 0.89905 0.23155 0.0
H348 H 0.11856 0.90708 0.36481 0.0
H349 H 0.15331 0.90325 0.31906 0.0
H350 H 0.11498 0.95006 0.19356 0.0
C351 C 0.17086 0.89088 0.12009 0.0
C352 C 0.19274 0.91083 0.22273 0.0
C353 C 0.18188 0.88054 0.08908 0.0
C354 C 0.11763 0.9239 0.33831 0.0
C355 C 0.13753 0.92178 0.31193 0.0
C356 C 0.13703 0.93984 0.20242 0.0
C357 C 0.19029 0.90218 0.15089 0.0
C358 C 0.17788 0.91483 0.18248 0.0
C359 C 0.13492 0.94138 0.27511 0.0
C360 C 0.15123 0.93483 0.24299 0.0
H361 H 0.25624 0.89112 0.1198 0.0
H362 H 0.23696 0.91004 0.17386 0.0
H363 H 0.13846 0.93458 0.14186 0.0
H364 H 0.07578 0.98342 0.28523 0.0
H365 H 0.11149 0.98098 0.24002 0.0
C366 C 0.62661 0.70515 0.70957 0.0
C367 C 0.64799 0.69112 0.69347 0.0
C368 C 0.61433 0.68989 0.74177 0.0
C369 C 0.60556 0.61211 0.79418 0.0
H370 H 0.57865 0.65287 0.87338 0.0
C371 C 0.5733 0.55071 0.94192 0.0
C372 C 0.5447 0.55765 0.94851 0.0
C373 C 0.58572 0.56782 0.91129 0.0
C374 C 0.58597 0.64128 0.8513 0.0
H375 H 0.67408 0.65082 0.69857 0.0
H376 H 0.65411 0.62465 0.75599 0.0
H377 H 0.60184 0.68135 0.82021 0.0
H378 H 0.50707 0.58848 0.92928 0.0
H379 H 0.52926 0.61903 0.87625 0.0
H380 H 0.59057 0.57193 0.8264 0.0
C381 C 0.64581 0.64697 0.74327 0.0
C382 C 0.59915 0.65758 0.82064 0.0
C383 C 0.65765 0.66205 0.71073 0.0
C384 C 0.52903 0.58248 0.92451 0.0
C385 C 0.54177 0.60003 0.89444 0.0
C386 C 0.59297 0.59582 0.82524 0.0
C387 C 0.62344 0.66036 0.75878 0.0
C388 C 0.60925 0.64322 0.79163 0.0
C389 C 0.57007 0.59262 0.88723 0.0
C390 C 0.58309 0.61021 0.85412 0.0
H391 H 0.61859 0.72748 0.69625 0.0
H392 H 0.59696 0.70095 0.75231 0.0
H393 H 0.6121 0.6002 0.77193 0.0
H394 H 0.58588 0.5317 0.95999 0.0
H395 H 0.60765 0.56176 0.90649 0.0
C396 C 0.80962 0.10912 0.1391 0.0
C397 C 0.82168 0.13052 0.11233 0.0
C398 C 0.82629 0.09838 0.17702 0.0
C399 C 0.90454 0.09524 0.23458 0.0
H400 H 0.86495 0.07163 0.3262 0.0
C401 C 0.96681 0.07 0.39938 0.0
C402 C 0.96178 0.04131 0.4191 0.0
C403 C 0.94905 0.08136 0.36254 0.0
C404 C 0.8762 0.07812 0.30076 0.0
H405 H 0.85985 0.15813 0.10364 0.0
H406 H 0.88859 0.1406 0.17036 0.0
H407 H 0.83524 0.09118 0.26071 0.0
H408 H 0.93354 1.00248 0.41692 0.0
H409 H 0.90195 0.02276 0.35278 0.0
H410 H 0.94558 0.0831 0.27539 0.0
C411 C 0.86682 0.13112 0.16206 0.0
C412 C 0.85923 0.08911 0.26313 0.0
C413 C 0.85034 0.14142 0.12396 0.0
C414 C 0.93816 0.02449 0.40196 0.0
C415 C 0.91997 0.03614 0.36556 0.0
C416 C 0.92149 0.08485 0.27235 0.0
C417 C 0.85516 0.10924 0.18909 0.0
C418 C 0.87316 0.09773 0.22942 0.0
C419 C 0.92554 0.06449 0.34532 0.0
C420 C 0.90746 0.07609 0.30567 0.0
H421 H 0.7875 0.10044 0.13042 0.0
H422 H 0.81667 0.08121 0.19651 0.0
H423 H 0.91614 0.1009 0.20937 0.0
H424 H 0.98475 0.08348 0.41215 0.0
H425 H 0.95358 0.10338 0.34754 0.0
C426 C 0.41149 0.31793 0.54791 0.0
C427 C 0.38115 0.31226 0.53472 0.0
C428 C 0.42051 0.32953 0.58364 0.0
C429 C 0.38947 0.37318 0.64965 0.0
H430 H 0.46549 0.35462 0.72093 0.0
C431 C 0.4218 0.42759 0.79073 0.0
C432 C 0.44865 0.44329 0.7915 0.0
C433 C 0.41481 0.40655 0.76488 0.0
C434 C 0.44417 0.35988 0.70126 0.0
H435 H 0.33661 0.3136 0.54927 0.0
H436 H 0.35238 0.33278 0.61199 0.0
H437 H 0.45039 0.32695 0.66469 0.0
H438 H 0.49026 0.44813 0.76868 0.0
H439 H 0.47828 0.41081 0.7237 0.0
H440 H 0.38326 0.40607 0.68596 0.0
C441 C 0.36921 0.32884 0.59445 0.0
C442 C 0.43558 0.34421 0.669 0.0
C443 C 0.3602 0.31745 0.55871 0.0
C444 C 0.46927 0.43642 0.76804 0.0
C445 C 0.46253 0.41497 0.74269 0.0
C446 C 0.39787 0.3885 0.68202 0.0
C447 C 0.39936 0.33565 0.60694 0.0
C448 C 0.4082 0.35088 0.64262 0.0
C449 C 0.43482 0.40059 0.73994 0.0
C450 C 0.42536 0.38221 0.70793 0.0
H451 H 0.42822 0.31377 0.53033 0.0
H452 H 0.44389 0.33467 0.5922 0.0
H453 H 0.36861 0.37949 0.62943 0.0
H454 H 0.4057 0.4325 0.80885 0.0
H455 H 0.3934 0.39557 0.76348 0.0
C456 C 0.63249 0.71671 0.51026 0.0
C457 C 0.64303 0.69674 0.54562 0.0
C458 C 0.62044 0.70608 0.47457 0.0
C459 C 0.59223 0.63599 0.43612 0.0
H460 H 0.60566 0.67933 0.33386 0.0
C461 C 0.56126 0.58177 0.29448 0.0
C462 C 0.5828 0.58441 0.26936 0.0
C463 C 0.56155 0.60093 0.32294 0.0
C464 C 0.60181 0.66676 0.36212 0.0
H465 H 0.65004 0.65008 0.57108 0.0
H466 H 0.63031 0.63149 0.50892 0.0
H467 H 0.62216 0.70031 0.39502 0.0
H468 H 0.62023 0.60998 0.25221 0.0
H469 H 0.6214 0.64299 0.30203 0.0
H470 H 0.57412 0.60138 0.40401 0.0
C471 C 0.63008 0.65536 0.50871 0.0
C472 C 0.61093 0.67908 0.39735 0.0
C473 C 0.64165 0.66598 0.54444 0.0
C474 C 0.6032 0.60781 0.27103 0.0
C475 C 0.60376 0.62675 0.29973 0.0
C476 C 0.58366 0.62343 0.40109 0.0
C477 C 0.61906 0.6752 0.47323 0.0
C478 C 0.6069 0.66354 0.43506 0.0
C479 C 0.58386 0.6227 0.32745 0.0
C480 C 0.5889 0.63829 0.36359 0.0
H481 H 0.63306 0.74056 0.5104 0.0
H482 H 0.61189 0.72214 0.44823 0.0
H483 H 0.58784 0.62363 0.46424 0.0
H484 H 0.54546 0.56366 0.2939 0.0
H485 H 0.54522 0.59759 0.34275 0.0
C486 C 0.80963 0.10449 0.96091 0.0
C487 C 0.80721 0.13482 0.96409 0.0
C488 C 0.8223 0.0959 0.92991 0.0
C489 C 0.8763 0.12307 0.86506 0.0
H490 H 0.84759 0.05909 0.80579 0.0
C491 C 0.93011 0.09818 0.73446 0.0
C492 C 0.94 0.06861 0.73803 0.0
C493 C 0.91032 0.10554 0.75853 0.0
C494 C 0.85583 0.07692 0.82227 0.0
H495 H 0.81531 0.17996 0.93714 0.0
H496 H 0.83752 0.16505 0.88297 0.0
H497 H 0.81921 0.07369 0.85477 0.0
H498 H 0.93599 0.02322 0.76724 0.0
H499 H 0.90065 0.036 0.80904 0.0
H500 H 0.91288 0.1263 0.83294 0.0
C501 C 0.82968 0.14788 0.90439 0.0
C502 C 0.83968 0.08524 0.85028 0.0
C503 C 0.81673 0.15645 0.93509 0.0
C504 C 0.92865 0.0462 0.76435 0.0
C505 C 0.90841 0.05348 0.78797 0.0
C506 C 0.89226 0.11491 0.83706 0.0
C507 C 0.83314 0.11751 0.90191 0.0
C508 C 0.84972 0.10853 0.87181 0.0
C509 C 0.89981 0.08336 0.78613 0.0
C510 C 0.88215 0.09189 0.81524 0.0
H511 H 0.80233 0.08744 0.98297 0.0
H512 H 0.82476 0.07234 0.9289 0.0
H513 H 0.88507 0.14053 0.88195 0.0
H514 H 0.93864 0.11574 0.71426 0.0
H515 H 0.90379 0.1287 0.7563 0.0
C516 C 0.38753 0.35569 0.38457 0.0
C517 C 0.38125 0.32506 0.38668 0.0
C518 C 0.39954 0.37111 0.35251 0.0
C519 C 0.40688 0.37135 0.24765 0.0
H520 H 0.47497 0.42186 0.27308 0.0
C521 C 0.47012 0.43057 0.12544 0.0
C522 C 0.47858 0.46029 0.12739 0.0
C523 C 0.45877 0.41337 0.15691 0.0
C524 C 0.45575 0.40818 0.26539 0.0
H525 H 0.3817 0.28703 0.35544 0.0
H526 H 0.40193 0.3144 0.29854 0.0
H527 H 0.45346 0.39293 0.32737 0.0
H528 H 0.4832 0.49471 0.16538 0.0
H529 H 0.46373 0.46459 0.22071 0.0
H530 H 0.40875 0.38696 0.18567 0.0
C531 C 0.39782 0.32621 0.32228 0.0
C532 C 0.4435 0.39151 0.29652 0.0
C533 C 0.38612 0.31059 0.35479 0.0
C534 C 0.47655 0.47202 0.16254 0.0
C535 C 0.46551 0.45468 0.19437 0.0
C536 C 0.41901 0.38818 0.21646 0.0
C537 C 0.40514 0.35652 0.32123 0.0
C538 C 0.41882 0.37309 0.28799 0.0
C539 C 0.45612 0.42523 0.19172 0.0
C540 C 0.44351 0.40694 0.22494 0.0
H541 H 0.38322 0.3679 0.40782 0.0
H542 H 0.40431 0.3946 0.35208 0.0
H543 H 0.38768 0.35758 0.24018 0.0
H544 H 0.47249 0.42032 0.09976 0.0
H545 H 0.45247 0.39059 0.15414 0.0
C546 C 0.18847 0.86804 0.9138 0.0
C547 C 0.20195 0.88745 0.93962 0.0
C548 C 0.17163 0.87937 0.87629 0.0
C549 C 0.15971 0.94603 0.79852 0.0
H550 H 0.08211 0.91164 0.76748 0.0
C551 C 0.07516 0.99817 0.65848 0.0
C552 C 0.05877 0.97852 0.63525 0.0
C553 C 0.09313 0.98727 0.69539 0.0
C554 C 0.10389 0.92124 0.77541 0.0
H555 H 0.20911 0.93376 0.94646 0.0
H556 H 0.18002 0.95371 0.88041 0.0
H557 H 0.11296 0.89213 0.83196 0.0
H558 H 0.04823 0.93202 0.63286 0.0
H559 H 0.0803 0.91295 0.69636 0.0
H560 H 0.15077 0.97501 0.74183 0.0
C561 C 0.18236 0.92975 0.88922 0.0
C562 C 0.12153 0.91008 0.81239 0.0
C563 C 0.19884 0.91839 0.927 0.0
C564 C 0.06081 0.94775 0.64972 0.0
C565 C 0.07893 0.93683 0.68644 0.0
C566 C 0.14212 0.95711 0.76138 0.0
C567 C 0.16828 0.91035 0.86367 0.0
C568 C 0.14965 0.92231 0.82433 0.0
C569 C 0.09521 0.95646 0.70984 0.0
C570 C 0.114 0.94481 0.74935 0.0
H571 H 0.19037 0.84409 0.92306 0.0
H572 H 0.16123 0.86389 0.85711 0.0
H573 H 0.18142 0.9557 0.80677 0.0
H574 H 0.07427 0.022 0.6481 0.0
H575 H 0.10509 1.00305 0.71283 0.0
loop_
_geom_bond_atom_site_label_1
_geom_bond_atom_site_label_2
_geom_bond_distance
_geom_bond_site_symmetry_2
_ccdc_geom_bond_type
H0 C5 0.930 . S
H1 C8 0.930 . S
H2 C10 0.930 . S
H3 C4 1.016 . S
C4 H3 1.016 . S
C4 N11 1.286 . S
C5 H0 0.930 . S
C5 C6 1.397 . S
C5 C7 1.361 1_556 S
C6 C5 1.397 . S
C6 C10 1.390 1_556 S
C7 C5 1.361 1_554 S
C7 C8 1.393 . S
C7 N11 1.413 . S
C8 H1 0.930 . S
C8 C7 1.393 . S
C8 C9 1.399 . S
C9 C8 1.399 . S
C9 C10 1.381 . S
C10 H2 0.930 . S
C10 C6 1.390 1_554 S
C10 C9 1.381 . S
N11 C4 1.286 . S
N11 C7 1.413 . S
H12 C17 0.930 . S
H13 C20 0.930 . S
H14 C22 0.930 . S
H15 C16 1.016 . S
C16 H15 1.016 . S
C16 N23 1.286 . S
C17 H12 0.930 . S
C17 C18 1.397 . S
C17 C19 1.361 . S
C18 C17 1.397 . S
C18 C22 1.390 . S
C19 C17 1.361 . S
C19 C20 1.393 . S
C19 N23 1.413 . S
C20 H13 0.930 . S
C20 C19 1.393 . S
C20 C21 1.399 . S
C21 C20 1.399 . S
C21 C22 1.381 . S
C22 H14 0.930 . S
C22 C18 1.390 . S
C22 C21 1.381 . S
N23 C16 1.286 . S
N23 C19 1.413 . S
H24 C29 0.930 . S
H25 C32 0.930 . S
H26 C34 0.930 . S
H27 C28 1.016 . S
C28 H27 1.016 . S
C28 N35 1.286 . S
C29 H24 0.930 . S
C29 C30 1.397 . S
C29 C31 1.361 1_556 S
C30 C29 1.397 . S
C30 C34 1.390 1_556 S
C31 C29 1.361 1_554 S
C31 C32 1.393 . S
C31 N35 1.413 . S
C32 H25 0.930 . S
C32 C31 1.393 . S
C32 C33 1.399 . S
C33 C32 1.399 . S
C33 C34 1.381 . S
C34 H26 0.930 . S
C34 C30 1.390 1_554 S
C34 C33 1.381 . S
N35 C28 1.286 . S
N35 C31 1.413 . S
H36 C41 0.930 . S
H37 C44 0.930 . S
H38 C46 0.930 . S
H39 C40 1.016 . S
C40 H39 1.016 . S
C40 N47 1.286 . S
C41 H36 0.930 . S
C41 C42 1.397 . S
C41 C43 1.361 . S
C42 C41 1.397 . S
C42 C46 1.390 . S
C43 C41 1.361 . S
C43 C44 1.393 . S
C43 N47 1.413 . S
C44 H37 0.930 . S
C44 C43 1.393 . S
C44 C45 1.399 . S
C45 C44 1.399 . S
C45 C46 1.381 . S
C46 H38 0.930 . S
C46 C42 1.390 . S
C46 C45 1.381 . S
N47 C40 1.286 . S
N47 C43 1.413 . S
C48 C50 1.422 . S
C48 C52 1.415 . S
C48 N54 1.369 . S
C49 C50 1.421 . S
C49 C51 1.417 . S
C49 C61 1.422 . S
C50 C48 1.422 . S
C50 C49 1.421 . S
C50 N60 1.359 . S
C51 C49 1.417 . S
C51 C53 1.329 . S
C51 H70 0.930 . S
C52 C48 1.415 . S
C52 C53 1.437 . S
C52 C56 1.413 . S
C53 C51 1.329 . S
C53 C52 1.437 . S
C53 H75 0.929 . S
N54 C48 1.369 . S
N54 C55 1.338 1_655 S
N54 Gd59 2.622 . S
C55 N54 1.338 1_455 S
C55 C57 1.378 . S
C55 H67 0.929 . S
C56 C52 1.413 . S
C56 C57 1.348 1_655 S
C56 H72 0.931 . S
C57 C55 1.378 . S
C57 C56 1.348 1_455 S
C57 H73 0.930 . S
Gd58 N78 2.622 . S
Gd58 N85 2.570 . S
Gd58 O92 2.353 1_465 S
Gd58 O93 2.468 . S
Gd58 O94 2.427 . S
Gd58 O96 2.388 1_455 S
Gd58 O97 2.386 . S
Gd58 O101 2.307 1_565 S
Gd58 C111 2.805 . S
Gd59 N54 2.622 . S
Gd59 N60 2.570 . S
Gd59 O91 2.386 . S
Gd59 O95 2.307 1_545 S
Gd59 O98 2.353 1_655 S
Gd59 O99 2.468 . S
Gd59 O100 2.427 . S
Gd59 O102 2.388 1_655 S
Gd59 C123 2.805 . S
N60 C50 1.359 . S
N60 Gd59 2.570 . S
N60 C62 1.343 . S
C61 C49 1.422 . S
C61 C63 1.321 . S
C61 H69 0.931 . S
C62 N60 1.343 . S
C62 C63 1.390 . S
C62 H64 0.931 . S
C63 C61 1.321 . S
C63 C62 1.390 . S
C63 H65 0.930 . S
H64 C62 0.931 . S
H65 C63 0.930 . S
H66 C89 0.931 . S
H67 C55 0.929 . S
H68 C90 0.930 . S
H69 C61 0.931 . S
H70 C51 0.930 . S
H71 C80 0.929 1_655 S
H72 C56 0.931 . S
H73 C57 0.930 . S
H74 C112 0.930 . S
H75 C53 0.929 . S
H76 C81 0.931 . S
H77 C82 0.930 1_655 S
N78 Gd58 2.622 . S
N78 C79 1.369 . S
N78 C80 1.338 . S
C79 N78 1.369 . S
C79 C83 1.415 . S
C79 C86 1.422 . S
C80 H71 0.929 1_455 S
C80 N78 1.338 . S
C80 C82 1.378 . S
C81 H76 0.931 . S
C81 C82 1.348 . S
C81 C83 1.413 . S
C82 H77 0.930 1_455 S
C82 C80 1.378 . S
C82 C81 1.348 . S
C83 C79 1.415 . S
C83 C81 1.413 . S
C83 C113 1.437 . S
H84 C113 0.929 . S
N85 Gd58 2.570 . S
N85 C86 1.359 . S
N85 C89 1.343 . S
C86 C79 1.422 . S
C86 N85 1.359 . S
C86 C88 1.421 . S
C87 C88 1.422 . S
C87 C90 1.321 . S
C87 H114 0.931 . S
C88 C86 1.421 . S
C88 C87 1.422 . S
C88 C112 1.417 . S
C89 H66 0.931 . S
C89 N85 1.343 . S
C89 C90 1.390 . S
C90 H68 0.930 . S
C90 C87 1.321 . S
C90 C89 1.390 . S
O91 Gd59 2.386 . S
O91 C103 1.265 . S
O92 Gd58 2.353 1_645 S
O92 C103 1.242 . S
O93 Gd58 2.468 . S
O93 C111 1.263 . S
O94 Gd58 2.427 . S
O94 C111 1.252 . S
O95 Gd59 2.307 1_565 S
O95 C104 1.261 . S
O96 Gd58 2.388 1_655 S
O96 C104 1.252 . S
O97 Gd58 2.386 . S
O97 C115 1.265 . S
O98 Gd59 2.353 1_455 S
O98 C115 1.242 1_545 S
O99 Gd59 2.468 . S
O99 C123 1.263 . S
O100 Gd59 2.427 . S
O100 C123 1.252 . S
O101 Gd58 2.307 1_545 S
O101 C116 1.261 . S
O102 Gd59 2.388 1_455 S
O102 C116 1.252 . S
C103 O91 1.265 . S
C103 O92 1.242 . S
C104 O95 1.261 . S
C104 O96 1.252 . S
C105 C108 1.394 . S
C105 C110 1.370 . S
C105 C111 1.500 . S
C106 C109 1.383 . S
C106 C110 1.395 . S
C107 C108 1.396 . S
C107 C109 1.365 . S
C107 H124 0.929 . S
C108 C105 1.394 . S
C108 C107 1.396 . S
C108 H125 0.930 . S
C109 C106 1.383 . S
C109 C107 1.365 . S
C109 H126 0.931 . S
C110 C105 1.370 . S
C110 C106 1.395 . S
C110 H127 0.930 . S
C111 Gd58 2.805 . S
C111 O93 1.263 . S
C111 O94 1.252 . S
C111 C105 1.500 . S
C112 H74 0.930 . S
C112 C88 1.417 . S
C112 C113 1.329 . S
C113 C83 1.437 . S
C113 H84 0.929 . S
C113 C112 1.329 . S
H114 C87 0.931 . S
C115 O97 1.265 . S
C115 O98 1.242 1_565 S
C116 O101 1.261 . S
C116 O102 1.252 . S
C117 C120 1.394 . S
C117 C122 1.370 . S
C117 C123 1.500 . S
C118 C121 1.383 . S
C118 C122 1.395 . S
C119 C120 1.396 . S
C119 C121 1.365 . S
C119 H128 0.929 . S
C120 C117 1.394 . S
C120 C119 1.396 . S
C120 H129 0.930 . S
C121 C118 1.383 . S
C121 C119 1.365 . S
C121 H130 0.931 . S
C122 C117 1.370 . S
C122 C118 1.395 . S
C122 H131 0.930 . S
C123 Gd59 2.805 . S
C123 O99 1.263 . S
C123 O100 1.252 . S
C123 C117 1.500 . S
H124 C107 0.929 . S
H125 C108 0.930 . S
H126 C109 0.931 . S
H127 C110 0.930 . S
H128 C119 0.929 . S
H129 C120 0.930 . S
H130 C121 0.931 . S
H131 C122 0.930 . S
C132 C134 1.422 . S
C132 C136 1.415 . S
C132 N138 1.369 . S
C133 C134 1.421 . S
C133 C135 1.417 . S
C133 C145 1.422 . S
C134 C132 1.422 . S
C134 C133 1.421 . S
C134 N144 1.359 . S
C135 C133 1.417 . S
C135 C137 1.329 . S
C135 H154 0.930 . S
C136 C132 1.415 . S
C136 C137 1.437 . S
C136 C140 1.413 . S
C137 C135 1.329 . S
C137 C136 1.437 . S
C137 H159 0.929 . S
N138 C132 1.369 . S
N138 C139 1.338 . S
N138 Gd143 2.622 . S
C139 N138 1.338 . S
C139 C141 1.378 . S
C139 H151 0.929 . S
C140 C136 1.413 . S
C140 C141 1.348 . S
C140 H156 0.931 . S
C141 C139 1.378 . S
C141 C140 1.348 . S
C141 H157 0.930 . S
Gd142 N162 2.625 . S
Gd142 N169 2.570 1_556 S
Gd142 O176 2.353 . S
Gd142 O177 2.468 . S
Gd142 O178 2.427 . S
Gd142 O180 2.388 1_556 S
Gd142 O181 2.386 1_556 S
Gd142 O185 2.307 1_556 S
Gd142 C195 2.805 . S
Gd143 N138 2.622 . S
Gd143 N144 2.570 . S
Gd143 O175 2.386 . S
Gd143 O179 2.307 . S
Gd143 O182 2.353 . S
Gd143 O183 2.468 . S
Gd143 O184 2.427 . S
Gd143 O186 2.388 . S
Gd143 C207 2.805 . S
N144 C134 1.359 . S
N144 Gd143 2.570 . S
N144 C146 1.343 . S
C145 C133 1.422 . S
C145 C147 1.321 . S
C145 H153 0.931 . S
C146 N144 1.343 . S
C146 C147 1.390 . S
C146 H148 0.931 . S
C147 C145 1.321 . S
C147 C146 1.390 . S
C147 H149 0.930 . S
H148 C146 0.931 . S
H149 C147 0.930 . S
H150 C173 0.931 . S
H151 C139 0.929 . S
H152 C174 0.930 . S
H153 C145 0.931 . S
H154 C135 0.930 . S
H155 C164 0.929 . S
H156 C140 0.931 . S
H157 C141 0.930 . S
H158 C196 0.930 . S
H159 C137 0.929 . S
H160 C165 0.931 . S
H161 C166 0.930 . S
N162 Gd142 2.625 . S
N162 C163 1.365 1_556 S
N162 C164 1.337 . S
C163 N162 1.365 1_554 S
C163 C167 1.415 . S
C163 C170 1.422 . S
C164 H155 0.929 . S
C164 N162 1.337 . S
C164 C166 1.378 . S
C165 H160 0.931 . S
C165 C166 1.348 1_554 S
C165 C167 1.413 . S
C166 H161 0.930 . S
C166 C164 1.378 . S
C166 C165 1.348 1_556 S
C167 C163 1.415 . S
C167 C165 1.413 . S
C167 C197 1.437 . S
H168 C197 0.929 . S
N169 Gd142 2.570 1_554 S
N169 C170 1.359 . S
N169 C173 1.343 . S
C170 C163 1.422 . S
C170 N169 1.359 . S
C170 C172 1.421 . S
C171 C172 1.422 . S
C171 C174 1.321 . S
C171 H198 0.931 . S
C172 C170 1.421 . S
C172 C171 1.422 . S
C172 C196 1.417 . S
C173 H150 0.931 . S
C173 N169 1.343 . S
C173 C174 1.390 . S
C174 H152 0.930 . S
C174 C171 1.321 . S
C174 C173 1.390 . S
O175 Gd143 2.386 . S
O175 C187 1.265 1_554 S
O176 Gd142 2.353 . S
O176 C187 1.242 . S
O177 Gd142 2.468 . S
O177 C195 1.263 . S
O178 Gd142 2.427 . S
O178 C195 1.252 . S
O179 Gd143 2.307 . S
O179 C188 1.261 . S
O180 Gd142 2.388 1_554 S
O180 C188 1.252 . S
O181 Gd142 2.386 1_554 S
O181 C199 1.265 . S
O182 Gd143 2.353 . S
O182 C199 1.242 . S
O183 Gd143 2.468 . S
O183 C207 1.263 . S
O184 Gd143 2.427 . S
O184 C207 1.252 . S
O185 Gd142 2.307 1_554 S
O185 C200 1.261 . S
O186 Gd143 2.388 . S
O186 C200 1.252 . S
C187 O175 1.265 1_556 S
C187 O176 1.242 . S
C188 O179 1.261 . S
C188 O180 1.252 . S
C189 C192 1.394 . S
C189 C194 1.370 . S
C189 C195 1.500 . S
C190 C193 1.383 . S
C190 C194 1.395 . S
C191 C192 1.396 . S
C191 C193 1.365 . S
C191 H208 0.929 . S
C192 C189 1.394 . S
C192 C191 1.396 . S
C192 H209 0.930 . S
C193 C190 1.383 . S
C193 C191 1.365 . S
C193 H210 0.931 . S
C194 C189 1.370 . S
C194 C190 1.395 . S
C194 H211 0.930 . S
C195 Gd142 2.805 . S
C195 O177 1.263 . S
C195 O178 1.252 . S
C195 C189 1.500 . S
C196 H158 0.930 . S
C196 C172 1.417 . S
C196 C197 1.329 . S
C197 C167 1.437 . S
C197 H168 0.929 . S
C197 C196 1.329 . S
H198 C171 0.931 . S
C199 O181 1.265 . S
C199 O182 1.242 . S
C200 O185 1.261 . S
C200 O186 1.252 . S
C201 C204 1.394 . S
C201 C206 1.370 . S
C201 C207 1.500 . S
C202 C205 1.383 . S
C202 C206 1.395 . S
C203 C204 1.396 . S
C203 C205 1.365 . S
C203 H212 0.929 . S
C204 C201 1.394 . S
C204 C203 1.396 . S
C204 H213 0.930 . S
C205 C202 1.383 . S
C205 C203 1.365 . S
C205 H214 0.931 . S
C206 C201 1.370 . S
C206 C202 1.395 . S
C206 H215 0.930 . S
C207 Gd143 2.805 . S
C207 O183 1.263 . S
C207 O184 1.252 . S
C207 C201 1.500 . S
H208 C191 0.929 . S
H209 C192 0.930 . S
H210 C193 0.931 . S
H211 C194 0.930 . S
H212 C203 0.929 . S
H213 C204 0.930 . S
H214 C205 0.931 . S
H215 C206 0.930 . S
C216 C217 1.349 . S
C216 C218 1.327 . S
C216 H241 0.950 . S
C217 C216 1.349 . S
C217 C233 1.349 . S
C218 C216 1.327 . S
C218 C237 1.429 . S
C218 H242 0.950 . S
C219 C236 1.574 . S
C219 C238 1.368 . S
C219 H243 0.949 . S
H220 C224 0.949 . S
C221 C222 1.349 . S
C221 C223 1.327 . S
C221 H244 0.950 . S
C222 C221 1.349 . S
C222 C234 1.349 . S
C223 C221 1.327 . S
C223 C239 1.429 . S
C223 H245 0.950 . S
C224 H220 0.949 . S
C224 C232 1.574 . S
C224 C240 1.368 . S
H225 C233 0.950 . S
H226 C231 0.950 . S
H227 C232 0.949 . S
H228 C234 0.950 . S
H229 C235 0.950 . S
H230 C236 0.949 . S
C231 H226 0.950 . S
C231 C233 1.327 . S
C231 C237 1.429 . S
C232 C224 1.574 . S
C232 H227 0.949 . S
C232 C238 1.368 . S
C233 C217 1.349 . S
C233 H225 0.950 . S
C233 C231 1.327 . S
C234 C222 1.349 . S
C234 H228 0.950 . S
C234 C235 1.327 . S
C235 H229 0.950 . S
C235 C234 1.327 . S
C235 C239 1.429 . S
C236 C219 1.574 . S
C236 H230 0.949 . S
C236 C240 1.368 . S
C237 C218 1.429 . S
C237 C231 1.429 . S
C237 C238 1.523 . S
C238 C219 1.368 . S
C238 C232 1.368 . S
C238 C237 1.523 . S
C239 C223 1.429 . S
C239 C235 1.429 . S
C239 C240 1.523 . S
C240 C224 1.368 . S
C240 C236 1.368 . S
C240 C239 1.523 . S
H241 C216 0.950 . S
H242 C218 0.950 . S
H243 C219 0.949 . S
H244 C221 0.950 . S
H245 C223 0.950 . S
C246 C247 1.349 . S
C246 C248 1.327 . S
C246 H271 0.950 . S
C247 C246 1.349 . S
C247 C263 1.349 . S
C248 C246 1.327 . S
C248 C267 1.429 . S
C248 H272 0.951 1_554 S
C249 C266 1.574 . S
C249 C268 1.368 . S
C249 H273 0.949 . S
H250 C254 0.949 1_556 S
C251 C252 1.349 . S
C251 C253 1.327 . S
C251 H274 0.950 . S
C252 C251 1.349 . S
C252 C264 1.349 . S
C253 C251 1.327 . S
C253 C269 1.429 . S
C253 H275 0.950 . S
C254 H250 0.949 1_554 S
C254 C262 1.574 . S
C254 C270 1.368 . S
H255 C263 0.950 . S
H256 C261 0.950 . S
H257 C262 0.949 1_556 S
H258 C264 0.950 1_556 S
H259 C265 0.950 1_556 S
H260 C266 0.949 . S
C261 H256 0.950 . S
C261 C263 1.327 . S
C261 C267 1.429 . S
C262 C254 1.574 . S
C262 H257 0.949 1_554 S
C262 C268 1.368 . S
C263 C247 1.349 . S
C263 H255 0.950 . S
C263 C261 1.327 . S
C264 C252 1.349 . S
C264 H258 0.950 1_554 S
C264 C265 1.327 . S
C265 H259 0.950 1_554 S
C265 C264 1.327 . S
C265 C269 1.429 . S
C266 C249 1.574 . S
C266 H260 0.949 . S
C266 C270 1.368 . S
C267 C248 1.429 . S
C267 C261 1.429 . S
C267 C268 1.523 . S
C268 C249 1.368 . S
C268 C262 1.368 . S
C268 C267 1.523 . S
C269 C253 1.429 . S
C269 C265 1.429 . S
C269 C270 1.523 . S
C270 C254 1.368 . S
C270 C266 1.368 . S
C270 C269 1.523 . S
H271 C246 0.950 . S
H272 C248 0.951 1_556 S
H273 C249 0.949 . S
H274 C251 0.950 . S
H275 C253 0.950 . S
C276 C277 1.349 . S
C276 C278 1.327 . S
C276 H301 0.950 . S
C277 C276 1.349 . S
C277 C293 1.349 . S
C278 C276 1.327 . S
C278 C297 1.429 . S
C278 H302 0.950 . S
C279 C296 1.574 . S
C279 C298 1.368 . S
C279 H303 0.949 . S
H280 C284 0.949 . S
C281 C282 1.349 . S
C281 C283 1.327 . S
C281 H304 0.950 . S
C282 C281 1.349 . S
C282 C294 1.349 . S
C283 C281 1.327 . S
C283 C299 1.429 . S
C283 H305 0.950 . S
C284 H280 0.949 . S
C284 C292 1.574 . S
C284 C300 1.368 . S
H285 C293 0.950 . S
H286 C291 0.950 . S
H287 C292 0.949 . S
H288 C294 0.950 . S
H289 C295 0.950 . S
H290 C296 0.949 . S
C291 H286 0.950 . S
C291 C293 1.327 . S
C291 C297 1.429 . S
C292 C284 1.574 . S
C292 H287 0.949 . S
C292 C298 1.368 . S
C293 C277 1.349 . S
C293 H285 0.950 . S
C293 C291 1.327 . S
C294 C282 1.349 . S
C294 H288 0.950 . S
C294 C295 1.327 . S
C295 H289 0.950 . S
C295 C294 1.327 . S
C295 C299 1.429 . S
C296 C279 1.574 . S
C296 H290 0.949 . S
C296 C300 1.368 . S
C297 C278 1.429 . S
C297 C291 1.429 . S
C297 C298 1.523 . S
C298 C279 1.368 . S
C298 C292 1.368 . S
C298 C297 1.523 . S
C299 C283 1.429 . S
C299 C295 1.429 . S
C299 C300 1.523 . S
C300 C284 1.368 . S
C300 C296 1.368 . S
C300 C299 1.523 . S
H301 C276 0.950 . S
H302 C278 0.950 . S
H303 C279 0.949 . S
H304 C281 0.950 . S
H305 C283 0.950 . S
C306 C307 1.349 1_556 S
C306 C308 1.327 . S
C306 H331 0.950 . S
C307 C306 1.349 1_554 S
C307 C323 1.349 . S
C308 C306 1.327 . S
C308 C327 1.429 1_556 S
C308 H332 0.950 . S
C309 C326 1.574 . S
C309 C328 1.368 . S
C309 H333 0.949 . S
H310 C314 0.949 . S
C311 C312 1.349 . S
C311 C313 1.327 . S
C311 H334 0.950 . S
C312 C311 1.349 . S
C312 C324 1.368 . S
C313 C311 1.327 . S
C313 C329 1.429 . S
C313 H335 0.950 . S
C314 H310 0.949 . S
C314 C322 1.574 . S
C314 C330 1.368 1_556 S
H315 C323 0.950 . S
H316 C321 0.950 . S
H317 C322 0.949 . S
H318 C324 0.937 1_556 S
H319 C325 0.970 . S
H320 C326 0.949 . S
C321 H316 0.950 . S
C321 C323 1.327 . S
C321 C327 1.429 . S
C322 C314 1.574 . S
C322 H317 0.949 . S
C322 C328 1.368 1_556 S
C323 C307 1.349 . S
C323 H315 0.950 . S
C323 C321 1.327 . S
C324 C312 1.368 . S
C324 H318 0.937 1_554 S
C324 C325 1.315 1_554 S
C325 H319 0.970 . S
C325 C324 1.315 1_556 S
C325 C329 1.415 1_556 S
C326 C309 1.574 . S
C326 H320 0.949 . S
C326 C330 1.368 . S
C327 C308 1.429 1_554 S
C327 C321 1.429 . S
C327 C328 1.523 . S
C328 C309 1.368 . S
C328 C322 1.368 1_554 S
C328 C327 1.523 . S
C329 C313 1.429 . S
C329 C325 1.415 1_554 S
C329 C330 1.523 . S
C330 C314 1.368 1_554 S
C330 C326 1.368 . S
C330 C329 1.523 . S
H331 C306 0.950 . S
H332 C308 0.950 . S
H333 C309 0.949 . S
H334 C311 0.950 . S
H335 C313 0.950 . S
C336 C337 1.349 . S
C336 C338 1.327 . S
C336 H361 0.950 . S
C337 C336 1.349 . S
C337 C353 1.349 . S
C338 C336 1.327 . S
C338 C357 1.429 . S
C338 H362 0.950 . S
C339 C356 1.574 . S
C339 C358 1.368 . S
C339 H363 0.949 . S
H340 C344 0.949 . S
C341 C342 1.349 . S
C341 C343 1.327 . S
C341 H364 0.950 . S
C342 C341 1.349 . S
C342 C354 1.349 . S
C343 C341 1.327 . S
C343 C359 1.429 . S
C343 H365 0.950 . S
C344 H340 0.949 . S
C344 C352 1.574 . S
C344 C360 1.368 . S
H345 C353 0.950 . S
H346 C351 0.950 . S
H347 C352 0.949 . S
H348 C354 0.950 . S
H349 C355 0.950 . S
H350 C356 0.949 . S
C351 H346 0.950 . S
C351 C353 1.327 . S
C351 C357 1.429 . S
C352 C344 1.574 . S
C352 H347 0.949 . S
C352 C358 1.368 . S
C353 C337 1.349 . S
C353 H345 0.950 . S
C353 C351 1.327 . S
C354 C342 1.349 . S
C354 H348 0.950 . S
C354 C355 1.327 . S
C355 H349 0.950 . S
C355 C354 1.327 . S
C355 C359 1.429 . S
C356 C339 1.574 . S
C356 H350 0.949 . S
C356 C360 1.368 . S
C357 C338 1.429 . S
C357 C351 1.429 . S
C357 C358 1.523 . S
C358 C339 1.368 . S
C358 C352 1.368 . S
C358 C357 1.523 . S
C359 C343 1.429 . S
C359 C355 1.429 . S
C359 C360 1.523 . S
C360 C344 1.368 . S
C360 C356 1.368 . S
C360 C359 1.523 . S
H361 C336 0.950 . S
H362 C338 0.950 . S
H363 C339 0.949 . S
H364 C341 0.950 . S
H365 C343 0.950 . S
C366 C367 1.349 . S
C366 C368 1.327 . S
C366 H391 0.950 . S
C367 C366 1.349 . S
C367 C383 1.349 . S
C368 C366 1.327 . S
C368 C387 1.429 . S
C368 H392 0.950 . S
C369 C386 1.574 . S
C369 C388 1.368 . S
C369 H393 0.949 . S
H370 C374 0.949 . S
C371 C372 1.349 . S
C371 C373 1.327 . S
C371 H394 0.950 . S
C372 C371 1.349 . S
C372 C384 1.349 . S
C373 C371 1.327 . S
C373 C389 1.429 . S
C373 H395 0.950 . S
C374 H370 0.949 . S
C374 C382 1.574 . S
C374 C390 1.368 . S
H375 C383 0.950 . S
H376 C381 0.950 . S
H377 C382 0.949 . S
H378 C384 0.950 . S
H379 C385 0.950 . S
H380 C386 0.949 . S
C381 H376 0.950 . S
C381 C383 1.327 . S
C381 C387 1.429 . S
C382 C374 1.574 . S
C382 H377 0.949 . S
C382 C388 1.368 . S
C383 C367 1.349 . S
C383 H375 0.950 . S
C383 C381 1.327 . S
C384 C372 1.349 . S
C384 H378 0.950 . S
C384 C385 1.327 . S
C385 H379 0.950 . S
C385 C384 1.327 . S
C385 C389 1.429 . S
C386 C369 1.574 . S
C386 H380 0.949 . S
C386 C390 1.368 . S
C387 C368 1.429 . S
C387 C381 1.429 . S
C387 C388 1.523 . S
C388 C369 1.368 . S
C388 C382 1.368 . S
C388 C387 1.523 . S
C389 C373 1.429 . S
C389 C385 1.429 . S
C389 C390 1.523 . S
C390 C374 1.368 . S
C390 C386 1.368 . S
C390 C389 1.523 . S
H391 C366 0.950 . S
H392 C368 0.950 . S
H393 C369 0.949 . S
H394 C371 0.950 . S
H395 C373 0.950 . S
C396 C397 1.349 . S
C396 C398 1.327 . S
C396 H421 0.950 . S
C397 C396 1.349 . S
C397 C413 1.349 . S
C398 C396 1.327 . S
C398 C417 1.429 . S
C398 H422 0.950 . S
C399 C416 1.574 . S
C399 C418 1.368 . S
C399 H423 0.949 . S
H400 C404 0.949 . S
C401 C402 1.349 . S
C401 C403 1.327 . S
C401 H424 0.950 . S
C402 C401 1.349 . S
C402 C414 1.349 . S
C403 C401 1.327 . S
C403 C419 1.429 . S
C403 H425 0.950 . S
C404 H400 0.949 . S
C404 C412 1.574 . S
C404 C420 1.368 . S
H405 C413 0.950 . S
H406 C411 0.950 . S
H407 C412 0.949 . S
H408 C414 0.950 . S
H409 C415 0.950 . S
H410 C416 0.949 . S
C411 H406 0.950 . S
C411 C413 1.327 . S
C411 C417 1.429 . S
C412 C404 1.574 . S
C412 H407 0.949 . S
C412 C418 1.368 . S
C413 C397 1.349 . S
C413 H405 0.950 . S
C413 C411 1.327 . S
C414 C402 1.349 . S
C414 H408 0.950 . S
C414 C415 1.327 . S
C415 H409 0.950 . S
C415 C414 1.327 . S
C415 C419 1.429 . S
C416 C399 1.574 . S
C416 H410 0.949 . S
C416 C420 1.368 . S
C417 C398 1.429 . S
C417 C411 1.429 . S
C417 C418 1.523 . S
C418 C399 1.368 . S
C418 C412 1.368 . S
C418 C417 1.523 . S
C419 C403 1.429 . S
C419 C415 1.429 . S
C419 C420 1.523 . S
C420 C404 1.368 . S
C420 C416 1.368 . S
C420 C419 1.523 . S
H421 C396 0.950 . S
H422 C398 0.950 . S
H423 C399 0.949 . S
H424 C401 0.950 . S
H425 C403 0.950 . S
C426 C427 1.349 . S
C426 C428 1.327 . S
C426 H451 0.950 . S
C427 C426 1.349 . S
C427 C443 1.349 . S
C428 C426 1.327 . S
C428 C447 1.429 . S
C428 H452 0.950 . S
C429 C446 1.574 . S
C429 C448 1.368 . S
C429 H453 0.949 . S
H430 C434 0.949 . S
C431 C432 1.349 . S
C431 C433 1.327 . S
C431 H454 0.950 . S
C432 C431 1.349 . S
C432 C444 1.349 . S
C433 C431 1.327 . S
C433 C449 1.429 . S
C433 H455 0.950 . S
C434 H430 0.949 . S
C434 C442 1.574 . S
C434 C450 1.368 . S
H435 C443 0.950 . S
H436 C441 0.950 . S
H437 C442 0.949 . S
H438 C444 0.950 . S
H439 C445 0.950 . S
H440 C446 0.949 . S
C441 H436 0.950 . S
C441 C443 1.327 . S
C441 C447 1.429 . S
C442 C434 1.574 . S
C442 H437 0.949 . S
C442 C448 1.368 . S
C443 C427 1.349 . S
C443 H435 0.950 . S
C443 C441 1.327 . S
C444 C432 1.349 . S
C444 H438 0.950 . S
C444 C445 1.327 . S
C445 H439 0.950 . S
C445 C444 1.327 . S
C445 C449 1.429 . S
C446 C429 1.574 . S
C446 H440 0.949 . S
C446 C450 1.368 . S
C447 C428 1.429 . S
C447 C441 1.429 . S
C447 C448 1.523 . S
C448 C429 1.368 . S
C448 C442 1.368 . S
C448 C447 1.523 . S
C449 C433 1.429 . S
C449 C445 1.429 . S
C449 C450 1.523 . S
C450 C434 1.368 . S
C450 C446 1.368 . S
C450 C449 1.523 . S
H451 C426 0.950 . S
H452 C428 0.950 . S
H453 C429 0.949 . S
H454 C431 0.950 . S
H455 C433 0.950 . S
C456 C457 1.349 . S
C456 C458 1.327 . S
C456 H481 0.950 . S
C457 C456 1.349 . S
C457 C473 1.349 . S
C458 C456 1.327 . S
C458 C477 1.429 . S
C458 H482 0.950 . S
C459 C476 1.574 . S
C459 C478 1.368 . S
C459 H483 0.949 . S
H460 C464 0.949 . S
C461 C462 1.349 . S
C461 C463 1.327 . S
C461 H484 0.950 . S
C462 C461 1.349 . S
C462 C474 1.349 . S
C463 C461 1.327 . S
C463 C479 1.429 . S
C463 H485 0.950 . S
C464 H460 0.949 . S
C464 C472 1.574 . S
C464 C480 1.368 . S
H465 C473 0.950 . S
H466 C471 0.950 . S
H467 C472 0.949 . S
H468 C474 0.950 . S
H469 C475 0.950 . S
H470 C476 0.949 . S
C471 H466 0.950 . S
C471 C473 1.327 . S
C471 C477 1.429 . S
C472 C464 1.574 . S
C472 H467 0.949 . S
C472 C478 1.368 . S
C473 C457 1.349 . S
C473 H465 0.950 . S
C473 C471 1.327 . S
C474 C462 1.349 . S
C474 H468 0.950 . S
C474 C475 1.327 . S
C475 H469 0.950 . S
C475 C474 1.327 . S
C475 C479 1.429 . S
C476 C459 1.574 . S
C476 H470 0.949 . S
C476 C480 1.368 . S
C477 C458 1.429 . S
C477 C471 1.429 . S
C477 C478 1.523 . S
C478 C459 1.368 . S
C478 C472 1.368 . S
C478 C477 1.523 . S
C479 C463 1.429 . S
C479 C475 1.429 . S
C479 C480 1.523 . S
C480 C464 1.368 . S
C480 C476 1.368 . S
C480 C479 1.523 . S
H481 C456 0.950 . S
H482 C458 0.950 . S
H483 C459 0.949 . S
H484 C461 0.950 . S
H485 C463 0.950 . S
C486 C487 1.349 . S
C486 C488 1.327 . S
C486 H511 0.950 . S
C487 C486 1.349 . S
C487 C503 1.349 . S
C488 C486 1.327 . S
C488 C507 1.429 . S
C488 H512 0.950 . S
C489 C506 1.574 . S
C489 C508 1.368 . S
C489 H513 0.949 . S
H490 C494 0.949 . S
C491 C492 1.349 . S
C491 C493 1.327 . S
C491 H514 0.950 . S
C492 C491 1.349 . S
C492 C504 1.349 . S
C493 C491 1.327 . S
C493 C509 1.429 . S
C493 H515 0.950 . S
C494 H490 0.949 . S
C494 C502 1.574 . S
C494 C510 1.368 . S
H495 C503 0.950 . S
H496 C501 0.950 . S
H497 C502 0.949 . S
H498 C504 0.950 . S
H499 C505 0.950 . S
H500 C506 0.949 . S
C501 H496 0.950 . S
C501 C503 1.327 . S
C501 C507 1.429 . S
C502 C494 1.574 . S
C502 H497 0.949 . S
C502 C508 1.368 . S
C503 C487 1.349 . S
C503 H495 0.950 . S
C503 C501 1.327 . S
C504 C492 1.349 . S
C504 H498 0.950 . S
C504 C505 1.327 . S
C505 H499 0.950 . S
C505 C504 1.327 . S
C505 C509 1.429 . S
C506 C489 1.574 . S
C506 H500 0.949 . S
C506 C510 1.368 . S
C507 C488 1.429 . S
C507 C501 1.429 . S
C507 C508 1.523 . S
C508 C489 1.368 . S
C508 C502 1.368 . S
C508 C507 1.523 . S
C509 C493 1.429 . S
C509 C505 1.429 . S
C509 C510 1.523 . S
C510 C494 1.368 . S
C510 C506 1.368 . S
C510 C509 1.523 . S
H511 C486 0.950 . S
H512 C488 0.950 . S
H513 C489 0.949 . S
H514 C491 0.950 . S
H515 C493 0.950 . S
C516 C517 1.349 . S
C516 C518 1.327 . S
C516 H541 0.950 . S
C517 C516 1.349 . S
C517 C533 1.349 . S
C518 C516 1.327 . S
C518 C537 1.429 . S
C518 H542 0.950 . S
C519 C536 1.574 . S
C519 C538 1.368 . S
C519 H543 0.949 . S
H520 C524 0.949 . S
C521 C522 1.349 . S
C521 C523 1.327 . S
C521 H544 0.950 . S
C522 C521 1.349 . S
C522 C534 1.349 . S
C523 C521 1.327 . S
C523 C539 1.429 . S
C523 H545 0.950 . S
C524 H520 0.949 . S
C524 C532 1.574 . S
C524 C540 1.368 . S
H525 C533 0.950 . S
H526 C531 0.950 . S
H527 C532 0.949 . S
H528 C534 0.950 . S
H529 C535 0.950 . S
H530 C536 0.949 . S
C531 H526 0.950 . S
C531 C533 1.327 . S
C531 C537 1.429 . S
C532 C524 1.574 . S
C532 H527 0.949 . S
C532 C538 1.368 . S
C533 C517 1.349 . S
C533 H525 0.950 . S
C533 C531 1.327 . S
C534 C522 1.349 . S
C534 H528 0.950 . S
C534 C535 1.327 . S
C535 H529 0.950 . S
C535 C534 1.327 . S
C535 C539 1.429 . S
C536 C519 1.574 . S
C536 H530 0.949 . S
C536 C540 1.368 . S
C537 C518 1.429 . S
C537 C531 1.429 . S
C537 C538 1.523 . S
C538 C519 1.368 . S
C538 C532 1.368 . S
C538 C537 1.523 . S
C539 C523 1.429 . S
C539 C535 1.429 . S
C539 C540 1.523 . S
C540 C524 1.368 . S
C540 C536 1.368 . S
C540 C539 1.523 . S
H541 C516 0.950 . S
H542 C518 0.950 . S
H543 C519 0.949 . S
H544 C521 0.950 . S
H545 C523 0.950 . S
C546 C547 1.349 . S
C546 C548 1.327 . S
C546 H571 0.950 . S
C547 C546 1.349 . S
C547 C563 1.349 . S
C548 C546 1.327 . S
C548 C567 1.429 . S
C548 H572 0.950 . S
C549 C566 1.574 . S
C549 C568 1.368 . S
C549 H573 0.949 . S
H550 C554 0.949 . S
C551 C552 1.349 . S
C551 C553 1.327 . S
C551 H574 0.950 1_565 S
C552 C551 1.349 . S
C552 C564 1.349 . S
C553 C551 1.327 . S
C553 C569 1.429 . S
C553 H575 0.950 . S
C554 H550 0.949 . S
C554 C562 1.574 . S
C554 C570 1.368 . S
H555 C563 0.950 . S
H556 C561 0.950 . S
H557 C562 0.949 . S
H558 C564 0.950 . S
H559 C565 0.950 . S
H560 C566 0.949 . S
C561 H556 0.950 . S
C561 C563 1.327 . S
C561 C567 1.429 . S
C562 C554 1.574 . S
C562 H557 0.949 . S
C562 C568 1.368 . S
C563 C547 1.349 . S
C563 H555 0.950 . S
C563 C561 1.327 . S
C564 C552 1.349 . S
C564 H558 0.950 . S
C564 C565 1.327 . S
C565 H559 0.950 . S
C565 C564 1.327 . S
C565 C569 1.429 . S
C566 C549 1.574 . S
C566 H560 0.949 . S
C566 C570 1.368 . S
C567 C548 1.429 . S
C567 C561 1.429 . S
C567 C568 1.523 . S
C568 C549 1.368 . S
C568 C562 1.368 . S
C568 C567 1.523 . S
C569 C553 1.429 . S
C569 C565 1.429 . S
C569 C570 1.523 . S
C570 C554 1.368 . S
C570 C566 1.368 . S
C570 C569 1.523 . S
H571 C546 0.950 . S
H572 C548 0.950 . S
H573 C549 0.949 . S
H574 C551 0.950 1_545 S
H575 C553 0.950 . S
C222 C116 1.679 . S
C217 C40 1.688 . S
C247 C4 1.689 . S
C252 C188 1.668 . S
C277 C16 1.689 . S
C282 C104 1.694 . S
C307 C28 1.658 . S
C312 C200 1.655 . S
C342 C106 1.462 . S
C337 C9 1.632 . S
C372 C187 1.734 . S
C367 C18 1.734 . S
C397 C33 1.654 . S
C402 C103 1.666 . S
C427 C45 1.625 . S
C432 C190 1.454 . S
C462 C202 1.410 . S
C457 C21 1.579 . S
C492 C118 1.408 . S
C487 C30 1.583 . S
C522 C199 1.658 . S
C517 C42 1.649 . S
C547 C6 1.586 . S
C552 C115 1.598 . S
