# Generated by pormake.
# Topology apo, (3,6)-cn, num edge types: 1
# Building blocks:
#     Node 0, Type 0, BuildingBlock: ESEHIV_clean_linker_0, # of connection points: 3
#     Node 1, Type 0, BuildingBlock: ESEHIV_clean_linker_0, # of connection points: 3
#     Node 2, Type 0, BuildingBlock: ESEHIV_clean_linker_0, # of connection points: 3
#     Node 3, Type 0, BuildingBlock: ESEHIV_clean_linker_0, # of connection points: 3
#     Node 4, Type 0, BuildingBlock: ESEHIV_clean_linker_0, # of connection points: 3
#     Node 5, Type 0, BuildingBlock: ESEHIV_clean_linker_0, # of connection points: 3
#     Node 6, Type 0, BuildingBlock: ESEHIV_clean_linker_0, # of connection points: 3
#     Node 7, Type 0, BuildingBlock: ESEHIV_clean_linker_0, # of connection points: 3
#     Node 8, Type 1, BuildingBlock: KUMJIN_clean_sbu_1, # of connection points: 6
#     Node 9, Type 1, BuildingBlock: KUMJIN_clean_sbu_1, # of connection points: 6
#     Node 10, Type 1, BuildingBlock: KUMJIN_clean_sbu_1, # of connection points: 6
#     Node 11, Type 1, BuildingBlock: KUMJIN_clean_sbu_1, # of connection points: 6
#     Edge 12, Type (0, 1), BuildingBlock: AJUNOK_clean_linker_0, # of connection points: 2
#     Edge 13, Type (0, 1), BuildingBlock: AJUNOK_clean_linker_0, # of connection points: 2
#     Edge 14, Type (0, 1), BuildingBlock: AJUNOK_clean_linker_0, # of connection points: 2
#     Edge 15, Type (0, 1), BuildingBlock: AJUNOK_clean_linker_0, # of connection points: 2
#     Edge 16, Type (0, 1), BuildingBlock: AJUNOK_clean_linker_0, # of connection points: 2
#     Edge 17, Type (0, 1), BuildingBlock: AJUNOK_clean_linker_0, # of connection points: 2
#     Edge 18, Type (0, 1), BuildingBlock: AJUNOK_clean_linker_0, # of connection points: 2
#     Edge 19, Type (0, 1), BuildingBlock: AJUNOK_clean_linker_0, # of connection points: 2
#     Edge 20, Type (0, 1), BuildingBlock: AJUNOK_clean_linker_0, # of connection points: 2
#     Edge 21, Type (0, 1), BuildingBlock: AJUNOK_clean_linker_0, # of connection points: 2
#     Edge 22, Type (0, 1), BuildingBlock: AJUNOK_clean_linker_0, # of connection points: 2
#     Edge 23, Type (0, 1), BuildingBlock: AJUNOK_clean_linker_0, # of connection points: 2
#     Edge 24, Type (0, 1), BuildingBlock: AJUNOK_clean_linker_0, # of connection points: 2
#     Edge 25, Type (0, 1), BuildingBlock: AJUNOK_clean_linker_0, # of connection points: 2
#     Edge 26, Type (0, 1), BuildingBlock: AJUNOK_clean_linker_0, # of connection points: 2
#     Edge 27, Type (0, 1), BuildingBlock: AJUNOK_clean_linker_0, # of connection points: 2
#     Edge 28, Type (0, 1), BuildingBlock: AJUNOK_clean_linker_0, # of connection points: 2
#     Edge 29, Type (0, 1), BuildingBlock: AJUNOK_clean_linker_0, # of connection points: 2
#     Edge 30, Type (0, 1), BuildingBlock: AJUNOK_clean_linker_0, # of connection points: 2
#     Edge 31, Type (0, 1), BuildingBlock: AJUNOK_clean_linker_0, # of connection points: 2
#     Edge 32, Type (0, 1), BuildingBlock: AJUNOK_clean_linker_0, # of connection points: 2
#     Edge 33, Type (0, 1), BuildingBlock: AJUNOK_clean_linker_0, # of connection points: 2
#     Edge 34, Type (0, 1), BuildingBlock: AJUNOK_clean_linker_0, # of connection points: 2
#     Edge 35, Type (0, 1), BuildingBlock: AJUNOK_clean_linker_0, # of connection points: 2
# Relax obj value: 0.007
# Max RMSD: 0.141
# Mean RMSD: 0.105
data_MOF--net-apo--node1-KUMJIN_clean_sbu_1--node2-ESEHIV_clean_linker_0--edge1-AJUNOK_clean_linker_0
_symmetry_space_group_name_H-M    P1
_symmetry_Int_Tables_number       1
_symmetry_cell_setting            triclinic
loop_
_symmetry_equiv_pos_as_xyz
'x, y, z'
_cell_length_a     16.53754
_cell_length_b     28.466
_cell_length_c     38.504544
_cell_angle_alpha  89.804616
_cell_angle_beta   89.860918
_cell_angle_gamma 90.363307
loop_
_atom_site_label
_atom_site_type_symbol
_atom_site_fract_x
_atom_site_fract_y
_atom_site_fract_z
_atom_type_partial_charge
H0 H 0.34872 0.45403 0.43754 0.0
H1 H 0.20463 0.41823 0.35086 0.0
H2 H 0.23079 0.32002 0.4367 0.0
C3 C 0.31026 0.42859 0.42455 0.0
C4 C 0.28683 0.38725 0.44168 0.0
C5 C 0.28431 0.43774 0.39082 0.0
C6 C 0.23077 0.40636 0.37478 0.0
C7 C 0.21446 0.36118 0.38902 0.0
C8 C 0.2418 0.353 0.42358 0.0
H9 H 0.14844 0.04647 0.92736 0.0
H10 H 0.25188 0.11855 0.83991 0.0
H11 H 0.26318 0.18163 0.94141 0.0
C12 C 0.18028 0.07686 0.91695 0.0
C13 C 0.20391 0.1136 0.93903 0.0
C14 C 0.19744 0.07871 0.88145 0.0
C15 C 0.23938 0.11717 0.86758 0.0
C16 C 0.2635 0.15439 0.88907 0.0
C17 C 0.24529 0.1527 0.92484 0.0
H18 H 0.86167 0.07703 0.60473 0.0
H19 H 0.75173 0.12327 0.69987 0.0
H20 H 0.71952 0.20313 0.60598 0.0
C21 C 0.82448 0.10188 0.61871 0.0
C22 C 0.79224 0.14095 0.60112 0.0
C23 C 0.80955 0.09523 0.6544 0.0
C24 C 0.76278 0.12824 0.67234 0.0
C25 C 0.73079 0.16767 0.65539 0.0
C26 C 0.74473 0.17326 0.61957 0.0
H27 H 0.63642 0.42452 0.10192 0.0
H28 H 0.76313 0.3904 0.19593 0.0
H29 H 0.76706 0.29469 0.10979 0.0
C30 C 0.67516 0.40121 0.11659 0.0
C31 C 0.70218 0.3593 0.10134 0.0
C32 C 0.69626 0.41242 0.1509 0.0
C33 C 0.74498 0.38131 0.16975 0.0
C34 C 0.76876 0.33813 0.15572 0.0
C35 C 0.74902 0.32788 0.12103 0.0
H36 H 0.65314 0.55602 0.60263 0.0
H37 H 0.78672 0.68633 0.6016 0.0
H38 H 0.72813 0.61897 0.6987 0.0
C39 C 0.68425 0.58403 0.61628 0.0
C40 C 0.68946 0.58256 0.65268 0.0
C41 C 0.71676 0.6224 0.59768 0.0
C42 C 0.75716 0.65823 0.61593 0.0
C43 C 0.76083 0.65783 0.65237 0.0
C44 C 0.72667 0.61968 0.67055 0.0
H45 H 0.84515 0.96027 0.10969 0.0
H46 H 0.72125 0.90081 0.19671 0.0
H47 H 0.74411 0.82241 0.10065 0.0
C48 C 0.80995 0.93163 0.12081 0.0
C49 C 0.79101 0.89224 0.10063 0.0
C50 C 0.78655 0.93371 0.1556 0.0
C51 C 0.74062 0.89699 0.17004 0.0
C52 C 0.7239 0.85539 0.15111 0.0
C53 C 0.75053 0.85377 0.11604 0.0
H54 H 0.1676 0.9341 0.43939 0.0
H55 H 0.2979 0.8037 0.43385 0.0
H56 H 0.2762 0.89145 0.34333 0.0
C57 C 0.20466 0.90957 0.42503 0.0
C58 C 0.22108 0.91802 0.38978 0.0
C59 C 0.23232 0.86829 0.44124 0.0
C60 C 0.27829 0.83615 0.42184 0.0
C61 C 0.29567 0.84449 0.38655 0.0
C62 C 0.26667 0.88556 0.37088 0.0
H63 H 0.36163 0.57659 0.93883 0.0
H64 H 0.2514 0.61978 0.84281 0.0
H65 H 0.21434 0.70037 0.93555 0.0
C66 C 0.32301 0.60025 0.92442 0.0
C67 C 0.28923 0.6393 0.94134 0.0
C68 C 0.30801 0.59234 0.88888 0.0
C69 C 0.26137 0.62497 0.87033 0.0
C70 C 0.22906 0.66473 0.8865 0.0
C71 C 0.24086 0.67062 0.92238 0.0
Eu72 Eu 0.10774 0.13474 0.2413 0.0
C73 C 0.79081 0.05383 0.29819 0.0
N74 N 0.80357 0.10013 0.29153 0.0
C75 C 0.67666 0.10467 0.26178 0.0
C76 C 0.72197 0.03039 0.28518 0.0
C77 C 0.74632 0.12624 0.27496 0.0
C78 C 0.66519 0.05633 0.26631 0.0
C79 C 0.82939 0.98365 0.32958 0.0
C80 C 0.84414 0.03081 0.31996 0.0
C81 C 0.76431 0.95906 0.31463 0.0
C82 C 0.71059 0.98242 0.2925 0.0
Eu83 Eu 0.92391 0.13376 0.31351 0.0
N84 N 0.90547 0.05588 0.33448 0.0
C85 C 0.87754 0.96352 0.35542 0.0
C86 C 0.9464 0.03803 0.36226 0.0
C87 C 0.93471 0.99128 0.37254 0.0
H88 H 0.75567 0.16345 0.27125 0.0
H89 H 0.96955 0.97678 0.39374 0.0
H90 H 0.21818 0.04003 0.26688 0.0
H91 H 0.23342 0.30105 0.1985 0.0
H92 H 0.98863 0.05973 0.37648 0.0
H93 H 0.86822 0.92741 0.36357 0.0
H94 H 0.13138 0.23696 0.20314 0.0
H95 H 0.63217 0.12524 0.24799 0.0
H96 H 0.75289 0.92257 0.32125 0.0
H97 H 0.65883 0.96355 0.28225 0.0
H98 H 0.34637 0.02421 0.29685 0.0
H99 H 0.6113 0.03966 0.25601 0.0
H100 H 0.35928 0.29702 0.23308 0.0
N101 N 0.23402 0.11447 0.26699 0.0
C102 C 0.28794 0.15015 0.27133 0.0
C103 C 0.33019 0.05996 0.29036 0.0
C104 C 0.36425 0.14235 0.28661 0.0
C105 C 0.25656 0.06928 0.27399 0.0
C106 C 0.38366 0.09683 0.29736 0.0
N107 N 0.19958 0.19796 0.23966 0.0
C108 C 0.18661 0.23518 0.21806 0.0
C109 C 0.32976 0.2291 0.25547 0.0
C110 C 0.27072 0.19316 0.25654 0.0
C111 C 0.31503 0.2689 0.23501 0.0
C112 C 0.24419 0.27123 0.21534 0.0
H113 H 0.44154 0.08936 0.30924 0.0
H114 H 0.47916 0.17422 0.30044 0.0
H115 H 0.44925 0.25016 0.27272 0.0
O116 O 0.07405 0.14099 0.18676 0.0
O117 O 0.09188 0.1996 0.27534 0.0
O118 O 0.04621 0.16621 0.32583 0.0
O119 O 0.18731 0.1088 0.20009 0.0
O120 O 0.9997 0.18006 0.22765 0.0
O121 O 0.91238 0.1932 0.27455 0.0
O122 O 0.85931 0.13208 0.36318 0.0
O123 O 0.9038 0.10712 0.2578 0.0
O124 O 0.02417 0.072 0.24569 0.0
O125 O 0.8708 0.19738 0.33542 0.0
O126 O 0.04824 0.10695 0.3289 0.0
O127 O 0.08782 0.07261 0.27802 0.0
C128 C 0.07729 0.20221 0.30893 0.0
C129 C 0.12797 0.08829 0.14622 0.0
C130 C 0.13122 0.07337 0.08392 0.0
C131 C 0.09784 0.02855 0.09006 0.0
C132 C 0.09601 0.0433 0.15191 0.0
C133 C 0.08068 0.01356 0.1239 0.0
C134 C 0.1459 0.10321 0.11225 0.0
C135 C 0.93841 0.20171 0.24265 0.0
C136 C 0.13911 0.12114 0.17507 0.0
C137 C 0.42057 0.17944 0.28853 0.0
C138 C 0.40354 0.22271 0.27277 0.0
C139 C 0.94551 0.07418 0.24204 0.0
C140 C 0.87338 0.20039 0.39738 0.0
C141 C 0.87666 0.20074 0.46101 0.0
C142 C 0.92367 0.24199 0.4599 0.0
C143 C 0.91891 0.24228 0.39707 0.0
C144 C 0.85152 0.18011 0.42959 0.0
C145 C 0.94406 0.26272 0.42815 0.0
C146 C 0.08803 0.07433 0.31214 0.0
C147 C 0.84949 0.17723 0.36448 0.0
H148 H 0.08585 0.00505 0.06865 0.0
H149 H 0.08266 0.03164 0.17795 0.0
H150 H 0.0553 0.97892 0.12839 0.0
H151 H 0.16967 0.13832 0.10783 0.0
H152 H 0.94351 0.25864 0.4837 0.0
H153 H 0.93586 0.25912 0.37284 0.0
H154 H 0.81601 0.14796 0.43022 0.0
H155 H 0.97958 0.29479 0.42762 0.0
Eu156 Eu 0.3874 0.36661 0.74375 0.0
C157 C 0.76451 0.3874 0.77455 0.0
N158 N 0.71649 0.34922 0.78045 0.0
C159 C 0.82061 0.29827 0.75963 0.0
C160 C 0.84278 0.38232 0.76045 0.0
C161 C 0.74346 0.30498 0.77367 0.0
C162 C 0.87044 0.33707 0.75295 0.0
C163 C 0.78298 0.47215 0.77602 0.0
C164 C 0.73512 0.43186 0.78236 0.0
C165 C 0.86089 0.46717 0.76192 0.0
C166 C 0.89071 0.4224 0.75423 0.0
Eu167 Eu 0.58727 0.36455 0.80371 0.0
N168 N 0.65859 0.43576 0.79513 0.0
C169 C 0.7509 0.5163 0.78386 0.0
C170 C 0.62826 0.47844 0.80413 0.0
C171 C 0.67341 0.5194 0.7982 0.0
H172 H 0.70588 0.2748 0.77942 0.0
H173 H 0.64857 0.55331 0.80478 0.0
H174 H 0.25983 0.45177 0.76775 0.0
H175 H 0.3479 0.17571 0.74471 0.0
H176 H 0.56916 0.48099 0.81575 0.0
H177 H 0.7856 0.54811 0.77921 0.0
H178 H 0.4186 0.25061 0.73273 0.0
H179 H 0.84169 0.26314 0.75412 0.0
H180 H 0.89851 0.49772 0.75686 0.0
H181 H 0.951 0.41917 0.7434 0.0
H182 H 0.12151 0.45871 0.79171 0.0
H183 H 0.93027 0.33172 0.74214 0.0
H184 H 0.21023 0.17618 0.76999 0.0
N185 N 0.25624 0.37718 0.76622 0.0
C186 C 0.21236 0.33738 0.77215 0.0
C187 C 0.14645 0.4244 0.78641 0.0
C188 C 0.13328 0.33971 0.78582 0.0
C189 C 0.22482 0.42037 0.77304 0.0
C190 C 0.10048 0.38392 0.79284 0.0
N191 N 0.32453 0.29279 0.7529 0.0
C192 C 0.35967 0.25119 0.74451 0.0
C193 C 0.20401 0.25211 0.77202 0.0
C194 C 0.24729 0.294 0.76524 0.0
C195 C 0.24131 0.20914 0.765 0.0
C196 C 0.3192 0.20872 0.75087 0.0
H197 H 0.03986 0.38718 0.80328 0.0
H198 H 0.02907 0.29916 0.80289 0.0
H199 H 0.09114 0.22254 0.79102 0.0
O200 O 0.38174 0.3437 0.68968 0.0
O201 O 0.37707 0.33606 0.79849 0.0
O202 O 0.50098 0.30279 0.80685 0.0
O203 O 0.30548 0.40034 0.7069 0.0
O204 O 0.50176 0.33108 0.72388 0.0
O205 O 0.56086 0.29937 0.77252 0.0
O206 O 0.58898 0.38416 0.85854 0.0
O207 O 0.59578 0.40198 0.75084 0.0
O208 O 0.4683 0.43045 0.73964 0.0
O209 O 0.66978 0.33044 0.84007 0.0
O210 O 0.47765 0.40475 0.82341 0.0
O211 O 0.40815 0.4327 0.77536 0.0
C212 C 0.424 0.30605 0.81456 0.0
C213 C 0.3557 0.40373 0.64927 0.0
C214 C 0.36692 0.41133 0.58612 0.0
C215 C 0.40982 0.45372 0.59068 0.0
C216 C 0.39882 0.44599 0.65302 0.0
C217 C 0.42565 0.4708 0.6239 0.0
C218 C 0.33933 0.38655 0.6157 0.0
C219 C 0.55054 0.30093 0.7388 0.0
C220 C 0.3316 0.3765 0.68032 0.0
C221 C 0.08989 0.29802 0.79238 0.0
C222 C 0.12523 0.25437 0.78562 0.0
C223 C 0.54698 0.43169 0.73521 0.0
C224 C 0.6185 0.32247 0.89714 0.0
C225 C 0.61372 0.30963 0.95985 0.0
C226 C 0.56695 0.26893 0.95449 0.0
C227 C 0.57255 0.28141 0.89234 0.0
C228 C 0.6397 0.33626 0.93097 0.0
C229 C 0.54679 0.25488 0.92088 0.0
C230 C 0.42787 0.43452 0.80852 0.0
C231 C 0.64117 0.35207 0.86716 0.0
H232 H 0.43021 0.47406 0.56846 0.0
H233 H 0.41174 0.45973 0.67851 0.0
H234 H 0.45874 0.50345 0.6271 0.0
H235 H 0.30644 0.35378 0.61262 0.0
H236 H 0.54671 0.24777 0.97632 0.0
H237 H 0.55651 0.26997 0.86652 0.0
H238 H 0.67496 0.36805 0.93487 0.0
H239 H 0.51101 0.22337 0.91694 0.0
Eu240 Eu 0.08428 0.86609 0.72814 0.0
C241 C 0.73324 0.83501 0.76244 0.0
N242 N 0.77595 0.87456 0.77019 0.0
C243 C 0.673 0.92182 0.74385 0.0
C244 C 0.66052 0.83727 0.74344 0.0
C245 C 0.74452 0.91777 0.76292 0.0
C246 C 0.63159 0.88137 0.73348 0.0
C247 C 0.7152 0.75081 0.76939 0.0
C248 C 0.75975 0.79237 0.77535 0.0
C249 C 0.64514 0.75252 0.7489 0.0
C250 C 0.61781 0.79568 0.73598 0.0
Eu251 Eu 0.90123 0.86326 0.79919 0.0
N252 N 0.82868 0.79167 0.79437 0.0
C253 C 0.74182 0.70895 0.78468 0.0
C254 C 0.85225 0.75169 0.81119 0.0
C255 C 0.80991 0.70957 0.80614 0.0
H256 H 0.77409 0.9494 0.77188 0.0
H257 H 0.83008 0.67759 0.81859 0.0
H258 H 0.23575 0.81066 0.76741 0.0
H259 H 0.07912 0.0419 0.66948 0.0
H260 H 0.9057 0.75222 0.82733 0.0
H261 H 0.70939 0.67623 0.78064 0.0
H262 H 0.03392 0.96017 0.67802 0.0
H263 H 0.64946 0.95617 0.73746 0.0
H264 H 0.61068 0.72086 0.74357 0.0
H265 H 0.56244 0.79668 0.72101 0.0
H266 H 0.37444 0.82793 0.78781 0.0
H267 H 0.57588 0.88463 0.71893 0.0
H268 H 0.20586 0.06965 0.69678 0.0
N269 N 0.21452 0.88045 0.75019 0.0
C270 C 0.24559 0.92421 0.74499 0.0
C271 C 0.33864 0.85539 0.77605 0.0
C272 C 0.32419 0.93573 0.7564 0.0
C273 C 0.25992 0.84581 0.76478 0.0
C274 C 0.37087 0.90058 0.77195 0.0
N275 N 0.12616 0.94381 0.71443 0.0
C276 C 0.08579 0.97271 0.69217 0.0
C277 C 0.23007 0.00285 0.72162 0.0
C278 C 0.19917 0.95718 0.72749 0.0
C279 C 0.18445 0.0342 0.70174 0.0
C280 C 0.11276 0.01873 0.68638 0.0
H281 H 0.43178 0.90794 0.7808 0.0
H282 H 0.41363 0.99135 0.76072 0.0
H283 H 0.33096 0.05026 0.73055 0.0
O284 O 0.14286 0.87036 0.67732 0.0
O285 O 0.10699 0.8972 0.78203 0.0
O286 O 0.98297 0.9272 0.79699 0.0
O287 O 0.12852 0.80287 0.70243 0.0
O288 O 0.96579 0.90151 0.71344 0.0
O289 O 0.9139 0.92926 0.76529 0.0
O290 O 0.91476 0.84776 0.85442 0.0
O291 O 0.92673 0.80343 0.76203 0.0
O292 O 0.95924 0.84195 0.71227 0.0
O293 O 0.81666 0.89138 0.83775 0.0
O294 O 0.02112 0.83246 0.8157 0.0
O295 O 0.08264 0.8037 0.76568 0.0
C296 C 0.06235 0.92806 0.79858 0.0
C297 C 0.11637 0.80606 0.64084 0.0
C298 C 0.11639 0.80703 0.57729 0.0
C299 C 0.05117 0.7751 0.57759 0.0
C300 C 0.05146 0.77394 0.64046 0.0
C301 C 0.0192 0.75862 0.60898 0.0
C302 C 0.14874 0.82234 0.60913 0.0
C303 C 0.92435 0.93253 0.73132 0.0
C304 C 0.14789 0.82505 0.67385 0.0
C305 C 0.35383 0.98164 0.75168 0.0
C306 C 0.30665 0.01522 0.73457 0.0
C307 C 0.92242 0.80739 0.7283 0.0
C308 C 0.87277 0.90569 0.89335 0.0
C309 C 0.8771 0.92036 0.95584 0.0
C310 C 0.91824 0.9629 0.94924 0.0
C311 C 0.91368 0.94824 0.8874 0.0
C312 C 0.85393 0.89198 0.92761 0.0
C313 C 0.93621 0.9767 0.91523 0.0
C314 C 0.06895 0.8029 0.79951 0.0
C315 C 0.85497 0.8739 0.86425 0.0
H316 H 0.02517 0.76268 0.55348 0.0
H317 H 0.02506 0.76101 0.66441 0.0
H318 H 0.9689 0.73408 0.60893 0.0
H319 H 0.19766 0.84787 0.6093 0.0
H320 H 0.93579 0.98572 0.97043 0.0
H321 H 0.92865 0.95914 0.86123 0.0
H322 H 0.82304 0.85885 0.93233 0.0
H323 H 0.96799 0.00947 0.91044 0.0
Eu324 Eu 0.40712 0.6393 0.22869 0.0
C325 C 0.77194 0.65966 0.2687 0.0
N326 N 0.72238 0.62134 0.26941 0.0
C327 C 0.82474 0.57556 0.24132 0.0
C328 C 0.84927 0.65765 0.2532 0.0
C329 C 0.74935 0.57904 0.25761 0.0
C330 C 0.87452 0.6152 0.23867 0.0
C331 C 0.79992 0.73934 0.28786 0.0
C332 C 0.74769 0.70011 0.28567 0.0
C333 C 0.87554 0.73811 0.27124 0.0
C334 C 0.9001 0.69739 0.2539 0.0
Eu335 Eu 0.59558 0.63148 0.29727 0.0
N336 N 0.67419 0.70037 0.30144 0.0
C337 C 0.77522 0.77819 0.30738 0.0
C338 C 0.65121 0.73707 0.32183 0.0
C339 C 0.70088 0.77682 0.32475 0.0
H340 H 0.71399 0.54748 0.2614 0.0
H341 H 0.68194 0.80627 0.34043 0.0
H342 H 0.26291 0.69276 0.27375 0.0
H343 H 0.40373 0.46521 0.1676 0.0
H344 H 0.59422 0.73561 0.3356 0.0
H345 H 0.81364 0.80899 0.30972 0.0
H346 H 0.45118 0.54617 0.17637 0.0
H347 H 0.84509 0.54208 0.23147 0.0
H348 H 0.91621 0.76806 0.27232 0.0
H349 H 0.9595 0.69653 0.24197 0.0
H350 H 0.12775 0.67448 0.2985 0.0
H351 H 0.93351 0.61219 0.22658 0.0
H352 H 0.28009 0.43688 0.19747 0.0
N353 N 0.28034 0.62388 0.25429 0.0
C354 C 0.24808 0.58047 0.249 0.0
C355 C 0.16124 0.64765 0.28488 0.0
C356 C 0.17161 0.5684 0.26278 0.0
C357 C 0.23765 0.65786 0.27104 0.0
C358 C 0.12828 0.60263 0.28097 0.0
N359 N 0.36364 0.56175 0.21526 0.0
C360 C 0.40098 0.53345 0.19165 0.0
C361 C 0.25989 0.50275 0.22398 0.0
C362 C 0.29195 0.54813 0.22977 0.0
C363 C 0.30256 0.47205 0.20248 0.0
C364 C 0.37258 0.48781 0.18572 0.0
H365 H 0.06917 0.59479 0.29181 0.0
H366 H 0.08272 0.51268 0.26872 0.0
H367 H 0.16005 0.45516 0.23485 0.0
O368 O 0.34567 0.63744 0.1785 0.0
O369 O 0.38477 0.60924 0.28323 0.0
O370 O 0.50505 0.57319 0.28952 0.0
O371 O 0.35475 0.70285 0.20622 0.0
O372 O 0.52263 0.60387 0.20966 0.0
O373 O 0.57424 0.57106 0.2598 0.0
O374 O 0.57637 0.63143 0.35366 0.0
O375 O 0.58617 0.69564 0.26166 0.0
O376 O 0.53214 0.66418 0.21219 0.0
O377 O 0.67663 0.59353 0.33197 0.0
O378 O 0.4841 0.67051 0.31523 0.0
O379 O 0.42222 0.7011 0.26565 0.0
C380 C 0.42966 0.57779 0.29886 0.0
C381 C 0.35121 0.70686 0.14416 0.0
C382 C 0.35398 0.70713 0.08055 0.0
C383 C 0.38173 0.75382 0.08103 0.0
C384 C 0.37836 0.7538 0.14391 0.0
C385 C 0.39319 0.77704 0.11253 0.0
C386 C 0.3379 0.68393 0.11218 0.0
C387 C 0.56762 0.57253 0.22572 0.0
C388 C 0.33308 0.68244 0.17742 0.0
C389 C 0.14095 0.52278 0.258 0.0
C390 C 0.18515 0.48998 0.23881 0.0
C391 C 0.57469 0.69689 0.22783 0.0
C392 C 0.69601 0.62835 0.38694 0.0
C393 C 0.72986 0.6414 0.44781 0.0
C394 C 0.79585 0.66939 0.43743 0.0
C395 C 0.76326 0.6558 0.37714 0.0
C396 C 0.67992 0.62079 0.42246 0.0
C397 C 0.81258 0.67631 0.40227 0.0
C398 C 0.43886 0.70166 0.29919 0.0
C399 C 0.64212 0.60822 0.36029 0.0
H400 H 0.39375 0.77245 0.05697 0.0
H401 H 0.38821 0.77266 0.16793 0.0
H402 H 0.41432 0.81311 0.11262 0.0
H403 H 0.31543 0.64808 0.11182 0.0
H404 H 0.8348 0.68559 0.45662 0.0
H405 H 0.77791 0.66135 0.35009 0.0
H406 H 0.6284 0.59951 0.43034 0.0
H407 H 0.86398 0.69761 0.39445 0.0
C408 C 0.20187 0.00471 0.3805 0.0
C409 C 0.1841 0.95804 0.37122 0.0
C410 C 0.17053 0.0425 0.36124 0.0
C411 C 0.12135 0.03454 0.33205 0.0
H412 H 0.2412 0.01194 0.40231 0.0
H413 H 0.18577 0.07806 0.36885 0.0
S414 S 0.04678 0.91912 0.30106 0.0
N415 N 0.10734 0.90618 0.33364 0.0
N416 N 0.04935 0.97692 0.29745 0.0
C417 C 0.10146 0.9881 0.32334 0.0
C418 C 0.13242 0.94989 0.34303 0.0
C419 C 0.37465 0.55772 0.83638 0.0
C420 C 0.3424 0.55132 0.87003 0.0
C421 C 0.40064 0.51963 0.81648 0.0
C422 C 0.39763 0.47373 0.8297 0.0
H423 H 0.37965 0.59256 0.82514 0.0
H424 H 0.42483 0.52633 0.79082 0.0
S425 S 0.3191 0.43702 0.91587 0.0
N426 N 0.30772 0.49465 0.91527 0.0
N427 N 0.36099 0.42335 0.87829 0.0
C428 C 0.36761 0.46659 0.86347 0.0
C429 C 0.33921 0.50531 0.88356 0.0
C430 C 0.69207 0.50093 0.67718 0.0
C431 C 0.65169 0.54379 0.67263 0.0
C432 C 0.65819 0.46487 0.6977 0.0
C433 C 0.58248 0.47039 0.71402 0.0
H434 H 0.75053 0.49553 0.66514 0.0
H435 H 0.69131 0.43239 0.70061 0.0
S436 S 0.45495 0.57737 0.7108 0.0
N437 N 0.53427 0.5906 0.68648 0.0
N438 N 0.46992 0.52325 0.72478 0.0
C439 C 0.54213 0.51348 0.70964 0.0
C440 C 0.57693 0.55008 0.68901 0.0
C441 C 0.78729 0.01219 0.18587 0.0
C442 C 0.82452 0.96916 0.17844 0.0
C443 C 0.82659 0.04606 0.20656 0.0
C444 C 0.90379 0.03773 0.22075 0.0
H445 H 0.72826 0.01993 0.17525 0.0
H446 H 0.79699 0.07931 0.21085 0.0
S447 S 0.02576 0.92975 0.20785 0.0
N448 N 0.94191 0.91992 0.18589 0.0
N449 N 0.01504 0.98226 0.22523 0.0
C450 C 0.94077 0.99436 0.21334 0.0
C451 C 0.90121 0.9604 0.19214 0.0
C452 C 0.82931 0.00813 0.66111 0.0
C453 C 0.84223 0.05403 0.67351 0.0
C454 C 0.85483 0.96879 0.68025 0.0
C455 C 0.89319 0.97405 0.7126 0.0
H456 H 0.7981 0.00257 0.63675 0.0
H457 H 0.84402 0.93402 0.66982 0.0
S458 S 0.95055 0.08643 0.75434 0.0
N459 N 0.90287 0.10229 0.71859 0.0
N460 N 0.94882 0.02845 0.75464 0.0
C461 C 0.90781 0.01962 0.72487 0.0
C462 C 0.88301 0.05959 0.70528 0.0
C463 C 0.63069 0.44934 0.20237 0.0
C464 C 0.66264 0.45434 0.16861 0.0
C465 C 0.60068 0.48786 0.22056 0.0
C466 C 0.60031 0.5329 0.2056 0.0
H467 H 0.62844 0.41519 0.21487 0.0
H468 H 0.57659 0.48213 0.24644 0.0
S469 S 0.67744 0.56554 0.11832 0.0
N470 N 0.69322 0.50839 0.12119 0.0
N471 N 0.63433 0.58084 0.1553 0.0
C472 C 0.63087 0.5386 0.17178 0.0
C473 C 0.66248 0.49931 0.15328 0.0
C474 C 0.27511 0.51135 0.3545 0.0
C475 C 0.32209 0.47639 0.37036 0.0
C476 C 0.3108 0.54535 0.33265 0.0
C477 C 0.39408 0.54452 0.32477 0.0
H478 H 0.21042 0.51226 0.3589 0.0
H479 H 0.27253 0.57205 0.32159 0.0
S480 S 0.54359 0.46087 0.36138 0.0
N481 N 0.45625 0.44409 0.37828 0.0
N482 N 0.52304 0.50669 0.33667 0.0
C483 C 0.44181 0.51029 0.34139 0.0
C484 C 0.40579 0.47647 0.36416 0.0
C485 C 0.089 0.04411 0.84532 0.0
C486 C 0.16736 0.04119 0.85871 0.0
C487 C 0.05626 0.00731 0.82587 0.0
C488 C 0.10093 0.96644 0.81871 0.0
H489 H 0.05218 0.07465 0.85055 0.0
H490 H 0.99467 0.01077 0.817 0.0
S491 S 0.30761 0.94124 0.85094 0.0
N492 N 0.2881 0.99445 0.8655 0.0
N493 N 0.22689 0.92479 0.82876 0.0
C494 C 0.17968 0.96327 0.83231 0.0
C495 C 0.21279 1.00081 0.85237 0.0
C496 C 0.10709 0.09467 0.98721 0.0
C497 C 0.1847 0.10981 0.97672 0.0
C498 C 0.08988 0.08417 0.02201 0.0
C499 C 0.14935 0.08877 0.04782 0.0
H500 H 0.05964 0.08979 0.96818 0.0
H501 H 0.02981 0.07166 0.02872 0.0
S502 S 0.36148 0.12793 0.03436 0.0
N503 N 0.32119 0.12955 0.99516 0.0
N504 N 0.28837 0.11045 0.06079 0.0
C505 C 0.22632 0.1055 0.038 0.0
C506 C 0.24408 0.11594 1.00242 0.0
C507 C 0.2497 0.37929 0.50458 0.0
C508 C 0.30992 0.38132 0.47872 0.0
C509 C 0.2691 0.38582 0.53983 0.0
C510 C 0.34932 0.39467 0.55027 0.0
H511 H 0.18669 0.3759 0.49731 0.0
H512 H 0.22044 0.38701 0.55868 0.0
S513 S 0.53034 0.39483 0.49316 0.0
N514 N 0.45372 0.38658 0.46639 0.0
N515 N 0.4903 0.39849 0.5324 0.0
C516 C 0.41056 0.39284 0.5249 0.0
C517 C 0.39084 0.38625 0.48918 0.0
C518 C 0.73804 0.33891 0.03994 0.0
C519 C 0.67849 0.34739 0.06527 0.0
C520 C 0.71672 0.32785 1.0056 0.0
C521 C 0.63515 0.32402 0.99567 0.0
H522 H 0.80151 0.34115 0.04669 0.0
H523 H 0.76428 0.32135 0.98686 0.0
S524 S 0.45652 0.34265 0.05222 0.0
N525 N 0.53475 0.35139 0.07805 0.0
N526 N 0.49476 0.32996 1.01372 0.0
C527 C 0.57516 0.33238 0.02076 0.0
C528 C 0.5968 0.34427 0.05551 0.0
C529 C 0.89349 0.1553 0.55373 0.0
C530 C 0.81224 0.15026 0.56404 0.0
C531 C 0.91386 0.17032 0.52002 0.0
C532 C 0.85378 0.1801 0.49522 0.0
H533 H 0.94158 0.14951 0.57228 0.0
H534 H 0.97713 0.1752 0.51348 0.0
S535 S 0.63233 0.16943 0.50859 0.0
N536 N 0.67151 0.1541 0.54636 0.0
N537 N 0.70983 0.18183 0.48292 0.0
C538 C 0.77246 0.17333 0.50478 0.0
C539 C 0.75169 0.15862 0.53922 0.0
C540 C 0.7567 0.88929 0.03726 0.0
C541 C 0.81562 0.89171 0.0635 0.0
C542 C 0.77744 0.89653 1.00218 0.0
C543 C 0.85778 0.90646 0.99224 0.0
H544 H 0.69368 0.884 0.04407 0.0
H545 H 0.7298 0.89649 0.98292 0.0
S546 S 0.03607 0.9082 0.05047 0.0
N547 N 0.95855 0.89903 0.07681 0.0
N548 N 0.99765 0.91234 1.01103 0.0
C549 C 0.91776 0.90598 1.01807 0.0
C550 C 0.89666 0.89868 0.05365 0.0
C551 C 0.73015 0.58729 0.53799 0.0
C552 C 0.70936 0.62564 0.55919 0.0
C553 C 0.73252 0.59175 0.5016 0.0
C554 C 0.71416 0.63465 0.48534 0.0
H555 H 0.74812 0.55428 0.54962 0.0
H556 H 0.75224 0.56216 0.4862 0.0
S557 S 0.64555 0.74348 0.52843 0.0
N558 N 0.66126 0.70627 0.56068 0.0
N559 N 0.66802 0.7147 0.49254 0.0
C560 C 0.68943 0.67239 0.506 0.0
C561 C 0.68636 0.66785 0.54287 0.0
C562 C 0.24499 0.65628 1.00241 0.0
C563 C 0.30802 0.64995 0.97824 0.0
C564 C 0.26072 0.67243 0.03621 0.0
C565 C 0.33984 0.68366 0.04674 0.0
H566 H 0.18289 0.64981 0.99481 0.0
H567 H 0.21037 0.67814 0.05371 0.0
S568 S 0.52613 0.67182 0.9939 0.0
N569 N 0.45278 0.65451 0.96775 0.0
N570 N 0.48201 0.68568 0.03099 0.0
C571 C 0.40349 0.67628 0.0232 0.0
C572 C 0.38768 0.65916 0.98902 0.0
C573 C 0.12321 0.85786 0.48585 0.0
C574 C 0.20584 0.85608 0.47715 0.0
C575 C 0.09517 0.84251 0.51839 0.0
C576 C 0.14867 0.8251 0.54365 0.0
H577 H 0.07942 0.86989 0.46698 0.0
H578 H 0.0309 0.84402 0.52375 0.0
S579 S 0.37123 0.81486 0.53437 0.0
N580 N 0.34129 0.83711 0.49691 0.0
N581 N 0.28848 0.80783 0.55799 0.0
C582 C 0.23168 0.82416 0.53562 0.0
C583 C 0.26023 0.83962 0.50239 0.0
C584 C 0.14235 0.28142 0.38411 0.0
C585 C 0.17393 0.32234 0.3677 0.0
C586 C 0.11142 0.24313 0.36515 0.0
C587 C 0.10634 0.24422 0.32873 0.0
H588 H 0.14095 0.278 0.41201 0.0
H589 H 0.09124 0.21233 0.3794 0.0
S590 S 0.16483 0.34424 0.27184 0.0
N591 N 0.19396 0.36006 0.31088 0.0
N592 N 0.12246 0.29223 0.27715 0.0
C593 C 0.13105 0.2857 0.31191 0.0
C594 C 0.16768 0.32358 0.33079 0.0
C595 C 0.37965 0.18712 0.85517 0.0
C596 C 0.30719 0.19478 0.87339 0.0
C597 C 0.41835 0.22367 0.83707 0.0
C598 C 0.38542 0.2691 0.83619 0.0
H599 H 0.40586 0.15235 0.85444 0.0
H600 H 0.47312 0.21585 0.82279 0.0
S601 S 0.19702 0.30733 0.87997 0.0
N602 N 0.20429 0.25098 0.88984 0.0
N603 N 0.27689 0.31992 0.85576 0.0
C604 C 0.31352 0.27735 0.85473 0.0
C605 C 0.27451 0.24016 0.87342 0.0
C606 C 0.62793 0.18737 0.70111 0.0
C607 C 0.68352 0.20277 0.67558 0.0
C608 C 0.58565 0.21935 0.72179 0.0
C609 C 0.59524 0.26788 0.71688 0.0
H610 H 0.61694 0.15022 0.70524 0.0
H611 H 0.54451 0.206 0.74148 0.0
S612 S 0.73675 0.3272 0.65619 0.0
N613 N 0.75002 0.2706 0.64893 0.0
N614 N 0.6658 0.33042 0.68632 0.0
C615 C 0.6499 0.28405 0.69164 0.0
C616 C 0.69502 0.25158 0.67126 0.0
C617 C 0.87987 0.27986 0.16609 0.0
C618 C 0.81076 0.30323 0.17814 0.0
C619 C 0.921 0.24768 0.18724 0.0
C620 C 0.89483 0.23746 0.22141 0.0
H621 H 0.90296 0.28687 0.14022 0.0
H622 H 0.97383 0.23071 0.17649 0.0
S623 S 0.71452 0.28848 0.26481 0.0
N624 N 0.71545 0.31255 0.22579 0.0
N625 N 0.79433 0.25407 0.26607 0.0
C626 C 0.82561 0.26087 0.23375 0.0
C627 C 0.78323 0.29313 0.21202 0.0
C628 C 0.85339 0.68691 0.69928 0.0
C629 C 0.80109 0.69692 0.67144 0.0
C630 C 0.89254 0.72294 0.7175 0.0
C631 C 0.88183 0.77025 0.70823 0.0
H632 H 0.86485 0.65089 0.70688 0.0
H633 H 0.9322 0.71369 0.73878 0.0
S634 S 0.74622 0.81602 0.63991 0.0
N635 N 0.73609 0.75836 0.63749 0.0
N636 N 0.81265 0.82579 0.67104 0.0
C637 C 0.82959 0.781 0.6808 0.0
C638 C 0.78847 0.74442 0.66258 0.0
C639 C 0.69148 0.8087 0.20564 0.0
C640 C 0.68432 0.81365 0.1692 0.0
C641 C 0.6539 0.77206 0.22394 0.0
C642 C 0.61162 0.736 0.20701 0.0
H643 H 0.72718 0.8329 0.22087 0.0
H644 H 0.65851 0.77229 0.25183 0.0
S645 S 0.5784 0.72772 0.11185 0.0
N646 N 0.62802 0.77766 0.11691 0.0
N647 N 0.56765 0.70557 0.15122 0.0
C648 C 0.60577 0.73883 0.17056 0.0
C649 C 0.64015 0.77794 0.15177 0.0
C650 C 0.3128 0.76083 0.36786 0.0
C651 C 0.33653 0.80833 0.36499 0.0
C652 C 0.34616 0.72645 0.34627 0.0
C653 C 0.40303 0.73852 0.32063 0.0
H654 H 0.2669 0.75019 0.38644 0.0
H655 H 0.32651 0.69026 0.34929 0.0
S656 S 0.49105 0.85626 0.30397 0.0
N657 N 0.42584 0.86455 0.33593 0.0
N658 N 0.4852 0.79985 0.29432 0.0
C659 C 0.42814 0.78539 0.31753 0.0
C660 C 0.39564 0.82035 0.33996 0.0
C661 C 0.13405 0.68696 0.83817 0.0
C662 C 0.18671 0.70082 0.86515 0.0
C663 C 0.09772 0.72014 0.81626 0.0
C664 C 0.11132 0.76832 0.82106 0.0
H665 H 0.12047 0.65015 0.83398 0.0
H666 H 0.05735 0.70812 0.79597 0.0
S667 S 0.24461 0.8237 0.88645 0.0
N668 N 0.25316 0.76678 0.89375 0.0
N669 N 0.17992 0.82879 0.8541 0.0
C670 C 0.16254 0.78288 0.84792 0.0
C671 C 0.20137 0.74925 0.86963 0.0
loop_
_geom_bond_atom_site_label_1
_geom_bond_atom_site_label_2
_geom_bond_distance
_geom_bond_site_symmetry_2
_ccdc_geom_bond_type
H0 C3 0.931 . S
H1 C6 0.928 . S
H2 C8 0.930 . S
C3 H0 0.931 . S
C3 C4 1.413 . S
C3 C5 1.360 . S
C4 C3 1.413 . S
C4 C8 1.429 . S
C5 C3 1.360 . S
C5 C6 1.372 . S
C6 H1 0.928 . S
C6 C5 1.372 . S
C6 C7 1.404 . S
C7 C6 1.404 . S
C7 C8 1.391 . S
C8 H2 0.930 . S
C8 C4 1.429 . S
C8 C7 1.391 . S
H9 C12 0.931 . S
H10 C15 0.928 . S
H11 C17 0.930 . S
C12 H9 0.931 . S
C12 C13 1.413 . S
C12 C14 1.360 . S
C13 C12 1.413 . S
C13 C17 1.429 . S
C14 C12 1.360 . S
C14 C15 1.372 . S
C15 H10 0.928 . S
C15 C14 1.372 . S
C15 C16 1.404 . S
C16 C15 1.404 . S
C16 C17 1.391 . S
C17 H11 0.930 . S
C17 C13 1.429 . S
C17 C16 1.391 . S
H18 C21 0.931 . S
H19 C24 0.928 . S
H20 C26 0.930 . S
C21 H18 0.931 . S
C21 C22 1.413 . S
C21 C23 1.360 . S
C22 C21 1.413 . S
C22 C26 1.429 . S
C23 C21 1.360 . S
C23 C24 1.372 . S
C24 H19 0.928 . S
C24 C23 1.372 . S
C24 C25 1.404 . S
C25 C24 1.404 . S
C25 C26 1.391 . S
C26 H20 0.930 . S
C26 C22 1.429 . S
C26 C25 1.391 . S
H27 C30 0.931 . S
H28 C33 0.928 . S
H29 C35 0.930 . S
C30 H27 0.931 . S
C30 C31 1.413 . S
C30 C32 1.360 . S
C31 C30 1.413 . S
C31 C35 1.429 . S
C32 C30 1.360 . S
C32 C33 1.372 . S
C33 H28 0.928 . S
C33 C32 1.372 . S
C33 C34 1.404 . S
C34 C33 1.404 . S
C34 C35 1.391 . S
C35 H29 0.930 . S
C35 C31 1.429 . S
C35 C34 1.391 . S
H36 C39 0.931 . S
H37 C42 0.928 . S
H38 C44 0.930 . S
C39 H36 0.931 . S
C39 C40 1.413 . S
C39 C41 1.360 . S
C40 C39 1.413 . S
C40 C44 1.429 . S
C41 C39 1.360 . S
C41 C42 1.372 . S
C42 H37 0.928 . S
C42 C41 1.372 . S
C42 C43 1.404 . S
C43 C42 1.404 . S
C43 C44 1.391 . S
C44 H38 0.930 . S
C44 C40 1.429 . S
C44 C43 1.391 . S
H45 C48 0.931 . S
H46 C51 0.928 . S
H47 C53 0.930 . S
C48 H45 0.931 . S
C48 C49 1.413 . S
C48 C50 1.360 . S
C49 C48 1.413 . S
C49 C53 1.429 . S
C50 C48 1.360 . S
C50 C51 1.372 . S
C51 H46 0.928 . S
C51 C50 1.372 . S
C51 C52 1.404 . S
C52 C51 1.404 . S
C52 C53 1.391 . S
C53 H47 0.930 . S
C53 C49 1.429 . S
C53 C52 1.391 . S
H54 C57 0.931 . S
H55 C60 0.928 . S
H56 C62 0.930 . S
C57 H54 0.931 . S
C57 C58 1.413 . S
C57 C59 1.360 . S
C58 C57 1.413 . S
C58 C62 1.429 . S
C59 C57 1.360 . S
C59 C60 1.372 . S
C60 H55 0.928 . S
C60 C59 1.372 . S
C60 C61 1.404 . S
C61 C60 1.404 . S
C61 C62 1.391 . S
C62 H56 0.930 . S
C62 C58 1.429 . S
C62 C61 1.391 . S
H63 C66 0.931 . S
H64 C69 0.928 . S
H65 C71 0.930 . S
C66 H63 0.931 . S
C66 C67 1.413 . S
C66 C68 1.360 . S
C67 C66 1.413 . S
C67 C71 1.429 . S
C68 C66 1.360 . S
C68 C69 1.372 . S
C69 H64 0.928 . S
C69 C68 1.372 . S
C69 C70 1.404 . S
C70 C69 1.404 . S
C70 C71 1.391 . S
C71 H65 0.930 . S
C71 C67 1.429 . S
C71 C70 1.391 . S
Eu72 N101 2.600 . S
Eu72 N107 2.562 . S
Eu72 O116 2.462 . S
Eu72 O117 2.373 . S
Eu72 O119 2.432 . S
Eu72 O120 2.291 1_455 S
Eu72 O124 2.326 1_455 S
Eu72 O127 2.372 . S
Eu72 C136 2.787 . S
C73 N74 1.365 . S
C73 C76 1.405 . S
C73 C80 1.448 . S
N74 C73 1.365 . S
N74 C77 1.319 . S
N74 Eu83 2.600 . S
C75 C77 1.397 . S
C75 C78 1.367 . S
C75 H95 0.931 . S
C76 C73 1.405 . S
C76 C78 1.403 . S
C76 C82 1.439 . S
C77 N74 1.319 . S
C77 C75 1.397 . S
C77 H88 0.930 . S
C78 C75 1.367 . S
C78 C76 1.403 . S
C78 H99 0.929 . S
C79 C80 1.430 . S
C79 C81 1.387 . S
C79 C85 1.404 1_545 S
C80 C73 1.448 . S
C80 C79 1.430 . S
C80 N84 1.351 . S
C81 C79 1.387 . S
C81 C82 1.374 . S
C81 H96 0.931 1_545 S
C82 C76 1.439 . S
C82 C81 1.374 . S
C82 H97 0.931 . S
Eu83 N74 2.600 . S
Eu83 N84 2.562 . S
Eu83 O118 2.335 1_655 S
Eu83 O121 2.372 . S
Eu83 O122 2.462 . S
Eu83 O123 2.373 . S
Eu83 O125 2.432 . S
Eu83 O126 2.291 1_655 S
Eu83 C147 2.787 . S
N84 C80 1.351 . S
N84 Eu83 2.562 . S
N84 C86 1.325 . S
C85 C79 1.404 1_565 S
C85 C87 1.366 . S
C85 H93 0.930 . S
C86 N84 1.325 . S
C86 C87 1.416 1_545 S
C86 H92 0.929 . S
C87 C85 1.366 . S
C87 C86 1.416 1_565 S
C87 H89 0.930 . S
H88 C77 0.930 . S
H89 C87 0.930 . S
H90 C105 0.930 . S
H91 C112 0.930 . S
H92 C86 0.929 . S
H93 C85 0.930 . S
H94 C108 0.929 . S
H95 C75 0.931 . S
H96 C81 0.931 1_565 S
H97 C82 0.931 . S
H98 C103 0.931 . S
H99 C78 0.929 . S
H100 C111 0.930 . S
N101 Eu72 2.600 . S
N101 C102 1.365 . S
N101 C105 1.319 . S
C102 N101 1.365 . S
C102 C104 1.405 . S
C102 C110 1.448 . S
C103 H98 0.931 . S
C103 C105 1.397 . S
C103 C106 1.367 . S
C104 C102 1.405 . S
C104 C106 1.403 . S
C104 C137 1.439 . S
C105 H90 0.930 . S
C105 N101 1.319 . S
C105 C103 1.397 . S
C106 C103 1.367 . S
C106 C104 1.403 . S
C106 H113 0.929 . S
N107 Eu72 2.562 . S
N107 C108 1.325 . S
N107 C110 1.351 . S
C108 H94 0.929 . S
C108 N107 1.325 . S
C108 C112 1.416 . S
C109 C110 1.430 . S
C109 C111 1.404 . S
C109 C138 1.387 . S
C110 C102 1.448 . S
C110 N107 1.351 . S
C110 C109 1.430 . S
C111 H100 0.930 . S
C111 C109 1.404 . S
C111 C112 1.366 . S
C112 H91 0.930 . S
C112 C108 1.416 . S
C112 C111 1.366 . S
H113 C106 0.929 . S
H114 C137 0.931 . S
H115 C138 0.931 . S
O116 Eu72 2.462 . S
O116 C136 1.252 . S
O117 Eu72 2.373 . S
O117 C128 1.249 . S
O118 Eu83 2.335 1_455 S
O118 C128 1.264 . S
O119 Eu72 2.432 . S
O119 C136 1.268 . S
O120 Eu72 2.291 1_655 S
O120 C135 1.255 . S
O121 Eu83 2.372 . S
O121 C135 1.257 . S
O122 Eu83 2.462 . S
O122 C147 1.252 . S
O123 Eu83 2.373 . S
O123 C139 1.249 . S
O124 Eu72 2.326 1_655 S
O124 C139 1.275 . S
O125 Eu83 2.432 . S
O125 C147 1.268 . S
O126 Eu83 2.291 1_455 S
O126 C146 1.255 . S
O127 Eu72 2.372 . S
O127 C146 1.257 . S
C128 O117 1.249 . S
C128 O118 1.264 . S
C129 C132 1.382 . S
C129 C134 1.390 . S
C129 C136 1.506 . S
C130 C131 1.398 . S
C130 C134 1.392 . S
C131 C130 1.398 . S
C131 C133 1.372 . S
C131 H148 0.931 . S
C132 C129 1.382 . S
C132 C133 1.390 . S
C132 H149 0.931 . S
C133 C131 1.372 . S
C133 C132 1.390 . S
C133 H150 0.929 . S
C134 C129 1.390 . S
C134 C130 1.392 . S
C134 H151 0.930 . S
C135 O120 1.255 . S
C135 O121 1.257 . S
C136 Eu72 2.787 . S
C136 O116 1.252 . S
C136 O119 1.268 . S
C136 C129 1.506 . S
C137 C104 1.439 . S
C137 H114 0.931 . S
C137 C138 1.374 . S
C138 C109 1.387 . S
C138 H115 0.931 . S
C138 C137 1.374 . S
C139 O123 1.249 . S
C139 O124 1.275 . S
C140 C143 1.382 . S
C140 C144 1.390 . S
C140 C147 1.506 . S
C141 C142 1.398 . S
C141 C144 1.392 . S
C142 C141 1.398 . S
C142 C145 1.372 . S
C142 H152 0.931 . S
C143 C140 1.382 . S
C143 C145 1.390 . S
C143 H153 0.931 . S
C144 C140 1.390 . S
C144 C141 1.392 . S
C144 H154 0.930 . S
C145 C142 1.372 . S
C145 C143 1.390 . S
C145 H155 0.929 . S
C146 O126 1.255 . S
C146 O127 1.257 . S
C147 Eu83 2.787 . S
C147 O122 1.252 . S
C147 O125 1.268 . S
C147 C140 1.506 . S
H148 C131 0.931 . S
H149 C132 0.931 . S
H150 C133 0.929 . S
H151 C134 0.930 . S
H152 C142 0.931 . S
H153 C143 0.931 . S
H154 C144 0.930 . S
H155 C145 0.929 . S
Eu156 N185 2.600 . S
Eu156 N191 2.562 . S
Eu156 O200 2.462 . S
Eu156 O201 2.373 . S
Eu156 O203 2.432 . S
Eu156 O204 2.291 . S
Eu156 O208 2.335 . S
Eu156 O211 2.372 . S
Eu156 C220 2.787 . S
C157 N158 1.365 . S
C157 C160 1.405 . S
C157 C164 1.448 . S
N158 C157 1.365 . S
N158 C161 1.319 . S
N158 Eu167 2.600 . S
C159 C161 1.397 . S
C159 C162 1.367 . S
C159 H179 0.931 . S
C160 C157 1.405 . S
C160 C162 1.403 . S
C160 C166 1.439 . S
C161 N158 1.319 . S
C161 C159 1.397 . S
C161 H172 0.930 . S
C162 C159 1.367 . S
C162 C160 1.403 . S
C162 H183 0.929 . S
C163 C164 1.430 . S
C163 C165 1.387 . S
C163 C169 1.404 . S
C164 C157 1.448 . S
C164 C163 1.430 . S
C164 N168 1.351 . S
C165 C163 1.387 . S
C165 C166 1.374 . S
C165 H180 0.931 . S
C166 C160 1.439 . S
C166 C165 1.374 . S
C166 H181 0.931 . S
Eu167 N158 2.600 . S
Eu167 N168 2.562 . S
Eu167 O202 2.335 . S
Eu167 O205 2.372 . S
Eu167 O206 2.462 . S
Eu167 O207 2.373 . S
Eu167 O209 2.432 . S
Eu167 O210 2.291 . S
Eu167 C231 2.787 . S
N168 C164 1.351 . S
N168 Eu167 2.562 . S
N168 C170 1.325 . S
C169 C163 1.404 . S
C169 C171 1.366 . S
C169 H177 0.930 . S
C170 N168 1.325 . S
C170 C171 1.416 . S
C170 H176 0.929 . S
C171 C169 1.366 . S
C171 C170 1.416 . S
C171 H173 0.930 . S
H172 C161 0.930 . S
H173 C171 0.930 . S
H174 C189 0.930 . S
H175 C196 0.930 . S
H176 C170 0.929 . S
H177 C169 0.930 . S
H178 C192 0.929 . S
H179 C159 0.931 . S
H180 C165 0.931 . S
H181 C166 0.931 . S
H182 C187 0.931 . S
H183 C162 0.929 . S
H184 C195 0.930 . S
N185 Eu156 2.600 . S
N185 C186 1.365 . S
N185 C189 1.319 . S
C186 N185 1.365 . S
C186 C188 1.405 . S
C186 C194 1.448 . S
C187 H182 0.931 . S
C187 C189 1.397 . S
C187 C190 1.367 . S
C188 C186 1.405 . S
C188 C190 1.403 . S
C188 C221 1.439 . S
C189 H174 0.930 . S
C189 N185 1.319 . S
C189 C187 1.397 . S
C190 C187 1.367 . S
C190 C188 1.403 . S
C190 H197 0.929 . S
N191 Eu156 2.562 . S
N191 C192 1.325 . S
N191 C194 1.351 . S
C192 H178 0.929 . S
C192 N191 1.325 . S
C192 C196 1.416 . S
C193 C194 1.430 . S
C193 C195 1.404 . S
C193 C222 1.387 . S
C194 C186 1.448 . S
C194 N191 1.351 . S
C194 C193 1.430 . S
C195 H184 0.930 . S
C195 C193 1.404 . S
C195 C196 1.366 . S
C196 H175 0.930 . S
C196 C192 1.416 . S
C196 C195 1.366 . S
H197 C190 0.929 . S
H198 C221 0.931 . S
H199 C222 0.931 . S
O200 Eu156 2.462 . S
O200 C220 1.252 . S
O201 Eu156 2.373 . S
O201 C212 1.249 . S
O202 Eu167 2.335 . S
O202 C212 1.264 . S
O203 Eu156 2.432 . S
O203 C220 1.268 . S
O204 Eu156 2.291 . S
O204 C219 1.255 . S
O205 Eu167 2.372 . S
O205 C219 1.257 . S
O206 Eu167 2.462 . S
O206 C231 1.252 . S
O207 Eu167 2.373 . S
O207 C223 1.249 . S
O208 Eu156 2.335 . S
O208 C223 1.264 . S
O209 Eu167 2.432 . S
O209 C231 1.268 . S
O210 Eu167 2.291 . S
O210 C230 1.255 . S
O211 Eu156 2.372 . S
O211 C230 1.257 . S
C212 O201 1.249 . S
C212 O202 1.264 . S
C213 C216 1.382 . S
C213 C218 1.390 . S
C213 C220 1.506 . S
C214 C215 1.398 . S
C214 C218 1.392 . S
C215 C214 1.398 . S
C215 C217 1.372 . S
C215 H232 0.931 . S
C216 C213 1.382 . S
C216 C217 1.390 . S
C216 H233 0.931 . S
C217 C215 1.372 . S
C217 C216 1.390 . S
C217 H234 0.929 . S
C218 C213 1.390 . S
C218 C214 1.392 . S
C218 H235 0.930 . S
C219 O204 1.255 . S
C219 O205 1.257 . S
C220 Eu156 2.787 . S
C220 O200 1.252 . S
C220 O203 1.268 . S
C220 C213 1.506 . S
C221 C188 1.439 . S
C221 H198 0.931 . S
C221 C222 1.374 . S
C222 C193 1.387 . S
C222 H199 0.931 . S
C222 C221 1.374 . S
C223 O207 1.249 . S
C223 O208 1.264 . S
C224 C227 1.382 . S
C224 C228 1.390 . S
C224 C231 1.506 . S
C225 C226 1.398 . S
C225 C228 1.392 . S
C226 C225 1.398 . S
C226 C229 1.372 . S
C226 H236 0.931 . S
C227 C224 1.382 . S
C227 C229 1.390 . S
C227 H237 0.931 . S
C228 C224 1.390 . S
C228 C225 1.392 . S
C228 H238 0.930 . S
C229 C226 1.372 . S
C229 C227 1.390 . S
C229 H239 0.929 . S
C230 O210 1.255 . S
C230 O211 1.257 . S
C231 Eu167 2.787 . S
C231 O206 1.252 . S
C231 O209 1.268 . S
C231 C224 1.506 . S
H232 C215 0.931 . S
H233 C216 0.931 . S
H234 C217 0.929 . S
H235 C218 0.930 . S
H236 C226 0.931 . S
H237 C227 0.931 . S
H238 C228 0.930 . S
H239 C229 0.929 . S
Eu240 N269 2.600 . S
Eu240 N275 2.562 . S
Eu240 O284 2.462 . S
Eu240 O285 2.373 . S
Eu240 O287 2.432 . S
Eu240 O288 2.291 . S
Eu240 O292 2.335 . S
Eu240 O295 2.372 . S
Eu240 C304 2.787 . S
C241 N242 1.365 . S
C241 C244 1.405 . S
C241 C248 1.448 . S
N242 C241 1.365 . S
N242 C245 1.319 . S
N242 Eu251 2.600 . S
C243 C245 1.397 . S
C243 C246 1.367 . S
C243 H263 0.931 . S
C244 C241 1.405 . S
C244 C246 1.403 . S
C244 C250 1.439 . S
C245 N242 1.319 . S
C245 C243 1.397 . S
C245 H256 0.930 . S
C246 C243 1.367 . S
C246 C244 1.403 . S
C246 H267 0.929 . S
C247 C248 1.430 . S
C247 C249 1.387 . S
C247 C253 1.404 . S
C248 C241 1.448 . S
C248 C247 1.430 . S
C248 N252 1.351 . S
C249 C247 1.387 . S
C249 C250 1.374 . S
C249 H264 0.931 . S
C250 C244 1.439 . S
C250 C249 1.374 . S
C250 H265 0.931 . S
Eu251 N242 2.600 . S
Eu251 N252 2.562 . S
Eu251 O286 2.335 1_655 S
Eu251 O289 2.372 . S
Eu251 O290 2.462 . S
Eu251 O291 2.373 . S
Eu251 O293 2.432 . S
Eu251 O294 2.291 1_655 S
Eu251 C315 2.787 . S
N252 C248 1.351 . S
N252 Eu251 2.562 . S
N252 C254 1.325 . S
C253 C247 1.404 . S
C253 C255 1.366 . S
C253 H261 0.930 . S
C254 N252 1.325 . S
C254 C255 1.416 . S
C254 H260 0.929 . S
C255 C253 1.366 . S
C255 C254 1.416 . S
C255 H257 0.930 . S
H256 C245 0.930 . S
H257 C255 0.930 . S
H258 C273 0.930 . S
H259 C280 0.930 . S
H260 C254 0.929 . S
H261 C253 0.930 . S
H262 C276 0.929 . S
H263 C243 0.931 . S
H264 C249 0.931 . S
H265 C250 0.931 . S
H266 C271 0.931 . S
H267 C246 0.929 . S
H268 C279 0.930 . S
N269 Eu240 2.600 . S
N269 C270 1.365 . S
N269 C273 1.319 . S
C270 N269 1.365 . S
C270 C272 1.405 . S
C270 C278 1.448 . S
C271 H266 0.931 . S
C271 C273 1.397 . S
C271 C274 1.367 . S
C272 C270 1.405 . S
C272 C274 1.403 . S
C272 C305 1.439 . S
C273 H258 0.930 . S
C273 N269 1.319 . S
C273 C271 1.397 . S
C274 C271 1.367 . S
C274 C272 1.403 . S
C274 H281 0.929 . S
N275 Eu240 2.562 . S
N275 C276 1.325 . S
N275 C278 1.351 . S
C276 H262 0.929 . S
C276 N275 1.325 . S
C276 C280 1.416 1_565 S
C277 C278 1.430 . S
C277 C279 1.404 1_565 S
C277 C306 1.387 . S
C278 C270 1.448 . S
C278 N275 1.351 . S
C278 C277 1.430 . S
C279 H268 0.930 . S
C279 C277 1.404 1_545 S
C279 C280 1.366 . S
C280 H259 0.930 . S
C280 C276 1.416 1_545 S
C280 C279 1.366 . S
H281 C274 0.929 . S
H282 C305 0.931 . S
H283 C306 0.931 1_545 S
O284 Eu240 2.462 . S
O284 C304 1.252 . S
O285 Eu240 2.373 . S
O285 C296 1.249 . S
O286 Eu251 2.335 1_455 S
O286 C296 1.264 . S
O287 Eu240 2.432 . S
O287 C304 1.268 . S
O288 Eu240 2.291 . S
O288 C303 1.255 1_455 S
O289 Eu251 2.372 . S
O289 C303 1.257 . S
O290 Eu251 2.462 . S
O290 C315 1.252 . S
O291 Eu251 2.373 . S
O291 C307 1.249 . S
O292 Eu240 2.335 . S
O292 C307 1.264 1_455 S
O293 Eu251 2.432 . S
O293 C315 1.268 . S
O294 Eu251 2.291 1_455 S
O294 C314 1.255 . S
O295 Eu240 2.372 . S
O295 C314 1.257 . S
C296 O285 1.249 . S
C296 O286 1.264 . S
C297 C300 1.382 . S
C297 C302 1.390 . S
C297 C304 1.506 . S
C298 C299 1.398 . S
C298 C302 1.392 . S
C299 C298 1.398 . S
C299 C301 1.372 . S
C299 H316 0.931 . S
C300 C297 1.382 . S
C300 C301 1.390 . S
C300 H317 0.931 . S
C301 C299 1.372 . S
C301 C300 1.390 . S
C301 H318 0.929 . S
C302 C297 1.390 . S
C302 C298 1.392 . S
C302 H319 0.930 . S
C303 O288 1.255 1_655 S
C303 O289 1.257 . S
C304 Eu240 2.787 . S
C304 O284 1.252 . S
C304 O287 1.268 . S
C304 C297 1.506 . S
C305 C272 1.439 . S
C305 H282 0.931 . S
C305 C306 1.374 . S
C306 C277 1.387 . S
C306 H283 0.931 1_565 S
C306 C305 1.374 . S
C307 O291 1.249 . S
C307 O292 1.264 1_655 S
C308 C311 1.382 . S
C308 C312 1.390 . S
C308 C315 1.506 . S
C309 C310 1.398 . S
C309 C312 1.392 . S
C310 C309 1.398 . S
C310 C313 1.372 . S
C310 H320 0.931 . S
C311 C308 1.382 . S
C311 C313 1.390 . S
C311 H321 0.931 . S
C312 C308 1.390 . S
C312 C309 1.392 . S
C312 H322 0.930 . S
C313 C310 1.372 . S
C313 C311 1.390 . S
C313 H323 0.929 . S
C314 O294 1.255 . S
C314 O295 1.257 . S
C315 Eu251 2.787 . S
C315 O290 1.252 . S
C315 O293 1.268 . S
C315 C308 1.506 . S
H316 C299 0.931 . S
H317 C300 0.931 . S
H318 C301 0.929 . S
H319 C302 0.930 . S
H320 C310 0.931 . S
H321 C311 0.931 . S
H322 C312 0.930 . S
H323 C313 0.929 . S
Eu324 N353 2.600 . S
Eu324 N359 2.562 . S
Eu324 O368 2.462 . S
Eu324 O369 2.373 . S
Eu324 O371 2.432 . S
Eu324 O372 2.291 . S
Eu324 O376 2.335 . S
Eu324 O379 2.372 . S
Eu324 C388 2.787 . S
C325 N326 1.365 . S
C325 C328 1.405 . S
C325 C332 1.448 . S
N326 C325 1.365 . S
N326 C329 1.319 . S
N326 Eu335 2.600 . S
C327 C329 1.397 . S
C327 C330 1.367 . S
C327 H347 0.931 . S
C328 C325 1.405 . S
C328 C330 1.403 . S
C328 C334 1.439 . S
C329 N326 1.319 . S
C329 C327 1.397 . S
C329 H340 0.930 . S
C330 C327 1.367 . S
C330 C328 1.403 . S
C330 H351 0.929 . S
C331 C332 1.430 . S
C331 C333 1.387 . S
C331 C337 1.404 . S
C332 C325 1.448 . S
C332 C331 1.430 . S
C332 N336 1.351 . S
C333 C331 1.387 . S
C333 C334 1.374 . S
C333 H348 0.931 . S
C334 C328 1.439 . S
C334 C333 1.374 . S
C334 H349 0.931 . S
Eu335 N326 2.600 . S
Eu335 N336 2.562 . S
Eu335 O370 2.335 . S
Eu335 O373 2.372 . S
Eu335 O374 2.462 . S
Eu335 O375 2.373 . S
Eu335 O377 2.432 . S
Eu335 O378 2.291 . S
Eu335 C399 2.787 . S
N336 C332 1.351 . S
N336 Eu335 2.562 . S
N336 C338 1.325 . S
C337 C331 1.404 . S
C337 C339 1.366 . S
C337 H345 0.930 . S
C338 N336 1.325 . S
C338 C339 1.416 . S
C338 H344 0.929 . S
C339 C337 1.366 . S
C339 C338 1.416 . S
C339 H341 0.930 . S
H340 C329 0.930 . S
H341 C339 0.930 . S
H342 C357 0.930 . S
H343 C364 0.930 . S
H344 C338 0.929 . S
H345 C337 0.930 . S
H346 C360 0.929 . S
H347 C327 0.931 . S
H348 C333 0.931 . S
H349 C334 0.931 . S
H350 C355 0.931 . S
H351 C330 0.929 . S
H352 C363 0.930 . S
N353 Eu324 2.600 . S
N353 C354 1.365 . S
N353 C357 1.319 . S
C354 N353 1.365 . S
C354 C356 1.405 . S
C354 C362 1.448 . S
C355 H350 0.931 . S
C355 C357 1.397 . S
C355 C358 1.367 . S
C356 C354 1.405 . S
C356 C358 1.403 . S
C356 C389 1.439 . S
C357 H342 0.930 . S
C357 N353 1.319 . S
C357 C355 1.397 . S
C358 C355 1.367 . S
C358 C356 1.403 . S
C358 H365 0.929 . S
N359 Eu324 2.562 . S
N359 C360 1.325 . S
N359 C362 1.351 . S
C360 H346 0.929 . S
C360 N359 1.325 . S
C360 C364 1.416 . S
C361 C362 1.430 . S
C361 C363 1.404 . S
C361 C390 1.387 . S
C362 C354 1.448 . S
C362 N359 1.351 . S
C362 C361 1.430 . S
C363 H352 0.930 . S
C363 C361 1.404 . S
C363 C364 1.366 . S
C364 H343 0.930 . S
C364 C360 1.416 . S
C364 C363 1.366 . S
H365 C358 0.929 . S
H366 C389 0.931 . S
H367 C390 0.931 . S
O368 Eu324 2.462 . S
O368 C388 1.252 . S
O369 Eu324 2.373 . S
O369 C380 1.249 . S
O370 Eu335 2.335 . S
O370 C380 1.264 . S
O371 Eu324 2.432 . S
O371 C388 1.268 . S
O372 Eu324 2.291 . S
O372 C387 1.255 . S
O373 Eu335 2.372 . S
O373 C387 1.257 . S
O374 Eu335 2.462 . S
O374 C399 1.252 . S
O375 Eu335 2.373 . S
O375 C391 1.249 . S
O376 Eu324 2.335 . S
O376 C391 1.264 . S
O377 Eu335 2.432 . S
O377 C399 1.268 . S
O378 Eu335 2.291 . S
O378 C398 1.255 . S
O379 Eu324 2.372 . S
O379 C398 1.257 . S
C380 O369 1.249 . S
C380 O370 1.264 . S
C381 C384 1.382 . S
C381 C386 1.390 . S
C381 C388 1.506 . S
C382 C383 1.398 . S
C382 C386 1.392 . S
C383 C382 1.398 . S
C383 C385 1.372 . S
C383 H400 0.931 . S
C384 C381 1.382 . S
C384 C385 1.390 . S
C384 H401 0.931 . S
C385 C383 1.372 . S
C385 C384 1.390 . S
C385 H402 0.929 . S
C386 C381 1.390 . S
C386 C382 1.392 . S
C386 H403 0.930 . S
C387 O372 1.255 . S
C387 O373 1.257 . S
C388 Eu324 2.787 . S
C388 O368 1.252 . S
C388 O371 1.268 . S
C388 C381 1.506 . S
C389 C356 1.439 . S
C389 H366 0.931 . S
C389 C390 1.374 . S
C390 C361 1.387 . S
C390 H367 0.931 . S
C390 C389 1.374 . S
C391 O375 1.249 . S
C391 O376 1.264 . S
C392 C395 1.382 . S
C392 C396 1.390 . S
C392 C399 1.506 . S
C393 C394 1.398 . S
C393 C396 1.392 . S
C394 C393 1.398 . S
C394 C397 1.372 . S
C394 H404 0.931 . S
C395 C392 1.382 . S
C395 C397 1.390 . S
C395 H405 0.931 . S
C396 C392 1.390 . S
C396 C393 1.392 . S
C396 H406 0.930 . S
C397 C394 1.372 . S
C397 C395 1.390 . S
C397 H407 0.929 . S
C398 O378 1.255 . S
C398 O379 1.257 . S
C399 Eu335 2.787 . S
C399 O374 1.252 . S
C399 O377 1.268 . S
C399 C392 1.506 . S
H400 C383 0.931 . S
H401 C384 0.931 . S
H402 C385 0.929 . S
H403 C386 0.930 . S
H404 C394 0.931 . S
H405 C395 0.931 . S
H406 C396 0.930 . S
H407 C397 0.929 . S
C408 C409 1.369 1_545 S
C408 C410 1.419 . S
C408 H412 0.930 . S
C409 C408 1.369 1_565 S
C409 C418 1.429 . S
C410 C408 1.419 . S
C410 C411 1.363 . S
C410 H413 0.929 . S
C411 C410 1.363 . S
C411 C417 1.428 1_545 S
H412 C408 0.930 . S
H413 C410 0.929 . S
S414 N415 1.613 . S
S414 N416 1.610 . S
N415 S414 1.613 . S
N415 C418 1.350 . S
N416 S414 1.610 . S
N416 C417 1.351 . S
C417 C411 1.428 1_565 S
C417 N416 1.351 . S
C417 C418 1.434 . S
C418 C409 1.429 . S
C418 N415 1.350 . S
C418 C417 1.434 . S
C419 C420 1.369 . S
C419 C421 1.419 . S
C419 H423 0.930 . S
C420 C419 1.369 . S
C420 C429 1.429 . S
C421 C419 1.419 . S
C421 C422 1.363 . S
C421 H424 0.929 . S
C422 C421 1.363 . S
C422 C428 1.428 . S
H423 C419 0.930 . S
H424 C421 0.929 . S
S425 N426 1.613 . S
S425 N427 1.610 . S
N426 S425 1.613 . S
N426 C429 1.350 . S
N427 S425 1.610 . S
N427 C428 1.351 . S
C428 C422 1.428 . S
C428 N427 1.351 . S
C428 C429 1.434 . S
C429 C420 1.429 . S
C429 N426 1.350 . S
C429 C428 1.434 . S
C430 C431 1.369 . S
C430 C432 1.419 . S
C430 H434 0.930 . S
C431 C430 1.369 . S
C431 C440 1.429 . S
C432 C430 1.419 . S
C432 C433 1.363 . S
C432 H435 0.929 . S
C433 C432 1.363 . S
C433 C439 1.428 . S
H434 C430 0.930 . S
H435 C432 0.929 . S
S436 N437 1.613 . S
S436 N438 1.610 . S
N437 S436 1.613 . S
N437 C440 1.350 . S
N438 S436 1.610 . S
N438 C439 1.351 . S
C439 C433 1.428 . S
C439 N438 1.351 . S
C439 C440 1.434 . S
C440 C431 1.429 . S
C440 N437 1.350 . S
C440 C439 1.434 . S
C441 C442 1.369 . S
C441 C443 1.419 1_565 S
C441 H445 0.930 . S
C442 C441 1.369 . S
C442 C451 1.429 . S
C443 C441 1.419 1_545 S
C443 C444 1.363 . S
C443 H446 0.929 . S
C444 C443 1.363 . S
C444 C450 1.428 . S
H445 C441 0.930 . S
H446 C443 0.929 . S
S447 N448 1.613 1_455 S
S447 N449 1.610 1_565 S
N448 S447 1.613 1_655 S
N448 C451 1.350 . S
N449 S447 1.610 1_545 S
N449 C450 1.351 1_455 S
C450 C444 1.428 . S
C450 N449 1.351 1_655 S
C450 C451 1.434 1_545 S
C451 C442 1.429 . S
C451 N448 1.350 . S
C451 C450 1.434 1_565 S
C452 C453 1.367 1_565 S
C452 C454 1.420 . S
C452 H456 0.930 . S
C453 C452 1.367 1_545 S
C453 C462 1.429 . S
C454 C452 1.420 . S
C454 C455 1.363 . S
C454 H457 0.929 . S
C455 C454 1.363 . S
C455 C461 1.428 1_565 S
H456 C452 0.930 . S
H457 C454 0.929 . S
S458 N459 1.613 1_455 S
S458 N460 1.610 . S
N459 S458 1.613 1_655 S
N459 C462 1.350 . S
N460 S458 1.610 . S
N460 C461 1.351 1_455 S
C461 C455 1.428 1_545 S
C461 N460 1.351 1_655 S
C461 C462 1.434 . S
C462 C453 1.429 . S
C462 N459 1.350 . S
C462 C461 1.434 . S
C463 C464 1.369 . S
C463 C465 1.419 . S
C463 H467 0.930 . S
C464 C463 1.369 . S
C464 C473 1.429 . S
C465 C463 1.419 . S
C465 C466 1.363 . S
C465 H468 0.929 . S
C466 C465 1.363 . S
C466 C472 1.428 . S
H467 C463 0.930 . S
H468 C465 0.929 . S
S469 N470 1.613 . S
S469 N471 1.610 . S
N470 S469 1.613 . S
N470 C473 1.350 . S
N471 S469 1.610 . S
N471 C472 1.351 . S
C472 C466 1.428 . S
C472 N471 1.351 . S
C472 C473 1.434 . S
C473 C464 1.429 . S
C473 N470 1.350 . S
C473 C472 1.434 . S
C474 C475 1.369 . S
C474 C476 1.419 . S
C474 H478 0.930 . S
C475 C474 1.369 . S
C475 C484 1.429 . S
C476 C474 1.419 . S
C476 C477 1.363 . S
C476 H479 0.929 . S
C477 C476 1.363 . S
C477 C483 1.428 . S
H478 C474 0.930 . S
H479 C476 0.929 . S
S480 N481 1.613 . S
S480 N482 1.610 . S
N481 S480 1.613 . S
N481 C484 1.350 . S
N482 S480 1.610 . S
N482 C483 1.351 . S
C483 C477 1.428 . S
C483 N482 1.351 . S
C483 C484 1.434 . S
C484 C475 1.429 . S
C484 N481 1.350 . S
C484 C483 1.434 . S
C485 C486 1.369 . S
C485 C487 1.419 1_545 S
C485 H489 0.930 . S
C486 C485 1.369 . S
C486 C495 1.429 . S
C487 C485 1.419 1_565 S
C487 C488 1.363 . S
C487 H490 0.929 . S
C488 C487 1.363 . S
C488 C494 1.428 . S
H489 C485 0.930 . S
H490 C487 0.929 . S
S491 N492 1.613 1_565 S
S491 N493 1.610 . S
N492 S491 1.613 1_545 S
N492 C495 1.350 . S
N493 S491 1.610 . S
N493 C494 1.351 . S
C494 C488 1.428 . S
C494 N493 1.351 . S
C494 C495 1.434 1_565 S
C495 C486 1.429 . S
C495 N492 1.350 . S
C495 C494 1.434 1_545 S
C496 C497 1.369 . S
C496 C498 1.443 . S
C496 H500 0.930 . S
C497 C496 1.369 . S
C497 C506 1.429 . S
C498 C496 1.443 . S
C498 C499 1.343 1_556 S
C498 H501 0.925 1_556 S
C499 C498 1.343 1_554 S
C499 C505 1.428 . S
H500 C496 0.930 . S
H501 C498 0.925 1_554 S
S502 N503 1.613 1_554 S
S502 N504 1.610 . S
N503 S502 1.613 1_556 S
N503 C506 1.350 . S
N504 S502 1.610 . S
N504 C505 1.351 . S
C505 C499 1.428 . S
C505 N504 1.351 . S
C505 C506 1.434 1_554 S
C506 C497 1.429 . S
C506 N503 1.350 . S
C506 C505 1.434 1_556 S
C507 C508 1.369 . S
C507 C509 1.419 . S
C507 H511 0.930 . S
C508 C507 1.369 . S
C508 C517 1.429 . S
C509 C507 1.419 . S
C509 C510 1.363 . S
C509 H512 0.929 . S
C510 C509 1.363 . S
C510 C516 1.428 . S
H511 C507 0.930 . S
H512 C509 0.929 . S
S513 N514 1.613 . S
S513 N515 1.610 . S
N514 S513 1.613 . S
N514 C517 1.350 . S
N515 S513 1.610 . S
N515 C516 1.351 . S
C516 C510 1.428 . S
C516 N515 1.351 . S
C516 C517 1.434 . S
C517 C508 1.429 . S
C517 N514 1.350 . S
C517 C516 1.434 . S
C518 C519 1.369 . S
C518 C520 1.419 1_554 S
C518 H522 0.930 . S
C519 C518 1.369 . S
C519 C528 1.429 . S
C520 C518 1.419 1_556 S
C520 C521 1.363 . S
C520 H523 0.929 . S
C521 C520 1.363 . S
C521 C527 1.428 1_556 S
H522 C518 0.930 . S
H523 C520 0.929 . S
S524 N525 1.613 . S
S524 N526 1.610 1_554 S
N525 S524 1.613 . S
N525 C528 1.350 . S
N526 S524 1.610 1_556 S
N526 C527 1.351 1_556 S
C527 C521 1.428 1_554 S
C527 N526 1.351 1_554 S
C527 C528 1.434 . S
C528 C519 1.429 . S
C528 N525 1.350 . S
C528 C527 1.434 . S
C529 C530 1.369 . S
C529 C531 1.419 . S
C529 H533 0.930 . S
C530 C529 1.369 . S
C530 C539 1.429 . S
C531 C529 1.419 . S
C531 C532 1.363 . S
C531 H534 0.929 . S
C532 C531 1.363 . S
C532 C538 1.428 . S
H533 C529 0.930 . S
H534 C531 0.929 . S
S535 N536 1.613 . S
S535 N537 1.610 . S
N536 S535 1.613 . S
N536 C539 1.350 . S
N537 S535 1.610 . S
N537 C538 1.351 . S
C538 C532 1.428 . S
C538 N537 1.351 . S
C538 C539 1.434 . S
C539 C530 1.429 . S
C539 N536 1.350 . S
C539 C538 1.434 . S
C540 C541 1.369 . S
C540 C542 1.419 1_554 S
C540 H544 0.930 . S
C541 C540 1.369 . S
C541 C550 1.429 . S
C542 C540 1.419 1_556 S
C542 C543 1.363 . S
C542 H545 0.929 . S
C543 C542 1.363 . S
C543 C549 1.428 . S
H544 C540 0.930 . S
H545 C542 0.929 . S
S546 N547 1.613 . S
S546 N548 1.610 1_554 S
N547 S546 1.613 . S
N547 C550 1.350 . S
N548 S546 1.610 1_556 S
N548 C549 1.351 . S
C549 C543 1.428 . S
C549 N548 1.351 . S
C549 C550 1.434 1_556 S
C550 C541 1.429 . S
C550 N547 1.350 . S
C550 C549 1.434 1_554 S
C551 C552 1.369 . S
C551 C553 1.419 . S
C551 H555 0.930 . S
C552 C551 1.369 . S
C552 C561 1.429 . S
C553 C551 1.419 . S
C553 C554 1.363 . S
C553 H556 0.929 . S
C554 C553 1.363 . S
C554 C560 1.428 . S
H555 C551 0.930 . S
H556 C553 0.929 . S
S557 N558 1.613 . S
S557 N559 1.610 . S
N558 S557 1.613 . S
N558 C561 1.350 . S
N559 S557 1.610 . S
N559 C560 1.351 . S
C560 C554 1.428 . S
C560 N559 1.351 . S
C560 C561 1.434 . S
C561 C552 1.429 . S
C561 N558 1.350 . S
C561 C560 1.434 . S
C562 C563 1.369 . S
C562 C564 1.419 1_556 S
C562 H566 0.930 . S
C563 C562 1.369 . S
C563 C572 1.429 . S
C564 C562 1.419 1_554 S
C564 C565 1.363 . S
C564 H567 0.929 . S
C565 C564 1.363 . S
C565 C571 1.428 . S
H566 C562 0.930 . S
H567 C564 0.929 . S
S568 N569 1.613 . S
S568 N570 1.610 1_556 S
N569 S568 1.613 . S
N569 C572 1.350 . S
N570 S568 1.610 1_554 S
N570 C571 1.351 . S
C571 C565 1.428 . S
C571 N570 1.351 . S
C571 C572 1.434 1_554 S
C572 C563 1.429 . S
C572 N569 1.350 . S
C572 C571 1.434 1_556 S
C573 C574 1.369 . S
C573 C575 1.419 . S
C573 H577 0.930 . S
C574 C573 1.369 . S
C574 C583 1.429 . S
C575 C573 1.419 . S
C575 C576 1.363 . S
C575 H578 0.929 . S
C576 C575 1.363 . S
C576 C582 1.428 . S
H577 C573 0.930 . S
H578 C575 0.929 . S
S579 N580 1.613 . S
S579 N581 1.610 . S
N580 S579 1.613 . S
N580 C583 1.350 . S
N581 S579 1.610 . S
N581 C582 1.351 . S
C582 C576 1.428 . S
C582 N581 1.351 . S
C582 C583 1.434 . S
C583 C574 1.429 . S
C583 N580 1.350 . S
C583 C582 1.434 . S
C584 C585 1.369 . S
C584 C586 1.419 . S
C584 H588 0.930 . S
C585 C584 1.369 . S
C585 C594 1.429 . S
C586 C584 1.419 . S
C586 C587 1.363 . S
C586 H589 0.929 . S
C587 C586 1.363 . S
C587 C593 1.428 . S
H588 C584 0.930 . S
H589 C586 0.929 . S
S590 N591 1.613 . S
S590 N592 1.610 . S
N591 S590 1.613 . S
N591 C594 1.350 . S
N592 S590 1.610 . S
N592 C593 1.351 . S
C593 C587 1.428 . S
C593 N592 1.351 . S
C593 C594 1.434 . S
C594 C585 1.429 . S
C594 N591 1.350 . S
C594 C593 1.434 . S
C595 C596 1.369 . S
C595 C597 1.419 . S
C595 H599 0.930 . S
C596 C595 1.369 . S
C596 C605 1.429 . S
C597 C595 1.419 . S
C597 C598 1.363 . S
C597 H600 0.929 . S
C598 C597 1.363 . S
C598 C604 1.428 . S
H599 C595 0.930 . S
H600 C597 0.929 . S
S601 N602 1.613 . S
S601 N603 1.610 . S
N602 S601 1.613 . S
N602 C605 1.350 . S
N603 S601 1.610 . S
N603 C604 1.351 . S
C604 C598 1.428 . S
C604 N603 1.351 . S
C604 C605 1.434 . S
C605 C596 1.429 . S
C605 N602 1.350 . S
C605 C604 1.434 . S
C606 C607 1.369 . S
C606 C608 1.419 . S
C606 H610 0.930 . S
C607 C606 1.369 . S
C607 C616 1.429 . S
C608 C606 1.419 . S
C608 C609 1.363 . S
C608 H611 0.929 . S
C609 C608 1.363 . S
C609 C615 1.428 . S
H610 C606 0.930 . S
H611 C608 0.929 . S
S612 N613 1.613 . S
S612 N614 1.610 . S
N613 S612 1.613 . S
N613 C616 1.350 . S
N614 S612 1.610 . S
N614 C615 1.351 . S
C615 C609 1.428 . S
C615 N614 1.351 . S
C615 C616 1.434 . S
C616 C607 1.429 . S
C616 N613 1.350 . S
C616 C615 1.434 . S
C617 C618 1.369 . S
C617 C619 1.419 . S
C617 H621 0.930 . S
C618 C617 1.369 . S
C618 C627 1.429 . S
C619 C617 1.419 . S
C619 C620 1.363 . S
C619 H622 0.929 . S
C620 C619 1.363 . S
C620 C626 1.428 . S
H621 C617 0.930 . S
H622 C619 0.929 . S
S623 N624 1.613 . S
S623 N625 1.610 . S
N624 S623 1.613 . S
N624 C627 1.350 . S
N625 S623 1.610 . S
N625 C626 1.351 . S
C626 C620 1.428 . S
C626 N625 1.351 . S
C626 C627 1.434 . S
C627 C618 1.429 . S
C627 N624 1.350 . S
C627 C626 1.434 . S
C628 C629 1.369 . S
C628 C630 1.419 . S
C628 H632 0.930 . S
C629 C628 1.369 . S
C629 C638 1.429 . S
C630 C628 1.419 . S
C630 C631 1.363 . S
C630 H633 0.929 . S
C631 C630 1.363 . S
C631 C637 1.428 . S
H632 C628 0.930 . S
H633 C630 0.929 . S
S634 N635 1.613 . S
S634 N636 1.610 . S
N635 S634 1.613 . S
N635 C638 1.350 . S
N636 S634 1.610 . S
N636 C637 1.351 . S
C637 C631 1.428 . S
C637 N636 1.351 . S
C637 C638 1.434 . S
C638 C629 1.429 . S
C638 N635 1.350 . S
C638 C637 1.434 . S
C639 C640 1.369 . S
C639 C641 1.419 . S
C639 H643 0.930 . S
C640 C639 1.369 . S
C640 C649 1.429 . S
C641 C639 1.419 . S
C641 C642 1.363 . S
C641 H644 0.929 . S
C642 C641 1.363 . S
C642 C648 1.428 . S
H643 C639 0.930 . S
H644 C641 0.929 . S
S645 N646 1.613 . S
S645 N647 1.610 . S
N646 S645 1.613 . S
N646 C649 1.350 . S
N647 S645 1.610 . S
N647 C648 1.351 . S
C648 C642 1.428 . S
C648 N647 1.351 . S
C648 C649 1.434 . S
C649 C640 1.429 . S
C649 N646 1.350 . S
C649 C648 1.434 . S
C650 C651 1.369 . S
C650 C652 1.419 . S
C650 H654 0.930 . S
C651 C650 1.369 . S
C651 C660 1.429 . S
C652 C650 1.419 . S
C652 C653 1.363 . S
C652 H655 0.929 . S
C653 C652 1.363 . S
C653 C659 1.428 . S
H654 C650 0.930 . S
H655 C652 0.929 . S
S656 N657 1.613 . S
S656 N658 1.610 . S
N657 S656 1.613 . S
N657 C660 1.350 . S
N658 S656 1.610 . S
N658 C659 1.351 . S
C659 C653 1.428 . S
C659 N658 1.351 . S
C659 C660 1.434 . S
C660 C651 1.429 . S
C660 N657 1.350 . S
C660 C659 1.434 . S
C661 C662 1.369 . S
C661 C663 1.419 . S
C661 H665 0.930 . S
C662 C661 1.369 . S
C662 C671 1.429 . S
C663 C661 1.419 . S
C663 C664 1.363 . S
C663 H666 0.929 . S
C664 C663 1.363 . S
C664 C670 1.428 . S
H665 C661 0.930 . S
H666 C663 0.929 . S
S667 N668 1.613 . S
S667 N669 1.610 . S
N668 S667 1.613 . S
N668 C671 1.350 . S
N669 S667 1.610 . S
N669 C670 1.351 . S
C670 C664 1.428 . S
C670 N669 1.351 . S
C670 C671 1.434 . S
C671 C662 1.429 . S
C671 N668 1.350 . S
C671 C670 1.434 . S
C409 C58 1.477 . S
C411 C146 1.454 . S
C422 C230 1.460 . S
C420 C68 1.478 . S
C433 C223 1.468 . S
C431 C40 1.468 . S
C442 C50 1.467 . S
C444 C139 1.469 . S
C455 C303 1.458 . S
C453 C23 1.480 . S
C466 C387 1.459 . S
C464 C32 1.479 . S
C475 C5 1.472 . S
C477 C380 1.469 . S
C486 C14 1.470 . S
C488 C296 1.468 . S
C499 C130 1.321 . S
C497 C13 1.504 . S
C510 C214 1.329 . S
C508 C4 1.502 . S
C521 C225 1.406 . S
C519 C31 1.519 . S
C532 C141 1.402 . S
C530 C22 1.521 . S
C543 C309 1.327 . S
C541 C49 1.503 . S
C552 C41 1.504 . S
C554 C393 1.331 . S
C565 C382 1.410 . S
C563 C67 1.520 . S
C574 C59 1.521 . S
C576 C298 1.400 . S
C587 C128 1.519 . S
C585 C7 1.515 . S
C598 C212 1.517 . S
C596 C16 1.512 . S
C607 C25 1.513 . S
C609 C219 1.500 . S
C620 C135 1.498 . S
C618 C34 1.511 . S
C631 C307 1.518 . S
C629 C43 1.518 . S
C640 C52 1.516 . S
C642 C391 1.519 . S
C651 C61 1.516 . S
C653 C398 1.500 . S
C662 C70 1.513 . S
C664 C314 1.503 . S
