# Generated by pormake.
# Topology apo, (3,6)-cn, num edge types: 1
# Building blocks:
#     Node 0, Type 0, BuildingBlock: BETDIP_clean_linker_0, # of connection points: 3
#     Node 1, Type 0, BuildingBlock: BETDIP_clean_linker_0, # of connection points: 3
#     Node 2, Type 0, BuildingBlock: BETDIP_clean_linker_0, # of connection points: 3
#     Node 3, Type 0, BuildingBlock: BETDIP_clean_linker_0, # of connection points: 3
#     Node 4, Type 0, BuildingBlock: BETDIP_clean_linker_0, # of connection points: 3
#     Node 5, Type 0, BuildingBlock: BETDIP_clean_linker_0, # of connection points: 3
#     Node 6, Type 0, BuildingBlock: BETDIP_clean_linker_0, # of connection points: 3
#     Node 7, Type 0, BuildingBlock: BETDIP_clean_linker_0, # of connection points: 3
#     Node 8, Type 1, BuildingBlock: KUMBUR_clean_sbu_1, # of connection points: 6
#     Node 9, Type 1, BuildingBlock: KUMBUR_clean_sbu_1, # of connection points: 6
#     Node 10, Type 1, BuildingBlock: KUMBUR_clean_sbu_1, # of connection points: 6
#     Node 11, Type 1, BuildingBlock: KUMBUR_clean_sbu_1, # of connection points: 6
#     Edge 12, Type (0, 1), BuildingBlock: MIFKUJ_clean_linker_0, # of connection points: 2
#     Edge 13, Type (0, 1), BuildingBlock: MIFKUJ_clean_linker_0, # of connection points: 2
#     Edge 14, Type (0, 1), BuildingBlock: MIFKUJ_clean_linker_0, # of connection points: 2
#     Edge 15, Type (0, 1), BuildingBlock: MIFKUJ_clean_linker_0, # of connection points: 2
#     Edge 16, Type (0, 1), BuildingBlock: MIFKUJ_clean_linker_0, # of connection points: 2
#     Edge 17, Type (0, 1), BuildingBlock: MIFKUJ_clean_linker_0, # of connection points: 2
#     Edge 18, Type (0, 1), BuildingBlock: MIFKUJ_clean_linker_0, # of connection points: 2
#     Edge 19, Type (0, 1), BuildingBlock: MIFKUJ_clean_linker_0, # of connection points: 2
#     Edge 20, Type (0, 1), BuildingBlock: MIFKUJ_clean_linker_0, # of connection points: 2
#     Edge 21, Type (0, 1), BuildingBlock: MIFKUJ_clean_linker_0, # of connection points: 2
#     Edge 22, Type (0, 1), BuildingBlock: MIFKUJ_clean_linker_0, # of connection points: 2
#     Edge 23, Type (0, 1), BuildingBlock: MIFKUJ_clean_linker_0, # of connection points: 2
#     Edge 24, Type (0, 1), BuildingBlock: MIFKUJ_clean_linker_0, # of connection points: 2
#     Edge 25, Type (0, 1), BuildingBlock: MIFKUJ_clean_linker_0, # of connection points: 2
#     Edge 26, Type (0, 1), BuildingBlock: MIFKUJ_clean_linker_0, # of connection points: 2
#     Edge 27, Type (0, 1), BuildingBlock: MIFKUJ_clean_linker_0, # of connection points: 2
#     Edge 28, Type (0, 1), BuildingBlock: MIFKUJ_clean_linker_0, # of connection points: 2
#     Edge 29, Type (0, 1), BuildingBlock: MIFKUJ_clean_linker_0, # of connection points: 2
#     Edge 30, Type (0, 1), BuildingBlock: MIFKUJ_clean_linker_0, # of connection points: 2
#     Edge 31, Type (0, 1), BuildingBlock: MIFKUJ_clean_linker_0, # of connection points: 2
#     Edge 32, Type (0, 1), BuildingBlock: MIFKUJ_clean_linker_0, # of connection points: 2
#     Edge 33, Type (0, 1), BuildingBlock: MIFKUJ_clean_linker_0, # of connection points: 2
#     Edge 34, Type (0, 1), BuildingBlock: MIFKUJ_clean_linker_0, # of connection points: 2
#     Edge 35, Type (0, 1), BuildingBlock: MIFKUJ_clean_linker_0, # of connection points: 2
# Relax obj value: 0.038
# Max RMSD: 0.187
# Mean RMSD: 0.149
data_MOF--net-apo--node1-KUMBUR_clean_sbu_1--node2-BETDIP_clean_linker_0--edge1-MIFKUJ_clean_linker_0
_symmetry_space_group_name_H-M    P1
_symmetry_Int_Tables_number       1
_symmetry_cell_setting            triclinic
loop_
_symmetry_equiv_pos_as_xyz
'x, y, z'
_cell_length_a     35.468082
_cell_length_b     54.965082
_cell_length_c     64.429976
_cell_angle_alpha  90.023149
_cell_angle_beta   90.083001
_cell_angle_gamma 90.375592
loop_
_atom_site_label
_atom_site_type_symbol
_atom_site_fract_x
_atom_site_fract_y
_atom_site_fract_z
_atom_type_partial_charge
H0 H 0.28142 0.34499 0.44286 0.0
H1 H 0.28817 0.37706 0.3822 0.0
H2 H 0.34704 0.41027 0.43321 0.0
H3 H 0.22938 0.36018 0.37921 0.0
C4 C 0.23278 0.34265 0.38673 0.0
C5 C 0.29177 0.35936 0.43283 0.0
C6 C 0.31596 0.37755 0.44078 0.0
C7 C 0.28062 0.35946 0.41194 0.0
C8 C 0.29501 0.37752 0.39857 0.0
C9 C 0.31958 0.39568 0.40607 0.0
C10 C 0.32941 0.3957 0.42722 0.0
N11 N 0.25593 0.34072 0.40471 0.0
H12 H 0.22468 0.15573 0.9465 0.0
H13 H 0.20682 0.12844 0.88464 0.0
H14 H 0.15648 0.09149 0.93619 0.0
H15 H 0.26592 0.14437 0.88057 0.0
C16 C 0.26352 0.16177 0.88845 0.0
C17 C 0.21189 0.14248 0.93617 0.0
C18 C 0.18962 0.12337 0.94426 0.0
C19 C 0.21907 0.14417 0.91478 0.0
C20 C 0.2026 0.12703 0.90123 0.0
C21 C 0.18062 0.10783 0.909 0.0
C22 C 0.17429 0.10608 0.93043 0.0
N23 N 0.24273 0.16328 0.90728 0.0
H24 H 0.79388 0.17652 0.5837 0.0
H25 H 0.78913 0.1386 0.64172 0.0
H26 H 0.84607 0.10612 0.58998 0.0
H27 H 0.72697 0.15665 0.63945 0.0
C28 C 0.73747 0.17497 0.63657 0.0
C29 C 0.80057 0.16051 0.59274 0.0
C30 C 0.82118 0.14127 0.58387 0.0
C31 C 0.78798 0.15928 0.6133 0.0
C32 C 0.79785 0.13925 0.62562 0.0
C33 C 0.81938 0.12021 0.61741 0.0
C34 C 0.83022 0.12109 0.59642 0.0
N35 N 0.76619 0.17865 0.6215 0.0
H36 H 0.73366 0.34342 0.07849 0.0
H37 H 0.73066 0.37826 0.13811 0.0
H38 H 0.67233 0.41007 0.08621 0.0
H39 H 0.79016 0.3611 0.1398 0.0
C40 C 0.78365 0.34297 0.13404 0.0
C41 C 0.72415 0.3582 0.08829 0.0
C42 C 0.7021 0.37688 0.07984 0.0
C43 C 0.7354 0.35893 0.1091 0.0
C44 C 0.72279 0.37794 0.12188 0.0
C45 C 0.69971 0.39645 0.11388 0.0
C46 C 0.69011 0.39601 0.09267 0.0
N47 N 0.75871 0.34005 0.1169 0.0
H48 H 0.72329 0.65763 0.57872 0.0
H49 H 0.70148 0.63033 0.63998 0.0
H50 H 0.66054 0.59108 0.58667 0.0
H51 H 0.70852 0.67026 0.64844 0.0
C52 C 0.732 0.67591 0.63873 0.0
C53 C 0.71058 0.64402 0.58871 0.0
C54 C 0.69079 0.62424 0.58002 0.0
C55 C 0.7143 0.64647 0.61025 0.0
C56 C 0.69846 0.62863 0.62335 0.0
C57 C 0.67898 0.60842 0.61503 0.0
C58 C 0.6754 0.60649 0.59332 0.0
N59 N 0.73527 0.66662 0.6182 0.0
H60 H 0.77044 0.84746 0.07699 0.0
H61 H 0.78468 0.88069 0.13696 0.0
H62 H 0.84664 0.90802 0.08442 0.0
H63 H 0.72293 0.86694 0.14006 0.0
C64 C 0.72589 0.84861 0.13397 0.0
C65 C 0.78361 0.86112 0.08679 0.0
C66 C 0.80953 0.87772 0.07823 0.0
C67 C 0.77435 0.86209 0.10791 0.0
C68 C 0.79152 0.87987 0.12061 0.0
C69 C 0.81753 0.89668 0.11229 0.0
C70 C 0.82655 0.89528 0.09107 0.0
N71 N 0.74847 0.84464 0.11606 0.0
H72 H 0.23237 0.84212 0.44361 0.0
H73 H 0.21995 0.87353 0.383 0.0
H74 H 0.17691 0.91107 0.43625 0.0
H75 H 0.22253 0.83498 0.37287 0.0
C76 C 0.24371 0.82701 0.38292 0.0
C77 C 0.22218 0.8567 0.43382 0.0
C78 C 0.20366 0.87676 0.44267 0.0
C79 C 0.22772 0.85519 0.41233 0.0
C80 C 0.21538 0.87434 0.39956 0.0
C81 C 0.19695 0.89461 0.40801 0.0
C82 C 0.19125 0.8956 0.42959 0.0
N83 N 0.24639 0.83447 0.40404 0.0
H84 H 0.28988 0.67437 0.93975 0.0
H85 H 0.29066 0.63864 0.88052 0.0
H86 H 0.34746 0.60622 0.9325 0.0
H87 H 0.23516 0.65675 0.87673 0.0
C88 C 0.23881 0.67443 0.88401 0.0
C89 C 0.2984 0.65921 0.9301 0.0
C90 C 0.32063 0.64057 0.9385 0.0
C91 C 0.28602 0.65813 0.90948 0.0
C92 C 0.29774 0.63873 0.89684 0.0
C93 C 0.31978 0.61977 0.90493 0.0
C94 C 0.33074 0.62075 0.92593 0.0
N95 N 0.26234 0.67693 0.90181 0.0
Tb96 Tb 0.04708 0.11758 0.24011 0.0
C97 C 0.88445 0.10375 0.26424 0.0
N98 N 0.90563 0.12398 0.26789 0.0
C99 C 0.85546 0.14892 0.255 0.0
C100 C 0.84875 0.10518 0.25472 0.0
C101 C 0.89045 0.14648 0.26477 0.0
C102 C 0.83484 0.12813 0.24953 0.0
C103 C 0.87482 0.06061 0.27023 0.0
C104 C 0.89705 0.08184 0.27196 0.0
C105 C 0.84038 0.06157 0.25948 0.0
C106 C 0.82734 0.08384 0.25173 0.0
Tb107 Tb 0.96359 0.11746 0.28263 0.0
N108 N 0.93055 0.08167 0.28214 0.0
C109 C 0.88734 0.03936 0.27997 0.0
C110 C 0.9416 0.06154 0.29296 0.0
C111 C 0.92051 0.03997 0.29173 0.0
H112 H 0.90499 0.16262 0.27012 0.0
H113 H 0.92988 0.02384 0.29981 0.0
H114 H 0.11817 0.09467 0.26613 0.0
H115 H 0.03554 0.20181 0.19688 0.0
H116 H 0.96716 0.06203 0.30204 0.0
H117 H 0.87106 0.02265 0.27903 0.0
H118 H 0.02039 0.15911 0.20495 0.0
H119 H 0.84414 0.16683 0.25212 0.0
H120 H 0.82305 0.04539 0.2577 0.0
H121 H 0.80005 0.08452 0.24419 0.0
H122 H 0.17897 0.10907 0.28069 0.0
H123 H 0.8074 0.12999 0.24235 0.0
H124 H 0.08898 0.22232 0.21455 0.0
N125 N 0.10334 0.12929 0.25409 0.0
C126 C 0.11451 0.15253 0.25043 0.0
C127 C 0.16089 0.12154 0.27239 0.0
C128 C 0.1488 0.1616 0.25837 0.0
C129 C 0.12651 0.11344 0.2642 0.0
C130 C 0.17197 0.14577 0.26958 0.0
N131 N 0.06085 0.15642 0.22931 0.0
C132 C 0.04206 0.16826 0.2138 0.0
C133 C 0.10309 0.19076 0.23302 0.0
C134 C 0.09201 0.16677 0.23793 0.0
C135 C 0.08148 0.20382 0.21873 0.0
C136 C 0.05126 0.19233 0.20876 0.0
H137 H 0.19894 0.15176 0.27555 0.0
H138 H 0.1855 0.19322 0.2601 0.0
H139 H 0.1452 0.21888 0.23824 0.0
O140 O 0.07442 0.11757 0.21073 0.0
O141 O 0.05559 0.13062 0.27205 0.0
O142 O 1.00063 0.14951 0.28064 0.0
O143 O 0.06784 0.0844 0.22887 0.0
O144 O 0.99279 0.1343 0.23154 0.0
O145 O 0.96838 0.14952 0.26216 0.0
O146 O 0.97777 0.11664 0.31439 0.0
O147 O 0.97161 0.08683 0.26091 0.0
O148 O 0.99101 0.10512 0.23096 0.0
O149 O 0.92297 0.12788 0.30462 0.0
O150 O 0.01485 0.09792 0.29146 0.0
O151 O 0.04626 0.0861 0.26125 0.0
C152 C 0.03763 0.14874 0.28062 0.0
C153 C 0.10056 0.08015 0.19602 0.0
C154 C 0.12258 0.07466 0.16031 0.0
C155 C 0.13947 0.05266 0.16638 0.0
C156 C 0.11723 0.05797 0.20151 0.0
C157 C 0.13666 0.0444 0.18678 0.0
C158 C 0.1033 0.08846 0.17539 0.0
C159 C 0.972 0.15011 0.24179 0.0
C160 C 0.0806 0.09437 0.21198 0.0
C161 C 0.15926 0.18581 0.25424 0.0
C162 C 0.1363 0.20043 0.24173 0.0
C163 C 0.97238 0.08787 0.24057 0.0
C164 C 0.94722 0.14593 0.3349 0.0
C165 C 0.93603 0.16198 0.36967 0.0
C166 C 0.94693 0.18521 0.36269 0.0
C167 C 0.95828 0.1692 0.32823 0.0
C168 C 0.93652 0.14233 0.35566 0.0
C169 C 0.95824 0.18871 0.34212 0.0
C170 C 0.03827 0.08368 0.28122 0.0
C171 C 0.94564 0.12543 0.32027 0.0
H172 H 0.15528 0.04185 0.15542 0.0
H173 H 0.11558 0.05121 0.21729 0.0
H174 H 0.14973 0.02744 0.19121 0.0
H175 H 0.08978 0.10533 0.17103 0.0
H176 H 0.947 0.2006 0.3732 0.0
H177 H 0.96657 0.17231 0.31228 0.0
H178 H 0.92775 0.12438 0.36079 0.0
H179 H 0.96676 0.20664 0.33691 0.0
Tb180 Tb 0.45098 0.38272 0.74486 0.0
C181 C 0.59441 0.43161 0.78957 0.0
N182 N 0.58696 0.40934 0.78144 0.0
C183 C 0.64814 0.40884 0.76555 0.0
C184 C 0.62862 0.44385 0.78543 0.0
C185 C 0.61373 0.39748 0.77011 0.0
C186 C 0.65551 0.43224 0.77308 0.0
C187 C 0.57405 0.46502 0.81118 0.0
C188 C 0.56757 0.442 0.80215 0.0
C189 C 0.60752 0.47775 0.80662 0.0
C190 C 0.63482 0.46715 0.79379 0.0
Tb191 Tb 0.53044 0.392 0.79022 0.0
N192 N 0.53602 0.42891 0.80646 0.0
C193 C 0.54726 0.47414 0.82503 0.0
C194 C 0.51154 0.4368 0.82131 0.0
C195 C 0.51614 0.45977 0.83037 0.0
H196 H 0.60827 0.37939 0.76433 0.0
H197 H 0.49608 0.46616 0.84175 0.0
H198 H 0.3847 0.4208 0.7643 0.0
H199 H 0.44138 0.28727 0.72702 0.0
H200 H 0.48887 0.42515 0.82651 0.0
H201 H 0.55108 0.49178 0.83227 0.0
H202 H 0.46871 0.32886 0.7253 0.0
H203 H 0.66897 0.39953 0.75626 0.0
H204 H 0.61293 0.49553 0.81328 0.0
H205 H 0.66077 0.47698 0.79066 0.0
H206 H 0.32838 0.41698 0.78594 0.0
H207 H 0.68215 0.44102 0.76951 0.0
H208 H 0.38457 0.27946 0.74838 0.0
N209 N 0.39529 0.38256 0.76324 0.0
C210 C 0.37933 0.3602 0.76604 0.0
C211 C 0.3429 0.40081 0.78087 0.0
C212 C 0.34581 0.35718 0.77753 0.0
C213 C 0.37582 0.40286 0.76906 0.0
C214 C 0.32828 0.37785 0.78556 0.0
N215 N 0.42798 0.34397 0.74559 0.0
C216 C 0.4438 0.32549 0.73451 0.0
C217 C 0.3793 0.31701 0.75808 0.0
C218 C 0.39563 0.34036 0.75643 0.0
C219 C 0.39624 0.29769 0.7475 0.0
C220 C 0.42838 0.30202 0.73547 0.0
H221 H 0.30252 0.37635 0.7945 0.0
H222 H 0.30478 0.33108 0.78906 0.0
H223 H 0.3342 0.29588 0.77205 0.0
O224 O 0.45726 0.37726 0.71268 0.0
O225 O 0.46733 0.35424 0.76715 0.0
O226 O 0.47497 0.37652 0.79638 0.0
O227 O 0.40618 0.39181 0.72492 0.0
O228 O 0.50765 0.3705 0.73669 0.0
O229 O 0.54058 0.36276 0.76757 0.0
O230 O 0.54711 0.38975 0.82145 0.0
O231 O 0.54214 0.41037 0.76043 0.0
O232 O 0.48548 0.41576 0.74233 0.0
O233 O 0.55529 0.35955 0.80087 0.0
O234 O 0.47233 0.40497 0.79328 0.0
O235 O 0.45059 0.41764 0.76163 0.0
C236 C 0.46423 0.35639 0.78732 0.0
C237 C 0.42463 0.40502 0.69168 0.0
C238 C 0.41719 0.41545 0.65504 0.0
C239 C 0.42731 0.43962 0.65973 0.0
C240 C 0.43376 0.42934 0.6961 0.0
C241 C 0.43538 0.44648 0.68015 0.0
C242 C 0.416 0.39818 0.67119 0.0
C243 C 0.535 0.36005 0.74735 0.0
C244 C 0.42472 0.38654 0.70819 0.0
C245 C 0.33022 0.33378 0.78004 0.0
C246 C 0.34687 0.31375 0.77027 0.0
C247 C 0.5216 0.42037 0.74561 0.0
C248 C 0.59962 0.36545 0.82831 0.0
C249 C 0.63994 0.36571 0.8591 0.0
C250 C 0.6717 0.36335 0.84627 0.0
C251 C 0.63162 0.36259 0.81576 0.0
C252 C 0.60394 0.36668 0.84997 0.0
C253 C 0.66746 0.36162 0.82474 0.0
C254 C 0.45658 0.42155 0.78153 0.0
C255 C 0.56166 0.36833 0.81934 0.0
H256 H 0.42833 0.45332 0.64765 0.0
H257 H 0.44009 0.43501 0.71183 0.0
H258 H 0.44291 0.46512 0.68363 0.0
H259 H 0.40889 0.37938 0.66778 0.0
H260 H 0.69973 0.3625 0.85292 0.0
H261 H 0.62903 0.36122 0.79908 0.0
H262 H 0.5793 0.36896 0.85972 0.0
H263 H 0.69205 0.35956 0.81498 0.0
Tb264 Tb 0.03737 0.88866 0.74301 0.0
C265 C 0.87861 0.85156 0.75583 0.0
N266 N 0.88896 0.87533 0.75739 0.0
C267 C 0.83606 0.88698 0.73649 0.0
C268 C 0.84673 0.8445 0.74415 0.0
C269 C 0.86811 0.8931 0.74809 0.0
C270 C 0.82538 0.86258 0.73444 0.0
C271 C 0.89126 0.80938 0.76399 0.0
C272 C 0.90096 0.83427 0.76543 0.0
C273 C 0.85996 0.80217 0.75202 0.0
C274 C 0.8377 0.81969 0.74217 0.0
Tb275 Tb 0.94143 0.88333 0.77676 0.0
N276 N 0.93137 0.84189 0.77671 0.0
C277 C 0.91257 0.79253 0.77514 0.0
C278 C 0.94902 0.82574 0.78958 0.0
C279 C 0.94096 0.80084 0.78841 0.0
H280 H 0.87624 0.91197 0.74967 0.0
H281 H 0.95596 0.78815 0.7982 0.0
H282 H 0.08888 0.83942 0.75072 0.0
H283 H 0.06937 0.98452 0.75075 0.0
H284 H 0.96832 0.8318 0.80143 0.0
H285 H 0.90607 0.77326 0.77445 0.0
H286 H 0.03112 0.94896 0.74022 0.0
H287 H 0.81967 0.90108 0.72911 0.0
H288 H 0.85238 0.78312 0.75057 0.0
H289 H 0.81358 0.81386 0.73305 0.0
H290 H 0.15041 0.8295 0.76664 0.0
H291 H 0.80074 0.8579 0.72528 0.0
H292 H 0.13146 0.97859 0.76753 0.0
N293 N 0.09482 0.87746 0.75567 0.0
C294 C 0.11769 0.89587 0.76216 0.0
C295 C 0.14148 0.84825 0.76556 0.0
C296 C 0.15331 0.89118 0.77093 0.0
C297 C 0.10648 0.85388 0.7568 0.0
C298 C 0.16492 0.86697 0.77277 0.0
N299 N 0.07048 0.92311 0.75156 0.0
C300 C 0.05798 0.94611 0.74761 0.0
C301 C 0.12824 0.93927 0.76598 0.0
C302 C 0.10537 0.91954 0.75977 0.0
C303 C 0.11481 0.9629 0.76291 0.0
C304 C 0.07971 0.96631 0.75349 0.0
H305 H 0.19205 0.86258 0.77949 0.0
H306 H 0.20353 0.90755 0.78433 0.0
H307 H 0.18156 0.94968 0.77998 0.0
O308 O 0.03165 0.8996 0.71182 0.0
O309 O 0.03711 0.90622 0.7738 0.0
O310 O 0.97575 0.91545 0.78399 0.0
O311 O 0.07615 0.87564 0.72101 0.0
O312 O 0.99031 0.91225 0.73399 0.0
O313 O 0.94633 0.91833 0.76065 0.0
O314 O 0.92951 0.87665 0.80838 0.0
O315 O 0.94296 0.87518 0.74324 0.0
O316 O 1.0001 0.85723 0.73879 0.0
O317 O 0.89312 0.89882 0.78998 0.0
O318 O 0.99484 0.86921 0.78937 0.0
O319 O 0.02353 0.85555 0.75984 0.0
C320 C 0.01253 0.91874 0.78473 0.0
C321 C 0.0887 0.90195 0.69297 0.0
C322 C 0.1178 0.90972 0.65917 0.0
C323 C 0.14074 0.92767 0.66849 0.0
C324 C 0.11189 0.91993 0.70179 0.0
C325 C 0.13768 0.93272 0.68962 0.0
C326 C 0.09174 0.89686 0.67163 0.0
C327 C 0.96218 0.92419 0.7427 0.0
C328 C 0.06178 0.88812 0.70587 0.0
C329 C 0.17611 0.91076 0.77747 0.0
C330 C 0.16361 0.93476 0.77498 0.0
C331 C 0.96428 0.85905 0.73406 0.0
C332 C 0.89793 0.90854 0.82562 0.0
C333 C 0.88513 0.9169 0.86216 0.0
C334 C 0.88643 0.94192 0.8579 0.0
C335 C 0.90045 0.93369 0.82184 0.0
C336 C 0.89102 0.90023 0.84594 0.0
C337 C 0.89461 0.95024 0.83793 0.0
C338 C 0.02027 0.85572 0.78007 0.0
C339 C 0.9004 0.89083 0.80847 0.0
H340 H 0.16161 0.93755 0.65952 0.0
H341 H 0.11042 0.92403 0.71808 0.0
H342 H 0.1556 0.94647 0.69662 0.0
H343 H 0.0737 0.88304 0.66476 0.0
H344 H 0.8815 0.95499 0.87015 0.0
H345 H 0.90627 0.94057 0.80641 0.0
H346 H 0.88921 0.88086 0.84901 0.0
H347 H 0.89607 0.96958 0.83486 0.0
Tb348 Tb 0.47003 0.61688 0.23838 0.0
C349 C 0.62101 0.65423 0.27273 0.0
N350 N 0.60861 0.6314 0.26826 0.0
C351 C 0.66687 0.6227 0.25101 0.0
C352 C 0.65666 0.66245 0.26596 0.0
C353 C 0.63144 0.61531 0.25824 0.0
C354 C 0.67944 0.64644 0.25474 0.0
C355 C 0.61032 0.69276 0.28986 0.0
C356 C 0.59795 0.66918 0.28438 0.0
C357 C 0.64571 0.70111 0.28305 0.0
C358 C 0.66867 0.68611 0.27096 0.0
Tb359 Tb 0.55175 0.62061 0.28189 0.0
N360 N 0.56458 0.66005 0.29143 0.0
C361 C 0.5875 0.70686 0.30274 0.0
C362 C 0.54381 0.67311 0.30536 0.0
C363 C 0.5543 0.69687 0.31071 0.0
H364 H 0.62251 0.59674 0.25589 0.0
H365 H 0.53733 0.70719 0.32149 0.0
H366 H 0.40369 0.65696 0.25176 0.0
H367 H 0.45289 0.52348 0.21504 0.0
H368 H 0.52 0.66511 0.31316 0.0
H369 H 0.59596 0.72508 0.30727 0.0
H370 H 0.48469 0.56362 0.21677 0.0
H371 H 0.68464 0.61 0.24279 0.0
H372 H 0.65617 0.71882 0.28766 0.0
H373 H 0.69604 0.69276 0.266 0.0
H374 H 0.34122 0.65586 0.26815 0.0
H375 H 0.70701 0.65207 0.24925 0.0
H376 H 0.39229 0.51692 0.23335 0.0
N377 N 0.41037 0.61852 0.25196 0.0
C378 C 0.3921 0.59681 0.25369 0.0
C379 C 0.35551 0.63902 0.26467 0.0
C380 C 0.3555 0.59521 0.26209 0.0
C381 C 0.39151 0.63962 0.25589 0.0
C382 C 0.33774 0.61667 0.26826 0.0
N383 N 0.44325 0.57916 0.23634 0.0
C384 C 0.45851 0.56077 0.2249 0.0
C385 C 0.38955 0.55398 0.2447 0.0
C386 C 0.40873 0.57649 0.24513 0.0
C387 C 0.40616 0.53452 0.23414 0.0
C388 C 0.44045 0.5381 0.22385 0.0
H389 H 0.30955 0.61622 0.27469 0.0
H390 H 0.30917 0.57084 0.26962 0.0
H391 H 0.33908 0.53468 0.25438 0.0
O392 O 0.48566 0.61845 0.20683 0.0
O393 O 0.47985 0.58642 0.2599 0.0
O394 O 0.49721 0.60471 0.29039 0.0
O395 O 0.4289 0.62551 0.21612 0.0
O396 O 0.52521 0.60172 0.23037 0.0
O397 O 0.55344 0.58893 0.26108 0.0
O398 O 0.57653 0.62359 0.31154 0.0
O399 O 0.55951 0.63656 0.25077 0.0
O400 O 0.50132 0.65108 0.24195 0.0
O401 O 0.57788 0.58988 0.2948 0.0
O402 O 0.49591 0.6349 0.29052 0.0
O403 O 0.46839 0.64819 0.25985 0.0
C404 C 0.4795 0.58734 0.28026 0.0
C405 C 0.45088 0.64625 0.18673 0.0
C406 C 0.43913 0.66257 0.152 0.0
C407 C 0.44381 0.68624 0.16009 0.0
C408 C 0.45522 0.66994 0.19442 0.0
C409 C 0.45204 0.68982 0.18109 0.0
C410 C 0.44324 0.64261 0.16557 0.0
C411 C 0.54797 0.58726 0.24082 0.0
C412 C 0.45242 0.62523 0.20075 0.0
C413 C 0.33712 0.57249 0.26298 0.0
C414 C 0.3541 0.55191 0.25425 0.0
C415 C 0.53824 0.65322 0.24212 0.0
C416 C 0.57288 0.58786 0.33149 0.0
C417 C 0.57821 0.58243 0.36907 0.0
C418 C 0.54983 0.56449 0.36811 0.0
C419 C 0.5448 0.56973 0.33092 0.0
C420 C 0.58942 0.59419 0.35064 0.0
C421 C 0.53319 0.55832 0.34918 0.0
C422 C 0.47204 0.64884 0.28026 0.0
C423 C 0.58473 0.60065 0.31242 0.0
H424 H 0.44021 0.70209 0.15034 0.0
H425 H 0.46039 0.67301 0.21076 0.0
H426 H 0.45526 0.70809 0.18714 0.0
H427 H 0.44032 0.62417 0.15979 0.0
H428 H 0.54011 0.55545 0.38207 0.0
H429 H 0.53173 0.56444 0.31641 0.0
H430 H 0.61125 0.60809 0.35113 0.0
H431 H 0.51105 0.54473 0.34872 0.0
H432 H 0.13136 0.92054 0.41164 0.0
H433 H 0.10789 0.95238 0.38894 0.0
H434 H 0.20521 0.94441 0.34948 0.0
H435 H 0.23049 0.91382 0.37308 0.0
H436 H 0.18974 0.98994 0.35184 0.0
H437 H 0.11638 0.91946 0.33683 0.0
H438 H 0.07637 0.88358 0.34397 0.0
H439 H 0.99072 0.92969 0.36935 0.0
H440 H 0.03045 0.96584 0.36262 0.0
H441 H 0.09217 0.05157 0.26771 0.0
H442 H 0.12186 0.0189 0.28766 0.0
H443 H 0.05454 0.03747 0.34092 0.0
H444 H 0.0258 0.07062 0.3216 0.0
H445 H 0.05674 0.98496 0.32808 0.0
H446 H 0.13596 0.05552 0.34339 0.0
H447 H 0.17588 0.0901 0.33249 0.0
H448 H 0.25153 0.04103 0.30201 0.0
H449 H 0.2116 0.00616 0.3124 0.0
C450 C 0.14825 0.92581 0.39839 0.0
C451 C 0.18284 0.9144 0.39423 0.0
C452 C 0.13443 0.94382 0.38518 0.0
C453 C 0.15427 0.95043 0.36717 0.0
C454 C 0.18917 0.9395 0.36317 0.0
C455 C 0.20337 0.92175 0.37658 0.0
C456 C 0.13838 0.96866 0.35254 0.0
C457 C 0.16083 0.98859 0.34643 0.0
C458 C 0.10063 0.96703 0.34535 0.0
C459 C 0.07655 0.94534 0.34937 0.0
C460 C 0.08912 0.92194 0.34406 0.0
C461 C 0.06648 0.90155 0.34802 0.0
C462 C 0.03106 0.90435 0.35715 0.0
C463 C 0.01818 0.92755 0.36229 0.0
C464 C 0.04073 0.948 0.35839 0.0
C465 C 0.08378 0.04882 0.2837 0.0
C466 C 0.05649 0.06378 0.293 0.0
C467 C 0.10073 0.03011 0.29503 0.0
C468 C 0.09022 0.02583 0.31569 0.0
C469 C 0.06283 0.04048 0.32494 0.0
C470 C 0.04647 0.05945 0.31382 0.0
C471 C 0.10785 0.0062 0.32791 0.0
C472 C 0.08571 0.98605 0.33346 0.0
C473 C 0.146 0.00738 0.33418 0.0
C474 C 0.17057 0.02826 0.32848 0.0
C475 C 0.16094 0.05211 0.33423 0.0
C476 C 0.18358 0.07177 0.32816 0.0
C477 C 0.21616 0.06777 0.31651 0.0
C478 C 0.22625 0.0441 0.311 0.0
C479 C 0.20363 0.02438 0.31699 0.0
H480 H 0.23362 0.08302 0.3118 0.0
H481 H 0.01357 0.88855 0.3602 0.0
H482 H 0.38742 0.59551 0.90464 0.0
H483 H 0.40662 0.56247 0.88176 0.0
H484 H 0.29904 0.56539 0.85054 0.0
H485 H 0.27867 0.59722 0.87426 0.0
H486 H 0.31649 0.52094 0.85467 0.0
H487 H 0.38234 0.59052 0.82939 0.0
H488 H 0.42333 0.62687 0.83102 0.0
H489 H 0.51644 0.58271 0.85029 0.0
H490 H 0.47586 0.54611 0.84905 0.0
H491 H 0.44824 0.46769 0.76672 0.0
H492 H 0.41967 0.50242 0.7847 0.0
H493 H 0.39426 0.45623 0.8371 0.0
H494 H 0.42087 0.42153 0.8188 0.0
H495 H 0.43963 0.5247 0.81835 0.0
H496 H 0.32091 0.47379 0.86319 0.0
H497 H 0.27612 0.43988 0.85749 0.0
H498 H 0.28118 0.45174 0.79168 0.0
H499 H 0.32608 0.48563 0.79698 0.0
C500 C 0.36757 0.58889 0.89314 0.0
C501 C 0.33152 0.59923 0.89128 0.0
C502 C 0.37883 0.5702 0.87983 0.0
C503 C 0.3546 0.56172 0.86409 0.0
C504 C 0.31839 0.57168 0.86244 0.0
C505 C 0.30692 0.59012 0.87591 0.0
C506 C 0.3668 0.5423 0.84949 0.0
C507 C 0.34338 0.52185 0.8467 0.0
C508 C 0.4014 0.54365 0.83856 0.0
C509 C 0.42595 0.5656 0.83931 0.0
C510 C 0.41148 0.58858 0.83412 0.0
C511 C 0.43466 0.60923 0.83495 0.0
C512 C 0.47244 0.60711 0.8408 0.0
C513 C 0.48715 0.58432 0.84578 0.0
C514 C 0.46409 0.56362 0.84501 0.0
C515 C 0.43595 0.465 0.78194 0.0
C516 C 0.43727 0.44213 0.79157 0.0
C517 C 0.41989 0.48482 0.79225 0.0
C518 C 0.40461 0.48198 0.81225 0.0
C519 C 0.40521 0.4589 0.82158 0.0
C520 C 0.42087 0.43912 0.81123 0.0
C521 C 0.38965 0.5032 0.82388 0.0
C522 C 0.4126 0.52394 0.82618 0.0
C523 C 0.35405 0.5025 0.83379 0.0
C524 C 0.32703 0.48214 0.83049 0.0
C525 C 0.3124 0.46918 0.84751 0.0
C526 C 0.28709 0.44992 0.84434 0.0
C527 C 0.27595 0.44359 0.82423 0.0
C528 C 0.29002 0.45656 0.80724 0.0
C529 C 0.31552 0.47573 0.81031 0.0
H530 H 0.25635 0.42868 0.8218 0.0
H531 H 0.49034 0.62312 0.84143 0.0
H532 H 0.70741 0.59088 0.65191 0.0
H533 H 0.68066 0.55956 0.67428 0.0
H534 H 0.58842 0.54952 0.63131 0.0
H535 H 0.61305 0.58238 0.60985 0.0
H536 H 0.56145 0.54645 0.66727 0.0
H537 H 0.66809 0.5094 0.63529 0.0
H538 H 0.73453 0.50511 0.62475 0.0
H539 H 0.76858 0.50376 0.68872 0.0
H540 H 0.70237 0.50836 0.69964 0.0
H541 H 0.51023 0.42714 0.7043 0.0
H542 H 0.53663 0.45928 0.68214 0.0
H543 H 0.60158 0.48641 0.73393 0.0
H544 H 0.57287 0.4556 0.75632 0.0
H545 H 0.64216 0.47979 0.69356 0.0
H546 H 0.53099 0.51569 0.72406 0.0
H547 H 0.46321 0.51709 0.73231 0.0
H548 H 0.43635 0.51737 0.6673 0.0
H549 H 0.50399 0.51529 0.65866 0.0
C550 C 0.68105 0.5824 0.64734 0.0
C551 C 0.66265 0.58924 0.62888 0.0
C552 C 0.66608 0.56409 0.66003 0.0
C553 C 0.63292 0.55164 0.65431 0.0
C554 C 0.61419 0.55865 0.63607 0.0
C555 C 0.62868 0.5773 0.62361 0.0
C556 C 0.61753 0.53147 0.66735 0.0
C557 C 0.57912 0.53174 0.67273 0.0
C558 C 0.64045 0.51227 0.67478 0.0
C559 C 0.6803 0.50948 0.66827 0.0
C560 C 0.68978 0.50837 0.64711 0.0
C561 C 0.72739 0.50585 0.64106 0.0
C562 C 0.75577 0.50423 0.65605 0.0
C563 C 0.74658 0.50505 0.67712 0.0
C564 C 0.70901 0.5076 0.68325 0.0
C565 C 0.52965 0.44022 0.711 0.0
C566 C 0.53955 0.43883 0.73209 0.0
C567 C 0.54504 0.45835 0.69829 0.0
C568 C 0.57109 0.47516 0.70642 0.0
C569 C 0.58178 0.47344 0.72733 0.0
C570 C 0.56576 0.45562 0.74009 0.0
C571 C 0.58645 0.49496 0.69328 0.0
C572 C 0.62473 0.49456 0.68796 0.0
C573 C 0.56327 0.5137 0.68551 0.0
C574 C 0.52258 0.51505 0.69072 0.0
C575 C 0.51064 0.51575 0.71152 0.0
C576 C 0.47223 0.51671 0.71627 0.0
C577 C 0.44548 0.51729 0.70034 0.0
C578 C 0.4571 0.51694 0.67963 0.0
C579 C 0.49547 0.51581 0.6748 0.0
H580 H 0.41576 0.51804 0.70404 0.0
H581 H 0.78487 0.50228 0.65134 0.0
H582 H 0.84473 0.89245 0.15203 0.0
H583 H 0.87127 0.92454 0.17407 0.0
H584 H 0.85584 0.97663 0.12479 0.0
H585 H 0.82908 0.9447 0.10271 0.0
H586 H 0.9237 0.98249 0.14291 0.0
H587 H 0.79537 0.97406 0.16577 0.0
H588 H 0.73942 0.95195 0.17869 0.0
H589 H 0.80029 0.93118 0.23348 0.0
H590 H 0.8568 0.95288 0.22073 0.0
H591 H 0.94638 0.09079 0.20093 0.0
H592 H 0.91999 0.05804 0.17959 0.0
H593 H 0.93385 0.00773 0.2304 0.0
H594 H 0.96004 0.04054 0.25183 0.0
H595 H 0.86783 1.00039 0.21176 0.0
H596 H 0.99602 0.01015 0.1892 0.0
H597 H 0.05122 0.03308 0.17635 0.0
H598 H 0.99067 0.05173 0.12092 0.0
H599 H 0.93484 0.02925 0.13358 0.0
C600 C 0.84674 0.91077 0.14593 0.0
C601 C 0.83462 0.916 0.12562 0.0
C602 C 0.862 0.92909 0.15853 0.0
C603 C 0.86521 0.95307 0.15117 0.0
C604 C 0.85373 0.95826 0.1308 0.0
C605 C 0.83852 0.93996 0.11817 0.0
C606 C 0.88017 0.97282 0.16473 0.0
C607 C 0.91123 0.98658 0.15786 0.0
C608 C 0.86443 0.97784 0.18445 0.0
C609 C 0.83043 0.96487 0.19219 0.0
C610 C 0.79692 0.96461 0.18049 0.0
C611 C 0.76509 0.95218 0.1878 0.0
C612 C 0.76633 0.94011 0.20687 0.0
C613 C 0.79938 0.9405 0.2187 0.0
C614 C 0.83132 0.95288 0.21144 0.0
C615 C 0.94375 0.07273 0.20755 0.0
C616 C 0.95513 0.0682 0.22807 0.0
C617 C 0.92876 0.05402 0.19532 0.0
C618 C 0.92549 0.0303 0.20326 0.0
C619 C 0.93612 0.02586 0.22392 0.0
C620 C 0.95091 0.04464 0.2362 0.0
C621 C 0.91133 0.0101 0.18994 0.0
C622 C 0.88042 0.99624 0.19685 0.0
C623 C 0.92724 1.005 0.17025 0.0
C624 C 0.96108 0.01818 0.16244 0.0
C625 C 0.99437 0.01926 0.17433 0.0
C626 C 0.02579 0.03218 0.16708 0.0
C627 C 0.02441 0.04391 0.14786 0.0
C628 C 0.99167 0.04266 0.13581 0.0
C629 C 0.96014 0.02982 0.14301 0.0
H630 H 0.04869 0.05394 0.14228 0.0
H631 H 0.74166 0.9305 0.2125 0.0
H632 H 0.84888 0.12321 0.65646 0.0
H633 H 0.87068 0.09002 0.6786 0.0
H634 H 0.83991 0.03805 0.63126 0.0
H635 H 0.81752 0.07125 0.60906 0.0
H636 H 0.81963 0.02265 0.67106 0.0
H637 H 0.92861 0.05388 0.63552 0.0
H638 H 0.97306 0.08571 0.62384 0.0
H639 H 0.99982 0.10298 0.6872 0.0
H640 H 0.95507 0.07147 0.69926 0.0
H641 H 0.98579 0.94161 0.70511 0.0
H642 H 0.95974 0.97499 0.68509 0.0
H643 H 0.87831 0.98841 0.73332 0.0
H644 H 0.90424 0.95479 0.75368 0.0
H645 H 0.95393 0.02278 0.69284 0.0
H646 H 0.79579 0.00684 0.70902 0.0
H647 H 0.7529 0.9732 0.71872 0.0
H648 H 0.82726 0.92181 0.69011 0.0
H649 H 0.87026 0.95516 0.67997 0.0
C650 C 0.84632 0.10469 0.65085 0.0
C651 C 0.83155 0.09984 0.63099 0.0
C652 C 0.85897 0.08577 0.66348 0.0
C653 C 0.85711 0.06159 0.65653 0.0
C654 C 0.84157 0.05659 0.63692 0.0
C655 C 0.82911 0.07556 0.62419 0.0
C656 C 0.87282 0.04169 0.6694 0.0
C657 C 0.84895 0.0227 0.67589 0.0
C658 C 0.91117 0.04161 0.67549 0.0
C659 C 0.93821 0.0605 0.66829 0.0
C660 C 0.94374 0.0646 0.64696 0.0
C661 C 0.96902 0.08256 0.64027 0.0
C662 C 0.98917 0.0964 0.65477 0.0
C663 C 0.98414 0.09227 0.67599 0.0
C664 C 0.95884 0.07436 0.68276 0.0
C665 C 0.96238 0.95159 0.71161 0.0
C666 C 0.94694 0.94525 0.73101 0.0
C667 C 0.9476 0.97079 0.7001 0.0
C668 C 0.9169 0.98406 0.7076 0.0
C669 C 0.90175 0.97818 0.72712 0.0
C670 C 0.91665 0.95897 0.73874 0.0
C671 C 0.9007 1.00381 0.69471 0.0
C672 C 0.92451 0.02281 0.6882 0.0
C673 C 0.86247 1.00365 0.68834 0.0
C674 C 0.8364 0.98349 0.69394 0.0
C675 C 0.80288 0.98838 0.70472 0.0
C676 C 0.77856 0.96936 0.7103 0.0
C677 C 0.7874 0.94538 0.70509 0.0
C678 C 0.82049 0.94038 0.6942 0.0
C679 C 0.84486 0.95933 0.68855 0.0
H680 H 0.76857 0.93068 0.70946 0.0
H681 H 0.00875 0.11029 0.64956 0.0
H682 H 0.69261 0.44528 0.10566 0.0
H683 H 0.66907 0.477 0.1288 0.0
H684 H 0.65195 0.42364 0.17701 0.0
H685 H 0.67369 0.3917 0.15369 0.0
H686 H 0.59399 0.45304 0.17566 0.0
H687 H 0.72857 0.46353 0.17737 0.0
H688 H 0.79195 0.46947 0.16243 0.0
H689 H 0.75698 0.53707 0.13539 0.0
H690 H 0.69323 0.53137 0.14993 0.0
H691 H 0.59525 0.55199 0.25598 0.0
H692 H 0.62513 0.51902 0.2365 0.0
H693 H 0.57369 0.54474 0.18009 0.0
H694 H 0.54501 0.57828 0.19905 0.0
H695 H 0.66885 0.52808 0.18897 0.0
H696 H 0.52859 0.48275 0.17196 0.0
H697 H 0.46602 0.47645 0.18794 0.0
H698 H 0.51647 0.47715 0.24854 0.0
H699 H 0.57933 0.48287 0.2329 0.0
C700 C 0.68347 0.44024 0.12111 0.0
C701 C 0.68533 0.41593 0.12783 0.0
C702 C 0.67041 0.45846 0.13442 0.0
C703 C 0.6593 0.45279 0.15479 0.0
C704 C 0.66057 0.4285 0.16142 0.0
C705 C 0.6734 0.41028 0.14811 0.0
C706 C 0.64605 0.4721 0.16917 0.0
C707 C 0.61063 0.4693 0.17867 0.0
C708 C 0.66766 0.49337 0.17325 0.0
C709 C 0.70604 0.49692 0.1646 0.0
C710 C 0.73433 0.47958 0.16812 0.0
C711 C 0.77033 0.48292 0.15974 0.0
C712 C 0.77846 0.50361 0.14793 0.0
C713 C 0.75064 0.52104 0.14452 0.0
C714 C 0.71458 0.51778 0.15285 0.0
C715 C 0.59056 0.55082 0.2394 0.0
C716 C 0.56745 0.56776 0.22914 0.0
C717 C 0.6076 0.53194 0.22833 0.0
C718 C 0.60117 0.52941 0.20696 0.0
C719 C 0.57872 0.5464 0.19662 0.0
C720 C 0.5623 0.56552 0.20755 0.0
C721 C 0.61718 0.50881 0.19527 0.0
C722 C 0.65272 0.51157 0.18609 0.0
C723 C 0.59609 0.48734 0.19176 0.0
C724 C 0.55851 0.48358 0.20127 0.0
C725 C 0.52628 0.48148 0.18869 0.0
C726 C 0.49081 0.47793 0.19768 0.0
C727 C 0.48729 0.47638 0.21925 0.0
C728 C 0.51923 0.47836 0.23186 0.0
C729 C 0.55477 0.4818 0.22293 0.0
H730 H 0.45979 0.47372 0.22619 0.0
H731 H 0.80635 0.50615 0.14145 0.0
H732 H 0.39186 0.4133 0.40467 0.0
H733 H 0.41726 0.44537 0.38234 0.0
H734 H 0.30889 0.45242 0.35256 0.0
H735 H 0.28297 0.42079 0.37528 0.0
H736 H 0.42551 0.44929 0.34123 0.0
H737 H 0.29612 0.51254 0.34003 0.0
H738 H 0.24159 0.5228 0.36205 0.0
H739 H 0.30354 0.50185 0.41642 0.0
H740 H 0.35856 0.4918 0.39477 0.0
H741 H 0.46259 0.54121 0.26721 0.0
H742 H 0.43171 0.50877 0.28674 0.0
H743 H 0.42855 0.55516 0.3408 0.0
H744 H 0.45617 0.5884 0.32061 0.0
H745 H 0.3671 0.53104 0.33971 0.0
H746 H 0.49765 0.50773 0.3325 0.0
H747 H 0.5555 0.49915 0.31267 0.0
H748 H 0.49793 0.44188 0.27987 0.0
H749 H 0.43959 0.45049 0.29932 0.0
C750 C 0.37333 0.4218 0.39348 0.0
C751 C 0.33528 0.41461 0.39189 0.0
C752 C 0.38799 0.43997 0.38058 0.0
C753 C 0.36495 0.45147 0.36588 0.0
C754 C 0.32713 0.44401 0.36395 0.0
C755 C 0.31242 0.42579 0.37684 0.0
C756 C 0.38046 0.47152 0.35289 0.0
C757 C 0.41267 0.46715 0.34085 0.0
C758 C 0.36405 0.49493 0.35254 0.0
C759 C 0.33127 0.50115 0.36574 0.0
C760 C 0.29812 0.5102 0.35669 0.0
C761 C 0.26713 0.51597 0.36911 0.0
C762 C 0.26905 0.51289 0.39061 0.0
C763 C 0.30203 0.50413 0.39976 0.0
C764 C 0.3331 0.49836 0.38742 0.0
C765 C 0.4543 0.54473 0.28305 0.0
C766 C 0.46121 0.56752 0.29221 0.0
C767 C 0.43731 0.52597 0.29438 0.0
C768 C 0.42831 0.52925 0.31543 0.0
C769 C 0.43509 0.55209 0.32459 0.0
C770 C 0.45117 0.57105 0.31308 0.0
C771 C 0.41234 0.50891 0.32804 0.0
C772 C 0.3799 0.51317 0.33997 0.0
C773 C 0.42903 0.48553 0.32861 0.0
C774 C 0.46424 0.47995 0.31722 0.0
C775 C 0.49734 0.49344 0.32097 0.0
C776 C 0.53019 0.48856 0.30981 0.0
C777 C 0.53038 0.47 0.29499 0.0
C778 C 0.49774 0.45625 0.29136 0.0
C779 C 0.46478 0.46113 0.30245 0.0
H780 H 0.55581 0.46626 0.28632 0.0
H781 H 0.24503 0.51735 0.40019 0.0
H782 H 0.19113 0.05889 0.90996 0.0
H783 H 0.16312 0.02808 0.88688 0.0
H784 H 0.10458 0.08439 0.85351 0.0
H785 H 0.13349 0.11535 0.87619 0.0
H786 H 0.06025 0.04037 0.87059 0.0
H787 H 0.16619 0.06418 0.82817 0.0
H788 H 0.23354 0.07208 0.82135 0.0
H789 H 0.2593 0.99781 0.83596 0.0
H790 H 0.19214 0.98957 0.84321 0.0
H791 H 0.98128 0.96287 0.7931 0.0
H792 H 0.00934 0.99636 0.81295 0.0
H793 H 0.10553 0.95145 0.82711 0.0
H794 H 0.07846 0.9186 0.80627 0.0
H795 H 0.13089 0.99228 0.81861 0.0
H796 H 0.02919 0.96765 0.86352 0.0
H797 H 0.96434 0.95921 0.87547 0.0
H798 H 0.93234 0.03234 0.86046 0.0
H799 H 0.99684 0.04113 0.84823 0.0
C800 C 0.17247 0.06463 0.8976 0.0
C801 C 0.16436 0.08939 0.89478 0.0
C802 C 0.15665 0.0471 0.88443 0.0
C803 C 0.13196 0.05404 0.8685 0.0
C804 C 0.12372 0.07876 0.86569 0.0
C805 C 0.14021 0.09636 0.87857 0.0
C806 C 0.11349 0.03529 0.85544 0.0
C807 C 0.07538 0.03002 0.85895 0.0
C808 C 0.1338 0.02142 0.84085 0.0
C809 C 0.17418 0.02634 0.83648 0.0
C810 C 0.18626 0.04961 0.83016 0.0
C811 C 0.2244 0.05413 0.82616 0.0
C812 C 0.25071 0.03548 0.82829 0.0
C813 C 0.23891 0.01225 0.83436 0.0
C814 C 0.2008 0.00764 0.8384 0.0
C815 C 0.00822 0.96014 0.80067 0.0
C816 C 0.02767 0.93817 0.79825 0.0
C817 C 0.02423 0.97926 0.8121 0.0
C818 C 0.05943 0.97646 0.82192 0.0
C819 C 0.07845 0.95424 0.81972 0.0
C820 C 0.06289 0.93539 0.80789 0.0
C821 C 0.0772 0.99681 0.83386 0.0
C822 C 0.11537 1.0025 0.83015 0.0
C823 C 0.05706 0.01076 0.84865 0.0
C824 C 0.01776 1.00498 0.8548 0.0
C825 C 0.00819 0.98182 0.86252 0.0
C826 C 0.97154 0.97701 0.86942 0.0
C827 C 0.94431 0.99527 0.86877 0.0
C828 C 0.95349 0.01825 0.86098 0.0
C829 C 0.99007 0.02315 0.85407 0.0
H830 H 0.9161 0.99172 0.87439 0.0
H831 H 0.28022 0.03901 0.82517 0.0
H832 H 0.17739 0.15998 0.9727 0.0
H833 H 0.16342 0.15582 1.00977 0.0
H834 H 0.16998 0.0778 1.00433 0.0
H835 H 0.18539 0.08171 0.96762 0.0
H836 H 0.10466 0.09435 0.02532 0.0
H837 H 0.24035 0.10704 0.02561 0.0
H838 H 0.29861 0.12989 0.01762 0.0
H839 H 0.25792 0.19111 0.05221 0.0
H840 H 0.19915 0.16871 0.06016 0.0
H841 H 0.11897 0.04656 0.12526 0.0
H842 H 0.12754 0.05911 0.08942 0.0
H843 H 0.13839 0.13392 0.10894 0.0
H844 H 0.13214 0.12125 0.14523 0.0
H845 H 0.1896 0.12474 0.08096 0.0
H846 H 0.05752 0.11189 0.08423 0.0
H847 H 0.99845 0.09024 0.09272 0.0
H848 H 0.02875 0.03209 0.05162 0.0
H849 H 0.08833 0.05319 0.04312 0.0
C850 C 0.17644 0.14194 0.97942 0.0
C851 C 0.18232 0.12118 0.96702 0.0
C852 C 0.16819 0.13961 1.0006 0.0
C853 C 0.16548 0.11649 1.00976 0.0
C854 C 0.17155 0.0958 0.99752 0.0
C855 C 0.1802 0.09811 0.97647 0.0
C856 C 0.15624 0.1136 0.03211 0.0
C857 C 0.12329 0.10085 0.03752 0.0
C858 C 0.17983 0.12292 0.04799 0.0
C859 C 0.21519 0.13632 0.04326 0.0
C860 C 0.24368 0.12546 0.03135 0.0
C861 C 0.27683 0.13831 0.02686 0.0
C862 C 0.28191 0.16197 0.03434 0.0
C863 C 0.25391 0.1728 0.04639 0.0
C864 C 0.22069 0.16003 0.0509 0.0
C865 C 0.12354 0.06569 0.12205 0.0
C866 C 0.12513 0.08284 0.13826 0.0
C867 C 0.12787 0.07291 0.10143 0.0
C868 C 0.13304 0.09754 0.09635 0.0
C869 C 0.13427 0.11482 0.11243 0.0
C870 C 0.1303 0.10756 0.13318 0.0
C871 C 0.13837 0.10489 0.07428 0.0
C872 C 0.17054 0.11851 0.06886 0.0
C873 C 0.11372 0.09668 0.05837 0.0
C874 C 0.07756 0.08408 0.06313 0.0
C875 C 0.05171 0.09443 0.07708 0.0
C876 C 0.01811 0.08225 0.08189 0.0
C877 C 0.00988 0.05979 0.07274 0.0
C878 C 0.03517 0.04949 0.0587 0.0
C879 C 0.06885 0.06157 0.05385 0.0
H880 H 0.98389 0.05037 0.07652 0.0
H881 H 0.3076 0.17188 0.03086 0.0
H882 H 0.27237 0.36576 0.47469 0.0
H883 H 0.28965 0.36817 0.51132 0.0
H884 H 0.40056 0.39405 0.49452 0.0
H885 H 0.38437 0.39017 0.45788 0.0
H886 H 0.40705 0.36462 0.5256 0.0
H887 H 0.32774 0.43294 0.51103 0.0
H888 H 0.27055 0.45377 0.4987 0.0
H889 H 0.20395 0.41521 0.54371 0.0
H890 H 0.2607 0.3939 0.55612 0.0
H891 H 0.45594 0.42638 0.61957 0.0
H892 H 0.43854 0.41628 0.58375 0.0
H893 H 0.33905 0.37892 0.60572 0.0
H894 H 0.3564 0.38891 0.64163 0.0
H895 H 0.32531 0.41197 0.57299 0.0
H896 H 0.40858 0.34603 0.58892 0.0
H897 H 0.46773 0.32765 0.60126 0.0
H898 H 0.52935 0.36491 0.55342 0.0
H899 H 0.47061 0.38382 0.54098 0.0
C900 C 0.30069 0.37154 0.47872 0.0
C901 C 0.32681 0.37799 0.4632 0.0
C902 C 0.31039 0.37322 0.49975 0.0
C903 C 0.34618 0.38181 0.50578 0.0
C904 C 0.37267 0.38754 0.49033 0.0
C905 C 0.36317 0.38559 0.46933 0.0
C906 C 0.35588 0.38536 0.52811 0.0
C907 C 0.38931 0.37518 0.53588 0.0
C908 C 0.33253 0.3988 0.54173 0.0
C909 C 0.29839 0.41163 0.53434 0.0
C910 C 0.30085 0.42877 0.51819 0.0
C911 C 0.26853 0.44068 0.5112 0.0
C912 C 0.23362 0.43577 0.52037 0.0
C913 C 0.23099 0.41897 0.53659 0.0
C914 C 0.26323 0.40698 0.54362 0.0
C915 C 0.43041 0.41597 0.61676 0.0
C916 C 0.40752 0.40842 0.63339 0.0
C917 C 0.42061 0.4101 0.59631 0.0
C918 C 0.38759 0.39675 0.59209 0.0
C919 C 0.36469 0.38918 0.60866 0.0
C920 C 0.37474 0.39477 0.62914 0.0
C921 C 0.37646 0.39138 0.57032 0.0
C922 C 0.34283 0.40127 0.5627 0.0
C923 C 0.39989 0.37801 0.55678 0.0
C924 C 0.43522 0.36652 0.56414 0.0
C925 C 0.43478 0.35047 0.58114 0.0
C926 C 0.46823 0.33992 0.58813 0.0
C927 C 0.50229 0.34515 0.57817 0.0
C928 C 0.50295 0.36089 0.56114 0.0
C929 C 0.46958 0.37151 0.5541 0.0
H930 H 0.52816 0.33698 0.58361 0.0
H931 H 0.20863 0.44501 0.51495 0.0
H932 H 0.66536 0.34107 0.0585 0.0
H933 H 0.65121 0.33976 0.02131 0.0
H934 H 0.70456 0.41003 0.01358 0.0
H935 H 0.71669 0.41186 0.051 0.0
H936 H 0.64741 0.40889 0.99 0.0
H937 H 0.74847 0.35306 1.00101 0.0
H938 H 0.78133 0.31831 0.01691 0.0
H939 H 0.69432 0.26983 0.99531 0.0
H940 H 0.66066 0.30436 0.97951 0.0
H941 H 0.68664 0.39588 0.88108 0.0
H942 H 0.69394 0.39834 0.91892 0.0
H943 H 0.61101 0.34132 0.92642 0.0
H944 H 0.60313 0.33907 0.88859 0.0
H945 H 0.68183 0.33552 0.94953 0.0
H946 H 0.58324 0.3939 0.93704 0.0
H947 H 0.55521 0.42972 0.92011 0.0
H948 H 0.64505 0.47482 0.94344 0.0
H949 H 0.67397 0.43917 0.96024 0.0
C950 C 0.67381 0.35625 0.04881 0.0
C951 C 0.69223 0.37651 0.0575 0.0
C952 C 0.66598 0.35545 0.02754 0.0
C953 C 0.67761 0.37453 0.01442 0.0
C954 C 0.69535 0.39503 0.02326 0.0
C955 C 0.70235 0.39608 0.04462 0.0
C956 C 0.67168 0.37305 0.99152 0.0
C957 C 0.65542 0.39293 0.98119 0.0
C958 C 0.68161 0.35214 0.97986 0.0
C959 C 0.70186 0.33133 0.98926 0.0
C960 C 0.73622 0.33501 0.99977 0.0
C961 C 0.755 0.31536 1.00875 0.0
C962 C 0.73987 0.29189 1.00716 0.0
C963 C 0.70597 0.28802 0.99655 0.0
C964 C 0.68704 0.30762 0.98757 0.0
C965 C 0.67001 0.38388 0.89083 0.0
C966 C 0.64432 0.36728 0.88196 0.0
C967 C 0.67408 0.38537 0.91239 0.0
C968 C 0.65292 0.37006 0.92542 0.0
C969 C 0.62752 0.35331 0.9166 0.0
C970 C 0.62295 0.35211 0.89505 0.0
C971 C 0.65775 0.37129 0.94826 0.0
C972 C 0.67384 0.3514 0.95849 0.0
C973 C 0.64844 0.39234 0.95972 0.0
C974 C 0.63098 0.41381 0.94971 0.0
C975 C 0.59722 0.41141 0.9384 0.0
C976 C 0.58113 0.43169 0.92886 0.0
C977 C 0.59839 0.45452 0.93065 0.0
C978 C 0.63174 0.45712 0.94203 0.0
C979 C 0.64797 0.43688 0.95158 0.0
H980 H 0.58589 0.4702 0.92326 0.0
H981 H 0.75446 0.2767 0.01412 0.0
H982 H 0.78338 0.16136 0.55073 0.0
H983 H 0.80348 0.16384 0.51474 0.0
H984 H 0.90455 0.12425 0.52975 0.0
H985 H 0.88634 0.12363 0.56619 0.0
H986 H 0.923 0.1573 0.50463 0.0
H987 H 0.82444 0.09813 0.50341 0.0
H988 H 0.76126 0.08079 0.50993 0.0
H989 H 0.7113 0.13679 0.47269 0.0
H990 H 0.77416 0.15467 0.46617 0.0
H991 H 0.96115 0.12826 0.39753 0.0
H992 H 0.94175 0.12326 0.4339 0.0
H993 H 0.86326 0.18229 0.42707 0.0
H994 H 0.88307 0.18767 0.39087 0.0
H995 H 0.83445 0.13718 0.44737 0.0
H996 H 0.93741 0.19585 0.45014 0.0
H997 H 0.0024 0.20966 0.44301 0.0
H998 H 0.04597 0.14881 0.47701 0.0
H999 H 0.98118 0.13444 0.48407 0.0
C1000 C 0.81022 0.1535 0.54656 0.0
C1001 C 0.83311 0.14225 0.5616 0.0
C1002 C 0.82139 0.15454 0.52577 0.0
C1003 C 0.8552 0.14375 0.51928 0.0
C1004 C 0.87821 0.1326 0.53424 0.0
C1005 C 0.86744 0.13198 0.55512 0.0
C1006 C 0.86695 0.1446 0.49705 0.0
C1007 C 0.90369 0.15249 0.4922 0.0
C1008 C 0.84188 0.13857 0.48061 0.0
C1009 C 0.804 0.12787 0.48446 0.0
C1010 C 0.79996 0.10685 0.49674 0.0
C1011 C 0.76421 0.09691 0.50041 0.0
C1012 C 0.73228 0.10772 0.49177 0.0
C1013 C 0.73605 0.12846 0.47939 0.0
C1014 C 0.77174 0.13849 0.47569 0.0
C1015 C 0.93966 0.14007 0.4038 0.0
C1016 C 0.92368 0.1584 0.39146 0.0
C1017 C 0.92869 0.13725 0.42454 0.0
C1018 C 0.90113 0.15244 0.43313 0.0
C1019 C 0.88455 0.17039 0.4207 0.0
C1020 C 0.89601 0.17353 0.40011 0.0
C1021 C 0.89007 0.14998 0.45522 0.0
C1022 C 0.85357 0.14179 0.45995 0.0
C1023 C 0.91556 0.15518 0.47153 0.0
C1024 C 0.95447 0.16393 0.46743 0.0
C1025 C 0.96085 0.1853 0.45593 0.0
C1026 C 0.99765 0.19325 0.45194 0.0
C1027 C 0.0283 0.18008 0.4595 0.0
C1028 C 0.02221 0.15897 0.47113 0.0
C1029 C 0.98546 0.15092 0.47515 0.0
H1030 H 0.05677 0.18627 0.4564 0.0
H1031 H 0.70463 0.09999 0.49463 0.0
H1032 H 0.87802 0.87229 0.05973 0.0
H1033 H 0.89246 0.87416 0.02258 0.0
H1034 H 0.77467 0.88604 1.00916 0.0
H1035 H 0.76011 0.88269 0.04621 0.0
H1036 H 0.8002 0.85927 0.98065 0.0
H1037 H 0.84524 0.93343 1.01126 0.0
H1038 H 0.88155 0.95898 0.03572 0.0
H1039 H 0.98489 0.92867 0.01305 0.0
H1040 H 0.94914 0.90267 0.98864 0.0
H1041 H 0.82395 0.92729 0.88587 0.0
H1042 H 0.81266 0.91576 0.92216 0.0
H1043 H 0.91809 0.87717 0.92327 0.0
H1044 H 0.92897 0.88811 0.88669 0.0
H1045 H 0.90213 0.91499 0.95716 0.0
H1046 H 0.85197 0.84293 0.92396 0.0
H1047 H 0.81183 0.82103 0.89876 0.0
H1048 H 0.71301 0.85263 0.92583 0.0
H1049 H 0.75263 0.87503 0.95099 0.0
C1050 C 0.85528 0.87506 0.04875 0.0
C1051 C 0.81801 0.87742 0.05573 0.0
C1052 C 0.86352 0.87632 0.02755 0.0
C1053 C 0.83482 0.88084 0.01297 0.0
C1054 C 0.7974 0.88258 0.01999 0.0
C1055 C 0.78905 0.88071 0.04116 0.0
C1056 C 0.84374 0.88433 0.99052 0.0
C1057 C 0.82232 0.87163 0.97561 0.0
C1058 C 0.87291 0.90023 0.98371 0.0
C1059 C 0.89449 0.91591 0.99829 0.0
C1060 C 0.87569 0.93209 0.0116 0.0
C1061 C 0.89617 0.94667 0.02543 0.0
C1062 C 0.9355 0.9454 0.02598 0.0
C1063 C 0.95443 0.9296 0.01263 0.0
C1064 C 0.93407 0.91495 0.99879 0.0
C1065 C 0.84446 0.91611 0.89383 0.0
C1066 C 0.87724 0.90849 0.88356 0.0
C1067 C 0.838 0.90955 0.91448 0.0
C1068 C 0.86454 0.89563 0.92533 0.0
C1069 C 0.89727 0.88789 0.9151 0.0
C1070 C 0.90336 0.89402 0.89426 0.0
C1071 C 0.85851 0.89004 0.94759 0.0
C1072 C 0.88035 0.90247 0.96237 0.0
C1073 C 0.82919 0.8744 0.95426 0.0
C1074 C 0.8053 0.86083 0.93923 0.0
C1075 C 0.82171 0.84539 0.92441 0.0
C1076 C 0.79904 0.83285 0.91016 0.0
C1077 C 0.7599 0.83548 0.91066 0.0
C1078 C 0.74333 0.85062 0.92545 0.0
C1079 C 0.76588 0.86323 0.93972 0.0
H1080 H 0.7424 0.82575 0.89962 0.0
H1081 H 0.9513 0.9567 0.0367 0.0
H1082 H 0.69513 0.58332 0.55577 0.0
H1083 H 0.68142 0.57953 0.51879 0.0
H1084 H 0.66178 0.65679 0.51514 0.0
H1085 H 0.67386 0.66055 0.55241 0.0
H1086 H 0.60777 0.63321 0.49562 0.0
H1087 H 0.74176 0.63059 0.49408 0.0
H1088 H 0.80543 0.61708 0.504 0.0
H1089 H 0.77893 0.54458 0.48361 0.0
H1090 H 0.71488 0.55756 0.47383 0.0
H1091 H 0.59206 0.62786 0.38502 0.0
H1092 H 0.61703 0.63807 0.4195 0.0
H1093 H 0.62807 0.5617 0.43342 0.0
H1094 H 0.60348 0.55141 0.399 0.0
H1095 H 0.69007 0.5889 0.4464 0.0
H1096 H 0.55397 0.59179 0.45105 0.0
H1097 H 0.49076 0.60601 0.44093 0.0
H1098 H 0.52305 0.67959 0.45515 0.0
H1099 H 0.58667 0.66583 0.46509 0.0
C1100 C 0.68779 0.59953 0.54714 0.0
C1101 C 0.68544 0.62224 0.55712 0.0
C1102 C 0.6804 0.59738 0.5259 0.0
C1103 C 0.67096 0.61792 0.51407 0.0
C1104 C 0.66913 0.64069 0.52391 0.0
C1105 C 0.67637 0.64284 0.5452 0.0
C1106 C 0.66122 0.61534 0.49168 0.0
C1107 C 0.62617 0.62395 0.48478 0.0
C1108 C 0.68486 0.60294 0.47754 0.0
C1109 C 0.72339 0.59503 0.48337 0.0
C1110 C 0.7494 0.61172 0.49186 0.0
C1111 C 0.78558 0.60416 0.49743 0.0
C1112 C 0.79619 0.57998 0.49448 0.0
C1113 C 0.77066 0.5633 0.4859 0.0
C1114 C 0.73442 0.57076 0.48031 0.0
C1115 C 0.60028 0.61328 0.39535 0.0
C1116 C 0.5956 0.58883 0.38937 0.0
C1117 C 0.61432 0.61912 0.41507 0.0
C1118 C 0.6241 0.60063 0.42909 0.0
C1119 C 0.62065 0.57625 0.42287 0.0
C1120 C 0.60635 0.5704 0.40326 0.0
C1121 C 0.63657 0.60648 0.45054 0.0
C1122 C 0.67203 0.59845 0.45724 0.0
C1123 C 0.61345 0.61956 0.46446 0.0
C1124 C 0.57519 0.62782 0.45857 0.0
C1125 C 0.54769 0.61103 0.45185 0.0
C1126 C 0.51177 0.619 0.44618 0.0
C1127 C 0.50293 0.6437 0.44733 0.0
C1128 C 0.52996 0.66047 0.45422 0.0
C1129 C 0.56594 0.6526 0.45988 0.0
H1130 H 0.4751 0.64983 0.44294 0.0
H1131 H 0.82422 0.57416 0.4988 0.0
H1132 H 0.35543 0.67856 0.95808 0.0
H1133 H 0.37681 0.68061 0.99427 0.0
H1134 H 0.33539 0.60769 1.0046 0.0
H1135 H 0.31437 0.60543 0.96831 0.0
H1136 H 0.31419 0.64355 0.03572 0.0
H1137 H 0.42365 0.61314 1.00019 0.0
H1138 H 0.47277 0.6137 0.97315 0.0
H1139 H 0.5118 0.68334 0.99483 0.0
H1140 H 0.46251 0.68337 0.02181 0.0
H1141 H 0.3929 0.62724 0.1352 0.0
H1142 H 0.37505 0.62171 0.09902 0.0
H1143 H 0.44119 0.68478 0.08211 0.0
H1144 H 0.46174 0.68928 0.11802 0.0
H1145 H 0.44957 0.65271 0.05383 0.0
H1146 H 0.34107 0.68533 0.0879 0.0
H1147 H 0.29092 0.68747 0.11431 0.0
H1148 H 0.24863 0.61767 0.09496 0.0
H1149 H 0.29885 0.61497 0.06861 0.0
C1150 C 0.35084 0.66301 0.9681 0.0
C1151 C 0.33331 0.64183 0.96043 0.0
C1152 C 0.36317 0.66416 0.9887 0.0
C1153 C 0.35779 0.64426 1.00204 0.0
C1154 C 0.33983 0.62321 0.99451 0.0
C1155 C 0.32803 0.6219 0.97381 0.0
C1156 C 0.3708 0.64553 0.02389 0.0
C1157 C 0.34381 0.6452 0.03976 0.0
C1158 C 0.40934 0.64841 0.02902 0.0
C1159 C 0.43914 0.64836 0.01289 0.0
C1160 C 0.44249 0.62868 0.99907 0.0
C1161 C 0.4704 0.62887 0.98378 0.0
C1162 C 0.49533 0.64857 0.98224 0.0
C1163 C 0.49245 0.6681 0.99602 0.0
C1164 C 0.46454 0.66801 1.01133 0.0
C1165 C 0.40437 0.6397 0.1238 0.0
C1166 C 0.42874 0.65882 0.12973 0.0
C1167 C 0.39356 0.63673 0.10307 0.0
C1168 C 0.40599 0.65315 0.08781 0.0
C1169 C 0.43091 0.67194 0.09357 0.0
C1170 C 0.4423 0.67468 0.11424 0.0
C1171 C 0.39293 0.65086 0.06589 0.0
C1172 C 0.41991 0.65102 0.04993 0.0
C1173 C 0.35425 0.64824 0.06065 0.0
C1174 C 0.32395 0.64984 0.07643 0.0
C1175 C 0.32124 0.67036 0.08938 0.0
C1176 C 0.29278 0.67169 0.10432 0.0
C1177 C 0.26667 0.65269 0.10635 0.0
C1178 C 0.26891 0.63236 0.0934 0.0
C1179 C 0.29734 0.63092 0.07845 0.0
H1180 H 0.24466 0.65375 0.11792 0.0
H1181 H 0.51693 0.64868 0.97039 0.0
H1182 H 0.18224 0.83973 0.46888 0.0
H1183 H 0.16788 0.84237 0.50592 0.0
H1184 H 0.19245 0.91934 0.50482 0.0
H1185 H 0.20878 0.91659 0.46816 0.0
H1186 H 0.2206 0.90054 0.53835 0.0
H1187 H 0.10015 0.89549 0.50399 0.0
H1188 H 0.05188 0.87729 0.48107 0.0
H1189 H 0.05003 0.81275 0.5186 0.0
H1190 H 0.09869 0.83046 0.5416 0.0
H1191 H 0.12778 0.94221 0.62748 0.0
H1192 H 0.1417 0.9335 0.59117 0.0
H1193 H 0.1307 0.85661 0.60309 0.0
H1194 H 0.11745 0.86515 0.63973 0.0
H1195 H 0.09704 0.87175 0.56517 0.0
H1196 H 0.21551 0.87907 0.60081 0.0
H1197 H 0.26204 0.89888 0.62384 0.0
H1198 H 0.26588 0.96102 0.58351 0.0
H1199 H 0.2189 0.94172 0.56039 0.0
C1200 C 0.18517 0.85715 0.47659 0.0
C1201 C 0.19644 0.87799 0.46544 0.0
C1202 C 0.17646 0.85869 0.49773 0.0
C1203 C 0.17838 0.88115 0.50813 0.0
C1204 C 0.1905 0.90183 0.49716 0.0
C1205 C 0.1995 0.90027 0.4761 0.0
C1206 C 0.16776 0.88332 0.5304 0.0
C1207 C 0.19342 0.89443 0.54411 0.0
C1208 C 0.13266 0.87483 0.53815 0.0
C1209 C 0.10336 0.86419 0.52437 0.0
C1210 C 0.08966 0.87734 0.50726 0.0
C1211 C 0.0622 0.86713 0.49427 0.0
C1212 C 0.04798 0.84385 0.49834 0.0
C1213 C 0.06113 0.83076 0.51545 0.0
C1214 C 0.08863 0.84088 0.52847 0.0
C1215 C 0.12837 0.92342 0.62245 0.0
C1216 C 0.12204 0.90436 0.63663 0.0
C1217 C 0.13618 0.91849 0.60165 0.0
C1218 C 0.13781 0.8944 0.59452 0.0
C1219 C 0.12968 0.87533 0.60832 0.0
C1220 C 0.12198 0.88025 0.62923 0.0
C1221 C 0.14961 0.88934 0.57286 0.0
C1222 C 0.12428 0.87766 0.55934 0.0
C1223 C 0.18488 0.89748 0.56521 0.0
C1224 C 0.21346 0.90902 0.57896 0.0
C1225 C 0.22608 0.89703 0.59693 0.0
C1226 C 0.25256 0.90816 0.60999 0.0
C1227 C 0.26685 0.93121 0.60516 0.0
C1228 C 0.25476 0.94316 0.58723 0.0
C1229 C 0.22823 0.93213 0.57414 0.0
H1230 H 0.28735 0.9398 0.61529 0.0
H1231 H 0.02671 0.83597 0.48827 0.0
H1232 H 0.18406 0.34251 0.35441 0.0
H1233 H 0.14977 0.30791 0.33947 0.0
H1234 H 0.19871 0.26046 0.38538 0.0
H1235 H 0.2334 0.29505 0.40026 0.0
H1236 H 0.2036 0.24105 0.34757 0.0
H1237 H 0.10556 0.27589 0.38791 0.0
H1238 H 0.06425 0.30832 0.40104 0.0
H1239 H 0.02098 0.31995 0.33959 0.0
H1240 H 0.06243 0.28781 0.32602 0.0
H1241 H 0.09151 0.14114 0.30988 0.0
H1242 H 0.12423 0.17168 0.33089 0.0
H1243 H 0.06749 0.22863 0.29706 0.0
H1244 H 0.03195 0.19781 0.27763 0.0
H1245 H 0.06617 0.24094 0.33357 0.0
H1246 H 0.18974 0.21961 0.29507 0.0
H1247 H 0.23962 0.19134 0.28372 0.0
H1248 H 0.23422 0.15451 0.34238 0.0
H1249 H 0.18586 0.18341 0.35442 0.0
C1250 C 0.18727 0.32471 0.3614 0.0
C1251 C 0.21133 0.32149 0.37849 0.0
C1252 C 0.1675 0.30498 0.35293 0.0
C1253 C 0.17124 0.28159 0.36145 0.0
C1254 C 0.19524 0.27834 0.3786 0.0
C1255 C 0.21501 0.29813 0.38711 0.0
C1256 C 0.15166 0.26043 0.35169 0.0
C1257 C 0.17342 0.24088 0.34474 0.0
C1258 C 0.11239 0.26023 0.34781 0.0
C1259 C 0.08735 0.27955 0.35592 0.0
C1260 C 0.08746 0.28549 0.37716 0.0
C1261 C 0.06397 0.3038 0.38469 0.0
C1262 C 0.04006 0.31622 0.37115 0.0
C1263 C 0.03953 0.31032 0.35006 0.0
C1264 C 0.06299 0.29204 0.34244 0.0
C1265 C 0.08623 0.16024 0.307 0.0
C1266 C 0.0591 0.16724 0.29234 0.0
C1267 C 0.10553 0.1778 0.31875 0.0
C1268 C 0.09942 0.20278 0.31539 0.0
C1269 C 0.07286 0.2096 0.30019 0.0
C1270 C 0.05251 0.19203 0.28904 0.0
C1271 C 0.11837 0.22188 0.32843 0.0
C1272 C 0.09636 0.24104 0.33627 0.0
C1273 C 0.15745 0.22176 0.33317 0.0
C1274 C 0.18353 0.2031 0.32535 0.0
C1275 C 0.19891 0.20526 0.30539 0.0
C1276 C 0.22725 0.18939 0.29897 0.0
C1277 C 0.23968 0.17094 0.3122 0.0
C1278 C 0.22435 0.16865 0.33207 0.0
C1279 C 0.1968 0.18492 0.33878 0.0
H1280 H 0.26134 0.15853 0.3071 0.0
H1281 H 0.0219 0.33039 0.37702 0.0
H1282 H 0.26538 0.20926 0.90247 0.0
H1283 H 0.30008 0.24356 0.8871 0.0
H1284 H 0.34282 0.19611 0.83938 0.0
H1285 H 0.3085 0.16185 0.85474 0.0
H1286 H 0.39797 0.22475 0.85493 0.0
H1287 H 0.27094 0.23527 0.82961 0.0
H1288 H 0.20221 0.24051 0.83292 0.0
H1289 H 0.21989 0.30598 0.8681 0.0
H1290 H 0.28877 0.30094 0.86523 0.0
H1291 H 0.46311 0.30781 0.77923 0.0
H1292 H 0.4289 0.27602 0.79811 0.0
H1293 H 0.38955 0.32949 0.84196 0.0
H1294 H 0.42287 0.36148 0.82266 0.0
H1295 H 0.33337 0.29937 0.83073 0.0
H1296 H 0.46006 0.29032 0.85482 0.0
H1297 H 0.52885 0.2857 0.85121 0.0
H1298 H 0.51224 0.21808 0.81897 0.0
H1299 H 0.4433 0.22247 0.82211 0.0
C1300 C 0.28223 0.20617 0.88873 0.0
C1301 C 0.2843 0.18289 0.87977 0.0
C1302 C 0.30192 0.22579 0.87992 0.0
C1303 C 0.32387 0.22245 0.86199 0.0
C1304 C 0.32614 0.19914 0.85321 0.0
C1305 C 0.30645 0.1796 0.86196 0.0
C1306 C 0.34468 0.24307 0.85228 0.0
C1307 C 0.38378 0.24098 0.84949 0.0
C1308 C 0.32638 0.26454 0.84567 0.0
C1309 C 0.28499 0.26756 0.84742 0.0
C1310 C 0.26017 0.25066 0.83821 0.0
C1311 C 0.22119 0.25362 0.83998 0.0
C1312 C 0.20669 0.27352 0.85077 0.0
C1313 C 0.23115 0.29054 0.85978 0.0
C1314 C 0.27016 0.28765 0.85808 0.0
C1315 C 0.44714 0.31274 0.79289 0.0
C1316 C 0.4455 0.33705 0.79947 0.0
C1317 C 0.4278 0.29456 0.80375 0.0
C1318 C 0.40697 0.30031 0.82161 0.0
C1319 C 0.40548 0.32462 0.82826 0.0
C1320 C 0.42478 0.34282 0.81735 0.0
C1321 C 0.38659 0.28092 0.83322 0.0
C1322 C 0.34761 0.28324 0.83636 0.0
C1323 C 0.40502 0.25969 0.84025 0.0
C1324 C 0.44649 0.25682 0.83857 0.0
C1325 C 0.47107 0.27453 0.84685 0.0
C1326 C 0.51009 0.27195 0.8449 0.0
C1327 C 0.5249 0.25163 0.83483 0.0
C1328 C 0.50072 0.23381 0.82675 0.0
C1329 C 0.46167 0.23633 0.82863 0.0
H1330 H 0.55512 0.24967 0.83333 0.0
H1331 H 0.1765 0.27578 0.85212 0.0
H1332 H 0.76232 0.22235 0.63975 0.0
H1333 H 0.73283 0.25539 0.65933 0.0
H1334 H 0.64147 0.20715 0.67639 0.0
H1335 H 0.67179 0.17393 0.65768 0.0
H1336 H 0.67139 0.27926 0.65684 0.0
H1337 H 0.60619 0.21985 0.72273 0.0
H1338 H 0.62082 0.18229 0.74198 0.0
H1339 H 0.7385 0.19173 0.72841 0.0
H1340 H 0.72466 0.22952 0.70933 0.0
H1341 H 0.52832 0.34467 0.70701 0.0
H1342 H 0.56673 0.31502 0.68888 0.0
H1343 H 0.63693 0.30721 0.7432 0.0
H1344 H 0.59709 0.33571 0.76197 0.0
H1345 H 0.62579 0.26539 0.72865 0.0
H1346 H 0.66553 0.33954 0.69764 0.0
H1347 H 0.65844 0.37931 0.68043 0.0
H1348 H 0.60647 0.34453 0.62791 0.0
H1349 H 0.61277 0.30456 0.64492 0.0
C1350 C 0.73595 0.21886 0.6477 0.0
C1351 C 0.71935 0.19558 0.64733 0.0
C1352 C 0.71908 0.23775 0.65886 0.0
C1353 C 0.68521 0.23373 0.6697 0.0
C1354 C 0.66809 0.21062 0.66869 0.0
C1355 C 0.68527 0.19167 0.65786 0.0
C1356 C 0.66762 0.25358 0.68203 0.0
C1357 C 0.66156 0.27624 0.67257 0.0
C1358 C 0.65567 0.25 0.70279 0.0
C1359 C 0.66431 0.22741 0.71444 0.0
C1360 C 0.63521 0.21397 0.72394 0.0
C1361 C 0.64336 0.19263 0.7348 0.0
C1362 C 0.68055 0.18459 0.73637 0.0
C1363 C 0.70969 0.19793 0.72713 0.0
C1364 C 0.7017 0.2193 0.71626 0.0
C1365 C 0.55193 0.33672 0.71518 0.0
C1366 C 0.55961 0.3428 0.73599 0.0
C1367 C 0.57417 0.31986 0.70466 0.0
C1368 C 0.60532 0.30914 0.71447 0.0
C1369 C 0.61317 0.31524 0.73522 0.0
C1370 C 0.59044 0.33172 0.74591 0.0
C1371 C 0.62876 0.29092 0.70332 0.0
C1372 C 0.63587 0.26852 0.71299 0.0
C1373 C 0.64288 0.29508 0.68305 0.0
C1374 C 0.63939 0.31906 0.67263 0.0
C1375 C 0.6524 0.34038 0.68247 0.0
C1376 C 0.64854 0.36296 0.67274 0.0
C1377 C 0.63196 0.36445 0.65311 0.0
C1378 C 0.6193 0.34334 0.64312 0.0
C1379 C 0.62305 0.32071 0.65279 0.0
H1380 H 0.62897 0.38195 0.64561 0.0
H1381 H 0.68679 0.16805 0.74477 0.0
H1382 H 0.83941 0.3443 0.16271 0.0
H1383 H 0.87147 0.30992 0.17909 0.0
H1384 H 0.80361 0.25991 0.14313 0.0
H1385 H 0.77153 0.29424 0.12665 0.0
H1386 H 0.80659 0.24738 0.1844 0.0
H1387 H 0.89317 0.26837 0.13025 0.0
H1388 H 0.93401 0.29557 0.10962 0.0
H1389 H 1.00062 0.31141 0.16372 0.0
H1390 H 0.95983 0.28457 0.18476 0.0
H1391 H 0.95019 0.14794 0.20116 0.0
H1392 H 0.9172 0.17912 0.18107 0.0
H1393 H 0.9122 0.22492 0.23528 0.0
H1394 H 0.94687 0.19436 0.25528 0.0
H1395 H 0.94545 0.23704 0.18254 0.0
H1396 H 0.80774 0.23619 0.2275 0.0
H1397 H 0.76358 0.20818 0.24521 0.0
H1398 H 0.79806 0.14993 0.20521 0.0
H1399 H 0.84236 0.17759 0.18733 0.0
C1400 C 0.83151 0.32595 0.15824 0.0
C1401 C 0.80316 0.32192 0.14338 0.0
C1402 C 0.84989 0.30636 0.16754 0.0
C1403 C 0.84011 0.28237 0.1622 0.0
C1404 C 0.81162 0.27829 0.14743 0.0
C1405 C 0.79342 0.29791 0.13798 0.0
C1406 C 0.85901 0.26158 0.17245 0.0
C1407 C 0.83694 0.24511 0.18389 0.0
C1408 C 0.8986 0.25849 0.17172 0.0
C1409 C 0.92321 0.27463 0.15912 0.0
C1410 C 0.91633 0.27782 0.13779 0.0
C1411 C 0.93951 0.29314 0.12601 0.0
C1412 C 0.96984 0.30526 0.13536 0.0
C1413 C 0.97709 0.30204 0.1565 0.0
C1414 C 0.95397 0.28675 0.16836 0.0
C1415 C 0.94229 0.16471 0.20879 0.0
C1416 C 0.95112 0.1687 0.22982 0.0
C1417 C 0.92328 0.1824 0.19732 0.0
C1418 C 0.91205 0.20412 0.20679 0.0
C1419 C 0.9204 0.20811 0.2278 0.0
C1420 C 0.94005 0.19062 0.23919 0.0
C1421 C 0.89299 0.22315 0.19454 0.0
C1422 C 0.91511 0.23938 0.18292 0.0
C1423 C 0.85346 0.22588 0.19486 0.0
C1424 C 0.82864 0.20884 0.2063 0.0
C1425 C 0.80604 0.21735 0.22262 0.0
C1426 C 0.78093 0.20157 0.23264 0.0
C1427 C 0.77797 0.1773 0.22632 0.0
C1428 C 0.8004 0.16872 0.21011 0.0
C1429 C 0.82571 0.18439 0.20013 0.0
H1430 H 0.75838 0.16514 0.23403 0.0
H1431 H 0.98776 0.31711 0.12622 0.0
H1432 H 0.79709 0.6934 0.62067 0.0
H1433 H 0.84106 0.72359 0.63498 0.0
H1434 H 0.77021 0.73125 0.68896 0.0
H1435 H 0.72677 0.7006 0.67495 0.0
H1436 H 0.83561 0.76966 0.64439 0.0
H1437 H 0.82234 0.74374 0.73153 0.0
H1438 H 0.81053 0.70737 0.75304 0.0
H1439 H 0.85179 0.66162 0.70416 0.0
H1440 H 0.86437 0.69772 0.68248 0.0
H1441 H 0.90268 0.86468 0.7094 0.0
H1442 H 0.86752 0.83293 0.69103 0.0
H1443 H 0.95068 0.78012 0.70945 0.0
H1444 H 0.98495 0.81175 0.72867 0.0
H1445 H 0.88497 0.76219 0.71617 0.0
H1446 H 0.94147 0.80156 0.65785 0.0
H1447 H 0.95905 0.83624 0.63552 0.0
H1448 H 0.84209 0.85141 0.6246 0.0
H1449 H 0.82379 0.81701 0.64709 0.0
C1450 C 0.79091 0.70151 0.63559 0.0
C1451 C 0.75855 0.6946 0.64676 0.0
C1452 C 0.81604 0.71881 0.64374 0.0
C1453 C 0.80929 0.72951 0.66319 0.0
C1454 C 0.77652 0.72293 0.67413 0.0
C1455 C 0.7516 0.70551 0.66607 0.0
C1456 C 0.83632 0.74762 0.67203 0.0
C1457 C 0.8465 0.76797 0.66006 0.0
C1458 C 0.8512 0.74527 0.69235 0.0
C1459 C 0.84392 0.72344 0.70531 0.0
C1460 C 0.82901 0.72592 0.7254 0.0
C1461 C 0.82217 0.70535 0.73762 0.0
C1462 C 0.83028 0.68219 0.72994 0.0
C1463 C 0.84537 0.67956 0.71006 0.0
C1464 C 0.85232 0.70007 0.69779 0.0
C1465 C 0.91359 0.84632 0.70934 0.0
C1466 C 0.94627 0.84059 0.72059 0.0
C1467 C 0.89367 0.8282 0.69868 0.0
C1468 C 0.90653 0.80408 0.69867 0.0
C1469 C 0.9401 0.79856 0.70926 0.0
C1470 C 0.95987 0.81667 0.72006 0.0
C1471 C 0.88388 0.78442 0.68864 0.0
C1472 C 0.87434 0.76381 0.70044 0.0
C1473 C 0.87037 0.78626 0.668 0.0
C1474 C 0.88127 0.8068 0.65427 0.0
C1475 C 0.91949 0.81238 0.65078 0.0
C1476 C 0.92959 0.83197 0.63808 0.0
C1477 C 0.9017 0.84604 0.62867 0.0
C1478 C 0.86366 0.8405 0.6319 0.0
C1479 C 0.85341 0.82093 0.64459 0.0
H1480 H 0.90958 0.86122 0.61886 0.0
H1481 H 0.82495 0.66629 0.73942 0.0
H1482 H 0.73019 0.79929 0.12662 0.0
H1483 H 0.69551 0.76683 0.14448 0.0
H1484 H 0.63724 0.82051 0.1811 0.0
H1485 H 0.67279 0.85289 0.16376 0.0
H1486 H 0.65857 0.78639 0.20522 0.0
H1487 H 0.59424 0.7879 0.13998 0.0
H1488 H 0.58774 0.78663 0.10188 0.0
H1489 H 0.6341 0.71467 0.10085 0.0
H1490 H 0.64136 0.71564 0.13894 0.0
H1491 H 0.50522 0.69596 0.23055 0.0
H1492 H 0.5338 0.72983 0.21141 0.0
H1493 H 0.64034 0.69263 0.21104 0.0
H1494 H 0.61106 0.65765 0.22835 0.0
H1495 H 0.59065 0.71944 0.16918 0.0
H1496 H 0.6875 0.75536 0.23395 0.0
H1497 H 0.68924 0.76243 0.27176 0.0
H1498 H 0.56829 0.7644 0.27337 0.0
H1499 H 0.56593 0.7585 0.2355 0.0
C1500 C 0.70981 0.80415 0.13839 0.0
C1501 C 0.70407 0.82863 0.14379 0.0
C1502 C 0.68983 0.78557 0.14853 0.0
C1503 C 0.66334 0.79115 0.16403 0.0
C1504 C 0.65749 0.81566 0.16925 0.0
C1505 C 0.67771 0.83417 0.15929 0.0
C1506 C 0.6428 0.77155 0.17545 0.0
C1507 C 0.64364 0.77184 0.19726 0.0
C1508 C 0.62293 0.75257 0.16519 0.0
C1509 C 0.61869 0.75195 0.14229 0.0
C1510 C 0.60334 0.77188 0.13161 0.0
C1511 C 0.59946 0.7712 0.11002 0.0
C1512 C 0.61059 0.75061 0.09895 0.0
C1513 C 0.62554 0.73062 0.10945 0.0
C1514 C 0.62952 0.73122 0.13104 0.0
C1515 C 0.5346 0.69479 0.22617 0.0
C1516 C 0.55595 0.67413 0.23119 0.0
C1517 C 0.55098 0.71431 0.21546 0.0
C1518 C 0.58934 0.71393 0.21026 0.0
C1519 C 0.61082 0.69343 0.21527 0.0
C1520 C 0.59415 0.67357 0.22539 0.0
C1521 C 0.60672 0.73444 0.19875 0.0
C1522 C 0.6056 0.7341 0.17699 0.0
C1523 C 0.62554 0.75372 0.20902 0.0
C1524 C 0.62652 0.75579 0.23195 0.0
C1525 C 0.66128 0.75718 0.2424 0.0
C1526 C 0.66239 0.76129 0.2638 0.0
C1527 C 0.62889 0.76387 0.27495 0.0
C1528 C 0.59421 0.76231 0.26473 0.0
C1529 C 0.59298 0.75854 0.24328 0.0
H1530 H 0.62981 0.76697 0.29154 0.0
H1531 H 0.60756 0.75011 0.08224 0.0
H1532 H 0.29673 0.79889 0.40296 0.0
H1533 H 0.33622 0.76722 0.38752 0.0
H1534 H 0.28595 0.78099 0.32765 0.0
H1535 H 0.24593 0.81213 0.3431 0.0
H1536 H 0.28937 0.73416 0.33402 0.0
H1537 H 0.37627 0.80138 0.34106 0.0
H1538 H 0.41124 0.83352 0.35979 0.0
H1539 H 0.46244 0.7797 0.39883 0.0
H1540 H 0.42737 0.74724 0.38049 0.0
H1541 H 0.4385 0.69057 0.26652 0.0
H1542 H 0.39836 0.71829 0.28627 0.0
H1543 H 0.41441 0.67488 0.3412 0.0
H1544 H 0.45284 0.64621 0.32131 0.0
H1545 H 0.42886 0.73396 0.33971 0.0
H1546 H 0.34004 0.66698 0.33267 0.0
H1547 H 0.30192 0.63568 0.31478 0.0
H1548 H 0.25434 0.69033 0.27519 0.0
H1549 H 0.29249 0.72194 0.29276 0.0
C1550 C 0.29417 0.79514 0.38651 0.0
C1551 C 0.26827 0.80793 0.37418 0.0
C1552 C 0.31688 0.77713 0.37768 0.0
C1553 C 0.31434 0.77185 0.35636 0.0
C1554 C 0.28841 0.78467 0.34413 0.0
C1555 C 0.26562 0.80249 0.35295 0.0
C1556 C 0.33797 0.75268 0.34668 0.0
C1557 C 0.31989 0.7343 0.33516 0.0
C1558 C 0.37779 0.75243 0.34853 0.0
C1559 C 0.39887 0.77192 0.35956 0.0
C1560 C 0.39474 0.79642 0.35375 0.0
C1561 C 0.41463 0.81469 0.36428 0.0
C1562 C 0.43895 0.80867 0.38053 0.0
C1563 C 0.44353 0.78434 0.38626 0.0
C1564 C 0.42368 0.766 0.3758 0.0
C1565 C 0.43293 0.68663 0.2827 0.0
C1566 C 0.44845 0.66599 0.29226 0.0
C1567 C 0.4102 0.70257 0.29397 0.0
C1568 C 0.4033 0.69846 0.3151 0.0
C1569 C 0.41932 0.67822 0.32486 0.0
C1570 C 0.44135 0.66195 0.31348 0.0
C1571 C 0.3801 0.71581 0.327 0.0
C1572 C 0.39831 0.73385 0.33879 0.0
C1573 C 0.34043 0.71587 0.32535 0.0
C1574 C 0.31948 0.69675 0.31384 0.0
C1575 C 0.32195 0.67226 0.31992 0.0
C1576 C 0.30007 0.6545 0.30997 0.0
C1577 C 0.2756 0.66103 0.29392 0.0
C1578 C 0.27322 0.68531 0.28766 0.0
C1579 C 0.29495 0.70314 0.29761 0.0
H1580 H 0.25859 0.64728 0.28628 0.0
H1581 H 0.45433 0.82284 0.38866 0.0
H1582 H 0.19871 0.67476 0.84848 0.0
H1583 H 0.16429 0.70862 0.83296 0.0
H1584 H 0.19678 0.75479 0.88418 0.0
H1585 H 0.23163 0.72088 0.89978 0.0
H1586 H 0.11885 0.75794 0.87277 0.0
H1587 H 0.24066 0.76322 0.841 0.0
H1588 H 0.29652 0.74758 0.82273 0.0
H1589 H 0.22742 0.72736 0.77065 0.0
H1590 H 0.17103 0.74255 0.78874 0.0
H1591 H 0.04943 0.86288 0.81881 0.0
H1592 H 0.08944 0.83492 0.83864 0.0
H1593 H 0.08168 0.7824 0.78895 0.0
H1594 H 0.04232 0.81037 0.76911 0.0
H1595 H 0.15215 0.78632 0.80198 0.0
H1596 H 0.03028 0.77699 0.83398 0.0
H1597 H 0.97302 0.79158 0.85157 0.0
H1598 H 0.04012 0.81791 0.90247 0.0
H1599 H 0.0979 0.80382 0.885 0.0
C1600 C 0.19852 0.69214 0.85642 0.0
C1601 C 0.21795 0.69524 0.87524 0.0
C1602 C 0.17894 0.71145 0.84754 0.0
C1603 C 0.17827 0.73424 0.85734 0.0
C1604 C 0.19706 0.73733 0.87637 0.0
C1605 C 0.21704 0.718 0.8852 0.0
C1606 C 0.15803 0.7547 0.84744 0.0
C1607 C 0.12649 0.76452 0.85746 0.0
C1608 C 0.16766 0.76288 0.82731 0.0
C1609 C 0.20157 0.75386 0.81631 0.0
C1610 C 0.23732 0.75527 0.82572 0.0
C1611 C 0.26909 0.74651 0.81538 0.0
C1612 C 0.26551 0.73644 0.79555 0.0
C1613 C 0.23015 0.73516 0.78601 0.0
C1614 C 0.19828 0.74386 0.79629 0.0
C1615 C 0.05621 0.84529 0.81225 0.0
C1616 C 0.04318 0.83877 0.79243 0.0
C1617 C 0.07902 0.82936 0.82355 0.0
C1618 C 0.08847 0.80651 0.81531 0.0
C1619 C 0.07502 0.79998 0.79556 0.0
C1620 C 0.05252 0.81593 0.78426 0.0
C1621 C 0.11236 0.78922 0.82708 0.0
C1622 C 0.14469 0.78 0.8174 0.0
C1623 C 0.1032 0.78145 0.84743 0.0
C1624 C 0.06845 0.78959 0.85809 0.0
C1625 C 0.03286 0.78604 0.84886 0.0
C1626 C 1.0003 0.79421 0.85881 0.0
C1627 C 0.00294 0.80572 0.8781 0.0
C1628 C 0.03813 0.80902 0.88751 0.0
C1629 C 0.07079 0.80095 0.8776 0.0
H1630 H 0.97771 0.81205 0.88578 0.0
H1631 H 0.29014 0.72967 0.78757 0.0
loop_
_geom_bond_atom_site_label_1
_geom_bond_atom_site_label_2
_geom_bond_distance
_geom_bond_site_symmetry_2
_ccdc_geom_bond_type
H0 C5 0.930 . S
H1 C8 0.930 . S
H2 C10 0.930 . S
H3 C4 1.016 . S
C4 H3 1.016 . S
C4 N11 1.286 . S
C5 H0 0.930 . S
C5 C6 1.397 . S
C5 C7 1.361 . S
C6 C5 1.397 . S
C6 C10 1.390 . S
C7 C5 1.361 . S
C7 C8 1.393 . S
C7 N11 1.413 . S
C8 H1 0.930 . S
C8 C7 1.393 . S
C8 C9 1.399 . S
C9 C8 1.399 . S
C9 C10 1.381 . S
C10 H2 0.930 . S
C10 C6 1.390 . S
C10 C9 1.381 . S
N11 C4 1.286 . S
N11 C7 1.413 . S
H12 C17 0.930 . S
H13 C20 0.930 . S
H14 C22 0.930 . S
H15 C16 1.016 . S
C16 H15 1.016 . S
C16 N23 1.286 . S
C17 H12 0.930 . S
C17 C18 1.397 . S
C17 C19 1.361 . S
C18 C17 1.397 . S
C18 C22 1.390 . S
C19 C17 1.361 . S
C19 C20 1.393 . S
C19 N23 1.413 . S
C20 H13 0.930 . S
C20 C19 1.393 . S
C20 C21 1.399 . S
C21 C20 1.399 . S
C21 C22 1.381 . S
C22 H14 0.930 . S
C22 C18 1.390 . S
C22 C21 1.381 . S
N23 C16 1.286 . S
N23 C19 1.413 . S
H24 C29 0.930 . S
H25 C32 0.930 . S
H26 C34 0.930 . S
H27 C28 1.016 . S
C28 H27 1.016 . S
C28 N35 1.286 . S
C29 H24 0.930 . S
C29 C30 1.397 . S
C29 C31 1.361 . S
C30 C29 1.397 . S
C30 C34 1.390 . S
C31 C29 1.361 . S
C31 C32 1.393 . S
C31 N35 1.413 . S
C32 H25 0.930 . S
C32 C31 1.393 . S
C32 C33 1.399 . S
C33 C32 1.399 . S
C33 C34 1.381 . S
C34 H26 0.930 . S
C34 C30 1.390 . S
C34 C33 1.381 . S
N35 C28 1.286 . S
N35 C31 1.413 . S
H36 C41 0.930 . S
H37 C44 0.930 . S
H38 C46 0.930 . S
H39 C40 1.016 . S
C40 H39 1.016 . S
C40 N47 1.286 . S
C41 H36 0.930 . S
C41 C42 1.397 . S
C41 C43 1.361 . S
C42 C41 1.397 . S
C42 C46 1.390 . S
C43 C41 1.361 . S
C43 C44 1.393 . S
C43 N47 1.413 . S
C44 H37 0.930 . S
C44 C43 1.393 . S
C44 C45 1.399 . S
C45 C44 1.399 . S
C45 C46 1.381 . S
C46 H38 0.930 . S
C46 C42 1.390 . S
C46 C45 1.381 . S
N47 C40 1.286 . S
N47 C43 1.413 . S
H48 C53 0.930 . S
H49 C56 0.930 . S
H50 C58 0.930 . S
H51 C52 1.016 . S
C52 H51 1.016 . S
C52 N59 1.286 . S
C53 H48 0.930 . S
C53 C54 1.397 . S
C53 C55 1.361 . S
C54 C53 1.397 . S
C54 C58 1.390 . S
C55 C53 1.361 . S
C55 C56 1.393 . S
C55 N59 1.413 . S
C56 H49 0.930 . S
C56 C55 1.393 . S
C56 C57 1.399 . S
C57 C56 1.399 . S
C57 C58 1.381 . S
C58 H50 0.930 . S
C58 C54 1.390 . S
C58 C57 1.381 . S
N59 C52 1.286 . S
N59 C55 1.413 . S
H60 C65 0.930 . S
H61 C68 0.930 . S
H62 C70 0.930 . S
H63 C64 1.016 . S
C64 H63 1.016 . S
C64 N71 1.286 . S
C65 H60 0.930 . S
C65 C66 1.397 . S
C65 C67 1.361 . S
C66 C65 1.397 . S
C66 C70 1.390 . S
C67 C65 1.361 . S
C67 C68 1.393 . S
C67 N71 1.413 . S
C68 H61 0.930 . S
C68 C67 1.393 . S
C68 C69 1.399 . S
C69 C68 1.399 . S
C69 C70 1.381 . S
C70 H62 0.930 . S
C70 C66 1.390 . S
C70 C69 1.381 . S
N71 C64 1.286 . S
N71 C67 1.413 . S
H72 C77 0.930 . S
H73 C80 0.930 . S
H74 C82 0.930 . S
H75 C76 1.016 . S
C76 H75 1.016 . S
C76 N83 1.286 . S
C77 H72 0.930 . S
C77 C78 1.397 . S
C77 C79 1.361 . S
C78 C77 1.397 . S
C78 C82 1.390 . S
C79 C77 1.361 . S
C79 C80 1.393 . S
C79 N83 1.413 . S
C80 H73 0.930 . S
C80 C79 1.393 . S
C80 C81 1.399 . S
C81 C80 1.399 . S
C81 C82 1.381 . S
C82 H74 0.930 . S
C82 C78 1.390 . S
C82 C81 1.381 . S
N83 C76 1.286 . S
N83 C79 1.413 . S
H84 C89 0.930 . S
H85 C92 0.930 . S
H86 C94 0.930 . S
H87 C88 1.016 . S
C88 H87 1.016 . S
C88 N95 1.286 . S
C89 H84 0.930 . S
C89 C90 1.397 . S
C89 C91 1.361 . S
C90 C89 1.397 . S
C90 C94 1.390 . S
C91 C89 1.361 . S
C91 C92 1.393 . S
C91 N95 1.413 . S
C92 H85 0.930 . S
C92 C91 1.393 . S
C92 C93 1.399 . S
C93 C92 1.399 . S
C93 C94 1.381 . S
C94 H86 0.930 . S
C94 C90 1.390 . S
C94 C93 1.381 . S
N95 C88 1.286 . S
N95 C91 1.413 . S
Tb96 N125 2.617 . S
Tb96 N131 2.572 . S
Tb96 O140 2.465 . S
Tb96 O141 2.387 . S
Tb96 O143 2.428 . S
Tb96 O144 2.315 . S
Tb96 O148 2.349 . S
Tb96 O151 2.393 . S
Tb96 C160 2.802 . S
C97 N98 1.379 . S
C97 C100 1.416 . S
C97 C104 1.424 . S
N98 C97 1.379 . S
N98 C101 1.334 . S
N98 Tb107 2.617 . S
C99 C101 1.390 . S
C99 C102 1.339 . S
C99 H119 0.930 . S
C100 C97 1.416 . S
C100 C102 1.416 . S
C100 C106 1.448 . S
C101 N98 1.334 . S
C101 C99 1.390 . S
C101 H112 0.930 . S
C102 C99 1.339 . S
C102 C100 1.416 . S
C102 H123 0.930 . S
C103 C104 1.413 . S
C103 C105 1.427 . S
C103 C109 1.416 . S
C104 C97 1.424 . S
C104 C103 1.413 . S
C104 N108 1.361 . S
C105 C103 1.427 . S
C105 C106 1.328 . S
C105 H120 0.929 . S
C106 C100 1.448 . S
C106 C105 1.328 . S
C106 H121 0.930 . S
Tb107 N98 2.617 . S
Tb107 N108 2.572 . S
Tb107 O142 2.349 1_655 S
Tb107 O145 2.393 . S
Tb107 O146 2.465 . S
Tb107 O147 2.387 . S
Tb107 O149 2.428 . S
Tb107 O150 2.308 1_655 S
Tb107 C171 2.802 . S
N108 C104 1.361 . S
N108 Tb107 2.572 . S
N108 C110 1.340 . S
C109 C103 1.416 . S
C109 C111 1.332 . S
C109 H117 0.931 . S
C110 N108 1.340 . S
C110 C111 1.407 . S
C110 H116 0.930 . S
C111 C109 1.332 . S
C111 C110 1.407 . S
C111 H113 0.929 . S
H112 C101 0.930 . S
H113 C111 0.929 . S
H114 C129 0.930 . S
H115 C136 0.929 . S
H116 C110 0.930 . S
H117 C109 0.931 . S
H118 C132 0.930 . S
H119 C99 0.930 . S
H120 C105 0.929 . S
H121 C106 0.930 . S
H122 C127 0.930 . S
H123 C102 0.930 . S
H124 C135 0.931 . S
N125 Tb96 2.617 . S
N125 C126 1.379 . S
N125 C129 1.334 . S
C126 N125 1.379 . S
C126 C128 1.416 . S
C126 C134 1.424 . S
C127 H122 0.930 . S
C127 C129 1.390 . S
C127 C130 1.339 . S
C128 C126 1.416 . S
C128 C130 1.416 . S
C128 C161 1.448 . S
C129 H114 0.930 . S
C129 N125 1.334 . S
C129 C127 1.390 . S
C130 C127 1.339 . S
C130 C128 1.416 . S
C130 H137 0.930 . S
N131 Tb96 2.572 . S
N131 C132 1.340 . S
N131 C134 1.361 . S
C132 H118 0.930 . S
C132 N131 1.340 . S
C132 C136 1.407 . S
C133 C134 1.413 . S
C133 C135 1.416 . S
C133 C162 1.427 . S
C134 C126 1.424 . S
C134 N131 1.361 . S
C134 C133 1.413 . S
C135 H124 0.931 . S
C135 C133 1.416 . S
C135 C136 1.332 . S
C136 H115 0.929 . S
C136 C132 1.407 . S
C136 C135 1.332 . S
H137 C130 0.930 . S
H138 C161 0.930 . S
H139 C162 0.929 . S
O140 Tb96 2.465 . S
O140 C160 1.264 . S
O141 Tb96 2.387 . S
O141 C152 1.264 . S
O142 Tb107 2.349 1_455 S
O142 C152 1.243 . S
O143 Tb96 2.428 . S
O143 C160 1.256 . S
O144 Tb96 2.315 . S
O144 C159 1.258 1_455 S
O145 Tb107 2.393 . S
O145 C159 1.248 . S
O146 Tb107 2.465 . S
O146 C171 1.264 . S
O147 Tb107 2.387 . S
O147 C163 1.264 . S
O148 Tb96 2.349 . S
O148 C163 1.243 1_455 S
O149 Tb107 2.428 . S
O149 C171 1.256 . S
O150 Tb107 2.308 1_455 S
O150 C170 1.266 . S
O151 Tb96 2.393 . S
O151 C170 1.248 . S
C152 O141 1.264 . S
C152 O142 1.243 . S
C153 C156 1.399 . S
C153 C158 1.383 . S
C153 C160 1.496 . S
C154 C155 1.399 . S
C154 C158 1.389 . S
C155 C154 1.399 . S
C155 C157 1.380 . S
C155 H172 0.929 . S
C156 C153 1.399 . S
C156 C157 1.392 . S
C156 H173 0.929 . S
C157 C155 1.380 . S
C157 C156 1.392 . S
C157 H174 0.929 . S
C158 C153 1.383 . S
C158 C154 1.389 . S
C158 H175 0.931 . S
C159 O144 1.258 1_655 S
C159 O145 1.248 . S
C160 Tb96 2.802 . S
C160 O140 1.264 . S
C160 O143 1.256 . S
C160 C153 1.496 . S
C161 C128 1.448 . S
C161 H138 0.930 . S
C161 C162 1.328 . S
C162 C133 1.427 . S
C162 H139 0.929 . S
C162 C161 1.328 . S
C163 O147 1.264 . S
C163 O148 1.243 1_655 S
C164 C167 1.399 . S
C164 C168 1.383 . S
C164 C171 1.496 . S
C165 C166 1.399 . S
C165 C168 1.389 . S
C166 C165 1.399 . S
C166 C169 1.380 . S
C166 H176 0.929 . S
C167 C164 1.399 . S
C167 C169 1.392 . S
C167 H177 0.929 . S
C168 C164 1.383 . S
C168 C165 1.389 . S
C168 H178 0.931 . S
C169 C166 1.380 . S
C169 C167 1.392 . S
C169 H179 0.929 . S
C170 O150 1.266 . S
C170 O151 1.248 . S
C171 Tb107 2.802 . S
C171 O146 1.264 . S
C171 O149 1.256 . S
C171 C164 1.496 . S
H172 C155 0.929 . S
H173 C156 0.929 . S
H174 C157 0.929 . S
H175 C158 0.931 . S
H176 C166 0.929 . S
H177 C167 0.929 . S
H178 C168 0.931 . S
H179 C169 0.929 . S
Tb180 N209 2.617 . S
Tb180 N215 2.572 . S
Tb180 O224 2.465 . S
Tb180 O225 2.387 . S
Tb180 O227 2.428 . S
Tb180 O228 2.308 . S
Tb180 O232 2.349 . S
Tb180 O235 2.393 . S
Tb180 C244 2.802 . S
C181 N182 1.379 . S
C181 C184 1.416 . S
C181 C188 1.424 . S
N182 C181 1.379 . S
N182 C185 1.334 . S
N182 Tb191 2.617 . S
C183 C185 1.390 . S
C183 C186 1.339 . S
C183 H203 0.930 . S
C184 C181 1.416 . S
C184 C186 1.416 . S
C184 C190 1.448 . S
C185 N182 1.334 . S
C185 C183 1.390 . S
C185 H196 0.930 . S
C186 C183 1.339 . S
C186 C184 1.416 . S
C186 H207 0.930 . S
C187 C188 1.413 . S
C187 C189 1.427 . S
C187 C193 1.416 . S
C188 C181 1.424 . S
C188 C187 1.413 . S
C188 N192 1.361 . S
C189 C187 1.427 . S
C189 C190 1.328 . S
C189 H204 0.929 . S
C190 C184 1.448 . S
C190 C189 1.328 . S
C190 H205 0.930 . S
Tb191 N182 2.617 . S
Tb191 N192 2.572 . S
Tb191 O226 2.349 . S
Tb191 O229 2.393 . S
Tb191 O230 2.465 . S
Tb191 O231 2.387 . S
Tb191 O233 2.428 . S
Tb191 O234 2.308 . S
Tb191 C255 2.802 . S
N192 C188 1.361 . S
N192 Tb191 2.572 . S
N192 C194 1.340 . S
C193 C187 1.416 . S
C193 C195 1.332 . S
C193 H201 0.931 . S
C194 N192 1.340 . S
C194 C195 1.407 . S
C194 H200 0.930 . S
C195 C193 1.332 . S
C195 C194 1.407 . S
C195 H197 0.929 . S
H196 C185 0.930 . S
H197 C195 0.929 . S
H198 C213 0.930 . S
H199 C220 0.929 . S
H200 C194 0.930 . S
H201 C193 0.931 . S
H202 C216 0.930 . S
H203 C183 0.930 . S
H204 C189 0.929 . S
H205 C190 0.930 . S
H206 C211 0.930 . S
H207 C186 0.930 . S
H208 C219 0.931 . S
N209 Tb180 2.617 . S
N209 C210 1.379 . S
N209 C213 1.334 . S
C210 N209 1.379 . S
C210 C212 1.416 . S
C210 C218 1.424 . S
C211 H206 0.930 . S
C211 C213 1.390 . S
C211 C214 1.339 . S
C212 C210 1.416 . S
C212 C214 1.416 . S
C212 C245 1.448 . S
C213 H198 0.930 . S
C213 N209 1.334 . S
C213 C211 1.390 . S
C214 C211 1.339 . S
C214 C212 1.416 . S
C214 H221 0.930 . S
N215 Tb180 2.572 . S
N215 C216 1.340 . S
N215 C218 1.361 . S
C216 H202 0.930 . S
C216 N215 1.340 . S
C216 C220 1.407 . S
C217 C218 1.413 . S
C217 C219 1.416 . S
C217 C246 1.427 . S
C218 C210 1.424 . S
C218 N215 1.361 . S
C218 C217 1.413 . S
C219 H208 0.931 . S
C219 C217 1.416 . S
C219 C220 1.332 . S
C220 H199 0.929 . S
C220 C216 1.407 . S
C220 C219 1.332 . S
H221 C214 0.930 . S
H222 C245 0.930 . S
H223 C246 0.929 . S
O224 Tb180 2.465 . S
O224 C244 1.264 . S
O225 Tb180 2.387 . S
O225 C236 1.264 . S
O226 Tb191 2.349 . S
O226 C236 1.243 . S
O227 Tb180 2.428 . S
O227 C244 1.256 . S
O228 Tb180 2.308 . S
O228 C243 1.266 . S
O229 Tb191 2.393 . S
O229 C243 1.248 . S
O230 Tb191 2.465 . S
O230 C255 1.264 . S
O231 Tb191 2.387 . S
O231 C247 1.264 . S
O232 Tb180 2.349 . S
O232 C247 1.243 . S
O233 Tb191 2.428 . S
O233 C255 1.256 . S
O234 Tb191 2.308 . S
O234 C254 1.266 . S
O235 Tb180 2.393 . S
O235 C254 1.248 . S
C236 O225 1.264 . S
C236 O226 1.243 . S
C237 C240 1.399 . S
C237 C242 1.383 . S
C237 C244 1.496 . S
C238 C239 1.399 . S
C238 C242 1.389 . S
C239 C238 1.399 . S
C239 C241 1.380 . S
C239 H256 0.929 . S
C240 C237 1.399 . S
C240 C241 1.392 . S
C240 H257 0.929 . S
C241 C239 1.380 . S
C241 C240 1.392 . S
C241 H258 0.929 . S
C242 C237 1.383 . S
C242 C238 1.389 . S
C242 H259 0.931 . S
C243 O228 1.266 . S
C243 O229 1.248 . S
C244 Tb180 2.802 . S
C244 O224 1.264 . S
C244 O227 1.256 . S
C244 C237 1.496 . S
C245 C212 1.448 . S
C245 H222 0.930 . S
C245 C246 1.328 . S
C246 C217 1.427 . S
C246 H223 0.929 . S
C246 C245 1.328 . S
C247 O231 1.264 . S
C247 O232 1.243 . S
C248 C251 1.399 . S
C248 C252 1.383 . S
C248 C255 1.496 . S
C249 C250 1.399 . S
C249 C252 1.389 . S
C250 C249 1.399 . S
C250 C253 1.380 . S
C250 H260 0.929 . S
C251 C248 1.399 . S
C251 C253 1.392 . S
C251 H261 0.929 . S
C252 C248 1.383 . S
C252 C249 1.389 . S
C252 H262 0.931 . S
C253 C250 1.380 . S
C253 C251 1.392 . S
C253 H263 0.929 . S
C254 O234 1.266 . S
C254 O235 1.248 . S
C255 Tb191 2.802 . S
C255 O230 1.264 . S
C255 O233 1.256 . S
C255 C248 1.496 . S
H256 C239 0.929 . S
H257 C240 0.929 . S
H258 C241 0.929 . S
H259 C242 0.931 . S
H260 C250 0.929 . S
H261 C251 0.929 . S
H262 C252 0.931 . S
H263 C253 0.929 . S
Tb264 N293 2.617 . S
Tb264 N299 2.572 . S
Tb264 O308 2.465 . S
Tb264 O309 2.387 . S
Tb264 O311 2.428 . S
Tb264 O312 2.308 . S
Tb264 O316 2.349 . S
Tb264 O319 2.393 . S
Tb264 C328 2.802 . S
C265 N266 1.379 . S
C265 C268 1.416 . S
C265 C272 1.424 . S
N266 C265 1.379 . S
N266 C269 1.334 . S
N266 Tb275 2.617 . S
C267 C269 1.390 . S
C267 C270 1.339 . S
C267 H287 0.930 . S
C268 C265 1.416 . S
C268 C270 1.416 . S
C268 C274 1.448 . S
C269 N266 1.334 . S
C269 C267 1.390 . S
C269 H280 0.930 . S
C270 C267 1.339 . S
C270 C268 1.416 . S
C270 H291 0.930 . S
C271 C272 1.413 . S
C271 C273 1.427 . S
C271 C277 1.416 . S
C272 C265 1.424 . S
C272 C271 1.413 . S
C272 N276 1.361 . S
C273 C271 1.427 . S
C273 C274 1.328 . S
C273 H288 0.929 . S
C274 C268 1.448 . S
C274 C273 1.328 . S
C274 H289 0.930 . S
Tb275 N266 2.617 . S
Tb275 N276 2.572 . S
Tb275 O310 2.349 1_655 S
Tb275 O313 2.393 . S
Tb275 O314 2.465 . S
Tb275 O315 2.387 . S
Tb275 O317 2.428 . S
Tb275 O318 2.308 1_655 S
Tb275 C339 2.802 . S
N276 C272 1.361 . S
N276 Tb275 2.572 . S
N276 C278 1.340 . S
C277 C271 1.416 . S
C277 C279 1.332 . S
C277 H285 0.931 . S
C278 N276 1.340 . S
C278 C279 1.407 . S
C278 H284 0.930 . S
C279 C277 1.332 . S
C279 C278 1.407 . S
C279 H281 0.929 . S
H280 C269 0.930 . S
H281 C279 0.929 . S
H282 C297 0.930 . S
H283 C304 0.929 . S
H284 C278 0.930 . S
H285 C277 0.931 . S
H286 C300 0.930 . S
H287 C267 0.930 . S
H288 C273 0.929 . S
H289 C274 0.930 . S
H290 C295 0.930 . S
H291 C270 0.930 . S
H292 C303 0.931 . S
N293 Tb264 2.617 . S
N293 C294 1.379 . S
N293 C297 1.334 . S
C294 N293 1.379 . S
C294 C296 1.416 . S
C294 C302 1.424 . S
C295 H290 0.930 . S
C295 C297 1.390 . S
C295 C298 1.339 . S
C296 C294 1.416 . S
C296 C298 1.416 . S
C296 C329 1.448 . S
C297 H282 0.930 . S
C297 N293 1.334 . S
C297 C295 1.390 . S
C298 C295 1.339 . S
C298 C296 1.416 . S
C298 H305 0.930 . S
N299 Tb264 2.572 . S
N299 C300 1.340 . S
N299 C302 1.361 . S
C300 H286 0.930 . S
C300 N299 1.340 . S
C300 C304 1.407 . S
C301 C302 1.413 . S
C301 C303 1.416 . S
C301 C330 1.427 . S
C302 C294 1.424 . S
C302 N299 1.361 . S
C302 C301 1.413 . S
C303 H292 0.931 . S
C303 C301 1.416 . S
C303 C304 1.332 . S
C304 H283 0.929 . S
C304 C300 1.407 . S
C304 C303 1.332 . S
H305 C298 0.930 . S
H306 C329 0.930 . S
H307 C330 0.929 . S
O308 Tb264 2.465 . S
O308 C328 1.264 . S
O309 Tb264 2.387 . S
O309 C320 1.264 . S
O310 Tb275 2.349 1_455 S
O310 C320 1.243 . S
O311 Tb264 2.428 . S
O311 C328 1.256 . S
O312 Tb264 2.308 . S
O312 C327 1.266 1_455 S
O313 Tb275 2.393 . S
O313 C327 1.248 . S
O314 Tb275 2.465 . S
O314 C339 1.264 . S
O315 Tb275 2.387 . S
O315 C331 1.264 . S
O316 Tb264 2.349 . S
O316 C331 1.243 1_455 S
O317 Tb275 2.428 . S
O317 C339 1.256 . S
O318 Tb275 2.308 1_455 S
O318 C338 1.266 . S
O319 Tb264 2.393 . S
O319 C338 1.248 . S
C320 O309 1.264 . S
C320 O310 1.243 . S
C321 C324 1.399 . S
C321 C326 1.383 . S
C321 C328 1.496 . S
C322 C323 1.399 . S
C322 C326 1.389 . S
C323 C322 1.399 . S
C323 C325 1.380 . S
C323 H340 0.929 . S
C324 C321 1.399 . S
C324 C325 1.392 . S
C324 H341 0.929 . S
C325 C323 1.380 . S
C325 C324 1.392 . S
C325 H342 0.929 . S
C326 C321 1.383 . S
C326 C322 1.389 . S
C326 H343 0.931 . S
C327 O312 1.266 1_655 S
C327 O313 1.248 . S
C328 Tb264 2.802 . S
C328 O308 1.264 . S
C328 O311 1.256 . S
C328 C321 1.496 . S
C329 C296 1.448 . S
C329 H306 0.930 . S
C329 C330 1.328 . S
C330 C301 1.427 . S
C330 H307 0.929 . S
C330 C329 1.328 . S
C331 O315 1.264 . S
C331 O316 1.243 1_655 S
C332 C335 1.399 . S
C332 C336 1.383 . S
C332 C339 1.496 . S
C333 C334 1.399 . S
C333 C336 1.389 . S
C334 C333 1.399 . S
C334 C337 1.380 . S
C334 H344 0.929 . S
C335 C332 1.399 . S
C335 C337 1.392 . S
C335 H345 0.929 . S
C336 C332 1.383 . S
C336 C333 1.389 . S
C336 H346 0.931 . S
C337 C334 1.380 . S
C337 C335 1.392 . S
C337 H347 0.929 . S
C338 O318 1.266 . S
C338 O319 1.248 . S
C339 Tb275 2.802 . S
C339 O314 1.264 . S
C339 O317 1.256 . S
C339 C332 1.496 . S
H340 C323 0.929 . S
H341 C324 0.929 . S
H342 C325 0.929 . S
H343 C326 0.931 . S
H344 C334 0.929 . S
H345 C335 0.929 . S
H346 C336 0.931 . S
H347 C337 0.929 . S
Tb348 N377 2.617 . S
Tb348 N383 2.572 . S
Tb348 O392 2.465 . S
Tb348 O393 2.387 . S
Tb348 O395 2.428 . S
Tb348 O396 2.308 . S
Tb348 O400 2.349 . S
Tb348 O403 2.393 . S
Tb348 C412 2.802 . S
C349 N350 1.379 . S
C349 C352 1.416 . S
C349 C356 1.424 . S
N350 C349 1.379 . S
N350 C353 1.334 . S
N350 Tb359 2.617 . S
C351 C353 1.390 . S
C351 C354 1.339 . S
C351 H371 0.930 . S
C352 C349 1.416 . S
C352 C354 1.416 . S
C352 C358 1.448 . S
C353 N350 1.334 . S
C353 C351 1.390 . S
C353 H364 0.930 . S
C354 C351 1.339 . S
C354 C352 1.416 . S
C354 H375 0.930 . S
C355 C356 1.413 . S
C355 C357 1.427 . S
C355 C361 1.416 . S
C356 C349 1.424 . S
C356 C355 1.413 . S
C356 N360 1.361 . S
C357 C355 1.427 . S
C357 C358 1.328 . S
C357 H372 0.929 . S
C358 C352 1.448 . S
C358 C357 1.328 . S
C358 H373 0.930 . S
Tb359 N350 2.617 . S
Tb359 N360 2.572 . S
Tb359 O394 2.349 . S
Tb359 O397 2.393 . S
Tb359 O398 2.465 . S
Tb359 O399 2.387 . S
Tb359 O401 2.428 . S
Tb359 O402 2.308 . S
Tb359 C423 2.802 . S
N360 C356 1.361 . S
N360 Tb359 2.572 . S
N360 C362 1.340 . S
C361 C355 1.416 . S
C361 C363 1.332 . S
C361 H369 0.931 . S
C362 N360 1.340 . S
C362 C363 1.407 . S
C362 H368 0.930 . S
C363 C361 1.332 . S
C363 C362 1.407 . S
C363 H365 0.929 . S
H364 C353 0.930 . S
H365 C363 0.929 . S
H366 C381 0.930 . S
H367 C388 0.929 . S
H368 C362 0.930 . S
H369 C361 0.931 . S
H370 C384 0.930 . S
H371 C351 0.930 . S
H372 C357 0.929 . S
H373 C358 0.930 . S
H374 C379 0.930 . S
H375 C354 0.930 . S
H376 C387 0.931 . S
N377 Tb348 2.617 . S
N377 C378 1.379 . S
N377 C381 1.334 . S
C378 N377 1.379 . S
C378 C380 1.416 . S
C378 C386 1.424 . S
C379 H374 0.930 . S
C379 C381 1.390 . S
C379 C382 1.339 . S
C380 C378 1.416 . S
C380 C382 1.416 . S
C380 C413 1.448 . S
C381 H366 0.930 . S
C381 N377 1.334 . S
C381 C379 1.390 . S
C382 C379 1.339 . S
C382 C380 1.416 . S
C382 H389 0.930 . S
N383 Tb348 2.572 . S
N383 C384 1.340 . S
N383 C386 1.361 . S
C384 H370 0.930 . S
C384 N383 1.340 . S
C384 C388 1.407 . S
C385 C386 1.413 . S
C385 C387 1.416 . S
C385 C414 1.427 . S
C386 C378 1.424 . S
C386 N383 1.361 . S
C386 C385 1.413 . S
C387 H376 0.931 . S
C387 C385 1.416 . S
C387 C388 1.332 . S
C388 H367 0.929 . S
C388 C384 1.407 . S
C388 C387 1.332 . S
H389 C382 0.930 . S
H390 C413 0.930 . S
H391 C414 0.929 . S
O392 Tb348 2.465 . S
O392 C412 1.264 . S
O393 Tb348 2.387 . S
O393 C404 1.264 . S
O394 Tb359 2.349 . S
O394 C404 1.243 . S
O395 Tb348 2.428 . S
O395 C412 1.256 . S
O396 Tb348 2.308 . S
O396 C411 1.266 . S
O397 Tb359 2.393 . S
O397 C411 1.248 . S
O398 Tb359 2.465 . S
O398 C423 1.264 . S
O399 Tb359 2.387 . S
O399 C415 1.264 . S
O400 Tb348 2.349 . S
O400 C415 1.243 . S
O401 Tb359 2.428 . S
O401 C423 1.256 . S
O402 Tb359 2.308 . S
O402 C422 1.266 . S
O403 Tb348 2.393 . S
O403 C422 1.248 . S
C404 O393 1.264 . S
C404 O394 1.243 . S
C405 C408 1.399 . S
C405 C410 1.383 . S
C405 C412 1.496 . S
C406 C407 1.399 . S
C406 C410 1.389 . S
C407 C406 1.399 . S
C407 C409 1.380 . S
C407 H424 0.929 . S
C408 C405 1.399 . S
C408 C409 1.392 . S
C408 H425 0.929 . S
C409 C407 1.380 . S
C409 C408 1.392 . S
C409 H426 0.929 . S
C410 C405 1.383 . S
C410 C406 1.389 . S
C410 H427 0.931 . S
C411 O396 1.266 . S
C411 O397 1.248 . S
C412 Tb348 2.802 . S
C412 O392 1.264 . S
C412 O395 1.256 . S
C412 C405 1.496 . S
C413 C380 1.448 . S
C413 H390 0.930 . S
C413 C414 1.328 . S
C414 C385 1.427 . S
C414 H391 0.929 . S
C414 C413 1.328 . S
C415 O399 1.264 . S
C415 O400 1.243 . S
C416 C419 1.399 . S
C416 C420 1.383 . S
C416 C423 1.496 . S
C417 C418 1.399 . S
C417 C420 1.389 . S
C418 C417 1.399 . S
C418 C421 1.380 . S
C418 H428 0.929 . S
C419 C416 1.399 . S
C419 C421 1.392 . S
C419 H429 0.929 . S
C420 C416 1.383 . S
C420 C417 1.389 . S
C420 H430 0.931 . S
C421 C418 1.380 . S
C421 C419 1.392 . S
C421 H431 0.929 . S
C422 O402 1.266 . S
C422 O403 1.248 . S
C423 Tb359 2.802 . S
C423 O398 1.264 . S
C423 O401 1.256 . S
C423 C416 1.496 . S
H424 C407 0.929 . S
H425 C408 0.929 . S
H426 C409 0.929 . S
H427 C410 0.931 . S
H428 C418 0.929 . S
H429 C419 0.929 . S
H430 C420 0.931 . S
H431 C421 0.929 . S
H432 C450 0.951 . S
H433 C452 0.951 . S
H434 C454 0.950 . S
H435 C455 0.950 . S
H436 C457 0.950 . S
H437 C460 0.950 . S
H438 C461 0.950 . S
H439 C463 0.950 . S
H440 C464 0.950 . S
H441 C465 0.951 . S
H442 C467 0.951 . S
H443 C469 0.950 . S
H444 C470 0.950 . S
H445 C472 0.950 . S
H446 C475 0.950 . S
H447 C476 0.950 . S
H448 C478 0.950 . S
H449 C479 0.950 1_565 S
C450 H432 0.951 . S
C450 C451 1.366 . S
C450 C452 1.388 . S
C451 C450 1.366 . S
C451 C455 1.385 . S
C452 H433 0.951 . S
C452 C450 1.388 . S
C452 C453 1.366 . S
C453 C452 1.366 . S
C453 C454 1.414 . S
C453 C456 1.499 . S
C454 H434 0.950 . S
C454 C453 1.414 . S
C454 C455 1.374 . S
C455 H435 0.950 . S
C455 C451 1.385 . S
C455 C454 1.374 . S
C456 C453 1.499 . S
C456 C457 1.373 . S
C456 C458 1.389 . S
C457 H436 0.950 . S
C457 C456 1.373 . S
C457 C473 1.377 . S
C458 C456 1.389 . S
C458 C459 1.524 . S
C458 C472 1.377 . S
C459 C458 1.524 . S
C459 C460 1.397 . S
C459 C464 1.363 . S
C460 H437 0.950 . S
C460 C459 1.397 . S
C460 C461 1.334 . S
C461 H438 0.950 . S
C461 C460 1.334 . S
C461 C462 1.287 . S
C462 C461 1.287 . S
C462 C463 1.524 . S
C462 H481 0.913 . S
C463 H439 0.950 . S
C463 C462 1.524 . S
C463 C464 1.415 . S
C464 H440 0.950 . S
C464 C459 1.363 . S
C464 C463 1.415 . S
C465 H441 0.951 . S
C465 C466 1.366 . S
C465 C467 1.388 . S
C466 C465 1.366 . S
C466 C470 1.385 . S
C467 H442 0.951 . S
C467 C465 1.388 . S
C467 C468 1.366 . S
C468 C467 1.366 . S
C468 C469 1.414 . S
C468 C471 1.499 1_545 S
C469 H443 0.950 . S
C469 C468 1.414 . S
C469 C470 1.374 . S
C470 H444 0.950 . S
C470 C466 1.385 . S
C470 C469 1.374 . S
C471 C468 1.499 1_565 S
C471 C472 1.373 . S
C471 C473 1.389 . S
C472 H445 0.950 . S
C472 C458 1.377 . S
C472 C471 1.373 . S
C473 C457 1.377 . S
C473 C471 1.389 . S
C473 C474 1.524 1_565 S
C474 C473 1.524 1_545 S
C474 C475 1.397 . S
C474 C479 1.363 . S
C475 H446 0.950 . S
C475 C474 1.397 . S
C475 C476 1.334 . S
C476 H447 0.950 . S
C476 C475 1.334 . S
C476 C477 1.287 . S
C477 C476 1.287 . S
C477 C478 1.524 . S
C477 H480 0.999 . S
C478 H448 0.950 . S
C478 C477 1.524 . S
C478 C479 1.415 . S
C479 H449 0.950 1_545 S
C479 C474 1.363 . S
C479 C478 1.415 . S
H480 C477 0.999 . S
H481 C462 0.913 . S
H482 C500 0.951 . S
H483 C502 0.951 . S
H484 C504 0.950 . S
H485 C505 0.950 . S
H486 C507 0.950 . S
H487 C510 0.950 . S
H488 C511 0.950 . S
H489 C513 0.950 . S
H490 C514 0.950 . S
H491 C515 0.951 . S
H492 C517 0.951 . S
H493 C519 0.950 . S
H494 C520 0.950 . S
H495 C522 0.950 . S
H496 C525 0.950 . S
H497 C526 0.950 . S
H498 C528 0.950 . S
H499 C529 0.950 . S
C500 H482 0.951 . S
C500 C501 1.366 . S
C500 C502 1.388 . S
C501 C500 1.366 . S
C501 C505 1.385 . S
C502 H483 0.951 . S
C502 C500 1.388 . S
C502 C503 1.366 . S
C503 C502 1.366 . S
C503 C504 1.414 . S
C503 C506 1.499 . S
C504 H484 0.950 . S
C504 C503 1.414 . S
C504 C505 1.374 . S
C505 H485 0.950 . S
C505 C501 1.385 . S
C505 C504 1.374 . S
C506 C503 1.499 . S
C506 C507 1.373 . S
C506 C508 1.389 . S
C507 H486 0.950 . S
C507 C506 1.373 . S
C507 C523 1.377 . S
C508 C506 1.389 . S
C508 C509 1.524 . S
C508 C522 1.377 . S
C509 C508 1.524 . S
C509 C510 1.397 . S
C509 C514 1.363 . S
C510 H487 0.950 . S
C510 C509 1.397 . S
C510 C511 1.334 . S
C511 H488 0.950 . S
C511 C510 1.334 . S
C511 C512 1.287 . S
C512 C511 1.287 . S
C512 C513 1.524 . S
C512 H531 0.913 . S
C513 H489 0.950 . S
C513 C512 1.524 . S
C513 C514 1.415 . S
C514 H490 0.950 . S
C514 C509 1.363 . S
C514 C513 1.415 . S
C515 H491 0.951 . S
C515 C516 1.366 . S
C515 C517 1.388 . S
C516 C515 1.366 . S
C516 C520 1.385 . S
C517 H492 0.951 . S
C517 C515 1.388 . S
C517 C518 1.366 . S
C518 C517 1.366 . S
C518 C519 1.414 . S
C518 C521 1.499 . S
C519 H493 0.950 . S
C519 C518 1.414 . S
C519 C520 1.374 . S
C520 H494 0.950 . S
C520 C516 1.385 . S
C520 C519 1.374 . S
C521 C518 1.499 . S
C521 C522 1.373 . S
C521 C523 1.389 . S
C522 H495 0.950 . S
C522 C508 1.377 . S
C522 C521 1.373 . S
C523 C507 1.377 . S
C523 C521 1.389 . S
C523 C524 1.524 . S
C524 C523 1.524 . S
C524 C525 1.397 . S
C524 C529 1.363 . S
C525 H496 0.950 . S
C525 C524 1.397 . S
C525 C526 1.334 . S
C526 H497 0.950 . S
C526 C525 1.334 . S
C526 C527 1.287 . S
C527 C526 1.287 . S
C527 C528 1.524 . S
C527 H530 0.999 . S
C528 H498 0.950 . S
C528 C527 1.524 . S
C528 C529 1.415 . S
C529 H499 0.950 . S
C529 C524 1.363 . S
C529 C528 1.415 . S
H530 C527 0.999 . S
H531 C512 0.913 . S
H532 C550 0.951 . S
H533 C552 0.951 . S
H534 C554 0.950 . S
H535 C555 0.950 . S
H536 C557 0.950 . S
H537 C560 0.950 . S
H538 C561 0.950 . S
H539 C563 0.950 . S
H540 C564 0.950 . S
H541 C565 0.951 . S
H542 C567 0.951 . S
H543 C569 0.950 . S
H544 C570 0.950 . S
H545 C572 0.950 . S
H546 C575 0.950 . S
H547 C576 0.950 . S
H548 C578 0.950 . S
H549 C579 0.950 . S
C550 H532 0.951 . S
C550 C551 1.366 . S
C550 C552 1.388 . S
C551 C550 1.366 . S
C551 C555 1.385 . S
C552 H533 0.951 . S
C552 C550 1.388 . S
C552 C553 1.366 . S
C553 C552 1.366 . S
C553 C554 1.414 . S
C553 C556 1.499 . S
C554 H534 0.950 . S
C554 C553 1.414 . S
C554 C555 1.374 . S
C555 H535 0.950 . S
C555 C551 1.385 . S
C555 C554 1.374 . S
C556 C553 1.499 . S
C556 C557 1.373 . S
C556 C558 1.389 . S
C557 H536 0.950 . S
C557 C556 1.373 . S
C557 C573 1.377 . S
C558 C556 1.389 . S
C558 C559 1.524 . S
C558 C572 1.377 . S
C559 C558 1.524 . S
C559 C560 1.397 . S
C559 C564 1.363 . S
C560 H537 0.950 . S
C560 C559 1.397 . S
C560 C561 1.334 . S
C561 H538 0.950 . S
C561 C560 1.334 . S
C561 C562 1.287 . S
C562 C561 1.287 . S
C562 C563 1.524 . S
C562 H581 0.913 . S
C563 H539 0.950 . S
C563 C562 1.524 . S
C563 C564 1.415 . S
C564 H540 0.950 . S
C564 C559 1.363 . S
C564 C563 1.415 . S
C565 H541 0.951 . S
C565 C566 1.366 . S
C565 C567 1.388 . S
C566 C565 1.366 . S
C566 C570 1.385 . S
C567 H542 0.951 . S
C567 C565 1.388 . S
C567 C568 1.366 . S
C568 C567 1.366 . S
C568 C569 1.414 . S
C568 C571 1.499 . S
C569 H543 0.950 . S
C569 C568 1.414 . S
C569 C570 1.374 . S
C570 H544 0.950 . S
C570 C566 1.385 . S
C570 C569 1.374 . S
C571 C568 1.499 . S
C571 C572 1.373 . S
C571 C573 1.389 . S
C572 H545 0.950 . S
C572 C558 1.377 . S
C572 C571 1.373 . S
C573 C557 1.377 . S
C573 C571 1.389 . S
C573 C574 1.524 . S
C574 C573 1.524 . S
C574 C575 1.397 . S
C574 C579 1.363 . S
C575 H546 0.950 . S
C575 C574 1.397 . S
C575 C576 1.334 . S
C576 H547 0.950 . S
C576 C575 1.334 . S
C576 C577 1.287 . S
C577 C576 1.287 . S
C577 C578 1.524 . S
C577 H580 0.999 . S
C578 H548 0.950 . S
C578 C577 1.524 . S
C578 C579 1.415 . S
C579 H549 0.950 . S
C579 C574 1.363 . S
C579 C578 1.415 . S
H580 C577 0.999 . S
H581 C562 0.913 . S
H582 C600 0.951 . S
H583 C602 0.951 . S
H584 C604 0.950 . S
H585 C605 0.950 . S
H586 C607 0.950 . S
H587 C610 0.950 . S
H588 C611 0.950 . S
H589 C613 0.950 . S
H590 C614 0.950 . S
H591 C615 0.951 . S
H592 C617 0.951 . S
H593 C619 0.950 1_565 S
H594 C620 0.950 . S
H595 C622 0.950 . S
H596 C625 0.950 . S
H597 C626 0.950 . S
H598 C628 0.950 . S
H599 C629 0.950 . S
C600 H582 0.951 . S
C600 C601 1.366 . S
C600 C602 1.388 . S
C601 C600 1.366 . S
C601 C605 1.385 . S
C602 H583 0.951 . S
C602 C600 1.388 . S
C602 C603 1.366 . S
C603 C602 1.366 . S
C603 C604 1.414 . S
C603 C606 1.499 . S
C604 H584 0.950 . S
C604 C603 1.414 . S
C604 C605 1.374 . S
C605 H585 0.950 . S
C605 C601 1.385 . S
C605 C604 1.374 . S
C606 C603 1.499 . S
C606 C607 1.373 . S
C606 C608 1.389 . S
C607 H586 0.950 . S
C607 C606 1.373 . S
C607 C623 1.377 . S
C608 C606 1.389 . S
C608 C609 1.524 . S
C608 C622 1.377 . S
C609 C608 1.524 . S
C609 C610 1.397 . S
C609 C614 1.363 . S
C610 H587 0.950 . S
C610 C609 1.397 . S
C610 C611 1.334 . S
C611 H588 0.950 . S
C611 C610 1.334 . S
C611 C612 1.287 . S
C612 C611 1.287 . S
C612 C613 1.524 . S
C612 H631 0.913 . S
C613 H589 0.950 . S
C613 C612 1.524 . S
C613 C614 1.415 . S
C614 H590 0.950 . S
C614 C609 1.363 . S
C614 C613 1.415 . S
C615 H591 0.951 . S
C615 C616 1.366 . S
C615 C617 1.388 . S
C616 C615 1.366 . S
C616 C620 1.385 . S
C617 H592 0.951 . S
C617 C615 1.388 . S
C617 C618 1.366 . S
C618 C617 1.366 . S
C618 C619 1.414 . S
C618 C621 1.499 1_545 S
C619 H593 0.950 1_545 S
C619 C618 1.414 . S
C619 C620 1.374 . S
C620 H594 0.950 . S
C620 C616 1.385 . S
C620 C619 1.374 . S
C621 C618 1.499 1_565 S
C621 C622 1.373 . S
C621 C623 1.389 . S
C622 H595 0.950 . S
C622 C608 1.377 . S
C622 C621 1.373 . S
C623 C607 1.377 . S
C623 C621 1.389 . S
C623 C624 1.524 . S
C624 C623 1.524 . S
C624 C625 1.397 . S
C624 C629 1.363 . S
C625 H596 0.950 . S
C625 C624 1.397 . S
C625 C626 1.334 1_655 S
C626 H597 0.950 . S
C626 C625 1.334 1_455 S
C626 C627 1.287 . S
C627 C626 1.287 . S
C627 C628 1.524 . S
C627 H630 0.999 . S
C628 H598 0.950 . S
C628 C627 1.524 . S
C628 C629 1.415 1_455 S
C629 H599 0.950 . S
C629 C624 1.363 . S
C629 C628 1.415 1_655 S
H630 C627 0.999 . S
H631 C612 0.913 . S
H632 C650 0.951 . S
H633 C652 0.951 . S
H634 C654 0.950 . S
H635 C655 0.950 . S
H636 C657 0.950 . S
H637 C660 0.950 . S
H638 C661 0.950 . S
H639 C663 0.950 1_455 S
H640 C664 0.950 . S
H641 C665 0.951 . S
H642 C667 0.951 . S
H643 C669 0.950 1_545 S
H644 C670 0.950 . S
H645 C672 0.950 . S
H646 C675 0.950 . S
H647 C676 0.952 . S
H648 C678 0.950 . S
H649 C679 0.950 . S
C650 H632 0.951 . S
C650 C651 1.366 . S
C650 C652 1.388 . S
C651 C650 1.366 . S
C651 C655 1.385 . S
C652 H633 0.951 . S
C652 C650 1.388 . S
C652 C653 1.366 . S
C653 C652 1.366 . S
C653 C654 1.414 . S
C653 C656 1.499 . S
C654 H634 0.950 . S
C654 C653 1.414 . S
C654 C655 1.374 . S
C655 H635 0.950 . S
C655 C651 1.385 . S
C655 C654 1.374 . S
C656 C653 1.499 . S
C656 C657 1.373 . S
C656 C658 1.389 . S
C657 H636 0.950 . S
C657 C656 1.373 . S
C657 C673 1.377 . S
C658 C656 1.389 . S
C658 C659 1.524 . S
C658 C672 1.377 . S
C659 C658 1.524 . S
C659 C660 1.397 . S
C659 C664 1.363 . S
C660 H637 0.950 . S
C660 C659 1.397 . S
C660 C661 1.334 . S
C661 H638 0.950 . S
C661 C660 1.334 . S
C661 C662 1.287 . S
C662 C661 1.287 . S
C662 C663 1.524 . S
C662 H681 0.913 . S
C663 H639 0.950 1_655 S
C663 C662 1.524 . S
C663 C664 1.415 . S
C664 H640 0.950 . S
C664 C659 1.363 . S
C664 C663 1.415 . S
C665 H641 0.951 . S
C665 C666 1.366 . S
C665 C667 1.388 . S
C666 C665 1.366 . S
C666 C670 1.385 . S
C667 H642 0.951 . S
C667 C665 1.388 . S
C667 C668 1.366 . S
C668 C667 1.366 . S
C668 C669 1.414 . S
C668 C671 1.499 1_565 S
C669 H643 0.950 1_565 S
C669 C668 1.414 . S
C669 C670 1.374 . S
C670 H644 0.950 . S
C670 C666 1.385 . S
C670 C669 1.374 . S
C671 C668 1.499 1_545 S
C671 C672 1.373 . S
C671 C673 1.389 . S
C672 H645 0.950 . S
C672 C658 1.377 . S
C672 C671 1.373 . S
C673 C657 1.377 . S
C673 C671 1.389 . S
C673 C674 1.524 . S
C674 C673 1.524 . S
C674 C675 1.397 . S
C674 C679 1.363 1_545 S
C675 H646 0.950 . S
C675 C674 1.397 . S
C675 C676 1.334 1_545 S
C676 H647 0.952 . S
C676 C675 1.334 1_565 S
C676 C677 1.287 . S
C677 C676 1.287 . S
C677 C678 1.524 . S
C677 H680 0.999 . S
C678 H648 0.950 . S
C678 C677 1.524 . S
C678 C679 1.415 . S
C679 H649 0.950 . S
C679 C674 1.363 1_565 S
C679 C678 1.415 . S
H680 C677 0.999 . S
H681 C662 0.913 . S
H682 C700 0.951 . S
H683 C702 0.951 . S
H684 C704 0.950 . S
H685 C705 0.950 . S
H686 C707 0.950 . S
H687 C710 0.950 . S
H688 C711 0.950 . S
H689 C713 0.950 . S
H690 C714 0.950 . S
H691 C715 0.951 . S
H692 C717 0.951 . S
H693 C719 0.950 . S
H694 C720 0.950 . S
H695 C722 0.950 . S
H696 C725 0.950 . S
H697 C726 0.950 . S
H698 C728 0.950 . S
H699 C729 0.950 . S
C700 H682 0.951 . S
C700 C701 1.366 . S
C700 C702 1.388 . S
C701 C700 1.366 . S
C701 C705 1.385 . S
C702 H683 0.951 . S
C702 C700 1.388 . S
C702 C703 1.366 . S
C703 C702 1.366 . S
C703 C704 1.414 . S
C703 C706 1.499 . S
C704 H684 0.950 . S
C704 C703 1.414 . S
C704 C705 1.374 . S
C705 H685 0.950 . S
C705 C701 1.385 . S
C705 C704 1.374 . S
C706 C703 1.499 . S
C706 C707 1.373 . S
C706 C708 1.389 . S
C707 H686 0.950 . S
C707 C706 1.373 . S
C707 C723 1.377 . S
C708 C706 1.389 . S
C708 C709 1.524 . S
C708 C722 1.377 . S
C709 C708 1.524 . S
C709 C710 1.397 . S
C709 C714 1.363 . S
C710 H687 0.950 . S
C710 C709 1.397 . S
C710 C711 1.334 . S
C711 H688 0.950 . S
C711 C710 1.334 . S
C711 C712 1.287 . S
C712 C711 1.287 . S
C712 C713 1.524 . S
C712 H731 0.913 . S
C713 H689 0.950 . S
C713 C712 1.524 . S
C713 C714 1.415 . S
C714 H690 0.950 . S
C714 C709 1.363 . S
C714 C713 1.415 . S
C715 H691 0.951 . S
C715 C716 1.366 . S
C715 C717 1.388 . S
C716 C715 1.366 . S
C716 C720 1.385 . S
C717 H692 0.951 . S
C717 C715 1.388 . S
C717 C718 1.366 . S
C718 C717 1.366 . S
C718 C719 1.414 . S
C718 C721 1.499 . S
C719 H693 0.950 . S
C719 C718 1.414 . S
C719 C720 1.374 . S
C720 H694 0.950 . S
C720 C716 1.385 . S
C720 C719 1.374 . S
C721 C718 1.499 . S
C721 C722 1.373 . S
C721 C723 1.389 . S
C722 H695 0.950 . S
C722 C708 1.377 . S
C722 C721 1.373 . S
C723 C707 1.377 . S
C723 C721 1.389 . S
C723 C724 1.524 . S
C724 C723 1.524 . S
C724 C725 1.397 . S
C724 C729 1.363 . S
C725 H696 0.950 . S
C725 C724 1.397 . S
C725 C726 1.334 . S
C726 H697 0.950 . S
C726 C725 1.334 . S
C726 C727 1.287 . S
C727 C726 1.287 . S
C727 C728 1.524 . S
C727 H730 0.999 . S
C728 H698 0.950 . S
C728 C727 1.524 . S
C728 C729 1.415 . S
C729 H699 0.950 . S
C729 C724 1.363 . S
C729 C728 1.415 . S
H730 C727 0.999 . S
H731 C712 0.913 . S
H732 C750 0.951 . S
H733 C752 0.951 . S
H734 C754 0.950 . S
H735 C755 0.950 . S
H736 C757 0.950 . S
H737 C760 0.950 . S
H738 C761 0.950 . S
H739 C763 0.950 . S
H740 C764 0.950 . S
H741 C765 0.951 . S
H742 C767 0.951 . S
H743 C769 0.950 . S
H744 C770 0.950 . S
H745 C772 0.950 . S
H746 C775 0.950 . S
H747 C776 0.950 . S
H748 C778 0.950 . S
H749 C779 0.950 . S
C750 H732 0.951 . S
C750 C751 1.366 . S
C750 C752 1.388 . S
C751 C750 1.366 . S
C751 C755 1.385 . S
C752 H733 0.951 . S
C752 C750 1.388 . S
C752 C753 1.366 . S
C753 C752 1.366 . S
C753 C754 1.414 . S
C753 C756 1.499 . S
C754 H734 0.950 . S
C754 C753 1.414 . S
C754 C755 1.374 . S
C755 H735 0.950 . S
C755 C751 1.385 . S
C755 C754 1.374 . S
C756 C753 1.499 . S
C756 C757 1.373 . S
C756 C758 1.389 . S
C757 H736 0.950 . S
C757 C756 1.373 . S
C757 C773 1.377 . S
C758 C756 1.389 . S
C758 C759 1.524 . S
C758 C772 1.377 . S
C759 C758 1.524 . S
C759 C760 1.397 . S
C759 C764 1.363 . S
C760 H737 0.950 . S
C760 C759 1.397 . S
C760 C761 1.334 . S
C761 H738 0.950 . S
C761 C760 1.334 . S
C761 C762 1.287 . S
C762 C761 1.287 . S
C762 C763 1.524 . S
C762 H781 0.913 . S
C763 H739 0.950 . S
C763 C762 1.524 . S
C763 C764 1.415 . S
C764 H740 0.950 . S
C764 C759 1.363 . S
C764 C763 1.415 . S
C765 H741 0.951 . S
C765 C766 1.366 . S
C765 C767 1.388 . S
C766 C765 1.366 . S
C766 C770 1.385 . S
C767 H742 0.951 . S
C767 C765 1.388 . S
C767 C768 1.366 . S
C768 C767 1.366 . S
C768 C769 1.414 . S
C768 C771 1.499 . S
C769 H743 0.950 . S
C769 C768 1.414 . S
C769 C770 1.374 . S
C770 H744 0.950 . S
C770 C766 1.385 . S
C770 C769 1.374 . S
C771 C768 1.499 . S
C771 C772 1.373 . S
C771 C773 1.389 . S
C772 H745 0.950 . S
C772 C758 1.377 . S
C772 C771 1.373 . S
C773 C757 1.377 . S
C773 C771 1.389 . S
C773 C774 1.524 . S
C774 C773 1.524 . S
C774 C775 1.397 . S
C774 C779 1.363 . S
C775 H746 0.950 . S
C775 C774 1.397 . S
C775 C776 1.334 . S
C776 H747 0.950 . S
C776 C775 1.334 . S
C776 C777 1.287 . S
C777 C776 1.287 . S
C777 C778 1.524 . S
C777 H780 0.999 . S
C778 H748 0.950 . S
C778 C777 1.524 . S
C778 C779 1.415 . S
C779 H749 0.950 . S
C779 C774 1.363 . S
C779 C778 1.415 . S
H780 C777 0.999 . S
H781 C762 0.913 . S
H782 C800 0.951 . S
H783 C802 0.951 . S
H784 C804 0.950 . S
H785 C805 0.950 . S
H786 C807 0.950 . S
H787 C810 0.950 . S
H788 C811 0.950 . S
H789 C813 0.950 1_565 S
H790 C814 0.950 1_565 S
H791 C815 0.951 . S
H792 C817 0.951 1_545 S
H793 C819 0.950 . S
H794 C820 0.950 . S
H795 C822 0.950 1_565 S
H796 C825 0.950 . S
H797 C826 0.950 1_655 S
H798 C828 0.950 . S
H799 C829 0.950 . S
C800 H782 0.951 . S
C800 C801 1.366 . S
C800 C802 1.388 . S
C801 C800 1.366 . S
C801 C805 1.385 . S
C802 H783 0.951 . S
C802 C800 1.388 . S
C802 C803 1.366 . S
C803 C802 1.366 . S
C803 C804 1.414 . S
C803 C806 1.499 . S
C804 H784 0.950 . S
C804 C803 1.414 . S
C804 C805 1.374 . S
C805 H785 0.950 . S
C805 C801 1.385 . S
C805 C804 1.374 . S
C806 C803 1.499 . S
C806 C807 1.373 . S
C806 C808 1.389 . S
C807 H786 0.950 . S
C807 C806 1.373 . S
C807 C823 1.377 . S
C808 C806 1.389 . S
C808 C809 1.524 . S
C808 C822 1.377 . S
C809 C808 1.524 . S
C809 C810 1.397 . S
C809 C814 1.363 . S
C810 H787 0.950 . S
C810 C809 1.397 . S
C810 C811 1.334 . S
C811 H788 0.950 . S
C811 C810 1.334 . S
C811 C812 1.287 . S
C812 C811 1.287 . S
C812 C813 1.524 . S
C812 H831 0.913 . S
C813 H789 0.950 1_545 S
C813 C812 1.524 . S
C813 C814 1.415 . S
C814 H790 0.950 1_545 S
C814 C809 1.363 . S
C814 C813 1.415 . S
C815 H791 0.951 . S
C815 C816 1.366 . S
C815 C817 1.388 . S
C816 C815 1.366 . S
C816 C820 1.385 . S
C817 H792 0.951 1_565 S
C817 C815 1.388 . S
C817 C818 1.366 . S
C818 C817 1.366 . S
C818 C819 1.414 . S
C818 C821 1.499 1_565 S
C819 H793 0.950 . S
C819 C818 1.414 . S
C819 C820 1.374 . S
C820 H794 0.950 . S
C820 C816 1.385 . S
C820 C819 1.374 . S
C821 C818 1.499 1_545 S
C821 C822 1.373 . S
C821 C823 1.389 . S
C822 H795 0.950 1_545 S
C822 C808 1.377 . S
C822 C821 1.373 . S
C823 C807 1.377 . S
C823 C821 1.389 . S
C823 C824 1.524 . S
C824 C823 1.524 . S
C824 C825 1.397 1_545 S
C824 C829 1.363 . S
C825 H796 0.950 . S
C825 C824 1.397 1_565 S
C825 C826 1.334 . S
C826 H797 0.950 1_455 S
C826 C825 1.334 . S
C826 C827 1.287 1_465 S
C827 C826 1.287 1_645 S
C827 C828 1.524 . S
C827 H830 0.999 . S
C828 H798 0.950 . S
C828 C827 1.524 . S
C828 C829 1.415 1_655 S
C829 H799 0.950 . S
C829 C824 1.363 . S
C829 C828 1.415 1_455 S
H830 C827 0.999 . S
H831 C812 0.913 . S
H832 C850 0.951 . S
H833 C852 0.984 . S
H834 C854 0.950 . S
H835 C855 0.950 . S
H836 C857 0.950 . S
H837 C860 0.950 . S
H838 C861 0.950 . S
H839 C863 0.950 . S
H840 C864 0.950 . S
H841 C865 0.951 . S
H842 C867 0.951 . S
H843 C869 0.950 . S
H844 C870 0.950 . S
H845 C872 0.950 . S
H846 C875 0.950 . S
H847 C876 0.950 1_655 S
H848 C878 0.950 . S
H849 C879 0.950 . S
C850 H832 0.951 . S
C850 C851 1.366 . S
C850 C852 1.388 . S
C851 C850 1.366 . S
C851 C855 1.385 . S
C852 H833 0.984 . S
C852 C850 1.388 . S
C852 C853 1.366 . S
C853 C852 1.366 . S
C853 C854 1.414 . S
C853 C856 1.499 1_556 S
C854 H834 0.950 . S
C854 C853 1.414 . S
C854 C855 1.374 . S
C855 H835 0.950 . S
C855 C851 1.385 . S
C855 C854 1.374 . S
C856 C853 1.499 1_554 S
C856 C857 1.373 . S
C856 C858 1.389 . S
C857 H836 0.950 . S
C857 C856 1.373 . S
C857 C873 1.377 . S
C858 C856 1.389 . S
C858 C859 1.524 . S
C858 C872 1.377 . S
C859 C858 1.524 . S
C859 C860 1.397 . S
C859 C864 1.363 . S
C860 H837 0.950 . S
C860 C859 1.397 . S
C860 C861 1.334 . S
C861 H838 0.950 . S
C861 C860 1.334 . S
C861 C862 1.287 . S
C862 C861 1.287 . S
C862 C863 1.524 . S
C862 H881 0.913 . S
C863 H839 0.950 . S
C863 C862 1.524 . S
C863 C864 1.415 . S
C864 H840 0.950 . S
C864 C859 1.363 . S
C864 C863 1.415 . S
C865 H841 0.951 . S
C865 C866 1.366 . S
C865 C867 1.388 . S
C866 C865 1.366 . S
C866 C870 1.385 . S
C867 H842 0.951 . S
C867 C865 1.388 . S
C867 C868 1.366 . S
C868 C867 1.366 . S
C868 C869 1.414 . S
C868 C871 1.499 . S
C869 H843 0.950 . S
C869 C868 1.414 . S
C869 C870 1.374 . S
C870 H844 0.950 . S
C870 C866 1.385 . S
C870 C869 1.374 . S
C871 C868 1.499 . S
C871 C872 1.373 . S
C871 C873 1.389 . S
C872 H845 0.950 . S
C872 C858 1.377 . S
C872 C871 1.373 . S
C873 C857 1.377 . S
C873 C871 1.389 . S
C873 C874 1.524 . S
C874 C873 1.524 . S
C874 C875 1.397 . S
C874 C879 1.363 . S
C875 H846 0.950 . S
C875 C874 1.397 . S
C875 C876 1.334 . S
C876 H847 0.950 1_455 S
C876 C875 1.334 . S
C876 C877 1.287 1_455 S
C877 C876 1.287 1_655 S
C877 C878 1.524 1_655 S
C877 H880 0.999 . S
C878 H848 0.950 . S
C878 C877 1.524 1_455 S
C878 C879 1.415 . S
C879 H849 0.950 . S
C879 C874 1.363 . S
C879 C878 1.415 . S
H880 C877 0.999 . S
H881 C862 0.913 . S
H882 C900 0.951 . S
H883 C902 0.951 . S
H884 C904 0.950 . S
H885 C905 0.950 . S
H886 C907 0.950 . S
H887 C910 0.950 . S
H888 C911 0.950 . S
H889 C913 0.950 . S
H890 C914 0.950 . S
H891 C915 0.951 . S
H892 C917 0.951 . S
H893 C919 0.950 . S
H894 C920 0.950 . S
H895 C922 0.950 . S
H896 C925 0.950 . S
H897 C926 0.950 . S
H898 C928 0.950 . S
H899 C929 0.950 . S
C900 H882 0.951 . S
C900 C901 1.366 . S
C900 C902 1.388 . S
C901 C900 1.366 . S
C901 C905 1.385 . S
C902 H883 0.951 . S
C902 C900 1.388 . S
C902 C903 1.366 . S
C903 C902 1.366 . S
C903 C904 1.414 . S
C903 C906 1.499 . S
C904 H884 0.950 . S
C904 C903 1.414 . S
C904 C905 1.374 . S
C905 H885 0.950 . S
C905 C901 1.385 . S
C905 C904 1.374 . S
C906 C903 1.499 . S
C906 C907 1.373 . S
C906 C908 1.389 . S
C907 H886 0.950 . S
C907 C906 1.373 . S
C907 C923 1.377 . S
C908 C906 1.389 . S
C908 C909 1.524 . S
C908 C922 1.377 . S
C909 C908 1.524 . S
C909 C910 1.397 . S
C909 C914 1.363 . S
C910 H887 0.950 . S
C910 C909 1.397 . S
C910 C911 1.334 . S
C911 H888 0.950 . S
C911 C910 1.334 . S
C911 C912 1.287 . S
C912 C911 1.287 . S
C912 C913 1.524 . S
C912 H931 0.913 . S
C913 H889 0.950 . S
C913 C912 1.524 . S
C913 C914 1.415 . S
C914 H890 0.950 . S
C914 C909 1.363 . S
C914 C913 1.415 . S
C915 H891 0.951 . S
C915 C916 1.366 . S
C915 C917 1.388 . S
C916 C915 1.366 . S
C916 C920 1.385 . S
C917 H892 0.951 . S
C917 C915 1.388 . S
C917 C918 1.366 . S
C918 C917 1.366 . S
C918 C919 1.414 . S
C918 C921 1.499 . S
C919 H893 0.950 . S
C919 C918 1.414 . S
C919 C920 1.374 . S
C920 H894 0.950 . S
C920 C916 1.385 . S
C920 C919 1.374 . S
C921 C918 1.499 . S
C921 C922 1.373 . S
C921 C923 1.389 . S
C922 H895 0.950 . S
C922 C908 1.377 . S
C922 C921 1.373 . S
C923 C907 1.377 . S
C923 C921 1.389 . S
C923 C924 1.524 . S
C924 C923 1.524 . S
C924 C925 1.397 . S
C924 C929 1.363 . S
C925 H896 0.950 . S
C925 C924 1.397 . S
C925 C926 1.334 . S
C926 H897 0.950 . S
C926 C925 1.334 . S
C926 C927 1.287 . S
C927 C926 1.287 . S
C927 C928 1.524 . S
C927 H930 0.999 . S
C928 H898 0.950 . S
C928 C927 1.524 . S
C928 C929 1.415 . S
C929 H899 0.950 . S
C929 C924 1.363 . S
C929 C928 1.415 . S
H930 C927 0.999 . S
H931 C912 0.913 . S
H932 C950 0.951 . S
H933 C952 0.951 . S
H934 C954 0.950 . S
H935 C955 0.950 . S
H936 C957 0.950 . S
H937 C960 0.950 . S
H938 C961 0.950 . S
H939 C963 0.950 . S
H940 C964 0.950 . S
H941 C965 0.951 . S
H942 C967 0.951 . S
H943 C969 0.950 . S
H944 C970 0.950 . S
H945 C972 0.950 . S
H946 C975 0.950 . S
H947 C976 0.950 . S
H948 C978 0.950 . S
H949 C979 0.950 . S
C950 H932 0.951 . S
C950 C951 1.366 . S
C950 C952 1.388 . S
C951 C950 1.366 . S
C951 C955 1.385 . S
C952 H933 0.951 . S
C952 C950 1.388 . S
C952 C953 1.366 . S
C953 C952 1.366 . S
C953 C954 1.414 . S
C953 C956 1.499 1_554 S
C954 H934 0.950 . S
C954 C953 1.414 . S
C954 C955 1.374 . S
C955 H935 0.950 . S
C955 C951 1.385 . S
C955 C954 1.374 . S
C956 C953 1.499 1_556 S
C956 C957 1.373 . S
C956 C958 1.389 . S
C957 H936 0.950 . S
C957 C956 1.373 . S
C957 C973 1.377 . S
C958 C956 1.389 . S
C958 C959 1.524 . S
C958 C972 1.377 . S
C959 C958 1.524 . S
C959 C960 1.397 . S
C959 C964 1.363 . S
C960 H937 0.950 . S
C960 C959 1.397 . S
C960 C961 1.334 . S
C961 H938 0.950 . S
C961 C960 1.334 . S
C961 C962 1.287 . S
C962 C961 1.287 . S
C962 C963 1.524 . S
C962 H981 0.913 . S
C963 H939 0.950 . S
C963 C962 1.524 . S
C963 C964 1.415 . S
C964 H940 0.950 . S
C964 C959 1.363 . S
C964 C963 1.415 . S
C965 H941 0.951 . S
C965 C966 1.366 . S
C965 C967 1.388 . S
C966 C965 1.366 . S
C966 C970 1.385 . S
C967 H942 0.951 . S
C967 C965 1.388 . S
C967 C968 1.366 . S
C968 C967 1.366 . S
C968 C969 1.414 . S
C968 C971 1.499 . S
C969 H943 0.950 . S
C969 C968 1.414 . S
C969 C970 1.374 . S
C970 H944 0.950 . S
C970 C966 1.385 . S
C970 C969 1.374 . S
C971 C968 1.499 . S
C971 C972 1.373 . S
C971 C973 1.389 . S
C972 H945 0.950 . S
C972 C958 1.377 . S
C972 C971 1.373 . S
C973 C957 1.377 . S
C973 C971 1.389 . S
C973 C974 1.524 . S
C974 C973 1.524 . S
C974 C975 1.397 . S
C974 C979 1.363 . S
C975 H946 0.950 . S
C975 C974 1.397 . S
C975 C976 1.334 . S
C976 H947 0.950 . S
C976 C975 1.334 . S
C976 C977 1.287 . S
C977 C976 1.287 . S
C977 C978 1.524 . S
C977 H980 0.999 . S
C978 H948 0.950 . S
C978 C977 1.524 . S
C978 C979 1.415 . S
C979 H949 0.950 . S
C979 C974 1.363 . S
C979 C978 1.415 . S
H980 C977 0.999 . S
H981 C962 0.913 . S
H982 C1000 0.951 . S
H983 C1002 0.951 . S
H984 C1004 0.950 . S
H985 C1005 0.950 . S
H986 C1007 0.950 . S
H987 C1010 0.950 . S
H988 C1011 0.950 . S
H989 C1013 0.950 . S
H990 C1014 0.950 . S
H991 C1015 0.951 . S
H992 C1017 0.951 . S
H993 C1019 0.950 . S
H994 C1020 0.950 . S
H995 C1022 0.950 . S
H996 C1025 0.950 . S
H997 C1026 0.950 . S
H998 C1028 0.950 . S
H999 C1029 0.950 . S
C1000 H982 0.951 . S
C1000 C1001 1.366 . S
C1000 C1002 1.388 . S
C1001 C1000 1.366 . S
C1001 C1005 1.385 . S
C1002 H983 0.951 . S
C1002 C1000 1.388 . S
C1002 C1003 1.366 . S
C1003 C1002 1.366 . S
C1003 C1004 1.414 . S
C1003 C1006 1.499 . S
C1004 H984 0.950 . S
C1004 C1003 1.414 . S
C1004 C1005 1.374 . S
C1005 H985 0.950 . S
C1005 C1001 1.385 . S
C1005 C1004 1.374 . S
C1006 C1003 1.499 . S
C1006 C1007 1.373 . S
C1006 C1008 1.389 . S
C1007 H986 0.950 . S
C1007 C1006 1.373 . S
C1007 C1023 1.377 . S
C1008 C1006 1.389 . S
C1008 C1009 1.524 . S
C1008 C1022 1.377 . S
C1009 C1008 1.524 . S
C1009 C1010 1.397 . S
C1009 C1014 1.363 . S
C1010 H987 0.950 . S
C1010 C1009 1.397 . S
C1010 C1011 1.334 . S
C1011 H988 0.950 . S
C1011 C1010 1.334 . S
C1011 C1012 1.287 . S
C1012 C1011 1.287 . S
C1012 C1013 1.524 . S
C1012 H1031 0.913 . S
C1013 H989 0.950 . S
C1013 C1012 1.524 . S
C1013 C1014 1.415 . S
C1014 H990 0.950 . S
C1014 C1009 1.363 . S
C1014 C1013 1.415 . S
C1015 H991 0.951 . S
C1015 C1016 1.366 . S
C1015 C1017 1.388 . S
C1016 C1015 1.366 . S
C1016 C1020 1.385 . S
C1017 H992 0.951 . S
C1017 C1015 1.388 . S
C1017 C1018 1.366 . S
C1018 C1017 1.366 . S
C1018 C1019 1.414 . S
C1018 C1021 1.499 . S
C1019 H993 0.950 . S
C1019 C1018 1.414 . S
C1019 C1020 1.374 . S
C1020 H994 0.950 . S
C1020 C1016 1.385 . S
C1020 C1019 1.374 . S
C1021 C1018 1.499 . S
C1021 C1022 1.373 . S
C1021 C1023 1.389 . S
C1022 H995 0.950 . S
C1022 C1008 1.377 . S
C1022 C1021 1.373 . S
C1023 C1007 1.377 . S
C1023 C1021 1.389 . S
C1023 C1024 1.524 . S
C1024 C1023 1.524 . S
C1024 C1025 1.397 . S
C1024 C1029 1.363 . S
C1025 H996 0.950 . S
C1025 C1024 1.397 . S
C1025 C1026 1.334 . S
C1026 H997 0.950 . S
C1026 C1025 1.334 . S
C1026 C1027 1.287 1_655 S
C1027 C1026 1.287 1_455 S
C1027 C1028 1.524 . S
C1027 H1030 0.999 . S
C1028 H998 0.950 . S
C1028 C1027 1.524 . S
C1028 C1029 1.415 1_455 S
C1029 H999 0.950 . S
C1029 C1024 1.363 . S
C1029 C1028 1.415 1_655 S
H1030 C1027 0.999 . S
H1031 C1012 0.913 . S
H1032 C1050 0.951 . S
H1033 C1052 0.951 . S
H1034 C1054 0.950 1_556 S
H1035 C1055 0.950 . S
H1036 C1057 0.950 . S
H1037 C1060 0.950 . S
H1038 C1061 0.950 . S
H1039 C1063 0.950 . S
H1040 C1064 0.950 1_556 S
H1041 C1065 0.951 . S
H1042 C1067 0.951 . S
H1043 C1069 0.950 . S
H1044 C1070 0.950 . S
H1045 C1072 0.950 . S
H1046 C1075 0.950 . S
H1047 C1076 0.950 . S
H1048 C1078 0.950 . S
H1049 C1079 0.950 . S
C1050 H1032 0.951 . S
C1050 C1051 1.366 . S
C1050 C1052 1.388 . S
C1051 C1050 1.366 . S
C1051 C1055 1.385 . S
C1052 H1033 0.951 . S
C1052 C1050 1.388 . S
C1052 C1053 1.366 . S
C1053 C1052 1.366 . S
C1053 C1054 1.414 . S
C1053 C1056 1.499 1_554 S
C1054 H1034 0.950 1_554 S
C1054 C1053 1.414 . S
C1054 C1055 1.374 . S
C1055 H1035 0.950 . S
C1055 C1051 1.385 . S
C1055 C1054 1.374 . S
C1056 C1053 1.499 1_556 S
C1056 C1057 1.373 . S
C1056 C1058 1.389 . S
C1057 H1036 0.950 . S
C1057 C1056 1.373 . S
C1057 C1073 1.377 . S
C1058 C1056 1.389 . S
C1058 C1059 1.524 . S
C1058 C1072 1.377 . S
C1059 C1058 1.524 . S
C1059 C1060 1.397 1_556 S
C1059 C1064 1.363 1_556 S
C1060 H1037 0.950 . S
C1060 C1059 1.397 1_554 S
C1060 C1061 1.334 . S
C1061 H1038 0.950 . S
C1061 C1060 1.334 . S
C1061 C1062 1.287 . S
C1062 C1061 1.287 . S
C1062 C1063 1.524 . S
C1062 H1081 0.913 . S
C1063 H1039 0.950 . S
C1063 C1062 1.524 . S
C1063 C1064 1.415 . S
C1064 H1040 0.950 1_554 S
C1064 C1059 1.363 1_554 S
C1064 C1063 1.415 . S
C1065 H1041 0.951 . S
C1065 C1066 1.366 . S
C1065 C1067 1.388 . S
C1066 C1065 1.366 . S
C1066 C1070 1.385 . S
C1067 H1042 0.951 . S
C1067 C1065 1.388 . S
C1067 C1068 1.366 . S
C1068 C1067 1.366 . S
C1068 C1069 1.414 . S
C1068 C1071 1.499 . S
C1069 H1043 0.950 . S
C1069 C1068 1.414 . S
C1069 C1070 1.374 . S
C1070 H1044 0.950 . S
C1070 C1066 1.385 . S
C1070 C1069 1.374 . S
C1071 C1068 1.499 . S
C1071 C1072 1.373 . S
C1071 C1073 1.389 . S
C1072 H1045 0.950 . S
C1072 C1058 1.377 . S
C1072 C1071 1.373 . S
C1073 C1057 1.377 . S
C1073 C1071 1.389 . S
C1073 C1074 1.524 . S
C1074 C1073 1.524 . S
C1074 C1075 1.397 . S
C1074 C1079 1.363 . S
C1075 H1046 0.950 . S
C1075 C1074 1.397 . S
C1075 C1076 1.334 . S
C1076 H1047 0.950 . S
C1076 C1075 1.334 . S
C1076 C1077 1.287 . S
C1077 C1076 1.287 . S
C1077 C1078 1.524 . S
C1077 H1080 0.999 . S
C1078 H1048 0.950 . S
C1078 C1077 1.524 . S
C1078 C1079 1.415 . S
C1079 H1049 0.950 . S
C1079 C1074 1.363 . S
C1079 C1078 1.415 . S
H1080 C1077 0.999 . S
H1081 C1062 0.913 . S
H1082 C1100 0.951 . S
H1083 C1102 0.951 . S
H1084 C1104 0.950 . S
H1085 C1105 0.950 . S
H1086 C1107 0.950 . S
H1087 C1110 0.950 . S
H1088 C1111 0.950 . S
H1089 C1113 0.950 . S
H1090 C1114 0.950 . S
H1091 C1115 0.951 . S
H1092 C1117 0.951 . S
H1093 C1119 0.950 . S
H1094 C1120 0.950 . S
H1095 C1122 0.950 . S
H1096 C1125 0.950 . S
H1097 C1126 0.950 . S
H1098 C1128 0.950 . S
H1099 C1129 0.950 . S
C1100 H1082 0.951 . S
C1100 C1101 1.366 . S
C1100 C1102 1.388 . S
C1101 C1100 1.366 . S
C1101 C1105 1.385 . S
C1102 H1083 0.951 . S
C1102 C1100 1.388 . S
C1102 C1103 1.366 . S
C1103 C1102 1.366 . S
C1103 C1104 1.414 . S
C1103 C1106 1.499 . S
C1104 H1084 0.950 . S
C1104 C1103 1.414 . S
C1104 C1105 1.374 . S
C1105 H1085 0.950 . S
C1105 C1101 1.385 . S
C1105 C1104 1.374 . S
C1106 C1103 1.499 . S
C1106 C1107 1.373 . S
C1106 C1108 1.389 . S
C1107 H1086 0.950 . S
C1107 C1106 1.373 . S
C1107 C1123 1.377 . S
C1108 C1106 1.389 . S
C1108 C1109 1.524 . S
C1108 C1122 1.377 . S
C1109 C1108 1.524 . S
C1109 C1110 1.397 . S
C1109 C1114 1.363 . S
C1110 H1087 0.950 . S
C1110 C1109 1.397 . S
C1110 C1111 1.334 . S
C1111 H1088 0.950 . S
C1111 C1110 1.334 . S
C1111 C1112 1.287 . S
C1112 C1111 1.287 . S
C1112 C1113 1.524 . S
C1112 H1131 0.913 . S
C1113 H1089 0.950 . S
C1113 C1112 1.524 . S
C1113 C1114 1.415 . S
C1114 H1090 0.950 . S
C1114 C1109 1.363 . S
C1114 C1113 1.415 . S
C1115 H1091 0.951 . S
C1115 C1116 1.366 . S
C1115 C1117 1.388 . S
C1116 C1115 1.366 . S
C1116 C1120 1.385 . S
C1117 H1092 0.951 . S
C1117 C1115 1.388 . S
C1117 C1118 1.366 . S
C1118 C1117 1.366 . S
C1118 C1119 1.414 . S
C1118 C1121 1.499 . S
C1119 H1093 0.950 . S
C1119 C1118 1.414 . S
C1119 C1120 1.374 . S
C1120 H1094 0.950 . S
C1120 C1116 1.385 . S
C1120 C1119 1.374 . S
C1121 C1118 1.499 . S
C1121 C1122 1.373 . S
C1121 C1123 1.389 . S
C1122 H1095 0.950 . S
C1122 C1108 1.377 . S
C1122 C1121 1.373 . S
C1123 C1107 1.377 . S
C1123 C1121 1.389 . S
C1123 C1124 1.524 . S
C1124 C1123 1.524 . S
C1124 C1125 1.397 . S
C1124 C1129 1.363 . S
C1125 H1096 0.950 . S
C1125 C1124 1.397 . S
C1125 C1126 1.334 . S
C1126 H1097 0.950 . S
C1126 C1125 1.334 . S
C1126 C1127 1.287 . S
C1127 C1126 1.287 . S
C1127 C1128 1.524 . S
C1127 H1130 0.999 . S
C1128 H1098 0.950 . S
C1128 C1127 1.524 . S
C1128 C1129 1.415 . S
C1129 H1099 0.950 . S
C1129 C1124 1.363 . S
C1129 C1128 1.415 . S
H1130 C1127 0.999 . S
H1131 C1112 0.913 . S
H1132 C1150 0.951 . S
H1133 C1152 0.951 . S
H1134 C1154 0.950 . S
H1135 C1155 0.950 . S
H1136 C1157 0.950 . S
H1137 C1160 0.950 . S
H1138 C1161 0.950 . S
H1139 C1163 0.950 . S
H1140 C1164 0.950 . S
H1141 C1165 0.951 . S
H1142 C1167 0.951 . S
H1143 C1169 0.950 . S
H1144 C1170 0.950 . S
H1145 C1172 0.950 . S
H1146 C1175 0.950 . S
H1147 C1176 0.950 . S
H1148 C1178 0.950 . S
H1149 C1179 0.950 . S
C1150 H1132 0.951 . S
C1150 C1151 1.366 . S
C1150 C1152 1.388 . S
C1151 C1150 1.366 . S
C1151 C1155 1.385 . S
C1152 H1133 0.951 . S
C1152 C1150 1.388 . S
C1152 C1153 1.366 . S
C1153 C1152 1.366 . S
C1153 C1154 1.414 . S
C1153 C1156 1.499 1_556 S
C1154 H1134 0.950 . S
C1154 C1153 1.414 . S
C1154 C1155 1.374 . S
C1155 H1135 0.950 . S
C1155 C1151 1.385 . S
C1155 C1154 1.374 . S
C1156 C1153 1.499 1_554 S
C1156 C1157 1.373 . S
C1156 C1158 1.389 . S
C1157 H1136 0.950 . S
C1157 C1156 1.373 . S
C1157 C1173 1.377 . S
C1158 C1156 1.389 . S
C1158 C1159 1.524 . S
C1158 C1172 1.377 . S
C1159 C1158 1.524 . S
C1159 C1160 1.397 1_554 S
C1159 C1164 1.363 . S
C1160 H1137 0.950 . S
C1160 C1159 1.397 1_556 S
C1160 C1161 1.334 . S
C1161 H1138 0.950 . S
C1161 C1160 1.334 . S
C1161 C1162 1.287 . S
C1162 C1161 1.287 . S
C1162 C1163 1.524 . S
C1162 H1181 0.913 . S
C1163 H1139 0.950 . S
C1163 C1162 1.524 . S
C1163 C1164 1.415 1_556 S
C1164 H1140 0.950 . S
C1164 C1159 1.363 . S
C1164 C1163 1.415 1_554 S
C1165 H1141 0.951 . S
C1165 C1166 1.366 . S
C1165 C1167 1.388 . S
C1166 C1165 1.366 . S
C1166 C1170 1.385 . S
C1167 H1142 0.951 . S
C1167 C1165 1.388 . S
C1167 C1168 1.366 . S
C1168 C1167 1.366 . S
C1168 C1169 1.414 . S
C1168 C1171 1.499 . S
C1169 H1143 0.950 . S
C1169 C1168 1.414 . S
C1169 C1170 1.374 . S
C1170 H1144 0.950 . S
C1170 C1166 1.385 . S
C1170 C1169 1.374 . S
C1171 C1168 1.499 . S
C1171 C1172 1.373 . S
C1171 C1173 1.389 . S
C1172 H1145 0.950 . S
C1172 C1158 1.377 . S
C1172 C1171 1.373 . S
C1173 C1157 1.377 . S
C1173 C1171 1.389 . S
C1173 C1174 1.524 . S
C1174 C1173 1.524 . S
C1174 C1175 1.397 . S
C1174 C1179 1.363 . S
C1175 H1146 0.950 . S
C1175 C1174 1.397 . S
C1175 C1176 1.334 . S
C1176 H1147 0.950 . S
C1176 C1175 1.334 . S
C1176 C1177 1.287 . S
C1177 C1176 1.287 . S
C1177 C1178 1.524 . S
C1177 H1180 0.999 . S
C1178 H1148 0.950 . S
C1178 C1177 1.524 . S
C1178 C1179 1.415 . S
C1179 H1149 0.950 . S
C1179 C1174 1.363 . S
C1179 C1178 1.415 . S
H1180 C1177 0.999 . S
H1181 C1162 0.913 . S
H1182 C1200 0.951 . S
H1183 C1202 0.951 . S
H1184 C1204 0.950 . S
H1185 C1205 0.950 . S
H1186 C1207 0.950 . S
H1187 C1210 0.950 . S
H1188 C1211 0.950 . S
H1189 C1213 0.950 . S
H1190 C1214 0.950 . S
H1191 C1215 0.951 . S
H1192 C1217 0.951 . S
H1193 C1219 0.950 . S
H1194 C1220 0.950 . S
H1195 C1222 0.950 . S
H1196 C1225 0.950 . S
H1197 C1226 0.950 . S
H1198 C1228 0.950 . S
H1199 C1229 0.950 . S
C1200 H1182 0.951 . S
C1200 C1201 1.366 . S
C1200 C1202 1.388 . S
C1201 C1200 1.366 . S
C1201 C1205 1.385 . S
C1202 H1183 0.951 . S
C1202 C1200 1.388 . S
C1202 C1203 1.366 . S
C1203 C1202 1.366 . S
C1203 C1204 1.414 . S
C1203 C1206 1.499 . S
C1204 H1184 0.950 . S
C1204 C1203 1.414 . S
C1204 C1205 1.374 . S
C1205 H1185 0.950 . S
C1205 C1201 1.385 . S
C1205 C1204 1.374 . S
C1206 C1203 1.499 . S
C1206 C1207 1.373 . S
C1206 C1208 1.389 . S
C1207 H1186 0.950 . S
C1207 C1206 1.373 . S
C1207 C1223 1.377 . S
C1208 C1206 1.389 . S
C1208 C1209 1.524 . S
C1208 C1222 1.377 . S
C1209 C1208 1.524 . S
C1209 C1210 1.397 . S
C1209 C1214 1.363 . S
C1210 H1187 0.950 . S
C1210 C1209 1.397 . S
C1210 C1211 1.334 . S
C1211 H1188 0.950 . S
C1211 C1210 1.334 . S
C1211 C1212 1.287 . S
C1212 C1211 1.287 . S
C1212 C1213 1.524 . S
C1212 H1231 0.913 . S
C1213 H1189 0.950 . S
C1213 C1212 1.524 . S
C1213 C1214 1.415 . S
C1214 H1190 0.950 . S
C1214 C1209 1.363 . S
C1214 C1213 1.415 . S
C1215 H1191 0.951 . S
C1215 C1216 1.366 . S
C1215 C1217 1.388 . S
C1216 C1215 1.366 . S
C1216 C1220 1.385 . S
C1217 H1192 0.951 . S
C1217 C1215 1.388 . S
C1217 C1218 1.366 . S
C1218 C1217 1.366 . S
C1218 C1219 1.414 . S
C1218 C1221 1.499 . S
C1219 H1193 0.950 . S
C1219 C1218 1.414 . S
C1219 C1220 1.374 . S
C1220 H1194 0.950 . S
C1220 C1216 1.385 . S
C1220 C1219 1.374 . S
C1221 C1218 1.499 . S
C1221 C1222 1.373 . S
C1221 C1223 1.389 . S
C1222 H1195 0.950 . S
C1222 C1208 1.377 . S
C1222 C1221 1.373 . S
C1223 C1207 1.377 . S
C1223 C1221 1.389 . S
C1223 C1224 1.524 . S
C1224 C1223 1.524 . S
C1224 C1225 1.397 . S
C1224 C1229 1.363 . S
C1225 H1196 0.950 . S
C1225 C1224 1.397 . S
C1225 C1226 1.334 . S
C1226 H1197 0.950 . S
C1226 C1225 1.334 . S
C1226 C1227 1.287 . S
C1227 C1226 1.287 . S
C1227 C1228 1.524 . S
C1227 H1230 0.999 . S
C1228 H1198 0.950 . S
C1228 C1227 1.524 . S
C1228 C1229 1.415 . S
C1229 H1199 0.950 . S
C1229 C1224 1.363 . S
C1229 C1228 1.415 . S
H1230 C1227 0.999 . S
H1231 C1212 0.913 . S
H1232 C1250 0.951 . S
H1233 C1252 0.951 . S
H1234 C1254 0.950 . S
H1235 C1255 0.950 . S
H1236 C1257 0.950 . S
H1237 C1260 0.950 . S
H1238 C1261 0.950 . S
H1239 C1263 0.950 . S
H1240 C1264 0.950 . S
H1241 C1265 0.951 . S
H1242 C1267 0.951 . S
H1243 C1269 0.950 . S
H1244 C1270 0.950 . S
H1245 C1272 0.950 . S
H1246 C1275 0.950 . S
H1247 C1276 0.950 . S
H1248 C1278 0.950 . S
H1249 C1279 0.950 . S
C1250 H1232 0.951 . S
C1250 C1251 1.366 . S
C1250 C1252 1.388 . S
C1251 C1250 1.366 . S
C1251 C1255 1.385 . S
C1252 H1233 0.951 . S
C1252 C1250 1.388 . S
C1252 C1253 1.366 . S
C1253 C1252 1.366 . S
C1253 C1254 1.414 . S
C1253 C1256 1.499 . S
C1254 H1234 0.950 . S
C1254 C1253 1.414 . S
C1254 C1255 1.374 . S
C1255 H1235 0.950 . S
C1255 C1251 1.385 . S
C1255 C1254 1.374 . S
C1256 C1253 1.499 . S
C1256 C1257 1.373 . S
C1256 C1258 1.389 . S
C1257 H1236 0.950 . S
C1257 C1256 1.373 . S
C1257 C1273 1.377 . S
C1258 C1256 1.389 . S
C1258 C1259 1.524 . S
C1258 C1272 1.377 . S
C1259 C1258 1.524 . S
C1259 C1260 1.397 . S
C1259 C1264 1.363 . S
C1260 H1237 0.950 . S
C1260 C1259 1.397 . S
C1260 C1261 1.334 . S
C1261 H1238 0.950 . S
C1261 C1260 1.334 . S
C1261 C1262 1.287 . S
C1262 C1261 1.287 . S
C1262 C1263 1.524 . S
C1262 H1281 0.913 . S
C1263 H1239 0.950 . S
C1263 C1262 1.524 . S
C1263 C1264 1.415 . S
C1264 H1240 0.950 . S
C1264 C1259 1.363 . S
C1264 C1263 1.415 . S
C1265 H1241 0.951 . S
C1265 C1266 1.366 . S
C1265 C1267 1.388 . S
C1266 C1265 1.366 . S
C1266 C1270 1.385 . S
C1267 H1242 0.951 . S
C1267 C1265 1.388 . S
C1267 C1268 1.366 . S
C1268 C1267 1.366 . S
C1268 C1269 1.414 . S
C1268 C1271 1.499 . S
C1269 H1243 0.950 . S
C1269 C1268 1.414 . S
C1269 C1270 1.374 . S
C1270 H1244 0.950 . S
C1270 C1266 1.385 . S
C1270 C1269 1.374 . S
C1271 C1268 1.499 . S
C1271 C1272 1.373 . S
C1271 C1273 1.389 . S
C1272 H1245 0.950 . S
C1272 C1258 1.377 . S
C1272 C1271 1.373 . S
C1273 C1257 1.377 . S
C1273 C1271 1.389 . S
C1273 C1274 1.524 . S
C1274 C1273 1.524 . S
C1274 C1275 1.397 . S
C1274 C1279 1.363 . S
C1275 H1246 0.950 . S
C1275 C1274 1.397 . S
C1275 C1276 1.334 . S
C1276 H1247 0.950 . S
C1276 C1275 1.334 . S
C1276 C1277 1.287 . S
C1277 C1276 1.287 . S
C1277 C1278 1.524 . S
C1277 H1280 0.999 . S
C1278 H1248 0.950 . S
C1278 C1277 1.524 . S
C1278 C1279 1.415 . S
C1279 H1249 0.950 . S
C1279 C1274 1.363 . S
C1279 C1278 1.415 . S
H1280 C1277 0.999 . S
H1281 C1262 0.913 . S
H1282 C1300 0.951 . S
H1283 C1302 0.951 . S
H1284 C1304 0.950 . S
H1285 C1305 0.950 . S
H1286 C1307 0.950 . S
H1287 C1310 0.950 . S
H1288 C1311 0.950 . S
H1289 C1313 0.950 . S
H1290 C1314 0.950 . S
H1291 C1315 0.951 . S
H1292 C1317 0.951 . S
H1293 C1319 0.950 . S
H1294 C1320 0.950 . S
H1295 C1322 0.950 . S
H1296 C1325 0.950 . S
H1297 C1326 0.950 . S
H1298 C1328 0.950 . S
H1299 C1329 0.950 . S
C1300 H1282 0.951 . S
C1300 C1301 1.366 . S
C1300 C1302 1.388 . S
C1301 C1300 1.366 . S
C1301 C1305 1.385 . S
C1302 H1283 0.951 . S
C1302 C1300 1.388 . S
C1302 C1303 1.366 . S
C1303 C1302 1.366 . S
C1303 C1304 1.414 . S
C1303 C1306 1.499 . S
C1304 H1284 0.950 . S
C1304 C1303 1.414 . S
C1304 C1305 1.374 . S
C1305 H1285 0.950 . S
C1305 C1301 1.385 . S
C1305 C1304 1.374 . S
C1306 C1303 1.499 . S
C1306 C1307 1.373 . S
C1306 C1308 1.389 . S
C1307 H1286 0.950 . S
C1307 C1306 1.373 . S
C1307 C1323 1.377 . S
C1308 C1306 1.389 . S
C1308 C1309 1.524 . S
C1308 C1322 1.377 . S
C1309 C1308 1.524 . S
C1309 C1310 1.397 . S
C1309 C1314 1.363 . S
C1310 H1287 0.950 . S
C1310 C1309 1.397 . S
C1310 C1311 1.334 . S
C1311 H1288 0.950 . S
C1311 C1310 1.334 . S
C1311 C1312 1.287 . S
C1312 C1311 1.287 . S
C1312 C1313 1.524 . S
C1312 H1331 0.913 . S
C1313 H1289 0.950 . S
C1313 C1312 1.524 . S
C1313 C1314 1.415 . S
C1314 H1290 0.950 . S
C1314 C1309 1.363 . S
C1314 C1313 1.415 . S
C1315 H1291 0.951 . S
C1315 C1316 1.366 . S
C1315 C1317 1.388 . S
C1316 C1315 1.366 . S
C1316 C1320 1.385 . S
C1317 H1292 0.951 . S
C1317 C1315 1.388 . S
C1317 C1318 1.366 . S
C1318 C1317 1.366 . S
C1318 C1319 1.414 . S
C1318 C1321 1.499 . S
C1319 H1293 0.950 . S
C1319 C1318 1.414 . S
C1319 C1320 1.374 . S
C1320 H1294 0.950 . S
C1320 C1316 1.385 . S
C1320 C1319 1.374 . S
C1321 C1318 1.499 . S
C1321 C1322 1.373 . S
C1321 C1323 1.389 . S
C1322 H1295 0.950 . S
C1322 C1308 1.377 . S
C1322 C1321 1.373 . S
C1323 C1307 1.377 . S
C1323 C1321 1.389 . S
C1323 C1324 1.524 . S
C1324 C1323 1.524 . S
C1324 C1325 1.397 . S
C1324 C1329 1.363 . S
C1325 H1296 0.950 . S
C1325 C1324 1.397 . S
C1325 C1326 1.334 . S
C1326 H1297 0.950 . S
C1326 C1325 1.334 . S
C1326 C1327 1.287 . S
C1327 C1326 1.287 . S
C1327 C1328 1.524 . S
C1327 H1330 0.999 . S
C1328 H1298 0.950 . S
C1328 C1327 1.524 . S
C1328 C1329 1.415 . S
C1329 H1299 0.950 . S
C1329 C1324 1.363 . S
C1329 C1328 1.415 . S
H1330 C1327 0.999 . S
H1331 C1312 0.913 . S
H1332 C1350 0.951 . S
H1333 C1352 0.951 . S
H1334 C1354 0.950 . S
H1335 C1355 0.950 . S
H1336 C1357 0.950 . S
H1337 C1360 0.950 . S
H1338 C1361 0.950 . S
H1339 C1363 0.950 . S
H1340 C1364 0.950 . S
H1341 C1365 0.951 . S
H1342 C1367 0.951 . S
H1343 C1369 0.950 . S
H1344 C1370 0.950 . S
H1345 C1372 0.950 . S
H1346 C1375 0.950 . S
H1347 C1376 0.950 . S
H1348 C1378 0.950 . S
H1349 C1379 0.950 . S
C1350 H1332 0.951 . S
C1350 C1351 1.366 . S
C1350 C1352 1.388 . S
C1351 C1350 1.366 . S
C1351 C1355 1.385 . S
C1352 H1333 0.951 . S
C1352 C1350 1.388 . S
C1352 C1353 1.366 . S
C1353 C1352 1.366 . S
C1353 C1354 1.414 . S
C1353 C1356 1.499 . S
C1354 H1334 0.950 . S
C1354 C1353 1.414 . S
C1354 C1355 1.374 . S
C1355 H1335 0.950 . S
C1355 C1351 1.385 . S
C1355 C1354 1.374 . S
C1356 C1353 1.499 . S
C1356 C1357 1.373 . S
C1356 C1358 1.389 . S
C1357 H1336 0.950 . S
C1357 C1356 1.373 . S
C1357 C1373 1.377 . S
C1358 C1356 1.389 . S
C1358 C1359 1.524 . S
C1358 C1372 1.377 . S
C1359 C1358 1.524 . S
C1359 C1360 1.397 . S
C1359 C1364 1.363 . S
C1360 H1337 0.950 . S
C1360 C1359 1.397 . S
C1360 C1361 1.334 . S
C1361 H1338 0.950 . S
C1361 C1360 1.334 . S
C1361 C1362 1.287 . S
C1362 C1361 1.287 . S
C1362 C1363 1.524 . S
C1362 H1381 0.913 . S
C1363 H1339 0.950 . S
C1363 C1362 1.524 . S
C1363 C1364 1.415 . S
C1364 H1340 0.950 . S
C1364 C1359 1.363 . S
C1364 C1363 1.415 . S
C1365 H1341 0.951 . S
C1365 C1366 1.366 . S
C1365 C1367 1.388 . S
C1366 C1365 1.366 . S
C1366 C1370 1.385 . S
C1367 H1342 0.951 . S
C1367 C1365 1.388 . S
C1367 C1368 1.366 . S
C1368 C1367 1.366 . S
C1368 C1369 1.414 . S
C1368 C1371 1.499 . S
C1369 H1343 0.950 . S
C1369 C1368 1.414 . S
C1369 C1370 1.374 . S
C1370 H1344 0.950 . S
C1370 C1366 1.385 . S
C1370 C1369 1.374 . S
C1371 C1368 1.499 . S
C1371 C1372 1.373 . S
C1371 C1373 1.389 . S
C1372 H1345 0.950 . S
C1372 C1358 1.377 . S
C1372 C1371 1.373 . S
C1373 C1357 1.377 . S
C1373 C1371 1.389 . S
C1373 C1374 1.524 . S
C1374 C1373 1.524 . S
C1374 C1375 1.397 . S
C1374 C1379 1.363 . S
C1375 H1346 0.950 . S
C1375 C1374 1.397 . S
C1375 C1376 1.334 . S
C1376 H1347 0.950 . S
C1376 C1375 1.334 . S
C1376 C1377 1.287 . S
C1377 C1376 1.287 . S
C1377 C1378 1.524 . S
C1377 H1380 0.999 . S
C1378 H1348 0.950 . S
C1378 C1377 1.524 . S
C1378 C1379 1.415 . S
C1379 H1349 0.950 . S
C1379 C1374 1.363 . S
C1379 C1378 1.415 . S
H1380 C1377 0.999 . S
H1381 C1362 0.913 . S
H1382 C1400 0.951 . S
H1383 C1402 0.951 . S
H1384 C1404 0.950 . S
H1385 C1405 0.950 . S
H1386 C1407 0.950 . S
H1387 C1410 0.950 . S
H1388 C1411 0.950 . S
H1389 C1413 0.950 1_455 S
H1390 C1414 0.950 . S
H1391 C1415 0.951 . S
H1392 C1417 0.951 . S
H1393 C1419 0.950 . S
H1394 C1420 0.950 . S
H1395 C1422 0.950 . S
H1396 C1425 0.950 . S
H1397 C1426 0.950 . S
H1398 C1428 0.950 . S
H1399 C1429 0.950 . S
C1400 H1382 0.951 . S
C1400 C1401 1.366 . S
C1400 C1402 1.388 . S
C1401 C1400 1.366 . S
C1401 C1405 1.385 . S
C1402 H1383 0.951 . S
C1402 C1400 1.388 . S
C1402 C1403 1.366 . S
C1403 C1402 1.366 . S
C1403 C1404 1.414 . S
C1403 C1406 1.499 . S
C1404 H1384 0.950 . S
C1404 C1403 1.414 . S
C1404 C1405 1.374 . S
C1405 H1385 0.950 . S
C1405 C1401 1.385 . S
C1405 C1404 1.374 . S
C1406 C1403 1.499 . S
C1406 C1407 1.373 . S
C1406 C1408 1.389 . S
C1407 H1386 0.950 . S
C1407 C1406 1.373 . S
C1407 C1423 1.377 . S
C1408 C1406 1.389 . S
C1408 C1409 1.524 . S
C1408 C1422 1.377 . S
C1409 C1408 1.524 . S
C1409 C1410 1.397 . S
C1409 C1414 1.363 . S
C1410 H1387 0.950 . S
C1410 C1409 1.397 . S
C1410 C1411 1.334 . S
C1411 H1388 0.950 . S
C1411 C1410 1.334 . S
C1411 C1412 1.287 . S
C1412 C1411 1.287 . S
C1412 C1413 1.524 . S
C1412 H1431 0.913 . S
C1413 H1389 0.950 1_655 S
C1413 C1412 1.524 . S
C1413 C1414 1.415 . S
C1414 H1390 0.950 . S
C1414 C1409 1.363 . S
C1414 C1413 1.415 . S
C1415 H1391 0.951 . S
C1415 C1416 1.366 . S
C1415 C1417 1.388 . S
C1416 C1415 1.366 . S
C1416 C1420 1.385 . S
C1417 H1392 0.951 . S
C1417 C1415 1.388 . S
C1417 C1418 1.366 . S
C1418 C1417 1.366 . S
C1418 C1419 1.414 . S
C1418 C1421 1.499 . S
C1419 H1393 0.950 . S
C1419 C1418 1.414 . S
C1419 C1420 1.374 . S
C1420 H1394 0.950 . S
C1420 C1416 1.385 . S
C1420 C1419 1.374 . S
C1421 C1418 1.499 . S
C1421 C1422 1.373 . S
C1421 C1423 1.389 . S
C1422 H1395 0.950 . S
C1422 C1408 1.377 . S
C1422 C1421 1.373 . S
C1423 C1407 1.377 . S
C1423 C1421 1.389 . S
C1423 C1424 1.524 . S
C1424 C1423 1.524 . S
C1424 C1425 1.397 . S
C1424 C1429 1.363 . S
C1425 H1396 0.950 . S
C1425 C1424 1.397 . S
C1425 C1426 1.334 . S
C1426 H1397 0.950 . S
C1426 C1425 1.334 . S
C1426 C1427 1.287 . S
C1427 C1426 1.287 . S
C1427 C1428 1.524 . S
C1427 H1430 0.999 . S
C1428 H1398 0.950 . S
C1428 C1427 1.524 . S
C1428 C1429 1.415 . S
C1429 H1399 0.950 . S
C1429 C1424 1.363 . S
C1429 C1428 1.415 . S
H1430 C1427 0.999 . S
H1431 C1412 0.913 . S
H1432 C1450 0.951 . S
H1433 C1452 0.951 . S
H1434 C1454 0.950 . S
H1435 C1455 0.950 . S
H1436 C1457 0.950 . S
H1437 C1460 0.950 . S
H1438 C1461 0.950 . S
H1439 C1463 0.950 . S
H1440 C1464 0.950 . S
H1441 C1465 0.951 . S
H1442 C1467 0.951 . S
H1443 C1469 0.950 . S
H1444 C1470 0.950 . S
H1445 C1472 0.950 . S
H1446 C1475 0.950 . S
H1447 C1476 0.950 . S
H1448 C1478 0.950 . S
H1449 C1479 0.950 . S
C1450 H1432 0.951 . S
C1450 C1451 1.366 . S
C1450 C1452 1.388 . S
C1451 C1450 1.366 . S
C1451 C1455 1.385 . S
C1452 H1433 0.951 . S
C1452 C1450 1.388 . S
C1452 C1453 1.366 . S
C1453 C1452 1.366 . S
C1453 C1454 1.414 . S
C1453 C1456 1.499 . S
C1454 H1434 0.950 . S
C1454 C1453 1.414 . S
C1454 C1455 1.374 . S
C1455 H1435 0.950 . S
C1455 C1451 1.385 . S
C1455 C1454 1.374 . S
C1456 C1453 1.499 . S
C1456 C1457 1.373 . S
C1456 C1458 1.389 . S
C1457 H1436 0.950 . S
C1457 C1456 1.373 . S
C1457 C1473 1.377 . S
C1458 C1456 1.389 . S
C1458 C1459 1.524 . S
C1458 C1472 1.377 . S
C1459 C1458 1.524 . S
C1459 C1460 1.397 . S
C1459 C1464 1.363 . S
C1460 H1437 0.950 . S
C1460 C1459 1.397 . S
C1460 C1461 1.334 . S
C1461 H1438 0.950 . S
C1461 C1460 1.334 . S
C1461 C1462 1.287 . S
C1462 C1461 1.287 . S
C1462 C1463 1.524 . S
C1462 H1481 0.913 . S
C1463 H1439 0.950 . S
C1463 C1462 1.524 . S
C1463 C1464 1.415 . S
C1464 H1440 0.950 . S
C1464 C1459 1.363 . S
C1464 C1463 1.415 . S
C1465 H1441 0.951 . S
C1465 C1466 1.366 . S
C1465 C1467 1.388 . S
C1466 C1465 1.366 . S
C1466 C1470 1.385 . S
C1467 H1442 0.951 . S
C1467 C1465 1.388 . S
C1467 C1468 1.366 . S
C1468 C1467 1.366 . S
C1468 C1469 1.414 . S
C1468 C1471 1.499 . S
C1469 H1443 0.950 . S
C1469 C1468 1.414 . S
C1469 C1470 1.374 . S
C1470 H1444 0.950 . S
C1470 C1466 1.385 . S
C1470 C1469 1.374 . S
C1471 C1468 1.499 . S
C1471 C1472 1.373 . S
C1471 C1473 1.389 . S
C1472 H1445 0.950 . S
C1472 C1458 1.377 . S
C1472 C1471 1.373 . S
C1473 C1457 1.377 . S
C1473 C1471 1.389 . S
C1473 C1474 1.524 . S
C1474 C1473 1.524 . S
C1474 C1475 1.397 . S
C1474 C1479 1.363 . S
C1475 H1446 0.950 . S
C1475 C1474 1.397 . S
C1475 C1476 1.334 . S
C1476 H1447 0.950 . S
C1476 C1475 1.334 . S
C1476 C1477 1.287 . S
C1477 C1476 1.287 . S
C1477 C1478 1.524 . S
C1477 H1480 0.999 . S
C1478 H1448 0.950 . S
C1478 C1477 1.524 . S
C1478 C1479 1.415 . S
C1479 H1449 0.950 . S
C1479 C1474 1.363 . S
C1479 C1478 1.415 . S
H1480 C1477 0.999 . S
H1481 C1462 0.913 . S
H1482 C1500 0.951 . S
H1483 C1502 0.951 . S
H1484 C1504 0.950 . S
H1485 C1505 0.950 . S
H1486 C1507 0.950 . S
H1487 C1510 0.950 . S
H1488 C1511 0.950 . S
H1489 C1513 0.950 . S
H1490 C1514 0.950 . S
H1491 C1515 0.951 . S
H1492 C1517 0.951 . S
H1493 C1519 0.950 . S
H1494 C1520 0.950 . S
H1495 C1522 0.950 . S
H1496 C1525 0.950 . S
H1497 C1526 0.950 . S
H1498 C1528 0.950 . S
H1499 C1529 0.950 . S
C1500 H1482 0.951 . S
C1500 C1501 1.366 . S
C1500 C1502 1.388 . S
C1501 C1500 1.366 . S
C1501 C1505 1.385 . S
C1502 H1483 0.951 . S
C1502 C1500 1.388 . S
C1502 C1503 1.366 . S
C1503 C1502 1.366 . S
C1503 C1504 1.414 . S
C1503 C1506 1.499 . S
C1504 H1484 0.950 . S
C1504 C1503 1.414 . S
C1504 C1505 1.374 . S
C1505 H1485 0.950 . S
C1505 C1501 1.385 . S
C1505 C1504 1.374 . S
C1506 C1503 1.499 . S
C1506 C1507 1.373 . S
C1506 C1508 1.389 . S
C1507 H1486 0.950 . S
C1507 C1506 1.373 . S
C1507 C1523 1.377 . S
C1508 C1506 1.389 . S
C1508 C1509 1.524 . S
C1508 C1522 1.377 . S
C1509 C1508 1.524 . S
C1509 C1510 1.397 . S
C1509 C1514 1.363 . S
C1510 H1487 0.950 . S
C1510 C1509 1.397 . S
C1510 C1511 1.334 . S
C1511 H1488 0.950 . S
C1511 C1510 1.334 . S
C1511 C1512 1.287 . S
C1512 C1511 1.287 . S
C1512 C1513 1.524 . S
C1512 H1531 0.913 . S
C1513 H1489 0.950 . S
C1513 C1512 1.524 . S
C1513 C1514 1.415 . S
C1514 H1490 0.950 . S
C1514 C1509 1.363 . S
C1514 C1513 1.415 . S
C1515 H1491 0.951 . S
C1515 C1516 1.366 . S
C1515 C1517 1.388 . S
C1516 C1515 1.366 . S
C1516 C1520 1.385 . S
C1517 H1492 0.951 . S
C1517 C1515 1.388 . S
C1517 C1518 1.366 . S
C1518 C1517 1.366 . S
C1518 C1519 1.414 . S
C1518 C1521 1.499 . S
C1519 H1493 0.950 . S
C1519 C1518 1.414 . S
C1519 C1520 1.374 . S
C1520 H1494 0.950 . S
C1520 C1516 1.385 . S
C1520 C1519 1.374 . S
C1521 C1518 1.499 . S
C1521 C1522 1.373 . S
C1521 C1523 1.389 . S
C1522 H1495 0.950 . S
C1522 C1508 1.377 . S
C1522 C1521 1.373 . S
C1523 C1507 1.377 . S
C1523 C1521 1.389 . S
C1523 C1524 1.524 . S
C1524 C1523 1.524 . S
C1524 C1525 1.397 . S
C1524 C1529 1.363 . S
C1525 H1496 0.950 . S
C1525 C1524 1.397 . S
C1525 C1526 1.334 . S
C1526 H1497 0.950 . S
C1526 C1525 1.334 . S
C1526 C1527 1.287 . S
C1527 C1526 1.287 . S
C1527 C1528 1.524 . S
C1527 H1530 0.999 . S
C1528 H1498 0.950 . S
C1528 C1527 1.524 . S
C1528 C1529 1.415 . S
C1529 H1499 0.950 . S
C1529 C1524 1.363 . S
C1529 C1528 1.415 . S
H1530 C1527 0.999 . S
H1531 C1512 0.913 . S
H1532 C1550 0.951 . S
H1533 C1552 0.951 . S
H1534 C1554 0.950 . S
H1535 C1555 0.950 . S
H1536 C1557 0.950 . S
H1537 C1560 0.950 . S
H1538 C1561 0.950 . S
H1539 C1563 0.950 . S
H1540 C1564 0.950 . S
H1541 C1565 0.951 . S
H1542 C1567 0.951 . S
H1543 C1569 0.950 . S
H1544 C1570 0.950 . S
H1545 C1572 0.950 . S
H1546 C1575 0.950 . S
H1547 C1576 0.950 . S
H1548 C1578 0.950 . S
H1549 C1579 0.950 . S
C1550 H1532 0.951 . S
C1550 C1551 1.366 . S
C1550 C1552 1.388 . S
C1551 C1550 1.366 . S
C1551 C1555 1.385 . S
C1552 H1533 0.951 . S
C1552 C1550 1.388 . S
C1552 C1553 1.366 . S
C1553 C1552 1.366 . S
C1553 C1554 1.414 . S
C1553 C1556 1.499 . S
C1554 H1534 0.950 . S
C1554 C1553 1.414 . S
C1554 C1555 1.374 . S
C1555 H1535 0.950 . S
C1555 C1551 1.385 . S
C1555 C1554 1.374 . S
C1556 C1553 1.499 . S
C1556 C1557 1.373 . S
C1556 C1558 1.389 . S
C1557 H1536 0.950 . S
C1557 C1556 1.373 . S
C1557 C1573 1.377 . S
C1558 C1556 1.389 . S
C1558 C1559 1.524 . S
C1558 C1572 1.377 . S
C1559 C1558 1.524 . S
C1559 C1560 1.397 . S
C1559 C1564 1.363 . S
C1560 H1537 0.950 . S
C1560 C1559 1.397 . S
C1560 C1561 1.334 . S
C1561 H1538 0.950 . S
C1561 C1560 1.334 . S
C1561 C1562 1.287 . S
C1562 C1561 1.287 . S
C1562 C1563 1.524 . S
C1562 H1581 0.913 . S
C1563 H1539 0.950 . S
C1563 C1562 1.524 . S
C1563 C1564 1.415 . S
C1564 H1540 0.950 . S
C1564 C1559 1.363 . S
C1564 C1563 1.415 . S
C1565 H1541 0.951 . S
C1565 C1566 1.366 . S
C1565 C1567 1.388 . S
C1566 C1565 1.366 . S
C1566 C1570 1.385 . S
C1567 H1542 0.951 . S
C1567 C1565 1.388 . S
C1567 C1568 1.366 . S
C1568 C1567 1.366 . S
C1568 C1569 1.414 . S
C1568 C1571 1.499 . S
C1569 H1543 0.950 . S
C1569 C1568 1.414 . S
C1569 C1570 1.374 . S
C1570 H1544 0.950 . S
C1570 C1566 1.385 . S
C1570 C1569 1.374 . S
C1571 C1568 1.499 . S
C1571 C1572 1.373 . S
C1571 C1573 1.389 . S
C1572 H1545 0.950 . S
C1572 C1558 1.377 . S
C1572 C1571 1.373 . S
C1573 C1557 1.377 . S
C1573 C1571 1.389 . S
C1573 C1574 1.524 . S
C1574 C1573 1.524 . S
C1574 C1575 1.397 . S
C1574 C1579 1.363 . S
C1575 H1546 0.950 . S
C1575 C1574 1.397 . S
C1575 C1576 1.334 . S
C1576 H1547 0.950 . S
C1576 C1575 1.334 . S
C1576 C1577 1.287 . S
C1577 C1576 1.287 . S
C1577 C1578 1.524 . S
C1577 H1580 0.999 . S
C1578 H1548 0.950 . S
C1578 C1577 1.524 . S
C1578 C1579 1.415 . S
C1579 H1549 0.950 . S
C1579 C1574 1.363 . S
C1579 C1578 1.415 . S
H1580 C1577 0.999 . S
H1581 C1562 0.913 . S
H1582 C1600 0.951 . S
H1583 C1602 0.951 . S
H1584 C1604 0.950 . S
H1585 C1605 0.950 . S
H1586 C1607 0.950 . S
H1587 C1610 0.950 . S
H1588 C1611 0.950 . S
H1589 C1613 0.950 . S
H1590 C1614 0.950 . S
H1591 C1615 0.951 . S
H1592 C1617 0.951 . S
H1593 C1619 0.950 . S
H1594 C1620 0.950 . S
H1595 C1622 0.950 . S
H1596 C1625 0.950 . S
H1597 C1626 0.950 . S
H1598 C1628 0.950 . S
H1599 C1629 0.950 . S
C1600 H1582 0.951 . S
C1600 C1601 1.366 . S
C1600 C1602 1.388 . S
C1601 C1600 1.366 . S
C1601 C1605 1.385 . S
C1602 H1583 0.951 . S
C1602 C1600 1.388 . S
C1602 C1603 1.366 . S
C1603 C1602 1.366 . S
C1603 C1604 1.414 . S
C1603 C1606 1.499 . S
C1604 H1584 0.950 . S
C1604 C1603 1.414 . S
C1604 C1605 1.374 . S
C1605 H1585 0.950 . S
C1605 C1601 1.385 . S
C1605 C1604 1.374 . S
C1606 C1603 1.499 . S
C1606 C1607 1.373 . S
C1606 C1608 1.389 . S
C1607 H1586 0.950 . S
C1607 C1606 1.373 . S
C1607 C1623 1.377 . S
C1608 C1606 1.389 . S
C1608 C1609 1.524 . S
C1608 C1622 1.377 . S
C1609 C1608 1.524 . S
C1609 C1610 1.397 . S
C1609 C1614 1.363 . S
C1610 H1587 0.950 . S
C1610 C1609 1.397 . S
C1610 C1611 1.334 . S
C1611 H1588 0.950 . S
C1611 C1610 1.334 . S
C1611 C1612 1.287 . S
C1612 C1611 1.287 . S
C1612 C1613 1.524 . S
C1612 H1631 0.913 . S
C1613 H1589 0.950 . S
C1613 C1612 1.524 . S
C1613 C1614 1.415 . S
C1614 H1590 0.950 . S
C1614 C1609 1.363 . S
C1614 C1613 1.415 . S
C1615 H1591 0.951 . S
C1615 C1616 1.366 . S
C1615 C1617 1.388 . S
C1616 C1615 1.366 . S
C1616 C1620 1.385 . S
C1617 H1592 0.951 . S
C1617 C1615 1.388 . S
C1617 C1618 1.366 . S
C1618 C1617 1.366 . S
C1618 C1619 1.414 . S
C1618 C1621 1.499 . S
C1619 H1593 0.950 . S
C1619 C1618 1.414 . S
C1619 C1620 1.374 . S
C1620 H1594 0.950 . S
C1620 C1616 1.385 . S
C1620 C1619 1.374 . S
C1621 C1618 1.499 . S
C1621 C1622 1.373 . S
C1621 C1623 1.389 . S
C1622 H1595 0.950 . S
C1622 C1608 1.377 . S
C1622 C1621 1.373 . S
C1623 C1607 1.377 . S
C1623 C1621 1.389 . S
C1623 C1624 1.524 . S
C1624 C1623 1.524 . S
C1624 C1625 1.397 . S
C1624 C1629 1.363 . S
C1625 H1596 0.950 . S
C1625 C1624 1.397 . S
C1625 C1626 1.334 . S
C1626 H1597 0.950 . S
C1626 C1625 1.334 . S
C1626 C1627 1.287 . S
C1627 C1626 1.287 . S
C1627 C1628 1.524 . S
C1627 H1630 0.999 . S
C1628 H1598 0.950 . S
C1628 C1627 1.524 . S
C1628 C1629 1.415 . S
C1629 H1599 0.950 . S
C1629 C1624 1.363 . S
C1629 C1628 1.415 . S
H1630 C1627 0.999 . S
H1631 C1612 0.913 . S
C451 C81 1.699 . S
C466 C170 1.679 . S
C516 C254 1.679 . S
C501 C93 1.699 . S
C566 C247 1.689 . S
C551 C57 1.691 . S
C601 C69 1.691 . S
C616 C163 1.689 . S
C666 C327 1.679 . S
C651 C33 1.695 . S
C716 C411 1.679 . S
C701 C45 1.695 . S
C751 C9 1.686 . S
C766 C404 1.689 . S
C801 C21 1.686 . S
C816 C320 1.689 . S
C866 C154 1.472 . S
C851 C18 1.628 . S
C916 C238 1.472 . S
C901 C6 1.628 . S
C966 C249 1.431 . S
C951 C42 1.639 . S
C1016 C165 1.432 . S
C1001 C30 1.639 . S
C1066 C333 1.473 . S
C1051 C66 1.635 . S
C1101 C54 1.635 . S
C1116 C417 1.472 . S
C1166 C406 1.433 . S
C1151 C90 1.646 . S
C1201 C78 1.646 . S
C1216 C322 1.432 . S
C1266 C152 1.560 . S
C1251 C4 1.544 . S
C1316 C236 1.560 . S
C1301 C16 1.545 . S
C1351 C28 1.540 . S
C1366 C243 1.528 . S
C1416 C159 1.529 . S
C1401 C40 1.540 . S
C1466 C331 1.560 . S
C1451 C52 1.540 . S
C1501 C64 1.539 . S
C1516 C415 1.560 . S
C1551 C76 1.535 . S
C1566 C422 1.528 . S
C1601 C88 1.536 . S
C1616 C338 1.528 . S
