# Generated by pormake.
# Topology tsx, (6,3)-cn, num edge types: 1
# Building blocks:
#     Node 0, Type 0, BuildingBlock: LEVNOQ01_clean_sbu_1, # of connection points: 6
#     Node 1, Type 0, BuildingBlock: LEVNOQ01_clean_sbu_1, # of connection points: 6
#     Node 2, Type 1, BuildingBlock: BELTOD_clean_linker_0, # of connection points: 3
#     Node 3, Type 1, BuildingBlock: BELTOD_clean_linker_0, # of connection points: 3
#     Node 4, Type 1, BuildingBlock: BELTOD_clean_linker_0, # of connection points: 3
#     Node 5, Type 1, BuildingBlock: BELTOD_clean_linker_0, # of connection points: 3
#     Edge 6, Type (0, 1), BuildingBlock: CIFDUS_clean_linker_0, # of connection points: 2
#     Edge 7, Type (0, 1), BuildingBlock: CIFDUS_clean_linker_0, # of connection points: 2
#     Edge 8, Type (0, 1), BuildingBlock: CIFDUS_clean_linker_0, # of connection points: 2
#     Edge 9, Type (0, 1), BuildingBlock: CIFDUS_clean_linker_0, # of connection points: 2
#     Edge 10, Type (0, 1), BuildingBlock: CIFDUS_clean_linker_0, # of connection points: 2
#     Edge 11, Type (0, 1), BuildingBlock: CIFDUS_clean_linker_0, # of connection points: 2
#     Edge 12, Type (0, 1), BuildingBlock: CIFDUS_clean_linker_0, # of connection points: 2
#     Edge 13, Type (0, 1), BuildingBlock: CIFDUS_clean_linker_0, # of connection points: 2
#     Edge 14, Type (0, 1), BuildingBlock: CIFDUS_clean_linker_0, # of connection points: 2
#     Edge 15, Type (0, 1), BuildingBlock: CIFDUS_clean_linker_0, # of connection points: 2
#     Edge 16, Type (0, 1), BuildingBlock: CIFDUS_clean_linker_0, # of connection points: 2
#     Edge 17, Type (0, 1), BuildingBlock: CIFDUS_clean_linker_0, # of connection points: 2
# Relax obj value: 0.118
# Max RMSD: 0.151
# Mean RMSD: 0.111
data_MOF--net-tsx--node1-LEVNOQ01_clean_sbu_1--node2-BELTOD_clean_linker_0--edge1-CIFDUS_clean_linker_0
_symmetry_space_group_name_H-M    P1
_symmetry_Int_Tables_number       1
_symmetry_cell_setting            triclinic
loop_
_symmetry_equiv_pos_as_xyz
'x, y, z'
_cell_length_a     18.676458
_cell_length_b     22.685809
_cell_length_c     37.171751
_cell_angle_alpha  98.536486
_cell_angle_beta   90.706697
_cell_angle_gamma 91.239471
loop_
_atom_site_label
_atom_site_type_symbol
_atom_site_fract_x
_atom_site_fract_y
_atom_site_fract_z
_atom_type_partial_charge
O0 O 0.14246 0.02555 0.07781 0.0
Mg1 Mg 0.19362 0.04204 0.02956 0.0
O2 O 0.02979 0.01818 0.05704 0.0
Mg3 Mg 0.03711 0.02294 -0.00527 0.0
O4 O 0.12794 0.09217 0.00351 0.0
O5 O 0.23642 0.12444 0.02357 0.0
O6 O 0.04703 0.02681 0.93286 0.0
O7 O 0.96887 0.11002 0.00189 0.0
Mg8 Mg 0.89838 0.01993 0.96968 0.0
O9 O 0.9461 0.94913 0.98653 0.0
O10 O 0.93575 0.04923 0.92134 0.0
O11 O 0.86238 0.07958 0.01398 0.0
O12 O 0.8369 0.94577 0.95958 0.0
C13 C 0.17449 0.92724 0.98332 0.0
C14 C 0.0759 0.01775 0.08275 0.0
C15 C 0.17691 0.13379 0.00763 0.0
C16 C 5e-05 0.04301 0.91146 0.0
C17 C 0.90591 0.12226 0.01294 0.0
C18 C 0.88673 0.92064 0.97575 0.0
O19 O 0.22187 0.96698 -0.00613 0.0
O20 O 0.108 0.93854 0.98577 0.0
O21 O 0.61909 0.53551 0.5904 0.0
Mg22 Mg 0.67872 0.54663 0.54443 0.0
O23 O 0.51953 0.50807 0.55851 0.0
Mg24 Mg 0.53573 0.52017 0.49781 0.0
O25 O 0.62539 0.59197 0.50927 0.0
O26 O 0.72589 0.62684 0.53879 0.0
O27 O 0.55767 0.54202 0.43774 0.0
O28 O 0.45541 0.59693 0.50577 0.0
Mg29 Mg 0.45991 0.48386 0.44894 0.0
O30 O 0.43949 0.44406 0.49212 0.0
O31 O 0.5411 0.45098 0.41271 0.0
O32 O 0.41467 0.56934 0.45 0.0
O33 O 0.37637 0.4279 0.43933 0.0
C34 C 0.68166 0.43136 0.49449 0.0
C35 C 0.55468 0.51668 0.58851 0.0
C36 C 0.67567 0.63265 0.51553 0.0
C37 C 0.56209 0.50297 0.40968 0.0
C38 C 0.41581 0.60618 0.47916 0.0
C39 C 0.38666 0.41772 0.47215 0.0
O40 O 0.71974 0.4694 0.51513 0.0
O41 O 0.61617 0.44071 0.48713 0.0
P42 P 0.10059 0.04864 0.41475 0.0
H43 H 0.08034 0.13734 0.47762 0.0
H44 H 0.97456 0.19216 0.49982 0.0
H45 H 0.8407 0.07116 0.42598 0.0
H46 H 0.94708 0.01559 0.4042 0.0
H47 H 0.2513 0.03536 0.43246 0.0
H48 H 0.31511 0.96032 0.45974 0.0
H49 H 0.11336 0.87098 0.47556 0.0
H50 H 0.05068 0.94421 0.44558 0.0
H51 H 0.03372 0.10594 0.35909 0.0
H52 H 0.11971 0.93344 0.3671 0.0
O53 O 0.15513 0.10798 0.41494 0.0
H54 H 0.0184 0.07807 0.29356 0.0
H55 H 0.10281 0.90437 0.30141 0.0
C56 C 0.02149 0.07401 0.43858 0.0
C57 C 0.02801 0.12128 0.46722 0.0
C58 C 0.96766 0.15234 0.47991 0.0
C59 C 0.90007 0.13619 0.46408 0.0
C60 C 0.89241 0.08428 0.4385 0.0
C61 C 0.95316 0.05302 0.42585 0.0
C62 C 0.14619 -0.00442 0.43748 0.0
C63 C 0.22075 -0.00013 0.44207 0.0
C64 C 0.25719 0.95721 0.45815 0.0
C65 C 0.21958 0.90948 0.47003 0.0
C66 C 0.1443 0.90664 0.46636 0.0
C67 C 0.10813 0.9488 0.44963 0.0
C68 C 0.0786 0.02209 0.36781 0.0
C69 C 0.04779 0.06148 0.34675 0.0
C70 C 0.03837 0.0452 0.30928 0.0
C71 C 0.05978 -0.01094 0.2921 0.0
C72 C 0.08669 0.94827 0.31374 0.0
C73 C 0.09629 0.96476 0.35133 0.0
P74 P 0.04951 -0.00635 0.57349 0.0
H75 H 0.99419 0.98476 0.49932 0.0
H76 H 0.8809 0.94247 0.47171 0.0
H77 H 0.79572 0.94221 0.57938 0.0
H78 H 0.90791 0.98384 0.60607 0.0
H79 H 0.19911 0.01184 0.55731 0.0
H80 H 0.26877 0.10017 0.54745 0.0
H81 H 0.07584 0.20267 0.55438 0.0
H82 H 0.00587 0.11343 0.56357 0.0
H83 H 0.02988 0.90595 0.62242 0.0
H84 H 0.07192 0.09552 0.63249 0.0
O85 O 0.09252 0.93196 0.55703 0.0
H86 H 0.0365 0.91224 0.68866 0.0
H87 H 0.08029 0.10178 0.69839 0.0
C88 C 0.9601 0.9856 0.55458 0.0
C89 C 0.95017 0.97697 0.51673 0.0
C90 C 0.88536 0.95298 0.50106 0.0
C91 C 0.82944 0.93773 0.52327 0.0
C92 C 0.83717 0.95342 0.56126 0.0
C93 C 0.90203 0.97685 0.57675 0.0
C94 C 0.09736 0.05609 0.56044 0.0
C95 C 0.17159 0.05306 0.55611 0.0
C96 C 0.21147 0.10367 0.55107 0.0
C97 C 0.17767 0.1582 0.55062 0.0
C98 C 0.10303 0.16103 0.55463 0.0
C99 C 0.06306 0.11016 0.55952 0.0
C100 C 0.05145 -7e-05 0.6224 0.0
C101 C 0.04099 0.94881 0.63884 0.0
C102 C 0.04527 0.95242 0.67666 0.0
C103 C 0.05998 0.00739 0.69872 0.0
C104 C 0.0688 0.05882 0.68215 0.0
C105 C 0.0643 0.05516 0.64432 0.0
P106 P 0.60687 0.54533 0.91292 0.0
H107 H 0.56811 0.60691 0.98211 0.0
H108 H 0.46506 0.66865 0.00022 0.0
H109 H 0.35687 0.59698 0.89955 0.0
H110 H 0.45883 0.53409 0.88232 0.0
H111 H 0.73984 0.5489 0.95545 0.0
H112 H 0.79368 0.47755 -0.00964 0.0
H113 H 0.61055 0.35881 0.96484 0.0
H114 H 0.55443 0.43188 0.93181 0.0
H115 H 0.60468 0.60826 0.85138 0.0
H116 H 0.5813 0.42532 0.86944 0.0
O117 O 0.65969 0.6064 0.91742 0.0
H118 H 0.57538 0.57863 0.78736 0.0
H119 H 0.55039 0.39532 0.80498 0.0
C120 C 0.52173 0.56776 0.93084 0.0
C121 C 0.52041 0.60201 0.96519 0.0
C122 C 0.46153 0.63676 0.97544 0.0
C123 C 0.40397 0.63763 0.95094 0.0
C124 C 0.40077 0.59655 0.91883 0.0
C125 C 0.45972 0.56143 0.90876 0.0
C126 C 0.64437 0.4944 0.93993 0.0
C127 C 0.71068 0.50791 0.95772 0.0
C128 C 0.74106 0.46768 0.97807 0.0
C129 C 0.70565 0.41342 0.98043 0.0
C130 C 0.63812 0.40099 0.96369 0.0
C131 C 0.60688 0.44195 0.94423 0.0
C132 C 0.59683 0.51895 0.8651 0.0
C133 C 0.59418 0.56149 0.84148 0.0
C134 C 0.57595 0.54464 0.80498 0.0
C135 C 0.55925 0.48478 0.79132 0.0
C136 C 0.56279 0.4418 0.81488 0.0
C137 C 0.58095 0.45889 0.85168 0.0
P138 P 0.56876 0.49151 0.08069 0.0
H139 H 0.5539 0.39089 0.02412 0.0
H140 H 0.45446 0.34627 0.98693 0.0
H141 H 0.31599 0.48357 0.03821 0.0
H142 H 0.41822 0.52852 0.07577 0.0
H143 H 0.71588 0.51139 0.05924 0.0
H144 H 0.77796 0.59949 0.04387 0.0
H145 H 0.57689 0.69118 0.04713 0.0
H146 H 0.51536 0.60255 0.06233 0.0
H147 H 0.48011 0.44482 0.13459 0.0
H148 H 0.61911 0.59813 0.12999 0.0
O149 O 0.62664 0.43675 0.08183 0.0
H150 H 0.47995 0.46858 0.20101 0.0
H151 H 0.61746 0.62243 0.19557 0.0
C152 C 0.49314 0.46223 0.05297 0.0
C153 C 0.50262 0.41219 0.02689 0.0
C154 C 0.44542 0.38711 0.00524 0.0
C155 C 0.37677 0.41142 0.00929 0.0
C156 C 0.36802 0.46361 0.03447 0.0
C157 C 0.42612 0.48909 0.05607 0.0
C158 C 0.61093 0.55017 0.06103 0.0
C159 C 0.68489 0.54978 0.05552 0.0
C160 C 0.7204 0.60036 0.04695 0.0
C161 C 0.6824 0.65237 0.04446 0.0
C162 C 0.60789 0.65209 0.04947 0.0
C163 C 0.57236 0.60115 0.05744 0.0
C164 C 0.54899 0.51967 0.12714 0.0
C165 C 0.50811 0.48478 0.14765 0.0
C166 C 0.50808 0.49848 0.18557 0.0
C167 C 0.54953 0.54702 0.20335 0.0
C168 C 0.58587 0.58439 0.18254 0.0
C169 C 0.58609 0.57059 0.14481 0.0
H170 H 0.2251 0.17863 0.94927 0.0
H171 H 0.1089 0.22266 0.04847 0.0
H172 H 0.14892 0.32673 0.05296 0.0
H173 H 0.24752 0.39262 0.03935 0.0
H174 H 0.36557 0.34841 0.94032 0.0
H175 H 0.29287 0.25751 0.9244 0.0
C176 C 0.2051 0.21193 0.97055 0.0
C177 C 0.16519 0.19353 -0.00124 0.0
C178 C 0.23069 0.2711 0.97361 0.0
C179 C 0.13964 0.23634 0.02645 0.0
C180 C 0.16356 0.29564 0.02933 0.0
C181 C 0.25513 0.3649 0.01337 0.0
C182 C 0.31444 0.37553 -0.00797 0.0
C183 C 0.21389 0.3121 0.0047 0.0
C184 C 0.32223 0.33967 0.95806 0.0
C185 C 0.28077 0.28756 0.94894 0.0
H186 H 0.3005 0.8973 0.95393 0.0
H187 H 0.10274 0.82114 0.98686 0.0
H188 H 0.15499 0.72166 0.97796 0.0
H189 H 0.26264 0.65844 0.96642 0.0
H190 H 0.45978 0.73981 0.93666 0.0
H191 H 0.40237 0.83551 0.93897 0.0
C192 C 0.26846 0.85883 0.95878 0.0
C193 C 0.19851 0.86631 0.97141 0.0
C194 C 0.29923 0.80296 0.9547 0.0
C195 C 0.15696 0.81617 0.97702 0.0
C196 C 0.18701 0.75953 0.9723 0.0
C197 C 0.29227 0.69736 0.96042 0.0
C198 C 0.36518 0.69318 0.95209 0.0
C199 C 0.25893 0.75269 0.96215 0.0
C200 C 0.40373 0.74303 0.9438 0.0
C201 C 0.37101 0.79744 0.94491 0.0
H202 H 0.79652 0.90888 0.02802 0.0
H203 H 0.93459 0.80899 0.95081 0.0
H204 H 0.8846 0.71491 0.9666 0.0
H205 H 0.79296 0.66288 -0.00158 0.0
H206 H 0.65786 0.76557 0.07671 0.0
H207 H 0.71456 0.85751 0.06392 0.0
C208 C 0.81635 0.8663 0.01522 0.0
C209 C 0.86845 0.86478 0.9885 0.0
C210 C 0.78699 0.81347 0.02408 0.0
C211 C 0.89445 0.81027 0.97169 0.0
C212 C 0.86556 0.7569 0.98052 0.0
C213 C 0.77683 0.70531 0.01312 0.0
C214 C 0.72039 0.70748 0.03799 0.0
C215 C 0.81049 0.75811 0.00607 0.0
C216 C 0.69972 0.7628 0.05667 0.0
C217 C 0.73254 0.81535 0.04968 0.0
H218 H 0.87977 0.22841 0.05618 0.0
H219 H 0.8588 0.1334 0.94705 0.0
H220 H 0.79371 0.21472 0.92772 0.0
H221 H 0.73932 0.31081 0.94178 0.0
H222 H 0.76094 0.4113 0.04918 0.0
H223 H 0.82852 0.33016 0.06969 0.0
C224 C 0.86167 0.22647 0.02819 0.0
C225 C 0.87466 0.17586 0.00279 0.0
C226 C 0.82353 0.27376 0.01721 0.0
C227 C 0.85051 0.17271 0.96668 0.0
C228 C 0.81266 0.21884 0.9557 0.0
C229 C 0.75844 0.31458 0.96976 0.0
C230 C 0.74437 0.36567 -0.00577 0.0
C231 C 0.79821 0.26909 0.98077 0.0
C232 C 0.77067 0.37147 0.03015 0.0
C233 C 0.80941 0.32535 0.04174 0.0
H234 H 0.60709 0.73709 0.52846 0.0
H235 H 0.76349 0.64161 0.46002 0.0
H236 H 0.81766 0.73534 0.44785 0.0
H237 H 0.84054 0.84035 0.47165 0.0
H238 H 0.68767 0.93668 0.5425 0.0
H239 H 0.61086 0.8473 0.53795 0.0
C240 C 0.65042 0.73713 0.50928 0.0
C241 C 0.6817 0.68307 0.49521 0.0
C242 C 0.6832 0.7914 0.50375 0.0
C243 C 0.7385 0.68305 0.47086 0.0
C244 C 0.7701 0.73667 0.46435 0.0
C245 C 0.7889 0.84288 0.48474 0.0
C246 C 0.77125 0.89457 0.50856 0.0
C247 C 0.74607 0.79086 0.48285 0.0
C248 C 0.70367 0.89681 0.52498 0.0
C249 C 0.6598 0.84561 0.5225 0.0
H250 H 0.64833 0.31579 0.50123 0.0
H251 H 0.79737 0.42764 0.45289 0.0
H252 H 0.87601 0.34371 0.437 0.0
H253 H 0.90891 0.24264 0.44299 0.0
H254 H 0.76512 0.12869 0.49256 0.0
H255 H 0.67721 0.2089 0.50186 0.0
C256 C 0.69695 0.32087 0.48622 0.0
C257 C 0.71721 0.37728 0.47785 0.0
C258 C 0.74321 0.27257 0.47817 0.0
C259 C 0.78088 0.38426 0.45919 0.0
C260 C 0.82602 0.33653 0.4504 0.0
C261 C 0.85805 0.23543 0.45568 0.0
C262 C 0.84354 0.1809 0.46782 0.0
C263 C 0.80885 0.28124 0.46085 0.0
C264 C 0.77725 0.17097 0.48348 0.0
C265 C 0.72729 0.2167 0.48873 0.0
H266 H 0.40639 0.35824 0.53009 0.0
H267 H 0.25383 0.38436 0.44594 0.0
H268 H 0.17284 0.31026 0.46517 0.0
H269 H 0.14902 0.2325 0.50242 0.0
H270 H 0.30211 0.20164 0.58492 0.0
H271 H 0.37889 0.2833 0.57008 0.0
C272 C 0.35514 0.34801 0.51628 0.0
C273 C 0.33661 0.37611 0.4864 0.0
C274 C 0.30899 0.30434 0.52704 0.0
C275 C 0.26993 0.36263 0.46871 0.0
C276 C 0.22335 0.32037 0.4797 0.0
C277 C 0.19864 0.24433 0.5175 0.0
C278 C 0.22029 0.2112 0.54448 0.0
C279 C 0.24292 0.29014 0.50831 0.0
C280 C 0.28498 0.2264 0.56369 0.0
C281 C 0.32875 0.27299 0.55526 0.0
H282 H 0.44099 0.72184 0.51089 0.0
H283 H 0.28145 0.60255 0.45285 0.0
H284 H 0.20311 0.6856 0.44869 0.0
H285 H 0.18607 0.79182 0.45462 0.0
H286 H 0.34388 0.91435 0.51148 0.0
H287 H 0.41729 0.83052 0.52247 0.0
C288 C 0.38851 0.7143 0.49798 0.0
C289 C 0.36704 0.65655 0.48186 0.0
C290 C 0.34409 0.76275 0.49485 0.0
C291 C 0.29927 0.64693 0.46499 0.0
C292 C 0.25446 0.69431 0.46259 0.0
C293 C 0.23533 0.80055 0.47044 0.0
C294 C 0.25931 0.85946 0.48201 0.0
C295 C 0.27716 0.75247 0.47646 0.0
C296 C 0.32449 0.86943 0.5017 0.0
C297 C 0.36643 0.8215 0.50813 0.0
H298 H 0.15209 0.96311 0.12922 0.0
H299 H 0.94941 0.04627 0.11761 0.0
H300 H 0.92178 0.03808 0.18117 0.0
H301 H 0.96221 0.01682 0.24164 0.0
H302 H 0.16717 0.93551 0.25165 0.0
H303 H 0.18589 0.93188 0.18683 0.0
C304 C 0.10158 0.97914 0.14052 0.0
C305 C 0.05352 0.00649 0.11915 0.0
C306 C 0.08643 0.97438 0.17675 0.0
C307 C 0.98749 0.02555 0.13373 0.0
C308 C 0.97189 0.02102 0.17005 0.0
C309 C 0.01061 -0.00223 0.22953 0.0
C310 C 0.06347 0.977 0.25171 0.0
C311 C 0.02198 -0.00298 0.19211 0.0
C312 C 0.1252 0.95133 0.2354 0.0
C313 C 0.13644 0.94984 0.19831 0.0
H314 H 0.08498 0.97486 0.86424 0.0
H315 H 0.95251 0.12954 0.8751 0.0
H316 H 0.96506 0.13572 0.81037 0.0
H317 H 0.00231 0.09051 0.7497 0.0
H318 H 0.1286 0.93202 0.73781 0.0
H319 H 0.12911 0.93331 0.80368 0.0
C320 C 0.06023 0.01053 0.85244 0.0
C321 C 0.01791 0.05166 0.87413 0.0
C322 C 0.06528 0.01232 0.81491 0.0
C323 C 0.98511 0.09728 0.85868 0.0
C324 C 0.99203 0.10068 0.82171 0.0
C325 C 0.03098 0.05685 0.76158 0.0
C326 C 0.06484 0.01097 0.73888 0.0
C327 C 0.03018 0.05739 0.79937 0.0
C328 C 0.10109 0.96726 0.75467 0.0
C329 C 0.10174 0.96815 0.79234 0.0
H330 H 0.58868 0.42668 0.6237 0.0
H331 H 0.4534 0.57882 0.62868 0.0
H332 H 0.43093 0.57489 0.69316 0.0
H333 H 0.46987 0.54022 0.74972 0.0
H334 H 0.61226 0.39211 0.74487 0.0
H335 H 0.60967 0.38045 0.6785 0.0
C336 C 0.55214 0.4574 0.63874 0.0
C337 C 0.52258 0.50294 0.62202 0.0
C338 C 0.54154 0.45583 0.6758 0.0
C339 C 0.47587 0.54313 0.64129 0.0
C340 C 0.46378 0.5412 0.67813 0.0
C341 C 0.49922 0.50471 0.73402 0.0
C342 C 0.54273 0.46808 0.75204 0.0
C343 C 0.49942 0.49967 0.696 0.0
C344 C 0.57886 0.42113 0.73159 0.0
C345 C 0.57789 0.4148 0.69366 0.0
H346 H 0.6609 0.53703 0.36276 0.0
H347 H 0.43482 0.5101 0.37794 0.0
H348 H 0.40899 0.52874 0.31624 0.0
H349 H 0.45158 0.54178 0.256 0.0
H350 H 0.67777 0.56572 0.23933 0.0
H351 H 0.70268 0.56059 0.30339 0.0
C352 C 0.60622 0.53623 0.35249 0.0
C353 C 0.54983 0.52176 0.37424 0.0
C354 C 0.59176 0.54622 0.3167 0.0
C355 C 0.4789 0.52087 0.36117 0.0
C356 C 0.46408 0.53139 0.32598 0.0
C357 C 0.50615 0.54651 0.26657 0.0
C358 C 0.56265 0.55356 0.24305 0.0
C359 C 0.52021 0.54237 0.30317 0.0
C360 C 0.63319 0.56059 0.25705 0.0
C361 C 0.64762 0.55714 0.29361 0.0
loop_
_geom_bond_atom_site_label_1
_geom_bond_atom_site_label_2
_geom_bond_distance
_geom_bond_site_symmetry_2
_ccdc_geom_bond_type
O0 Mg1 1.990 . S
O0 C14 1.253 . S
Mg1 O0 1.990 . S
Mg1 O4 2.180 . S
Mg1 O5 2.117 . S
Mg1 O19 2.030 1_545 S
O2 Mg3 2.048 1_554 S
O2 C14 1.260 . S
Mg3 O2 2.048 1_556 S
Mg3 O4 2.096 1_556 S
Mg3 O6 2.103 . S
Mg3 O7 2.073 1_456 S
Mg3 O9 2.102 1_445 S
Mg3 O20 2.079 1_545 S
O4 Mg1 2.180 . S
O4 Mg3 2.096 1_554 S
O4 C15 1.279 . S
O5 Mg1 2.117 . S
O5 C15 1.250 . S
O6 Mg3 2.103 . S
O6 C16 1.264 . S
O7 Mg3 2.073 1_654 S
O7 C17 1.260 1_554 S
Mg8 O9 2.180 1_545 S
Mg8 O10 2.030 . S
Mg8 O11 1.990 . S
Mg8 O12 2.117 1_545 S
O9 Mg3 2.102 1_665 S
O9 Mg8 2.180 1_565 S
O9 C18 1.274 1_556 S
O10 Mg8 2.030 . S
O10 C16 1.248 1_655 S
O11 Mg8 1.990 . S
O11 C17 1.253 . S
O12 Mg8 2.117 1_565 S
O12 C18 1.247 1_556 S
C13 O19 1.248 . S
C13 O20 1.264 1_554 S
C14 O0 1.253 . S
C14 O2 1.260 . S
C15 O4 1.279 . S
C15 O5 1.250 . S
C16 O6 1.264 . S
C16 O10 1.248 1_455 S
C17 O7 1.260 1_556 S
C17 O11 1.253 . S
C18 O9 1.274 1_554 S
C18 O12 1.247 1_554 S
O19 Mg1 2.030 1_565 S
O19 C13 1.248 . S
O20 Mg3 2.079 1_565 S
O20 C13 1.264 1_556 S
O21 Mg22 1.990 . S
O21 C35 1.253 . S
Mg22 O21 1.990 . S
Mg22 O25 2.180 . S
Mg22 O26 2.117 . S
Mg22 O40 2.030 . S
O23 Mg24 2.072 . S
O23 C35 1.260 . S
Mg24 O23 2.072 . S
Mg24 O25 2.099 . S
Mg24 O27 2.079 . S
Mg24 O28 2.072 . S
Mg24 O30 2.099 . S
Mg24 O41 2.079 . S
O25 Mg22 2.180 . S
O25 Mg24 2.099 . S
O25 C36 1.279 . S
O26 Mg22 2.117 . S
O26 C36 1.250 . S
O27 Mg24 2.079 . S
O27 C37 1.264 . S
O28 Mg24 2.072 . S
O28 C38 1.260 . S
Mg29 O30 2.180 . S
Mg29 O31 2.030 . S
Mg29 O32 1.990 . S
Mg29 O33 2.117 . S
O30 Mg24 2.099 . S
O30 Mg29 2.180 . S
O30 C39 1.279 . S
O31 Mg29 2.030 . S
O31 C37 1.248 . S
O32 Mg29 1.990 . S
O32 C38 1.253 . S
O33 Mg29 2.117 . S
O33 C39 1.250 . S
C34 O40 1.248 . S
C34 O41 1.264 . S
C35 O21 1.253 . S
C35 O23 1.260 . S
C36 O25 1.279 . S
C36 O26 1.250 . S
C37 O27 1.264 . S
C37 O31 1.248 . S
C38 O28 1.260 . S
C38 O32 1.253 . S
C39 O30 1.279 . S
C39 O33 1.250 . S
O40 Mg22 2.030 . S
O40 C34 1.248 . S
O41 Mg24 2.079 . S
O41 C34 1.264 . S
P42 O53 1.490 . S
P42 C56 1.812 . S
P42 C62 1.803 1_545 S
P42 C68 1.819 . S
H43 C57 0.941 . S
H44 C58 0.939 . S
H45 C60 0.940 . S
H46 C61 0.940 . S
H47 C63 0.939 . S
H48 C64 0.942 . S
H49 C66 0.940 . S
H50 C67 0.939 . S
H51 C69 0.941 . S
H52 C73 0.939 . S
O53 P42 1.490 . S
H54 C70 0.939 . S
H55 C72 0.940 . S
C56 P42 1.812 . S
C56 C57 1.389 . S
C56 C61 1.391 1_455 S
C57 H43 0.941 . S
C57 C56 1.389 . S
C57 C58 1.397 1_455 S
C58 H44 0.939 . S
C58 C57 1.397 1_655 S
C58 C59 1.378 . S
C59 C58 1.378 . S
C59 C60 1.378 . S
C60 H45 0.940 . S
C60 C59 1.378 . S
C60 C61 1.396 . S
C61 H46 0.940 . S
C61 C56 1.391 1_655 S
C61 C60 1.396 . S
C62 P42 1.803 1_565 S
C62 C63 1.378 . S
C62 C67 1.400 . S
C63 H47 0.939 . S
C63 C62 1.378 . S
C63 C64 1.361 . S
C64 H48 0.942 . S
C64 C63 1.361 . S
C64 C65 1.369 . S
C65 C64 1.369 . S
C65 C66 1.404 . S
C66 H49 0.940 . S
C66 C65 1.404 . S
C66 C67 1.389 . S
C67 H50 0.939 . S
C67 C62 1.400 . S
C67 C66 1.389 . S
C68 P42 1.819 . S
C68 C69 1.391 . S
C68 C73 1.391 1_545 S
C69 H51 0.941 . S
C69 C68 1.391 . S
C69 C70 1.396 . S
C70 H54 0.939 . S
C70 C69 1.396 . S
C70 C71 1.397 . S
C71 C70 1.397 . S
C71 C72 1.385 1_545 S
C72 H55 0.940 . S
C72 C71 1.385 1_565 S
C72 C73 1.388 . S
C73 H52 0.939 . S
C73 C68 1.391 1_565 S
C73 C72 1.388 . S
P74 O85 1.490 1_545 S
P74 C88 1.802 1_445 S
P74 C94 1.803 . S
P74 C100 1.819 . S
H75 C89 0.941 . S
H76 C90 0.939 . S
H77 C92 0.940 . S
H78 C93 0.940 . S
H79 C95 0.939 . S
H80 C96 0.942 . S
H81 C98 0.940 . S
H82 C99 0.939 . S
H83 C101 0.943 . S
H84 C105 0.939 . S
O85 P74 1.490 1_565 S
H86 C102 0.939 1_565 S
H87 C104 0.940 . S
C88 P74 1.802 1_665 S
C88 C89 1.388 1_655 S
C88 C93 1.402 1_565 S
C89 H75 0.941 . S
C89 C88 1.388 1_455 S
C89 C90 1.397 1_455 S
C90 H76 0.939 . S
C90 C89 1.397 1_655 S
C90 C91 1.378 . S
C91 C90 1.378 . S
C91 C92 1.378 . S
C92 H77 0.940 . S
C92 C91 1.378 . S
C92 C93 1.396 1_565 S
C93 H78 0.940 . S
C93 C88 1.402 1_545 S
C93 C92 1.396 1_545 S
C94 P74 1.803 . S
C94 C95 1.378 . S
C94 C99 1.400 . S
C95 H79 0.939 . S
C95 C94 1.378 . S
C95 C96 1.361 . S
C96 H80 0.942 . S
C96 C95 1.361 . S
C96 C97 1.369 . S
C97 C96 1.369 . S
C97 C98 1.404 . S
C98 H81 0.940 . S
C98 C97 1.404 . S
C98 C99 1.389 . S
C99 H82 0.939 . S
C99 C94 1.400 . S
C99 C98 1.389 . S
C100 P74 1.819 . S
C100 C101 1.390 1_545 S
C100 C105 1.391 . S
C101 H83 0.943 . S
C101 C100 1.390 1_565 S
C101 C102 1.396 1_565 S
C102 H86 0.939 1_545 S
C102 C101 1.396 1_545 S
C102 C103 1.397 . S
C103 C102 1.397 . S
C103 C104 1.385 . S
C104 H87 0.940 . S
C104 C103 1.385 . S
C104 C105 1.388 . S
C105 H84 0.939 . S
C105 C100 1.391 . S
C105 C104 1.388 . S
P106 O117 1.490 . S
P106 C120 1.812 . S
P106 C126 1.803 . S
P106 C132 1.819 . S
H107 C121 0.941 . S
H108 C122 0.939 1_554 S
H109 C124 0.940 . S
H110 C125 0.940 . S
H111 C127 0.939 . S
H112 C128 0.942 . S
H113 C130 0.940 . S
H114 C131 0.939 . S
H115 C133 0.941 . S
H116 C137 0.939 . S
O117 P106 1.490 . S
H118 C134 0.939 . S
H119 C136 0.940 . S
C120 P106 1.812 . S
C120 C121 1.389 . S
C120 C125 1.391 . S
C121 H107 0.941 . S
C121 C120 1.389 . S
C121 C122 1.397 . S
C122 H108 0.939 1_556 S
C122 C121 1.397 . S
C122 C123 1.378 . S
C123 C122 1.378 . S
C123 C124 1.378 . S
C124 H109 0.940 . S
C124 C123 1.378 . S
C124 C125 1.396 . S
C125 H110 0.940 . S
C125 C120 1.391 . S
C125 C124 1.396 . S
C126 P106 1.803 . S
C126 C127 1.378 . S
C126 C131 1.400 . S
C127 H111 0.939 . S
C127 C126 1.378 . S
C127 C128 1.361 . S
C128 H112 0.942 . S
C128 C127 1.361 . S
C128 C129 1.369 . S
C129 C128 1.369 . S
C129 C130 1.404 . S
C130 H113 0.940 . S
C130 C129 1.404 . S
C130 C131 1.389 . S
C131 H114 0.939 . S
C131 C126 1.400 . S
C131 C130 1.389 . S
C132 P106 1.819 . S
C132 C133 1.391 . S
C132 C137 1.391 . S
C133 H115 0.941 . S
C133 C132 1.391 . S
C133 C134 1.396 . S
C134 H118 0.939 . S
C134 C133 1.396 . S
C134 C135 1.397 . S
C135 C134 1.397 . S
C135 C136 1.385 . S
C136 H119 0.940 . S
C136 C135 1.385 . S
C136 C137 1.388 . S
C137 H116 0.939 . S
C137 C132 1.391 . S
C137 C136 1.388 . S
P138 O149 1.490 . S
P138 C152 1.812 . S
P138 C158 1.803 . S
P138 C164 1.819 . S
H139 C153 0.941 . S
H140 C154 0.922 1_556 S
H141 C156 0.940 . S
H142 C157 0.940 . S
H143 C159 0.939 . S
H144 C160 0.942 . S
H145 C162 0.940 . S
H146 C163 0.939 . S
H147 C165 0.941 . S
H148 C169 0.939 . S
O149 P138 1.490 . S
H150 C166 0.939 . S
H151 C168 0.940 . S
C152 P138 1.812 . S
C152 C153 1.389 . S
C152 C157 1.391 . S
C153 H139 0.941 . S
C153 C152 1.389 . S
C153 C154 1.397 . S
C154 H140 0.922 1_554 S
C154 C153 1.397 . S
C154 C155 1.378 . S
C155 C154 1.378 . S
C155 C156 1.378 . S
C156 H141 0.940 . S
C156 C155 1.378 . S
C156 C157 1.396 . S
C157 H142 0.940 . S
C157 C152 1.391 . S
C157 C156 1.396 . S
C158 P138 1.803 . S
C158 C159 1.378 . S
C158 C163 1.400 . S
C159 H143 0.939 . S
C159 C158 1.378 . S
C159 C160 1.361 . S
C160 H144 0.942 . S
C160 C159 1.361 . S
C160 C161 1.369 . S
C161 C160 1.369 . S
C161 C162 1.404 . S
C162 H145 0.940 . S
C162 C161 1.404 . S
C162 C163 1.389 . S
C163 H146 0.939 . S
C163 C158 1.400 . S
C163 C162 1.389 . S
C164 P138 1.819 . S
C164 C165 1.391 . S
C164 C169 1.391 . S
C165 H147 0.941 . S
C165 C164 1.391 . S
C165 C166 1.396 . S
C166 H150 0.939 . S
C166 C165 1.396 . S
C166 C167 1.397 . S
C167 C166 1.397 . S
C167 C168 1.385 . S
C168 H151 0.940 . S
C168 C167 1.385 . S
C168 C169 1.388 . S
C169 H148 0.939 . S
C169 C164 1.391 . S
C169 C168 1.388 . S
H170 C176 0.930 . S
H171 C179 0.930 . S
H172 C180 0.930 . S
H173 C181 0.930 . S
H174 C184 0.930 . S
H175 C185 0.930 . S
C176 H170 0.930 . S
C176 C177 1.355 1_556 S
C176 C178 1.415 1_556 S
C177 C176 1.355 1_554 S
C177 C179 1.419 . S
C178 C176 1.415 1_554 S
C178 C183 1.425 . S
C178 C185 1.409 1_554 S
C179 H171 0.930 . S
C179 C177 1.419 . S
C179 C180 1.362 . S
C180 H172 0.930 . S
C180 C179 1.362 . S
C180 C183 1.409 . S
C181 H173 0.930 . S
C181 C182 1.355 . S
C181 C183 1.415 . S
C182 C181 1.355 . S
C182 C184 1.419 1_554 S
C183 C178 1.425 . S
C183 C180 1.409 . S
C183 C181 1.415 . S
C184 H174 0.930 . S
C184 C182 1.419 1_556 S
C184 C185 1.362 . S
C185 H175 0.930 . S
C185 C178 1.409 1_556 S
C185 C184 1.362 . S
H186 C192 0.930 . S
H187 C195 0.930 . S
H188 C196 0.930 . S
H189 C197 0.930 1_554 S
H190 C200 0.930 . S
H191 C201 0.930 . S
C192 H186 0.930 . S
C192 C193 1.355 1_556 S
C192 C194 1.415 . S
C193 C192 1.355 1_554 S
C193 C195 1.419 . S
C194 C192 1.415 . S
C194 C199 1.430 . S
C194 C201 1.409 . S
C195 H187 0.930 . S
C195 C193 1.419 . S
C195 C196 1.362 . S
C196 H188 0.930 . S
C196 C195 1.362 . S
C196 C199 1.406 1_554 S
C197 H189 0.930 1_556 S
C197 C198 1.355 . S
C197 C199 1.413 . S
C198 C197 1.355 . S
C198 C200 1.419 . S
C199 C194 1.430 . S
C199 C196 1.406 1_556 S
C199 C197 1.413 . S
C200 H190 0.930 . S
C200 C198 1.419 . S
C200 C201 1.362 . S
C201 H191 0.930 . S
C201 C194 1.409 . S
C201 C200 1.362 . S
H202 C208 0.930 . S
H203 C211 0.930 1_556 S
H204 C212 0.930 . S
H205 C213 0.930 . S
H206 C216 0.930 . S
H207 C217 0.930 . S
C208 H202 0.930 . S
C208 C209 1.355 . S
C208 C210 1.415 . S
C209 C208 1.355 . S
C209 C211 1.419 . S
C210 C208 1.415 . S
C210 C215 1.425 . S
C210 C217 1.409 . S
C211 H203 0.930 1_554 S
C211 C209 1.419 . S
C211 C212 1.362 . S
C212 H204 0.930 . S
C212 C211 1.362 . S
C212 C215 1.409 . S
C213 H205 0.930 . S
C213 C214 1.355 . S
C213 C215 1.415 . S
C214 C213 1.355 . S
C214 C216 1.419 . S
C215 C210 1.425 . S
C215 C212 1.409 . S
C215 C213 1.415 . S
C216 H206 0.930 . S
C216 C214 1.419 . S
C216 C217 1.362 . S
C217 H207 0.930 . S
C217 C210 1.409 . S
C217 C216 1.362 . S
H218 C224 0.930 . S
H219 C227 0.930 . S
H220 C228 0.930 . S
H221 C229 0.930 . S
H222 C232 0.930 . S
H223 C233 0.930 . S
C224 H218 0.930 . S
C224 C225 1.355 1_554 S
C224 C226 1.415 . S
C225 C224 1.355 1_556 S
C225 C227 1.419 . S
C226 C224 1.415 . S
C226 C231 1.425 1_554 S
C226 C233 1.409 . S
C227 H219 0.930 . S
C227 C225 1.419 . S
C227 C228 1.362 . S
C228 H220 0.930 . S
C228 C227 1.362 . S
C228 C231 1.409 . S
C229 H221 0.930 . S
C229 C230 1.355 . S
C229 C231 1.415 . S
C230 C229 1.355 . S
C230 C232 1.419 1_556 S
C231 C226 1.425 1_556 S
C231 C228 1.409 . S
C231 C229 1.415 . S
C232 H222 0.930 . S
C232 C230 1.419 1_554 S
C232 C233 1.362 . S
C233 H223 0.930 . S
C233 C226 1.409 . S
C233 C232 1.362 . S
H234 C240 0.930 . S
H235 C243 0.930 . S
H236 C244 0.930 . S
H237 C245 0.930 . S
H238 C248 0.930 . S
H239 C249 0.930 . S
C240 H234 0.930 . S
C240 C241 1.355 . S
C240 C242 1.415 . S
C241 C240 1.355 . S
C241 C243 1.419 . S
C242 C240 1.415 . S
C242 C247 1.425 . S
C242 C249 1.409 . S
C243 H235 0.930 . S
C243 C241 1.419 . S
C243 C244 1.362 . S
C244 H236 0.930 . S
C244 C243 1.362 . S
C244 C247 1.409 . S
C245 H237 0.930 . S
C245 C246 1.355 . S
C245 C247 1.415 . S
C246 C245 1.355 . S
C246 C248 1.419 . S
C247 C242 1.425 . S
C247 C244 1.409 . S
C247 C245 1.415 . S
C248 H238 0.930 . S
C248 C246 1.419 . S
C248 C249 1.362 . S
C249 H239 0.930 . S
C249 C242 1.409 . S
C249 C248 1.362 . S
H250 C256 0.930 . S
H251 C259 0.930 . S
H252 C260 0.930 . S
H253 C261 0.930 . S
H254 C264 0.930 . S
H255 C265 0.930 . S
C256 H250 0.930 . S
C256 C257 1.355 . S
C256 C258 1.415 . S
C257 C256 1.355 . S
C257 C259 1.419 . S
C258 C256 1.415 . S
C258 C263 1.425 . S
C258 C265 1.409 . S
C259 H251 0.930 . S
C259 C257 1.419 . S
C259 C260 1.362 . S
C260 H252 0.930 . S
C260 C259 1.362 . S
C260 C263 1.409 . S
C261 H253 0.930 . S
C261 C262 1.355 . S
C261 C263 1.415 . S
C262 C261 1.355 . S
C262 C264 1.419 . S
C263 C258 1.425 . S
C263 C260 1.409 . S
C263 C261 1.415 . S
C264 H254 0.930 . S
C264 C262 1.419 . S
C264 C265 1.362 . S
C265 H255 0.930 . S
C265 C258 1.409 . S
C265 C264 1.362 . S
H266 C272 0.930 . S
H267 C275 0.930 . S
H268 C276 0.930 . S
H269 C277 0.930 . S
H270 C280 0.930 . S
H271 C281 0.930 . S
C272 H266 0.930 . S
C272 C273 1.355 . S
C272 C274 1.415 . S
C273 C272 1.355 . S
C273 C275 1.419 . S
C274 C272 1.415 . S
C274 C279 1.425 . S
C274 C281 1.409 . S
C275 H267 0.930 . S
C275 C273 1.419 . S
C275 C276 1.362 . S
C276 H268 0.930 . S
C276 C275 1.362 . S
C276 C279 1.409 . S
C277 H269 0.930 . S
C277 C278 1.355 . S
C277 C279 1.415 . S
C278 C277 1.355 . S
C278 C280 1.419 . S
C279 C274 1.425 . S
C279 C276 1.409 . S
C279 C277 1.415 . S
C280 H270 0.930 . S
C280 C278 1.419 . S
C280 C281 1.362 . S
C281 H271 0.930 . S
C281 C274 1.409 . S
C281 C280 1.362 . S
H282 C288 0.930 . S
H283 C291 0.930 . S
H284 C292 0.930 . S
H285 C293 0.930 . S
H286 C296 0.930 . S
H287 C297 0.930 . S
C288 H282 0.930 . S
C288 C289 1.355 . S
C288 C290 1.415 . S
C289 C288 1.355 . S
C289 C291 1.419 . S
C290 C288 1.415 . S
C290 C295 1.425 . S
C290 C297 1.409 . S
C291 H283 0.930 . S
C291 C289 1.419 . S
C291 C292 1.362 . S
C292 H284 0.930 . S
C292 C291 1.362 . S
C292 C295 1.409 . S
C293 H285 0.930 . S
C293 C294 1.355 . S
C293 C295 1.415 . S
C294 C293 1.355 . S
C294 C296 1.419 . S
C295 C290 1.425 . S
C295 C292 1.409 . S
C295 C293 1.415 . S
C296 H286 0.930 . S
C296 C294 1.419 . S
C296 C297 1.362 . S
C297 H287 0.930 . S
C297 C290 1.409 . S
C297 C296 1.362 . S
H298 C304 0.930 . S
H299 C307 0.930 . S
H300 C308 0.930 . S
H301 C309 0.930 1_655 S
H302 C312 0.930 . S
H303 C313 0.930 . S
C304 H298 0.930 . S
C304 C305 1.355 . S
C304 C306 1.415 . S
C305 C304 1.355 . S
C305 C307 1.419 1_445 S
C306 C304 1.415 . S
C306 C311 1.425 1_545 S
C306 C313 1.409 . S
C307 H299 0.930 . S
C307 C305 1.419 1_665 S
C307 C308 1.362 . S
C308 H300 0.930 . S
C308 C307 1.362 . S
C308 C311 1.409 1_655 S
C309 H301 0.930 1_455 S
C309 C310 1.355 1_565 S
C309 C311 1.415 . S
C310 C309 1.355 1_545 S
C310 C312 1.422 . S
C311 C306 1.425 1_565 S
C311 C308 1.409 1_455 S
C311 C309 1.415 . S
C312 H302 0.930 . S
C312 C310 1.422 . S
C312 C313 1.362 . S
C313 H303 0.930 . S
C313 C306 1.409 . S
C313 C312 1.362 . S
H314 C320 0.930 1_565 S
H315 C323 0.930 . S
H316 C324 0.930 . S
H317 C325 0.930 . S
H318 C328 0.930 1_565 S
H319 C329 0.930 1_565 S
C320 H314 0.930 1_545 S
C320 C321 1.355 . S
C320 C322 1.415 . S
C321 C320 1.355 . S
C321 C323 1.419 1_455 S
C322 C320 1.415 . S
C322 C327 1.425 . S
C322 C329 1.409 . S
C323 H315 0.930 . S
C323 C321 1.419 1_655 S
C323 C324 1.362 . S
C324 H316 0.930 . S
C324 C323 1.362 . S
C324 C327 1.409 1_655 S
C325 H317 0.930 . S
C325 C326 1.355 1_655 S
C325 C327 1.415 1_655 S
C326 C325 1.355 1_455 S
C326 C328 1.419 . S
C327 C322 1.425 . S
C327 C324 1.409 1_455 S
C327 C325 1.415 1_455 S
C328 H318 0.930 1_545 S
C328 C326 1.419 . S
C328 C329 1.362 . S
C329 H319 0.930 1_545 S
C329 C322 1.409 . S
C329 C328 1.362 . S
H330 C336 0.930 . S
H331 C339 0.930 . S
H332 C340 0.930 . S
H333 C341 0.930 . S
H334 C344 0.930 . S
H335 C345 0.930 . S
C336 H330 0.930 . S
C336 C337 1.355 . S
C336 C338 1.415 . S
C337 C336 1.355 . S
C337 C339 1.419 . S
C338 C336 1.415 . S
C338 C343 1.425 . S
C338 C345 1.409 . S
C339 H331 0.930 . S
C339 C337 1.419 . S
C339 C340 1.362 . S
C340 H332 0.930 . S
C340 C339 1.362 . S
C340 C343 1.409 . S
C341 H333 0.930 . S
C341 C342 1.355 . S
C341 C343 1.415 . S
C342 C341 1.355 . S
C342 C344 1.419 . S
C343 C338 1.425 . S
C343 C340 1.409 . S
C343 C341 1.415 . S
C344 H334 0.930 . S
C344 C342 1.419 . S
C344 C345 1.362 . S
C345 H335 0.930 . S
C345 C338 1.409 . S
C345 C344 1.362 . S
H346 C352 0.930 . S
H347 C355 0.930 . S
H348 C356 0.930 . S
H349 C357 0.930 . S
H350 C360 0.930 . S
H351 C361 0.930 . S
C352 H346 0.930 . S
C352 C353 1.355 . S
C352 C354 1.415 . S
C353 C352 1.355 . S
C353 C355 1.419 . S
C354 C352 1.415 . S
C354 C359 1.425 . S
C354 C361 1.409 . S
C355 H347 0.930 . S
C355 C353 1.419 . S
C355 C356 1.362 . S
C356 H348 0.930 . S
C356 C355 1.362 . S
C356 C359 1.409 . S
C357 H349 0.930 . S
C357 C358 1.355 . S
C357 C359 1.415 . S
C358 C357 1.355 . S
C358 C360 1.419 . S
C359 C354 1.425 . S
C359 C356 1.409 . S
C359 C357 1.415 . S
C360 H350 0.930 . S
C360 C358 1.419 . S
C360 C361 1.362 . S
C361 H351 0.930 . S
C361 C354 1.409 . S
C361 C360 1.362 . S
C182 C155 1.423 . S
C177 C15 1.301 . S
C193 C13 1.522 . S
C198 C123 1.442 . S
C209 C18 1.351 . S
C214 C161 1.471 . S
C225 C17 1.312 . S
C230 C129 1.363 . S
C241 C36 1.309 . S
C246 C91 1.443 . S
C257 C34 1.478 . S
C262 C59 1.496 . S
C278 C97 1.400 . S
C273 C39 1.221 . S
C294 C65 1.338 . S
C289 C38 1.316 . S
C305 C14 1.534 . S
C310 C71 1.484 . S
C321 C16 1.368 . S
C326 C103 1.344 . S
C342 C135 1.523 . S
C337 C35 1.494 . S
C353 C37 1.342 . S
C358 C167 1.337 . S
