# Generated by pormake.
# Topology ptr, (4,4)-cn, num edge types: 1
# Building blocks:
#     Node 0, Type 0, BuildingBlock: QUQFOY_clean_sbu_1, # of connection points: 4
#     Node 1, Type 0, BuildingBlock: QUQFOY_clean_sbu_1, # of connection points: 4
#     Node 2, Type 0, BuildingBlock: QUQFOY_clean_sbu_1, # of connection points: 4
#     Node 3, Type 0, BuildingBlock: QUQFOY_clean_sbu_1, # of connection points: 4
#     Node 4, Type 0, BuildingBlock: QUQFOY_clean_sbu_1, # of connection points: 4
#     Node 5, Type 0, BuildingBlock: QUQFOY_clean_sbu_1, # of connection points: 4
#     Node 6, Type 0, BuildingBlock: QUQFOY_clean_sbu_1, # of connection points: 4
#     Node 7, Type 0, BuildingBlock: QUQFOY_clean_sbu_1, # of connection points: 4
#     Node 8, Type 0, BuildingBlock: QUQFOY_clean_sbu_1, # of connection points: 4
#     Node 9, Type 0, BuildingBlock: QUQFOY_clean_sbu_1, # of connection points: 4
#     Node 10, Type 0, BuildingBlock: QUQFOY_clean_sbu_1, # of connection points: 4
#     Node 11, Type 0, BuildingBlock: QUQFOY_clean_sbu_1, # of connection points: 4
#     Node 12, Type 0, BuildingBlock: QUQFOY_clean_sbu_1, # of connection points: 4
#     Node 13, Type 0, BuildingBlock: QUQFOY_clean_sbu_1, # of connection points: 4
#     Node 14, Type 0, BuildingBlock: QUQFOY_clean_sbu_1, # of connection points: 4
#     Node 15, Type 0, BuildingBlock: QUQFOY_clean_sbu_1, # of connection points: 4
#     Node 16, Type 0, BuildingBlock: QUQFOY_clean_sbu_1, # of connection points: 4
#     Node 17, Type 0, BuildingBlock: QUQFOY_clean_sbu_1, # of connection points: 4
#     Node 18, Type 1, BuildingBlock: KUFVIS_clean_linker_0, # of connection points: 4
#     Node 19, Type 1, BuildingBlock: KUFVIS_clean_linker_0, # of connection points: 4
#     Node 20, Type 1, BuildingBlock: KUFVIS_clean_linker_0, # of connection points: 4
#     Node 21, Type 1, BuildingBlock: KUFVIS_clean_linker_0, # of connection points: 4
#     Node 22, Type 1, BuildingBlock: KUFVIS_clean_linker_0, # of connection points: 4
#     Node 23, Type 1, BuildingBlock: KUFVIS_clean_linker_0, # of connection points: 4
#     Node 24, Type 1, BuildingBlock: KUFVIS_clean_linker_0, # of connection points: 4
#     Node 25, Type 1, BuildingBlock: KUFVIS_clean_linker_0, # of connection points: 4
#     Node 26, Type 1, BuildingBlock: KUFVIS_clean_linker_0, # of connection points: 4
#     Node 27, Type 1, BuildingBlock: KUFVIS_clean_linker_0, # of connection points: 4
#     Node 28, Type 1, BuildingBlock: KUFVIS_clean_linker_0, # of connection points: 4
#     Node 29, Type 1, BuildingBlock: KUFVIS_clean_linker_0, # of connection points: 4
#     Node 30, Type 1, BuildingBlock: KUFVIS_clean_linker_0, # of connection points: 4
#     Node 31, Type 1, BuildingBlock: KUFVIS_clean_linker_0, # of connection points: 4
#     Node 32, Type 1, BuildingBlock: KUFVIS_clean_linker_0, # of connection points: 4
#     Node 33, Type 1, BuildingBlock: KUFVIS_clean_linker_0, # of connection points: 4
#     Node 34, Type 1, BuildingBlock: KUFVIS_clean_linker_0, # of connection points: 4
#     Node 35, Type 1, BuildingBlock: KUFVIS_clean_linker_0, # of connection points: 4
#     Edge 36, Type (0, 1), BuildingBlock: AJUNOK_clean_linker_0, # of connection points: 2
#     Edge 37, Type (0, 1), BuildingBlock: AJUNOK_clean_linker_0, # of connection points: 2
#     Edge 38, Type (0, 1), BuildingBlock: AJUNOK_clean_linker_0, # of connection points: 2
#     Edge 39, Type (0, 1), BuildingBlock: AJUNOK_clean_linker_0, # of connection points: 2
#     Edge 40, Type (0, 1), BuildingBlock: AJUNOK_clean_linker_0, # of connection points: 2
#     Edge 41, Type (0, 1), BuildingBlock: AJUNOK_clean_linker_0, # of connection points: 2
#     Edge 42, Type (0, 1), BuildingBlock: AJUNOK_clean_linker_0, # of connection points: 2
#     Edge 43, Type (0, 1), BuildingBlock: AJUNOK_clean_linker_0, # of connection points: 2
#     Edge 44, Type (0, 1), BuildingBlock: AJUNOK_clean_linker_0, # of connection points: 2
#     Edge 45, Type (0, 1), BuildingBlock: AJUNOK_clean_linker_0, # of connection points: 2
#     Edge 46, Type (0, 1), BuildingBlock: AJUNOK_clean_linker_0, # of connection points: 2
#     Edge 47, Type (0, 1), BuildingBlock: AJUNOK_clean_linker_0, # of connection points: 2
#     Edge 48, Type (0, 1), BuildingBlock: AJUNOK_clean_linker_0, # of connection points: 2
#     Edge 49, Type (0, 1), BuildingBlock: AJUNOK_clean_linker_0, # of connection points: 2
#     Edge 50, Type (0, 1), BuildingBlock: AJUNOK_clean_linker_0, # of connection points: 2
#     Edge 51, Type (0, 1), BuildingBlock: AJUNOK_clean_linker_0, # of connection points: 2
#     Edge 52, Type (0, 1), BuildingBlock: AJUNOK_clean_linker_0, # of connection points: 2
#     Edge 53, Type (0, 1), BuildingBlock: AJUNOK_clean_linker_0, # of connection points: 2
#     Edge 54, Type (0, 1), BuildingBlock: AJUNOK_clean_linker_0, # of connection points: 2
#     Edge 55, Type (0, 1), BuildingBlock: AJUNOK_clean_linker_0, # of connection points: 2
#     Edge 56, Type (0, 1), BuildingBlock: AJUNOK_clean_linker_0, # of connection points: 2
#     Edge 57, Type (0, 1), BuildingBlock: AJUNOK_clean_linker_0, # of connection points: 2
#     Edge 58, Type (0, 1), BuildingBlock: AJUNOK_clean_linker_0, # of connection points: 2
#     Edge 59, Type (0, 1), BuildingBlock: AJUNOK_clean_linker_0, # of connection points: 2
#     Edge 60, Type (0, 1), BuildingBlock: AJUNOK_clean_linker_0, # of connection points: 2
#     Edge 61, Type (0, 1), BuildingBlock: AJUNOK_clean_linker_0, # of connection points: 2
#     Edge 62, Type (0, 1), BuildingBlock: AJUNOK_clean_linker_0, # of connection points: 2
#     Edge 63, Type (0, 1), BuildingBlock: AJUNOK_clean_linker_0, # of connection points: 2
#     Edge 64, Type (0, 1), BuildingBlock: AJUNOK_clean_linker_0, # of connection points: 2
#     Edge 65, Type (0, 1), BuildingBlock: AJUNOK_clean_linker_0, # of connection points: 2
#     Edge 66, Type (0, 1), BuildingBlock: AJUNOK_clean_linker_0, # of connection points: 2
#     Edge 67, Type (0, 1), BuildingBlock: AJUNOK_clean_linker_0, # of connection points: 2
#     Edge 68, Type (0, 1), BuildingBlock: AJUNOK_clean_linker_0, # of connection points: 2
#     Edge 69, Type (0, 1), BuildingBlock: AJUNOK_clean_linker_0, # of connection points: 2
#     Edge 70, Type (0, 1), BuildingBlock: AJUNOK_clean_linker_0, # of connection points: 2
#     Edge 71, Type (0, 1), BuildingBlock: AJUNOK_clean_linker_0, # of connection points: 2
#     Edge 72, Type (0, 1), BuildingBlock: AJUNOK_clean_linker_0, # of connection points: 2
#     Edge 73, Type (0, 1), BuildingBlock: AJUNOK_clean_linker_0, # of connection points: 2
#     Edge 74, Type (0, 1), BuildingBlock: AJUNOK_clean_linker_0, # of connection points: 2
#     Edge 75, Type (0, 1), BuildingBlock: AJUNOK_clean_linker_0, # of connection points: 2
#     Edge 76, Type (0, 1), BuildingBlock: AJUNOK_clean_linker_0, # of connection points: 2
#     Edge 77, Type (0, 1), BuildingBlock: AJUNOK_clean_linker_0, # of connection points: 2
#     Edge 78, Type (0, 1), BuildingBlock: AJUNOK_clean_linker_0, # of connection points: 2
#     Edge 79, Type (0, 1), BuildingBlock: AJUNOK_clean_linker_0, # of connection points: 2
#     Edge 80, Type (0, 1), BuildingBlock: AJUNOK_clean_linker_0, # of connection points: 2
#     Edge 81, Type (0, 1), BuildingBlock: AJUNOK_clean_linker_0, # of connection points: 2
#     Edge 82, Type (0, 1), BuildingBlock: AJUNOK_clean_linker_0, # of connection points: 2
#     Edge 83, Type (0, 1), BuildingBlock: AJUNOK_clean_linker_0, # of connection points: 2
#     Edge 84, Type (0, 1), BuildingBlock: AJUNOK_clean_linker_0, # of connection points: 2
#     Edge 85, Type (0, 1), BuildingBlock: AJUNOK_clean_linker_0, # of connection points: 2
#     Edge 86, Type (0, 1), BuildingBlock: AJUNOK_clean_linker_0, # of connection points: 2
#     Edge 87, Type (0, 1), BuildingBlock: AJUNOK_clean_linker_0, # of connection points: 2
#     Edge 88, Type (0, 1), BuildingBlock: AJUNOK_clean_linker_0, # of connection points: 2
#     Edge 89, Type (0, 1), BuildingBlock: AJUNOK_clean_linker_0, # of connection points: 2
#     Edge 90, Type (0, 1), BuildingBlock: AJUNOK_clean_linker_0, # of connection points: 2
#     Edge 91, Type (0, 1), BuildingBlock: AJUNOK_clean_linker_0, # of connection points: 2
#     Edge 92, Type (0, 1), BuildingBlock: AJUNOK_clean_linker_0, # of connection points: 2
#     Edge 93, Type (0, 1), BuildingBlock: AJUNOK_clean_linker_0, # of connection points: 2
#     Edge 94, Type (0, 1), BuildingBlock: AJUNOK_clean_linker_0, # of connection points: 2
#     Edge 95, Type (0, 1), BuildingBlock: AJUNOK_clean_linker_0, # of connection points: 2
#     Edge 96, Type (0, 1), BuildingBlock: AJUNOK_clean_linker_0, # of connection points: 2
#     Edge 97, Type (0, 1), BuildingBlock: AJUNOK_clean_linker_0, # of connection points: 2
#     Edge 98, Type (0, 1), BuildingBlock: AJUNOK_clean_linker_0, # of connection points: 2
#     Edge 99, Type (0, 1), BuildingBlock: AJUNOK_clean_linker_0, # of connection points: 2
#     Edge 100, Type (0, 1), BuildingBlock: AJUNOK_clean_linker_0, # of connection points: 2
#     Edge 101, Type (0, 1), BuildingBlock: AJUNOK_clean_linker_0, # of connection points: 2
#     Edge 102, Type (0, 1), BuildingBlock: AJUNOK_clean_linker_0, # of connection points: 2
#     Edge 103, Type (0, 1), BuildingBlock: AJUNOK_clean_linker_0, # of connection points: 2
#     Edge 104, Type (0, 1), BuildingBlock: AJUNOK_clean_linker_0, # of connection points: 2
#     Edge 105, Type (0, 1), BuildingBlock: AJUNOK_clean_linker_0, # of connection points: 2
#     Edge 106, Type (0, 1), BuildingBlock: AJUNOK_clean_linker_0, # of connection points: 2
#     Edge 107, Type (0, 1), BuildingBlock: AJUNOK_clean_linker_0, # of connection points: 2
# Relax obj value: 0.018
# Max RMSD: 0.077
# Mean RMSD: 0.059
data_MOF--net-ptr--node1-QUQFOY_clean_sbu_1--node2-KUFVIS_clean_linker_0--edge1-AJUNOK_clean_linker_0
_symmetry_space_group_name_H-M    P1
_symmetry_Int_Tables_number       1
_symmetry_cell_setting            triclinic
loop_
_symmetry_equiv_pos_as_xyz
'x, y, z'
_cell_length_a     58.674042
_cell_length_b     58.968047
_cell_length_c     38.116651
_cell_angle_alpha  89.973004
_cell_angle_beta   89.997812
_cell_angle_gamma 120.00604
loop_
_atom_site_label
_atom_site_type_symbol
_atom_site_fract_x
_atom_site_fract_y
_atom_site_fract_z
_atom_type_partial_charge
O0 O 0.05683 0.42889 0.05359 0.0
Cd1 Cd 0.06679 0.41491 0.00995 0.0
Cd2 Cd 1.01146 0.38228 0.00863 0.0
O3 O 1.01418 0.4004 0.0562 0.0
O4 O 0.10549 0.42784 0.01437 0.0
O5 O 0.07539 0.38592 0.01439 0.0
C6 C 0.09991 0.40379 0.01688 0.0
C7 C 0.98243 0.33698 0.00196 0.0
C8 C 1.03462 0.42011 0.06861 0.0
C9 C 1.03845 0.42154 0.94919 0.0
O10 O 1.01721 0.40445 0.96376 0.0
O11 O 0.06067 0.42761 0.96244 0.0
O12 O 0.974 0.3533 0.00492 0.0
O13 O 1.00755 0.34633 0.0041 0.0
O14 O 0.6367 0.64493 0.04878 0.0
Cd15 Cd 0.65423 0.66677 0.00405 0.0
Cd16 Cd 0.67775 0.63549 0.0069 0.0
O17 O 0.65865 0.6237 0.05454 0.0
O18 O 0.64614 0.69598 0.00613 0.0
O19 O 0.68649 0.70248 0.00953 0.0
C20 C 0.67091 0.71205 0.01053 0.0
C21 C 0.72241 0.64817 -0.00034 0.0
C22 C 0.64148 0.62914 0.06564 0.0
C23 C 0.64095 0.62796 0.94627 0.0
O24 O 0.65407 0.6198 0.96335 0.0
O25 O 0.64021 0.64814 0.95634 0.0
O26 O 0.70462 0.62395 0.00379 0.0
O27 O 0.71491 0.66538 0.00118 0.0
O28 O 0.44311 0.04334 0.96202 0.0
Cd29 Cd 0.42605 0.0493 0.00615 0.0
Cd30 Cd 0.39852 0.99516 0.00386 0.0
O31 O 0.4159 1.00096 0.95522 0.0
O32 O 0.43498 0.08685 0.00376 0.0
O33 O 0.39433 0.05371 -3e-05 0.0
C34 C 0.41029 0.07871 -0.00087 0.0
C35 C 0.35366 0.96542 0.01292 0.0
C36 C 0.43527 1.02237 0.94448 0.0
C37 C 0.43605 1.02155 0.06433 0.0
O38 O 0.42224 1.00076 0.04676 0.0
O39 O 0.43831 0.04318 0.05433 0.0
O40 O 0.37022 0.95753 0.00714 0.0
O41 O 0.36246 0.99036 0.01175 0.0
O42 O 1.02326 0.62202 0.96176 0.0
Cd43 Cd 1.01529 0.63748 0.00568 0.0
Cd44 Cd 0.06954 0.66881 0.00466 0.0
O45 O 0.06572 0.65057 0.95698 0.0
O46 O 0.97748 0.6283 0.00245 0.0
O47 O 1.01064 0.66895 0.00045 0.0
C48 C 0.98554 0.65295 -0.00112 0.0
C49 C 0.09842 0.714 0.01109 0.0
C50 C 0.045 0.63071 0.94551 0.0
C51 C 0.04411 0.63082 0.06551 0.0
O52 O 0.06499 0.64714 0.04955 0.0
O53 O 1.02161 0.6249 0.05334 0.0
O54 O 0.10695 0.69784 0.00716 0.0
O55 O 0.07325 0.70457 0.00977 0.0
O56 O 0.44665 0.40547 0.96447 0.0
Cd57 Cd 0.42992 0.38169 0.00783 0.0
Cd58 Cd 0.40178 0.40821 0.00826 0.0
O59 O 0.41985 0.42147 0.96011 0.0
O60 O 0.43894 0.35325 0.00345 0.0
O61 O 0.39819 0.34594 0.00161 0.0
C62 C 0.41417 0.33688 -0.00043 0.0
C63 C 0.35643 0.39302 0.01543 0.0
C64 C 0.43901 0.41938 0.94834 0.0
C65 C 0.4397 0.41732 0.06825 0.0
O66 O 0.42535 0.42452 0.05219 0.0
O67 O 0.4426 0.3988 0.05629 0.0
O68 O 0.37331 0.41759 0.01188 0.0
O69 O 0.36526 0.37688 0.0138 0.0
O70 O 0.63355 1.00503 0.05176 0.0
Cd71 Cd 0.64831 0.9956 0.00851 0.0
Cd72 Cd 0.67887 0.05141 0.00681 0.0
O73 O 0.66076 0.0478 0.05479 0.0
O74 O 0.63667 0.95748 0.014 0.0
O75 O 0.6784 0.98856 0.01382 0.0
C76 C 0.66108 0.96399 0.01686 0.0
C77 C 0.72373 0.08244 -0.00125 0.0
C78 C 0.64142 0.02693 0.06691 0.0
C79 C 0.63982 1.02193 0.94734 0.0
O80 O 0.65588 0.04345 0.96216 0.0
O81 O 0.635 1.00019 0.96057 0.0
O82 O 0.70619 0.08937 0.00162 0.0
O83 O 0.71589 0.05778 0.00195 0.0
O84 O 0.72277 0.76023 0.38531 0.0
Cd85 Cd 0.72966 0.74348 0.34167 0.0
Cd86 Cd 0.67562 0.71597 0.34212 0.0
O87 O 0.67998 0.73331 0.39045 0.0
O88 O 0.76747 0.75269 0.34491 0.0
O89 O 0.73439 0.71209 0.34789 0.0
C90 C 0.75948 0.72813 0.34909 0.0
C91 C 0.64763 0.67081 0.3345 0.0
C92 C 0.70127 0.75248 0.40185 0.0
C93 C 0.70274 0.75313 0.28172 0.0
O94 O 0.68139 0.73911 0.29836 0.0
O95 O 0.72431 0.75585 0.29326 0.0
O96 O 0.63848 0.68647 0.33883 0.0
O97 O 0.67287 0.68079 0.33585 0.0
O98 O 0.30057 0.97477 0.38692 0.0
Cd99 Cd 0.31608 0.99917 0.34373 0.0
Cd100 Cd 0.34508 0.97295 0.3414 0.0
O101 O 0.32777 0.95911 0.38979 0.0
O102 O 0.30489 0.02602 0.34913 0.0
O103 O 0.34646 0.03593 0.34944 0.0
C104 C 0.32937 0.04358 0.35216 0.0
C105 C 0.39027 0.98782 0.33325 0.0
C106 C 0.30859 0.96086 0.40223 0.0
C107 C 0.30619 0.96399 0.28255 0.0
O108 O 0.32097 0.95693 0.29778 0.0
O109 O 0.3031 0.98218 0.29528 0.0
O110 O 0.37323 0.96328 0.33643 0.0
O111 O 0.38169 1.00414 0.33562 0.0
O112 O 0.1093 0.37795 0.29304 0.0
Cd113 Cd 0.09414 0.38606 0.33744 0.0
Cd114 Cd 0.06979 0.33035 0.34042 0.0
O115 O 0.08785 0.33467 0.2926 0.0
O116 O 0.10482 0.42397 0.33187 0.0
O117 O 0.06342 0.3923 0.33267 0.0
C118 C 0.08028 0.41697 0.32939 0.0
C119 C 1.0252 0.2991 0.34913 0.0
C120 C 0.10437 0.35642 0.27883 0.0
C121 C 0.10742 0.36271 0.39871 0.0
O122 O 0.09389 0.34054 0.38394 0.0
O123 O 0.10872 0.38318 0.38564 0.0
O124 O 0.04294 0.29238 0.34666 0.0
O125 O 1.03275 0.32367 0.34539 0.0
O126 O 0.68781 0.95377 0.29503 0.0
Cd127 Cd 0.67971 0.96976 0.33838 0.0
Cd128 Cd 0.73445 0.99974 0.33706 0.0
O129 O 0.7302 0.98221 0.28894 0.0
O130 O 0.64135 0.95857 0.33462 0.0
O131 O 0.673 0.99987 0.33209 0.0
C132 C 0.64815 0.98285 0.33043 0.0
C133 C 0.76357 0.04483 0.34442 0.0
C134 C 0.70929 0.96226 0.27817 0.0
C135 C 0.70822 0.96179 0.39753 0.0
O136 O 0.7292 0.97666 0.38066 0.0
O137 O 0.6861 0.95813 0.38674 0.0
O138 O 0.77198 0.0286 0.33997 0.0
O139 O 0.73842 0.0355 0.34336 0.0
O140 O 0.10711 0.7377 0.29887 0.0
Cd141 Cd 0.08943 0.71588 0.34353 0.0
Cd142 Cd 0.06601 0.74726 0.34029 0.0
O143 O 0.0856 0.75937 0.29307 0.0
O144 O 0.09877 0.68748 0.34208 0.0
O145 O 0.058 0.67956 0.33752 0.0
C146 C 0.07424 0.67078 0.33708 0.0
C147 C 1.02099 0.73263 0.34676 0.0
C148 C 0.10261 0.75369 0.28206 0.0
C149 C 0.10142 0.75458 0.40195 0.0
O150 O 0.08874 0.76302 0.38447 0.0
O151 O 0.10255 0.73466 0.39146 0.0
O152 O 1.03795 0.75715 0.34267 0.0
O153 O 1.02957 0.71627 0.34548 0.0
O154 O 0.30237 0.33741 0.38282 0.0
Cd155 Cd 0.32091 0.33311 0.33918 0.0
Cd156 Cd 0.34688 0.38693 0.34392 0.0
O157 O 0.32851 0.3797 0.39215 0.0
O158 O 0.3123 0.29565 0.34042 0.0
O159 O 0.35269 0.32891 0.34629 0.0
C160 C 0.33687 0.30386 0.34614 0.0
C161 C 0.39198 0.41626 0.33602 0.0
C162 C 0.3091 0.35775 0.40133 0.0
C163 C 0.31073 0.36129 0.28193 0.0
O164 O 0.32369 0.38173 0.30051 0.0
O165 O 0.30916 0.33979 0.29102 0.0
O166 O 0.37565 0.42449 0.34173 0.0
O167 O 0.38277 0.39124 0.33658 0.0
O168 O 0.39671 0.09248 0.71435 0.0
Cd169 Cd 0.40092 0.07549 0.66914 0.0
Cd170 Cd 0.34634 0.05377 0.67064 0.0
O171 O 0.35337 0.07232 0.71855 0.0
O172 O 0.43815 0.0829 0.67142 0.0
O173 O 0.40391 0.04295 0.67345 0.0
C174 C 0.42914 0.05811 0.67491 0.0
C175 C 0.31517 1.00913 0.6635 0.0
C176 C 0.37605 0.0884 0.73058 0.0
C177 C 0.37682 0.09071 0.61108 0.0
O178 O 0.35506 0.07783 0.62733 0.0
O179 O 0.39736 0.0908 0.622 0.0
O180 O 0.30806 0.02647 0.66709 0.0
O181 O 0.34008 1.01713 0.66507 0.0
O182 O 0.9668 0.31014 0.71423 0.0
Cd183 Cd 0.98477 0.33338 0.67073 0.0
Cd184 Cd 1.01056 0.30495 0.67275 0.0
O185 O 0.99276 0.29337 0.72125 0.0
O186 O 0.9769 0.36266 0.67385 0.0
O187 O 1.01712 0.36873 0.67741 0.0
C188 C 1.0017 0.37848 0.6786 0.0
C189 C 0.05531 0.31845 0.66435 0.0
C190 C 0.97364 0.29608 0.73161 0.0
C191 C 0.973 0.29595 0.61244 0.0
O192 O 0.98637 0.28817 0.62969 0.0
O193 O 0.97177 0.31586 0.62247 0.0
O194 O 1.03796 0.29416 0.66911 0.0
O195 O 0.04733 0.33528 0.6658 0.0
O196 O 0.77676 0.71556 0.63347 0.0
Cd197 Cd 0.76023 0.72114 0.67819 0.0
Cd198 Cd 0.73677 0.66552 0.67726 0.0
O199 O 0.75549 0.67238 0.62929 0.0
O200 O 0.76971 0.75879 0.67453 0.0
O201 O 0.72879 0.72605 0.67274 0.0
C202 C 0.74505 0.75093 0.67054 0.0
C203 C 0.69222 0.63326 0.6848 0.0
C204 C 0.77205 0.69482 0.61724 0.0
C205 C 0.77353 0.69628 0.73738 0.0
O206 O 0.76066 0.6747 0.72097 0.0
O207 O 0.77429 0.71696 0.72609 0.0
O208 O 0.71033 0.62711 0.68128 0.0
O209 O 0.69935 0.65782 0.68268 0.0
O210 O 0.34699 0.28692 0.63544 0.0
Cd211 Cd 0.34237 0.3049 0.67932 0.0
Cd212 Cd 0.39635 0.33084 0.67613 0.0
O213 O 0.38971 0.31277 0.62779 0.0
O214 O 0.30531 0.29793 0.67708 0.0
O215 O 0.33998 0.33758 0.67317 0.0
C216 C 0.31469 0.32269 0.67234 0.0
C217 C 0.42726 0.37576 0.6828 0.0
C218 C 0.36779 0.2937 0.61774 0.0
C219 C 0.36896 0.29302 0.7366 0.0
O220 O 0.39004 0.30687 0.71928 0.0
O221 O 0.3475 0.29154 0.72701 0.0
O222 O 0.43452 0.35864 0.67807 0.0
O223 O 0.40226 0.3674 0.68272 0.0
O224 O 0.77692 0.0715 0.62906 0.0
Cd225 Cd 0.75975 0.04945 0.67383 0.0
Cd226 Cd 0.73565 0.07989 0.67266 0.0
O227 O 0.75441 0.09225 0.62499 0.0
O228 O 0.76703 1.01973 0.6711 0.0
O229 O 0.72697 1.01414 0.66874 0.0
C230 C 0.7421 1.00407 0.66729 0.0
C231 C 0.69107 0.06733 0.68001 0.0
C232 C 0.77177 0.08738 0.61311 0.0
C233 C 0.77295 0.08753 0.73255 0.0
O234 O 0.75935 0.09547 0.71621 0.0
O235 O 0.77414 0.06777 0.72161 0.0
O236 O 0.70894 0.09155 0.67616 0.0
O237 O 0.69846 0.05006 0.67825 0.0
O238 O 0.96597 0.66615 0.71338 0.0
Cd239 Cd 0.98382 0.66068 0.67003 0.0
Cd240 Cd 1.011 0.71511 0.67332 0.0
O241 O 0.99251 0.70851 0.72157 0.0
O242 O 0.97436 0.62306 0.67296 0.0
O243 O 1.01516 0.65592 0.67706 0.0
C244 C 0.99891 0.63096 0.6782 0.0
C245 C 0.05631 0.74545 0.66671 0.0
C246 C 0.97301 0.68679 0.73129 0.0
C247 C 0.97379 0.68797 0.61191 0.0
O248 O 0.98746 0.70883 0.62954 0.0
O249 O 0.97177 0.66644 0.62176 0.0
O250 O 0.03933 0.75301 0.67113 0.0
O251 O 0.04761 0.72052 0.66723 0.0
H252 H 0.29028 0.36425 0.12357 0.0
H253 H 0.23179 0.36916 0.06184 0.0
H254 H 0.22895 0.36908 0.17582 0.0
H255 H 0.18833 0.35358 0.17205 0.0
H256 H 0.1346 0.37119 0.1214 0.0
H257 H 0.20157 0.38083 0.06376 0.0
C258 C 0.27214 0.36492 0.12206 0.0
C259 C 0.25974 0.36533 0.15291 0.0
C260 C 0.26261 0.36709 0.0894 0.0
C261 C 0.2391 0.36816 0.08747 0.0
C262 C 0.2254 0.36769 0.11859 0.0
C263 C 0.23706 0.36747 0.15118 0.0
C264 C 0.19942 0.36761 0.118 0.0
C265 C 0.18341 0.36049 0.14863 0.0
C266 C 0.16083 0.36281 0.15019 0.0
C267 C 0.15231 0.36972 0.12019 0.0
C268 C 0.16636 0.37524 0.08882 0.0
C269 C 0.19032 0.37502 0.08781 0.0
H270 H 0.69937 0.93296 0.12362 0.0
H271 H 0.68339 0.86395 0.06658 0.0
H272 H 0.71146 0.87572 0.17439 0.0
H273 H 0.69446 0.83485 0.17753 0.0
H274 H 0.69935 0.77459 0.12302 0.0
H275 H 0.69555 0.83427 0.06345 0.0
C276 C 0.69949 0.91462 0.12233 0.0
C277 C 0.7055 0.90525 0.1523 0.0
C278 C 0.69214 0.90013 0.09128 0.0
C279 C 0.69032 0.87532 0.09041 0.0
C280 C 0.69719 0.86556 0.12036 0.0
C281 C 0.70518 0.88137 0.15101 0.0
C282 C 0.69623 0.83933 0.12038 0.0
C283 C 0.69614 0.82713 0.15261 0.0
C284 C 0.69849 0.80464 0.15349 0.0
C285 C 0.69872 0.79267 0.12218 0.0
C286 C 0.69692 0.80288 0.08989 0.0
C287 C 0.69602 0.82634 0.08882 0.0
H288 H 0.28652 0.93684 0.12646 0.0
H289 H 0.2334 0.86805 0.06898 0.0
H290 H 0.21821 0.87806 0.17797 0.0
H291 H 0.19412 0.83734 0.18041 0.0
H292 H 0.13177 0.77415 0.12542 0.0
H293 H 0.19234 0.83732 0.06626 0.0
C294 C 0.26816 0.91832 0.1252 0.0
C295 C 0.25321 0.90832 0.1555 0.0
C296 C 0.26074 0.90413 0.09387 0.0
C297 C 0.23793 0.87913 0.09306 0.0
C298 C 0.22169 0.86876 0.12328 0.0
C299 C 0.22977 0.88421 0.15425 0.0
C300 C 0.19686 0.84206 0.12325 0.0
C301 C 0.1851 0.82933 0.15538 0.0
C302 C 0.16156 0.80528 0.15607 0.0
C303 C 0.14979 0.793 0.12471 0.0
C304 C 0.16112 0.80428 0.09249 0.0
C305 C 0.18444 0.82884 0.09161 0.0
H306 H 0.3851 0.11575 0.88798 0.0
H307 H 0.38238 0.17541 0.94878 0.0
H308 H 0.38286 0.17779 0.83459 0.0
H309 H 0.36667 0.20214 0.83763 0.0
H310 H 0.37592 0.26958 0.89053 0.0
H311 H 0.39144 0.21599 0.94692 0.0
C312 C 0.38411 0.13364 0.88916 0.0
C313 C 0.38305 0.14546 0.85816 0.0
C314 C 0.38435 0.14464 0.92165 0.0
C315 C 0.38278 0.16775 0.9232 0.0
C316 C 0.38143 0.18024 0.89188 0.0
C317 C 0.38222 0.16875 0.85944 0.0
C318 C 0.37928 0.2049 0.89239 0.0
C319 C 0.37202 0.21337 0.86156 0.0
C320 C 0.37158 0.23691 0.86064 0.0
C321 C 0.37609 0.25126 0.89132 0.0
C322 C 0.38257 0.24338 0.92251 0.0
C323 C 0.38494 0.22072 0.92293 0.0
H324 H 0.7923 0.11352 0.88868 0.0
H325 H 0.84574 0.18166 0.94732 0.0
H326 H 0.86209 0.17143 0.83901 0.0
H327 H 0.88473 0.2123 0.83613 0.0
H328 H 0.94933 0.274 0.88997 0.0
H329 H 0.88737 0.21265 0.9501 0.0
C330 C 0.81088 0.13179 0.89035 0.0
C331 C 0.82618 0.14182 0.86034 0.0
C332 C 0.81822 0.14573 0.92191 0.0
C333 C 0.84124 0.17062 0.9232 0.0
C334 C 0.85782 0.18094 0.89324 0.0
C335 C 0.85004 0.16547 0.86232 0.0
C336 C 0.88272 0.20758 0.89322 0.0
C337 C 0.89426 0.22018 0.86094 0.0
C338 C 0.9186 0.24341 0.85981 0.0
C339 C 0.93099 0.25545 0.89101 0.0
C340 C 0.91939 0.24491 0.92344 0.0
C341 C 0.8955 0.2208 0.92469 0.0
H342 H 0.79227 0.68662 0.89311 0.0
H343 H 0.84487 0.66909 0.94946 0.0
H344 H 0.86175 0.69842 0.84232 0.0
H345 H 0.88395 0.67967 0.83791 0.0
H346 H 0.94895 0.68172 0.89001 0.0
H347 H 0.88681 0.67959 0.95186 0.0
C348 C 0.81071 0.68652 0.89433 0.0
C349 C 0.82619 0.69261 0.86437 0.0
C350 C 0.81769 0.67872 0.92522 0.0
C351 C 0.84054 0.6764 0.92586 0.0
C352 C 0.8572 0.68322 0.89588 0.0
C353 C 0.84968 0.69195 0.8656 0.0
C354 C 0.88204 0.6812 0.89515 0.0
C355 C 0.89355 0.68081 0.86251 0.0
C356 C 0.91797 0.682 0.8607 0.0
C357 C 0.93046 0.68172 0.89154 0.0
C358 C 0.9189 0.67996 0.92422 0.0
C359 C 0.8949 0.68006 0.92623 0.0
H360 H 0.9538 0.69687 0.45573 0.0
H361 H 0.89905 0.71085 0.39881 0.0
H362 H 0.88488 0.68543 0.50779 0.0
H363 H 0.86079 0.70192 0.51133 0.0
H364 H 0.79729 0.70241 0.45882 0.0
H365 H 0.85785 0.7013 0.3972 0.0
C366 C 0.93518 0.69664 0.45477 0.0
C367 C 0.92043 0.69161 0.48526 0.0
C368 C 0.92715 0.70285 0.42348 0.0
C369 C 0.90401 0.70461 0.42286 0.0
C370 C 0.88792 0.69858 0.45332 0.0
C371 C 0.89644 0.69133 0.48407 0.0
C372 C 0.86289 0.70026 0.454 0.0
C373 C 0.8514 0.70087 0.48659 0.0
C374 C 0.82769 0.70107 0.48821 0.0
C375 C 0.81546 0.70179 0.45737 0.0
C376 C 0.82653 0.70238 0.42473 0.0
C377 C 0.85007 0.70139 0.42284 0.0
H378 H 0.36501 0.26936 0.45975 0.0
H379 H 0.36408 0.20771 0.39902 0.0
H380 H 0.36206 0.2046 0.51298 0.0
H381 H 0.38046 0.18184 0.50941 0.0
H382 H 0.36914 0.11311 0.45784 0.0
H383 H 0.35208 0.16585 0.40175 0.0
C384 C 0.36509 0.25101 0.45853 0.0
C385 C 0.36477 0.23851 0.48962 0.0
C386 C 0.36398 0.23959 0.42599 0.0
C387 C 0.36403 0.21568 0.42453 0.0
C388 C 0.3644 0.20274 0.45586 0.0
C389 C 0.36356 0.21419 0.48828 0.0
C390 C 0.36606 0.17786 0.45545 0.0
C391 C 0.37434 0.17005 0.48592 0.0
C392 C 0.37501 0.14666 0.48691 0.0
C393 C 0.36912 0.1315 0.45677 0.0
C394 C 0.36148 0.13864 0.42592 0.0
C395 C 0.3593 0.16143 0.42538 0.0
H396 H 0.95502 0.26858 0.45694 0.0
H397 H 0.90255 0.19969 0.39889 0.0
H398 H 0.88455 0.21115 0.50584 0.0
H399 H 0.86256 0.17022 0.50975 0.0
H400 H 0.8001 0.10628 0.45607 0.0
H401 H 0.86056 0.16889 0.39565 0.0
C402 C 0.93647 0.25029 0.4552 0.0
C403 C 0.92076 0.24057 0.48491 0.0
C404 C 0.92961 0.23599 0.42394 0.0
C405 C 0.90665 0.21106 0.42267 0.0
C406 C 0.88967 0.20107 0.45229 0.0
C407 C 0.89693 0.2169 0.48285 0.0
C408 C 0.86507 0.17424 0.4525 0.0
C409 C 0.85346 0.16187 0.48487 0.0
C410 C 0.82989 0.13792 0.48603 0.0
C411 C 0.81817 0.12509 0.45498 0.0
C412 C 0.82938 0.136 0.42254 0.0
C413 C 0.85267 0.1606 0.42111 0.0
H414 H 0.03963 0.44701 0.22287 0.0
H415 H 0.05762 0.5165 0.28017 0.0
H416 H 1.02961 0.50571 0.17245 0.0
H417 H 0.04921 0.54688 0.16926 0.0
H418 H 0.05069 0.61065 0.22319 0.0
H419 H 0.04634 0.5471 0.28328 0.0
C420 C 0.03988 0.46552 0.22434 0.0
C421 C 1.03438 0.47534 0.19436 0.0
C422 C 0.04764 0.47996 0.25545 0.0
C423 C 0.05025 0.50511 0.25641 0.0
C424 C 0.04384 0.51532 0.22654 0.0
C425 C 1.0354 0.49957 0.19584 0.0
C426 C 0.04649 0.5423 0.22639 0.0
C427 C 0.04811 0.55507 0.19408 0.0
C428 C 0.04914 0.5793 0.19299 0.0
C429 C 0.04958 0.59172 0.22418 0.0
C430 C 0.04907 0.58044 0.25661 0.0
C431 C 0.04735 0.55569 0.25787 0.0
H432 H 0.45917 0.44569 0.22454 0.0
H433 H 0.51206 0.51529 0.28071 0.0
H434 H 0.52688 0.50441 0.17187 0.0
H435 H 0.55062 0.5451 0.16851 0.0
H436 H 0.61311 0.60911 0.22211 0.0
H437 H 0.55308 0.54652 0.28267 0.0
C438 C 0.4774 0.46436 0.22537 0.0
C439 C 0.49213 0.47417 0.19488 0.0
C440 C 0.48493 0.47882 0.25646 0.0
C441 C 0.5075 0.504 0.25681 0.0
C442 C 0.52354 0.51422 0.22635 0.0
C443 C 0.51543 0.49842 0.19569 0.0
C444 C 0.54824 0.54104 0.2258 0.0
C445 C 0.55976 0.55342 0.19336 0.0
C446 C 0.58324 0.57751 0.19216 0.0
C447 C 0.59515 0.59022 0.22322 0.0
C448 C 0.58407 0.57928 0.25567 0.0
C449 C 0.56081 0.5547 0.25713 0.0
H450 H 0.45551 1.01758 0.22329 0.0
H451 H 0.51593 1.01579 0.28473 0.0
H452 H 0.51804 1.01517 0.1708 0.0
H453 H 0.55901 0.03403 0.17459 0.0
H454 H 0.61595 1.02017 0.2232 0.0
H455 H 0.54751 1.00543 0.28199 0.0
C456 C 0.47405 1.0177 0.22475 0.0
C457 C 0.48662 1.01777 0.19383 0.0
C458 C 0.48402 1.01608 0.25739 0.0
C459 C 0.50818 1.01624 0.25918 0.0
C460 C 0.52198 1.01722 0.22797 0.0
C461 C 0.50982 1.01657 0.19547 0.0
C462 C 0.54875 1.01905 0.22828 0.0
C463 C 0.56459 0.02728 0.19759 0.0
C464 C 0.58805 0.02665 0.19532 0.0
C465 C 0.59778 1.02074 0.22505 0.0
C466 C 0.58367 1.01388 0.25656 0.0
C467 C 0.55878 1.01223 0.25801 0.0
H468 H 0.62508 0.03556 0.78934 0.0
H469 H 0.56752 0.04349 0.73005 0.0
H470 H 0.55383 1.01906 0.83955 0.0
H471 H 0.52634 0.03148 0.84157 0.0
H472 H 0.46113 0.026 0.78597 0.0
H473 H 0.52646 0.03264 0.72741 0.0
C474 C 0.60588 0.03406 0.78785 0.0
C475 C 0.59048 0.02777 0.81787 0.0
C476 C 0.59723 0.03878 0.75605 0.0
C477 C 0.57298 0.03837 0.7546 0.0
C478 C 0.55646 0.03153 0.78476 0.0
C479 C 0.56553 0.02538 0.81598 0.0
C480 C 0.53019 0.03089 0.7844 0.0
C481 C 0.51728 0.02994 0.81642 0.0
C482 C 0.49206 0.02701 0.81688 0.0
C483 C 0.48008 0.02692 0.7854 0.0
C484 C 0.4927 0.02959 0.75336 0.0
C485 C 0.51754 0.03124 0.75268 0.0
H486 H 1.03844 0.60305 0.78987 0.0
H487 H 1.02196 0.53372 0.73347 0.0
H488 H 0.04833 0.54492 0.84203 0.0
H489 H 1.03162 0.50438 0.84536 0.0
H490 H 1.02906 0.44007 0.79172 0.0
H491 H 1.03122 0.50234 0.73123 0.0
C492 C 1.0383 0.58458 0.78885 0.0
C493 C 0.04349 0.57491 0.81924 0.0
C494 C 1.03119 0.57008 0.75778 0.0
C495 C 1.02881 0.54505 0.75732 0.0
C496 C 1.03485 0.53496 0.78764 0.0
C497 C 0.0427 0.55079 0.81828 0.0
C498 C 1.03259 0.50814 0.7881 0.0
C499 C 1.03208 0.49594 0.82048 0.0
C500 C 1.0315 0.47192 0.82169 0.0
C501 C 1.03 0.45891 0.79065 0.0
C502 C 1.02947 0.46967 0.75822 0.0
C503 C 1.03099 0.49429 0.75677 0.0
H504 H 0.62241 0.60008 0.79094 0.0
H505 H 0.56892 0.53167 0.73268 0.0
H506 H 0.55182 0.54326 0.84009 0.0
H507 H 0.52882 0.50249 0.84391 0.0
H508 H 0.46366 0.44116 0.79067 0.0
H509 H 0.52702 0.50048 0.72984 0.0
C510 C 0.60375 0.58188 0.78927 0.0
C511 C 0.58812 0.57231 0.81905 0.0
C512 C 0.59658 0.56771 0.75791 0.0
C513 C 0.57337 0.54291 0.75662 0.0
C514 C 0.55649 0.53299 0.78641 0.0
C515 C 0.56412 0.5488 0.81704 0.0
C516 C 0.5313 0.5065 0.78665 0.0
C517 C 0.51933 0.49453 0.81909 0.0
C518 C 0.49455 0.47188 0.8204 0.0
C519 C 0.4823 0.4594 0.78937 0.0
C520 C 0.49427 0.46911 0.75689 0.0
C521 C 0.51856 0.49288 0.75532 0.0
H522 H 0.70988 0.78114 0.55838 0.0
H523 H 0.72412 0.8498 0.61467 0.0
H524 H 0.70024 0.83899 0.505 0.0
H525 H 0.71544 0.87932 0.50217 0.0
H526 H 0.71109 0.94023 0.55557 0.0
H527 H 0.71431 0.88075 0.61622 0.0
C528 C 0.70998 0.7996 0.55904 0.0
C529 C 0.7052 0.80926 0.52834 0.0
C530 C 0.71612 0.81386 0.59024 0.0
C531 C 0.71812 0.83873 0.59055 0.0
C532 C 0.7125 0.84882 0.55985 0.0
C533 C 0.70564 0.83321 0.52901 0.0
C534 C 0.7135 0.8751 0.55936 0.0
C535 C 0.71381 0.8872 0.52695 0.0
C536 C 0.71198 0.90998 0.52564 0.0
C537 C 0.71148 0.92203 0.55673 0.0
C538 C 0.71315 0.91197 0.5892 0.0
C539 C 0.71382 0.8884 0.59067 0.0
H540 H 0.12255 0.78098 0.55989 0.0
H541 H 0.18076 0.84607 0.61894 0.0
H542 H 0.18376 0.84486 0.50486 0.0
H543 H 0.22335 0.87207 0.5069 0.0
H544 H 0.28106 0.94075 0.55791 0.0
H545 H 0.21323 0.88625 0.61647 0.0
C546 C 0.14069 0.79974 0.56066 0.0
C547 C 0.15332 0.81128 0.52939 0.0
C548 C 0.1501 0.8125 0.59269 0.0
C549 C 0.1736 0.83703 0.59365 0.0
C550 C 0.18743 0.84922 0.56209 0.0
C551 C 0.17581 0.83619 0.53002 0.0
C552 C 0.21369 0.87488 0.56184 0.0
C553 C 0.22909 0.88346 0.53065 0.0
C554 C 0.25291 0.9072 0.52914 0.0
C555 C 0.26271 0.92221 0.55928 0.0
C556 C 0.24875 0.91445 0.5908 0.0
C557 C 0.22401 0.89118 0.59206 0.0
H558 H 0.12522 0.35643 0.55549 0.0
H559 H 0.17759 0.34026 0.6147 0.0
H560 H 0.19521 0.36768 0.5068 0.0
H561 H 0.21815 0.34963 0.50443 0.0
H562 H 0.2826 0.35299 0.55981 0.0
H563 H 0.21936 0.35121 0.61844 0.0
C564 C 0.1437 0.35647 0.55743 0.0
C565 C 0.15942 0.36209 0.52778 0.0
C566 C 0.1505 0.34925 0.58896 0.0
C567 C 0.17343 0.34712 0.59057 0.0
C568 C 0.19035 0.35356 0.56095 0.0
C569 C 0.18298 0.36162 0.52994 0.0
C570 C 0.21534 0.35187 0.56145 0.0
C571 C 0.2274 0.35115 0.52945 0.0
C572 C 0.25195 0.35256 0.52887 0.0
C573 C 0.26404 0.35288 0.56036 0.0
C574 C 0.25197 0.35155 0.5925 0.0
C575 C 0.22783 0.35139 0.59321 0.0
C576 C 0.0508 0.46079 0.10435 0.0
C577 C 1.03259 0.43395 0.09988 0.0
C578 C 0.05004 0.47444 0.134 0.0
C579 C 1.03129 0.46169 0.16056 0.0
H580 H 0.06596 0.47136 0.08492 0.0
H581 H 0.06499 0.49485 0.1369 0.0
S582 S 0.97859 0.39202 0.16119 0.0
N583 N 0.99449 0.39544 0.12402 0.0
N584 N 0.99354 0.42109 0.18019 0.0
C585 C 1.01256 0.43508 0.15613 0.0
C586 C 1.01306 0.42122 0.12566 0.0
C587 C 0.6226 0.59165 0.10815 0.0
C588 C 0.62602 0.61608 0.09764 0.0
C589 C 0.60766 0.57865 0.13793 0.0
C590 C 0.59595 0.58981 0.15848 0.0
H591 H 0.63143 0.5824 0.09319 0.0
H592 H 0.60586 0.56011 0.14549 0.0
S593 S 0.59876 0.65315 0.14278 0.0
N594 N 0.61602 0.65066 0.11031 0.0
N595 N 0.58847 0.62636 0.16659 0.0
C596 C 0.59904 0.61406 0.14831 0.0
C597 C 0.61392 0.62715 0.1178 0.0
C598 C 0.45747 0.04022 0.12218 0.0
C599 C 0.44968 1.02052 0.09659 0.0
C600 C 0.46971 0.03931 0.15331 0.0
C601 C 0.47501 1.01891 0.15979 0.0
H602 H 0.45367 0.05624 0.11849 0.0
H603 H 0.47501 0.05466 0.17258 0.0
S604 S 0.45959 0.96305 0.10098 0.0
N605 N 0.44886 0.98026 0.07963 0.0
N606 N 0.472 0.97881 0.13815 0.0
C607 C 0.46786 0.99938 0.13426 0.0
C608 C 0.45513 1.0001 0.10269 0.0
C609 C 0.47521 0.04375 0.90582 0.0
C610 C 0.4495 1.02282 0.912 0.0
C611 C 0.48927 0.04458 0.8756 0.0
C612 C 0.47805 0.02469 0.85025 0.0
H613 H 0.48462 0.05962 0.92451 0.0
H614 H 0.50881 0.06121 0.87161 0.0
S615 S 0.4118 0.96546 0.85369 0.0
N616 N 0.41371 0.98149 0.89009 0.0
N617 N 0.44016 0.98328 0.83332 0.0
C618 C 0.45256 1.00357 0.85613 0.0
C619 C 0.4383 1.00258 0.88698 0.0
C620 C 1.01458 0.42285 0.89547 0.0
C621 C 1.03706 0.43499 0.91704 0.0
C622 C 1.01268 0.43513 0.86499 0.0
C623 C 1.03292 0.46022 0.8554 0.0
H624 H 0.99848 0.40352 0.90183 0.0
H625 H 0.99532 0.4249 0.84868 0.0
S626 S 0.09547 0.50086 0.90303 0.0
N627 N 0.07984 0.47385 0.92669 0.0
N628 N 0.0759 0.49695 0.86963 0.0
C629 C 0.05525 0.4728 0.8769 0.0
C630 C 0.05742 0.46017 0.90764 0.0
C631 C 0.6209 0.62609 0.88741 0.0
C632 C 0.62584 0.61321 0.91495 0.0
C633 C 0.6078 0.61258 0.85682 0.0
C634 C 0.59863 0.58563 0.85311 0.0
H635 H 0.62792 0.6469 0.88901 0.0
H636 H 0.60522 0.62336 0.83565 0.0
S637 S 0.60498 0.5425 0.91839 0.0
N638 N 0.61941 0.57166 0.93706 0.0
N639 N 0.59461 0.5464 0.87982 0.0
C640 C 0.60258 0.57237 0.88093 0.0
C641 C 0.61625 0.58613 0.91176 0.0
C642 C 1.02764 0.59001 0.9094 0.0
C643 C 0.04622 0.61675 0.91382 0.0
C644 C 1.02792 0.57626 0.87958 0.0
C645 C 0.04653 0.58882 0.85281 0.0
H646 H 1.01264 0.57958 0.92908 0.0
H647 H 1.01281 0.5559 0.87681 0.0
S648 S 0.09987 0.6582 0.85174 0.0
N649 N 0.08436 0.655 0.88919 0.0
N650 N 0.08442 0.62915 0.83277 0.0
C651 C 0.06551 0.61535 0.85706 0.0
C652 C 0.0655 0.62931 0.88768 0.0
C653 C 0.47871 0.43824 0.9092 0.0
C654 C 0.45315 0.43375 0.91613 0.0
C655 C 0.4925 0.45154 0.87887 0.0
C656 C 0.48111 0.46053 0.85416 0.0
H657 H 0.48818 0.4314 0.92731 0.0
H658 H 0.51189 0.45414 0.87422 0.0
S659 S 0.41529 0.45467 0.85985 0.0
N660 N 0.41745 0.4402 0.89579 0.0
N661 N 0.44333 0.46487 0.83872 0.0
C662 C 0.45583 0.45659 0.86089 0.0
C663 C 0.44188 0.44332 0.89188 0.0
C664 C 0.63745 0.04565 0.89442 0.0
C665 C 0.6265 1.02254 0.91454 0.0
C666 C 0.62541 0.0471 0.86349 0.0
C667 C 0.60175 0.02566 0.85165 0.0
H668 H 0.65567 0.06274 0.90237 0.0
H669 H 0.6347 0.06521 0.84864 0.0
S670 S 0.56447 0.96087 0.89468 0.0
N671 N 0.59021 0.97772 0.92041 0.0
N672 N 0.56755 0.98076 0.8622 0.0
C673 C 0.5903 1.00255 0.87154 0.0
C674 C 0.60272 1.0009 0.90295 0.0
C675 C 0.64083 0.04629 0.1253 0.0
C676 C 0.62729 0.02802 0.09848 0.0
C677 C 0.6279 0.04643 0.15626 0.0
C678 C 0.60086 0.0288 0.16097 0.0
H679 H 0.66173 0.05996 0.12287 0.0
H680 H 0.63918 0.06011 0.17689 0.0
S681 S 0.5561 0.97835 0.09776 0.0
N682 N 0.58507 0.99266 0.07811 0.0
N683 N 0.56083 0.99327 0.13592 0.0
C684 C 0.58693 1.01115 0.13384 0.0
C685 C 0.60013 1.01066 0.10269 0.0
C686 C 1.02573 0.59257 0.10673 0.0
C687 C 0.04609 0.61787 0.09782 0.0
C688 C 1.02738 0.5797 0.1368 0.0
C689 C 0.04923 0.59186 0.15928 0.0
H690 H 1.00844 0.58255 0.09026 0.0
H691 H 1.01114 0.56041 0.14304 0.0
S692 S 0.10772 0.65782 0.14812 0.0
N693 N 0.08893 0.65442 0.11398 0.0
N694 N 0.09167 0.63035 0.17076 0.0
C695 C 0.06974 0.61703 0.15068 0.0
C696 C 0.06828 0.62999 0.11987 0.0
C697 C 0.46121 0.45798 0.10465 0.0
C698 C 0.4541 0.43154 0.10023 0.0
C699 C 0.47479 0.47201 0.13459 0.0
C700 C 0.4814 0.46002 0.16146 0.0
H701 H 0.45623 0.46795 0.08482 0.0
H702 H 0.47936 0.49215 0.13732 0.0
S703 S 0.46776 0.39152 0.16277 0.0
N704 N 0.45534 0.39414 0.12509 0.0
N705 N 0.48035 0.42049 0.18177 0.0
C706 C 0.47474 0.43376 0.1573 0.0
C707 C 0.46126 0.41954 0.12657 0.0
C708 C 0.72016 0.79324 0.4381 0.0
C709 C 0.70099 0.76667 0.4338 0.0
C710 C 0.72052 0.80723 0.46803 0.0
C711 C 0.70199 0.79506 0.495 0.0
H712 H 0.73504 0.80336 0.41818 0.0
H713 H 0.73595 0.82748 0.47063 0.0
S714 S 0.64754 0.72619 0.49667 0.0
N715 N 0.66259 0.72897 0.45894 0.0
N716 N 0.66373 0.75525 0.51553 0.0
C717 C 0.68255 0.76867 0.49097 0.0
C718 C 0.68191 0.75449 0.46027 0.0
C719 C 0.26788 0.93802 0.43888 0.0
C720 C 0.29461 0.94578 0.43402 0.0
C721 C 0.25414 0.92418 0.46888 0.0
C722 C 0.26671 0.91795 0.49541 0.0
H723 H 0.25747 0.94276 0.41939 0.0
H724 H 0.23379 0.91919 0.47198 0.0
S725 S 0.33608 0.93309 0.49542 0.0
N726 N 0.33284 0.94537 0.45802 0.0
N727 N 0.30704 0.9199 0.51484 0.0
C728 C 0.29323 0.92515 0.49075 0.0
C729 C 0.30716 0.93889 0.45993 0.0
C730 C 0.13101 0.34637 0.43625 0.0
C731 C 0.1224 0.36452 0.43088 0.0
C732 C 0.14438 0.34679 0.46688 0.0
C733 C 0.14927 0.36509 0.49356 0.0
H734 H 0.12722 0.33155 0.41672 0.0
H735 H 0.14998 0.33198 0.47036 0.0
S736 S 0.13172 0.41734 0.49221 0.0
N737 N 0.1207 0.40201 0.45439 0.0
N738 N 0.14534 0.4023 0.51246 0.0
C739 C 0.14132 0.3837 0.48834 0.0
C740 C 0.12806 0.38357 0.45685 0.0
C741 C 0.13117 0.38031 0.22635 0.0
C742 C 0.11853 0.35707 0.24618 0.0
C743 C 0.14499 0.3819 0.19569 0.0
C744 C 0.14705 0.36044 0.18374 0.0
H745 H 0.13021 0.39744 0.23434 0.0
H746 H 0.15419 0.40013 0.18111 0.0
S747 S 0.11821 0.29526 0.22588 0.0
N748 N 0.10933 0.31206 0.25158 0.0
N749 N 0.13562 0.31536 0.19382 0.0
C750 C 0.13489 0.33719 0.2033 0.0
C751 C 0.12049 0.3354 0.23448 0.0
C752 C 0.68121 0.77115 0.24251 0.0
C753 C 0.70246 0.76693 0.24922 0.0
C754 C 0.68042 0.78418 0.21209 0.0
C755 C 0.70066 0.79315 0.18707 0.0
H756 H 0.66504 0.76438 0.26092 0.0
H757 H 0.66356 0.78668 0.20768 0.0
S758 S 0.76082 0.78765 0.19196 0.0
N759 N 0.74449 0.77339 0.2282 0.0
N760 N 0.74274 0.79758 0.17103 0.0
C761 C 0.7221 0.78935 0.1935 0.0
C762 C 0.72307 0.77635 0.22457 0.0
C763 C 0.28467 0.92368 0.2454 0.0
C764 C 0.29156 0.95 0.25056 0.0
C765 C 0.27092 0.90991 0.21539 0.0
C766 C 0.26394 0.92207 0.18917 0.0
H767 H 0.28994 0.91361 0.26471 0.0
H768 H 0.26654 0.88987 0.21206 0.0
S769 S 0.27692 0.99033 0.1899 0.0
N770 N 0.2897 0.98744 0.22709 0.0
N771 N 0.26443 0.9616 0.17025 0.0
C772 C 0.27038 0.9482 0.19407 0.0
C773 C 0.28401 0.96214 0.22489 0.0
C774 C 0.69136 0.92115 0.24289 0.0
C775 C 0.70998 0.94795 0.2466 0.0
C776 C 0.69112 0.90709 0.21314 0.0
C777 C 0.70925 0.91938 0.18579 0.0
H778 H 0.67671 0.91094 0.26304 0.0
H779 H 0.67597 0.8867 0.21088 0.0
S780 S 0.76251 0.98875 0.1828 0.0
N781 N 0.74767 0.98595 0.22071 0.0
N782 N 0.74675 0.95949 0.16444 0.0
C783 C 0.7283 0.94595 0.18936 0.0
C784 C 0.72881 0.96023 0.21988 0.0
C785 C 0.12332 0.79191 0.24095 0.0
C786 C 0.11817 0.76664 0.25018 0.0
C787 C 0.13844 0.80482 0.21128 0.0
C788 C 0.14855 0.79273 0.18952 0.0
H789 H 0.11574 0.80188 0.25689 0.0
H790 H 0.14162 0.82408 0.20475 0.0
S791 S 0.14078 0.72688 0.20172 0.0
N792 N 0.12475 0.7302 0.23512 0.0
N793 N 0.15266 0.75434 0.179 0.0
C794 C 0.14371 0.7676 0.19843 0.0
C795 C 0.12867 0.75459 0.22887 0.0
C796 C 0.28853 0.34244 0.22449 0.0
C797 C 0.29709 0.3625 0.24974 0.0
C798 C 0.27604 0.34332 0.1936 0.0
C799 C 0.27127 0.36404 0.18695 0.0
H800 H 0.29186 0.32614 0.22829 0.0
H801 H 0.27016 0.32769 0.17458 0.0
S802 S 0.289 0.42105 0.2446 0.0
N803 N 0.29932 0.40354 0.26605 0.0
N804 N 0.27576 0.40492 0.20791 0.0
C805 C 0.27924 0.38396 0.21208 0.0
C806 C 0.2922 0.38326 0.24343 0.0
C807 C 0.30507 0.37573 0.45906 0.0
C808 C 0.29387 0.35598 0.43338 0.0
C809 C 0.29121 0.37456 0.4896 0.0
C810 C 0.26547 0.35384 0.49542 0.0
H811 H 0.32485 0.39209 0.45582 0.0
H812 H 0.30073 0.39002 0.50889 0.0
S813 S 0.22682 0.29745 0.43643 0.0
N814 N 0.25513 0.31512 0.41586 0.0
N815 N 0.22919 0.31321 0.47327 0.0
C816 C 0.25384 0.33414 0.46992 0.0
C817 C 0.26803 0.33513 0.43895 0.0
C818 C 0.68898 0.93889 0.45444 0.0
C819 C 0.70947 0.94814 0.42961 0.0
C820 C 0.68979 0.92619 0.48511 0.0
C821 C 0.71086 0.92183 0.49185 0.0
H822 H 0.67237 0.94185 0.45048 0.0
H823 H 0.67384 0.9198 0.50384 0.0
S824 S 0.76901 0.94132 0.43509 0.0
N825 N 0.75128 0.95149 0.41373 0.0
N826 N 0.75249 0.92739 0.47135 0.0
C827 C 0.73122 0.93049 0.4671 0.0
C828 C 0.73062 0.94374 0.43603 0.0
C829 C 0.12103 0.79472 0.43969 0.0
C830 C 0.1156 0.76881 0.43417 0.0
C831 C 0.13413 0.80871 0.46992 0.0
C832 C 0.14203 0.79726 0.49597 0.0
H833 H 0.1151 0.80432 0.42054 0.0
H834 H 0.13744 0.82838 0.4734 0.0
S835 S 0.13344 0.73055 0.49424 0.0
N836 N 0.11995 0.73266 0.45726 0.0
N837 N 0.14435 0.75899 0.51416 0.0
C838 C 0.13715 0.77161 0.49068 0.0
C839 C 0.12403 0.75741 0.45977 0.0
C840 C 0.35787 0.1077 0.77315 0.0
C841 C 0.3785 0.10342 0.76295 0.0
C842 C 0.35994 0.12233 0.80323 0.0
C843 C 0.38253 0.13285 0.8244 0.0
H844 H 0.34002 0.09982 0.7577 0.0
H845 H 0.34349 0.12486 0.81051 0.0
S846 S 0.44207 0.12751 0.80962 0.0
N847 N 0.42245 0.11132 0.77655 0.0
N848 N 0.42596 0.13837 0.83333 0.0
C849 C 0.40332 0.1289 0.81454 0.0
C850 C 0.40142 0.11432 0.78374 0.0
C851 C 0.97067 0.27385 0.7888 0.0
C852 C 0.95889 0.28231 0.76375 0.0
C853 C 0.9573 0.26097 0.8195 0.0
C854 C 0.9315 0.25563 0.82608 0.0
H855 H 0.99053 0.27755 0.78497 0.0
H856 H 0.96726 0.25516 0.83834 0.0
S857 S 0.89138 0.27277 0.76873 0.0
N858 N 0.91952 0.28385 0.7475 0.0
N859 N 0.89449 0.25943 0.80519 0.0
C860 C 0.91927 0.26351 0.80113 0.0
C861 C 0.93296 0.27694 0.77002 0.0
C862 C 0.7973 0.67907 0.77301 0.0
C863 C 0.78853 0.69723 0.76918 0.0
C864 C 0.81087 0.6788 0.8031 0.0
C865 C 0.81584 0.69641 0.83075 0.0
H866 H 0.79351 0.66478 0.75268 0.0
H867 H 0.81657 0.66399 0.80535 0.0
S868 S 0.79798 0.74842 0.83354 0.0
N869 N 0.78678 0.734 0.79524 0.0
N870 N 0.81182 0.73301 0.8522 0.0
C871 C 0.80773 0.71503 0.82707 0.0
C872 C 0.79424 0.71559 0.79617 0.0
C873 C 0.79075 0.67636 0.57409 0.0
C874 C 0.78667 0.69699 0.58449 0.0
C875 C 0.805 0.67823 0.54358 0.0
C876 C 0.81527 0.7006 0.52218 0.0
H877 H 0.78303 0.6587 0.58974 0.0
H878 H 0.80744 0.66183 0.53619 0.0
S879 S 0.81016 0.75994 0.53724 0.0
N880 N 0.7944 0.74063 0.57074 0.0
N881 N 0.82069 0.74375 0.51317 0.0
C882 C 0.81146 0.72135 0.5322 0.0
C883 C 0.7973 0.71965 0.56342 0.0
C884 C 0.36004 0.11545 0.57676 0.0
C885 C 0.37826 0.10663 0.58014 0.0
C886 C 0.36033 0.12998 0.5475 0.0
C887 C 0.3786 0.13594 0.52028 0.0
H888 H 0.34525 0.11092 0.59676 0.0
H889 H 0.34538 0.13559 0.54542 0.0
S890 S 0.43112 0.11853 0.51673 0.0
N891 N 0.41585 0.106 0.55424 0.0
N892 N 0.41593 0.13288 0.49885 0.0
C893 C 0.39734 0.12788 0.52363 0.0
C894 C 0.39731 0.11338 0.55367 0.0
C895 C 0.95281 0.29399 0.55373 0.0
C896 C 0.9582 0.28121 0.58096 0.0
C897 C 0.9398 0.28055 0.52308 0.0
C898 C 0.93117 0.25375 0.51903 0.0
H899 H 0.95937 0.31469 0.55563 0.0
H900 H 0.93686 0.29126 0.50215 0.0
S901 S 0.93897 0.2109 0.58329 0.0
N902 N 0.95289 0.23993 0.60233 0.0
N903 N 0.92823 0.21475 0.54497 0.0
C904 C 0.93563 0.24056 0.54649 0.0
C905 C 0.94922 0.25428 0.57738 0.0
C906 C 0.38696 0.29037 0.56057 0.0
C907 C 0.36666 0.2789 0.58563 0.0
C908 C 0.38636 0.27694 0.52994 0.0
C909 C 0.36569 0.25137 0.52343 0.0
H910 H 0.40327 0.31006 0.56432 0.0
H911 H 0.40216 0.28669 0.51106 0.0
S912 S 0.30818 0.21205 0.58082 0.0
N913 N 0.32547 0.24002 0.60197 0.0
N914 N 0.32463 0.21488 0.54439 0.0
C915 C 0.34553 0.23943 0.54839 0.0
C916 C 0.34592 0.25318 0.57945 0.0
C917 C 0.79919 0.08988 0.56124 0.0
C918 C 0.78681 0.10087 0.58103 0.0
C919 C 0.81358 0.10224 0.53086 0.0
C920 C 0.81663 0.12629 0.51967 0.0
H921 H 0.79738 0.07136 0.56891 0.0
H922 H 0.82227 0.09286 0.51587 0.0
S923 S 0.789 0.16374 0.56211 0.0
N924 N 0.77899 0.13755 0.5871 0.0
N925 N 0.80649 0.16082 0.53033 0.0
C926 C 0.80483 0.13774 0.53934 0.0
C927 C 0.78979 0.12501 0.56992 0.0
C928 C 0.95327 0.67021 0.55322 0.0
C929 C 0.95932 0.68857 0.58035 0.0
C930 C 0.93999 0.67076 0.52287 0.0
C931 C 0.9317 0.68924 0.51897 0.0
H932 H 0.95939 0.6557 0.55507 0.0
H933 H 0.93642 0.65681 0.50212 0.0
S934 S 0.94147 0.74075 0.58281 0.0
N935 N 0.95521 0.7253 0.60159 0.0
N936 N 0.92997 0.72598 0.5448 0.0
C937 C 0.93697 0.70723 0.54621 0.0
C938 C 0.95087 0.707 0.57681 0.0
C939 C 0.96993 0.70517 0.78924 0.0
C940 C 0.95818 0.68549 0.76355 0.0
C941 C 0.9566 0.70405 0.8203 0.0
C942 C 0.93085 0.68347 0.82662 0.0
H943 H 0.98978 0.72134 0.78568 0.0
H944 H 0.96655 0.71937 0.83966 0.0
S945 S 0.89078 0.62754 0.7676 0.0
N946 N 0.91884 0.64502 0.74641 0.0
N947 N 0.89391 0.64321 0.80477 0.0
C948 C 0.91863 0.66396 0.80101 0.0
C949 C 0.93227 0.66488 0.76953 0.0
C950 C 0.35014 0.27042 0.79394 0.0
C951 C 0.36919 0.27764 0.76731 0.0
C952 C 0.35034 0.25632 0.82353 0.0
C953 C 0.36918 0.24838 0.82715 0.0
H954 H 0.33537 0.27627 0.79238 0.0
H955 H 0.33593 0.25197 0.84402 0.0
S956 S 0.42242 0.26098 0.76423 0.0
N957 N 0.40687 0.27486 0.7461 0.0
N958 N 0.40692 0.24815 0.80148 0.0
C959 C 0.3878 0.25473 0.8003 0.0
C960 C 0.3879 0.26944 0.77048 0.0
C961 C 0.79367 0.08898 0.79074 0.0
C962 C 0.78803 0.10197 0.76406 0.0
C963 C 0.80683 0.10215 0.82147 0.0
C964 C 0.81539 0.12889 0.82616 0.0
H965 H 0.78716 0.06832 0.78834 0.0
H966 H 0.80999 0.09128 0.84196 0.0
S967 S 0.80698 0.17224 0.76348 0.0
N968 N 0.79304 0.14342 0.7439 0.0
N969 N 0.818 0.16806 0.80138 0.0
C970 C 0.81068 0.14229 0.79924 0.0
C971 C 0.79693 0.12885 0.76828 0.0
C972 C 0.11353 0.3705 0.02958 0.0
C973 C 0.1205 0.39697 0.02598 0.0
C974 C 0.13057 0.3634 0.04568 0.0
C975 C 0.15526 0.38245 0.05875 0.0
H976 H 0.09405 0.35507 0.02221 0.0
H977 H 0.12336 0.34286 0.05101 0.0
S978 S 0.18491 0.45428 0.05072 0.0
N979 N 0.15559 0.44232 0.03245 0.0
N980 N 0.18718 0.42867 0.06327 0.0
C981 C 0.16357 0.40885 0.05215 0.0
C982 C 0.14629 0.41619 0.03566 0.0
C983 C 0.66197 0.74827 0.02575 0.0
C984 C 0.68034 0.7397 0.02105 0.0
C985 C 0.66861 0.77138 0.04421 0.0
C986 C 0.69386 0.78679 0.05849 0.0
H987 H 0.64171 0.73605 0.01758 0.0
H988 H 0.65319 0.77576 0.05034 0.0
S989 S 0.75062 0.77623 0.04758 0.0
N990 N 0.72613 0.75102 0.02744 0.0
N991 N 0.73834 0.79423 0.06231 0.0
C992 C 0.71316 0.7801 0.05056 0.0
C993 C 0.70646 0.7566 0.03181 0.0
C994 C 0.30947 0.95653 0.03377 0.0
C995 C 0.32633 0.94688 0.02489 0.0
C996 C 0.28627 0.94123 0.05284 0.0
C997 C 0.27896 0.91565 0.06366 0.0
H998 H 0.31505 0.97666 0.02813 0.0
H999 H 0.27504 0.9502 0.06161 0.0
S1000 S 0.31363 0.87947 0.04219 0.0
N1001 N 0.33198 0.90862 0.02427 0.0
N1002 N 0.28851 0.88018 0.06057 0.0
C1003 C 0.29414 0.90483 0.05204 0.0
C1004 C 0.31782 0.92038 0.03255 0.0
C1005 C 0.42008 0.12405 0.98332 0.0
C1006 C 0.40132 0.09742 0.98887 0.0
C1007 C 0.41348 0.14084 0.96549 0.0
C1008 C 0.38787 0.13169 0.9528 0.0
H1009 H 0.4405 0.13157 0.99033 0.0
H1010 H 0.42907 0.16033 0.95861 0.0
S1011 S 0.33037 0.06545 0.96617 0.0
N1012 N 0.35504 0.06402 0.9848 0.0
N1013 N 0.34293 0.09562 0.95107 0.0
C1014 C 0.36838 0.10605 0.96145 0.0
C1015 C 0.37502 0.08889 0.97954 0.0
C1016 C 0.97459 0.29368 0.97957 0.0
C1017 C 0.96423 0.30922 -0.00821 0.0
C1018 C 0.95878 0.2703 0.96124 0.0
C1019 C 0.93201 0.26149 0.9547 0.0
H1020 H 0.99547 0.30062 0.98153 0.0
H1021 H 0.96811 0.26037 0.9492 0.0
S1022 S 0.89406 0.29186 0.98734 0.0
N1023 N 0.92441 0.31166 0.00105 0.0
N1024 N 0.89499 0.26788 0.96626 0.0
C1025 C 0.92077 0.27513 0.97027 0.0
C1026 C 0.93683 0.29901 0.98885 0.0
C1027 C 0.76865 0.68241 0.98449 0.0
C1028 C 0.74992 0.6558 0.98957 0.0
C1029 C 0.79262 0.69 0.96748 0.0
C1030 C 0.79888 0.67133 0.9549 0.0
H1031 H 0.76408 0.6975 -0.00849 0.0
H1032 H 0.80535 0.71054 0.96135 0.0
S1033 S 0.75888 0.59949 0.96645 0.0
N1034 N 0.74111 0.61089 0.98479 0.0
N1035 N 0.78602 0.62541 0.9523 0.0
C1036 C 0.78163 0.6449 0.96282 0.0
C1037 C 0.75716 0.63707 0.98026 0.0
C1038 C 0.93991 0.64343 0.9837 0.0
C1039 C 0.9667 0.66199 0.98926 0.0
C1040 C 0.92294 0.65029 0.96673 0.0
C1041 C 0.93208 0.67597 0.95486 0.0
H1042 H 0.93238 0.623 0.99008 0.0
H1043 H 0.90332 0.63489 0.95981 0.0
S1044 S 0.99875 0.73295 0.96864 0.0
N1045 N 1.00026 0.7081 0.98613 0.0
N1046 N 0.96835 0.72071 0.95397 0.0
C1047 C 0.9579 0.69522 0.96355 0.0
C1048 C 0.97523 0.6883 0.9808 0.0
C1049 C 0.42344 0.30187 0.97905 0.0
C1050 C 0.40493 0.30932 0.98897 0.0
C1051 C 0.41567 0.27828 0.96116 0.0
C1052 C 0.38913 0.26126 0.95286 0.0
H1053 H 0.44431 0.31519 0.98266 0.0
H1054 H 0.43073 0.27455 0.95095 0.0
S1055 S 0.33246 0.26884 0.97887 0.0
N1056 N 0.35842 0.29558 -0.00621 0.0
N1057 N 0.34402 0.25142 0.96008 0.0
C1058 C 0.37024 0.26709 0.96588 0.0
C1059 C 0.37808 0.29109 0.98395 0.0
C1060 C 0.769 0.09273 0.9807 0.0
C1061 C 0.75123 0.1016 0.98796 0.0
C1062 C 0.79268 0.10862 0.96285 0.0
C1063 C 0.79961 0.13403 0.9517 0.0
H1064 H 0.76383 0.07275 0.98659 0.0
H1065 H 0.80462 0.10018 0.95511 0.0
S1066 S 0.76249 0.16834 0.96936 0.0
N1067 N 0.74423 0.13902 0.98686 0.0
N1068 N 0.78862 0.16854 0.95288 0.0
C1069 C 0.78344 0.1441 0.9618 0.0
C1070 C 0.75925 0.12795 0.98001 0.0
C1071 C 0.69567 0.95253 0.03214 0.0
C1072 C 0.66889 0.94439 0.02704 0.0
C1073 C 0.70341 0.93636 0.04912 0.0
C1074 C 0.68471 0.91138 0.06159 0.0
H1075 H 0.71076 0.97221 0.02518 0.0
H1076 H 0.72405 0.94433 0.05533 0.0
S1077 S 0.61253 0.8789 0.04978 0.0
N1078 N 0.62385 0.90802 0.03158 0.0
N1079 N 0.63865 0.87799 0.064 0.0
C1080 C 0.65815 0.90196 0.05361 0.0
C1081 C 0.65017 0.91839 0.03625 0.0
C1082 C 0.10617 0.75683 0.03502 0.0
C1083 C 0.11658 0.74159 0.02184 0.0
C1084 C 0.12189 0.77973 0.05429 0.0
C1085 C 0.14861 0.78833 0.06079 0.0
H1086 H 0.08529 0.74994 0.03311 0.0
H1087 H 0.11252 0.78938 0.06701 0.0
S1088 S 0.18671 0.75879 0.02594 0.0
N1089 N 0.15643 0.73935 0.01172 0.0
N1090 N 0.18569 0.78225 0.04828 0.0
C1091 C 0.15994 0.7751 0.04432 0.0
C1092 C 0.14397 0.75171 0.02477 0.0
C1093 C 0.32059 0.40299 0.03013 0.0
C1094 C 0.32853 0.38424 0.02492 0.0
C1095 C 0.29669 0.39638 0.04684 0.0
C1096 C 0.27979 0.37078 0.05882 0.0
H1097 H 0.33376 0.42337 0.02366 0.0
H1098 H 0.29271 0.41193 0.05351 0.0
S1099 S 0.28862 0.31338 0.04581 0.0
N1100 N 0.31531 0.33804 0.02841 0.0
N1101 N 0.27068 0.3259 0.06008 0.0
C1102 C 0.28609 0.35135 0.05043 0.0
C1103 C 0.31039 0.358 0.03344 0.0
C1104 C 0.80519 0.73803 0.36428 0.0
C1105 C 0.77843 0.71931 0.35895 0.0
C1106 C 0.82228 0.73147 0.38151 0.0
C1107 C 0.81329 0.70593 0.39385 0.0
H1108 H 0.8126 0.75838 0.35752 0.0
H1109 H 0.84188 0.74701 0.38826 0.0
S1110 S 0.74676 0.64858 0.38081 0.0
N1111 N 0.74506 0.67316 0.36278 0.0
N1112 N 0.7772 0.66112 0.39546 0.0
C1113 C 0.7875 0.6865 0.3854 0.0
C1114 C 0.77005 0.6931 0.36789 0.0
C1115 C 0.36432 0.08937 0.36698 0.0
C1116 C 0.33748 0.07105 0.36208 0.0
C1117 C 0.37234 0.11336 0.38375 0.0
C1118 C 0.35384 0.12 0.39624 0.0
H1119 H 0.37925 0.08448 0.36005 0.0
H1120 H 0.39302 0.12578 0.38985 0.0
S1121 S 0.28161 0.08126 0.38463 0.0
N1122 N 0.29261 0.0631 0.36659 0.0
N1123 N 0.30791 0.10805 0.39868 0.0
C1124 C 0.32722 0.10319 0.38834 0.0
C1125 C 0.31897 0.07871 0.37116 0.0
C1126 C 0.97941 0.28834 0.36506 0.0
C1127 C 0.99768 0.27982 0.35967 0.0
C1128 C 0.95544 0.27244 0.38227 0.0
C1129 C 0.9487 0.24735 0.39462 0.0
H1130 H 0.98434 0.30809 0.35812 0.0
H1131 H 0.94305 0.28067 0.38858 0.0
S1132 S 0.98733 0.21397 0.38226 0.0
N1133 N 1.00553 0.24303 0.36401 0.0
N1134 N 0.96057 0.21349 0.39676 0.0
C1135 C 0.96548 0.23759 0.38646 0.0
C1136 C 0.98997 0.25375 0.36891 0.0
C1137 C 0.04501 0.42737 0.31365 0.0
C1138 C 0.07187 0.43613 0.31928 0.0
C1139 C 1.03688 0.44325 0.29671 0.0
C1140 C 0.05524 0.46854 0.28482 0.0
H1141 H 1.03021 0.40747 0.32015 0.0
H1142 H 1.01624 0.43487 0.29016 0.0
S1143 S 0.12735 0.50256 0.29829 0.0
N1144 N 0.11652 0.47335 0.31594 0.0
N1145 N 0.101 0.50283 0.2836 0.0
C1146 C 0.08181 0.47853 0.29335 0.0
C1147 C 0.09019 0.46239 0.31067 0.0
C1148 C 0.60272 0.634 0.31902 0.0
C1149 C 0.62978 0.64309 0.32397 0.0
C1150 C 0.58656 0.61068 0.30074 0.0
C1151 C 0.59684 0.59559 0.28695 0.0
H1152 H 0.59433 0.64593 0.32686 0.0
H1153 H 0.56663 0.60586 0.29438 0.0
S1154 S 0.66466 0.60761 0.29863 0.0
N1155 N 0.66487 0.63265 0.31835 0.0
N1156 N 0.63442 0.58906 0.28371 0.0
C1157 C 0.62296 0.60284 0.29506 0.0
C1158 C 0.63946 0.62655 0.31366 0.0
C1159 C 0.43474 1.0227 0.31236 0.0
C1160 C 0.41808 0.99666 0.32327 0.0
C1161 C 0.45857 0.03008 0.295 0.0
C1162 C 0.46677 1.01178 0.28812 0.0
H1163 H 0.42846 0.03706 0.31473 0.0
H1164 H 0.46944 0.0496 0.28397 0.0
S1165 S 0.43312 0.94259 0.31709 0.0
N1166 N 0.4137 0.9536 0.33066 0.0
N1167 N 0.45832 0.96762 0.29771 0.0
C1168 C 0.45183 0.98655 0.30225 0.0
C1169 C 0.42749 0.97893 0.31984 0.0
C1170 C 0.63687 1.01738 0.31471 0.0
C1171 C 0.62852 0.99074 0.3203 0.0
C1172 C 0.62058 0.02511 0.29786 0.0
C1173 C 0.59527 1.00656 0.28601 0.0
H1174 H 0.65677 0.03234 0.32124 0.0
H1175 H 0.62869 0.04562 0.29133 0.0
S1176 S 0.56227 0.93481 0.29901 0.0
N1177 N 0.59168 0.94602 0.3167 0.0
N1178 N 0.56145 0.9608 0.28454 0.0
C1179 C 0.5857 0.98016 0.29439 0.0
C1180 C 0.60225 0.97219 0.31163 0.0
C1181 C 0.04003 0.62731 0.3131 0.0
C1182 C 0.06564 0.64333 0.32628 0.0
C1183 C 1.03344 0.60439 0.29422 0.0
C1184 C 0.0521 0.59649 0.2881 0.0
H1185 H 1.02555 0.63354 0.3148 0.0
H1186 H 1.01438 0.59412 0.28153 0.0
S1187 S 0.12013 0.62846 0.32263 0.0
N1188 N 0.10847 0.64723 0.33645 0.0
N1189 N 0.09592 0.60429 0.30065 0.0
C1190 C 0.07674 0.61062 0.30439 0.0
C1191 C 0.08356 0.63404 0.32354 0.0
C1192 C 0.42665 0.46058 0.31476 0.0
C1193 C 0.41948 0.43477 0.32466 0.0
C1194 C 0.44999 0.47648 0.29606 0.0
C1195 C 0.46706 0.46721 0.28694 0.0
H1196 H 0.41323 0.46791 0.31903 0.0
H1197 H 0.45348 0.49514 0.28602 0.0
S1198 S 0.46023 0.40343 0.31231 0.0
N1199 N 0.43358 0.40242 0.32832 0.0
N1200 N 0.47728 0.43233 0.29324 0.0
C1201 C 0.46153 0.44264 0.29981 0.0
C1202 C 0.43778 0.4264 0.31865 0.0
C1203 C 0.37168 0.29527 0.36996 0.0
C1204 C 0.34598 0.28536 0.35686 0.0
C1205 C 0.37875 0.2792 0.38866 0.0
C1206 C 0.36048 0.2526 0.39477 0.0
H1207 H 0.38586 0.316 0.36827 0.0
H1208 H 0.39788 0.28819 0.40121 0.0
S1209 S 0.2925 0.21579 0.36018 0.0
N1210 N 0.30357 0.24613 0.34656 0.0
N1211 N 0.317 0.21622 0.38208 0.0
C1212 C 0.3358 0.2418 0.37848 0.0
C1213 C 0.32849 0.25813 0.35947 0.0
C1214 C 0.80904 0.08073 0.35965 0.0
C1215 C 0.78215 0.07246 0.35472 0.0
C1216 C 0.82581 0.10398 0.3777 0.0
C1217 C 0.81634 0.11984 0.39124 0.0
H1218 H 0.81679 0.06822 0.352 0.0
H1219 H 0.84553 0.10816 0.38411 0.0
S1220 S 0.74934 0.11004 0.37956 0.0
N1221 N 0.74814 0.08443 0.36015 0.0
N1222 N 0.77974 0.12791 0.39428 0.0
C1223 C 0.79043 0.11338 0.38312 0.0
C1224 C 0.7733 0.08973 0.3648 0.0
C1225 C 0.98655 0.74296 0.36747 0.0
C1226 C 0.99334 0.72411 0.35707 0.0
C1227 C 0.9629 0.73567 0.38534 0.0
C1228 C 0.94512 0.7093 0.39309 0.0
H1229 H 1.00045 0.76365 0.36431 0.0
H1230 H 0.95969 0.7509 0.39595 0.0
S1231 S 0.9509 0.65207 0.36591 0.0
N1232 N 0.97823 0.6776 0.35139 0.0
N1233 N 0.93398 0.66413 0.385 0.0
C1234 C 0.95034 0.69017 0.37965 0.0
C1235 C 0.9744 0.69752 0.36164 0.0
C1236 C 0.47412 0.06602 0.69017 0.0
C1237 C 0.44709 0.04814 0.68498 0.0
C1238 C 0.49029 0.05875 0.70839 0.0
C1239 C 0.48005 0.03335 0.72195 0.0
H1240 H 0.48245 0.08636 0.68263 0.0
H1241 H 0.51016 0.07379 0.71498 0.0
S1242 S 0.4124 0.97773 0.70923 0.0
N1243 N 0.41215 1.00267 0.6899 0.0
N1244 N 0.4426 0.98927 0.72432 0.0
C1245 C 0.45401 1.01456 0.71339 0.0
C1246 C 0.4375 1.02189 0.69487 0.0
C1247 C 0.99314 0.41472 0.69503 0.0
C1248 C 1.01136 0.40608 0.68946 0.0
C1249 C 1.00019 0.43789 0.71355 0.0
C1250 C 1.02572 0.45331 0.72694 0.0
H1251 H 0.97272 0.40254 0.68748 0.0
H1252 H 0.98494 0.44238 0.72034 0.0
S1253 S 0.08211 0.44251 0.71372 0.0
N1254 N 0.05722 0.41728 0.69419 0.0
N1255 N 0.07018 0.46061 0.72923 0.0
C1256 C 0.04479 0.4465 0.71828 0.0
C1257 C 1.03768 0.42293 0.69946 0.0
C1258 C 0.64573 0.62088 0.69954 0.0
C1259 C 0.66473 0.61324 0.69466 0.0
C1260 C 0.62164 0.60428 0.71612 0.0
C1261 C 0.61551 0.57933 0.72841 0.0
H1262 H 0.65013 0.64049 0.69269 0.0
H1263 H 0.60869 0.6119 0.72216 0.0
S1264 S 0.6563 0.54813 0.71727 0.0
N1265 N 0.674 0.5774 0.69937 0.0
N1266 N 0.62886 0.54658 0.73103 0.0
C1267 C 0.63309 0.57044 0.72072 0.0
C1268 C 0.65768 0.58731 0.70375 0.0
C1269 C 0.75532 0.79537 0.64937 0.0
C1270 C 0.73636 0.7696 0.65916 0.0
C1271 C 0.74823 0.81139 0.63049 0.0
C1272 C 0.72193 0.80229 0.62107 0.0
H1273 H 0.77605 0.80257 0.65387 0.0
H1274 H 0.76365 0.83 0.62053 0.0
S1275 S 0.66422 0.73867 0.64587 0.0
N1276 N 0.68963 0.73746 0.66232 0.0
N1277 N 0.67652 0.76761 0.62684 0.0
C1278 C 0.70256 0.77777 0.63381 0.0
C1279 C 0.7097 0.7614 0.65287 0.0
C1280 C 0.26978 0.97503 0.64415 0.0
C1281 C 0.29555 0.98155 0.65405 0.0
C1282 C 0.25273 0.95109 0.62761 0.0
C1283 C 0.26071 0.93269 0.62076 0.0
H1284 H 0.26337 0.98928 0.64669 0.0
H1285 H 0.23422 0.94806 0.61722 0.0
S1286 S 0.32395 0.93786 0.64698 0.0
N1287 N 0.32653 0.96573 0.66015 0.0
N1288 N 0.29448 0.92095 0.62907 0.0
C1289 C 0.28524 0.93777 0.63374 0.0
C1290 C 0.30268 0.96214 0.65036 0.0
C1291 C 0.10084 0.35306 0.64701 0.0
C1292 C 0.0828 0.32648 0.65371 0.0
C1293 C 0.12469 0.36074 0.62964 0.0
C1294 C 0.13153 0.3422 0.61835 0.0
H1295 H 0.0958 0.36797 0.6531 0.0
H1296 H 0.13689 0.38114 0.62238 0.0
S1297 S 0.09351 0.27072 0.63423 0.0
N1298 N 0.0753 0.28193 0.6517 0.0
N1299 N 0.12001 0.29659 0.61858 0.0
C1300 C 0.115 0.31593 0.62779 0.0
C1301 C 0.09064 0.30801 0.64556 0.0
C1302 C 0.26992 0.31522 0.65668 0.0
C1303 C 0.29701 0.33287 0.66171 0.0
C1304 C 0.25396 0.32261 0.63813 0.0
C1305 C 0.2645 0.34791 0.6241 0.0
H1306 H 0.26135 0.29494 0.66464 0.0
H1307 H 0.23401 0.3077 0.63171 0.0
S1308 S 0.3325 0.40303 0.63607 0.0
N1309 N 0.33239 0.3781 0.65601 0.0
N1310 N 0.30234 0.39169 0.62094 0.0
C1311 C 0.29065 0.36651 0.63239 0.0
C1312 C 0.30694 0.35907 0.65124 0.0
C1313 C 0.74976 0.967 0.65222 0.0
C1314 C 0.73194 0.97624 0.65706 0.0
C1315 C 0.74237 0.94359 0.63411 0.0
C1316 C 0.71691 0.92855 0.6203 0.0
H1317 H 0.77015 0.97889 0.66003 0.0
H1318 H 0.75738 0.93865 0.62786 0.0
S1319 S 0.66135 0.94089 0.63192 0.0
N1320 N 0.68641 0.96596 0.65144 0.0
N1321 N 0.67281 0.92219 0.61715 0.0
C1322 C 0.69816 0.93594 0.62838 0.0
C1323 C 0.7056 0.95974 0.64682 0.0
C1324 C 0.09163 0.79109 0.65085 0.0
C1325 C 0.08419 0.76471 0.65739 0.0
C1326 C 0.11555 0.80827 0.63415 0.0
C1327 C 0.133 0.79978 0.6236 0.0
H1328 H 0.07804 0.79806 0.65614 0.0
H1329 H 0.11913 0.82745 0.6263 0.0
S1330 S 0.12555 0.73454 0.64056 0.0
N1331 N 0.09841 0.73236 0.65674 0.0
N1332 N 0.14311 0.76466 0.62523 0.0
C1333 C 0.12718 0.77446 0.63345 0.0
C1334 C 0.10283 0.75691 0.65032 0.0
C1335 C 1.03444 0.62203 0.69759 0.0
C1336 C 1.00773 0.61241 0.68957 0.0
C1337 C 0.0425 0.60677 0.71625 0.0
C1338 C 1.02422 0.58129 0.72757 0.0
H1339 H 0.04903 0.64211 0.69161 0.0
H1340 H 0.06288 0.61574 0.72445 0.0
S1341 S 0.95284 0.54517 0.7082 0.0
N1342 N 0.96358 0.57423 0.69011 0.0
N1343 N 0.97893 0.5459 0.72572 0.0
C1344 C 0.99798 0.57047 0.71671 0.0
C1345 C 0.98968 0.58596 0.6976 0.0
C1346 C 0.43789 0.42066 0.70231 0.0
C1347 C 0.44676 0.40345 0.69199 0.0
C1348 C 0.45478 0.44447 0.7191 0.0
C1349 C 0.48121 0.45206 0.72612 0.0
H1350 H 0.41729 0.41487 0.69991 0.0
H1351 H 0.44646 0.45578 0.72977 0.0
S1352 S 0.51562 0.41684 0.6984 0.0
N1353 N 0.48499 0.39792 0.68505 0.0
N1354 N 0.5164 0.44247 0.71709 0.0
C1355 C 0.49106 0.43658 0.71245 0.0
C1356 C 0.4739 0.41228 0.69534 0.0
C1357 C 0.64517 0.03337 0.69693 0.0
C1358 C 0.66364 0.05983 0.69023 0.0
C1359 C 0.62147 0.0262 0.71441 0.0
C1360 C 0.61525 0.04516 0.72574 0.0
H1361 H 0.64981 1.01817 0.69094 0.0
H1362 H 0.60902 1.00589 0.72194 0.0
S1363 S 0.65438 0.11651 0.70951 0.0
N1364 N 0.67207 0.10472 0.69199 0.0
N1365 N 0.62765 0.09098 0.72535 0.0
C1366 C 0.63213 0.0713 0.71614 0.0
C1367 C 0.65632 0.07871 0.69827 0.0
loop_
_geom_bond_atom_site_label_1
_geom_bond_atom_site_label_2
_geom_bond_distance
_geom_bond_site_symmetry_2
_ccdc_geom_bond_type
O0 Cd1 2.223 . S
O0 C8 1.315 . S
Cd1 O0 2.223 . S
Cd1 O4 2.297 . S
Cd1 O5 2.439 . S
Cd1 O11 2.240 1_554 S
Cd2 O3 2.240 . S
Cd2 O10 2.223 1_554 S
Cd2 O12 2.297 1_554 S
Cd2 O13 2.439 1_554 S
O3 Cd2 2.240 . S
O3 C8 1.279 1_655 S
O4 Cd1 2.297 . S
O4 C6 1.247 . S
O5 Cd1 2.439 . S
O5 C6 1.208 . S
C6 O4 1.247 . S
C6 O5 1.208 . S
C7 O12 1.247 . S
C7 O13 1.208 . S
C8 O0 1.315 . S
C8 O3 1.279 1_455 S
C9 O10 1.315 . S
C9 O11 1.279 1_655 S
O10 Cd2 2.223 1_556 S
O10 C9 1.315 . S
O11 Cd1 2.240 1_556 S
O11 C9 1.279 1_455 S
O12 Cd2 2.297 1_556 S
O12 C7 1.247 . S
O13 Cd2 2.439 1_556 S
O13 C7 1.208 . S
O14 Cd15 2.223 . S
O14 C22 1.315 . S
Cd15 O14 2.223 . S
Cd15 O18 2.297 . S
Cd15 O19 2.439 . S
Cd15 O25 2.240 1_554 S
Cd16 O17 2.240 . S
Cd16 O24 2.223 1_554 S
Cd16 O26 2.297 1_554 S
Cd16 O27 2.439 1_554 S
O17 Cd16 2.240 . S
O17 C22 1.279 . S
O18 Cd15 2.297 . S
O18 C20 1.247 . S
O19 Cd15 2.439 . S
O19 C20 1.208 . S
C20 O18 1.247 . S
C20 O19 1.208 . S
C21 O26 1.247 . S
C21 O27 1.208 . S
C22 O14 1.315 . S
C22 O17 1.279 . S
C23 O24 1.315 . S
C23 O25 1.279 . S
O24 Cd16 2.223 1_556 S
O24 C23 1.315 . S
O25 Cd15 2.240 1_556 S
O25 C23 1.279 . S
O26 Cd16 2.297 1_556 S
O26 C21 1.247 . S
O27 Cd16 2.439 1_556 S
O27 C21 1.208 . S
O28 Cd29 2.223 1_556 S
O28 C36 1.315 . S
Cd29 O28 2.223 1_554 S
Cd29 O32 2.297 1_554 S
Cd29 O33 2.439 1_554 S
Cd29 O39 2.240 . S
Cd30 O31 2.240 1_554 S
Cd30 O38 2.223 . S
Cd30 O40 2.297 . S
Cd30 O41 2.439 . S
O31 Cd30 2.240 1_556 S
O31 C36 1.279 1_565 S
O32 Cd29 2.297 1_556 S
O32 C34 1.247 . S
O33 Cd29 2.439 1_556 S
O33 C34 1.208 . S
C34 O32 1.247 . S
C34 O33 1.208 . S
C35 O40 1.247 . S
C35 O41 1.208 . S
C36 O28 1.315 . S
C36 O31 1.279 1_545 S
C37 O38 1.315 . S
C37 O39 1.279 1_565 S
O38 Cd30 2.223 . S
O38 C37 1.315 . S
O39 Cd29 2.240 . S
O39 C37 1.279 1_545 S
O40 Cd30 2.297 . S
O40 C35 1.247 . S
O41 Cd30 2.439 . S
O41 C35 1.208 . S
O42 Cd43 2.223 1_556 S
O42 C50 1.315 . S
Cd43 O42 2.223 1_554 S
Cd43 O46 2.297 1_554 S
Cd43 O47 2.439 1_554 S
Cd43 O53 2.240 . S
Cd44 O45 2.240 1_554 S
Cd44 O52 2.223 . S
Cd44 O54 2.297 . S
Cd44 O55 2.439 . S
O45 Cd44 2.240 1_556 S
O45 C50 1.279 1_455 S
O46 Cd43 2.297 1_556 S
O46 C48 1.247 . S
O47 Cd43 2.439 1_556 S
O47 C48 1.208 . S
C48 O46 1.247 . S
C48 O47 1.208 . S
C49 O54 1.247 . S
C49 O55 1.208 . S
C50 O42 1.315 . S
C50 O45 1.279 1_655 S
C51 O52 1.315 . S
C51 O53 1.279 1_455 S
O52 Cd44 2.223 . S
O52 C51 1.315 . S
O53 Cd43 2.240 . S
O53 C51 1.279 1_655 S
O54 Cd44 2.297 . S
O54 C49 1.247 . S
O55 Cd44 2.439 . S
O55 C49 1.208 . S
O56 Cd57 2.223 1_556 S
O56 C64 1.315 . S
Cd57 O56 2.223 1_554 S
Cd57 O60 2.297 1_554 S
Cd57 O61 2.439 1_554 S
Cd57 O67 2.240 . S
Cd58 O59 2.240 1_554 S
Cd58 O66 2.223 . S
Cd58 O68 2.297 . S
Cd58 O69 2.439 . S
O59 Cd58 2.240 1_556 S
O59 C64 1.279 . S
O60 Cd57 2.297 1_556 S
O60 C62 1.247 . S
O61 Cd57 2.439 1_556 S
O61 C62 1.208 . S
C62 O60 1.247 . S
C62 O61 1.208 . S
C63 O68 1.247 . S
C63 O69 1.208 . S
C64 O56 1.315 . S
C64 O59 1.279 . S
C65 O66 1.315 . S
C65 O67 1.279 . S
O66 Cd58 2.223 . S
O66 C65 1.315 . S
O67 Cd57 2.240 . S
O67 C65 1.279 . S
O68 Cd58 2.297 . S
O68 C63 1.247 . S
O69 Cd58 2.439 . S
O69 C63 1.208 . S
O70 Cd71 2.223 . S
O70 C78 1.315 . S
Cd71 O70 2.223 . S
Cd71 O74 2.297 . S
Cd71 O75 2.439 . S
Cd71 O81 2.240 1_554 S
Cd72 O73 2.240 . S
Cd72 O80 2.223 1_554 S
Cd72 O82 2.297 1_554 S
Cd72 O83 2.439 1_554 S
O73 Cd72 2.240 . S
O73 C78 1.279 1_545 S
O74 Cd71 2.297 . S
O74 C76 1.247 . S
O75 Cd71 2.439 . S
O75 C76 1.208 . S
C76 O74 1.247 . S
C76 O75 1.208 . S
C77 O82 1.247 . S
C77 O83 1.208 . S
C78 O70 1.315 . S
C78 O73 1.279 1_565 S
C79 O80 1.315 . S
C79 O81 1.279 1_545 S
O80 Cd72 2.223 1_556 S
O80 C79 1.315 . S
O81 Cd71 2.240 1_556 S
O81 C79 1.279 1_565 S
O82 Cd72 2.297 1_556 S
O82 C77 1.247 . S
O83 Cd72 2.439 1_556 S
O83 C77 1.208 . S
O84 Cd85 2.223 . S
O84 C92 1.315 . S
Cd85 O84 2.223 . S
Cd85 O88 2.297 . S
Cd85 O89 2.439 . S
Cd85 O95 2.240 . S
Cd86 O87 2.240 . S
Cd86 O94 2.223 . S
Cd86 O96 2.297 . S
Cd86 O97 2.439 . S
O87 Cd86 2.240 . S
O87 C92 1.279 . S
O88 Cd85 2.297 . S
O88 C90 1.247 . S
O89 Cd85 2.439 . S
O89 C90 1.208 . S
C90 O88 1.247 . S
C90 O89 1.208 . S
C91 O96 1.247 . S
C91 O97 1.208 . S
C92 O84 1.315 . S
C92 O87 1.279 . S
C93 O94 1.315 . S
C93 O95 1.279 . S
O94 Cd86 2.223 . S
O94 C93 1.315 . S
O95 Cd85 2.240 . S
O95 C93 1.279 . S
O96 Cd86 2.297 . S
O96 C91 1.247 . S
O97 Cd86 2.439 . S
O97 C91 1.208 . S
O98 Cd99 2.223 . S
O98 C106 1.315 . S
Cd99 O98 2.223 . S
Cd99 O102 2.297 1_565 S
Cd99 O103 2.439 1_565 S
Cd99 O109 2.240 . S
Cd100 O101 2.240 . S
Cd100 O108 2.223 . S
Cd100 O110 2.297 . S
Cd100 O111 2.439 . S
O101 Cd100 2.240 . S
O101 C106 1.279 . S
O102 Cd99 2.297 1_545 S
O102 C104 1.247 . S
O103 Cd99 2.439 1_545 S
O103 C104 1.208 . S
C104 O102 1.247 . S
C104 O103 1.208 . S
C105 O110 1.247 . S
C105 O111 1.208 . S
C106 O98 1.315 . S
C106 O101 1.279 . S
C107 O108 1.315 . S
C107 O109 1.279 . S
O108 Cd100 2.223 . S
O108 C107 1.315 . S
O109 Cd99 2.240 . S
O109 C107 1.279 . S
O110 Cd100 2.297 . S
O110 C105 1.247 . S
O111 Cd100 2.439 . S
O111 C105 1.208 . S
O112 Cd113 2.223 . S
O112 C120 1.315 . S
Cd113 O112 2.223 . S
Cd113 O116 2.297 . S
Cd113 O117 2.439 . S
Cd113 O123 2.240 . S
Cd114 O115 2.240 . S
Cd114 O122 2.223 . S
Cd114 O124 2.297 1_455 S
Cd114 O125 2.439 1_455 S
O115 Cd114 2.240 . S
O115 C120 1.279 . S
O116 Cd113 2.297 . S
O116 C118 1.247 . S
O117 Cd113 2.439 . S
O117 C118 1.208 . S
C118 O116 1.247 . S
C118 O117 1.208 . S
C119 O124 1.247 . S
C119 O125 1.208 . S
C120 O112 1.315 . S
C120 O115 1.279 . S
C121 O122 1.315 . S
C121 O123 1.279 . S
O122 Cd114 2.223 . S
O122 C121 1.315 . S
O123 Cd113 2.240 . S
O123 C121 1.279 . S
O124 Cd114 2.297 1_655 S
O124 C119 1.247 . S
O125 Cd114 2.439 1_655 S
O125 C119 1.208 . S
O126 Cd127 2.223 . S
O126 C134 1.315 . S
Cd127 O126 2.223 . S
Cd127 O130 2.297 . S
Cd127 O131 2.439 . S
Cd127 O137 2.240 . S
Cd128 O129 2.240 . S
Cd128 O136 2.223 . S
Cd128 O138 2.297 1_565 S
Cd128 O139 2.439 1_565 S
O129 Cd128 2.240 . S
O129 C134 1.279 . S
O130 Cd127 2.297 . S
O130 C132 1.247 . S
O131 Cd127 2.439 . S
O131 C132 1.208 . S
C132 O130 1.247 . S
C132 O131 1.208 . S
C133 O138 1.247 . S
C133 O139 1.208 . S
C134 O126 1.315 . S
C134 O129 1.279 . S
C135 O136 1.315 . S
C135 O137 1.279 . S
O136 Cd128 2.223 . S
O136 C135 1.315 . S
O137 Cd127 2.240 . S
O137 C135 1.279 . S
O138 Cd128 2.297 1_545 S
O138 C133 1.247 . S
O139 Cd128 2.439 1_545 S
O139 C133 1.208 . S
O140 Cd141 2.223 . S
O140 C148 1.315 . S
Cd141 O140 2.223 . S
Cd141 O144 2.297 . S
Cd141 O145 2.439 . S
Cd141 O151 2.240 . S
Cd142 O143 2.240 . S
Cd142 O150 2.223 . S
Cd142 O152 2.297 1_455 S
Cd142 O153 2.439 1_455 S
O143 Cd142 2.240 . S
O143 C148 1.279 . S
O144 Cd141 2.297 . S
O144 C146 1.247 . S
O145 Cd141 2.439 . S
O145 C146 1.208 . S
C146 O144 1.247 . S
C146 O145 1.208 . S
C147 O152 1.247 . S
C147 O153 1.208 . S
C148 O140 1.315 . S
C148 O143 1.279 . S
C149 O150 1.315 . S
C149 O151 1.279 . S
O150 Cd142 2.223 . S
O150 C149 1.315 . S
O151 Cd141 2.240 . S
O151 C149 1.279 . S
O152 Cd142 2.297 1_655 S
O152 C147 1.247 . S
O153 Cd142 2.439 1_655 S
O153 C147 1.208 . S
O154 Cd155 2.223 . S
O154 C162 1.315 . S
Cd155 O154 2.223 . S
Cd155 O158 2.297 . S
Cd155 O159 2.439 . S
Cd155 O165 2.240 . S
Cd156 O157 2.240 . S
Cd156 O164 2.223 . S
Cd156 O166 2.297 . S
Cd156 O167 2.439 . S
O157 Cd156 2.240 . S
O157 C162 1.279 . S
O158 Cd155 2.297 . S
O158 C160 1.247 . S
O159 Cd155 2.439 . S
O159 C160 1.208 . S
C160 O158 1.247 . S
C160 O159 1.208 . S
C161 O166 1.247 . S
C161 O167 1.208 . S
C162 O154 1.315 . S
C162 O157 1.279 . S
C163 O164 1.315 . S
C163 O165 1.279 . S
O164 Cd156 2.223 . S
O164 C163 1.315 . S
O165 Cd155 2.240 . S
O165 C163 1.279 . S
O166 Cd156 2.297 . S
O166 C161 1.247 . S
O167 Cd156 2.439 . S
O167 C161 1.208 . S
O168 Cd169 2.223 . S
O168 C176 1.315 . S
Cd169 O168 2.223 . S
Cd169 O172 2.297 . S
Cd169 O173 2.439 . S
Cd169 O179 2.240 . S
Cd170 O171 2.240 . S
Cd170 O178 2.223 . S
Cd170 O180 2.297 1_545 S
Cd170 O181 2.439 1_545 S
O171 Cd170 2.240 . S
O171 C176 1.279 . S
O172 Cd169 2.297 . S
O172 C174 1.247 . S
O173 Cd169 2.439 . S
O173 C174 1.208 . S
C174 O172 1.247 . S
C174 O173 1.208 . S
C175 O180 1.247 . S
C175 O181 1.208 . S
C176 O168 1.315 . S
C176 O171 1.279 . S
C177 O178 1.315 . S
C177 O179 1.279 . S
O178 Cd170 2.223 . S
O178 C177 1.315 . S
O179 Cd169 2.240 . S
O179 C177 1.279 . S
O180 Cd170 2.297 1_565 S
O180 C175 1.247 . S
O181 Cd170 2.439 1_565 S
O181 C175 1.208 . S
O182 Cd183 2.223 . S
O182 C190 1.315 . S
Cd183 O182 2.223 . S
Cd183 O186 2.297 . S
Cd183 O187 2.439 . S
Cd183 O193 2.240 . S
Cd184 O185 2.240 . S
Cd184 O192 2.223 . S
Cd184 O194 2.297 1_655 S
Cd184 O195 2.439 1_655 S
O185 Cd184 2.240 . S
O185 C190 1.279 . S
O186 Cd183 2.297 . S
O186 C188 1.247 . S
O187 Cd183 2.439 . S
O187 C188 1.208 . S
C188 O186 1.247 . S
C188 O187 1.208 . S
C189 O194 1.247 . S
C189 O195 1.208 . S
C190 O182 1.315 . S
C190 O185 1.279 . S
C191 O192 1.315 . S
C191 O193 1.279 . S
O192 Cd184 2.223 . S
O192 C191 1.315 . S
O193 Cd183 2.240 . S
O193 C191 1.279 . S
O194 Cd184 2.297 1_455 S
O194 C189 1.247 . S
O195 Cd184 2.439 1_455 S
O195 C189 1.208 . S
O196 Cd197 2.223 . S
O196 C204 1.315 . S
Cd197 O196 2.223 . S
Cd197 O200 2.297 . S
Cd197 O201 2.439 . S
Cd197 O207 2.240 . S
Cd198 O199 2.240 . S
Cd198 O206 2.223 . S
Cd198 O208 2.297 . S
Cd198 O209 2.439 . S
O199 Cd198 2.240 . S
O199 C204 1.279 . S
O200 Cd197 2.297 . S
O200 C202 1.247 . S
O201 Cd197 2.439 . S
O201 C202 1.208 . S
C202 O200 1.247 . S
C202 O201 1.208 . S
C203 O208 1.247 . S
C203 O209 1.208 . S
C204 O196 1.315 . S
C204 O199 1.279 . S
C205 O206 1.315 . S
C205 O207 1.279 . S
O206 Cd198 2.223 . S
O206 C205 1.315 . S
O207 Cd197 2.240 . S
O207 C205 1.279 . S
O208 Cd198 2.297 . S
O208 C203 1.247 . S
O209 Cd198 2.439 . S
O209 C203 1.208 . S
O210 Cd211 2.223 . S
O210 C218 1.315 . S
Cd211 O210 2.223 . S
Cd211 O214 2.297 . S
Cd211 O215 2.439 . S
Cd211 O221 2.240 . S
Cd212 O213 2.240 . S
Cd212 O220 2.223 . S
Cd212 O222 2.297 . S
Cd212 O223 2.439 . S
O213 Cd212 2.240 . S
O213 C218 1.279 . S
O214 Cd211 2.297 . S
O214 C216 1.247 . S
O215 Cd211 2.439 . S
O215 C216 1.208 . S
C216 O214 1.247 . S
C216 O215 1.208 . S
C217 O222 1.247 . S
C217 O223 1.208 . S
C218 O210 1.315 . S
C218 O213 1.279 . S
C219 O220 1.315 . S
C219 O221 1.279 . S
O220 Cd212 2.223 . S
O220 C219 1.315 . S
O221 Cd211 2.240 . S
O221 C219 1.279 . S
O222 Cd212 2.297 . S
O222 C217 1.247 . S
O223 Cd212 2.439 . S
O223 C217 1.208 . S
O224 Cd225 2.223 . S
O224 C232 1.315 . S
Cd225 O224 2.223 . S
Cd225 O228 2.297 1_545 S
Cd225 O229 2.439 1_545 S
Cd225 O235 2.240 . S
Cd226 O227 2.240 . S
Cd226 O234 2.223 . S
Cd226 O236 2.297 . S
Cd226 O237 2.439 . S
O227 Cd226 2.240 . S
O227 C232 1.279 . S
O228 Cd225 2.297 1_565 S
O228 C230 1.247 . S
O229 Cd225 2.439 1_565 S
O229 C230 1.208 . S
C230 O228 1.247 . S
C230 O229 1.208 . S
C231 O236 1.247 . S
C231 O237 1.208 . S
C232 O224 1.315 . S
C232 O227 1.279 . S
C233 O234 1.315 . S
C233 O235 1.279 . S
O234 Cd226 2.223 . S
O234 C233 1.315 . S
O235 Cd225 2.240 . S
O235 C233 1.279 . S
O236 Cd226 2.297 . S
O236 C231 1.247 . S
O237 Cd226 2.439 . S
O237 C231 1.208 . S
O238 Cd239 2.223 . S
O238 C246 1.315 . S
Cd239 O238 2.223 . S
Cd239 O242 2.297 . S
Cd239 O243 2.439 . S
Cd239 O249 2.240 . S
Cd240 O241 2.240 . S
Cd240 O248 2.223 . S
Cd240 O250 2.297 1_655 S
Cd240 O251 2.439 1_655 S
O241 Cd240 2.240 . S
O241 C246 1.279 . S
O242 Cd239 2.297 . S
O242 C244 1.247 . S
O243 Cd239 2.439 . S
O243 C244 1.208 . S
C244 O242 1.247 . S
C244 O243 1.208 . S
C245 O250 1.247 . S
C245 O251 1.208 . S
C246 O238 1.315 . S
C246 O241 1.279 . S
C247 O248 1.315 . S
C247 O249 1.279 . S
O248 Cd240 2.223 . S
O248 C247 1.315 . S
O249 Cd239 2.240 . S
O249 C247 1.279 . S
O250 Cd240 2.297 1_455 S
O250 C245 1.247 . S
O251 Cd240 2.439 1_455 S
O251 C245 1.208 . S
H252 C258 0.930 . S
H253 C261 0.931 . S
H254 C263 0.931 . S
H255 C265 0.930 . S
H256 C267 0.930 . S
H257 C269 0.931 . S
C258 H252 0.930 . S
C258 C259 1.380 . S
C258 C260 1.394 . S
C259 C258 1.380 . S
C259 C263 1.382 . S
C260 C258 1.394 . S
C260 C261 1.400 . S
C261 H253 0.931 . S
C261 C260 1.400 . S
C261 C262 1.375 . S
C262 C261 1.375 . S
C262 C263 1.415 . S
C262 C264 1.501 . S
C263 H254 0.931 . S
C263 C259 1.382 . S
C263 C262 1.415 . S
C264 C262 1.501 . S
C264 C265 1.384 . S
C264 C269 1.408 . S
C265 H255 0.930 . S
C265 C264 1.384 . S
C265 C266 1.389 . S
C266 C265 1.389 . S
C266 C267 1.405 . S
C267 H256 0.930 . S
C267 C266 1.405 . S
C267 C268 1.364 . S
C268 C267 1.364 . S
C268 C269 1.400 . S
C269 H257 0.931 . S
C269 C264 1.408 . S
C269 C268 1.400 . S
H270 C276 0.930 . S
H271 C279 0.931 . S
H272 C281 0.931 . S
H273 C283 0.930 . S
H274 C285 0.930 . S
H275 C287 0.931 . S
C276 H270 0.930 . S
C276 C277 1.380 . S
C276 C278 1.394 . S
C277 C276 1.380 . S
C277 C281 1.382 . S
C278 C276 1.394 . S
C278 C279 1.400 . S
C279 H271 0.931 . S
C279 C278 1.400 . S
C279 C280 1.375 . S
C280 C279 1.375 . S
C280 C281 1.415 . S
C280 C282 1.501 . S
C281 H272 0.931 . S
C281 C277 1.382 . S
C281 C280 1.415 . S
C282 C280 1.501 . S
C282 C283 1.384 . S
C282 C287 1.408 . S
C283 H273 0.930 . S
C283 C282 1.384 . S
C283 C284 1.389 . S
C284 C283 1.389 . S
C284 C285 1.405 . S
C285 H274 0.930 . S
C285 C284 1.405 . S
C285 C286 1.364 . S
C286 C285 1.364 . S
C286 C287 1.400 . S
C287 H275 0.931 . S
C287 C282 1.408 . S
C287 C286 1.400 . S
H288 C294 0.930 . S
H289 C297 0.931 . S
H290 C299 0.931 . S
H291 C301 0.930 . S
H292 C303 0.930 . S
H293 C305 0.931 . S
C294 H288 0.930 . S
C294 C295 1.380 . S
C294 C296 1.394 . S
C295 C294 1.380 . S
C295 C299 1.382 . S
C296 C294 1.394 . S
C296 C297 1.400 . S
C297 H289 0.931 . S
C297 C296 1.400 . S
C297 C298 1.375 . S
C298 C297 1.375 . S
C298 C299 1.415 . S
C298 C300 1.501 . S
C299 H290 0.931 . S
C299 C295 1.382 . S
C299 C298 1.415 . S
C300 C298 1.501 . S
C300 C301 1.384 . S
C300 C305 1.408 . S
C301 H291 0.930 . S
C301 C300 1.384 . S
C301 C302 1.389 . S
C302 C301 1.389 . S
C302 C303 1.405 . S
C303 H292 0.930 . S
C303 C302 1.405 . S
C303 C304 1.364 . S
C304 C303 1.364 . S
C304 C305 1.400 . S
C305 H293 0.931 . S
C305 C300 1.408 . S
C305 C304 1.400 . S
H306 C312 0.930 . S
H307 C315 0.931 . S
H308 C317 0.931 . S
H309 C319 0.930 . S
H310 C321 0.930 . S
H311 C323 0.931 . S
C312 H306 0.930 . S
C312 C313 1.380 . S
C312 C314 1.394 . S
C313 C312 1.380 . S
C313 C317 1.382 . S
C314 C312 1.394 . S
C314 C315 1.400 . S
C315 H307 0.931 . S
C315 C314 1.400 . S
C315 C316 1.375 . S
C316 C315 1.375 . S
C316 C317 1.415 . S
C316 C318 1.501 . S
C317 H308 0.931 . S
C317 C313 1.382 . S
C317 C316 1.415 . S
C318 C316 1.501 . S
C318 C319 1.384 . S
C318 C323 1.408 . S
C319 H309 0.930 . S
C319 C318 1.384 . S
C319 C320 1.389 . S
C320 C319 1.389 . S
C320 C321 1.405 . S
C321 H310 0.930 . S
C321 C320 1.405 . S
C321 C322 1.364 . S
C322 C321 1.364 . S
C322 C323 1.400 . S
C323 H311 0.931 . S
C323 C318 1.408 . S
C323 C322 1.400 . S
H324 C330 0.930 . S
H325 C333 0.931 . S
H326 C335 0.931 . S
H327 C337 0.930 . S
H328 C339 0.930 . S
H329 C341 0.931 . S
C330 H324 0.930 . S
C330 C331 1.380 . S
C330 C332 1.394 . S
C331 C330 1.380 . S
C331 C335 1.382 . S
C332 C330 1.394 . S
C332 C333 1.400 . S
C333 H325 0.931 . S
C333 C332 1.400 . S
C333 C334 1.375 . S
C334 C333 1.375 . S
C334 C335 1.415 . S
C334 C336 1.501 . S
C335 H326 0.931 . S
C335 C331 1.382 . S
C335 C334 1.415 . S
C336 C334 1.501 . S
C336 C337 1.384 . S
C336 C341 1.408 . S
C337 H327 0.930 . S
C337 C336 1.384 . S
C337 C338 1.389 . S
C338 C337 1.389 . S
C338 C339 1.405 . S
C339 H328 0.930 . S
C339 C338 1.405 . S
C339 C340 1.364 . S
C340 C339 1.364 . S
C340 C341 1.400 . S
C341 H329 0.931 . S
C341 C336 1.408 . S
C341 C340 1.400 . S
H342 C348 0.930 . S
H343 C351 0.931 . S
H344 C353 0.931 . S
H345 C355 0.930 . S
H346 C357 0.930 . S
H347 C359 0.931 . S
C348 H342 0.930 . S
C348 C349 1.380 . S
C348 C350 1.394 . S
C349 C348 1.380 . S
C349 C353 1.382 . S
C350 C348 1.394 . S
C350 C351 1.400 . S
C351 H343 0.931 . S
C351 C350 1.400 . S
C351 C352 1.375 . S
C352 C351 1.375 . S
C352 C353 1.415 . S
C352 C354 1.501 . S
C353 H344 0.931 . S
C353 C349 1.382 . S
C353 C352 1.415 . S
C354 C352 1.501 . S
C354 C355 1.384 . S
C354 C359 1.408 . S
C355 H345 0.930 . S
C355 C354 1.384 . S
C355 C356 1.389 . S
C356 C355 1.389 . S
C356 C357 1.405 . S
C357 H346 0.930 . S
C357 C356 1.405 . S
C357 C358 1.364 . S
C358 C357 1.364 . S
C358 C359 1.400 . S
C359 H347 0.931 . S
C359 C354 1.408 . S
C359 C358 1.400 . S
H360 C366 0.930 . S
H361 C369 0.931 . S
H362 C371 0.931 . S
H363 C373 0.930 . S
H364 C375 0.930 . S
H365 C377 0.931 . S
C366 H360 0.930 . S
C366 C367 1.380 . S
C366 C368 1.394 . S
C367 C366 1.380 . S
C367 C371 1.382 . S
C368 C366 1.394 . S
C368 C369 1.400 . S
C369 H361 0.931 . S
C369 C368 1.400 . S
C369 C370 1.375 . S
C370 C369 1.375 . S
C370 C371 1.415 . S
C370 C372 1.501 . S
C371 H362 0.931 . S
C371 C367 1.382 . S
C371 C370 1.415 . S
C372 C370 1.501 . S
C372 C373 1.384 . S
C372 C377 1.408 . S
C373 H363 0.930 . S
C373 C372 1.384 . S
C373 C374 1.389 . S
C374 C373 1.389 . S
C374 C375 1.405 . S
C375 H364 0.930 . S
C375 C374 1.405 . S
C375 C376 1.364 . S
C376 C375 1.364 . S
C376 C377 1.400 . S
C377 H365 0.931 . S
C377 C372 1.408 . S
C377 C376 1.400 . S
H378 C384 0.930 . S
H379 C387 0.931 . S
H380 C389 0.931 . S
H381 C391 0.930 . S
H382 C393 0.930 . S
H383 C395 0.931 . S
C384 H378 0.930 . S
C384 C385 1.380 . S
C384 C386 1.394 . S
C385 C384 1.380 . S
C385 C389 1.382 . S
C386 C384 1.394 . S
C386 C387 1.400 . S
C387 H379 0.931 . S
C387 C386 1.400 . S
C387 C388 1.375 . S
C388 C387 1.375 . S
C388 C389 1.415 . S
C388 C390 1.501 . S
C389 H380 0.931 . S
C389 C385 1.382 . S
C389 C388 1.415 . S
C390 C388 1.501 . S
C390 C391 1.384 . S
C390 C395 1.408 . S
C391 H381 0.930 . S
C391 C390 1.384 . S
C391 C392 1.389 . S
C392 C391 1.389 . S
C392 C393 1.405 . S
C393 H382 0.930 . S
C393 C392 1.405 . S
C393 C394 1.364 . S
C394 C393 1.364 . S
C394 C395 1.400 . S
C395 H383 0.931 . S
C395 C390 1.408 . S
C395 C394 1.400 . S
H396 C402 0.930 . S
H397 C405 0.931 . S
H398 C407 0.931 . S
H399 C409 0.930 . S
H400 C411 0.930 . S
H401 C413 0.931 . S
C402 H396 0.930 . S
C402 C403 1.380 . S
C402 C404 1.394 . S
C403 C402 1.380 . S
C403 C407 1.382 . S
C404 C402 1.394 . S
C404 C405 1.400 . S
C405 H397 0.931 . S
C405 C404 1.400 . S
C405 C406 1.375 . S
C406 C405 1.375 . S
C406 C407 1.415 . S
C406 C408 1.501 . S
C407 H398 0.931 . S
C407 C403 1.382 . S
C407 C406 1.415 . S
C408 C406 1.501 . S
C408 C409 1.384 . S
C408 C413 1.408 . S
C409 H399 0.930 . S
C409 C408 1.384 . S
C409 C410 1.389 . S
C410 C409 1.389 . S
C410 C411 1.405 . S
C411 H400 0.930 . S
C411 C410 1.405 . S
C411 C412 1.364 . S
C412 C411 1.364 . S
C412 C413 1.400 . S
C413 H401 0.931 . S
C413 C408 1.408 . S
C413 C412 1.400 . S
H414 C420 0.918 . S
H415 C423 0.931 . S
H416 C425 0.931 . S
H417 C427 0.930 . S
H418 C429 0.930 . S
H419 C431 0.942 . S
C420 H414 0.918 . S
C420 C421 1.391 . S
C420 C422 1.396 1_655 S
C421 C420 1.391 . S
C421 C425 1.382 . S
C422 C420 1.396 1_455 S
C422 C423 1.400 . S
C423 H415 0.931 . S
C423 C422 1.400 . S
C423 C424 1.375 . S
C424 C423 1.375 . S
C424 C425 1.415 1_455 S
C424 C426 1.501 . S
C425 H416 0.931 . S
C425 C421 1.382 . S
C425 C424 1.415 1_655 S
C426 C424 1.501 . S
C426 C427 1.384 . S
C426 C431 1.423 . S
C427 H417 0.930 . S
C427 C426 1.384 . S
C427 C428 1.389 . S
C428 C427 1.389 . S
C428 C429 1.405 . S
C429 H418 0.930 . S
C429 C428 1.405 . S
C429 C430 1.357 . S
C430 C429 1.357 . S
C430 C431 1.394 . S
C431 H419 0.942 . S
C431 C426 1.423 . S
C431 C430 1.394 . S
H432 C438 0.930 . S
H433 C441 0.931 . S
H434 C443 0.931 . S
H435 C445 0.930 . S
H436 C447 0.930 . S
H437 C449 0.931 . S
C438 H432 0.930 . S
C438 C439 1.380 . S
C438 C440 1.394 . S
C439 C438 1.380 . S
C439 C443 1.382 . S
C440 C438 1.394 . S
C440 C441 1.400 . S
C441 H433 0.931 . S
C441 C440 1.400 . S
C441 C442 1.375 . S
C442 C441 1.375 . S
C442 C443 1.415 . S
C442 C444 1.501 . S
C443 H434 0.931 . S
C443 C439 1.382 . S
C443 C442 1.415 . S
C444 C442 1.501 . S
C444 C445 1.384 . S
C444 C449 1.408 . S
C445 H435 0.930 . S
C445 C444 1.384 . S
C445 C446 1.389 . S
C446 C445 1.389 . S
C446 C447 1.405 . S
C447 H436 0.930 . S
C447 C446 1.405 . S
C447 C448 1.364 . S
C448 C447 1.364 . S
C448 C449 1.400 . S
C449 H437 0.931 . S
C449 C444 1.408 . S
C449 C448 1.400 . S
H450 C456 0.946 . S
H451 C459 0.931 . S
H452 C461 0.931 . S
H453 C463 0.930 . S
H454 C465 0.930 . S
H455 C467 0.918 . S
C456 H450 0.946 . S
C456 C457 1.376 . S
C456 C458 1.382 1_545 S
C457 C456 1.376 . S
C457 C461 1.382 . S
C458 C456 1.382 1_565 S
C458 C459 1.400 . S
C459 H451 0.931 . S
C459 C458 1.400 . S
C459 C460 1.375 . S
C460 C459 1.375 . S
C460 C461 1.415 1_565 S
C460 C462 1.501 . S
C461 H452 0.931 . S
C461 C457 1.382 . S
C461 C460 1.415 1_545 S
C462 C460 1.501 . S
C462 C463 1.384 . S
C462 C467 1.398 . S
C463 H453 0.930 . S
C463 C462 1.384 . S
C463 C464 1.389 . S
C464 C463 1.389 . S
C464 C465 1.405 . S
C465 H454 0.930 . S
C465 C464 1.405 . S
C465 C466 1.375 . S
C466 C465 1.375 . S
C466 C467 1.407 . S
C467 H455 0.918 . S
C467 C462 1.398 . S
C467 C466 1.407 . S
H468 C474 0.912 . S
H469 C477 0.931 . S
H470 C479 0.925 . S
H471 C481 0.930 . S
H472 C483 0.930 . S
H473 C485 0.931 . S
C474 H468 0.912 . S
C474 C475 1.385 . S
C474 C476 1.414 1_545 S
C475 C474 1.385 . S
C475 C479 1.403 1_545 S
C476 C474 1.414 1_565 S
C476 C477 1.379 . S
C477 H469 0.931 . S
C477 C476 1.379 . S
C477 C478 1.375 . S
C478 C477 1.375 . S
C478 C479 1.410 . S
C478 C480 1.501 . S
C479 H470 0.925 . S
C479 C475 1.403 1_565 S
C479 C478 1.410 . S
C480 C478 1.501 . S
C480 C481 1.384 . S
C480 C485 1.408 1_565 S
C481 H471 0.930 . S
C481 C480 1.384 . S
C481 C482 1.389 . S
C482 C481 1.389 . S
C482 C483 1.405 . S
C483 H472 0.930 . S
C483 C482 1.405 . S
C483 C484 1.364 1_565 S
C484 C483 1.364 1_545 S
C484 C485 1.400 . S
C485 H473 0.931 . S
C485 C480 1.408 1_545 S
C485 C484 1.400 . S
H486 C492 0.954 . S
H487 C495 0.931 . S
H488 C497 0.936 . S
H489 C499 0.930 . S
H490 C501 0.930 . S
H491 C503 0.931 . S
C492 H486 0.954 . S
C492 C493 1.375 . S
C492 C494 1.370 1_655 S
C493 C492 1.375 . S
C493 C497 1.359 1_655 S
C494 C492 1.370 1_455 S
C494 C495 1.429 . S
C495 H487 0.931 . S
C495 C494 1.429 . S
C495 C496 1.375 . S
C496 C495 1.375 . S
C496 C497 1.422 . S
C496 C498 1.501 . S
C497 H488 0.936 . S
C497 C493 1.359 1_455 S
C497 C496 1.422 . S
C498 C496 1.501 . S
C498 C499 1.384 . S
C498 C503 1.408 1_455 S
C499 H489 0.930 . S
C499 C498 1.384 . S
C499 C500 1.389 . S
C500 C499 1.389 . S
C500 C501 1.405 . S
C501 H490 0.930 . S
C501 C500 1.405 . S
C501 C502 1.364 1_455 S
C502 C501 1.364 1_655 S
C502 C503 1.400 . S
C503 H491 0.931 . S
C503 C498 1.408 1_655 S
C503 C502 1.400 . S
H504 C510 0.930 . S
H505 C513 0.931 . S
H506 C515 0.931 . S
H507 C517 0.930 . S
H508 C519 0.930 . S
H509 C521 0.931 . S
C510 H504 0.930 . S
C510 C511 1.380 . S
C510 C512 1.394 . S
C511 C510 1.380 . S
C511 C515 1.382 . S
C512 C510 1.394 . S
C512 C513 1.400 . S
C513 H505 0.931 . S
C513 C512 1.400 . S
C513 C514 1.375 . S
C514 C513 1.375 . S
C514 C515 1.415 . S
C514 C516 1.501 . S
C515 H506 0.931 . S
C515 C511 1.382 . S
C515 C514 1.415 . S
C516 C514 1.501 . S
C516 C517 1.384 . S
C516 C521 1.408 . S
C517 H507 0.930 . S
C517 C516 1.384 . S
C517 C518 1.389 . S
C518 C517 1.389 . S
C518 C519 1.405 . S
C519 H508 0.930 . S
C519 C518 1.405 . S
C519 C520 1.364 . S
C520 C519 1.364 . S
C520 C521 1.400 . S
C521 H509 0.931 . S
C521 C516 1.408 . S
C521 C520 1.400 . S
H522 C528 0.930 . S
H523 C531 0.931 . S
H524 C533 0.931 . S
H525 C535 0.930 . S
H526 C537 0.930 . S
H527 C539 0.931 . S
C528 H522 0.930 . S
C528 C529 1.380 . S
C528 C530 1.394 . S
C529 C528 1.380 . S
C529 C533 1.382 . S
C530 C528 1.394 . S
C530 C531 1.400 . S
C531 H523 0.931 . S
C531 C530 1.400 . S
C531 C532 1.375 . S
C532 C531 1.375 . S
C532 C533 1.415 . S
C532 C534 1.501 . S
C533 H524 0.931 . S
C533 C529 1.382 . S
C533 C532 1.415 . S
C534 C532 1.501 . S
C534 C535 1.384 . S
C534 C539 1.408 . S
C535 H525 0.930 . S
C535 C534 1.384 . S
C535 C536 1.389 . S
C536 C535 1.389 . S
C536 C537 1.405 . S
C537 H526 0.930 . S
C537 C536 1.405 . S
C537 C538 1.364 . S
C538 C537 1.364 . S
C538 C539 1.400 . S
C539 H527 0.931 . S
C539 C534 1.408 . S
C539 C538 1.400 . S
H540 C546 0.930 . S
H541 C549 0.931 . S
H542 C551 0.931 . S
H543 C553 0.930 . S
H544 C555 0.930 . S
H545 C557 0.931 . S
C546 H540 0.930 . S
C546 C547 1.380 . S
C546 C548 1.394 . S
C547 C546 1.380 . S
C547 C551 1.382 . S
C548 C546 1.394 . S
C548 C549 1.400 . S
C549 H541 0.931 . S
C549 C548 1.400 . S
C549 C550 1.375 . S
C550 C549 1.375 . S
C550 C551 1.415 . S
C550 C552 1.501 . S
C551 H542 0.931 . S
C551 C547 1.382 . S
C551 C550 1.415 . S
C552 C550 1.501 . S
C552 C553 1.384 . S
C552 C557 1.408 . S
C553 H543 0.930 . S
C553 C552 1.384 . S
C553 C554 1.389 . S
C554 C553 1.389 . S
C554 C555 1.405 . S
C555 H544 0.930 . S
C555 C554 1.405 . S
C555 C556 1.364 . S
C556 C555 1.364 . S
C556 C557 1.400 . S
C557 H545 0.931 . S
C557 C552 1.408 . S
C557 C556 1.400 . S
H558 C564 0.930 . S
H559 C567 0.931 . S
H560 C569 0.931 . S
H561 C571 0.930 . S
H562 C573 0.930 . S
H563 C575 0.931 . S
C564 H558 0.930 . S
C564 C565 1.380 . S
C564 C566 1.394 . S
C565 C564 1.380 . S
C565 C569 1.382 . S
C566 C564 1.394 . S
C566 C567 1.400 . S
C567 H559 0.931 . S
C567 C566 1.400 . S
C567 C568 1.375 . S
C568 C567 1.375 . S
C568 C569 1.415 . S
C568 C570 1.501 . S
C569 H560 0.931 . S
C569 C565 1.382 . S
C569 C568 1.415 . S
C570 C568 1.501 . S
C570 C571 1.384 . S
C570 C575 1.408 . S
C571 H561 0.930 . S
C571 C570 1.384 . S
C571 C572 1.389 . S
C572 C571 1.389 . S
C572 C573 1.405 . S
C573 H562 0.930 . S
C573 C572 1.405 . S
C573 C574 1.364 . S
C574 C573 1.364 . S
C574 C575 1.400 . S
C575 H563 0.931 . S
C575 C570 1.408 . S
C575 C574 1.400 . S
C576 C577 1.361 1_455 S
C576 C578 1.419 . S
C576 H580 0.930 . S
C577 C576 1.361 1_655 S
C577 C586 1.449 . S
C578 C576 1.419 . S
C578 C579 1.363 1_455 S
C578 H581 0.929 . S
C579 C578 1.363 1_655 S
C579 C585 1.428 . S
H580 C576 0.930 . S
H581 C578 0.929 . S
S582 N583 1.613 . S
S582 N584 1.610 . S
N583 S582 1.613 . S
N583 C586 1.350 . S
N584 S582 1.610 . S
N584 C585 1.351 . S
C585 C579 1.428 . S
C585 N584 1.351 . S
C585 C586 1.434 . S
C586 C577 1.449 . S
C586 N583 1.350 . S
C586 C585 1.434 . S
C587 C588 1.369 . S
C587 C589 1.419 . S
C587 H591 0.930 . S
C588 C587 1.369 . S
C588 C597 1.429 . S
C589 C587 1.419 . S
C589 C590 1.363 . S
C589 H592 0.929 . S
C590 C589 1.363 . S
C590 C596 1.428 . S
H591 C587 0.930 . S
H592 C589 0.929 . S
S593 N594 1.613 . S
S593 N595 1.610 . S
N594 S593 1.613 . S
N594 C597 1.350 . S
N595 S593 1.610 . S
N595 C596 1.351 . S
C596 C590 1.428 . S
C596 N595 1.351 . S
C596 C597 1.434 . S
C597 C588 1.429 . S
C597 N594 1.350 . S
C597 C596 1.434 . S
C598 C599 1.369 1_565 S
C598 C600 1.427 1_565 S
C598 H602 0.930 . S
C599 C598 1.369 1_545 S
C599 C608 1.428 . S
C600 C598 1.427 1_545 S
C600 C601 1.355 . S
C600 H603 0.929 1_545 S
C601 C600 1.355 . S
C601 C607 1.428 . S
H602 C598 0.930 . S
H603 C600 0.929 1_565 S
S604 N605 1.613 . S
S604 N606 1.610 . S
N605 S604 1.613 . S
N605 C608 1.350 . S
N606 S604 1.610 . S
N606 C607 1.351 . S
C607 C601 1.428 . S
C607 N606 1.351 . S
C607 C608 1.434 . S
C608 C599 1.428 . S
C608 N605 1.350 . S
C608 C607 1.434 . S
C609 C610 1.377 . S
C609 C611 1.419 . S
C609 H613 0.930 . S
C610 C609 1.377 . S
C610 C619 1.430 . S
C611 C609 1.419 . S
C611 C612 1.363 . S
C611 H614 0.929 . S
C612 C611 1.363 . S
C612 C618 1.428 . S
H613 C609 0.930 . S
H614 C611 0.929 . S
S615 N616 1.615 . S
S615 N617 1.610 . S
N616 S615 1.615 . S
N616 C619 1.334 . S
N617 S615 1.610 . S
N617 C618 1.351 . S
C618 C612 1.428 . S
C618 N617 1.351 . S
C618 C619 1.454 . S
C619 C610 1.430 . S
C619 N616 1.334 . S
C619 C618 1.454 . S
C620 C621 1.365 1_655 S
C620 C622 1.419 . S
C620 H624 0.930 . S
C621 C620 1.365 1_455 S
C621 C630 1.427 . S
C622 C620 1.419 . S
C622 C623 1.363 1_655 S
C622 H625 0.929 . S
C623 C622 1.363 1_455 S
C623 C629 1.428 . S
H624 C620 0.930 . S
H625 C622 0.929 . S
S626 N627 1.613 . S
S626 N628 1.610 . S
N627 S626 1.613 . S
N627 C630 1.350 . S
N628 S626 1.610 . S
N628 C629 1.351 . S
C629 C623 1.428 . S
C629 N628 1.351 . S
C629 C630 1.434 . S
C630 C621 1.427 . S
C630 N627 1.350 . S
C630 C629 1.434 . S
C631 C632 1.369 . S
C631 C633 1.419 . S
C631 H635 0.930 . S
C632 C631 1.369 . S
C632 C641 1.429 . S
C633 C631 1.419 . S
C633 C634 1.363 . S
C633 H636 0.929 . S
C634 C633 1.363 . S
C634 C640 1.428 . S
H635 C631 0.930 . S
H636 C633 0.929 . S
S637 N638 1.613 . S
S637 N639 1.610 . S
N638 S637 1.613 . S
N638 C641 1.350 . S
N639 S637 1.610 . S
N639 C640 1.351 . S
C640 C634 1.428 . S
C640 N639 1.351 . S
C640 C641 1.434 . S
C641 C632 1.429 . S
C641 N638 1.350 . S
C641 C640 1.434 . S
C642 C643 1.386 . S
C642 C644 1.419 . S
C642 H646 0.930 . S
C643 C642 1.386 . S
C643 C652 1.399 1_655 S
C644 C642 1.419 . S
C644 C645 1.380 . S
C644 H647 0.929 . S
C645 C644 1.380 . S
C645 C651 1.419 1_655 S
H646 C642 0.930 . S
H647 C644 0.929 . S
S648 N649 1.613 . S
S648 N650 1.610 . S
N649 S648 1.613 . S
N649 C652 1.350 . S
N650 S648 1.610 . S
N650 C651 1.351 . S
C651 C645 1.419 1_455 S
C651 N650 1.351 . S
C651 C652 1.434 . S
C652 C643 1.399 1_455 S
C652 N649 1.350 . S
C652 C651 1.434 . S
C653 C654 1.369 . S
C653 C655 1.419 . S
C653 H657 0.930 . S
C654 C653 1.369 . S
C654 C663 1.429 . S
C655 C653 1.419 . S
C655 C656 1.363 . S
C655 H658 0.929 . S
C656 C655 1.363 . S
C656 C662 1.428 . S
H657 C653 0.930 . S
H658 C655 0.929 . S
S659 N660 1.613 . S
S659 N661 1.610 . S
N660 S659 1.613 . S
N660 C663 1.350 . S
N661 S659 1.610 . S
N661 C662 1.351 . S
C662 C656 1.428 . S
C662 N661 1.351 . S
C662 C663 1.434 . S
C663 C654 1.429 . S
C663 N660 1.350 . S
C663 C662 1.434 . S
C664 C665 1.379 . S
C664 C666 1.419 . S
C664 H668 0.930 . S
C665 C664 1.379 . S
C665 C674 1.439 1_545 S
C666 C664 1.419 . S
C666 C667 1.355 . S
C666 H669 0.929 . S
C667 C666 1.355 . S
C667 C673 1.422 1_545 S
H668 C664 0.930 . S
H669 C666 0.929 . S
S670 N671 1.613 . S
S670 N672 1.610 . S
N671 S670 1.613 . S
N671 C674 1.350 . S
N672 S670 1.610 . S
N672 C673 1.351 . S
C673 C667 1.422 1_565 S
C673 N672 1.351 . S
C673 C674 1.434 . S
C674 C665 1.439 1_565 S
C674 N671 1.350 . S
C674 C673 1.434 . S
C675 C676 1.366 1_545 S
C675 C677 1.419 . S
C675 H679 0.930 . S
C676 C675 1.366 1_565 S
C676 C685 1.415 . S
C677 C675 1.419 . S
C677 C678 1.373 1_545 S
C677 H680 0.929 . S
C678 C677 1.373 1_565 S
C678 C684 1.431 . S
H679 C675 0.930 . S
H680 C677 0.929 . S
S681 N682 1.613 . S
S681 N683 1.610 . S
N682 S681 1.613 . S
N682 C685 1.350 . S
N683 S681 1.610 . S
N683 C684 1.351 . S
C684 C678 1.431 . S
C684 N683 1.351 . S
C684 C685 1.434 . S
C685 C676 1.415 . S
C685 N682 1.350 . S
C685 C684 1.434 . S
C686 C687 1.369 . S
C686 C688 1.419 . S
C686 H690 0.930 . S
C687 C686 1.369 . S
C687 C696 1.429 1_455 S
C688 C686 1.419 . S
C688 C689 1.372 . S
C688 H691 0.929 . S
C689 C688 1.372 . S
C689 C695 1.402 1_455 S
H690 C686 0.930 . S
H691 C688 0.929 . S
S692 N693 1.613 . S
S692 N694 1.610 . S
N693 S692 1.613 . S
N693 C696 1.350 . S
N694 S692 1.610 . S
N694 C695 1.351 . S
C695 C689 1.402 1_655 S
C695 N694 1.351 . S
C695 C696 1.434 . S
C696 C687 1.429 1_655 S
C696 N693 1.350 . S
C696 C695 1.434 . S
C697 C698 1.369 . S
C697 C699 1.419 . S
C697 H701 0.930 . S
C698 C697 1.369 . S
C698 C707 1.429 . S
C699 C697 1.419 . S
C699 C700 1.363 . S
C699 H702 0.929 . S
C700 C699 1.363 . S
C700 C706 1.428 . S
H701 C697 0.930 . S
H702 C699 0.929 . S
S703 N704 1.613 . S
S703 N705 1.610 . S
N704 S703 1.613 . S
N704 C707 1.350 . S
N705 S703 1.610 . S
N705 C706 1.351 . S
C706 C700 1.428 . S
C706 N705 1.351 . S
C706 C707 1.434 . S
C707 C698 1.429 . S
C707 N704 1.350 . S
C707 C706 1.434 . S
C708 C709 1.369 . S
C708 C710 1.419 . S
C708 H712 0.930 . S
C709 C708 1.369 . S
C709 C718 1.429 . S
C710 C708 1.419 . S
C710 C711 1.363 . S
C710 H713 0.929 . S
C711 C710 1.363 . S
C711 C717 1.428 . S
H712 C708 0.930 . S
H713 C710 0.929 . S
S714 N715 1.613 . S
S714 N716 1.610 . S
N715 S714 1.613 . S
N715 C718 1.350 . S
N716 S714 1.610 . S
N716 C717 1.351 . S
C717 C711 1.428 . S
C717 N716 1.351 . S
C717 C718 1.434 . S
C718 C709 1.429 . S
C718 N715 1.350 . S
C718 C717 1.434 . S
C719 C720 1.369 . S
C719 C721 1.419 . S
C719 H723 0.930 . S
C720 C719 1.369 . S
C720 C729 1.429 . S
C721 C719 1.419 . S
C721 C722 1.363 . S
C721 H724 0.929 . S
C722 C721 1.363 . S
C722 C728 1.428 . S
H723 C719 0.930 . S
H724 C721 0.929 . S
S725 N726 1.613 . S
S725 N727 1.610 . S
N726 S725 1.613 . S
N726 C729 1.350 . S
N727 S725 1.610 . S
N727 C728 1.351 . S
C728 C722 1.428 . S
C728 N727 1.351 . S
C728 C729 1.434 . S
C729 C720 1.429 . S
C729 N726 1.350 . S
C729 C728 1.434 . S
C730 C731 1.369 . S
C730 C732 1.419 . S
C730 H734 0.930 . S
C731 C730 1.369 . S
C731 C740 1.429 . S
C732 C730 1.419 . S
C732 C733 1.363 . S
C732 H735 0.929 . S
C733 C732 1.363 . S
C733 C739 1.428 . S
H734 C730 0.930 . S
H735 C732 0.929 . S
S736 N737 1.613 . S
S736 N738 1.610 . S
N737 S736 1.613 . S
N737 C740 1.350 . S
N738 S736 1.610 . S
N738 C739 1.351 . S
C739 C733 1.428 . S
C739 N738 1.351 . S
C739 C740 1.434 . S
C740 C731 1.429 . S
C740 N737 1.350 . S
C740 C739 1.434 . S
C741 C742 1.369 . S
C741 C743 1.419 . S
C741 H745 0.930 . S
C742 C741 1.369 . S
C742 C751 1.429 . S
C743 C741 1.419 . S
C743 C744 1.363 . S
C743 H746 0.929 . S
C744 C743 1.363 . S
C744 C750 1.428 . S
H745 C741 0.930 . S
H746 C743 0.929 . S
S747 N748 1.613 . S
S747 N749 1.610 . S
N748 S747 1.613 . S
N748 C751 1.350 . S
N749 S747 1.610 . S
N749 C750 1.351 . S
C750 C744 1.428 . S
C750 N749 1.351 . S
C750 C751 1.434 . S
C751 C742 1.429 . S
C751 N748 1.350 . S
C751 C750 1.434 . S
C752 C753 1.369 . S
C752 C754 1.419 . S
C752 H756 0.930 . S
C753 C752 1.369 . S
C753 C762 1.429 . S
C754 C752 1.419 . S
C754 C755 1.363 . S
C754 H757 0.929 . S
C755 C754 1.363 . S
C755 C761 1.428 . S
H756 C752 0.930 . S
H757 C754 0.929 . S
S758 N759 1.613 . S
S758 N760 1.610 . S
N759 S758 1.613 . S
N759 C762 1.350 . S
N760 S758 1.610 . S
N760 C761 1.351 . S
C761 C755 1.428 . S
C761 N760 1.351 . S
C761 C762 1.434 . S
C762 C753 1.429 . S
C762 N759 1.350 . S
C762 C761 1.434 . S
C763 C764 1.369 . S
C763 C765 1.419 . S
C763 H767 0.930 . S
C764 C763 1.369 . S
C764 C773 1.429 . S
C765 C763 1.419 . S
C765 C766 1.363 . S
C765 H768 0.929 . S
C766 C765 1.363 . S
C766 C772 1.428 . S
H767 C763 0.930 . S
H768 C765 0.929 . S
S769 N770 1.613 . S
S769 N771 1.610 . S
N770 S769 1.613 . S
N770 C773 1.350 . S
N771 S769 1.610 . S
N771 C772 1.351 . S
C772 C766 1.428 . S
C772 N771 1.351 . S
C772 C773 1.434 . S
C773 C764 1.429 . S
C773 N770 1.350 . S
C773 C772 1.434 . S
C774 C775 1.369 . S
C774 C776 1.419 . S
C774 H778 0.930 . S
C775 C774 1.369 . S
C775 C784 1.429 . S
C776 C774 1.419 . S
C776 C777 1.363 . S
C776 H779 0.929 . S
C777 C776 1.363 . S
C777 C783 1.428 . S
H778 C774 0.930 . S
H779 C776 0.929 . S
S780 N781 1.613 . S
S780 N782 1.610 . S
N781 S780 1.613 . S
N781 C784 1.350 . S
N782 S780 1.610 . S
N782 C783 1.351 . S
C783 C777 1.428 . S
C783 N782 1.351 . S
C783 C784 1.434 . S
C784 C775 1.429 . S
C784 N781 1.350 . S
C784 C783 1.434 . S
C785 C786 1.369 . S
C785 C787 1.419 . S
C785 H789 0.930 . S
C786 C785 1.369 . S
C786 C795 1.429 . S
C787 C785 1.419 . S
C787 C788 1.363 . S
C787 H790 0.929 . S
C788 C787 1.363 . S
C788 C794 1.428 . S
H789 C785 0.930 . S
H790 C787 0.929 . S
S791 N792 1.613 . S
S791 N793 1.610 . S
N792 S791 1.613 . S
N792 C795 1.350 . S
N793 S791 1.610 . S
N793 C794 1.351 . S
C794 C788 1.428 . S
C794 N793 1.351 . S
C794 C795 1.434 . S
C795 C786 1.429 . S
C795 N792 1.350 . S
C795 C794 1.434 . S
C796 C797 1.369 . S
C796 C798 1.419 . S
C796 H800 0.930 . S
C797 C796 1.369 . S
C797 C806 1.429 . S
C798 C796 1.419 . S
C798 C799 1.363 . S
C798 H801 0.929 . S
C799 C798 1.363 . S
C799 C805 1.428 . S
H800 C796 0.930 . S
H801 C798 0.929 . S
S802 N803 1.613 . S
S802 N804 1.610 . S
N803 S802 1.613 . S
N803 C806 1.350 . S
N804 S802 1.610 . S
N804 C805 1.351 . S
C805 C799 1.428 . S
C805 N804 1.351 . S
C805 C806 1.434 . S
C806 C797 1.429 . S
C806 N803 1.350 . S
C806 C805 1.434 . S
C807 C808 1.369 . S
C807 C809 1.419 . S
C807 H811 0.930 . S
C808 C807 1.369 . S
C808 C817 1.429 . S
C809 C807 1.419 . S
C809 C810 1.363 . S
C809 H812 0.929 . S
C810 C809 1.363 . S
C810 C816 1.428 . S
H811 C807 0.930 . S
H812 C809 0.929 . S
S813 N814 1.613 . S
S813 N815 1.610 . S
N814 S813 1.613 . S
N814 C817 1.350 . S
N815 S813 1.610 . S
N815 C816 1.351 . S
C816 C810 1.428 . S
C816 N815 1.351 . S
C816 C817 1.434 . S
C817 C808 1.429 . S
C817 N814 1.350 . S
C817 C816 1.434 . S
C818 C819 1.369 . S
C818 C820 1.419 . S
C818 H822 0.930 . S
C819 C818 1.369 . S
C819 C828 1.429 . S
C820 C818 1.419 . S
C820 C821 1.363 . S
C820 H823 0.929 . S
C821 C820 1.363 . S
C821 C827 1.428 . S
H822 C818 0.930 . S
H823 C820 0.929 . S
S824 N825 1.613 . S
S824 N826 1.610 . S
N825 S824 1.613 . S
N825 C828 1.350 . S
N826 S824 1.610 . S
N826 C827 1.351 . S
C827 C821 1.428 . S
C827 N826 1.351 . S
C827 C828 1.434 . S
C828 C819 1.429 . S
C828 N825 1.350 . S
C828 C827 1.434 . S
C829 C830 1.369 . S
C829 C831 1.419 . S
C829 H833 0.930 . S
C830 C829 1.369 . S
C830 C839 1.429 . S
C831 C829 1.419 . S
C831 C832 1.363 . S
C831 H834 0.929 . S
C832 C831 1.363 . S
C832 C838 1.428 . S
H833 C829 0.930 . S
H834 C831 0.929 . S
S835 N836 1.613 . S
S835 N837 1.610 . S
N836 S835 1.613 . S
N836 C839 1.350 . S
N837 S835 1.610 . S
N837 C838 1.351 . S
C838 C832 1.428 . S
C838 N837 1.351 . S
C838 C839 1.434 . S
C839 C830 1.429 . S
C839 N836 1.350 . S
C839 C838 1.434 . S
C840 C841 1.369 . S
C840 C842 1.419 . S
C840 H844 0.930 . S
C841 C840 1.369 . S
C841 C850 1.429 . S
C842 C840 1.419 . S
C842 C843 1.363 . S
C842 H845 0.929 . S
C843 C842 1.363 . S
C843 C849 1.428 . S
H844 C840 0.930 . S
H845 C842 0.929 . S
S846 N847 1.613 . S
S846 N848 1.610 . S
N847 S846 1.613 . S
N847 C850 1.350 . S
N848 S846 1.610 . S
N848 C849 1.351 . S
C849 C843 1.428 . S
C849 N848 1.351 . S
C849 C850 1.434 . S
C850 C841 1.429 . S
C850 N847 1.350 . S
C850 C849 1.434 . S
C851 C852 1.369 . S
C851 C853 1.419 . S
C851 H855 0.930 . S
C852 C851 1.369 . S
C852 C861 1.429 . S
C853 C851 1.419 . S
C853 C854 1.363 . S
C853 H856 0.929 . S
C854 C853 1.363 . S
C854 C860 1.428 . S
H855 C851 0.930 . S
H856 C853 0.929 . S
S857 N858 1.613 . S
S857 N859 1.610 . S
N858 S857 1.613 . S
N858 C861 1.350 . S
N859 S857 1.610 . S
N859 C860 1.351 . S
C860 C854 1.428 . S
C860 N859 1.351 . S
C860 C861 1.434 . S
C861 C852 1.429 . S
C861 N858 1.350 . S
C861 C860 1.434 . S
C862 C863 1.369 . S
C862 C864 1.419 . S
C862 H866 0.930 . S
C863 C862 1.369 . S
C863 C872 1.429 . S
C864 C862 1.419 . S
C864 C865 1.363 . S
C864 H867 0.929 . S
C865 C864 1.363 . S
C865 C871 1.428 . S
H866 C862 0.930 . S
H867 C864 0.929 . S
S868 N869 1.613 . S
S868 N870 1.610 . S
N869 S868 1.613 . S
N869 C872 1.350 . S
N870 S868 1.610 . S
N870 C871 1.351 . S
C871 C865 1.428 . S
C871 N870 1.351 . S
C871 C872 1.434 . S
C872 C863 1.429 . S
C872 N869 1.350 . S
C872 C871 1.434 . S
C873 C874 1.369 . S
C873 C875 1.419 . S
C873 H877 0.930 . S
C874 C873 1.369 . S
C874 C883 1.429 . S
C875 C873 1.419 . S
C875 C876 1.363 . S
C875 H878 0.929 . S
C876 C875 1.363 . S
C876 C882 1.428 . S
H877 C873 0.930 . S
H878 C875 0.929 . S
S879 N880 1.613 . S
S879 N881 1.610 . S
N880 S879 1.613 . S
N880 C883 1.350 . S
N881 S879 1.610 . S
N881 C882 1.351 . S
C882 C876 1.428 . S
C882 N881 1.351 . S
C882 C883 1.434 . S
C883 C874 1.429 . S
C883 N880 1.350 . S
C883 C882 1.434 . S
C884 C885 1.369 . S
C884 C886 1.419 . S
C884 H888 0.930 . S
C885 C884 1.369 . S
C885 C894 1.429 . S
C886 C884 1.419 . S
C886 C887 1.363 . S
C886 H889 0.929 . S
C887 C886 1.363 . S
C887 C893 1.428 . S
H888 C884 0.930 . S
H889 C886 0.929 . S
S890 N891 1.613 . S
S890 N892 1.610 . S
N891 S890 1.613 . S
N891 C894 1.350 . S
N892 S890 1.610 . S
N892 C893 1.351 . S
C893 C887 1.428 . S
C893 N892 1.351 . S
C893 C894 1.434 . S
C894 C885 1.429 . S
C894 N891 1.350 . S
C894 C893 1.434 . S
C895 C896 1.369 . S
C895 C897 1.419 . S
C895 H899 0.930 . S
C896 C895 1.369 . S
C896 C905 1.429 . S
C897 C895 1.419 . S
C897 C898 1.363 . S
C897 H900 0.929 . S
C898 C897 1.363 . S
C898 C904 1.428 . S
H899 C895 0.930 . S
H900 C897 0.929 . S
S901 N902 1.613 . S
S901 N903 1.610 . S
N902 S901 1.613 . S
N902 C905 1.350 . S
N903 S901 1.610 . S
N903 C904 1.351 . S
C904 C898 1.428 . S
C904 N903 1.351 . S
C904 C905 1.434 . S
C905 C896 1.429 . S
C905 N902 1.350 . S
C905 C904 1.434 . S
C906 C907 1.369 . S
C906 C908 1.419 . S
C906 H910 0.930 . S
C907 C906 1.369 . S
C907 C916 1.429 . S
C908 C906 1.419 . S
C908 C909 1.363 . S
C908 H911 0.929 . S
C909 C908 1.363 . S
C909 C915 1.428 . S
H910 C906 0.930 . S
H911 C908 0.929 . S
S912 N913 1.613 . S
S912 N914 1.610 . S
N913 S912 1.613 . S
N913 C916 1.350 . S
N914 S912 1.610 . S
N914 C915 1.351 . S
C915 C909 1.428 . S
C915 N914 1.351 . S
C915 C916 1.434 . S
C916 C907 1.429 . S
C916 N913 1.350 . S
C916 C915 1.434 . S
C917 C918 1.369 . S
C917 C919 1.419 . S
C917 H921 0.930 . S
C918 C917 1.369 . S
C918 C927 1.429 . S
C919 C917 1.419 . S
C919 C920 1.363 . S
C919 H922 0.929 . S
C920 C919 1.363 . S
C920 C926 1.428 . S
H921 C917 0.930 . S
H922 C919 0.929 . S
S923 N924 1.613 . S
S923 N925 1.610 . S
N924 S923 1.613 . S
N924 C927 1.350 . S
N925 S923 1.610 . S
N925 C926 1.351 . S
C926 C920 1.428 . S
C926 N925 1.351 . S
C926 C927 1.434 . S
C927 C918 1.429 . S
C927 N924 1.350 . S
C927 C926 1.434 . S
C928 C929 1.369 . S
C928 C930 1.419 . S
C928 H932 0.930 . S
C929 C928 1.369 . S
C929 C938 1.429 . S
C930 C928 1.419 . S
C930 C931 1.363 . S
C930 H933 0.929 . S
C931 C930 1.363 . S
C931 C937 1.428 . S
H932 C928 0.930 . S
H933 C930 0.929 . S
S934 N935 1.613 . S
S934 N936 1.610 . S
N935 S934 1.613 . S
N935 C938 1.350 . S
N936 S934 1.610 . S
N936 C937 1.351 . S
C937 C931 1.428 . S
C937 N936 1.351 . S
C937 C938 1.434 . S
C938 C929 1.429 . S
C938 N935 1.350 . S
C938 C937 1.434 . S
C939 C940 1.369 . S
C939 C941 1.419 . S
C939 H943 0.930 . S
C940 C939 1.369 . S
C940 C949 1.429 . S
C941 C939 1.419 . S
C941 C942 1.363 . S
C941 H944 0.929 . S
C942 C941 1.363 . S
C942 C948 1.428 . S
H943 C939 0.930 . S
H944 C941 0.929 . S
S945 N946 1.613 . S
S945 N947 1.610 . S
N946 S945 1.613 . S
N946 C949 1.350 . S
N947 S945 1.610 . S
N947 C948 1.351 . S
C948 C942 1.428 . S
C948 N947 1.351 . S
C948 C949 1.434 . S
C949 C940 1.429 . S
C949 N946 1.350 . S
C949 C948 1.434 . S
C950 C951 1.369 . S
C950 C952 1.419 . S
C950 H954 0.930 . S
C951 C950 1.369 . S
C951 C960 1.429 . S
C952 C950 1.419 . S
C952 C953 1.363 . S
C952 H955 0.929 . S
C953 C952 1.363 . S
C953 C959 1.428 . S
H954 C950 0.930 . S
H955 C952 0.929 . S
S956 N957 1.613 . S
S956 N958 1.610 . S
N957 S956 1.613 . S
N957 C960 1.350 . S
N958 S956 1.610 . S
N958 C959 1.351 . S
C959 C953 1.428 . S
C959 N958 1.351 . S
C959 C960 1.434 . S
C960 C951 1.429 . S
C960 N957 1.350 . S
C960 C959 1.434 . S
C961 C962 1.369 . S
C961 C963 1.419 . S
C961 H965 0.930 . S
C962 C961 1.369 . S
C962 C971 1.429 . S
C963 C961 1.419 . S
C963 C964 1.363 . S
C963 H966 0.929 . S
C964 C963 1.363 . S
C964 C970 1.428 . S
H965 C961 0.930 . S
H966 C963 0.929 . S
S967 N968 1.613 . S
S967 N969 1.610 . S
N968 S967 1.613 . S
N968 C971 1.350 . S
N969 S967 1.610 . S
N969 C970 1.351 . S
C970 C964 1.428 . S
C970 N969 1.351 . S
C970 C971 1.434 . S
C971 C962 1.429 . S
C971 N968 1.350 . S
C971 C970 1.434 . S
C972 C973 1.369 . S
C972 C974 1.419 . S
C972 H976 0.930 . S
C973 C972 1.369 . S
C973 C982 1.429 . S
C974 C972 1.419 . S
C974 C975 1.363 . S
C974 H977 0.929 . S
C975 C974 1.363 . S
C975 C981 1.428 . S
H976 C972 0.930 . S
H977 C974 0.929 . S
S978 N979 1.613 . S
S978 N980 1.610 . S
N979 S978 1.613 . S
N979 C982 1.350 . S
N980 S978 1.610 . S
N980 C981 1.351 . S
C981 C975 1.428 . S
C981 N980 1.351 . S
C981 C982 1.434 . S
C982 C973 1.429 . S
C982 N979 1.350 . S
C982 C981 1.434 . S
C983 C984 1.369 . S
C983 C985 1.419 . S
C983 H987 0.930 . S
C984 C983 1.369 . S
C984 C993 1.429 . S
C985 C983 1.419 . S
C985 C986 1.363 . S
C985 H988 0.929 . S
C986 C985 1.363 . S
C986 C992 1.428 . S
H987 C983 0.930 . S
H988 C985 0.929 . S
S989 N990 1.613 . S
S989 N991 1.610 . S
N990 S989 1.613 . S
N990 C993 1.350 . S
N991 S989 1.610 . S
N991 C992 1.351 . S
C992 C986 1.428 . S
C992 N991 1.351 . S
C992 C993 1.434 . S
C993 C984 1.429 . S
C993 N990 1.350 . S
C993 C992 1.434 . S
C994 C995 1.369 . S
C994 C996 1.419 . S
C994 H998 0.930 . S
C995 C994 1.369 . S
C995 C1004 1.429 . S
C996 C994 1.419 . S
C996 C997 1.363 . S
C996 H999 0.929 . S
C997 C996 1.363 . S
C997 C1003 1.428 . S
H998 C994 0.930 . S
H999 C996 0.929 . S
S1000 N1001 1.613 . S
S1000 N1002 1.610 . S
N1001 S1000 1.613 . S
N1001 C1004 1.350 . S
N1002 S1000 1.610 . S
N1002 C1003 1.351 . S
C1003 C997 1.428 . S
C1003 N1002 1.351 . S
C1003 C1004 1.434 . S
C1004 C995 1.429 . S
C1004 N1001 1.350 . S
C1004 C1003 1.434 . S
C1005 C1006 1.369 . S
C1005 C1007 1.419 . S
C1005 H1009 0.930 . S
C1006 C1005 1.369 . S
C1006 C1015 1.429 . S
C1007 C1005 1.419 . S
C1007 C1008 1.363 . S
C1007 H1010 0.929 . S
C1008 C1007 1.363 . S
C1008 C1014 1.428 . S
H1009 C1005 0.930 . S
H1010 C1007 0.929 . S
S1011 N1012 1.613 . S
S1011 N1013 1.610 1_554 S
N1012 S1011 1.613 . S
N1012 C1015 1.350 1_554 S
N1013 S1011 1.610 1_556 S
N1013 C1014 1.351 . S
C1014 C1008 1.428 . S
C1014 N1013 1.351 . S
C1014 C1015 1.434 . S
C1015 C1006 1.429 . S
C1015 N1012 1.350 1_556 S
C1015 C1014 1.434 . S
C1016 C1017 1.369 . S
C1016 C1018 1.419 . S
C1016 H1020 0.930 . S
C1017 C1016 1.369 . S
C1017 C1026 1.429 . S
C1018 C1016 1.419 . S
C1018 C1019 1.363 . S
C1018 H1021 0.929 . S
C1019 C1018 1.363 . S
C1019 C1025 1.428 . S
H1020 C1016 0.930 . S
H1021 C1018 0.929 . S
S1022 N1023 1.618 . S
S1022 N1024 1.610 1_554 S
N1023 S1022 1.618 . S
N1023 C1026 1.323 1_554 S
N1024 S1022 1.610 1_556 S
N1024 C1025 1.351 . S
C1025 C1019 1.428 . S
C1025 N1024 1.351 . S
C1025 C1026 1.434 . S
C1026 C1017 1.429 . S
C1026 N1023 1.323 1_556 S
C1026 C1025 1.434 . S
C1027 C1028 1.369 . S
C1027 C1029 1.419 . S
C1027 H1031 0.930 . S
C1028 C1027 1.369 . S
C1028 C1037 1.429 . S
C1029 C1027 1.419 . S
C1029 C1030 1.363 . S
C1029 H1032 0.929 . S
C1030 C1029 1.363 . S
C1030 C1036 1.428 . S
H1031 C1027 0.930 . S
H1032 C1029 0.929 . S
S1033 N1034 1.613 . S
S1033 N1035 1.610 . S
N1034 S1033 1.613 . S
N1034 C1037 1.350 . S
N1035 S1033 1.610 . S
N1035 C1036 1.351 . S
C1036 C1030 1.428 . S
C1036 N1035 1.351 . S
C1036 C1037 1.434 . S
C1037 C1028 1.429 . S
C1037 N1034 1.350 . S
C1037 C1036 1.434 . S
C1038 C1039 1.369 . S
C1038 C1040 1.419 . S
C1038 H1042 0.930 . S
C1039 C1038 1.369 . S
C1039 C1048 1.429 . S
C1040 C1038 1.419 . S
C1040 C1041 1.363 . S
C1040 H1043 0.929 . S
C1041 C1040 1.363 . S
C1041 C1047 1.428 . S
H1042 C1038 0.930 . S
H1043 C1040 0.929 . S
S1044 N1045 1.613 . S
S1044 N1046 1.610 . S
N1045 S1044 1.613 . S
N1045 C1048 1.350 . S
N1046 S1044 1.610 . S
N1046 C1047 1.351 . S
C1047 C1041 1.428 . S
C1047 N1046 1.351 . S
C1047 C1048 1.434 . S
C1048 C1039 1.429 . S
C1048 N1045 1.350 . S
C1048 C1047 1.434 . S
C1049 C1050 1.369 . S
C1049 C1051 1.419 . S
C1049 H1053 0.930 . S
C1050 C1049 1.369 . S
C1050 C1059 1.429 . S
C1051 C1049 1.419 . S
C1051 C1052 1.363 . S
C1051 H1054 0.929 . S
C1052 C1051 1.363 . S
C1052 C1058 1.428 . S
H1053 C1049 0.930 . S
H1054 C1051 0.929 . S
S1055 N1056 1.613 . S
S1055 N1057 1.610 . S
N1056 S1055 1.613 . S
N1056 C1059 1.350 . S
N1057 S1055 1.610 . S
N1057 C1058 1.351 . S
C1058 C1052 1.428 . S
C1058 N1057 1.351 . S
C1058 C1059 1.434 . S
C1059 C1050 1.429 . S
C1059 N1056 1.350 . S
C1059 C1058 1.434 . S
C1060 C1061 1.369 . S
C1060 C1062 1.419 . S
C1060 H1064 0.930 . S
C1061 C1060 1.369 . S
C1061 C1070 1.429 . S
C1062 C1060 1.419 . S
C1062 C1063 1.363 . S
C1062 H1065 0.929 . S
C1063 C1062 1.363 . S
C1063 C1069 1.428 . S
H1064 C1060 0.930 . S
H1065 C1062 0.929 . S
S1066 N1067 1.613 . S
S1066 N1068 1.610 . S
N1067 S1066 1.613 . S
N1067 C1070 1.350 . S
N1068 S1066 1.610 . S
N1068 C1069 1.351 . S
C1069 C1063 1.428 . S
C1069 N1068 1.351 . S
C1069 C1070 1.434 . S
C1070 C1061 1.429 . S
C1070 N1067 1.350 . S
C1070 C1069 1.434 . S
C1071 C1072 1.369 . S
C1071 C1073 1.419 . S
C1071 H1075 0.930 . S
C1072 C1071 1.369 . S
C1072 C1081 1.429 . S
C1073 C1071 1.419 . S
C1073 C1074 1.363 . S
C1073 H1076 0.929 . S
C1074 C1073 1.363 . S
C1074 C1080 1.428 . S
H1075 C1071 0.930 . S
H1076 C1073 0.929 . S
S1077 N1078 1.613 . S
S1077 N1079 1.610 . S
N1078 S1077 1.613 . S
N1078 C1081 1.350 . S
N1079 S1077 1.610 . S
N1079 C1080 1.351 . S
C1080 C1074 1.428 . S
C1080 N1079 1.351 . S
C1080 C1081 1.434 . S
C1081 C1072 1.429 . S
C1081 N1078 1.350 . S
C1081 C1080 1.434 . S
C1082 C1083 1.369 . S
C1082 C1084 1.419 . S
C1082 H1086 0.930 . S
C1083 C1082 1.369 . S
C1083 C1092 1.429 . S
C1084 C1082 1.419 . S
C1084 C1085 1.363 . S
C1084 H1087 0.929 . S
C1085 C1084 1.363 . S
C1085 C1091 1.428 . S
H1086 C1082 0.930 . S
H1087 C1084 0.929 . S
S1088 N1089 1.613 . S
S1088 N1090 1.610 . S
N1089 S1088 1.613 . S
N1089 C1092 1.350 . S
N1090 S1088 1.610 . S
N1090 C1091 1.351 . S
C1091 C1085 1.428 . S
C1091 N1090 1.351 . S
C1091 C1092 1.434 . S
C1092 C1083 1.429 . S
C1092 N1089 1.350 . S
C1092 C1091 1.434 . S
C1093 C1094 1.369 . S
C1093 C1095 1.419 . S
C1093 H1097 0.930 . S
C1094 C1093 1.369 . S
C1094 C1103 1.429 . S
C1095 C1093 1.419 . S
C1095 C1096 1.363 . S
C1095 H1098 0.929 . S
C1096 C1095 1.363 . S
C1096 C1102 1.428 . S
H1097 C1093 0.930 . S
H1098 C1095 0.929 . S
S1099 N1100 1.613 . S
S1099 N1101 1.610 . S
N1100 S1099 1.613 . S
N1100 C1103 1.350 . S
N1101 S1099 1.610 . S
N1101 C1102 1.351 . S
C1102 C1096 1.428 . S
C1102 N1101 1.351 . S
C1102 C1103 1.434 . S
C1103 C1094 1.429 . S
C1103 N1100 1.350 . S
C1103 C1102 1.434 . S
C1104 C1105 1.369 . S
C1104 C1106 1.419 . S
C1104 H1108 0.930 . S
C1105 C1104 1.369 . S
C1105 C1114 1.429 . S
C1106 C1104 1.419 . S
C1106 C1107 1.363 . S
C1106 H1109 0.929 . S
C1107 C1106 1.363 . S
C1107 C1113 1.428 . S
H1108 C1104 0.930 . S
H1109 C1106 0.929 . S
S1110 N1111 1.613 . S
S1110 N1112 1.610 . S
N1111 S1110 1.613 . S
N1111 C1114 1.350 . S
N1112 S1110 1.610 . S
N1112 C1113 1.351 . S
C1113 C1107 1.428 . S
C1113 N1112 1.351 . S
C1113 C1114 1.434 . S
C1114 C1105 1.429 . S
C1114 N1111 1.350 . S
C1114 C1113 1.434 . S
C1115 C1116 1.369 . S
C1115 C1117 1.419 . S
C1115 H1119 0.930 . S
C1116 C1115 1.369 . S
C1116 C1125 1.429 . S
C1117 C1115 1.419 . S
C1117 C1118 1.363 . S
C1117 H1120 0.929 . S
C1118 C1117 1.363 . S
C1118 C1124 1.428 . S
H1119 C1115 0.930 . S
H1120 C1117 0.929 . S
S1121 N1122 1.613 . S
S1121 N1123 1.610 . S
N1122 S1121 1.613 . S
N1122 C1125 1.350 . S
N1123 S1121 1.610 . S
N1123 C1124 1.351 . S
C1124 C1118 1.428 . S
C1124 N1123 1.351 . S
C1124 C1125 1.434 . S
C1125 C1116 1.429 . S
C1125 N1122 1.350 . S
C1125 C1124 1.434 . S
C1126 C1127 1.369 . S
C1126 C1128 1.419 . S
C1126 H1130 0.930 . S
C1127 C1126 1.369 . S
C1127 C1136 1.429 . S
C1128 C1126 1.419 . S
C1128 C1129 1.363 . S
C1128 H1131 0.929 . S
C1129 C1128 1.363 . S
C1129 C1135 1.428 . S
H1130 C1126 0.930 . S
H1131 C1128 0.929 . S
S1132 N1133 1.613 . S
S1132 N1134 1.610 . S
N1133 S1132 1.613 . S
N1133 C1136 1.350 . S
N1134 S1132 1.610 . S
N1134 C1135 1.351 . S
C1135 C1129 1.428 . S
C1135 N1134 1.351 . S
C1135 C1136 1.434 . S
C1136 C1127 1.429 . S
C1136 N1133 1.350 . S
C1136 C1135 1.434 . S
C1137 C1138 1.369 1_655 S
C1137 C1139 1.419 . S
C1137 H1141 0.930 . S
C1138 C1137 1.369 1_455 S
C1138 C1147 1.429 . S
C1139 C1137 1.419 . S
C1139 C1140 1.363 1_655 S
C1139 H1142 0.929 . S
C1140 C1139 1.363 1_455 S
C1140 C1146 1.428 . S
H1141 C1137 0.930 . S
H1142 C1139 0.929 . S
S1143 N1144 1.613 . S
S1143 N1145 1.610 . S
N1144 S1143 1.613 . S
N1144 C1147 1.350 . S
N1145 S1143 1.610 . S
N1145 C1146 1.351 . S
C1146 C1140 1.428 . S
C1146 N1145 1.351 . S
C1146 C1147 1.434 . S
C1147 C1138 1.429 . S
C1147 N1144 1.350 . S
C1147 C1146 1.434 . S
C1148 C1149 1.369 . S
C1148 C1150 1.419 . S
C1148 H1152 0.930 . S
C1149 C1148 1.369 . S
C1149 C1158 1.429 . S
C1150 C1148 1.419 . S
C1150 C1151 1.363 . S
C1150 H1153 0.929 . S
C1151 C1150 1.363 . S
C1151 C1157 1.428 . S
H1152 C1148 0.930 . S
H1153 C1150 0.929 . S
S1154 N1155 1.613 . S
S1154 N1156 1.610 . S
N1155 S1154 1.613 . S
N1155 C1158 1.350 . S
N1156 S1154 1.610 . S
N1156 C1157 1.351 . S
C1157 C1151 1.428 . S
C1157 N1156 1.351 . S
C1157 C1158 1.434 . S
C1158 C1149 1.429 . S
C1158 N1155 1.350 . S
C1158 C1157 1.434 . S
C1159 C1160 1.364 1_545 S
C1159 C1161 1.409 . S
C1159 H1163 0.946 . S
C1160 C1159 1.364 1_565 S
C1160 C1169 1.429 . S
C1161 C1159 1.409 . S
C1161 C1162 1.363 1_545 S
C1161 H1164 0.929 . S
C1162 C1161 1.363 1_565 S
C1162 C1168 1.428 . S
H1163 C1159 0.946 . S
H1164 C1161 0.929 . S
S1165 N1166 1.613 . S
S1165 N1167 1.610 . S
N1166 S1165 1.613 . S
N1166 C1169 1.350 . S
N1167 S1165 1.610 . S
N1167 C1168 1.351 . S
C1168 C1162 1.428 . S
C1168 N1167 1.351 . S
C1168 C1169 1.434 . S
C1169 C1160 1.429 . S
C1169 N1166 1.350 . S
C1169 C1168 1.434 . S
C1170 C1171 1.369 1_545 S
C1170 C1172 1.419 . S
C1170 H1174 0.930 . S
C1171 C1170 1.369 1_565 S
C1171 C1180 1.429 . S
C1172 C1170 1.419 . S
C1172 C1173 1.363 1_545 S
C1172 H1175 0.929 . S
C1173 C1172 1.363 1_565 S
C1173 C1179 1.428 . S
H1174 C1170 0.930 . S
H1175 C1172 0.929 . S
S1176 N1177 1.613 . S
S1176 N1178 1.610 . S
N1177 S1176 1.613 . S
N1177 C1180 1.350 . S
N1178 S1176 1.610 . S
N1178 C1179 1.351 . S
C1179 C1173 1.428 . S
C1179 N1178 1.351 . S
C1179 C1180 1.434 . S
C1180 C1171 1.429 . S
C1180 N1177 1.350 . S
C1180 C1179 1.434 . S
C1181 C1182 1.369 1_655 S
C1181 C1183 1.419 . S
C1181 H1185 0.930 . S
C1182 C1181 1.369 1_455 S
C1182 C1191 1.429 . S
C1183 C1181 1.419 . S
C1183 C1184 1.363 1_655 S
C1183 H1186 0.929 . S
C1184 C1183 1.363 1_455 S
C1184 C1190 1.428 . S
H1185 C1181 0.930 . S
H1186 C1183 0.929 . S
S1187 N1188 1.613 . S
S1187 N1189 1.610 . S
N1188 S1187 1.613 . S
N1188 C1191 1.350 . S
N1189 S1187 1.610 . S
N1189 C1190 1.351 . S
C1190 C1184 1.428 . S
C1190 N1189 1.351 . S
C1190 C1191 1.434 . S
C1191 C1182 1.429 . S
C1191 N1188 1.350 . S
C1191 C1190 1.434 . S
C1192 C1193 1.369 . S
C1192 C1194 1.419 . S
C1192 H1196 0.930 . S
C1193 C1192 1.369 . S
C1193 C1202 1.429 . S
C1194 C1192 1.419 . S
C1194 C1195 1.363 . S
C1194 H1197 0.929 . S
C1195 C1194 1.363 . S
C1195 C1201 1.428 . S
H1196 C1192 0.930 . S
H1197 C1194 0.929 . S
S1198 N1199 1.613 . S
S1198 N1200 1.610 . S
N1199 S1198 1.613 . S
N1199 C1202 1.350 . S
N1200 S1198 1.610 . S
N1200 C1201 1.351 . S
C1201 C1195 1.428 . S
C1201 N1200 1.351 . S
C1201 C1202 1.434 . S
C1202 C1193 1.429 . S
C1202 N1199 1.350 . S
C1202 C1201 1.434 . S
C1203 C1204 1.369 . S
C1203 C1205 1.419 . S
C1203 H1207 0.930 . S
C1204 C1203 1.369 . S
C1204 C1213 1.429 . S
C1205 C1203 1.419 . S
C1205 C1206 1.363 . S
C1205 H1208 0.929 . S
C1206 C1205 1.363 . S
C1206 C1212 1.428 . S
H1207 C1203 0.930 . S
H1208 C1205 0.929 . S
S1209 N1210 1.613 . S
S1209 N1211 1.610 . S
N1210 S1209 1.613 . S
N1210 C1213 1.350 . S
N1211 S1209 1.610 . S
N1211 C1212 1.351 . S
C1212 C1206 1.428 . S
C1212 N1211 1.351 . S
C1212 C1213 1.434 . S
C1213 C1204 1.429 . S
C1213 N1210 1.350 . S
C1213 C1212 1.434 . S
C1214 C1215 1.369 . S
C1214 C1216 1.419 . S
C1214 H1218 0.930 . S
C1215 C1214 1.369 . S
C1215 C1224 1.429 . S
C1216 C1214 1.419 . S
C1216 C1217 1.363 . S
C1216 H1219 0.929 . S
C1217 C1216 1.363 . S
C1217 C1223 1.428 . S
H1218 C1214 0.930 . S
H1219 C1216 0.929 . S
S1220 N1221 1.613 . S
S1220 N1222 1.610 . S
N1221 S1220 1.613 . S
N1221 C1224 1.350 . S
N1222 S1220 1.610 . S
N1222 C1223 1.351 . S
C1223 C1217 1.428 . S
C1223 N1222 1.351 . S
C1223 C1224 1.434 . S
C1224 C1215 1.429 . S
C1224 N1221 1.350 . S
C1224 C1223 1.434 . S
C1225 C1226 1.369 . S
C1225 C1227 1.419 . S
C1225 H1229 0.930 . S
C1226 C1225 1.369 . S
C1226 C1235 1.429 . S
C1227 C1225 1.419 . S
C1227 C1228 1.363 . S
C1227 H1230 0.929 . S
C1228 C1227 1.363 . S
C1228 C1234 1.428 . S
H1229 C1225 0.930 . S
H1230 C1227 0.929 . S
S1231 N1232 1.613 . S
S1231 N1233 1.610 . S
N1232 S1231 1.613 . S
N1232 C1235 1.350 . S
N1233 S1231 1.610 . S
N1233 C1234 1.351 . S
C1234 C1228 1.428 . S
C1234 N1233 1.351 . S
C1234 C1235 1.434 . S
C1235 C1226 1.429 . S
C1235 N1232 1.350 . S
C1235 C1234 1.434 . S
C1236 C1237 1.369 . S
C1236 C1238 1.419 . S
C1236 H1240 0.930 . S
C1237 C1236 1.369 . S
C1237 C1246 1.429 1_545 S
C1238 C1236 1.419 . S
C1238 C1239 1.363 . S
C1238 H1241 0.929 . S
C1239 C1238 1.363 . S
C1239 C1245 1.428 1_545 S
H1240 C1236 0.930 . S
H1241 C1238 0.929 . S
S1242 N1243 1.613 . S
S1242 N1244 1.610 . S
N1243 S1242 1.613 . S
N1243 C1246 1.350 . S
N1244 S1242 1.610 . S
N1244 C1245 1.351 . S
C1245 C1239 1.428 1_565 S
C1245 N1244 1.351 . S
C1245 C1246 1.434 . S
C1246 C1237 1.429 1_565 S
C1246 N1243 1.350 . S
C1246 C1245 1.434 . S
C1247 C1248 1.369 . S
C1247 C1249 1.419 . S
C1247 H1251 0.930 . S
C1248 C1247 1.369 . S
C1248 C1257 1.429 1_655 S
C1249 C1247 1.419 . S
C1249 C1250 1.363 . S
C1249 H1252 0.929 . S
C1250 C1249 1.363 . S
C1250 C1256 1.428 1_655 S
H1251 C1247 0.930 . S
H1252 C1249 0.929 . S
S1253 N1254 1.613 . S
S1253 N1255 1.610 . S
N1254 S1253 1.613 . S
N1254 C1257 1.350 . S
N1255 S1253 1.610 . S
N1255 C1256 1.351 . S
C1256 C1250 1.428 1_455 S
C1256 N1255 1.351 . S
C1256 C1257 1.434 . S
C1257 C1248 1.429 1_455 S
C1257 N1254 1.350 . S
C1257 C1256 1.434 . S
C1258 C1259 1.369 . S
C1258 C1260 1.419 . S
C1258 H1262 0.930 . S
C1259 C1258 1.369 . S
C1259 C1268 1.429 . S
C1260 C1258 1.419 . S
C1260 C1261 1.363 . S
C1260 H1263 0.929 . S
C1261 C1260 1.363 . S
C1261 C1267 1.428 . S
H1262 C1258 0.930 . S
H1263 C1260 0.929 . S
S1264 N1265 1.613 . S
S1264 N1266 1.610 . S
N1265 S1264 1.613 . S
N1265 C1268 1.350 . S
N1266 S1264 1.610 . S
N1266 C1267 1.351 . S
C1267 C1261 1.428 . S
C1267 N1266 1.351 . S
C1267 C1268 1.434 . S
C1268 C1259 1.429 . S
C1268 N1265 1.350 . S
C1268 C1267 1.434 . S
C1269 C1270 1.369 . S
C1269 C1271 1.419 . S
C1269 H1273 0.930 . S
C1270 C1269 1.369 . S
C1270 C1279 1.429 . S
C1271 C1269 1.419 . S
C1271 C1272 1.363 . S
C1271 H1274 0.929 . S
C1272 C1271 1.363 . S
C1272 C1278 1.428 . S
H1273 C1269 0.930 . S
H1274 C1271 0.929 . S
S1275 N1276 1.613 . S
S1275 N1277 1.610 . S
N1276 S1275 1.613 . S
N1276 C1279 1.350 . S
N1277 S1275 1.610 . S
N1277 C1278 1.351 . S
C1278 C1272 1.428 . S
C1278 N1277 1.351 . S
C1278 C1279 1.434 . S
C1279 C1270 1.429 . S
C1279 N1276 1.350 . S
C1279 C1278 1.434 . S
C1280 C1281 1.369 . S
C1280 C1282 1.419 . S
C1280 H1284 0.930 . S
C1281 C1280 1.369 . S
C1281 C1290 1.429 . S
C1282 C1280 1.419 . S
C1282 C1283 1.363 . S
C1282 H1285 0.929 . S
C1283 C1282 1.363 . S
C1283 C1289 1.428 . S
H1284 C1280 0.930 . S
H1285 C1282 0.929 . S
S1286 N1287 1.613 . S
S1286 N1288 1.610 . S
N1287 S1286 1.613 . S
N1287 C1290 1.350 . S
N1288 S1286 1.610 . S
N1288 C1289 1.351 . S
C1289 C1283 1.428 . S
C1289 N1288 1.351 . S
C1289 C1290 1.434 . S
C1290 C1281 1.429 . S
C1290 N1287 1.350 . S
C1290 C1289 1.434 . S
C1291 C1292 1.369 . S
C1291 C1293 1.419 . S
C1291 H1295 0.930 . S
C1292 C1291 1.369 . S
C1292 C1301 1.429 . S
C1293 C1291 1.419 . S
C1293 C1294 1.363 . S
C1293 H1296 0.929 . S
C1294 C1293 1.363 . S
C1294 C1300 1.428 . S
H1295 C1291 0.930 . S
H1296 C1293 0.929 . S
S1297 N1298 1.613 . S
S1297 N1299 1.610 . S
N1298 S1297 1.613 . S
N1298 C1301 1.350 . S
N1299 S1297 1.610 . S
N1299 C1300 1.351 . S
C1300 C1294 1.428 . S
C1300 N1299 1.351 . S
C1300 C1301 1.434 . S
C1301 C1292 1.429 . S
C1301 N1298 1.350 . S
C1301 C1300 1.434 . S
C1302 C1303 1.369 . S
C1302 C1304 1.419 . S
C1302 H1306 0.930 . S
C1303 C1302 1.369 . S
C1303 C1312 1.429 . S
C1304 C1302 1.419 . S
C1304 C1305 1.363 . S
C1304 H1307 0.929 . S
C1305 C1304 1.363 . S
C1305 C1311 1.428 . S
H1306 C1302 0.930 . S
H1307 C1304 0.929 . S
S1308 N1309 1.613 . S
S1308 N1310 1.610 . S
N1309 S1308 1.613 . S
N1309 C1312 1.350 . S
N1310 S1308 1.610 . S
N1310 C1311 1.351 . S
C1311 C1305 1.428 . S
C1311 N1310 1.351 . S
C1311 C1312 1.434 . S
C1312 C1303 1.429 . S
C1312 N1309 1.350 . S
C1312 C1311 1.434 . S
C1313 C1314 1.369 . S
C1313 C1315 1.419 . S
C1313 H1317 0.930 . S
C1314 C1313 1.369 . S
C1314 C1323 1.429 . S
C1315 C1313 1.419 . S
C1315 C1316 1.363 . S
C1315 H1318 0.929 . S
C1316 C1315 1.363 . S
C1316 C1322 1.428 . S
H1317 C1313 0.930 . S
H1318 C1315 0.929 . S
S1319 N1320 1.613 . S
S1319 N1321 1.610 . S
N1320 S1319 1.613 . S
N1320 C1323 1.350 . S
N1321 S1319 1.610 . S
N1321 C1322 1.351 . S
C1322 C1316 1.428 . S
C1322 N1321 1.351 . S
C1322 C1323 1.434 . S
C1323 C1314 1.429 . S
C1323 N1320 1.350 . S
C1323 C1322 1.434 . S
C1324 C1325 1.369 . S
C1324 C1326 1.419 . S
C1324 H1328 0.930 . S
C1325 C1324 1.369 . S
C1325 C1334 1.429 . S
C1326 C1324 1.419 . S
C1326 C1327 1.363 . S
C1326 H1329 0.929 . S
C1327 C1326 1.363 . S
C1327 C1333 1.428 . S
H1328 C1324 0.930 . S
H1329 C1326 0.929 . S
S1330 N1331 1.613 . S
S1330 N1332 1.610 . S
N1331 S1330 1.613 . S
N1331 C1334 1.350 . S
N1332 S1330 1.610 . S
N1332 C1333 1.351 . S
C1333 C1327 1.428 . S
C1333 N1332 1.351 . S
C1333 C1334 1.434 . S
C1334 C1325 1.429 . S
C1334 N1331 1.350 . S
C1334 C1333 1.434 . S
C1335 C1336 1.369 1_455 S
C1335 C1337 1.419 . S
C1335 H1339 0.930 . S
C1336 C1335 1.369 1_655 S
C1336 C1345 1.429 . S
C1337 C1335 1.419 . S
C1337 C1338 1.363 1_455 S
C1337 H1340 0.929 . S
C1338 C1337 1.363 1_655 S
C1338 C1344 1.428 . S
H1339 C1335 0.930 . S
H1340 C1337 0.929 . S
S1341 N1342 1.613 . S
S1341 N1343 1.610 . S
N1342 S1341 1.613 . S
N1342 C1345 1.350 . S
N1343 S1341 1.610 . S
N1343 C1344 1.351 . S
C1344 C1338 1.428 . S
C1344 N1343 1.351 . S
C1344 C1345 1.434 . S
C1345 C1336 1.429 . S
C1345 N1342 1.350 . S
C1345 C1344 1.434 . S
C1346 C1347 1.369 . S
C1346 C1348 1.419 . S
C1346 H1350 0.930 . S
C1347 C1346 1.369 . S
C1347 C1356 1.429 . S
C1348 C1346 1.419 . S
C1348 C1349 1.363 . S
C1348 H1351 0.929 . S
C1349 C1348 1.363 . S
C1349 C1355 1.428 . S
H1350 C1346 0.930 . S
H1351 C1348 0.929 . S
S1352 N1353 1.613 . S
S1352 N1354 1.610 . S
N1353 S1352 1.613 . S
N1353 C1356 1.350 . S
N1354 S1352 1.610 . S
N1354 C1355 1.351 . S
C1355 C1349 1.428 . S
C1355 N1354 1.351 . S
C1355 C1356 1.434 . S
C1356 C1347 1.429 . S
C1356 N1353 1.350 . S
C1356 C1355 1.434 . S
C1357 C1358 1.369 1_565 S
C1357 C1359 1.419 . S
C1357 H1361 0.930 . S
C1358 C1357 1.369 1_545 S
C1358 C1367 1.429 . S
C1359 C1357 1.419 . S
C1359 C1360 1.363 1_565 S
C1359 H1362 0.929 . S
C1360 C1359 1.363 1_545 S
C1360 C1366 1.428 . S
H1361 C1357 0.930 . S
H1362 C1359 0.929 . S
S1363 N1364 1.613 . S
S1363 N1365 1.610 . S
N1364 S1363 1.613 . S
N1364 C1367 1.350 . S
N1365 S1363 1.610 . S
N1365 C1366 1.351 . S
C1366 C1360 1.428 . S
C1366 N1365 1.351 . S
C1366 C1367 1.434 . S
C1367 C1358 1.429 . S
C1367 N1364 1.350 . S
C1367 C1366 1.434 . S
C577 C8 1.539 1_655 S
C579 C421 1.523 . S
C588 C22 1.552 . S
C590 C446 1.528 . S
C601 C457 1.523 . S
C599 C37 1.551 1_545 S
C610 C36 1.544 1_565 S
C612 C482 1.529 . S
C621 C9 1.553 1_455 S
C623 C500 1.537 . S
C632 C23 1.549 . S
C634 C511 1.523 . S
C643 C50 1.541 . S
C645 C493 1.511 . S
C656 C518 1.515 . S
C654 C64 1.525 . S
C667 C475 1.520 . S
C665 C79 1.513 . S
C676 C78 1.544 . S
C678 C464 1.506 . S
C689 C428 1.530 . S
C687 C51 1.522 . S
C698 C65 1.523 . S
C700 C439 1.512 . S
C709 C92 1.553 . S
C711 C529 1.521 . S
C720 C106 1.554 . S
C722 C554 1.532 . S
C733 C565 1.524 . S
C731 C121 1.553 . S
C742 C120 1.550 . S
C744 C266 1.534 . S
C753 C93 1.554 . S
C755 C284 1.531 . S
C764 C107 1.553 . S
C766 C295 1.525 . S
C775 C134 1.525 . S
C777 C277 1.513 . S
C786 C148 1.521 . S
C788 C302 1.513 . S
C799 C259 1.513 . S
C797 C163 1.520 . S
C810 C572 1.519 . S
C808 C162 1.523 . S
C821 C536 1.516 . S
C819 C135 1.520 . S
C832 C547 1.513 . S
C830 C149 1.526 . S
C841 C176 1.552 . S
C843 C313 1.520 . S
C852 C190 1.550 . S
C854 C338 1.528 . S
C863 C205 1.553 . S
C865 C349 1.523 . S
C874 C204 1.553 . S
C876 C374 1.530 . S
C887 C392 1.533 . S
C885 C177 1.554 . S
C898 C403 1.520 . S
C896 C191 1.551 . S
C909 C385 1.516 . S
C907 C218 1.520 . S
C920 C410 1.518 . S
C918 C232 1.525 . S
C929 C247 1.520 . S
C931 C367 1.517 . S
C942 C356 1.516 . S
C940 C246 1.520 . S
C951 C219 1.521 . S
C953 C320 1.518 . S
C964 C331 1.514 . S
C962 C233 1.520 . S
C975 C268 1.441 . S
C973 C6 1.461 . S
C984 C20 1.471 . S
C986 C286 1.437 . S
C997 C296 1.446 . S
C995 C35 1.463 . S
C1008 C314 1.446 . S
C1006 C34 1.461 . S
C1019 C340 1.444 . S
C1017 C7 1.466 . S
C1030 C350 1.445 . S
C1028 C21 1.463 . S
C1039 C48 1.492 . S
C1041 C358 1.447 . S
C1050 C62 1.488 . S
C1052 C322 1.443 . S
C1061 C77 1.485 . S
C1063 C332 1.444 . S
C1072 C76 1.485 . S
C1074 C278 1.449 . S
C1085 C304 1.439 . S
C1083 C49 1.483 . S
C1094 C63 1.486 . S
C1096 C260 1.454 . S
C1107 C376 1.439 . S
C1105 C90 1.473 . S
C1116 C104 1.464 . S
C1118 C394 1.444 . S
C1127 C119 1.467 . S
C1129 C404 1.441 . S
C1140 C422 1.443 . S
C1138 C118 1.457 . S
C1149 C91 1.472 . S
C1151 C448 1.438 . S
C1160 C105 1.465 . S
C1162 C458 1.451 . S
C1171 C132 1.484 . S
C1173 C466 1.455 . S
C1182 C146 1.487 . S
C1184 C430 1.426 . S
C1195 C440 1.453 . S
C1193 C161 1.485 . S
C1204 C160 1.486 . S
C1206 C386 1.444 . S
C1215 C133 1.485 . S
C1217 C412 1.445 . S
C1228 C368 1.454 . S
C1226 C147 1.486 . S
C1239 C484 1.437 . S
C1237 C174 1.467 . S
C1248 C188 1.471 . S
C1250 C502 1.440 . S
C1259 C203 1.463 . S
C1261 C512 1.448 . S
C1272 C530 1.439 . S
C1270 C202 1.468 . S
C1283 C556 1.437 . S
C1281 C175 1.471 . S
C1292 C189 1.466 . S
C1294 C566 1.443 . S
C1303 C216 1.492 . S
C1305 C574 1.442 . S
C1314 C230 1.489 . S
C1316 C538 1.444 . S
C1327 C548 1.452 . S
C1325 C245 1.488 . S
C1338 C494 1.426 1_655 S
C1336 C244 1.477 . S
C1349 C520 1.443 . S
C1347 C217 1.483 . S
C1358 C231 1.487 . S
C1360 C476 1.463 1_545 S
