# Generated by pormake.
# Topology pyr, (3,6)-cn, num edge types: 1
# Building blocks:
#     Node 0, Type 0, BuildingBlock: VETTIZ_charged_linker_0, # of connection points: 3
#     Node 1, Type 0, BuildingBlock: VETTIZ_charged_linker_0, # of connection points: 3
#     Node 2, Type 0, BuildingBlock: VETTIZ_charged_linker_0, # of connection points: 3
#     Node 3, Type 0, BuildingBlock: VETTIZ_charged_linker_0, # of connection points: 3
#     Node 4, Type 0, BuildingBlock: VETTIZ_charged_linker_0, # of connection points: 3
#     Node 5, Type 0, BuildingBlock: VETTIZ_charged_linker_0, # of connection points: 3
#     Node 6, Type 0, BuildingBlock: VETTIZ_charged_linker_0, # of connection points: 3
#     Node 7, Type 0, BuildingBlock: VETTIZ_charged_linker_0, # of connection points: 3
#     Node 8, Type 1, BuildingBlock: BETFAJ_clean_sbu_0, # of connection points: 6
#     Node 9, Type 1, BuildingBlock: BETFAJ_clean_sbu_0, # of connection points: 6
#     Node 10, Type 1, BuildingBlock: BETFAJ_clean_sbu_0, # of connection points: 6
#     Node 11, Type 1, BuildingBlock: BETFAJ_clean_sbu_0, # of connection points: 6
#     Edge 12, Type (0, 1), BuildingBlock: TEMPAE_clean_linker_10, # of connection points: 2
#     Edge 13, Type (0, 1), BuildingBlock: TEMPAE_clean_linker_10, # of connection points: 2
#     Edge 14, Type (0, 1), BuildingBlock: TEMPAE_clean_linker_10, # of connection points: 2
#     Edge 15, Type (0, 1), BuildingBlock: TEMPAE_clean_linker_10, # of connection points: 2
#     Edge 16, Type (0, 1), BuildingBlock: TEMPAE_clean_linker_10, # of connection points: 2
#     Edge 17, Type (0, 1), BuildingBlock: TEMPAE_clean_linker_10, # of connection points: 2
#     Edge 18, Type (0, 1), BuildingBlock: TEMPAE_clean_linker_10, # of connection points: 2
#     Edge 19, Type (0, 1), BuildingBlock: TEMPAE_clean_linker_10, # of connection points: 2
#     Edge 20, Type (0, 1), BuildingBlock: TEMPAE_clean_linker_10, # of connection points: 2
#     Edge 21, Type (0, 1), BuildingBlock: TEMPAE_clean_linker_10, # of connection points: 2
#     Edge 22, Type (0, 1), BuildingBlock: TEMPAE_clean_linker_10, # of connection points: 2
#     Edge 23, Type (0, 1), BuildingBlock: TEMPAE_clean_linker_10, # of connection points: 2
#     Edge 24, Type (0, 1), BuildingBlock: TEMPAE_clean_linker_10, # of connection points: 2
#     Edge 25, Type (0, 1), BuildingBlock: TEMPAE_clean_linker_10, # of connection points: 2
#     Edge 26, Type (0, 1), BuildingBlock: TEMPAE_clean_linker_10, # of connection points: 2
#     Edge 27, Type (0, 1), BuildingBlock: TEMPAE_clean_linker_10, # of connection points: 2
#     Edge 28, Type (0, 1), BuildingBlock: TEMPAE_clean_linker_10, # of connection points: 2
#     Edge 29, Type (0, 1), BuildingBlock: TEMPAE_clean_linker_10, # of connection points: 2
#     Edge 30, Type (0, 1), BuildingBlock: TEMPAE_clean_linker_10, # of connection points: 2
#     Edge 31, Type (0, 1), BuildingBlock: TEMPAE_clean_linker_10, # of connection points: 2
#     Edge 32, Type (0, 1), BuildingBlock: TEMPAE_clean_linker_10, # of connection points: 2
#     Edge 33, Type (0, 1), BuildingBlock: TEMPAE_clean_linker_10, # of connection points: 2
#     Edge 34, Type (0, 1), BuildingBlock: TEMPAE_clean_linker_10, # of connection points: 2
#     Edge 35, Type (0, 1), BuildingBlock: TEMPAE_clean_linker_10, # of connection points: 2
# Relax obj value: 0.095
# Max RMSD: 0.121
# Mean RMSD: 0.058
data_MOF--net-pyr--node1-BETFAJ_clean_sbu_0--node2-VETTIZ_charged_linker_0--edge1-TEMPAE_clean_linker_10
_symmetry_space_group_name_H-M    P1
_symmetry_Int_Tables_number       1
_symmetry_cell_setting            triclinic
loop_
_symmetry_equiv_pos_as_xyz
'x, y, z'
_cell_length_a     46.644454
_cell_length_b     48.700052
_cell_length_c     44.331467
_cell_angle_alpha  91.052339
_cell_angle_beta   88.475632
_cell_angle_gamma 100.20559
loop_
_atom_site_label
_atom_site_type_symbol
_atom_site_fract_x
_atom_site_fract_y
_atom_site_fract_z
_atom_type_partial_charge
C0 C 0.28072 0.2556 0.34357 0.0
C1 C 0.26278 0.27263 0.35788 0.0
C2 C 0.26421 0.30009 0.34757 0.0
C3 C 0.29503 0.29055 0.30534 0.0
C4 C 0.29684 0.2651 0.31756 0.0
C5 C 0.31556 0.24913 0.29837 0.0
H6 H 0.38678 0.2345 0.16591 0.0
C7 C 0.30975 0.29212 0.27542 0.0
C8 C 0.32268 0.26837 0.27156 0.0
H9 H 0.3795 0.18206 0.24464 0.0
H10 H 0.35299 0.21318 0.27138 0.0
H11 H 0.39709 0.29586 0.20086 0.0
H12 H 0.32084 0.24077 0.16925 0.0
H13 H 0.31484 0.27487 0.16426 0.0
H14 H 0.34464 0.26313 0.14406 0.0
H15 H 0.39016 0.2882 0.16165 0.0
H16 H 0.37527 0.31542 0.18123 0.0
C17 C 0.34309 0.24668 0.31628 0.0
C18 C 0.29689 0.22076 0.28923 0.0
C19 C 0.2836 0.35986 0.20029 0.0
C20 C 0.28802 0.3626 0.16894 0.0
C21 C 0.30785 0.34776 0.15419 0.0
C22 C 0.3217 0.32937 0.17022 0.0
C23 C 0.3153 0.32545 0.2012 0.0
C24 C 0.29713 0.34118 0.21582 0.0
C25 C 0.29152 0.33359 0.24837 0.0
C26 C 0.30871 0.31007 0.25079 0.0
C27 C 0.32249 0.30523 0.2231 0.0
C28 C 0.30413 0.3592 0.26828 0.0
C29 C 0.25827 0.32338 0.25293 0.0
C30 C 0.37944 0.22959 0.18887 0.0
C31 C 0.38571 0.20574 0.20312 0.0
C32 C 0.37577 0.20051 0.23318 0.0
C33 C 0.36011 0.21854 0.24871 0.0
C34 C 0.35369 0.24191 0.23402 0.0
C35 C 0.36333 0.24721 0.20462 0.0
C36 C 0.3532 0.27243 0.19233 0.0
C37 C 0.33719 0.2821 0.21974 0.0
C38 C 0.33733 0.2639 0.24393 0.0
C39 C 0.38025 0.29421 0.1833 0.0
C40 C 0.33245 0.26256 0.16597 0.0
H41 H 0.27946 0.32974 0.3138 0.0
H42 H 0.2806 0.23453 0.35097 0.0
H43 H 0.27474 0.2236 0.28273 0.0
H44 H 0.30589 0.21081 0.26946 0.0
H45 H 0.29436 0.2059 0.30824 0.0
H46 H 0.348 0.2637 0.33347 0.0
H47 H 0.34032 0.22656 0.32834 0.0
H48 H 0.36298 0.24888 0.30168 0.0
H49 H 0.26825 0.37057 0.21234 0.0
H50 H 0.31201 0.34978 0.13011 0.0
H51 H 0.33609 0.31821 0.15771 0.0
H52 H 0.32103 0.37407 0.25586 0.0
H53 H 0.28683 0.37089 0.27603 0.0
H54 H 0.3154 0.3532 0.28817 0.0
H55 H 0.24978 0.30841 0.23465 0.0
H56 H 0.25223 0.31228 0.27416 0.0
H57 H 0.24627 0.34113 0.25251 0.0
H58 H 0.25162 0.3141 0.35882 0.0
C59 C 0.28032 0.30915 0.32142 0.0
C60 C 0.22693 0.89278 0.56356 0.0
C61 C 0.20972 0.904 0.58533 0.0
C62 C 0.21741 0.90486 0.61584 0.0
C63 C 0.26102 0.88661 0.60209 0.0
C64 C 0.25238 0.88407 0.57244 0.0
C65 C 0.27365 0.87217 0.55219 0.0
H66 H 0.40191 0.82676 0.53719 0.0
C67 C 0.29005 0.87878 0.60327 0.0
C68 C 0.29759 0.87027 0.57416 0.0
H69 H 0.33243 0.81758 0.47327 0.0
H70 H 0.3057 0.84495 0.50618 0.0
H71 H 0.39918 0.89207 0.55965 0.0
H72 H 0.36238 0.81003 0.59136 0.0
H73 H 0.37496 0.83063 0.62289 0.0
H74 H 0.40047 0.82446 0.59351 0.0
H75 H 0.42032 0.87107 0.57937 0.0
H76 H 0.39938 0.89387 0.59924 0.0
C77 C 0.28433 0.89319 0.52679 0.0
C78 C 0.25859 0.843 0.54071 0.0
C79 C 0.34527 0.8924 0.70087 0.0
C80 C 0.37404 0.89082 0.70802 0.0
C81 C 0.39295 0.88291 0.68553 0.0
C82 C 0.38315 0.87638 0.6562 0.0
C83 C 0.35425 0.87809 0.64932 0.0
C84 C 0.33598 0.88629 0.67144 0.0
C85 C 0.30678 0.88908 0.6596 0.0
C86 C 0.31027 0.88056 0.62684 0.0
C87 C 0.33795 0.8739 0.62102 0.0
C88 C 0.30331 0.9201 0.66318 0.0
C89 C 0.28313 0.86816 0.67649 0.0
C90 C 0.38151 0.83165 0.52965 0.0
C91 C 0.3694 0.82044 0.50244 0.0
C92 C 0.34223 0.82627 0.49402 0.0
C93 C 0.32662 0.84174 0.51335 0.0
C94 C 0.3381 0.85091 0.54157 0.0
C95 C 0.36535 0.84621 0.54906 0.0
C96 C 0.37299 0.85487 0.58099 0.0
C97 C 0.34538 0.86465 0.59181 0.0
C98 C 0.32524 0.8627 0.56854 0.0
C99 C 0.39946 0.8791 0.58002 0.0
C100 C 0.37819 0.82883 0.59826 0.0
H101 H 0.24826 0.89814 0.6478 0.0
H102 H 0.22107 0.89156 0.54003 0.0
H103 H 0.23993 0.83388 0.55568 0.0
H104 H 0.27335 0.82752 0.54058 0.0
H105 H 0.25001 0.8441 0.51772 0.0
H106 H 0.28998 0.91472 0.53628 0.0
H107 H 0.26714 0.89313 0.5099 0.0
H108 H 0.30419 0.88895 0.51487 0.0
H109 H 0.33057 0.89916 0.71763 0.0
H110 H 0.41527 0.88176 0.69072 0.0
H111 H 0.39847 0.87037 0.64 0.0
H112 H 0.32474 0.93429 0.66098 0.0
H113 H 0.29372 0.9242 0.68566 0.0
H114 H 0.29004 0.92692 0.64548 0.0
H115 H 0.29111 0.84841 0.68087 0.0
H116 H 0.26323 0.86175 0.6633 0.0
H117 H 0.27713 0.87689 0.69861 0.0
H118 H 0.20431 0.91348 0.63287 0.0
C119 C 0.24304 0.89623 0.62435 0.0
C120 C 0.6288 0.2733 0.91211 0.0
C121 C 0.6028 0.25654 0.90238 0.0
C122 C 0.58849 0.26613 0.87793 0.0
C123 C 0.6256 0.30819 0.87404 0.0
C124 C 0.63959 0.29874 0.89787 0.0
C125 C 0.66665 0.31876 0.90624 0.0
H126 H 0.76161 0.43951 0.88511 0.0
C127 C 0.64276 0.33574 0.86456 0.0
C128 C 0.66682 0.34184 0.8836 0.0
H129 H 0.7631 0.3761 0.9518 0.0
H130 H 0.71927 0.34919 0.93217 0.0
H131 H 0.69248 0.43919 0.89127 0.0
H132 H 0.7414 0.39572 0.82851 0.0
H133 H 0.71533 0.40954 0.80839 0.0
H134 H 0.74334 0.43287 0.82795 0.0
H135 H 0.71463 0.45685 0.86134 0.0
H136 H 0.67742 0.44016 0.85549 0.0
C137 C 0.66245 0.32906 0.93914 0.0
C138 C 0.69304 0.30368 0.90114 0.0
C139 C 0.6106 0.3898 0.7767 0.0
C140 C 0.62233 0.41564 0.76319 0.0
C141 C 0.64811 0.43114 0.77528 0.0
C142 C 0.66198 0.42128 0.7996 0.0
C143 C 0.65015 0.39551 0.81259 0.0
C144 C 0.62479 0.3802 0.80122 0.0
C145 C 0.61533 0.35332 0.81825 0.0
C146 C 0.63914 0.35502 0.84153 0.0
C147 C 0.65959 0.37991 0.83806 0.0
C148 C 0.58519 0.35406 0.83331 0.0
C149 C 0.6156 0.32861 0.79591 0.0
C150 C 0.75252 0.41973 0.89531 0.0
C151 C 0.76596 0.41012 0.92032 0.0
C152 C 0.75314 0.38434 0.93295 0.0
C153 C 0.72763 0.36858 0.92136 0.0
C154 C 0.71428 0.37849 0.8967 0.0
C155 C 0.72666 0.40368 0.88405 0.0
C156 C 0.70886 0.41091 0.85825 0.0
C157 C 0.68397 0.38587 0.85751 0.0
C158 C 0.68744 0.36695 0.8801 0.0
C159 C 0.69783 0.4383 0.8667 0.0
C160 C 0.72811 0.41259 0.82915 0.0
H161 H 0.58765 0.29772 0.84547 0.0
H162 H 0.64084 0.26672 0.93038 0.0
H163 H 0.68986 0.28946 0.88111 0.0
H164 H 0.71361 0.31813 0.89617 0.0
H165 H 0.69605 0.2909 0.92093 0.0
H166 H 0.63915 0.32987 0.94439 0.0
H167 H 0.66963 0.31495 0.95566 0.0
H168 H 0.67394 0.3506 0.94331 0.0
H169 H 0.59099 0.37708 0.76818 0.0
H170 H 0.65752 0.45132 0.76621 0.0
H171 H 0.68143 0.43427 0.80746 0.0
H172 H 0.58429 0.37519 0.84284 0.0
H173 H 0.56755 0.34893 0.81669 0.0
H174 H 0.58032 0.33976 0.85251 0.0
H175 H 0.63525 0.33258 0.78076 0.0
H176 H 0.61663 0.30887 0.80728 0.0
H177 H 0.5961 0.32551 0.78154 0.0
H178 H 0.56826 0.2541 0.86998 0.0
C179 C 0.59969 0.29169 0.86378 0.0
C180 C 0.90444 0.77794 0.38998 0.0
C181 C 0.89271 0.79237 0.41403 0.0
C182 C 0.86655 0.77927 0.42826 0.0
C183 C 0.86369 0.73913 0.39449 0.0
C184 C 0.88956 0.7514 0.38062 0.0
C185 C 0.89858 0.73291 0.35555 0.0
H186 H 0.86939 0.6118 0.27253 0.0
C187 C 0.85347 0.7117 0.37965 0.0
C188 C 0.87383 0.70771 0.35676 0.0
H189 H 0.94388 0.67818 0.26361 0.0
H190 H 0.92524 0.70357 0.30486 0.0
H191 H 0.86922 0.61079 0.34494 0.0
H192 H 0.81989 0.65261 0.28513 0.0
H193 H 0.79641 0.63496 0.31312 0.0
H194 H 0.81537 0.61527 0.28711 0.0
H195 H 0.83974 0.59197 0.32352 0.0
H196 H 0.83348 0.60778 0.35968 0.0
C197 C 0.9281 0.72504 0.36372 0.0
C198 C 0.89934 0.74867 0.32549 0.0
C199 C 0.7576 0.65363 0.41597 0.0
C200 C 0.74224 0.627 0.40831 0.0
C201 C 0.75415 0.61142 0.38554 0.0
C202 C 0.78057 0.6224 0.3704 0.0
C203 C 0.79561 0.64918 0.37828 0.0
C204 C 0.7841 0.66409 0.40101 0.0
C205 C 0.80337 0.69157 0.4076 0.0
C206 C 0.82821 0.69107 0.38483 0.0
C207 C 0.82359 0.66632 0.36741 0.0
C208 C 0.81366 0.69119 0.44059 0.0
C209 C 0.78601 0.71507 0.40099 0.0
C210 C 0.88156 0.63193 0.27924 0.0
C211 C 0.90823 0.6429 0.26449 0.0
C212 C 0.92349 0.669 0.27456 0.0
C213 C 0.91254 0.68383 0.29852 0.0
C214 C 0.88597 0.67256 0.31303 0.0
C215 C 0.871 0.64692 0.30339 0.0
C216 C 0.84352 0.63775 0.32202 0.0
C217 C 0.84417 0.66219 0.34406 0.0
C218 C 0.86915 0.68271 0.33872 0.0
C219 C 0.84633 0.61054 0.33833 0.0
C220 C 0.81727 0.63477 0.30089 0.0
H221 H 0.83228 0.74461 0.43057 0.0
H222 H 0.92447 0.7872 0.37843 0.0
H223 H 0.88039 0.75962 0.3244 0.0
H224 H 0.89772 0.73468 0.30552 0.0
H225 H 0.9195 0.76458 0.32324 0.0
H226 H 0.92878 0.72118 0.38833 0.0
H227 H 0.94648 0.74209 0.35796 0.0
H228 H 0.93196 0.70552 0.35261 0.0
H229 H 0.74941 0.66595 0.43373 0.0
H230 H 0.74278 0.59086 0.37916 0.0
H231 H 0.78831 0.6096 0.35312 0.0
H232 H 0.81445 0.66958 0.44785 0.0
H233 H 0.79873 0.69989 0.45658 0.0
H234 H 0.83614 0.7026 0.4435 0.0
H235 H 0.77248 0.70977 0.38069 0.0
H236 H 0.8001 0.73519 0.39573 0.0
H237 H 0.77113 0.7182 0.42023 0.0
H238 H 0.85725 0.7892 0.44728 0.0
C239 C 0.85208 0.75304 0.41865 0.0
C240 C 0.73303 0.73034 0.89509 0.0
C241 C 0.75289 0.71406 0.88308 0.0
C242 C 0.75738 0.71295 0.85153 0.0
C243 C 0.72514 0.74599 0.84482 0.0
C244 C 0.7193 0.74599 0.87551 0.0
C245 C 0.69847 0.76538 0.8842 0.0
H246 H 0.62376 0.86551 0.84274 0.0
C247 C 0.70974 0.7663 0.83095 0.0
C248 C 0.6935 0.77738 0.85368 0.0
H249 H 0.63032 0.83279 0.93199 0.0
H250 H 0.65825 0.79955 0.91146 0.0
H251 H 0.61663 0.80614 0.80456 0.0
H252 H 0.68987 0.86941 0.82758 0.0
H253 H 0.69637 0.85831 0.79067 0.0
H254 H 0.66508 0.87445 0.7988 0.0
H255 H 0.62288 0.84041 0.78871 0.0
H256 H 0.63945 0.81271 0.77223 0.0
C257 C 0.67027 0.74768 0.8975 0.0
C258 C 0.71419 0.78797 0.90608 0.0
C259 C 0.73913 0.79794 0.72505 0.0
C260 C 0.73283 0.81985 0.7076 0.0
C261 C 0.70904 0.83271 0.71656 0.0
C262 C 0.69377 0.82567 0.74386 0.0
C263 C 0.7025 0.80574 0.76249 0.0
C264 C 0.72392 0.79138 0.75226 0.0
C265 C 0.73089 0.77123 0.77501 0.0
C266 C 0.71116 0.77688 0.80127 0.0
C267 C 0.69477 0.79728 0.79399 0.0
C268 C 0.72206 0.74122 0.76194 0.0
C269 C 0.76365 0.77955 0.78254 0.0
C270 C 0.63118 0.85127 0.85798 0.0
C271 C 0.62459 0.85197 0.88914 0.0
C272 C 0.6345 0.83259 0.90786 0.0
C273 C 0.65107 0.81341 0.89594 0.0
C274 C 0.65839 0.8138 0.865 0.0
C275 C 0.64826 0.83236 0.84654 0.0
C276 C 0.65961 0.83099 0.81458 0.0
C277 C 0.67765 0.80808 0.81674 0.0
C278 C 0.67696 0.79814 0.8464 0.0
C279 C 0.63339 0.8223 0.7937 0.0
C280 C 0.67859 0.85971 0.80719 0.0
H281 H 0.74848 0.72735 0.80878 0.0
H282 H 0.72875 0.73133 0.91918 0.0
H283 H 0.7375 0.79431 0.89916 0.0
H284 H 0.70521 0.80745 0.90624 0.0
H285 H 0.71347 0.78004 0.92947 0.0
H286 H 0.66518 0.72711 0.88567 0.0
H287 H 0.67254 0.74366 0.92183 0.0
H288 H 0.65085 0.75738 0.8946 0.0
H289 H 0.7573 0.78765 0.71918 0.0
H290 H 0.70316 0.84917 0.70321 0.0
H291 H 0.67667 0.83695 0.75009 0.0
H292 H 0.70509 0.74013 0.74457 0.0
H293 H 0.74102 0.73367 0.75113 0.0
H294 H 0.71208 0.72619 0.77933 0.0
H295 H 0.77005 0.80264 0.78426 0.0
H296 H 0.76926 0.7718 0.8044 0.0
H297 H 0.77767 0.77201 0.76472 0.0
H298 H 0.77275 0.70094 0.84158 0.0
C299 C 0.74345 0.72858 0.83242 0.0
C300 C 0.81789 0.18231 0.49942 0.0
C301 C 0.83155 0.16715 0.47799 0.0
C302 C 0.82363 0.16676 0.44759 0.0
C303 C 0.78631 0.19395 0.46094 0.0
C304 C 0.79548 0.19565 0.49041 0.0
C305 C 0.77815 0.2121 0.5105 0.0
H306 H 0.66433 0.27943 0.52815 0.0
C307 C 0.7606 0.20762 0.45975 0.0
C308 C 0.75579 0.21837 0.48865 0.0
H309 H 0.73294 0.27646 0.5909 0.0
H310 H 0.75435 0.24614 0.55636 0.0
H311 H 0.65644 0.21323 0.50296 0.0
H312 H 0.70514 0.29221 0.47376 0.0
H313 H 0.69136 0.27375 0.44135 0.0
H314 H 0.66641 0.28313 0.46986 0.0
H315 H 0.63943 0.23977 0.48709 0.0
H316 H 0.65375 0.21449 0.46357 0.0
C317 C 0.76389 0.19307 0.5364 0.0
C318 C 0.79866 0.23897 0.52123 0.0
C319 C 0.70328 0.20162 0.3636 0.0
C320 C 0.6767 0.2094 0.35642 0.0
C321 C 0.66179 0.22303 0.37849 0.0
C322 C 0.67316 0.22868 0.40737 0.0
C323 C 0.69962 0.22042 0.4143 0.0
C324 C 0.71419 0.20717 0.39253 0.0
C325 C 0.74125 0.19869 0.40416 0.0
C326 C 0.74078 0.20939 0.43646 0.0
C327 C 0.7164 0.22208 0.44228 0.0
C328 C 0.73727 0.1664 0.40231 0.0
C329 C 0.76781 0.21417 0.38582 0.0
C330 C 0.68336 0.27136 0.53493 0.0
C331 C 0.69665 0.2796 0.56251 0.0
C332 C 0.72217 0.26988 0.56997 0.0
C333 C 0.73469 0.25265 0.54972 0.0
C334 C 0.72184 0.24569 0.52157 0.0
C335 C 0.69651 0.25493 0.51467 0.0
C336 C 0.6874 0.24792 0.48275 0.0
C337 C 0.71173 0.23327 0.47141 0.0
C338 C 0.7315 0.23163 0.49437 0.0
C339 C 0.65761 0.22796 0.48388 0.0
C340 C 0.68731 0.27554 0.46589 0.0
H341 H 0.79527 0.17851 0.41559 0.0
H342 H 0.82406 0.1831 0.52285 0.0
H343 H 0.81794 0.24451 0.50578 0.0
H344 H 0.78792 0.25751 0.52134 0.0
H345 H 0.80693 0.23641 0.54409 0.0
H346 H 0.75428 0.17206 0.52743 0.0
H347 H 0.78023 0.19031 0.55334 0.0
H348 H 0.74584 0.20104 0.54816 0.0
H349 H 0.71489 0.19052 0.34734 0.0
H350 H 0.64128 0.22923 0.3734 0.0
H351 H 0.66079 0.23903 0.42325 0.0
H352 H 0.71422 0.1567 0.40726 0.0
H353 H 0.74318 0.15924 0.37942 0.0
H354 H 0.74993 0.15751 0.4191 0.0
H355 H 0.76444 0.23538 0.37958 0.0
H356 H 0.78808 0.21776 0.39876 0.0
H357 H 0.7714 0.20266 0.36459 0.0
H358 H 0.83411 0.15511 0.43087 0.0
C359 C 0.80098 0.18012 0.43891 0.0
C360 C 0.40859 0.67306 0.30327 0.0
C361 C 0.39491 0.6489 0.31904 0.0
C362 C 0.36632 0.63678 0.31041 0.0
C363 C 0.36684 0.67057 0.2706 0.0
C364 C 0.39402 0.68371 0.2797 0.0
C365 C 0.40442 0.71016 0.26214 0.0
H366 H 0.37926 0.79903 0.15206 0.0
C367 C 0.35775 0.68635 0.24515 0.0
C368 C 0.37957 0.70999 0.24034 0.0
H369 H 0.45304 0.809 0.21077 0.0
H370 H 0.43325 0.76515 0.23462 0.0
H371 H 0.33001 0.77612 0.20183 0.0
H372 H 0.37942 0.73589 0.13703 0.0
H373 H 0.34496 0.71463 0.13935 0.0
H374 H 0.34824 0.75007 0.12652 0.0
H375 H 0.32491 0.7766 0.16185 0.0
H376 H 0.30576 0.74878 0.18485 0.0
C377 C 0.40714 0.73517 0.28455 0.0
C378 C 0.43323 0.70743 0.2453 0.0
C379 C 0.26494 0.64717 0.18768 0.0
C380 C 0.25214 0.65637 0.16202 0.0
C381 C 0.2654 0.68189 0.14907 0.0
C382 C 0.29082 0.69768 0.16089 0.0
C383 C 0.3036 0.68807 0.1861 0.0
C384 C 0.29069 0.66322 0.19915 0.0
C385 C 0.30765 0.65641 0.2258 0.0
C386 C 0.33311 0.68093 0.22605 0.0
C387 C 0.33041 0.69948 0.20283 0.0
C388 C 0.28797 0.65615 0.25456 0.0
C389 C 0.31792 0.62841 0.21887 0.0
C390 C 0.39139 0.79186 0.1699 0.0
C391 C 0.41784 0.80798 0.17942 0.0
C392 C 0.43241 0.79754 0.20313 0.0
C393 C 0.42092 0.77192 0.21697 0.0
C394 C 0.39436 0.75627 0.20724 0.0
C395 C 0.38023 0.76637 0.18392 0.0
C396 C 0.35261 0.74696 0.17585 0.0
C397 C 0.35191 0.72388 0.19862 0.0
C398 C 0.37643 0.72923 0.21712 0.0
C399 C 0.32684 0.76281 0.18109 0.0
C400 C 0.35618 0.73637 0.14296 0.0
H401 H 0.33108 0.63658 0.28109 0.0
H402 H 0.43024 0.68358 0.30879 0.0
H403 H 0.4316 0.68639 0.23459 0.0
H404 H 0.43864 0.72245 0.22681 0.0
H405 H 0.45167 0.71028 0.26107 0.0
H406 H 0.38914 0.73189 0.3018 0.0
H407 H 0.42805 0.73792 0.2966 0.0
H408 H 0.4053 0.75492 0.27359 0.0
H409 H 0.25545 0.62769 0.19826 0.0
H410 H 0.2559 0.68988 0.12977 0.0
H411 H 0.29954 0.71685 0.14984 0.0
H412 H 0.27182 0.67025 0.25234 0.0
H413 H 0.27563 0.63489 0.25905 0.0
H414 H 0.30043 0.66408 0.27476 0.0
H415 H 0.32731 0.62827 0.19555 0.0
H416 H 0.3352 0.62448 0.23385 0.0
H417 H 0.29941 0.61064 0.22064 0.0
H418 H 0.35395 0.61931 0.32244 0.0
C419 C 0.35258 0.64715 0.28636 0.0
C420 C 0.1119 0.28212 0.6897 0.0
C421 C 0.12345 0.26815 0.66514 0.0
C422 C 0.14866 0.28215 0.64994 0.0
C423 C 0.15136 0.32202 0.68408 0.0
C424 C 0.12625 0.30899 0.69878 0.0
C425 C 0.11745 0.32712 0.72436 0.0
H426 H 0.14786 0.44745 0.80896 0.0
C427 C 0.16163 0.34929 0.69924 0.0
C428 C 0.14193 0.35257 0.72304 0.0
H429 H 0.07237 0.38206 0.81704 0.0
H430 H 0.09087 0.35649 0.77575 0.0
H431 H 0.14904 0.44883 0.73548 0.0
H432 H 0.19535 0.4065 0.79772 0.0
H433 H 0.21977 0.42013 0.76859 0.0
H434 H 0.20365 0.44362 0.79295 0.0
H435 H 0.17623 0.46718 0.76002 0.0
H436 H 0.18597 0.45341 0.72398 0.0
C437 C 0.08762 0.33473 0.71697 0.0
C438 C 0.11737 0.31115 0.75417 0.0
C439 C 0.25534 0.40961 0.66046 0.0
C440 C 0.27218 0.43489 0.67033 0.0
C441 C 0.26257 0.44821 0.6963 0.0
C442 C 0.23652 0.43676 0.71179 0.0
C443 C 0.21985 0.4115 0.70149 0.0
C444 C 0.22964 0.39829 0.67637 0.0
C445 C 0.21015 0.37103 0.6693 0.0
C446 C 0.18668 0.37014 0.6939 0.0
C447 C 0.1922 0.39398 0.71265 0.0
C448 C 0.19773 0.37311 0.63748 0.0
C449 C 0.22815 0.34736 0.67258 0.0
C450 C 0.13539 0.42752 0.80204 0.0
C451 C 0.10851 0.4169 0.81655 0.0
C452 C 0.09293 0.391 0.80626 0.0
C453 C 0.10376 0.37608 0.78225 0.0
C454 C 0.13049 0.38711 0.76787 0.0
C455 C 0.14576 0.41252 0.77781 0.0
C456 C 0.17342 0.42149 0.75945 0.0
C457 C 0.17221 0.39751 0.73675 0.0
C458 C 0.14707 0.37712 0.74185 0.0
C459 C 0.17136 0.44928 0.74396 0.0
C460 C 0.19956 0.42329 0.78063 0.0
H461 H 0.18165 0.3178 0.64653 0.0
H462 H 0.09251 0.27223 0.70189 0.0
H463 H 0.13709 0.3013 0.75519 0.0
H464 H 0.11792 0.32484 0.77432 0.0
H465 H 0.09792 0.29435 0.75605 0.0
H466 H 0.08626 0.33843 0.69239 0.0
H467 H 0.06948 0.31762 0.72327 0.0
H468 H 0.08393 0.35429 0.72812 0.0
H469 H 0.26232 0.3985 0.641 0.0
H470 H 0.27506 0.4677 0.70442 0.0
H471 H 0.23036 0.44803 0.73124 0.0
H472 H 0.19343 0.39451 0.63356 0.0
H473 H 0.2133 0.3684 0.61954 0.0
H474 H 0.17649 0.35932 0.63437 0.0
H475 H 0.24519 0.35288 0.68984 0.0
H476 H 0.21488 0.32767 0.68065 0.0
H477 H 0.23934 0.34327 0.65096 0.0
H478 H 0.15769 0.27262 0.63047 0.0
C479 C 0.16256 0.3087 0.65922 0.0
Sm480 Sm 0.0158 0.04219 0.50947 0.0
Sm481 Sm 1.00646 1.01578 0.57041 0.0
C482 C 0.02163 0.07646 0.4634 0.0
C483 C 0.04506 0.09944 0.45377 0.0
C484 C 0.04382 0.12728 0.46185 0.0
C485 C 0.06711 0.14865 0.45472 0.0
C486 C 0.09201 0.1426 0.43926 0.0
C487 C 0.09295 0.11482 0.43078 0.0
C488 C 0.06972 0.09355 0.43776 0.0
C489 C 0.0589 1.01411 0.52543 0.0
C490 C 0.03913 0.07921 0.5712 0.0
C491 C 0.99759 0.98005 0.61489 0.0
C492 C 0.9715 0.9586 0.61918 0.0
C493 C 0.97201 0.93465 0.636 0.0
C494 C 0.94672 0.91443 0.63918 0.0
C495 C 0.92062 0.91801 0.62564 0.0
C496 C 0.92064 0.9419 0.60832 0.0
C497 C 0.94583 0.96179 0.60492 0.0
C498 C 0.96315 0.04328 0.55339 0.0
C499 C 0.98305 0.97885 0.50883 0.0
O500 O 1.00691 0.0807 0.48811 0.0
O501 O 0.02783 0.05131 0.46164 0.0
O502 O 0.04714 1.0298 0.54276 0.0
O503 O 0.04948 1.01414 0.49824 0.0
O504 O 0.03001 0.07928 0.54313 0.0
O505 O 0.03699 0.05556 0.58595 0.0
O506 O 0.0137 0.97636 0.59107 0.0
O507 O 0.99309 1.00574 0.61786 0.0
O508 O 0.97535 1.02744 0.53684 0.0
O509 O 0.97255 0.04411 0.58066 0.0
O510 O 0.99267 0.97868 0.53665 0.0
O511 O 0.98488 1.00256 0.49436 0.0
H512 H 0.02502 0.1325 0.47404 0.0
H513 H 0.06556 0.16991 0.46118 0.0
H514 H 0.11195 0.10937 0.41921 0.0
H515 H 0.07144 0.07239 0.4311 0.0
H516 H 0.99183 0.93163 0.64666 0.0
H517 H 0.94761 0.89608 0.6523 0.0
H518 H 0.90096 0.94575 0.59802 0.0
H519 H 0.94514 0.97995 0.59136 0.0
Sm520 Sm 0.53882 0.04131 0.05717 0.0
Sm521 Sm 0.4823 1.02635 1.03093 0.0
C522 C 0.5877 0.06633 0.08244 0.0
C523 C 0.5958 0.08489 0.10839 0.0
C524 C 0.57597 0.10035 0.12167 0.0
C525 C 0.58337 0.11654 0.14758 0.0
C526 C 0.61064 0.11736 0.16065 0.0
C527 C 0.63061 0.10224 0.14686 0.0
C528 C 0.6232 0.08611 0.12095 0.0
C529 C 0.50843 0.99082 0.07812 0.0
C530 C 0.48371 0.06608 0.08749 0.0
C531 C 0.43395 1.00189 1.00452 0.0
C532 C 0.42856 0.99014 0.97417 0.0
C533 C 0.40022 0.97898 0.96539 0.0
C534 C 0.39542 0.96755 0.93642 0.0
C535 C 0.41901 0.96686 0.91617 0.0
C536 C 0.44735 0.97814 0.92507 0.0
C537 C 0.45202 0.98998 0.95376 0.0
C538 C 0.51296 0.07641 1.00923 0.0
C539 C 0.53758 1.00074 1.00061 0.0
O540 O 0.5758 0.07684 0.06003 0.0
O541 O 0.5748 0.04106 0.08891 0.0
O542 O 0.49762 1.01272 0.07524 0.0
O543 O 0.53573 0.99528 0.06999 0.0
O544 O 0.51182 0.07126 0.0809 0.0
O545 O 0.46681 0.04484 0.07473 0.0
O546 O 0.44933 0.98861 1.02144 0.0
O547 O 0.44228 1.0289 1.0059 0.0
O548 O 0.52359 0.05447 1.01255 0.0
O549 O 0.48565 0.07216 1.01721 0.0
O550 O 0.50909 0.99759 1.00466 0.0
O551 O 0.55508 1.0199 1.01577 0.0
H552 H 0.55465 0.09956 0.11234 0.0
H553 H 0.56746 0.12777 0.15785 0.0
H554 H 0.65193 0.10279 0.1562 0.0
H555 H 0.63873 0.07428 0.11096 0.0
H556 H 0.38189 0.97909 0.9809 0.0
H557 H 0.37339 0.95891 0.92995 0.0
H558 H 0.46579 0.97816 0.90968 0.0
H559 H 0.47395 0.99909 0.96001 0.0
Sm560 Sm 0.51323 0.50589 0.51831 0.0
Sm561 Sm 0.50384 0.55863 0.56485 0.0
C562 C 0.5421 0.47352 0.48622 0.0
C563 C 0.56505 0.45894 0.49619 0.0
C564 C 0.58503 0.47142 0.51776 0.0
C565 C 0.60393 0.4561 0.53082 0.0
C566 C 0.60306 0.42798 0.52267 0.0
C567 C 0.58348 0.41578 0.50051 0.0
C568 C 0.56466 0.43116 0.48737 0.0
C569 C 0.46046 0.49524 0.55026 0.0
C570 C 0.53187 0.50679 0.59148 0.0
C571 C 0.47875 0.59527 0.59474 0.0
C572 C 0.47196 0.6212 0.58292 0.0
C573 C 0.44736 0.63143 0.59369 0.0
C574 C 0.43798 0.65314 0.57874 0.0
C575 C 0.45301 0.66478 0.55271 0.0
C576 C 0.47805 0.65482 0.54245 0.0
C577 C 0.48737 0.63317 0.55737 0.0
C578 C 0.55655 0.56832 0.53249 0.0
C579 C 0.48477 0.55762 0.49147 0.0
O580 O 0.5488 0.50079 0.48572 0.0
O581 O 0.51618 0.46445 0.49802 0.0
O582 O 0.48006 0.51666 0.55125 0.0
O583 O 0.46837 0.47798 0.5302 0.0
O584 O 0.5349 0.49744 0.56331 0.0
O585 O 0.51848 0.52817 0.59824 0.0
O586 O 0.46396 0.57277 0.58228 0.0
O587 O 0.50653 0.59426 0.59727 0.0
O588 O 0.53605 0.54786 0.53155 0.0
O589 O 0.54959 0.58572 0.55283 0.0
O590 O 0.48477 0.56903 0.51906 0.0
O591 O 0.49503 0.53428 0.48517 0.0
H592 H 0.58545 0.49278 0.52527 0.0
H593 H 0.61893 0.46615 0.54757 0.0
H594 H 0.58189 0.394 0.49411 0.0
H595 H 0.54904 0.42106 0.47121 0.0
H596 H 0.43481 0.62194 0.6129 0.0
H597 H 0.41838 0.66014 0.58695 0.0
H598 H 0.49025 0.66356 0.52269 0.0
H599 H 0.50608 0.62512 0.54829 0.0
Sm600 Sm 0.01603 0.50055 0.0521 0.0
Sm601 Sm 1.00421 0.56277 1.02832 0.0
C602 C 0.03929 0.455 0.05461 0.0
C603 C 0.06367 0.44643 0.07002 0.0
C604 C 0.08567 0.46663 0.08229 0.0
C605 C 0.11103 0.45899 0.09284 0.0
C606 C 0.11453 0.43095 0.09175 0.0
C607 C 0.09185 0.41056 0.08081 0.0
C608 C 0.06665 0.41831 0.06979 0.0
C609 C 0.99244 0.53164 0.09698 0.0
C610 C 0.06471 0.55906 0.06468 0.0
C611 C 0.98177 0.60874 1.02585 0.0
C612 C 0.95888 0.6188 1.00929 0.0
C613 C 0.9342 0.60011 0.99979 0.0
C614 C 0.91103 0.61001 0.98706 0.0
C615 C 0.9123 0.63877 0.98327 0.0
C616 C 0.9375 0.65739 0.99173 0.0
C617 C 0.96057 0.64746 1.00482 0.0
C618 C 0.0271 0.53138 0.98317 0.0
C619 C 0.95531 0.50446 1.01611 0.0
O620 O 0.04703 0.47455 1.03461 0.0
O621 O 0.0165 0.4586 0.07124 0.0
O622 O 1.00089 0.53822 0.07045 0.0
O623 O 0.99649 0.50612 0.10088 0.0
O624 O 0.05858 0.53129 0.06353 0.0
O625 O 0.04691 0.57523 0.05459 0.0
O626 O 0.97247 0.58843 0.04463 0.0
O627 O 1.00554 0.60557 1.01062 0.0
O628 O 0.01981 0.52525 1.01008 0.0
O629 O 0.02255 0.5567 0.97905 0.0
O630 O 0.96153 0.53222 1.01734 0.0
O631 O 0.9731 0.48816 1.026 0.0
H632 H 0.0836 0.48839 0.08279 0.0
H633 H 0.12806 0.47502 0.10152 0.0
H634 H 0.09412 0.38881 0.07971 0.0
H635 H 0.04993 0.40249 0.06024 0.0
H636 H 0.93256 0.5779 1.0029 0.0
H637 H 0.89203 0.59521 0.98033 0.0
H638 H 0.93895 0.67967 0.98908 0.0
H639 H 0.97941 0.66218 1.0121 0.0
C640 C 0.21138 0.26664 0.37765 0.0
C641 C 0.23949 0.26028 0.37975 0.0
C642 C 0.18745 0.25069 0.3926 0.0
C643 C 0.19162 0.22754 0.40966 0.0
C644 C 0.22018 0.22257 0.4142 0.0
C645 C 0.24384 0.23917 0.39935 0.0
C646 C 0.15739 0.25698 0.38758 0.0
C647 C 0.22553 0.19814 0.43237 0.0
C648 C 0.1271 0.18617 0.45285 0.0
C649 C 0.11706 0.16497 0.43182 0.0
C650 C 0.15144 0.20678 0.44614 0.0
C651 C 0.16609 0.20596 0.41786 0.0
C652 C 0.15596 0.18467 0.39655 0.0
C653 C 0.13148 0.16461 0.40371 0.0
C654 C 0.1615 0.22936 0.46922 0.0
C655 C 0.17094 0.18305 0.36607 0.0
H656 H 0.20752 0.2827 0.36246 0.0
H657 H 0.26554 0.23455 0.40175 0.0
H658 H 0.14604 0.24175 0.37101 0.0
H659 H 0.14415 0.25495 0.40884 0.0
H660 H 0.15827 0.2783 0.37869 0.0
H661 H 0.24885 0.19994 0.43808 0.0
H662 H 0.21218 0.19626 0.45355 0.0
H663 H 0.21904 0.1786 0.41906 0.0
H664 H 0.11622 0.18639 0.47474 0.0
H665 H 0.12351 0.14863 0.38713 0.0
H666 H 0.16122 0.25016 0.45953 0.0
H667 H 0.18431 0.22887 0.47532 0.0
H668 H 0.14763 0.22711 0.4901 0.0
H669 H 0.17009 0.20217 0.35314 0.0
H670 H 0.1608 0.16466 0.35249 0.0
H671 H 0.19425 0.1819 0.36898 0.0
C672 C 0.40828 0.92031 0.74259 0.0
C673 C 0.38436 0.89885 0.73861 0.0
C674 C 0.41592 0.9307 0.77154 0.0
C675 C 0.39947 0.91893 0.79692 0.0
C676 C 0.37623 0.89626 0.79302 0.0
C677 C 0.36875 0.88666 0.76381 0.0
C678 C 0.44056 0.95517 0.77482 0.0
C679 C 0.35856 0.88284 0.81961 0.0
C680 C 0.42997 0.93434 0.87509 0.0
C681 C 0.41415 0.95462 0.88565 0.0
C682 C 0.42549 0.92248 0.84616 0.0
C683 C 0.4051 0.93158 0.82734 0.0
C684 C 0.38944 0.95243 0.83778 0.0
C685 C 0.39397 0.96352 0.86699 0.0
C686 C 0.44219 0.89997 0.83594 0.0
C687 C 0.36792 0.96302 0.8181 0.0
H688 H 0.42012 0.92985 0.72296 0.0
H689 H 0.35034 0.86993 0.76057 0.0
H690 H 0.43176 0.97369 0.78323 0.0
H691 H 0.45621 0.95063 0.79164 0.0
H692 H 0.45252 0.96054 0.75311 0.0
H693 H 0.34307 0.86379 0.81293 0.0
H694 H 0.37317 0.87718 0.83691 0.0
H695 H 0.34597 0.89788 0.83029 0.0
H696 H 0.4455 0.92743 0.88969 0.0
H697 H 0.38204 0.97948 0.87514 0.0
H698 H 0.45456 0.90609 0.81469 0.0
H699 H 0.42674 0.88039 0.83113 0.0
H700 H 0.45768 0.89568 0.85313 0.0
H701 H 0.37873 0.97078 0.79653 0.0
H702 H 0.35847 0.98013 0.82919 0.0
H703 H 0.3499 0.94574 0.81246 0.0
C704 C 0.62511 0.44215 0.71408 0.0
C705 C 0.60808 0.42684 0.7369 0.0
C706 C 0.61237 0.45431 0.69032 0.0
C707 C 0.58163 0.45109 0.68878 0.0
C708 C 0.56423 0.43499 0.71115 0.0
C709 C 0.57757 0.4232 0.73485 0.0
C710 C 0.63195 0.47111 0.6671 0.0
C711 C 0.53142 0.43056 0.71031 0.0
C712 C 0.54967 0.50552 0.64486 0.0
C713 C 0.54416 0.49241 0.61657 0.0
C714 C 0.56168 0.49234 0.66842 0.0
C715 C 0.5679 0.46502 0.66408 0.0
C716 C 0.56187 0.45148 0.63574 0.0
C717 C 0.55044 0.46536 0.61237 0.0
C718 C 0.56812 0.50789 0.69792 0.0
C719 C 0.56723 0.42214 0.63016 0.0
H720 H 0.64863 0.44471 0.71471 0.0
H721 H 0.56399 0.41168 0.75223 0.0
H722 H 0.62581 0.46353 0.644 0.0
H723 H 0.62918 0.49326 0.66873 0.0
H724 H 0.65531 0.47013 0.67014 0.0
H725 H 0.52089 0.41636 0.7283 0.0
H726 H 0.52396 0.45088 0.71309 0.0
H727 H 0.52387 0.42168 0.68808 0.0
H728 H 0.54509 0.52639 0.64849 0.0
H729 H 0.54608 0.45479 0.59081 0.0
H730 H 0.59174 0.51044 0.70242 0.0
H731 H 0.55628 0.49573 0.71675 0.0
H732 H 0.56183 0.52886 0.69796 0.0
H733 H 0.58983 0.42061 0.63596 0.0
H734 H 0.56353 0.41519 0.60635 0.0
H735 H 0.55246 0.40758 0.64501 0.0
C736 C 0.95008 0.6254 0.23738 0.0
C737 C 0.92033 0.62723 0.23898 0.0
C738 C 0.96179 0.61062 0.21376 0.0
C739 C 0.9435 0.59747 0.19068 0.0
C740 C 0.91352 0.59954 0.19194 0.0
C741 C 0.9023 0.61413 0.21607 0.0
C742 C 0.99372 0.60867 0.21383 0.0
C743 C 0.89322 0.58629 0.16772 0.0
C744 C 0.98018 0.57746 0.11673 0.0
C745 C 0.97928 0.54874 0.12012 0.0
C746 C 0.9681 0.59346 0.13905 0.0
C747 C 0.95552 0.58066 0.16599 0.0
C748 C 0.955 0.55171 0.16965 0.0
C749 C 0.96668 0.53618 0.14673 0.0
C750 C 0.96905 0.62414 0.13391 0.0
C751 C 0.94239 0.53712 0.19804 0.0
H752 H 0.96422 0.63511 0.25505 0.0
H753 H 0.87939 0.61563 0.21678 0.0
H754 H 0.99622 0.58648 0.21514 0.0
H755 H 1.00457 0.61696 0.19249 0.0
H756 H 1.00517 0.62036 0.23306 0.0
H757 H 0.87079 0.5907 0.17117 0.0
H758 H 0.90167 0.59406 0.14524 0.0
H759 H 0.89219 0.56336 0.1674 0.0
H760 H 0.9909 0.5876 0.09694 0.0
H761 H 0.96615 0.51407 0.14981 0.0
H762 H 0.98307 0.63661 0.15087 0.0
H763 H 0.9469 0.6293 0.13687 0.0
H764 H 0.97764 0.63057 0.11101 0.0
H765 H 0.95422 0.54701 0.21795 0.0
H766 H 0.94371 0.51456 0.19755 0.0
H767 H 0.91923 0.53929 0.20121 0.0
C768 C 0.42077 0.17192 0.202 0.0
C769 C 0.40171 0.18587 0.18667 0.0
C770 C 0.43469 0.15199 0.18723 0.0
C771 C 0.43013 0.14636 0.15615 0.0
C772 C 0.41161 0.16083 0.1403 0.0
C773 C 0.39736 0.18013 0.1558 0.0
C774 C 0.45402 0.13673 0.20499 0.0
C775 C 0.40664 0.15576 0.10698 0.0
C776 C 0.48562 0.11336 0.11074 0.0
C777 C 0.47083 0.08586 0.107 0.0
C778 C 0.47274 0.13322 0.12689 0.0
C779 C 0.44463 0.12523 0.14016 0.0
C780 C 0.43001 0.09724 0.13737 0.0
C781 C 0.44316 0.07794 0.1205 0.0
C782 C 0.48881 0.16296 0.12887 0.0
C783 C 0.40032 0.08778 0.15183 0.0
H784 H 0.42486 0.17655 0.22565 0.0
H785 H 0.38238 0.19033 0.14375 0.0
H786 H 0.44597 0.1139 0.20348 0.0
H787 H 0.4765 0.14066 0.19528 0.0
H788 H 0.45484 0.14314 0.22918 0.0
H789 H 0.39273 0.16971 0.09765 0.0
H790 H 0.42781 0.15905 0.09436 0.0
H791 H 0.39604 0.13381 0.10292 0.0
H792 H 0.50691 0.11968 0.1001 0.0
H793 H 0.43173 0.05666 0.1178 0.0
H794 H 0.49101 0.16991 0.15279 0.0
H795 H 0.47617 0.17695 0.1176 0.0
H796 H 0.51089 0.16556 0.11811 0.0
H797 H 0.4008 0.09319 0.17626 0.0
H798 H 0.39272 0.06494 0.14916 0.0
H799 H 0.38419 0.09879 0.14157 0.0
C800 C 0.15779 0.91036 0.58895 0.0
C801 C 0.18571 0.91759 0.57593 0.0
C802 C 0.13542 0.92454 0.58117 0.0
C803 C 0.14157 0.94683 0.56059 0.0
C804 C 0.1698 0.95412 0.54742 0.0
C805 C 0.19148 0.93918 0.55504 0.0
C806 C 0.10534 0.91584 0.59504 0.0
C807 C 0.1773 0.97813 0.52584 0.0
C808 C 0.08272 0.9728 0.51803 0.0
C809 C 0.07917 0.99643 0.53518 0.0
C810 C 0.10206 0.95567 0.52684 0.0
C811 C 0.11872 0.96291 0.55293 0.0
C812 C 0.11492 0.98662 0.57053 0.0
C813 C 0.0948 1.00294 0.56162 0.0
C814 C 0.10503 0.93014 0.50798 0.0
C815 C 0.13278 0.99527 0.59814 0.0
H816 H 0.15351 0.89361 0.60513 0.0
H817 H 0.21328 0.94494 0.54539 0.0
H818 H 0.09931 0.93324 0.6089 0.0
H819 H 0.08905 0.91103 0.57704 0.0
H820 H 0.10386 0.89726 0.60955 0.0
H821 H 0.20043 0.98126 0.51791 0.0
H822 H 0.16321 0.97439 0.50588 0.0
H823 H 0.17316 0.99768 0.53699 0.0
H824 H 0.07021 0.96759 0.4978 0.0
H825 H 0.09189 1.02123 0.57486 0.0
H826 H 0.10256 0.91149 0.52248 0.0
H827 H 0.12709 0.93285 0.49725 0.0
H828 H 0.08864 0.92611 0.48996 0.0
H829 H 0.13022 0.97784 0.6143 0.0
H830 H 0.12649 1.01376 0.60985 0.0
H831 H 0.15621 1.00032 0.59153 0.0
C832 C 0.79582 0.42885 0.96514 0.0
C833 C 0.79314 0.42642 0.93365 0.0
C834 C 0.82185 0.44216 0.97837 0.0
C835 C 0.84616 0.45333 0.95979 0.0
C836 C 0.84344 0.4515 0.92796 0.0
C837 C 0.81698 0.43822 0.91529 0.0
C838 C 0.82344 0.44392 1.01234 0.0
C839 C 0.86874 0.46302 0.90725 0.0
C840 C 0.90627 0.50735 0.9948 0.0
C841 C 0.92724 0.49118 1.00205 0.0
C842 C 0.88006 0.49544 0.98088 0.0
C843 C 0.87442 0.46652 0.97379 0.0
C844 C 0.89548 0.45005 0.98095 0.0
C845 C 0.92149 0.4625 0.995 0.0
C846 C 0.85829 0.51386 0.97394 0.0
C847 C 0.89052 0.41919 0.97375 0.0
H848 H 0.77743 0.42021 0.97958 0.0
H849 H 0.81528 0.4363 0.89099 0.0
H850 H 0.84046 0.43253 1.02003 0.0
H851 H 0.82976 0.46599 1.01978 0.0
H852 H 0.8024 0.43498 1.02364 0.0
H853 H 0.86298 0.46067 0.88307 0.0
H854 H 0.87638 0.48546 0.91239 0.0
H855 H 0.88724 0.45207 0.91103 0.0
H856 H 0.91019 0.52945 1.00015 0.0
H857 H 0.93745 0.44972 1.00022 0.0
H858 H 0.83745 0.50648 0.98633 0.0
H859 H 0.85356 0.5126 0.94951 0.0
H860 H 0.86615 0.53606 0.98023 0.0
H861 H 0.87071 0.40855 0.98599 0.0
H862 H 0.90924 0.40936 0.98002 0.0
H863 H 0.88676 0.41562 0.94927 0.0
C864 C 0.69245 0.63227 0.42814 0.0
C865 C 0.71407 0.61571 0.42428 0.0
C866 C 0.66637 0.62264 0.4444 0.0
C867 C 0.66184 0.59595 0.45778 0.0
C868 C 0.68344 0.57896 0.45361 0.0
C869 C 0.70912 0.58892 0.43669 0.0
C870 C 0.64382 0.64131 0.44769 0.0
C871 C 0.67983 0.5506 0.46784 0.0
C872 C 0.60953 0.58776 0.52607 0.0
C873 C 0.58389 0.5728 0.5139 0.0
C874 C 0.63526 0.59441 0.50837 0.0
C875 C 0.63525 0.5866 0.4774 0.0
C876 C 0.60938 0.57122 0.46506 0.0
C877 C 0.58407 0.56439 0.4835 0.0
C878 C 0.66233 0.61037 0.52273 0.0
C879 C 0.60809 0.56297 0.43209 0.0
H880 H 0.69596 0.65287 0.41836 0.0
H881 H 0.72581 0.57609 0.43402 0.0
H882 H 0.62228 0.62994 0.44048 0.0
H883 H 0.64144 0.64741 0.47173 0.0
H884 H 0.64965 0.66058 0.43419 0.0
H885 H 0.69794 0.53943 0.46145 0.0
H886 H 0.67896 0.55294 0.49278 0.0
H887 H 0.65897 0.53756 0.46107 0.0
H888 H 0.60942 0.59443 0.54953 0.0
H889 H 0.56403 0.55366 0.47376 0.0
H890 H 0.66812 0.63133 0.51257 0.0
H891 H 0.68098 0.59941 0.51837 0.0
H892 H 0.65942 0.61303 0.54751 0.0
H893 H 0.61116 0.58199 0.41812 0.0
H894 H 0.58699 0.54966 0.42635 0.0
H895 H 0.62599 0.55153 0.42587 0.0
C896 C 0.26064 0.40217 0.16427 0.0
C897 C 0.26899 0.37797 0.15185 0.0
C898 C 0.23745 0.41304 0.15249 0.0
C899 C 0.22271 0.39979 0.12722 0.0
C900 C 0.23278 0.37696 0.11286 0.0
C901 C 0.25567 0.36617 0.12548 0.0
C902 C 0.22736 0.43738 0.16853 0.0
C903 C 0.21806 0.36269 0.08541 0.0
C904 C 0.14205 0.40174 0.12164 0.0
C905 C 0.14222 0.42313 0.10096 0.0
C906 C 0.16817 0.39413 0.13051 0.0
C907 C 0.19502 0.40788 0.11786 0.0
C908 C 0.19526 0.42931 0.09669 0.0
C909 C 0.16882 0.43688 0.0887 0.0
C910 C 0.16704 0.3715 0.15358 0.0
C911 C 0.22336 0.44402 0.08228 0.0
H912 H 0.27126 0.41178 0.18425 0.0
H913 H 0.26179 0.3474 0.11577 0.0
H914 H 0.2244 0.45356 0.15219 0.0
H915 H 0.2059 0.4301 0.1798 0.0
H916 H 0.2429 0.44709 0.18585 0.0
H917 H 0.23107 0.34814 0.07435 0.0
H918 H 0.19646 0.35062 0.09217 0.0
H919 H 0.21434 0.3783 0.06871 0.0
H920 H 0.12146 0.39126 0.13121 0.0
H921 H 0.16887 0.45323 0.07242 0.0
H922 H 0.18032 0.37968 0.17325 0.0
H923 H 0.1765 0.35391 0.1437 0.0
H924 H 0.14446 0.36333 0.1617 0.0
H925 H 0.23826 0.4542 0.09988 0.0
H926 H 0.21976 0.4601 0.06603 0.0
H927 H 0.23456 0.42861 0.07022 0.0
C928 C 0.57688 0.20604 0.9015 0.0
C929 C 0.59071 0.22947 0.91788 0.0
C930 C 0.5654 0.18066 0.91589 0.0
C931 C 0.56779 0.17833 0.94754 0.0
C932 C 0.58197 0.20175 0.96417 0.0
C933 C 0.59308 0.2269 0.94926 0.0
C934 C 0.55041 0.15637 0.89718 0.0
C935 C 0.58503 0.20042 0.9979 0.0
C936 C 0.51217 0.12414 0.98944 0.0
C937 C 0.52766 0.10232 0.99372 0.0
C938 C 0.52492 0.14875 0.9745 0.0
C939 C 0.5541 0.15197 0.96348 0.0
C940 C 0.57 0.13008 0.96793 0.0
C941 C 0.55662 0.10555 0.98294 0.0
C942 C 0.50701 0.17134 0.97044 0.0
C943 C 0.60119 0.1326 0.9568 0.0
H944 H 0.5752 0.20739 0.87727 0.0
H945 H 0.60319 0.24479 0.96244 0.0
H946 H 0.56089 0.13791 0.90033 0.0
H947 H 0.52732 0.15057 0.90483 0.0
H948 H 0.55102 0.16116 0.87274 0.0
H949 H 0.59799 0.21985 1.00739 0.0
H950 H 0.56315 0.19689 1.00908 0.0
H951 H 0.59565 0.18258 1.00359 0.0
H952 H 0.48982 0.12197 0.99773 0.0
H953 H 0.5688 0.08888 0.98619 0.0
H954 H 0.50549 0.17555 0.94608 0.0
H955 H 0.51778 0.19102 0.98135 0.0
H956 H 0.4846 0.16565 0.9802 0.0
H957 H 0.60247 0.1356 0.93202 0.0
H958 H 0.61066 0.11391 0.96205 0.0
H959 H 0.6147 0.15123 0.96723 0.0
C960 C 0.89016 0.84066 0.43439 0.0
C961 C 0.90716 0.8208 0.42486 0.0
C962 C 0.90277 0.86647 0.44724 0.0
C963 C 0.93336 0.87314 0.45037 0.0
C964 C 0.95083 0.85369 0.43987 0.0
C965 C 0.93757 0.82779 0.42733 0.0
C966 C 0.88319 0.88641 0.45807 0.0
C967 C 0.98353 0.85999 0.44247 0.0
C968 C 0.96625 0.95026 0.4625 0.0
C969 C 0.97021 0.95189 0.49383 0.0
C970 C 0.95487 0.92476 0.44803 0.0
C971 C 0.94682 0.90021 0.46524 0.0
C972 C 0.95063 0.90179 0.4969 0.0
C973 C 0.96242 0.92746 0.51073 0.0
C974 C 0.95143 0.92411 0.41425 0.0
C975 C 0.94194 0.87637 0.5163 0.0
H976 H 0.86674 0.83594 0.43201 0.0
H977 H 0.95099 0.8127 0.42029 0.0
H978 H 0.88566 0.8903 0.48269 0.0
H979 H 0.88961 0.9068 0.44679 0.0
H980 H 0.85986 0.87833 0.45366 0.0
H981 H 0.9942 0.84346 0.43183 0.0
H982 H 0.99245 0.88018 0.43167 0.0
H983 H 0.98935 0.86206 0.46661 0.0
H984 H 0.97236 0.9689 0.44915 0.0
H985 H 0.96525 0.92841 0.53494 0.0
H986 H 0.92812 0.91762 0.40876 0.0
H987 H 0.9634 0.90849 0.40374 0.0
H988 H 0.9596 0.94472 0.40393 0.0
H989 H 0.91833 0.86811 0.51406 0.0
H990 H 0.94643 0.88096 0.54054 0.0
H991 H 0.95387 0.85965 0.50856 0.0
C992 C 0.36485 0.77106 0.48621 0.0
C993 C 0.38206 0.79772 0.48772 0.0
C994 C 0.37777 0.74723 0.48709 0.0
C995 C 0.40835 0.75048 0.4895 0.0
C996 C 0.42582 0.77699 0.485 0.0
C997 C 0.4124 0.80052 0.48424 0.0
C998 C 0.35852 0.71902 0.49011 0.0
C999 C 0.45861 0.78097 0.4855 0.0
C1000 C 0.43236 0.70861 0.55203 0.0
C1001 C 0.44236 0.68698 0.53608 0.0
C1002 C 0.42152 0.72941 0.53692 0.0
C1003 C 0.42084 0.7287 0.50493 0.0
C1004 C 0.43142 0.70723 0.48858 0.0
C1005 C 0.44192 0.68648 0.50439 0.0
C1006 C 0.41057 0.75207 0.55534 0.0
C1007 C 0.43114 0.70547 0.45457 0.0
H1008 H 0.34134 0.76876 0.48844 0.0
H1009 H 0.4257 0.82118 0.48463 0.0
H1010 H 0.36796 0.70293 0.47713 0.0
H1011 H 0.35693 0.71296 0.5142 0.0
H1012 H 0.33618 0.7192 0.48213 0.0
H1013 H 0.4689 0.80111 0.47531 0.0
H1014 H 0.46561 0.78092 0.50924 0.0
H1015 H 0.46662 0.76365 0.47321 0.0
H1016 H 0.43315 0.70936 0.57646 0.0
H1017 H 0.44934 0.66961 0.4919 0.0
H1018 H 0.38732 0.752 0.55061 0.0
H1019 H 0.42302 0.77283 0.54903 0.0
H1020 H 0.41258 0.74947 0.58 0.0
H1021 H 0.45024 0.69691 0.44564 0.0
H1022 H 0.43129 0.72599 0.44408 0.0
H1023 H 0.41123 0.69102 0.44751 0.0
C1024 C 0.77035 0.81514 0.66697 0.0
C1025 C 0.75431 0.83213 0.68392 0.0
C1026 C 0.79642 0.82662 0.65187 0.0
C1027 C 0.80617 0.85581 0.65308 0.0
C1028 C 0.78825 0.87326 0.6669 0.0
C1029 C 0.76266 0.86122 0.68239 0.0
C1030 C 0.81481 0.80727 0.63725 0.0
C1031 C 0.79746 0.9046 0.66787 0.0
C1032 C 0.88603 0.88692 0.65978 0.0
C1033 C 0.89284 0.89821 0.63107 0.0
C1034 C 0.85833 0.87158 0.66657 0.0
C1035 C 0.8367 0.86786 0.6443 0.0
C1036 C 0.84383 0.87785 0.61482 0.0
C1037 C 0.87192 0.89266 0.60847 0.0
C1038 C 0.85176 0.86069 0.69816 0.0
C1039 C 0.82137 0.87443 0.5905 0.0
H1040 H 0.76362 0.79267 0.66724 0.0
H1041 H 0.75063 0.87468 0.69535 0.0
H1042 H 0.82461 0.81569 0.61551 0.0
H1043 H 0.83295 0.80533 0.65231 0.0
H1044 H 0.80199 0.7861 0.63317 0.0
H1045 H 0.77922 0.9153 0.6751 0.0
H1046 H 0.81536 0.91032 0.68405 0.0
H1047 H 0.80581 0.91247 0.64541 0.0
H1048 H 0.90182 0.89121 0.6775 0.0
H1049 H 0.87719 0.90067 0.58597 0.0
H1050 H 0.84128 0.83839 0.6974 0.0
H1051 H 0.83625 0.87244 0.70978 0.0
H1052 H 0.87167 0.86278 0.71182 0.0
H1053 H 0.80874 0.85288 0.59005 0.0
H1054 H 0.83143 0.87932 0.5678 0.0
H1055 H 0.80572 0.88874 0.59541 0.0
C1056 C 0.68172 0.2053 0.3004 0.0
C1057 C 0.66401 0.20159 0.32656 0.0
C1058 C 0.67132 0.19424 0.27257 0.0
C1059 C 0.64256 0.17905 0.27097 0.0
C1060 C 0.62402 0.17668 0.29695 0.0
C1061 C 0.63499 0.18804 0.32451 0.0
C1062 C 0.69167 0.19741 0.24529 0.0
C1063 C 0.59323 0.16063 0.2961 0.0
C1064 C 0.61188 0.16016 0.19329 0.0
C1065 C 0.618 0.13314 0.18912 0.0
C1066 C 0.61934 0.17533 0.22003 0.0
C1067 C 0.63313 0.16309 0.24305 0.0
C1068 C 0.63887 0.13565 0.23914 0.0
C1069 C 0.63123 0.12102 0.21222 0.0
C1070 C 0.61294 0.20455 0.22347 0.0
C1071 C 0.65339 0.12181 0.26326 0.0
H1072 H 0.70405 0.21613 0.3019 0.0
H1073 H 0.62132 0.18498 0.34475 0.0
H1074 H 0.69732 0.17683 0.23897 0.0
H1075 H 0.6809 0.20471 0.22572 0.0
H1076 H 0.71217 0.21229 0.24954 0.0
H1077 H 0.58058 0.16367 0.31711 0.0
H1078 H 0.58167 0.16705 0.27659 0.0
H1079 H 0.59373 0.13804 0.29321 0.0
H1080 H 0.60179 0.16963 0.17538 0.0
H1081 H 0.63547 0.09995 0.20932 0.0
H1082 H 0.63364 0.21964 0.22548 0.0
H1083 H 0.59991 0.20642 0.24447 0.0
H1084 H 0.6009 0.21055 0.20407 0.0
H1085 H 0.6754 0.13399 0.26747 0.0
H1086 H 0.65563 0.10009 0.25696 0.0
H1087 H 0.64062 0.12138 0.28477 0.0
C1088 C 0.43236 0.65216 0.36101 0.0
C1089 C 0.40969 0.63631 0.34432 0.0
C1090 C 0.44592 0.64039 0.38458 0.0
C1091 C 0.43614 0.61219 0.3928 0.0
C1092 C 0.41323 0.59614 0.37643 0.0
C1093 C 0.40099 0.60801 0.35216 0.0
C1094 C 0.47127 0.65803 0.40019 0.0
C1095 C 0.40137 0.56624 0.38468 0.0
C1096 C 0.48293 0.5697 0.43643 0.0
C1097 C 0.47277 0.57204 0.46633 0.0
C1098 C 0.47207 0.58347 0.4126 0.0
C1099 C 0.44968 0.59931 0.41839 0.0
C1100 C 0.43941 0.6018 0.44859 0.0
C1101 C 0.45133 0.58855 0.47213 0.0
C1102 C 0.4847 0.58114 0.38115 0.0
C1103 C 0.41528 0.61795 0.45599 0.0
H1104 H 0.43962 0.67397 0.35598 0.0
H1105 H 0.38458 0.59466 0.33927 0.0
H1106 H 0.469 0.65586 0.42504 0.0
H1107 H 0.49165 0.65068 0.39309 0.0
H1108 H 0.4736 0.68046 0.39455 0.0
H1109 H 0.38217 0.55708 0.37123 0.0
H1110 H 0.41848 0.55329 0.381 0.0
H1111 H 0.39494 0.56503 0.40897 0.0
H1112 H 0.49983 0.55744 0.43169 0.0
H1113 H 0.4433 0.59059 0.49509 0.0
H1114 H 0.49187 0.60225 0.37167 0.0
H1115 H 0.46781 0.56977 0.36616 0.0
H1116 H 0.50355 0.57002 0.3807 0.0
H1117 H 0.42096 0.63942 0.44715 0.0
H1118 H 0.41073 0.61923 0.48066 0.0
H1119 H 0.39506 0.60775 0.4448 0.0
C1120 C 0.06698 0.43533 0.84327 0.0
C1121 C 0.09657 0.43284 0.84195 0.0
C1122 C 0.05555 0.45066 0.86661 0.0
C1123 C 0.07392 0.46368 0.88969 0.0
C1124 C 0.10371 0.46089 0.88875 0.0
C1125 C 0.11467 0.44577 0.86489 0.0
C1126 C 0.02381 0.45334 0.86623 0.0
C1127 C 0.12409 0.47395 0.91298 0.0
C1128 C 0.0522 0.526 0.93313 0.0
C1129 C 0.03946 0.51383 0.95986 0.0
C1130 C 0.06343 0.51001 0.9103 0.0
C1131 C 0.06221 0.48097 0.91416 0.0
C1132 C 0.04935 0.46856 0.94116 0.0
C1133 C 0.03779 0.48502 0.9634 0.0
C1134 C 0.07641 0.52424 0.88186 0.0
C1135 C 0.0476 0.43779 0.94651 0.0
H1136 H 0.0528 0.42576 0.82558 0.0
H1137 H 0.13745 0.44377 0.86441 0.0
H1138 H 0.01267 0.44544 0.88758 0.0
H1139 H 0.02189 0.47565 0.86464 0.0
H1140 H 1.01226 0.44169 0.84704 0.0
H1141 H 0.14634 0.46902 0.90976 0.0
H1142 H 0.12566 0.49695 0.91305 0.0
H1143 H 0.11537 0.46652 0.93549 0.0
H1144 H 0.05331 0.54818 0.92995 0.0
H1145 H 0.02687 0.47518 0.98324 0.0
H1146 H 0.06455 0.51439 0.86195 0.0
H1147 H 0.09947 0.52162 0.87888 0.0
H1148 H 0.07555 0.54689 0.88214 0.0
H1149 H 0.03348 0.42553 0.9295 0.0
H1150 H 0.03872 0.43163 0.96938 0.0
H1151 H 0.06955 0.43211 0.9438 0.0
C1152 C 0.59004 0.86796 0.92746 0.0
C1153 C 0.60902 0.87379 0.90236 0.0
C1154 C 0.57733 0.88897 0.94173 0.0
C1155 C 0.58312 0.91637 0.93022 0.0
C1156 C 0.6011 0.92215 0.90411 0.0
C1157 C 0.61414 0.90093 0.89075 0.0
C1158 C 0.55851 0.88205 0.96977 0.0
C1159 C 0.60733 0.95099 0.89081 0.0
C1160 C 0.53309 0.96554 0.95838 0.0
C1161 C 0.54997 0.98089 0.98074 0.0
C1162 C 0.54392 0.94507 0.941 0.0
C1163 C 0.57197 0.93933 0.94674 0.0
C1164 C 0.58923 0.95503 0.96904 0.0
C1165 C 0.57815 0.97584 0.98551 0.0
C1166 C 0.52517 0.92931 0.91686 0.0
C1167 C 0.61904 0.94921 0.97623 0.0
H1168 H 0.58536 0.847 0.93626 0.0
H1169 H 0.62908 0.90596 0.87172 0.0
H1170 H 0.56863 0.89442 0.98923 0.0
H1171 H 0.53679 0.88778 0.96684 0.0
H1172 H 0.55547 0.85956 0.97535 0.0
H1173 H 0.61913 0.95135 0.86868 0.0
H1174 H 0.58672 0.95891 0.88779 0.0
H1175 H 0.62078 0.9656 0.9065 0.0
H1176 H 0.51133 0.96941 0.95454 0.0
H1177 H 0.59118 0.98744 1.00298 0.0
H1178 H 0.5192 0.907 0.92293 0.0
H1179 H 0.53749 0.93025 0.89503 0.0
H1180 H 0.50482 0.93772 0.91371 0.0
H1181 H 0.61718 0.92738 0.9839 0.0
H1182 H 0.62977 0.96344 0.99406 0.0
H1183 H 0.6333 0.95142 0.95568 0.0
C1184 C 0.84191 0.12832 0.50854 0.0
C1185 C 0.85187 0.14957 0.48802 0.0
C1186 C 0.86052 0.11102 0.5185 0.0
C1187 C 0.88989 0.11559 0.50811 0.0
C1188 C 0.90012 0.13718 0.48746 0.0
C1189 C 0.88075 0.1538 0.4773 0.0
C1190 C 0.84871 0.0878 0.54002 0.0
C1191 C 0.93149 0.14289 0.47644 0.0
C1192 C 0.94127 0.08608 0.55788 0.0
C1193 C 0.94441 0.06169 0.54196 0.0
C1194 C 0.92435 0.1044 0.54653 0.0
C1195 C 0.90977 0.09765 0.51907 0.0
C1196 C 0.91291 0.07298 0.50293 0.0
C1197 C 0.93055 0.0554 0.51445 0.0
C1198 C 0.92194 0.13087 0.56396 0.0
C1199 C 0.89716 0.06486 0.4739 0.0
H1200 H 0.81938 0.12506 0.51648 0.0
H1201 H 0.88823 0.17038 0.46144 0.0
H1202 H 0.85223 0.06747 0.53028 0.0
H1203 H 0.86056 0.09099 0.56152 0.0
H1204 H 0.82507 0.08656 0.54512 0.0
H1205 H 0.93599 0.16068 0.46066 0.0
H1206 H 0.94609 0.14758 0.49593 0.0
H1207 H 0.93709 0.12411 0.46481 0.0
H1208 H 0.95243 0.09106 0.57896 0.0
H1209 H 0.93316 0.03651 0.50216 0.0
H1210 H 0.8991 0.13029 0.57193 0.0
H1211 H 0.92783 0.14919 0.54909 0.0
H1212 H 0.93624 0.13392 0.58383 0.0
H1213 H 0.87327 0.06211 0.47816 0.0
H1214 H 0.90238 0.04519 0.46389 0.0
H1215 H 0.90296 0.08169 0.45715 0.0
C1216 C 0.20135 0.62761 0.16651 0.0
C1217 C 0.22522 0.63982 0.14839 0.0
C1218 C 0.17526 0.61374 0.15359 0.0
C1219 C 0.17291 0.61177 0.12173 0.0
C1220 C 0.19721 0.62342 0.10339 0.0
C1221 C 0.2229 0.63724 0.11686 0.0
C1222 C 0.14996 0.60171 0.17406 0.0
C1223 C 0.19597 0.62161 0.06939 0.0
C1224 C 0.11391 0.55689 0.08617 0.0
C1225 C 0.09258 0.57264 0.07892 0.0
C1226 C 0.1399 0.5692 0.10026 0.0
C1227 C 0.14494 0.59811 0.10747 0.0
C1228 C 0.12354 0.61416 0.10023 0.0
C1229 C 0.09777 0.60131 0.08606 0.0
C1230 C 0.16205 0.55124 0.10732 0.0
C1231 C 0.12788 0.64501 0.10747 0.0
H1232 H 0.20274 0.62961 0.19084 0.0
H1233 H 0.24131 0.64612 0.10259 0.0
H1234 H 0.13119 0.61224 0.17012 0.0
H1235 H 0.14284 0.57921 0.16882 0.0
H1236 H 0.15548 0.60411 0.1983 0.0
H1237 H 0.21697 0.63096 0.05829 0.0
H1238 H 0.19022 0.59949 0.06193 0.0
H1239 H 0.17869 0.63256 0.06149 0.0
H1240 H 0.11044 0.53483 0.08066 0.0
H1241 H 0.08154 0.61379 0.08081 0.0
H1242 H 0.16625 0.55221 0.13187 0.0
H1243 H 0.18304 0.55924 0.09548 0.0
H1244 H 0.15483 0.52906 0.10054 0.0
H1245 H 0.13135 0.6486 0.13199 0.0
H1246 H 0.109 0.6545 0.101 0.0
H1247 H 0.14768 0.65596 0.09544 0.0
C1248 C 0.32563 0.45621 0.66922 0.0
C1249 C 0.29976 0.44695 0.65371 0.0
C1250 C 0.35213 0.46586 0.65356 0.0
C1251 C 0.35281 0.46676 0.62158 0.0
C1252 C 0.32653 0.45832 0.6059 0.0
C1253 C 0.30048 0.44833 0.62208 0.0
C1254 C 0.3796 0.47421 0.67122 0.0
C1255 C 0.32601 0.45929 0.5719 0.0
C1256 C 0.41819 0.50961 0.57954 0.0
C1257 C 0.43364 0.48884 0.5696 0.0
C1258 C 0.39203 0.5029 0.59674 0.0
C1259 C 0.38118 0.47471 0.60438 0.0
C1260 C 0.39704 0.45376 0.59467 0.0
C1261 C 0.42281 0.46104 0.57719 0.0
C1262 C 0.37562 0.52586 0.60605 0.0
C1263 C 0.38668 0.42352 0.6025 0.0
H1264 H 0.32535 0.45501 0.69362 0.0
H1265 H 0.28055 0.44155 0.60992 0.0
H1266 H 0.39502 0.45988 0.66543 0.0
H1267 H 0.39055 0.49555 0.66506 0.0
H1268 H 0.37527 0.47366 0.69599 0.0
H1269 H 0.30355 0.45404 0.56323 0.0
H1270 H 0.33604 0.48038 0.56398 0.0
H1271 H 0.33909 0.44432 0.56193 0.0
H1272 H 0.42589 0.53092 0.57289 0.0
H1273 H 0.43466 0.44487 0.56954 0.0
H1274 H 0.37161 0.5257 0.63083 0.0
H1275 H 0.35404 0.52224 0.5953 0.0
H1276 H 0.38755 0.54681 0.59957 0.0
H1277 H 0.38357 0.42138 0.62731 0.0
H1278 H 0.40221 0.40996 0.59451 0.0
H1279 H 0.36527 0.41586 0.59222 0.0
C1280 C 0.7779 0.67412 0.89452 0.0
C1281 C 0.77099 0.70014 0.9029 0.0
C1282 C 0.79922 0.66308 0.90962 0.0
C1283 C 0.81362 0.6782 0.93407 0.0
C1284 C 0.80526 0.70348 0.94406 0.0
C1285 C 0.78413 0.71425 0.92824 0.0
C1286 C 0.80753 0.63606 0.89827 0.0
C1287 C 0.81976 0.71994 0.9704 0.0
C1288 C 0.85897 0.64001 0.98299 0.0
C1289 C 0.88711 0.64928 0.97109 0.0
C1290 C 0.83484 0.64967 0.97161 0.0
C1291 C 0.83897 0.66869 0.94748 0.0
C1292 C 0.86738 0.67816 0.93545 0.0
C1293 C 0.89116 0.66849 0.94758 0.0
C1294 C 0.80496 0.63949 0.98533 0.0
C1295 C 0.87261 0.69816 0.90942 0.0
H1296 H 0.76739 0.66282 0.87535 0.0
H1297 H 0.7791 0.73445 0.93476 0.0
H1298 H 0.83012 0.6402 0.88879 0.0
H1299 H 0.80711 0.6213 0.91709 0.0
H1300 H 0.79279 0.62585 0.88048 0.0
H1301 H 0.80834 0.7372 0.97767 0.0
H1302 H 0.82053 0.70612 0.98987 0.0
H1303 H 0.84258 0.729 0.96396 0.0
H1304 H 0.8559 0.6254 1.00145 0.0
H1305 H 0.9129 0.6755 0.93826 0.0
H1306 H 0.79048 0.62809 0.96805 0.0
H1307 H 0.79503 0.65752 0.99321 0.0
H1308 H 0.80561 0.62544 1.00467 0.0
H1309 H 0.86028 0.6888 0.88958 0.0
H1310 H 0.89604 0.70356 0.90277 0.0
H1311 H 0.86455 0.71768 0.91554 0.0
C1312 C 0.4274 0.83881 0.13341 0.0
C1313 C 0.43009 0.83534 0.1646 0.0
C1314 C 0.43869 0.86429 0.1192 0.0
C1315 C 0.45332 0.88714 0.13637 0.0
C1316 C 0.456 0.88389 0.16785 0.0
C1317 C 0.44439 0.8582 0.18152 0.0
C1318 C 0.43533 0.86659 0.08561 0.0
C1319 C 0.47142 0.90754 0.18713 0.0
C1320 C 0.50902 0.94233 0.09586 0.0
C1321 C 0.49368 0.96444 0.09272 0.0
C1322 C 0.49616 0.91726 0.10989 0.0
C1323 C 0.46705 0.91389 0.12118 0.0
C1324 C 0.45132 0.93608 0.11788 0.0
C1325 C 0.46478 0.96104 0.10372 0.0
C1326 C 0.51388 0.89436 0.11271 0.0
C1327 C 0.42024 0.93345 0.12939 0.0
H1328 H 0.41688 0.82137 0.11983 0.0
H1329 H 0.4463 0.85616 0.20564 0.0
H1330 H 0.42477 0.88468 0.08076 0.0
H1331 H 0.4571 0.8703 0.07422 0.0
H1332 H 0.42216 0.84749 0.07566 0.0
H1333 H 0.47104 0.90206 0.21137 0.0
H1334 H 0.49445 0.91336 0.17928 0.0
H1335 H 0.4611 0.92623 0.18485 0.0
H1336 H 0.53131 0.94463 0.08737 0.0
H1337 H 0.45271 0.97793 0.10134 0.0
H1338 H 0.50279 0.87505 0.10132 0.0
H1339 H 0.51569 0.88942 0.13685 0.0
H1340 H 0.53619 0.90013 0.10271 0.0
H1341 H 0.40652 0.91521 0.1185 0.0
H1342 H 0.41087 0.95239 0.12498 0.0
H1343 H 0.41914 0.92973 0.15404 0.0
C1344 C 0.12777 0.22024 0.64481 0.0
C1345 C 0.10993 0.23923 0.6548 0.0
C1346 C 0.11602 0.19402 0.63226 0.0
C1347 C 0.08545 0.18602 0.62986 0.0
C1348 C 0.06717 0.20458 0.6409 0.0
C1349 C 0.07958 0.23089 0.65316 0.0
C1350 C 0.13647 0.17511 0.62088 0.0
C1351 C 0.03447 0.19688 0.6391 0.0
C1352 C 0.05767 0.13107 0.56957 0.0
C1353 C 0.05132 0.1064 0.58629 0.0
C1354 C 0.06851 0.15699 0.58344 0.0
C1355 C 0.07288 0.15861 0.61501 0.0
C1356 C 0.06631 0.13382 0.63207 0.0
C1357 C 0.05581 0.10809 0.61754 0.0
C1358 C 0.07555 0.18266 0.56416 0.0
C1359 C 0.0704 0.13447 0.66575 0.0
H1360 H 0.15121 0.22599 0.64654 0.0
H1361 H 0.06549 0.24528 0.6606 0.0
H1362 H 0.13116 0.1546 0.63209 0.0
H1363 H 0.13373 0.17124 0.59629 0.0
H1364 H 0.15967 0.1841 0.62491 0.0
H1365 H 0.02317 0.21274 0.65022 0.0
H1366 H 0.02813 0.19469 0.61511 0.0
H1367 H 0.02673 0.17643 0.64986 0.0
H1368 H 0.05435 0.13017 0.54543 0.0
H1369 H 0.0508 0.0893 0.63081 0.0
H1370 H 0.09896 0.19194 0.56596 0.0
H1371 H 0.06283 0.19862 0.57238 0.0
H1372 H 0.07075 0.17802 0.53999 0.0
H1373 H 0.09367 0.14197 0.67081 0.0
H1374 H 0.06343 0.11363 0.67599 0.0
H1375 H 0.05775 0.14934 0.67668 0.0
C1376 C 0.70539 0.3284 0.58105 0.0
C1377 C 0.68669 0.30253 0.57959 0.0
C1378 C 0.69394 0.35315 0.5823 0.0
C1379 C 0.66338 0.3515 0.58191 0.0
C1380 C 0.64486 0.32555 0.58671 0.0
C1381 C 0.65683 0.30114 0.58539 0.0
C1382 C 0.7144 0.38065 0.57895 0.0
C1383 C 0.61217 0.3231 0.58802 0.0
C1384 C 0.62536 0.41296 0.56924 0.0
C1385 C 0.6216 0.41093 0.53787 0.0
C1386 C 0.64029 0.39471 0.58408 0.0
C1387 C 0.65129 0.37384 0.56711 0.0
C1388 C 0.64887 0.37272 0.53525 0.0
C1389 C 0.63425 0.3914 0.52109 0.0
C1390 C 0.64292 0.3971 0.61791 0.0
C1391 C 0.66062 0.35099 0.51607 0.0
H1392 H 0.7286 0.32949 0.57703 0.0
H1393 H 0.64249 0.28101 0.58491 0.0
H1394 H 0.71667 0.38619 0.55472 0.0
H1395 H 0.70579 0.39758 0.59133 0.0
H1396 H 0.73638 0.37946 0.58731 0.0
H1397 H 0.60138 0.3029 0.59771 0.0
H1398 H 0.60568 0.34039 0.60169 0.0
H1399 H 0.60416 0.32445 0.56482 0.0
H1400 H 0.61574 0.42812 0.58239 0.0
H1401 H 0.63215 0.39031 0.49678 0.0
H1402 H 0.64396 0.41904 0.62573 0.0
H1403 H 0.66244 0.3895 0.62582 0.0
H1404 H 0.62339 0.38437 0.62871 0.0
H1405 H 0.68416 0.352 0.52006 0.0
H1406 H 0.6578 0.35371 0.49157 0.0
H1407 H 0.64919 0.32982 0.52231 0.0
loop_
_geom_bond_atom_site_label_1
_geom_bond_atom_site_label_2
_geom_bond_distance
_geom_bond_site_symmetry_2
_ccdc_geom_bond_type
C0 C1 1.391 . S
C0 C4 1.391 . S
C0 H42 0.948 . S
C1 C0 1.391 . S
C1 C2 1.391 . S
C2 C1 1.391 . S
C2 H58 0.947 . S
C2 C59 1.392 . S
C3 C4 1.391 . S
C3 C7 1.397 . S
C3 C59 1.419 . S
C4 C0 1.391 . S
C4 C3 1.391 . S
C4 C5 1.399 . S
C5 C4 1.399 . S
C5 C8 1.396 . S
C5 C17 1.453 . S
C5 C18 1.684 . S
H6 C30 0.948 . S
C7 C3 1.397 . S
C7 C8 1.394 . S
C7 C26 1.723 . S
C8 C5 1.396 . S
C8 C7 1.394 . S
C8 C38 1.723 . S
H9 C32 0.947 . S
H10 C33 0.948 . S
H11 C39 0.982 . S
H12 C40 0.979 . S
H13 C40 0.980 . S
H14 C40 0.983 . S
H15 C39 0.979 . S
H16 C39 0.977 . S
C17 C5 1.453 . S
C17 H46 0.982 . S
C17 H47 0.979 . S
C17 H48 0.977 . S
C18 C5 1.684 . S
C18 H43 0.979 . S
C18 H44 0.980 . S
C18 H45 0.983 . S
C19 C20 1.391 . S
C19 C24 1.391 . S
C19 H49 0.948 . S
C20 C19 1.391 . S
C20 C21 1.391 . S
C21 C20 1.391 . S
C21 C22 1.392 . S
C21 H50 0.947 . S
C22 C21 1.392 . S
C22 C23 1.419 . S
C22 H51 0.948 . S
C23 C22 1.419 . S
C23 C24 1.391 . S
C23 C27 1.397 . S
C24 C19 1.391 . S
C24 C23 1.391 . S
C24 C25 1.399 . S
C25 C24 1.399 . S
C25 C26 1.396 . S
C25 C28 1.453 . S
C25 C29 1.684 . S
C26 C7 1.723 . S
C26 C25 1.396 . S
C26 C27 1.394 . S
C27 C23 1.397 . S
C27 C26 1.394 . S
C27 C37 1.723 . S
C28 C25 1.453 . S
C28 H52 0.982 . S
C28 H53 0.979 . S
C28 H54 0.977 . S
C29 C25 1.684 . S
C29 H55 0.979 . S
C29 H56 0.980 . S
C29 H57 0.983 . S
C30 H6 0.948 . S
C30 C31 1.391 . S
C30 C35 1.391 . S
C31 C30 1.391 . S
C31 C32 1.391 . S
C32 H9 0.947 . S
C32 C31 1.391 . S
C32 C33 1.392 . S
C33 H10 0.948 . S
C33 C32 1.392 . S
C33 C34 1.419 . S
C34 C33 1.419 . S
C34 C35 1.391 . S
C34 C38 1.397 . S
C35 C30 1.391 . S
C35 C34 1.391 . S
C35 C36 1.399 . S
C36 C35 1.399 . S
C36 C37 1.396 . S
C36 C39 1.453 . S
C36 C40 1.684 . S
C37 C27 1.723 . S
C37 C36 1.396 . S
C37 C38 1.394 . S
C38 C8 1.723 . S
C38 C34 1.397 . S
C38 C37 1.394 . S
C39 H11 0.982 . S
C39 H15 0.979 . S
C39 H16 0.977 . S
C39 C36 1.453 . S
C40 H12 0.979 . S
C40 H13 0.980 . S
C40 H14 0.983 . S
C40 C36 1.684 . S
H41 C59 0.948 . S
H42 C0 0.948 . S
H43 C18 0.979 . S
H44 C18 0.980 . S
H45 C18 0.983 . S
H46 C17 0.982 . S
H47 C17 0.979 . S
H48 C17 0.977 . S
H49 C19 0.948 . S
H50 C21 0.947 . S
H51 C22 0.948 . S
H52 C28 0.982 . S
H53 C28 0.979 . S
H54 C28 0.977 . S
H55 C29 0.979 . S
H56 C29 0.980 . S
H57 C29 0.983 . S
H58 C2 0.947 . S
C59 C2 1.392 . S
C59 C3 1.419 . S
C59 H41 0.948 . S
C60 C61 1.391 . S
C60 C64 1.391 . S
C60 H102 0.948 . S
C61 C60 1.391 . S
C61 C62 1.391 . S
C62 C61 1.391 . S
C62 H118 0.947 . S
C62 C119 1.392 . S
C63 C64 1.391 . S
C63 C67 1.397 . S
C63 C119 1.419 . S
C64 C60 1.391 . S
C64 C63 1.391 . S
C64 C65 1.399 . S
C65 C64 1.399 . S
C65 C68 1.396 . S
C65 C77 1.453 . S
C65 C78 1.684 . S
H66 C90 0.948 . S
C67 C63 1.397 . S
C67 C68 1.394 . S
C67 C86 1.723 . S
C68 C65 1.396 . S
C68 C67 1.394 . S
C68 C98 1.723 . S
H69 C92 0.947 . S
H70 C93 0.948 . S
H71 C99 0.982 . S
H72 C100 0.979 . S
H73 C100 0.980 . S
H74 C100 0.983 . S
H75 C99 0.979 . S
H76 C99 0.977 . S
C77 C65 1.453 . S
C77 H106 0.982 . S
C77 H107 0.979 . S
C77 H108 0.977 . S
C78 C65 1.684 . S
C78 H103 0.979 . S
C78 H104 0.980 . S
C78 H105 0.983 . S
C79 C80 1.391 . S
C79 C84 1.391 . S
C79 H109 0.948 . S
C80 C79 1.391 . S
C80 C81 1.391 . S
C81 C80 1.391 . S
C81 C82 1.392 . S
C81 H110 0.947 . S
C82 C81 1.392 . S
C82 C83 1.419 . S
C82 H111 0.948 . S
C83 C82 1.419 . S
C83 C84 1.391 . S
C83 C87 1.397 . S
C84 C79 1.391 . S
C84 C83 1.391 . S
C84 C85 1.399 . S
C85 C84 1.399 . S
C85 C86 1.396 . S
C85 C88 1.453 . S
C85 C89 1.684 . S
C86 C67 1.723 . S
C86 C85 1.396 . S
C86 C87 1.394 . S
C87 C83 1.397 . S
C87 C86 1.394 . S
C87 C97 1.723 . S
C88 C85 1.453 . S
C88 H112 0.982 . S
C88 H113 0.979 . S
C88 H114 0.977 . S
C89 C85 1.684 . S
C89 H115 0.979 . S
C89 H116 0.980 . S
C89 H117 0.983 . S
C90 H66 0.948 . S
C90 C91 1.391 . S
C90 C95 1.391 . S
C91 C90 1.391 . S
C91 C92 1.391 . S
C92 H69 0.947 . S
C92 C91 1.391 . S
C92 C93 1.392 . S
C93 H70 0.948 . S
C93 C92 1.392 . S
C93 C94 1.419 . S
C94 C93 1.419 . S
C94 C95 1.391 . S
C94 C98 1.397 . S
C95 C90 1.391 . S
C95 C94 1.391 . S
C95 C96 1.399 . S
C96 C95 1.399 . S
C96 C97 1.396 . S
C96 C99 1.453 . S
C96 C100 1.684 . S
C97 C87 1.723 . S
C97 C96 1.396 . S
C97 C98 1.394 . S
C98 C68 1.723 . S
C98 C94 1.397 . S
C98 C97 1.394 . S
C99 H71 0.982 . S
C99 H75 0.979 . S
C99 H76 0.977 . S
C99 C96 1.453 . S
C100 H72 0.979 . S
C100 H73 0.980 . S
C100 H74 0.983 . S
C100 C96 1.684 . S
H101 C119 0.948 . S
H102 C60 0.948 . S
H103 C78 0.979 . S
H104 C78 0.980 . S
H105 C78 0.983 . S
H106 C77 0.982 . S
H107 C77 0.979 . S
H108 C77 0.977 . S
H109 C79 0.948 . S
H110 C81 0.947 . S
H111 C82 0.948 . S
H112 C88 0.982 . S
H113 C88 0.979 . S
H114 C88 0.977 . S
H115 C89 0.979 . S
H116 C89 0.980 . S
H117 C89 0.983 . S
H118 C62 0.947 . S
C119 C62 1.392 . S
C119 C63 1.419 . S
C119 H101 0.948 . S
C120 C121 1.391 . S
C120 C124 1.391 . S
C120 H162 0.948 . S
C121 C120 1.391 . S
C121 C122 1.391 . S
C122 C121 1.391 . S
C122 H178 0.947 . S
C122 C179 1.392 . S
C123 C124 1.391 . S
C123 C127 1.397 . S
C123 C179 1.419 . S
C124 C120 1.391 . S
C124 C123 1.391 . S
C124 C125 1.399 . S
C125 C124 1.399 . S
C125 C128 1.396 . S
C125 C137 1.453 . S
C125 C138 1.684 . S
H126 C150 0.948 . S
C127 C123 1.397 . S
C127 C128 1.394 . S
C127 C146 1.723 . S
C128 C125 1.396 . S
C128 C127 1.394 . S
C128 C158 1.723 . S
H129 C152 0.947 . S
H130 C153 0.948 . S
H131 C159 0.982 . S
H132 C160 0.979 . S
H133 C160 0.980 . S
H134 C160 0.983 . S
H135 C159 0.979 . S
H136 C159 0.977 . S
C137 C125 1.453 . S
C137 H166 0.982 . S
C137 H167 0.979 . S
C137 H168 0.977 . S
C138 C125 1.684 . S
C138 H163 0.979 . S
C138 H164 0.980 . S
C138 H165 0.983 . S
C139 C140 1.391 . S
C139 C144 1.391 . S
C139 H169 0.948 . S
C140 C139 1.391 . S
C140 C141 1.391 . S
C141 C140 1.391 . S
C141 C142 1.392 . S
C141 H170 0.947 . S
C142 C141 1.392 . S
C142 C143 1.419 . S
C142 H171 0.948 . S
C143 C142 1.419 . S
C143 C144 1.391 . S
C143 C147 1.397 . S
C144 C139 1.391 . S
C144 C143 1.391 . S
C144 C145 1.399 . S
C145 C144 1.399 . S
C145 C146 1.396 . S
C145 C148 1.453 . S
C145 C149 1.684 . S
C146 C127 1.723 . S
C146 C145 1.396 . S
C146 C147 1.394 . S
C147 C143 1.397 . S
C147 C146 1.394 . S
C147 C157 1.723 . S
C148 C145 1.453 . S
C148 H172 0.982 . S
C148 H173 0.979 . S
C148 H174 0.977 . S
C149 C145 1.684 . S
C149 H175 0.979 . S
C149 H176 0.980 . S
C149 H177 0.983 . S
C150 H126 0.948 . S
C150 C151 1.391 . S
C150 C155 1.391 . S
C151 C150 1.391 . S
C151 C152 1.391 . S
C152 H129 0.947 . S
C152 C151 1.391 . S
C152 C153 1.392 . S
C153 H130 0.948 . S
C153 C152 1.392 . S
C153 C154 1.419 . S
C154 C153 1.419 . S
C154 C155 1.391 . S
C154 C158 1.397 . S
C155 C150 1.391 . S
C155 C154 1.391 . S
C155 C156 1.399 . S
C156 C155 1.399 . S
C156 C157 1.396 . S
C156 C159 1.453 . S
C156 C160 1.684 . S
C157 C147 1.723 . S
C157 C156 1.396 . S
C157 C158 1.394 . S
C158 C128 1.723 . S
C158 C154 1.397 . S
C158 C157 1.394 . S
C159 H131 0.982 . S
C159 H135 0.979 . S
C159 H136 0.977 . S
C159 C156 1.453 . S
C160 H132 0.979 . S
C160 H133 0.980 . S
C160 H134 0.983 . S
C160 C156 1.684 . S
H161 C179 0.948 . S
H162 C120 0.948 . S
H163 C138 0.979 . S
H164 C138 0.980 . S
H165 C138 0.983 . S
H166 C137 0.982 . S
H167 C137 0.979 . S
H168 C137 0.977 . S
H169 C139 0.948 . S
H170 C141 0.947 . S
H171 C142 0.948 . S
H172 C148 0.982 . S
H173 C148 0.979 . S
H174 C148 0.977 . S
H175 C149 0.979 . S
H176 C149 0.980 . S
H177 C149 0.983 . S
H178 C122 0.947 . S
C179 C122 1.392 . S
C179 C123 1.419 . S
C179 H161 0.948 . S
C180 C181 1.391 . S
C180 C184 1.391 . S
C180 H222 0.948 . S
C181 C180 1.391 . S
C181 C182 1.391 . S
C182 C181 1.391 . S
C182 H238 0.947 . S
C182 C239 1.392 . S
C183 C184 1.391 . S
C183 C187 1.397 . S
C183 C239 1.419 . S
C184 C180 1.391 . S
C184 C183 1.391 . S
C184 C185 1.399 . S
C185 C184 1.399 . S
C185 C188 1.396 . S
C185 C197 1.453 . S
C185 C198 1.684 . S
H186 C210 0.948 . S
C187 C183 1.397 . S
C187 C188 1.394 . S
C187 C206 1.723 . S
C188 C185 1.396 . S
C188 C187 1.394 . S
C188 C218 1.723 . S
H189 C212 0.947 . S
H190 C213 0.948 . S
H191 C219 0.982 . S
H192 C220 0.979 . S
H193 C220 0.980 . S
H194 C220 0.983 . S
H195 C219 0.979 . S
H196 C219 0.977 . S
C197 C185 1.453 . S
C197 H226 0.982 . S
C197 H227 0.979 . S
C197 H228 0.977 . S
C198 C185 1.684 . S
C198 H223 0.979 . S
C198 H224 0.980 . S
C198 H225 0.983 . S
C199 C200 1.391 . S
C199 C204 1.391 . S
C199 H229 0.948 . S
C200 C199 1.391 . S
C200 C201 1.391 . S
C201 C200 1.391 . S
C201 C202 1.392 . S
C201 H230 0.947 . S
C202 C201 1.392 . S
C202 C203 1.419 . S
C202 H231 0.948 . S
C203 C202 1.419 . S
C203 C204 1.391 . S
C203 C207 1.397 . S
C204 C199 1.391 . S
C204 C203 1.391 . S
C204 C205 1.399 . S
C205 C204 1.399 . S
C205 C206 1.396 . S
C205 C208 1.453 . S
C205 C209 1.684 . S
C206 C187 1.723 . S
C206 C205 1.396 . S
C206 C207 1.394 . S
C207 C203 1.397 . S
C207 C206 1.394 . S
C207 C217 1.723 . S
C208 C205 1.453 . S
C208 H232 0.982 . S
C208 H233 0.979 . S
C208 H234 0.977 . S
C209 C205 1.684 . S
C209 H235 0.979 . S
C209 H236 0.980 . S
C209 H237 0.983 . S
C210 H186 0.948 . S
C210 C211 1.391 . S
C210 C215 1.391 . S
C211 C210 1.391 . S
C211 C212 1.391 . S
C212 H189 0.947 . S
C212 C211 1.391 . S
C212 C213 1.392 . S
C213 H190 0.948 . S
C213 C212 1.392 . S
C213 C214 1.419 . S
C214 C213 1.419 . S
C214 C215 1.391 . S
C214 C218 1.397 . S
C215 C210 1.391 . S
C215 C214 1.391 . S
C215 C216 1.399 . S
C216 C215 1.399 . S
C216 C217 1.396 . S
C216 C219 1.453 . S
C216 C220 1.684 . S
C217 C207 1.723 . S
C217 C216 1.396 . S
C217 C218 1.394 . S
C218 C188 1.723 . S
C218 C214 1.397 . S
C218 C217 1.394 . S
C219 H191 0.982 . S
C219 H195 0.979 . S
C219 H196 0.977 . S
C219 C216 1.453 . S
C220 H192 0.979 . S
C220 H193 0.980 . S
C220 H194 0.983 . S
C220 C216 1.684 . S
H221 C239 0.948 . S
H222 C180 0.948 . S
H223 C198 0.979 . S
H224 C198 0.980 . S
H225 C198 0.983 . S
H226 C197 0.982 . S
H227 C197 0.979 . S
H228 C197 0.977 . S
H229 C199 0.948 . S
H230 C201 0.947 . S
H231 C202 0.948 . S
H232 C208 0.982 . S
H233 C208 0.979 . S
H234 C208 0.977 . S
H235 C209 0.979 . S
H236 C209 0.980 . S
H237 C209 0.983 . S
H238 C182 0.947 . S
C239 C182 1.392 . S
C239 C183 1.419 . S
C239 H221 0.948 . S
C240 C241 1.391 . S
C240 C244 1.391 . S
C240 H282 0.948 . S
C241 C240 1.391 . S
C241 C242 1.391 . S
C242 C241 1.391 . S
C242 H298 0.947 . S
C242 C299 1.392 . S
C243 C244 1.391 . S
C243 C247 1.397 . S
C243 C299 1.419 . S
C244 C240 1.391 . S
C244 C243 1.391 . S
C244 C245 1.399 . S
C245 C244 1.399 . S
C245 C248 1.396 . S
C245 C257 1.453 . S
C245 C258 1.684 . S
H246 C270 0.948 . S
C247 C243 1.397 . S
C247 C248 1.394 . S
C247 C266 1.723 . S
C248 C245 1.396 . S
C248 C247 1.394 . S
C248 C278 1.723 . S
H249 C272 0.947 . S
H250 C273 0.948 . S
H251 C279 0.982 . S
H252 C280 0.979 . S
H253 C280 0.980 . S
H254 C280 0.983 . S
H255 C279 0.979 . S
H256 C279 0.977 . S
C257 C245 1.453 . S
C257 H286 0.982 . S
C257 H287 0.979 . S
C257 H288 0.977 . S
C258 C245 1.684 . S
C258 H283 0.979 . S
C258 H284 0.980 . S
C258 H285 0.983 . S
C259 C260 1.391 . S
C259 C264 1.391 . S
C259 H289 0.948 . S
C260 C259 1.391 . S
C260 C261 1.391 . S
C261 C260 1.391 . S
C261 C262 1.392 . S
C261 H290 0.947 . S
C262 C261 1.392 . S
C262 C263 1.419 . S
C262 H291 0.948 . S
C263 C262 1.419 . S
C263 C264 1.391 . S
C263 C267 1.397 . S
C264 C259 1.391 . S
C264 C263 1.391 . S
C264 C265 1.399 . S
C265 C264 1.399 . S
C265 C266 1.396 . S
C265 C268 1.453 . S
C265 C269 1.684 . S
C266 C247 1.723 . S
C266 C265 1.396 . S
C266 C267 1.394 . S
C267 C263 1.397 . S
C267 C266 1.394 . S
C267 C277 1.723 . S
C268 C265 1.453 . S
C268 H292 0.982 . S
C268 H293 0.979 . S
C268 H294 0.977 . S
C269 C265 1.684 . S
C269 H295 0.979 . S
C269 H296 0.980 . S
C269 H297 0.983 . S
C270 H246 0.948 . S
C270 C271 1.391 . S
C270 C275 1.391 . S
C271 C270 1.391 . S
C271 C272 1.391 . S
C272 H249 0.947 . S
C272 C271 1.391 . S
C272 C273 1.392 . S
C273 H250 0.948 . S
C273 C272 1.392 . S
C273 C274 1.419 . S
C274 C273 1.419 . S
C274 C275 1.391 . S
C274 C278 1.397 . S
C275 C270 1.391 . S
C275 C274 1.391 . S
C275 C276 1.399 . S
C276 C275 1.399 . S
C276 C277 1.396 . S
C276 C279 1.453 . S
C276 C280 1.684 . S
C277 C267 1.723 . S
C277 C276 1.396 . S
C277 C278 1.394 . S
C278 C248 1.723 . S
C278 C274 1.397 . S
C278 C277 1.394 . S
C279 H251 0.982 . S
C279 H255 0.979 . S
C279 H256 0.977 . S
C279 C276 1.453 . S
C280 H252 0.979 . S
C280 H253 0.980 . S
C280 H254 0.983 . S
C280 C276 1.684 . S
H281 C299 0.948 . S
H282 C240 0.948 . S
H283 C258 0.979 . S
H284 C258 0.980 . S
H285 C258 0.983 . S
H286 C257 0.982 . S
H287 C257 0.979 . S
H288 C257 0.977 . S
H289 C259 0.948 . S
H290 C261 0.947 . S
H291 C262 0.948 . S
H292 C268 0.982 . S
H293 C268 0.979 . S
H294 C268 0.977 . S
H295 C269 0.979 . S
H296 C269 0.980 . S
H297 C269 0.983 . S
H298 C242 0.947 . S
C299 C242 1.392 . S
C299 C243 1.419 . S
C299 H281 0.948 . S
C300 C301 1.391 . S
C300 C304 1.391 . S
C300 H342 0.948 . S
C301 C300 1.391 . S
C301 C302 1.391 . S
C302 C301 1.391 . S
C302 H358 0.947 . S
C302 C359 1.392 . S
C303 C304 1.391 . S
C303 C307 1.397 . S
C303 C359 1.419 . S
C304 C300 1.391 . S
C304 C303 1.391 . S
C304 C305 1.399 . S
C305 C304 1.399 . S
C305 C308 1.396 . S
C305 C317 1.453 . S
C305 C318 1.684 . S
H306 C330 0.948 . S
C307 C303 1.397 . S
C307 C308 1.394 . S
C307 C326 1.723 . S
C308 C305 1.396 . S
C308 C307 1.394 . S
C308 C338 1.723 . S
H309 C332 0.947 . S
H310 C333 0.948 . S
H311 C339 0.982 . S
H312 C340 0.979 . S
H313 C340 0.980 . S
H314 C340 0.983 . S
H315 C339 0.979 . S
H316 C339 0.977 . S
C317 C305 1.453 . S
C317 H346 0.982 . S
C317 H347 0.979 . S
C317 H348 0.977 . S
C318 C305 1.684 . S
C318 H343 0.979 . S
C318 H344 0.980 . S
C318 H345 0.983 . S
C319 C320 1.391 . S
C319 C324 1.391 . S
C319 H349 0.948 . S
C320 C319 1.391 . S
C320 C321 1.391 . S
C321 C320 1.391 . S
C321 C322 1.392 . S
C321 H350 0.947 . S
C322 C321 1.392 . S
C322 C323 1.419 . S
C322 H351 0.948 . S
C323 C322 1.419 . S
C323 C324 1.391 . S
C323 C327 1.397 . S
C324 C319 1.391 . S
C324 C323 1.391 . S
C324 C325 1.399 . S
C325 C324 1.399 . S
C325 C326 1.396 . S
C325 C328 1.453 . S
C325 C329 1.684 . S
C326 C307 1.723 . S
C326 C325 1.396 . S
C326 C327 1.394 . S
C327 C323 1.397 . S
C327 C326 1.394 . S
C327 C337 1.723 . S
C328 C325 1.453 . S
C328 H352 0.982 . S
C328 H353 0.979 . S
C328 H354 0.977 . S
C329 C325 1.684 . S
C329 H355 0.979 . S
C329 H356 0.980 . S
C329 H357 0.983 . S
C330 H306 0.948 . S
C330 C331 1.391 . S
C330 C335 1.391 . S
C331 C330 1.391 . S
C331 C332 1.391 . S
C332 H309 0.947 . S
C332 C331 1.391 . S
C332 C333 1.392 . S
C333 H310 0.948 . S
C333 C332 1.392 . S
C333 C334 1.419 . S
C334 C333 1.419 . S
C334 C335 1.391 . S
C334 C338 1.397 . S
C335 C330 1.391 . S
C335 C334 1.391 . S
C335 C336 1.399 . S
C336 C335 1.399 . S
C336 C337 1.396 . S
C336 C339 1.453 . S
C336 C340 1.684 . S
C337 C327 1.723 . S
C337 C336 1.396 . S
C337 C338 1.394 . S
C338 C308 1.723 . S
C338 C334 1.397 . S
C338 C337 1.394 . S
C339 H311 0.982 . S
C339 H315 0.979 . S
C339 H316 0.977 . S
C339 C336 1.453 . S
C340 H312 0.979 . S
C340 H313 0.980 . S
C340 H314 0.983 . S
C340 C336 1.684 . S
H341 C359 0.948 . S
H342 C300 0.948 . S
H343 C318 0.979 . S
H344 C318 0.980 . S
H345 C318 0.983 . S
H346 C317 0.982 . S
H347 C317 0.979 . S
H348 C317 0.977 . S
H349 C319 0.948 . S
H350 C321 0.947 . S
H351 C322 0.948 . S
H352 C328 0.982 . S
H353 C328 0.979 . S
H354 C328 0.977 . S
H355 C329 0.979 . S
H356 C329 0.980 . S
H357 C329 0.983 . S
H358 C302 0.947 . S
C359 C302 1.392 . S
C359 C303 1.419 . S
C359 H341 0.948 . S
C360 C361 1.391 . S
C360 C364 1.391 . S
C360 H402 0.948 . S
C361 C360 1.391 . S
C361 C362 1.391 . S
C362 C361 1.391 . S
C362 H418 0.947 . S
C362 C419 1.392 . S
C363 C364 1.391 . S
C363 C367 1.397 . S
C363 C419 1.419 . S
C364 C360 1.391 . S
C364 C363 1.391 . S
C364 C365 1.399 . S
C365 C364 1.399 . S
C365 C368 1.396 . S
C365 C377 1.453 . S
C365 C378 1.684 . S
H366 C390 0.948 . S
C367 C363 1.397 . S
C367 C368 1.394 . S
C367 C386 1.723 . S
C368 C365 1.396 . S
C368 C367 1.394 . S
C368 C398 1.723 . S
H369 C392 0.947 . S
H370 C393 0.948 . S
H371 C399 0.982 . S
H372 C400 0.979 . S
H373 C400 0.980 . S
H374 C400 0.983 . S
H375 C399 0.979 . S
H376 C399 0.977 . S
C377 C365 1.453 . S
C377 H406 0.982 . S
C377 H407 0.979 . S
C377 H408 0.977 . S
C378 C365 1.684 . S
C378 H403 0.979 . S
C378 H404 0.980 . S
C378 H405 0.983 . S
C379 C380 1.391 . S
C379 C384 1.391 . S
C379 H409 0.948 . S
C380 C379 1.391 . S
C380 C381 1.391 . S
C381 C380 1.391 . S
C381 C382 1.392 . S
C381 H410 0.947 . S
C382 C381 1.392 . S
C382 C383 1.419 . S
C382 H411 0.948 . S
C383 C382 1.419 . S
C383 C384 1.391 . S
C383 C387 1.397 . S
C384 C379 1.391 . S
C384 C383 1.391 . S
C384 C385 1.399 . S
C385 C384 1.399 . S
C385 C386 1.396 . S
C385 C388 1.453 . S
C385 C389 1.684 . S
C386 C367 1.723 . S
C386 C385 1.396 . S
C386 C387 1.394 . S
C387 C383 1.397 . S
C387 C386 1.394 . S
C387 C397 1.723 . S
C388 C385 1.453 . S
C388 H412 0.982 . S
C388 H413 0.979 . S
C388 H414 0.977 . S
C389 C385 1.684 . S
C389 H415 0.979 . S
C389 H416 0.980 . S
C389 H417 0.983 . S
C390 H366 0.948 . S
C390 C391 1.391 . S
C390 C395 1.391 . S
C391 C390 1.391 . S
C391 C392 1.391 . S
C392 H369 0.947 . S
C392 C391 1.391 . S
C392 C393 1.392 . S
C393 H370 0.948 . S
C393 C392 1.392 . S
C393 C394 1.419 . S
C394 C393 1.419 . S
C394 C395 1.391 . S
C394 C398 1.397 . S
C395 C390 1.391 . S
C395 C394 1.391 . S
C395 C396 1.399 . S
C396 C395 1.399 . S
C396 C397 1.396 . S
C396 C399 1.453 . S
C396 C400 1.684 . S
C397 C387 1.723 . S
C397 C396 1.396 . S
C397 C398 1.394 . S
C398 C368 1.723 . S
C398 C394 1.397 . S
C398 C397 1.394 . S
C399 H371 0.982 . S
C399 H375 0.979 . S
C399 H376 0.977 . S
C399 C396 1.453 . S
C400 H372 0.979 . S
C400 H373 0.980 . S
C400 H374 0.983 . S
C400 C396 1.684 . S
H401 C419 0.948 . S
H402 C360 0.948 . S
H403 C378 0.979 . S
H404 C378 0.980 . S
H405 C378 0.983 . S
H406 C377 0.982 . S
H407 C377 0.979 . S
H408 C377 0.977 . S
H409 C379 0.948 . S
H410 C381 0.947 . S
H411 C382 0.948 . S
H412 C388 0.982 . S
H413 C388 0.979 . S
H414 C388 0.977 . S
H415 C389 0.979 . S
H416 C389 0.980 . S
H417 C389 0.983 . S
H418 C362 0.947 . S
C419 C362 1.392 . S
C419 C363 1.419 . S
C419 H401 0.948 . S
C420 C421 1.391 . S
C420 C424 1.391 . S
C420 H462 0.948 . S
C421 C420 1.391 . S
C421 C422 1.391 . S
C422 C421 1.391 . S
C422 H478 0.947 . S
C422 C479 1.392 . S
C423 C424 1.391 . S
C423 C427 1.397 . S
C423 C479 1.419 . S
C424 C420 1.391 . S
C424 C423 1.391 . S
C424 C425 1.399 . S
C425 C424 1.399 . S
C425 C428 1.396 . S
C425 C437 1.453 . S
C425 C438 1.684 . S
H426 C450 0.948 . S
C427 C423 1.397 . S
C427 C428 1.394 . S
C427 C446 1.723 . S
C428 C425 1.396 . S
C428 C427 1.394 . S
C428 C458 1.723 . S
H429 C452 0.947 . S
H430 C453 0.948 . S
H431 C459 0.982 . S
H432 C460 0.979 . S
H433 C460 0.980 . S
H434 C460 0.983 . S
H435 C459 0.979 . S
H436 C459 0.977 . S
C437 C425 1.453 . S
C437 H466 0.982 . S
C437 H467 0.979 . S
C437 H468 0.977 . S
C438 C425 1.684 . S
C438 H463 0.979 . S
C438 H464 0.980 . S
C438 H465 0.983 . S
C439 C440 1.391 . S
C439 C444 1.391 . S
C439 H469 0.948 . S
C440 C439 1.391 . S
C440 C441 1.391 . S
C441 C440 1.391 . S
C441 C442 1.392 . S
C441 H470 0.947 . S
C442 C441 1.392 . S
C442 C443 1.419 . S
C442 H471 0.948 . S
C443 C442 1.419 . S
C443 C444 1.391 . S
C443 C447 1.397 . S
C444 C439 1.391 . S
C444 C443 1.391 . S
C444 C445 1.399 . S
C445 C444 1.399 . S
C445 C446 1.396 . S
C445 C448 1.453 . S
C445 C449 1.684 . S
C446 C427 1.723 . S
C446 C445 1.396 . S
C446 C447 1.394 . S
C447 C443 1.397 . S
C447 C446 1.394 . S
C447 C457 1.723 . S
C448 C445 1.453 . S
C448 H472 0.982 . S
C448 H473 0.979 . S
C448 H474 0.977 . S
C449 C445 1.684 . S
C449 H475 0.979 . S
C449 H476 0.980 . S
C449 H477 0.983 . S
C450 H426 0.948 . S
C450 C451 1.391 . S
C450 C455 1.391 . S
C451 C450 1.391 . S
C451 C452 1.391 . S
C452 H429 0.947 . S
C452 C451 1.391 . S
C452 C453 1.392 . S
C453 H430 0.948 . S
C453 C452 1.392 . S
C453 C454 1.419 . S
C454 C453 1.419 . S
C454 C455 1.391 . S
C454 C458 1.397 . S
C455 C450 1.391 . S
C455 C454 1.391 . S
C455 C456 1.399 . S
C456 C455 1.399 . S
C456 C457 1.396 . S
C456 C459 1.453 . S
C456 C460 1.684 . S
C457 C447 1.723 . S
C457 C456 1.396 . S
C457 C458 1.394 . S
C458 C428 1.723 . S
C458 C454 1.397 . S
C458 C457 1.394 . S
C459 H431 0.982 . S
C459 H435 0.979 . S
C459 H436 0.977 . S
C459 C456 1.453 . S
C460 H432 0.979 . S
C460 H433 0.980 . S
C460 H434 0.983 . S
C460 C456 1.684 . S
H461 C479 0.948 . S
H462 C420 0.948 . S
H463 C438 0.979 . S
H464 C438 0.980 . S
H465 C438 0.983 . S
H466 C437 0.982 . S
H467 C437 0.979 . S
H468 C437 0.977 . S
H469 C439 0.948 . S
H470 C441 0.947 . S
H471 C442 0.948 . S
H472 C448 0.982 . S
H473 C448 0.979 . S
H474 C448 0.977 . S
H475 C449 0.979 . S
H476 C449 0.980 . S
H477 C449 0.983 . S
H478 C422 0.947 . S
C479 C422 1.392 . S
C479 C423 1.419 . S
C479 H461 0.948 . S
Sm480 C482 2.846 . S
Sm480 O500 2.543 . S
Sm480 O501 2.450 . S
Sm480 O502 2.681 1_545 S
Sm480 O503 2.464 1_545 S
Sm480 O504 2.396 . S
Sm480 O508 2.386 1_455 S
Sm480 O511 2.408 1_445 S
Sm481 C491 2.846 . S
Sm481 O502 2.386 1_655 S
Sm481 O505 2.408 1_665 S
Sm481 O506 2.543 . S
Sm481 O507 2.450 . S
Sm481 O508 2.681 1_565 S
Sm481 O509 2.464 1_565 S
Sm481 O510 2.396 . S
C482 Sm480 2.846 . S
C482 C483 1.506 . S
C482 O500 1.261 . S
C482 O501 1.242 . S
C483 C482 1.506 . S
C483 C484 1.358 . S
C483 C488 1.382 . S
C484 C483 1.358 . S
C484 C485 1.385 . S
C484 H512 0.930 . S
C485 C484 1.385 . S
C485 C486 1.395 . S
C485 H513 0.929 . S
C486 C485 1.395 . S
C486 C487 1.335 . S
C487 C486 1.335 . S
C487 C488 1.398 . S
C487 H514 0.930 . S
C488 C483 1.382 . S
C488 C487 1.398 . S
C488 H515 0.929 . S
C489 O502 1.271 . S
C489 O503 1.251 . S
C490 O504 1.252 . S
C490 O505 1.272 . S
C491 Sm481 2.846 . S
C491 C492 1.506 . S
C491 O506 1.261 . S
C491 O507 1.242 . S
C492 C491 1.506 . S
C492 C493 1.358 . S
C492 C497 1.382 . S
C493 C492 1.358 . S
C493 C494 1.385 . S
C493 H516 0.930 . S
C494 C493 1.385 . S
C494 C495 1.395 . S
C494 H517 0.929 . S
C495 C494 1.395 . S
C495 C496 1.335 . S
C496 C495 1.335 . S
C496 C497 1.398 . S
C496 H518 0.930 . S
C497 C492 1.382 . S
C497 C496 1.398 . S
C497 H519 0.929 . S
C498 O508 1.271 . S
C498 O509 1.251 . S
C499 O510 1.252 . S
C499 O511 1.272 . S
O500 Sm480 2.543 . S
O500 C482 1.261 . S
O501 Sm480 2.450 . S
O501 C482 1.242 . S
O502 Sm480 2.681 1_565 S
O502 Sm481 2.386 1_455 S
O502 C489 1.271 . S
O503 Sm480 2.464 1_565 S
O503 C489 1.251 . S
O504 Sm480 2.396 . S
O504 C490 1.252 . S
O505 Sm481 2.408 1_445 S
O505 C490 1.272 . S
O506 Sm481 2.543 . S
O506 C491 1.261 . S
O507 Sm481 2.450 . S
O507 C491 1.242 . S
O508 Sm480 2.386 1_655 S
O508 Sm481 2.681 1_545 S
O508 C498 1.271 . S
O509 Sm481 2.464 1_545 S
O509 C498 1.251 . S
O510 Sm481 2.396 . S
O510 C499 1.252 . S
O511 Sm480 2.408 1_665 S
O511 C499 1.272 . S
H512 C484 0.930 . S
H513 C485 0.929 . S
H514 C487 0.930 . S
H515 C488 0.929 . S
H516 C493 0.930 . S
H517 C494 0.929 . S
H518 C496 0.930 . S
H519 C497 0.929 . S
Sm520 C522 2.846 1_565 S
Sm520 O540 2.543 1_565 S
Sm520 O541 2.450 1_565 S
Sm520 O542 2.681 . S
Sm520 O543 2.464 . S
Sm520 O544 2.396 1_565 S
Sm520 O548 2.386 1_564 S
Sm520 O551 2.408 1_554 S
Sm521 C531 2.846 1_545 S
Sm521 O542 2.386 1_546 S
Sm521 O545 2.408 1_556 S
Sm521 O546 2.543 1_545 S
Sm521 O547 2.450 1_545 S
Sm521 O548 2.681 . S
Sm521 O549 2.464 . S
Sm521 O550 2.396 1_545 S
C522 Sm520 2.846 1_545 S
C522 C523 1.506 . S
C522 O540 1.261 . S
C522 O541 1.242 . S
C523 C522 1.506 . S
C523 C524 1.358 . S
C523 C528 1.382 . S
C524 C523 1.358 . S
C524 C525 1.385 . S
C524 H552 0.930 . S
C525 C524 1.385 . S
C525 C526 1.395 . S
C525 H553 0.929 . S
C526 C525 1.395 . S
C526 C527 1.335 . S
C527 C526 1.335 . S
C527 C528 1.398 . S
C527 H554 0.930 . S
C528 C523 1.382 . S
C528 C527 1.398 . S
C528 H555 0.929 . S
C529 O542 1.271 . S
C529 O543 1.251 . S
C530 O544 1.252 . S
C530 O545 1.272 . S
C531 Sm521 2.846 1_565 S
C531 C532 1.506 . S
C531 O546 1.261 . S
C531 O547 1.242 . S
C532 C531 1.506 . S
C532 C533 1.358 . S
C532 C537 1.382 . S
C533 C532 1.358 . S
C533 C534 1.385 . S
C533 H556 0.930 . S
C534 C533 1.385 . S
C534 C535 1.395 . S
C534 H557 0.929 . S
C535 C534 1.395 . S
C535 C536 1.335 . S
C536 C535 1.335 . S
C536 C537 1.398 . S
C536 H558 0.930 . S
C537 C532 1.382 . S
C537 C536 1.398 . S
C537 H559 0.929 . S
C538 O548 1.271 . S
C538 O549 1.251 . S
C539 O550 1.252 . S
C539 O551 1.272 . S
O540 Sm520 2.543 1_545 S
O540 C522 1.261 . S
O541 Sm520 2.450 1_545 S
O541 C522 1.242 . S
O542 Sm520 2.681 . S
O542 Sm521 2.386 1_564 S
O542 C529 1.271 . S
O543 Sm520 2.464 . S
O543 C529 1.251 . S
O544 Sm520 2.396 1_545 S
O544 C530 1.252 . S
O545 Sm521 2.408 1_554 S
O545 C530 1.272 . S
O546 Sm521 2.543 1_565 S
O546 C531 1.261 . S
O547 Sm521 2.450 1_565 S
O547 C531 1.242 . S
O548 Sm520 2.386 1_546 S
O548 Sm521 2.681 . S
O548 C538 1.271 . S
O549 Sm521 2.464 . S
O549 C538 1.251 . S
O550 Sm521 2.396 1_565 S
O550 C539 1.252 . S
O551 Sm520 2.408 1_556 S
O551 C539 1.272 . S
H552 C524 0.930 . S
H553 C525 0.929 . S
H554 C527 0.930 . S
H555 C528 0.929 . S
H556 C533 0.930 . S
H557 C534 0.929 . S
H558 C536 0.930 . S
H559 C537 0.929 . S
Sm560 C562 2.846 . S
Sm560 O580 2.543 . S
Sm560 O581 2.450 . S
Sm560 O582 2.681 . S
Sm560 O583 2.464 . S
Sm560 O584 2.396 . S
Sm560 O588 2.386 . S
Sm560 O591 2.408 . S
Sm561 C571 2.846 . S
Sm561 O582 2.386 . S
Sm561 O585 2.408 . S
Sm561 O586 2.543 . S
Sm561 O587 2.450 . S
Sm561 O588 2.681 . S
Sm561 O589 2.464 . S
Sm561 O590 2.396 . S
C562 Sm560 2.846 . S
C562 C563 1.506 . S
C562 O580 1.261 . S
C562 O581 1.242 . S
C563 C562 1.506 . S
C563 C564 1.358 . S
C563 C568 1.382 . S
C564 C563 1.358 . S
C564 C565 1.385 . S
C564 H592 0.930 . S
C565 C564 1.385 . S
C565 C566 1.395 . S
C565 H593 0.929 . S
C566 C565 1.395 . S
C566 C567 1.335 . S
C567 C566 1.335 . S
C567 C568 1.398 . S
C567 H594 0.930 . S
C568 C563 1.382 . S
C568 C567 1.398 . S
C568 H595 0.929 . S
C569 O582 1.271 . S
C569 O583 1.251 . S
C570 O584 1.252 . S
C570 O585 1.272 . S
C571 Sm561 2.846 . S
C571 C572 1.506 . S
C571 O586 1.261 . S
C571 O587 1.242 . S
C572 C571 1.506 . S
C572 C573 1.358 . S
C572 C577 1.382 . S
C573 C572 1.358 . S
C573 C574 1.385 . S
C573 H596 0.930 . S
C574 C573 1.385 . S
C574 C575 1.395 . S
C574 H597 0.929 . S
C575 C574 1.395 . S
C575 C576 1.335 . S
C576 C575 1.335 . S
C576 C577 1.398 . S
C576 H598 0.930 . S
C577 C572 1.382 . S
C577 C576 1.398 . S
C577 H599 0.929 . S
C578 O588 1.271 . S
C578 O589 1.251 . S
C579 O590 1.252 . S
C579 O591 1.272 . S
O580 Sm560 2.543 . S
O580 C562 1.261 . S
O581 Sm560 2.450 . S
O581 C562 1.242 . S
O582 Sm560 2.681 . S
O582 Sm561 2.386 . S
O582 C569 1.271 . S
O583 Sm560 2.464 . S
O583 C569 1.251 . S
O584 Sm560 2.396 . S
O584 C570 1.252 . S
O585 Sm561 2.408 . S
O585 C570 1.272 . S
O586 Sm561 2.543 . S
O586 C571 1.261 . S
O587 Sm561 2.450 . S
O587 C571 1.242 . S
O588 Sm560 2.386 . S
O588 Sm561 2.681 . S
O588 C578 1.271 . S
O589 Sm561 2.464 . S
O589 C578 1.251 . S
O590 Sm561 2.396 . S
O590 C579 1.252 . S
O591 Sm560 2.408 . S
O591 C579 1.272 . S
H592 C564 0.930 . S
H593 C565 0.929 . S
H594 C567 0.930 . S
H595 C568 0.929 . S
H596 C573 0.930 . S
H597 C574 0.929 . S
H598 C576 0.930 . S
H599 C577 0.929 . S
Sm600 C602 2.846 . S
Sm600 O620 2.543 . S
Sm600 O621 2.450 . S
Sm600 O622 2.681 1_455 S
Sm600 O623 2.464 1_455 S
Sm600 O624 2.396 . S
Sm600 O628 2.386 1_554 S
Sm600 O631 2.408 1_454 S
Sm601 C611 2.846 . S
Sm601 O622 2.386 1_556 S
Sm601 O625 2.408 1_656 S
Sm601 O626 2.543 . S
Sm601 O627 2.450 . S
Sm601 O628 2.681 1_655 S
Sm601 O629 2.464 1_655 S
Sm601 O630 2.396 . S
C602 Sm600 2.846 . S
C602 C603 1.506 . S
C602 O620 1.261 . S
C602 O621 1.242 . S
C603 C602 1.506 . S
C603 C604 1.358 . S
C603 C608 1.382 . S
C604 C603 1.358 . S
C604 C605 1.385 . S
C604 H632 0.930 . S
C605 C604 1.385 . S
C605 C606 1.395 . S
C605 H633 0.929 . S
C606 C605 1.395 . S
C606 C607 1.335 . S
C607 C606 1.335 . S
C607 C608 1.398 . S
C607 H634 0.930 . S
C608 C603 1.382 . S
C608 C607 1.398 . S
C608 H635 0.929 . S
C609 O622 1.271 . S
C609 O623 1.251 . S
C610 O624 1.252 . S
C610 O625 1.272 . S
C611 Sm601 2.846 . S
C611 C612 1.506 . S
C611 O626 1.261 . S
C611 O627 1.242 . S
C612 C611 1.506 . S
C612 C613 1.358 . S
C612 C617 1.382 . S
C613 C612 1.358 . S
C613 C614 1.385 . S
C613 H636 0.930 . S
C614 C613 1.385 . S
C614 C615 1.395 . S
C614 H637 0.929 . S
C615 C614 1.395 . S
C615 C616 1.335 . S
C616 C615 1.335 . S
C616 C617 1.398 . S
C616 H638 0.930 . S
C617 C612 1.382 . S
C617 C616 1.398 . S
C617 H639 0.929 . S
C618 O628 1.271 . S
C618 O629 1.251 . S
C619 O630 1.252 . S
C619 O631 1.272 . S
O620 Sm600 2.543 . S
O620 C602 1.261 . S
O621 Sm600 2.450 . S
O621 C602 1.242 . S
O622 Sm600 2.681 1_655 S
O622 Sm601 2.386 1_554 S
O622 C609 1.271 . S
O623 Sm600 2.464 1_655 S
O623 C609 1.251 . S
O624 Sm600 2.396 . S
O624 C610 1.252 . S
O625 Sm601 2.408 1_454 S
O625 C610 1.272 . S
O626 Sm601 2.543 . S
O626 C611 1.261 . S
O627 Sm601 2.450 . S
O627 C611 1.242 . S
O628 Sm600 2.386 1_556 S
O628 Sm601 2.681 1_455 S
O628 C618 1.271 . S
O629 Sm601 2.464 1_455 S
O629 C618 1.251 . S
O630 Sm601 2.396 . S
O630 C619 1.252 . S
O631 Sm600 2.408 1_656 S
O631 C619 1.272 . S
H632 C604 0.930 . S
H633 C605 0.929 . S
H634 C607 0.930 . S
H635 C608 0.929 . S
H636 C613 0.930 . S
H637 C614 0.929 . S
H638 C616 0.930 . S
H639 C617 0.929 . S
C640 C641 1.391 . S
C640 C642 1.394 . S
C640 H656 0.931 . S
C641 C640 1.391 . S
C641 C645 1.376 . S
C642 C640 1.394 . S
C642 C643 1.369 . S
C642 C646 1.531 . S
C643 C642 1.369 . S
C643 C644 1.410 . S
C643 C651 1.503 . S
C644 C643 1.410 . S
C644 C645 1.392 . S
C644 C647 1.511 . S
C645 C641 1.376 . S
C645 C644 1.392 . S
C645 H657 0.929 . S
C646 C642 1.531 . S
C646 H658 0.960 . S
C646 H659 0.962 . S
C646 H660 0.960 . S
C647 C644 1.511 . S
C647 H661 0.961 . S
C647 H662 0.961 . S
C647 H663 0.961 . S
C648 C649 1.370 . S
C648 C650 1.363 . S
C648 H664 0.931 . S
C649 C648 1.370 . S
C649 C653 1.408 . S
C650 C648 1.363 . S
C650 C651 1.370 . S
C650 C654 1.524 . S
C651 C643 1.503 . S
C651 C650 1.370 . S
C651 C652 1.403 . S
C652 C651 1.403 . S
C652 C653 1.404 . S
C652 C655 1.539 . S
C653 C649 1.408 . S
C653 C652 1.404 . S
C653 H665 0.930 . S
C654 C650 1.524 . S
C654 H666 0.956 . S
C654 H667 0.961 . S
C654 H668 0.961 . S
C655 C652 1.539 . S
C655 H669 0.958 . S
C655 H670 0.961 . S
C655 H671 0.960 . S
H656 C640 0.931 . S
H657 C645 0.929 . S
H658 C646 0.960 . S
H659 C646 0.962 . S
H660 C646 0.960 . S
H661 C647 0.961 . S
H662 C647 0.961 . S
H663 C647 0.961 . S
H664 C648 0.931 . S
H665 C653 0.930 . S
H666 C654 0.956 . S
H667 C654 0.961 . S
H668 C654 0.961 . S
H669 C655 0.958 . S
H670 C655 0.961 . S
H671 C655 0.960 . S
C672 C673 1.391 . S
C672 C674 1.394 . S
C672 H688 0.931 . S
C673 C672 1.391 . S
C673 C677 1.376 . S
C674 C672 1.394 . S
C674 C675 1.369 . S
C674 C678 1.531 . S
C675 C674 1.369 . S
C675 C676 1.410 . S
C675 C683 1.503 . S
C676 C675 1.410 . S
C676 C677 1.392 . S
C676 C679 1.511 . S
C677 C673 1.376 . S
C677 C676 1.392 . S
C677 H689 0.929 . S
C678 C674 1.531 . S
C678 H690 0.960 . S
C678 H691 0.962 . S
C678 H692 0.960 . S
C679 C676 1.511 . S
C679 H693 0.961 . S
C679 H694 0.961 . S
C679 H695 0.961 . S
C680 C681 1.370 . S
C680 C682 1.363 . S
C680 H696 0.931 . S
C681 C680 1.370 . S
C681 C685 1.408 . S
C682 C680 1.363 . S
C682 C683 1.370 . S
C682 C686 1.524 . S
C683 C675 1.503 . S
C683 C682 1.370 . S
C683 C684 1.403 . S
C684 C683 1.403 . S
C684 C685 1.404 . S
C684 C687 1.539 . S
C685 C681 1.408 . S
C685 C684 1.404 . S
C685 H697 0.930 . S
C686 C682 1.524 . S
C686 H698 0.956 . S
C686 H699 0.961 . S
C686 H700 0.961 . S
C687 C684 1.539 . S
C687 H701 0.958 . S
C687 H702 0.961 . S
C687 H703 0.960 . S
H688 C672 0.931 . S
H689 C677 0.929 . S
H690 C678 0.960 . S
H691 C678 0.962 . S
H692 C678 0.960 . S
H693 C679 0.961 . S
H694 C679 0.961 . S
H695 C679 0.961 . S
H696 C680 0.931 . S
H697 C685 0.930 . S
H698 C686 0.956 . S
H699 C686 0.961 . S
H700 C686 0.961 . S
H701 C687 0.958 . S
H702 C687 0.961 . S
H703 C687 0.960 . S
C704 C705 1.391 . S
C704 C706 1.394 . S
C704 H720 0.931 . S
C705 C704 1.391 . S
C705 C709 1.376 . S
C706 C704 1.394 . S
C706 C707 1.369 . S
C706 C710 1.531 . S
C707 C706 1.369 . S
C707 C708 1.410 . S
C707 C715 1.503 . S
C708 C707 1.410 . S
C708 C709 1.392 . S
C708 C711 1.511 . S
C709 C705 1.376 . S
C709 C708 1.392 . S
C709 H721 0.929 . S
C710 C706 1.531 . S
C710 H722 0.960 . S
C710 H723 0.962 . S
C710 H724 0.960 . S
C711 C708 1.511 . S
C711 H725 0.961 . S
C711 H726 0.961 . S
C711 H727 0.961 . S
C712 C713 1.370 . S
C712 C714 1.363 . S
C712 H728 0.931 . S
C713 C712 1.370 . S
C713 C717 1.408 . S
C714 C712 1.363 . S
C714 C715 1.370 . S
C714 C718 1.524 . S
C715 C707 1.503 . S
C715 C714 1.370 . S
C715 C716 1.403 . S
C716 C715 1.403 . S
C716 C717 1.404 . S
C716 C719 1.539 . S
C717 C713 1.408 . S
C717 C716 1.404 . S
C717 H729 0.930 . S
C718 C714 1.524 . S
C718 H730 0.956 . S
C718 H731 0.961 . S
C718 H732 0.961 . S
C719 C716 1.539 . S
C719 H733 0.958 . S
C719 H734 0.961 . S
C719 H735 0.960 . S
H720 C704 0.931 . S
H721 C709 0.929 . S
H722 C710 0.960 . S
H723 C710 0.962 . S
H724 C710 0.960 . S
H725 C711 0.961 . S
H726 C711 0.961 . S
H727 C711 0.961 . S
H728 C712 0.931 . S
H729 C717 0.930 . S
H730 C718 0.956 . S
H731 C718 0.961 . S
H732 C718 0.961 . S
H733 C719 0.958 . S
H734 C719 0.961 . S
H735 C719 0.960 . S
C736 C737 1.391 . S
C736 C738 1.394 . S
C736 H752 0.931 . S
C737 C736 1.391 . S
C737 C741 1.376 . S
C738 C736 1.394 . S
C738 C739 1.369 . S
C738 C742 1.531 . S
C739 C738 1.369 . S
C739 C740 1.410 . S
C739 C747 1.503 . S
C740 C739 1.410 . S
C740 C741 1.392 . S
C740 C743 1.511 . S
C741 C737 1.376 . S
C741 C740 1.392 . S
C741 H753 0.929 . S
C742 C738 1.531 . S
C742 H754 0.960 . S
C742 H755 0.962 . S
C742 H756 0.960 . S
C743 C740 1.511 . S
C743 H757 0.961 . S
C743 H758 0.961 . S
C743 H759 0.961 . S
C744 C745 1.370 . S
C744 C746 1.363 . S
C744 H760 0.931 . S
C745 C744 1.370 . S
C745 C749 1.408 . S
C746 C744 1.363 . S
C746 C747 1.370 . S
C746 C750 1.524 . S
C747 C739 1.503 . S
C747 C746 1.370 . S
C747 C748 1.403 . S
C748 C747 1.403 . S
C748 C749 1.404 . S
C748 C751 1.539 . S
C749 C745 1.408 . S
C749 C748 1.404 . S
C749 H761 0.930 . S
C750 C746 1.524 . S
C750 H762 0.956 . S
C750 H763 0.961 . S
C750 H764 0.961 . S
C751 C748 1.539 . S
C751 H765 0.958 . S
C751 H766 0.961 . S
C751 H767 0.960 . S
H752 C736 0.931 . S
H753 C741 0.929 . S
H754 C742 0.960 . S
H755 C742 0.962 . S
H756 C742 0.960 . S
H757 C743 0.961 . S
H758 C743 0.961 . S
H759 C743 0.961 . S
H760 C744 0.931 . S
H761 C749 0.930 . S
H762 C750 0.956 . S
H763 C750 0.961 . S
H764 C750 0.961 . S
H765 C751 0.958 . S
H766 C751 0.961 . S
H767 C751 0.960 . S
C768 C769 1.391 . S
C768 C770 1.394 . S
C768 H784 0.931 . S
C769 C768 1.391 . S
C769 C773 1.376 . S
C770 C768 1.394 . S
C770 C771 1.369 . S
C770 C774 1.531 . S
C771 C770 1.369 . S
C771 C772 1.410 . S
C771 C779 1.503 . S
C772 C771 1.410 . S
C772 C773 1.392 . S
C772 C775 1.511 . S
C773 C769 1.376 . S
C773 C772 1.392 . S
C773 H785 0.929 . S
C774 C770 1.531 . S
C774 H786 0.960 . S
C774 H787 0.962 . S
C774 H788 0.960 . S
C775 C772 1.511 . S
C775 H789 0.961 . S
C775 H790 0.961 . S
C775 H791 0.961 . S
C776 C777 1.370 . S
C776 C778 1.363 . S
C776 H792 0.931 . S
C777 C776 1.370 . S
C777 C781 1.408 . S
C778 C776 1.363 . S
C778 C779 1.370 . S
C778 C782 1.524 . S
C779 C771 1.503 . S
C779 C778 1.370 . S
C779 C780 1.403 . S
C780 C779 1.403 . S
C780 C781 1.404 . S
C780 C783 1.539 . S
C781 C777 1.408 . S
C781 C780 1.404 . S
C781 H793 0.930 . S
C782 C778 1.524 . S
C782 H794 0.956 . S
C782 H795 0.961 . S
C782 H796 0.961 . S
C783 C780 1.539 . S
C783 H797 0.958 . S
C783 H798 0.961 . S
C783 H799 0.960 . S
H784 C768 0.931 . S
H785 C773 0.929 . S
H786 C774 0.960 . S
H787 C774 0.962 . S
H788 C774 0.960 . S
H789 C775 0.961 . S
H790 C775 0.961 . S
H791 C775 0.961 . S
H792 C776 0.931 . S
H793 C781 0.930 . S
H794 C782 0.956 . S
H795 C782 0.961 . S
H796 C782 0.961 . S
H797 C783 0.958 . S
H798 C783 0.961 . S
H799 C783 0.960 . S
C800 C801 1.391 . S
C800 C802 1.394 . S
C800 H816 0.931 . S
C801 C800 1.391 . S
C801 C805 1.376 . S
C802 C800 1.394 . S
C802 C803 1.369 . S
C802 C806 1.531 . S
C803 C802 1.369 . S
C803 C804 1.410 . S
C803 C811 1.503 . S
C804 C803 1.410 . S
C804 C805 1.392 . S
C804 C807 1.511 . S
C805 C801 1.376 . S
C805 C804 1.392 . S
C805 H817 0.929 . S
C806 C802 1.531 . S
C806 H818 0.960 . S
C806 H819 0.962 . S
C806 H820 0.960 . S
C807 C804 1.511 . S
C807 H821 0.961 . S
C807 H822 0.961 . S
C807 H823 0.961 . S
C808 C809 1.370 . S
C808 C810 1.363 . S
C808 H824 0.931 . S
C809 C808 1.370 . S
C809 C813 1.408 . S
C810 C808 1.363 . S
C810 C811 1.370 . S
C810 C814 1.524 . S
C811 C803 1.503 . S
C811 C810 1.370 . S
C811 C812 1.403 . S
C812 C811 1.403 . S
C812 C813 1.404 . S
C812 C815 1.539 . S
C813 C809 1.408 . S
C813 C812 1.404 . S
C813 H825 0.930 . S
C814 C810 1.524 . S
C814 H826 0.956 . S
C814 H827 0.961 . S
C814 H828 0.961 . S
C815 C812 1.539 . S
C815 H829 0.958 . S
C815 H830 0.961 . S
C815 H831 0.960 . S
H816 C800 0.931 . S
H817 C805 0.929 . S
H818 C806 0.960 . S
H819 C806 0.962 . S
H820 C806 0.960 . S
H821 C807 0.961 . S
H822 C807 0.961 . S
H823 C807 0.961 . S
H824 C808 0.931 . S
H825 C813 0.930 . S
H826 C814 0.956 . S
H827 C814 0.961 . S
H828 C814 0.961 . S
H829 C815 0.958 . S
H830 C815 0.961 . S
H831 C815 0.960 . S
C832 C833 1.391 . S
C832 C834 1.394 . S
C832 H848 0.931 . S
C833 C832 1.391 . S
C833 C837 1.376 . S
C834 C832 1.394 . S
C834 C835 1.369 . S
C834 C838 1.531 . S
C835 C834 1.369 . S
C835 C836 1.410 . S
C835 C843 1.503 . S
C836 C835 1.410 . S
C836 C837 1.392 . S
C836 C839 1.511 . S
C837 C833 1.376 . S
C837 C836 1.392 . S
C837 H849 0.929 . S
C838 C834 1.531 . S
C838 H850 0.960 . S
C838 H851 0.962 . S
C838 H852 0.960 . S
C839 C836 1.511 . S
C839 H853 0.961 . S
C839 H854 0.961 . S
C839 H855 0.961 . S
C840 C841 1.370 . S
C840 C842 1.363 . S
C840 H856 0.931 . S
C841 C840 1.370 . S
C841 C845 1.408 . S
C842 C840 1.363 . S
C842 C843 1.370 . S
C842 C846 1.524 . S
C843 C835 1.503 . S
C843 C842 1.370 . S
C843 C844 1.403 . S
C844 C843 1.403 . S
C844 C845 1.404 . S
C844 C847 1.539 . S
C845 C841 1.408 . S
C845 C844 1.404 . S
C845 H857 0.930 . S
C846 C842 1.524 . S
C846 H858 0.956 . S
C846 H859 0.961 . S
C846 H860 0.961 . S
C847 C844 1.539 . S
C847 H861 0.958 . S
C847 H862 0.961 . S
C847 H863 0.960 . S
H848 C832 0.931 . S
H849 C837 0.929 . S
H850 C838 0.960 . S
H851 C838 0.962 . S
H852 C838 0.960 . S
H853 C839 0.961 . S
H854 C839 0.961 . S
H855 C839 0.961 . S
H856 C840 0.931 . S
H857 C845 0.930 . S
H858 C846 0.956 . S
H859 C846 0.961 . S
H860 C846 0.961 . S
H861 C847 0.958 . S
H862 C847 0.961 . S
H863 C847 0.960 . S
C864 C865 1.391 . S
C864 C866 1.394 . S
C864 H880 0.931 . S
C865 C864 1.391 . S
C865 C869 1.376 . S
C866 C864 1.394 . S
C866 C867 1.369 . S
C866 C870 1.531 . S
C867 C866 1.369 . S
C867 C868 1.410 . S
C867 C875 1.503 . S
C868 C867 1.410 . S
C868 C869 1.392 . S
C868 C871 1.511 . S
C869 C865 1.376 . S
C869 C868 1.392 . S
C869 H881 0.929 . S
C870 C866 1.531 . S
C870 H882 0.960 . S
C870 H883 0.962 . S
C870 H884 0.960 . S
C871 C868 1.511 . S
C871 H885 0.961 . S
C871 H886 0.961 . S
C871 H887 0.961 . S
C872 C873 1.370 . S
C872 C874 1.363 . S
C872 H888 0.931 . S
C873 C872 1.370 . S
C873 C877 1.408 . S
C874 C872 1.363 . S
C874 C875 1.370 . S
C874 C878 1.524 . S
C875 C867 1.503 . S
C875 C874 1.370 . S
C875 C876 1.403 . S
C876 C875 1.403 . S
C876 C877 1.404 . S
C876 C879 1.539 . S
C877 C873 1.408 . S
C877 C876 1.404 . S
C877 H889 0.930 . S
C878 C874 1.524 . S
C878 H890 0.956 . S
C878 H891 0.961 . S
C878 H892 0.961 . S
C879 C876 1.539 . S
C879 H893 0.958 . S
C879 H894 0.961 . S
C879 H895 0.960 . S
H880 C864 0.931 . S
H881 C869 0.929 . S
H882 C870 0.960 . S
H883 C870 0.962 . S
H884 C870 0.960 . S
H885 C871 0.961 . S
H886 C871 0.961 . S
H887 C871 0.961 . S
H888 C872 0.931 . S
H889 C877 0.930 . S
H890 C878 0.956 . S
H891 C878 0.961 . S
H892 C878 0.961 . S
H893 C879 0.958 . S
H894 C879 0.961 . S
H895 C879 0.960 . S
C896 C897 1.391 . S
C896 C898 1.394 . S
C896 H912 0.931 . S
C897 C896 1.391 . S
C897 C901 1.376 . S
C898 C896 1.394 . S
C898 C899 1.369 . S
C898 C902 1.531 . S
C899 C898 1.369 . S
C899 C900 1.410 . S
C899 C907 1.503 . S
C900 C899 1.410 . S
C900 C901 1.392 . S
C900 C903 1.511 . S
C901 C897 1.376 . S
C901 C900 1.392 . S
C901 H913 0.929 . S
C902 C898 1.531 . S
C902 H914 0.960 . S
C902 H915 0.962 . S
C902 H916 0.960 . S
C903 C900 1.511 . S
C903 H917 0.961 . S
C903 H918 0.961 . S
C903 H919 0.961 . S
C904 C905 1.370 . S
C904 C906 1.363 . S
C904 H920 0.931 . S
C905 C904 1.370 . S
C905 C909 1.408 . S
C906 C904 1.363 . S
C906 C907 1.370 . S
C906 C910 1.524 . S
C907 C899 1.503 . S
C907 C906 1.370 . S
C907 C908 1.403 . S
C908 C907 1.403 . S
C908 C909 1.404 . S
C908 C911 1.539 . S
C909 C905 1.408 . S
C909 C908 1.404 . S
C909 H921 0.930 . S
C910 C906 1.524 . S
C910 H922 0.956 . S
C910 H923 0.961 . S
C910 H924 0.961 . S
C911 C908 1.539 . S
C911 H925 0.958 . S
C911 H926 0.961 . S
C911 H927 0.960 . S
H912 C896 0.931 . S
H913 C901 0.929 . S
H914 C902 0.960 . S
H915 C902 0.962 . S
H916 C902 0.960 . S
H917 C903 0.961 . S
H918 C903 0.961 . S
H919 C903 0.961 . S
H920 C904 0.931 . S
H921 C909 0.930 . S
H922 C910 0.956 . S
H923 C910 0.961 . S
H924 C910 0.961 . S
H925 C911 0.958 . S
H926 C911 0.961 . S
H927 C911 0.960 . S
C928 C929 1.391 . S
C928 C930 1.394 . S
C928 H944 0.931 . S
C929 C928 1.391 . S
C929 C933 1.376 . S
C930 C928 1.394 . S
C930 C931 1.369 . S
C930 C934 1.531 . S
C931 C930 1.369 . S
C931 C932 1.410 . S
C931 C939 1.503 . S
C932 C931 1.410 . S
C932 C933 1.392 . S
C932 C935 1.511 . S
C933 C929 1.376 . S
C933 C932 1.392 . S
C933 H945 0.929 . S
C934 C930 1.531 . S
C934 H946 0.960 . S
C934 H947 0.962 . S
C934 H948 0.960 . S
C935 C932 1.511 . S
C935 H949 0.961 . S
C935 H950 0.961 . S
C935 H951 0.961 . S
C936 C937 1.370 . S
C936 C938 1.363 . S
C936 H952 0.931 . S
C937 C936 1.370 . S
C937 C941 1.408 . S
C938 C936 1.363 . S
C938 C939 1.370 . S
C938 C942 1.524 . S
C939 C931 1.503 . S
C939 C938 1.370 . S
C939 C940 1.403 . S
C940 C939 1.403 . S
C940 C941 1.404 . S
C940 C943 1.539 . S
C941 C937 1.408 . S
C941 C940 1.404 . S
C941 H953 0.930 . S
C942 C938 1.524 . S
C942 H954 0.956 . S
C942 H955 0.961 . S
C942 H956 0.961 . S
C943 C940 1.539 . S
C943 H957 0.958 . S
C943 H958 0.961 . S
C943 H959 0.960 . S
H944 C928 0.931 . S
H945 C933 0.929 . S
H946 C934 0.960 . S
H947 C934 0.962 . S
H948 C934 0.960 . S
H949 C935 0.961 . S
H950 C935 0.961 . S
H951 C935 0.961 . S
H952 C936 0.931 . S
H953 C941 0.930 . S
H954 C942 0.956 . S
H955 C942 0.961 . S
H956 C942 0.961 . S
H957 C943 0.958 . S
H958 C943 0.961 . S
H959 C943 0.960 . S
C960 C961 1.391 . S
C960 C962 1.394 . S
C960 H976 0.931 . S
C961 C960 1.391 . S
C961 C965 1.376 . S
C962 C960 1.394 . S
C962 C963 1.369 . S
C962 C966 1.531 . S
C963 C962 1.369 . S
C963 C964 1.410 . S
C963 C971 1.503 . S
C964 C963 1.410 . S
C964 C965 1.392 . S
C964 C967 1.511 . S
C965 C961 1.376 . S
C965 C964 1.392 . S
C965 H977 0.929 . S
C966 C962 1.531 . S
C966 H978 0.960 . S
C966 H979 0.962 . S
C966 H980 0.960 . S
C967 C964 1.511 . S
C967 H981 0.961 . S
C967 H982 0.961 . S
C967 H983 0.961 . S
C968 C969 1.370 . S
C968 C970 1.363 . S
C968 H984 0.931 . S
C969 C968 1.370 . S
C969 C973 1.408 . S
C970 C968 1.363 . S
C970 C971 1.370 . S
C970 C974 1.524 . S
C971 C963 1.503 . S
C971 C970 1.370 . S
C971 C972 1.403 . S
C972 C971 1.403 . S
C972 C973 1.404 . S
C972 C975 1.539 . S
C973 C969 1.408 . S
C973 C972 1.404 . S
C973 H985 0.930 . S
C974 C970 1.524 . S
C974 H986 0.956 . S
C974 H987 0.961 . S
C974 H988 0.961 . S
C975 C972 1.539 . S
C975 H989 0.958 . S
C975 H990 0.961 . S
C975 H991 0.960 . S
H976 C960 0.931 . S
H977 C965 0.929 . S
H978 C966 0.960 . S
H979 C966 0.962 . S
H980 C966 0.960 . S
H981 C967 0.961 . S
H982 C967 0.961 . S
H983 C967 0.961 . S
H984 C968 0.931 . S
H985 C973 0.930 . S
H986 C974 0.956 . S
H987 C974 0.961 . S
H988 C974 0.961 . S
H989 C975 0.958 . S
H990 C975 0.961 . S
H991 C975 0.960 . S
C992 C993 1.391 . S
C992 C994 1.394 . S
C992 H1008 0.931 . S
C993 C992 1.391 . S
C993 C997 1.376 . S
C994 C992 1.394 . S
C994 C995 1.369 . S
C994 C998 1.531 . S
C995 C994 1.369 . S
C995 C996 1.410 . S
C995 C1003 1.503 . S
C996 C995 1.410 . S
C996 C997 1.392 . S
C996 C999 1.511 . S
C997 C993 1.376 . S
C997 C996 1.392 . S
C997 H1009 0.929 . S
C998 C994 1.531 . S
C998 H1010 0.960 . S
C998 H1011 0.962 . S
C998 H1012 0.960 . S
C999 C996 1.511 . S
C999 H1013 0.961 . S
C999 H1014 0.961 . S
C999 H1015 0.961 . S
C1000 C1001 1.370 . S
C1000 C1002 1.363 . S
C1000 H1016 0.931 . S
C1001 C1000 1.370 . S
C1001 C1005 1.408 . S
C1002 C1000 1.363 . S
C1002 C1003 1.370 . S
C1002 C1006 1.524 . S
C1003 C995 1.503 . S
C1003 C1002 1.370 . S
C1003 C1004 1.403 . S
C1004 C1003 1.403 . S
C1004 C1005 1.404 . S
C1004 C1007 1.539 . S
C1005 C1001 1.408 . S
C1005 C1004 1.404 . S
C1005 H1017 0.930 . S
C1006 C1002 1.524 . S
C1006 H1018 0.956 . S
C1006 H1019 0.961 . S
C1006 H1020 0.961 . S
C1007 C1004 1.539 . S
C1007 H1021 0.958 . S
C1007 H1022 0.961 . S
C1007 H1023 0.960 . S
H1008 C992 0.931 . S
H1009 C997 0.929 . S
H1010 C998 0.960 . S
H1011 C998 0.962 . S
H1012 C998 0.960 . S
H1013 C999 0.961 . S
H1014 C999 0.961 . S
H1015 C999 0.961 . S
H1016 C1000 0.931 . S
H1017 C1005 0.930 . S
H1018 C1006 0.956 . S
H1019 C1006 0.961 . S
H1020 C1006 0.961 . S
H1021 C1007 0.958 . S
H1022 C1007 0.961 . S
H1023 C1007 0.960 . S
C1024 C1025 1.391 . S
C1024 C1026 1.394 . S
C1024 H1040 0.931 . S
C1025 C1024 1.391 . S
C1025 C1029 1.376 . S
C1026 C1024 1.394 . S
C1026 C1027 1.369 . S
C1026 C1030 1.531 . S
C1027 C1026 1.369 . S
C1027 C1028 1.410 . S
C1027 C1035 1.503 . S
C1028 C1027 1.410 . S
C1028 C1029 1.392 . S
C1028 C1031 1.511 . S
C1029 C1025 1.376 . S
C1029 C1028 1.392 . S
C1029 H1041 0.929 . S
C1030 C1026 1.531 . S
C1030 H1042 0.960 . S
C1030 H1043 0.962 . S
C1030 H1044 0.960 . S
C1031 C1028 1.511 . S
C1031 H1045 0.961 . S
C1031 H1046 0.961 . S
C1031 H1047 0.961 . S
C1032 C1033 1.370 . S
C1032 C1034 1.363 . S
C1032 H1048 0.931 . S
C1033 C1032 1.370 . S
C1033 C1037 1.408 . S
C1034 C1032 1.363 . S
C1034 C1035 1.370 . S
C1034 C1038 1.524 . S
C1035 C1027 1.503 . S
C1035 C1034 1.370 . S
C1035 C1036 1.403 . S
C1036 C1035 1.403 . S
C1036 C1037 1.404 . S
C1036 C1039 1.539 . S
C1037 C1033 1.408 . S
C1037 C1036 1.404 . S
C1037 H1049 0.930 . S
C1038 C1034 1.524 . S
C1038 H1050 0.956 . S
C1038 H1051 0.961 . S
C1038 H1052 0.961 . S
C1039 C1036 1.539 . S
C1039 H1053 0.958 . S
C1039 H1054 0.961 . S
C1039 H1055 0.960 . S
H1040 C1024 0.931 . S
H1041 C1029 0.929 . S
H1042 C1030 0.960 . S
H1043 C1030 0.962 . S
H1044 C1030 0.960 . S
H1045 C1031 0.961 . S
H1046 C1031 0.961 . S
H1047 C1031 0.961 . S
H1048 C1032 0.931 . S
H1049 C1037 0.930 . S
H1050 C1038 0.956 . S
H1051 C1038 0.961 . S
H1052 C1038 0.961 . S
H1053 C1039 0.958 . S
H1054 C1039 0.961 . S
H1055 C1039 0.960 . S
C1056 C1057 1.391 . S
C1056 C1058 1.394 . S
C1056 H1072 0.931 . S
C1057 C1056 1.391 . S
C1057 C1061 1.376 . S
C1058 C1056 1.394 . S
C1058 C1059 1.369 . S
C1058 C1062 1.531 . S
C1059 C1058 1.369 . S
C1059 C1060 1.410 . S
C1059 C1067 1.503 . S
C1060 C1059 1.410 . S
C1060 C1061 1.392 . S
C1060 C1063 1.511 . S
C1061 C1057 1.376 . S
C1061 C1060 1.392 . S
C1061 H1073 0.929 . S
C1062 C1058 1.531 . S
C1062 H1074 0.960 . S
C1062 H1075 0.962 . S
C1062 H1076 0.960 . S
C1063 C1060 1.511 . S
C1063 H1077 0.961 . S
C1063 H1078 0.961 . S
C1063 H1079 0.961 . S
C1064 C1065 1.370 . S
C1064 C1066 1.363 . S
C1064 H1080 0.931 . S
C1065 C1064 1.370 . S
C1065 C1069 1.408 . S
C1066 C1064 1.363 . S
C1066 C1067 1.370 . S
C1066 C1070 1.524 . S
C1067 C1059 1.503 . S
C1067 C1066 1.370 . S
C1067 C1068 1.403 . S
C1068 C1067 1.403 . S
C1068 C1069 1.404 . S
C1068 C1071 1.539 . S
C1069 C1065 1.408 . S
C1069 C1068 1.404 . S
C1069 H1081 0.930 . S
C1070 C1066 1.524 . S
C1070 H1082 0.956 . S
C1070 H1083 0.961 . S
C1070 H1084 0.961 . S
C1071 C1068 1.539 . S
C1071 H1085 0.958 . S
C1071 H1086 0.961 . S
C1071 H1087 0.960 . S
H1072 C1056 0.931 . S
H1073 C1061 0.929 . S
H1074 C1062 0.960 . S
H1075 C1062 0.962 . S
H1076 C1062 0.960 . S
H1077 C1063 0.961 . S
H1078 C1063 0.961 . S
H1079 C1063 0.961 . S
H1080 C1064 0.931 . S
H1081 C1069 0.930 . S
H1082 C1070 0.956 . S
H1083 C1070 0.961 . S
H1084 C1070 0.961 . S
H1085 C1071 0.958 . S
H1086 C1071 0.961 . S
H1087 C1071 0.960 . S
C1088 C1089 1.391 . S
C1088 C1090 1.394 . S
C1088 H1104 0.931 . S
C1089 C1088 1.391 . S
C1089 C1093 1.376 . S
C1090 C1088 1.394 . S
C1090 C1091 1.369 . S
C1090 C1094 1.531 . S
C1091 C1090 1.369 . S
C1091 C1092 1.410 . S
C1091 C1099 1.503 . S
C1092 C1091 1.410 . S
C1092 C1093 1.392 . S
C1092 C1095 1.511 . S
C1093 C1089 1.376 . S
C1093 C1092 1.392 . S
C1093 H1105 0.929 . S
C1094 C1090 1.531 . S
C1094 H1106 0.960 . S
C1094 H1107 0.962 . S
C1094 H1108 0.960 . S
C1095 C1092 1.511 . S
C1095 H1109 0.961 . S
C1095 H1110 0.961 . S
C1095 H1111 0.961 . S
C1096 C1097 1.370 . S
C1096 C1098 1.363 . S
C1096 H1112 0.931 . S
C1097 C1096 1.370 . S
C1097 C1101 1.408 . S
C1098 C1096 1.363 . S
C1098 C1099 1.370 . S
C1098 C1102 1.524 . S
C1099 C1091 1.503 . S
C1099 C1098 1.370 . S
C1099 C1100 1.403 . S
C1100 C1099 1.403 . S
C1100 C1101 1.404 . S
C1100 C1103 1.539 . S
C1101 C1097 1.408 . S
C1101 C1100 1.404 . S
C1101 H1113 0.930 . S
C1102 C1098 1.524 . S
C1102 H1114 0.956 . S
C1102 H1115 0.961 . S
C1102 H1116 0.961 . S
C1103 C1100 1.539 . S
C1103 H1117 0.958 . S
C1103 H1118 0.961 . S
C1103 H1119 0.960 . S
H1104 C1088 0.931 . S
H1105 C1093 0.929 . S
H1106 C1094 0.960 . S
H1107 C1094 0.962 . S
H1108 C1094 0.960 . S
H1109 C1095 0.961 . S
H1110 C1095 0.961 . S
H1111 C1095 0.961 . S
H1112 C1096 0.931 . S
H1113 C1101 0.930 . S
H1114 C1102 0.956 . S
H1115 C1102 0.961 . S
H1116 C1102 0.961 . S
H1117 C1103 0.958 . S
H1118 C1103 0.961 . S
H1119 C1103 0.960 . S
C1120 C1121 1.391 . S
C1120 C1122 1.394 . S
C1120 H1136 0.931 . S
C1121 C1120 1.391 . S
C1121 C1125 1.376 . S
C1122 C1120 1.394 . S
C1122 C1123 1.369 . S
C1122 C1126 1.531 . S
C1123 C1122 1.369 . S
C1123 C1124 1.410 . S
C1123 C1131 1.503 . S
C1124 C1123 1.410 . S
C1124 C1125 1.392 . S
C1124 C1127 1.511 . S
C1125 C1121 1.376 . S
C1125 C1124 1.392 . S
C1125 H1137 0.929 . S
C1126 C1122 1.531 . S
C1126 H1138 0.960 . S
C1126 H1139 0.962 . S
C1126 H1140 0.960 . S
C1127 C1124 1.511 . S
C1127 H1141 0.961 . S
C1127 H1142 0.961 . S
C1127 H1143 0.961 . S
C1128 C1129 1.370 . S
C1128 C1130 1.363 . S
C1128 H1144 0.931 . S
C1129 C1128 1.370 . S
C1129 C1133 1.408 . S
C1130 C1128 1.363 . S
C1130 C1131 1.370 . S
C1130 C1134 1.524 . S
C1131 C1123 1.503 . S
C1131 C1130 1.370 . S
C1131 C1132 1.403 . S
C1132 C1131 1.403 . S
C1132 C1133 1.404 . S
C1132 C1135 1.539 . S
C1133 C1129 1.408 . S
C1133 C1132 1.404 . S
C1133 H1145 0.930 . S
C1134 C1130 1.524 . S
C1134 H1146 0.956 . S
C1134 H1147 0.961 . S
C1134 H1148 0.961 . S
C1135 C1132 1.539 . S
C1135 H1149 0.958 . S
C1135 H1150 0.961 . S
C1135 H1151 0.960 . S
H1136 C1120 0.931 . S
H1137 C1125 0.929 . S
H1138 C1126 0.960 . S
H1139 C1126 0.962 . S
H1140 C1126 0.960 . S
H1141 C1127 0.961 . S
H1142 C1127 0.961 . S
H1143 C1127 0.961 . S
H1144 C1128 0.931 . S
H1145 C1133 0.930 . S
H1146 C1134 0.956 . S
H1147 C1134 0.961 . S
H1148 C1134 0.961 . S
H1149 C1135 0.958 . S
H1150 C1135 0.961 . S
H1151 C1135 0.960 . S
C1152 C1153 1.391 . S
C1152 C1154 1.394 . S
C1152 H1168 0.931 . S
C1153 C1152 1.391 . S
C1153 C1157 1.376 . S
C1154 C1152 1.394 . S
C1154 C1155 1.369 . S
C1154 C1158 1.531 . S
C1155 C1154 1.369 . S
C1155 C1156 1.410 . S
C1155 C1163 1.503 . S
C1156 C1155 1.410 . S
C1156 C1157 1.392 . S
C1156 C1159 1.511 . S
C1157 C1153 1.376 . S
C1157 C1156 1.392 . S
C1157 H1169 0.929 . S
C1158 C1154 1.531 . S
C1158 H1170 0.960 . S
C1158 H1171 0.962 . S
C1158 H1172 0.960 . S
C1159 C1156 1.511 . S
C1159 H1173 0.961 . S
C1159 H1174 0.961 . S
C1159 H1175 0.961 . S
C1160 C1161 1.370 . S
C1160 C1162 1.363 . S
C1160 H1176 0.931 . S
C1161 C1160 1.370 . S
C1161 C1165 1.408 . S
C1162 C1160 1.363 . S
C1162 C1163 1.370 . S
C1162 C1166 1.524 . S
C1163 C1155 1.503 . S
C1163 C1162 1.370 . S
C1163 C1164 1.403 . S
C1164 C1163 1.403 . S
C1164 C1165 1.404 . S
C1164 C1167 1.539 . S
C1165 C1161 1.408 . S
C1165 C1164 1.404 . S
C1165 H1177 0.930 . S
C1166 C1162 1.524 . S
C1166 H1178 0.956 . S
C1166 H1179 0.961 . S
C1166 H1180 0.961 . S
C1167 C1164 1.539 . S
C1167 H1181 0.958 . S
C1167 H1182 0.961 . S
C1167 H1183 0.960 . S
H1168 C1152 0.931 . S
H1169 C1157 0.929 . S
H1170 C1158 0.960 . S
H1171 C1158 0.962 . S
H1172 C1158 0.960 . S
H1173 C1159 0.961 . S
H1174 C1159 0.961 . S
H1175 C1159 0.961 . S
H1176 C1160 0.931 . S
H1177 C1165 0.930 . S
H1178 C1166 0.956 . S
H1179 C1166 0.961 . S
H1180 C1166 0.961 . S
H1181 C1167 0.958 . S
H1182 C1167 0.961 . S
H1183 C1167 0.960 . S
C1184 C1185 1.391 . S
C1184 C1186 1.394 . S
C1184 H1200 0.931 . S
C1185 C1184 1.391 . S
C1185 C1189 1.376 . S
C1186 C1184 1.394 . S
C1186 C1187 1.369 . S
C1186 C1190 1.531 . S
C1187 C1186 1.369 . S
C1187 C1188 1.410 . S
C1187 C1195 1.503 . S
C1188 C1187 1.410 . S
C1188 C1189 1.392 . S
C1188 C1191 1.511 . S
C1189 C1185 1.376 . S
C1189 C1188 1.392 . S
C1189 H1201 0.929 . S
C1190 C1186 1.531 . S
C1190 H1202 0.960 . S
C1190 H1203 0.962 . S
C1190 H1204 0.960 . S
C1191 C1188 1.511 . S
C1191 H1205 0.961 . S
C1191 H1206 0.961 . S
C1191 H1207 0.961 . S
C1192 C1193 1.370 . S
C1192 C1194 1.363 . S
C1192 H1208 0.931 . S
C1193 C1192 1.370 . S
C1193 C1197 1.408 . S
C1194 C1192 1.363 . S
C1194 C1195 1.370 . S
C1194 C1198 1.524 . S
C1195 C1187 1.503 . S
C1195 C1194 1.370 . S
C1195 C1196 1.403 . S
C1196 C1195 1.403 . S
C1196 C1197 1.404 . S
C1196 C1199 1.539 . S
C1197 C1193 1.408 . S
C1197 C1196 1.404 . S
C1197 H1209 0.897 1_545 S
C1198 C1194 1.524 . S
C1198 H1210 0.956 . S
C1198 H1211 0.961 . S
C1198 H1212 0.961 . S
C1199 C1196 1.539 . S
C1199 H1213 0.958 . S
C1199 H1214 0.961 1_545 S
C1199 H1215 0.960 . S
H1200 C1184 0.931 . S
H1201 C1189 0.929 . S
H1202 C1190 0.960 . S
H1203 C1190 0.962 . S
H1204 C1190 0.960 . S
H1205 C1191 0.961 . S
H1206 C1191 0.961 . S
H1207 C1191 0.961 . S
H1208 C1192 0.931 . S
H1209 C1197 0.897 1_565 S
H1210 C1198 0.956 . S
H1211 C1198 0.961 . S
H1212 C1198 0.961 . S
H1213 C1199 0.958 . S
H1214 C1199 0.961 1_565 S
H1215 C1199 0.960 . S
C1216 C1217 1.391 . S
C1216 C1218 1.394 . S
C1216 H1232 0.931 . S
C1217 C1216 1.391 . S
C1217 C1221 1.376 . S
C1218 C1216 1.394 . S
C1218 C1219 1.369 . S
C1218 C1222 1.531 . S
C1219 C1218 1.369 . S
C1219 C1220 1.410 . S
C1219 C1227 1.503 . S
C1220 C1219 1.410 . S
C1220 C1221 1.392 . S
C1220 C1223 1.511 . S
C1221 C1217 1.376 . S
C1221 C1220 1.392 . S
C1221 H1233 0.929 . S
C1222 C1218 1.531 . S
C1222 H1234 0.960 . S
C1222 H1235 0.962 . S
C1222 H1236 0.960 . S
C1223 C1220 1.511 . S
C1223 H1237 0.961 . S
C1223 H1238 0.961 . S
C1223 H1239 0.961 . S
C1224 C1225 1.370 . S
C1224 C1226 1.363 . S
C1224 H1240 0.931 . S
C1225 C1224 1.370 . S
C1225 C1229 1.408 . S
C1226 C1224 1.363 . S
C1226 C1227 1.370 . S
C1226 C1230 1.524 . S
C1227 C1219 1.503 . S
C1227 C1226 1.370 . S
C1227 C1228 1.403 . S
C1228 C1227 1.403 . S
C1228 C1229 1.404 . S
C1228 C1231 1.539 . S
C1229 C1225 1.408 . S
C1229 C1228 1.404 . S
C1229 H1241 0.930 . S
C1230 C1226 1.524 . S
C1230 H1242 0.956 . S
C1230 H1243 0.961 . S
C1230 H1244 0.961 . S
C1231 C1228 1.539 . S
C1231 H1245 0.958 . S
C1231 H1246 0.961 . S
C1231 H1247 0.960 . S
H1232 C1216 0.931 . S
H1233 C1221 0.929 . S
H1234 C1222 0.960 . S
H1235 C1222 0.962 . S
H1236 C1222 0.960 . S
H1237 C1223 0.961 . S
H1238 C1223 0.961 . S
H1239 C1223 0.961 . S
H1240 C1224 0.931 . S
H1241 C1229 0.930 . S
H1242 C1230 0.956 . S
H1243 C1230 0.961 . S
H1244 C1230 0.961 . S
H1245 C1231 0.958 . S
H1246 C1231 0.961 . S
H1247 C1231 0.960 . S
C1248 C1249 1.391 . S
C1248 C1250 1.394 . S
C1248 H1264 0.931 . S
C1249 C1248 1.391 . S
C1249 C1253 1.376 . S
C1250 C1248 1.394 . S
C1250 C1251 1.369 . S
C1250 C1254 1.531 . S
C1251 C1250 1.369 . S
C1251 C1252 1.410 . S
C1251 C1259 1.503 . S
C1252 C1251 1.410 . S
C1252 C1253 1.392 . S
C1252 C1255 1.511 . S
C1253 C1249 1.376 . S
C1253 C1252 1.392 . S
C1253 H1265 0.929 . S
C1254 C1250 1.531 . S
C1254 H1266 0.960 . S
C1254 H1267 0.962 . S
C1254 H1268 0.960 . S
C1255 C1252 1.511 . S
C1255 H1269 0.961 . S
C1255 H1270 0.961 . S
C1255 H1271 0.961 . S
C1256 C1257 1.370 . S
C1256 C1258 1.363 . S
C1256 H1272 0.931 . S
C1257 C1256 1.370 . S
C1257 C1261 1.408 . S
C1258 C1256 1.363 . S
C1258 C1259 1.370 . S
C1258 C1262 1.524 . S
C1259 C1251 1.503 . S
C1259 C1258 1.370 . S
C1259 C1260 1.403 . S
C1260 C1259 1.403 . S
C1260 C1261 1.404 . S
C1260 C1263 1.539 . S
C1261 C1257 1.408 . S
C1261 C1260 1.404 . S
C1261 H1273 0.930 . S
C1262 C1258 1.524 . S
C1262 H1274 0.956 . S
C1262 H1275 0.961 . S
C1262 H1276 0.961 . S
C1263 C1260 1.539 . S
C1263 H1277 0.958 . S
C1263 H1278 0.961 . S
C1263 H1279 0.960 . S
H1264 C1248 0.931 . S
H1265 C1253 0.929 . S
H1266 C1254 0.960 . S
H1267 C1254 0.962 . S
H1268 C1254 0.960 . S
H1269 C1255 0.961 . S
H1270 C1255 0.961 . S
H1271 C1255 0.961 . S
H1272 C1256 0.931 . S
H1273 C1261 0.930 . S
H1274 C1262 0.956 . S
H1275 C1262 0.961 . S
H1276 C1262 0.961 . S
H1277 C1263 0.958 . S
H1278 C1263 0.961 . S
H1279 C1263 0.960 . S
C1280 C1281 1.391 . S
C1280 C1282 1.394 . S
C1280 H1296 0.931 . S
C1281 C1280 1.391 . S
C1281 C1285 1.376 . S
C1282 C1280 1.394 . S
C1282 C1283 1.369 . S
C1282 C1286 1.531 . S
C1283 C1282 1.369 . S
C1283 C1284 1.410 . S
C1283 C1291 1.503 . S
C1284 C1283 1.410 . S
C1284 C1285 1.392 . S
C1284 C1287 1.511 . S
C1285 C1281 1.376 . S
C1285 C1284 1.392 . S
C1285 H1297 0.929 . S
C1286 C1282 1.531 . S
C1286 H1298 0.960 . S
C1286 H1299 0.962 . S
C1286 H1300 0.960 . S
C1287 C1284 1.511 . S
C1287 H1301 0.961 . S
C1287 H1302 0.961 . S
C1287 H1303 0.961 . S
C1288 C1289 1.370 . S
C1288 C1290 1.363 . S
C1288 H1304 0.931 . S
C1289 C1288 1.370 . S
C1289 C1293 1.408 . S
C1290 C1288 1.363 . S
C1290 C1291 1.370 . S
C1290 C1294 1.524 . S
C1291 C1283 1.503 . S
C1291 C1290 1.370 . S
C1291 C1292 1.403 . S
C1292 C1291 1.403 . S
C1292 C1293 1.404 . S
C1292 C1295 1.539 . S
C1293 C1289 1.408 . S
C1293 C1292 1.404 . S
C1293 H1305 0.930 . S
C1294 C1290 1.524 . S
C1294 H1306 0.956 . S
C1294 H1307 0.961 . S
C1294 H1308 0.961 . S
C1295 C1292 1.539 . S
C1295 H1309 0.958 . S
C1295 H1310 0.961 . S
C1295 H1311 0.960 . S
H1296 C1280 0.931 . S
H1297 C1285 0.929 . S
H1298 C1286 0.960 . S
H1299 C1286 0.962 . S
H1300 C1286 0.960 . S
H1301 C1287 0.961 . S
H1302 C1287 0.961 . S
H1303 C1287 0.961 . S
H1304 C1288 0.931 . S
H1305 C1293 0.930 . S
H1306 C1294 0.956 . S
H1307 C1294 0.961 . S
H1308 C1294 0.961 . S
H1309 C1295 0.958 . S
H1310 C1295 0.961 . S
H1311 C1295 0.960 . S
C1312 C1313 1.391 . S
C1312 C1314 1.394 . S
C1312 H1328 0.931 . S
C1313 C1312 1.391 . S
C1313 C1317 1.376 . S
C1314 C1312 1.394 . S
C1314 C1315 1.369 . S
C1314 C1318 1.531 . S
C1315 C1314 1.369 . S
C1315 C1316 1.410 . S
C1315 C1323 1.503 . S
C1316 C1315 1.410 . S
C1316 C1317 1.392 . S
C1316 C1319 1.511 . S
C1317 C1313 1.376 . S
C1317 C1316 1.392 . S
C1317 H1329 0.929 . S
C1318 C1314 1.531 . S
C1318 H1330 0.960 . S
C1318 H1331 0.962 . S
C1318 H1332 0.960 . S
C1319 C1316 1.511 . S
C1319 H1333 0.961 . S
C1319 H1334 0.961 . S
C1319 H1335 0.961 . S
C1320 C1321 1.370 . S
C1320 C1322 1.363 . S
C1320 H1336 0.931 . S
C1321 C1320 1.370 . S
C1321 C1325 1.408 . S
C1322 C1320 1.363 . S
C1322 C1323 1.370 . S
C1322 C1326 1.524 . S
C1323 C1315 1.503 . S
C1323 C1322 1.370 . S
C1323 C1324 1.403 . S
C1324 C1323 1.403 . S
C1324 C1325 1.404 . S
C1324 C1327 1.539 . S
C1325 C1321 1.408 . S
C1325 C1324 1.404 . S
C1325 H1337 0.930 . S
C1326 C1322 1.524 . S
C1326 H1338 0.956 . S
C1326 H1339 0.961 . S
C1326 H1340 0.961 . S
C1327 C1324 1.539 . S
C1327 H1341 0.958 . S
C1327 H1342 0.961 . S
C1327 H1343 0.960 . S
H1328 C1312 0.931 . S
H1329 C1317 0.929 . S
H1330 C1318 0.960 . S
H1331 C1318 0.962 . S
H1332 C1318 0.960 . S
H1333 C1319 0.961 . S
H1334 C1319 0.961 . S
H1335 C1319 0.961 . S
H1336 C1320 0.931 . S
H1337 C1325 0.930 . S
H1338 C1326 0.956 . S
H1339 C1326 0.961 . S
H1340 C1326 0.961 . S
H1341 C1327 0.958 . S
H1342 C1327 0.961 . S
H1343 C1327 0.960 . S
C1344 C1345 1.391 . S
C1344 C1346 1.394 . S
C1344 H1360 0.931 . S
C1345 C1344 1.391 . S
C1345 C1349 1.376 . S
C1346 C1344 1.394 . S
C1346 C1347 1.369 . S
C1346 C1350 1.531 . S
C1347 C1346 1.369 . S
C1347 C1348 1.410 . S
C1347 C1355 1.503 . S
C1348 C1347 1.410 . S
C1348 C1349 1.392 . S
C1348 C1351 1.511 . S
C1349 C1345 1.376 . S
C1349 C1348 1.392 . S
C1349 H1361 0.929 . S
C1350 C1346 1.531 . S
C1350 H1362 0.960 . S
C1350 H1363 0.962 . S
C1350 H1364 0.960 . S
C1351 C1348 1.511 . S
C1351 H1365 0.961 . S
C1351 H1366 0.961 . S
C1351 H1367 0.961 . S
C1352 C1353 1.370 . S
C1352 C1354 1.363 . S
C1352 H1368 0.931 . S
C1353 C1352 1.370 . S
C1353 C1357 1.408 . S
C1354 C1352 1.363 . S
C1354 C1355 1.370 . S
C1354 C1358 1.524 . S
C1355 C1347 1.503 . S
C1355 C1354 1.370 . S
C1355 C1356 1.403 . S
C1356 C1355 1.403 . S
C1356 C1357 1.404 . S
C1356 C1359 1.539 . S
C1357 C1353 1.408 . S
C1357 C1356 1.404 . S
C1357 H1369 0.930 . S
C1358 C1354 1.524 . S
C1358 H1370 0.956 . S
C1358 H1371 0.961 . S
C1358 H1372 0.961 . S
C1359 C1356 1.539 . S
C1359 H1373 0.958 . S
C1359 H1374 0.961 . S
C1359 H1375 0.960 . S
H1360 C1344 0.931 . S
H1361 C1349 0.929 . S
H1362 C1350 0.960 . S
H1363 C1350 0.962 . S
H1364 C1350 0.960 . S
H1365 C1351 0.961 . S
H1366 C1351 0.961 . S
H1367 C1351 0.961 . S
H1368 C1352 0.931 . S
H1369 C1357 0.930 . S
H1370 C1358 0.956 . S
H1371 C1358 0.961 . S
H1372 C1358 0.961 . S
H1373 C1359 0.958 . S
H1374 C1359 0.961 . S
H1375 C1359 0.960 . S
C1376 C1377 1.391 . S
C1376 C1378 1.394 . S
C1376 H1392 0.931 . S
C1377 C1376 1.391 . S
C1377 C1381 1.376 . S
C1378 C1376 1.394 . S
C1378 C1379 1.369 . S
C1378 C1382 1.531 . S
C1379 C1378 1.369 . S
C1379 C1380 1.410 . S
C1379 C1387 1.503 . S
C1380 C1379 1.410 . S
C1380 C1381 1.392 . S
C1380 C1383 1.511 . S
C1381 C1377 1.376 . S
C1381 C1380 1.392 . S
C1381 H1393 0.929 . S
C1382 C1378 1.531 . S
C1382 H1394 0.960 . S
C1382 H1395 0.962 . S
C1382 H1396 0.960 . S
C1383 C1380 1.511 . S
C1383 H1397 0.961 . S
C1383 H1398 0.961 . S
C1383 H1399 0.961 . S
C1384 C1385 1.370 . S
C1384 C1386 1.363 . S
C1384 H1400 0.931 . S
C1385 C1384 1.370 . S
C1385 C1389 1.408 . S
C1386 C1384 1.363 . S
C1386 C1387 1.370 . S
C1386 C1390 1.524 . S
C1387 C1379 1.503 . S
C1387 C1386 1.370 . S
C1387 C1388 1.403 . S
C1388 C1387 1.403 . S
C1388 C1389 1.404 . S
C1388 C1391 1.539 . S
C1389 C1385 1.408 . S
C1389 C1388 1.404 . S
C1389 H1401 0.930 . S
C1390 C1386 1.524 . S
C1390 H1402 0.956 . S
C1390 H1403 0.961 . S
C1390 H1404 0.961 . S
C1391 C1388 1.539 . S
C1391 H1405 0.958 . S
C1391 H1406 0.961 . S
C1391 H1407 0.960 . S
H1392 C1376 0.931 . S
H1393 C1381 0.929 . S
H1394 C1382 0.960 . S
H1395 C1382 0.962 . S
H1396 C1382 0.960 . S
H1397 C1383 0.961 . S
H1398 C1383 0.961 . S
H1399 C1383 0.961 . S
H1400 C1384 0.931 . S
H1401 C1389 0.930 . S
H1402 C1390 0.956 . S
H1403 C1390 0.961 . S
H1404 C1390 0.961 . S
H1405 C1391 0.958 . S
H1406 C1391 0.961 . S
H1407 C1391 0.960 . S
C641 C1 1.144 . S
C649 C486 1.271 . S
C673 C80 0.975 . S
C681 C535 0.954 . S
C713 C570 2.472 . S
C705 C140 2.474 . S
C737 C211 2.369 . S
C745 C609 2.328 . S
C777 C530 2.488 . S
C769 C31 2.195 . S
C809 C489 0.857 . S
C801 C61 0.780 . S
C841 C619 1.894 . S
C833 C151 1.898 . S
C873 C578 1.620 . S
C865 C200 1.598 . S
C897 C20 1.619 . S
C905 C606 1.736 . S
C937 C538 2.332 . S
C929 C121 2.393 . S
C961 C181 2.297 . S
C969 C499 2.341 . S
C993 C91 0.856 . S
C1001 C575 0.851 . S
C1033 C495 1.265 . S
C1025 C260 1.232 . S
C1057 C320 0.987 . S
C1065 C526 0.953 . S
C1089 C361 2.454 . S
C1097 C579 2.480 . S
C1121 C451 2.342 . S
C1129 C618 2.344 . S
C1153 C271 2.278 . S
C1161 C539 2.488 . S
C1193 C498 0.837 . S
C1185 C301 0.837 . S
C1225 C610 1.891 . S
C1217 C380 1.910 . S
C1257 C569 1.606 . S
C1249 C440 1.603 . S
C1281 C241 1.548 . S
C1289 C615 1.740 . S
C1321 C529 2.317 . S
C1313 C391 2.387 . S
C1353 C490 2.335 . S
C1345 C421 2.303 . S
C1377 C331 0.828 . S
C1385 C566 0.842 . S
