# Generated by pormake.
# Topology sit, (3,6)-cn, num edge types: 1
# Building blocks:
#     Node 0, Type 0, BuildingBlock: VETTIZ_charged_linker_0, # of connection points: 3
#     Node 1, Type 0, BuildingBlock: VETTIZ_charged_linker_0, # of connection points: 3
#     Node 2, Type 0, BuildingBlock: VETTIZ_charged_linker_0, # of connection points: 3
#     Node 3, Type 0, BuildingBlock: VETTIZ_charged_linker_0, # of connection points: 3
#     Node 4, Type 1, BuildingBlock: MIDCAF_clean_sbu_0, # of connection points: 6
#     Node 5, Type 1, BuildingBlock: MIDCAF_clean_sbu_0, # of connection points: 6
#     Edge 6, Type (0, 1), BuildingBlock: ZUJKAS_clean_linker_0, # of connection points: 2
#     Edge 7, Type (0, 1), BuildingBlock: ZUJKAS_clean_linker_0, # of connection points: 2
#     Edge 8, Type (0, 1), BuildingBlock: ZUJKAS_clean_linker_0, # of connection points: 2
#     Edge 9, Type (0, 1), BuildingBlock: ZUJKAS_clean_linker_0, # of connection points: 2
#     Edge 10, Type (0, 1), BuildingBlock: ZUJKAS_clean_linker_0, # of connection points: 2
#     Edge 11, Type (0, 1), BuildingBlock: ZUJKAS_clean_linker_0, # of connection points: 2
#     Edge 12, Type (0, 1), BuildingBlock: ZUJKAS_clean_linker_0, # of connection points: 2
#     Edge 13, Type (0, 1), BuildingBlock: ZUJKAS_clean_linker_0, # of connection points: 2
#     Edge 14, Type (0, 1), BuildingBlock: ZUJKAS_clean_linker_0, # of connection points: 2
#     Edge 15, Type (0, 1), BuildingBlock: ZUJKAS_clean_linker_0, # of connection points: 2
#     Edge 16, Type (0, 1), BuildingBlock: ZUJKAS_clean_linker_0, # of connection points: 2
#     Edge 17, Type (0, 1), BuildingBlock: ZUJKAS_clean_linker_0, # of connection points: 2
# Relax obj value: 0.113
# Max RMSD: 0.194
# Mean RMSD: 0.109
data_MOF--net-sit--node1-MIDCAF_clean_sbu_0--node2-VETTIZ_charged_linker_0--edge1-ZUJKAS_clean_linker_0
_symmetry_space_group_name_H-M    P1
_symmetry_Int_Tables_number       1
_symmetry_cell_setting            triclinic
loop_
_symmetry_equiv_pos_as_xyz
'x, y, z'
_cell_length_a     35.192796
_cell_length_b     47.874601
_cell_length_c     53.052395
_cell_angle_alpha  90.218476
_cell_angle_beta   89.446963
_cell_angle_gamma 84.320839
loop_
_atom_site_label
_atom_site_type_symbol
_atom_site_fract_x
_atom_site_fract_y
_atom_site_fract_z
_atom_type_partial_charge
C0 C 0.0536 0.24324 0.08828 0.0
C1 C 0.08714 0.22587 0.09381 0.0
C2 C 0.12268 0.23476 0.08645 0.0
C3 C 0.09102 0.27779 0.06938 0.0
C4 C 0.05621 0.26907 0.07644 0.0
C5 C 0.0234 0.29063 0.07069 0.0
H6 H 0.96225 0.41653 0.02025 0.0
C7 C 0.08392 0.30611 0.05835 0.0
C8 C 0.04431 0.3139 0.05941 0.0
H9 H 0.89301 0.3554 0.05194 0.0
H10 H 0.95012 0.32587 0.06319 0.0
H11 H 0.02484 0.41323 0.06426 0.0
H12 H 0.01703 0.37479 0.99164 0.0
H13 H 0.06462 0.38202 0.99426 0.0
H14 H 0.02714 0.41052 0.99561 0.0
H15 H 0.03311 0.43139 0.03554 0.0
H16 H 0.0713 0.41086 0.05162 0.0
C17 C 0.00293 0.29979 0.09579 0.0
C18 C -0.00241 0.27777 0.05119 0.0
C19 C 0.19319 0.35487 0.02008 0.0
C20 C 0.19422 0.38124 0.00851 0.0
C21 C 0.16062 0.3998 0.00778 0.0
C22 C 0.12637 0.39209 0.01774 0.0
C23 C 0.12539 0.36542 0.02847 0.0
C24 C 0.15849 0.34747 0.03004 0.0
C25 C 0.15172 0.32034 0.04293 0.0
C26 C 0.10883 0.32469 0.04779 0.0
C27 C 0.09379 0.35105 0.03908 0.0
C28 C 0.17465 0.31839 0.06776 0.0
C29 C 0.16259 0.2959 0.02422 0.0
C30 C 0.95916 0.39721 0.03027 0.0
C31 C 0.92297 0.38842 0.03527 0.0
C32 C 0.92057 0.3626 0.04768 0.0
C33 C 0.95376 0.34547 0.05416 0.0
C34 C 0.98975 0.35418 0.04807 0.0
C35 C 0.99182 0.37989 0.03669 0.0
C36 C 0.03201 0.38557 0.03067 0.0
C37 C 0.05394 0.35894 0.04015 0.0
C38 C 0.02923 0.34055 0.0503 0.0
C39 C 0.04098 0.4117 0.04608 0.0
C40 C 0.03567 0.38862 0.00161 0.0
H41 H 0.15263 0.26616 0.06933 0.0
H42 H 0.02572 0.23708 0.09327 0.0
H43 H 0.0151 0.26468 0.03715 0.0
H44 H 0.98063 0.29375 0.03994 0.0
H45 H 0.97796 0.26414 0.06054 0.0
H46 H 0.0239 0.30073 0.11126 0.0
H47 H 0.98236 0.28475 0.10149 0.0
H48 H 0.9878 0.32109 0.095 0.0
H49 H 0.21871 0.34032 0.02122 0.0
H50 H 0.16047 0.42005 -0.00128 0.0
H51 H 0.10178 0.40705 0.01613 0.0
H52 H 0.17816 0.33961 0.07551 0.0
H53 H 0.20365 0.30741 0.06473 0.0
H54 H 0.15995 0.30779 0.08296 0.0
H55 H 0.15118 0.30125 0.00517 0.0
H56 H 0.1506 0.27632 0.02956 0.0
H57 H 0.1941 0.29154 0.02244 0.0
H58 H 0.14909 0.22221 0.09076 0.0
C59 C 0.12476 0.26051 0.07423 0.0
C60 C 0.16681 0.64166 0.03437 0.0
C61 C 0.16877 0.61554 0.02186 0.0
C62 C 0.13458 0.60468 0.01489 0.0
C63 C 0.09773 0.6465 0.03093 0.0
C64 C 0.13106 0.65669 0.03877 0.0
C65 C 0.12362 0.685 0.05138 0.0
H66 H -0.00209 0.79603 0.08418 0.0
C67 C 0.06568 0.6679 0.03677 0.0
C68 C 0.08049 0.69044 0.04897 0.0
H69 H 0.11854 0.78256 0.10082 0.0
H70 H 0.12287 0.73816 0.07915 0.0
H71 H 0.0038 0.77018 0.02671 0.0
H72 H 0.98023 0.73437 0.09897 0.0
H73 H 0.94956 0.72116 0.07694 0.0
H74 H 0.94591 0.75839 0.08332 0.0
H75 H 0.96056 0.77991 0.04422 0.0
H76 H 0.96506 0.74994 0.02339 0.0
C77 C 0.14469 0.70633 0.03606 0.0
C78 C 0.13609 0.68198 0.07927 0.0
C79 C 0.93355 0.65315 0.00556 0.0
C80 C 0.89821 0.66954 0.0065 0.0
C81 C 0.89531 0.69537 0.01959 0.0
C82 C 0.92751 0.70504 0.03092 0.0
C83 C 0.96293 0.68864 0.02923 0.0
C84 C 0.96527 0.66301 0.01696 0.0
C85 C 0.00491 0.64823 0.01698 0.0
C86 C 0.02625 0.6693 0.03108 0.0
C87 C 0.00168 0.69301 0.03812 0.0
C88 C 0.01864 0.64458 0.98918 0.0
C89 C 0.004 0.62038 0.03175 0.0
C90 C 0.02528 0.78355 0.08327 0.0
C91 C 0.05796 0.79321 0.09416 0.0
C92 C 0.09301 0.77616 0.0922 0.0
C93 C 0.09544 0.75012 0.07982 0.0
C94 C 0.0625 0.74072 0.06932 0.0
C95 C 0.02814 0.75731 0.07121 0.0
C96 C -0.00415 0.74344 0.05968 0.0
C97 C 0.01648 0.71575 0.05075 0.0
C98 C 0.05562 0.7144 0.05624 0.0
C99 C 0.9801 0.76176 0.0374 0.0
C100 C 0.96602 0.73919 0.08063 0.0
H101 H 0.07435 0.61073 0.01314 0.0
H102 H 0.19255 0.65039 0.04027 0.0
H103 H 0.13317 0.66047 0.0864 0.0
H104 H 0.11798 0.69597 0.09211 0.0
H105 H 0.1664 0.68606 0.08151 0.0
H106 H 0.14118 0.70298 0.01548 0.0
H107 H 0.17576 0.70396 0.04008 0.0
H108 H 0.13347 0.72833 0.03965 0.0
H109 H 0.93654 0.63297 0.99604 0.0
H110 H 0.86834 0.70838 0.02052 0.0
H111 H 0.92368 0.72502 0.04031 0.0
H112 H 0.00861 0.66337 0.97787 0.0
H113 H 0.00732 0.62609 0.9803 0.0
H114 H 0.04998 0.64252 0.987 0.0
H115 H 0.98125 0.6222 0.04655 0.0
H116 H 0.03067 0.61456 0.04217 0.0
H117 H -0.00166 0.60282 0.01903 0.0
H118 H 0.13522 0.58479 0.00502 0.0
C119 C 0.09918 0.61995 0.0194 0.0
C120 C 0.55887 0.73397 0.57943 0.0
C121 C 0.59081 0.71433 0.58311 0.0
C122 C 0.6258 0.71889 0.57143 0.0
C123 C 0.59707 0.76234 0.55341 0.0
C124 C 0.5626 0.75767 0.56453 0.0
C125 C 0.53146 0.78053 0.55866 0.0
H126 H 0.47709 0.90143 0.49684 0.0
C127 C 0.59149 0.78903 0.53941 0.0
C128 C 0.55299 0.79976 0.54234 0.0
H129 H 0.406 0.85309 0.54287 0.0
H130 H 0.46107 0.82033 0.55263 0.0
H131 H 0.54754 0.89817 0.53442 0.0
H132 H 0.52041 0.85142 0.46903 0.0
H133 H 0.5697 0.85387 0.46696 0.0
H134 H 0.53721 0.88551 0.46694 0.0
H135 H 0.55113 0.91147 0.50303 0.0
H136 H 0.59068 0.89106 0.51774 0.0
C137 C 0.51736 0.79487 0.58371 0.0
C138 C 0.50005 0.76734 0.54377 0.0
C139 C 0.70335 0.8269 0.49323 0.0
C140 C 0.70572 0.85077 0.4781 0.0
C141 C 0.67258 0.86907 0.47392 0.0
C142 C 0.63762 0.86385 0.48462 0.0
C143 C 0.63551 0.83998 0.49965 0.0
C144 C 0.66788 0.82182 0.50365 0.0
C145 C 0.65951 0.79715 0.51966 0.0
C146 C 0.61699 0.80393 0.52492 0.0
C147 C 0.60338 0.82908 0.5132 0.0
C148 C 0.6833 0.79776 0.54401 0.0
C149 C 0.66794 0.77005 0.50366 0.0
C150 C 0.47332 0.88379 0.50904 0.0
C151 C 0.43723 0.8796 0.51888 0.0
C152 C 0.43365 0.85671 0.53509 0.0
C153 C 0.46556 0.83765 0.54054 0.0
C154 C 0.50133 0.84167 0.52973 0.0
C155 C 0.50464 0.86473 0.51458 0.0
C156 C 0.54435 0.86608 0.5046 0.0
C157 C 0.56458 0.8398 0.51594 0.0
C158 C 0.53945 0.82543 0.53058 0.0
C159 C 0.5594 0.89312 0.51524 0.0
C160 C 0.54315 0.86435 0.47538 0.0
H161 H 0.65659 0.74515 0.5485 0.0
H162 H 0.53146 0.73092 0.5879 0.0
H163 H 0.51297 0.7514 0.53007 0.0
H164 H 0.48246 0.78274 0.53232 0.0
H165 H 0.48105 0.75671 0.55665 0.0
H166 H 0.54162 0.79661 0.59673 0.0
H167 H 0.49641 0.78263 0.59344 0.0
H168 H 0.50444 0.81662 0.58112 0.0
H169 H 0.72837 0.81237 0.49656 0.0
H170 H 0.67383 0.88775 0.46259 0.0
H171 H 0.61362 0.87872 0.48073 0.0
H172 H 0.68328 0.81964 0.55118 0.0
H173 H 0.71346 0.78941 0.54044 0.0
H174 H 0.67173 0.78595 0.55965 0.0
H175 H 0.66199 0.7742 0.48338 0.0
H176 H 0.6495 0.75354 0.50883 0.0
H177 H 0.69834 0.7615 0.50514 0.0
H178 H 0.65092 0.70427 0.57419 0.0
C179 C 0.62911 0.74276 0.55666 0.0
C180 C 0.67715 0.13442 0.53253 0.0
C181 C 0.67694 0.10781 0.52111 0.0
C182 C 0.64166 0.09792 0.51525 0.0
C183 C 0.60802 0.1415 0.5302 0.0
C184 C 0.64241 0.1508 0.53701 0.0
C185 C 0.6372 0.17975 0.5486 0.0
H186 H 0.51737 0.29266 0.58544 0.0
C187 C 0.57743 0.16406 0.5359 0.0
C188 C 0.59413 0.18646 0.54698 0.0
H189 H 0.64019 0.27989 0.59312 0.0
H190 H 0.64122 0.23494 0.57251 0.0
H191 H 0.51822 0.26947 0.52753 0.0
H192 H 0.49917 0.23042 0.59903 0.0
H193 H 0.46481 0.22056 0.57771 0.0
H194 H 0.46571 0.25706 0.58587 0.0
H195 H 0.47496 0.2774 0.54545 0.0
H196 H 0.48081 0.24822 0.52368 0.0
C197 C 0.65885 0.19963 0.532 0.0
C198 C 0.65086 0.17748 0.57625 0.0
C199 C 0.44309 0.15293 0.50704 0.0
C200 C 0.40873 0.17051 0.50792 0.0
C201 C 0.40757 0.19635 0.52089 0.0
C202 C 0.44062 0.20494 0.532 0.0
C203 C 0.47514 0.18747 0.53014 0.0
C204 C 0.4757 0.16178 0.51812 0.0
C205 C 0.51458 0.14581 0.51783 0.0
C206 C 0.53768 0.16641 0.53112 0.0
C207 C 0.51459 0.19081 0.53827 0.0
C208 C 0.52724 0.14112 0.48991 0.0
C209 C 0.51253 0.11847 0.5332 0.0
C210 C 0.54459 0.2804 0.58243 0.0
C211 C 0.57868 0.28991 0.59126 0.0
C212 C 0.61335 0.27296 0.58706 0.0
C213 C 0.61396 0.24683 0.57497 0.0
C214 C 0.57958 0.23742 0.56676 0.0
C215 C 0.54572 0.25429 0.57025 0.0
C216 C 0.51209 0.24115 0.55974 0.0
C217 C 0.5312 0.21328 0.5501 0.0
C218 C 0.57078 0.21119 0.55427 0.0
C219 C 0.49525 0.25997 0.53806 0.0
C220 C 0.48364 0.23716 0.58157 0.0
H221 H 0.58158 0.106 0.51433 0.0
H222 H 0.70377 0.14248 0.53754 0.0
H223 H 0.64369 0.15747 0.58485 0.0
H224 H 0.63676 0.1941 0.58857 0.0
H225 H 0.6823 0.17794 0.57733 0.0
H226 H 0.65629 0.19439 0.51167 0.0
H227 H 0.68973 0.19783 0.53657 0.0
H228 H 0.6472 0.22184 0.53368 0.0
H229 H 0.44471 0.13269 0.49767 0.0
H230 H 0.38136 0.21025 0.52184 0.0
H231 H 0.43813 0.22498 0.54133 0.0
H232 H 0.51858 0.16011 0.4785 0.0
H233 H 0.51387 0.12327 0.48146 0.0
H234 H 0.55846 0.1374 0.48735 0.0
H235 H 0.48947 0.12097 0.54778 0.0
H236 H 0.53887 0.11259 0.54397 0.0
H237 H 0.50668 0.10066 0.52082 0.0
H238 H 0.64064 0.07769 0.5062 0.0
C239 C 0.60731 0.11456 0.51976 0.0
Zn240 Zn 0.03469 0.06301 0.34644 0.0
Zn241 Zn 0.10661 0.9583 0.34343 0.0
Zn242 Zn 0.06997 0.01065 0.34479 0.0
C243 C 0.09451 0.9754 0.2936 0.0
C244 C 0.03338 0.95625 0.3656 0.0
O245 O 0.10704 0.03687 0.36566 0.0
O246 O 0.07444 0.07886 0.3674 0.0
C247 C 0.05165 0.04978 0.29573 0.0
O248 O 0.07791 0.99736 0.30477 0.0
O249 O 0.11114 0.95563 0.30629 0.0
O250 O 0.06375 0.94079 0.36052 0.0
O251 O 0.0309 0.98276 0.36105 0.0
O252 O 0.03515 0.06895 0.30952 0.0
O253 O 0.06617 0.02662 0.30559 0.0
O254 O 0.0147 0.0107 0.36536 0.0
O255 O 0.98707 0.05421 0.36335 0.0
C256 C 0.98663 0.02921 0.37072 0.0
O257 O 0.12246 0.00855 0.36777 0.0
O258 O 0.15156 0.96558 0.36343 0.0
C259 C 0.1039 0.06278 0.37275 0.0
C260 C 0.15019 0.98986 0.37291 0.0
Zn261 Zn 0.52921 0.56451 0.8388 0.0
Zn262 Zn 0.58399 0.45512 0.8419 0.0
Zn263 Zn 0.55816 0.50979 0.84063 0.0
C264 C 0.58204 0.47139 0.79132 0.0
C265 C 0.51019 0.46025 0.86203 0.0
O266 O 0.59739 0.53376 0.86182 0.0
O267 O 0.57442 0.57811 0.85628 0.0
C268 C 0.5426 0.54638 0.78929 0.0
O269 O 0.56721 0.49467 0.80117 0.0
O270 O 0.59385 0.45106 0.80521 0.0
O271 O 0.53703 0.44163 0.85665 0.0
O272 O 0.51372 0.48633 0.85765 0.0
O273 O 0.52646 0.56692 0.80162 0.0
O274 O 0.55646 0.524 0.80077 0.0
O275 O 0.50327 0.51532 0.86141 0.0
O276 O 0.48214 0.56039 0.85898 0.0
C277 C 0.47845 0.53605 0.86713 0.0
O278 O 0.61075 0.50516 0.86329 0.0
O279 O 0.62664 0.45923 0.86495 0.0
C280 C 0.59933 0.5602 0.8654 0.0
C281 C 0.63257 0.48386 0.87115 0.0
H282 H 0.1327 0.17573 0.08898 0.0
H283 H 0.1315 0.13374 0.11518 0.0
H284 H 0.03563 0.17375 0.15719 0.0
H285 H 0.03755 0.21607 0.13217 0.0
H286 H 0.13603 0.1358 0.17196 0.0
H287 H 0.00608 0.09284 0.13627 0.0
H288 H 0.03385 0.11512 0.11758 0.0
H289 H 0.00117 0.1302 0.1413 0.0
C290 C 0.11141 0.17568 0.10384 0.0
C291 C 0.08516 0.19943 0.10835 0.0
C292 C 0.11059 0.15155 0.11861 0.0
C293 C 0.08311 0.15056 0.1378 0.0
C294 C 0.05656 0.17393 0.14209 0.0
H295 H 0.00439 0.08466 0.26748 0.0
H296 H 0.01603 0.10146 0.22517 0.0
C297 C 0.05763 0.19811 0.12763 0.0
C298 C 0.08359 0.12629 0.155 0.0
H299 H 0.02587 0.07896 0.17794 0.0
C300 C 0.11257 0.12274 0.17297 0.0
C301 C 0.05294 0.1094 0.1561 0.0
C302 C 0.02185 0.11183 0.13665 0.0
C303 C 0.10993 0.10448 0.19344 0.0
C304 C 0.07783 0.0889 0.19553 0.0
C305 C 0.05044 0.09087 0.17635 0.0
C306 C 0.06871 0.07472 0.21935 0.0
C307 C 0.13984 0.10388 0.2137 0.0
C308 C 0.09368 0.05323 0.22987 0.0
C309 C 0.08726 0.04376 0.25438 0.0
C310 C 0.0555 0.05541 0.26849 0.0
C311 C 0.02926 0.07543 0.25716 0.0
C312 C 0.03579 0.08496 0.23288 0.0
H313 H 0.1595 0.12043 0.21102 0.0
H314 H 0.12619 0.10673 0.23261 0.0
H315 H 0.15717 0.08322 0.21334 0.0
H316 H 0.11891 0.04465 0.21958 0.0
H317 H 0.1082 0.02858 0.26274 0.0
H318 H -0.00086 0.81598 0.12454 0.0
H319 H -0.00259 0.85775 0.15106 0.0
H320 H 0.11021 0.87211 0.12487 0.0
H321 H 0.11113 0.83152 0.09695 0.0
H322 H 0.0419 0.86261 0.18902 0.0
H323 H 0.06173 0.95098 0.12521 0.0
H324 H 0.04968 0.91744 0.11373 0.0
H325 H 0.09858 0.92281 0.12036 0.0
C326 C 0.02311 0.8285 0.12369 0.0
C327 C 0.05538 0.82016 0.10859 0.0
C328 C 0.02215 0.85235 0.13906 0.0
C329 C 0.05348 0.86837 0.13983 0.0
C330 C 0.08526 0.86061 0.12423 0.0
H331 H 0.1466 0.94796 0.26206 0.0
H332 H 0.13375 0.92798 0.22093 0.0
C333 C 0.08605 0.83696 0.1086 0.0
C334 C 0.05497 0.89074 0.15923 0.0
H335 H 0.07853 0.95759 0.16904 0.0
C336 C 0.04905 0.88355 0.1845 0.0
C337 C 0.06432 0.91816 0.15347 0.0
C338 C 0.06853 0.92788 0.12667 0.0
C339 C 0.05392 0.90245 0.20414 0.0
C340 C 0.06541 0.92918 0.19846 0.0
C341 C 0.06993 0.93696 0.17325 0.0
C342 C 0.07595 0.94778 0.21898 0.0
C343 C 0.04825 0.89337 0.23103 0.0
C344 C 0.04826 0.96669 0.23077 0.0
C345 C 0.05565 0.97835 0.25429 0.0
C346 C 0.09063 0.97087 0.26626 0.0
C347 C 0.11938 0.95399 0.25326 0.0
C348 C 0.11214 0.94263 0.22975 0.0
H349 H 0.03558 0.87305 0.23217 0.0
H350 H 0.07621 0.89109 0.24071 0.0
H351 H 0.02936 0.90957 0.24138 0.0
H352 H 0.02007 0.97071 0.22275 0.0
H353 H 0.03292 0.99114 0.26401 0.0
H354 H 0.55538 0.71345 0.62902 0.0
H355 H 0.55282 0.67353 0.6574 0.0
H356 H 0.61783 0.61981 0.60387 0.0
H357 H 0.62035 0.65973 0.57509 0.0
H358 H 0.53942 0.60237 0.63159 0.0
H359 H 0.65969 0.63174 0.6902 0.0
H360 H 0.62564 0.6599 0.67997 0.0
H361 H 0.65549 0.64039 0.65713 0.0
C362 C 0.56871 0.69309 0.62309 0.0
C363 C 0.58806 0.68975 0.5998 0.0
C364 C 0.56737 0.67037 0.63937 0.0
C365 C 0.58519 0.64387 0.63266 0.0
C366 C 0.60396 0.64018 0.6093 0.0
H367 H 0.60457 0.52778 0.76013 0.0
H368 H 0.61805 0.54299 0.71705 0.0
C369 C 0.60554 0.663 0.59301 0.0
C370 C 0.58484 0.62047 0.65071 0.0
H371 H 0.61993 0.59955 0.70798 0.0
C372 C 0.55751 0.60127 0.64806 0.0
C373 C 0.60889 0.61891 0.67189 0.0
C374 C 0.63935 0.63867 0.67505 0.0
C375 C 0.55187 0.5817 0.66708 0.0
C376 C 0.57381 0.58172 0.68929 0.0
C377 C 0.60307 0.59954 0.69097 0.0
C378 C 0.56317 0.56704 0.71248 0.0
C379 C 0.52161 0.56186 0.66363 0.0
C380 C 0.52756 0.57489 0.72388 0.0
C381 C 0.51994 0.56635 0.74835 0.0
C382 C 0.54773 0.54972 0.76189 0.0
C383 C 0.58247 0.54029 0.74995 0.0
C384 C 0.59024 0.54904 0.72542 0.0
H385 H 0.51746 0.55732 0.64335 0.0
H386 H 0.52904 0.54176 0.67367 0.0
H387 H 0.49405 0.57174 0.67134 0.0
H388 H 0.50656 0.58925 0.71455 0.0
H389 H 0.49301 0.57401 0.75719 0.0
H390 H 0.62154 0.30105 0.63222 0.0
H391 H 0.61875 0.34418 0.65705 0.0
H392 H 0.53071 0.38258 0.60891 0.0
H393 H 0.53404 0.33966 0.58325 0.0
H394 H 0.62448 0.40489 0.63846 0.0
H395 H 0.48731 0.38383 0.6849 0.0
H396 H 0.51848 0.35583 0.6706 0.0
H397 H 0.49215 0.3812 0.65109 0.0
C398 C 0.60211 0.31878 0.62647 0.0
C399 C 0.57802 0.31677 0.60566 0.0
C400 C 0.60045 0.3434 0.6408 0.0
C401 C 0.57449 0.36646 0.63481 0.0
C402 C 0.55081 0.36489 0.61386 0.0
H403 H 0.52889 0.49022 0.75626 0.0
H404 H 0.52563 0.47349 0.71255 0.0
C405 C 0.55261 0.34027 0.59935 0.0
C406 C 0.57123 0.39137 0.65159 0.0
H407 H 0.52062 0.41899 0.70247 0.0
C408 C 0.60138 0.40844 0.65214 0.0
C409 C 0.5408 0.39617 0.66912 0.0
C410 C 0.50774 0.37836 0.66913 0.0
C411 C 0.603 0.42916 0.67081 0.0
C412 C 0.5743 0.43225 0.68976 0.0
C413 C 0.54268 0.41662 0.68799 0.0
C414 C 0.57959 0.44755 0.71369 0.0
C415 C 0.63612 0.44688 0.67052 0.0
C416 C 0.61138 0.43915 0.7286 0.0
C417 C 0.61331 0.44872 0.75334 0.0
C418 C 0.58345 0.46686 0.76378 0.0
C419 C 0.5526 0.47664 0.7485 0.0
C420 C 0.55063 0.46696 0.72361 0.0
H421 H 0.6458 0.4504 0.65089 0.0
H422 H 0.62855 0.46756 0.67978 0.0
H423 H 0.66049 0.43569 0.68065 0.0
H424 H 0.6336 0.42364 0.72172 0.0
H425 H 0.63728 0.44072 0.76477 0.0
H426 H 0.22393 0.43182 0.01035 0.0
H427 H 0.27641 0.44683 0.9848 0.0
H428 H 0.29636 0.36371 0.95269 0.0
H429 H 0.24317 0.34873 0.97765 0.0
H430 H 0.35331 0.42663 0.98209 0.0
H431 H 0.28116 0.41503 0.89067 0.0
H432 H 0.2562 0.41514 0.92057 0.0
H433 H 0.28432 0.38394 0.9097 0.0
C434 C 0.23955 0.41673 0.99786 0.0
C435 C 0.22923 0.38917 0.9958 0.0
C436 C 0.26952 0.42532 0.98335 0.0
C437 C 0.2896 0.40654 0.96649 0.0
C438 C 0.28058 0.37866 0.96522 0.0
H439 H 0.50792 0.41872 0.89634 0.0
H440 H 0.45295 0.40697 0.92119 0.0
C441 C 0.25058 0.37004 0.97974 0.0
C442 C 0.31999 0.41615 0.95022 0.0
H443 H 0.34691 0.4229 0.88874 0.0
C444 C 0.35186 0.42596 0.96168 0.0
C445 C 0.31755 0.41585 0.92363 0.0
C446 C 0.28281 0.4072 0.91036 0.0
C447 C 0.38216 0.43447 0.94723 0.0
C448 C 0.38072 0.43266 0.92062 0.0
C449 C 0.34815 0.42391 0.90914 0.0
C450 C 0.41326 0.43889 0.90446 0.0
C451 C 0.4154 0.44517 0.96073 0.0
C452 C 0.40869 0.45977 0.88591 0.0
C453 C 0.44002 0.46627 0.87146 0.0
C454 C 0.47625 0.45204 0.87543 0.0
C455 C 0.48032 0.43022 0.8931 0.0
C456 C 0.44907 0.42369 0.90747 0.0
H457 H 0.4062 0.45517 0.97902 0.0
H458 H 0.43687 0.42722 0.96477 0.0
H459 H 0.42935 0.46058 0.94921 0.0
H460 H 0.38111 0.47138 0.88293 0.0
H461 H 0.43605 0.4826 0.85739 0.0
H462 H 0.89713 0.64793 0.95906 0.0
H463 H 0.84381 0.62956 0.93754 0.0
H464 H 0.77119 0.65025 0.00228 0.0
H465 H 0.82463 0.66901 0.02391 0.0
H466 H 0.80423 0.58593 0.95219 0.0
H467 H 0.707 0.68425 0.94444 0.0
H468 H 0.75664 0.68419 0.95268 0.0
H469 H 0.72229 0.67538 0.97586 0.0
C470 C 0.86978 0.64861 0.96872 0.0
C471 C 0.86504 0.65982 0.9932 0.0
C472 C 0.83934 0.63816 0.95638 0.0
C473 C 0.80347 0.6387 0.96823 0.0
C474 C 0.79845 0.65009 0.99261 0.0
H475 H 0.6273 0.53855 0.90966 0.0
H476 H 0.67654 0.55631 0.936 0.0
C477 C 0.82896 0.66076 0.00495 0.0
C478 C 0.77199 0.62646 0.95509 0.0
H479 H 0.6835 0.64248 0.93018 0.0
C480 C 0.77775 0.59826 0.94742 0.0
C481 C 0.73764 0.64266 0.94878 0.0
C482 C 0.73049 0.67336 0.95564 0.0
C483 C 0.75041 0.58589 0.93322 0.0
C484 C 0.71592 0.60201 0.92699 0.0
C485 C 0.7099 0.63012 0.93503 0.0
C486 C 0.68652 0.59065 0.91108 0.0
C487 C 0.75939 0.55602 0.92425 0.0
C488 C 0.67514 0.60431 0.88861 0.0
C489 C 0.64704 0.59419 0.87364 0.0
C490 C 0.63008 0.57006 0.88074 0.0
C491 C 0.64114 0.5565 0.9033 0.0
C492 C 0.66908 0.56675 0.91841 0.0
H493 H 0.79044 0.54912 0.92507 0.0
H494 H 0.74433 0.54193 0.93657 0.0
H495 H 0.74969 0.55353 0.90459 0.0
H496 H 0.68807 0.62285 0.88263 0.0
H497 H 0.63867 0.60517 0.85644 0.0
H498 H 0.9069 0.4457 0.0337 0.0
H499 H 0.85806 0.472 0.00835 0.0
H500 H 0.8123 0.39474 0.9882 0.0
H501 H 0.86204 0.3682 0.01241 0.0
H502 H 0.83101 0.42583 0.94726 0.0
H503 H 0.74333 0.49301 0.01609 0.0
H504 H 0.79399 0.49513 0.01726 0.0
H505 H 0.77491 0.46294 0.0256 0.0
C506 C 0.88611 0.43434 0.02413 0.0
C507 C 0.88864 0.40479 0.02487 0.0
C508 C 0.85799 0.44946 0.00986 0.0
C509 C 0.83157 0.43532 0.99642 0.0
C510 C 0.8325 0.40603 -0.00156 0.0
H511 H 0.62833 0.46836 0.91931 0.0
H512 H 0.67993 0.46417 0.94991 0.0
C513 C 0.86074 0.3909 0.01253 0.0
C514 C 0.80545 0.45038 0.97819 0.0
H515 H 0.72808 0.49888 0.97307 0.0
C516 C 0.80864 0.44197 0.95284 0.0
C517 C 0.77669 0.47163 0.98556 0.0
C518 C 0.77168 0.48115 0.01263 0.0
C519 C 0.7826 0.45309 0.93483 0.0
C520 C 0.75307 0.47376 0.94229 0.0
C521 C 0.75099 0.48322 0.96741 0.0
C522 C 0.72067 0.48199 0.92542 0.0
C523 C 0.78555 0.44129 0.90835 0.0
C524 C 0.72601 0.49449 0.90186 0.0
C525 C 0.6963 0.4971 0.88439 0.0
C526 C 0.66126 0.48708 0.89041 0.0
C527 C 0.65527 0.47624 0.91445 0.0
C528 C 0.68464 0.47393 0.93191 0.0
H529 H 0.80622 0.42223 0.90689 0.0
H530 H 0.7573 0.43582 0.90187 0.0
H531 H 0.79526 0.45731 0.89537 0.0
H532 H 0.75359 0.50097 0.89658 0.0
H533 H 0.70131 0.50544 0.86583 0.0
H534 H 0.19148 0.55909 0.02419 0.0
H535 H 0.24945 0.53423 0.00574 0.0
H536 H 0.28709 0.61334 0.98251 0.0
H537 H 0.2297 0.63817 0.00102 0.0
H538 H 0.26857 0.53273 0.95734 0.0
H539 H 0.38473 0.5753 0.0094 0.0
H540 H 0.33586 0.57943 0.0206 0.0
H541 H 0.35245 0.60359 -0.00205 0.0
C542 C 0.21249 0.57117 0.01551 0.0
C543 C 0.20606 0.60061 0.01409 0.0
C544 C 0.24562 0.55695 0.00505 0.0
C545 C 0.27295 0.57191 0.99307 0.0
C546 C 0.26705 0.60135 0.99232 0.0
H547 H 0.40403 0.55647 0.8636 0.0
H548 H 0.35467 0.55645 0.89645 0.0
C549 C 0.23411 0.61556 0.00287 0.0
C550 C 0.30545 0.55701 0.97886 0.0
H551 H 0.40014 0.56002 0.96611 0.0
C552 C 0.29752 0.53819 0.95965 0.0
C553 C 0.34348 0.56341 0.98222 0.0
C554 C 0.35465 0.58129 0.00388 0.0
C555 C 0.3259 0.52775 0.94236 0.0
C556 C 0.36276 0.53685 0.94402 0.0
C557 C 0.37159 0.55351 0.96455 0.0
C558 C 0.39087 0.53256 0.92309 0.0
C559 C 0.31603 0.50774 0.92198 0.0
C560 C 0.42752 0.51906 0.92716 0.0
C561 C 0.45552 0.51863 0.90822 0.0
C562 C 0.44748 0.5324 0.88526 0.0
C563 C 0.41067 0.54548 0.88107 0.0
C564 C 0.38249 0.54532 0.89974 0.0
H565 H 0.29107 0.49652 0.92747 0.0
H566 H 0.30876 0.51966 0.9045 0.0
H567 H 0.34063 0.49203 0.91779 0.0
H568 H 0.43479 0.50976 0.94526 0.0
H569 H 0.48395 0.50879 0.91196 0.0
H570 H 0.77464 0.85161 0.50128 0.0
H571 H 0.83332 0.86764 0.48323 0.0
H572 H 0.77757 0.88103 0.41168 0.0
H573 H 0.71905 0.86508 0.42949 0.0
H574 H 0.86129 0.8485 0.41594 0.0
H575 H 0.83426 0.95574 0.45795 0.0
H576 H 0.82492 0.92547 0.4763 0.0
H577 H 0.79539 0.9355 0.44989 0.0
C578 C 0.7752 0.85755 0.48161 0.0
C579 C 0.74236 0.85728 0.46678 0.0
C580 C 0.80851 0.86684 0.47142 0.0
C581 C 0.80939 0.8757 0.44627 0.0
C582 C 0.77718 0.8744 0.43118 0.0
H583 H 0.95759 0.97058 0.35781 0.0
H584 H 0.90371 0.95061 0.37825 0.0
C585 C 0.74387 0.86536 0.44137 0.0
C586 C 0.84352 0.88699 0.43564 0.0
H587 H 0.88834 0.94687 0.43165 0.0
C588 C 0.86753 0.86989 0.41949 0.0
C589 C 0.85092 0.91503 0.44016 0.0
C590 C 0.82511 0.93421 0.45696 0.0
C591 C 0.89902 0.8802 0.4076 0.0
C592 C 0.90661 0.90822 0.4122 0.0
C593 C 0.88248 0.92534 0.42834 0.0
C594 C 0.93915 0.92029 0.40005 0.0
C595 C 0.92335 0.8613 0.3897 0.0
C596 C 0.97674 0.9099 0.40571 0.0
C597 C 0.00744 0.92141 0.39424 0.0
C598 C 0.00094 0.94369 0.37718 0.0
C599 C 0.96328 0.95382 0.37131 0.0
C600 C 0.93258 0.94237 0.38285 0.0
H601 H 0.90898 0.84263 0.38407 0.0
H602 H 0.93041 0.87289 0.37245 0.0
H603 H 0.95053 0.85385 0.39905 0.0
H604 H 0.98231 0.89305 0.41915 0.0
H605 H 0.03626 0.91324 0.39905 0.0
H606 H 0.40666 0.14839 0.46071 0.0
H607 H 0.35206 0.1319 0.43915 0.0
H608 H 0.27956 0.15713 0.50289 0.0
H609 H 0.33454 0.17332 0.52492 0.0
H610 H 0.27333 0.10119 0.48441 0.0
H611 H 0.26097 0.18024 0.40791 0.0
H612 H 0.30833 0.16313 0.41169 0.0
H613 H 0.28689 0.18513 0.43656 0.0
C614 C 0.37911 0.15042 0.47018 0.0
C615 C 0.37487 0.16204 0.49455 0.0
C616 C 0.3479 0.14123 0.45773 0.0
C617 C 0.31178 0.14359 0.46933 0.0
C618 C 0.30725 0.15531 0.49361 0.0
H619 H 0.09496 0.10311 0.40908 0.0
H620 H 0.14492 0.12234 0.43379 0.0
C621 C 0.33855 0.16466 0.50608 0.0
C622 C 0.27923 0.13284 0.45627 0.0
H623 H 0.22667 0.14009 0.40251 0.0
C624 C 0.26286 0.10983 0.46663 0.0
C625 C 0.26564 0.14425 0.43312 0.0
C626 C 0.28108 0.16971 0.42173 0.0
C627 C 0.2339 0.09744 0.45399 0.0
C628 C 0.22121 0.10835 0.43054 0.0
C629 C 0.23693 0.13168 0.42042 0.0
C630 C 0.19125 0.09596 0.41628 0.0
C631 C 0.21707 0.07266 0.46553 0.0
C632 C 0.20109 0.07496 0.39822 0.0
C633 C 0.17269 0.06411 0.38396 0.0
C634 C 0.13412 0.07393 0.38778 0.0
C635 C 0.12449 0.09509 0.40583 0.0
C636 C 0.15286 0.10598 0.42001 0.0
H637 H 0.23127 0.06579 0.48339 0.0
H638 H 0.18616 0.07818 0.46933 0.0
H639 H 0.21969 0.05485 0.45202 0.0
H640 H 0.23073 0.06721 0.395 0.0
H641 H 0.18093 0.04843 0.36965 0.0
H642 H 0.37953 0.90646 0.54804 0.0
H643 H 0.32637 0.93972 0.53354 0.0
H644 H 0.36666 0.92765 0.45683 0.0
H645 H 0.4194 0.89499 0.4711 0.0
H646 H 0.349 0.98458 0.47032 0.0
H647 H 0.23169 0.91909 0.49557 0.0
H648 H 0.26397 0.92762 0.51988 0.0
H649 H 0.28095 0.90449 0.49464 0.0
C650 C 0.37668 0.91084 0.5281 0.0
C651 C 0.40361 0.89831 0.51069 0.0
C652 C 0.34647 0.92983 0.51986 0.0
C653 C 0.34268 0.93619 0.49411 0.0
C654 C 0.3693 0.92332 0.47681 0.0
H655 H 0.22664 0.97746 0.36948 0.0
H656 H 0.27189 0.9755 0.40418 0.0
C657 C 0.39938 0.90461 0.48498 0.0
C658 C 0.31082 0.95556 0.48435 0.0
H659 H 0.21716 0.95662 0.46824 0.0
C660 C 0.31988 0.97895 0.47042 0.0
C661 C 0.27278 0.94843 0.48477 0.0
C662 C 0.2615 0.92351 0.4994 0.0
C663 C 0.29277 0.99373 0.45499 0.0
C664 C 0.25584 0.98475 0.45343 0.0
C665 C 0.24562 0.96336 0.46943 0.0
C666 C 0.23048 0.99268 0.43201 0.0
C667 C 0.30471 0.01758 0.43924 0.0
C668 C 0.19238 1.0036 0.436 0.0
C669 C 0.16663 1.00519 0.416 0.0
C670 C 0.17855 0.99513 0.39201 0.0
C671 C 0.21701 0.98554 0.3878 0.0
C672 C 0.24285 0.98457 0.40758 0.0
H673 H 0.3259 0.02907 0.44937 0.0
H674 H 0.31852 0.00894 0.42159 0.0
H675 H 0.27997 0.03263 0.43414 0.0
H676 H 0.18221 0.0096 0.45478 0.0
H677 H 0.13691 0.01234 0.41967 0.0
H678 H 0.73878 0.12718 0.49832 0.0
H679 H 0.79413 0.09961 0.4798 0.0
H680 H 0.75226 0.02346 0.50702 0.0
H681 H 0.69634 0.05105 0.52551 0.0
H682 H 0.85128 0.06199 0.49883 0.0
H683 H 0.76083 0.00922 0.43135 0.0
H684 H 0.74182 0.03875 0.45037 0.0
H685 H 0.75165 1.00474 0.46439 0.0
C686 C 0.74169 0.10463 0.50085 0.0
C687 C 0.71304 0.09128 0.51321 0.0
C688 C 0.77328 0.08886 0.49016 0.0
C689 C 0.77697 0.05943 0.49164 0.0
C690 C 0.74953 0.04608 0.50516 0.0
H691 H 0.99006 0.99529 0.4122 0.0
H692 H 0.93939 0.99218 0.44401 0.0
C693 C 0.7177 0.06188 0.51576 0.0
C694 C 0.80857 0.04323 0.47763 0.0
H695 H 0.82678 1.00393 0.4242 0.0
C696 C 0.84612 0.04875 0.48284 0.0
C697 C 0.80164 0.02584 0.45685 0.0
C698 C 0.76185 0.01931 0.45019 0.0
C699 C 0.87655 0.03927 0.46671 0.0
C700 C 0.86921 0.02346 0.445 0.0
C701 C 0.83219 0.01603 0.4409 0.0
C702 C 0.89742 0.01965 0.42408 0.0
C703 C 0.91568 0.04824 0.47188 0.0
C704 C 0.88985 0.03477 0.40179 0.0
C705 C 0.91841 0.03632 0.38363 0.0
C706 C 0.95499 0.02257 0.38731 0.0
C707 C 0.96192 0.00586 0.40883 0.0
C708 C 0.93317 1.00425 0.42707 0.0
H709 H 0.91551 0.06302 0.48809 0.0
H710 H 0.93563 0.0295 0.4762 0.0
H711 H 0.92689 0.05852 0.45502 0.0
H712 H 0.86248 0.04683 0.39912 0.0
H713 H 0.91239 0.04935 0.36721 0.0
loop_
_geom_bond_atom_site_label_1
_geom_bond_atom_site_label_2
_geom_bond_distance
_geom_bond_site_symmetry_2
_ccdc_geom_bond_type
C0 C1 1.391 . S
C0 C4 1.391 . S
C0 H42 0.948 . S
C1 C0 1.391 . S
C1 C2 1.391 . S
C2 C1 1.391 . S
C2 H58 0.947 . S
C2 C59 1.392 . S
C3 C4 1.391 . S
C3 C7 1.397 . S
C3 C59 1.419 . S
C4 C0 1.391 . S
C4 C3 1.391 . S
C4 C5 1.399 . S
C5 C4 1.399 . S
C5 C8 1.396 . S
C5 C17 1.453 . S
C5 C18 1.684 . S
H6 C30 0.948 . S
C7 C3 1.397 . S
C7 C8 1.394 . S
C7 C26 1.723 . S
C8 C5 1.396 . S
C8 C7 1.394 . S
C8 C38 1.723 . S
H9 C32 0.947 . S
H10 C33 0.948 . S
H11 C39 0.947 1_554 S
H12 C40 0.979 . S
H13 C40 0.980 . S
H14 C40 0.983 . S
H15 C39 0.979 . S
H16 C39 0.977 . S
C17 C5 1.453 . S
C17 H46 0.982 . S
C17 H47 0.979 . S
C17 H48 0.977 . S
C18 C5 1.684 . S
C18 H43 0.979 . S
C18 H44 0.980 . S
C18 H45 0.983 . S
C19 C20 1.393 1_554 S
C19 C24 1.390 . S
C19 H49 0.947 . S
C20 C19 1.393 1_556 S
C20 C21 1.391 . S
C21 C20 1.391 . S
C21 C22 1.392 . S
C21 H50 0.947 . S
C22 C21 1.392 . S
C22 C23 1.419 . S
C22 H51 0.948 . S
C23 C22 1.419 . S
C23 C24 1.391 1_556 S
C23 C27 1.397 1_556 S
C24 C19 1.390 . S
C24 C23 1.391 1_554 S
C24 C25 1.399 . S
C25 C24 1.399 . S
C25 C26 1.396 . S
C25 C28 1.453 . S
C25 C29 1.684 . S
C26 C7 1.723 . S
C26 C25 1.396 . S
C26 C27 1.394 . S
C27 C23 1.397 1_554 S
C27 C26 1.394 . S
C27 C37 1.723 . S
C28 C25 1.453 . S
C28 H52 0.982 . S
C28 H53 0.979 . S
C28 H54 0.977 . S
C29 C25 1.684 . S
C29 H55 0.979 . S
C29 H56 0.980 . S
C29 H57 0.983 . S
C30 H6 0.948 . S
C30 C31 1.391 1_455 S
C30 C35 1.391 . S
C31 C30 1.391 1_655 S
C31 C32 1.391 1_556 S
C32 H9 0.947 . S
C32 C31 1.391 1_554 S
C32 C33 1.392 1_655 S
C33 H10 0.948 . S
C33 C32 1.392 1_455 S
C33 C34 1.419 . S
C34 C33 1.419 . S
C34 C35 1.391 1_554 S
C34 C38 1.397 . S
C35 C30 1.391 . S
C35 C34 1.391 1_556 S
C35 C36 1.399 . S
C36 C35 1.399 . S
C36 C37 1.396 1_556 S
C36 C39 1.453 . S
C36 C40 1.684 . S
C37 C27 1.723 . S
C37 C36 1.396 1_554 S
C37 C38 1.394 . S
C38 C8 1.723 . S
C38 C34 1.397 . S
C38 C37 1.394 . S
C39 H11 0.947 1_556 S
C39 H15 0.979 . S
C39 H16 0.977 . S
C39 C36 1.453 . S
C40 H12 0.979 . S
C40 H13 0.980 . S
C40 H14 0.983 . S
C40 C36 1.684 . S
H41 C59 0.948 . S
H42 C0 0.948 . S
H43 C18 0.979 . S
H44 C18 0.980 . S
H45 C18 0.983 . S
H46 C17 0.982 . S
H47 C17 0.979 . S
H48 C17 0.977 . S
H49 C19 0.947 . S
H50 C21 0.947 . S
H51 C22 0.948 . S
H52 C28 0.982 . S
H53 C28 0.979 . S
H54 C28 0.977 . S
H55 C29 0.979 . S
H56 C29 0.980 . S
H57 C29 0.983 . S
H58 C2 0.947 . S
C59 C2 1.392 . S
C59 C3 1.419 . S
C59 H41 0.948 . S
C60 C61 1.391 1_554 S
C60 C64 1.391 . S
C60 H102 0.948 . S
C61 C60 1.391 1_556 S
C61 C62 1.391 . S
C62 C61 1.391 . S
C62 H118 0.947 . S
C62 C119 1.392 . S
C63 C64 1.381 1_556 S
C63 C67 1.387 1_556 S
C63 C119 1.434 . S
C64 C60 1.391 . S
C64 C63 1.381 1_554 S
C64 C65 1.399 . S
C65 C64 1.399 . S
C65 C68 1.396 . S
C65 C77 1.453 . S
C65 C78 1.684 . S
H66 C90 0.948 . S
C67 C63 1.387 1_554 S
C67 C68 1.394 . S
C67 C86 1.723 1_455 S
C68 C65 1.396 . S
C68 C67 1.394 . S
C68 C98 1.723 . S
H69 C92 0.947 . S
H70 C93 0.948 . S
H71 C99 0.982 . S
H72 C100 0.979 . S
H73 C100 0.980 . S
H74 C100 0.983 . S
H75 C99 0.979 . S
H76 C99 0.977 . S
C77 C65 1.453 . S
C77 H106 0.982 . S
C77 H107 0.979 . S
C77 H108 0.977 . S
C78 C65 1.684 . S
C78 H103 0.979 . S
C78 H104 0.980 . S
C78 H105 0.983 . S
C79 C80 1.391 . S
C79 C84 1.391 . S
C79 H109 0.948 . S
C80 C79 1.391 . S
C80 C81 1.391 1_556 S
C81 C80 1.391 1_554 S
C81 C82 1.392 . S
C81 H110 0.947 . S
C82 C81 1.392 . S
C82 C83 1.419 . S
C82 H111 0.948 . S
C83 C82 1.419 . S
C83 C84 1.391 1_554 S
C83 C87 1.397 . S
C84 C79 1.391 . S
C84 C83 1.391 1_556 S
C84 C85 1.399 . S
C85 C84 1.399 . S
C85 C86 1.396 1_556 S
C85 C88 1.453 . S
C85 C89 1.684 . S
C86 C67 1.723 1_655 S
C86 C85 1.396 1_554 S
C86 C87 1.394 . S
C87 C83 1.397 . S
C87 C86 1.394 . S
C87 C97 1.723 . S
C88 C85 1.453 . S
C88 H112 0.982 . S
C88 H113 0.979 . S
C88 H114 0.977 1_655 S
C89 C85 1.684 . S
C89 H115 0.976 1_556 S
C89 H116 0.980 1_655 S
C89 H117 0.983 . S
C90 H66 0.948 . S
C90 C91 1.391 1_655 S
C90 C95 1.391 . S
C91 C90 1.391 1_455 S
C91 C92 1.391 . S
C92 H69 0.947 . S
C92 C91 1.391 . S
C92 C93 1.392 . S
C93 H70 0.948 . S
C93 C92 1.392 . S
C93 C94 1.419 . S
C94 C93 1.419 . S
C94 C95 1.391 1_455 S
C94 C98 1.397 . S
C95 C90 1.391 . S
C95 C94 1.391 1_655 S
C95 C96 1.399 . S
C96 C95 1.399 . S
C96 C97 1.396 . S
C96 C99 1.453 . S
C96 C100 1.684 . S
C97 C87 1.723 . S
C97 C96 1.396 . S
C97 C98 1.394 1_655 S
C98 C68 1.723 . S
C98 C94 1.397 . S
C98 C97 1.394 1_455 S
C99 H71 0.982 . S
C99 H75 0.979 . S
C99 H76 0.977 . S
C99 C96 1.453 . S
C100 H72 0.979 . S
C100 H73 0.980 . S
C100 H74 0.983 . S
C100 C96 1.684 . S
H101 C119 0.948 . S
H102 C60 0.948 . S
H103 C78 0.979 . S
H104 C78 0.980 . S
H105 C78 0.983 . S
H106 C77 0.982 . S
H107 C77 0.979 . S
H108 C77 0.977 . S
H109 C79 0.948 . S
H110 C81 0.947 . S
H111 C82 0.948 . S
H112 C88 0.982 . S
H113 C88 0.979 . S
H114 C88 0.977 1_455 S
H115 C89 0.976 1_554 S
H116 C89 0.980 1_455 S
H117 C89 0.983 . S
H118 C62 0.947 . S
C119 C62 1.392 . S
C119 C63 1.434 . S
C119 H101 0.948 . S
C120 C121 1.391 . S
C120 C124 1.391 . S
C120 H162 0.948 . S
C121 C120 1.391 . S
C121 C122 1.391 . S
C122 C121 1.391 . S
C122 H178 0.947 . S
C122 C179 1.392 . S
C123 C124 1.391 . S
C123 C127 1.397 . S
C123 C179 1.419 . S
C124 C120 1.391 . S
C124 C123 1.391 . S
C124 C125 1.399 . S
C125 C124 1.399 . S
C125 C128 1.396 . S
C125 C137 1.453 . S
C125 C138 1.684 . S
H126 C150 0.948 . S
C127 C123 1.397 . S
C127 C128 1.394 . S
C127 C146 1.723 . S
C128 C125 1.396 . S
C128 C127 1.394 . S
C128 C158 1.723 . S
H129 C152 0.947 . S
H130 C153 0.948 . S
H131 C159 0.982 . S
H132 C160 0.979 . S
H133 C160 0.980 . S
H134 C160 0.983 . S
H135 C159 0.979 . S
H136 C159 0.977 . S
C137 C125 1.453 . S
C137 H166 0.982 . S
C137 H167 0.979 . S
C137 H168 0.977 . S
C138 C125 1.684 . S
C138 H163 0.979 . S
C138 H164 0.980 . S
C138 H165 0.983 . S
C139 C140 1.391 . S
C139 C144 1.391 . S
C139 H169 0.948 . S
C140 C139 1.391 . S
C140 C141 1.391 . S
C141 C140 1.391 . S
C141 C142 1.392 . S
C141 H170 0.947 . S
C142 C141 1.392 . S
C142 C143 1.419 . S
C142 H171 0.948 . S
C143 C142 1.419 . S
C143 C144 1.391 . S
C143 C147 1.397 . S
C144 C139 1.391 . S
C144 C143 1.391 . S
C144 C145 1.399 . S
C145 C144 1.399 . S
C145 C146 1.396 . S
C145 C148 1.453 . S
C145 C149 1.684 . S
C146 C127 1.723 . S
C146 C145 1.396 . S
C146 C147 1.394 . S
C147 C143 1.397 . S
C147 C146 1.394 . S
C147 C157 1.723 . S
C148 C145 1.453 . S
C148 H172 0.982 . S
C148 H173 0.979 . S
C148 H174 0.977 . S
C149 C145 1.684 . S
C149 H175 0.979 . S
C149 H176 0.980 . S
C149 H177 0.983 . S
C150 H126 0.948 . S
C150 C151 1.391 . S
C150 C155 1.391 . S
C151 C150 1.391 . S
C151 C152 1.391 . S
C152 H129 0.947 . S
C152 C151 1.391 . S
C152 C153 1.392 . S
C153 H130 0.948 . S
C153 C152 1.392 . S
C153 C154 1.419 . S
C154 C153 1.419 . S
C154 C155 1.391 . S
C154 C158 1.397 . S
C155 C150 1.391 . S
C155 C154 1.391 . S
C155 C156 1.399 . S
C156 C155 1.399 . S
C156 C157 1.396 . S
C156 C159 1.453 . S
C156 C160 1.684 . S
C157 C147 1.723 . S
C157 C156 1.396 . S
C157 C158 1.394 . S
C158 C128 1.723 . S
C158 C154 1.397 . S
C158 C157 1.394 . S
C159 H131 0.982 . S
C159 H135 0.979 . S
C159 H136 0.977 . S
C159 C156 1.453 . S
C160 H132 0.979 . S
C160 H133 0.980 . S
C160 H134 0.983 . S
C160 C156 1.684 . S
H161 C179 0.948 . S
H162 C120 0.948 . S
H163 C138 0.979 . S
H164 C138 0.980 . S
H165 C138 0.983 . S
H166 C137 0.982 . S
H167 C137 0.979 . S
H168 C137 0.977 . S
H169 C139 0.948 . S
H170 C141 0.947 . S
H171 C142 0.948 . S
H172 C148 0.982 . S
H173 C148 0.979 . S
H174 C148 0.977 . S
H175 C149 0.979 . S
H176 C149 0.980 . S
H177 C149 0.983 . S
H178 C122 0.947 . S
C179 C122 1.392 . S
C179 C123 1.419 . S
C179 H161 0.948 . S
C180 C181 1.391 . S
C180 C184 1.391 . S
C180 H222 0.948 . S
C181 C180 1.391 . S
C181 C182 1.391 . S
C182 C181 1.391 . S
C182 H238 0.947 . S
C182 C239 1.392 . S
C183 C184 1.391 . S
C183 C187 1.397 . S
C183 C239 1.419 . S
C184 C180 1.391 . S
C184 C183 1.391 . S
C184 C185 1.399 . S
C185 C184 1.399 . S
C185 C188 1.396 . S
C185 C197 1.453 . S
C185 C198 1.684 . S
H186 C210 0.948 . S
C187 C183 1.397 . S
C187 C188 1.394 . S
C187 C206 1.723 . S
C188 C185 1.396 . S
C188 C187 1.394 . S
C188 C218 1.723 . S
H189 C212 0.947 . S
H190 C213 0.948 . S
H191 C219 0.982 . S
H192 C220 0.979 . S
H193 C220 0.980 . S
H194 C220 0.983 . S
H195 C219 0.979 . S
H196 C219 0.977 . S
C197 C185 1.453 . S
C197 H226 0.982 . S
C197 H227 0.979 . S
C197 H228 0.977 . S
C198 C185 1.684 . S
C198 H223 0.979 . S
C198 H224 0.980 . S
C198 H225 0.983 . S
C199 C200 1.391 . S
C199 C204 1.391 . S
C199 H229 0.948 . S
C200 C199 1.391 . S
C200 C201 1.391 . S
C201 C200 1.391 . S
C201 C202 1.392 . S
C201 H230 0.947 . S
C202 C201 1.392 . S
C202 C203 1.419 . S
C202 H231 0.948 . S
C203 C202 1.419 . S
C203 C204 1.391 . S
C203 C207 1.397 . S
C204 C199 1.391 . S
C204 C203 1.391 . S
C204 C205 1.399 . S
C205 C204 1.399 . S
C205 C206 1.396 . S
C205 C208 1.453 . S
C205 C209 1.684 . S
C206 C187 1.723 . S
C206 C205 1.396 . S
C206 C207 1.394 . S
C207 C203 1.397 . S
C207 C206 1.394 . S
C207 C217 1.723 . S
C208 C205 1.453 . S
C208 H232 0.982 . S
C208 H233 0.979 . S
C208 H234 0.977 . S
C209 C205 1.684 . S
C209 H235 0.979 . S
C209 H236 0.980 . S
C209 H237 0.983 . S
C210 H186 0.948 . S
C210 C211 1.391 . S
C210 C215 1.391 . S
C211 C210 1.391 . S
C211 C212 1.391 . S
C212 H189 0.947 . S
C212 C211 1.391 . S
C212 C213 1.392 . S
C213 H190 0.948 . S
C213 C212 1.392 . S
C213 C214 1.419 . S
C214 C213 1.419 . S
C214 C215 1.391 . S
C214 C218 1.397 . S
C215 C210 1.391 . S
C215 C214 1.391 . S
C215 C216 1.399 . S
C216 C215 1.399 . S
C216 C217 1.396 . S
C216 C219 1.453 . S
C216 C220 1.684 . S
C217 C207 1.723 . S
C217 C216 1.396 . S
C217 C218 1.394 . S
C218 C188 1.723 . S
C218 C214 1.397 . S
C218 C217 1.394 . S
C219 H191 0.982 . S
C219 H195 0.979 . S
C219 H196 0.977 . S
C219 C216 1.453 . S
C220 H192 0.979 . S
C220 H193 0.980 . S
C220 H194 0.983 . S
C220 C216 1.684 . S
H221 C239 0.948 . S
H222 C180 0.948 . S
H223 C198 0.979 . S
H224 C198 0.980 . S
H225 C198 0.983 . S
H226 C197 0.982 . S
H227 C197 0.979 . S
H228 C197 0.977 . S
H229 C199 0.948 . S
H230 C201 0.947 . S
H231 C202 0.948 . S
H232 C208 0.982 . S
H233 C208 0.979 . S
H234 C208 0.977 . S
H235 C209 0.979 . S
H236 C209 0.980 . S
H237 C209 0.983 . S
H238 C182 0.947 . S
C239 C182 1.392 . S
C239 C183 1.419 . S
C239 H221 0.948 . S
Zn240 O246 1.920 . S
Zn240 O252 1.898 . S
Zn240 O255 1.905 . S
Zn241 O249 1.905 . S
Zn241 O250 1.898 . S
Zn241 O258 1.920 . S
Zn242 O245 2.080 . S
Zn242 O248 2.114 1_545 S
Zn242 O251 2.120 1_545 S
Zn242 O253 2.120 . S
Zn242 O254 2.114 . S
Zn242 O257 2.080 1_545 S
C243 O248 1.166 . S
C243 O249 1.182 . S
C244 O250 1.167 . S
C244 O251 1.299 . S
O245 Zn242 2.080 . S
O245 C259 1.305 . S
O246 Zn240 1.920 . S
O246 C259 1.234 . S
C247 O252 1.167 . S
C247 O253 1.299 . S
O248 Zn242 2.114 1_565 S
O248 C243 1.166 . S
O249 Zn241 1.905 . S
O249 C243 1.182 . S
O250 Zn241 1.898 . S
O250 C244 1.167 . S
O251 Zn242 2.120 1_565 S
O251 C244 1.299 . S
O252 Zn240 1.898 . S
O252 C247 1.167 . S
O253 Zn242 2.120 . S
O253 C247 1.299 . S
O254 Zn242 2.114 . S
O254 C256 1.164 1_455 S
O255 Zn240 1.905 . S
O255 C256 1.180 1_455 S
C256 O254 1.164 1_655 S
C256 O255 1.180 1_655 S
O257 Zn242 2.080 1_565 S
O257 C260 1.305 . S
O258 Zn241 1.920 . S
O258 C260 1.234 . S
C259 O245 1.305 . S
C259 O246 1.234 . S
C260 O257 1.305 . S
C260 O258 1.234 . S
Zn261 O267 1.920 . S
Zn261 O273 1.898 . S
Zn261 O276 1.905 . S
Zn262 O270 1.905 . S
Zn262 O271 1.898 . S
Zn262 O279 1.920 . S
Zn263 O266 2.080 . S
Zn263 O269 2.114 . S
Zn263 O272 2.120 . S
Zn263 O274 2.120 . S
Zn263 O275 2.114 . S
Zn263 O278 2.080 . S
C264 O269 1.166 . S
C264 O270 1.182 . S
C265 O271 1.167 . S
C265 O272 1.299 . S
O266 Zn263 2.080 . S
O266 C280 1.305 . S
O267 Zn261 1.920 . S
O267 C280 1.234 . S
C268 O273 1.167 . S
C268 O274 1.299 . S
O269 Zn263 2.114 . S
O269 C264 1.166 . S
O270 Zn262 1.905 . S
O270 C264 1.182 . S
O271 Zn262 1.898 . S
O271 C265 1.167 . S
O272 Zn263 2.120 . S
O272 C265 1.299 . S
O273 Zn261 1.898 . S
O273 C268 1.167 . S
O274 Zn263 2.120 . S
O274 C268 1.299 . S
O275 Zn263 2.114 . S
O275 C277 1.166 . S
O276 Zn261 1.905 . S
O276 C277 1.182 . S
C277 O275 1.166 . S
C277 O276 1.182 . S
O278 Zn263 2.080 . S
O278 C281 1.305 . S
O279 Zn262 1.920 . S
O279 C281 1.234 . S
C280 O266 1.305 . S
C280 O267 1.234 . S
C281 O278 1.305 . S
C281 O279 1.234 . S
H282 C290 0.929 . S
H283 C292 0.930 . S
H284 C294 0.930 . S
H285 C297 0.929 . S
H286 C300 0.930 . S
H287 C302 0.960 . S
H288 C302 0.960 . S
H289 C302 0.960 . S
C290 H282 0.929 . S
C290 C291 1.377 . S
C290 C292 1.384 . S
C291 C290 1.377 . S
C291 C297 1.390 . S
C292 H283 0.930 . S
C292 C290 1.384 . S
C292 C293 1.372 . S
C293 C292 1.372 . S
C293 C294 1.400 . S
C293 C298 1.490 . S
C294 H284 0.930 . S
C294 C293 1.400 . S
C294 C297 1.386 . S
H295 C311 0.930 . S
H296 C312 0.931 . S
C297 H285 0.929 . S
C297 C291 1.390 . S
C297 C294 1.386 . S
C298 C293 1.490 . S
C298 C300 1.395 . S
C298 C301 1.403 . S
H299 C305 0.930 . S
C300 H286 0.930 . S
C300 C298 1.395 . S
C300 C303 1.403 . S
C301 C298 1.403 . S
C301 C302 1.524 . S
C301 C305 1.400 . S
C302 H287 0.960 . S
C302 H288 0.960 . S
C302 H289 0.960 . S
C302 C301 1.524 . S
C303 C300 1.403 . S
C303 C304 1.392 . S
C303 C307 1.495 . S
C304 C303 1.392 . S
C304 C305 1.385 . S
C304 C306 1.478 . S
C305 H299 0.930 . S
C305 C301 1.400 . S
C305 C304 1.385 . S
C306 C304 1.478 . S
C306 C308 1.381 . S
C306 C312 1.383 . S
C307 C303 1.495 . S
C307 H313 0.959 . S
C307 H314 0.961 . S
C307 H315 0.960 . S
C308 C306 1.381 . S
C308 C309 1.394 . S
C308 H316 0.930 . S
C309 C308 1.394 . S
C309 C310 1.383 . S
C309 H317 0.929 . S
C310 C309 1.383 . S
C310 C311 1.377 . S
C311 H295 0.930 . S
C311 C310 1.377 . S
C311 C312 1.379 . S
C312 H296 0.931 . S
C312 C306 1.383 . S
C312 C311 1.379 . S
H313 C307 0.959 . S
H314 C307 0.961 . S
H315 C307 0.960 . S
H316 C308 0.930 . S
H317 C309 0.929 . S
H318 C326 0.933 . S
H319 C328 0.930 . S
H320 C330 0.930 . S
H321 C333 0.929 . S
H322 C336 0.930 . S
H323 C338 0.960 . S
H324 C338 0.960 . S
H325 C338 0.960 . S
C326 H318 0.933 . S
C326 C327 1.377 . S
C326 C328 1.384 . S
C327 C326 1.377 . S
C327 C333 1.390 . S
C328 H319 0.930 . S
C328 C326 1.384 . S
C328 C329 1.372 . S
C329 C328 1.372 . S
C329 C330 1.400 . S
C329 C334 1.490 . S
C330 H320 0.930 . S
C330 C329 1.400 . S
C330 C333 1.386 . S
H331 C347 0.930 . S
H332 C348 0.931 . S
C333 H321 0.929 . S
C333 C327 1.390 . S
C333 C330 1.386 . S
C334 C329 1.490 . S
C334 C336 1.395 . S
C334 C337 1.403 1_455 S
H335 C341 0.930 1_655 S
C336 H322 0.930 . S
C336 C334 1.395 . S
C336 C339 1.403 . S
C337 C334 1.403 1_655 S
C337 C338 1.524 . S
C337 C341 1.400 1_655 S
C338 H323 0.960 . S
C338 H324 0.960 . S
C338 H325 0.960 . S
C338 C337 1.524 . S
C339 C336 1.403 . S
C339 C340 1.392 . S
C339 C343 1.495 . S
C340 C339 1.392 . S
C340 C341 1.385 . S
C340 C342 1.478 . S
C341 H335 0.930 1_455 S
C341 C337 1.400 1_455 S
C341 C340 1.385 . S
C342 C340 1.478 . S
C342 C344 1.381 . S
C342 C348 1.383 . S
C343 C339 1.495 . S
C343 H349 0.959 . S
C343 H350 0.961 . S
C343 H351 0.960 . S
C344 C342 1.381 . S
C344 C345 1.394 . S
C344 H352 0.930 . S
C345 C344 1.394 . S
C345 C346 1.383 . S
C345 H353 0.929 . S
C346 C345 1.383 . S
C346 C347 1.377 . S
C347 H331 0.930 . S
C347 C346 1.377 . S
C347 C348 1.379 . S
C348 H332 0.931 . S
C348 C342 1.383 . S
C348 C347 1.379 . S
H349 C343 0.959 . S
H350 C343 0.961 . S
H351 C343 0.960 . S
H352 C344 0.930 . S
H353 C345 0.929 . S
H354 C362 0.929 . S
H355 C364 0.930 . S
H356 C366 0.930 . S
H357 C369 0.929 . S
H358 C372 0.930 . S
H359 C374 0.960 . S
H360 C374 0.960 . S
H361 C374 0.960 . S
C362 H354 0.929 . S
C362 C363 1.377 . S
C362 C364 1.384 . S
C363 C362 1.377 . S
C363 C369 1.390 . S
C364 H355 0.930 . S
C364 C362 1.384 . S
C364 C365 1.372 . S
C365 C364 1.372 . S
C365 C366 1.400 . S
C365 C370 1.490 . S
C366 H356 0.930 . S
C366 C365 1.400 . S
C366 C369 1.386 . S
H367 C383 0.930 . S
H368 C384 0.931 . S
C369 H357 0.929 . S
C369 C363 1.390 . S
C369 C366 1.386 . S
C370 C365 1.490 . S
C370 C372 1.395 . S
C370 C373 1.403 . S
H371 C377 0.930 . S
C372 H358 0.930 . S
C372 C370 1.395 . S
C372 C375 1.403 . S
C373 C370 1.403 . S
C373 C374 1.524 . S
C373 C377 1.400 . S
C374 H359 0.960 . S
C374 H360 0.960 . S
C374 H361 0.960 . S
C374 C373 1.524 . S
C375 C372 1.403 . S
C375 C376 1.392 . S
C375 C379 1.495 . S
C376 C375 1.392 . S
C376 C377 1.385 . S
C376 C378 1.478 . S
C377 H371 0.930 . S
C377 C373 1.400 . S
C377 C376 1.385 . S
C378 C376 1.478 . S
C378 C380 1.381 . S
C378 C384 1.383 . S
C379 C375 1.495 . S
C379 H385 0.959 . S
C379 H386 0.961 . S
C379 H387 0.960 . S
C380 C378 1.381 . S
C380 C381 1.394 . S
C380 H388 0.930 . S
C381 C380 1.394 . S
C381 C382 1.383 . S
C381 H389 0.929 . S
C382 C381 1.383 . S
C382 C383 1.377 . S
C383 H367 0.930 . S
C383 C382 1.377 . S
C383 C384 1.379 . S
C384 H368 0.931 . S
C384 C378 1.383 . S
C384 C383 1.379 . S
H385 C379 0.959 . S
H386 C379 0.961 . S
H387 C379 0.960 . S
H388 C380 0.930 . S
H389 C381 0.929 . S
H390 C398 0.929 . S
H391 C400 0.930 . S
H392 C402 0.930 . S
H393 C405 0.929 . S
H394 C408 0.930 . S
H395 C410 0.960 . S
H396 C410 0.960 . S
H397 C410 0.960 . S
C398 H390 0.929 . S
C398 C399 1.377 . S
C398 C400 1.384 . S
C399 C398 1.377 . S
C399 C405 1.390 . S
C400 H391 0.930 . S
C400 C398 1.384 . S
C400 C401 1.372 . S
C401 C400 1.372 . S
C401 C402 1.400 . S
C401 C406 1.490 . S
C402 H392 0.930 . S
C402 C401 1.400 . S
C402 C405 1.386 . S
H403 C419 0.930 . S
H404 C420 0.931 . S
C405 H393 0.929 . S
C405 C399 1.390 . S
C405 C402 1.386 . S
C406 C401 1.490 . S
C406 C408 1.395 . S
C406 C409 1.403 . S
H407 C413 0.930 . S
C408 H394 0.930 . S
C408 C406 1.395 . S
C408 C411 1.403 . S
C409 C406 1.403 . S
C409 C410 1.524 . S
C409 C413 1.400 . S
C410 H395 0.960 . S
C410 H396 0.960 . S
C410 H397 0.960 . S
C410 C409 1.524 . S
C411 C408 1.403 . S
C411 C412 1.392 . S
C411 C415 1.495 . S
C412 C411 1.392 . S
C412 C413 1.385 . S
C412 C414 1.478 . S
C413 H407 0.930 . S
C413 C409 1.400 . S
C413 C412 1.385 . S
C414 C412 1.478 . S
C414 C416 1.381 . S
C414 C420 1.383 . S
C415 C411 1.495 . S
C415 H421 0.959 . S
C415 H422 0.961 . S
C415 H423 0.960 . S
C416 C414 1.381 . S
C416 C417 1.394 . S
C416 H424 0.930 . S
C417 C416 1.394 . S
C417 C418 1.383 . S
C417 H425 0.929 . S
C418 C417 1.383 . S
C418 C419 1.377 . S
C419 H403 0.930 . S
C419 C418 1.377 . S
C419 C420 1.379 . S
C420 H404 0.931 . S
C420 C414 1.383 . S
C420 C419 1.379 . S
H421 C415 0.959 . S
H422 C415 0.961 . S
H423 C415 0.960 . S
H424 C416 0.930 . S
H425 C417 0.929 . S
H426 C434 0.929 . S
H427 C436 0.930 . S
H428 C438 0.930 . S
H429 C441 0.929 . S
H430 C444 0.930 . S
H431 C446 0.960 . S
H432 C446 0.960 . S
H433 C446 0.960 . S
C434 H426 0.929 . S
C434 C435 1.377 . S
C434 C436 1.384 . S
C435 C434 1.377 . S
C435 C441 1.390 . S
C436 H427 0.930 . S
C436 C434 1.384 . S
C436 C437 1.372 . S
C437 C436 1.372 . S
C437 C438 1.400 . S
C437 C442 1.490 . S
C438 H428 0.930 . S
C438 C437 1.400 . S
C438 C441 1.386 . S
H439 C455 0.930 . S
H440 C456 0.931 . S
C441 H429 0.929 . S
C441 C435 1.390 . S
C441 C438 1.386 . S
C442 C437 1.490 . S
C442 C444 1.395 . S
C442 C445 1.403 . S
H443 C449 0.930 . S
C444 H430 0.930 . S
C444 C442 1.395 . S
C444 C447 1.403 . S
C445 C442 1.403 . S
C445 C446 1.524 . S
C445 C449 1.400 . S
C446 H431 0.960 . S
C446 H432 0.960 . S
C446 H433 0.960 . S
C446 C445 1.524 . S
C447 C444 1.403 . S
C447 C448 1.392 . S
C447 C451 1.495 . S
C448 C447 1.392 . S
C448 C449 1.385 . S
C448 C450 1.478 . S
C449 H443 0.930 . S
C449 C445 1.400 . S
C449 C448 1.385 . S
C450 C448 1.478 . S
C450 C452 1.381 . S
C450 C456 1.383 . S
C451 C447 1.495 . S
C451 H457 0.959 . S
C451 H458 0.961 . S
C451 H459 0.960 . S
C452 C450 1.381 . S
C452 C453 1.394 . S
C452 H460 0.930 . S
C453 C452 1.394 . S
C453 C454 1.383 . S
C453 H461 0.929 . S
C454 C453 1.383 . S
C454 C455 1.377 . S
C455 H439 0.930 . S
C455 C454 1.377 . S
C455 C456 1.379 . S
C456 H440 0.931 . S
C456 C450 1.383 . S
C456 C455 1.379 . S
H457 C451 0.959 . S
H458 C451 0.961 . S
H459 C451 0.960 . S
H460 C452 0.930 . S
H461 C453 0.929 . S
H462 C470 0.929 . S
H463 C472 0.930 . S
H464 C474 0.949 . S
H465 C477 0.929 1_554 S
H466 C480 0.930 . S
H467 C482 0.960 . S
H468 C482 0.960 . S
H469 C482 0.960 . S
C470 H462 0.929 . S
C470 C471 1.377 . S
C470 C472 1.384 . S
C471 C470 1.377 . S
C471 C477 1.390 . S
C472 H463 0.930 . S
C472 C470 1.384 . S
C472 C473 1.372 . S
C473 C472 1.372 . S
C473 C474 1.400 . S
C473 C478 1.490 . S
C474 H464 0.949 . S
C474 C473 1.400 . S
C474 C477 1.386 . S
H475 C491 0.930 . S
H476 C492 0.931 . S
C477 H465 0.929 1_556 S
C477 C471 1.390 . S
C477 C474 1.386 . S
C478 C473 1.490 . S
C478 C480 1.395 . S
C478 C481 1.403 . S
H479 C485 0.930 . S
C480 H466 0.930 . S
C480 C478 1.395 . S
C480 C483 1.403 . S
C481 C478 1.403 . S
C481 C482 1.524 . S
C481 C485 1.400 . S
C482 H467 0.960 . S
C482 H468 0.960 . S
C482 H469 0.960 . S
C482 C481 1.524 . S
C483 C480 1.403 . S
C483 C484 1.392 . S
C483 C487 1.495 . S
C484 C483 1.392 . S
C484 C485 1.385 . S
C484 C486 1.478 . S
C485 H479 0.930 . S
C485 C481 1.400 . S
C485 C484 1.385 . S
C486 C484 1.478 . S
C486 C488 1.381 . S
C486 C492 1.383 . S
C487 C483 1.495 . S
C487 H493 0.959 . S
C487 H494 0.961 . S
C487 H495 0.960 . S
C488 C486 1.381 . S
C488 C489 1.394 . S
C488 H496 0.930 . S
C489 C488 1.394 . S
C489 C490 1.383 . S
C489 H497 0.929 . S
C490 C489 1.383 . S
C490 C491 1.377 . S
C491 H475 0.930 . S
C491 C490 1.377 . S
C491 C492 1.379 . S
C492 H476 0.931 . S
C492 C486 1.383 . S
C492 C491 1.379 . S
H493 C487 0.959 . S
H494 C487 0.961 . S
H495 C487 0.960 . S
H496 C488 0.930 . S
H497 C489 0.929 . S
H498 C506 0.929 . S
H499 C508 0.930 . S
H500 C510 0.930 . S
H501 C513 0.929 . S
H502 C516 0.930 . S
H503 C518 0.960 . S
H504 C518 0.960 . S
H505 C518 0.960 . S
C506 H498 0.929 . S
C506 C507 1.377 . S
C506 C508 1.384 . S
C507 C506 1.377 . S
C507 C513 1.390 . S
C508 H499 0.930 . S
C508 C506 1.384 . S
C508 C509 1.372 . S
C509 C508 1.372 . S
C509 C510 1.400 . S
C509 C514 1.490 . S
C510 H500 0.930 . S
C510 C509 1.400 . S
C510 C513 1.386 . S
H511 C527 0.930 . S
H512 C528 0.931 . S
C513 H501 0.929 . S
C513 C507 1.390 . S
C513 C510 1.386 . S
C514 C509 1.490 . S
C514 C516 1.395 . S
C514 C517 1.403 . S
H515 C521 0.930 . S
C516 H502 0.930 . S
C516 C514 1.395 . S
C516 C519 1.403 . S
C517 C514 1.403 . S
C517 C518 1.524 . S
C517 C521 1.400 . S
C518 H503 0.960 . S
C518 H504 0.960 . S
C518 H505 0.960 . S
C518 C517 1.524 . S
C519 C516 1.403 . S
C519 C520 1.392 . S
C519 C523 1.495 . S
C520 C519 1.392 . S
C520 C521 1.385 . S
C520 C522 1.478 . S
C521 H515 0.930 . S
C521 C517 1.400 . S
C521 C520 1.385 . S
C522 C520 1.478 . S
C522 C524 1.381 . S
C522 C528 1.383 . S
C523 C519 1.495 . S
C523 H529 0.959 . S
C523 H530 0.961 . S
C523 H531 0.960 . S
C524 C522 1.381 . S
C524 C525 1.394 . S
C524 H532 0.930 . S
C525 C524 1.394 . S
C525 C526 1.383 . S
C525 H533 0.929 . S
C526 C525 1.383 . S
C526 C527 1.377 . S
C527 H511 0.930 . S
C527 C526 1.377 . S
C527 C528 1.379 . S
C528 H512 0.931 . S
C528 C522 1.383 . S
C528 C527 1.379 . S
H529 C523 0.959 . S
H530 C523 0.961 . S
H531 C523 0.960 . S
H532 C524 0.930 . S
H533 C525 0.929 . S
H534 C542 0.929 . S
H535 C544 0.930 . S
H536 C546 0.930 . S
H537 C549 0.929 . S
H538 C552 0.930 . S
H539 C554 0.960 . S
H540 C554 0.960 . S
H541 C554 0.960 . S
C542 H534 0.929 . S
C542 C543 1.377 . S
C542 C544 1.384 . S
C543 C542 1.377 . S
C543 C549 1.390 . S
C544 H535 0.930 . S
C544 C542 1.384 . S
C544 C545 1.372 . S
C545 C544 1.372 . S
C545 C546 1.400 . S
C545 C550 1.490 . S
C546 H536 0.930 . S
C546 C545 1.400 . S
C546 C549 1.386 . S
H547 C563 0.930 . S
H548 C564 0.931 . S
C549 H537 0.929 . S
C549 C543 1.390 . S
C549 C546 1.386 . S
C550 C545 1.490 . S
C550 C552 1.395 . S
C550 C553 1.403 . S
H551 C557 0.930 . S
C552 H538 0.930 . S
C552 C550 1.395 . S
C552 C555 1.403 . S
C553 C550 1.403 . S
C553 C554 1.524 . S
C553 C557 1.400 . S
C554 H539 0.960 . S
C554 H540 0.960 . S
C554 H541 0.960 . S
C554 C553 1.524 . S
C555 C552 1.403 . S
C555 C556 1.392 . S
C555 C559 1.495 . S
C556 C555 1.392 . S
C556 C557 1.385 . S
C556 C558 1.478 . S
C557 H551 0.930 . S
C557 C553 1.400 . S
C557 C556 1.385 . S
C558 C556 1.478 . S
C558 C560 1.381 . S
C558 C564 1.383 . S
C559 C555 1.495 . S
C559 H565 0.959 . S
C559 H566 0.961 . S
C559 H567 0.960 . S
C560 C558 1.381 . S
C560 C561 1.394 . S
C560 H568 0.930 . S
C561 C560 1.394 . S
C561 C562 1.383 . S
C561 H569 0.929 . S
C562 C561 1.383 . S
C562 C563 1.377 . S
C563 H547 0.930 . S
C563 C562 1.377 . S
C563 C564 1.379 . S
C564 H548 0.931 . S
C564 C558 1.383 . S
C564 C563 1.379 . S
H565 C559 0.959 . S
H566 C559 0.961 . S
H567 C559 0.960 . S
H568 C560 0.930 . S
H569 C561 0.929 . S
H570 C578 0.929 . S
H571 C580 0.930 . S
H572 C582 0.930 . S
H573 C585 0.929 . S
H574 C588 0.930 . S
H575 C590 0.960 . S
H576 C590 0.960 . S
H577 C590 0.960 . S
C578 H570 0.929 . S
C578 C579 1.377 . S
C578 C580 1.384 . S
C579 C578 1.377 . S
C579 C585 1.390 . S
C580 H571 0.930 . S
C580 C578 1.384 . S
C580 C581 1.372 . S
C581 C580 1.372 . S
C581 C582 1.400 . S
C581 C586 1.490 . S
C582 H572 0.930 . S
C582 C581 1.400 . S
C582 C585 1.386 . S
H583 C599 0.930 . S
H584 C600 0.931 . S
C585 H573 0.929 . S
C585 C579 1.390 . S
C585 C582 1.386 . S
C586 C581 1.490 . S
C586 C588 1.395 . S
C586 C589 1.403 . S
H587 C593 0.930 . S
C588 H574 0.930 . S
C588 C586 1.395 . S
C588 C591 1.403 . S
C589 C586 1.403 . S
C589 C590 1.524 . S
C589 C593 1.400 . S
C590 H575 0.960 . S
C590 H576 0.960 . S
C590 H577 0.960 . S
C590 C589 1.524 . S
C591 C588 1.403 . S
C591 C592 1.392 . S
C591 C595 1.495 . S
C592 C591 1.392 . S
C592 C593 1.385 . S
C592 C594 1.478 . S
C593 H587 0.930 . S
C593 C589 1.400 . S
C593 C592 1.385 . S
C594 C592 1.478 . S
C594 C596 1.381 . S
C594 C600 1.383 . S
C595 C591 1.495 . S
C595 H601 0.959 . S
C595 H602 0.961 . S
C595 H603 0.960 . S
C596 C594 1.381 . S
C596 C597 1.394 1_655 S
C596 H604 0.930 . S
C597 C596 1.394 1_455 S
C597 C598 1.383 . S
C597 H605 0.929 . S
C598 C597 1.383 . S
C598 C599 1.377 1_455 S
C599 H583 0.930 . S
C599 C598 1.377 1_655 S
C599 C600 1.379 . S
C600 H584 0.931 . S
C600 C594 1.383 . S
C600 C599 1.379 . S
H601 C595 0.959 . S
H602 C595 0.961 . S
H603 C595 0.960 . S
H604 C596 0.930 . S
H605 C597 0.929 . S
H606 C614 0.929 . S
H607 C616 0.930 . S
H608 C618 0.930 . S
H609 C621 0.929 . S
H610 C624 0.930 . S
H611 C626 0.960 . S
H612 C626 0.960 . S
H613 C626 0.960 . S
C614 H606 0.929 . S
C614 C615 1.377 . S
C614 C616 1.384 . S
C615 C614 1.377 . S
C615 C621 1.390 . S
C616 H607 0.930 . S
C616 C614 1.384 . S
C616 C617 1.372 . S
C617 C616 1.372 . S
C617 C618 1.400 . S
C617 C622 1.490 . S
C618 H608 0.930 . S
C618 C617 1.400 . S
C618 C621 1.386 . S
H619 C635 0.930 . S
H620 C636 0.931 . S
C621 H609 0.929 . S
C621 C615 1.390 . S
C621 C618 1.386 . S
C622 C617 1.490 . S
C622 C624 1.395 . S
C622 C625 1.403 . S
H623 C629 0.930 . S
C624 H610 0.930 . S
C624 C622 1.395 . S
C624 C627 1.403 . S
C625 C622 1.403 . S
C625 C626 1.524 . S
C625 C629 1.400 . S
C626 H611 0.960 . S
C626 H612 0.960 . S
C626 H613 0.960 . S
C626 C625 1.524 . S
C627 C624 1.403 . S
C627 C628 1.392 . S
C627 C631 1.495 . S
C628 C627 1.392 . S
C628 C629 1.385 . S
C628 C630 1.478 . S
C629 H623 0.930 . S
C629 C625 1.400 . S
C629 C628 1.385 . S
C630 C628 1.478 . S
C630 C632 1.381 . S
C630 C636 1.383 . S
C631 C627 1.495 . S
C631 H637 0.959 . S
C631 H638 0.961 . S
C631 H639 0.960 . S
C632 C630 1.381 . S
C632 C633 1.394 . S
C632 H640 0.930 . S
C633 C632 1.394 . S
C633 C634 1.383 . S
C633 H641 0.929 . S
C634 C633 1.383 . S
C634 C635 1.377 . S
C635 H619 0.930 . S
C635 C634 1.377 . S
C635 C636 1.379 . S
C636 H620 0.931 . S
C636 C630 1.383 . S
C636 C635 1.379 . S
H637 C631 0.959 . S
H638 C631 0.961 . S
H639 C631 0.960 . S
H640 C632 0.930 . S
H641 C633 0.929 . S
H642 C650 0.929 . S
H643 C652 0.930 . S
H644 C654 0.930 . S
H645 C657 0.929 . S
H646 C660 0.930 . S
H647 C662 0.960 . S
H648 C662 0.960 . S
H649 C662 0.960 . S
C650 H642 0.929 . S
C650 C651 1.377 . S
C650 C652 1.384 . S
C651 C650 1.377 . S
C651 C657 1.390 . S
C652 H643 0.930 . S
C652 C650 1.384 . S
C652 C653 1.372 . S
C653 C652 1.372 . S
C653 C654 1.400 . S
C653 C658 1.490 . S
C654 H644 0.930 . S
C654 C653 1.400 . S
C654 C657 1.386 . S
H655 C671 0.930 . S
H656 C672 0.931 . S
C657 H645 0.929 . S
C657 C651 1.390 . S
C657 C654 1.386 . S
C658 C653 1.490 . S
C658 C660 1.395 . S
C658 C661 1.403 . S
H659 C665 0.930 . S
C660 H646 0.930 . S
C660 C658 1.395 . S
C660 C663 1.403 . S
C661 C658 1.403 . S
C661 C662 1.524 . S
C661 C665 1.400 . S
C662 H647 0.960 . S
C662 H648 0.960 . S
C662 H649 0.960 . S
C662 C661 1.524 . S
C663 C660 1.403 . S
C663 C664 1.392 . S
C663 C667 1.495 . S
C664 C663 1.392 . S
C664 C665 1.385 . S
C664 C666 1.478 . S
C665 H659 0.930 . S
C665 C661 1.400 . S
C665 C664 1.385 . S
C666 C664 1.478 . S
C666 C668 1.381 . S
C666 C672 1.383 . S
C667 C663 1.495 . S
C667 H673 0.959 . S
C667 H674 0.961 . S
C667 H675 0.960 . S
C668 C666 1.381 . S
C668 C669 1.394 . S
C668 H676 0.930 . S
C669 C668 1.394 . S
C669 C670 1.383 . S
C669 H677 0.929 . S
C670 C669 1.383 . S
C670 C671 1.377 . S
C671 H655 0.930 . S
C671 C670 1.377 . S
C671 C672 1.379 . S
C672 H656 0.931 . S
C672 C666 1.383 . S
C672 C671 1.379 . S
H673 C667 0.959 . S
H674 C667 0.961 . S
H675 C667 0.960 . S
H676 C668 0.930 . S
H677 C669 0.929 . S
H678 C686 0.929 . S
H679 C688 0.930 . S
H680 C690 0.930 . S
H681 C693 0.929 . S
H682 C696 0.930 . S
H683 C698 0.960 . S
H684 C698 0.960 . S
H685 C698 0.960 . S
C686 H678 0.929 . S
C686 C687 1.377 . S
C686 C688 1.384 . S
C687 C686 1.377 . S
C687 C693 1.390 . S
C688 H679 0.930 . S
C688 C686 1.384 . S
C688 C689 1.372 . S
C689 C688 1.372 . S
C689 C690 1.400 . S
C689 C694 1.490 . S
C690 H680 0.930 . S
C690 C689 1.400 . S
C690 C693 1.386 . S
H691 C707 0.930 . S
H692 C708 0.931 . S
C693 H681 0.929 . S
C693 C687 1.390 . S
C693 C690 1.386 . S
C694 C689 1.490 . S
C694 C696 1.395 . S
C694 C697 1.403 . S
H695 C701 0.930 . S
C696 H682 0.930 . S
C696 C694 1.395 . S
C696 C699 1.403 . S
C697 C694 1.403 . S
C697 C698 1.524 . S
C697 C701 1.400 . S
C698 H683 0.960 . S
C698 H684 0.960 . S
C698 H685 0.960 . S
C698 C697 1.524 . S
C699 C696 1.403 . S
C699 C700 1.392 . S
C699 C703 1.495 . S
C700 C699 1.392 . S
C700 C701 1.385 . S
C700 C702 1.478 . S
C701 H695 0.930 . S
C701 C697 1.400 . S
C701 C700 1.385 . S
C702 C700 1.478 . S
C702 C704 1.381 . S
C702 C708 1.383 . S
C703 C699 1.495 . S
C703 H709 0.959 . S
C703 H710 0.961 . S
C703 H711 0.960 . S
C704 C702 1.381 . S
C704 C705 1.394 . S
C704 H712 0.930 . S
C705 C704 1.394 . S
C705 C706 1.383 . S
C705 H713 0.929 . S
C706 C705 1.383 . S
C706 C707 1.377 . S
C707 H691 0.930 . S
C707 C706 1.377 . S
C707 C708 1.379 . S
C708 H692 0.931 . S
C708 C702 1.383 . S
C708 C707 1.379 . S
H709 C703 0.959 . S
H710 C703 0.961 . S
H711 C703 0.960 . S
H712 C704 0.930 . S
H713 C705 0.929 . S
C310 C247 1.379 . S
C291 C1 1.516 . S
C346 C243 1.388 . S
C327 C91 1.455 . S
C382 C268 1.410 . S
C363 C121 1.515 . S
C399 C211 1.453 . S
C418 C264 1.397 . S
C435 C20 1.060 . S
C454 C265 1.044 . S
C490 C280 1.050 . S
C471 C80 1.106 . S
C507 C31 1.734 . S
C526 C281 1.591 . S
C562 C277 1.639 . S
C543 C61 1.685 . S
C598 C244 0.917 . S
C579 C140 1.069 . S
C615 C200 1.105 . S
C634 C259 1.032 . S
C670 C260 1.616 . S
C651 C151 1.731 . S
C706 C256 1.597 . S
C687 C181 1.687 . S
