# Generated by pormake.
# Topology zzz, (3,6)-cn, num edge types: 1
# Building blocks:
#     Node 0, Type 0, BuildingBlock: QEWDON_clean_linker_0, # of connection points: 3
#     Node 1, Type 0, BuildingBlock: QEWDON_clean_linker_0, # of connection points: 3
#     Node 2, Type 0, BuildingBlock: QEWDON_clean_linker_0, # of connection points: 3
#     Node 3, Type 0, BuildingBlock: QEWDON_clean_linker_0, # of connection points: 3
#     Node 4, Type 0, BuildingBlock: QEWDON_clean_linker_0, # of connection points: 3
#     Node 5, Type 0, BuildingBlock: QEWDON_clean_linker_0, # of connection points: 3
#     Node 6, Type 0, BuildingBlock: QEWDON_clean_linker_0, # of connection points: 3
#     Node 7, Type 0, BuildingBlock: QEWDON_clean_linker_0, # of connection points: 3
#     Node 8, Type 1, BuildingBlock: CUKXOW_clean_sbu_0, # of connection points: 6
#     Node 9, Type 1, BuildingBlock: CUKXOW_clean_sbu_0, # of connection points: 6
#     Node 10, Type 1, BuildingBlock: CUKXOW_clean_sbu_0, # of connection points: 6
#     Node 11, Type 1, BuildingBlock: CUKXOW_clean_sbu_0, # of connection points: 6
#     Edge 12, Type (0, 1), BuildingBlock: TEMPAE_clean_linker_10, # of connection points: 2
#     Edge 13, Type (0, 1), BuildingBlock: TEMPAE_clean_linker_10, # of connection points: 2
#     Edge 14, Type (0, 1), BuildingBlock: TEMPAE_clean_linker_10, # of connection points: 2
#     Edge 15, Type (0, 1), BuildingBlock: TEMPAE_clean_linker_10, # of connection points: 2
#     Edge 16, Type (0, 1), BuildingBlock: TEMPAE_clean_linker_10, # of connection points: 2
#     Edge 17, Type (0, 1), BuildingBlock: TEMPAE_clean_linker_10, # of connection points: 2
#     Edge 18, Type (0, 1), BuildingBlock: TEMPAE_clean_linker_10, # of connection points: 2
#     Edge 19, Type (0, 1), BuildingBlock: TEMPAE_clean_linker_10, # of connection points: 2
#     Edge 20, Type (0, 1), BuildingBlock: TEMPAE_clean_linker_10, # of connection points: 2
#     Edge 21, Type (0, 1), BuildingBlock: TEMPAE_clean_linker_10, # of connection points: 2
#     Edge 22, Type (0, 1), BuildingBlock: TEMPAE_clean_linker_10, # of connection points: 2
#     Edge 23, Type (0, 1), BuildingBlock: TEMPAE_clean_linker_10, # of connection points: 2
#     Edge 24, Type (0, 1), BuildingBlock: TEMPAE_clean_linker_10, # of connection points: 2
#     Edge 25, Type (0, 1), BuildingBlock: TEMPAE_clean_linker_10, # of connection points: 2
#     Edge 26, Type (0, 1), BuildingBlock: TEMPAE_clean_linker_10, # of connection points: 2
#     Edge 27, Type (0, 1), BuildingBlock: TEMPAE_clean_linker_10, # of connection points: 2
#     Edge 28, Type (0, 1), BuildingBlock: TEMPAE_clean_linker_10, # of connection points: 2
#     Edge 29, Type (0, 1), BuildingBlock: TEMPAE_clean_linker_10, # of connection points: 2
#     Edge 30, Type (0, 1), BuildingBlock: TEMPAE_clean_linker_10, # of connection points: 2
#     Edge 31, Type (0, 1), BuildingBlock: TEMPAE_clean_linker_10, # of connection points: 2
#     Edge 32, Type (0, 1), BuildingBlock: TEMPAE_clean_linker_10, # of connection points: 2
#     Edge 33, Type (0, 1), BuildingBlock: TEMPAE_clean_linker_10, # of connection points: 2
#     Edge 34, Type (0, 1), BuildingBlock: TEMPAE_clean_linker_10, # of connection points: 2
#     Edge 35, Type (0, 1), BuildingBlock: TEMPAE_clean_linker_10, # of connection points: 2
# Relax obj value: 0.026
# Max RMSD: 0.091
# Mean RMSD: 0.034
data_MOF--net-zzz--node1-CUKXOW_clean_sbu_0--node2-QEWDON_clean_linker_0--edge1-TEMPAE_clean_linker_10
_symmetry_space_group_name_H-M    P1
_symmetry_Int_Tables_number       1
_symmetry_cell_setting            triclinic
loop_
_symmetry_equiv_pos_as_xyz
'x, y, z'
_cell_length_a     54.705686
_cell_length_b     57.029541
_cell_length_c     15.593813
_cell_angle_alpha  93.474562
_cell_angle_beta   86.545477
_cell_angle_gamma 93.362073
loop_
_atom_site_label
_atom_site_type_symbol
_atom_site_fract_x
_atom_site_fract_y
_atom_site_fract_z
_atom_type_partial_charge
H0 H 0.77617 0.53505 0.98434 0.0
C1 C 0.78311 0.52784 0.04026 0.0
C2 C 0.80661 0.51916 0.03513 0.0
C3 C 0.76927 0.52855 0.11954 0.0
H4 H 0.83456 0.50496 0.10363 0.0
C5 C 0.8159 0.51066 0.10791 0.0
C6 C 0.80281 0.51187 0.18765 0.0
C7 C 0.77941 0.52091 0.19343 0.0
C8 C 0.74523 0.53933 0.1271 0.0
H9 H 0.76931 0.52233 0.25533 0.0
C10 C 0.72629 0.53109 0.07392 0.0
C11 C 0.70345 0.54155 0.08119 0.0
C12 C 0.74131 0.55815 0.18759 0.0
H13 H 0.7557 0.56484 0.22879 0.0
C14 C 0.71898 0.56886 0.19416 0.0
H15 H 0.72922 0.5162 0.0287 0.0
C16 C 0.70024 0.56076 0.14129 0.0
H17 H 0.68329 0.56977 0.14703 0.0
H18 H 0.71622 0.5836 0.24013 0.0
H19 H 0.95889 0.78203 0.89336 0.0
C20 C 0.96748 0.78962 0.95023 0.0
C21 C 0.97815 0.81265 0.95086 0.0
C22 C 0.96658 0.77708 0.0258 0.0
H23 H 0.99523 0.84095 0.02619 0.0
C24 C 0.98822 0.82273 0.02558 0.0
C25 C 0.98662 0.81095 0.1018 0.0
C26 C 0.976 0.78798 0.10143 0.0
C27 C 0.95347 0.7537 0.03041 0.0
H28 H 0.97437 0.77884 0.16065 0.0
C29 C 0.96127 0.73409 0.97881 0.0
C30 C 0.95029 0.71137 0.99145 0.0
C31 C 0.934 0.75071 0.09227 0.0
H32 H 0.92768 0.76558 0.13243 0.0
C33 C 0.92279 0.72852 0.10409 0.0
H34 H 0.97619 0.73654 0.93076 0.0
C35 C 0.93102 0.70898 0.05518 0.0
H36 H 0.92257 0.6919 0.06924 0.0
H37 H 0.90801 0.72636 0.15279 0.0
H38 H 0.72735 0.96124 0.93748 0.0
C39 C 0.71422 0.96086 0.99216 0.0
C40 C 0.6891 0.96038 0.97774 0.0
C41 C 0.72194 0.9607 0.07704 0.0
H42 H 0.65265 0.9569 0.03349 0.0
C43 C 0.67186 0.95873 0.04713 0.0
C44 C 0.6788 0.96248 0.132 0.0
C45 C 0.70405 0.96331 0.14624 0.0
C46 C 0.74818 0.95745 0.09526 0.0
H47 H 0.70996 0.96651 0.21101 0.0
C48 C 0.76832 0.96451 0.03911 0.0
C49 C 0.79266 0.96028 0.05779 0.0
C50 C 0.75308 0.94604 0.16966 0.0
H51 H 0.73841 0.93933 0.21269 0.0
C52 C 0.77698 0.94262 0.18961 0.0
H53 H 0.76521 0.97303 0.98094 0.0
C54 C 0.79659 0.94978 0.13478 0.0
H55 H 0.81495 0.947 0.15292 0.0
H56 H 0.78033 0.93413 0.24771 0.0
H57 H 0.56093 0.73009 0.97674 0.0
C58 C 0.55299 0.72557 0.03935 0.0
C59 C 0.53957 0.70403 0.0483 0.0
C60 C 0.55789 0.74029 0.11309 0.0
H61 H 0.52051 0.68086 0.13551 0.0
C62 C 0.5301 0.69796 0.12954 0.0
C63 C 0.53586 0.71165 0.20371 0.0
C64 C 0.5498 0.73293 0.19531 0.0
C65 C 0.57436 0.76168 0.10601 0.0
H66 H 0.555 0.74334 0.25249 0.0
C67 C 0.56696 0.78166 0.06779 0.0
C68 C 0.5827 0.80215 0.06392 0.0
C69 C 0.59759 0.76221 0.13981 0.0
H70 H 0.60356 0.74701 0.16966 0.0
C71 C 0.61333 0.78227 0.13508 0.0
H72 H 0.54898 0.78129 0.04192 0.0
C73 C 0.60599 0.80212 0.09756 0.0
H74 H 0.61838 0.81764 0.09645 0.0
H75 H 0.63123 0.78253 0.1613 0.0
H76 H 0.23488 0.52332 0.41721 0.0
C77 C 0.22752 0.51518 0.35889 0.0
C78 C 0.20337 0.50556 0.36134 0.0
C79 C 0.24145 0.51594 0.28004 0.0
H80 H 0.17413 0.49002 0.28761 0.0
C81 C 0.19331 0.49619 0.28555 0.0
C82 C 0.20637 0.49772 0.206 0.0
C83 C 0.23058 0.50748 0.20344 0.0
C84 C 0.26626 0.52799 0.27699 0.0
H85 H 0.24063 0.50904 0.14183 0.0
C86 C 0.28353 0.52339 0.33655 0.0
C87 C 0.30649 0.53591 0.33634 0.0
C88 C 0.27238 0.545 0.21656 0.0
H89 H 0.25936 0.54912 0.17079 0.0
C90 C 0.29514 0.55739 0.21616 0.0
H91 H 0.27908 0.51025 0.38327 0.0
C92 C 0.31206 0.55298 0.27581 0.0
H93 H 0.32969 0.5627 0.27393 0.0
H94 H 0.29963 0.57054 0.16967 0.0
H95 H 0.99994 0.22396 0.50798 0.0
C96 C 0.00892 0.21734 0.44824 0.0
C97 C 0.01942 0.19541 0.44445 0.0
C98 C 0.00805 0.22965 0.37305 0.0
H99 H 0.03635 0.16862 0.36265 0.0
C100 C 0.02968 0.18623 0.36601 0.0
C101 C 0.02794 0.19768 0.28987 0.0
C102 C 0.0173 0.21956 0.29384 0.0
C103 C 0.99404 0.2511 0.37472 0.0
H104 H 0.01525 0.22824 0.23492 0.0
C105 C 1.00036 0.27119 0.42758 0.0
C106 C 0.98634 0.2912 0.42953 0.0
C107 C 0.9737 0.2512 0.32392 0.0
H108 H 0.96845 0.23588 0.28323 0.0
C109 C 0.9597 0.2709 0.32629 0.0
H110 H 0.01609 0.27127 0.46667 0.0
C111 C 0.96591 0.29075 0.37875 0.0
H112 H 0.95498 0.30599 0.3784 0.0
H113 H 0.94401 0.27079 0.28713 0.0
H114 H 0.29149 0.01474 0.45601 0.0
C115 C 0.30157 0.02223 0.40125 0.0
C116 C 0.32586 0.03098 0.40948 0.0
C117 C 0.2911 0.02125 0.32062 0.0
H118 H 0.35881 0.04429 0.34404 0.0
C119 C 0.33955 0.03915 0.33776 0.0
C120 C 0.3301 0.03726 0.25616 0.0
C121 C 0.30564 0.02871 0.24811 0.0
C122 C 0.26643 0.00928 0.30997 0.0
H123 H 0.29827 0.02701 0.18493 0.0
C124 C 0.24642 0.01369 0.36935 0.0
C125 C 0.22371 1.00095 0.36093 0.0
C126 C 0.26321 0.99225 0.24188 0.0
H127 H 0.27827 0.98813 0.19621 0.0
C128 C 0.24073 0.97977 0.23329 0.0
H129 H 0.24856 0.02675 0.4222 0.0
C130 C 0.22115 0.98398 0.29246 0.0
H131 H 0.20384 0.97409 0.28432 0.0
H132 H 0.23853 0.96663 0.18085 0.0
H133 H 0.50834 0.29387 0.39669 0.0
C134 C 0.49974 0.30132 0.34455 0.0
C135 C 0.49148 0.32427 0.3557 0.0
C136 C 0.49831 0.28869 0.26412 0.0
H137 H 0.47665 0.35255 0.294 0.0
C138 C 0.48158 0.33434 0.28677 0.0
C139 C 0.48096 0.32255 0.20573 0.0
C140 C 0.489 0.29961 0.1949 0.0
C141 C 0.50903 0.26529 0.24878 0.0
H142 H 0.48868 0.29057 0.13175 0.0
C143 C 0.50441 0.24731 0.30721 0.0
C144 C 0.51477 0.22524 0.29047 0.0
C145 C 0.52425 0.26093 0.17423 0.0
H146 H 0.52856 0.27447 0.12902 0.0
C147 C 0.53436 0.23918 0.15734 0.0
H148 H 0.49285 0.25048 0.36515 0.0
C149 C 0.52962 0.22145 0.21459 0.0
H150 H 0.53745 0.2046 0.19893 0.0
H151 H 0.54592 0.23604 0.09947 0.0
Tb152 Tb 1.00012 0.98777 0.61955 0.0
C153 C 0.05471 0.00816 0.64393 0.0
Tb154 Tb 0.01123 0.01958 0.78462 0.0
O155 O 0.00439 0.01793 0.53805 0.0
O156 O 0.9939 0.0223 0.66879 0.0
O157 O 0.03937 0.9948 0.5966 0.0
C158 C 0.02262 0.05848 0.88126 0.0
O159 O 0.04792 0.01901 0.71887 0.0
C160 C 0.00918 0.97428 0.80462 0.0
C161 C 0.95682 0.99991 0.75799 0.0
O162 O 0.02749 0.05546 0.79911 0.0
O163 O 0.0116 0.03941 0.90955 0.0
O164 O 0.00768 0.98981 0.86916 0.0
O165 O 0.01581 0.98484 0.73776 0.0
O166 O 0.97107 0.01733 0.79263 0.0
O167 O 0.96492 0.98501 0.69488 0.0
C168 C 0.99675 0.94856 0.51861 0.0
O169 O 0.98254 0.96608 0.51655 0.0
O170 O 0.01258 0.95331 0.57644 0.0
C171 C 1.00058 0.03312 0.60274 0.0
Tb172 Tb 0.51185 0.03792 0.68089 0.0
C173 C 0.54456 1.00062 0.58365 0.0
Tb174 Tb 0.51496 0.98975 0.76127 0.0
O175 O 0.55062 0.04666 0.70061 0.0
O176 O 0.53041 0.02429 0.78112 0.0
O177 O 0.53225 0.0197 0.57568 0.0
C178 C 0.5298 0.95135 0.82847 0.0
O179 O 0.54201 0.98778 0.65224 0.0
C180 C 0.47548 0.99413 0.67892 0.0
C181 C 0.47876 0.02557 0.84978 0.0
O182 O 0.51818 0.9517 0.75849 0.0
O183 O 0.53291 0.97273 0.86151 0.0
O184 O 0.47669 0.97987 0.74024 0.0
O185 O 0.49665 0.0031 0.66019 0.0
O186 O 0.49246 0.00767 0.86271 0.0
O187 O 0.48209 0.03821 0.78072 0.0
C188 C 0.5003 0.07771 0.61427 0.0
O189 O 0.50877 0.0761 0.68959 0.0
O190 O 0.49807 0.05677 0.57653 0.0
C191 C 0.55183 0.03243 0.76177 0.0
Tb192 Tb 0.51851 0.53021 0.60976 0.0
C193 C 0.46072 0.51642 0.63224 0.0
Tb194 Tb 0.49803 0.49859 0.75811 0.0
O195 O 0.53297 0.50047 0.52986 0.0
O196 O 0.50446 0.49562 0.6236 0.0
O197 O 0.47924 0.52775 0.59016 0.0
C198 C 0.48664 0.46059 0.84763 0.0
O199 O 0.46356 0.50365 0.69926 0.0
C200 C 0.4999 0.54431 0.79318 0.0
C201 C 0.55557 0.51138 0.73168 0.0
O202 O 0.48186 0.4628 0.76822 0.0
O203 O 0.49758 0.47999 0.87742 0.0
O204 O 0.48468 0.52982 0.8342 0.0
O205 O 0.51402 0.5324 0.7444 0.0
O206 O 0.53814 0.49555 0.75762 0.0
O207 O 0.55103 0.52871 0.68239 0.0
C208 C 0.523 0.57133 0.53658 0.0
O209 O 0.53569 0.55319 0.51204 0.0
O210 O 0.50774 0.56599 0.60001 0.0
C211 C 0.52002 0.48511 0.57507 0.0
Tb212 Tb 0.98731 0.50848 0.62287 0.0
C213 C 0.00713 0.45859 0.65168 0.0
Tb214 Tb 0.02127 0.50374 0.77545 0.0
O215 O 0.0184 0.5054 0.52798 0.0
O216 O 0.02354 0.5184 0.65416 0.0
O217 O 0.99316 0.47114 0.60741 0.0
C218 C 0.06229 0.49749 0.85389 0.0
O219 O 0.01931 0.46749 0.71871 0.0
C220 C 0.97429 0.50187 0.8174 0.0
C221 C 1.00116 0.55324 0.74629 0.0
O222 O 0.0584 0.49136 0.77428 0.0
O223 O 0.04291 0.50695 0.89003 0.0
O224 O 0.99081 0.50563 0.87415 0.0
O225 O 0.98482 0.49551 0.74651 0.0
O226 O 0.01909 0.54198 0.77745 0.0
O227 O 0.98555 0.5431 0.69116 0.0
C228 C 0.94621 0.50804 0.53937 0.0
O229 O 0.95045 0.49411 0.59864 0.0
O230 O 0.96534 0.52235 0.52582 0.0
C231 C 0.03448 0.51177 0.58455 0.0
C232 C 0.19223 0.02719 0.43164 0.0
C233 C 0.20227 0.00507 0.42188 0.0
C234 C 0.16937 0.0301 0.47649 0.0
C235 C 0.15649 0.01049 0.51321 0.0
C236 C 0.16747 0.98852 0.50845 0.0
C237 C 0.19009 0.98605 0.46225 0.0
C238 C 0.15828 0.05376 0.4794 0.0
C239 C 0.15465 0.96722 0.54766 0.0
C240 C 0.09969 0.01718 0.66596 0.0
C241 C 0.08078 0.01048 0.61099 0.0
C242 C 0.12446 0.01784 0.63501 0.0
C243 C 0.13042 0.01197 0.54687 0.0
C244 C 0.11132 0.00605 0.49072 0.0
C245 C 0.08685 0.00525 0.52346 0.0
C246 C 0.14428 0.02403 0.69707 0.0
C247 C 0.11674 0.99997 0.39607 0.0
H248 H 0.20155 0.04187 0.3999 0.0
H249 H 0.19793 0.96896 0.45508 0.0
H250 H 0.14273 0.05281 0.43658 0.0
H251 H 0.15088 0.05869 0.5454 0.0
H252 H 0.17179 0.06785 0.45815 0.0
H253 H 0.16686 0.95232 0.54764 0.0
H254 H 0.14787 0.97167 0.61481 0.0
H255 H 0.13849 0.96134 0.5106 0.0
H256 H 0.09519 0.02124 0.73367 0.0
H257 H 0.0724 1.00037 0.48009 0.0
H258 H 0.15711 0.03816 0.67225 0.0
H259 H 0.15512 0.00845 0.70338 0.0
H260 H 0.13666 0.02991 0.76195 0.0
H261 H 0.12856 0.0142 0.3669 0.0
H262 H 0.09979 0.99725 0.36006 0.0
H263 H 0.12691 0.98365 0.38788 0.0
C264 C 0.48659 0.19967 0.38437 0.0
C265 C 0.51028 0.2058 0.35026 0.0
C266 C 0.48204 0.17962 0.43277 0.0
C267 C 0.50163 0.16539 0.44713 0.0
C268 C 0.52568 0.17203 0.41547 0.0
C269 C 0.5297 0.19215 0.36799 0.0
C270 C 0.4562 0.17327 0.46622 0.0
C271 C 0.54716 0.1575 0.42958 0.0
C272 C 0.50025 0.12158 0.62186 0.0
C273 C 0.49702 0.1001 0.57414 0.0
C274 C 0.50027 0.1431 0.58238 0.0
C275 C 0.49724 0.14311 0.49282 0.0
C276 C 0.49272 0.12146 0.44528 0.0
C277 C 0.49258 0.1002 0.48663 0.0
C278 C 0.50481 0.16574 0.63572 0.0
C279 C 0.48943 0.12064 0.34971 0.0
H280 H 0.47147 0.21004 0.37059 0.0
H281 H 0.54813 0.19701 0.34328 0.0
H282 H 0.44945 0.15659 0.43308 0.0
H283 H 0.4558 0.17032 0.53598 0.0
H284 H 0.44341 0.18714 0.45597 0.0
H285 H 0.56479 0.16536 0.40234 0.0
H286 H 0.54877 0.15565 0.49938 0.0
H287 H 0.54414 0.13955 0.39917 0.0
H288 H 0.50353 0.12158 0.68974 0.0
H289 H 0.49 0.08362 0.4496 0.0
H290 H 0.49133 0.1787 0.6227 0.0
H291 H 0.52333 0.17357 0.61792 0.0
H292 H 0.50368 0.16296 0.70578 0.0
H293 H 0.47549 0.13296 0.33507 0.0
H294 H 0.48374 0.10271 0.32375 0.0
H295 H 0.50696 0.12636 0.31562 0.0
C296 C 0.33646 0.54965 0.44573 0.0
C297 C 0.32507 0.53105 0.39742 0.0
C298 C 0.3564 0.54595 0.49485 0.0
C299 C 0.36546 0.52318 0.49429 0.0
C300 C 0.35316 0.50409 0.44928 0.0
C301 C 0.33295 0.50824 0.40178 0.0
C302 C 0.3687 0.56673 0.54303 0.0
C303 C 0.36237 0.4796 0.44619 0.0
C304 C 0.43419 0.52281 0.51236 0.0
C305 C 0.43609 0.51718 0.59798 0.0
C306 C 0.41133 0.52416 0.47771 0.0
C307 C 0.38965 0.52014 0.53017 0.0
C308 C 0.39133 0.5142 0.61649 0.0
C309 C 0.41458 0.51259 0.64928 0.0
C310 C 0.41043 0.53021 0.38494 0.0
C311 C 0.36861 0.51008 0.6746 0.0
H312 H 0.33017 0.56726 0.44308 0.0
H313 H 0.32419 0.49387 0.36411 0.0
H314 H 0.37219 0.56225 0.60929 0.0
H315 H 0.38671 0.57137 0.50996 0.0
H316 H 0.35751 0.58243 0.54681 0.0
H317 H 0.34904 0.46625 0.4183 0.0
H318 H 0.37983 0.47912 0.40617 0.0
H319 H 0.36625 0.47468 0.51153 0.0
H320 H 0.45068 0.52607 0.47174 0.0
H321 H 0.41592 0.50826 0.71551 0.0
H322 H 0.40174 0.54721 0.3818 0.0
H323 H 0.39907 0.5166 0.34929 0.0
H324 H 0.42895 0.53166 0.35167 0.0
H325 H 0.35855 0.52647 0.68355 0.0
H326 H 0.37297 0.50456 0.7388 0.0
H327 H 0.35609 0.49637 0.64461 0.0
C328 C 0.97522 0.32449 0.53326 0.0
C329 C 0.99317 0.31307 0.4811 0.0
C330 C 0.98004 0.34715 0.57072 0.0
C331 C 0.00331 0.3588 0.55479 0.0
C332 C 0.02201 0.34673 0.50677 0.0
C333 C 0.01674 0.32391 0.47073 0.0
C334 C 0.95966 0.3592 0.62244 0.0
C335 C 0.04702 0.35852 0.4881 0.0
C336 C 1.00061 0.42481 0.5446 0.0
C337 C 0.00826 0.43318 0.62569 0.0
C338 C 0.99983 0.40076 0.51994 0.0
C339 C 0.00671 0.38449 0.57791 0.0
C340 C 0.01522 0.3928 0.65888 0.0
C341 C 0.016 0.41711 0.68174 0.0
C342 C 0.99091 0.39272 0.43254 0.0
C343 C 0.02265 0.37599 0.72244 0.0
H344 H 0.95706 0.316 0.54209 0.0
H345 H 0.03061 0.31515 0.43008 0.0
H346 H 0.96643 0.36754 0.68328 0.0
H347 H 0.95314 0.37335 0.58521 0.0
H348 H 0.94382 0.3468 0.63813 0.0
H349 H 0.06051 0.34578 0.46145 0.0
H350 H 0.04562 0.37203 0.44058 0.0
H351 H 0.05407 0.36765 0.54723 0.0
H352 H 0.99493 0.43708 0.50024 0.0
H353 H 0.02196 0.42341 0.74448 0.0
H354 H 0.9735 0.38187 0.44039 0.0
H355 H 0.00448 0.38155 0.39676 0.0
H356 H 0.98768 0.4077 0.39308 0.0
H357 H 0.0063 0.36519 0.74537 0.0
H358 H 0.031 0.38531 0.77907 0.0
H359 H 0.03592 0.36373 0.69109 0.0
C360 C 0.81657 0.9877 0.95736 0.0
C361 C 0.81434 0.96639 -0.00148 0.0
C362 C 0.83832 0.99441 0.90959 0.0
C363 C 0.85841 0.97965 0.90401 0.0
C364 C 0.85585 0.95773 0.94246 0.0
C365 C 0.83382 0.95127 0.98787 0.0
C366 C 0.84008 0.01763 0.86751 0.0
C367 C 0.87677 0.94145 0.93883 0.0
C368 C 0.91321 0.98467 0.74212 0.0
C369 C 0.93095 0.99678 0.79195 0.0
C370 C 0.88906 0.9802 0.776 0.0
C371 C 0.88267 0.98742 0.8626 0.0
C372 C 0.90037 1.00015 0.91245 0.0
C373 C 0.92417 0.0049 0.87624 0.0
C374 C 0.87062 0.96713 0.71991 0.0
C375 C 0.89456 0.00773 0.00556 0.0
H376 H 0.80171 0.99954 0.96497 0.0
H377 H 0.83208 0.93443 0.01703 0.0
H378 H 0.85314 0.03004 0.90133 0.0
H379 H 0.84727 0.01526 0.79964 0.0
H380 H 0.82206 0.02571 0.8689 0.0
H381 H 0.87168 0.92484 0.97089 0.0
H382 H 0.88289 0.93698 0.87103 0.0
H383 H 0.89266 0.95041 0.97063 0.0
H384 H 0.91822 0.97852 0.67664 0.0
H385 H 0.9378 0.01414 0.91537 0.0
H386 H 0.85316 0.97621 0.72433 0.0
H387 H 0.86648 0.94919 0.74266 0.0
H388 H 0.87744 0.9655 0.65137 0.0
H389 H 0.87789 0.01801 0.01174 0.0
H390 H 0.90988 0.01856 0.03416 0.0
H391 H 0.89067 0.99195 0.04352 0.0
C392 C 0.59104 0.83684 0.9727 0.0
C393 C 0.57485 0.82386 0.0275 0.0
C394 C 0.58439 0.85798 0.94113 0.0
C395 C 0.561 0.86645 0.96521 0.0
C396 C 0.54456 0.85343 0.02045 0.0
C397 C 0.55164 0.83224 0.0506 0.0
C398 C 0.60233 0.87117 0.8815 0.0
C399 C 0.51953 0.86196 0.04807 0.0
C400 C 0.55061 0.93115 0.93981 0.0
C401 C 0.53815 0.9299 0.86363 0.0
C402 C 0.55825 0.91065 0.97373 0.0
C403 C 0.55338 0.88848 0.93005 0.0
C404 C 0.54108 0.88726 0.85243 0.0
C405 C 0.53358 0.90798 0.82032 0.0
C406 C 0.57137 0.91271 0.05654 0.0
C407 C 0.5358 0.86406 0.80327 0.0
H408 H 0.60894 0.83034 0.954 0.0
H409 H 0.53919 0.82249 0.09389 0.0
H410 H 0.59423 0.87258 0.8186 0.0
H411 H 0.60619 0.88936 0.90865 0.0
H412 H 0.61997 0.86245 0.87022 0.0
H413 H 0.50911 0.85008 0.09278 0.0
H414 H 0.5214 0.87981 0.08029 0.0
H415 H 0.5087 0.86333 0.99083 0.0
H416 H 0.55428 0.94812 0.9731 0.0
H417 H 0.52406 0.90699 0.76111 0.0
H418 H 0.58959 0.90512 0.04622 0.0
H419 H 0.56075 0.90249 0.10595 0.0
H420 H 0.574 0.93126 0.082 0.0
H421 H 0.55315 0.85526 0.78647 0.0
H422 H 0.52648 0.86619 0.74309 0.0
H423 H 0.52401 0.85219 0.84409 0.0
C424 C 0.6875 0.52498 0.94016 0.0
C425 C 0.68296 0.53277 0.02657 0.0
C426 C 0.66809 0.51831 0.88704 0.0
C427 C 0.64357 0.51996 0.92048 0.0
C428 C 0.63887 0.52703 0.00821 0.0
C429 C 0.65857 0.533 0.06028 0.0
C430 C 0.67383 0.51036 0.7943 0.0
C431 C 0.61301 0.52931 0.04633 0.0
C432 C 0.59396 0.53353 0.77445 0.0
C433 C 0.57972 0.51225 0.7703 0.0
C434 C 0.6152 0.53599 0.82082 0.0
C435 C 0.62279 0.51654 0.86265 0.0
C436 C 0.60929 0.49461 0.85475 0.0
C437 C 0.5877 0.49279 0.80954 0.0
C438 C 0.62873 0.55983 0.82896 0.0
C439 C 0.61717 0.47331 0.89658 0.0
H440 H 0.70619 0.5248 0.913 0.0
H441 H 0.65478 0.53827 0.12747 0.0
H442 H 0.66265 0.49411 0.77674 0.0
H443 H 0.66907 0.52411 0.75176 0.0
H444 H 0.69354 0.50696 0.78136 0.0
H445 H 0.61246 0.53416 0.11647 0.0
H446 H 0.60404 0.543 0.01371 0.0
H447 H 0.60202 0.51254 0.03572 0.0
H448 H 0.58787 0.54874 0.745 0.0
H449 H 0.57685 0.47626 0.80617 0.0
H450 H 0.64841 0.55836 0.80917 0.0
H451 H 0.62763 0.56663 0.89722 0.0
H452 H 0.62108 0.57288 0.78933 0.0
H453 H 0.63701 0.471 0.8818 0.0
H454 H 0.60667 0.45696 0.87511 0.0
H455 H 0.61434 0.47586 0.96749 0.0
C456 C 0.98448 0.68798 0.91933 0.0
C457 C 0.95941 0.68989 0.94255 0.0
C458 C 0.99336 0.66697 0.88062 0.0
C459 C 0.97695 0.64712 0.86732 0.0
C460 C 0.95161 0.64906 0.88859 0.0
C461 C 0.94313 0.67049 0.92394 0.0
C462 C 0.0204 0.66585 0.85598 0.0
C463 C 0.93349 0.62823 0.87683 0.0
C464 C 0.99091 0.59397 0.71739 0.0
C465 C 0.99792 0.57804 0.77509 0.0
C466 C 0.98551 0.61705 0.74563 0.0
C467 C 0.98616 0.624 0.83425 0.0
C468 C 0.99371 0.60805 0.89245 0.0
C469 C 0.99992 0.58536 0.86181 0.0
C470 C 0.97843 0.63375 0.68102 0.0
C471 C 0.99393 0.61448 0.98777 0.0
H472 H 0.99739 0.70262 0.9337 0.0
H473 H 0.92364 0.67184 0.9386 0.0
H474 H 0.02883 0.65413 0.89866 0.0
H475 H 0.02317 0.65829 0.78905 0.0
H476 H 0.03021 0.68345 0.86108 0.0
H477 H 0.91444 0.63254 0.89803 0.0
H478 H 0.93376 0.62182 0.80825 0.0
H479 H 0.93875 0.61354 0.91421 0.0
H480 H 0.98952 0.58831 0.65013 0.0
H481 H 0.00507 0.57293 0.90654 0.0
H482 H 0.98876 0.65098 0.68995 0.0
H483 H 0.95864 0.63697 0.69107 0.0
H484 H 0.98196 0.62672 0.61368 0.0
H485 H 0.00526 0.63098 -0.00028 0.0
H486 H 1.00116 0.60044 0.02393 0.0
H487 H 0.975 0.61768 0.01372 0.0
C488 C 0.03386 0.16883 0.54908 0.0
C489 C 0.01436 0.1788 0.51305 0.0
C490 C 0.03056 0.14677 0.5848 0.0
C491 C 0.00749 0.13421 0.58103 0.0
C492 C 0.98717 0.14544 0.55342 0.0
C493 C 0.99083 0.16782 0.5207 0.0
C494 C 0.05245 0.13584 0.61724 0.0
C495 C 0.96231 0.13269 0.54728 0.0
C496 C 0.01014 0.06894 0.5208 0.0
C497 C 1.00208 0.05894 0.59794 0.0
C498 C 0.01179 0.09341 0.51471 0.0
C499 C 0.00584 0.10828 0.58839 0.0
C500 C 0.99791 0.09827 0.66681 0.0
C501 C 0.99551 0.07366 0.66998 0.0
C502 C 0.01977 0.10334 0.42906 0.0
C503 C 0.99204 0.1135 0.74717 0.0
H504 H 0.0521 0.17728 0.54245 0.0
H505 H 0.97584 0.17542 0.49154 0.0
H506 H 0.04702 0.12519 0.67324 0.0
H507 H 0.06053 0.12396 0.56551 0.0
H508 H 0.06681 0.14945 0.63612 0.0
H509 H 0.94769 0.14501 0.53975 0.0
H510 H 0.9628 0.11998 0.49047 0.0
H511 H 0.95741 0.12257 0.60491 0.0
H512 H 0.01503 0.05759 0.46484 0.0
H513 H 0.98858 0.06595 0.72906 0.0
H514 H 0.03709 0.1143 0.43494 0.0
H515 H 0.00571 0.11486 0.40918 0.0
H516 H 0.02276 0.08935 0.37736 0.0
H517 H 0.00763 0.12632 0.75998 0.0
H518 H 0.98805 0.10298 0.80454 0.0
H519 H 0.9759 0.12378 0.73811 0.0
C520 C 0.34699 0.00329 0.48978 0.0
C521 C 0.33985 0.02626 0.48373 0.0
C522 C 0.36805 0.99902 0.53194 0.0
C523 C 0.38177 0.01819 0.5709 0.0
C524 C 0.37297 0.04109 0.57337 0.0
C525 C 0.35226 0.04494 0.52833 0.0
C526 C 0.37693 0.97437 0.527 0.0
C527 C 0.3865 0.06185 0.6172 0.0
C528 C 0.43129 1.00017 0.70869 0.0
C529 C 0.45218 1.00219 0.65252 0.0
C530 C 0.4085 0.0067 0.68491 0.0
C531 C 0.40636 0.01443 0.60152 0.0
C532 C 0.42756 0.01699 0.54498 0.0
C533 C 0.4504 0.01119 0.5719 0.0
C534 C 0.38666 0.00472 0.74836 0.0
C535 C 0.42595 0.02492 0.45496 0.0
H536 H 0.33766 0.98896 0.45353 0.0
H537 H 0.34691 0.06275 0.52228 0.0
H538 H 0.39417 0.97377 0.48578 0.0
H539 H 0.38108 0.96918 0.59169 0.0
H540 H 0.36327 0.96122 0.49974 0.0
H541 H 0.40205 0.0681 0.57394 0.0
H542 H 0.37438 0.07668 0.63246 0.0
H543 H 0.39411 0.05689 0.67747 0.0
H544 H 0.43276 0.99351 0.77176 0.0
H545 H 0.46664 0.01277 0.52876 0.0
H546 H 0.37452 0.98927 0.72923 0.0
H547 H 0.37576 0.02055 0.74916 0.0
H548 H 0.39236 0.00255 0.81434 0.0
H549 H 0.4136 0.0124 0.4184 0.0
H550 H 0.44414 0.02614 0.41934 0.0
H551 H 0.41795 0.04239 0.45732 0.0
C552 C 0.52169 0.3477 0.44244 0.0
C553 C 0.49718 0.34027 0.43097 0.0
C554 C 0.52765 0.36969 0.48383 0.0
C555 C 0.50859 0.38439 0.51399 0.0
C556 C 0.48389 0.37546 0.51311 0.0
C557 C 0.47848 0.35343 0.47155 0.0
C558 C 0.55424 0.37824 0.4856 0.0
C559 C 0.46299 0.39032 0.54601 0.0
C560 C 0.52011 0.44468 0.6274 0.0
C561 C 0.51962 0.4594 0.55888 0.0
C562 C 0.51736 0.4201 0.61395 0.0
C563 C 0.51393 0.41016 0.52987 0.0
C564 C 0.51433 0.42505 0.45996 0.0
C565 C 0.51742 0.44952 0.47535 0.0
C566 C 0.51774 0.40483 0.68961 0.0
C567 C 0.51059 0.41521 0.36919 0.0
H568 H 0.53618 0.33761 0.41065 0.0
H569 H 0.45951 0.34766 0.46248 0.0
H570 H 0.55887 0.38971 0.43126 0.0
H571 H 0.55784 0.38879 0.54609 0.0
H572 H 0.56658 0.36336 0.47895 0.0
H573 H 0.44544 0.37963 0.55372 0.0
H574 H 0.46693 0.39955 0.60873 0.0
H575 H 0.46063 0.40393 0.49965 0.0
H576 H 0.52274 0.45241 0.69151 0.0
H577 H 0.51713 0.461 0.42251 0.0
H578 H 0.5212 0.4153 0.75052 0.0
H579 H 0.53216 0.39196 0.67748 0.0
H580 H 0.49998 0.39457 0.69798 0.0
H581 H 0.52451 0.40227 0.34938 0.0
H582 H 0.51185 0.42913 0.32201 0.0
H583 H 0.49228 0.40581 0.36631 0.0
C584 C 0.17526 0.49101 0.47969 0.0
C585 C 0.18611 0.50997 0.43576 0.0
C586 C 0.15226 0.49281 0.52383 0.0
C587 C 0.13965 0.51371 0.52036 0.0
C588 C 0.1518 0.53366 0.4839 0.0
C589 C 0.17513 0.53161 0.44291 0.0
C590 C 0.14037 0.47148 0.56543 0.0
C591 C 0.13898 0.55617 0.47745 0.0
C592 C 0.07156 0.50441 0.48859 0.0
C593 C 0.06134 0.51263 0.56832 0.0
C594 C 0.09705 0.50492 0.47223 0.0
C595 C 0.11267 0.51318 0.53832 0.0
C596 C 0.10242 0.52133 0.61929 0.0
C597 C 0.07682 0.52161 0.63241 0.0
C598 C 0.10726 0.4967 0.38394 0.0
C599 C 0.11842 0.52964 0.69194 0.0
H600 H 0.18372 0.47422 0.47322 0.0
H601 H 0.18346 0.54611 0.4075 0.0
H602 H 0.12899 0.47664 0.6241 0.0
H603 H 0.12818 0.46169 0.51966 0.0
H604 H 0.15428 0.45944 0.58287 0.0
H605 H 0.15214 0.57109 0.46161 0.0
H606 H 0.1258 0.55362 0.42584 0.0
H607 H 0.12842 0.56095 0.53824 0.0
H608 H 0.0596 0.49771 0.43867 0.0
H609 H 0.06893 0.52869 0.69323 0.0
H610 H 0.11823 0.48114 0.3889 0.0
H611 H 0.11968 0.51074 0.35616 0.0
H612 H 0.09261 0.49189 0.33867 0.0
H613 H 0.12921 0.54597 0.67533 0.0
H614 H 0.13172 0.51623 0.70203 0.0
H615 H 0.10753 0.53322 0.7533 0.0
C616 C 0.99634 0.83534 0.8307 0.0
C617 C 0.97553 0.82893 0.88256 0.0
C618 C 0.9997 0.85814 0.801 0.0
C619 C 0.98214 0.87491 0.82618 0.0
C620 C 0.95975 0.86757 0.86941 0.0
C621 C 0.95656 0.84446 0.89579 0.0
C622 C 0.02333 0.86499 0.75159 0.0
C623 C 0.94055 0.88479 0.89839 0.0
C624 C 0.00797 0.93704 0.88101 0.0
C625 C 1.00226 0.94889 0.80947 0.0
C626 C 1.00142 0.91297 0.88726 0.0
C627 C 0.98886 0.90048 0.8201 0.0
C628 C 0.98251 0.91252 0.74882 0.0
C629 C 0.98899 0.93665 0.74518 0.0
C630 C 0.00787 0.90093 0.96591 0.0
C631 C 0.9688 0.89995 0.67672 0.0
H632 H 0.01116 0.82346 0.8215 0.0
H633 H 0.94066 0.83961 0.93732 0.0
H634 H 0.0201 0.87719 0.70118 0.0
H635 H 0.0362 0.87422 0.79637 0.0
H636 H 0.03222 0.84933 0.72085 0.0
H637 H 0.92249 0.87564 0.91417 0.0
H638 H 0.94645 0.89505 0.95706 0.0
H639 H 0.93825 0.89745 0.84867 0.0
H640 H 0.01774 0.94659 0.93189 0.0
H641 H 0.9829 0.94601 0.69334 0.0
H642 H 0.02022 0.88653 0.94665 0.0
H643 H 0.99103 0.89286 -0.00207 0.0
H644 H 0.01707 0.91325 0.01334 0.0
H645 H 0.97995 0.88583 0.64547 0.0
H646 H 0.96444 0.91203 0.62723 0.0
H647 H 0.95142 0.89135 0.70242 0.0
C648 C 0.66207 0.95338 0.85562 0.0
C649 C 0.67962 0.968 0.89793 0.0
C650 C 0.64296 0.96304 0.81549 0.0
C651 C 0.64113 0.98777 0.82048 0.0
C652 C 0.66052 0.0025 0.85367 0.0
C653 C 0.67991 0.99234 0.88997 0.0
C654 C 0.62339 0.94672 0.77638 0.0
C655 C 0.65922 0.02893 0.86169 0.0
C656 C 0.59354 0.02 0.71328 0.0
C657 C 0.57454 0.02103 0.77769 0.0
C658 C 0.61474 0.00808 0.7242 0.0
C659 C 0.61765 0.99816 0.80356 0.0
C660 C 0.59864 0.99951 0.86959 0.0
C661 C 0.5771 0.0106 0.85517 0.0
C662 C 0.63374 0.00568 0.65034 0.0
C663 C 0.60128 0.9898 0.95631 0.0
H664 H 0.66169 0.93455 0.86244 0.0
H665 H 0.69328 0.00364 0.92374 0.0
H666 H 0.60759 0.94446 0.82375 0.0
H667 H 0.61661 0.95405 0.71848 0.0
H668 H 0.63033 0.92906 0.75829 0.0
H669 H 0.67682 0.0379 0.88061 0.0
H670 H 0.65433 0.03576 0.80031 0.0
H671 H 0.64466 0.03368 0.91133 0.0
H672 H 0.59162 0.02815 0.65341 0.0
H673 H 0.56249 0.01163 0.9052 0.0
H674 H 0.65206 0.01245 0.67038 0.0
H675 H 0.62912 0.01515 0.5938 0.0
H676 H 0.63517 0.98678 0.63048 0.0
H677 H 0.60413 0.97068 0.94885 0.0
H678 H 0.58489 0.99251 0.0006 0.0
H679 H 0.61761 0.99846 0.98635 0.0
C680 C 0.55221 0.66512 0.99333 0.0
C681 C 0.53918 0.6849 0.98019 0.0
C682 C 0.54565 0.64307 0.95462 0.0
C683 C 0.52638 0.64098 0.89753 0.0
C684 C 0.51486 0.66143 0.87701 0.0
C685 C 0.52106 0.68318 0.9202 0.0
C686 C 0.55772 0.62172 0.98177 0.0
C687 C 0.49474 0.66031 0.81467 0.0
C688 C 0.52449 0.58193 0.77306 0.0
C689 C 0.50494 0.56962 0.81616 0.0
C690 C 0.53036 0.60572 0.79435 0.0
C691 C 0.51752 0.61712 0.86471 0.0
C692 C 0.49783 0.60478 0.90918 0.0
C693 C 0.49147 0.58125 0.88324 0.0
C694 C 0.55072 0.61845 0.74278 0.0
C695 C 0.48416 0.61614 0.98625 0.0
H696 H 0.5659 0.66648 0.04124 0.0
H697 H 0.51066 0.69837 0.9113 0.0
H698 H 0.54379 0.60997 0.01497 0.0
H699 H 0.5655 0.61152 0.9249 0.0
H700 H 0.57264 0.62649 0.02599 0.0
H701 H 0.49533 0.67668 0.77928 0.0
H702 H 0.49598 0.64502 0.76747 0.0
H703 H 0.4767 0.65883 0.85102 0.0
H704 H 0.53558 0.57292 0.72304 0.0
H705 H 0.47655 0.57173 0.91737 0.0
H706 H 0.56713 0.62144 0.78122 0.0
H707 H 0.54497 0.63593 0.7268 0.0
H708 H 0.55609 0.60833 0.6821 0.0
H709 H 0.4972 0.62215 0.03597 0.0
H710 H 0.46983 0.60396 0.01535 0.0
H711 H 0.4753 0.63186 0.96714 0.0
C712 C 0.8302 0.50242 0.90838 0.0
C713 C 0.82417 0.52223 0.96098 0.0
C714 C 0.85376 0.50097 0.86816 0.0
C715 C 0.87164 0.5195 0.88348 0.0
C716 C 0.86466 0.54064 0.92808 0.0
C717 C 0.84079 0.54184 0.96546 0.0
C718 C 0.86024 0.47852 0.81802 0.0
C719 C 0.88309 0.56081 0.94653 0.0
C720 C 0.93597 0.50064 0.91167 0.0
C721 C 0.94805 0.50633 0.83346 0.0
C722 C 0.91108 0.50494 0.92876 0.0
C723 C 0.89806 0.51525 0.86598 0.0
C724 C 0.91038 0.5216 0.78791 0.0
C725 C 0.9353 0.51727 0.77316 0.0
C726 C 0.89873 0.4985 0.0141 0.0
C727 C 0.89726 0.5331 0.72042 0.0
H728 H 0.81742 0.48715 0.90608 0.0
H729 H 0.83618 0.55697 0.0076 0.0
H730 H 0.8728 0.48226 0.76135 0.0
H731 H 0.86982 0.4674 0.8598 0.0
H732 H 0.84363 0.46835 0.79578 0.0
H733 H 0.87395 0.57745 0.96438 0.0
H734 H 0.89387 0.55664 0.00117 0.0
H735 H 0.89616 0.56365 0.89052 0.0
H736 H 0.94596 0.49265 0.95925 0.0
H737 H 0.94489 0.5232 0.7156 0.0
H738 H 0.88333 0.48531 0.00333 0.0
H739 H 0.89089 0.51426 0.04804 0.0
H740 H 0.91157 0.49114 0.05665 0.0
H741 H 0.88186 0.52117 0.69823 0.0
H742 H 0.90965 0.53755 0.66399 0.0
H743 H 0.8892 0.54946 0.74817 0.0
C744 C 0.05355 0.1711 0.19334 0.0
C745 C 0.0325 0.18404 0.20699 0.0
C746 C 0.0548 0.15271 0.12952 0.0
C747 C 0.03442 0.14706 0.07884 0.0
C748 C 0.01416 0.16157 0.08672 0.0
C749 C 0.01347 0.17996 0.1507 0.0
C750 C 0.07699 0.13804 0.12166 0.0
C751 C 0.99214 0.15625 0.03351 0.0
C752 C 0.03759 0.10067 0.89301 0.0
C753 C 0.02701 0.08077 0.93244 0.0
C754 C 0.04054 0.12238 0.93986 0.0
C755 C 0.03262 0.12415 0.02801 0.0
C756 C 0.02231 0.10392 0.06832 0.0
C757 C 0.01964 0.08247 0.01995 0.0
C758 C 0.05157 0.14347 0.89444 0.0
C759 C 0.01367 0.10503 0.16234 0.0
H760 H 0.06834 0.17433 0.23656 0.0
H761 H 0.99707 0.18977 0.16149 0.0
H762 H 0.07227 0.12092 0.15049 0.0
H763 H 0.0828 0.13428 0.05304 0.0
H764 H 0.09268 0.14686 0.15517 0.0
H765 H 0.97967 0.17102 0.0381 0.0
H766 H 0.99792 0.15248 0.96492 0.0
H767 H 0.98171 0.14034 0.05653 0.0
H768 H 0.04319 0.09939 0.82507 0.0
H769 H 0.01144 0.06709 0.05042 0.0
H770 H 0.06539 0.15334 0.93385 0.0
H771 H 0.03695 0.15558 0.88481 0.0
H772 H 0.06038 0.13839 0.83049 0.0
H773 H 0.02903 0.11133 0.20263 0.0
H774 H 0.00634 0.08766 0.18408 0.0
H775 H 0.99909 0.11776 0.17392 0.0
C776 C 0.36631 0.05787 0.1816 0.0
C777 C 0.34773 0.03982 0.18038 0.0
C778 C 0.38712 0.05688 0.12458 0.0
C779 C 0.38928 0.03753 0.0638 0.0
C780 C 0.36972 0.02014 0.05806 0.0
C781 C 0.34912 0.0216 0.11612 0.0
C782 C 0.40752 0.07575 0.13331 0.0
C783 C 0.37043 0.99961 0.99235 0.0
C784 C 0.43788 0.0428 0.88009 0.0
C785 C 0.45672 0.02983 0.90789 0.0
C786 C 0.41581 0.04529 0.92969 0.0
C787 C 0.41255 0.03496 0.00996 0.0
C788 C 0.43159 0.02214 0.03915 0.0
C789 C 0.45337 0.01958 0.98751 0.0
C790 C 0.39575 0.05855 0.89542 0.0
C791 C 0.42869 0.01072 0.12427 0.0
H792 H 0.36523 0.07211 0.23078 0.0
H793 H 0.33491 0.00753 0.11479 0.0
H794 H 0.42397 0.06797 0.15567 0.0
H795 H 0.41277 0.08303 0.07004 0.0
H796 H 0.40231 0.09041 0.17973 0.0
H797 H 0.35946 0.98404 0.01597 0.0
H798 H 0.36215 0.0047 0.93348 0.0
H799 H 0.38935 0.99437 0.97461 0.0
H800 H 0.43998 0.05046 0.81796 0.0
H801 H 0.46768 0.0094 0.00927 0.0
H802 H 0.39093 0.07347 0.94108 0.0
H803 H 0.37898 0.04678 0.88947 0.0
H804 H 0.40113 0.06554 0.83168 0.0
H805 H 0.42442 0.02408 0.17696 0.0
H806 H 0.44542 1.00196 0.1391 0.0
H807 H 0.41305 0.9974 0.12324 0.0
C808 C 0.4948 0.33958 0.06658 0.0
C809 C 0.47626 0.33637 0.1315 0.0
C810 C 0.49437 0.35799 0.01092 0.0
C811 C 0.47483 0.37335 0.02018 0.0
C812 C 0.45489 0.36871 0.08005 0.0
C813 C 0.45592 0.35033 0.13542 0.0
C814 C 0.516 0.36232 0.94797 0.0
C815 C 0.43347 0.38436 0.09082 0.0
C816 C 0.49083 0.43735 0.97579 0.0
C817 C 0.48239 0.4387 0.8934 0.0
C818 C 0.48827 0.41619 0.01782 0.0
C819 C 0.47691 0.39593 0.97638 0.0
C820 C 0.46802 0.39733 0.89357 0.0
C821 C 0.47087 0.41873 0.85302 0.0
C822 C 0.4981 0.41544 0.10608 0.0
C823 C 0.45577 0.37618 0.84746 0.0
H824 H 0.51069 0.329 0.06411 0.0
H825 H 0.44158 0.34784 0.18568 0.0
H826 H 0.50981 0.36631 0.88428 0.0
H827 H 0.52736 0.37782 0.97199 0.0
H828 H 0.52772 0.34699 0.93945 0.0
H829 H 0.41784 0.37628 0.1296 0.0
H830 H 0.43933 0.40136 0.12385 0.0
H831 H 0.42708 0.38824 0.02727 0.0
H832 H 0.4998 0.45276 0.00693 0.0
H833 H 0.46439 0.41975 0.78907 0.0
H834 H 0.51221 0.4022 0.10471 0.0
H835 H 0.48313 0.40998 0.15314 0.0
H836 H 0.5064 0.43273 0.12939 0.0
H837 H 0.46871 0.36189 0.83722 0.0
H838 H 0.44944 0.38033 0.78399 0.0
H839 H 0.43978 0.36934 0.88754 0.0
C840 C 0.17715 0.47269 0.11835 0.0
C841 C 0.19252 0.49314 0.12732 0.0
C842 C 0.15807 0.47127 0.06173 0.0
C843 C 0.15425 0.49084 0.01343 0.0
C844 C 0.17128 0.51052 0.01568 0.0
C845 C 0.1903 0.51143 0.07267 0.0
C846 C 0.1407 0.44971 0.05955 0.0
C847 C 0.16806 0.53159 0.96425 0.0
C848 C 0.10567 0.48582 0.84726 0.0
C849 C 0.08559 0.49519 0.89488 0.0
C850 C 0.1282 0.48416 0.88466 0.0
C851 C 0.13063 0.49216 0.97163 0.0
C852 C 0.11028 0.50148 0.02005 0.0
C853 C 0.088 0.50289 0.98099 0.0
C854 C 0.14941 0.47427 0.83052 0.0
C855 C 0.11204 0.51008 0.11321 0.0
H856 H 0.17893 0.45849 0.16041 0.0
H857 H 0.20203 0.52734 0.07992 0.0
H858 H 0.12304 0.45398 0.0941 0.0
H859 H 0.13676 0.44401 0.99225 0.0
H860 H 0.14816 0.43482 0.0905 0.0
H861 H 0.18463 0.54383 0.96317 0.0
H862 H 0.16391 0.52598 0.89709 0.0
H863 H 0.15229 0.5413 0.99313 0.0
H864 H 0.10386 0.47998 0.78036 0.0
H865 H 0.07249 0.51016 0.01781 0.0
H866 H 0.15938 0.46216 0.86719 0.0
H867 H 0.16256 0.48889 0.81193 0.0
H868 H 0.14329 0.46466 0.77079 0.0
H869 H 0.11707 0.49554 0.15177 0.0
H870 H 0.09456 0.5169 0.14167 0.0
H871 H 0.12669 0.52429 0.11885 0.0
C872 C 0.01269 0.8407 0.1835 0.0
C873 C 0.9922 0.82472 0.18263 0.0
C874 C 0.01421 0.85926 0.24628 0.0
C875 C 0.9951 0.86143 0.31109 0.0
C876 C 0.9758 0.84383 0.31621 0.0
C877 C 0.97447 0.8257 0.25134 0.0
C878 C 0.03511 0.87766 0.23848 0.0
C879 C 0.95548 0.8452 0.38592 0.0
C880 C 0.0072 0.90694 0.49284 0.0
C881 C 0.9951 0.92613 0.4671 0.0
C882 C 0.00656 0.88542 0.44455 0.0
C883 C 0.99412 0.88332 0.36742 0.0
C884 C 0.98172 0.90264 0.34137 0.0
C885 C 0.9821 0.9238 0.39236 0.0
C886 C 0.01934 0.86503 0.47566 0.0
C887 C 0.96865 0.90117 0.25844 0.0
H888 H 0.02658 0.83977 0.13096 0.0
H889 H 0.95853 0.81348 0.25086 0.0
H890 H 0.02801 0.89427 0.21904 0.0
H891 H 0.04341 0.88151 0.3013 0.0
H892 H 0.04969 0.87214 0.18999 0.0
H893 H 0.94441 0.8283 0.38987 0.0
H894 H 0.96301 0.85003 0.44949 0.0
H895 H 0.94312 0.85909 0.37222 0.0
H896 H 0.01705 0.9087 0.55138 0.0
H897 H 0.97282 0.93869 0.37258 0.0
H898 H 0.03355 0.85913 0.42659 0.0
H899 H 0.00593 0.84992 0.48513 0.0
H900 H 0.0282 0.86961 0.53715 0.0
H901 H 0.98192 0.89754 0.2032 0.0
H902 H 0.95965 0.91765 0.24805 0.0
H903 H 0.95452 0.8864 0.25862 0.0
C904 C 0.63735 0.97663 0.18427 0.0
C905 C 0.65955 0.96717 0.20296 0.0
C906 C 0.61851 0.9802 0.24744 0.0
C907 C 0.62252 0.97646 0.33398 0.0
C908 C 0.64509 0.9679 0.35501 0.0
C909 C 0.66306 0.96278 0.28906 0.0
C910 C 0.59437 0.98829 0.22089 0.0
C911 C 0.65079 0.96513 0.44724 0.0
C912 C 0.58036 0.01194 0.48637 0.0
C913 C 0.56373 0.99442 0.51729 0.0
C914 C 0.60059 0.0061 0.43135 0.0
C915 C 0.6032 0.98236 0.40175 0.0
C916 C 0.58592 0.96467 0.4308 0.0
C917 C 0.56679 0.97086 0.49043 0.0
C918 C 0.61928 0.02532 0.40564 0.0
C919 C 0.58727 0.93938 0.39707 0.0
H920 H 0.63442 0.98164 0.1201 0.0
H921 H 0.67985 0.95548 0.30567 0.0
H922 H 0.57863 0.97941 0.25653 0.0
H923 H 0.59353 0.00751 0.23533 0.0
H924 H 0.59215 0.98469 0.15097 0.0
H925 H 0.66662 0.95401 0.4519 0.0
H926 H 0.65545 0.98278 0.47773 0.0
H927 H 0.63477 0.95741 0.48478 0.0
H928 H 0.57814 0.03015 0.50817 0.0
H929 H 0.55386 0.95734 0.51466 0.0
H930 H 0.61761 0.02898 0.3373 0.0
H931 H 0.63814 0.01969 0.41208 0.0
H932 H 0.61685 0.04194 0.44544 0.0
H933 H 0.58629 0.93828 0.326 0.0
H934 H 0.57218 0.92784 0.42521 0.0
H935 H 0.60504 0.93254 0.41155 0.0
C936 C 0.50882 0.68789 0.30315 0.0
C937 C 0.53128 0.70045 0.28691 0.0
C938 C 0.50714 0.66898 0.35679 0.0
C939 C 0.52821 0.66316 0.39755 0.0
C940 C 0.54971 0.67818 0.39246 0.0
C941 C 0.55116 0.69657 0.336 0.0
C942 C 0.48355 0.65392 0.36335 0.0
C943 C 0.57177 0.67367 0.44129 0.0
C944 C 0.51717 0.61425 0.55239 0.0
C945 C 0.52573 0.59488 0.50208 0.0
C946 C 0.51874 0.63683 0.52098 0.0
C947 C 0.52851 0.63997 0.43612 0.0
C948 C 0.53721 0.62038 0.385 0.0
C949 C 0.53611 0.5981 0.4193 0.0
C950 C 0.50977 0.65694 0.57977 0.0
C951 C 0.54683 0.62278 0.29287 0.0
H952 H 0.4933 0.69122 0.26639 0.0
H953 H 0.56852 0.70635 0.3244 0.0
H954 H 0.48663 0.63604 0.33395 0.0
H955 H 0.47751 0.65203 0.43192 0.0
H956 H 0.46856 0.66139 0.33046 0.0
H957 H 0.58528 0.68899 0.44227 0.0
H958 H 0.56604 0.66959 0.50854 0.0
H959 H 0.58095 0.6582 0.41063 0.0
H960 H 0.50926 0.61183 0.61691 0.0
H961 H 0.54258 0.58306 0.38038 0.0
H962 H 0.50816 0.67342 0.54689 0.0
H963 H 0.52272 0.66064 0.63165 0.0
H964 H 0.4916 0.65183 0.6109 0.0
H965 H 0.53254 0.62974 0.25523 0.0
H966 H 0.55233 0.60575 0.26127 0.0
H967 H 0.56294 0.63551 0.29041 0.0
C968 C 0.81876 0.52448 0.33073 0.0
C969 C 0.81595 0.50699 0.2644 0.0
C970 C 0.83756 0.52379 0.38789 0.0
C971 C 0.85397 0.50538 0.37719 0.0
C972 C 0.84959 0.4865 0.31592 0.0
C973 C 0.83038 0.4874 0.26103 0.0
C974 C 0.84118 0.54383 0.45441 0.0
C975 C 0.86663 0.46654 0.30222 0.0
C976 C 0.9207 0.51974 0.42331 0.0
C977 C 0.92264 0.5081 0.49871 0.0
C978 C 0.89831 0.51916 0.38352 0.0
C979 C 0.87731 0.5072 0.42174 0.0
C980 C 0.87909 0.49601 0.49938 0.0
C981 C 0.90186 0.49627 0.53619 0.0
C982 C 0.89726 0.53082 0.29948 0.0
C983 C 0.85698 0.48377 0.54343 0.0
H984 H 0.80769 0.53969 0.33342 0.0
H985 H 0.82802 0.47375 0.21021 0.0
H986 H 0.84592 0.53723 0.51645 0.0
H987 H 0.85664 0.55584 0.43208 0.0
H988 H 0.82455 0.55413 0.46554 0.0
H989 H 0.85912 0.45201 0.25907 0.0
H990 H 0.88449 0.47323 0.27291 0.0
H991 H 0.87025 0.45936 0.36443 0.0
H992 H 0.93682 0.52883 0.39439 0.0
H993 H 0.90332 0.48745 0.5952 0.0
H994 H 0.88328 0.54423 0.30572 0.0
H995 H 0.89169 0.51755 0.24828 0.0
H996 H 0.91518 0.53947 0.2786 0.0
H997 H 0.84276 0.4966 0.56064 0.0
H998 H 0.86158 0.47559 0.60285 0.0
H999 H 0.84881 0.46991 0.49921 0.0
loop_
_geom_bond_atom_site_label_1
_geom_bond_atom_site_label_2
_geom_bond_distance
_geom_bond_site_symmetry_2
_ccdc_geom_bond_type
H0 C1 0.949 1_556 S
C1 H0 0.949 1_554 S
C1 C2 1.395 . S
C1 C3 1.391 . S
C2 C1 1.395 . S
C2 C5 1.390 . S
C3 C1 1.391 . S
C3 C7 1.387 . S
C3 C8 1.491 . S
H4 C5 0.950 . S
C5 C2 1.390 . S
C5 H4 0.950 . S
C5 C6 1.378 . S
C6 C5 1.378 . S
C6 C7 1.409 . S
C7 C3 1.387 . S
C7 C6 1.409 . S
C7 H9 0.951 . S
C8 C3 1.491 . S
C8 C10 1.382 . S
C8 C12 1.404 . S
H9 C7 0.951 . S
C10 C8 1.382 . S
C10 C11 1.390 . S
C10 H15 0.949 1_554 S
C11 C10 1.390 . S
C11 C16 1.399 . S
C12 C8 1.404 . S
C12 H13 0.950 . S
C12 C14 1.375 . S
H13 C12 0.950 . S
C14 C12 1.375 . S
C14 C16 1.382 . S
C14 H18 0.950 . S
H15 C10 0.949 1_556 S
C16 C11 1.399 . S
C16 C14 1.382 . S
C16 H17 0.952 . S
H17 C16 0.952 . S
H18 C14 0.950 . S
H19 C20 0.949 . S
C20 H19 0.949 . S
C20 C21 1.395 . S
C20 C22 1.391 1_556 S
C21 C20 1.395 . S
C21 C24 1.390 1_556 S
C22 C20 1.391 1_554 S
C22 C26 1.387 . S
C22 C27 1.491 . S
H23 C24 0.950 . S
C24 C21 1.390 1_554 S
C24 H23 0.950 . S
C24 C25 1.378 . S
C25 C24 1.378 . S
C25 C26 1.409 . S
C26 C22 1.387 . S
C26 C25 1.409 . S
C26 H28 0.951 . S
C27 C22 1.491 . S
C27 C29 1.382 1_554 S
C27 C31 1.404 . S
H28 C26 0.951 . S
C29 C27 1.382 1_556 S
C29 C30 1.390 . S
C29 H34 0.949 . S
C30 C29 1.390 . S
C30 C35 1.399 1_556 S
C31 C27 1.404 . S
C31 H32 0.950 . S
C31 C33 1.375 . S
H32 C31 0.950 . S
C33 C31 1.375 . S
C33 C35 1.382 . S
C33 H37 0.950 . S
H34 C29 0.949 . S
C35 C30 1.399 1_554 S
C35 C33 1.382 . S
C35 H36 0.952 . S
H36 C35 0.952 . S
H37 C33 0.950 . S
H38 C39 0.949 1_556 S
C39 H38 0.949 1_554 S
C39 C40 1.395 . S
C39 C41 1.391 . S
C40 C39 1.395 . S
C40 C43 1.390 . S
C41 C39 1.391 . S
C41 C45 1.387 . S
C41 C46 1.491 . S
H42 C43 0.950 . S
C43 C40 1.390 . S
C43 H42 0.950 . S
C43 C44 1.378 . S
C44 C43 1.378 . S
C44 C45 1.409 . S
C45 C41 1.387 . S
C45 C44 1.409 . S
C45 H47 0.951 . S
C46 C41 1.491 . S
C46 C48 1.382 . S
C46 C50 1.404 . S
H47 C45 0.951 . S
C48 C46 1.382 . S
C48 C49 1.390 . S
C48 H53 0.949 1_554 S
C49 C48 1.390 . S
C49 C54 1.399 . S
C50 C46 1.404 . S
C50 H51 0.950 . S
C50 C52 1.375 . S
H51 C50 0.950 . S
C52 C50 1.375 . S
C52 C54 1.382 . S
C52 H56 0.950 . S
H53 C48 0.949 1_556 S
C54 C49 1.399 . S
C54 C52 1.382 . S
C54 H55 0.952 . S
H55 C54 0.952 . S
H56 C52 0.950 . S
H57 C58 0.949 1_556 S
C58 H57 0.949 1_554 S
C58 C59 1.395 . S
C58 C60 1.391 . S
C59 C58 1.395 . S
C59 C62 1.390 . S
C60 C58 1.391 . S
C60 C64 1.387 . S
C60 C65 1.491 . S
H61 C62 0.950 . S
C62 C59 1.390 . S
C62 H61 0.950 . S
C62 C63 1.378 . S
C63 C62 1.378 . S
C63 C64 1.409 . S
C64 C60 1.387 . S
C64 C63 1.409 . S
C64 H66 0.951 . S
C65 C60 1.491 . S
C65 C67 1.382 . S
C65 C69 1.404 . S
H66 C64 0.951 . S
C67 C65 1.382 . S
C67 C68 1.390 . S
C67 H72 0.949 . S
C68 C67 1.390 . S
C68 C73 1.399 . S
C69 C65 1.404 . S
C69 H70 0.950 . S
C69 C71 1.375 . S
H70 C69 0.950 . S
C71 C69 1.375 . S
C71 C73 1.382 . S
C71 H75 0.950 . S
H72 C67 0.949 . S
C73 C68 1.399 . S
C73 C71 1.382 . S
C73 H74 0.952 . S
H74 C73 0.952 . S
H75 C71 0.950 . S
H76 C77 0.949 . S
C77 H76 0.949 . S
C77 C78 1.395 . S
C77 C79 1.391 . S
C78 C77 1.395 . S
C78 C81 1.390 . S
C79 C77 1.391 . S
C79 C83 1.387 . S
C79 C84 1.491 . S
H80 C81 0.950 . S
C81 C78 1.390 . S
C81 H80 0.950 . S
C81 C82 1.378 . S
C82 C81 1.378 . S
C82 C83 1.409 . S
C83 C79 1.387 . S
C83 C82 1.409 . S
C83 H85 0.951 . S
C84 C79 1.491 . S
C84 C86 1.382 . S
C84 C88 1.404 . S
H85 C83 0.951 . S
C86 C84 1.382 . S
C86 C87 1.390 . S
C86 H91 0.949 . S
C87 C86 1.390 . S
C87 C92 1.399 . S
C88 C84 1.404 . S
C88 H89 0.950 . S
C88 C90 1.375 . S
H89 C88 0.950 . S
C90 C88 1.375 . S
C90 C92 1.382 . S
C90 H94 0.950 . S
H91 C86 0.949 . S
C92 C87 1.399 . S
C92 C90 1.382 . S
C92 H93 0.952 . S
H93 C92 0.952 . S
H94 C90 0.950 . S
H95 C96 0.949 . S
C96 H95 0.949 . S
C96 C97 1.395 . S
C96 C98 1.391 . S
C97 C96 1.395 . S
C97 C100 1.390 . S
C98 C96 1.391 . S
C98 C102 1.387 . S
C98 C103 1.491 . S
H99 C100 0.950 . S
C100 C97 1.390 . S
C100 H99 0.950 . S
C100 C101 1.378 . S
C101 C100 1.378 . S
C101 C102 1.409 . S
C102 C98 1.387 . S
C102 C101 1.409 . S
C102 H104 0.951 . S
C103 C98 1.491 . S
C103 C105 1.382 . S
C103 C107 1.404 . S
H104 C102 0.951 . S
C105 C103 1.382 . S
C105 C106 1.390 . S
C105 H110 0.949 . S
C106 C105 1.390 . S
C106 C111 1.399 . S
C107 C103 1.404 . S
C107 H108 0.950 . S
C107 C109 1.375 . S
H108 C107 0.950 . S
C109 C107 1.375 . S
C109 C111 1.382 . S
C109 H113 0.928 1_455 S
H110 C105 0.949 . S
C111 C106 1.399 . S
C111 C109 1.382 . S
C111 H112 0.952 . S
H112 C111 0.952 . S
H113 C109 0.928 1_655 S
H114 C115 0.949 . S
C115 H114 0.949 . S
C115 C116 1.395 . S
C115 C117 1.391 . S
C116 C115 1.395 . S
C116 C119 1.390 . S
C117 C115 1.391 . S
C117 C121 1.387 . S
C117 C122 1.491 . S
H118 C119 0.950 . S
C119 C116 1.390 . S
C119 H118 0.950 . S
C119 C120 1.378 . S
C120 C119 1.378 . S
C120 C121 1.409 . S
C121 C117 1.387 . S
C121 C120 1.409 . S
C121 H123 0.951 . S
C122 C117 1.491 . S
C122 C124 1.382 . S
C122 C126 1.404 . S
H123 C121 0.951 . S
C124 C122 1.382 . S
C124 C125 1.390 . S
C124 H129 0.949 . S
C125 C124 1.390 . S
C125 C130 1.399 . S
C126 C122 1.404 . S
C126 H127 0.950 . S
C126 C128 1.375 . S
H127 C126 0.950 . S
C128 C126 1.375 . S
C128 C130 1.382 . S
C128 H132 0.950 . S
H129 C124 0.949 . S
C130 C125 1.399 . S
C130 C128 1.382 . S
C130 H131 0.952 . S
H131 C130 0.952 . S
H132 C128 0.950 . S
H133 C134 0.949 . S
C134 H133 0.949 . S
C134 C135 1.395 . S
C134 C136 1.391 . S
C135 C134 1.395 . S
C135 C138 1.390 . S
C136 C134 1.391 . S
C136 C140 1.387 . S
C136 C141 1.491 . S
H137 C138 0.950 . S
C138 C135 1.390 . S
C138 H137 0.950 . S
C138 C139 1.378 . S
C139 C138 1.378 . S
C139 C140 1.409 . S
C140 C136 1.387 . S
C140 C139 1.409 . S
C140 H142 0.951 . S
C141 C136 1.491 . S
C141 C143 1.382 . S
C141 C145 1.404 . S
H142 C140 0.951 . S
C143 C141 1.382 . S
C143 C144 1.390 . S
C143 H148 0.949 . S
C144 C143 1.390 . S
C144 C149 1.399 . S
C145 C141 1.404 . S
C145 H146 0.950 . S
C145 C147 1.375 . S
H146 C145 0.950 . S
C147 C145 1.375 . S
C147 C149 1.382 . S
C147 H151 0.950 . S
H148 C143 0.949 . S
C149 C144 1.399 . S
C149 C147 1.382 . S
C149 H150 0.952 . S
H150 C149 0.952 . S
H151 C147 0.950 . S
Tb152 O155 2.453 1_565 S
Tb152 O156 2.596 1_665 S
Tb152 O157 2.374 1_665 S
Tb152 O165 2.343 1_655 S
Tb152 O167 2.353 1_565 S
Tb152 O169 2.427 . S
Tb152 O170 2.513 1_655 S
C153 O157 1.251 . S
C153 O159 1.263 . S
Tb154 O156 2.343 . S
Tb154 O159 2.353 . S
Tb154 O162 2.427 . S
Tb154 O163 2.513 1_455 S
Tb154 O164 2.453 1_545 S
Tb154 O165 2.596 1_545 S
Tb154 O166 2.374 1_455 S
O155 Tb152 2.453 1_545 S
O155 C171 1.245 1_655 S
O156 Tb152 2.596 1_445 S
O156 Tb154 2.343 . S
O156 C171 1.259 . S
O157 Tb152 2.374 1_445 S
O157 C153 1.251 . S
C158 O162 1.275 . S
C158 O163 1.246 1_455 S
O159 C153 1.263 . S
O159 Tb154 2.353 . S
C160 O164 1.245 . S
C160 O165 1.259 . S
C161 O166 1.250 . S
C161 O167 1.263 . S
O162 Tb154 2.427 . S
O162 C158 1.275 . S
O163 Tb154 2.513 1_655 S
O163 C158 1.246 1_655 S
O164 Tb154 2.453 1_565 S
O164 C160 1.245 . S
O165 Tb152 2.343 1_455 S
O165 Tb154 2.596 1_565 S
O165 C160 1.259 . S
O166 Tb154 2.374 1_655 S
O166 C161 1.250 . S
O167 Tb152 2.353 1_545 S
O167 C161 1.263 . S
C168 O169 1.275 . S
C168 O170 1.246 1_655 S
O169 Tb152 2.427 . S
O169 C168 1.275 . S
O170 Tb152 2.513 1_455 S
O170 C168 1.246 1_455 S
C171 O155 1.245 1_455 S
C171 O156 1.259 . S
Tb172 O175 2.453 . S
Tb172 O176 2.596 1_545 S
Tb172 O177 2.374 . S
Tb172 O185 2.343 . S
Tb172 O187 2.353 . S
Tb172 O189 2.427 . S
Tb172 O190 2.513 . S
C173 O177 1.251 1_565 S
C173 O179 1.263 . S
Tb174 O176 2.343 . S
Tb174 O179 2.353 . S
Tb174 O182 2.427 . S
Tb174 O183 2.513 . S
Tb174 O184 2.453 . S
Tb174 O185 2.596 1_565 S
Tb174 O186 2.374 . S
O175 Tb172 2.453 . S
O175 C191 1.245 . S
O176 Tb172 2.596 1_565 S
O176 Tb174 2.343 . S
O176 C191 1.259 1_565 S
O177 Tb172 2.374 . S
O177 C173 1.251 1_545 S
C178 O182 1.275 . S
C178 O183 1.246 . S
O179 C173 1.263 . S
O179 Tb174 2.353 . S
C180 O184 1.245 1_545 S
C180 O185 1.259 . S
C181 O186 1.250 1_545 S
C181 O187 1.263 . S
O182 Tb174 2.427 . S
O182 C178 1.275 . S
O183 Tb174 2.513 . S
O183 C178 1.246 . S
O184 Tb174 2.453 . S
O184 C180 1.245 1_565 S
O185 Tb172 2.343 . S
O185 Tb174 2.596 1_545 S
O185 C180 1.259 . S
O186 Tb174 2.374 . S
O186 C181 1.250 1_565 S
O187 Tb172 2.353 . S
O187 C181 1.263 . S
C188 O189 1.275 . S
C188 O190 1.246 . S
O189 Tb172 2.427 . S
O189 C188 1.275 . S
O190 Tb172 2.513 . S
O190 C188 1.246 . S
C191 O175 1.245 . S
C191 O176 1.259 1_545 S
Tb192 O195 2.453 . S
Tb192 O196 2.596 . S
Tb192 O197 2.374 . S
Tb192 O205 2.343 . S
Tb192 O207 2.353 . S
Tb192 O209 2.427 . S
Tb192 O210 2.513 . S
C193 O197 1.251 . S
C193 O199 1.263 . S
Tb194 O196 2.343 . S
Tb194 O199 2.353 . S
Tb194 O202 2.427 . S
Tb194 O203 2.513 . S
Tb194 O204 2.453 . S
Tb194 O205 2.596 . S
Tb194 O206 2.374 . S
O195 Tb192 2.453 . S
O195 C211 1.245 . S
O196 Tb192 2.596 . S
O196 Tb194 2.343 . S
O196 C211 1.259 . S
O197 Tb192 2.374 . S
O197 C193 1.251 . S
C198 O202 1.275 . S
C198 O203 1.246 . S
O199 C193 1.263 . S
O199 Tb194 2.353 . S
C200 O204 1.245 . S
C200 O205 1.259 . S
C201 O206 1.250 . S
C201 O207 1.263 . S
O202 Tb194 2.427 . S
O202 C198 1.275 . S
O203 Tb194 2.513 . S
O203 C198 1.246 . S
O204 Tb194 2.453 . S
O204 C200 1.245 . S
O205 Tb192 2.343 . S
O205 Tb194 2.596 . S
O205 C200 1.259 . S
O206 Tb194 2.374 . S
O206 C201 1.250 . S
O207 Tb192 2.353 . S
O207 C201 1.263 . S
C208 O209 1.275 . S
C208 O210 1.246 . S
O209 Tb192 2.427 . S
O209 C208 1.275 . S
O210 Tb192 2.513 . S
O210 C208 1.246 . S
C211 O195 1.245 . S
C211 O196 1.259 . S
Tb212 O215 2.453 1_655 S
Tb212 O216 2.596 1_655 S
Tb212 O217 2.371 1_655 S
Tb212 O225 2.343 . S
Tb212 O227 2.353 1_655 S
Tb212 O229 2.427 . S
Tb212 O230 2.513 . S
C213 O217 1.259 . S
C213 O219 1.263 . S
Tb214 O216 2.343 . S
Tb214 O219 2.353 . S
Tb214 O222 2.427 . S
Tb214 O223 2.513 . S
Tb214 O224 2.453 1_455 S
Tb214 O225 2.596 1_455 S
Tb214 O226 2.374 . S
O215 Tb212 2.453 1_455 S
O215 C231 1.245 . S
O216 Tb212 2.596 1_455 S
O216 Tb214 2.343 . S
O216 C231 1.259 . S
O217 Tb212 2.371 1_455 S
O217 C213 1.259 . S
C218 O222 1.275 . S
C218 O223 1.246 . S
O219 C213 1.263 . S
O219 Tb214 2.353 . S
C220 O224 1.245 . S
C220 O225 1.259 . S
C221 O226 1.250 . S
C221 O227 1.263 . S
O222 Tb214 2.427 . S
O222 C218 1.275 . S
O223 Tb214 2.513 . S
O223 C218 1.246 . S
O224 Tb214 2.453 1_655 S
O224 C220 1.245 . S
O225 Tb212 2.343 . S
O225 Tb214 2.596 1_655 S
O225 C220 1.259 . S
O226 Tb214 2.374 . S
O226 C221 1.250 . S
O227 Tb212 2.353 1_455 S
O227 C221 1.263 . S
C228 O229 1.275 . S
C228 O230 1.246 . S
O229 Tb212 2.427 . S
O229 C228 1.275 . S
O230 Tb212 2.513 . S
O230 C228 1.246 . S
C231 O215 1.245 . S
C231 O216 1.259 . S
C232 C233 1.391 . S
C232 C234 1.394 . S
C232 H248 0.931 . S
C233 C232 1.391 . S
C233 C237 1.376 . S
C234 C232 1.394 . S
C234 C235 1.369 . S
C234 C238 1.531 . S
C235 C234 1.369 . S
C235 C236 1.410 . S
C235 C243 1.503 . S
C236 C235 1.410 . S
C236 C237 1.392 . S
C236 C239 1.511 . S
C237 C233 1.376 . S
C237 C236 1.392 . S
C237 H249 0.929 . S
C238 C234 1.531 . S
C238 H250 0.960 . S
C238 H251 0.962 . S
C238 H252 0.960 . S
C239 C236 1.511 . S
C239 H253 0.961 . S
C239 H254 0.961 . S
C239 H255 0.961 . S
C240 C241 1.370 . S
C240 C242 1.363 . S
C240 H256 0.931 . S
C241 C240 1.370 . S
C241 C245 1.408 1_545 S
C242 C240 1.363 . S
C242 C243 1.370 . S
C242 C246 1.524 . S
C243 C235 1.503 . S
C243 C242 1.370 . S
C243 C244 1.403 . S
C244 C243 1.403 . S
C244 C245 1.404 1_545 S
C244 C247 1.539 1_545 S
C245 C241 1.408 1_565 S
C245 C244 1.404 1_565 S
C245 H257 0.930 . S
C246 C242 1.524 . S
C246 H258 0.956 . S
C246 H259 0.961 . S
C246 H260 0.961 . S
C247 C244 1.539 1_565 S
C247 H261 0.958 . S
C247 H262 0.961 . S
C247 H263 0.960 . S
H248 C232 0.931 . S
H249 C237 0.929 . S
H250 C238 0.960 . S
H251 C238 0.962 . S
H252 C238 0.960 . S
H253 C239 0.961 . S
H254 C239 0.961 . S
H255 C239 0.961 . S
H256 C240 0.931 . S
H257 C245 0.930 . S
H258 C246 0.956 . S
H259 C246 0.961 . S
H260 C246 0.961 . S
H261 C247 0.958 . S
H262 C247 0.961 . S
H263 C247 0.960 . S
C264 C265 1.391 . S
C264 C266 1.394 . S
C264 H280 0.931 . S
C265 C264 1.391 . S
C265 C269 1.376 . S
C266 C264 1.394 . S
C266 C267 1.369 . S
C266 C270 1.531 . S
C267 C266 1.369 . S
C267 C268 1.410 . S
C267 C275 1.503 . S
C268 C267 1.410 . S
C268 C269 1.392 . S
C268 C271 1.511 . S
C269 C265 1.376 . S
C269 C268 1.392 . S
C269 H281 0.929 . S
C270 C266 1.531 . S
C270 H282 0.960 . S
C270 H283 0.962 . S
C270 H284 0.960 . S
C271 C268 1.511 . S
C271 H285 0.961 . S
C271 H286 0.961 . S
C271 H287 0.961 . S
C272 C273 1.370 . S
C272 C274 1.363 . S
C272 H288 0.931 . S
C273 C272 1.370 . S
C273 C277 1.408 . S
C274 C272 1.363 . S
C274 C275 1.370 . S
C274 C278 1.524 . S
C275 C267 1.503 . S
C275 C274 1.370 . S
C275 C276 1.403 . S
C276 C275 1.403 . S
C276 C277 1.404 . S
C276 C279 1.539 . S
C277 C273 1.408 . S
C277 C276 1.404 . S
C277 H289 0.930 . S
C278 C274 1.524 . S
C278 H290 0.956 . S
C278 H291 0.961 . S
C278 H292 0.961 . S
C279 C276 1.539 . S
C279 H293 0.958 . S
C279 H294 0.961 . S
C279 H295 0.960 . S
H280 C264 0.931 . S
H281 C269 0.929 . S
H282 C270 0.960 . S
H283 C270 0.962 . S
H284 C270 0.960 . S
H285 C271 0.961 . S
H286 C271 0.961 . S
H287 C271 0.961 . S
H288 C272 0.931 . S
H289 C277 0.930 . S
H290 C278 0.956 . S
H291 C278 0.961 . S
H292 C278 0.961 . S
H293 C279 0.958 . S
H294 C279 0.961 . S
H295 C279 0.960 . S
C296 C297 1.391 . S
C296 C298 1.394 . S
C296 H312 0.931 . S
C297 C296 1.391 . S
C297 C301 1.376 . S
C298 C296 1.394 . S
C298 C299 1.369 . S
C298 C302 1.531 . S
C299 C298 1.369 . S
C299 C300 1.410 . S
C299 C307 1.503 . S
C300 C299 1.410 . S
C300 C301 1.392 . S
C300 C303 1.511 . S
C301 C297 1.376 . S
C301 C300 1.392 . S
C301 H313 0.929 . S
C302 C298 1.531 . S
C302 H314 0.960 . S
C302 H315 0.962 . S
C302 H316 0.960 . S
C303 C300 1.511 . S
C303 H317 0.961 . S
C303 H318 0.961 . S
C303 H319 0.961 . S
C304 C305 1.370 . S
C304 C306 1.363 . S
C304 H320 0.931 . S
C305 C304 1.370 . S
C305 C309 1.408 . S
C306 C304 1.363 . S
C306 C307 1.370 . S
C306 C310 1.524 . S
C307 C299 1.503 . S
C307 C306 1.370 . S
C307 C308 1.403 . S
C308 C307 1.403 . S
C308 C309 1.404 . S
C308 C311 1.539 . S
C309 C305 1.408 . S
C309 C308 1.404 . S
C309 H321 0.930 . S
C310 C306 1.524 . S
C310 H322 0.956 . S
C310 H323 0.961 . S
C310 H324 0.961 . S
C311 C308 1.539 . S
C311 H325 0.958 . S
C311 H326 0.961 . S
C311 H327 0.960 . S
H312 C296 0.931 . S
H313 C301 0.929 . S
H314 C302 0.960 . S
H315 C302 0.962 . S
H316 C302 0.960 . S
H317 C303 0.961 . S
H318 C303 0.961 . S
H319 C303 0.961 . S
H320 C304 0.931 . S
H321 C309 0.930 . S
H322 C310 0.956 . S
H323 C310 0.961 . S
H324 C310 0.961 . S
H325 C311 0.958 . S
H326 C311 0.961 . S
H327 C311 0.960 . S
C328 C329 1.391 . S
C328 C330 1.394 . S
C328 H344 0.931 . S
C329 C328 1.391 . S
C329 C333 1.376 . S
C330 C328 1.394 . S
C330 C331 1.369 . S
C330 C334 1.529 1_455 S
C331 C330 1.369 . S
C331 C332 1.410 . S
C331 C339 1.503 . S
C332 C331 1.410 . S
C332 C333 1.392 . S
C332 C335 1.511 . S
C333 C329 1.376 . S
C333 C332 1.392 . S
C333 H345 0.929 . S
C334 C330 1.529 1_655 S
C334 H346 0.959 1_655 S
C334 H347 0.964 . S
C334 H348 0.961 . S
C335 C332 1.511 . S
C335 H349 0.961 . S
C335 H350 0.961 . S
C335 H351 0.961 . S
C336 C337 1.370 . S
C336 C338 1.363 . S
C336 H352 0.931 1_455 S
C337 C336 1.370 . S
C337 C341 1.408 . S
C338 C336 1.363 . S
C338 C339 1.370 . S
C338 C342 1.540 . S
C339 C331 1.503 . S
C339 C338 1.370 . S
C339 C340 1.403 . S
C340 C339 1.403 . S
C340 C341 1.404 . S
C340 C343 1.539 . S
C341 C337 1.408 . S
C341 C340 1.404 . S
C341 H353 0.930 . S
C342 C338 1.540 . S
C342 H354 0.936 1_455 S
C342 H355 0.988 . S
C342 H356 0.938 1_455 S
C343 C340 1.539 . S
C343 H357 0.958 . S
C343 H358 0.961 . S
C343 H359 0.960 . S
H344 C328 0.931 . S
H345 C333 0.929 . S
H346 C334 0.959 1_455 S
H347 C334 0.964 . S
H348 C334 0.961 . S
H349 C335 0.961 . S
H350 C335 0.961 . S
H351 C335 0.961 . S
H352 C336 0.931 1_655 S
H353 C341 0.930 . S
H354 C342 0.936 1_655 S
H355 C342 0.988 . S
H356 C342 0.938 1_655 S
H357 C343 0.958 . S
H358 C343 0.961 . S
H359 C343 0.960 . S
C360 C361 1.391 . S
C360 C362 1.394 . S
C360 H376 0.933 1_565 S
C361 C360 1.391 . S
C361 C365 1.376 . S
C362 C360 1.394 . S
C362 C363 1.369 . S
C362 C366 1.531 1_565 S
C363 C362 1.369 . S
C363 C364 1.410 . S
C363 C371 1.503 . S
C364 C363 1.410 . S
C364 C365 1.392 . S
C364 C367 1.511 . S
C365 C361 1.376 . S
C365 C364 1.392 . S
C365 H377 0.929 . S
C366 C362 1.531 1_545 S
C366 H378 0.960 . S
C366 H379 0.962 . S
C366 H380 0.960 . S
C367 C364 1.511 . S
C367 H381 0.961 . S
C367 H382 0.961 . S
C367 H383 0.961 . S
C368 C369 1.370 . S
C368 C370 1.363 . S
C368 H384 0.931 . S
C369 C368 1.370 . S
C369 C373 1.408 . S
C370 C368 1.363 . S
C370 C371 1.370 . S
C370 C374 1.524 . S
C371 C363 1.503 . S
C371 C370 1.370 . S
C371 C372 1.403 . S
C372 C371 1.403 . S
C372 C373 1.404 . S
C372 C375 1.539 1_556 S
C373 C369 1.408 . S
C373 C372 1.404 . S
C373 H385 0.930 . S
C374 C370 1.524 . S
C374 H386 0.956 . S
C374 H387 0.961 . S
C374 H388 0.961 . S
C375 C372 1.539 1_554 S
C375 H389 0.958 . S
C375 H390 0.961 . S
C375 H391 0.960 . S
H376 C360 0.933 1_545 S
H377 C365 0.929 . S
H378 C366 0.960 . S
H379 C366 0.962 . S
H380 C366 0.960 . S
H381 C367 0.961 . S
H382 C367 0.961 . S
H383 C367 0.961 . S
H384 C368 0.931 . S
H385 C373 0.930 . S
H386 C374 0.956 . S
H387 C374 0.961 . S
H388 C374 0.961 . S
H389 C375 0.958 . S
H390 C375 0.961 . S
H391 C375 0.960 . S
C392 C393 1.391 . S
C392 C394 1.394 . S
C392 H408 0.931 . S
C393 C392 1.391 . S
C393 C397 1.376 1_556 S
C394 C392 1.394 . S
C394 C395 1.369 . S
C394 C398 1.531 . S
C395 C394 1.369 . S
C395 C396 1.410 . S
C395 C403 1.503 . S
C396 C395 1.410 . S
C396 C397 1.392 1_556 S
C396 C399 1.511 . S
C397 C393 1.376 1_554 S
C397 C396 1.392 1_554 S
C397 H409 0.929 . S
C398 C394 1.531 . S
C398 H410 0.960 . S
C398 H411 0.962 . S
C398 H412 0.960 . S
C399 C396 1.511 . S
C399 H413 0.961 1_556 S
C399 H414 0.961 . S
C399 H415 0.961 . S
C400 C401 1.370 . S
C400 C402 1.363 . S
C400 H416 0.931 . S
C401 C400 1.370 . S
C401 C405 1.408 . S
C402 C400 1.363 . S
C402 C403 1.370 . S
C402 C406 1.524 . S
C403 C395 1.503 . S
C403 C402 1.370 . S
C403 C404 1.403 . S
C404 C403 1.403 . S
C404 C405 1.404 . S
C404 C407 1.539 . S
C405 C401 1.408 . S
C405 C404 1.404 . S
C405 H417 0.930 . S
C406 C402 1.524 . S
C406 H418 0.956 . S
C406 H419 0.961 1_556 S
C406 H420 0.961 1_556 S
C407 C404 1.539 . S
C407 H421 0.958 . S
C407 H422 0.961 . S
C407 H423 0.960 . S
H408 C392 0.931 . S
H409 C397 0.929 . S
H410 C398 0.960 . S
H411 C398 0.962 . S
H412 C398 0.960 . S
H413 C399 0.961 1_554 S
H414 C399 0.961 . S
H415 C399 0.961 . S
H416 C400 0.931 . S
H417 C405 0.930 . S
H418 C406 0.956 . S
H419 C406 0.961 1_554 S
H420 C406 0.961 1_554 S
H421 C407 0.958 . S
H422 C407 0.961 . S
H423 C407 0.960 . S
C424 C425 1.391 . S
C424 C426 1.394 . S
C424 H440 0.931 . S
C425 C424 1.391 . S
C425 C429 1.376 1_556 S
C426 C424 1.394 . S
C426 C427 1.369 . S
C426 C430 1.531 . S
C427 C426 1.369 . S
C427 C428 1.410 . S
C427 C435 1.503 . S
C428 C427 1.410 . S
C428 C429 1.392 1_556 S
C428 C431 1.511 1_556 S
C429 C425 1.376 1_554 S
C429 C428 1.392 1_554 S
C429 H441 0.929 . S
C430 C426 1.531 . S
C430 H442 0.960 . S
C430 H443 0.962 . S
C430 H444 0.960 . S
C431 C428 1.511 1_554 S
C431 H445 0.961 . S
C431 H446 0.961 1_554 S
C431 H447 0.961 . S
C432 C433 1.370 . S
C432 C434 1.363 . S
C432 H448 0.931 . S
C433 C432 1.370 . S
C433 C437 1.408 . S
C434 C432 1.363 . S
C434 C435 1.370 . S
C434 C438 1.524 . S
C435 C427 1.503 . S
C435 C434 1.370 . S
C435 C436 1.403 . S
C436 C435 1.403 . S
C436 C437 1.404 . S
C436 C439 1.539 . S
C437 C433 1.408 . S
C437 C436 1.404 . S
C437 H449 0.930 . S
C438 C434 1.524 . S
C438 H450 0.956 . S
C438 H451 0.961 . S
C438 H452 0.961 . S
C439 C436 1.539 . S
C439 H453 0.958 . S
C439 H454 0.961 . S
C439 H455 0.960 . S
H440 C424 0.931 . S
H441 C429 0.929 . S
H442 C430 0.960 . S
H443 C430 0.962 . S
H444 C430 0.960 . S
H445 C431 0.961 . S
H446 C431 0.961 1_556 S
H447 C431 0.961 . S
H448 C432 0.931 . S
H449 C437 0.930 . S
H450 C438 0.956 . S
H451 C438 0.961 . S
H452 C438 0.961 . S
H453 C439 0.958 . S
H454 C439 0.961 . S
H455 C439 0.960 . S
C456 C457 1.391 . S
C456 C458 1.394 . S
C456 H472 0.931 1_655 S
C457 C456 1.391 . S
C457 C461 1.376 . S
C458 C456 1.394 . S
C458 C459 1.369 . S
C458 C462 1.531 1_655 S
C459 C458 1.369 . S
C459 C460 1.410 . S
C459 C467 1.503 . S
C460 C459 1.410 . S
C460 C461 1.392 . S
C460 C463 1.511 . S
C461 C457 1.376 . S
C461 C460 1.392 . S
C461 H473 0.929 . S
C462 C458 1.531 1_455 S
C462 H474 0.960 . S
C462 H475 0.962 . S
C462 H476 0.960 . S
C463 C460 1.511 . S
C463 H477 0.961 . S
C463 H478 0.961 . S
C463 H479 0.961 . S
C464 C465 1.370 . S
C464 C466 1.363 . S
C464 H480 0.923 1_655 S
C465 C464 1.370 . S
C465 C469 1.408 . S
C466 C464 1.363 . S
C466 C467 1.370 . S
C466 C470 1.524 . S
C467 C459 1.503 . S
C467 C466 1.370 . S
C467 C468 1.403 . S
C468 C467 1.403 . S
C468 C469 1.404 . S
C468 C471 1.539 . S
C469 C465 1.408 . S
C469 C468 1.404 . S
C469 H481 0.930 . S
C470 C466 1.524 . S
C470 H482 0.956 1_655 S
C470 H483 0.961 . S
C470 H484 0.961 . S
C471 C468 1.539 . S
C471 H485 0.958 1_556 S
C471 H486 0.961 1_556 S
C471 H487 0.960 1_556 S
H472 C456 0.931 1_455 S
H473 C461 0.929 . S
H474 C462 0.960 . S
H475 C462 0.962 . S
H476 C462 0.960 . S
H477 C463 0.961 . S
H478 C463 0.961 . S
H479 C463 0.961 . S
H480 C464 0.923 1_455 S
H481 C469 0.930 . S
H482 C470 0.956 1_455 S
H483 C470 0.961 . S
H484 C470 0.961 . S
H485 C471 0.958 1_554 S
H486 C471 0.961 1_554 S
H487 C471 0.960 1_554 S
C488 C489 1.391 . S
C488 C490 1.394 . S
C488 H504 0.931 . S
C489 C488 1.391 . S
C489 C493 1.376 . S
C490 C488 1.394 . S
C490 C491 1.369 . S
C490 C494 1.531 . S
C491 C490 1.369 . S
C491 C492 1.410 . S
C491 C499 1.503 . S
C492 C491 1.410 . S
C492 C493 1.392 . S
C492 C495 1.511 1_455 S
C493 C489 1.376 . S
C493 C492 1.392 . S
C493 H505 0.929 . S
C494 C490 1.531 . S
C494 H506 0.960 . S
C494 H507 0.962 . S
C494 H508 0.960 . S
C495 C492 1.511 1_655 S
C495 H509 0.961 . S
C495 H510 0.961 1_655 S
C495 H511 0.961 . S
C496 C497 1.370 . S
C496 C498 1.363 . S
C496 H512 0.931 . S
C497 C496 1.370 . S
C497 C501 1.408 1_455 S
C498 C496 1.363 . S
C498 C499 1.370 . S
C498 C502 1.524 . S
C499 C491 1.503 . S
C499 C498 1.370 . S
C499 C500 1.403 . S
C500 C499 1.403 . S
C500 C501 1.404 1_455 S
C500 C503 1.539 1_455 S
C501 C497 1.408 1_655 S
C501 C500 1.404 1_655 S
C501 H513 0.930 . S
C502 C498 1.524 . S
C502 H514 0.956 . S
C502 H515 0.961 . S
C502 H516 0.961 . S
C503 C500 1.539 1_655 S
C503 H517 0.958 . S
C503 H518 0.961 . S
C503 H519 0.960 . S
H504 C488 0.931 . S
H505 C493 0.929 . S
H506 C494 0.960 . S
H507 C494 0.962 . S
H508 C494 0.960 . S
H509 C495 0.961 . S
H510 C495 0.961 1_455 S
H511 C495 0.961 . S
H512 C496 0.931 . S
H513 C501 0.930 . S
H514 C502 0.956 . S
H515 C502 0.961 . S
H516 C502 0.961 . S
H517 C503 0.958 . S
H518 C503 0.961 . S
H519 C503 0.960 . S
C520 C521 1.391 . S
C520 C522 1.394 . S
C520 H536 0.931 . S
C521 C520 1.391 . S
C521 C525 1.376 . S
C522 C520 1.394 . S
C522 C523 1.369 . S
C522 C526 1.531 . S
C523 C522 1.369 . S
C523 C524 1.410 . S
C523 C531 1.503 . S
C524 C523 1.410 . S
C524 C525 1.392 . S
C524 C527 1.511 . S
C525 C521 1.376 . S
C525 C524 1.392 . S
C525 H537 0.929 . S
C526 C522 1.531 . S
C526 H538 0.960 . S
C526 H539 0.962 . S
C526 H540 0.960 . S
C527 C524 1.511 . S
C527 H541 0.961 . S
C527 H542 0.961 . S
C527 H543 0.961 . S
C528 C529 1.370 . S
C528 C530 1.363 . S
C528 H544 0.931 1_545 S
C529 C528 1.370 . S
C529 C533 1.408 . S
C530 C528 1.363 . S
C530 C531 1.370 . S
C530 C534 1.524 1_545 S
C531 C523 1.503 . S
C531 C530 1.370 . S
C531 C532 1.403 . S
C532 C531 1.403 . S
C532 C533 1.404 . S
C532 C535 1.539 . S
C533 C529 1.408 . S
C533 C532 1.404 . S
C533 H545 0.930 . S
C534 C530 1.524 1_565 S
C534 H546 0.956 . S
C534 H547 0.961 . S
C534 H548 0.961 . S
C535 C532 1.539 . S
C535 H549 0.958 . S
C535 H550 0.961 . S
C535 H551 0.960 . S
H536 C520 0.931 . S
H537 C525 0.929 . S
H538 C526 0.960 . S
H539 C526 0.962 . S
H540 C526 0.960 . S
H541 C527 0.961 . S
H542 C527 0.961 . S
H543 C527 0.961 . S
H544 C528 0.931 1_565 S
H545 C533 0.930 . S
H546 C534 0.956 . S
H547 C534 0.961 . S
H548 C534 0.961 . S
H549 C535 0.958 . S
H550 C535 0.961 . S
H551 C535 0.960 . S
C552 C553 1.391 . S
C552 C554 1.394 . S
C552 H568 0.931 . S
C553 C552 1.391 . S
C553 C557 1.376 . S
C554 C552 1.394 . S
C554 C555 1.369 . S
C554 C558 1.531 . S
C555 C554 1.369 . S
C555 C556 1.410 . S
C555 C563 1.503 . S
C556 C555 1.410 . S
C556 C557 1.392 . S
C556 C559 1.511 . S
C557 C553 1.376 . S
C557 C556 1.392 . S
C557 H569 0.929 . S
C558 C554 1.531 . S
C558 H570 0.960 . S
C558 H571 0.962 . S
C558 H572 0.960 . S
C559 C556 1.511 . S
C559 H573 0.961 . S
C559 H574 0.961 . S
C559 H575 0.961 . S
C560 C561 1.370 . S
C560 C562 1.363 . S
C560 H576 0.931 . S
C561 C560 1.370 . S
C561 C565 1.408 . S
C562 C560 1.363 . S
C562 C563 1.370 . S
C562 C566 1.524 . S
C563 C555 1.503 . S
C563 C562 1.370 . S
C563 C564 1.403 . S
C564 C563 1.403 . S
C564 C565 1.404 . S
C564 C567 1.539 . S
C565 C561 1.408 . S
C565 C564 1.404 . S
C565 H577 0.930 . S
C566 C562 1.524 . S
C566 H578 0.956 . S
C566 H579 0.961 . S
C566 H580 0.961 . S
C567 C564 1.539 . S
C567 H581 0.958 . S
C567 H582 0.961 . S
C567 H583 0.960 . S
H568 C552 0.931 . S
H569 C557 0.929 . S
H570 C558 0.960 . S
H571 C558 0.962 . S
H572 C558 0.960 . S
H573 C559 0.961 . S
H574 C559 0.961 . S
H575 C559 0.961 . S
H576 C560 0.931 . S
H577 C565 0.930 . S
H578 C566 0.956 . S
H579 C566 0.961 . S
H580 C566 0.961 . S
H581 C567 0.958 . S
H582 C567 0.961 . S
H583 C567 0.960 . S
C584 C585 1.391 . S
C584 C586 1.394 . S
C584 H600 0.931 . S
C585 C584 1.391 . S
C585 C589 1.376 . S
C586 C584 1.394 . S
C586 C587 1.369 . S
C586 C590 1.531 . S
C587 C586 1.369 . S
C587 C588 1.410 . S
C587 C595 1.503 . S
C588 C587 1.410 . S
C588 C589 1.392 . S
C588 C591 1.511 . S
C589 C585 1.376 . S
C589 C588 1.392 . S
C589 H601 0.929 . S
C590 C586 1.531 . S
C590 H602 0.960 . S
C590 H603 0.962 . S
C590 H604 0.960 . S
C591 C588 1.511 . S
C591 H605 0.961 . S
C591 H606 0.961 . S
C591 H607 0.961 . S
C592 C593 1.370 . S
C592 C594 1.363 . S
C592 H608 0.931 . S
C593 C592 1.370 . S
C593 C597 1.408 . S
C594 C592 1.363 . S
C594 C595 1.370 . S
C594 C598 1.524 . S
C595 C587 1.503 . S
C595 C594 1.370 . S
C595 C596 1.403 . S
C596 C595 1.403 . S
C596 C597 1.404 . S
C596 C599 1.539 . S
C597 C593 1.408 . S
C597 C596 1.404 . S
C597 H609 0.930 . S
C598 C594 1.524 . S
C598 H610 0.956 . S
C598 H611 0.961 . S
C598 H612 0.961 . S
C599 C596 1.539 . S
C599 H613 0.958 . S
C599 H614 0.961 . S
C599 H615 0.960 . S
H600 C584 0.931 . S
H601 C589 0.929 . S
H602 C590 0.960 . S
H603 C590 0.962 . S
H604 C590 0.960 . S
H605 C591 0.961 . S
H606 C591 0.961 . S
H607 C591 0.961 . S
H608 C592 0.931 . S
H609 C597 0.930 . S
H610 C598 0.956 . S
H611 C598 0.961 . S
H612 C598 0.961 . S
H613 C599 0.958 . S
H614 C599 0.961 . S
H615 C599 0.960 . S
C616 C617 1.391 . S
C616 C618 1.394 . S
C616 H632 0.931 . S
C617 C616 1.391 . S
C617 C621 1.376 . S
C618 C616 1.394 . S
C618 C619 1.369 . S
C618 C622 1.531 1_655 S
C619 C618 1.369 . S
C619 C620 1.410 . S
C619 C627 1.503 . S
C620 C619 1.410 . S
C620 C621 1.392 . S
C620 C623 1.511 . S
C621 C617 1.376 . S
C621 C620 1.392 . S
C621 H633 0.929 . S
C622 C618 1.531 1_455 S
C622 H634 0.960 . S
C622 H635 0.962 . S
C622 H636 0.960 . S
C623 C620 1.511 . S
C623 H637 0.961 . S
C623 H638 0.961 . S
C623 H639 0.961 . S
C624 C625 1.370 1_455 S
C624 C626 1.360 1_455 S
C624 H640 0.931 . S
C625 C624 1.370 1_655 S
C625 C629 1.408 . S
C626 C624 1.360 1_655 S
C626 C627 1.381 . S
C626 C630 1.517 1_655 S
C627 C619 1.503 . S
C627 C626 1.381 . S
C627 C628 1.403 . S
C628 C627 1.403 . S
C628 C629 1.404 . S
C628 C631 1.539 . S
C629 C625 1.408 . S
C629 C628 1.404 . S
C629 H641 0.930 . S
C630 C626 1.517 1_455 S
C630 H642 0.956 . S
C630 H643 0.961 1_455 S
C630 H644 0.961 . S
C631 C628 1.539 . S
C631 H645 0.958 . S
C631 H646 0.961 . S
C631 H647 0.960 . S
H632 C616 0.931 . S
H633 C621 0.929 . S
H634 C622 0.960 . S
H635 C622 0.962 . S
H636 C622 0.960 . S
H637 C623 0.961 . S
H638 C623 0.961 . S
H639 C623 0.961 . S
H640 C624 0.931 . S
H641 C629 0.930 . S
H642 C630 0.956 . S
H643 C630 0.961 1_655 S
H644 C630 0.961 . S
H645 C631 0.958 . S
H646 C631 0.961 . S
H647 C631 0.960 . S
C648 C649 1.391 . S
C648 C650 1.394 . S
C648 H664 0.931 . S
C649 C648 1.391 . S
C649 C653 1.376 . S
C650 C648 1.394 . S
C650 C651 1.369 . S
C650 C654 1.531 . S
C651 C650 1.369 . S
C651 C652 1.410 . S
C651 C659 1.503 . S
C652 C651 1.410 . S
C652 C653 1.392 . S
C652 C655 1.511 1_565 S
C653 C649 1.376 . S
C653 C652 1.392 . S
C653 H665 0.929 . S
C654 C650 1.531 . S
C654 H666 0.960 . S
C654 H667 0.962 . S
C654 H668 0.960 . S
C655 C652 1.511 1_545 S
C655 H669 0.961 . S
C655 H670 0.961 . S
C655 H671 0.961 1_556 S
C656 C657 1.370 . S
C656 C658 1.363 . S
C656 H672 0.931 . S
C657 C656 1.370 . S
C657 C661 1.408 . S
C658 C656 1.363 . S
C658 C659 1.370 . S
C658 C662 1.524 . S
C659 C651 1.503 . S
C659 C658 1.370 . S
C659 C660 1.403 . S
C660 C659 1.403 . S
C660 C661 1.404 . S
C660 C663 1.539 1_556 S
C661 C657 1.408 . S
C661 C660 1.404 . S
C661 H673 0.930 . S
C662 C658 1.524 . S
C662 H674 0.956 . S
C662 H675 0.961 . S
C662 H676 0.961 . S
C663 C660 1.539 1_554 S
C663 H677 0.958 . S
C663 H678 0.961 . S
C663 H679 0.960 . S
H664 C648 0.931 . S
H665 C653 0.929 . S
H666 C654 0.960 . S
H667 C654 0.962 . S
H668 C654 0.960 . S
H669 C655 0.961 . S
H670 C655 0.961 . S
H671 C655 0.961 1_554 S
H672 C656 0.931 . S
H673 C661 0.930 . S
H674 C662 0.956 . S
H675 C662 0.961 . S
H676 C662 0.961 . S
H677 C663 0.958 . S
H678 C663 0.961 . S
H679 C663 0.960 . S
C680 C681 1.391 . S
C680 C682 1.394 . S
C680 H696 0.931 . S
C681 C680 1.391 . S
C681 C685 1.376 . S
C682 C680 1.394 . S
C682 C683 1.369 . S
C682 C686 1.531 . S
C683 C682 1.369 . S
C683 C684 1.410 . S
C683 C691 1.503 . S
C684 C683 1.410 . S
C684 C685 1.392 . S
C684 C687 1.511 . S
C685 C681 1.376 . S
C685 C684 1.392 . S
C685 H697 0.929 . S
C686 C682 1.531 . S
C686 H698 0.960 . S
C686 H699 0.962 . S
C686 H700 0.960 . S
C687 C684 1.511 . S
C687 H701 0.961 . S
C687 H702 0.961 . S
C687 H703 0.961 . S
C688 C689 1.370 . S
C688 C690 1.363 . S
C688 H704 0.931 . S
C689 C688 1.370 . S
C689 C693 1.408 . S
C690 C688 1.363 . S
C690 C691 1.370 . S
C690 C694 1.524 . S
C691 C683 1.503 . S
C691 C690 1.370 . S
C691 C692 1.403 . S
C692 C691 1.403 . S
C692 C693 1.404 . S
C692 C695 1.539 1_556 S
C693 C689 1.408 . S
C693 C692 1.404 . S
C693 H705 0.930 . S
C694 C690 1.524 . S
C694 H706 0.956 . S
C694 H707 0.961 . S
C694 H708 0.961 . S
C695 C692 1.539 1_554 S
C695 H709 0.958 . S
C695 H710 0.961 . S
C695 H711 0.960 . S
H696 C680 0.931 . S
H697 C685 0.929 . S
H698 C686 0.960 . S
H699 C686 0.962 . S
H700 C686 0.960 . S
H701 C687 0.961 . S
H702 C687 0.961 . S
H703 C687 0.961 . S
H704 C688 0.931 . S
H705 C693 0.930 . S
H706 C694 0.956 . S
H707 C694 0.961 . S
H708 C694 0.961 . S
H709 C695 0.958 . S
H710 C695 0.961 . S
H711 C695 0.960 . S
C712 C713 1.391 . S
C712 C714 1.394 . S
C712 H728 0.931 . S
C713 C712 1.391 . S
C713 C717 1.368 1_556 S
C714 C712 1.394 . S
C714 C715 1.369 . S
C714 C718 1.531 . S
C715 C714 1.369 . S
C715 C716 1.410 . S
C715 C723 1.503 . S
C716 C715 1.410 . S
C716 C717 1.388 1_556 S
C716 C719 1.511 1_556 S
C717 C713 1.368 1_554 S
C717 C716 1.388 1_554 S
C717 H729 0.941 . S
C718 C714 1.531 . S
C718 H730 0.960 . S
C718 H731 0.962 . S
C718 H732 0.960 . S
C719 C716 1.511 1_554 S
C719 H733 0.961 . S
C719 H734 0.961 . S
C719 H735 0.961 . S
C720 C721 1.370 . S
C720 C722 1.363 . S
C720 H736 0.931 . S
C721 C720 1.370 . S
C721 C725 1.408 . S
C722 C720 1.363 . S
C722 C723 1.370 . S
C722 C726 1.524 . S
C723 C715 1.503 . S
C723 C722 1.370 . S
C723 C724 1.403 . S
C724 C723 1.403 . S
C724 C725 1.404 . S
C724 C727 1.539 . S
C725 C721 1.408 . S
C725 C724 1.404 . S
C725 H737 0.930 . S
C726 C722 1.524 . S
C726 H738 0.956 . S
C726 H739 0.961 . S
C726 H740 0.961 . S
C727 C724 1.539 . S
C727 H741 0.958 . S
C727 H742 0.961 . S
C727 H743 0.960 . S
H728 C712 0.931 . S
H729 C717 0.941 . S
H730 C718 0.960 . S
H731 C718 0.962 . S
H732 C718 0.960 . S
H733 C719 0.961 . S
H734 C719 0.961 . S
H735 C719 0.961 . S
H736 C720 0.931 . S
H737 C725 0.930 . S
H738 C726 0.956 . S
H739 C726 0.961 . S
H740 C726 0.961 . S
H741 C727 0.958 . S
H742 C727 0.961 . S
H743 C727 0.960 . S
C744 C745 1.391 . S
C744 C746 1.394 . S
C744 H760 0.931 . S
C745 C744 1.391 . S
C745 C749 1.376 . S
C746 C744 1.394 . S
C746 C747 1.369 . S
C746 C750 1.531 . S
C747 C746 1.369 . S
C747 C748 1.410 . S
C747 C755 1.503 . S
C748 C747 1.410 . S
C748 C749 1.392 . S
C748 C751 1.487 1_455 S
C749 C745 1.376 . S
C749 C748 1.392 . S
C749 H761 0.929 . S
C750 C746 1.531 . S
C750 H762 0.960 . S
C750 H763 0.962 . S
C750 H764 0.960 . S
C751 C748 1.487 1_655 S
C751 H765 0.965 . S
C751 H766 0.954 1_654 S
C751 H767 0.989 . S
C752 C753 1.370 . S
C752 C754 1.363 . S
C752 H768 0.931 . S
C753 C752 1.370 . S
C753 C757 1.408 1_556 S
C754 C752 1.363 . S
C754 C755 1.370 1_556 S
C754 C758 1.524 . S
C755 C747 1.503 . S
C755 C754 1.370 1_554 S
C755 C756 1.403 . S
C756 C755 1.403 . S
C756 C757 1.404 . S
C756 C759 1.539 1_455 S
C757 C753 1.408 1_554 S
C757 C756 1.404 . S
C757 H769 0.930 1_455 S
C758 C754 1.524 . S
C758 H770 0.956 . S
C758 H771 0.961 . S
C758 H772 0.961 . S
C759 C756 1.539 1_655 S
C759 H773 0.958 . S
C759 H774 0.961 . S
C759 H775 0.960 . S
H760 C744 0.931 . S
H761 C749 0.929 . S
H762 C750 0.960 . S
H763 C750 0.962 . S
H764 C750 0.960 . S
H765 C751 0.965 . S
H766 C751 0.954 1_456 S
H767 C751 0.989 . S
H768 C752 0.931 . S
H769 C757 0.930 1_655 S
H770 C758 0.956 . S
H771 C758 0.961 . S
H772 C758 0.961 . S
H773 C759 0.958 . S
H774 C759 0.961 . S
H775 C759 0.960 . S
C776 C777 1.391 . S
C776 C778 1.394 . S
C776 H792 0.931 . S
C777 C776 1.391 . S
C777 C781 1.376 . S
C778 C776 1.394 . S
C778 C779 1.369 . S
C778 C782 1.531 1_554 S
C779 C778 1.369 . S
C779 C780 1.410 . S
C779 C787 1.503 1_554 S
C780 C779 1.410 . S
C780 C781 1.392 . S
C780 C783 1.511 . S
C781 C777 1.376 . S
C781 C780 1.392 . S
C781 H793 0.929 . S
C782 C778 1.531 1_556 S
C782 H794 0.960 . S
C782 H795 0.962 . S
C782 H796 0.960 . S
C783 C780 1.511 . S
C783 H797 0.961 . S
C783 H798 0.961 . S
C783 H799 0.961 . S
C784 C785 1.370 . S
C784 C786 1.363 . S
C784 H800 0.931 1_545 S
C785 C784 1.370 . S
C785 C789 1.408 . S
C786 C784 1.363 . S
C786 C787 1.370 . S
C786 C790 1.524 1_546 S
C787 C779 1.503 1_556 S
C787 C786 1.370 . S
C787 C788 1.403 . S
C788 C787 1.403 . S
C788 C789 1.404 . S
C788 C791 1.539 . S
C789 C785 1.408 . S
C789 C788 1.404 . S
C789 H801 0.930 . S
C790 C786 1.524 1_564 S
C790 H802 0.956 1_554 S
C790 H803 0.961 . S
C790 H804 0.961 . S
C791 C788 1.539 . S
C791 H805 0.958 . S
C791 H806 0.961 . S
C791 H807 0.960 1_556 S
H792 C776 0.931 . S
H793 C781 0.929 . S
H794 C782 0.960 . S
H795 C782 0.962 . S
H796 C782 0.960 . S
H797 C783 0.961 . S
H798 C783 0.961 . S
H799 C783 0.961 . S
H800 C784 0.931 1_565 S
H801 C789 0.930 . S
H802 C790 0.956 1_556 S
H803 C790 0.961 . S
H804 C790 0.961 . S
H805 C791 0.958 . S
H806 C791 0.961 . S
H807 C791 0.960 1_554 S
C808 C809 1.391 . S
C808 C810 1.394 . S
C808 H824 0.931 . S
C809 C808 1.391 . S
C809 C813 1.376 . S
C810 C808 1.394 . S
C810 C811 1.369 . S
C810 C814 1.531 1_554 S
C811 C810 1.369 . S
C811 C812 1.410 . S
C811 C819 1.503 1_554 S
C812 C811 1.410 . S
C812 C813 1.392 . S
C812 C815 1.511 . S
C813 C809 1.376 . S
C813 C812 1.392 . S
C813 H825 0.929 . S
C814 C810 1.531 1_556 S
C814 H826 0.960 . S
C814 H827 0.962 . S
C814 H828 0.960 . S
C815 C812 1.511 . S
C815 H829 0.961 . S
C815 H830 0.961 . S
C815 H831 0.961 . S
C816 C817 1.370 . S
C816 C818 1.363 1_556 S
C816 H832 0.931 . S
C817 C816 1.370 . S
C817 C821 1.408 . S
C818 C816 1.363 1_554 S
C818 C819 1.370 1_554 S
C818 C822 1.524 . S
C819 C811 1.503 1_556 S
C819 C818 1.370 1_556 S
C819 C820 1.403 . S
C820 C819 1.403 . S
C820 C821 1.404 . S
C820 C823 1.539 . S
C821 C817 1.408 . S
C821 C820 1.404 . S
C821 H833 0.930 . S
C822 C818 1.524 . S
C822 H834 0.956 . S
C822 H835 0.961 . S
C822 H836 0.961 . S
C823 C820 1.539 . S
C823 H837 0.958 . S
C823 H838 0.961 . S
C823 H839 0.960 . S
H824 C808 0.931 . S
H825 C813 0.929 . S
H826 C814 0.960 . S
H827 C814 0.962 . S
H828 C814 0.960 . S
H829 C815 0.961 . S
H830 C815 0.961 . S
H831 C815 0.961 . S
H832 C816 0.931 . S
H833 C821 0.930 . S
H834 C822 0.956 . S
H835 C822 0.961 . S
H836 C822 0.961 . S
H837 C823 0.958 . S
H838 C823 0.961 . S
H839 C823 0.960 . S
C840 C841 1.391 . S
C840 C842 1.394 . S
C840 H856 0.931 . S
C841 C840 1.391 . S
C841 C845 1.376 . S
C842 C840 1.394 . S
C842 C843 1.369 . S
C842 C846 1.531 . S
C843 C842 1.369 . S
C843 C844 1.410 . S
C843 C851 1.503 . S
C844 C843 1.410 . S
C844 C845 1.392 . S
C844 C847 1.511 1_554 S
C845 C841 1.376 . S
C845 C844 1.392 . S
C845 H857 0.929 . S
C846 C842 1.531 . S
C846 H858 0.960 . S
C846 H859 0.962 . S
C846 H860 0.960 . S
C847 C844 1.511 1_556 S
C847 H861 0.961 . S
C847 H862 0.961 . S
C847 H863 0.961 . S
C848 C849 1.370 . S
C848 C850 1.363 . S
C848 H864 0.931 . S
C849 C848 1.370 . S
C849 C853 1.408 . S
C850 C848 1.363 . S
C850 C851 1.370 1_556 S
C850 C854 1.524 . S
C851 C843 1.503 . S
C851 C850 1.370 1_554 S
C851 C852 1.403 . S
C852 C851 1.403 . S
C852 C853 1.404 1_554 S
C852 C855 1.539 . S
C853 C849 1.408 . S
C853 C852 1.404 1_556 S
C853 H865 0.930 . S
C854 C850 1.524 . S
C854 H866 0.956 1_556 S
C854 H867 0.961 . S
C854 H868 0.961 . S
C855 C852 1.539 . S
C855 H869 0.958 . S
C855 H870 0.961 . S
C855 H871 0.960 . S
H856 C840 0.931 . S
H857 C845 0.929 . S
H858 C846 0.960 . S
H859 C846 0.962 . S
H860 C846 0.960 . S
H861 C847 0.961 . S
H862 C847 0.961 . S
H863 C847 0.961 . S
H864 C848 0.931 . S
H865 C853 0.930 . S
H866 C854 0.956 1_554 S
H867 C854 0.961 . S
H868 C854 0.961 . S
H869 C855 0.958 . S
H870 C855 0.961 . S
H871 C855 0.960 . S
C872 C873 1.391 . S
C872 C874 1.394 . S
C872 H888 0.931 . S
C873 C872 1.391 . S
C873 C877 1.376 . S
C874 C872 1.394 . S
C874 C875 1.369 . S
C874 C878 1.531 1_655 S
C875 C874 1.369 . S
C875 C876 1.410 . S
C875 C883 1.503 . S
C876 C875 1.410 . S
C876 C877 1.392 . S
C876 C879 1.511 . S
C877 C873 1.376 . S
C877 C876 1.392 . S
C877 H889 0.929 . S
C878 C874 1.531 1_455 S
C878 H890 0.960 . S
C878 H891 0.962 . S
C878 H892 0.960 . S
C879 C876 1.511 . S
C879 H893 0.961 . S
C879 H894 0.961 . S
C879 H895 0.961 . S
C880 C881 1.370 . S
C880 C882 1.363 . S
C880 H896 0.931 1_655 S
C881 C880 1.370 . S
C881 C885 1.408 . S
C882 C880 1.363 . S
C882 C883 1.370 . S
C882 C886 1.522 1_655 S
C883 C875 1.503 . S
C883 C882 1.370 . S
C883 C884 1.403 . S
C884 C883 1.403 . S
C884 C885 1.404 . S
C884 C887 1.539 . S
C885 C881 1.408 . S
C885 C884 1.404 . S
C885 H897 0.930 . S
C886 C882 1.522 1_455 S
C886 H898 0.960 . S
C886 H899 0.957 1_455 S
C886 H900 0.963 . S
C887 C884 1.539 . S
C887 H901 0.958 . S
C887 H902 0.961 . S
C887 H903 0.960 . S
H888 C872 0.931 . S
H889 C877 0.929 . S
H890 C878 0.960 . S
H891 C878 0.962 . S
H892 C878 0.960 . S
H893 C879 0.961 . S
H894 C879 0.961 . S
H895 C879 0.961 . S
H896 C880 0.931 1_455 S
H897 C885 0.930 . S
H898 C886 0.960 . S
H899 C886 0.957 1_655 S
H900 C886 0.963 . S
H901 C887 0.958 . S
H902 C887 0.961 . S
H903 C887 0.960 . S
C904 C905 1.391 . S
C904 C906 1.394 . S
C904 H920 0.931 . S
C905 C904 1.391 . S
C905 C909 1.376 . S
C906 C904 1.394 . S
C906 C907 1.369 . S
C906 C910 1.531 . S
C907 C906 1.369 . S
C907 C908 1.410 . S
C907 C915 1.503 . S
C908 C907 1.410 . S
C908 C909 1.392 . S
C908 C911 1.511 . S
C909 C905 1.376 . S
C909 C908 1.392 . S
C909 H921 0.929 . S
C910 C906 1.531 . S
C910 H922 0.960 . S
C910 H923 0.962 1_565 S
C910 H924 0.960 . S
C911 C908 1.511 . S
C911 H925 0.961 . S
C911 H926 0.961 . S
C911 H927 0.961 . S
C912 C913 1.370 1_545 S
C912 C914 1.363 1_545 S
C912 H928 0.931 . S
C913 C912 1.370 1_565 S
C913 C917 1.408 . S
C914 C912 1.363 1_565 S
C914 C915 1.370 . S
C914 C918 1.524 1_565 S
C915 C907 1.503 . S
C915 C914 1.370 . S
C915 C916 1.403 . S
C916 C915 1.403 . S
C916 C917 1.404 . S
C916 C919 1.539 . S
C917 C913 1.408 . S
C917 C916 1.404 . S
C917 H929 0.930 . S
C918 C914 1.524 1_545 S
C918 H930 0.956 . S
C918 H931 0.961 . S
C918 H932 0.961 . S
C919 C916 1.539 . S
C919 H933 0.958 . S
C919 H934 0.961 . S
C919 H935 0.960 . S
H920 C904 0.931 . S
H921 C909 0.929 . S
H922 C910 0.960 . S
H923 C910 0.962 1_545 S
H924 C910 0.960 . S
H925 C911 0.961 . S
H926 C911 0.961 . S
H927 C911 0.961 . S
H928 C912 0.931 . S
H929 C917 0.930 . S
H930 C918 0.956 . S
H931 C918 0.961 . S
H932 C918 0.961 . S
H933 C919 0.958 . S
H934 C919 0.961 . S
H935 C919 0.960 . S
C936 C937 1.391 . S
C936 C938 1.394 . S
C936 H952 0.931 . S
C937 C936 1.391 . S
C937 C941 1.376 . S
C938 C936 1.394 . S
C938 C939 1.369 . S
C938 C942 1.531 . S
C939 C938 1.369 . S
C939 C940 1.410 . S
C939 C947 1.503 . S
C940 C939 1.410 . S
C940 C941 1.392 . S
C940 C943 1.511 . S
C941 C937 1.376 . S
C941 C940 1.392 . S
C941 H953 0.929 . S
C942 C938 1.531 . S
C942 H954 0.960 . S
C942 H955 0.962 . S
C942 H956 0.960 . S
C943 C940 1.511 . S
C943 H957 0.961 . S
C943 H958 0.961 . S
C943 H959 0.961 . S
C944 C945 1.370 . S
C944 C946 1.363 . S
C944 H960 0.931 . S
C945 C944 1.370 . S
C945 C949 1.408 . S
C946 C944 1.363 . S
C946 C947 1.370 . S
C946 C950 1.524 . S
C947 C939 1.503 . S
C947 C946 1.370 . S
C947 C948 1.403 . S
C948 C947 1.403 . S
C948 C949 1.404 . S
C948 C951 1.539 . S
C949 C945 1.408 . S
C949 C948 1.404 . S
C949 H961 0.930 . S
C950 C946 1.524 . S
C950 H962 0.956 . S
C950 H963 0.961 . S
C950 H964 0.961 . S
C951 C948 1.539 . S
C951 H965 0.958 . S
C951 H966 0.961 . S
C951 H967 0.960 . S
H952 C936 0.931 . S
H953 C941 0.929 . S
H954 C942 0.960 . S
H955 C942 0.962 . S
H956 C942 0.960 . S
H957 C943 0.961 . S
H958 C943 0.961 . S
H959 C943 0.961 . S
H960 C944 0.931 . S
H961 C949 0.930 . S
H962 C950 0.956 . S
H963 C950 0.961 . S
H964 C950 0.961 . S
H965 C951 0.958 . S
H966 C951 0.961 . S
H967 C951 0.960 . S
C968 C969 1.391 . S
C968 C970 1.394 . S
C968 H984 0.931 . S
C969 C968 1.391 . S
C969 C973 1.376 . S
C970 C968 1.394 . S
C970 C971 1.369 . S
C970 C974 1.531 . S
C971 C970 1.369 . S
C971 C972 1.410 . S
C971 C979 1.503 . S
C972 C971 1.410 . S
C972 C973 1.392 . S
C972 C975 1.511 . S
C973 C969 1.376 . S
C973 C972 1.392 . S
C973 H985 0.929 . S
C974 C970 1.531 . S
C974 H986 0.960 . S
C974 H987 0.962 . S
C974 H988 0.960 . S
C975 C972 1.511 . S
C975 H989 0.961 . S
C975 H990 0.961 . S
C975 H991 0.961 . S
C976 C977 1.370 . S
C976 C978 1.363 . S
C976 H992 0.931 . S
C977 C976 1.370 . S
C977 C981 1.408 . S
C978 C976 1.363 . S
C978 C979 1.370 . S
C978 C982 1.524 . S
C979 C971 1.503 . S
C979 C978 1.370 . S
C979 C980 1.403 . S
C980 C979 1.403 . S
C980 C981 1.404 . S
C980 C983 1.539 . S
C981 C977 1.408 . S
C981 C980 1.404 . S
C981 H993 0.930 . S
C982 C978 1.524 . S
C982 H994 0.956 . S
C982 H995 0.961 . S
C982 H996 0.961 . S
C983 C980 1.539 . S
C983 H997 0.958 . S
C983 H998 0.961 . S
C983 H999 0.960 . S
H984 C968 0.931 . S
H985 C973 0.929 . S
H986 C974 0.960 . S
H987 C974 0.962 . S
H988 C974 0.960 . S
H989 C975 0.961 . S
H990 C975 0.961 . S
H991 C975 0.961 . S
H992 C976 0.931 . S
H993 C981 0.930 . S
H994 C982 0.956 . S
H995 C982 0.961 . S
H996 C982 0.961 . S
H997 C983 0.958 . S
H998 C983 0.961 . S
H999 C983 0.960 . S
C233 C125 1.475 . S
C241 C153 1.655 . S
C273 C188 1.598 . S
C265 C144 1.406 . S
C305 C193 1.385 . S
C297 C87 1.281 . S
C337 C213 1.498 . S
C329 C106 1.396 . S
C369 C161 1.657 1_565 S
C361 C49 1.578 1_556 S
C393 C68 1.593 1_556 S
C401 C178 1.596 . S
C425 C11 1.342 1_556 S
C433 C201 1.380 . S
C457 C30 1.389 . S
C465 C221 1.497 1_655 S
C497 C171 1.356 . S
C489 C97 1.324 . S
C529 C180 1.125 . S
C521 C116 1.102 . S
C561 C211 1.388 . S
C553 C135 1.321 . S
C585 C78 1.101 . S
C593 C231 1.090 . S
C617 C21 1.348 . S
C625 C160 1.368 1_655 S
C657 C191 1.108 1_565 S
C649 C40 1.033 1_556 S
C689 C200 1.387 . S
C681 C59 1.321 1_556 S
C713 C2 1.080 1_556 S
C721 C220 1.081 . S
C745 C101 1.420 . S
C753 C158 1.450 . S
C777 C120 1.481 . S
C785 C181 1.522 . S
C817 C198 1.564 . S
C809 C139 1.546 . S
C849 C218 1.592 . S
C841 C82 1.556 . S
C873 C25 1.430 . S
C881 C168 1.447 . S
C913 C173 1.522 . S
C905 C44 1.467 . S
C945 C208 1.552 . S
C937 C63 1.494 . S
C969 C6 1.595 . S
C977 C228 1.601 . S
