# Generated by pormake.
# Topology nom, (4,4)-cn, num edge types: 1
# Building blocks:
#     Node 0, Type 0, BuildingBlock: NAHDIM_clean_linker_0, # of connection points: 4
#     Node 1, Type 0, BuildingBlock: NAHDIM_clean_linker_0, # of connection points: 4
#     Node 2, Type 0, BuildingBlock: NAHDIM_clean_linker_0, # of connection points: 4
#     Node 3, Type 0, BuildingBlock: NAHDIM_clean_linker_0, # of connection points: 4
#     Node 4, Type 0, BuildingBlock: NAHDIM_clean_linker_0, # of connection points: 4
#     Node 5, Type 0, BuildingBlock: NAHDIM_clean_linker_0, # of connection points: 4
#     Node 6, Type 1, BuildingBlock: AZAVOO_clean_sbu_0, # of connection points: 4
#     Node 7, Type 1, BuildingBlock: AZAVOO_clean_sbu_0, # of connection points: 4
#     Node 8, Type 1, BuildingBlock: AZAVOO_clean_sbu_0, # of connection points: 4
#     Node 9, Type 1, BuildingBlock: AZAVOO_clean_sbu_0, # of connection points: 4
#     Node 10, Type 1, BuildingBlock: AZAVOO_clean_sbu_0, # of connection points: 4
#     Node 11, Type 1, BuildingBlock: AZAVOO_clean_sbu_0, # of connection points: 4
#     Edge 12, Type (0, 1), BuildingBlock: AJUNOK_clean_linker_0, # of connection points: 2
#     Edge 13, Type (0, 1), BuildingBlock: AJUNOK_clean_linker_0, # of connection points: 2
#     Edge 14, Type (0, 1), BuildingBlock: AJUNOK_clean_linker_0, # of connection points: 2
#     Edge 15, Type (0, 1), BuildingBlock: AJUNOK_clean_linker_0, # of connection points: 2
#     Edge 16, Type (0, 1), BuildingBlock: AJUNOK_clean_linker_0, # of connection points: 2
#     Edge 17, Type (0, 1), BuildingBlock: AJUNOK_clean_linker_0, # of connection points: 2
#     Edge 18, Type (0, 1), BuildingBlock: AJUNOK_clean_linker_0, # of connection points: 2
#     Edge 19, Type (0, 1), BuildingBlock: AJUNOK_clean_linker_0, # of connection points: 2
#     Edge 20, Type (0, 1), BuildingBlock: AJUNOK_clean_linker_0, # of connection points: 2
#     Edge 21, Type (0, 1), BuildingBlock: AJUNOK_clean_linker_0, # of connection points: 2
#     Edge 22, Type (0, 1), BuildingBlock: AJUNOK_clean_linker_0, # of connection points: 2
#     Edge 23, Type (0, 1), BuildingBlock: AJUNOK_clean_linker_0, # of connection points: 2
#     Edge 24, Type (0, 1), BuildingBlock: AJUNOK_clean_linker_0, # of connection points: 2
#     Edge 25, Type (0, 1), BuildingBlock: AJUNOK_clean_linker_0, # of connection points: 2
#     Edge 26, Type (0, 1), BuildingBlock: AJUNOK_clean_linker_0, # of connection points: 2
#     Edge 27, Type (0, 1), BuildingBlock: AJUNOK_clean_linker_0, # of connection points: 2
#     Edge 28, Type (0, 1), BuildingBlock: AJUNOK_clean_linker_0, # of connection points: 2
#     Edge 29, Type (0, 1), BuildingBlock: AJUNOK_clean_linker_0, # of connection points: 2
#     Edge 30, Type (0, 1), BuildingBlock: AJUNOK_clean_linker_0, # of connection points: 2
#     Edge 31, Type (0, 1), BuildingBlock: AJUNOK_clean_linker_0, # of connection points: 2
#     Edge 32, Type (0, 1), BuildingBlock: AJUNOK_clean_linker_0, # of connection points: 2
#     Edge 33, Type (0, 1), BuildingBlock: AJUNOK_clean_linker_0, # of connection points: 2
#     Edge 34, Type (0, 1), BuildingBlock: AJUNOK_clean_linker_0, # of connection points: 2
#     Edge 35, Type (0, 1), BuildingBlock: AJUNOK_clean_linker_0, # of connection points: 2
# Relax obj value: 0.098
# Max RMSD: 0.172
# Mean RMSD: 0.148
data_MOF--net-nom--node1-AZAVOO_clean_sbu_0--node2-NAHDIM_clean_linker_0--edge1-AJUNOK_clean_linker_0
_symmetry_space_group_name_H-M    P1
_symmetry_Int_Tables_number       1
_symmetry_cell_setting            triclinic
loop_
_symmetry_equiv_pos_as_xyz
'x, y, z'
_cell_length_a     46.885058
_cell_length_b     47.398851
_cell_length_c     55.08153
_cell_angle_alpha  91.142641
_cell_angle_beta   91.065401
_cell_angle_gamma 119.96795
loop_
_atom_site_label
_atom_site_type_symbol
_atom_site_fract_x
_atom_site_fract_y
_atom_site_fract_z
_atom_type_partial_charge
C0 C 0.18515 0.59067 0.22629 0.0
C1 C 0.18272 0.61224 0.24634 0.0
C2 C 0.12421 0.59234 0.25363 0.0
C3 C 0.11637 0.56176 0.26249 0.0
C4 C 0.08542 0.54134 0.27212 0.0
C5 C 0.06245 0.55234 0.27388 0.0
C6 C 0.07037 0.58317 0.26504 0.0
C7 C 0.10097 0.60248 0.25465 0.0
C8 C 0.07735 0.50804 0.2804 0.0
C9 C 0.04661 0.59584 0.26664 0.0
C10 C 0.90221 0.50219 0.1766 0.0
C11 C 0.87239 0.47 0.18417 0.0
C12 C 0.89971 0.46043 0.21916 0.0
C13 C 0.90314 0.48638 0.23417 0.0
C14 C 0.92512 0.49765 0.25442 0.0
C15 C 0.94288 0.4817 0.26044 0.0
C16 C 0.9371 0.45369 0.24667 0.0
C17 C 0.91567 0.44352 0.22614 0.0
C18 C 0.93066 0.5277 0.26855 0.0
C19 C 0.95486 0.43547 0.25288 0.0
C20 C 0.86111 0.44227 0.41251 0.0
C21 C 0.8792 0.47606 0.41087 0.0
C22 C 0.91011 0.49131 0.4003 0.0
C23 C 0.92361 0.4722 0.39186 0.0
C24 C 0.90599 0.43803 0.39438 0.0
C25 C 0.87472 0.42334 0.40448 0.0
C26 C 0.92823 0.52783 0.39801 0.0
C27 C 0.92017 0.41707 0.38634 0.0
C28 C 0.18037 0.59933 0.43575 0.0
C29 C 0.15453 0.57295 0.45141 0.0
C30 C 0.10007 0.56195 0.43637 0.0
C31 C 0.08392 0.57918 0.43085 0.0
C32 C 0.05642 0.56598 0.41471 0.0
C33 C 0.04452 0.53448 0.40415 0.0
C34 C 0.06008 0.51644 0.41024 0.0
C35 C 0.08759 0.53026 0.42638 0.0
C36 C 0.04022 0.58575 0.4088 0.0
C37 C 0.04752 0.48247 0.39972 0.0
C38 C 0.03014 0.53177 0.28497 0.0
C39 C 0.00236 0.51548 0.26948 0.0
C40 C 0.97084 0.49698 0.27857 0.0
C41 C 0.96684 0.49434 0.30398 0.0
C42 C 0.93557 0.4763 0.31389 0.0
C43 C 0.93194 0.47456 0.33896 0.0
C44 C 0.95955 0.48997 0.35507 0.0
C45 C 0.95625 0.48818 0.38057 0.0
C46 C 0.98429 0.50287 0.39599 0.0
C47 C 0.01579 0.52027 0.38672 0.0
C48 C 0.01954 0.52352 0.36134 0.0
C49 C 0.05074 0.54221 0.35148 0.0
C50 C 0.05421 0.54538 0.32651 0.0
C51 C 0.02673 0.52925 0.31039 0.0
C52 C 0.99497 0.51038 0.31992 0.0
C53 C 0.99135 0.50787 0.34546 0.0
C54 C 0.79864 0.37468 0.43525 0.0
C55 C 0.80393 0.3988 0.41528 0.0
O56 O 0.15348 0.61258 0.2436 0.0
O57 O 0.12677 0.5763 0.45196 0.0
O58 O 0.8307 0.42889 0.42194 0.0
O59 O 0.88243 0.45172 0.19751 0.0
H60 H 0.18378 0.60244 0.26431 0.0
H61 H 0.16486 0.56512 0.22733 0.0
H62 H 0.1836 0.59944 0.20802 0.0
H63 H 0.20887 0.59086 0.22833 0.0
H64 H 0.13399 0.55341 0.26167 0.0
H65 H 0.10719 0.62601 0.24763 0.0
H66 H 0.05224 0.48933 0.27379 0.0
H67 H 0.09526 0.50096 0.2739 0.0
H68 H 0.07779 0.50803 0.30055 0.0
H69 H 0.05811 0.62183 0.26179 0.0
H70 H 0.02516 0.58123 0.25403 0.0
H71 H 0.03722 0.59326 0.2853 0.0
H72 H 0.8562 0.47538 0.1955 0.0
H73 H 0.89399 0.51554 0.16462 0.0
H74 H 0.91545 0.51851 0.19253 0.0
H75 H 0.91986 0.49738 0.16669 0.0
H76 H 0.88974 0.49877 0.22967 0.0
H77 H 0.91235 0.42305 0.21483 0.0
H78 H 0.92397 0.52165 0.28772 0.0
H79 H 0.95714 0.54665 0.26856 0.0
H80 H 0.91591 0.53807 0.26092 0.0
H81 H 0.94344 0.4112 0.24337 0.0
H82 H 0.98087 0.44987 0.24744 0.0
H83 H 0.95497 0.43217 0.27278 0.0
H84 H 0.80856 0.3889 0.39823 0.0
H85 H 0.86855 0.49041 0.41734 0.0
H86 H 0.86121 0.39719 0.40632 0.0
H87 H 0.93597 0.53424 0.37903 0.0
H88 H 0.91297 0.53874 0.40327 0.0
H89 H 0.95082 0.53886 0.4099 0.0
H90 H 0.90486 0.39138 0.39171 0.0
H91 H 0.92198 0.4174 0.36628 0.0
H92 H 0.94546 0.42701 0.39429 0.0
H93 H 0.14866 0.54922 0.44291 0.0
H94 H 0.20305 0.59742 0.43557 0.0
H95 H 0.17055 0.59615 0.41677 0.0
H96 H 0.18681 0.62404 0.44271 0.0
H97 H 0.09331 0.60335 0.43897 0.0
H98 H 0.09858 0.51581 0.43143 0.0
H99 H 0.03993 0.58876 0.38888 0.0
H100 H 0.01423 0.57257 0.41444 0.0
H101 H 0.05298 0.61023 0.41802 0.0
H102 H 0.06193 0.47132 0.40659 0.0
H103 H 0.02131 0.46664 0.40425 0.0
H104 H 0.0487 0.48317 0.37961 0.0
H105 H 0.00528 0.51767 0.24998 0.0
H106 H 0.91355 0.46362 0.30234 0.0
H107 H 0.90722 0.46073 0.34556 0.0
H108 H 0.98153 0.50095 0.41551 0.0
H109 H 0.07282 0.55488 0.36296 0.0
H110 H 0.07881 0.56048 0.32003 0.0
H111 H 0.79358 0.38308 0.45278 0.0
H112 H 0.77797 0.35001 0.42998 0.0
H113 H 0.82112 0.37275 0.43795 0.0
C114 C 0.42929 0.84049 0.60157 0.0
C115 C 0.40694 0.83848 0.58007 0.0
C116 C 0.4232 0.89568 0.57318 0.0
C117 C 0.45474 0.90503 0.56468 0.0
C118 C 0.47573 0.93692 0.55742 0.0
C119 C 0.46472 0.9598 0.55801 0.0
C120 C 0.43303 0.95054 0.56647 0.0
C121 C 0.41278 0.91863 0.57411 0.0
C122 C 0.50965 0.94607 0.54894 0.0
C123 C 0.42045 0.97427 0.56715 0.0
C124 C 0.64148 0.17315 0.66569 0.0
C125 C 0.63272 0.15102 0.64372 0.0
C126 C 0.58799 0.12409 0.61298 0.0
C127 C 0.55887 0.12168 0.60374 0.0
C128 C 0.53865 0.09712 0.58652 0.0
C129 C 0.54809 0.07466 0.57813 0.0
C130 C 0.5776 0.07698 0.58733 0.0
C131 C 0.59722 0.10161 0.60469 0.0
C132 C 0.50731 0.09528 0.57714 0.0
C133 C 0.58855 0.05359 0.57864 0.0
C134 C 0.62065 0.1714 0.44395 0.0
C135 C 0.5882 0.16429 0.44769 0.0
C136 C 0.56294 0.13211 0.45051 0.0
C137 C 0.57049 0.10669 0.45014 0.0
C138 C 0.60271 0.11356 0.44482 0.0
C139 C 0.62732 0.14591 0.44146 0.0
C140 C 0.52856 0.12551 0.45517 0.0
C141 C 0.61155 0.08701 0.44399 0.0
C142 C 0.43619 0.86101 0.39288 0.0
C143 C 0.45524 0.88759 0.37469 0.0
C144 C 0.4637 0.93807 0.3953 0.0
C145 C 0.4517 0.95972 0.39722 0.0
C146 C 0.46501 0.98561 0.4146 0.0
C147 C 0.49152 0.99032 0.43012 0.0
C148 C 0.50432 0.96897 0.42794 0.0
C149 C 0.48993 0.94276 0.41094 0.0
C150 C 0.45057 0.00772 0.41653 0.0
C151 C 0.5333 0.97375 0.44362 0.0
C152 C 0.48619 0.9931 0.54918 0.0
C153 C 0.50501 0.01818 0.56631 0.0
C154 C 0.5278 0.04946 0.55906 0.0
C155 C 0.53205 0.05598 0.53404 0.0
C156 C 0.55534 0.08688 0.52611 0.0
C157 C 0.55987 0.0929 0.5015 0.0
C158 C 0.54128 0.06826 0.48377 0.0
C159 C 0.5461 0.07408 0.45867 0.0
C160 C 0.52861 0.0486 0.44157 0.0
C161 C 0.50588 0.01729 0.44885 0.0
C162 C 0.49949 0.01148 0.47382 0.0
C163 C 0.4757 0.98074 0.48174 0.0
C164 C 0.47082 0.97482 0.50638 0.0
C165 C 0.48968 0.99936 0.52408 0.0
C166 C 0.51295 0.03082 0.51651 0.0
C167 C 0.5177 0.03693 0.49134 0.0
C168 C 0.68315 0.25427 0.46139 0.0
C169 C 0.6474 0.22963 0.45406 0.0
O170 O 0.4022 0.86511 0.58077 0.0
O171 O 0.44933 0.9133 0.3782 0.0
O172 O 0.64619 0.20242 0.44318 0.0
O173 O 0.60622 0.14811 0.62994 0.0
H174 H 0.41877 0.83817 0.56286 0.0
H175 H 0.41854 0.84163 0.61912 0.0
H176 H 0.454 0.8625 0.60078 0.0
H177 H 0.43255 0.81881 0.60116 0.0
H178 H 0.46341 0.88779 0.56369 0.0
H179 H 0.38848 0.91131 0.58068 0.0
H180 H 0.52852 0.96935 0.55795 0.0
H181 H 0.51616 0.927 0.5527 0.0
H182 H 0.51066 0.94971 0.52907 0.0
H183 H 0.39456 0.96279 0.57297 0.0
H184 H 0.43619 0.99497 0.57993 0.0
H185 H 0.42201 0.98437 0.54889 0.0
H186 H 0.65389 0.15508 0.63245 0.0
H187 H 0.63109 0.1417 0.69452 0.0
H188 H 0.667 0.19386 0.66252 0.0
H189 H 0.62913 0.1881 0.663 0.0
H190 H 0.55188 0.13904 0.61024 0.0
H191 H 0.6198 0.10326 0.61156 0.0
H192 H 0.50907 0.09999 0.55741 0.0
H193 H 0.48612 0.07041 0.57945 0.0
H194 H 0.50233 0.11322 0.58661 0.0
H195 H 0.61259 0.05917 0.58706 0.0
H196 H 0.56976 0.02834 0.58301 0.0
H197 H 0.59069 0.05445 0.55859 0.0
H198 H 0.63347 0.22257 0.47115 0.0
H199 H 0.58255 0.18379 0.44884 0.0
H200 H 0.65233 0.15163 0.43811 0.0
H201 H 0.52359 0.12106 0.47475 0.0
H202 H 0.5253 0.14637 0.45025 0.0
H203 H 0.51005 0.10337 0.44471 0.0
H204 H 0.63782 0.09645 0.4398 0.0
H205 H 0.60666 0.07499 0.46175 0.0
H206 H 0.59588 0.06814 0.42995 0.0
H207 H 0.48193 0.89636 0.37746 0.0
H208 H 0.44046 0.84019 0.38981 0.0
H209 H 0.4447 0.8708 0.41173 0.0
H210 H 0.40935 0.85207 0.39113 0.0
H211 H 0.43149 0.95602 0.38518 0.0
H212 H 0.49957 0.92631 0.41012 0.0
H213 H 0.44393 0.00916 0.43558 0.0
H214 H 0.46926 0.0327 0.4115 0.0
H215 H 0.42832 0.99925 0.40449 0.0
H216 H 0.54362 0.95847 0.43706 0.0
H217 H 0.55316 -0.00031 0.44405 0.0
H218 H 0.52538 0.96713 0.46252 0.0
H219 H 0.50243 0.0131 0.58551 0.0
H220 H 0.57054 0.10676 0.53884 0.0
H221 H 0.57845 0.11712 0.49662 0.0
H222 H 0.53339 0.05299 0.42242 0.0
H223 H 0.4607 0.96086 0.46894 0.0
H224 H 0.45227 0.95063 0.51138 0.0
H225 H 0.69882 0.26188 0.44522 0.0
H226 H 0.68474 0.27617 0.47049 0.0
H227 H 0.69291 0.24317 0.47429 0.0
C228 C 0.62202 0.42419 0.72846 0.0
C229 C 0.60015 0.3976 0.70931 0.0
C230 C 0.562 0.41684 0.69724 0.0
C231 C 0.58537 0.44529 0.68605 0.0
C232 C 0.57733 0.46865 0.6785 0.0
C233 C 0.5448 0.46269 0.68103 0.0
C234 C 0.52075 0.43317 0.69093 0.0
C235 C 0.5298 0.41082 0.69911 0.0
C236 C 0.60387 0.50006 0.66842 0.0
C237 C 0.48565 0.42558 0.69352 0.0
C238 C 0.54605 0.58849 0.81754 0.0
C239 C 0.51789 0.58116 0.79938 0.0
C240 C 0.52814 0.58204 0.75602 0.0
C241 C 0.49918 0.55368 0.74811 0.0
C242 C 0.4979 0.53758 0.72609 0.0
C243 C 0.52611 0.55018 0.7117 0.0
C244 C 0.55472 0.57971 0.71904 0.0
C245 C 0.55519 0.59548 0.74102 0.0
C246 C 0.46667 0.50667 0.71847 0.0
C247 C 0.58517 0.59401 0.70406 0.0
C248 C 0.46276 0.61891 0.58347 0.0
C249 C 0.44173 0.5868 0.59022 0.0
C250 C 0.45337 0.56486 0.59254 0.0
C251 C 0.48697 0.57557 0.58852 0.0
C252 C 0.50785 0.60754 0.5806 0.0
C253 C 0.49525 0.62872 0.57782 0.0
C254 C 0.42994 0.53052 0.59993 0.0
C255 C 0.54369 0.61969 0.57597 0.0
C256 C 0.50092 0.40341 0.48556 0.0
C257 C 0.53678 0.42975 0.49129 0.0
C258 C 0.5335 0.47157 0.51527 0.0
C259 C 0.50118 0.46089 0.52216 0.0
C260 C 0.49489 0.47403 0.54309 0.0
C261 C 0.52157 0.49922 0.55689 0.0
C262 C 0.55426 0.51069 0.54951 0.0
C263 C 0.55978 0.49658 0.52878 0.0
C264 C 0.45973 0.46133 0.55023 0.0
C265 C 0.5833 0.53824 0.56325 0.0
C266 C 0.53643 0.48814 0.67494 0.0
C267 C 0.53469 0.50686 0.69417 0.0
C268 C 0.52667 0.53111 0.69014 0.0
C269 C 0.52004 0.53696 0.66619 0.0
C270 C 0.51122 0.56067 0.66149 0.0
C271 C 0.50479 0.56625 0.63783 0.0
C272 C 0.50717 0.54848 0.61796 0.0
C273 C 0.5004 0.55377 0.59385 0.0
C274 C 0.50516 0.53727 0.57445 0.0
C275 C 0.51531 0.51451 0.57844 0.0
C276 C 0.51985 0.50718 0.60249 0.0
C277 C 0.52747 0.4826 0.60725 0.0
C278 C 0.53228 0.47587 0.63098 0.0
C279 C 0.53047 0.494 0.65081 0.0
C280 C 0.52234 0.51857 0.64645 0.0
C281 C 0.51646 0.52476 0.62228 0.0
C282 C 0.45306 0.6817 0.61001 0.0
C283 C 0.43595 0.64556 0.60226 0.0
O284 O 0.56943 0.39502 0.70698 0.0
O285 O 0.53956 0.46014 0.4944 0.0
O286 O 0.45259 0.64114 0.58336 0.0
O287 O 0.53084 0.59691 0.77797 0.0
H288 H 0.61219 0.40385 0.69148 0.0
H289 H 0.60975 0.4194 0.74618 0.0
H290 H 0.62741 0.44864 0.72286 0.0
H291 H 0.64596 0.42492 0.731 0.0
H292 H 0.61015 0.4499 0.68362 0.0
H293 H 0.51179 0.38865 0.70745 0.0
H294 H 0.60423 0.52129 0.67765 0.0
H295 H 0.62872 0.50273 0.67056 0.0
H296 H 0.59863 0.50076 0.64879 0.0
H297 H 0.46886 0.39957 0.69745 0.0
H298 H 0.48466 0.44081 0.70869 0.0
H299 H 0.47655 0.43151 0.6767 0.0
H300 H 0.50443 0.55423 0.79624 0.0
H301 H 0.56152 0.57891 0.81006 0.0
H302 H 0.562 0.61509 0.82118 0.0
H303 H 0.53608 0.57646 0.83494 0.0
H304 H 0.47763 0.54401 0.75917 0.0
H305 H 0.57719 0.61773 0.74708 0.0
H306 H 0.47094 0.48571 0.71955 0.0
H307 H 0.4458 0.50206 0.73014 0.0
H308 H 0.45972 0.50793 0.6993 0.0
H309 H 0.60537 0.61725 0.71221 0.0
H310 H 0.5941 0.57636 0.70226 0.0
H311 H 0.5791 0.59854 0.68549 0.0
H312 H 0.43783 0.63303 0.61866 0.0
H313 H 0.41631 0.57902 0.59395 0.0
H314 H 0.51115 0.65352 0.57238 0.0
H315 H 0.43548 0.5277 0.61911 0.0
H316 H 0.40382 0.5245 0.59834 0.0
H317 H 0.43308 0.51271 0.58855 0.0
H318 H 0.55707 0.64577 0.57121 0.0
H319 H 0.55589 0.61656 0.59234 0.0
H320 H 0.54572 0.60505 0.56083 0.0
H321 H 0.54524 0.42357 0.50839 0.0
H322 H 0.4994 0.38008 0.47976 0.0
H323 H 0.48609 0.39844 0.50202 0.0
H324 H 0.49003 0.41116 0.47086 0.0
H325 H 0.48079 0.44285 0.51091 0.0
H326 H 0.58464 0.50526 0.52284 0.0
H327 H 0.45715 0.45589 0.56985 0.0
H328 H 0.45287 0.48029 0.54721 0.0
H329 H 0.44218 0.43894 0.53954 0.0
H330 H 0.60675 0.54649 0.55376 0.0
H331 H 0.57927 0.55928 0.56582 0.0
H332 H 0.58583 0.53017 0.58154 0.0
H333 H 0.53974 0.5025 0.71261 0.0
H334 H 0.50909 0.57511 0.67607 0.0
H335 H 0.49817 0.58487 0.63531 0.0
H336 H 0.50073 0.54208 0.55599 0.0
H337 H 0.52956 0.46814 0.59268 0.0
H338 H 0.53782 0.45651 0.63356 0.0
H339 H 0.45555 0.69721 0.59446 0.0
H340 H 0.43907 0.68579 0.62439 0.0
H341 H 0.47819 0.68956 0.61748 0.0
C342 C 0.18361 0.49379 0.94184 0.0
C343 C 0.18674 0.51262 0.91886 0.0
C344 C 0.13879 0.49718 0.89165 0.0
C345 C 0.14369 0.52845 0.88755 0.0
C346 C 0.11782 0.53247 0.87838 0.0
C347 C 0.08664 0.5047 0.87305 0.0
C348 C 0.08225 0.47318 0.87594 0.0
C349 C 0.10857 0.46989 0.88497 0.0
C350 C 0.12352 0.56637 0.87488 0.0
C351 C 0.0494 0.44297 0.87035 0.0
C352 C 0.99771 0.55109 0.01311 0.0
C353 C 0.97478 0.52739 0.99302 0.0
C354 C 0.98212 0.53547 0.94927 0.0
C355 C 0.97099 0.5029 0.94206 0.0
C356 C 0.97866 0.49517 0.91925 0.0
C357 C 0.99761 0.52046 0.90333 0.0
C358 C 0.00673 0.55299 0.90987 0.0
C359 C 0.99857 0.55999 0.93273 0.0
C360 C 0.96775 0.46013 0.91255 0.0
C361 C 0.02671 0.58056 0.89328 0.0
C362 C 0.85751 0.46744 0.7688 0.0
C363 C 0.86411 0.4451 0.78033 0.0
C364 C 0.89653 0.45277 0.78596 0.0
C365 C 0.92296 0.4839 0.78057 0.0
C366 C 0.9164 0.50645 0.76878 0.0
C367 C 0.8837 0.49765 0.76266 0.0
C368 C 0.90239 0.42729 0.79735 0.0
C369 C 0.94385 0.53985 0.76268 0.0
C370 C 0.14122 0.50457 0.70373 0.0
C371 C 0.12434 0.52437 0.69814 0.0
C372 C 0.06849 0.50175 0.71147 0.0
C373 C 0.04476 0.47122 0.71928 0.0
C374 C 0.02387 0.46854 0.73813 0.0
C375 C 0.02663 0.49714 0.74899 0.0
C376 C 0.04915 0.52797 0.73999 0.0
C377 C 0.06983 0.52993 0.72127 0.0
C378 C -0.00029 0.43532 0.74706 0.0
C379 C 0.05196 0.55889 0.75063 0.0
C380 C 0.05779 0.50841 0.86672 0.0
C381 C 0.04127 0.51297 0.88586 0.0
C382 C 0.01218 0.51376 0.88181 0.0
C383 C 0.99842 0.50884 0.85797 0.0
C384 C 0.96813 0.50739 0.85331 0.0
C385 C 0.95458 0.50185 0.82975 0.0
C386 C 0.97115 0.49819 0.80995 0.0
C387 C 0.95741 0.4919 0.78599 0.0
C388 C 0.97583 0.49108 0.76658 0.0
C389 C 0.00722 0.49524 0.77047 0.0
C390 C 0.0202 0.49879 0.79443 0.0
C391 C 0.05059 0.50039 0.79909 0.0
C392 C 0.06287 0.50329 0.82277 0.0
C393 C 0.04568 0.50567 0.8426 0.0
C394 C 0.01551 0.50518 0.83827 0.0
C395 C 0.00229 0.50077 0.8142 0.0
C396 C 0.77827 0.46027 0.7775 0.0
C397 C 0.80014 0.44481 0.77885 0.0
O398 O 0.16243 0.49225 0.90195 0.0
O399 O 0.09064 0.50359 0.69517 0.0
O400 O 0.82621 0.46049 0.76347 0.0
O401 O 0.97808 0.54429 0.97202 0.0
H402 H 0.18327 0.5333 0.92466 0.0
H403 H 0.15919 0.48564 0.94975 0.0
H404 H 0.18584 0.47195 0.93776 0.0
H405 H 0.20301 0.50967 0.95559 0.0
H406 H 0.16756 0.54972 0.89152 0.0
H407 H 0.10528 0.44588 0.88775 0.0
H408 H 0.10928 0.57166 0.88829 0.0
H409 H 0.14995 0.58525 0.87723 0.0
H410 H 0.11453 0.56805 0.85646 0.0
H411 H 0.04999 0.42024 0.87375 0.0
H412 H 0.03025 0.44337 0.88169 0.0
H413 H 0.04196 0.44253 0.85104 0.0
H414 H 0.98322 0.50942 0.99017 0.0
H415 H 0.99508 0.53799 0.03018 0.0
H416 H 0.02369 0.56211 0.00757 0.0
H417 H 0.99234 0.57107 0.0167 0.0
H418 H 0.95683 0.48353 0.95432 0.0
H419 H 0.00643 0.58496 0.93826 0.0
H420 H 0.98947 0.45663 0.9131 0.0
H421 H 0.94932 0.44295 0.92516 0.0
H422 H 0.95702 0.45402 0.89374 0.0
H423 H 0.03042 0.60426 0.90049 0.0
H424 H 0.0512 0.58276 0.8909 0.0
H425 H 0.01424 0.5753 0.87508 0.0
H426 H 0.80989 0.44929 0.79803 0.0
H427 H 0.84407 0.42136 0.78451 0.0
H428 H 0.87837 0.51466 0.75359 0.0
H429 H 0.91032 0.43433 0.81668 0.0
H430 H 0.87985 0.40284 0.79664 0.0
H431 H 0.92229 0.42554 0.78804 0.0
H432 H 0.93443 0.55626 0.75735 0.0
H433 H 0.96141 0.55122 0.77845 0.0
H434 H 0.95766 0.53757 0.74734 0.0
H435 H 0.1301 0.54103 0.71434 0.0
H436 H 0.1684 0.52077 0.70507 0.0
H437 H 0.1329 0.49269 0.72141 0.0
H438 H 0.13505 0.48517 0.68962 0.0
H439 H 0.04366 0.4496 0.7113 0.0
H440 H 0.08745 0.55349 0.71452 0.0
H441 H 0.00556 0.43372 0.76644 0.0
H442 H 0.9744 0.43164 0.74597 0.0
H443 H 0.00015 0.41539 0.73641 0.0
H444 H 0.06904 0.5807 0.74049 0.0
H445 H 0.02734 0.55691 0.75055 0.0
H446 H 0.06106 0.56244 0.76982 0.0
H447 H 0.05112 0.51572 0.9043 0.0
H448 H 0.9544 0.51007 0.86789 0.0
H449 H 0.93105 0.50066 0.82718 0.0
H450 H 0.96554 0.48703 0.74818 0.0
H451 H 0.06497 0.49884 0.78451 0.0
H452 H 0.08616 0.50398 0.82536 0.0
H453 H 0.76963 0.46011 0.75859 0.0
H454 H 0.75656 0.44708 0.78905 0.0
H455 H 0.79248 0.48603 0.7843 0.0
C456 C 0.42443 0.77195 0.92135 0.0
C457 C 0.4228 0.79943 0.93352 0.0
C458 C 0.46052 0.85734 0.94437 0.0
C459 C 0.43621 0.86621 0.94716 0.0
C460 C 0.44509 0.89892 0.95173 0.0
C461 C 0.4788 0.92296 0.95421 0.0
C462 C 0.50314 0.91369 0.95294 0.0
C463 C 0.49363 0.88104 0.94782 0.0
C464 C 0.41856 0.90802 0.95304 0.0
C465 C 0.53935 0.93844 0.9559 0.0
C466 C 0.59588 0.12526 0.82565 0.0
C467 C 0.5903 0.09942 0.84309 0.0
C468 C 0.5464 0.05866 0.86685 0.0
C469 C 0.56775 0.05458 0.8828 0.0
C470 C 0.55636 0.03771 0.90429 0.0
C471 C 0.52288 0.02456 0.90999 0.0
C472 C 0.50101 0.02753 0.89359 0.0
C473 C 0.51309 0.04448 0.87211 0.0
C474 C 0.58031 0.03457 0.92116 0.0
C475 C 0.46513 0.01351 0.8991 0.0
C476 C 0.58739 0.18442 0.02033 0.0
C477 C 0.60455 0.16723 0.0201 0.0
C478 C 0.58771 0.13321 0.02164 0.0
C479 C 0.55299 0.11615 0.02331 0.0
C480 C 0.53588 0.13364 0.02484 0.0
C481 C 0.55346 0.16773 0.02363 0.0
C482 C 0.60692 0.11546 0.02086 0.0
C483 C 0.49897 0.11628 0.02704 0.0
C484 C 0.40537 0.91735 0.11456 0.0
C485 C 0.42663 0.94129 0.13541 0.0
C486 C 0.47189 0.97864 0.11002 0.0
C487 C 0.5026 0.9852 0.10191 0.0
C488 C 0.51553 0.00273 0.08081 0.0
C489 C 0.49695 0.01355 0.06745 0.0
C490 C 0.46664 0.00847 0.07628 0.0
C491 C 0.45471 0.99156 0.09772 0.0
C492 C 0.54858 0.00893 0.07247 0.0
C493 C 0.44651 0.02032 0.06279 0.0
C494 C 0.48901 0.95808 0.95542 0.0
C495 C 0.49776 0.97464 0.93368 0.0
C496 C 0.51115 0.00835 0.93339 0.0
C497 C 0.51584 0.02628 0.95536 0.0
C498 C 0.52983 0.06034 0.95574 0.0
C499 C 0.53582 0.07796 0.97755 0.0
C500 C 0.52769 0.06217 0.99981 0.0
C501 C 0.53459 0.07999 0.02214 0.0
C502 C 0.52477 0.0635 0.04384 0.0
C503 C 0.50863 0.02949 0.04395 0.0
C504 C 0.50296 0.01127 0.02192 0.0
C505 C 0.48816 0.97708 0.02145 0.0
C506 C 0.48373 0.95957 0.99974 0.0
C507 C 0.49288 0.97546 0.97757 0.0
C508 C 0.50677 0.00977 0.97754 0.0
C509 C 0.51239 0.02774 0.99977 0.0
C510 C 0.6137 0.24801 0.98148 0.0
C511 C 0.62664 0.23303 0.99995 0.0
O512 O 0.45357 0.82674 0.93778 0.0
O513 O 0.45945 0.95915 0.12932 0.0
O514 O 0.60285 0.21698 0.01698 0.0
O515 O 0.55744 0.07718 0.84687 0.0
H516 H 0.40425 0.80462 0.92499 0.0
H517 H 0.44958 0.7826 0.91339 0.0
H518 H 0.40804 0.73652 0.94771 0.0
H519 H 0.41116 0.76788 0.90324 0.0
H520 H 0.41039 0.84805 0.94528 0.0
H521 H 0.51217 0.87393 0.94594 0.0
H522 H 0.42171 0.92503 0.9384 0.0
H523 H 0.39341 0.88643 0.95114 0.0
H524 H 0.42087 0.9209 0.97065 0.0
H525 H 0.55447 0.92673 0.95912 0.0
H526 H 0.54765 0.95244 0.93907 0.0
H527 H 0.5439 0.95592 0.97122 0.0
H528 H 0.60528 0.08742 0.84008 0.0
H529 H 0.60873 0.12123 0.81003 0.0
H530 H 0.57185 0.11637 0.8152 0.0
H531 H 0.61791 0.16802 0.84754 0.0
H532 H 0.5935 0.06486 0.87877 0.0
H533 H 0.49675 0.04757 0.85967 0.0
H534 H 0.57042 0.0087 0.92572 0.0
H535 H 0.60485 0.04377 0.91314 0.0
H536 H 0.58355 0.04857 0.93838 0.0
H537 H 0.45137 0.01826 0.88463 0.0
H538 H 0.45351 0.98678 0.90114 0.0
H539 H 0.46289 0.02416 0.91661 0.0
H540 H 0.63114 0.21552 0.9893 0.0
H541 H 0.63107 0.18037 0.01853 0.0
H542 H 0.54059 0.18139 0.02422 0.0
H543 H 0.60164 0.10171 0.00324 0.0
H544 H 0.63391 0.13241 0.02282 0.0
H545 H 0.59921 0.09759 0.03553 0.0
H546 H 0.48913 0.13327 0.0265 0.0
H547 H 0.48691 0.09761 0.0121 0.0
H548 H 0.49225 0.10346 0.04445 0.0
H549 H 0.4174 0.95836 0.13951 0.0
H550 H 0.37974 0.90146 0.12044 0.0
H551 H 0.40392 0.93033 0.09851 0.0
H552 H 0.41569 0.90173 0.10887 0.0
H553 H 0.51602 0.97572 0.11181 0.0
H554 H 0.43162 0.98792 0.10447 0.0
H555 H 0.54513 0.99438 0.05551 0.0
H556 H 0.5644 0.03503 0.06831 0.0
H557 H 0.56158 0.0023 0.0863 0.0
H558 H 0.4224 0.01245 0.07115 0.0
H559 H 0.46044 0.04734 0.06265 0.0
H560 H 0.44203 0.01109 0.0436 0.0
H561 H 0.49523 0.96124 0.9168 0.0
H562 H 0.53666 0.07382 0.93918 0.0
H563 H 0.54693 0.10415 0.97671 0.0
H564 H 0.52968 0.07731 0.06087 0.0
H565 H 0.48035 0.9635 0.03792 0.0
H566 H 0.47287 0.93339 1.0005 0.0
H567 H 0.63255 0.26137 0.9678 0.0
H568 H 0.59126 0.22841 0.97185 0.0
H569 H 0.60718 0.26505 0.9906 0.0
C570 C 0.59814 0.45279 0.04107 0.0
C571 C 0.61624 0.46052 0.06596 0.0
C572 C 0.59779 0.49598 0.08493 0.0
C573 C 0.56496 0.47155 0.08821 0.0
C574 C 0.54167 0.47953 0.09655 0.0
C575 C 0.55148 0.51248 0.10201 0.0
C576 C 0.58467 0.53698 0.09941 0.0
C577 C 0.60738 0.52835 0.0909 0.0
C578 C 0.50647 0.45285 0.0993 0.0
C579 C 0.59601 0.57232 0.10534 0.0
C580 C 0.42578 0.58852 0.97949 0.0
C581 C 0.43907 0.59225 0.00492 0.0
C582 C 0.44289 0.55842 0.03641 0.0
C583 C 0.46975 0.58427 0.04929 0.0
C584 C 0.48447 0.5784 0.06953 0.0
C585 C 0.47166 0.54617 0.07737 0.0
C586 C 0.44402 0.52025 0.06491 0.0
C587 C 0.43011 0.52674 0.04451 0.0
C588 C 0.51412 0.60656 0.08227 0.0
C589 C 0.42955 0.48561 0.07288 0.0
C590 C 0.40385 0.59296 0.21361 0.0
C591 C 0.43699 0.61321 0.20819 0.0
C592 C 0.45749 0.60011 0.20389 0.0
C593 C 0.44428 0.56596 0.20458 0.0
C594 C 0.41125 0.54571 0.21129 0.0
C595 C 0.39155 0.55964 0.21611 0.0
C596 C 0.49297 0.62268 0.19788 0.0
C597 C 0.39644 0.50929 0.21257 0.0
C598 C 0.55862 0.43631 0.24474 0.0
C599 C 0.53813 0.43454 0.26666 0.0
C600 C 0.52977 0.4804 0.25891 0.0
C601 C 0.54905 0.51399 0.25605 0.0
C602 C 0.53857 0.53033 0.24039 0.0
C603 C 0.50794 0.51251 0.22758 0.0
C604 C 0.48738 0.47897 0.23168 0.0
C605 C 0.49841 0.46331 0.24741 0.0
C606 C 0.56073 0.56624 0.23671 0.0
C607 C 0.45411 0.45939 0.21885 0.0
C608 C 0.52691 0.52155 0.10976 0.0
C609 C 0.51089 0.52938 0.09176 0.0
C610 C 0.48824 0.53921 0.09769 0.0
C611 C 0.48179 0.54202 0.12235 0.0
C612 C 0.45979 0.5526 0.12905 0.0
C613 C 0.45413 0.55583 0.1534 0.0
C614 C 0.46983 0.54806 0.17198 0.0
C615 C 0.46445 0.55145 0.19683 0.0
C616 C 0.47837 0.54104 0.2147 0.0
C617 C 0.49819 0.52789 0.20844 0.0
C618 C 0.50583 0.52659 0.18387 0.0
C619 C 0.52734 0.51537 0.17714 0.0
C620 C 0.53463 0.51409 0.15292 0.0
C621 C 0.51995 0.52308 0.13444 0.0
C622 C 0.49768 0.53383 0.14077 0.0
C623 C 0.49122 0.5363 0.16556 0.0
C624 C 0.34583 0.61026 0.18841 0.0
C625 C 0.38115 0.62549 0.19879 0.0
O626 O 0.62092 0.48972 0.07582 0.0
O627 O 0.5424 0.46513 0.27229 0.0
O628 O 0.38299 0.60485 0.21542 0.0
O629 O 0.42907 0.56283 0.01595 0.0
H630 H 0.6014 0.44055 0.07843 0.0
H631 H 0.5731 0.44937 0.04281 0.0
H632 H 0.61182 0.47287 0.02845 0.0
H633 H 0.59548 0.42989 0.03298 0.0
H634 H 0.55715 0.44627 0.08413 0.0
H635 H 0.63277 0.54699 0.08852 0.0
H636 H 0.4899 0.45735 0.08738 0.0
H637 H 0.50279 0.42832 0.09458 0.0
H638 H 0.49909 0.45304 0.11831 0.0
H639 H 0.6229 0.58832 0.10306 0.0
H640 H 0.58259 0.58064 0.09333 0.0
H641 H 0.59015 0.5751 0.12437 0.0
H642 H 0.43652 0.61007 0.01688 0.0
H643 H 0.468 0.60757 0.95872 0.0
H644 H 0.40494 0.56262 0.97705 0.0
H645 H 0.40925 0.5994 0.98005 0.0
H646 H 0.47968 0.60902 0.04346 0.0
H647 H 0.40933 0.50698 0.03456 0.0
H648 H 0.50844 0.60885 0.10143 0.0
H649 H 0.5351 0.60189 0.08249 0.0
H650 H 0.52184 0.63005 0.07341 0.0
H651 H 0.4062 0.46871 0.06276 0.0
H652 H 0.44749 0.47718 0.06989 0.0
H653 H 0.42479 0.48435 0.09262 0.0
H654 H 0.3965 0.62789 0.18287 0.0
H655 H 0.44665 0.6392 0.20698 0.0
H656 H 0.36599 0.54436 0.22064 0.0
H657 H 0.4961 0.62025 0.17817 0.0
H658 H 0.50086 0.64858 0.20231 0.0
H659 H 0.50944 0.61606 0.20793 0.0
H660 H 0.36957 0.49669 0.21574 0.0
H661 H 0.40055 0.49924 0.19546 0.0
H662 H 0.40876 0.50378 0.22763 0.0
H663 H 0.512 0.41723 0.26164 0.0
H664 H 0.55619 0.41213 0.24069 0.0
H665 H 0.54974 0.44349 0.22845 0.0
H666 H 0.58504 0.45457 0.24826 0.0
H667 H 0.57296 0.52713 0.26533 0.0
H668 H 0.48237 0.43772 0.25046 0.0
H669 H 0.56917 0.57002 0.21773 0.0
H670 H 0.54683 0.57929 0.23946 0.0
H671 H 0.58268 0.57712 0.24929 0.0
H672 H 0.44048 0.43382 0.22478 0.0
H673 H 0.43895 0.47095 0.22233 0.0
H674 H 0.4573 0.45914 0.19894 0.0
H675 H 0.51614 0.52781 0.07283 0.0
H676 H 0.44692 0.55878 0.11554 0.0
H677 H 0.43707 0.56426 0.15746 0.0
H678 H 0.47315 0.54254 0.23364 0.0
H679 H 0.53914 0.50783 0.19054 0.0
H680 H 0.55165 0.5056 0.14883 0.0
H681 H 0.3438 0.6269 0.17545 0.0
H682 H 0.33901 0.587 0.17848 0.0
H683 H 0.32797 0.60491 0.20299 0.0
Mg684 Mg 0.61048 0.36155 0.373 0.0
O685 O 0.59998 0.3878 0.40393 0.0
O686 O 0.62568 0.44084 0.39585 0.0
Mg687 Mg 0.6527 0.44789 0.36013 0.0
C688 C 0.60741 0.4171 0.40919 0.0
C689 C 0.6098 0.30162 0.38861 0.0
O690 O 0.62459 0.30907 0.36774 0.0
O691 O 0.66197 0.38148 0.3876 0.0
O692 O 0.68934 0.4335 0.37727 0.0
O693 O 0.56605 0.35389 0.35237 0.0
O694 O 0.61549 0.39704 0.34921 0.0
C695 C 0.68846 0.40868 0.38676 0.0
C696 C 0.58454 0.38209 0.34317 0.0
O697 O 0.59652 0.31778 0.396 0.0
Mg698 Mg 0.25167 0.63849 0.59676 0.0
O699 O 0.2239 0.61595 0.56055 0.0
O700 O 0.20731 0.56282 0.56128 0.0
Mg701 Mg 0.21849 0.55067 0.59931 0.0
C702 C 0.20997 0.58754 0.55036 0.0
C703 C 0.28899 0.71368 0.59554 0.0
O704 O 0.27881 0.70924 0.61794 0.0
O705 O 0.29339 0.63028 0.58573 0.0
O706 O 0.27454 0.57785 0.59342 0.0
O707 O 0.20646 0.63304 0.61453 0.0
O708 O 0.22133 0.59562 0.61367 0.0
C709 C 0.29771 0.60591 0.58769 0.0
C710 C 0.20053 0.60422 0.62013 0.0
O711 O 0.27927 0.68897 0.5813 0.0
Mg712 Mg 0.63826 0.25176 0.76707 0.0
O713 O 0.63922 0.21955 0.736 0.0
O714 O 0.68109 0.21111 0.74465 0.0
Mg715 Mg 0.70078 0.23099 0.78349 0.0
C716 C 0.65747 0.20761 0.73065 0.0
C717 C 0.60038 0.28659 0.75221 0.0
O718 O 0.59752 0.28611 0.77591 0.0
O719 O 0.68691 0.29561 0.75709 0.0
O720 O 0.72375 0.28482 0.77421 0.0
O721 O 0.5999 0.20775 0.78557 0.0
O722 O 0.65344 0.22842 0.79151 0.0
C723 C 0.71633 0.3043 0.76396 0.0
C724 C 0.62396 0.2061 0.79602 0.0
O725 O 0.6129 0.27097 0.74247 0.0
Mg726 Mg 0.39043 0.62817 0.87087 0.0
O727 O 0.41151 0.61649 0.90471 0.0
O728 O 0.40358 0.56608 0.89993 0.0
Mg729 Mg 0.37745 0.54585 0.8628 0.0
C730 C 0.41421 0.59266 0.91232 0.0
C731 C 0.4174 0.69241 0.90319 0.0
O732 O 0.4451 0.692 0.90175 0.0
O733 O 0.33859 0.59513 0.88318 0.0
O734 O 0.33079 0.54519 0.8765 0.0
O735 O 0.43876 0.64769 0.85324 0.0
O736 O 0.3992 0.59626 0.84983 0.0
C737 C 0.32033 0.56425 0.8833 0.0
C738 C 0.42897 0.61823 0.84533 0.0
O739 O 0.39166 0.67058 0.89195 0.0
Mg740 Mg 0.77991 0.42588 0.03792 0.0
O741 O 0.79947 0.4267 0.0765 0.0
O742 O 0.83037 0.40317 0.07496 0.0
Mg743 Mg 0.83207 0.38919 0.03502 0.0
C744 C 0.81761 0.41723 0.08693 0.0
C745 C 0.73815 0.45968 0.04679 0.0
O746 O 0.76027 0.48087 0.03249 0.0
O747 O 0.74459 0.37169 0.03856 0.0
O748 O 0.7767 0.34998 0.03302 0.0
O749 O 0.82336 0.4744 0.03165 0.0
O750 O 0.82166 0.42778 0.02351 0.0
C751 C 0.74823 0.34704 0.03506 0.0
C752 C 0.83828 0.4592 0.02424 0.0
O753 O 0.74038 0.43514 0.05289 0.0
Mg754 Mg 0.36682 0.79181 0.23048 0.0
O755 O 0.39191 0.81724 0.26682 0.0
O756 O 0.44602 0.84134 0.26096 0.0
Mg757 Mg 0.4549 0.83587 0.2207 0.0
C758 C 0.42176 0.83411 0.27466 0.0
C759 C 0.29583 0.74135 0.23262 0.0
O760 O 0.30052 0.75029 0.20993 0.0
O761 O 0.38307 0.75467 0.23468 0.0
O762 O 0.43528 0.7805 0.22325 0.0
O763 O 0.36339 0.83496 0.21914 0.0
O764 O 0.40512 0.82739 0.21157 0.0
C765 C 0.40939 0.75467 0.22941 0.0
C766 C 0.39185 0.84536 0.20957 0.0
O767 O 0.31921 0.75698 0.24816 0.0
C768 C 0.21143 0.66625 0.2257 0.0
C769 C 0.21112 0.64686 0.24483 0.0
C770 C 0.23835 0.69738 0.22262 0.0
C771 C 0.26606 0.71051 0.2386 0.0
H772 H 0.19096 0.65692 0.21262 0.0
H773 H 0.23772 0.71094 0.20722 0.0
S774 S 0.27729 0.67007 0.29203 0.0
N775 N 0.24068 0.64327 0.28029 0.0
N776 N 0.29127 0.70202 0.27468 0.0
C777 C 0.26575 0.69184 0.25826 0.0
C778 C 0.23836 0.65993 0.26128 0.0
C779 C 0.6413 0.24739 0.41217 0.0
C780 C 0.63375 0.24492 0.43689 0.0
C781 C 0.63172 0.26422 0.39647 0.0
C782 C 0.61455 0.27964 0.40488 0.0
H783 H 0.65552 0.23698 0.40503 0.0
H784 H 0.63895 0.26609 0.37774 0.0
S785 S 0.58773 0.2792 0.46796 0.0
N786 N 0.60718 0.25826 0.46898 0.0
N787 N 0.58914 0.29002 0.43951 0.0
C788 C 0.6059 0.27644 0.42943 0.0
C789 C 0.61567 0.25922 0.44543 0.0
C790 C 0.37549 0.60777 0.60912 0.0
C791 C 0.39988 0.63225 0.59523 0.0
C792 C 0.3421 0.5976 0.60522 0.0
C793 C 0.33183 0.61197 0.58759 0.0
H794 H 0.38234 0.59713 0.62373 0.0
H795 H 0.32444 0.57978 0.61715 0.0
S796 S 0.38505 0.67338 0.5439 0.0
N797 N 0.41083 0.66732 0.56084 0.0
N798 N 0.34807 0.64946 0.55445 0.0
C799 C 0.35562 0.6351 0.57264 0.0
C800 C 0.38962 0.64488 0.57618 0.0
C801 C 0.77778 0.3867 0.79119 0.0
C802 C 0.78064 0.40835 0.77304 0.0
C803 C 0.75865 0.35297 0.78729 0.0
C804 C 0.74069 0.33945 0.76534 0.0
H805 H 0.79011 0.39591 0.80878 0.0
H806 H 0.75656 0.33743 0.80212 0.0
S807 S 0.74118 0.38491 0.71128 0.0
N808 N 0.76596 0.4135 0.73138 0.0
N809 N 0.72784 0.34987 0.72477 0.0
C810 C 0.74368 0.36055 0.74679 0.0
C811 C 0.7642 0.39503 0.75045 0.0
C812 C 0.44944 0.7738 0.95846 0.0
C813 C 0.41248 0.77861 0.95326 0.0
C814 C 0.4509 0.74373 0.93846 0.0
C815 C 0.4155 0.71657 0.91902 0.0
H816 H 0.47104 0.7917 0.96881 0.0
H817 H 0.47307 0.74208 0.93809 0.0
S818 S 0.32583 0.71413 0.91461 0.0
N819 N 0.3449 0.74543 0.93511 0.0
N820 N 0.34969 0.69837 0.90651 0.0
C821 C 0.37723 0.71703 0.92007 0.0
C822 C 0.3734 0.7457 0.93896 0.0
C823 C 0.65308 0.43587 0.06899 0.0
C824 C 0.64937 0.46261 0.0631 0.0
C825 C 0.6823 0.43572 0.06447 0.0
C826 C 0.70892 0.46215 0.05354 0.0
H827 H 0.63294 0.41454 0.07672 0.0
H828 H 0.68354 0.4142 0.06894 0.0
S829 S 0.71215 0.53873 0.03542 0.0
N830 N 0.67513 0.51669 0.04642 0.0
N831 N 0.73007 0.51647 0.03786 0.0
C832 C 0.70584 0.48942 0.04806 0.0
C833 C 0.67608 0.4896 0.05277 0.0
C834 C 0.35198 0.80388 0.59949 0.0
C835 C 0.37395 0.80728 0.58119 0.0
C836 C 0.32363 0.77387 0.6032 0.0
C837 C 0.31596 0.74608 0.58864 0.0
H838 H 0.35746 0.82432 0.61168 0.0
H839 H 0.30819 0.77223 0.61811 0.0
S840 S 0.36425 0.74258 0.5371 0.0
N841 N 0.38526 0.78066 0.54759 0.0
N842 N 0.33177 0.72443 0.55421 0.0
C843 C 0.33684 0.74953 0.56946 0.0
C844 C 0.3659 0.78003 0.56587 0.0
C845 C 0.5764 0.34968 0.73709 0.0
C846 C 0.59602 0.36529 0.71719 0.0
C847 C 0.57648 0.32295 0.74744 0.0
C848 C 0.59595 0.31057 0.73819 0.0
H849 H 0.56205 0.35918 0.74544 0.0
H850 H 0.56211 0.31269 0.76338 0.0
S851 S 0.65014 0.34136 0.68532 0.0
N852 N 0.63431 0.36548 0.68796 0.0
N853 N 0.63402 0.31488 0.70705 0.0
C854 C 0.61432 0.32482 0.71747 0.0
C855 C 0.61454 0.35231 0.70712 0.0
C856 C 0.24435 0.5585 0.91171 0.0
C857 C 0.22055 0.52537 0.90842 0.0
C858 C 0.27634 0.57077 0.90339 0.0
C859 C 0.28602 0.55034 0.89165 0.0
H860 H 0.23827 0.57511 0.92096 0.0
H861 H 0.2937 0.5965 0.9065 0.0
S862 S 0.23264 0.46147 0.87844 0.0
N863 N 0.20859 0.47224 0.8925 0.0
N864 N 0.2687 0.49511 0.87693 0.0
C865 C 0.26235 0.51706 0.8882 0.0
C866 C 0.22969 0.50464 0.89658 0.0
C867 C 0.6579 0.28297 0.0278 0.0
C868 C 0.65834 0.25923 0.01233 0.0
C869 C 0.6872 0.31031 0.03636 0.0
C870 C 0.71817 0.31491 0.02998 0.0
H871 H 0.63468 0.28113 0.03242 0.0
H872 H 0.68549 0.32863 0.0473 0.0
S873 S 0.73268 0.25767 0.99229 0.0
N874 N 0.6922 0.24054 0.99268 0.0
N875 N 0.74733 0.29165 0.009 0.0
C876 C 0.71893 0.29015 0.01591 0.0
C877 C 0.68903 0.26244 0.00699 0.0
C878 C 0.41695 0.68676 0.19915 0.0
C879 C 0.39263 0.6589 0.21038 0.0
C880 C 0.42444 0.7181 0.20694 0.0
C881 C 0.40747 0.72271 0.22599 0.0
H882 H 0.42927 0.6843 0.18349 0.0
H883 H 0.44195 0.73862 0.19679 0.0
S884 S 0.34564 0.65822 0.26402 0.0
N885 N 0.35502 0.63826 0.24375 0.0
N886 N 0.3682 0.69715 0.25785 0.0
C887 C 0.38486 0.69526 0.23853 0.0
C888 C 0.37766 0.66336 0.23087 0.0
C889 C 0.74444 0.38651 0.4215 0.0
C890 C 0.77452 0.4033 0.40951 0.0
C891 C 0.71729 0.38965 0.41463 0.0
C892 C 0.71902 0.40998 0.39577 0.0
H893 H 0.74112 0.37018 0.43597 0.0
H894 H 0.69445 0.37545 0.42391 0.0
S895 S 0.79182 0.45984 0.35896 0.0
N896 N 0.80421 0.44134 0.37796 0.0
N897 N 0.75325 0.44773 0.36556 0.0
C898 C 0.74904 0.42776 0.38418 0.0
C899 C 0.77662 0.4242 0.39089 0.0
C900 C 0.17455 0.60243 0.4925 0.0
C901 C 0.16824 0.57572 0.47711 0.0
C902 C 0.18821 0.60612 0.51601 0.0
C903 C 0.19587 0.5831 0.52524 0.0
H904 H 0.169 0.62073 0.48623 0.0
H905 H 0.19249 0.62708 0.52711 0.0
S906 S 0.18489 0.50915 0.49206 0.0
N907 N 0.17139 0.52622 0.4726 0.0
N908 N 0.19662 0.53287 0.51685 0.0
C909 C 0.18967 0.55625 0.51004 0.0
C910 C 0.17603 0.55266 0.486 0.0
C911 C 0.66526 0.14197 0.67525 0.0
C912 C 0.62331 0.12692 0.66114 0.0
C913 C 0.67753 0.17407 0.69835 0.0
C914 C 0.64798 0.18495 0.70959 0.0
H915 H 0.68309 0.13691 0.66706 0.0
H916 H 0.70247 0.1863 0.70585 0.0
S917 S 0.54893 0.14111 0.68897 0.0
N918 N 0.55915 0.11951 0.6699 0.0
N919 N 0.58107 0.16818 0.70687 0.0
C920 C 0.60525 0.16304 0.6994 0.0
C921 C 0.59077 0.13118 0.67686 0.0
C922 C 0.46324 0.56805 0.81677 0.0
C923 C 0.49483 0.59173 0.80984 0.0
C924 C 0.44202 0.57687 0.82781 0.0
C925 C 0.45166 0.60974 0.83281 0.0
H926 H 0.45488 0.54239 0.81381 0.0
H927 H 0.418 0.55759 0.83263 0.0
S928 S 0.53137 0.68133 0.817 0.0
N929 N 0.53422 0.64957 0.8076 0.0
N930 N 0.49473 0.66624 0.82889 0.0
C931 C 0.48305 0.63376 0.82557 0.0
C932 C 0.50451 0.62474 0.814 0.0
C933 C 0.92353 0.47719 0.00633 0.0
C934 C 0.93929 0.51033 1.00073 0.0
C935 C 0.89098 0.4609 0.014 0.0
C936 C 0.87302 0.47722 0.01675 0.0
H937 H 0.93645 0.46367 0.00473 0.0
H938 H 0.87997 0.43536 0.01786 0.0
S939 S 0.90296 0.56412 0.00404 0.0
N940 N 0.93438 0.55885 0.99802 0.0
N941 N 0.87345 0.52852 0.01289 0.0
C942 C 0.88856 0.51046 0.01129 0.0
C943 C 0.92159 0.52693 0.00319 0.0
C944 C 0.39934 0.91655 0.17458 0.0
C945 C 0.42348 0.92175 0.15767 0.0
C946 C 0.39092 0.89337 0.19253 0.0
C947 C 0.40616 0.87431 0.19416 0.0
H948 H 0.38564 0.92932 0.17315 0.0
H949 H 0.37111 0.88925 0.20438 0.0
S950 S 0.47271 0.88015 0.15526 0.0
N951 N 0.4639 0.90726 0.14457 0.0
N952 N 0.44829 0.86389 0.17826 0.0
C953 C 0.43172 0.88061 0.17825 0.0
C954 C 0.44023 0.90417 0.15996 0.0
C955 C 0.57928 0.4409 0.29989 0.0
C956 C 0.54812 0.42181 0.28834 0.0
C957 C 0.59049 0.42822 0.31813 0.0
C958 C 0.57088 0.39605 0.32569 0.0
H959 H 0.59551 0.46552 0.29426 0.0
H960 H 0.61501 0.44363 0.32592 0.0
S961 S 0.4866 0.33649 0.30199 0.0
N962 N 0.49737 0.36943 0.28629 0.0
N963 N 0.51811 0.34581 0.32079 0.0
C964 C 0.53917 0.3771 0.31489 0.0
C965 C 0.52791 0.3899 0.29616 0.0
C966 C 0.46715 0.86738 0.33546 0.0
C967 C 0.44557 0.87379 0.34881 0.0
C968 C 0.45909 0.85438 0.31164 0.0
C969 C 0.42883 0.84665 0.30026 0.0
H970 H 0.49063 0.87259 0.34346 0.0
H971 H 0.47672 0.85018 0.30213 0.0
S972 S 0.3632 0.85803 0.32744 0.0
N973 N 0.39237 0.87101 0.34898 0.0
N974 N 0.37695 0.84614 0.30426 0.0
C975 C 0.40668 0.85235 0.31352 0.0
C976 C 0.41508 0.86597 0.33774 0.0
C977 C 0.57075 0.40852 0.47129 0.0
C978 C 0.55821 0.43003 0.47078 0.0
C979 C 0.58732 0.40502 0.45155 0.0
C980 C 0.59242 0.42323 0.43061 0.0
H981 H 0.56685 0.39355 0.48687 0.0
H982 H 0.59589 0.38765 0.45257 0.0
S983 S 0.56359 0.48197 0.41941 0.0
N984 N 0.55106 0.46889 0.44687 0.0
N985 N 0.58334 0.4632 0.41025 0.0
C986 C 0.58054 0.4452 0.42991 0.0
C987 C 0.56305 0.44828 0.4498 0.0
C988 C 0.15566 0.57887 0.67846 0.0
C989 C 0.13815 0.54462 0.67586 0.0
C990 C 0.17338 0.59833 0.65929 0.0
C991 C 0.17463 0.5842 0.63699 0.0
H992 H 0.15701 0.59071 0.69582 0.0
H993 H 0.18819 0.62444 0.66258 0.0
S994 S 0.12813 0.49647 0.61916 0.0
N995 N 0.11886 0.49788 0.64779 0.0
N996 N 0.15355 0.53459 0.61211 0.0
C997 C 0.15529 0.55031 0.63346 0.0
C998 C 0.13661 0.53047 0.6528 0.0
C999 C 0.57286 0.14016 0.8566 0.0
C1000 C 0.6033 0.12571 0.86012 0.0
C1001 C 0.58003 0.16637 0.83116 0.0
C1002 C 0.61779 0.18197 0.81449 0.0
H1003 H 0.5497 0.12896 0.86575 0.0
H1004 H 0.56201 0.17334 0.82629 0.0
S1005 S 0.69449 0.16383 0.82826 0.0
N1006 N 0.66955 0.141 0.8502 0.0
N1007 N 0.67857 0.18317 0.81248 0.0
C1008 C 0.64999 0.17354 0.82345 0.0
C1009 C 0.64522 0.14804 0.848 0.0
C1010 C 0.46094 0.56811 0.97363 0.0
C1011 C 0.46924 0.60428 0.9933 0.0
C1012 C 0.4385 0.56395 0.94538 0.0
C1013 C 0.43151 0.5965 0.93571 0.0
H1014 H 0.46327 0.54812 0.98051 0.0
H1015 H 0.42942 0.54196 0.93418 0.0
S1016 S 0.46206 0.68463 0.97266 0.0
N1017 N 0.47705 0.66865 0.99287 0.0
N1018 N 0.44406 0.65992 0.94792 0.0
C1019 C 0.44828 0.6346 0.95293 0.0
C1020 C 0.47055 0.64102 0.98087 0.0
C1021 C 0.86538 0.43415 0.14711 0.0
C1022 C 0.85352 0.45098 0.1612 0.0
C1023 C 0.85231 0.42169 0.12369 0.0
C1024 C 0.82707 0.42587 0.11318 0.0
H1025 H 0.88599 0.43189 0.1538 0.0
H1026 H 0.86327 0.41006 0.11337 0.0
S1027 S 0.78556 0.46585 0.14338 0.0
N1028 N 0.81374 0.46946 0.16357 0.0
N1029 N 0.78894 0.44595 0.1197 0.0
C1030 C 0.81385 0.44124 0.12758 0.0
C1031 C 0.82719 0.45389 0.15147 0.0
loop_
_geom_bond_atom_site_label_1
_geom_bond_atom_site_label_2
_geom_bond_distance
_geom_bond_site_symmetry_2
_ccdc_geom_bond_type
C0 C1 1.560 . S
C0 H61 0.959 . S
C0 H62 0.959 . S
C0 H63 0.960 . S
C1 C0 1.560 . S
C1 O56 1.426 . S
C1 H60 0.980 . S
C2 C3 1.407 . S
C2 C7 1.418 . S
C2 O56 1.334 . S
C3 C2 1.407 . S
C3 C4 1.360 . S
C3 H64 0.929 . S
C4 C3 1.360 . S
C4 C5 1.401 . S
C4 C8 1.527 . S
C5 C4 1.401 . S
C5 C6 1.405 . S
C5 C38 1.587 . S
C6 C5 1.405 . S
C6 C7 1.332 . S
C6 C9 1.496 . S
C7 C2 1.418 . S
C7 C6 1.332 . S
C7 H65 0.929 . S
C8 C4 1.527 . S
C8 H66 0.959 . S
C8 H67 0.961 . S
C8 H68 0.961 . S
C9 C6 1.496 . S
C9 H69 0.960 . S
C9 H70 0.960 . S
C9 H71 0.961 . S
C10 C11 1.517 . S
C10 H73 0.961 . S
C10 H74 0.960 . S
C10 H75 0.959 . S
C11 C10 1.517 . S
C11 O59 1.468 . S
C11 H72 0.980 . S
C12 C13 1.349 . S
C12 C17 1.367 . S
C12 O59 1.408 . S
C13 C12 1.349 . S
C13 C14 1.407 . S
C13 H76 0.930 . S
C14 C13 1.407 . S
C14 C15 1.449 . S
C14 C18 1.535 . S
C15 C14 1.449 . S
C15 C16 1.384 . S
C15 C40 1.553 1_655 S
C16 C15 1.384 . S
C16 C17 1.364 . S
C16 C19 1.450 . S
C17 C12 1.367 . S
C17 C16 1.364 . S
C17 H77 0.931 . S
C18 C14 1.535 . S
C18 H78 0.959 1_655 S
C18 H79 0.961 . S
C18 H80 0.959 . S
C19 C16 1.450 . S
C19 H81 0.960 . S
C19 H82 0.960 1_655 S
C19 H83 0.960 . S
C20 C21 1.309 . S
C20 C25 1.304 . S
C20 O58 1.435 . S
C21 C20 1.309 . S
C21 C22 1.476 . S
C21 H85 0.930 . S
C22 C21 1.476 . S
C22 C23 1.400 . S
C22 C26 1.567 . S
C23 C22 1.400 . S
C23 C24 1.373 . S
C23 C45 1.432 . S
C24 C23 1.373 . S
C24 C25 1.339 . S
C24 C27 1.530 . S
C25 C20 1.304 . S
C25 C24 1.339 . S
C25 H86 0.930 . S
C26 C22 1.567 . S
C26 H87 0.961 . S
C26 H88 0.960 . S
C26 H89 0.958 . S
C27 C24 1.530 . S
C27 H90 0.961 . S
C27 H91 0.960 . S
C27 H92 0.960 . S
C28 C29 1.530 . S
C28 H94 0.961 . S
C28 H95 0.961 . S
C28 H96 0.959 . S
C29 C28 1.530 . S
C29 O57 1.412 . S
C29 H93 0.980 . S
C30 C31 1.288 . S
C30 C35 1.377 . S
C30 O57 1.393 . S
C31 C30 1.288 . S
C31 C32 1.369 . S
C31 H97 0.932 . S
C32 C31 1.369 . S
C32 C33 1.398 . S
C32 C36 1.527 . S
C33 C32 1.398 . S
C33 C34 1.380 . S
C33 C47 1.497 . S
C34 C33 1.380 . S
C34 C35 1.383 . S
C34 C37 1.603 . S
C35 C30 1.377 . S
C35 C34 1.383 . S
C35 H98 0.929 . S
C36 C32 1.527 . S
C36 H99 0.961 . S
C36 H100 0.959 1_455 S
C36 H101 0.959 . S
C37 C34 1.603 . S
C37 H102 0.960 . S
C37 H103 0.962 . S
C37 H104 0.961 . S
C38 C5 1.587 . S
C38 C39 1.360 . S
C38 C51 1.412 . S
C39 C38 1.360 . S
C39 C40 1.365 . S
C39 H105 0.929 . S
C40 C15 1.553 1_455 S
C40 C39 1.365 . S
C40 C41 1.404 1_455 S
C41 C40 1.404 1_655 S
C41 C42 1.395 . S
C41 C52 1.451 1_655 S
C42 C41 1.395 . S
C42 C43 1.322 . S
C42 H106 0.930 . S
C43 C42 1.322 . S
C43 C44 1.459 . S
C43 H107 0.929 . S
C44 C43 1.459 . S
C44 C45 1.445 . S
C44 C53 1.395 1_655 S
C45 C23 1.432 . S
C45 C44 1.445 . S
C45 C46 1.370 . S
C46 C45 1.370 . S
C46 C47 1.438 1_655 S
C46 H108 0.930 . S
C47 C33 1.497 . S
C47 C46 1.438 1_455 S
C47 C48 1.360 . S
C48 C47 1.360 . S
C48 C49 1.401 . S
C48 C53 1.446 . S
C49 C48 1.401 . S
C49 C50 1.347 . S
C49 H109 0.929 . S
C50 C49 1.347 . S
C50 C51 1.455 . S
C50 H110 0.930 . S
C51 C38 1.412 . S
C51 C50 1.455 . S
C51 C52 1.331 . S
C52 C41 1.451 1_455 S
C52 C51 1.331 . S
C52 C53 1.497 . S
C53 C44 1.395 1_455 S
C53 C48 1.446 . S
C53 C52 1.497 . S
C54 C55 1.582 . S
C54 H111 0.962 . S
C54 H112 0.959 . S
C54 H113 0.958 . S
C55 C54 1.582 . S
C55 O58 1.458 . S
C55 H84 0.980 . S
O56 C1 1.426 . S
O56 C2 1.334 . S
O57 C29 1.412 . S
O57 C30 1.393 . S
O58 C20 1.435 . S
O58 C55 1.458 . S
O59 C11 1.468 . S
O59 C12 1.408 . S
H60 C1 0.980 . S
H61 C0 0.959 . S
H62 C0 0.959 . S
H63 C0 0.960 . S
H64 C3 0.929 . S
H65 C7 0.929 . S
H66 C8 0.959 . S
H67 C8 0.961 . S
H68 C8 0.961 . S
H69 C9 0.960 . S
H70 C9 0.960 . S
H71 C9 0.961 . S
H72 C11 0.980 . S
H73 C10 0.961 . S
H74 C10 0.960 . S
H75 C10 0.959 . S
H76 C13 0.930 . S
H77 C17 0.931 . S
H78 C18 0.959 1_455 S
H79 C18 0.961 . S
H80 C18 0.959 . S
H81 C19 0.960 . S
H82 C19 0.960 1_455 S
H83 C19 0.960 . S
H84 C55 0.980 . S
H85 C21 0.930 . S
H86 C25 0.930 . S
H87 C26 0.961 . S
H88 C26 0.960 . S
H89 C26 0.958 . S
H90 C27 0.961 . S
H91 C27 0.960 . S
H92 C27 0.960 . S
H93 C29 0.980 . S
H94 C28 0.961 . S
H95 C28 0.961 . S
H96 C28 0.959 . S
H97 C31 0.932 . S
H98 C35 0.929 . S
H99 C36 0.961 . S
H100 C36 0.959 1_655 S
H101 C36 0.959 . S
H102 C37 0.960 . S
H103 C37 0.962 . S
H104 C37 0.961 . S
H105 C39 0.929 . S
H106 C42 0.930 . S
H107 C43 0.929 . S
H108 C46 0.930 . S
H109 C49 0.929 . S
H110 C50 0.930 . S
H111 C54 0.962 . S
H112 C54 0.959 . S
H113 C54 0.958 . S
C114 C115 1.560 . S
C114 H175 0.959 . S
C114 H176 0.959 . S
C114 H177 0.960 . S
C115 C114 1.560 . S
C115 O170 1.426 . S
C115 H174 0.980 . S
C116 C117 1.407 . S
C116 C121 1.418 . S
C116 O170 1.334 . S
C117 C116 1.407 . S
C117 C118 1.360 . S
C117 H178 0.929 . S
C118 C117 1.360 . S
C118 C119 1.401 . S
C118 C122 1.527 . S
C119 C118 1.401 . S
C119 C120 1.405 . S
C119 C152 1.587 . S
C120 C119 1.405 . S
C120 C121 1.332 . S
C120 C123 1.496 . S
C121 C116 1.418 . S
C121 C120 1.332 . S
C121 H179 0.929 . S
C122 C118 1.527 . S
C122 H180 0.959 . S
C122 H181 0.961 . S
C122 H182 0.961 . S
C123 C120 1.496 . S
C123 H183 0.960 . S
C123 H184 0.960 . S
C123 H185 0.961 . S
C124 C125 1.517 . S
C124 H187 0.961 . S
C124 H188 0.960 . S
C124 H189 0.959 . S
C125 C124 1.517 . S
C125 O173 1.468 . S
C125 H186 0.980 . S
C126 C127 1.349 . S
C126 C131 1.367 . S
C126 O173 1.408 . S
C127 C126 1.349 . S
C127 C128 1.407 . S
C127 H190 0.930 . S
C128 C127 1.407 . S
C128 C129 1.449 . S
C128 C132 1.535 . S
C129 C128 1.449 . S
C129 C130 1.384 . S
C129 C154 1.553 . S
C130 C129 1.384 . S
C130 C131 1.364 . S
C130 C133 1.450 . S
C131 C126 1.367 . S
C131 C130 1.364 . S
C131 H191 0.931 . S
C132 C128 1.535 . S
C132 H192 0.959 . S
C132 H193 0.961 . S
C132 H194 0.959 . S
C133 C130 1.450 . S
C133 H195 0.960 . S
C133 H196 0.960 . S
C133 H197 0.960 . S
C134 C135 1.309 . S
C134 C139 1.304 . S
C134 O172 1.435 . S
C135 C134 1.309 . S
C135 C136 1.476 . S
C135 H199 0.930 . S
C136 C135 1.476 . S
C136 C137 1.400 . S
C136 C140 1.567 . S
C137 C136 1.400 . S
C137 C138 1.373 . S
C137 C159 1.432 . S
C138 C137 1.373 . S
C138 C139 1.339 . S
C138 C141 1.530 . S
C139 C134 1.304 . S
C139 C138 1.339 . S
C139 H200 0.930 . S
C140 C136 1.567 . S
C140 H201 0.961 . S
C140 H202 0.960 . S
C140 H203 0.958 . S
C141 C138 1.530 . S
C141 H204 0.961 . S
C141 H205 0.960 . S
C141 H206 0.960 . S
C142 C143 1.530 . S
C142 H208 0.961 . S
C142 H209 0.961 . S
C142 H210 0.959 . S
C143 C142 1.530 . S
C143 O171 1.412 . S
C143 H207 0.980 . S
C144 C145 1.288 . S
C144 C149 1.377 . S
C144 O171 1.393 . S
C145 C144 1.288 . S
C145 C146 1.369 . S
C145 H211 0.932 . S
C146 C145 1.369 . S
C146 C147 1.398 . S
C146 C150 1.527 1_565 S
C147 C146 1.398 . S
C147 C148 1.380 . S
C147 C161 1.497 1_565 S
C148 C147 1.380 . S
C148 C149 1.383 . S
C148 C151 1.603 . S
C149 C144 1.377 . S
C149 C148 1.383 . S
C149 H212 0.929 . S
C150 C146 1.527 1_545 S
C150 H213 0.961 . S
C150 H214 0.959 . S
C150 H215 0.959 1_545 S
C151 C148 1.603 . S
C151 H216 0.960 . S
C151 H217 0.962 . S
C151 H218 0.961 . S
C152 C119 1.587 . S
C152 C153 1.360 . S
C152 C165 1.412 . S
C153 C152 1.360 . S
C153 C154 1.365 1_565 S
C153 H219 0.929 . S
C154 C129 1.553 . S
C154 C153 1.365 1_545 S
C154 C155 1.404 . S
C155 C154 1.404 . S
C155 C156 1.395 . S
C155 C166 1.451 . S
C156 C155 1.395 . S
C156 C157 1.322 . S
C156 H220 0.930 . S
C157 C156 1.322 . S
C157 C158 1.459 . S
C157 H221 0.929 . S
C158 C157 1.459 . S
C158 C159 1.445 . S
C158 C167 1.395 . S
C159 C137 1.432 . S
C159 C158 1.445 . S
C159 C160 1.370 . S
C160 C159 1.370 . S
C160 C161 1.438 . S
C160 H222 0.930 . S
C161 C147 1.497 1_545 S
C161 C160 1.438 . S
C161 C162 1.366 . S
C162 C161 1.366 . S
C162 C163 1.388 1_545 S
C162 C167 1.453 . S
C163 C162 1.388 1_565 S
C163 C164 1.347 . S
C163 H223 0.929 . S
C164 C163 1.347 . S
C164 C165 1.455 . S
C164 H224 0.930 . S
C165 C152 1.412 . S
C165 C164 1.455 . S
C165 C166 1.331 1_565 S
C166 C155 1.451 . S
C166 C165 1.331 1_545 S
C166 C167 1.497 . S
C167 C158 1.395 . S
C167 C162 1.453 . S
C167 C166 1.497 . S
C168 C169 1.582 . S
C168 H225 0.962 . S
C168 H226 0.959 . S
C168 H227 0.958 . S
C169 C168 1.582 . S
C169 O172 1.458 . S
C169 H198 0.980 . S
O170 C115 1.426 . S
O170 C116 1.334 . S
O171 C143 1.412 . S
O171 C144 1.393 . S
O172 C134 1.435 . S
O172 C169 1.458 . S
O173 C125 1.468 . S
O173 C126 1.408 . S
H174 C115 0.980 . S
H175 C114 0.959 . S
H176 C114 0.959 . S
H177 C114 0.960 . S
H178 C117 0.929 . S
H179 C121 0.929 . S
H180 C122 0.959 . S
H181 C122 0.961 . S
H182 C122 0.961 . S
H183 C123 0.960 . S
H184 C123 0.960 . S
H185 C123 0.961 . S
H186 C125 0.980 . S
H187 C124 0.961 . S
H188 C124 0.960 . S
H189 C124 0.959 . S
H190 C127 0.930 . S
H191 C131 0.931 . S
H192 C132 0.959 . S
H193 C132 0.961 . S
H194 C132 0.959 . S
H195 C133 0.960 . S
H196 C133 0.960 . S
H197 C133 0.960 . S
H198 C169 0.980 . S
H199 C135 0.930 . S
H200 C139 0.930 . S
H201 C140 0.961 . S
H202 C140 0.960 . S
H203 C140 0.958 . S
H204 C141 0.961 . S
H205 C141 0.960 . S
H206 C141 0.960 . S
H207 C143 0.980 . S
H208 C142 0.961 . S
H209 C142 0.961 . S
H210 C142 0.959 . S
H211 C145 0.932 . S
H212 C149 0.929 . S
H213 C150 0.961 . S
H214 C150 0.959 . S
H215 C150 0.959 1_565 S
H216 C151 0.960 . S
H217 C151 0.962 . S
H218 C151 0.961 . S
H219 C153 0.929 . S
H220 C156 0.930 . S
H221 C157 0.929 . S
H222 C160 0.930 . S
H223 C163 0.929 . S
H224 C164 0.930 . S
H225 C168 0.962 . S
H226 C168 0.959 . S
H227 C168 0.958 . S
C228 C229 1.560 . S
C228 H289 0.959 . S
C228 H290 0.959 . S
C228 H291 0.960 . S
C229 C228 1.560 . S
C229 O284 1.426 . S
C229 H288 0.980 . S
C230 C231 1.407 . S
C230 C235 1.418 . S
C230 O284 1.334 . S
C231 C230 1.407 . S
C231 C232 1.360 . S
C231 H292 0.929 . S
C232 C231 1.360 . S
C232 C233 1.401 . S
C232 C236 1.527 . S
C233 C232 1.401 . S
C233 C234 1.405 . S
C233 C266 1.587 . S
C234 C233 1.405 . S
C234 C235 1.332 . S
C234 C237 1.496 . S
C235 C230 1.418 . S
C235 C234 1.332 . S
C235 H293 0.929 . S
C236 C232 1.527 . S
C236 H294 0.959 . S
C236 H295 0.961 . S
C236 H296 0.961 . S
C237 C234 1.496 . S
C237 H297 0.960 . S
C237 H298 0.960 . S
C237 H299 0.961 . S
C238 C239 1.517 . S
C238 H301 0.961 . S
C238 H302 0.960 . S
C238 H303 0.959 . S
C239 C238 1.517 . S
C239 O287 1.468 . S
C239 H300 0.980 . S
C240 C241 1.349 . S
C240 C245 1.367 . S
C240 O287 1.408 . S
C241 C240 1.349 . S
C241 C242 1.407 . S
C241 H304 0.930 . S
C242 C241 1.407 . S
C242 C243 1.449 . S
C242 C246 1.535 . S
C243 C242 1.449 . S
C243 C244 1.384 . S
C243 C268 1.553 . S
C244 C243 1.384 . S
C244 C245 1.364 . S
C244 C247 1.450 . S
C245 C240 1.367 . S
C245 C244 1.364 . S
C245 H305 0.931 . S
C246 C242 1.535 . S
C246 H306 0.959 . S
C246 H307 0.961 . S
C246 H308 0.959 . S
C247 C244 1.450 . S
C247 H309 0.960 . S
C247 H310 0.960 . S
C247 H311 0.960 . S
C248 C249 1.309 . S
C248 C253 1.304 . S
C248 O286 1.435 . S
C249 C248 1.309 . S
C249 C250 1.476 . S
C249 H313 0.930 . S
C250 C249 1.476 . S
C250 C251 1.400 . S
C250 C254 1.567 . S
C251 C250 1.400 . S
C251 C252 1.373 . S
C251 C273 1.432 . S
C252 C251 1.373 . S
C252 C253 1.339 . S
C252 C255 1.530 . S
C253 C248 1.304 . S
C253 C252 1.339 . S
C253 H314 0.930 . S
C254 C250 1.567 . S
C254 H315 0.961 . S
C254 H316 0.960 . S
C254 H317 0.958 . S
C255 C252 1.530 . S
C255 H318 0.961 . S
C255 H319 0.960 . S
C255 H320 0.960 . S
C256 C257 1.530 . S
C256 H322 0.961 . S
C256 H323 0.961 . S
C256 H324 0.959 . S
C257 C256 1.530 . S
C257 O285 1.412 . S
C257 H321 0.980 . S
C258 C259 1.288 . S
C258 C263 1.377 . S
C258 O285 1.393 . S
C259 C258 1.288 . S
C259 C260 1.369 . S
C259 H325 0.932 . S
C260 C259 1.369 . S
C260 C261 1.398 . S
C260 C264 1.527 . S
C261 C260 1.398 . S
C261 C262 1.380 . S
C261 C275 1.497 . S
C262 C261 1.380 . S
C262 C263 1.383 . S
C262 C265 1.603 . S
C263 C258 1.377 . S
C263 C262 1.383 . S
C263 H326 0.929 . S
C264 C260 1.527 . S
C264 H327 0.961 . S
C264 H328 0.959 . S
C264 H329 0.959 . S
C265 C262 1.603 . S
C265 H330 0.960 . S
C265 H331 0.962 . S
C265 H332 0.961 . S
C266 C233 1.587 . S
C266 C267 1.360 . S
C266 C279 1.412 . S
C267 C266 1.360 . S
C267 C268 1.365 . S
C267 H333 0.929 . S
C268 C243 1.553 . S
C268 C267 1.365 . S
C268 C269 1.404 . S
C269 C268 1.404 . S
C269 C270 1.395 . S
C269 C280 1.451 . S
C270 C269 1.395 . S
C270 C271 1.322 . S
C270 H334 0.930 . S
C271 C270 1.322 . S
C271 C272 1.459 . S
C271 H335 0.929 . S
C272 C271 1.459 . S
C272 C273 1.445 . S
C272 C281 1.395 . S
C273 C251 1.432 . S
C273 C272 1.445 . S
C273 C274 1.370 . S
C274 C273 1.370 . S
C274 C275 1.438 . S
C274 H336 0.930 . S
C275 C261 1.497 . S
C275 C274 1.438 . S
C275 C276 1.360 . S
C276 C275 1.360 . S
C276 C277 1.401 . S
C276 C281 1.446 . S
C277 C276 1.401 . S
C277 C278 1.347 . S
C277 H337 0.929 . S
C278 C277 1.347 . S
C278 C279 1.455 . S
C278 H338 0.930 . S
C279 C266 1.412 . S
C279 C278 1.455 . S
C279 C280 1.331 . S
C280 C269 1.451 . S
C280 C279 1.331 . S
C280 C281 1.497 . S
C281 C272 1.395 . S
C281 C276 1.446 . S
C281 C280 1.497 . S
C282 C283 1.582 . S
C282 H339 0.962 . S
C282 H340 0.959 . S
C282 H341 0.958 . S
C283 C282 1.582 . S
C283 O286 1.458 . S
C283 H312 0.980 . S
O284 C229 1.426 . S
O284 C230 1.334 . S
O285 C257 1.412 . S
O285 C258 1.393 . S
O286 C248 1.435 . S
O286 C283 1.458 . S
O287 C239 1.468 . S
O287 C240 1.408 . S
H288 C229 0.980 . S
H289 C228 0.959 . S
H290 C228 0.959 . S
H291 C228 0.960 . S
H292 C231 0.929 . S
H293 C235 0.929 . S
H294 C236 0.959 . S
H295 C236 0.961 . S
H296 C236 0.961 . S
H297 C237 0.960 . S
H298 C237 0.960 . S
H299 C237 0.961 . S
H300 C239 0.980 . S
H301 C238 0.961 . S
H302 C238 0.960 . S
H303 C238 0.959 . S
H304 C241 0.930 . S
H305 C245 0.931 . S
H306 C246 0.959 . S
H307 C246 0.961 . S
H308 C246 0.959 . S
H309 C247 0.960 . S
H310 C247 0.960 . S
H311 C247 0.960 . S
H312 C283 0.980 . S
H313 C249 0.930 . S
H314 C253 0.930 . S
H315 C254 0.961 . S
H316 C254 0.960 . S
H317 C254 0.958 . S
H318 C255 0.961 . S
H319 C255 0.960 . S
H320 C255 0.960 . S
H321 C257 0.980 . S
H322 C256 0.961 . S
H323 C256 0.961 . S
H324 C256 0.959 . S
H325 C259 0.932 . S
H326 C263 0.929 . S
H327 C264 0.961 . S
H328 C264 0.959 . S
H329 C264 0.959 . S
H330 C265 0.960 . S
H331 C265 0.962 . S
H332 C265 0.961 . S
H333 C267 0.929 . S
H334 C270 0.930 . S
H335 C271 0.929 . S
H336 C274 0.930 . S
H337 C277 0.929 . S
H338 C278 0.930 . S
H339 C282 0.962 . S
H340 C282 0.959 . S
H341 C282 0.958 . S
C342 C343 1.560 . S
C342 H403 0.959 . S
C342 H404 0.959 . S
C342 H405 0.960 . S
C343 C342 1.560 . S
C343 O398 1.426 . S
C343 H402 0.980 . S
C344 C345 1.407 . S
C344 C349 1.418 . S
C344 O398 1.334 . S
C345 C344 1.407 . S
C345 C346 1.360 . S
C345 H406 0.929 . S
C346 C345 1.360 . S
C346 C347 1.401 . S
C346 C350 1.527 . S
C347 C346 1.401 . S
C347 C348 1.405 . S
C347 C380 1.587 . S
C348 C347 1.405 . S
C348 C349 1.332 . S
C348 C351 1.496 . S
C349 C344 1.418 . S
C349 C348 1.332 . S
C349 H407 0.929 . S
C350 C346 1.527 . S
C350 H408 0.959 . S
C350 H409 0.961 . S
C350 H410 0.961 . S
C351 C348 1.496 . S
C351 H411 0.960 . S
C351 H412 0.960 . S
C351 H413 0.961 . S
C352 C353 1.517 . S
C352 H415 0.961 1_556 S
C352 H416 0.966 . S
C352 H417 0.959 . S
C353 C352 1.517 . S
C353 O401 1.468 . S
C353 H414 0.980 . S
C354 C355 1.349 . S
C354 C359 1.367 . S
C354 O401 1.408 . S
C355 C354 1.349 . S
C355 C356 1.407 . S
C355 H418 0.930 . S
C356 C355 1.407 . S
C356 C357 1.449 . S
C356 C360 1.535 . S
C357 C356 1.449 . S
C357 C358 1.384 . S
C357 C382 1.553 1_655 S
C358 C357 1.384 . S
C358 C359 1.364 . S
C358 C361 1.450 . S
C359 C354 1.367 . S
C359 C358 1.364 . S
C359 H419 0.931 . S
C360 C356 1.535 . S
C360 H420 0.959 1_655 S
C360 H421 0.961 1_655 S
C360 H422 0.959 . S
C361 C358 1.450 . S
C361 H423 0.960 . S
C361 H424 0.960 1_655 S
C361 H425 0.960 . S
C362 C363 1.309 . S
C362 C367 1.304 . S
C362 O400 1.435 . S
C363 C362 1.309 . S
C363 C364 1.476 . S
C363 H427 0.930 . S
C364 C363 1.476 . S
C364 C365 1.400 . S
C364 C368 1.567 . S
C365 C364 1.400 . S
C365 C366 1.373 . S
C365 C387 1.432 . S
C366 C365 1.373 . S
C366 C367 1.339 . S
C366 C369 1.530 . S
C367 C362 1.304 . S
C367 C366 1.339 . S
C367 H428 0.930 . S
C368 C364 1.567 . S
C368 H429 0.961 . S
C368 H430 0.960 . S
C368 H431 0.958 . S
C369 C366 1.530 . S
C369 H432 0.961 . S
C369 H433 0.960 . S
C369 H434 0.960 . S
C370 C371 1.530 . S
C370 H436 0.961 . S
C370 H437 0.961 . S
C370 H438 0.959 . S
C371 C370 1.530 . S
C371 O399 1.412 . S
C371 H435 0.980 . S
C372 C373 1.288 . S
C372 C377 1.377 . S
C372 O399 1.393 . S
C373 C372 1.288 . S
C373 C374 1.369 . S
C373 H439 0.932 . S
C374 C373 1.369 . S
C374 C375 1.398 . S
C374 C378 1.527 . S
C375 C374 1.398 . S
C375 C376 1.380 . S
C375 C389 1.497 . S
C376 C375 1.380 . S
C376 C377 1.383 . S
C376 C379 1.603 . S
C377 C372 1.377 . S
C377 C376 1.383 . S
C377 H440 0.929 . S
C378 C374 1.527 . S
C378 H441 0.961 . S
C378 H442 0.959 1_455 S
C378 H443 0.959 . S
C379 C376 1.603 . S
C379 H444 0.960 . S
C379 H445 0.962 . S
C379 H446 0.961 . S
C380 C347 1.587 . S
C380 C381 1.360 . S
C380 C393 1.412 . S
C381 C380 1.360 . S
C381 C382 1.365 . S
C381 H447 0.929 . S
C382 C357 1.553 1_455 S
C382 C381 1.365 . S
C382 C383 1.412 . S
C383 C382 1.412 . S
C383 C384 1.378 1_455 S
C383 C394 1.464 . S
C384 C383 1.378 1_655 S
C384 C385 1.322 . S
C384 H448 0.930 . S
C385 C384 1.322 . S
C385 C386 1.459 . S
C385 H449 0.929 . S
C386 C385 1.459 . S
C386 C387 1.445 . S
C386 C395 1.395 1_655 S
C387 C365 1.432 . S
C387 C386 1.445 . S
C387 C388 1.370 . S
C388 C387 1.370 . S
C388 C389 1.438 1_655 S
C388 H450 0.930 . S
C389 C375 1.497 . S
C389 C388 1.438 1_455 S
C389 C390 1.360 . S
C390 C389 1.360 . S
C390 C391 1.401 . S
C390 C395 1.446 . S
C391 C390 1.401 . S
C391 C392 1.347 . S
C391 H451 0.929 . S
C392 C391 1.347 . S
C392 C393 1.455 . S
C392 H452 0.930 . S
C393 C380 1.412 . S
C393 C392 1.455 . S
C393 C394 1.331 . S
C394 C383 1.464 . S
C394 C393 1.331 . S
C394 C395 1.497 . S
C395 C386 1.395 1_455 S
C395 C390 1.446 . S
C395 C394 1.497 . S
C396 C397 1.582 . S
C396 H453 0.962 . S
C396 H454 0.959 . S
C396 H455 0.958 . S
C397 C396 1.582 . S
C397 O400 1.458 . S
C397 H426 0.980 . S
O398 C343 1.426 . S
O398 C344 1.334 . S
O399 C371 1.412 . S
O399 C372 1.393 . S
O400 C362 1.435 . S
O400 C397 1.458 . S
O401 C353 1.468 . S
O401 C354 1.408 . S
H402 C343 0.980 . S
H403 C342 0.959 . S
H404 C342 0.959 . S
H405 C342 0.960 . S
H406 C345 0.929 . S
H407 C349 0.929 . S
H408 C350 0.959 . S
H409 C350 0.961 . S
H410 C350 0.961 . S
H411 C351 0.960 . S
H412 C351 0.960 . S
H413 C351 0.961 . S
H414 C353 0.980 . S
H415 C352 0.961 1_554 S
H416 C352 0.966 . S
H417 C352 0.959 . S
H418 C355 0.930 . S
H419 C359 0.931 . S
H420 C360 0.959 1_455 S
H421 C360 0.961 1_455 S
H422 C360 0.959 . S
H423 C361 0.960 . S
H424 C361 0.960 1_455 S
H425 C361 0.960 . S
H426 C397 0.980 . S
H427 C363 0.930 . S
H428 C367 0.930 . S
H429 C368 0.961 . S
H430 C368 0.960 . S
H431 C368 0.958 . S
H432 C369 0.961 . S
H433 C369 0.960 . S
H434 C369 0.960 . S
H435 C371 0.980 . S
H436 C370 0.961 . S
H437 C370 0.961 . S
H438 C370 0.959 . S
H439 C373 0.932 . S
H440 C377 0.929 . S
H441 C378 0.961 . S
H442 C378 0.959 1_655 S
H443 C378 0.959 . S
H444 C379 0.960 . S
H445 C379 0.962 . S
H446 C379 0.961 . S
H447 C381 0.929 . S
H448 C384 0.930 . S
H449 C385 0.929 . S
H450 C388 0.930 . S
H451 C391 0.929 . S
H452 C392 0.930 . S
H453 C396 0.962 . S
H454 C396 0.959 . S
H455 C396 0.958 . S
C456 C457 1.560 . S
C456 H517 0.959 . S
C456 H518 0.959 . S
C456 H519 0.960 . S
C457 C456 1.560 . S
C457 O512 1.426 . S
C457 H516 0.980 . S
C458 C459 1.407 . S
C458 C463 1.418 . S
C458 O512 1.334 . S
C459 C458 1.407 . S
C459 C460 1.360 . S
C459 H520 0.929 . S
C460 C459 1.360 . S
C460 C461 1.401 . S
C460 C464 1.527 . S
C461 C460 1.401 . S
C461 C462 1.405 . S
C461 C494 1.587 . S
C462 C461 1.405 . S
C462 C463 1.332 . S
C462 C465 1.496 . S
C463 C458 1.418 . S
C463 C462 1.332 . S
C463 H521 0.929 . S
C464 C460 1.527 . S
C464 H522 0.959 . S
C464 H523 0.961 . S
C464 H524 0.961 . S
C465 C462 1.496 . S
C465 H525 0.960 . S
C465 H526 0.960 . S
C465 H527 0.961 . S
C466 C467 1.517 . S
C466 H529 0.961 . S
C466 H530 0.960 . S
C466 H531 0.959 . S
C467 C466 1.517 . S
C467 O515 1.468 . S
C467 H528 0.980 . S
C468 C469 1.349 . S
C468 C473 1.367 . S
C468 O515 1.408 . S
C469 C468 1.349 . S
C469 C470 1.407 . S
C469 H532 0.930 . S
C470 C469 1.407 . S
C470 C471 1.449 . S
C470 C474 1.535 . S
C471 C470 1.449 . S
C471 C472 1.384 . S
C471 C496 1.553 . S
C472 C471 1.384 . S
C472 C473 1.364 . S
C472 C475 1.450 . S
C473 C468 1.367 . S
C473 C472 1.364 . S
C473 H533 0.931 . S
C474 C470 1.535 . S
C474 H534 0.959 . S
C474 H535 0.961 . S
C474 H536 0.959 . S
C475 C472 1.450 . S
C475 H537 0.960 . S
C475 H538 0.960 . S
C475 H539 0.960 . S
C476 C477 1.309 . S
C476 C481 1.304 . S
C476 O514 1.435 . S
C477 C476 1.309 . S
C477 C478 1.476 . S
C477 H541 0.930 . S
C478 C477 1.476 . S
C478 C479 1.400 . S
C478 C482 1.567 . S
C479 C478 1.400 . S
C479 C480 1.373 . S
C479 C501 1.432 . S
C480 C479 1.373 . S
C480 C481 1.339 . S
C480 C483 1.530 . S
C481 C476 1.304 . S
C481 C480 1.339 . S
C481 H542 0.930 . S
C482 C478 1.567 . S
C482 H543 0.961 . S
C482 H544 0.960 . S
C482 H545 0.958 . S
C483 C480 1.530 . S
C483 H546 0.961 . S
C483 H547 0.960 . S
C483 H548 0.960 . S
C484 C485 1.530 . S
C484 H550 0.961 . S
C484 H551 0.961 . S
C484 H552 0.959 . S
C485 C484 1.530 . S
C485 O513 1.412 . S
C485 H549 0.980 . S
C486 C487 1.288 . S
C486 C491 1.377 . S
C486 O513 1.393 . S
C487 C486 1.288 . S
C487 C488 1.369 . S
C487 H553 0.932 . S
C488 C487 1.369 . S
C488 C489 1.399 1_565 S
C488 C492 1.527 1_565 S
C489 C488 1.399 1_545 S
C489 C490 1.380 1_545 S
C489 C503 1.497 . S
C490 C489 1.380 1_565 S
C490 C491 1.383 . S
C490 C493 1.603 . S
C491 C486 1.377 . S
C491 C490 1.383 . S
C491 H554 0.929 . S
C492 C488 1.527 1_545 S
C492 H555 0.961 . S
C492 H556 0.959 . S
C492 H557 0.959 . S
C493 C490 1.603 . S
C493 H558 0.960 . S
C493 H559 0.962 1_565 S
C493 H560 0.961 . S
C494 C461 1.587 . S
C494 C495 1.360 . S
C494 C507 1.412 . S
C495 C494 1.360 . S
C495 C496 1.365 1_565 S
C495 H561 0.929 . S
C496 C471 1.553 . S
C496 C495 1.365 1_545 S
C496 C497 1.404 . S
C497 C496 1.404 . S
C497 C498 1.395 . S
C497 C508 1.451 . S
C498 C497 1.395 . S
C498 C499 1.322 . S
C498 H562 0.930 . S
C499 C498 1.322 . S
C499 C500 1.459 1_556 S
C499 H563 0.929 . S
C500 C499 1.459 1_554 S
C500 C501 1.445 . S
C500 C509 1.395 1_554 S
C501 C479 1.432 . S
C501 C500 1.445 . S
C501 C502 1.370 . S
C502 C501 1.370 . S
C502 C503 1.438 . S
C502 H564 0.930 . S
C503 C489 1.497 . S
C503 C502 1.438 . S
C503 C504 1.360 . S
C504 C503 1.360 . S
C504 C505 1.401 1_545 S
C504 C509 1.446 1_554 S
C505 C504 1.401 1_565 S
C505 C506 1.347 1_554 S
C505 H565 0.929 . S
C506 C505 1.347 1_556 S
C506 C507 1.455 . S
C506 H566 0.930 . S
C507 C494 1.412 . S
C507 C506 1.455 . S
C507 C508 1.331 1_565 S
C508 C497 1.451 . S
C508 C507 1.331 1_545 S
C508 C509 1.497 . S
C509 C500 1.395 1_556 S
C509 C504 1.446 1_556 S
C509 C508 1.497 . S
C510 C511 1.582 . S
C510 H567 0.962 . S
C510 H568 0.959 . S
C510 H569 0.958 . S
C511 C510 1.582 . S
C511 O514 1.458 . S
C511 H540 0.980 . S
O512 C457 1.426 . S
O512 C458 1.334 . S
O513 C485 1.412 . S
O513 C486 1.393 . S
O514 C476 1.435 . S
O514 C511 1.458 . S
O515 C467 1.468 . S
O515 C468 1.408 . S
H516 C457 0.980 . S
H517 C456 0.959 . S
H518 C456 0.959 . S
H519 C456 0.960 . S
H520 C459 0.929 . S
H521 C463 0.929 . S
H522 C464 0.959 . S
H523 C464 0.961 . S
H524 C464 0.961 . S
H525 C465 0.960 . S
H526 C465 0.960 . S
H527 C465 0.961 . S
H528 C467 0.980 . S
H529 C466 0.961 . S
H530 C466 0.960 . S
H531 C466 0.959 . S
H532 C469 0.930 . S
H533 C473 0.931 . S
H534 C474 0.959 . S
H535 C474 0.961 . S
H536 C474 0.959 . S
H537 C475 0.960 . S
H538 C475 0.960 . S
H539 C475 0.960 . S
H540 C511 0.980 . S
H541 C477 0.930 . S
H542 C481 0.930 . S
H543 C482 0.961 . S
H544 C482 0.960 . S
H545 C482 0.958 . S
H546 C483 0.961 . S
H547 C483 0.960 . S
H548 C483 0.960 . S
H549 C485 0.980 . S
H550 C484 0.961 . S
H551 C484 0.961 . S
H552 C484 0.959 . S
H553 C487 0.932 . S
H554 C491 0.929 . S
H555 C492 0.961 . S
H556 C492 0.959 . S
H557 C492 0.959 . S
H558 C493 0.960 . S
H559 C493 0.962 1_545 S
H560 C493 0.961 . S
H561 C495 0.929 . S
H562 C498 0.930 . S
H563 C499 0.929 . S
H564 C502 0.930 . S
H565 C505 0.929 . S
H566 C506 0.930 . S
H567 C510 0.962 . S
H568 C510 0.959 . S
H569 C510 0.958 . S
C570 C571 1.560 . S
C570 H631 0.959 . S
C570 H632 0.959 . S
C570 H633 0.960 . S
C571 C570 1.560 . S
C571 O626 1.426 . S
C571 H630 0.980 . S
C572 C573 1.407 . S
C572 C577 1.418 . S
C572 O626 1.334 . S
C573 C572 1.407 . S
C573 C574 1.360 . S
C573 H634 0.929 . S
C574 C573 1.360 . S
C574 C575 1.401 . S
C574 C578 1.527 . S
C575 C574 1.401 . S
C575 C576 1.405 . S
C575 C608 1.587 . S
C576 C575 1.405 . S
C576 C577 1.332 . S
C576 C579 1.496 . S
C577 C572 1.418 . S
C577 C576 1.332 . S
C577 H635 0.929 . S
C578 C574 1.527 . S
C578 H636 0.959 . S
C578 H637 0.961 . S
C578 H638 0.961 . S
C579 C576 1.496 . S
C579 H639 0.960 . S
C579 H640 0.960 . S
C579 H641 0.961 . S
C580 C581 1.517 1_556 S
C580 H643 0.961 . S
C580 H644 0.960 . S
C580 H645 0.959 . S
C581 C580 1.517 1_554 S
C581 O629 1.468 . S
C581 H642 0.971 1_554 S
C582 C583 1.349 . S
C582 C587 1.367 . S
C582 O629 1.408 . S
C583 C582 1.349 . S
C583 C584 1.407 . S
C583 H646 0.930 . S
C584 C583 1.407 . S
C584 C585 1.449 . S
C584 C588 1.535 . S
C585 C584 1.449 . S
C585 C586 1.384 . S
C585 C610 1.553 . S
C586 C585 1.384 . S
C586 C587 1.364 . S
C586 C589 1.450 . S
C587 C582 1.367 . S
C587 C586 1.364 . S
C587 H647 0.931 . S
C588 C584 1.535 . S
C588 H648 0.959 . S
C588 H649 0.961 . S
C588 H650 0.959 . S
C589 C586 1.450 . S
C589 H651 0.960 . S
C589 H652 0.960 . S
C589 H653 0.960 . S
C590 C591 1.309 . S
C590 C595 1.304 . S
C590 O628 1.435 . S
C591 C590 1.309 . S
C591 C592 1.476 . S
C591 H655 0.930 . S
C592 C591 1.476 . S
C592 C593 1.400 . S
C592 C596 1.567 . S
C593 C592 1.400 . S
C593 C594 1.373 . S
C593 C615 1.432 . S
C594 C593 1.373 . S
C594 C595 1.339 . S
C594 C597 1.530 . S
C595 C590 1.304 . S
C595 C594 1.339 . S
C595 H656 0.930 . S
C596 C592 1.567 . S
C596 H657 0.961 . S
C596 H658 0.960 . S
C596 H659 0.958 . S
C597 C594 1.530 . S
C597 H660 0.961 . S
C597 H661 0.960 . S
C597 H662 0.960 . S
C598 C599 1.530 . S
C598 H664 0.961 . S
C598 H665 0.961 . S
C598 H666 0.959 . S
C599 C598 1.530 . S
C599 O627 1.412 . S
C599 H663 0.980 . S
C600 C601 1.288 . S
C600 C605 1.377 . S
C600 O627 1.393 . S
C601 C600 1.288 . S
C601 C602 1.369 . S
C601 H667 0.932 . S
C602 C601 1.369 . S
C602 C603 1.398 . S
C602 C606 1.527 . S
C603 C602 1.398 . S
C603 C604 1.380 . S
C603 C617 1.497 . S
C604 C603 1.380 . S
C604 C605 1.383 . S
C604 C607 1.603 . S
C605 C600 1.377 . S
C605 C604 1.383 . S
C605 H668 0.929 . S
C606 C602 1.527 . S
C606 H669 0.961 . S
C606 H670 0.959 . S
C606 H671 0.959 . S
C607 C604 1.603 . S
C607 H672 0.960 . S
C607 H673 0.962 . S
C607 H674 0.961 . S
C608 C575 1.587 . S
C608 C609 1.360 . S
C608 C621 1.412 . S
C609 C608 1.360 . S
C609 C610 1.365 . S
C609 H675 0.929 . S
C610 C585 1.553 . S
C610 C609 1.365 . S
C610 C611 1.404 . S
C611 C610 1.404 . S
C611 C612 1.395 . S
C611 C622 1.451 . S
C612 C611 1.395 . S
C612 C613 1.322 . S
C612 H676 0.930 . S
C613 C612 1.322 . S
C613 C614 1.459 . S
C613 H677 0.929 . S
C614 C613 1.459 . S
C614 C615 1.445 . S
C614 C623 1.395 . S
C615 C593 1.432 . S
C615 C614 1.445 . S
C615 C616 1.370 . S
C616 C615 1.370 . S
C616 C617 1.438 . S
C616 H678 0.930 . S
C617 C603 1.497 . S
C617 C616 1.438 . S
C617 C618 1.360 . S
C618 C617 1.360 . S
C618 C619 1.401 . S
C618 C623 1.446 . S
C619 C618 1.401 . S
C619 C620 1.347 . S
C619 H679 0.929 . S
C620 C619 1.347 . S
C620 C621 1.455 . S
C620 H680 0.930 . S
C621 C608 1.412 . S
C621 C620 1.455 . S
C621 C622 1.331 . S
C622 C611 1.451 . S
C622 C621 1.331 . S
C622 C623 1.497 . S
C623 C614 1.395 . S
C623 C618 1.446 . S
C623 C622 1.497 . S
C624 C625 1.582 . S
C624 H681 0.962 . S
C624 H682 0.959 . S
C624 H683 0.958 . S
C625 C624 1.582 . S
C625 O628 1.458 . S
C625 H654 0.980 . S
O626 C571 1.426 . S
O626 C572 1.334 . S
O627 C599 1.412 . S
O627 C600 1.393 . S
O628 C590 1.435 . S
O628 C625 1.458 . S
O629 C581 1.468 . S
O629 C582 1.408 . S
H630 C571 0.980 . S
H631 C570 0.959 . S
H632 C570 0.959 . S
H633 C570 0.960 . S
H634 C573 0.929 . S
H635 C577 0.929 . S
H636 C578 0.959 . S
H637 C578 0.961 . S
H638 C578 0.961 . S
H639 C579 0.960 . S
H640 C579 0.960 . S
H641 C579 0.961 . S
H642 C581 0.971 1_556 S
H643 C580 0.961 . S
H644 C580 0.960 . S
H645 C580 0.959 . S
H646 C583 0.930 . S
H647 C587 0.931 . S
H648 C588 0.959 . S
H649 C588 0.961 . S
H650 C588 0.959 . S
H651 C589 0.960 . S
H652 C589 0.960 . S
H653 C589 0.960 . S
H654 C625 0.980 . S
H655 C591 0.930 . S
H656 C595 0.930 . S
H657 C596 0.961 . S
H658 C596 0.960 . S
H659 C596 0.958 . S
H660 C597 0.961 . S
H661 C597 0.960 . S
H662 C597 0.960 . S
H663 C599 0.980 . S
H664 C598 0.961 . S
H665 C598 0.961 . S
H666 C598 0.959 . S
H667 C601 0.932 . S
H668 C605 0.929 . S
H669 C606 0.961 . S
H670 C606 0.959 . S
H671 C606 0.959 . S
H672 C607 0.960 . S
H673 C607 0.962 . S
H674 C607 0.961 . S
H675 C609 0.929 . S
H676 C612 0.930 . S
H677 C613 0.929 . S
H678 C616 0.930 . S
H679 C619 0.929 . S
H680 C620 0.930 . S
H681 C624 0.962 . S
H682 C624 0.959 . S
H683 C624 0.958 . S
Mg684 O685 2.028 . S
Mg684 O691 1.986 . S
Mg684 O693 2.114 . S
Mg684 O694 2.251 . S
Mg684 O697 2.010 . S
O685 Mg684 2.028 . S
O685 C688 1.250 . S
O686 Mg687 2.028 . S
O686 C688 1.248 . S
Mg687 O686 2.028 . S
Mg687 O692 2.032 . S
Mg687 O694 2.079 . S
C688 O685 1.250 . S
C688 O686 1.248 . S
C689 O690 1.264 . S
C689 O697 1.249 . S
O690 C689 1.264 . S
O691 Mg684 1.986 . S
O691 C695 1.246 . S
O692 Mg687 2.032 . S
O692 C695 1.259 . S
O693 Mg684 2.114 . S
O693 C696 1.252 . S
O694 Mg684 2.251 . S
O694 Mg687 2.079 . S
O694 C696 1.273 . S
C695 O691 1.246 . S
C695 O692 1.259 . S
C696 O693 1.252 . S
C696 O694 1.273 . S
O697 Mg684 2.010 . S
O697 C689 1.249 . S
Mg698 O699 2.028 . S
Mg698 O705 1.986 . S
Mg698 O707 2.114 . S
Mg698 O708 2.251 . S
Mg698 O711 2.010 . S
O699 Mg698 2.028 . S
O699 C702 1.250 . S
O700 Mg701 2.028 . S
O700 C702 1.248 . S
Mg701 O700 2.028 . S
Mg701 O706 2.032 . S
Mg701 O708 2.079 . S
C702 O699 1.250 . S
C702 O700 1.248 . S
C703 O704 1.264 . S
C703 O711 1.249 . S
O704 C703 1.264 . S
O705 Mg698 1.986 . S
O705 C709 1.246 . S
O706 Mg701 2.032 . S
O706 C709 1.259 . S
O707 Mg698 2.114 . S
O707 C710 1.252 . S
O708 Mg698 2.251 . S
O708 Mg701 2.079 . S
O708 C710 1.273 . S
C709 O705 1.246 . S
C709 O706 1.259 . S
C710 O707 1.252 . S
C710 O708 1.273 . S
O711 Mg698 2.010 . S
O711 C703 1.249 . S
Mg712 O713 2.028 . S
Mg712 O719 1.986 . S
Mg712 O721 2.114 . S
Mg712 O722 2.251 . S
Mg712 O725 2.010 . S
O713 Mg712 2.028 . S
O713 C716 1.250 . S
O714 Mg715 2.028 . S
O714 C716 1.248 . S
Mg715 O714 2.028 . S
Mg715 O720 2.032 . S
Mg715 O722 2.079 . S
C716 O713 1.250 . S
C716 O714 1.248 . S
C717 O718 1.264 . S
C717 O725 1.249 . S
O718 C717 1.264 . S
O719 Mg712 1.986 . S
O719 C723 1.246 . S
O720 Mg715 2.032 . S
O720 C723 1.259 . S
O721 Mg712 2.114 . S
O721 C724 1.252 . S
O722 Mg712 2.251 . S
O722 Mg715 2.079 . S
O722 C724 1.273 . S
C723 O719 1.246 . S
C723 O720 1.259 . S
C724 O721 1.252 . S
C724 O722 1.273 . S
O725 Mg712 2.010 . S
O725 C717 1.249 . S
Mg726 O727 2.028 . S
Mg726 O733 1.986 . S
Mg726 O735 2.114 . S
Mg726 O736 2.251 . S
Mg726 O739 2.010 . S
O727 Mg726 2.028 . S
O727 C730 1.250 . S
O728 Mg729 2.028 . S
O728 C730 1.248 . S
Mg729 O728 2.028 . S
Mg729 O734 2.032 . S
Mg729 O736 2.079 . S
C730 O727 1.250 . S
C730 O728 1.248 . S
C731 O732 1.264 . S
C731 O739 1.249 . S
O732 C731 1.264 . S
O733 Mg726 1.986 . S
O733 C737 1.246 . S
O734 Mg729 2.032 . S
O734 C737 1.259 . S
O735 Mg726 2.114 . S
O735 C738 1.252 . S
O736 Mg726 2.251 . S
O736 Mg729 2.079 . S
O736 C738 1.273 . S
C737 O733 1.246 . S
C737 O734 1.259 . S
C738 O735 1.252 . S
C738 O736 1.273 . S
O739 Mg726 2.010 . S
O739 C731 1.249 . S
Mg740 O741 2.028 . S
Mg740 O747 1.986 . S
Mg740 O749 2.114 . S
Mg740 O750 2.251 . S
Mg740 O753 2.010 . S
O741 Mg740 2.028 . S
O741 C744 1.250 . S
O742 Mg743 2.028 . S
O742 C744 1.248 . S
Mg743 O742 2.028 . S
Mg743 O748 2.032 . S
Mg743 O750 2.079 . S
C744 O741 1.250 . S
C744 O742 1.248 . S
C745 O746 1.264 . S
C745 O753 1.249 . S
O746 C745 1.264 . S
O747 Mg740 1.986 . S
O747 C751 1.246 . S
O748 Mg743 2.032 . S
O748 C751 1.259 . S
O749 Mg740 2.114 . S
O749 C752 1.252 . S
O750 Mg740 2.251 . S
O750 Mg743 2.079 . S
O750 C752 1.273 . S
C751 O747 1.246 . S
C751 O748 1.259 . S
C752 O749 1.252 . S
C752 O750 1.273 . S
O753 Mg740 2.010 . S
O753 C745 1.249 . S
Mg754 O755 2.028 . S
Mg754 O761 1.986 . S
Mg754 O763 2.114 . S
Mg754 O764 2.251 . S
Mg754 O767 2.010 . S
O755 Mg754 2.028 . S
O755 C758 1.250 . S
O756 Mg757 2.028 . S
O756 C758 1.248 . S
Mg757 O756 2.028 . S
Mg757 O762 2.032 . S
Mg757 O764 2.079 . S
C758 O755 1.250 . S
C758 O756 1.248 . S
C759 O760 1.264 . S
C759 O767 1.249 . S
O760 C759 1.264 . S
O761 Mg754 1.986 . S
O761 C765 1.246 . S
O762 Mg757 2.032 . S
O762 C765 1.259 . S
O763 Mg754 2.114 . S
O763 C766 1.252 . S
O764 Mg754 2.251 . S
O764 Mg757 2.079 . S
O764 C766 1.273 . S
C765 O761 1.246 . S
C765 O762 1.259 . S
C766 O763 1.252 . S
C766 O764 1.273 . S
O767 Mg754 2.010 . S
O767 C759 1.249 . S
C768 C769 1.369 . S
C768 C770 1.419 . S
C768 H772 0.930 . S
C769 C768 1.369 . S
C769 C778 1.429 . S
C770 C768 1.419 . S
C770 C771 1.363 . S
C770 H773 0.929 . S
C771 C770 1.363 . S
C771 C777 1.428 . S
H772 C768 0.930 . S
H773 C770 0.929 . S
S774 N775 1.613 . S
S774 N776 1.610 . S
N775 S774 1.613 . S
N775 C778 1.350 . S
N776 S774 1.610 . S
N776 C777 1.351 . S
C777 C771 1.428 . S
C777 N776 1.351 . S
C777 C778 1.434 . S
C778 C769 1.429 . S
C778 N775 1.350 . S
C778 C777 1.434 . S
C779 C780 1.369 . S
C779 C781 1.419 . S
C779 H783 0.930 . S
C780 C779 1.369 . S
C780 C789 1.429 . S
C781 C779 1.419 . S
C781 C782 1.363 . S
C781 H784 0.929 . S
C782 C781 1.363 . S
C782 C788 1.428 . S
H783 C779 0.930 . S
H784 C781 0.929 . S
S785 N786 1.613 . S
S785 N787 1.610 . S
N786 S785 1.613 . S
N786 C789 1.350 . S
N787 S785 1.610 . S
N787 C788 1.351 . S
C788 C782 1.428 . S
C788 N787 1.351 . S
C788 C789 1.434 . S
C789 C780 1.429 . S
C789 N786 1.350 . S
C789 C788 1.434 . S
C790 C791 1.369 . S
C790 C792 1.419 . S
C790 H794 0.930 . S
C791 C790 1.369 . S
C791 C800 1.429 . S
C792 C790 1.419 . S
C792 C793 1.363 . S
C792 H795 0.929 . S
C793 C792 1.363 . S
C793 C799 1.428 . S
H794 C790 0.930 . S
H795 C792 0.929 . S
S796 N797 1.613 . S
S796 N798 1.610 . S
N797 S796 1.613 . S
N797 C800 1.350 . S
N798 S796 1.610 . S
N798 C799 1.351 . S
C799 C793 1.428 . S
C799 N798 1.351 . S
C799 C800 1.434 . S
C800 C791 1.429 . S
C800 N797 1.350 . S
C800 C799 1.434 . S
C801 C802 1.369 . S
C801 C803 1.419 . S
C801 H805 0.930 . S
C802 C801 1.369 . S
C802 C811 1.429 . S
C803 C801 1.419 . S
C803 C804 1.363 . S
C803 H806 0.929 . S
C804 C803 1.363 . S
C804 C810 1.428 . S
H805 C801 0.930 . S
H806 C803 0.929 . S
S807 N808 1.613 . S
S807 N809 1.610 . S
N808 S807 1.613 . S
N808 C811 1.350 . S
N809 S807 1.610 . S
N809 C810 1.351 . S
C810 C804 1.428 . S
C810 N809 1.351 . S
C810 C811 1.434 . S
C811 C802 1.429 . S
C811 N808 1.350 . S
C811 C810 1.434 . S
C812 C813 1.369 . S
C812 C814 1.419 . S
C812 H816 0.930 . S
C813 C812 1.369 . S
C813 C822 1.429 . S
C814 C812 1.419 . S
C814 C815 1.363 . S
C814 H817 0.929 . S
C815 C814 1.363 . S
C815 C821 1.428 . S
H816 C812 0.930 . S
H817 C814 0.929 . S
S818 N819 1.613 . S
S818 N820 1.610 . S
N819 S818 1.613 . S
N819 C822 1.350 . S
N820 S818 1.610 . S
N820 C821 1.351 . S
C821 C815 1.428 . S
C821 N820 1.351 . S
C821 C822 1.434 . S
C822 C813 1.429 . S
C822 N819 1.350 . S
C822 C821 1.434 . S
C823 C824 1.369 . S
C823 C825 1.419 . S
C823 H827 0.930 . S
C824 C823 1.369 . S
C824 C833 1.429 . S
C825 C823 1.419 . S
C825 C826 1.363 . S
C825 H828 0.929 . S
C826 C825 1.363 . S
C826 C832 1.428 . S
H827 C823 0.930 . S
H828 C825 0.929 . S
S829 N830 1.613 . S
S829 N831 1.610 . S
N830 S829 1.613 . S
N830 C833 1.350 . S
N831 S829 1.610 . S
N831 C832 1.351 . S
C832 C826 1.428 . S
C832 N831 1.351 . S
C832 C833 1.434 . S
C833 C824 1.429 . S
C833 N830 1.350 . S
C833 C832 1.434 . S
C834 C835 1.369 . S
C834 C836 1.419 . S
C834 H838 0.930 . S
C835 C834 1.369 . S
C835 C844 1.429 . S
C836 C834 1.419 . S
C836 C837 1.363 . S
C836 H839 0.929 . S
C837 C836 1.363 . S
C837 C843 1.428 . S
H838 C834 0.930 . S
H839 C836 0.929 . S
S840 N841 1.613 . S
S840 N842 1.610 . S
N841 S840 1.613 . S
N841 C844 1.350 . S
N842 S840 1.610 . S
N842 C843 1.351 . S
C843 C837 1.428 . S
C843 N842 1.351 . S
C843 C844 1.434 . S
C844 C835 1.429 . S
C844 N841 1.350 . S
C844 C843 1.434 . S
C845 C846 1.369 . S
C845 C847 1.419 . S
C845 H849 0.930 . S
C846 C845 1.369 . S
C846 C855 1.429 . S
C847 C845 1.419 . S
C847 C848 1.363 . S
C847 H850 0.929 . S
C848 C847 1.363 . S
C848 C854 1.428 . S
H849 C845 0.930 . S
H850 C847 0.929 . S
S851 N852 1.613 . S
S851 N853 1.610 . S
N852 S851 1.613 . S
N852 C855 1.350 . S
N853 S851 1.610 . S
N853 C854 1.351 . S
C854 C848 1.428 . S
C854 N853 1.351 . S
C854 C855 1.434 . S
C855 C846 1.429 . S
C855 N852 1.350 . S
C855 C854 1.434 . S
C856 C857 1.369 . S
C856 C858 1.419 . S
C856 H860 0.930 . S
C857 C856 1.369 . S
C857 C866 1.429 . S
C858 C856 1.419 . S
C858 C859 1.363 . S
C858 H861 0.929 . S
C859 C858 1.363 . S
C859 C865 1.428 . S
H860 C856 0.930 . S
H861 C858 0.929 . S
S862 N863 1.613 . S
S862 N864 1.610 . S
N863 S862 1.613 . S
N863 C866 1.350 . S
N864 S862 1.610 . S
N864 C865 1.351 . S
C865 C859 1.428 . S
C865 N864 1.351 . S
C865 C866 1.434 . S
C866 C857 1.429 . S
C866 N863 1.350 . S
C866 C865 1.434 . S
C867 C868 1.369 . S
C867 C869 1.419 . S
C867 H871 0.930 . S
C868 C867 1.369 . S
C868 C877 1.429 . S
C869 C867 1.419 . S
C869 C870 1.363 . S
C869 H872 0.929 . S
C870 C869 1.363 . S
C870 C876 1.428 . S
H871 C867 0.930 . S
H872 C869 0.929 . S
S873 N874 1.613 . S
S873 N875 1.610 . S
N874 S873 1.613 . S
N874 C877 1.350 . S
N875 S873 1.610 . S
N875 C876 1.351 . S
C876 C870 1.428 . S
C876 N875 1.351 . S
C876 C877 1.434 . S
C877 C868 1.429 . S
C877 N874 1.350 . S
C877 C876 1.434 . S
C878 C879 1.369 . S
C878 C880 1.419 . S
C878 H882 0.930 . S
C879 C878 1.369 . S
C879 C888 1.429 . S
C880 C878 1.419 . S
C880 C881 1.363 . S
C880 H883 0.929 . S
C881 C880 1.363 . S
C881 C887 1.428 . S
H882 C878 0.930 . S
H883 C880 0.929 . S
S884 N885 1.613 . S
S884 N886 1.610 . S
N885 S884 1.613 . S
N885 C888 1.350 . S
N886 S884 1.610 . S
N886 C887 1.351 . S
C887 C881 1.428 . S
C887 N886 1.351 . S
C887 C888 1.434 . S
C888 C879 1.429 . S
C888 N885 1.350 . S
C888 C887 1.434 . S
C889 C890 1.369 . S
C889 C891 1.419 . S
C889 H893 0.930 . S
C890 C889 1.369 . S
C890 C899 1.429 . S
C891 C889 1.419 . S
C891 C892 1.363 . S
C891 H894 0.929 . S
C892 C891 1.363 . S
C892 C898 1.428 . S
H893 C889 0.930 . S
H894 C891 0.929 . S
S895 N896 1.613 . S
S895 N897 1.610 . S
N896 S895 1.613 . S
N896 C899 1.350 . S
N897 S895 1.610 . S
N897 C898 1.351 . S
C898 C892 1.428 . S
C898 N897 1.351 . S
C898 C899 1.434 . S
C899 C890 1.429 . S
C899 N896 1.350 . S
C899 C898 1.434 . S
C900 C901 1.369 . S
C900 C902 1.419 . S
C900 H904 0.930 . S
C901 C900 1.369 . S
C901 C910 1.429 . S
C902 C900 1.419 . S
C902 C903 1.363 . S
C902 H905 0.929 . S
C903 C902 1.363 . S
C903 C909 1.428 . S
H904 C900 0.930 . S
H905 C902 0.929 . S
S906 N907 1.613 . S
S906 N908 1.610 . S
N907 S906 1.613 . S
N907 C910 1.350 . S
N908 S906 1.610 . S
N908 C909 1.351 . S
C909 C903 1.428 . S
C909 N908 1.351 . S
C909 C910 1.434 . S
C910 C901 1.429 . S
C910 N907 1.350 . S
C910 C909 1.434 . S
C911 C912 1.369 . S
C911 C913 1.419 . S
C911 H915 0.930 . S
C912 C911 1.369 . S
C912 C921 1.429 . S
C913 C911 1.419 . S
C913 C914 1.363 . S
C913 H916 0.929 . S
C914 C913 1.363 . S
C914 C920 1.428 . S
H915 C911 0.930 . S
H916 C913 0.929 . S
S917 N918 1.613 . S
S917 N919 1.610 . S
N918 S917 1.613 . S
N918 C921 1.350 . S
N919 S917 1.610 . S
N919 C920 1.351 . S
C920 C914 1.428 . S
C920 N919 1.351 . S
C920 C921 1.434 . S
C921 C912 1.429 . S
C921 N918 1.350 . S
C921 C920 1.434 . S
C922 C923 1.369 . S
C922 C924 1.419 . S
C922 H926 0.930 . S
C923 C922 1.369 . S
C923 C932 1.429 . S
C924 C922 1.419 . S
C924 C925 1.363 . S
C924 H927 0.929 . S
C925 C924 1.363 . S
C925 C931 1.428 . S
H926 C922 0.930 . S
H927 C924 0.929 . S
S928 N929 1.613 . S
S928 N930 1.610 . S
N929 S928 1.613 . S
N929 C932 1.350 . S
N930 S928 1.610 . S
N930 C931 1.351 . S
C931 C925 1.428 . S
C931 N930 1.351 . S
C931 C932 1.434 . S
C932 C923 1.429 . S
C932 N929 1.350 . S
C932 C931 1.434 . S
C933 C934 1.369 . S
C933 C935 1.419 1_556 S
C933 H937 0.930 . S
C934 C933 1.369 . S
C934 C943 1.429 . S
C935 C933 1.419 1_554 S
C935 C936 1.363 . S
C935 H938 0.929 . S
C936 C935 1.363 . S
C936 C942 1.428 1_554 S
H937 C933 0.930 . S
H938 C935 0.929 . S
S939 N940 1.613 . S
S939 N941 1.610 . S
N940 S939 1.613 . S
N940 C943 1.350 . S
N941 S939 1.610 . S
N941 C942 1.351 . S
C942 C936 1.428 1_556 S
C942 N941 1.351 . S
C942 C943 1.434 . S
C943 C934 1.429 . S
C943 N940 1.350 . S
C943 C942 1.434 . S
C944 C945 1.369 . S
C944 C946 1.419 . S
C944 H948 0.930 . S
C945 C944 1.369 . S
C945 C954 1.429 . S
C946 C944 1.419 . S
C946 C947 1.363 . S
C946 H949 0.929 . S
C947 C946 1.363 . S
C947 C953 1.428 . S
H948 C944 0.930 . S
H949 C946 0.929 . S
S950 N951 1.613 . S
S950 N952 1.610 . S
N951 S950 1.613 . S
N951 C954 1.350 . S
N952 S950 1.610 . S
N952 C953 1.351 . S
C953 C947 1.428 . S
C953 N952 1.351 . S
C953 C954 1.434 . S
C954 C945 1.429 . S
C954 N951 1.350 . S
C954 C953 1.434 . S
C955 C956 1.369 . S
C955 C957 1.419 . S
C955 H959 0.930 . S
C956 C955 1.369 . S
C956 C965 1.429 . S
C957 C955 1.419 . S
C957 C958 1.363 . S
C957 H960 0.929 . S
C958 C957 1.363 . S
C958 C964 1.428 . S
H959 C955 0.930 . S
H960 C957 0.929 . S
S961 N962 1.613 . S
S961 N963 1.610 . S
N962 S961 1.613 . S
N962 C965 1.350 . S
N963 S961 1.610 . S
N963 C964 1.351 . S
C964 C958 1.428 . S
C964 N963 1.351 . S
C964 C965 1.434 . S
C965 C956 1.429 . S
C965 N962 1.350 . S
C965 C964 1.434 . S
C966 C967 1.369 . S
C966 C968 1.419 . S
C966 H970 0.930 . S
C967 C966 1.369 . S
C967 C976 1.429 . S
C968 C966 1.419 . S
C968 C969 1.363 . S
C968 H971 0.929 . S
C969 C968 1.363 . S
C969 C975 1.428 . S
H970 C966 0.930 . S
H971 C968 0.929 . S
S972 N973 1.613 . S
S972 N974 1.610 . S
N973 S972 1.613 . S
N973 C976 1.350 . S
N974 S972 1.610 . S
N974 C975 1.351 . S
C975 C969 1.428 . S
C975 N974 1.351 . S
C975 C976 1.434 . S
C976 C967 1.429 . S
C976 N973 1.350 . S
C976 C975 1.434 . S
C977 C978 1.369 . S
C977 C979 1.419 . S
C977 H981 0.930 . S
C978 C977 1.369 . S
C978 C987 1.429 . S
C979 C977 1.419 . S
C979 C980 1.363 . S
C979 H982 0.929 . S
C980 C979 1.363 . S
C980 C986 1.428 . S
H981 C977 0.930 . S
H982 C979 0.929 . S
S983 N984 1.613 . S
S983 N985 1.610 . S
N984 S983 1.613 . S
N984 C987 1.350 . S
N985 S983 1.610 . S
N985 C986 1.351 . S
C986 C980 1.428 . S
C986 N985 1.351 . S
C986 C987 1.434 . S
C987 C978 1.429 . S
C987 N984 1.350 . S
C987 C986 1.434 . S
C988 C989 1.369 . S
C988 C990 1.419 . S
C988 H992 0.930 . S
C989 C988 1.369 . S
C989 C998 1.429 . S
C990 C988 1.419 . S
C990 C991 1.363 . S
C990 H993 0.929 . S
C991 C990 1.363 . S
C991 C997 1.428 . S
H992 C988 0.930 . S
H993 C990 0.929 . S
S994 N995 1.613 . S
S994 N996 1.610 . S
N995 S994 1.613 . S
N995 C998 1.350 . S
N996 S994 1.610 . S
N996 C997 1.351 . S
C997 C991 1.428 . S
C997 N996 1.351 . S
C997 C998 1.434 . S
C998 C989 1.429 . S
C998 N995 1.350 . S
C998 C997 1.434 . S
C999 C1000 1.369 . S
C999 C1001 1.419 . S
C999 H1003 0.930 . S
C1000 C999 1.369 . S
C1000 C1009 1.429 . S
C1001 C999 1.419 . S
C1001 C1002 1.363 . S
C1001 H1004 0.929 . S
C1002 C1001 1.363 . S
C1002 C1008 1.428 . S
H1003 C999 0.930 . S
H1004 C1001 0.929 . S
S1005 N1006 1.613 . S
S1005 N1007 1.610 . S
N1006 S1005 1.613 . S
N1006 C1009 1.350 . S
N1007 S1005 1.610 . S
N1007 C1008 1.351 . S
C1008 C1002 1.428 . S
C1008 N1007 1.351 . S
C1008 C1009 1.434 . S
C1009 C1000 1.429 . S
C1009 N1006 1.350 . S
C1009 C1008 1.434 . S
C1010 C1011 1.369 1_556 S
C1010 C1012 1.419 . S
C1010 H1014 0.930 . S
C1011 C1010 1.369 1_554 S
C1011 C1020 1.429 1_554 S
C1012 C1010 1.419 . S
C1012 C1013 1.363 . S
C1012 H1015 0.929 . S
C1013 C1012 1.363 . S
C1013 C1019 1.428 . S
H1014 C1010 0.930 . S
H1015 C1012 0.929 . S
S1016 N1017 1.613 . S
S1016 N1018 1.610 1_554 S
N1017 S1016 1.613 . S
N1017 C1020 1.350 1_554 S
N1018 S1016 1.610 1_556 S
N1018 C1019 1.351 . S
C1019 C1013 1.428 . S
C1019 N1018 1.351 . S
C1019 C1020 1.434 . S
C1020 C1011 1.429 1_556 S
C1020 N1017 1.350 1_556 S
C1020 C1019 1.434 . S
C1021 C1022 1.369 . S
C1021 C1023 1.419 . S
C1021 H1025 0.930 . S
C1022 C1021 1.369 . S
C1022 C1031 1.429 . S
C1023 C1021 1.419 . S
C1023 C1024 1.363 . S
C1023 H1026 0.929 . S
C1024 C1023 1.363 . S
C1024 C1030 1.428 . S
H1025 C1021 0.930 . S
H1026 C1023 0.929 . S
S1027 N1028 1.613 . S
S1027 N1029 1.610 . S
N1028 S1027 1.613 . S
N1028 C1031 1.350 . S
N1029 S1027 1.610 . S
N1029 C1030 1.351 . S
C1030 C1024 1.428 . S
C1030 N1029 1.351 . S
C1030 C1031 1.434 . S
C1031 C1022 1.429 . S
C1031 N1028 1.350 . S
C1031 C1030 1.434 . S
C771 C759 1.366 . S
C769 C1 1.272 . S
C780 C169 1.731 . S
C782 C689 1.525 . S
C791 C283 1.679 . S
C793 C709 1.914 . S
C802 C397 1.467 . S
C804 C723 1.680 . S
C815 C731 1.219 . S
C813 C457 1.184 . S
C824 C571 1.188 . S
C826 C745 1.234 . S
C835 C115 1.311 . S
C837 C703 1.377 . S
C846 C229 1.170 . S
C848 C717 1.268 . S
C857 C343 1.142 . S
C859 C737 1.597 . S
C870 C751 1.778 . S
C868 C511 1.561 . S
C881 C765 1.866 . S
C879 C625 1.655 . S
C892 C695 1.935 . S
C890 C55 1.717 . S
C901 C29 1.138 . S
C903 C702 1.431 . S
C912 C125 0.940 . S
C914 C716 1.492 . S
C925 C738 1.439 . S
C923 C239 0.875 . S
C934 C353 0.888 . S
C936 C752 1.439 . S
C947 C766 1.394 . S
C945 C485 1.063 . S
C958 C696 1.451 . S
C956 C599 1.126 . S
C969 C758 1.417 . S
C967 C143 1.137 . S
C978 C257 1.127 . S
C980 C688 1.419 . S
C991 C710 1.401 . S
C989 C371 1.100 . S
C1000 C467 0.901 . S
C1002 C724 1.427 . S
C1011 C581 0.893 . S
C1013 C730 1.465 . S
C1022 C11 0.920 . S
C1024 C744 1.500 . S
