# Generated by pormake.
# Topology ant, (3,6)-cn, num edge types: 1
# Building blocks:
#     Node 0, Type 0, BuildingBlock: INOVEN_clean_linker_0, # of connection points: 3
#     Node 1, Type 0, BuildingBlock: INOVEN_clean_linker_0, # of connection points: 3
#     Node 2, Type 0, BuildingBlock: INOVEN_clean_linker_0, # of connection points: 3
#     Node 3, Type 0, BuildingBlock: INOVEN_clean_linker_0, # of connection points: 3
#     Node 4, Type 0, BuildingBlock: INOVEN_clean_linker_0, # of connection points: 3
#     Node 5, Type 0, BuildingBlock: INOVEN_clean_linker_0, # of connection points: 3
#     Node 6, Type 0, BuildingBlock: INOVEN_clean_linker_0, # of connection points: 3
#     Node 7, Type 0, BuildingBlock: INOVEN_clean_linker_0, # of connection points: 3
#     Node 8, Type 1, BuildingBlock: MIDCAF_clean_sbu_0, # of connection points: 6
#     Node 9, Type 1, BuildingBlock: MIDCAF_clean_sbu_0, # of connection points: 6
#     Node 10, Type 1, BuildingBlock: MIDCAF_clean_sbu_0, # of connection points: 6
#     Node 11, Type 1, BuildingBlock: MIDCAF_clean_sbu_0, # of connection points: 6
#     Edge 12, Type (0, 1), BuildingBlock: CIFDUS_clean_linker_0, # of connection points: 2
#     Edge 13, Type (0, 1), BuildingBlock: CIFDUS_clean_linker_0, # of connection points: 2
#     Edge 14, Type (0, 1), BuildingBlock: CIFDUS_clean_linker_0, # of connection points: 2
#     Edge 15, Type (0, 1), BuildingBlock: CIFDUS_clean_linker_0, # of connection points: 2
#     Edge 16, Type (0, 1), BuildingBlock: CIFDUS_clean_linker_0, # of connection points: 2
#     Edge 17, Type (0, 1), BuildingBlock: CIFDUS_clean_linker_0, # of connection points: 2
#     Edge 18, Type (0, 1), BuildingBlock: CIFDUS_clean_linker_0, # of connection points: 2
#     Edge 19, Type (0, 1), BuildingBlock: CIFDUS_clean_linker_0, # of connection points: 2
#     Edge 20, Type (0, 1), BuildingBlock: CIFDUS_clean_linker_0, # of connection points: 2
#     Edge 21, Type (0, 1), BuildingBlock: CIFDUS_clean_linker_0, # of connection points: 2
#     Edge 22, Type (0, 1), BuildingBlock: CIFDUS_clean_linker_0, # of connection points: 2
#     Edge 23, Type (0, 1), BuildingBlock: CIFDUS_clean_linker_0, # of connection points: 2
#     Edge 24, Type (0, 1), BuildingBlock: CIFDUS_clean_linker_0, # of connection points: 2
#     Edge 25, Type (0, 1), BuildingBlock: CIFDUS_clean_linker_0, # of connection points: 2
#     Edge 26, Type (0, 1), BuildingBlock: CIFDUS_clean_linker_0, # of connection points: 2
#     Edge 27, Type (0, 1), BuildingBlock: CIFDUS_clean_linker_0, # of connection points: 2
#     Edge 28, Type (0, 1), BuildingBlock: CIFDUS_clean_linker_0, # of connection points: 2
#     Edge 29, Type (0, 1), BuildingBlock: CIFDUS_clean_linker_0, # of connection points: 2
#     Edge 30, Type (0, 1), BuildingBlock: CIFDUS_clean_linker_0, # of connection points: 2
#     Edge 31, Type (0, 1), BuildingBlock: CIFDUS_clean_linker_0, # of connection points: 2
#     Edge 32, Type (0, 1), BuildingBlock: CIFDUS_clean_linker_0, # of connection points: 2
#     Edge 33, Type (0, 1), BuildingBlock: CIFDUS_clean_linker_0, # of connection points: 2
#     Edge 34, Type (0, 1), BuildingBlock: CIFDUS_clean_linker_0, # of connection points: 2
#     Edge 35, Type (0, 1), BuildingBlock: CIFDUS_clean_linker_0, # of connection points: 2
# Relax obj value: 0.055
# Max RMSD: 0.147
# Mean RMSD: 0.087
data_MOF--net-ant--node1-MIDCAF_clean_sbu_0--node2-INOVEN_clean_linker_0--edge1-CIFDUS_clean_linker_0
_symmetry_space_group_name_H-M    P1
_symmetry_Int_Tables_number       1
_symmetry_cell_setting            triclinic
loop_
_symmetry_equiv_pos_as_xyz
'x, y, z'
_cell_length_a     25.464261
_cell_length_b     25.449781
_cell_length_c     63.093603
_cell_angle_alpha  93.766121
_cell_angle_beta   100.5574
_cell_angle_gamma 89.47461
loop_
_atom_site_label
_atom_site_type_symbol
_atom_site_fract_x
_atom_site_fract_y
_atom_site_fract_z
_atom_type_partial_charge
H0 H 0.18142 0.26678 0.09136 0.0
H1 H 0.17309 0.31681 0.0267 0.0
H2 H 0.21845 0.15897 0.04082 0.0
N3 N 0.20528 0.16772 0.08243 0.0
N4 N 0.22644 0.12467 0.0784 0.0
C5 C 0.18556 0.25917 0.07466 0.0
C6 C 0.17589 0.29942 0.06005 0.0
C7 C 0.20094 0.20856 0.06792 0.0
C8 C 0.2073 0.19796 0.0464 0.0
C9 C 0.19787 0.23735 0.03181 0.0
C10 C 0.18192 0.28752 0.03855 0.0
H11 H 0.12359 0.79632 0.33676 0.0
H12 H 0.20819 0.8033 0.28402 0.0
H13 H 0.03676 0.80578 0.27177 0.0
N14 N 0.02547 0.80238 0.31319 0.0
N15 N 0.98297 0.81785 0.30222 0.0
C16 C 0.12331 0.80097 0.31979 0.0
C17 C 0.17176 0.80185 0.3121 0.0
C18 C 0.07436 0.8048 0.30541 0.0
C19 C 0.07428 0.8068 0.28313 0.0
C20 C 0.12234 0.80488 0.2753 0.0
C21 C 0.17083 0.80514 0.29 0.0
H22 H 0.6922 0.75697 0.59912 0.0
H23 H 0.65277 0.81989 0.53651 0.0
H24 H 0.69602 0.65738 0.54118 0.0
N25 N 0.70736 0.65564 0.58416 0.0
N26 N 0.72687 0.61549 0.57598 0.0
C27 C 0.68745 0.75171 0.5817 0.0
C28 C 0.67253 0.79518 0.56886 0.0
C29 C 0.69551 0.70115 0.57177 0.0
C30 C 0.68931 0.69535 0.54901 0.0
C31 C 0.67442 0.73782 0.53618 0.0
C32 C 0.66541 0.78702 0.54631 0.0
H33 H 0.6278 0.30951 0.83376 0.0
H34 H 0.69944 0.29812 0.77669 0.0
H35 H 0.53146 0.27238 0.77086 0.0
N36 N 0.52615 0.29259 0.81254 0.0
N37 N 0.48275 0.30549 0.80133 0.0
C38 C 0.62438 0.30236 0.81645 0.0
C39 C 0.67023 0.30601 0.80682 0.0
C40 C 0.5736 0.29182 0.80342 0.0
C41 C 0.56982 0.28182 0.78098 0.0
C42 C 0.61493 0.28433 0.77138 0.0
C43 C 0.66455 0.29698 0.78427 0.0
H44 H 0.02436 0.71571 0.87141 0.0
H45 H 0.02479 0.62506 0.92686 0.0
H46 H 0.03809 0.7936 0.93463 0.0
N47 N 0.03736 0.80815 0.8924 0.0
N48 N 0.05371 0.84958 0.90319 0.0
C49 C 0.02614 0.71345 0.88862 0.0
C50 C 0.02355 0.66433 0.89735 0.0
C51 C 0.0325 0.75994 0.90195 0.0
C52 C 0.03402 0.7577 0.92422 0.0
C53 C 0.03036 0.70902 0.93314 0.0
C54 C 0.0259 0.66255 0.91974 0.0
H55 H 0.62378 0.76085 0.12581 0.0
H56 H 0.5306 0.77796 0.17615 0.0
H57 H 0.69818 0.74342 0.19187 0.0
N58 N 0.71583 0.74257 0.15096 0.0
N59 N 0.75987 0.74599 0.16347 0.0
C60 C 0.62111 0.76247 0.14279 0.0
C61 C 0.57167 0.77185 0.14918 0.0
C62 C 0.66714 0.75407 0.15818 0.0
C63 C 0.66339 0.75322 0.18015 0.0
C64 C 0.6139 0.76074 0.18669 0.0
C65 C 0.56893 0.77227 0.1712 0.0
H66 H 0.5355 0.2233 0.37073 0.0
H67 H 0.53939 0.12703 0.42496 0.0
H68 H 0.55542 0.29445 0.4353 0.0
N69 N 0.55103 0.3143 0.3937 0.0
N70 N 0.5689 0.35386 0.40553 0.0
C71 C 0.53918 0.21909 0.38791 0.0
C72 C 0.53618 0.16887 0.39587 0.0
C73 C 0.54747 0.26431 0.40209 0.0
C74 C 0.55047 0.25959 0.42428 0.0
C75 C 0.54634 0.21018 0.43239 0.0
C76 C 0.54058 0.16506 0.41829 0.0
H77 H 0.12528 0.23076 0.62837 0.0
H78 H 0.05413 0.24884 0.68535 0.0
H79 H 0.22404 0.25814 0.6913 0.0
N80 N 0.22759 0.24446 0.64958 0.0
N81 N 0.26779 0.26941 0.65937 0.0
C82 C 0.12924 0.2386 0.64567 0.0
C83 C 0.08337 0.24113 0.65535 0.0
C84 C 0.18028 0.2464 0.65862 0.0
C85 C 0.18489 0.25405 0.68113 0.0
C86 C 0.13994 0.25464 0.69084 0.0
C87 C 0.0892 0.24951 0.67785 0.0
Zn88 Zn 0.20851 0.66348 0.12405 0.0
Zn89 Zn 0.0796 0.78364 0.0951 0.0
Zn90 Zn 0.14591 0.7226 0.10849 0.0
C91 C 0.08941 0.71463 0.06028 0.0
C92 C 0.16747 0.84428 0.1066 0.0
O93 O 0.13102 0.71484 0.14158 0.0
O94 O 0.2114 0.68559 0.15466 0.0
C95 C 0.1487 0.60037 0.09495 0.0
O96 O 0.11402 0.68772 0.07566 0.0
O97 O 0.07483 0.76107 0.06448 0.0
O98 O 0.11796 0.85021 0.10588 0.0
O99 O 0.18686 0.79749 0.10549 0.0
O100 O 0.17195 0.59635 0.11417 0.0
O101 O 0.14022 0.64656 0.08768 0.0
O102 O 0.22598 0.75869 0.11176 0.0
O103 O 0.27006 0.68416 0.11082 0.0
C104 C 0.26946 0.73366 0.11026 0.0
O105 O 0.08267 0.73037 0.12967 0.0
O106 O 0.01743 0.76639 0.10729 0.0
C107 C 0.16724 0.70411 0.15786 0.0
C108 C 0.03339 0.74495 0.1247 0.0
Zn109 Zn 0.55618 0.69695 0.3414 0.0
Zn110 Zn 0.66097 0.82586 0.37345 0.0
Zn111 Zn 0.60615 0.75863 0.36119 0.0
C112 C 0.57478 0.87745 0.35872 0.0
C113 C 0.72532 0.77836 0.35184 0.0
O114 O 0.60995 0.68935 0.38148 0.0
O115 O 0.60018 0.63737 0.35194 0.0
C116 C 0.48021 0.75711 0.35276 0.0
O117 O 0.55832 0.83184 0.36253 0.0
O118 O 0.62304 0.8829 0.3571 0.0
O119 O 0.73322 0.80762 0.36896 0.0
O120 O 0.67758 0.76098 0.34402 0.0
O121 O 0.48715 0.708 0.35101 0.0
O122 O 0.52128 0.78756 0.35462 0.0
O123 O 0.63341 0.74621 0.32921 0.0
O124 O 0.55671 0.71411 0.31172 0.0
C125 C 0.60197 0.73286 0.31116 0.0
O126 O 0.63416 0.73729 0.39511 0.0
O127 O 0.64984 0.82144 0.40324 0.0
C128 C 0.6093 0.64259 0.37228 0.0
C129 C 0.64557 0.77582 0.40947 0.0
Zn130 Zn 0.58909 0.26883 0.59407 0.0
Zn131 Zn 0.73763 0.10477 0.64367 0.0
Zn132 Zn 0.65222 0.2109 0.60765 0.0
C133 C 0.76906 0.2177 0.62336 0.0
C134 C 0.68458 0.10793 0.59852 0.0
O135 O 0.58769 0.21168 0.62701 0.0
O136 O 0.5246 0.24416 0.6028 0.0
C137 C 0.66962 0.3359 0.61007 0.0
O138 O 0.731 0.24651 0.61423 0.0
O139 O 0.75714 0.17516 0.631 0.0
O140 O 0.70868 0.13128 0.61564 0.0
O141 O 0.65371 0.13734 0.58617 0.0
O142 O 0.6194 0.33622 0.60773 0.0
O143 O 0.69372 0.29118 0.60826 0.0
O144 O 0.6253 0.17707 0.57415 0.0
O145 O 0.59159 0.25302 0.56361 0.0
C146 C 0.60417 0.2062 0.55894 0.0
O147 O 0.63731 0.18663 0.64006 0.0
O148 O 0.6798 0.12428 0.66106 0.0
C149 C 0.53819 0.22219 0.62023 0.0
C150 C 0.64424 0.16002 0.6573 0.0
Zn151 Zn 0.04117 0.19725 0.83596 0.0
Zn152 Zn 0.16326 0.31645 0.87791 0.0
Zn153 Zn 0.09779 0.25421 0.85859 0.0
C154 C 0.14718 0.24329 0.90698 0.0
C155 C 0.07125 0.37323 0.86478 0.0
O156 O 0.1255 0.25067 0.8278 0.0
O157 O 0.04572 0.23133 0.80889 0.0
C158 C 0.09314 0.13277 0.8635 0.0
O159 O 0.12327 0.21849 0.88952 0.0
O160 O 0.1635 0.28981 0.90651 0.0
O161 O 0.12123 0.37961 0.86927 0.0
O162 O 0.05137 0.32647 0.86239 0.0
O163 O 0.07911 0.13091 0.8432 0.0
O164 O 0.09826 0.17809 0.87408 0.0
O165 O 0.01293 0.28697 0.85437 0.0
O166 O 0.97481 0.20903 0.8477 0.0
C167 C 0.97088 0.25762 0.8524 0.0
O168 O 0.17143 0.26086 0.84218 0.0
O169 O 0.22996 0.30462 0.86715 0.0
C170 C 0.09245 0.2482 0.80973 0.0
C171 C 0.21953 0.27851 0.84927 0.0
H172 H 0.19931 0.39383 0.04512 0.0
H173 H 0.11402 0.32777 0.09047 0.0
H174 H 0.09104 0.41602 0.10301 0.0
H175 H 0.10141 0.51206 0.10319 0.0
H176 H 0.18516 0.57742 0.05763 0.0
H177 H 0.19895 0.48915 0.04191 0.0
C178 C 0.1744 0.39819 0.05732 0.0
C179 C 0.15918 0.35349 0.06694 0.0
C180 C 0.15982 0.4491 0.06406 0.0
C181 C 0.12791 0.36099 0.08312 0.0
C182 C 0.11399 0.41158 0.09014 0.0
C183 C 0.12081 0.5069 0.08925 0.0
C184 C 0.14085 0.5512 0.0811 0.0
C185 C 0.13044 0.45589 0.08096 0.0
C186 C 0.16718 0.54422 0.06346 0.0
C187 C 0.17632 0.49356 0.05489 0.0
H188 H 0.95193 0.74583 0.32734 0.0
H189 H 0.9009 0.87993 0.29071 0.0
H190 H 0.81304 0.87706 0.30124 0.0
H191 H 0.75356 0.84027 0.32307 0.0
H192 H 0.80087 0.70227 0.35763 0.0
H193 H 0.8876 0.70232 0.34583 0.0
C194 C 0.92149 0.77438 0.32179 0.0
C195 C 0.93279 0.81413 0.30876 0.0
C196 C 0.87055 0.77133 0.32737 0.0
C197 C 0.89282 0.84984 0.30106 0.0
C198 C 0.84276 0.84803 0.307 0.0
C199 C 0.78206 0.80894 0.32721 0.0
C200 C 0.7704 0.77013 0.34044 0.0
C201 C 0.83137 0.80929 0.3203 0.0
C202 C 0.80854 0.73136 0.34676 0.0
C203 C 0.85826 0.73184 0.34026 0.0
H204 H 0.68962 0.58023 0.61079 0.0
H205 H 0.78027 0.53713 0.56111 0.0
H206 H 0.78111 0.44499 0.57004 0.0
H207 H 0.74285 0.37436 0.58783 0.0
H208 H 0.65096 0.41742 0.63716 0.0
H209 H 0.66479 0.51063 0.63301 0.0
C210 C 0.71078 0.5509 0.60237 0.0
C211 C 0.7348 0.56544 0.58517 0.0
C212 C 0.71051 0.49738 0.60746 0.0
C213 C 0.7616 0.52671 0.57437 0.0
C214 C 0.76187 0.47393 0.57941 0.0
C215 C 0.72797 0.40412 0.59832 0.0
C216 C 0.69606 0.38863 0.61284 0.0
C217 C 0.73478 0.45828 0.59539 0.0
C218 C 0.67602 0.42809 0.62595 0.0
C219 C 0.68332 0.48164 0.6234 0.0
H220 H 0.72359 0.25837 0.84222 0.0
H221 H 0.74095 0.37908 0.79921 0.0
H222 H 0.83708 0.38296 0.81285 0.0
H223 H 0.91823 0.34006 0.83206 0.0
H224 H 0.90047 0.21718 0.87402 0.0
H225 H 0.8036 0.22719 0.86639 0.0
C226 C 0.74815 0.28674 0.83638 0.0
C227 C 0.72506 0.31775 0.81946 0.0
C228 C 0.80396 0.28805 0.84403 0.0
C229 C 0.75775 0.35416 0.81202 0.0
C230 C 0.8129 0.35633 0.81977 0.0
C231 C 0.89319 0.31714 0.8402 0.0
C232 C 0.91655 0.2779 0.85357 0.0
C233 C 0.83691 0.32177 0.83508 0.0
C234 C 0.88344 0.24776 0.8637 0.0
C235 C 0.82788 0.25307 0.85916 0.0
H236 H 0.96701 0.57393 0.89856 0.0
H237 H 0.08043 0.64306 0.86522 0.0
H238 H 0.09414 0.55788 0.84737 0.0
H239 H 0.08841 0.46242 0.84717 0.0
H240 H 0.98185 0.39063 0.88259 0.0
H241 H 0.94997 0.47797 0.89334 0.0
C242 C -0.00577 0.57037 0.88718 0.0
C243 C 0.02342 0.6147 0.88358 0.0
C244 C 0.00335 0.5207 0.87746 0.0
C245 C 0.05738 0.6098 0.86833 0.0
C246 C 0.0656 0.56093 0.8582 0.0
C247 C 0.05688 0.46598 0.85666 0.0
C248 C 0.03804 0.42075 0.86445 0.0
C249 C 0.04079 0.51593 0.86346 0.0
C250 C -0.00316 0.4252 0.87647 0.0
C251 C 0.97927 0.47511 0.88285 0.0
H252 H 0.85456 0.78712 0.17962 0.0
H253 H 0.77266 0.67528 0.13084 0.0
H254 H 0.85555 0.65731 0.11725 0.0
H255 H 0.94886 0.68058 0.11688 0.0
H256 H 0.02492 0.80448 0.16116 0.0
H257 H 0.94865 0.80943 0.17955 0.0
C258 C 0.85544 0.75844 0.16619 0.0
C259 C 0.80804 0.73293 0.15612 0.0
C260 C 0.90274 0.74987 0.15801 0.0
C261 C 0.80878 0.69593 0.13862 0.0
C262 C 0.85614 0.68552 0.13094 0.0
C263 C 0.94928 0.7071 0.1311 0.0
C264 C -0.00581 0.73916 0.13881 0.0
C265 C 0.90309 0.71308 0.14022 0.0
C266 C 0.99325 0.77587 0.15632 0.0
C267 C 0.94862 0.77999 0.16632 0.0
H268 H 0.62335 0.43761 0.42531 0.0
H269 H 0.51537 0.38354 0.36717 0.0
H270 H 0.51696 0.47008 0.35311 0.0
H271 H 0.55002 0.55896 0.35658 0.0
H272 H 0.66084 0.61686 0.41324 0.0
H273 H 0.65668 0.53098 0.42899 0.0
C274 C 0.60041 0.4452 0.40957 0.0
C275 C 0.5699 0.40426 0.39718 0.0
C276 C 0.60195 0.49535 0.40144 0.0
C277 C 0.53981 0.41409 0.37686 0.0
C278 C 0.54051 0.46362 0.36886 0.0
C279 C 0.57376 0.55302 0.37238 0.0
C280 C 0.60638 0.59394 0.38363 0.0
C281 C 0.57175 0.50412 0.3809 0.0
C282 C 0.63545 0.58596 0.4043 0.0
C283 C 0.63325 0.53682 0.41317 0.0
H284 H 0.00428 0.30983 0.64072 0.0
H285 H 0.04043 0.14474 0.64486 0.0
H286 H 0.94551 0.12287 0.63444 0.0
H287 H 0.85242 0.15114 0.62794 0.0
H288 H 0.81393 0.3157 0.62273 0.0
H289 H 0.90961 0.33758 0.6294 0.0
C290 C 0.99126 0.26906 0.63854 0.0
C291 C 0.02912 0.22873 0.64313 0.0
C292 C 0.93634 0.25689 0.63273 0.0
C293 C 0.012 0.17612 0.64086 0.0
C294 C 0.95773 0.16374 0.63519 0.0
C295 C 0.86487 0.19186 0.62815 0.0
C296 C 0.82618 0.23191 0.62533 0.0
C297 C 0.91956 0.20387 0.63172 0.0
C298 C 0.84296 0.28426 0.62511 0.0
C299 C 0.89764 0.29671 0.62893 0.0
H300 H 0.31011 0.18714 0.6386 0.0
H301 H 0.34123 0.34279 0.6691 0.0
H302 H 0.43383 0.33806 0.66355 0.0
H303 H 0.50411 0.29176 0.64806 0.0
H304 H 0.47407 0.13674 0.61696 0.0
H305 H 0.38375 0.13762 0.62541 0.0
C306 C 0.33718 0.22008 0.6437 0.0
C307 C 0.31902 0.2661 0.65366 0.0
C308 C 0.39085 0.21636 0.64096 0.0
C309 C 0.35461 0.30777 0.66094 0.0
C310 C 0.40749 0.30479 0.65801 0.0
C311 C 0.47846 0.25736 0.64402 0.0
C312 C 0.4959 0.21365 0.63255 0.0
C313 C 0.42604 0.25936 0.64802 0.0
C314 C 0.46185 0.17001 0.62652 0.0
C315 C 0.40987 0.17106 0.63091 0.0
H316 H 0.48726 0.83871 0.14905 0.0
H317 H 0.54187 0.70445 0.11377 0.0
H318 H 0.451 0.68739 0.09449 0.0
H319 H 0.35506 0.6987 0.0939 0.0
H320 H 0.29935 0.82949 0.13069 0.0
H321 H 0.39125 0.86047 0.14281 0.0
C322 C 0.47934 0.8066 0.13671 0.0
C323 C 0.52104 0.77228 0.13316 0.0
C324 C 0.42661 0.79592 0.1262 0.0
C325 C 0.51057 0.73143 0.11685 0.0
C326 C 0.45844 0.72127 0.10598 0.0
C327 C 0.36301 0.7349 0.10405 0.0
C328 C 0.3208 0.76131 0.11171 0.0
C329 C 0.41594 0.75144 0.11144 0.0
C330 C 0.33126 0.80849 0.12459 0.0
C331 C 0.38389 0.82586 0.13172 0.0
H332 H 0.44865 0.2386 0.82799 0.0
H333 H 0.40314 0.36952 0.78885 0.0
H334 H 0.31355 0.36944 0.79784 0.0
H335 H 0.24919 0.3346 0.81833 0.0
H336 H 0.29308 0.20187 0.8566 0.0
H337 H 0.38116 0.19882 0.84612 0.0
C338 C 0.41915 0.2673 0.82168 0.0
C339 C 0.43261 0.3052 0.80826 0.0
C340 C 0.36697 0.2658 0.82638 0.0
C341 C 0.3936 0.34091 0.79955 0.0
C342 C 0.34236 0.34057 0.80455 0.0
C343 C 0.27748 0.30396 0.82371 0.0
C344 C 0.26432 0.26762 0.83773 0.0
C345 C 0.32851 0.30329 0.81798 0.0
C346 C 0.30191 0.22924 0.84527 0.0
C347 C 0.35259 0.22807 0.83956 0.0
H348 H 0.2552 0.86759 0.32882 0.0
H349 H 0.2044 0.70553 0.32332 0.0
H350 H 0.29563 0.67782 0.33719 0.0
H351 H 0.39009 0.69867 0.34763 0.0
H352 H 0.44388 0.85951 0.35064 0.0
H353 H 0.35116 0.88928 0.34221 0.0
C354 C 0.2641 0.82652 0.33146 0.0
C355 C 0.2232 0.78862 0.32566 0.0
C356 C 0.31707 0.81082 0.3391 0.0
C357 C 0.23507 0.73532 0.32841 0.0
C358 C 0.28729 0.71949 0.33608 0.0
C359 C 0.38185 0.74044 0.34678 0.0
C360 C 0.42435 0.77698 0.3501 0.0
C361 C 0.32871 0.75677 0.34102 0.0
C362 C 0.4123 0.83072 0.3487 0.0
C363 C 0.35914 0.84762 0.34356 0.0
H364 H 0.74534 0.86457 0.59317 0.0
H365 H 0.58011 0.85083 0.56247 0.0
H366 H 0.56866 0.94604 0.56784 0.0
H367 H 0.6073 0.03523 0.57903 0.0
H368 H 0.77183 0.04833 0.61094 0.0
H369 H 0.78191 0.95281 0.60717 0.0
C370 C 0.70645 0.88224 0.5883 0.0
C371 C 0.66346 0.85015 0.57769 0.0
C372 C 0.70032 0.93764 0.59113 0.0
C373 C 0.61368 0.87428 0.57098 0.0
C374 C 0.60727 0.92898 0.57379 0.0
C375 C 0.64537 0.01713 0.58503 0.0
C376 C 0.68897 0.04933 0.59496 0.0
C377 C 0.65061 0.96143 0.58335 0.0
C378 C 0.73766 0.0248 0.60307 0.0
C379 C 0.74346 0.96994 0.60101 0.0
H380 H 0.2733 0.03333 0.0729 0.0
H381 H 0.17468 0.11793 0.1122 0.0
H382 H 0.1561 0.03657 0.12788 0.0
H383 H 0.155 0.94021 0.12543 0.0
H384 H 0.25092 0.85412 0.08542 0.0
H385 H 0.28503 0.93702 0.0755 0.0
C386 C 0.24905 0.03382 0.08537 0.0
C387 C 0.22491 0.08105 0.09117 0.0
C388 C 0.23782 0.98663 0.09404 0.0
C389 C 0.19348 0.08191 0.10734 0.0
C390 C 0.18266 0.03535 0.11626 0.0
C391 C 0.18455 0.9397 0.11502 0.0
C392 C 0.19993 0.89148 0.10589 0.0
C393 C 0.20268 0.98729 0.109 0.0
C394 C 0.23861 0.89093 0.09263 0.0
C395 C 0.2576 0.93831 0.08678 0.0
H396 H 0.48202 0.07816 0.39904 0.0
H397 H 0.58064 0.14893 0.35966 0.0
H398 H 0.5887 0.0641 0.34043 0.0
H399 H 0.58371 0.96811 0.34 0.0
H400 H 0.49932 0.89597 0.38391 0.0
H401 H 0.46959 0.98247 0.39607 0.0
C402 C 0.50532 0.07519 0.38625 0.0
C403 C 0.5319 0.11993 0.3813 0.0
C404 C 0.51261 0.02562 0.37612 0.0
C405 C 0.55977 0.1155 0.36397 0.0
C406 C 0.5649 0.06673 0.35306 0.0
C407 C 0.55742 0.97132 0.35175 0.0
C408 C 0.54331 0.92577 0.3609 0.0
C409 C 0.54373 0.02126 0.35973 0.0
C410 C 0.50965 0.93031 0.37624 0.0
C411 C 0.49343 0.97988 0.38346 0.0
H412 H 0.10164 0.93771 0.92171 0.0
H413 H 0.01394 0.86826 0.86153 0.0
H414 H 0.02117 0.94975 0.84419 0.0
H415 H 0.05071 0.0402 0.84599 0.0
H416 H 0.13936 0.11267 0.90533 0.0
H417 H 0.13381 0.03054 0.92322 0.0
C418 C 0.0843 0.9408 0.90481 0.0
C419 C 0.05756 0.89714 0.89295 0.0
C420 C 0.08886 0.98805 0.89483 0.0
C421 C 0.03505 0.90113 0.87102 0.0
C422 C 0.03915 0.94775 0.86108 0.0
C423 C 0.06946 0.03818 0.8628 0.0
C424 C 0.09508 0.08278 0.8744 0.0
C425 C 0.06596 0.99127 0.8728 0.0
C426 C 0.11862 0.07925 0.89619 0.0
C427 C 0.1156 0.03221 0.90635 0.0
H428 H 0.12875 0.18531 -0.00013 0.0
H429 H 0.27909 0.26828 0.01359 0.0
H430 H 0.28125 0.2675 0.97497 0.0
H431 H 0.2335 0.25622 0.93786 0.0
H432 H 0.07909 0.18087 0.92345 0.0
H433 H 0.08573 0.16373 0.96172 0.0
C434 C 0.16247 0.20181 -0.00575 0.0
C435 C 0.20375 0.22686 0.00922 0.0
C436 C 0.16239 0.20273 0.97201 0.0
C437 C 0.24717 0.24879 0.00213 0.0
C438 C 0.24823 0.2485 0.98014 0.0
C439 C 0.20184 0.23496 0.94307 0.0
C440 C 0.1557 0.22018 0.92808 0.0
C441 C 0.20506 0.2275 0.96499 0.0
C442 C 0.11504 0.19235 0.9348 0.0
C443 C 0.11865 0.18314 0.95667 0.0
H444 H 0.17813 0.72894 0.25805 0.0
H445 H 0.06459 0.8524 0.24039 0.0
H446 H 0.06621 0.83045 0.20199 0.0
H447 H 0.10602 0.77915 0.1738 0.0
H448 H 0.21568 0.65377 0.19254 0.0
H449 H 0.21183 0.67502 0.23039 0.0
C450 C 0.1542 0.75157 0.24583 0.0
C451 C 0.12236 0.79306 0.252 0.0
C452 C 0.15507 0.73851 0.22406 0.0
C453 C 0.08999 0.82071 0.23597 0.0
C454 C 0.09094 0.80817 0.21407 0.0
C455 C 0.12668 0.75517 0.18613 0.0
C456 C 0.15951 0.71413 0.18035 0.0
C457 C 0.12371 0.7673 0.20795 0.0
C458 C 0.18962 0.6853 0.19657 0.0
C459 C 0.18751 0.69741 0.21821 0.0
H460 H 0.70536 0.80752 0.51047 0.0
H461 H 0.6331 0.65413 0.5077 0.0
H462 H 0.62065 0.64915 0.4681 0.0
H463 H 0.62445 0.6927 0.43373 0.0
H464 H 0.69395 0.84869 0.43917 0.0
H465 H 0.7107 0.84878 0.47785 0.0
C466 C 0.68605 0.77318 0.50131 0.0
C467 C 0.66921 0.73193 0.51216 0.0
C468 C 0.67764 0.77125 0.47875 0.0
C469 C 0.64643 0.68678 0.49985 0.0
C470 C 0.6389 0.68404 0.47715 0.0
C471 C 0.64376 0.72625 0.44342 0.0
C472 C 0.65745 0.77058 0.43324 0.0
C473 C 0.65352 0.72661 0.46631 0.0
C474 C 0.68226 0.81395 0.44622 0.0
C475 C 0.69224 0.81425 0.46855 0.0
H476 H 0.57959 0.19429 0.74803 0.0
H477 H 0.64264 0.34826 0.74243 0.0
H478 H 0.64622 0.32601 0.70438 0.0
H479 H 0.64274 0.25902 0.67438 0.0
H480 H 0.59177 0.10132 0.68152 0.0
H481 H 0.57024 0.12874 0.71693 0.0
C482 C 0.59308 0.22313 0.73828 0.0
C483 C 0.61091 0.27274 0.74786 0.0
C484 C 0.59696 0.20927 0.71668 0.0
C485 C 0.62899 0.30978 0.73529 0.0
C486 C 0.63097 0.29707 0.71358 0.0
C487 C 0.6253 0.23119 0.68344 0.0
C488 C 0.61825 0.17846 0.67542 0.0
C489 C 0.61652 0.24646 0.70429 0.0
C490 C 0.59701 0.14222 0.68743 0.0
C491 C 0.58525 0.15781 0.70771 0.0
H492 H 0.09882 0.6561 0.96271 0.0
H493 H 0.9611 0.7577 0.95542 0.0
H494 H 0.96222 0.76004 -0.00575 0.0
H495 H 0.00695 0.74057 0.03022 0.0
H496 H 0.15062 0.64783 0.03889 0.0
H497 H 0.14174 0.6325 -0.00045 0.0
C498 C 0.06885 0.67816 0.96972 0.0
C499 C 0.03012 0.70708 0.95644 0.0
C500 C 0.07064 0.68037 -0.00781 0.0
C501 C 0.99151 0.73575 0.9655 0.0
C502 C 0.99204 0.73689 -0.01238 0.0
C503 C 0.03588 0.71619 0.02351 0.0
C504 C 0.07916 0.69484 0.03738 0.0
C505 C 0.03206 0.71037 0.00111 0.0
C506 C 0.11623 0.66331 0.02853 0.0
C507 C 0.11163 0.65552 0.00605 0.0
H508 H 0.67956 0.78947 0.22542 0.0
H509 H 0.53323 0.7062 0.19791 0.0
H510 H 0.5182 0.6898 0.23372 0.0
H511 H 0.54477 0.69961 0.27248 0.0
H512 H 0.68986 0.78164 0.30138 0.0
H513 H 0.7084 0.79647 0.26542 0.0
C514 C 0.64464 0.76747 0.22731 0.0
C515 C 0.607 0.75022 0.20893 0.0
C516 C 0.63633 0.75741 0.24815 0.0
C517 C 0.56203 0.72151 0.21169 0.0
C518 C 0.55359 0.71154 0.23219 0.0
C519 C 0.5807 0.72066 0.27107 0.0
C520 C 0.61619 0.73956 0.28972 0.0
C521 C 0.59018 0.72959 0.25048 0.0
C522 C 0.6624 0.76643 0.28735 0.0
C523 C 0.67263 0.77515 0.26676 0.0
H524 H 0.60917 0.14938 0.46094 0.0
H525 H 0.48092 0.26254 0.45532 0.0
H526 H 0.48236 0.26361 0.49405 0.0
H527 H 0.52531 0.23985 0.52941 0.0
H528 H 0.65836 0.13246 0.53695 0.0
H529 H 0.64864 0.11969 0.49736 0.0
C530 C 0.58125 0.17362 0.46829 0.0
C531 C 0.54546 0.20646 0.45553 0.0
C532 C 0.58306 0.17479 0.49073 0.0
C533 C 0.5093 0.23774 0.465 0.0
C534 C 0.50995 0.23815 0.48706 0.0
C535 C 0.55196 0.21312 0.52243 0.0
C536 C 0.59311 0.18785 0.53594 0.0
C537 C 0.54749 0.20796 0.50007 0.0
C538 C 0.62649 0.15242 0.52677 0.0
C539 C 0.62124 0.14564 0.5042 0.0
H540 H 0.08689 0.31594 0.71654 0.0
H541 H 0.2073 0.19531 0.71819 0.0
H542 H 0.21066 0.18926 0.75689 0.0
H543 H 0.1702 0.20988 0.78912 0.0
H544 H 0.04489 0.32541 0.78638 0.0
H545 H 0.05336 0.34306 0.74953 0.0
C546 C 0.11416 0.28876 0.72548 0.0
C547 C 0.14634 0.25584 0.71461 0.0
C548 C 0.11505 0.28473 0.74756 0.0
C549 C 0.18223 0.22124 0.72631 0.0
C550 C 0.18401 0.21756 0.7484 0.0
C551 C 0.14595 0.2398 0.78054 0.0
C552 C 0.10694 0.26629 0.79009 0.0
C553 C 0.14946 0.248 0.75906 0.0
C554 C 0.07506 0.30464 0.77903 0.0
C555 C 0.07964 0.31445 0.758 0.0
loop_
_geom_bond_atom_site_label_1
_geom_bond_atom_site_label_2
_geom_bond_distance
_geom_bond_site_symmetry_2
_ccdc_geom_bond_type
H0 C5 0.929 . S
H1 C10 0.931 . S
H2 C8 0.930 . S
N3 N4 1.234 . S
N3 C7 1.453 . S
N4 N3 1.234 . S
C5 H0 0.929 . S
C5 C6 1.373 . S
C5 C7 1.368 . S
C6 C5 1.373 . S
C6 C10 1.397 . S
C7 N3 1.453 . S
C7 C5 1.368 . S
C7 C8 1.373 . S
C8 H2 0.930 . S
C8 C7 1.373 . S
C8 C9 1.371 . S
C9 C8 1.371 . S
C9 C10 1.383 . S
C10 H1 0.931 . S
C10 C6 1.397 . S
C10 C9 1.383 . S
H11 C16 0.929 . S
H12 C21 0.931 . S
H13 C19 0.930 . S
N14 N15 1.234 . S
N14 C18 1.453 . S
N15 N14 1.234 . S
C16 H11 0.929 . S
C16 C17 1.373 . S
C16 C18 1.368 . S
C17 C16 1.373 . S
C17 C21 1.397 . S
C18 N14 1.453 . S
C18 C16 1.368 . S
C18 C19 1.373 . S
C19 H13 0.930 . S
C19 C18 1.373 . S
C19 C20 1.371 . S
C20 C19 1.371 . S
C20 C21 1.383 . S
C21 H12 0.931 . S
C21 C17 1.397 . S
C21 C20 1.383 . S
H22 C27 0.929 . S
H23 C32 0.931 . S
H24 C30 0.930 . S
N25 N26 1.234 . S
N25 C29 1.453 . S
N26 N25 1.234 . S
C27 H22 0.929 . S
C27 C28 1.373 . S
C27 C29 1.368 . S
C28 C27 1.373 . S
C28 C32 1.397 . S
C29 N25 1.453 . S
C29 C27 1.368 . S
C29 C30 1.373 . S
C30 H24 0.930 . S
C30 C29 1.373 . S
C30 C31 1.371 . S
C31 C30 1.371 . S
C31 C32 1.383 . S
C32 H23 0.931 . S
C32 C28 1.397 . S
C32 C31 1.383 . S
H33 C38 0.929 . S
H34 C43 0.931 . S
H35 C41 0.930 . S
N36 N37 1.234 . S
N36 C40 1.453 . S
N37 N36 1.234 . S
C38 H33 0.929 . S
C38 C39 1.373 . S
C38 C40 1.368 . S
C39 C38 1.373 . S
C39 C43 1.397 . S
C40 N36 1.453 . S
C40 C38 1.368 . S
C40 C41 1.373 . S
C41 H35 0.930 . S
C41 C40 1.373 . S
C41 C42 1.371 . S
C42 C41 1.371 . S
C42 C43 1.383 . S
C43 H34 0.931 . S
C43 C39 1.397 . S
C43 C42 1.383 . S
H44 C49 0.929 . S
H45 C54 0.931 . S
H46 C52 0.930 . S
N47 N48 1.234 . S
N47 C51 1.453 . S
N48 N47 1.234 . S
C49 H44 0.929 . S
C49 C50 1.373 . S
C49 C51 1.368 . S
C50 C49 1.373 . S
C50 C54 1.397 . S
C51 N47 1.453 . S
C51 C49 1.368 . S
C51 C52 1.373 . S
C52 H46 0.930 . S
C52 C51 1.373 . S
C52 C53 1.371 . S
C53 C52 1.371 . S
C53 C54 1.383 . S
C54 H45 0.931 . S
C54 C50 1.397 . S
C54 C53 1.383 . S
H55 C60 0.929 . S
H56 C65 0.931 . S
H57 C63 0.930 . S
N58 N59 1.234 . S
N58 C62 1.453 . S
N59 N58 1.234 . S
C60 H55 0.929 . S
C60 C61 1.373 . S
C60 C62 1.368 . S
C61 C60 1.373 . S
C61 C65 1.397 . S
C62 N58 1.453 . S
C62 C60 1.368 . S
C62 C63 1.373 . S
C63 H57 0.930 . S
C63 C62 1.373 . S
C63 C64 1.371 . S
C64 C63 1.371 . S
C64 C65 1.383 . S
C65 H56 0.931 . S
C65 C61 1.397 . S
C65 C64 1.383 . S
H66 C71 0.929 . S
H67 C76 0.931 . S
H68 C74 0.930 . S
N69 N70 1.234 . S
N69 C73 1.453 . S
N70 N69 1.234 . S
C71 H66 0.929 . S
C71 C72 1.373 . S
C71 C73 1.368 . S
C72 C71 1.373 . S
C72 C76 1.397 . S
C73 N69 1.453 . S
C73 C71 1.368 . S
C73 C74 1.373 . S
C74 H68 0.930 . S
C74 C73 1.373 . S
C74 C75 1.371 . S
C75 C74 1.371 . S
C75 C76 1.383 . S
C76 H67 0.931 . S
C76 C72 1.397 . S
C76 C75 1.383 . S
H77 C82 0.929 . S
H78 C87 0.931 . S
H79 C85 0.930 . S
N80 N81 1.234 . S
N80 C84 1.453 . S
N81 N80 1.234 . S
C82 H77 0.929 . S
C82 C83 1.373 . S
C82 C84 1.368 . S
C83 C82 1.373 . S
C83 C87 1.397 . S
C84 N80 1.453 . S
C84 C82 1.368 . S
C84 C85 1.373 . S
C85 H79 0.930 . S
C85 C84 1.373 . S
C85 C86 1.371 . S
C86 C85 1.371 . S
C86 C87 1.383 . S
C87 H78 0.931 . S
C87 C83 1.397 . S
C87 C86 1.383 . S
Zn88 O94 1.920 . S
Zn88 O100 1.898 . S
Zn88 O103 1.905 . S
Zn89 O97 1.905 . S
Zn89 O98 1.898 . S
Zn89 O106 1.920 . S
Zn90 O93 2.080 . S
Zn90 O96 2.114 . S
Zn90 O99 2.120 . S
Zn90 O101 2.120 . S
Zn90 O102 2.114 . S
Zn90 O105 2.080 . S
C91 O96 1.166 . S
C91 O97 1.182 . S
C92 O98 1.167 . S
C92 O99 1.299 . S
O93 Zn90 2.080 . S
O93 C107 1.305 . S
O94 Zn88 1.920 . S
O94 C107 1.234 . S
C95 O100 1.167 . S
C95 O101 1.299 . S
O96 Zn90 2.114 . S
O96 C91 1.166 . S
O97 Zn89 1.905 . S
O97 C91 1.182 . S
O98 Zn89 1.898 . S
O98 C92 1.167 . S
O99 Zn90 2.120 . S
O99 C92 1.299 . S
O100 Zn88 1.898 . S
O100 C95 1.167 . S
O101 Zn90 2.120 . S
O101 C95 1.299 . S
O102 Zn90 2.114 . S
O102 C104 1.166 . S
O103 Zn88 1.905 . S
O103 C104 1.182 . S
C104 O102 1.166 . S
C104 O103 1.182 . S
O105 Zn90 2.080 . S
O105 C108 1.305 . S
O106 Zn89 1.920 . S
O106 C108 1.234 . S
C107 O93 1.305 . S
C107 O94 1.234 . S
C108 O105 1.305 . S
C108 O106 1.234 . S
Zn109 O115 1.920 . S
Zn109 O121 1.898 . S
Zn109 O124 1.905 . S
Zn110 O118 1.905 . S
Zn110 O119 1.898 . S
Zn110 O127 1.920 . S
Zn111 O114 2.080 . S
Zn111 O117 2.114 . S
Zn111 O120 2.120 . S
Zn111 O122 2.120 . S
Zn111 O123 2.114 . S
Zn111 O126 2.080 . S
C112 O117 1.166 . S
C112 O118 1.182 . S
C113 O119 1.167 . S
C113 O120 1.299 . S
O114 Zn111 2.080 . S
O114 C128 1.305 . S
O115 Zn109 1.920 . S
O115 C128 1.234 . S
C116 O121 1.167 . S
C116 O122 1.299 . S
O117 Zn111 2.114 . S
O117 C112 1.166 . S
O118 Zn110 1.905 . S
O118 C112 1.182 . S
O119 Zn110 1.898 . S
O119 C113 1.167 . S
O120 Zn111 2.120 . S
O120 C113 1.299 . S
O121 Zn109 1.898 . S
O121 C116 1.167 . S
O122 Zn111 2.120 . S
O122 C116 1.299 . S
O123 Zn111 2.114 . S
O123 C125 1.166 . S
O124 Zn109 1.905 . S
O124 C125 1.182 . S
C125 O123 1.166 . S
C125 O124 1.182 . S
O126 Zn111 2.080 . S
O126 C129 1.305 . S
O127 Zn110 1.920 . S
O127 C129 1.234 . S
C128 O114 1.305 . S
C128 O115 1.234 . S
C129 O126 1.305 . S
C129 O127 1.234 . S
Zn130 O136 1.920 . S
Zn130 O142 1.898 . S
Zn130 O145 1.905 . S
Zn131 O139 1.905 . S
Zn131 O140 1.898 . S
Zn131 O148 1.920 . S
Zn132 O135 2.080 . S
Zn132 O138 2.114 . S
Zn132 O141 2.120 . S
Zn132 O143 2.120 . S
Zn132 O144 2.114 . S
Zn132 O147 2.080 . S
C133 O138 1.166 . S
C133 O139 1.182 . S
C134 O140 1.167 . S
C134 O141 1.299 . S
O135 Zn132 2.080 . S
O135 C149 1.305 . S
O136 Zn130 1.920 . S
O136 C149 1.234 . S
C137 O142 1.167 . S
C137 O143 1.299 . S
O138 Zn132 2.114 . S
O138 C133 1.166 . S
O139 Zn131 1.905 . S
O139 C133 1.182 . S
O140 Zn131 1.898 . S
O140 C134 1.167 . S
O141 Zn132 2.120 . S
O141 C134 1.299 . S
O142 Zn130 1.898 . S
O142 C137 1.167 . S
O143 Zn132 2.120 . S
O143 C137 1.299 . S
O144 Zn132 2.114 . S
O144 C146 1.166 . S
O145 Zn130 1.905 . S
O145 C146 1.182 . S
C146 O144 1.166 . S
C146 O145 1.182 . S
O147 Zn132 2.080 . S
O147 C150 1.305 . S
O148 Zn131 1.920 . S
O148 C150 1.234 . S
C149 O135 1.305 . S
C149 O136 1.234 . S
C150 O147 1.305 . S
C150 O148 1.234 . S
Zn151 O157 1.920 . S
Zn151 O163 1.898 . S
Zn151 O166 1.905 1_455 S
Zn152 O160 1.905 . S
Zn152 O161 1.898 . S
Zn152 O169 1.920 . S
Zn153 O156 2.080 . S
Zn153 O159 2.114 . S
Zn153 O162 2.120 . S
Zn153 O164 2.120 . S
Zn153 O165 2.114 . S
Zn153 O168 2.080 . S
C154 O159 1.166 . S
C154 O160 1.182 . S
C155 O161 1.167 . S
C155 O162 1.299 . S
O156 Zn153 2.080 . S
O156 C170 1.305 . S
O157 Zn151 1.920 . S
O157 C170 1.234 . S
C158 O163 1.167 . S
C158 O164 1.299 . S
O159 Zn153 2.114 . S
O159 C154 1.166 . S
O160 Zn152 1.905 . S
O160 C154 1.182 . S
O161 Zn152 1.898 . S
O161 C155 1.167 . S
O162 Zn153 2.120 . S
O162 C155 1.299 . S
O163 Zn151 1.898 . S
O163 C158 1.167 . S
O164 Zn153 2.120 . S
O164 C158 1.299 . S
O165 Zn153 2.114 . S
O165 C167 1.166 1_455 S
O166 Zn151 1.905 1_655 S
O166 C167 1.182 . S
C167 O165 1.166 1_655 S
C167 O166 1.182 . S
O168 Zn153 2.080 . S
O168 C171 1.305 . S
O169 Zn152 1.920 . S
O169 C171 1.234 . S
C170 O156 1.305 . S
C170 O157 1.234 . S
C171 O168 1.305 . S
C171 O169 1.234 . S
H172 C178 0.930 . S
H173 C181 0.930 . S
H174 C182 0.930 . S
H175 C183 0.930 . S
H176 C186 0.930 . S
H177 C187 0.930 . S
C178 H172 0.930 . S
C178 C179 1.355 . S
C178 C180 1.415 . S
C179 C178 1.355 . S
C179 C181 1.419 . S
C180 C178 1.415 . S
C180 C185 1.425 . S
C180 C187 1.409 . S
C181 H173 0.930 . S
C181 C179 1.419 . S
C181 C182 1.362 . S
C182 H174 0.930 . S
C182 C181 1.362 . S
C182 C185 1.409 . S
C183 H175 0.930 . S
C183 C184 1.355 . S
C183 C185 1.415 . S
C184 C183 1.355 . S
C184 C186 1.419 . S
C185 C180 1.425 . S
C185 C182 1.409 . S
C185 C183 1.415 . S
C186 H176 0.930 . S
C186 C184 1.419 . S
C186 C187 1.362 . S
C187 H177 0.930 . S
C187 C180 1.409 . S
C187 C186 1.362 . S
H188 C194 0.930 . S
H189 C197 0.930 . S
H190 C198 0.930 . S
H191 C199 0.930 . S
H192 C202 0.930 . S
H193 C203 0.930 . S
C194 H188 0.930 . S
C194 C195 1.355 . S
C194 C196 1.415 . S
C195 C194 1.355 . S
C195 C197 1.419 . S
C196 C194 1.415 . S
C196 C201 1.425 . S
C196 C203 1.409 . S
C197 H189 0.930 . S
C197 C195 1.419 . S
C197 C198 1.362 . S
C198 H190 0.930 . S
C198 C197 1.362 . S
C198 C201 1.409 . S
C199 H191 0.930 . S
C199 C200 1.355 . S
C199 C201 1.415 . S
C200 C199 1.355 . S
C200 C202 1.419 . S
C201 C196 1.425 . S
C201 C198 1.409 . S
C201 C199 1.415 . S
C202 H192 0.930 . S
C202 C200 1.419 . S
C202 C203 1.362 . S
C203 H193 0.930 . S
C203 C196 1.409 . S
C203 C202 1.362 . S
H204 C210 0.930 . S
H205 C213 0.930 . S
H206 C214 0.930 . S
H207 C215 0.930 . S
H208 C218 0.930 . S
H209 C219 0.930 . S
C210 H204 0.930 . S
C210 C211 1.355 . S
C210 C212 1.415 . S
C211 C210 1.355 . S
C211 C213 1.419 . S
C212 C210 1.415 . S
C212 C217 1.425 . S
C212 C219 1.409 . S
C213 H205 0.930 . S
C213 C211 1.419 . S
C213 C214 1.362 . S
C214 H206 0.930 . S
C214 C213 1.362 . S
C214 C217 1.409 . S
C215 H207 0.930 . S
C215 C216 1.355 . S
C215 C217 1.415 . S
C216 C215 1.355 . S
C216 C218 1.419 . S
C217 C212 1.425 . S
C217 C214 1.409 . S
C217 C215 1.415 . S
C218 H208 0.930 . S
C218 C216 1.419 . S
C218 C219 1.362 . S
C219 H209 0.930 . S
C219 C212 1.409 . S
C219 C218 1.362 . S
H220 C226 0.930 . S
H221 C229 0.930 . S
H222 C230 0.930 . S
H223 C231 0.930 . S
H224 C234 0.930 . S
H225 C235 0.930 . S
C226 H220 0.930 . S
C226 C227 1.355 . S
C226 C228 1.415 . S
C227 C226 1.355 . S
C227 C229 1.419 . S
C228 C226 1.415 . S
C228 C233 1.425 . S
C228 C235 1.409 . S
C229 H221 0.930 . S
C229 C227 1.419 . S
C229 C230 1.362 . S
C230 H222 0.930 . S
C230 C229 1.362 . S
C230 C233 1.409 . S
C231 H223 0.930 . S
C231 C232 1.355 . S
C231 C233 1.415 . S
C232 C231 1.355 . S
C232 C234 1.419 . S
C233 C228 1.425 . S
C233 C230 1.409 . S
C233 C231 1.415 . S
C234 H224 0.930 . S
C234 C232 1.419 . S
C234 C235 1.362 . S
C235 H225 0.930 . S
C235 C228 1.409 . S
C235 C234 1.362 . S
H236 C242 0.930 . S
H237 C245 0.930 . S
H238 C246 0.930 . S
H239 C247 0.930 . S
H240 C250 0.930 . S
H241 C251 0.930 . S
C242 H236 0.930 . S
C242 C243 1.355 . S
C242 C244 1.415 . S
C243 C242 1.355 . S
C243 C245 1.419 . S
C244 C242 1.415 . S
C244 C249 1.425 . S
C244 C251 1.409 . S
C245 H237 0.930 . S
C245 C243 1.419 . S
C245 C246 1.362 . S
C246 H238 0.930 . S
C246 C245 1.362 . S
C246 C249 1.409 . S
C247 H239 0.930 . S
C247 C248 1.355 . S
C247 C249 1.415 . S
C248 C247 1.355 . S
C248 C250 1.419 . S
C249 C244 1.425 . S
C249 C246 1.409 . S
C249 C247 1.415 . S
C250 H240 0.930 . S
C250 C248 1.419 . S
C250 C251 1.362 . S
C251 H241 0.930 . S
C251 C244 1.409 . S
C251 C250 1.362 . S
H252 C258 0.930 . S
H253 C261 0.930 . S
H254 C262 0.930 . S
H255 C263 0.930 . S
H256 C266 0.930 1_455 S
H257 C267 0.930 . S
C258 H252 0.930 . S
C258 C259 1.355 . S
C258 C260 1.415 . S
C259 C258 1.355 . S
C259 C261 1.419 . S
C260 C258 1.415 . S
C260 C265 1.425 . S
C260 C267 1.409 . S
C261 H253 0.930 . S
C261 C259 1.419 . S
C261 C262 1.362 . S
C262 H254 0.930 . S
C262 C261 1.362 . S
C262 C265 1.409 . S
C263 H255 0.930 . S
C263 C264 1.355 . S
C263 C265 1.415 . S
C264 C263 1.355 . S
C264 C266 1.419 . S
C265 C260 1.425 . S
C265 C262 1.409 . S
C265 C263 1.415 . S
C266 H256 0.930 1_655 S
C266 C264 1.419 . S
C266 C267 1.362 . S
C267 H257 0.930 . S
C267 C260 1.409 . S
C267 C266 1.362 . S
H268 C274 0.930 . S
H269 C277 0.930 . S
H270 C278 0.930 . S
H271 C279 0.930 . S
H272 C282 0.930 . S
H273 C283 0.930 . S
C274 H268 0.930 . S
C274 C275 1.355 . S
C274 C276 1.415 . S
C275 C274 1.355 . S
C275 C277 1.419 . S
C276 C274 1.415 . S
C276 C281 1.425 . S
C276 C283 1.409 . S
C277 H269 0.930 . S
C277 C275 1.419 . S
C277 C278 1.362 . S
C278 H270 0.930 . S
C278 C277 1.362 . S
C278 C281 1.409 . S
C279 H271 0.930 . S
C279 C280 1.355 . S
C279 C281 1.415 . S
C280 C279 1.355 . S
C280 C282 1.419 . S
C281 C276 1.425 . S
C281 C278 1.409 . S
C281 C279 1.415 . S
C282 H272 0.930 . S
C282 C280 1.419 . S
C282 C283 1.362 . S
C283 H273 0.930 . S
C283 C276 1.409 . S
C283 C282 1.362 . S
H284 C290 0.930 1_455 S
H285 C293 0.930 1_455 S
H286 C294 0.930 . S
H287 C295 0.930 . S
H288 C298 0.930 . S
H289 C299 0.930 . S
C290 H284 0.930 1_655 S
C290 C291 1.355 1_655 S
C290 C292 1.415 . S
C291 C290 1.355 1_455 S
C291 C293 1.419 1_455 S
C292 C290 1.415 . S
C292 C297 1.425 . S
C292 C299 1.409 . S
C293 H285 0.930 1_655 S
C293 C291 1.419 1_655 S
C293 C294 1.362 . S
C294 H286 0.930 . S
C294 C293 1.362 . S
C294 C297 1.409 . S
C295 H287 0.930 . S
C295 C296 1.355 . S
C295 C297 1.415 . S
C296 C295 1.355 . S
C296 C298 1.419 . S
C297 C292 1.425 . S
C297 C294 1.409 . S
C297 C295 1.415 . S
C298 H288 0.930 . S
C298 C296 1.419 . S
C298 C299 1.362 . S
C299 H289 0.930 . S
C299 C292 1.409 . S
C299 C298 1.362 . S
H300 C306 0.930 . S
H301 C309 0.930 . S
H302 C310 0.930 . S
H303 C311 0.930 . S
H304 C314 0.930 . S
H305 C315 0.930 . S
C306 H300 0.930 . S
C306 C307 1.355 . S
C306 C308 1.415 . S
C307 C306 1.355 . S
C307 C309 1.419 . S
C308 C306 1.415 . S
C308 C313 1.425 . S
C308 C315 1.409 . S
C309 H301 0.930 . S
C309 C307 1.419 . S
C309 C310 1.362 . S
C310 H302 0.930 . S
C310 C309 1.362 . S
C310 C313 1.409 . S
C311 H303 0.930 . S
C311 C312 1.355 . S
C311 C313 1.415 . S
C312 C311 1.355 . S
C312 C314 1.419 . S
C313 C308 1.425 . S
C313 C310 1.409 . S
C313 C311 1.415 . S
C314 H304 0.930 . S
C314 C312 1.419 . S
C314 C315 1.362 . S
C315 H305 0.930 . S
C315 C308 1.409 . S
C315 C314 1.362 . S
H316 C322 0.930 . S
H317 C325 0.930 . S
H318 C326 0.930 . S
H319 C327 0.930 . S
H320 C330 0.930 . S
H321 C331 0.930 . S
C322 H316 0.930 . S
C322 C323 1.355 . S
C322 C324 1.415 . S
C323 C322 1.355 . S
C323 C325 1.419 . S
C324 C322 1.415 . S
C324 C329 1.425 . S
C324 C331 1.409 . S
C325 H317 0.930 . S
C325 C323 1.419 . S
C325 C326 1.362 . S
C326 H318 0.930 . S
C326 C325 1.362 . S
C326 C329 1.409 . S
C327 H319 0.930 . S
C327 C328 1.355 . S
C327 C329 1.415 . S
C328 C327 1.355 . S
C328 C330 1.419 . S
C329 C324 1.425 . S
C329 C326 1.409 . S
C329 C327 1.415 . S
C330 H320 0.930 . S
C330 C328 1.419 . S
C330 C331 1.362 . S
C331 H321 0.930 . S
C331 C324 1.409 . S
C331 C330 1.362 . S
H332 C338 0.930 . S
H333 C341 0.930 . S
H334 C342 0.930 . S
H335 C343 0.930 . S
H336 C346 0.930 . S
H337 C347 0.930 . S
C338 H332 0.930 . S
C338 C339 1.355 . S
C338 C340 1.415 . S
C339 C338 1.355 . S
C339 C341 1.419 . S
C340 C338 1.415 . S
C340 C345 1.425 . S
C340 C347 1.409 . S
C341 H333 0.930 . S
C341 C339 1.419 . S
C341 C342 1.362 . S
C342 H334 0.930 . S
C342 C341 1.362 . S
C342 C345 1.409 . S
C343 H335 0.930 . S
C343 C344 1.355 . S
C343 C345 1.415 . S
C344 C343 1.355 . S
C344 C346 1.419 . S
C345 C340 1.425 . S
C345 C342 1.409 . S
C345 C343 1.415 . S
C346 H336 0.930 . S
C346 C344 1.419 . S
C346 C347 1.362 . S
C347 H337 0.930 . S
C347 C340 1.409 . S
C347 C346 1.362 . S
H348 C354 0.930 . S
H349 C357 0.930 . S
H350 C358 0.930 . S
H351 C359 0.930 . S
H352 C362 0.930 . S
H353 C363 0.930 . S
C354 H348 0.930 . S
C354 C355 1.355 . S
C354 C356 1.415 . S
C355 C354 1.355 . S
C355 C357 1.419 . S
C356 C354 1.415 . S
C356 C361 1.425 . S
C356 C363 1.409 . S
C357 H349 0.930 . S
C357 C355 1.419 . S
C357 C358 1.362 . S
C358 H350 0.930 . S
C358 C357 1.362 . S
C358 C361 1.409 . S
C359 H351 0.930 . S
C359 C360 1.355 . S
C359 C361 1.415 . S
C360 C359 1.355 . S
C360 C362 1.419 . S
C361 C356 1.425 . S
C361 C358 1.409 . S
C361 C359 1.415 . S
C362 H352 0.930 . S
C362 C360 1.419 . S
C362 C363 1.362 . S
C363 H353 0.930 . S
C363 C356 1.409 . S
C363 C362 1.362 . S
H364 C370 0.930 . S
H365 C373 0.930 . S
H366 C374 0.930 . S
H367 C375 0.930 . S
H368 C378 0.930 . S
H369 C379 0.930 . S
C370 H364 0.930 . S
C370 C371 1.355 . S
C370 C372 1.415 . S
C371 C370 1.355 . S
C371 C373 1.419 . S
C372 C370 1.415 . S
C372 C377 1.425 . S
C372 C379 1.409 . S
C373 H365 0.930 . S
C373 C371 1.419 . S
C373 C374 1.362 . S
C374 H366 0.930 . S
C374 C373 1.362 . S
C374 C377 1.409 . S
C375 H367 0.930 . S
C375 C376 1.355 . S
C375 C377 1.415 1_545 S
C376 C375 1.355 . S
C376 C378 1.419 . S
C377 C372 1.425 . S
C377 C374 1.409 . S
C377 C375 1.415 1_565 S
C378 H368 0.930 . S
C378 C376 1.419 . S
C378 C379 1.362 1_545 S
C379 H369 0.930 . S
C379 C372 1.409 . S
C379 C378 1.362 1_565 S
H380 C386 0.930 . S
H381 C389 0.930 . S
H382 C390 0.930 . S
H383 C391 0.930 . S
H384 C394 0.930 . S
H385 C395 0.930 . S
C386 H380 0.930 . S
C386 C387 1.355 . S
C386 C388 1.415 1_545 S
C387 C386 1.355 . S
C387 C389 1.419 . S
C388 C386 1.415 1_565 S
C388 C393 1.425 . S
C388 C395 1.409 . S
C389 H381 0.930 . S
C389 C387 1.419 . S
C389 C390 1.362 . S
C390 H382 0.930 . S
C390 C389 1.362 . S
C390 C393 1.409 1_545 S
C391 H383 0.930 . S
C391 C392 1.355 . S
C391 C393 1.415 . S
C392 C391 1.355 . S
C392 C394 1.419 . S
C393 C388 1.425 . S
C393 C390 1.409 1_565 S
C393 C391 1.415 . S
C394 H384 0.930 . S
C394 C392 1.419 . S
C394 C395 1.362 . S
C395 H385 0.930 . S
C395 C388 1.409 . S
C395 C394 1.362 . S
H396 C402 0.930 . S
H397 C405 0.930 . S
H398 C406 0.930 . S
H399 C407 0.930 . S
H400 C410 0.930 . S
H401 C411 0.930 . S
C402 H396 0.930 . S
C402 C403 1.355 . S
C402 C404 1.415 . S
C403 C402 1.355 . S
C403 C405 1.419 . S
C404 C402 1.415 . S
C404 C409 1.425 . S
C404 C411 1.409 1_545 S
C405 H397 0.930 . S
C405 C403 1.419 . S
C405 C406 1.362 . S
C406 H398 0.930 . S
C406 C405 1.362 . S
C406 C409 1.409 . S
C407 H399 0.930 . S
C407 C408 1.355 . S
C407 C409 1.415 1_565 S
C408 C407 1.355 . S
C408 C410 1.419 . S
C409 C404 1.425 . S
C409 C406 1.409 . S
C409 C407 1.415 1_545 S
C410 H400 0.930 . S
C410 C408 1.419 . S
C410 C411 1.362 . S
C411 H401 0.930 . S
C411 C404 1.409 1_565 S
C411 C410 1.362 . S
H412 C418 0.930 . S
H413 C421 0.930 . S
H414 C422 0.930 . S
H415 C423 0.930 . S
H416 C426 0.930 . S
H417 C427 0.930 . S
C418 H412 0.930 . S
C418 C419 1.355 . S
C418 C420 1.415 . S
C419 C418 1.355 . S
C419 C421 1.419 1_455 S
C420 C418 1.415 . S
C420 C425 1.425 1_565 S
C420 C427 1.409 1_565 S
C421 H413 0.930 . S
C421 C419 1.419 1_655 S
C421 C422 1.362 . S
C422 H414 0.930 . S
C422 C421 1.362 . S
C422 C425 1.409 1_665 S
C423 H415 0.930 . S
C423 C424 1.355 . S
C423 C425 1.415 . S
C424 C423 1.355 . S
C424 C426 1.419 . S
C425 C420 1.425 1_545 S
C425 C422 1.409 1_445 S
C425 C423 1.415 . S
C426 H416 0.930 . S
C426 C424 1.419 . S
C426 C427 1.362 . S
C427 H417 0.930 . S
C427 C420 1.409 1_545 S
C427 C426 1.362 . S
H428 C434 0.930 . S
H429 C437 0.930 . S
H430 C438 0.930 . S
H431 C439 0.930 . S
H432 C442 0.930 . S
H433 C443 0.930 . S
C434 H428 0.930 . S
C434 C435 1.355 . S
C434 C436 1.415 1_554 S
C435 C434 1.355 . S
C435 C437 1.419 . S
C436 C434 1.415 1_556 S
C436 C441 1.425 . S
C436 C443 1.409 . S
C437 H429 0.930 . S
C437 C435 1.419 . S
C437 C438 1.362 1_554 S
C438 H430 0.930 . S
C438 C437 1.362 1_556 S
C438 C441 1.409 . S
C439 H431 0.930 . S
C439 C440 1.355 . S
C439 C441 1.415 . S
C440 C439 1.355 . S
C440 C442 1.419 . S
C441 C436 1.425 . S
C441 C438 1.409 . S
C441 C439 1.415 . S
C442 H432 0.930 . S
C442 C440 1.419 . S
C442 C443 1.362 . S
C443 H433 0.930 . S
C443 C436 1.409 . S
C443 C442 1.362 . S
H444 C450 0.930 . S
H445 C453 0.930 . S
H446 C454 0.930 . S
H447 C455 0.930 . S
H448 C458 0.930 . S
H449 C459 0.930 . S
C450 H444 0.930 . S
C450 C451 1.355 . S
C450 C452 1.415 . S
C451 C450 1.355 . S
C451 C453 1.419 . S
C452 C450 1.415 . S
C452 C457 1.425 . S
C452 C459 1.409 . S
C453 H445 0.930 . S
C453 C451 1.419 . S
C453 C454 1.362 . S
C454 H446 0.930 . S
C454 C453 1.362 . S
C454 C457 1.409 . S
C455 H447 0.930 . S
C455 C456 1.355 . S
C455 C457 1.415 . S
C456 C455 1.355 . S
C456 C458 1.419 . S
C457 C452 1.425 . S
C457 C454 1.409 . S
C457 C455 1.415 . S
C458 H448 0.930 . S
C458 C456 1.419 . S
C458 C459 1.362 . S
C459 H449 0.930 . S
C459 C452 1.409 . S
C459 C458 1.362 . S
H460 C466 0.930 . S
H461 C469 0.930 . S
H462 C470 0.930 . S
H463 C471 0.930 . S
H464 C474 0.930 . S
H465 C475 0.930 . S
C466 H460 0.930 . S
C466 C467 1.355 . S
C466 C468 1.415 . S
C467 C466 1.355 . S
C467 C469 1.419 . S
C468 C466 1.415 . S
C468 C473 1.425 . S
C468 C475 1.409 . S
C469 H461 0.930 . S
C469 C467 1.419 . S
C469 C470 1.362 . S
C470 H462 0.930 . S
C470 C469 1.362 . S
C470 C473 1.409 . S
C471 H463 0.930 . S
C471 C472 1.355 . S
C471 C473 1.415 . S
C472 C471 1.355 . S
C472 C474 1.419 . S
C473 C468 1.425 . S
C473 C470 1.409 . S
C473 C471 1.415 . S
C474 H464 0.930 . S
C474 C472 1.419 . S
C474 C475 1.362 . S
C475 H465 0.930 . S
C475 C468 1.409 . S
C475 C474 1.362 . S
H476 C482 0.930 . S
H477 C485 0.930 . S
H478 C486 0.930 . S
H479 C487 0.930 . S
H480 C490 0.930 . S
H481 C491 0.930 . S
C482 H476 0.930 . S
C482 C483 1.355 . S
C482 C484 1.415 . S
C483 C482 1.355 . S
C483 C485 1.419 . S
C484 C482 1.415 . S
C484 C489 1.425 . S
C484 C491 1.409 . S
C485 H477 0.930 . S
C485 C483 1.419 . S
C485 C486 1.362 . S
C486 H478 0.930 . S
C486 C485 1.362 . S
C486 C489 1.409 . S
C487 H479 0.930 . S
C487 C488 1.355 . S
C487 C489 1.415 . S
C488 C487 1.355 . S
C488 C490 1.419 . S
C489 C484 1.425 . S
C489 C486 1.409 . S
C489 C487 1.415 . S
C490 H480 0.930 . S
C490 C488 1.419 . S
C490 C491 1.362 . S
C491 H481 0.930 . S
C491 C484 1.409 . S
C491 C490 1.362 . S
H492 C498 0.930 . S
H493 C501 0.930 1_655 S
H494 C502 0.930 1_655 S
H495 C503 0.930 . S
H496 C506 0.930 . S
H497 C507 0.930 . S
C498 H492 0.930 . S
C498 C499 1.355 . S
C498 C500 1.415 1_556 S
C499 C498 1.355 . S
C499 C501 1.419 . S
C500 C498 1.415 1_554 S
C500 C505 1.425 . S
C500 C507 1.409 . S
C501 H493 0.930 1_455 S
C501 C499 1.419 . S
C501 C502 1.362 1_556 S
C502 H494 0.930 1_455 S
C502 C501 1.362 1_554 S
C502 C505 1.409 . S
C503 H495 0.930 . S
C503 C504 1.355 . S
C503 C505 1.415 . S
C504 C503 1.355 . S
C504 C506 1.419 . S
C505 C500 1.425 . S
C505 C502 1.409 . S
C505 C503 1.415 . S
C506 H496 0.930 . S
C506 C504 1.419 . S
C506 C507 1.362 . S
C507 H497 0.930 . S
C507 C500 1.409 . S
C507 C506 1.362 . S
H508 C514 0.930 . S
H509 C517 0.930 . S
H510 C518 0.930 . S
H511 C519 0.930 . S
H512 C522 0.930 . S
H513 C523 0.930 . S
C514 H508 0.930 . S
C514 C515 1.355 . S
C514 C516 1.415 . S
C515 C514 1.355 . S
C515 C517 1.419 . S
C516 C514 1.415 . S
C516 C521 1.425 . S
C516 C523 1.409 . S
C517 H509 0.930 . S
C517 C515 1.419 . S
C517 C518 1.362 . S
C518 H510 0.930 . S
C518 C517 1.362 . S
C518 C521 1.409 . S
C519 H511 0.930 . S
C519 C520 1.355 . S
C519 C521 1.415 . S
C520 C519 1.355 . S
C520 C522 1.419 . S
C521 C516 1.425 . S
C521 C518 1.409 . S
C521 C519 1.415 . S
C522 H512 0.930 . S
C522 C520 1.419 . S
C522 C523 1.362 . S
C523 H513 0.930 . S
C523 C516 1.409 . S
C523 C522 1.362 . S
H524 C530 0.930 . S
H525 C533 0.930 . S
H526 C534 0.930 . S
H527 C535 0.930 . S
H528 C538 0.930 . S
H529 C539 0.930 . S
C530 H524 0.930 . S
C530 C531 1.355 . S
C530 C532 1.415 . S
C531 C530 1.355 . S
C531 C533 1.419 . S
C532 C530 1.415 . S
C532 C537 1.425 . S
C532 C539 1.409 . S
C533 H525 0.930 . S
C533 C531 1.419 . S
C533 C534 1.362 . S
C534 H526 0.930 . S
C534 C533 1.362 . S
C534 C537 1.409 . S
C535 H527 0.930 . S
C535 C536 1.355 . S
C535 C537 1.415 . S
C536 C535 1.355 . S
C536 C538 1.419 . S
C537 C532 1.425 . S
C537 C534 1.409 . S
C537 C535 1.415 . S
C538 H528 0.930 . S
C538 C536 1.419 . S
C538 C539 1.362 . S
C539 H529 0.930 . S
C539 C532 1.409 . S
C539 C538 1.362 . S
H540 C546 0.930 . S
H541 C549 0.930 . S
H542 C550 0.930 . S
H543 C551 0.930 . S
H544 C554 0.930 . S
H545 C555 0.930 . S
C546 H540 0.930 . S
C546 C547 1.355 . S
C546 C548 1.415 . S
C547 C546 1.355 . S
C547 C549 1.419 . S
C548 C546 1.415 . S
C548 C553 1.425 . S
C548 C555 1.409 . S
C549 H541 0.930 . S
C549 C547 1.419 . S
C549 C550 1.362 . S
C550 H542 0.930 . S
C550 C549 1.362 . S
C550 C553 1.409 . S
C551 H543 0.930 . S
C551 C552 1.355 . S
C551 C553 1.415 . S
C552 C551 1.355 . S
C552 C554 1.419 . S
C553 C548 1.425 . S
C553 C550 1.409 . S
C553 C551 1.415 . S
C554 H544 0.930 . S
C554 C552 1.419 . S
C554 C555 1.362 . S
C555 H545 0.930 . S
C555 C548 1.409 . S
C555 C554 1.362 . S
C184 C95 1.419 . S
C179 C6 1.556 . S
C200 C113 1.322 . S
C195 N15 1.413 1_655 S
C211 N26 1.412 . S
C216 C137 1.254 . S
C232 C167 1.282 . S
C227 C39 1.411 . S
C248 C155 1.268 . S
C243 C50 1.362 . S
C259 N59 1.475 . S
C264 C108 1.398 1_655 S
C275 N70 1.584 . S
C280 C128 1.516 . S
C291 C83 1.406 . S
C296 C133 1.324 . S
C307 N81 1.422 . S
C312 C149 1.346 . S
C323 C61 1.440 . S
C328 C104 1.304 . S
C344 C171 1.364 . S
C339 N37 1.426 . S
C360 C116 1.290 . S
C355 C17 1.404 . S
C371 C28 1.531 . S
C376 C134 1.361 . S
C387 N4 1.417 . S
C392 C92 1.318 . S
C408 C112 1.318 . S
C403 C72 1.334 . S
C424 C158 1.518 . S
C419 N48 1.593 . S
C440 C154 1.424 . S
C435 C9 1.513 . S
C456 C107 1.422 . S
C451 C20 1.534 . S
C467 C31 1.502 . S
C472 C129 1.285 . S
C483 C42 1.508 . S
C488 C150 1.514 . S
C504 C91 1.372 . S
C499 C53 1.577 . S
C515 C64 1.483 . S
C520 C125 1.487 . S
C536 C146 1.417 . S
C531 C75 1.598 . S
C552 C170 1.402 . S
C547 C86 1.488 . S
