# Generated by pormake.
# Topology pto, (3,4)-cn, num edge types: 1
# Building blocks:
#     Node 0, Type 0, BuildingBlock: OLANEW_clean_sbu_2, # of connection points: 3
#     Node 1, Type 0, BuildingBlock: OLANEW_clean_sbu_2, # of connection points: 3
#     Node 2, Type 0, BuildingBlock: OLANEW_clean_sbu_2, # of connection points: 3
#     Node 3, Type 0, BuildingBlock: OLANEW_clean_sbu_2, # of connection points: 3
#     Node 4, Type 0, BuildingBlock: OLANEW_clean_sbu_2, # of connection points: 3
#     Node 5, Type 0, BuildingBlock: OLANEW_clean_sbu_2, # of connection points: 3
#     Node 6, Type 0, BuildingBlock: OLANEW_clean_sbu_2, # of connection points: 3
#     Node 7, Type 0, BuildingBlock: OLANEW_clean_sbu_2, # of connection points: 3
#     Node 8, Type 1, BuildingBlock: MIFKUJ_clean_linker_1, # of connection points: 4
#     Node 9, Type 1, BuildingBlock: MIFKUJ_clean_linker_1, # of connection points: 4
#     Node 10, Type 1, BuildingBlock: MIFKUJ_clean_linker_1, # of connection points: 4
#     Node 11, Type 1, BuildingBlock: MIFKUJ_clean_linker_1, # of connection points: 4
#     Node 12, Type 1, BuildingBlock: MIFKUJ_clean_linker_1, # of connection points: 4
#     Node 13, Type 1, BuildingBlock: MIFKUJ_clean_linker_1, # of connection points: 4
#     Edge 14, Type (0, 1), BuildingBlock: AJUNOK_clean_linker_0, # of connection points: 2
#     Edge 15, Type (0, 1), BuildingBlock: AJUNOK_clean_linker_0, # of connection points: 2
#     Edge 16, Type (0, 1), BuildingBlock: AJUNOK_clean_linker_0, # of connection points: 2
#     Edge 17, Type (0, 1), BuildingBlock: AJUNOK_clean_linker_0, # of connection points: 2
#     Edge 18, Type (0, 1), BuildingBlock: AJUNOK_clean_linker_0, # of connection points: 2
#     Edge 19, Type (0, 1), BuildingBlock: AJUNOK_clean_linker_0, # of connection points: 2
#     Edge 20, Type (0, 1), BuildingBlock: AJUNOK_clean_linker_0, # of connection points: 2
#     Edge 21, Type (0, 1), BuildingBlock: AJUNOK_clean_linker_0, # of connection points: 2
#     Edge 22, Type (0, 1), BuildingBlock: AJUNOK_clean_linker_0, # of connection points: 2
#     Edge 23, Type (0, 1), BuildingBlock: AJUNOK_clean_linker_0, # of connection points: 2
#     Edge 24, Type (0, 1), BuildingBlock: AJUNOK_clean_linker_0, # of connection points: 2
#     Edge 25, Type (0, 1), BuildingBlock: AJUNOK_clean_linker_0, # of connection points: 2
#     Edge 26, Type (0, 1), BuildingBlock: AJUNOK_clean_linker_0, # of connection points: 2
#     Edge 27, Type (0, 1), BuildingBlock: AJUNOK_clean_linker_0, # of connection points: 2
#     Edge 28, Type (0, 1), BuildingBlock: AJUNOK_clean_linker_0, # of connection points: 2
#     Edge 29, Type (0, 1), BuildingBlock: AJUNOK_clean_linker_0, # of connection points: 2
#     Edge 30, Type (0, 1), BuildingBlock: AJUNOK_clean_linker_0, # of connection points: 2
#     Edge 31, Type (0, 1), BuildingBlock: AJUNOK_clean_linker_0, # of connection points: 2
#     Edge 32, Type (0, 1), BuildingBlock: AJUNOK_clean_linker_0, # of connection points: 2
#     Edge 33, Type (0, 1), BuildingBlock: AJUNOK_clean_linker_0, # of connection points: 2
#     Edge 34, Type (0, 1), BuildingBlock: AJUNOK_clean_linker_0, # of connection points: 2
#     Edge 35, Type (0, 1), BuildingBlock: AJUNOK_clean_linker_0, # of connection points: 2
#     Edge 36, Type (0, 1), BuildingBlock: AJUNOK_clean_linker_0, # of connection points: 2
#     Edge 37, Type (0, 1), BuildingBlock: AJUNOK_clean_linker_0, # of connection points: 2
# Relax obj value: 0.009
# Max RMSD: 0.120
# Mean RMSD: 0.052
data_MOF--net-pto--node1-OLANEW_clean_sbu_2--node2-MIFKUJ_clean_linker_1--edge1-AJUNOK_clean_linker_0
_symmetry_space_group_name_H-M    P1
_symmetry_Int_Tables_number       1
_symmetry_cell_setting            triclinic
loop_
_symmetry_equiv_pos_as_xyz
'x, y, z'
_cell_length_a     31.434645
_cell_length_b     48.878365
_cell_length_c     40.761931
_cell_angle_alpha  92.194548
_cell_angle_beta   89.229021
_cell_angle_gamma 105.50627
loop_
_atom_site_label
_atom_site_type_symbol
_atom_site_fract_x
_atom_site_fract_y
_atom_site_fract_z
_atom_type_partial_charge
O0 O 0.33076 0.33734 0.26629 0.0
Cd1 Cd 0.29751 0.34148 0.32008 0.0
O2 O 0.37715 0.37982 0.26996 0.0
Cd3 Cd 0.34055 0.39252 0.31108 0.0
O4 O 0.29007 0.41287 0.32863 0.0
C5 C 0.274 0.42447 0.30622 0.0
O6 O 0.28868 0.42284 0.27607 0.0
C7 C 0.36329 0.35595 0.25475 0.0
C8 C 0.30331 0.29595 0.35753 0.0
O9 O 0.26935 0.29456 0.33986 0.0
O10 O 0.33433 0.31913 0.35785 0.0
O11 O 0.32181 0.87324 0.75531 0.0
Cd12 Cd 0.27182 0.86637 0.7083 0.0
O13 O 0.36355 0.84907 0.73072 0.0
Cd14 Cd 0.3164 0.83344 0.69107 0.0
O15 O 0.26079 0.79928 0.67302 0.0
C16 C 0.23918 0.78386 0.69529 0.0
O17 O 0.25096 0.79045 0.72602 0.0
C18 C 0.35593 0.86392 0.75529 0.0
C19 C 0.28667 0.91385 0.66935 0.0
O20 O 0.25777 0.90985 0.6924 0.0
O21 O 0.30896 0.89554 0.66498 0.0
O22 O 0.79294 0.80129 0.33088 0.0
Cd23 Cd 0.78154 0.75817 0.29579 0.0
O24 O 0.72197 0.79825 0.32978 0.0
Cd25 Cd 0.70469 0.76545 0.29092 0.0
O26 O 0.6758 0.7631 0.24226 0.0
C27 C 0.68998 0.78556 0.22625 0.0
O28 O 0.72169 0.80624 0.23918 0.0
C29 C 0.76047 0.81059 0.34027 0.0
C30 C 0.83234 0.72206 0.3133 0.0
O31 O 0.84561 0.74041 0.29117 0.0
O32 O 0.79526 0.721 0.32736 0.0
O33 O 0.77886 0.31339 0.63903 0.0
Cd34 Cd 0.72374 0.26779 0.64367 0.0
O35 O 0.78187 0.32236 0.69235 0.0
Cd36 Cd 0.72792 0.28648 0.70681 0.0
O37 O 0.67676 0.27478 0.74441 0.0
C38 C 0.64674 0.28782 0.74538 0.0
O39 O 0.64604 0.30569 0.72226 0.0
C40 C 0.79536 0.32938 0.66354 0.0
C41 C 0.75196 0.22344 0.61336 0.0
O42 O 0.73261 0.23846 0.59698 0.0
O43 O 0.75789 0.22937 0.64415 0.0
O44 O 0.77227 0.80435 0.63292 0.0
Cd45 Cd 0.7571 0.76497 0.67057 0.0
O46 O 0.81874 0.8324 0.66748 0.0
Cd47 Cd 0.79653 0.80484 0.70859 0.0
O48 O 0.75566 0.80044 0.75279 0.0
C49 C 0.76034 0.82319 0.77018 0.0
O50 O 0.78977 0.8462 0.76103 0.0
C51 C 0.80046 0.82791 0.63945 0.0
C52 C 0.80997 0.7277 0.65928 0.0
O53 O 0.7713 0.72252 0.64677 0.0
O54 O 0.82373 0.75059 0.67688 0.0
O55 O 0.84751 0.3034 0.30857 0.0
Cd56 Cd 0.81032 0.25633 0.28524 0.0
O57 O 0.79495 0.32254 0.2943 0.0
Cd58 Cd 0.75387 0.28617 0.26653 0.0
O59 O 0.70788 0.27543 0.22529 0.0
C60 C 0.67679 0.28757 0.22613 0.0
O61 O 0.67332 0.30365 0.25206 0.0
C62 C 0.8318 0.32479 0.30814 0.0
C63 C 0.81171 0.21309 0.32775 0.0
O64 O 0.84484 0.22381 0.30931 0.0
O65 O 0.77769 0.22271 0.32609 0.0
O66 O 0.28305 0.35574 0.7583 0.0
Cd67 Cd 0.24964 0.35461 0.70397 0.0
O68 O 0.35051 0.37128 0.73902 0.0
Cd69 Cd 0.32948 0.36223 0.68817 0.0
O70 O 0.32622 0.32885 0.65046 0.0
C71 C 0.35784 0.31723 0.65134 0.0
O72 O 0.38924 0.32704 0.67306 0.0
C73 C 0.32445 0.36448 0.76327 0.0
C74 C 0.20074 0.39422 0.69665 0.0
O75 O 0.18239 0.36911 0.70621 0.0
O76 O 0.24244 0.40075 0.69117 0.0
O77 O 0.39746 0.86449 0.26541 0.0
Cd78 Cd 0.37333 0.8576 0.32262 0.0
O79 O 0.33004 0.84967 0.24596 0.0
Cd80 Cd 0.29856 0.83743 0.29313 0.0
O81 O 0.25615 0.79988 0.31541 0.0
C82 C 0.2509 0.77784 0.29668 0.0
O83 O 0.27123 0.78046 0.26813 0.0
C84 C 0.37128 0.85917 0.24106 0.0
C85 C 0.36847 0.90741 0.35654 0.0
O86 O 0.40482 0.90028 0.35444 0.0
O87 O 0.33442 0.89105 0.34234 0.0
H88 H 0.94452 0.50335 0.30573 0.0
H89 H 0.90323 0.45353 0.29976 0.0
H90 H 0.96669 0.43476 0.38619 0.0
H91 H 0.00831 0.48493 0.39212 0.0
H92 H 0.94588 0.54268 0.35018 0.0
H93 H 0.04815 0.49702 0.30428 0.0
H94 H 0.09845 0.4672 0.29437 0.0
H95 H 0.16981 0.50256 0.38267 0.0
H96 H 0.11801 0.53151 0.39341 0.0
H97 H 0.11321 0.62111 0.39251 0.0
H98 H 0.16111 0.66829 0.38028 0.0
H99 H 0.09322 0.6655 0.28835 0.0
H100 H 0.04645 0.61832 0.30013 0.0
H101 H 0.1094 0.57248 0.35487 0.0
H102 H 0.002 0.62338 0.39229 0.0
H103 H 0.96096 0.659 0.38477 0.0
H104 H 0.90664 0.61559 0.2944 0.0
H105 H 0.94736 0.57997 0.30201 0.0
C106 C 0.97961 0.49792 0.34933 0.0
C107 C 0.9494 0.48861 0.32358 0.0
C108 C 0.92582 0.46013 0.32017 0.0
C109 C 0.93187 0.44027 0.34244 0.0
C110 C 0.96189 0.44955 0.3684 0.0
C111 C 0.98554 0.47818 0.37184 0.0
C112 C 0.00494 0.52827 0.35208 0.0
C113 C 0.98166 0.54912 0.35135 0.0
C114 C 0.05164 0.53681 0.35374 0.0
C115 C 0.07894 0.51633 0.34982 0.0
C116 C 0.07377 0.49781 0.32207 0.0
C117 C 0.10296 0.48107 0.31614 0.0
C118 C 0.13849 0.48297 0.33745 0.0
C119 C 0.1427 0.50068 0.36586 0.0
C120 C 0.11325 0.51728 0.37193 0.0
C121 C 0.07599 0.61632 0.34739 0.0
C122 C 0.10839 0.63085 0.36991 0.0
C123 C 0.13554 0.65775 0.36299 0.0
C124 C 0.13103 0.67028 0.33325 0.0
C125 C 0.09768 0.6561 0.31127 0.0
C126 C 0.07063 0.6293 0.31816 0.0
C127 C 0.05036 0.58663 0.35276 0.0
C128 C 0.07357 0.56592 0.35498 0.0
C129 C 0.00377 0.57813 0.35119 0.0
C130 C 0.97764 0.59902 0.34773 0.0
C131 C 0.98104 0.62146 0.37098 0.0
C132 C 0.95757 0.64169 0.36674 0.0
C133 C 0.9307 0.63989 0.33905 0.0
C134 C 0.92725 0.6174 0.3159 0.0
C135 C 0.95022 0.59701 0.32034 0.0
H136 H 0.10254 0.61678 0.61677 0.0
H137 H 0.14895 0.66535 0.62526 0.0
H138 H 0.06578 0.67836 0.70633 0.0
H139 H 0.02056 0.62936 0.69866 0.0
H140 H 0.0896 0.57429 0.65873 0.0
H141 H -0.00203 0.62695 0.60937 0.0
H142 H 0.95681 0.66313 0.60968 0.0
H143 H 0.87108 0.61925 0.68549 0.0
H144 H 0.91307 0.58375 0.68618 0.0
H145 H 0.915 0.50771 0.69031 0.0
H146 H 0.87238 0.45797 0.6911 0.0
H147 H 0.95399 0.43705 0.61317 0.0
H148 H 0.9957 0.48715 0.61163 0.0
H149 H 0.92693 0.54626 0.64535 0.0
H150 H 0.01933 0.50314 0.70573 0.0
H151 H 0.05969 0.46802 0.71641 0.0
H152 H 0.13972 0.49315 0.63011 0.0
H153 H 0.09955 0.52862 0.61978 0.0
C154 C 0.05781 0.61951 0.65684 0.0
C155 C 0.09412 0.63017 0.63622 0.0
C156 C 0.12029 0.65802 0.64084 0.0
C157 C 0.11059 0.67579 0.66616 0.0
C158 C 0.07393 0.66517 0.68657 0.0
C159 C 0.04793 0.63726 0.68206 0.0
C160 C 0.03174 0.58941 0.65302 0.0
C161 C 0.05412 0.5682 0.65516 0.0
C162 C 0.98517 0.58147 0.64963 0.0
C163 C 0.95914 0.60278 0.64813 0.0
C164 C 0.97062 0.62523 0.62632 0.0
C165 C 0.94707 0.64582 0.62639 0.0
C166 C 0.91107 0.64396 0.64776 0.0
C167 C 0.89869 0.62106 0.66876 0.0
C168 C 0.92262 0.60077 0.66908 0.0
C169 C 0.95864 0.50116 0.65101 0.0
C170 C 0.92347 0.4925 0.67315 0.0
C171 C 0.8994 0.46406 0.67377 0.0
C172 C 0.90988 0.44369 0.65218 0.0
C173 C 0.94487 0.45236 0.62981 0.0
C174 C 0.96894 0.4809 0.62913 0.0
C175 C 0.98478 0.53134 0.65133 0.0
C176 C 0.96248 0.55249 0.64847 0.0
C177 C 0.03117 0.53933 0.65515 0.0
C178 C 0.056 0.5182 0.66167 0.0
C179 C 0.04534 0.50094 0.68896 0.0
C180 C 0.0683 0.4808 0.69497 0.0
C181 C 0.10238 0.4775 0.67378 0.0
C182 C 0.11359 0.49521 0.64684 0.0
C183 C 0.09067 0.51543 0.64089 0.0
H184 H 0.27164 0.03445 0.52024 0.0
H185 H 0.25924 0.99325 0.55513 0.0
H186 H 0.37917 0.03327 0.60791 0.0
H187 H 0.39148 0.07459 0.57304 0.0
H188 H 0.3392 0.11036 0.56701 0.0
H189 H 0.2908 0.05499 0.43699 0.0
H190 H 0.29888 0.01358 0.40448 0.0
H191 H 0.40425 0.00715 0.46817 0.0
H192 H 0.398 0.04956 0.49929 0.0
H193 H 0.39249 0.15824 0.4391 0.0
H194 H 0.38328 0.19789 0.40718 0.0
H195 H 0.26474 0.19779 0.46197 0.0
H196 H 0.2735 0.15795 0.49325 0.0
H197 H 0.3405 0.10464 0.44519 0.0
H198 H 0.40298 0.1835 0.51593 0.0
H199 H 0.40771 0.22894 0.54509 0.0
H200 H 0.29055 0.1899 0.6004 0.0
H201 H 0.28535 0.14451 0.57068 0.0
C202 C 0.33256 0.05752 0.54399 0.0
C203 C 0.29547 0.03426 0.53913 0.0
C204 C 0.28825 0.01087 0.55916 0.0
C205 C 0.31812 0.0103 0.58427 0.0
C206 C 0.35573 0.03328 0.58867 0.0
C207 C 0.36268 0.05685 0.56889 0.0
C208 C 0.33853 0.08306 0.5241 0.0
C209 C 0.33959 0.10907 0.54038 0.0
C210 C 0.34035 0.08158 0.48934 0.0
C211 C 0.34361 0.05541 0.47076 0.0
C212 C 0.31586 0.0448 0.44385 0.0
C213 C 0.32029 0.021 0.42541 0.0
C214 C 0.35256 0.00729 0.4335 0.0
C215 C 0.37976 0.01762 0.46081 0.0
C216 C 0.37567 0.0416 0.47901 0.0
C217 C 0.3338 0.15525 0.46862 0.0
C218 C 0.36442 0.16668 0.44406 0.0
C219 C 0.35929 0.18937 0.42603 0.0
C220 C 0.32312 0.20069 0.43199 0.0
C221 C 0.29253 0.18918 0.45655 0.0
C222 C 0.29773 0.16661 0.4746 0.0
C223 C 0.33911 0.13137 0.48813 0.0
C224 C 0.34021 0.10578 0.47181 0.0
C225 C 0.34047 0.13333 0.52281 0.0
C226 C 0.34373 0.16065 0.54107 0.0
C227 C 0.3782 0.18473 0.53424 0.0
C228 C 0.38107 0.2106 0.55103 0.0
C229 C 0.34964 0.2128 0.5751 0.0
C230 C 0.31508 0.18873 0.58186 0.0
C231 C 0.3123 0.16281 0.56512 0.0
H232 H 0.50289 0.89784 0.94341 0.0
H233 H 0.46703 0.90583 0.89291 0.0
H234 H 0.45586 0.81915 0.86005 0.0
H235 H 0.4919 0.81135 0.9102 0.0
H236 H 0.4727 0.86227 -0.00838 0.0
H237 H 0.59205 0.8773 0.91657 0.0
H238 H 0.63898 0.87327 0.86935 0.0
H239 H 0.62956 0.78625 0.89199 0.0
H240 H 0.58086 0.78991 0.93835 0.0
H241 H 0.56269 0.78169 0.03441 0.0
H242 H 0.59561 0.76841 0.08339 0.0
H243 H 0.61293 0.8532 0.12517 0.0
H244 H 0.58168 0.86673 0.07563 0.0
H245 H 0.60046 0.82073 -0.00881 0.0
H246 H 0.46871 0.80456 0.06002 0.0
H247 H 0.43145 0.81051 0.11199 0.0
H248 H 0.47311 0.90155 0.1036 0.0
H249 H 0.51001 0.89552 0.05121 0.0
C250 C 0.50041 0.85407 0.93047 0.0
C251 C 0.49276 0.8806 0.92527 0.0
C252 C 0.47216 0.88511 0.89651 0.0
C253 C 0.45847 0.86306 0.87263 0.0
C254 C 0.46648 0.83662 0.87784 0.0
C255 C 0.48708 0.83214 0.9065 0.0
C256 C 0.52081 0.84878 0.9614 0.0
C257 C 0.50107 0.8536 -0.00854 0.0
C258 C 0.5574 0.83701 0.96132 0.0
C259 C 0.58275 0.83389 0.93102 0.0
C260 C 0.59926 0.85716 0.91101 0.0
C261 C 0.62663 0.85496 0.88432 0.0
C262 C 0.63863 0.82961 0.87742 0.0
C263 C 0.62094 0.80606 0.89678 0.0
C264 C 0.59332 0.8082 0.92336 0.0
C265 C 0.56923 0.82511 0.05151 0.0
C266 C 0.57342 0.79738 0.05419 0.0
C267 C 0.59184 0.78974 0.08228 0.0
C268 C 0.60636 0.80969 0.10821 0.0
C269 C 0.60199 0.8374 0.10553 0.0
C270 C 0.58375 0.84507 0.07739 0.0
C271 C 0.5516 0.83342 0.02096 0.0
C272 C 0.57202 0.82933 -0.0089 0.0
C273 C 0.51591 0.84592 0.02118 0.0
C274 C 0.49206 0.84961 0.05187 0.0
C275 C 0.46955 0.82578 0.06925 0.0
C276 C 0.44824 0.82919 0.09878 0.0
C277 C 0.44935 0.85648 0.11152 0.0
C278 C 0.47184 0.88034 0.09414 0.0
C279 C 0.49265 0.8769 0.06428 0.0
H280 H 0.75493 0.97362 0.55203 0.0
H281 H 0.75477 0.93103 0.58203 0.0
H282 H 0.87625 0.92719 0.53386 0.0
H283 H 0.87628 0.96975 0.50373 0.0
H284 H 0.81384 0.02663 0.54834 0.0
H285 H 0.74727 0.94834 0.48038 0.0
H286 H 0.7366 0.90238 0.45159 0.0
H287 H 0.85085 0.93701 0.39122 0.0
H288 H 0.86288 0.98288 0.42145 0.0
H289 H 0.86827 0.06854 0.41943 0.0
H290 H 0.86764 0.10845 0.38549 0.0
H291 H 0.75406 0.12049 0.43905 0.0
H292 H 0.75265 0.079 0.47114 0.0
H293 H 0.81119 0.01891 0.4266 0.0
H294 H 0.86611 0.10308 0.49949 0.0
H295 H 0.85546 0.14661 0.52635 0.0
H296 H 0.74162 0.09684 0.57759 0.0
H297 H 0.7514 0.05354 0.55013 0.0
C298 C 0.8156 0.97481 0.5257 0.0
C299 C 0.78177 0.96379 0.5482 0.0
C300 C 0.78149 0.93939 0.56506 0.0
C301 C 0.81545 0.92594 0.5601 0.0
C302 C 0.84985 0.93732 0.53815 0.0
C303 C 0.84985 0.96154 0.52098 0.0
C304 C 0.81379 0.99921 0.50578 0.0
C305 C 0.81321 0.02503 0.52172 0.0
C306 C 0.81227 0.99685 0.47112 0.0
C307 C 0.8062 0.969 0.45335 0.0
C308 C 0.77053 0.94599 0.46135 0.0
C309 C 0.76413 0.91981 0.44461 0.0
C310 C 0.79259 0.91625 0.4189 0.0
C311 C 0.82853 0.93918 0.41102 0.0
C312 C 0.83519 0.9654 0.42805 0.0
C313 C 0.81114 0.07109 0.4484 0.0
C314 C 0.84304 0.07964 0.42376 0.0
C315 C 0.84305 0.10278 0.40469 0.0
C316 C 0.81159 0.11823 0.41019 0.0
C317 C 0.77894 0.10919 0.43432 0.0
C318 C 0.7784 0.08564 0.45294 0.0
C319 C 0.81235 0.04684 0.46903 0.0
C320 C 0.81271 0.02085 0.45319 0.0
C321 C 0.81209 0.04886 0.50387 0.0
C322 C 0.80908 0.07507 0.52235 0.0
C323 C 0.83885 0.10154 0.51649 0.0
C324 C 0.8328 0.12634 0.5318 0.0
C325 C 0.79747 0.12496 0.55371 0.0
C326 C 0.7691 0.09839 0.56079 0.0
C327 C 0.77475 0.07368 0.54517 0.0
H328 H 0.4599 0.37421 0.95381 0.0
H329 H 0.42343 0.38762 0.90644 0.0
H330 H 0.38234 0.29972 0.87288 0.0
H331 H 0.4189 0.28637 0.92018 0.0
H332 H 0.42593 0.33653 0.00402 0.0
H333 H 0.53218 0.34747 0.91648 0.0
H334 H 0.56125 0.33948 0.86213 0.0
H335 H 0.53732 0.25022 0.88062 0.0
H336 H 0.5082 0.25834 0.93523 0.0
H337 H 0.52649 0.25827 0.04059 0.0
H338 H 0.56508 0.25074 0.09019 0.0
H339 H 0.59267 0.34018 0.11623 0.0
H340 H 0.55453 0.34764 0.06691 0.0
H341 H 0.55005 0.29248 0.98659 0.0
H342 H 0.44701 0.28145 0.07495 0.0
H343 H 0.4239 0.29014 0.13108 0.0
H344 H 0.44088 0.37849 0.11076 0.0
H345 H 0.46538 0.36991 0.0549 0.0
C346 C 0.44235 0.32934 0.94031 0.0
C347 C 0.44278 0.35783 0.93635 0.0
C348 C 0.42218 0.36547 0.90931 0.0
C349 C 0.40034 0.34468 0.88608 0.0
C350 C 0.39888 0.31609 0.89057 0.0
C351 C 0.41988 0.30849 0.91741 0.0
C352 C 0.46613 0.32156 0.9681 0.0
C353 C 0.45327 0.32711 0.0002 0.0
C354 C 0.50094 0.30848 0.96308 0.0
C355 C 0.51742 0.30342 0.92974 0.0
C356 C 0.53244 0.32608 0.90866 0.0
C357 C 0.54889 0.32147 0.87755 0.0
C358 C 0.55082 0.29412 0.86695 0.0
C359 C 0.53601 0.27147 0.88814 0.0
C360 C 0.51946 0.2761 0.91929 0.0
C361 C 0.537 0.30342 0.05042 0.0
C362 C 0.54128 0.27626 0.05685 0.0
C363 C 0.56314 0.27197 0.08513 0.0
C364 C 0.58086 0.29478 0.10732 0.0
C365 C 0.57824 0.32212 0.09997 0.0
C366 C 0.55666 0.3264 0.07176 0.0
C367 C 0.51021 0.30784 0.02242 0.0
C368 C 0.52237 0.30159 -0.00964 0.0
C369 C 0.47449 0.32007 0.0274 0.0
C370 C 0.45834 0.32511 0.06085 0.0
C371 C 0.44607 0.30274 0.08265 0.0
C372 C 0.43273 0.30768 0.11463 0.0
C373 C 0.43122 0.33505 0.12535 0.0
C374 C 0.44271 0.35732 0.10333 0.0
C375 C 0.45613 0.35238 0.07134 0.0
C376 C 0.21933 0.4378 0.34493 0.0
C377 C 0.23946 0.43948 0.31371 0.0
C378 C 0.18658 0.45177 0.35246 0.0
C379 C 0.17262 0.46788 0.32902 0.0
H380 H 0.22876 0.4255 0.36374 0.0
H381 H 0.17181 0.44978 0.37672 0.0
S382 S 0.21665 0.48078 0.24446 0.0
N383 N 0.24393 0.45962 0.2596 0.0
N384 N 0.18295 0.486 0.27398 0.0
C385 C 0.19279 0.47005 0.29789 0.0
C386 C 0.22604 0.45584 0.29019 0.0
C387 C 0.18668 0.73849 0.71206 0.0
C388 C 0.20396 0.75755 0.68712 0.0
C389 C 0.15575 0.7125 0.70511 0.0
C390 C 0.14065 0.70448 0.67295 0.0
H391 H 0.19788 0.74326 0.73716 0.0
H392 H 0.1446 0.6982 0.725 0.0
S393 S 0.17164 0.74778 0.59925 0.0
N394 N 0.20119 0.76731 0.62916 0.0
N395 N 0.14252 0.7185 0.61628 0.0
C396 C 0.15632 0.72369 0.64792 0.0
C397 C 0.18802 0.75021 0.65496 0.0
C398 C 0.88971 0.69667 0.29871 0.0
C399 C 0.85836 0.70198 0.32134 0.0
C400 C 0.9131 0.67666 0.30472 0.0
C401 C 0.90661 0.66158 0.33385 0.0
H402 H 0.89559 0.7076 0.27578 0.0
H403 H 0.93646 0.67294 0.28644 0.0
S404 S 0.82973 0.66808 0.40159 0.0
N405 N 0.82283 0.69075 0.37443 0.0
N406 N 0.86743 0.65345 0.3858 0.0
C407 C 0.87618 0.66704 0.35701 0.0
C408 C 0.85185 0.68712 0.35072 0.0
C409 C 0.84892 0.37301 0.68672 0.0
C410 C 0.82818 0.35717 0.65899 0.0
C411 C 0.87629 0.40057 0.68405 0.0
C412 C 0.88419 0.4135 0.65356 0.0
H413 H 0.84328 0.36433 0.71094 0.0
H414 H 0.8909 0.41206 0.70619 0.0
S415 S 0.83965 0.38114 0.57313 0.0
N416 N 0.81907 0.35627 0.59966 0.0
N417 N 0.87033 0.4083 0.59486 0.0
C418 C 0.86508 0.39769 0.62542 0.0
C419 C 0.83714 0.3695 0.62808 0.0
C420 C 0.34711 0.27239 0.39252 0.0
C421 C 0.3072 0.2714 0.37656 0.0
C422 C 0.35214 0.24936 0.41012 0.0
C423 C 0.31735 0.22456 0.41271 0.0
H424 H 0.3749 0.29104 0.39132 0.0
H425 H 0.38334 0.25111 0.42215 0.0
S426 S 0.20654 0.2106 0.37503 0.0
N427 N 0.2324 0.24306 0.36424 0.0
N428 N 0.24211 0.19991 0.39732 0.0
C429 C 0.27735 0.22317 0.39689 0.0
C430 C 0.27223 0.24653 0.37881 0.0
C431 C 0.42308 0.85821 0.78352 0.0
C432 C 0.38458 0.86778 0.78479 0.0
C433 C 0.44764 0.85779 0.81181 0.0
C434 C 0.43486 0.86699 0.84258 0.0
H435 H 0.43377 0.85014 0.76063 0.0
H436 H 0.47642 0.84961 0.8097 0.0
S437 S 0.3382 0.89542 0.85937 0.0
N438 N 0.33617 0.88806 0.81946 0.0
N439 N 0.3822 0.8869 0.87264 0.0
C440 C 0.39759 0.87773 0.84411 0.0
C441 C 0.3725 0.87822 0.81524 0.0
C442 C 0.80956 0.84991 0.37479 0.0
C443 C 0.76751 0.83676 0.36163 0.0
C444 C 0.81749 0.87555 0.39337 0.0
C445 C 0.78367 0.88897 0.39957 0.0
H446 H 0.83674 0.84048 0.37053 0.0
H447 H 0.8503 0.88488 0.40307 0.0
S448 S 0.66824 0.86431 0.36979 0.0
N449 N 0.69174 0.83973 0.35588 0.0
N450 N 0.70709 0.88792 0.39026 0.0
C451 C 0.74156 0.87617 0.3866 0.0
C452 C 0.73338 0.85008 0.3678 0.0
C453 C 0.62733 0.27388 0.80332 0.0
C454 C 0.61772 0.28634 0.7747 0.0
C455 C 0.60438 0.27556 0.83272 0.0
C456 C 0.57088 0.28971 0.83467 0.0
H457 H 0.65399 0.2637 0.80347 0.0
H458 H 0.61424 0.26673 0.85444 0.0
S459 S 0.52828 0.32217 0.76587 0.0
N460 N 0.56904 0.31077 0.74951 0.0
N461 N 0.52583 0.31366 0.80479 0.0
C462 C 0.55918 0.30085 0.80589 0.0
C463 C 0.58255 0.29919 0.77592 0.0
C464 C 0.33326 0.94715 0.62963 0.0
C465 C 0.29408 0.93876 0.64819 0.0
C466 C 0.34105 0.97051 0.60927 0.0
C467 C 0.30962 0.98599 0.60627 0.0
H468 H 0.35831 0.93573 0.63097 0.0
H469 H 0.37162 0.97627 0.59543 0.0
S470 S 0.20199 0.97314 0.64952 0.0
N471 N 0.22372 0.94822 0.66234 0.0
N472 N 0.23833 0.99181 0.62373 0.0
C473 C 0.27039 0.97791 0.62459 0.0
C474 C 0.26265 0.9544 0.64566 0.0
C475 C 0.68817 0.81406 0.17701 0.0
C476 C 0.66911 0.78978 0.19507 0.0
C477 C 0.66784 0.82009 0.14887 0.0
C478 C 0.62761 0.80212 0.13755 0.0
H479 H 0.71891 0.8288 0.18482 0.0
H480 H 0.68379 0.83906 0.13585 0.0
S481 S 0.56363 0.73588 0.17566 0.0
N482 N 0.60755 0.74744 0.19925 0.0
N483 N 0.56919 0.75907 0.14643 0.0
C484 C 0.60839 0.77754 0.15496 0.0
C485 C 0.62916 0.77131 0.18367 0.0
C486 C 0.77422 0.17817 0.61694 0.0
C487 C 0.76589 0.19937 0.59751 0.0
C488 C 0.7851 0.15437 0.60263 0.0
C489 C 0.78886 0.15115 0.5684 0.0
H490 H 0.77131 0.17957 0.64342 0.0
H491 H 0.79038 0.13826 0.61844 0.0
S492 S 0.7719 0.20077 0.50648 0.0
N493 N 0.76316 0.21571 0.54206 0.0
N494 N 0.78408 0.17107 0.51536 0.0
C495 C 0.78166 0.1724 0.54868 0.0
C496 C 0.77002 0.19647 0.56317 0.0
C497 C 0.36041 0.32727 0.20229 0.0
C498 C 0.38307 0.35027 0.22278 0.0
C499 C 0.37658 0.32231 0.17108 0.0
C500 C 0.41608 0.34008 0.15911 0.0
H501 H 0.32931 0.31329 0.21003 0.0
H502 H 0.3574 0.30478 0.15588 0.0
S503 S 0.49066 0.40127 0.20409 0.0
N504 N 0.4489 0.38984 0.22954 0.0
N505 N 0.47938 0.38018 0.17093 0.0
C506 C 0.43989 0.36257 0.17962 0.0
C507 C 0.4234 0.36772 0.21143 0.0
C508 C 0.81646 0.67853 0.64618 0.0
C509 C 0.83705 0.7072 0.65459 0.0
C510 C 0.84072 0.65826 0.64364 0.0
C511 C 0.88657 0.666 0.64874 0.0
H512 H 0.78111 0.67149 0.64236 0.0
H513 H 0.82345 0.63632 0.63778 0.0
S514 S 0.95676 0.73822 0.66996 0.0
N515 N 0.90644 0.74229 0.66724 0.0
N516 N 0.95193 0.70416 0.66188 0.0
C517 C 0.90781 0.69462 0.65632 0.0
C518 C 0.88307 0.71522 0.65942 0.0
C519 C 0.8368 0.3754 0.3242 0.0
C520 C 0.85737 0.35311 0.32135 0.0
C521 C 0.86089 0.40325 0.33235 0.0
C522 C 0.90658 0.41004 0.33803 0.0
H523 H 0.80188 0.37153 0.31924 0.0
H524 H 0.84373 0.41976 0.33348 0.0
S525 S 0.97625 0.35958 0.33545 0.0
N526 N 0.92617 0.33966 0.32653 0.0
N527 N 0.97142 0.39221 0.34154 0.0
C528 C 0.9274 0.38789 0.3367 0.0
C529 C 0.90282 0.3594 0.32843 0.0
C530 C 0.19655 0.44339 0.68478 0.0
C531 C 0.17469 0.41502 0.69152 0.0
C532 C 0.17298 0.46339 0.6791 0.0
C533 C 0.12656 0.45587 0.67992 0.0
H534 H 0.23227 0.45031 0.68391 0.0
H535 H 0.1913 0.485 0.67431 0.0
S536 S 0.05312 0.3842 0.69475 0.0
N537 N 0.10351 0.38035 0.69781 0.0
N538 N 0.05942 0.41789 0.68669 0.0
C539 C 0.10418 0.42759 0.6864 0.0
C540 C 0.12816 0.4072 0.69228 0.0
C541 C 0.19864 0.74749 0.3363 0.0
C542 C 0.22154 0.75002 0.30611 0.0
C543 C 0.16979 0.72157 0.34522 0.0
C544 C 0.16254 0.69733 0.32415 0.0
H545 H 0.2027 0.7657 0.35312 0.0
H546 H 0.15244 0.72059 0.36847 0.0
S547 S 0.21631 0.69178 0.24358 0.0
N548 N 0.23623 0.72529 0.25591 0.0
N549 N 0.18217 0.67684 0.27285 0.0
C550 C 0.18577 0.69935 0.2943 0.0
C551 C 0.21522 0.7256 0.28524 0.0
C552 C 0.77449 0.85236 0.59409 0.0
C553 C 0.80795 0.85139 0.61628 0.0
C554 C 0.77759 0.87636 0.57549 0.0
C555 C 0.81462 0.9 0.57794 0.0
H556 H 0.74471 0.83502 0.59212 0.0
H557 H 0.7505 0.87664 0.55946 0.0
S558 S 0.91288 0.90733 0.63016 0.0
N559 N 0.88048 0.87564 0.63814 0.0
N560 N 0.88641 0.92053 0.60272 0.0
C561 C 0.84921 0.89883 0.59878 0.0
C562 C 0.84585 0.87457 0.61808 0.0
C563 C 0.65935 0.27524 0.16656 0.0
C564 C 0.6486 0.28662 0.19689 0.0
C565 C 0.63634 0.27705 0.1378 0.0
C566 C 0.60185 0.29036 0.1383 0.0
H567 H 0.6867 0.26569 0.16473 0.0
H568 H 0.64667 0.26892 0.11481 0.0
S569 S 0.55652 0.32009 0.21169 0.0
N570 N 0.59798 0.30925 0.22589 0.0
N571 N 0.55497 0.31249 0.17185 0.0
C572 C 0.58925 0.30051 0.1686 0.0
C573 C 0.61253 0.29867 0.19788 0.0
C574 C 0.31885 0.27697 0.61348 0.0
C575 C 0.35749 0.29164 0.6304 0.0
C576 C 0.31663 0.25157 0.59551 0.0
C577 C 0.35311 0.24007 0.59346 0.0
H578 H 0.28969 0.28479 0.61463 0.0
H579 H 0.28611 0.24083 0.58313 0.0
S580 S 0.46229 0.27022 0.63251 0.0
N581 N 0.43346 0.29284 0.64329 0.0
N582 N 0.429 0.24514 0.60957 0.0
C583 C 0.39215 0.2547 0.6097 0.0
C584 C 0.39441 0.28045 0.62816 0.0
C585 C 0.43393 0.87508 0.20128 0.0
C586 C 0.38911 0.86133 0.207 0.0
C587 C 0.45283 0.87448 0.16995 0.0
C588 C 0.42775 0.8598 0.14335 0.0
H589 H 0.45491 0.88583 0.2213 0.0
H590 H 0.4877 0.88461 0.1668 0.0
S591 S 0.30865 0.82221 0.14413 0.0
N592 N 0.31963 0.83411 0.18238 0.0
N593 N 0.35565 0.83281 0.12385 0.0
C594 C 0.38274 0.84688 0.14829 0.0
C595 C 0.36327 0.84774 0.18 0.0
C596 C 0.77279 0.16974 0.35779 0.0
C597 C 0.81236 0.18983 0.34982 0.0
C598 C 0.77278 0.14681 0.37748 0.0
C599 C 0.81229 0.14332 0.39034 0.0
H600 H 0.74165 0.17131 0.34808 0.0
H601 H 0.74163 0.1314 0.38209 0.0
S602 S 0.92412 0.19224 0.38006 0.0
N603 N 0.8917 0.20592 0.35803 0.0
N604 N 0.89157 0.16353 0.39606 0.0
C605 C 0.8519 0.16392 0.38351 0.0
C606 C 0.85196 0.18699 0.36303 0.0
C607 C 0.31721 0.34522 0.81969 0.0
C608 C 0.34278 0.36319 0.79638 0.0
C609 C 0.33577 0.33988 0.84907 0.0
C610 C 0.38033 0.35269 0.8565 0.0
H611 H 0.28309 0.33413 0.81461 0.0
H612 H 0.31534 0.32518 0.86583 0.0
S613 S 0.46082 0.40295 0.80522 0.0
N614 N 0.41464 0.39498 0.78381 0.0
N615 N 0.44915 0.38502 0.83918 0.0
C616 C 0.40577 0.37167 0.83425 0.0
C617 C 0.38709 0.3769 0.80416 0.0
C618 C 0.32396 0.93645 0.3856 0.0
C619 C 0.36548 0.93336 0.3755 0.0
C620 C 0.32012 0.96036 0.4043 0.0
C621 C 0.35761 0.98224 0.41349 0.0
H622 H 0.29412 0.92006 0.37948 0.0
H623 H 0.28751 0.96151 0.41201 0.0
S624 S 0.47368 0.98569 0.39092 0.0
N625 N 0.44478 0.95493 0.37484 0.0
N626 N 0.43742 0.00013 0.40928 0.0
C627 C 0.39927 0.97973 0.40298 0.0
C628 C 0.40323 0.95526 0.38415 0.0
C629 C 0.6911 0.80316 0.80229 0.0
C630 C 0.73092 0.82448 0.79864 0.0
C631 C 0.66148 0.80489 0.82785 0.0
C632 C 0.6706 0.82796 0.85075 0.0
H633 H 0.68223 0.78527 0.78488 0.0
H634 H 0.63086 0.78829 0.82935 0.0
S635 S 0.77224 0.88779 0.85426 0.0
N636 N 0.77906 0.86846 0.82151 0.0
N637 N 0.72373 0.87139 0.86971 0.0
C638 C 0.71082 0.84896 0.84798 0.0
C639 C 0.74089 0.84729 0.82192 0.0
loop_
_geom_bond_atom_site_label_1
_geom_bond_atom_site_label_2
_geom_bond_distance
_geom_bond_site_symmetry_2
_ccdc_geom_bond_type
O0 Cd1 2.300 . S
O0 C7 1.275 . S
Cd1 O0 2.300 . S
Cd1 O9 2.381 . S
Cd1 O10 2.378 . S
O2 Cd3 2.385 . S
O2 C7 1.255 . S
Cd3 O2 2.385 . S
Cd3 O4 2.317 . S
O4 Cd3 2.317 . S
O4 C5 1.232 . S
C5 O4 1.232 . S
C5 O6 1.218 . S
O6 C5 1.218 . S
C7 O0 1.275 . S
C7 O2 1.255 . S
C8 O9 1.258 . S
C8 O10 1.256 . S
O9 Cd1 2.381 . S
O9 C8 1.258 . S
O10 Cd1 2.378 . S
O10 C8 1.256 . S
O11 Cd12 2.300 . S
O11 C18 1.275 . S
Cd12 O11 2.300 . S
Cd12 O20 2.381 . S
Cd12 O21 2.378 . S
O13 Cd14 2.385 . S
O13 C18 1.255 . S
Cd14 O13 2.385 . S
Cd14 O15 2.317 . S
O15 Cd14 2.317 . S
O15 C16 1.232 . S
C16 O15 1.232 . S
C16 O17 1.218 . S
O17 C16 1.218 . S
C18 O11 1.275 . S
C18 O13 1.255 . S
C19 O20 1.258 . S
C19 O21 1.256 . S
O20 Cd12 2.381 . S
O20 C19 1.258 . S
O21 Cd12 2.378 . S
O21 C19 1.256 . S
O22 Cd23 2.300 . S
O22 C29 1.275 . S
Cd23 O22 2.300 . S
Cd23 O31 2.381 . S
Cd23 O32 2.378 . S
O24 Cd25 2.385 . S
O24 C29 1.255 . S
Cd25 O24 2.385 . S
Cd25 O26 2.317 . S
O26 Cd25 2.317 . S
O26 C27 1.232 . S
C27 O26 1.232 . S
C27 O28 1.218 . S
O28 C27 1.218 . S
C29 O22 1.275 . S
C29 O24 1.255 . S
C30 O31 1.258 . S
C30 O32 1.256 . S
O31 Cd23 2.381 . S
O31 C30 1.258 . S
O32 Cd23 2.378 . S
O32 C30 1.256 . S
O33 Cd34 2.300 . S
O33 C40 1.275 . S
Cd34 O33 2.300 . S
Cd34 O42 2.381 . S
Cd34 O43 2.378 . S
O35 Cd36 2.385 . S
O35 C40 1.255 . S
Cd36 O35 2.385 . S
Cd36 O37 2.317 . S
O37 Cd36 2.317 . S
O37 C38 1.232 . S
C38 O37 1.232 . S
C38 O39 1.218 . S
O39 C38 1.218 . S
C40 O33 1.275 . S
C40 O35 1.255 . S
C41 O42 1.258 . S
C41 O43 1.256 . S
O42 Cd34 2.381 . S
O42 C41 1.258 . S
O43 Cd34 2.378 . S
O43 C41 1.256 . S
O44 Cd45 2.300 . S
O44 C51 1.275 . S
Cd45 O44 2.300 . S
Cd45 O53 2.381 . S
Cd45 O54 2.378 . S
O46 Cd47 2.385 . S
O46 C51 1.255 . S
Cd47 O46 2.385 . S
Cd47 O48 2.317 . S
O48 Cd47 2.317 . S
O48 C49 1.232 . S
C49 O48 1.232 . S
C49 O50 1.218 . S
O50 C49 1.218 . S
C51 O44 1.275 . S
C51 O46 1.255 . S
C52 O53 1.258 . S
C52 O54 1.256 . S
O53 Cd45 2.381 . S
O53 C52 1.258 . S
O54 Cd45 2.378 . S
O54 C52 1.256 . S
O55 Cd56 2.300 . S
O55 C62 1.275 . S
Cd56 O55 2.300 . S
Cd56 O64 2.381 . S
Cd56 O65 2.378 . S
O57 Cd58 2.385 . S
O57 C62 1.255 . S
Cd58 O57 2.385 . S
Cd58 O59 2.317 . S
O59 Cd58 2.317 . S
O59 C60 1.232 . S
C60 O59 1.232 . S
C60 O61 1.218 . S
O61 C60 1.218 . S
C62 O55 1.275 . S
C62 O57 1.255 . S
C63 O64 1.258 . S
C63 O65 1.256 . S
O64 Cd56 2.381 . S
O64 C63 1.258 . S
O65 Cd56 2.378 . S
O65 C63 1.256 . S
O66 Cd67 2.300 . S
O66 C73 1.275 . S
Cd67 O66 2.300 . S
Cd67 O75 2.381 . S
Cd67 O76 2.378 . S
O68 Cd69 2.385 . S
O68 C73 1.255 . S
Cd69 O68 2.385 . S
Cd69 O70 2.317 . S
O70 Cd69 2.317 . S
O70 C71 1.232 . S
C71 O70 1.232 . S
C71 O72 1.218 . S
O72 C71 1.218 . S
C73 O66 1.275 . S
C73 O68 1.255 . S
C74 O75 1.258 . S
C74 O76 1.256 . S
O75 Cd67 2.381 . S
O75 C74 1.258 . S
O76 Cd67 2.378 . S
O76 C74 1.256 . S
O77 Cd78 2.300 . S
O77 C84 1.275 . S
Cd78 O77 2.300 . S
Cd78 O86 2.381 . S
Cd78 O87 2.378 . S
O79 Cd80 2.385 . S
O79 C84 1.255 . S
Cd80 O79 2.385 . S
Cd80 O81 2.317 . S
O81 Cd80 2.317 . S
O81 C82 1.232 . S
C82 O81 1.232 . S
C82 O83 1.218 . S
O83 C82 1.218 . S
C84 O77 1.275 . S
C84 O79 1.255 . S
C85 O86 1.258 . S
C85 O87 1.256 . S
O86 Cd78 2.381 . S
O86 C85 1.258 . S
O87 Cd78 2.378 . S
O87 C85 1.256 . S
H88 C107 0.949 . S
H89 C108 0.950 . S
H90 C110 0.950 . S
H91 C111 0.950 1_455 S
H92 C113 0.950 1_655 S
H93 C116 0.950 . S
H94 C117 0.950 . S
H95 C119 0.951 . S
H96 C120 0.949 . S
H97 C122 0.949 . S
H98 C123 0.950 . S
H99 C125 0.950 . S
H100 C126 0.950 . S
H101 C128 0.950 . S
H102 C131 0.954 . S
H103 C132 0.950 . S
H104 C134 0.951 . S
H105 C135 0.949 . S
C106 C107 1.376 . S
C106 C111 1.386 . S
C106 C112 1.483 1_655 S
C107 H88 0.949 . S
C107 C106 1.376 . S
C107 C108 1.397 . S
C108 H89 0.950 . S
C108 C107 1.397 . S
C108 C109 1.391 . S
C109 C108 1.391 . S
C109 C110 1.405 . S
C110 H90 0.950 . S
C110 C109 1.405 . S
C110 C111 1.367 . S
C111 H91 0.950 1_655 S
C111 C106 1.386 . S
C111 C110 1.367 . S
C112 C106 1.483 1_455 S
C112 C113 1.382 . S
C112 C114 1.403 . S
C113 H92 0.950 1_455 S
C113 C112 1.382 . S
C113 C129 1.411 . S
C114 C112 1.403 . S
C114 C115 1.489 . S
C114 C128 1.411 . S
C115 C114 1.489 . S
C115 C116 1.383 . S
C115 C120 1.382 . S
C116 H93 0.950 . S
C116 C115 1.383 . S
C116 C117 1.395 . S
C117 H94 0.950 . S
C117 C116 1.395 . S
C117 C118 1.288 . S
C118 C117 1.288 . S
C118 C119 1.392 . S
C119 H95 0.951 . S
C119 C118 1.392 . S
C119 C120 1.392 . S
C120 H96 0.949 . S
C120 C115 1.382 . S
C120 C119 1.392 . S
C121 C122 1.376 . S
C121 C126 1.386 . S
C121 C127 1.483 . S
C122 H97 0.949 . S
C122 C121 1.376 . S
C122 C123 1.397 . S
C123 H98 0.950 . S
C123 C122 1.397 . S
C123 C124 1.391 . S
C124 C123 1.391 . S
C124 C125 1.405 . S
C125 H99 0.950 . S
C125 C124 1.405 . S
C125 C126 1.367 . S
C126 H100 0.950 . S
C126 C121 1.386 . S
C126 C125 1.367 . S
C127 C121 1.483 . S
C127 C128 1.382 . S
C127 C129 1.403 . S
C128 H101 0.950 . S
C128 C114 1.411 . S
C128 C127 1.382 . S
C129 C113 1.411 . S
C129 C127 1.403 . S
C129 C130 1.489 1_455 S
C130 C129 1.489 1_655 S
C130 C131 1.384 1_655 S
C130 C135 1.382 . S
C131 H102 0.954 . S
C131 C130 1.384 1_455 S
C131 C132 1.390 1_455 S
C132 H103 0.950 . S
C132 C131 1.390 1_655 S
C132 C133 1.288 . S
C133 C132 1.288 . S
C133 C134 1.392 . S
C134 H104 0.951 . S
C134 C133 1.392 . S
C134 C135 1.392 . S
C135 H105 0.949 . S
C135 C130 1.382 . S
C135 C134 1.392 . S
H136 C155 0.949 . S
H137 C156 0.950 . S
H138 C158 0.950 . S
H139 C159 0.950 . S
H140 C161 0.950 . S
H141 C164 0.950 . S
H142 C165 0.950 . S
H143 C167 0.951 . S
H144 C168 0.949 . S
H145 C170 0.949 . S
H146 C171 0.950 . S
H147 C173 0.950 . S
H148 C174 0.950 . S
H149 C176 0.950 . S
H150 C179 0.950 . S
H151 C180 0.950 . S
H152 C182 0.951 . S
H153 C183 0.949 . S
C154 C155 1.376 . S
C154 C159 1.386 . S
C154 C160 1.483 . S
C155 H136 0.949 . S
C155 C154 1.376 . S
C155 C156 1.397 . S
C156 H137 0.950 . S
C156 C155 1.397 . S
C156 C157 1.391 . S
C157 C156 1.391 . S
C157 C158 1.405 . S
C158 H138 0.950 . S
C158 C157 1.405 . S
C158 C159 1.367 . S
C159 H139 0.950 . S
C159 C154 1.386 . S
C159 C158 1.367 . S
C160 C154 1.483 . S
C160 C161 1.382 . S
C160 C162 1.403 1_455 S
C161 H140 0.950 . S
C161 C160 1.382 . S
C161 C177 1.411 . S
C162 C160 1.403 1_655 S
C162 C163 1.489 . S
C162 C176 1.411 . S
C163 C162 1.489 . S
C163 C164 1.383 . S
C163 C168 1.382 . S
C164 H141 0.950 . S
C164 C163 1.383 . S
C164 C165 1.395 . S
C165 H142 0.950 . S
C165 C164 1.395 . S
C165 C166 1.288 . S
C166 C165 1.288 . S
C166 C167 1.392 . S
C167 H143 0.951 . S
C167 C166 1.392 . S
C167 C168 1.392 . S
C168 H144 0.949 . S
C168 C163 1.382 . S
C168 C167 1.392 . S
C169 C170 1.376 . S
C169 C174 1.386 . S
C169 C175 1.483 . S
C170 H145 0.949 . S
C170 C169 1.376 . S
C170 C171 1.397 . S
C171 H146 0.950 . S
C171 C170 1.397 . S
C171 C172 1.391 . S
C172 C171 1.391 . S
C172 C173 1.405 . S
C173 H147 0.950 . S
C173 C172 1.405 . S
C173 C174 1.367 . S
C174 H148 0.950 . S
C174 C169 1.386 . S
C174 C173 1.367 . S
C175 C169 1.483 . S
C175 C176 1.382 . S
C175 C177 1.403 1_655 S
C176 H149 0.950 . S
C176 C162 1.411 . S
C176 C175 1.382 . S
C177 C161 1.411 . S
C177 C175 1.403 1_455 S
C177 C178 1.489 . S
C178 C177 1.489 . S
C178 C179 1.383 . S
C178 C183 1.382 . S
C179 H150 0.950 . S
C179 C178 1.383 . S
C179 C180 1.395 . S
C180 H151 0.950 . S
C180 C179 1.395 . S
C180 C181 1.288 . S
C181 C180 1.288 . S
C181 C182 1.392 . S
C182 H152 0.951 . S
C182 C181 1.392 . S
C182 C183 1.392 . S
C183 H153 0.949 . S
C183 C178 1.382 . S
C183 C182 1.392 . S
H184 C203 0.949 . S
H185 C204 0.950 . S
H186 C206 0.950 . S
H187 C207 0.950 . S
H188 C209 0.950 . S
H189 C212 0.950 . S
H190 C213 0.950 . S
H191 C215 0.951 . S
H192 C216 0.949 . S
H193 C218 0.949 . S
H194 C219 0.950 . S
H195 C221 0.950 . S
H196 C222 0.950 . S
H197 C224 0.950 . S
H198 C227 0.950 . S
H199 C228 0.950 . S
H200 C230 0.951 . S
H201 C231 0.949 . S
C202 C203 1.376 . S
C202 C207 1.386 . S
C202 C208 1.483 . S
C203 H184 0.949 . S
C203 C202 1.376 . S
C203 C204 1.397 . S
C204 H185 0.950 . S
C204 C203 1.397 . S
C204 C205 1.391 . S
C205 C204 1.391 . S
C205 C206 1.405 . S
C206 H186 0.950 . S
C206 C205 1.405 . S
C206 C207 1.367 . S
C207 H187 0.950 . S
C207 C202 1.386 . S
C207 C206 1.367 . S
C208 C202 1.483 . S
C208 C209 1.382 . S
C208 C210 1.403 . S
C209 H188 0.950 . S
C209 C208 1.382 . S
C209 C225 1.411 . S
C210 C208 1.403 . S
C210 C211 1.489 . S
C210 C224 1.411 . S
C211 C210 1.489 . S
C211 C212 1.383 . S
C211 C216 1.382 . S
C212 H189 0.950 . S
C212 C211 1.383 . S
C212 C213 1.395 . S
C213 H190 0.950 . S
C213 C212 1.395 . S
C213 C214 1.288 . S
C214 C213 1.288 . S
C214 C215 1.392 . S
C215 H191 0.951 . S
C215 C214 1.392 . S
C215 C216 1.392 . S
C216 H192 0.949 . S
C216 C211 1.382 . S
C216 C215 1.392 . S
C217 C218 1.376 . S
C217 C222 1.386 . S
C217 C223 1.483 . S
C218 H193 0.949 . S
C218 C217 1.376 . S
C218 C219 1.397 . S
C219 H194 0.950 . S
C219 C218 1.397 . S
C219 C220 1.391 . S
C220 C219 1.391 . S
C220 C221 1.405 . S
C221 H195 0.950 . S
C221 C220 1.405 . S
C221 C222 1.367 . S
C222 H196 0.950 . S
C222 C217 1.386 . S
C222 C221 1.367 . S
C223 C217 1.483 . S
C223 C224 1.382 . S
C223 C225 1.403 . S
C224 H197 0.950 . S
C224 C210 1.411 . S
C224 C223 1.382 . S
C225 C209 1.411 . S
C225 C223 1.403 . S
C225 C226 1.489 . S
C226 C225 1.489 . S
C226 C227 1.383 . S
C226 C231 1.382 . S
C227 H198 0.950 . S
C227 C226 1.383 . S
C227 C228 1.395 . S
C228 H199 0.950 . S
C228 C227 1.395 . S
C228 C229 1.288 . S
C229 C228 1.288 . S
C229 C230 1.392 . S
C230 H200 0.951 . S
C230 C229 1.392 . S
C230 C231 1.392 . S
C231 H201 0.949 . S
C231 C226 1.382 . S
C231 C230 1.392 . S
H232 C251 0.949 . S
H233 C252 0.950 . S
H234 C254 0.950 . S
H235 C255 0.950 . S
H236 C257 0.950 . S
H237 C260 0.950 . S
H238 C261 0.950 . S
H239 C263 0.951 . S
H240 C264 0.949 . S
H241 C266 0.949 . S
H242 C267 0.950 . S
H243 C269 0.950 . S
H244 C270 0.950 . S
H245 C272 0.950 . S
H246 C275 0.950 . S
H247 C276 0.950 . S
H248 C278 0.951 . S
H249 C279 0.949 . S
C250 C251 1.376 . S
C250 C255 1.386 . S
C250 C256 1.483 . S
C251 H232 0.949 . S
C251 C250 1.376 . S
C251 C252 1.397 . S
C252 H233 0.950 . S
C252 C251 1.397 . S
C252 C253 1.391 . S
C253 C252 1.391 . S
C253 C254 1.405 . S
C254 H234 0.950 . S
C254 C253 1.405 . S
C254 C255 1.367 . S
C255 H235 0.950 . S
C255 C250 1.386 . S
C255 C254 1.367 . S
C256 C250 1.483 . S
C256 C257 1.382 1_556 S
C256 C258 1.403 . S
C257 H236 0.950 . S
C257 C256 1.382 1_554 S
C257 C273 1.411 . S
C258 C256 1.403 . S
C258 C259 1.489 . S
C258 C272 1.411 1_556 S
C259 C258 1.489 . S
C259 C260 1.383 . S
C259 C264 1.382 . S
C260 H237 0.950 . S
C260 C259 1.383 . S
C260 C261 1.395 . S
C261 H238 0.950 . S
C261 C260 1.395 . S
C261 C262 1.288 . S
C262 C261 1.288 . S
C262 C263 1.392 . S
C263 H239 0.951 . S
C263 C262 1.392 . S
C263 C264 1.392 . S
C264 H240 0.949 . S
C264 C259 1.382 . S
C264 C263 1.392 . S
C265 C266 1.376 . S
C265 C270 1.386 . S
C265 C271 1.483 . S
C266 H241 0.949 . S
C266 C265 1.376 . S
C266 C267 1.397 . S
C267 H242 0.950 . S
C267 C266 1.397 . S
C267 C268 1.391 . S
C268 C267 1.391 . S
C268 C269 1.405 . S
C269 H243 0.950 . S
C269 C268 1.405 . S
C269 C270 1.367 . S
C270 H244 0.950 . S
C270 C265 1.386 . S
C270 C269 1.367 . S
C271 C265 1.483 . S
C271 C272 1.382 . S
C271 C273 1.403 . S
C272 H245 0.950 . S
C272 C258 1.411 1_554 S
C272 C271 1.382 . S
C273 C257 1.411 . S
C273 C271 1.403 . S
C273 C274 1.489 . S
C274 C273 1.489 . S
C274 C275 1.383 . S
C274 C279 1.382 . S
C275 H246 0.950 . S
C275 C274 1.383 . S
C275 C276 1.395 . S
C276 H247 0.950 . S
C276 C275 1.395 . S
C276 C277 1.288 . S
C277 C276 1.288 . S
C277 C278 1.392 . S
C278 H248 0.951 . S
C278 C277 1.392 . S
C278 C279 1.392 . S
C279 H249 0.949 . S
C279 C274 1.382 . S
C279 C278 1.392 . S
H280 C299 0.949 . S
H281 C300 0.950 . S
H282 C302 0.950 . S
H283 C303 0.950 . S
H284 C305 0.950 . S
H285 C308 0.950 . S
H286 C309 0.950 . S
H287 C311 0.951 . S
H288 C312 0.949 . S
H289 C314 0.949 . S
H290 C315 0.950 . S
H291 C317 0.950 . S
H292 C318 0.950 . S
H293 C320 0.950 . S
H294 C323 0.950 . S
H295 C324 0.950 . S
H296 C326 0.951 . S
H297 C327 0.949 . S
C298 C299 1.376 . S
C298 C303 1.386 . S
C298 C304 1.483 . S
C299 H280 0.949 . S
C299 C298 1.376 . S
C299 C300 1.397 . S
C300 H281 0.950 . S
C300 C299 1.397 . S
C300 C301 1.391 . S
C301 C300 1.391 . S
C301 C302 1.405 . S
C302 H282 0.950 . S
C302 C301 1.405 . S
C302 C303 1.367 . S
C303 H283 0.950 . S
C303 C298 1.386 . S
C303 C302 1.367 . S
C304 C298 1.483 . S
C304 C305 1.382 1_565 S
C304 C306 1.403 . S
C305 H284 0.950 . S
C305 C304 1.382 1_545 S
C305 C321 1.411 . S
C306 C304 1.403 . S
C306 C307 1.489 . S
C306 C320 1.411 1_565 S
C307 C306 1.489 . S
C307 C308 1.383 . S
C307 C312 1.382 . S
C308 H285 0.950 . S
C308 C307 1.383 . S
C308 C309 1.395 . S
C309 H286 0.950 . S
C309 C308 1.395 . S
C309 C310 1.288 . S
C310 C309 1.288 . S
C310 C311 1.392 . S
C311 H287 0.951 . S
C311 C310 1.392 . S
C311 C312 1.392 . S
C312 H288 0.949 . S
C312 C307 1.382 . S
C312 C311 1.392 . S
C313 C314 1.376 . S
C313 C318 1.386 . S
C313 C319 1.483 . S
C314 H289 0.949 . S
C314 C313 1.376 . S
C314 C315 1.397 . S
C315 H290 0.950 . S
C315 C314 1.397 . S
C315 C316 1.391 . S
C316 C315 1.391 . S
C316 C317 1.405 . S
C317 H291 0.950 . S
C317 C316 1.405 . S
C317 C318 1.367 . S
C318 H292 0.950 . S
C318 C313 1.386 . S
C318 C317 1.367 . S
C319 C313 1.483 . S
C319 C320 1.382 . S
C319 C321 1.403 . S
C320 H293 0.950 . S
C320 C306 1.411 1_545 S
C320 C319 1.382 . S
C321 C305 1.411 . S
C321 C319 1.403 . S
C321 C322 1.489 . S
C322 C321 1.489 . S
C322 C323 1.383 . S
C322 C327 1.382 . S
C323 H294 0.950 . S
C323 C322 1.383 . S
C323 C324 1.395 . S
C324 H295 0.950 . S
C324 C323 1.395 . S
C324 C325 1.288 . S
C325 C324 1.288 . S
C325 C326 1.392 . S
C326 H296 0.951 . S
C326 C325 1.392 . S
C326 C327 1.392 . S
C327 H297 0.949 . S
C327 C322 1.382 . S
C327 C326 1.392 . S
H328 C347 0.949 . S
H329 C348 0.950 . S
H330 C350 0.950 . S
H331 C351 0.950 . S
H332 C353 0.950 . S
H333 C356 0.950 . S
H334 C357 0.950 . S
H335 C359 0.951 . S
H336 C360 0.949 . S
H337 C362 0.949 . S
H338 C363 0.950 . S
H339 C365 0.950 . S
H340 C366 0.950 . S
H341 C368 0.950 . S
H342 C371 0.950 . S
H343 C372 0.950 . S
H344 C374 0.951 . S
H345 C375 0.949 . S
C346 C347 1.376 . S
C346 C351 1.386 . S
C346 C352 1.483 . S
C347 H328 0.949 . S
C347 C346 1.376 . S
C347 C348 1.397 . S
C348 H329 0.950 . S
C348 C347 1.397 . S
C348 C349 1.391 . S
C349 C348 1.391 . S
C349 C350 1.405 . S
C350 H330 0.950 . S
C350 C349 1.405 . S
C350 C351 1.367 . S
C351 H331 0.950 . S
C351 C346 1.386 . S
C351 C350 1.367 . S
C352 C346 1.483 . S
C352 C353 1.382 1_556 S
C352 C354 1.403 . S
C353 H332 0.950 . S
C353 C352 1.382 1_554 S
C353 C369 1.411 . S
C354 C352 1.403 . S
C354 C355 1.489 . S
C354 C368 1.411 1_556 S
C355 C354 1.489 . S
C355 C356 1.383 . S
C355 C360 1.382 . S
C356 H333 0.950 . S
C356 C355 1.383 . S
C356 C357 1.395 . S
C357 H334 0.950 . S
C357 C356 1.395 . S
C357 C358 1.288 . S
C358 C357 1.288 . S
C358 C359 1.392 . S
C359 H335 0.951 . S
C359 C358 1.392 . S
C359 C360 1.392 . S
C360 H336 0.949 . S
C360 C355 1.382 . S
C360 C359 1.392 . S
C361 C362 1.376 . S
C361 C366 1.386 . S
C361 C367 1.483 . S
C362 H337 0.949 . S
C362 C361 1.376 . S
C362 C363 1.397 . S
C363 H338 0.950 . S
C363 C362 1.397 . S
C363 C364 1.391 . S
C364 C363 1.391 . S
C364 C365 1.405 . S
C365 H339 0.950 . S
C365 C364 1.405 . S
C365 C366 1.367 . S
C366 H340 0.950 . S
C366 C361 1.386 . S
C366 C365 1.367 . S
C367 C361 1.483 . S
C367 C368 1.382 . S
C367 C369 1.403 . S
C368 H341 0.950 . S
C368 C354 1.411 1_554 S
C368 C367 1.382 . S
C369 C353 1.411 . S
C369 C367 1.403 . S
C369 C370 1.489 . S
C370 C369 1.489 . S
C370 C371 1.383 . S
C370 C375 1.382 . S
C371 H342 0.950 . S
C371 C370 1.383 . S
C371 C372 1.395 . S
C372 H343 0.950 . S
C372 C371 1.395 . S
C372 C373 1.288 . S
C373 C372 1.288 . S
C373 C374 1.392 . S
C374 H344 0.951 . S
C374 C373 1.392 . S
C374 C375 1.392 . S
C375 H345 0.949 . S
C375 C370 1.382 . S
C375 C374 1.392 . S
C376 C377 1.369 . S
C376 C378 1.419 . S
C376 H380 0.930 . S
C377 C376 1.369 . S
C377 C386 1.429 . S
C378 C376 1.419 . S
C378 C379 1.363 . S
C378 H381 0.929 . S
C379 C378 1.363 . S
C379 C385 1.428 . S
H380 C376 0.930 . S
H381 C378 0.929 . S
S382 N383 1.613 . S
S382 N384 1.610 . S
N383 S382 1.613 . S
N383 C386 1.350 . S
N384 S382 1.610 . S
N384 C385 1.351 . S
C385 C379 1.428 . S
C385 N384 1.351 . S
C385 C386 1.434 . S
C386 C377 1.429 . S
C386 N383 1.350 . S
C386 C385 1.434 . S
C387 C388 1.369 . S
C387 C389 1.419 . S
C387 H391 0.930 . S
C388 C387 1.369 . S
C388 C397 1.429 . S
C389 C387 1.419 . S
C389 C390 1.363 . S
C389 H392 0.929 . S
C390 C389 1.363 . S
C390 C396 1.428 . S
H391 C387 0.930 . S
H392 C389 0.929 . S
S393 N394 1.613 . S
S393 N395 1.610 . S
N394 S393 1.613 . S
N394 C397 1.350 . S
N395 S393 1.610 . S
N395 C396 1.351 . S
C396 C390 1.428 . S
C396 N395 1.351 . S
C396 C397 1.434 . S
C397 C388 1.429 . S
C397 N394 1.350 . S
C397 C396 1.434 . S
C398 C399 1.369 . S
C398 C400 1.419 . S
C398 H402 0.930 . S
C399 C398 1.369 . S
C399 C408 1.429 . S
C400 C398 1.419 . S
C400 C401 1.363 . S
C400 H403 0.929 . S
C401 C400 1.363 . S
C401 C407 1.428 . S
H402 C398 0.930 . S
H403 C400 0.929 . S
S404 N405 1.613 . S
S404 N406 1.610 . S
N405 S404 1.613 . S
N405 C408 1.350 . S
N406 S404 1.610 . S
N406 C407 1.351 . S
C407 C401 1.428 . S
C407 N406 1.351 . S
C407 C408 1.434 . S
C408 C399 1.429 . S
C408 N405 1.350 . S
C408 C407 1.434 . S
C409 C410 1.369 . S
C409 C411 1.419 . S
C409 H413 0.930 . S
C410 C409 1.369 . S
C410 C419 1.429 . S
C411 C409 1.419 . S
C411 C412 1.363 . S
C411 H414 0.929 . S
C412 C411 1.363 . S
C412 C418 1.428 . S
H413 C409 0.930 . S
H414 C411 0.929 . S
S415 N416 1.613 . S
S415 N417 1.610 . S
N416 S415 1.613 . S
N416 C419 1.350 . S
N417 S415 1.610 . S
N417 C418 1.351 . S
C418 C412 1.428 . S
C418 N417 1.351 . S
C418 C419 1.434 . S
C419 C410 1.429 . S
C419 N416 1.350 . S
C419 C418 1.434 . S
C420 C421 1.369 . S
C420 C422 1.419 . S
C420 H424 0.930 . S
C421 C420 1.369 . S
C421 C430 1.429 . S
C422 C420 1.419 . S
C422 C423 1.363 . S
C422 H425 0.929 . S
C423 C422 1.363 . S
C423 C429 1.428 . S
H424 C420 0.930 . S
H425 C422 0.929 . S
S426 N427 1.613 . S
S426 N428 1.610 . S
N427 S426 1.613 . S
N427 C430 1.350 . S
N428 S426 1.610 . S
N428 C429 1.351 . S
C429 C423 1.428 . S
C429 N428 1.351 . S
C429 C430 1.434 . S
C430 C421 1.429 . S
C430 N427 1.350 . S
C430 C429 1.434 . S
C431 C432 1.369 . S
C431 C433 1.419 . S
C431 H435 0.930 . S
C432 C431 1.369 . S
C432 C441 1.429 . S
C433 C431 1.419 . S
C433 C434 1.363 . S
C433 H436 0.929 . S
C434 C433 1.363 . S
C434 C440 1.428 . S
H435 C431 0.930 . S
H436 C433 0.929 . S
S437 N438 1.613 . S
S437 N439 1.610 . S
N438 S437 1.613 . S
N438 C441 1.350 . S
N439 S437 1.610 . S
N439 C440 1.351 . S
C440 C434 1.428 . S
C440 N439 1.351 . S
C440 C441 1.434 . S
C441 C432 1.429 . S
C441 N438 1.350 . S
C441 C440 1.434 . S
C442 C443 1.369 . S
C442 C444 1.419 . S
C442 H446 0.930 . S
C443 C442 1.369 . S
C443 C452 1.429 . S
C444 C442 1.419 . S
C444 C445 1.363 . S
C444 H447 0.929 . S
C445 C444 1.363 . S
C445 C451 1.428 . S
H446 C442 0.930 . S
H447 C444 0.929 . S
S448 N449 1.613 . S
S448 N450 1.610 . S
N449 S448 1.613 . S
N449 C452 1.350 . S
N450 S448 1.610 . S
N450 C451 1.351 . S
C451 C445 1.428 . S
C451 N450 1.351 . S
C451 C452 1.434 . S
C452 C443 1.429 . S
C452 N449 1.350 . S
C452 C451 1.434 . S
C453 C454 1.369 . S
C453 C455 1.419 . S
C453 H457 0.930 . S
C454 C453 1.369 . S
C454 C463 1.429 . S
C455 C453 1.419 . S
C455 C456 1.363 . S
C455 H458 0.929 . S
C456 C455 1.363 . S
C456 C462 1.428 . S
H457 C453 0.930 . S
H458 C455 0.929 . S
S459 N460 1.613 . S
S459 N461 1.610 . S
N460 S459 1.613 . S
N460 C463 1.350 . S
N461 S459 1.610 . S
N461 C462 1.351 . S
C462 C456 1.428 . S
C462 N461 1.351 . S
C462 C463 1.434 . S
C463 C454 1.429 . S
C463 N460 1.350 . S
C463 C462 1.434 . S
C464 C465 1.369 . S
C464 C466 1.419 . S
C464 H468 0.930 . S
C465 C464 1.369 . S
C465 C474 1.429 . S
C466 C464 1.419 . S
C466 C467 1.363 . S
C466 H469 0.929 . S
C467 C466 1.363 . S
C467 C473 1.434 . S
H468 C464 0.930 . S
H469 C466 0.929 . S
S470 N471 1.613 1_545 S
S470 N472 1.610 . S
N471 S470 1.613 1_565 S
N471 C474 1.350 . S
N472 S470 1.610 . S
N472 C473 1.328 1_545 S
C473 C467 1.434 . S
C473 N472 1.328 1_565 S
C473 C474 1.452 . S
C474 C465 1.429 . S
C474 N471 1.350 . S
C474 C473 1.452 . S
C475 C476 1.369 . S
C475 C477 1.419 . S
C475 H479 0.930 . S
C476 C475 1.369 . S
C476 C485 1.429 . S
C477 C475 1.419 . S
C477 C478 1.363 . S
C477 H480 0.929 . S
C478 C477 1.363 . S
C478 C484 1.428 . S
H479 C475 0.930 . S
H480 C477 0.929 . S
S481 N482 1.613 . S
S481 N483 1.610 . S
N482 S481 1.613 . S
N482 C485 1.350 . S
N483 S481 1.610 . S
N483 C484 1.351 . S
C484 C478 1.428 . S
C484 N483 1.351 . S
C484 C485 1.434 . S
C485 C476 1.429 . S
C485 N482 1.350 . S
C485 C484 1.434 . S
C486 C487 1.369 . S
C486 C488 1.419 . S
C486 H490 0.930 . S
C487 C486 1.369 . S
C487 C496 1.429 . S
C488 C486 1.419 . S
C488 C489 1.363 . S
C488 H491 0.929 . S
C489 C488 1.363 . S
C489 C495 1.428 . S
H490 C486 0.930 . S
H491 C488 0.929 . S
S492 N493 1.613 . S
S492 N494 1.610 . S
N493 S492 1.613 . S
N493 C496 1.350 . S
N494 S492 1.610 . S
N494 C495 1.351 . S
C495 C489 1.428 . S
C495 N494 1.351 . S
C495 C496 1.434 . S
C496 C487 1.429 . S
C496 N493 1.350 . S
C496 C495 1.434 . S
C497 C498 1.369 . S
C497 C499 1.419 . S
C497 H501 0.930 . S
C498 C497 1.369 . S
C498 C507 1.429 . S
C499 C497 1.419 . S
C499 C500 1.363 . S
C499 H502 0.929 . S
C500 C499 1.363 . S
C500 C506 1.428 . S
H501 C497 0.930 . S
H502 C499 0.929 . S
S503 N504 1.613 . S
S503 N505 1.610 . S
N504 S503 1.613 . S
N504 C507 1.350 . S
N505 S503 1.610 . S
N505 C506 1.351 . S
C506 C500 1.428 . S
C506 N505 1.351 . S
C506 C507 1.434 . S
C507 C498 1.429 . S
C507 N504 1.350 . S
C507 C506 1.434 . S
C508 C509 1.369 . S
C508 C510 1.419 . S
C508 H512 0.930 . S
C509 C508 1.369 . S
C509 C518 1.429 . S
C510 C508 1.419 . S
C510 C511 1.363 . S
C510 H513 0.929 . S
C511 C510 1.363 . S
C511 C517 1.428 . S
H512 C508 0.930 . S
H513 C510 0.929 . S
S514 N515 1.613 . S
S514 N516 1.610 . S
N515 S514 1.613 . S
N515 C518 1.350 . S
N516 S514 1.610 . S
N516 C517 1.351 . S
C517 C511 1.428 . S
C517 N516 1.351 . S
C517 C518 1.434 . S
C518 C509 1.429 . S
C518 N515 1.350 . S
C518 C517 1.434 . S
C519 C520 1.369 . S
C519 C521 1.419 . S
C519 H523 0.930 . S
C520 C519 1.369 . S
C520 C529 1.429 . S
C521 C519 1.419 . S
C521 C522 1.363 . S
C521 H524 0.929 . S
C522 C521 1.363 . S
C522 C528 1.428 . S
H523 C519 0.930 . S
H524 C521 0.929 . S
S525 N526 1.613 . S
S525 N527 1.610 . S
N526 S525 1.613 . S
N526 C529 1.350 . S
N527 S525 1.610 . S
N527 C528 1.351 . S
C528 C522 1.428 . S
C528 N527 1.351 . S
C528 C529 1.434 . S
C529 C520 1.429 . S
C529 N526 1.350 . S
C529 C528 1.434 . S
C530 C531 1.369 . S
C530 C532 1.419 . S
C530 H534 0.930 . S
C531 C530 1.369 . S
C531 C540 1.429 . S
C532 C530 1.419 . S
C532 C533 1.363 . S
C532 H535 0.929 . S
C533 C532 1.363 . S
C533 C539 1.428 . S
H534 C530 0.930 . S
H535 C532 0.929 . S
S536 N537 1.613 . S
S536 N538 1.610 . S
N537 S536 1.613 . S
N537 C540 1.350 . S
N538 S536 1.610 . S
N538 C539 1.351 . S
C539 C533 1.428 . S
C539 N538 1.351 . S
C539 C540 1.434 . S
C540 C531 1.429 . S
C540 N537 1.350 . S
C540 C539 1.434 . S
C541 C542 1.369 . S
C541 C543 1.419 . S
C541 H545 0.930 . S
C542 C541 1.369 . S
C542 C551 1.429 . S
C543 C541 1.419 . S
C543 C544 1.363 . S
C543 H546 0.929 . S
C544 C543 1.363 . S
C544 C550 1.428 . S
H545 C541 0.930 . S
H546 C543 0.929 . S
S547 N548 1.613 . S
S547 N549 1.610 . S
N548 S547 1.613 . S
N548 C551 1.350 . S
N549 S547 1.610 . S
N549 C550 1.351 . S
C550 C544 1.428 . S
C550 N549 1.351 . S
C550 C551 1.434 . S
C551 C542 1.429 . S
C551 N548 1.350 . S
C551 C550 1.434 . S
C552 C553 1.369 . S
C552 C554 1.419 . S
C552 H556 0.930 . S
C553 C552 1.369 . S
C553 C562 1.429 . S
C554 C552 1.419 . S
C554 C555 1.363 . S
C554 H557 0.929 . S
C555 C554 1.363 . S
C555 C561 1.428 . S
H556 C552 0.930 . S
H557 C554 0.929 . S
S558 N559 1.613 . S
S558 N560 1.610 . S
N559 S558 1.613 . S
N559 C562 1.350 . S
N560 S558 1.610 . S
N560 C561 1.351 . S
C561 C555 1.428 . S
C561 N560 1.351 . S
C561 C562 1.434 . S
C562 C553 1.429 . S
C562 N559 1.350 . S
C562 C561 1.434 . S
C563 C564 1.369 . S
C563 C565 1.419 . S
C563 H567 0.930 . S
C564 C563 1.369 . S
C564 C573 1.429 . S
C565 C563 1.419 . S
C565 C566 1.363 . S
C565 H568 0.929 . S
C566 C565 1.363 . S
C566 C572 1.428 . S
H567 C563 0.930 . S
H568 C565 0.929 . S
S569 N570 1.613 . S
S569 N571 1.610 . S
N570 S569 1.613 . S
N570 C573 1.350 . S
N571 S569 1.610 . S
N571 C572 1.351 . S
C572 C566 1.428 . S
C572 N571 1.351 . S
C572 C573 1.434 . S
C573 C564 1.429 . S
C573 N570 1.350 . S
C573 C572 1.434 . S
C574 C575 1.369 . S
C574 C576 1.419 . S
C574 H578 0.930 . S
C575 C574 1.369 . S
C575 C584 1.429 . S
C576 C574 1.419 . S
C576 C577 1.363 . S
C576 H579 0.929 . S
C577 C576 1.363 . S
C577 C583 1.428 . S
H578 C574 0.930 . S
H579 C576 0.929 . S
S580 N581 1.613 . S
S580 N582 1.610 . S
N581 S580 1.613 . S
N581 C584 1.350 . S
N582 S580 1.610 . S
N582 C583 1.351 . S
C583 C577 1.428 . S
C583 N582 1.351 . S
C583 C584 1.434 . S
C584 C575 1.429 . S
C584 N581 1.350 . S
C584 C583 1.434 . S
C585 C586 1.369 . S
C585 C587 1.419 . S
C585 H589 0.930 . S
C586 C585 1.369 . S
C586 C595 1.429 . S
C587 C585 1.419 . S
C587 C588 1.363 . S
C587 H590 0.929 . S
C588 C587 1.363 . S
C588 C594 1.428 . S
H589 C585 0.930 . S
H590 C587 0.929 . S
S591 N592 1.613 . S
S591 N593 1.610 . S
N592 S591 1.613 . S
N592 C595 1.350 . S
N593 S591 1.610 . S
N593 C594 1.351 . S
C594 C588 1.428 . S
C594 N593 1.351 . S
C594 C595 1.434 . S
C595 C586 1.429 . S
C595 N592 1.350 . S
C595 C594 1.434 . S
C596 C597 1.369 . S
C596 C598 1.419 . S
C596 H600 0.930 . S
C597 C596 1.369 . S
C597 C606 1.429 . S
C598 C596 1.419 . S
C598 C599 1.363 . S
C598 H601 0.929 . S
C599 C598 1.363 . S
C599 C605 1.428 . S
H600 C596 0.930 . S
H601 C598 0.929 . S
S602 N603 1.613 . S
S602 N604 1.610 . S
N603 S602 1.613 . S
N603 C606 1.350 . S
N604 S602 1.610 . S
N604 C605 1.351 . S
C605 C599 1.428 . S
C605 N604 1.351 . S
C605 C606 1.434 . S
C606 C597 1.429 . S
C606 N603 1.350 . S
C606 C605 1.434 . S
C607 C608 1.369 . S
C607 C609 1.419 . S
C607 H611 0.930 . S
C608 C607 1.369 . S
C608 C617 1.429 . S
C609 C607 1.419 . S
C609 C610 1.363 . S
C609 H612 0.929 . S
C610 C609 1.363 . S
C610 C616 1.428 . S
H611 C607 0.930 . S
H612 C609 0.929 . S
S613 N614 1.613 . S
S613 N615 1.610 . S
N614 S613 1.613 . S
N614 C617 1.350 . S
N615 S613 1.610 . S
N615 C616 1.351 . S
C616 C610 1.428 . S
C616 N615 1.351 . S
C616 C617 1.434 . S
C617 C608 1.429 . S
C617 N614 1.350 . S
C617 C616 1.434 . S
C618 C619 1.369 . S
C618 C620 1.419 . S
C618 H622 0.930 . S
C619 C618 1.369 . S
C619 C628 1.429 . S
C620 C618 1.419 . S
C620 C621 1.363 . S
C620 H623 0.929 . S
C621 C620 1.363 . S
C621 C627 1.428 . S
H622 C618 0.930 . S
H623 C620 0.929 . S
S624 N625 1.613 . S
S624 N626 1.610 1_565 S
N625 S624 1.613 . S
N625 C628 1.350 . S
N626 S624 1.610 1_545 S
N626 C627 1.351 1_545 S
C627 C621 1.428 . S
C627 N626 1.351 1_565 S
C627 C628 1.434 . S
C628 C619 1.429 . S
C628 N625 1.350 . S
C628 C627 1.434 . S
C629 C630 1.369 . S
C629 C631 1.419 . S
C629 H633 0.930 . S
C630 C629 1.369 . S
C630 C639 1.429 . S
C631 C629 1.419 . S
C631 C632 1.363 . S
C631 H634 0.929 . S
C632 C631 1.363 . S
C632 C638 1.428 . S
H633 C629 0.930 . S
H634 C631 0.929 . S
S635 N636 1.613 . S
S635 N637 1.610 . S
N636 S635 1.613 . S
N636 C639 1.350 . S
N637 S635 1.610 . S
N637 C638 1.351 . S
C638 C632 1.428 . S
C638 N637 1.351 . S
C638 C639 1.434 . S
C639 C630 1.429 . S
C639 N636 1.350 . S
C639 C638 1.434 . S
C379 C118 1.537 . S
C377 C5 1.393 . S
C390 C157 1.593 . S
C388 C16 1.328 . S
C401 C133 1.677 . S
C399 C30 1.679 . S
C412 C172 1.671 . S
C410 C40 1.622 . S
C423 C220 1.509 . S
C421 C8 1.505 . S
C434 C253 1.518 . S
C432 C18 1.432 . S
C443 C29 1.753 . S
C445 C310 1.781 . S
C456 C358 1.544 . S
C454 C38 1.299 . S
C467 C205 1.488 1_565 S
C465 C19 1.487 . S
C476 C27 1.490 . S
C478 C268 1.615 . S
C489 C325 1.610 . S
C487 C41 1.603 . S
C500 C373 1.554 . S
C498 C7 1.513 . S
C509 C52 1.597 . S
C511 C166 1.615 . S
C522 C109 1.594 . S
C520 C62 1.555 . S
C531 C74 1.481 . S
C533 C181 1.501 . S
C542 C82 1.235 . S
C544 C124 1.425 . S
C555 C301 1.823 . S
C553 C51 1.700 . S
C566 C364 1.610 . S
C564 C60 1.334 . S
C577 C229 1.524 . S
C575 C71 1.239 . S
C586 C84 1.461 . S
C588 C277 1.548 . S
C599 C316 1.684 . S
C597 C63 1.687 . S
C610 C349 1.520 . S
C608 C73 1.449 . S
C621 C214 1.588 1_565 S
C619 C85 1.593 . S
C630 C49 1.319 . S
C632 C262 1.644 . S
