# Generated by pormake.
# Topology zzz, (3,6)-cn, num edge types: 1
# Building blocks:
#     Node 0, Type 0, BuildingBlock: BELTOD_clean_linker_0, # of connection points: 3
#     Node 1, Type 0, BuildingBlock: BELTOD_clean_linker_0, # of connection points: 3
#     Node 2, Type 0, BuildingBlock: BELTOD_clean_linker_0, # of connection points: 3
#     Node 3, Type 0, BuildingBlock: BELTOD_clean_linker_0, # of connection points: 3
#     Node 4, Type 0, BuildingBlock: BELTOD_clean_linker_0, # of connection points: 3
#     Node 5, Type 0, BuildingBlock: BELTOD_clean_linker_0, # of connection points: 3
#     Node 6, Type 0, BuildingBlock: BELTOD_clean_linker_0, # of connection points: 3
#     Node 7, Type 0, BuildingBlock: BELTOD_clean_linker_0, # of connection points: 3
#     Node 8, Type 1, BuildingBlock: CUWYAW_clean_sbu_0, # of connection points: 6
#     Node 9, Type 1, BuildingBlock: CUWYAW_clean_sbu_0, # of connection points: 6
#     Node 10, Type 1, BuildingBlock: CUWYAW_clean_sbu_0, # of connection points: 6
#     Node 11, Type 1, BuildingBlock: CUWYAW_clean_sbu_0, # of connection points: 6
#     Edge 12, Type (0, 1), BuildingBlock: XUDNAN_clean_linker_2, # of connection points: 2
#     Edge 13, Type (0, 1), BuildingBlock: XUDNAN_clean_linker_2, # of connection points: 2
#     Edge 14, Type (0, 1), BuildingBlock: XUDNAN_clean_linker_2, # of connection points: 2
#     Edge 15, Type (0, 1), BuildingBlock: XUDNAN_clean_linker_2, # of connection points: 2
#     Edge 16, Type (0, 1), BuildingBlock: XUDNAN_clean_linker_2, # of connection points: 2
#     Edge 17, Type (0, 1), BuildingBlock: XUDNAN_clean_linker_2, # of connection points: 2
#     Edge 18, Type (0, 1), BuildingBlock: XUDNAN_clean_linker_2, # of connection points: 2
#     Edge 19, Type (0, 1), BuildingBlock: XUDNAN_clean_linker_2, # of connection points: 2
#     Edge 20, Type (0, 1), BuildingBlock: XUDNAN_clean_linker_2, # of connection points: 2
#     Edge 21, Type (0, 1), BuildingBlock: XUDNAN_clean_linker_2, # of connection points: 2
#     Edge 22, Type (0, 1), BuildingBlock: XUDNAN_clean_linker_2, # of connection points: 2
#     Edge 23, Type (0, 1), BuildingBlock: XUDNAN_clean_linker_2, # of connection points: 2
#     Edge 24, Type (0, 1), BuildingBlock: XUDNAN_clean_linker_2, # of connection points: 2
#     Edge 25, Type (0, 1), BuildingBlock: XUDNAN_clean_linker_2, # of connection points: 2
#     Edge 26, Type (0, 1), BuildingBlock: XUDNAN_clean_linker_2, # of connection points: 2
#     Edge 27, Type (0, 1), BuildingBlock: XUDNAN_clean_linker_2, # of connection points: 2
#     Edge 28, Type (0, 1), BuildingBlock: XUDNAN_clean_linker_2, # of connection points: 2
#     Edge 29, Type (0, 1), BuildingBlock: XUDNAN_clean_linker_2, # of connection points: 2
#     Edge 30, Type (0, 1), BuildingBlock: XUDNAN_clean_linker_2, # of connection points: 2
#     Edge 31, Type (0, 1), BuildingBlock: XUDNAN_clean_linker_2, # of connection points: 2
#     Edge 32, Type (0, 1), BuildingBlock: XUDNAN_clean_linker_2, # of connection points: 2
#     Edge 33, Type (0, 1), BuildingBlock: XUDNAN_clean_linker_2, # of connection points: 2
#     Edge 34, Type (0, 1), BuildingBlock: XUDNAN_clean_linker_2, # of connection points: 2
#     Edge 35, Type (0, 1), BuildingBlock: XUDNAN_clean_linker_2, # of connection points: 2
# Relax obj value: 0.416
# Max RMSD: 0.236
# Mean RMSD: 0.221
data_MOF--net-zzz--node1-CUWYAW_clean_sbu_0--node2-BELTOD_clean_linker_0--edge1-XUDNAN_clean_linker_2
_symmetry_space_group_name_H-M    P1
_symmetry_Int_Tables_number       1
_symmetry_cell_setting            triclinic
loop_
_symmetry_equiv_pos_as_xyz
'x, y, z'
_cell_length_a     55.196281
_cell_length_b     55.340549
_cell_length_c     17.847916
_cell_angle_alpha  89.966711
_cell_angle_beta   89.995781
_cell_angle_gamma 90.012575
loop_
_atom_site_label
_atom_site_type_symbol
_atom_site_fract_x
_atom_site_fract_y
_atom_site_fract_z
_atom_type_partial_charge
P0 P 0.72081 0.464 0.34053 0.0
H1 H 0.73771 0.47689 0.49172 0.0
H2 H 0.77608 0.49346 0.53648 0.0
H3 H 0.79728 0.50801 0.30785 0.0
H4 H 0.75873 0.49178 0.26384 0.0
H5 H 0.67178 0.44762 0.31369 0.0
H6 H 0.64038 0.45969 0.22515 0.0
H7 H 0.68429 0.52024 0.15564 0.0
H8 H 0.71595 0.50791 0.24487 0.0
H9 H 0.76015 0.43083 0.3721 0.0
H10 H 0.71575 0.44933 0.18144 0.0
O11 O 0.70886 0.44939 0.41354 0.0
H12 H 0.78758 0.40869 0.29037 0.0
H13 H 0.74242 0.42633 0.10009 0.0
C14 C 0.74499 0.48342 0.37424 0.0
C15 C 0.75025 0.48436 0.45124 0.0
C16 C 0.77248 0.4935 0.47685 0.0
C17 C 0.79008 0.5019 0.42601 0.0
C18 C 0.7842 0.50203 0.34906 0.0
C19 C 0.76196 0.4929 0.32359 0.0
C20 C 0.69609 0.47711 0.28727 0.0
C21 C 0.67448 0.46387 0.2809 0.0
C22 C 0.65662 0.47061 0.22944 0.0
C23 C 0.65986 0.49083 0.18286 0.0
C24 C 0.68116 0.50466 0.19109 0.0
C25 C 0.69925 0.49769 0.24232 0.0
C26 C 0.7361 0.44205 0.28305 0.0
C27 C 0.75581 0.42939 0.31307 0.0
C28 C 0.77141 0.41655 0.26616 0.0
C29 C 0.7674 0.41599 0.18832 0.0
C30 C 0.7463 0.42681 0.15957 0.0
C31 C 0.7309 0.43994 0.20639 0.0
P32 P 0.02747 0.72504 0.36011 0.0
H33 H 0.0155 0.73598 0.51525 0.0
H34 H 1.00485 0.77362 0.57505 0.0
H35 H 0.98934 0.8052 0.35873 0.0
H36 H 1.00098 0.76706 0.29863 0.0
H37 H 0.05298 0.69646 0.2499 0.0
H38 H 0.0403 0.66905 0.15091 0.0
H39 H 0.96536 0.68353 0.20498 0.0
H40 H 0.97847 0.71177 0.30341 0.0
H41 H 0.06881 0.745 0.44038 0.0
H42 H 0.03972 0.74671 0.21628 0.0
O43 O 0.03691 0.70602 0.42659 0.0
H44 H 0.09326 0.78076 0.41268 0.0
H45 H 0.0636 0.78221 0.1885 0.0
C46 C 0.00867 0.74828 0.40219 0.0
C47 C 0.00884 0.75055 0.48042 0.0
C48 C 1.0028 0.77244 0.51487 0.0
C49 C 0.99627 0.79288 0.4722 0.0
C50 C 0.99459 0.79012 0.39376 0.0
C51 C 1.00073 0.76807 0.35922 0.0
C52 C 0.01669 0.70668 0.28288 0.0
C53 C 0.03378 0.69405 0.23982 0.0
C54 C 0.02646 0.67801 0.18371 0.0
C55 C 1.00175 0.6738 0.16971 0.0
C56 C 0.98456 0.68647 0.21332 0.0
C57 C 0.99198 0.70267 0.26969 0.0
C58 C 0.05273 0.74297 0.33003 0.0
C59 C 0.06863 0.7523 0.38406 0.0
C60 C 0.08238 0.7729 0.36847 0.0
C61 C 0.08025 0.78449 0.29869 0.0
C62 C 0.06607 0.77361 0.24248 0.0
C63 C 0.05234 0.75313 0.25823 0.0
P64 P 0.78915 0.03838 0.34413 0.0
H65 H 0.77232 0.02935 0.49813 0.0
H66 H 0.73444 0.01261 0.5459 0.0
H67 H 0.71606 0.98873 0.32253 0.0
H68 H 0.75413 1.00502 0.27586 0.0
H69 H 0.83947 0.05337 0.33354 0.0
H70 H 0.8729 0.0414 0.25251 0.0
H71 H 0.82938 0.98342 0.16304 0.0
H72 H 0.79564 0.99565 0.24454 0.0
H73 H 0.74012 0.05798 0.34454 0.0
H74 H 0.80311 0.06257 0.2021 0.0
O75 O 0.79953 0.05601 0.41287 0.0
H76 H 0.71577 0.07642 0.24867 0.0
H77 H 0.77928 0.08354 0.10756 0.0
C78 C 0.76644 0.01818 0.3833 0.0
C79 C 0.76059 0.01972 0.45979 0.0
C80 C 0.73859 0.01049 0.48698 0.0
C81 C 0.7218 0.99955 0.43822 0.0
C82 C 0.72849 0.9967 0.36241 0.0
C83 C 0.75054 0.00582 0.33544 0.0
C84 C 0.81506 0.02516 0.29658 0.0
C85 C 0.8372 0.03766 0.29809 0.0
C86 C 0.85629 0.03099 0.25092 0.0
C87 C 0.85381 0.01155 0.2009 0.0
C88 C 0.83194 0.99838 0.20134 0.0
C89 C 0.81263 1.00531 0.24817 0.0
C90 C 0.77315 0.05758 0.2791 0.0
C91 C 0.74887 0.06336 0.29287 0.0
C92 C 0.73495 0.07453 0.23782 0.0
C93 C 0.74525 0.08125 0.16857 0.0
C94 C 0.77036 0.07785 0.1586 0.0
C95 C 0.78414 0.06593 0.21312 0.0
P96 P 0.4642 0.78365 0.32581 0.0
H97 H 0.46023 0.75862 0.46839 0.0
H98 H 0.4727 0.71865 0.50776 0.0
H99 H 0.51749 0.71265 0.30966 0.0
H100 H 0.50309 0.75206 0.26787 0.0
H101 H 0.44445 0.82346 0.24225 0.0
H102 H 0.46103 0.8518 0.15192 0.0
H103 H 0.53271 0.82298 0.19171 0.0
H104 H 0.51557 0.794 0.28142 0.0
H105 H 0.41936 0.75802 0.36107 0.0
H106 H 0.46249 0.77343 0.16521 0.0
O107 O 0.44956 0.79816 0.39411 0.0
H108 H 0.39452 0.73 0.28729 0.0
H109 H 0.43776 0.74601 0.09171 0.0
C110 C 0.48124 0.75887 0.36607 0.0
C111 C 0.47339 0.7491 0.4345 0.0
C112 C 0.48059 0.72595 0.4571 0.0
C113 C 0.49603 0.71187 0.41195 0.0
C114 C 0.50513 0.72246 0.34554 0.0
C115 C 0.49744 0.74545 0.32221 0.0
C116 C 0.47866 0.80634 0.26785 0.0
C117 C 0.46381 0.82339 0.23223 0.0
C118 C 0.47341 0.8398 0.18071 0.0
C119 C 0.4983 0.83981 0.16382 0.0
C120 C 0.51339 0.82328 0.20212 0.0
C121 C 0.50365 0.80668 0.25373 0.0
C122 C 0.4424 0.76824 0.2683 0.0
C123 C 0.4229 0.75609 0.3017 0.0
C124 C 0.4088 0.74005 0.25966 0.0
C125 C 0.41404 0.73603 0.1836 0.0
C126 C 0.43286 0.74917 0.14967 0.0
C127 C 0.44709 0.76489 0.19185 0.0
P128 P 0.28045 0.45352 0.09733 0.0
H129 H 0.24692 0.4309 0.99348 0.0
H130 H 0.21074 0.44511 0.92828 0.0
H131 H 0.22592 0.51792 1.0002 0.0
H132 H 0.26199 0.50339 0.06829 0.0
H133 H 0.33207 0.44625 0.06691 0.0
H134 H 0.36752 0.45916 0.13648 0.0
H135 H 0.32397 0.51139 0.25567 0.0
H136 H 0.28818 0.49783 0.18626 0.0
H137 H 0.22939 0.44805 0.14249 0.0
H138 H 0.29973 0.44318 0.24779 0.0
O139 O 0.28946 0.42722 0.06107 0.0
H140 H 0.21023 0.44703 0.26364 0.0
H141 H 0.28026 0.44268 0.37111 0.0
C142 C 0.25768 0.46612 0.03458 0.0
C143 C 0.24292 0.45005 0.99405 0.0
C144 C 0.22195 0.4581 0.9576 0.0
C145 C 0.21535 0.48257 0.95953 0.0
C146 C 0.23058 0.49892 0.99772 0.0
C147 C 0.25135 0.49069 0.03601 0.0
C148 C 0.30727 0.471 0.12092 0.0
C149 C 0.33018 0.46114 0.10576 0.0
C150 C 0.35061 0.46855 0.14625 0.0
C151 C 0.34871 0.48607 0.20317 0.0
C152 C 0.32611 0.4975 0.2135 0.0
C153 C 0.30565 0.49012 0.1725 0.0
C154 C 0.26611 0.44687 0.18573 0.0
C155 C 0.24083 0.44641 0.19132 0.0
C156 C 0.22978 0.4455 0.26124 0.0
C157 C 0.24379 0.44496 0.32707 0.0
C158 C 0.26908 0.4433 0.32126 0.0
C159 C 0.28015 0.44379 0.25081 0.0
P160 P 0.04525 0.28666 0.11306 0.0
H161 H 0.0644 0.26254 0.97879 0.0
H162 H 0.05136 0.22602 0.91396 0.0
H163 H 0.98323 0.22862 0.03237 0.0
H164 H 0.99662 0.265 0.09824 0.0
H165 H 0.06151 0.33667 0.09222 0.0
H166 H 0.05029 0.37366 0.1573 0.0
H167 H 0.98763 0.33783 0.25008 0.0
H168 H 0.99888 0.30069 0.18375 0.0
H169 H 0.04816 0.23487 0.14733 0.0
H170 H 0.04567 0.3016 0.27256 0.0
O171 O 0.07399 0.2916 0.08837 0.0
H172 H 0.04028 0.2123 0.2614 0.0
H173 H 0.03711 0.27891 0.38706 0.0
C174 C 0.03149 0.26681 0.04356 0.0
C175 C 0.04624 0.25591 0.98884 0.0
C176 C 0.03876 0.23483 0.95157 0.0
C177 C 0.01639 0.22398 0.9686 0.0
C178 C 1.00077 0.23618 0.01857 0.0
C179 C 0.00825 0.25731 0.05564 0.0
C180 C 0.03113 0.31569 0.13289 0.0
C181 C 0.04481 0.33689 0.124 0.0
C182 C 0.03842 0.35815 0.16185 0.0
C183 C 0.0183 0.35866 0.21025 0.0
C184 C 1.00346 0.33798 0.2142 0.0
C185 C 0.00964 0.3168 0.17508 0.0
C186 C 0.04587 0.27006 0.2002 0.0
C187 C 0.04608 0.24474 0.19925 0.0
C188 C 0.04186 0.23179 0.26493 0.0
C189 C 0.0376 0.24394 0.33283 0.0
C190 C 0.03985 0.26917 0.3351 0.0
C191 C 0.04448 0.28212 0.26938 0.0
P192 P 0.22804 0.05962 0.06659 0.0
H193 H 0.23728 0.04678 0.90989 0.0
H194 H 0.27304 0.03106 0.84701 0.0
H195 H 0.30565 0.01527 0.06155 0.0
H196 H 0.26959 0.0314 0.12445 0.0
H197 H 0.17603 0.0688 0.06187 0.0
H198 H 0.14277 0.05691 0.1428 0.0
H199 H 0.19033 0.00815 0.26142 0.0
H200 H 0.22397 0.02037 0.1792 0.0
H201 H 0.27147 0.08866 0.05052 0.0
H202 H 0.22134 0.07122 0.2281 0.0
O203 O 0.21724 0.0784 1.00144 0.0
H204 H 0.30163 0.10037 0.14288 0.0
H205 H 0.25138 0.08317 0.32066 0.0
C206 C 0.25056 0.04034 0.02208 0.0
C207 C 0.25175 0.03931 0.94368 0.0
C208 C 0.27243 0.03033 0.90759 0.0
C209 C 0.29257 0.02206 0.94892 0.0
C210 C 0.29076 0.02183 0.0277 0.0
C211 C 0.26991 0.03069 0.06382 0.0
C212 C 0.20256 0.04526 0.11337 0.0
C213 C 0.1793 0.05498 0.1036 0.0
C214 C 0.16014 0.04816 0.1504 0.0
C215 C 0.16373 0.03158 0.20915 0.0
C216 C 0.1869 0.02111 0.21723 0.0
C217 C 0.2061 0.0278 0.16952 0.0
C218 C 0.24471 0.07781 0.13242 0.0
C219 C 0.26658 0.08828 0.10931 0.0
C220 C 0.28378 0.09522 0.16234 0.0
C221 C 0.2791 0.09196 0.23909 0.0
C222 C 0.25564 0.08528 0.26175 0.0
C223 C 0.23852 0.07816 0.20862 0.0
P224 P 0.47234 0.23909 0.15332 0.0
H225 H 0.43957 0.26345 0.04755 0.0
H226 H 0.4497 0.29591 0.96044 0.0
H227 H 0.52464 0.27406 0.96607 0.0
H228 H 0.51438 0.24121 0.05198 0.0
H229 H 0.44717 0.21446 0.2724 0.0
H230 H 0.45125 0.17476 0.32851 0.0
H231 H 0.50076 0.15384 0.15305 0.0
H232 H 0.4965 0.19432 0.09588 0.0
H233 H 0.48223 0.28892 0.18888 0.0
H234 H 0.51832 0.22029 0.21725 0.0
O235 O 0.44707 0.25176 0.18655 0.0
H236 H 0.51936 0.3098 0.22583 0.0
H237 H 0.55538 0.24134 0.25566 0.0
C238 C 0.47626 0.25004 0.05809 0.0
C239 C 0.45798 0.26464 0.02695 0.0
C240 C 0.46381 0.28343 0.97721 0.0
C241 C 0.48807 0.28798 0.95797 0.0
C242 C 0.50581 0.27123 0.98074 0.0
C243 C 0.49987 0.25216 0.02931 0.0
C244 C 0.47117 0.20739 0.17893 0.0
C245 C 0.45839 0.20125 0.24419 0.0
C246 C 0.46096 0.17853 0.27704 0.0
C247 C 0.47656 0.16122 0.24592 0.0
C248 C 0.48852 0.16679 0.1782 0.0
C249 C 0.48599 0.18984 0.1452 0.0
C250 C 0.49729 0.25306 0.2015 0.0
C251 C 0.49784 0.27832 0.20545 0.0
C252 C 0.51908 0.29022 0.22557 0.0
C253 C 0.54005 0.27702 0.24257 0.0
C254 C 0.53931 0.25173 0.24244 0.0
C255 C 0.51806 0.23977 0.22117 0.0
C256 C 0.96632 0.03086 0.54389 0.0
Eu257 Eu 0.99246 0.01685 0.65583 0.0
C258 C 0.95726 0.05551 0.53212 0.0
C259 C 0.95178 0.06997 0.5948 0.0
C260 C 0.95305 0.09511 0.58972 0.0
C261 C 0.9599 0.10595 0.52211 0.0
C262 C 0.96253 0.09166 0.45756 0.0
C263 C 0.96114 0.06653 0.46249 0.0
C264 C 0.97527 0.01141 0.79759 0.0
C265 C 0.01416 0.05777 0.76285 0.0
C266 C 0.05368 0.9899 0.89665 0.0
Eu267 Eu 0.03064 1.00109 0.77449 0.0
C268 C 0.05494 0.97263 0.95866 0.0
C269 C 0.06661 0.97951 0.02507 0.0
C270 C 0.07179 0.96233 0.08014 0.0
C271 C 0.06552 0.93802 0.06893 0.0
C272 C 0.05261 0.93146 1.00405 0.0
C273 C 0.04732 0.94866 0.9493 0.0
C274 C 0.0538 0.01433 0.64352 0.0
C275 C 1.00599 0.9596 0.67206 0.0
O276 O 0.98996 0.02937 0.54079 0.0
O277 O 0.95718 0.0189 0.60068 0.0
O278 O 0.96871 0.02837 0.75187 0.0
O279 O 0.99039 0.99744 0.76622 0.0
O280 O 1.0055 0.05378 0.69485 0.0
O281 O 0.02228 0.03994 0.80538 0.0
O282 O 0.03551 1.00515 0.89548 0.0
O283 O 0.05931 0.98148 0.8303 0.0
O284 O 0.06491 0.00728 0.70329 0.0
O285 O 0.03161 0.01453 0.6585 0.0
O286 O 0.01697 0.96448 0.73642 0.0
O287 O 0.99719 0.97682 0.62803 0.0
H288 H 0.94904 0.06192 0.64946 0.0
H289 H 0.95115 0.10585 0.64014 0.0
H290 H 0.96784 0.09982 0.40484 0.0
H291 H 0.9657 0.05575 0.41383 0.0
H292 H 0.07268 0.99796 0.03288 0.0
H293 H 0.08174 0.96782 0.12962 0.0
H294 H 0.04717 0.91289 0.99482 0.0
H295 H 0.03819 0.94307 0.89842 0.0
C296 C 0.4735 0.95919 0.49734 0.0
Eu297 Eu 0.49651 0.97395 0.61469 0.0
C298 C 0.45239 0.97097 0.46184 0.0
C299 C 0.4297 0.97055 0.49744 0.0
C300 C 0.41189 0.98727 0.47799 0.0
C301 C 0.41616 1.00437 0.42119 0.0
C302 C 0.43798 1.00319 0.3807 0.0
C303 C 0.45591 0.98664 0.40079 0.0
C304 C 0.51342 0.94976 0.73589 0.0
C305 C 0.45667 0.99761 0.73193 0.0
C306 C 0.53525 0.02076 0.87006 0.0
Eu307 Eu 0.51386 0.00664 0.74899 0.0
C308 C 0.55834 0.03378 0.88162 0.0
C309 C 0.55839 0.05723 0.91164 0.0
C310 C 0.58012 0.07003 0.91933 0.0
C311 C 0.60226 0.05954 0.89753 0.0
C312 C 0.60208 0.03605 0.8675 0.0
C313 C 0.58043 0.02339 0.85931 0.0
C314 C 0.50528 0.03436 0.62388 0.0
C315 C 0.55304 0.98741 0.62254 0.0
O316 O 0.49369 0.97159 0.49348 0.0
O317 O 0.46999 0.94977 0.56401 0.0
O318 O 0.51604 0.9424 0.66722 0.0
O319 O 0.50062 0.96871 0.73764 0.0
O320 O 0.46157 0.98921 0.66387 0.0
O321 O 0.47408 1.00356 0.77964 0.0
O322 O 0.53696 0.99863 0.84409 0.0
O323 O 0.51772 0.03317 0.83858 0.0
O324 O 0.51217 0.04323 0.68767 0.0
O325 O 0.50342 0.01194 0.63206 0.0
O326 O 0.54941 0.99646 0.69052 0.0
O327 O 0.53508 0.97979 0.57965 0.0
H328 H 0.42622 0.95841 0.54378 0.0
H329 H 0.39531 0.98755 0.51042 0.0
H330 H 0.44154 0.01556 0.33495 0.0
H331 H 0.47312 0.98717 0.37162 0.0
H332 H 0.54158 0.06571 0.92867 0.0
H333 H 0.57956 0.08813 0.94224 0.0
H334 H 0.61876 0.02708 0.85183 0.0
H335 H 0.58113 1.00541 0.8355 0.0
C336 C 0.54672 0.4741 0.50491 0.0
Eu337 Eu 0.5235 0.48801 0.6235 0.0
C338 C 0.56236 0.45347 0.48646 0.0
C339 C 0.58305 0.45677 0.44202 0.0
C340 C 0.59693 0.43686 0.41975 0.0
C341 C 0.5901 0.41329 0.4409 0.0
C342 C 0.56997 0.41039 0.48875 0.0
C343 C 0.55645 0.43025 0.51182 0.0
C344 C 0.54547 0.49425 0.75857 0.0
C345 C 0.50169 0.45231 0.74431 0.0
C346 C 0.47624 0.52857 0.87773 0.0
Eu347 Eu 0.49092 0.51063 0.75117 0.0
C348 C 0.4592 0.54696 0.90446 0.0
C349 C 0.43854 0.55331 0.86301 0.0
C350 C 0.42349 0.57203 0.88762 0.0
C351 C 0.429 0.58479 0.95369 0.0
C352 C 0.44955 0.57796 0.99537 0.0
C353 C 0.46443 0.55919 0.97105 0.0
C354 C 0.46344 0.5 0.62671 0.0
C355 C 0.50798 0.54587 0.61813 0.0
O356 O 0.52379 0.4691 0.51716 0.0
O357 O 0.55565 0.48972 0.55264 0.0
O358 O 0.54986 0.47633 0.71383 0.0
O359 O 0.53057 0.50865 0.72857 0.0
O360 O 0.50717 0.454 0.6723 0.0
O361 O 0.4987 0.47175 0.78693 0.0
O362 O 0.49516 0.53673 0.84131 0.0
O363 O 0.46688 0.50909 0.84761 0.0
O364 O 0.45456 0.50983 0.68682 0.0
O365 O 0.48552 0.4964 0.63866 0.0
O366 O 0.49848 0.54493 0.68626 0.0
O367 O 0.5169 0.52653 0.58387 0.0
H368 H 0.58811 0.47467 0.42297 0.0
H369 H 0.61247 0.43987 0.38391 0.0
H370 H 0.5636 0.39268 0.50523 0.0
H371 H 0.54078 0.42727 0.54722 0.0
H372 H 0.4343 0.54409 0.81111 0.0
H373 H 0.40776 0.57674 0.85444 0.0
H374 H 0.45477 0.5877 0.04542 0.0
H375 H 0.48042 0.55463 1.00333 0.0
C376 C 0.03948 0.55309 0.5287 0.0
Eu377 Eu 0.01213 0.53544 0.63159 0.0
C378 C 0.06307 0.54196 0.51236 0.0
C379 C 0.08388 0.55603 0.50119 0.0
C380 C 0.10687 0.54525 0.5038 0.0
C381 C 0.10931 0.52036 0.51948 0.0
C382 C 0.08828 0.5065 0.52977 0.0
C383 C 0.06557 0.51704 0.52491 0.0
C384 C 0.993 0.55755 0.7533 0.0
C385 C 0.05154 0.51063 0.74704 0.0
C386 C 0.97481 0.48382 0.87895 0.0
Eu387 Eu 0.99438 0.50056 0.75756 0.0
C388 C 0.95527 0.46675 0.89581 0.0
C389 C 0.93743 0.46153 0.84217 0.0
C390 C 0.91814 0.44628 0.86026 0.0
C391 C 0.91653 0.43588 0.932 0.0
C392 C 0.93503 0.44039 0.98437 0.0
C393 C 0.95424 0.45576 0.96637 0.0
C394 C 1.00295 0.47467 0.62881 0.0
C395 C 0.95627 0.52037 0.62825 0.0
O396 O 0.02053 0.53971 0.51284 0.0
O397 O 0.03816 0.56275 0.59554 0.0
O398 O 0.99019 0.56507 0.68484 0.0
O399 O 1.00664 0.5391 0.75491 0.0
O400 O 0.04686 0.52046 0.68122 0.0
O401 O 0.03395 0.50321 0.79172 0.0
O402 O 0.96816 0.50424 0.84751 0.0
O403 O 0.99428 0.47443 0.8487 0.0
O404 O 0.99556 0.46495 0.69086 0.0
O405 O 1.00556 0.4969 0.64051 0.0
O406 O 0.95921 0.51102 0.69644 0.0
O407 O 0.97462 0.52883 0.58838 0.0
H408 H 0.0824 0.57537 0.49316 0.0
H409 H 0.12264 0.55645 0.49429 0.0
H410 H 0.08922 0.48752 0.54424 0.0
H411 H 0.04995 0.50581 0.5364 0.0
H412 H 0.93816 0.46965 0.78695 0.0
H413 H 0.9042 0.44301 0.81874 0.0
H414 H 0.9341 0.43292 0.04042 0.0
H415 H 0.96798 0.45951 0.00813 0.0
H416 H 0.16647 0.02696 0.36327 0.0
H417 H 0.11523 0.02528 0.17892 0.0
H418 H 0.08152 0.0213 0.26904 0.0
H419 H 0.13466 0.98289 0.48078 0.0
H420 H 0.14217 0.99839 0.56648 0.0
H421 H 0.16221 1.00028 0.487 0.0
H422 H 0.15979 0.047 0.49225 0.0
H423 H 0.13952 0.04525 0.57112 0.0
H424 H 0.13061 0.06157 0.48816 0.0
H425 H 0.05288 0.01913 0.38093 0.0
H426 H 0.03245 0.01627 0.5042 0.0
H427 H 0.1022 0.01888 0.61505 0.0
C428 C 0.14822 0.0253 0.34163 0.0
C429 C 0.14364 0.02655 0.26359 0.0
C430 C 0.11932 0.0247 0.23824 0.0
C431 C 0.09999 0.02237 0.2891 0.0
C432 C 0.10512 0.02179 0.36558 0.0
C433 C 0.12868 0.02294 0.39171 0.0
C434 C 0.12928 0.02214 0.47672 0.0
C435 C 0.14288 0.99958 0.50436 0.0
C436 C 0.14046 0.04537 0.50893 0.0
C437 C 0.10242 0.02055 0.49435 0.0
C438 C 0.08874 0.02042 0.42954 0.0
C439 C 0.06346 0.01923 0.43197 0.0
C440 C 0.05194 0.01785 0.50228 0.0
C441 C 0.06562 0.01768 0.5693 0.0
C442 C 0.09119 0.0191 0.56482 0.0
H443 H 0.4876 0.1566 0.3942 0.0
H444 H 0.47621 0.11424 0.19315 0.0
H445 H 0.48167 0.07656 0.26721 0.0
H446 H 0.53397 0.11886 0.47403 0.0
H447 H 0.52366 0.12346 0.56879 0.0
H448 H 0.51879 0.14653 0.49923 0.0
H449 H 0.47274 0.14579 0.5277 0.0
H450 H 0.47745 0.12262 0.59708 0.0
H451 H 0.45641 0.11764 0.52141 0.0
H452 H 0.48688 0.04314 0.3681 0.0
H453 H 0.49467 0.01823 0.48129 0.0
H454 H 0.50367 0.08334 0.6128 0.0
C455 C 0.48621 0.13939 0.36562 0.0
C456 C 0.48127 0.13834 0.28793 0.0
C457 C 0.48003 0.11547 0.25253 0.0
C458 C 0.48298 0.094 0.29431 0.0
C459 C 0.48746 0.09573 0.37126 0.0
C460 C 0.48933 0.11795 0.40613 0.0
C461 C 0.49468 0.11524 0.4889 0.0
C462 C 0.51923 0.1267 0.50888 0.0
C463 C 0.47409 0.12595 0.53656 0.0
C464 C 0.49552 0.088 0.49574 0.0
C465 C 0.49111 0.07692 0.42764 0.0
C466 C 0.49054 0.05175 0.42135 0.0
C467 C 0.49492 0.03769 0.48592 0.0
C468 C 0.4999 0.0488 0.55568 0.0
C469 C 0.50007 0.07428 0.56019 0.0
H470 H 0.3477 0.49429 0.35618 0.0
H471 H 0.39745 0.48773 0.16884 0.0
H472 H 0.43201 0.49039 0.25614 0.0
H473 H 0.38443 0.53786 0.4624 0.0
H474 H 0.37614 0.52493 0.55151 0.0
H475 H 0.3554 0.52337 0.47372 0.0
H476 H 0.35336 0.47686 0.48845 0.0
H477 H 0.37431 0.47824 0.56565 0.0
H478 H 0.38097 0.45947 0.48575 0.0
H479 H 0.46147 0.49134 0.36565 0.0
H480 H 0.48309 0.49369 0.48706 0.0
H481 H 0.41442 0.50129 0.60236 0.0
C482 C 0.36582 0.49396 0.33302 0.0
C483 C 0.36965 0.49067 0.25506 0.0
C484 C 0.39384 0.48986 0.22809 0.0
C485 C 0.41367 0.49146 0.27734 0.0
C486 C 0.4092 0.4941 0.3538 0.0
C487 C 0.38586 0.49568 0.38141 0.0
C488 C 0.38599 0.49828 0.46614 0.0
C489 C 0.37483 0.52256 0.48982 0.0
C490 C 0.37288 0.47694 0.50368 0.0
C491 C 0.41302 0.49763 0.48198 0.0
C492 C 0.42611 0.49511 0.41645 0.0
C493 C 0.45136 0.49344 0.41718 0.0
C494 C 0.46351 0.4946 0.48645 0.0
C495 C 0.45048 0.49752 0.55412 0.0
C496 C 0.42489 0.49907 0.5515 0.0
H497 H 0.00748 0.35852 0.361 0.0
H498 H 0.02085 0.40698 0.17449 0.0
H499 H 0.01793 0.442 0.26019 0.0
H500 H 0.96444 0.39716 0.46066 0.0
H501 H 0.97579 0.38868 0.55164 0.0
H502 H 0.97762 0.3677 0.47469 0.0
H503 H 0.02391 0.36389 0.49548 0.0
H504 H 0.02225 0.385 0.57204 0.0
H505 H 0.04244 0.39072 0.49464 0.0
H506 H 0.01446 0.47199 0.36835 0.0
H507 H 0.0105 0.49393 0.48864 0.0
H508 H 1.00052 0.42588 0.60469 0.0
C509 C 0.00929 0.37652 0.33783 0.0
C510 C 0.01422 0.37994 0.26061 0.0
C511 C 0.01711 0.40384 0.23325 0.0
C512 C 0.01543 0.42386 0.28157 0.0
C513 C 0.01096 0.41982 0.35752 0.0
C514 C 0.00786 0.39671 0.38543 0.0
C515 C 1.00407 0.39718 0.46968 0.0
C516 C 0.97898 0.38708 0.49037 0.0
C517 C 0.02438 0.38338 0.51033 0.0
C518 C 1.00558 0.42413 0.48496 0.0
C519 C 0.00949 0.43692 0.41954 0.0
C520 C 0.01151 0.46208 0.41983 0.0
C521 C 0.00944 0.47443 0.48854 0.0
C522 C 1.00563 0.46167 0.55626 0.0
C523 C 1.0036 0.43618 0.55396 0.0
H524 H 0.87828 0.04357 0.11161 0.0
H525 H 0.87361 0.9673 0.16489 0.0
H526 H 0.90661 0.95884 0.07411 0.0
H527 H 0.88745 0.03592 0.916 0.0
H528 H 0.90777 0.06128 0.90745 0.0
H529 H 0.88504 0.06108 0.9797 0.0
H530 H 0.91838 0.0676 0.07993 0.0
H531 H 0.94127 0.0676 0.00791 0.0
H532 H 0.94343 0.04678 0.0853 0.0
H533 H 0.94083 0.95916 0.97529 0.0
H534 H 0.9691 0.96773 0.8701 0.0
H535 H 0.94951 0.04347 0.88013 0.0
C536 C 0.8844 0.02511 0.10494 0.0
C537 C 0.87354 0.00611 0.14607 0.0
C538 C 0.88167 0.98213 0.13409 0.0
C539 C 0.90051 0.9772 0.08298 0.0
C540 C 0.91093 0.99641 0.04365 0.0
C541 C 0.90291 0.01987 0.05366 0.0
C542 C 0.91593 0.0372 1.0017 0.0
C543 C 0.89798 0.04959 0.94803 0.0
C544 C 0.93062 0.0559 0.0464 0.0
C545 C 0.93244 0.0199 0.96032 0.0
C546 C 0.92966 0.99648 0.98583 0.0
C547 C 0.94307 0.97746 0.95505 0.0
C548 C 0.95919 0.98247 0.89564 0.0
C549 C 0.96144 0.00623 0.86702 0.0
C550 C 0.94815 0.02512 0.90087 0.0
H551 H 0.48406 0.88643 0.12727 0.0
H552 H 0.53361 0.82946 0.05999 0.0
H553 H 0.54618 0.85389 0.95134 0.0
H554 H 0.46309 0.89969 0.94736 0.0
H555 H 0.46048 0.93183 0.96154 0.0
H556 H 0.45784 0.91157 0.03999 0.0
H557 H 0.49241 0.93435 0.10815 0.0
H558 H 0.49514 0.95472 0.02974 0.0
H559 H 0.52123 0.93816 0.06212 0.0
H560 H 0.5499 0.88205 0.84199 0.0
H561 H 0.54474 0.91206 0.74082 0.0
H562 H 0.49254 0.95091 0.87658 0.0
C563 C 0.49775 0.87912 0.09026 0.0
C564 C 0.50788 0.8559 0.10303 0.0
C565 C 0.52586 0.84729 0.05294 0.0
C566 C 0.53305 0.86102 0.99056 0.0
C567 C 0.52224 0.88347 0.97879 0.0
C568 C 0.50507 0.89257 0.02747 0.0
C569 C 0.495 0.91644 0.99907 0.0
C570 C 0.46748 0.91477 0.98622 0.0
C571 C 0.50133 0.93714 0.05299 0.0
C572 C 0.50861 0.91896 0.92557 0.0
C573 C 0.52442 0.89984 0.91547 0.0
C574 C 0.53785 0.89727 0.84984 0.0
C575 C 0.53477 0.91438 0.79261 0.0
C576 C 0.5184 0.93389 0.80105 0.0
C577 C 0.50551 0.93643 0.8691 0.0
H578 H 0.63849 0.45956 0.08363 0.0
H579 H 0.64004 0.53509 0.14775 0.0
H580 H 0.60927 0.5442 0.05046 0.0
H581 H 0.63366 0.46976 0.88685 0.0
H582 H 0.61406 0.44423 0.87072 0.0
H583 H 0.63515 0.44376 0.94761 0.0
H584 H 0.59985 0.43529 0.03969 0.0
H585 H 0.5786 0.43589 0.96307 0.0
H586 H 0.57432 0.45559 0.04236 0.0
H587 H 0.5774 0.54462 0.94541 0.0
H588 H 0.55083 0.53699 0.83569 0.0
H589 H 0.57201 0.46158 0.83804 0.0
C590 C 0.63218 0.47799 0.07778 0.0
C591 C 0.64152 0.4966 0.1239 0.0
C592 C 0.63317 0.52056 0.1131 0.0
C593 C 0.61559 0.52586 0.05826 0.0
C594 C 0.60666 0.50704 0.01403 0.0
C595 C 0.6149 0.48361 0.02284 0.0
C596 C 0.6034 0.46679 0.96603 0.0
C597 C 0.62272 0.45548 0.91477 0.0
C598 C 0.58814 0.44724 1.00514 0.0
C599 C 0.58748 0.48437 0.92343 0.0
C600 C 0.58927 0.50745 0.95246 0.0
C601 C 0.57598 0.52662 0.92223 0.0
C602 C 0.56086 0.52212 0.86011 0.0
C603 C 0.55945 0.49875 0.82822 0.0
C604 C 0.57279 0.47968 0.86103 0.0
H605 H 0.02321 0.63044 0.12882 0.0
H606 H 0.96353 0.67811 0.07153 0.0
H607 H 0.95262 0.65117 0.96675 0.0
H608 H 0.04125 0.61806 0.94272 0.0
H609 H 0.04916 0.58695 0.95998 0.0
H610 H 0.05091 0.60869 0.03475 0.0
H611 H 0.02242 0.58214 0.11554 0.0
H612 H 0.02051 0.56033 0.04077 0.0
H613 H 0.99326 0.57339 0.07894 0.0
H614 H 0.95041 0.62124 0.86104 0.0
H615 H 0.95691 0.59045 0.76293 0.0
H616 H 0.01773 0.56159 0.88781 0.0
C617 C 0.00777 0.63524 0.09453 0.0
C618 C 0.99421 0.65655 0.10911 0.0
C619 C 0.97401 0.66183 0.06283 0.0
C620 C 0.96772 0.64664 1.00275 0.0
C621 C 0.98167 0.62605 0.98951 0.0
C622 C 1.00122 0.62026 0.03428 0.0
C623 C 0.01392 0.59767 0.00576 0.0
C624 C 0.04037 0.60318 0.98454 0.0
C625 C 0.01243 0.57717 0.06372 0.0
C626 C 0.99878 0.59195 0.93693 0.0
C627 C 0.98019 0.60852 0.92896 0.0
C628 C 0.96468 0.60799 0.86737 0.0
C629 C 0.96851 0.59042 0.8119 0.0
C630 C 0.98758 0.57344 0.81818 0.0
C631 C 1.00265 0.57397 0.88235 0.0
H632 H 0.05402 0.20144 0.39037 0.0
H633 H 0.99752 0.25509 0.41497 0.0
H634 H 0.97399 0.22683 0.49318 0.0
H635 H 0.01949 0.15621 0.35221 0.0
H636 H 0.03514 0.13259 0.40223 0.0
H637 H 0.05141 0.1589 0.37239 0.0
H638 H 0.06522 0.16717 0.50855 0.0
H639 H 0.04917 0.1406 0.53973 0.0
H640 H 0.043 0.16948 0.5822 0.0
H641 H 0.95223 0.1899 0.53862 0.0
H642 H 0.93563 0.14834 0.55138 0.0
H643 H 1.00574 0.11883 0.49312 0.0
C644 C 0.03723 0.20755 0.41544 0.0
C645 C 0.0276 0.23036 0.39713 0.0
C646 C 1.00541 0.2378 0.42954 0.0
C647 C 0.99189 0.22182 0.47393 0.0
C648 C 1.00104 0.19869 0.48638 0.0
C649 C 0.02357 0.19177 0.45953 0.0
C650 C 0.02769 0.16497 0.46958 0.0
C651 C 0.03376 0.15247 0.39466 0.0
C652 C 0.04744 0.16028 0.52853 0.0
C653 C 1.00312 0.15753 0.49862 0.0
C654 C 0.98825 0.17722 0.51096 0.0
C655 C 0.96392 0.1744 0.53099 0.0
C656 C 0.95456 0.15086 0.53751 0.0
C657 C 0.96946 0.13074 0.52209 0.0
C658 C 0.99407 0.13414 0.50455 0.0
H659 H 0.28587 0.05454 0.33336 0.0
H660 H 0.31986 0.12044 0.25471 0.0
H661 H 0.35864 0.10732 0.31124 0.0
H662 H 0.32404 0.04529 0.50908 0.0
H663 H 0.32423 0.01315 0.49289 0.0
H664 H 0.29822 0.0309 0.46632 0.0
H665 H 0.30165 0.0141 0.33128 0.0
H666 H 0.32797 0.99691 0.35631 0.0
H667 H 0.32949 0.01819 0.27996 0.0
H668 H 0.39489 0.08345 0.3544 0.0
H669 H 0.42499 0.05188 0.38402 0.0
H670 H 0.36668 1.00076 0.42382 0.0
C671 C 0.30104 0.06695 0.33187 0.0
C672 C 0.29977 0.08872 0.29091 0.0
C673 C 0.32042 0.10383 0.28679 0.0
C674 C 0.34248 0.09651 0.31873 0.0
C675 C 0.34345 0.0741 0.35457 0.0
C676 C 0.32311 0.05971 0.36216 0.0
C677 C 0.32942 0.03488 0.39163 0.0
C678 C 0.31832 0.03083 0.46963 0.0
C679 C 0.32169 0.01488 0.33648 0.0
C680 C 0.35662 0.03708 0.39596 0.0
C681 C 0.3644 0.05995 0.37615 0.0
C682 C 0.38894 0.0656 0.37108 0.0
C683 C 0.4059 0.04742 0.38687 0.0
C684 C 0.39822 0.02373 0.406 0.0
C685 C 0.37321 0.01873 0.41097 0.0
H686 H 0.56146 0.28363 0.37714 0.0
H687 H 0.56699 0.30183 0.14249 0.0
H688 H 0.59618 0.33407 0.17226 0.0
H689 H 0.55385 0.33591 0.43902 0.0
H690 H 0.57128 0.33513 0.52445 0.0
H691 H 0.56042 0.30757 0.48481 0.0
H692 H 0.6041 0.29065 0.48048 0.0
H693 H 0.61521 0.31839 0.52092 0.0
H694 H 0.62765 0.3075 0.43389 0.0
H695 H 0.61015 0.37136 0.22606 0.0
H696 H 0.60688 0.409 0.29656 0.0
H697 H 0.59671 0.36818 0.50164 0.0
C698 C 0.57021 0.2935 0.33227 0.0
C699 C 0.56258 0.29024 0.25781 0.0
C700 C 0.57317 0.30395 0.19976 0.0
C701 C 0.58983 0.32221 0.2163 0.0
C702 C 0.59577 0.32642 0.29117 0.0
C703 C 0.58671 0.31203 0.34843 0.0
C704 C 0.59137 0.32341 0.4243 0.0
C705 C 0.56783 0.32566 0.47067 0.0
C706 C 0.61074 0.30914 0.46742 0.0
C707 C 0.60107 0.34783 0.40019 0.0
C708 C 0.60461 0.34877 0.32345 0.0
C709 C 0.60841 0.37066 0.28641 0.0
C710 C 0.60659 0.39215 0.32734 0.0
C711 C 0.60105 0.39162 0.4048 0.0
C712 C 0.60054 0.36913 0.44226 0.0
H713 H 0.20233 0.42519 0.38048 0.0
H714 H 0.25738 0.47832 0.43135 0.0
H715 H 0.22946 0.49857 0.51844 0.0
H716 H 0.16121 0.46308 0.34606 0.0
H717 H 0.13508 0.44753 0.3829 0.0
H718 H 0.16112 0.4306 0.35492 0.0
H719 H 0.16443 0.41135 0.48681 0.0
H720 H 0.13777 0.42783 0.51518 0.0
H721 H 0.16537 0.43043 0.56858 0.0
H722 H 0.193 0.52013 0.56487 0.0
H723 H 0.15263 0.53922 0.57145 0.0
H724 H 0.12085 0.47458 0.47511 0.0
C725 C 0.20883 0.44026 0.41354 0.0
C726 C 0.23182 0.45026 0.39931 0.0
C727 C 0.2399 0.47016 0.4423 0.0
C728 C 0.22405 0.48187 0.49175 0.0
C729 C 0.20036 0.47328 0.4978 0.0
C730 C 0.19293 0.4525 0.46095 0.0
C731 C 0.16565 0.45003 0.46165 0.0
C732 C 0.1552 0.44772 0.38169 0.0
C733 C 0.15785 0.42864 0.51103 0.0
C734 C 0.15884 0.47377 0.49746 0.0
C735 C 0.17896 0.48648 0.52114 0.0
C736 C 0.17708 0.51006 0.54821 0.0
C737 C 0.15411 0.52095 0.55038 0.0
C738 C 0.13343 0.50847 0.52363 0.0
C739 C 0.13602 0.48445 0.4982 0.0
H740 H 0.10003 0.80479 0.17299 0.0
H741 H 0.077 0.82158 0.39935 0.0
H742 H 0.07878 0.86495 0.37018 0.0
H743 H 0.13691 0.86269 0.13747 0.0
H744 H 0.12594 0.8638 0.0424 0.0
H745 H 0.13088 0.83504 0.08747 0.0
H746 H 0.08657 0.823 0.0575 0.0
H747 H 0.08125 0.85176 0.01414 0.0
H748 H 0.06215 0.8419 0.09018 0.0
H749 H 0.07267 0.90498 0.30903 0.0
H750 H 0.06201 0.93829 0.22236 0.0
H751 H 0.08701 0.89529 0.03474 0.0
C752 C 0.09635 0.81765 0.21723 0.0
C753 C 0.08852 0.80977 0.28839 0.0
C754 C 0.08358 0.82711 0.3448 0.0
C755 C 0.08435 0.85187 0.32858 0.0
C756 C 0.09025 0.85899 0.25596 0.0
C757 C 0.09663 0.84237 0.20147 0.0
C758 C 0.09832 0.85407 0.12505 0.0
C759 C 0.12458 0.8539 0.09643 0.0
C760 C 0.08104 0.84196 0.06849 0.0
C761 C 0.0902 0.87939 0.14413 0.0
C762 C 0.08625 0.88213 0.22013 0.0
C763 C 0.07636 0.90328 0.24971 0.0
C764 C 0.07025 0.92203 0.2002 0.0
C765 C 0.07362 0.91921 0.12211 0.0
C766 C 0.08418 0.89782 0.09427 0.0
H767 H 0.7012 0.105 0.1743 0.0
H768 H 0.75217 0.07297 0.01756 0.0
H769 H 0.72172 0.07546 0.91852 0.0
H770 H 0.65732 0.06737 0.13066 0.0
H771 H 0.63215 0.08783 0.14166 0.0
H772 H 0.65975 0.09321 0.19171 0.0
H773 H 0.66268 0.13604 0.13356 0.0
H774 H 0.63484 0.13077 0.08319 0.0
H775 H 0.6618 0.13961 0.03319 0.0
H776 H 0.68411 0.07152 0.84533 0.0
H777 H 0.64297 0.05914 0.80859 0.0
H778 H 0.61498 0.08743 0.01813 0.0
C779 C 0.70627 0.09897 0.11887 0.0
C780 C 0.72928 0.08863 0.10485 0.0
C781 C 0.73503 0.08146 0.0306 0.0
C782 C 0.71769 0.08272 0.97341 0.0
C783 C 0.69456 0.09103 0.99098 0.0
C784 C 0.68883 0.09913 0.06209 0.0
C785 C 0.6617 0.10195 0.07163 0.0
C786 C 0.6522 0.08666 0.13773 0.0
C787 C 0.65486 0.12869 0.08091 0.0
C788 C 0.653 0.09226 0.99704 0.0
C789 C 0.67224 0.08718 0.95001 0.0
C790 C 0.66889 0.07579 0.88119 0.0
C791 C 0.64546 0.06854 0.86123 0.0
C792 C 0.62573 0.07203 0.91093 0.0
C793 C 0.62952 0.08493 0.97821 0.0
H794 H 0.40861 0.69005 0.23341 0.0
H795 H 0.39675 0.73565 0.03959 0.0
H796 H 0.38939 0.69944 0.96214 0.0
H797 H 0.44341 0.65074 0.15158 0.0
H798 H 0.43304 0.62366 0.19774 0.0
H799 H 0.42952 0.65235 0.24292 0.0
H800 H 0.38331 0.64532 0.25542 0.0
H801 H 0.38669 0.61621 0.2112 0.0
H802 H 0.36567 0.63798 0.17354 0.0
H803 H 0.39428 0.65966 0.90117 0.0
H804 H 0.41002 0.61999 0.86258 0.0
H805 H 0.41723 0.59929 0.09602 0.0
C806 C 0.40305 0.69243 0.1757 0.0
C807 C 0.40297 0.71558 0.14253 0.0
C808 C 0.39673 0.71802 0.06602 0.0
C809 C 0.39241 0.69756 0.02177 0.0
C810 C 0.39412 0.67482 0.05513 0.0
C811 C 0.39886 0.67216 0.13085 0.0
C812 C 0.40388 0.64602 0.15064 0.0
C813 C 0.42894 0.64305 0.18781 0.0
C814 C 0.38367 0.63578 0.20065 0.0
C815 C 0.40322 0.63475 0.07346 0.0
C816 C 0.39688 0.65149 0.01935 0.0
C817 C 0.39842 0.64616 0.94315 0.0
C818 C 0.40737 0.62348 0.92169 0.0
C819 C 0.41484 0.60645 0.97628 0.0
C820 C 0.41168 0.61191 0.05296 0.0
H821 H 0.78182 0.43775 0.05907 0.0
H822 H 0.79842 0.37721 0.20466 0.0
H823 H 0.83663 0.37062 0.1356 0.0
H824 H 0.81246 0.41262 0.88284 0.0
H825 H 0.82248 0.44255 0.85777 0.0
H826 H 0.794 0.43846 0.90568 0.0
H827 H 0.80812 0.4682 0.00891 0.0
H828 H 0.8366 0.47214 0.96227 0.0
H829 H 0.83595 0.46225 0.0585 0.0
H830 H 0.87638 0.37661 0.07086 0.0
H831 H 0.91331 0.39372 0.01291 0.0
H832 H 0.86998 0.44958 0.90801 0.0
C833 C 0.79277 0.42226 0.07405 0.0
C834 C 0.78702 0.40793 0.13709 0.0
C835 C 0.80248 0.38849 0.1567 0.0
C836 C 0.82413 0.3845 0.11739 0.0
C837 C 0.82984 0.39982 0.05786 0.0
C838 C 0.81432 0.41805 0.03537 0.0
C839 C 0.82594 0.43419 0.97713 0.0
C840 C 0.81295 0.4318 0.90135 0.0
C841 C 0.82671 0.46073 1.00335 0.0
C842 C 0.85098 0.42323 0.97403 0.0
C843 C 0.85279 0.4031 0.01969 0.0
C844 C 0.875 0.39189 0.03322 0.0
C845 C 0.89589 0.40181 1.00057 0.0
C846 C 0.89439 0.42277 0.95532 0.0
C847 C 0.87155 0.43309 0.94033 0.0
H848 H 0.02447 0.20209 0.82905 0.0
H849 H 0.99714 0.18773 0.05295 0.0
H850 H 0.99156 0.14502 0.02023 0.0
H851 H 0.98348 0.15841 0.73189 0.0
H852 H 1.00622 0.14895 0.6658 0.0
H853 H 1.00669 0.17929 0.70242 0.0
H854 H 0.05067 0.17325 0.74771 0.0
H855 H 0.05055 0.14297 0.71084 0.0
H856 H 0.05784 0.14809 0.80801 0.0
H857 H 0.9927 0.10353 0.97061 0.0
H858 H 0.99791 0.06522 0.90284 0.0
H859 H 0.02263 0.10438 0.7064 0.0
C860 C 0.01697 0.19 0.87075 0.0
C861 C 0.01095 0.1986 0.94363 0.0
C862 C 1.00136 0.182 0.99643 0.0
C863 C 0.99826 0.15755 0.97851 0.0
C864 C 1.00458 0.14967 0.90704 0.0
C865 C 0.0134 0.16534 0.85332 0.0
C866 C 0.01924 0.15161 0.78125 0.0
C867 C 1.00293 0.16009 0.71655 0.0
C868 C 0.04618 0.15413 0.76079 0.0
C869 C 0.01311 0.12575 0.8042 0.0
C870 C 1.00465 0.12528 0.87713 0.0
C871 C 0.99903 0.1037 0.91323 0.0
C872 C 1.00221 0.08198 0.8743 0.0
C873 C 0.01072 0.08172 0.79942 0.0
C874 C 0.0159 0.10401 0.76338 0.0
H875 H 0.3406 0.03051 0.98968 0.0
H876 H 0.29658 0.99664 0.81752 0.0
H877 H 0.33341 0.98728 0.74545 0.0
H878 H 0.38424 0.05719 0.86756 0.0
H879 H 0.40997 0.05154 0.92727 0.0
H880 H 0.38028 0.05519 0.96765 0.0
H881 H 0.38414 0.01363 0.03314 0.0
H882 H 0.41393 0.00993 0.99345 0.0
H883 H 0.39105 0.98722 0.97807 0.0
H884 H 0.37439 0.98316 0.68835 0.0
H885 H 0.41731 0.98202 0.65322 0.0
H886 H 0.43646 0.01703 0.86264 0.0
C887 C 0.3387 0.02077 0.93745 0.0
C888 C 0.31541 0.01455 0.90928 0.0
C889 C 0.31396 1.00206 0.84002 0.0
C890 C 0.33487 0.99653 0.79867 0.0
C891 C 0.35735 1.00335 0.82715 0.0
C892 C 0.35953 0.01495 0.89527 0.0
C893 C 0.38606 0.02033 0.91232 0.0
C894 C 0.39038 0.04769 0.91909 0.0
C895 C 0.39428 0.00698 0.98347 0.0
C896 C 0.39837 0.01009 0.84282 0.0
C897 C 0.38133 1.00048 0.79456 0.0
C898 C 0.3879 0.99047 0.72602 0.0
C899 C 0.41248 0.98999 0.70637 0.0
C900 C 0.43058 0.99936 0.75478 0.0
C901 C 0.42325 0.00961 0.82418 0.0
H902 H 0.47024 0.31288 0.83383 0.0
H903 H 0.52147 0.31832 0.01737 0.0
H904 H 0.5309 0.3602 0.98053 0.0
H905 H 0.50696 0.34916 0.70042 0.0
H906 H 0.4808 0.36311 0.6582 0.0
H907 H 0.47854 0.33312 0.69705 0.0
H908 H 0.44301 0.34714 0.78115 0.0
H909 H 0.44528 0.3772 0.74303 0.0
H910 H 0.44722 0.37259 0.84284 0.0
H911 H 0.53174 0.40264 0.93315 0.0
H912 H 0.52779 0.44179 0.86792 0.0
H913 H 0.47908 0.40915 0.70647 0.0
C914 C 0.48371 0.32282 0.86533 0.0
C915 C 0.4953 0.31218 0.92816 0.0
C916 C 0.51269 0.32586 0.96834 0.0
C917 C 0.51805 0.34976 0.94816 0.0
C918 C 0.50619 0.35981 0.88669 0.0
C919 C 0.48975 0.3467 0.84475 0.0
C920 C 0.47982 0.36201 0.78079 0.0
C921 C 0.48696 0.35121 0.70459 0.0
C922 C 0.45219 0.3649 0.78738 0.0
C923 C 0.49278 0.38588 0.79464 0.0
C924 C 0.50772 0.38417 0.8566 0.0
C925 C 0.52043 0.40408 0.88384 0.0
C926 C 0.51798 0.42628 0.84666 0.0
C927 C 0.50331 0.42844 0.78196 0.0
C928 C 0.49068 0.40789 0.75525 0.0
H929 H 0.16879 0.46559 0.97971 0.0
H930 H 0.21062 0.51787 0.85326 0.0
H931 H 0.17355 0.53002 0.7846 0.0
H932 H 0.12828 0.4475 0.83217 0.0
H933 H 0.102 0.44528 0.89174 0.0
H934 H 0.13178 0.44039 0.93017 0.0
H935 H 0.12406 0.47361 0.02943 0.0
H936 H 0.09422 0.47853 0.99149 0.0
H937 H 0.11514 0.50342 0.99939 0.0
H938 H 0.1324 0.5349 0.72513 0.0
H939 H 0.08953 0.53576 0.68809 0.0
H940 H 0.07283 0.48233 0.85882 0.0
C941 C 0.17007 0.47964 0.93765 0.0
C942 C 0.19265 0.49076 0.92153 0.0
C943 C 0.19356 0.50922 0.86668 0.0
C944 C 0.1726 0.51613 0.82722 0.0
C945 C 0.15068 0.50473 0.84407 0.0
C946 C 0.14917 0.48714 0.89881 0.0
C947 C 0.12317 0.47835 0.90759 0.0
C948 C 0.1212 0.45127 0.88932 0.0
C949 C 0.11358 0.48381 0.98668 0.0
C950 C 0.1103 0.49361 0.84887 0.0
C951 C 0.12665 0.50845 0.81233 0.0
C952 C 0.11944 0.52357 0.75408 0.0
C953 C 0.09492 0.52382 0.73323 0.0
C954 C 0.07754 0.50924 0.77071 0.0
C955 C 0.08549 0.4939 0.82948 0.0
H956 H 0.00765 0.83904 0.41935 0.0
H957 H 0.97684 0.80183 0.61159 0.0
H958 H 0.97605 0.84009 0.68123 0.0
H959 H 0.04484 0.87995 0.5166 0.0
H960 H 0.039 0.90563 0.45709 0.0
H961 H 0.03662 0.87551 0.41982 0.0
H962 H 0.99272 0.88387 0.37725 0.0
H963 H 0.99493 0.91419 0.4134 0.0
H964 H 0.97081 0.89461 0.44433 0.0
H965 H 0.98238 0.88129 0.73548 0.0
H966 H 0.99018 0.92422 0.76498 0.0
H967 H 0.01246 0.93674 0.53526 0.0
C968 C 1.00021 0.83893 0.47544 0.0
C969 C 0.99275 0.81697 0.50996 0.0
C970 C 0.98339 0.81799 0.58403 0.0
C971 C 0.98268 0.83977 0.62417 0.0
C972 C 0.99084 0.86078 0.58942 0.0
C973 C 0.9989 0.86074 0.51616 0.0
C974 C 1.00638 0.8861 0.49224 0.0
C975 C 0.03331 0.88683 0.47018 0.0
C976 C 0.99024 0.89523 0.428 0.0
C977 C 1.00174 0.90022 0.56407 0.0
C978 C 0.993 0.8851 0.61952 0.0
C979 C 0.98878 0.89339 0.69214 0.0
C980 C 0.99337 0.91778 0.70852 0.0
C981 C 1.00163 0.93385 0.65236 0.0
C982 C 1.00574 0.92493 0.57897 0.0
H983 H 0.69225 0.02242 0.54275 0.0
H984 H 0.69466 0.96036 0.39388 0.0
H985 H 0.65265 0.95035 0.42816 0.0
H986 H 0.65558 0.99287 0.68993 0.0
H987 H 0.63883 0.01998 0.71106 0.0
H988 H 0.66954 0.02205 0.67735 0.0
H989 H 0.65529 0.0497 0.56901 0.0
H990 H 0.62456 0.04766 0.60229 0.0
H991 H 0.63164 0.03941 0.50707 0.0
H992 H 0.60961 0.94855 0.47035 0.0
H993 H 0.56884 0.9535 0.52414 0.0
H994 H 0.59399 0.01503 0.65327 0.0
C995 C 0.6842 0.0064 0.51846 0.0
C996 C 0.697 0.99231 0.46484 0.0
C997 C 0.68534 0.97179 0.43378 0.0
C998 C 0.66145 0.96581 0.45337 0.0
C999 C 0.64932 0.98029 0.50505 0.0
C1000 C 0.66033 0.99999 0.53804 0.0
C1001 C 0.64289 0.01275 0.59111 0.0
C1002 C 0.65227 0.01185 0.67217 0.0
C1003 C 0.63833 0.03893 0.56583 0.0
C1004 C 0.62028 0.99731 0.58178 0.0
C1005 C 0.62448 0.97876 0.53157 0.0
C1006 C 0.6062 0.96283 0.5104 0.0
C1007 C 0.58302 0.96588 0.54109 0.0
C1008 C 0.57815 0.98458 0.59321 0.0
C1009 C 0.59719 1.00037 0.61434 0.0
H1010 H 0.49817 0.68944 0.55226 0.0
H1011 H 0.50341 0.67411 0.31374 0.0
H1012 H 0.50881 0.6311 0.34198 0.0
H1013 H 0.54036 0.64381 0.6177 0.0
H1014 H 0.52243 0.63593 0.69851 0.0
H1015 H 0.52105 0.66611 0.66074 0.0
H1016 H 0.47449 0.6623 0.64734 0.0
H1017 H 0.47573 0.63211 0.68492 0.0
H1018 H 0.46195 0.63744 0.59486 0.0
H1019 H 0.51262 0.58944 0.39436 0.0
H1020 H 0.51322 0.55174 0.46733 0.0
H1021 H 0.50231 0.59268 0.67215 0.0
C1022 C 0.50041 0.67717 0.50561 0.0
C1023 C 0.50071 0.68573 0.43042 0.0
C1024 C 0.50389 0.66862 0.3719 0.0
C1025 C 0.50671 0.64391 0.38729 0.0
C1026 C 0.50606 0.63624 0.46156 0.0
C1027 C 0.50285 0.65229 0.51985 0.0
C1028 C 0.50165 0.639 0.59445 0.0
C1029 C 0.52263 0.64667 0.64588 0.0
C1030 C 0.47699 0.64295 0.63263 0.0
C1031 C 0.50458 0.61297 0.56875 0.0
C1032 C 0.50732 0.61192 0.49186 0.0
C1033 C 0.5105 0.59005 0.45461 0.0
C1034 C 0.51087 0.56868 0.49681 0.0
C1035 C 0.50785 0.5691 0.57574 0.0
C1036 C 0.50459 0.59166 0.61199 0.0
H1037 H 0.81842 0.48194 0.53897 0.0
H1038 H 0.818 0.53925 0.37258 0.0
H1039 H 0.85954 0.55047 0.4092 0.0
H1040 H 0.85297 0.51535 0.68138 0.0
H1041 H 0.86952 0.48905 0.71187 0.0
H1042 H 0.83936 0.48582 0.67451 0.0
H1043 H 0.85541 0.45549 0.57589 0.0
H1044 H 0.8856 0.45873 0.61282 0.0
H1045 H 0.8799 0.46434 0.5149 0.0
H1046 H 0.90172 0.55431 0.45826 0.0
H1047 H 0.94153 0.55157 0.5196 0.0
H1048 H 0.91513 0.49297 0.65938 0.0
C1049 C 0.82685 0.49714 0.51106 0.0
C1050 C 0.81474 0.50962 0.45234 0.0
C1051 C 0.82682 0.52911 0.41671 0.0
C1052 C 0.85044 0.53575 0.43751 0.0
C1053 C 0.86188 0.5229 0.49464 0.0
C1054 C 0.85049 0.50412 0.53143 0.0
C1055 C 0.86723 0.49303 0.59001 0.0
C1056 C 0.85664 0.496 0.66914 0.0
C1057 C 0.87233 0.46631 0.57231 0.0
C1058 C 0.88985 0.5084 0.5798 0.0
C1059 C 0.88627 0.52547 0.52429 0.0
C1060 C 0.90465 0.54116 0.50222 0.0
C1061 C 0.9273 0.53938 0.53737 0.0
C1062 C 0.93158 0.52212 0.59466 0.0
C1063 C 0.91241 0.50656 0.61651 0.0
loop_
_geom_bond_atom_site_label_1
_geom_bond_atom_site_label_2
_geom_bond_distance
_geom_bond_site_symmetry_2
_ccdc_geom_bond_type
P0 O11 1.490 . S
P0 C14 1.812 . S
P0 C20 1.803 . S
P0 C26 1.819 . S
H1 C15 0.941 . S
H2 C16 0.939 . S
H3 C18 0.940 . S
H4 C19 0.940 . S
H5 C21 0.939 . S
H6 C22 0.942 . S
H7 C24 0.940 . S
H8 C25 0.939 . S
H9 C27 0.941 . S
H10 C31 0.939 . S
O11 P0 1.490 . S
H12 C28 0.939 . S
H13 C30 0.940 . S
C14 P0 1.812 . S
C14 C15 1.389 . S
C14 C19 1.391 . S
C15 H1 0.941 . S
C15 C14 1.389 . S
C15 C16 1.397 . S
C16 H2 0.939 . S
C16 C15 1.397 . S
C16 C17 1.378 . S
C17 C16 1.378 . S
C17 C18 1.378 . S
C18 H3 0.940 . S
C18 C17 1.378 . S
C18 C19 1.396 . S
C19 H4 0.940 . S
C19 C14 1.391 . S
C19 C18 1.396 . S
C20 P0 1.803 . S
C20 C21 1.378 . S
C20 C25 1.400 . S
C21 H5 0.939 . S
C21 C20 1.378 . S
C21 C22 1.361 . S
C22 H6 0.942 . S
C22 C21 1.361 . S
C22 C23 1.369 . S
C23 C22 1.369 . S
C23 C24 1.404 . S
C24 H7 0.940 . S
C24 C23 1.404 . S
C24 C25 1.389 . S
C25 H8 0.939 . S
C25 C20 1.400 . S
C25 C24 1.389 . S
C26 P0 1.819 . S
C26 C27 1.391 . S
C26 C31 1.391 . S
C27 H9 0.941 . S
C27 C26 1.391 . S
C27 C28 1.396 . S
C28 H12 0.939 . S
C28 C27 1.396 . S
C28 C29 1.397 . S
C29 C28 1.397 . S
C29 C30 1.385 . S
C30 H13 0.940 . S
C30 C29 1.385 . S
C30 C31 1.388 . S
C31 H10 0.939 . S
C31 C26 1.391 . S
C31 C30 1.388 . S
P32 O43 1.490 . S
P32 C46 1.812 . S
P32 C52 1.803 . S
P32 C58 1.819 . S
H33 C47 0.941 . S
H34 C48 0.939 . S
H35 C50 0.940 . S
H36 C51 0.950 . S
H37 C53 0.939 . S
H38 C54 0.942 . S
H39 C56 0.940 . S
H40 C57 0.959 . S
H41 C59 0.941 . S
H42 C63 0.929 1_655 S
O43 P32 1.490 . S
H44 C60 0.939 . S
H45 C62 0.940 . S
C46 P32 1.812 . S
C46 C47 1.389 . S
C46 C51 1.375 1_455 S
C47 H33 0.941 . S
C47 C46 1.389 . S
C47 C48 1.397 . S
C48 H34 0.939 . S
C48 C47 1.397 . S
C48 C49 1.378 . S
C49 C48 1.378 . S
C49 C50 1.378 1_455 S
C50 H35 0.940 . S
C50 C49 1.378 1_655 S
C50 C51 1.403 . S
C51 H36 0.950 . S
C51 C46 1.375 1_655 S
C51 C50 1.403 . S
C52 P32 1.803 . S
C52 C53 1.378 . S
C52 C57 1.368 1_455 S
C53 H37 0.939 . S
C53 C52 1.378 . S
C53 C54 1.361 . S
C54 H38 0.942 . S
C54 C53 1.361 . S
C54 C55 1.369 . S
C55 C54 1.369 . S
C55 C56 1.404 1_455 S
C56 H39 0.940 . S
C56 C55 1.404 1_655 S
C56 C57 1.402 . S
C57 H40 0.959 . S
C57 C52 1.368 1_655 S
C57 C56 1.402 . S
C58 P32 1.819 . S
C58 C59 1.391 . S
C58 C63 1.391 . S
C59 H41 0.941 . S
C59 C58 1.391 . S
C59 C60 1.396 . S
C60 H44 0.939 . S
C60 C59 1.396 . S
C60 C61 1.397 . S
C61 C60 1.397 . S
C61 C62 1.385 1_455 S
C62 H45 0.940 . S
C62 C61 1.385 1_655 S
C62 C63 1.388 1_655 S
C63 H42 0.929 1_455 S
C63 C58 1.391 . S
C63 C62 1.388 1_455 S
P64 O75 1.490 . S
P64 C78 1.812 . S
P64 C84 1.803 . S
P64 C90 1.819 . S
H65 C79 0.941 . S
H66 C80 0.939 . S
H67 C82 0.940 . S
H68 C83 0.950 . S
H69 C85 0.939 . S
H70 C86 0.942 . S
H71 C88 0.940 . S
H72 C89 0.959 . S
H73 C91 0.941 . S
H74 C95 0.929 1_565 S
O75 P64 1.490 . S
H76 C92 0.939 . S
H77 C94 0.940 . S
C78 P64 1.812 . S
C78 C79 1.389 . S
C78 C83 1.375 1_545 S
C79 H65 0.941 . S
C79 C78 1.389 . S
C79 C80 1.397 . S
C80 H66 0.939 . S
C80 C79 1.397 . S
C80 C81 1.378 . S
C81 C80 1.378 . S
C81 C82 1.378 1_545 S
C82 H67 0.940 . S
C82 C81 1.378 1_565 S
C82 C83 1.402 . S
C83 H68 0.950 . S
C83 C78 1.375 1_565 S
C83 C82 1.402 . S
C84 P64 1.803 . S
C84 C85 1.378 . S
C84 C89 1.368 1_545 S
C85 H69 0.939 . S
C85 C84 1.378 . S
C85 C86 1.361 . S
C86 H70 0.942 . S
C86 C85 1.361 . S
C86 C87 1.369 . S
C87 C86 1.369 . S
C87 C88 1.404 1_545 S
C88 H71 0.940 . S
C88 C87 1.404 1_565 S
C88 C89 1.402 . S
C89 H72 0.959 . S
C89 C84 1.368 1_565 S
C89 C88 1.402 . S
C90 P64 1.819 . S
C90 C91 1.391 . S
C90 C95 1.391 . S
C91 H73 0.941 . S
C91 C90 1.391 . S
C91 C92 1.396 . S
C92 H76 0.939 . S
C92 C91 1.396 . S
C92 C93 1.397 . S
C93 C92 1.397 . S
C93 C94 1.385 1_545 S
C94 H77 0.940 . S
C94 C93 1.385 1_565 S
C94 C95 1.388 1_565 S
C95 H74 0.929 1_545 S
C95 C90 1.391 . S
C95 C94 1.388 1_545 S
P96 O107 1.490 . S
P96 C110 1.812 . S
P96 C116 1.803 . S
P96 C122 1.819 . S
H97 C111 0.941 . S
H98 C112 0.939 . S
H99 C114 0.940 . S
H100 C115 0.940 . S
H101 C117 0.939 . S
H102 C118 0.942 . S
H103 C120 0.940 . S
H104 C121 0.939 . S
H105 C123 0.941 . S
H106 C127 0.939 . S
O107 P96 1.490 . S
H108 C124 0.939 . S
H109 C126 0.940 . S
C110 P96 1.812 . S
C110 C111 1.389 . S
C110 C115 1.391 . S
C111 H97 0.941 . S
C111 C110 1.389 . S
C111 C112 1.397 . S
C112 H98 0.939 . S
C112 C111 1.397 . S
C112 C113 1.378 . S
C113 C112 1.378 . S
C113 C114 1.378 . S
C114 H99 0.940 . S
C114 C113 1.378 . S
C114 C115 1.396 . S
C115 H100 0.940 . S
C115 C110 1.391 . S
C115 C114 1.396 . S
C116 P96 1.803 . S
C116 C117 1.378 . S
C116 C121 1.400 . S
C117 H101 0.939 . S
C117 C116 1.378 . S
C117 C118 1.361 . S
C118 H102 0.942 . S
C118 C117 1.361 . S
C118 C119 1.369 . S
C119 C118 1.369 . S
C119 C120 1.404 . S
C120 H103 0.940 . S
C120 C119 1.404 . S
C120 C121 1.389 . S
C121 H104 0.939 . S
C121 C116 1.400 . S
C121 C120 1.389 . S
C122 P96 1.819 . S
C122 C123 1.391 . S
C122 C127 1.391 . S
C123 H105 0.941 . S
C123 C122 1.391 . S
C123 C124 1.396 . S
C124 H108 0.939 . S
C124 C123 1.396 . S
C124 C125 1.397 . S
C125 C124 1.397 . S
C125 C126 1.385 . S
C126 H109 0.940 . S
C126 C125 1.385 . S
C126 C127 1.388 . S
C127 H106 0.939 . S
C127 C122 1.391 . S
C127 C126 1.388 . S
P128 O139 1.490 . S
P128 C142 1.812 1_554 S
P128 C148 1.803 . S
P128 C154 1.819 . S
H129 C143 0.941 . S
H130 C144 0.939 . S
H131 C146 0.940 . S
H132 C147 0.940 1_554 S
H133 C149 0.939 . S
H134 C150 0.942 . S
H135 C152 0.940 . S
H136 C153 0.939 . S
H137 C155 0.941 . S
H138 C159 0.939 . S
O139 P128 1.490 . S
H140 C156 0.939 . S
H141 C158 0.940 . S
C142 P128 1.812 1_556 S
C142 C143 1.389 . S
C142 C147 1.391 . S
C143 H129 0.941 . S
C143 C142 1.389 . S
C143 C144 1.397 . S
C144 H130 0.939 . S
C144 C143 1.397 . S
C144 C145 1.378 . S
C145 C144 1.378 . S
C145 C146 1.378 . S
C146 H131 0.940 . S
C146 C145 1.378 . S
C146 C147 1.396 . S
C147 H132 0.940 1_556 S
C147 C142 1.391 . S
C147 C146 1.396 . S
C148 P128 1.803 . S
C148 C149 1.378 . S
C148 C153 1.400 . S
C149 H133 0.939 . S
C149 C148 1.378 . S
C149 C150 1.361 . S
C150 H134 0.942 . S
C150 C149 1.361 . S
C150 C151 1.369 . S
C151 C150 1.369 . S
C151 C152 1.404 . S
C152 H135 0.940 . S
C152 C151 1.404 . S
C152 C153 1.389 . S
C153 H136 0.939 . S
C153 C148 1.400 . S
C153 C152 1.389 . S
C154 P128 1.819 . S
C154 C155 1.391 . S
C154 C159 1.391 . S
C155 H137 0.941 . S
C155 C154 1.391 . S
C155 C156 1.396 . S
C156 H140 0.939 . S
C156 C155 1.396 . S
C156 C157 1.397 . S
C157 C156 1.397 . S
C157 C158 1.385 . S
C158 H141 0.940 . S
C158 C157 1.385 . S
C158 C159 1.388 . S
C159 H138 0.939 . S
C159 C154 1.391 . S
C159 C158 1.388 . S
P160 O171 1.490 . S
P160 C174 1.812 1_554 S
P160 C180 1.803 . S
P160 C186 1.819 . S
H161 C175 0.941 . S
H162 C176 0.939 . S
H163 C178 0.940 . S
H164 C179 0.944 1_554 S
H165 C181 0.939 . S
H166 C182 0.942 . S
H167 C184 0.940 . S
H168 C185 0.953 . S
H169 C187 0.941 . S
H170 C191 0.933 1_655 S
O171 P160 1.490 . S
H172 C188 0.939 . S
H173 C190 0.940 . S
C174 P160 1.812 1_556 S
C174 C175 1.389 . S
C174 C179 1.385 1_455 S
C175 H161 0.941 . S
C175 C174 1.389 . S
C175 C176 1.397 . S
C176 H162 0.939 . S
C176 C175 1.397 . S
C176 C177 1.378 . S
C177 C176 1.378 . S
C177 C178 1.378 1_455 S
C178 H163 0.940 . S
C178 C177 1.378 1_655 S
C178 C179 1.399 . S
C179 H164 0.944 1_556 S
C179 C174 1.385 1_655 S
C179 C178 1.399 . S
C180 P160 1.803 . S
C180 C181 1.378 . S
C180 C185 1.379 1_455 S
C181 H165 0.939 . S
C181 C180 1.378 . S
C181 C182 1.361 . S
C182 H166 0.942 . S
C182 C181 1.361 . S
C182 C183 1.369 . S
C183 C182 1.369 . S
C183 C184 1.404 1_455 S
C184 H167 0.940 . S
C184 C183 1.404 1_655 S
C184 C185 1.398 . S
C185 H168 0.953 . S
C185 C180 1.379 1_655 S
C185 C184 1.398 . S
C186 P160 1.819 . S
C186 C187 1.391 . S
C186 C191 1.391 . S
C187 H169 0.941 . S
C187 C186 1.391 . S
C187 C188 1.396 . S
C188 H172 0.939 . S
C188 C187 1.396 . S
C188 C189 1.397 . S
C189 C188 1.397 . S
C189 C190 1.385 1_455 S
C190 H173 0.940 . S
C190 C189 1.385 1_655 S
C190 C191 1.388 1_655 S
C191 H170 0.933 1_455 S
C191 C186 1.391 . S
C191 C190 1.388 1_455 S
P192 O203 1.490 . S
P192 C206 1.812 1_554 S
P192 C212 1.803 . S
P192 C218 1.819 . S
H193 C207 0.941 . S
H194 C208 0.939 . S
H195 C210 0.940 . S
H196 C211 0.944 1_554 S
H197 C213 0.939 . S
H198 C214 0.942 . S
H199 C216 0.940 . S
H200 C217 0.953 . S
H201 C219 0.941 . S
H202 C223 0.933 1_565 S
O203 P192 1.490 . S
H204 C220 0.939 . S
H205 C222 0.940 . S
C206 P192 1.812 1_556 S
C206 C207 1.389 . S
C206 C211 1.385 1_545 S
C207 H193 0.941 . S
C207 C206 1.389 . S
C207 C208 1.397 . S
C208 H194 0.939 . S
C208 C207 1.397 . S
C208 C209 1.378 . S
C209 C208 1.378 . S
C209 C210 1.378 1_545 S
C210 H195 0.940 . S
C210 C209 1.378 1_565 S
C210 C211 1.399 . S
C211 H196 0.944 1_556 S
C211 C206 1.385 1_565 S
C211 C210 1.399 . S
C212 P192 1.803 . S
C212 C213 1.378 . S
C212 C217 1.379 1_545 S
C213 H197 0.939 . S
C213 C212 1.378 . S
C213 C214 1.361 . S
C214 H198 0.942 . S
C214 C213 1.361 . S
C214 C215 1.369 . S
C215 C214 1.369 . S
C215 C216 1.404 1_545 S
C216 H199 0.940 . S
C216 C215 1.404 1_565 S
C216 C217 1.398 . S
C217 H200 0.953 . S
C217 C212 1.379 1_565 S
C217 C216 1.398 . S
C218 P192 1.819 . S
C218 C219 1.391 . S
C218 C223 1.391 . S
C219 H201 0.941 . S
C219 C218 1.391 . S
C219 C220 1.396 . S
C220 H204 0.939 . S
C220 C219 1.396 . S
C220 C221 1.397 . S
C221 C220 1.397 . S
C221 C222 1.385 1_545 S
C222 H205 0.940 . S
C222 C221 1.385 1_565 S
C222 C223 1.388 1_565 S
C223 H202 0.933 1_545 S
C223 C218 1.391 . S
C223 C222 1.388 1_545 S
P224 O235 1.490 . S
P224 C238 1.812 1_554 S
P224 C244 1.803 . S
P224 C250 1.819 . S
H225 C239 0.941 . S
H226 C240 0.939 . S
H227 C242 0.940 . S
H228 C243 0.940 1_554 S
H229 C245 0.939 . S
H230 C246 0.942 . S
H231 C248 0.940 . S
H232 C249 0.939 . S
H233 C251 0.941 . S
H234 C255 0.939 . S
O235 P224 1.490 . S
H236 C252 0.939 . S
H237 C254 0.940 . S
C238 P224 1.812 1_556 S
C238 C239 1.389 . S
C238 C243 1.391 . S
C239 H225 0.941 . S
C239 C238 1.389 . S
C239 C240 1.397 . S
C240 H226 0.939 . S
C240 C239 1.397 . S
C240 C241 1.378 . S
C241 C240 1.378 . S
C241 C242 1.378 . S
C242 H227 0.940 . S
C242 C241 1.378 . S
C242 C243 1.396 . S
C243 H228 0.940 1_556 S
C243 C238 1.391 . S
C243 C242 1.396 . S
C244 P224 1.803 . S
C244 C245 1.378 . S
C244 C249 1.400 . S
C245 H229 0.939 . S
C245 C244 1.378 . S
C245 C246 1.361 . S
C246 H230 0.942 . S
C246 C245 1.361 . S
C246 C247 1.369 . S
C247 C246 1.369 . S
C247 C248 1.404 . S
C248 H231 0.940 . S
C248 C247 1.404 . S
C248 C249 1.389 . S
C249 H232 0.939 . S
C249 C244 1.400 . S
C249 C248 1.389 . S
C250 P224 1.819 . S
C250 C251 1.391 . S
C250 C255 1.391 . S
C251 H233 0.941 . S
C251 C250 1.391 . S
C251 C252 1.396 . S
C252 H236 0.939 . S
C252 C251 1.396 . S
C252 C253 1.397 . S
C253 C252 1.397 . S
C253 C254 1.385 . S
C254 H237 0.940 . S
C254 C253 1.385 . S
C254 C255 1.388 . S
C255 H234 0.939 . S
C255 C250 1.391 . S
C255 C254 1.388 . S
C256 Eu257 2.835 . S
C256 C258 1.500 . S
C256 O276 1.257 . S
C256 O277 1.260 . S
Eu257 C256 2.835 . S
Eu257 O276 2.473 . S
Eu257 O277 2.480 . S
Eu257 O278 2.430 . S
Eu257 O279 2.670 1_545 S
Eu257 O280 2.394 . S
Eu257 O285 2.355 1_655 S
Eu257 O287 2.374 1_545 S
C258 C256 1.500 . S
C258 C259 1.377 . S
C258 C263 1.377 . S
C259 C258 1.377 . S
C259 C260 1.395 . S
C259 H288 0.931 . S
C260 C259 1.395 . S
C260 C261 1.383 . S
C260 H289 0.931 . S
C261 C260 1.383 . S
C261 C262 1.394 . S
C262 C261 1.394 . S
C262 C263 1.378 . S
C262 H290 0.931 1_655 S
C263 C258 1.377 . S
C263 C262 1.378 . S
C263 H291 0.931 1_655 S
C264 O278 1.259 . S
C264 O279 1.270 1_545 S
C265 O280 1.251 1_455 S
C265 O281 1.251 . S
C266 Eu267 2.835 . S
C266 C268 1.500 . S
C266 O282 1.257 . S
C266 O283 1.260 . S
Eu267 C266 2.835 . S
Eu267 O279 2.355 1_455 S
Eu267 O281 2.374 1_565 S
Eu267 O282 2.473 . S
Eu267 O283 2.480 . S
Eu267 O284 2.430 . S
Eu267 O285 2.670 1_565 S
Eu267 O286 2.394 . S
C268 C266 1.500 . S
C268 C269 1.377 . S
C268 C273 1.377 . S
C269 C268 1.377 . S
C269 C270 1.395 . S
C269 H292 0.931 . S
C270 C269 1.395 . S
C270 C271 1.383 . S
C270 H293 0.931 . S
C271 C270 1.383 . S
C271 C272 1.394 . S
C272 C271 1.394 . S
C272 C273 1.378 . S
C272 H294 0.931 1_455 S
C273 C268 1.377 . S
C273 C272 1.378 . S
C273 H295 0.931 1_455 S
C274 O284 1.282 . S
C274 O285 1.254 1_565 S
C275 O286 1.251 1_655 S
C275 O287 1.251 . S
O276 C256 1.257 . S
O276 Eu257 2.473 . S
O277 C256 1.260 . S
O277 Eu257 2.480 . S
O278 Eu257 2.430 . S
O278 C264 1.259 . S
O279 Eu257 2.670 1_565 S
O279 C264 1.270 1_565 S
O279 Eu267 2.355 1_655 S
O280 Eu257 2.394 . S
O280 C265 1.251 1_655 S
O281 C265 1.251 . S
O281 Eu267 2.374 1_545 S
O282 C266 1.257 . S
O282 Eu267 2.473 . S
O283 C266 1.260 . S
O283 Eu267 2.480 . S
O284 Eu267 2.430 . S
O284 C274 1.282 . S
O285 Eu257 2.355 1_455 S
O285 Eu267 2.670 1_545 S
O285 C274 1.254 1_545 S
O286 Eu267 2.394 . S
O286 C275 1.251 1_455 S
O287 Eu257 2.374 1_565 S
O287 C275 1.251 . S
H288 C259 0.931 . S
H289 C260 0.931 . S
H290 C262 0.931 1_455 S
H291 C263 0.931 1_455 S
H292 C269 0.931 . S
H293 C270 0.931 . S
H294 C272 0.931 1_655 S
H295 C273 0.931 1_655 S
C296 Eu297 2.835 . S
C296 C298 1.500 . S
C296 O316 1.257 . S
C296 O317 1.260 . S
Eu297 C296 2.835 . S
Eu297 O316 2.473 . S
Eu297 O317 2.480 . S
Eu297 O318 2.430 . S
Eu297 O319 2.670 . S
Eu297 O320 2.394 . S
Eu297 O325 2.355 1_565 S
Eu297 O327 2.374 . S
C298 C296 1.500 . S
C298 C299 1.377 . S
C298 C303 1.377 . S
C299 C298 1.377 . S
C299 C300 1.395 . S
C299 H328 0.931 . S
C300 C299 1.395 . S
C300 C301 1.383 . S
C300 H329 0.931 . S
C301 C300 1.383 . S
C301 C302 1.394 . S
C302 C301 1.394 . S
C302 C303 1.378 . S
C302 H330 0.931 1_565 S
C303 C298 1.377 . S
C303 C302 1.378 . S
C303 H331 0.931 1_565 S
C304 O318 1.259 . S
C304 O319 1.270 . S
C305 O320 1.251 1_545 S
C305 O321 1.251 . S
C306 Eu307 2.835 . S
C306 C308 1.500 . S
C306 O322 1.257 . S
C306 O323 1.260 . S
Eu307 C306 2.835 . S
Eu307 O319 2.355 1_545 S
Eu307 O321 2.374 . S
Eu307 O322 2.473 . S
Eu307 O323 2.480 . S
Eu307 O324 2.430 . S
Eu307 O325 2.670 . S
Eu307 O326 2.394 . S
C308 C306 1.500 . S
C308 C309 1.377 . S
C308 C313 1.377 . S
C309 C308 1.377 . S
C309 C310 1.395 . S
C309 H332 0.931 . S
C310 C309 1.395 . S
C310 C311 1.383 . S
C310 H333 0.931 . S
C311 C310 1.383 . S
C311 C312 1.394 . S
C312 C311 1.394 . S
C312 C313 1.378 . S
C312 H334 0.931 1_545 S
C313 C308 1.377 . S
C313 C312 1.378 . S
C313 H335 0.931 1_545 S
C314 O324 1.259 . S
C314 O325 1.270 . S
C315 O326 1.251 1_565 S
C315 O327 1.251 . S
O316 C296 1.257 . S
O316 Eu297 2.473 . S
O317 C296 1.260 . S
O317 Eu297 2.480 . S
O318 Eu297 2.430 . S
O318 C304 1.259 . S
O319 Eu297 2.670 . S
O319 C304 1.270 . S
O319 Eu307 2.355 1_565 S
O320 Eu297 2.394 . S
O320 C305 1.251 1_565 S
O321 C305 1.251 . S
O321 Eu307 2.374 . S
O322 C306 1.257 . S
O322 Eu307 2.473 . S
O323 C306 1.260 . S
O323 Eu307 2.480 . S
O324 Eu307 2.430 . S
O324 C314 1.259 . S
O325 Eu297 2.355 1_545 S
O325 Eu307 2.670 . S
O325 C314 1.270 . S
O326 Eu307 2.394 . S
O326 C315 1.251 1_545 S
O327 Eu297 2.374 . S
O327 C315 1.251 . S
H328 C299 0.931 . S
H329 C300 0.931 . S
H330 C302 0.931 1_545 S
H331 C303 0.931 1_545 S
H332 C309 0.931 . S
H333 C310 0.931 . S
H334 C312 0.931 1_565 S
H335 C313 0.931 1_565 S
C336 Eu337 2.835 . S
C336 C338 1.500 . S
C336 O356 1.257 . S
C336 O357 1.260 . S
Eu337 C336 2.835 . S
Eu337 O356 2.473 . S
Eu337 O357 2.480 . S
Eu337 O358 2.430 . S
Eu337 O359 2.670 . S
Eu337 O360 2.394 . S
Eu337 O365 2.355 . S
Eu337 O367 2.374 . S
C338 C336 1.500 . S
C338 C339 1.377 . S
C338 C343 1.377 . S
C339 C338 1.377 . S
C339 C340 1.395 . S
C339 H368 0.931 . S
C340 C339 1.395 . S
C340 C341 1.383 . S
C340 H369 0.931 . S
C341 C340 1.383 . S
C341 C342 1.394 . S
C342 C341 1.394 . S
C342 C343 1.378 . S
C342 H370 0.931 . S
C343 C338 1.377 . S
C343 C342 1.378 . S
C343 H371 0.931 . S
C344 O358 1.259 . S
C344 O359 1.270 . S
C345 O360 1.251 . S
C345 O361 1.251 . S
C346 Eu347 2.835 . S
C346 C348 1.500 . S
C346 O362 1.257 . S
C346 O363 1.260 . S
Eu347 C346 2.835 . S
Eu347 O359 2.355 . S
Eu347 O361 2.374 . S
Eu347 O362 2.473 . S
Eu347 O363 2.480 . S
Eu347 O364 2.430 . S
Eu347 O365 2.670 . S
Eu347 O366 2.394 . S
C348 C346 1.500 . S
C348 C349 1.377 . S
C348 C353 1.377 . S
C349 C348 1.377 . S
C349 C350 1.395 . S
C349 H372 0.931 . S
C350 C349 1.395 . S
C350 C351 1.383 . S
C350 H373 0.931 . S
C351 C350 1.383 . S
C351 C352 1.394 . S
C352 C351 1.394 . S
C352 C353 1.378 . S
C352 H374 0.931 . S
C353 C348 1.377 . S
C353 C352 1.378 . S
C353 H375 0.931 . S
C354 O364 1.259 . S
C354 O365 1.270 . S
C355 O366 1.251 . S
C355 O367 1.251 . S
O356 C336 1.257 . S
O356 Eu337 2.473 . S
O357 C336 1.260 . S
O357 Eu337 2.480 . S
O358 Eu337 2.430 . S
O358 C344 1.259 . S
O359 Eu337 2.670 . S
O359 C344 1.270 . S
O359 Eu347 2.355 . S
O360 Eu337 2.394 . S
O360 C345 1.251 . S
O361 C345 1.251 . S
O361 Eu347 2.374 . S
O362 C346 1.257 . S
O362 Eu347 2.473 . S
O363 C346 1.260 . S
O363 Eu347 2.480 . S
O364 Eu347 2.430 . S
O364 C354 1.259 . S
O365 Eu337 2.355 . S
O365 Eu347 2.670 . S
O365 C354 1.270 . S
O366 Eu347 2.394 . S
O366 C355 1.251 . S
O367 Eu337 2.374 . S
O367 C355 1.251 . S
H368 C339 0.931 . S
H369 C340 0.931 . S
H370 C342 0.931 . S
H371 C343 0.931 . S
H372 C349 0.931 . S
H373 C350 0.931 . S
H374 C352 0.931 . S
H375 C353 0.931 . S
C376 Eu377 2.835 . S
C376 C378 1.500 . S
C376 O396 1.257 . S
C376 O397 1.260 . S
Eu377 C376 2.835 . S
Eu377 O396 2.473 . S
Eu377 O397 2.480 . S
Eu377 O398 2.430 . S
Eu377 O399 2.670 1_455 S
Eu377 O400 2.394 . S
Eu377 O405 2.355 . S
Eu377 O407 2.374 1_455 S
C378 C376 1.500 . S
C378 C379 1.377 . S
C378 C383 1.377 . S
C379 C378 1.377 . S
C379 C380 1.395 . S
C379 H408 0.931 . S
C380 C379 1.395 . S
C380 C381 1.383 . S
C380 H409 0.931 . S
C381 C380 1.383 . S
C381 C382 1.394 . S
C382 C381 1.394 . S
C382 C383 1.378 . S
C382 H410 0.931 . S
C383 C378 1.377 . S
C383 C382 1.378 . S
C383 H411 0.931 . S
C384 O398 1.266 . S
C384 O399 1.265 1_455 S
C385 O400 1.251 . S
C385 O401 1.251 . S
C386 Eu387 2.835 . S
C386 C388 1.500 . S
C386 O402 1.257 . S
C386 O403 1.260 . S
Eu387 C386 2.835 . S
Eu387 O399 2.355 . S
Eu387 O401 2.374 1_655 S
Eu387 O402 2.473 . S
Eu387 O403 2.480 . S
Eu387 O404 2.430 . S
Eu387 O405 2.670 1_655 S
Eu387 O406 2.394 . S
C388 C386 1.500 . S
C388 C389 1.377 . S
C388 C393 1.377 . S
C389 C388 1.377 . S
C389 C390 1.395 . S
C389 H412 0.931 . S
C390 C389 1.395 . S
C390 C391 1.383 . S
C390 H413 0.931 . S
C391 C390 1.383 . S
C391 C392 1.394 . S
C392 C391 1.394 . S
C392 C393 1.378 . S
C392 H414 0.931 . S
C393 C388 1.377 . S
C393 C392 1.378 . S
C393 H415 0.931 . S
C394 O404 1.261 . S
C394 O405 1.269 1_655 S
C395 O406 1.251 . S
C395 O407 1.251 . S
O396 C376 1.257 . S
O396 Eu377 2.473 . S
O397 C376 1.260 . S
O397 Eu377 2.480 . S
O398 Eu377 2.430 . S
O398 C384 1.266 . S
O399 Eu377 2.670 1_655 S
O399 C384 1.265 1_655 S
O399 Eu387 2.355 . S
O400 Eu377 2.394 . S
O400 C385 1.251 . S
O401 C385 1.251 . S
O401 Eu387 2.374 1_455 S
O402 C386 1.257 . S
O402 Eu387 2.473 . S
O403 C386 1.260 . S
O403 Eu387 2.480 . S
O404 Eu387 2.430 . S
O404 C394 1.261 . S
O405 Eu377 2.355 . S
O405 Eu387 2.670 1_455 S
O405 C394 1.269 1_455 S
O406 Eu387 2.394 . S
O406 C395 1.251 . S
O407 Eu377 2.374 1_655 S
O407 C395 1.251 . S
H408 C379 0.931 . S
H409 C380 0.931 . S
H410 C382 0.931 . S
H411 C383 0.931 . S
H412 C389 0.931 . S
H413 C390 0.931 . S
H414 C392 0.931 . S
H415 C393 0.931 . S
H416 C428 0.930 . S
H417 C430 0.930 . S
H418 C431 0.930 . S
H419 C435 0.959 . S
H420 C435 0.959 . S
H421 C435 0.961 . S
H422 C436 0.960 . S
H423 C436 0.961 . S
H424 C436 0.959 . S
H425 C439 0.929 . S
H426 C440 0.931 . S
H427 C442 0.930 . S
C428 H416 0.930 . S
C428 C429 1.399 1_545 S
C428 C433 1.399 . S
C429 C428 1.399 1_565 S
C429 C430 1.376 . S
C430 H417 0.930 . S
C430 C429 1.376 . S
C430 C431 1.388 . S
C431 H418 0.930 . S
C431 C430 1.388 . S
C431 C432 1.390 . S
C432 C431 1.390 . S
C432 C433 1.394 1_565 S
C432 C438 1.465 . S
C433 C428 1.399 . S
C433 C432 1.394 1_545 S
C433 C434 1.516 . S
C434 C433 1.516 . S
C434 C435 1.502 . S
C434 C436 1.561 . S
C434 C437 1.526 . S
C435 H419 0.959 . S
C435 H420 0.959 . S
C435 H421 0.961 . S
C435 C434 1.502 . S
C436 H422 0.960 . S
C436 H423 0.961 . S
C436 H424 0.959 . S
C436 C434 1.561 . S
C437 C434 1.526 . S
C437 C438 1.396 1_545 S
C437 C442 1.390 . S
C438 C432 1.465 . S
C438 C437 1.396 1_565 S
C438 C439 1.399 . S
C439 H425 0.929 . S
C439 C438 1.399 . S
C439 C440 1.385 . S
C440 H426 0.931 . S
C440 C439 1.385 . S
C440 C441 1.389 . S
C441 C440 1.389 . S
C441 C442 1.387 1_565 S
C442 H427 0.930 . S
C442 C437 1.390 . S
C442 C441 1.387 1_545 S
H443 C455 0.930 . S
H444 C457 0.930 . S
H445 C458 0.930 . S
H446 C462 0.959 . S
H447 C462 0.959 . S
H448 C462 0.961 . S
H449 C463 0.960 . S
H450 C463 0.961 . S
H451 C463 0.959 . S
H452 C466 0.929 . S
H453 C467 0.931 . S
H454 C469 0.930 . S
C455 H443 0.930 . S
C455 C456 1.399 . S
C455 C460 1.399 . S
C456 C455 1.399 . S
C456 C457 1.376 . S
C457 H444 0.930 . S
C457 C456 1.376 . S
C457 C458 1.388 . S
C458 H445 0.930 . S
C458 C457 1.388 . S
C458 C459 1.390 . S
C459 C458 1.390 . S
C459 C460 1.394 . S
C459 C465 1.465 . S
C460 C455 1.399 . S
C460 C459 1.394 . S
C460 C461 1.516 . S
C461 C460 1.516 . S
C461 C462 1.502 . S
C461 C463 1.561 . S
C461 C464 1.526 . S
C462 H446 0.959 . S
C462 H447 0.959 . S
C462 H448 0.961 . S
C462 C461 1.502 . S
C463 H449 0.960 . S
C463 H450 0.961 . S
C463 H451 0.959 . S
C463 C461 1.561 . S
C464 C461 1.526 . S
C464 C465 1.396 . S
C464 C469 1.390 . S
C465 C459 1.465 . S
C465 C464 1.396 . S
C465 C466 1.399 . S
C466 H452 0.929 . S
C466 C465 1.399 . S
C466 C467 1.385 . S
C467 H453 0.931 . S
C467 C466 1.385 . S
C467 C468 1.389 . S
C468 C467 1.389 . S
C468 C469 1.387 . S
C469 H454 0.930 . S
C469 C464 1.390 . S
C469 C468 1.387 . S
H470 C482 0.930 . S
H471 C484 0.930 . S
H472 C485 0.930 . S
H473 C489 0.959 . S
H474 C489 0.959 . S
H475 C489 0.961 . S
H476 C490 0.960 . S
H477 C490 0.961 . S
H478 C490 0.959 . S
H479 C493 0.929 . S
H480 C494 0.931 . S
H481 C496 0.930 . S
C482 H470 0.930 . S
C482 C483 1.399 . S
C482 C487 1.399 . S
C483 C482 1.399 . S
C483 C484 1.376 . S
C484 H471 0.930 . S
C484 C483 1.376 . S
C484 C485 1.388 . S
C485 H472 0.930 . S
C485 C484 1.388 . S
C485 C486 1.390 . S
C486 C485 1.390 . S
C486 C487 1.394 . S
C486 C492 1.465 . S
C487 C482 1.399 . S
C487 C486 1.394 . S
C487 C488 1.516 . S
C488 C487 1.516 . S
C488 C489 1.502 . S
C488 C490 1.561 . S
C488 C491 1.526 . S
C489 H473 0.959 . S
C489 H474 0.959 . S
C489 H475 0.961 . S
C489 C488 1.502 . S
C490 H476 0.960 . S
C490 H477 0.961 . S
C490 H478 0.959 . S
C490 C488 1.561 . S
C491 C488 1.526 . S
C491 C492 1.396 . S
C491 C496 1.390 . S
C492 C486 1.465 . S
C492 C491 1.396 . S
C492 C493 1.399 . S
C493 H479 0.929 . S
C493 C492 1.399 . S
C493 C494 1.385 . S
C494 H480 0.931 . S
C494 C493 1.385 . S
C494 C495 1.389 . S
C495 C494 1.389 . S
C495 C496 1.387 . S
C496 H481 0.930 . S
C496 C491 1.390 . S
C496 C495 1.387 . S
H497 C509 0.930 . S
H498 C511 0.930 . S
H499 C512 0.930 . S
H500 C516 0.959 . S
H501 C516 0.959 . S
H502 C516 0.961 . S
H503 C517 0.960 . S
H504 C517 0.961 . S
H505 C517 0.959 . S
H506 C520 0.929 . S
H507 C521 0.931 . S
H508 C523 0.930 . S
C509 H497 0.930 . S
C509 C510 1.399 1_655 S
C509 C514 1.399 . S
C510 C509 1.399 1_455 S
C510 C511 1.376 . S
C511 H498 0.930 . S
C511 C510 1.376 . S
C511 C512 1.388 . S
C512 H499 0.930 . S
C512 C511 1.388 . S
C512 C513 1.390 . S
C513 C512 1.390 . S
C513 C514 1.394 1_455 S
C513 C519 1.465 . S
C514 C509 1.399 . S
C514 C513 1.394 1_655 S
C514 C515 1.516 . S
C515 C514 1.516 . S
C515 C516 1.502 . S
C515 C517 1.561 1_655 S
C515 C518 1.526 . S
C516 H500 0.959 . S
C516 H501 0.959 . S
C516 H502 0.961 . S
C516 C515 1.502 . S
C517 H503 0.960 . S
C517 H504 0.961 . S
C517 H505 0.959 . S
C517 C515 1.561 1_455 S
C518 C515 1.526 . S
C518 C519 1.396 1_655 S
C518 C523 1.390 . S
C519 C513 1.465 . S
C519 C518 1.396 1_455 S
C519 C520 1.399 . S
C520 H506 0.929 . S
C520 C519 1.399 . S
C520 C521 1.385 . S
C521 H507 0.931 . S
C521 C520 1.385 . S
C521 C522 1.389 . S
C522 C521 1.389 . S
C522 C523 1.387 1_455 S
C523 H508 0.930 . S
C523 C518 1.390 . S
C523 C522 1.387 1_655 S
H524 C536 0.930 . S
H525 C538 0.930 . S
H526 C539 0.930 . S
H527 C543 0.959 1_556 S
H528 C543 0.959 1_556 S
H529 C543 0.961 . S
H530 C544 0.960 . S
H531 C544 0.961 . S
H532 C544 0.959 . S
H533 C547 0.929 1_554 S
H534 C548 0.931 . S
H535 C550 0.930 . S
C536 H524 0.930 . S
C536 C537 1.399 1_545 S
C536 C541 1.399 . S
C537 C536 1.399 1_565 S
C537 C538 1.376 . S
C538 H525 0.930 . S
C538 C537 1.376 . S
C538 C539 1.388 . S
C539 H526 0.930 . S
C539 C538 1.388 . S
C539 C540 1.390 . S
C540 C539 1.390 . S
C540 C541 1.394 1_565 S
C540 C546 1.465 . S
C541 C536 1.399 . S
C541 C540 1.394 1_545 S
C541 C542 1.516 . S
C542 C541 1.516 . S
C542 C543 1.502 . S
C542 C544 1.561 . S
C542 C545 1.526 1_554 S
C543 H527 0.959 1_554 S
C543 H528 0.959 1_554 S
C543 H529 0.961 . S
C543 C542 1.502 . S
C544 H530 0.960 . S
C544 H531 0.961 . S
C544 H532 0.959 . S
C544 C542 1.561 . S
C545 C542 1.526 1_556 S
C545 C546 1.396 1_546 S
C545 C550 1.390 . S
C546 C540 1.465 . S
C546 C545 1.396 1_564 S
C546 C547 1.399 1_554 S
C547 H533 0.929 1_556 S
C547 C546 1.399 1_556 S
C547 C548 1.385 . S
C548 H534 0.931 . S
C548 C547 1.385 . S
C548 C549 1.389 . S
C549 C548 1.389 . S
C549 C550 1.387 1_565 S
C550 H535 0.930 . S
C550 C545 1.390 . S
C550 C549 1.387 1_545 S
H551 C563 0.930 . S
H552 C565 0.930 . S
H553 C566 0.930 . S
H554 C570 0.959 . S
H555 C570 0.959 . S
H556 C570 0.961 . S
H557 C571 0.960 . S
H558 C571 0.961 . S
H559 C571 0.959 . S
H560 C574 0.929 . S
H561 C575 0.931 . S
H562 C577 0.930 . S
C563 H551 0.930 . S
C563 C564 1.399 . S
C563 C568 1.399 . S
C564 C563 1.399 . S
C564 C565 1.376 . S
C565 H552 0.930 . S
C565 C564 1.376 . S
C565 C566 1.388 . S
C566 H553 0.930 . S
C566 C565 1.388 . S
C566 C567 1.390 . S
C567 C566 1.390 . S
C567 C568 1.394 . S
C567 C573 1.467 . S
C568 C563 1.399 . S
C568 C567 1.394 . S
C568 C569 1.516 . S
C569 C568 1.516 . S
C569 C570 1.502 . S
C569 C571 1.561 . S
C569 C572 1.526 . S
C570 H554 0.959 . S
C570 H555 0.959 . S
C570 H556 0.961 . S
C570 C569 1.502 . S
C571 H557 0.960 . S
C571 H558 0.961 . S
C571 H559 0.959 . S
C571 C569 1.561 . S
C572 C569 1.526 . S
C572 C573 1.396 . S
C572 C577 1.390 1_554 S
C573 C567 1.467 . S
C573 C572 1.396 . S
C573 C574 1.397 1_554 S
C574 H560 0.929 . S
C574 C573 1.397 1_556 S
C574 C575 1.385 . S
C575 H561 0.931 . S
C575 C574 1.385 . S
C575 C576 1.389 . S
C576 C575 1.389 . S
C576 C577 1.387 . S
C577 H562 0.930 . S
C577 C572 1.390 1_556 S
C577 C576 1.387 . S
H578 C590 0.930 . S
H579 C592 0.930 . S
H580 C593 0.930 . S
H581 C597 0.959 . S
H582 C597 0.959 . S
H583 C597 0.961 1_554 S
H584 C598 0.960 . S
H585 C598 0.961 . S
H586 C598 0.959 . S
H587 C601 0.929 1_554 S
H588 C602 0.931 . S
H589 C604 0.930 . S
C590 H578 0.930 . S
C590 C591 1.399 . S
C590 C595 1.399 . S
C591 C590 1.399 . S
C591 C592 1.376 . S
C592 H579 0.930 . S
C592 C591 1.376 . S
C592 C593 1.388 . S
C593 H580 0.930 . S
C593 C592 1.388 . S
C593 C594 1.390 . S
C594 C593 1.390 . S
C594 C595 1.394 . S
C594 C600 1.465 . S
C595 C590 1.399 . S
C595 C594 1.394 . S
C595 C596 1.516 . S
C596 C595 1.516 . S
C596 C597 1.502 1_554 S
C596 C598 1.561 . S
C596 C599 1.526 1_554 S
C597 H581 0.959 . S
C597 H582 0.959 . S
C597 H583 0.961 1_556 S
C597 C596 1.502 1_556 S
C598 H584 0.960 . S
C598 H585 0.961 . S
C598 H586 0.959 . S
C598 C596 1.561 . S
C599 C596 1.526 1_556 S
C599 C600 1.396 1_556 S
C599 C604 1.390 . S
C600 C594 1.465 . S
C600 C599 1.396 1_554 S
C600 C601 1.399 1_554 S
C601 H587 0.929 1_556 S
C601 C600 1.399 1_556 S
C601 C602 1.385 . S
C602 H588 0.931 . S
C602 C601 1.385 . S
C602 C603 1.389 . S
C603 C602 1.389 . S
C603 C604 1.387 . S
C604 H589 0.930 . S
C604 C599 1.390 . S
C604 C603 1.387 . S
H605 C617 0.930 . S
H606 C619 0.930 . S
H607 C620 0.930 . S
H608 C624 0.959 . S
H609 C624 0.959 . S
H610 C624 0.961 . S
H611 C625 0.960 . S
H612 C625 0.961 . S
H613 C625 0.959 . S
H614 C628 0.929 . S
H615 C629 0.931 . S
H616 C631 0.930 . S
C617 H605 0.930 . S
C617 C618 1.399 1_455 S
C617 C622 1.405 . S
C618 C617 1.399 1_655 S
C618 C619 1.376 . S
C619 H606 0.930 . S
C619 C618 1.376 . S
C619 C620 1.388 . S
C620 H607 0.930 . S
C620 C619 1.388 . S
C620 C621 1.390 . S
C621 C620 1.390 . S
C621 C622 1.380 1_655 S
C621 C627 1.465 1_554 S
C622 C617 1.405 . S
C622 C621 1.380 1_455 S
C622 C623 1.523 . S
C623 C622 1.523 . S
C623 C624 1.502 . S
C623 C625 1.561 1_455 S
C623 C626 1.531 . S
C624 H608 0.959 . S
C624 H609 0.959 . S
C624 H610 0.961 . S
C624 C623 1.502 . S
C625 H611 0.960 . S
C625 H612 0.961 . S
C625 H613 0.959 . S
C625 C623 1.561 1_655 S
C626 C623 1.531 . S
C626 C627 1.388 1_454 S
C626 C631 1.392 1_554 S
C627 C621 1.465 1_556 S
C627 C626 1.388 1_656 S
C627 C628 1.399 . S
C628 H614 0.929 . S
C628 C627 1.399 . S
C628 C629 1.385 . S
C629 H615 0.931 . S
C629 C628 1.385 . S
C629 C630 1.389 . S
C630 C629 1.389 . S
C630 C631 1.387 1_655 S
C631 H616 0.930 . S
C631 C626 1.392 1_556 S
C631 C630 1.387 1_455 S
H632 C644 0.930 . S
H633 C646 0.930 . S
H634 C647 0.930 . S
H635 C651 0.959 . S
H636 C651 0.959 . S
H637 C651 0.961 . S
H638 C652 0.960 . S
H639 C652 0.961 . S
H640 C652 0.959 . S
H641 C655 0.929 . S
H642 C656 0.931 . S
H643 C658 0.930 . S
C644 H632 0.930 . S
C644 C645 1.400 . S
C644 C649 1.414 . S
C645 C644 1.400 . S
C645 C646 1.374 1_455 S
C646 H633 0.930 . S
C646 C645 1.374 1_655 S
C646 C647 1.388 . S
C647 H634 0.930 . S
C647 C646 1.388 . S
C647 C648 1.390 . S
C648 C647 1.390 . S
C648 C649 1.364 1_655 S
C648 C654 1.465 . S
C649 C644 1.414 . S
C649 C648 1.364 1_455 S
C649 C650 1.527 . S
C650 C649 1.527 . S
C650 C651 1.502 . S
C650 C652 1.561 . S
C650 C653 1.526 1_455 S
C651 H635 0.959 . S
C651 H636 0.959 . S
C651 H637 0.961 . S
C651 C650 1.502 . S
C652 H638 0.960 . S
C652 H639 0.961 . S
C652 H640 0.959 . S
C652 C650 1.561 . S
C653 C650 1.526 1_655 S
C653 C654 1.396 . S
C653 C658 1.390 . S
C654 C648 1.465 . S
C654 C653 1.396 . S
C654 C655 1.399 . S
C655 H641 0.929 . S
C655 C654 1.399 . S
C655 C656 1.385 . S
C656 H642 0.931 . S
C656 C655 1.385 . S
C656 C657 1.389 . S
C657 C656 1.389 . S
C657 C658 1.387 . S
C658 H643 0.930 . S
C658 C653 1.390 . S
C658 C657 1.387 . S
H659 C671 0.930 . S
H660 C673 0.930 . S
H661 C674 0.930 . S
H662 C678 0.959 . S
H663 C678 0.959 . S
H664 C678 0.961 . S
H665 C679 0.960 . S
H666 C679 0.961 . S
H667 C679 0.959 . S
H668 C682 0.929 . S
H669 C683 0.931 1_545 S
H670 C685 0.930 . S
C671 H659 0.930 . S
C671 C672 1.399 1_565 S
C671 C676 1.399 . S
C672 C671 1.399 1_545 S
C672 C673 1.376 . S
C673 H660 0.930 . S
C673 C672 1.376 . S
C673 C674 1.388 . S
C674 H661 0.930 . S
C674 C673 1.388 . S
C674 C675 1.374 1_545 S
C675 C674 1.374 1_565 S
C675 C676 1.408 . S
C675 C681 1.470 . S
C676 C671 1.399 . S
C676 C675 1.408 . S
C676 C677 1.516 . S
C677 C676 1.516 . S
C677 C678 1.502 . S
C677 C679 1.561 . S
C677 C680 1.526 . S
C678 H662 0.959 . S
C678 H663 0.959 . S
C678 H664 0.961 . S
C678 C677 1.502 . S
C679 H665 0.960 . S
C679 H666 0.961 . S
C679 H667 0.959 . S
C679 C677 1.561 . S
C680 C677 1.526 . S
C680 C681 1.396 . S
C680 C685 1.390 . S
C681 C675 1.470 . S
C681 C680 1.396 . S
C681 C682 1.399 1_565 S
C682 H668 0.929 . S
C682 C681 1.399 1_545 S
C682 C683 1.385 1_545 S
C683 H669 0.931 1_565 S
C683 C682 1.385 1_565 S
C683 C684 1.389 . S
C684 C683 1.389 . S
C684 C685 1.387 . S
C685 H670 0.930 . S
C685 C680 1.390 . S
C685 C684 1.387 . S
H686 C698 0.930 . S
H687 C700 0.930 . S
H688 C701 0.930 . S
H689 C705 0.959 . S
H690 C705 0.959 . S
H691 C705 0.961 . S
H692 C706 0.960 . S
H693 C706 0.961 . S
H694 C706 0.959 . S
H695 C709 0.929 . S
H696 C710 0.931 . S
H697 C712 0.930 . S
C698 H686 0.930 . S
C698 C699 1.399 . S
C698 C703 1.399 . S
C699 C698 1.399 . S
C699 C700 1.376 . S
C700 H687 0.930 . S
C700 C699 1.376 . S
C700 C701 1.388 . S
C701 H688 0.930 . S
C701 C700 1.388 . S
C701 C702 1.390 . S
C702 C701 1.390 . S
C702 C703 1.394 . S
C702 C708 1.465 . S
C703 C698 1.399 . S
C703 C702 1.394 . S
C703 C704 1.516 . S
C704 C703 1.516 . S
C704 C705 1.502 . S
C704 C706 1.561 . S
C704 C707 1.526 . S
C705 H689 0.959 . S
C705 H690 0.959 . S
C705 H691 0.961 . S
C705 C704 1.502 . S
C706 H692 0.960 . S
C706 H693 0.961 . S
C706 H694 0.959 . S
C706 C704 1.561 . S
C707 C704 1.526 . S
C707 C708 1.396 . S
C707 C712 1.390 . S
C708 C702 1.465 . S
C708 C707 1.396 . S
C708 C709 1.399 . S
C709 H695 0.929 . S
C709 C708 1.399 . S
C709 C710 1.385 . S
C710 H696 0.931 . S
C710 C709 1.385 . S
C710 C711 1.389 . S
C711 C710 1.389 . S
C711 C712 1.387 . S
C712 H697 0.930 . S
C712 C707 1.390 . S
C712 C711 1.387 . S
H713 C725 0.930 . S
H714 C727 0.930 . S
H715 C728 0.930 . S
H716 C732 0.959 . S
H717 C732 0.959 . S
H718 C732 0.961 . S
H719 C733 0.960 . S
H720 C733 0.961 . S
H721 C733 0.959 . S
H722 C736 0.929 . S
H723 C737 0.931 . S
H724 C739 0.930 . S
C725 H713 0.930 . S
C725 C726 1.399 . S
C725 C730 1.399 . S
C726 C725 1.399 . S
C726 C727 1.376 . S
C727 H714 0.930 . S
C727 C726 1.376 . S
C727 C728 1.388 . S
C728 H715 0.930 . S
C728 C727 1.388 . S
C728 C729 1.390 . S
C729 C728 1.390 . S
C729 C730 1.394 . S
C729 C735 1.465 . S
C730 C725 1.399 . S
C730 C729 1.394 . S
C730 C731 1.516 . S
C731 C730 1.516 . S
C731 C732 1.502 . S
C731 C733 1.561 . S
C731 C734 1.526 . S
C732 H716 0.959 . S
C732 H717 0.959 . S
C732 H718 0.961 . S
C732 C731 1.502 . S
C733 H719 0.960 . S
C733 H720 0.961 . S
C733 H721 0.959 . S
C733 C731 1.561 . S
C734 C731 1.526 . S
C734 C735 1.396 . S
C734 C739 1.390 . S
C735 C729 1.465 . S
C735 C734 1.396 . S
C735 C736 1.399 . S
C736 H722 0.929 . S
C736 C735 1.399 . S
C736 C737 1.385 . S
C737 H723 0.931 . S
C737 C736 1.385 . S
C737 C738 1.389 . S
C738 C737 1.389 . S
C738 C739 1.387 . S
C739 H724 0.930 . S
C739 C734 1.390 . S
C739 C738 1.387 . S
H740 C752 0.930 . S
H741 C754 0.930 . S
H742 C755 0.930 . S
H743 C759 0.959 . S
H744 C759 0.959 . S
H745 C759 0.961 . S
H746 C760 0.960 . S
H747 C760 0.961 . S
H748 C760 0.959 . S
H749 C763 0.929 . S
H750 C764 0.931 . S
H751 C766 0.930 . S
C752 H740 0.930 . S
C752 C753 1.399 1_455 S
C752 C757 1.399 . S
C753 C752 1.399 1_655 S
C753 C754 1.376 . S
C754 H741 0.930 . S
C754 C753 1.376 . S
C754 C755 1.388 1_655 S
C755 H742 0.930 . S
C755 C754 1.388 1_455 S
C755 C756 1.390 . S
C756 C755 1.390 . S
C756 C757 1.394 . S
C756 C762 1.465 . S
C757 C752 1.399 . S
C757 C756 1.394 . S
C757 C758 1.515 . S
C758 C757 1.515 . S
C758 C759 1.502 1_554 S
C758 C760 1.562 1_454 S
C758 C761 1.526 . S
C759 H743 0.959 . S
C759 H744 0.959 . S
C759 H745 0.961 . S
C759 C758 1.502 1_556 S
C760 H746 0.960 . S
C760 H747 0.961 . S
C760 H748 0.959 . S
C760 C758 1.562 1_656 S
C761 C758 1.526 . S
C761 C762 1.396 . S
C761 C766 1.390 1_554 S
C762 C756 1.465 . S
C762 C761 1.396 . S
C762 C763 1.399 . S
C763 H749 0.929 . S
C763 C762 1.399 . S
C763 C764 1.385 . S
C764 H750 0.931 . S
C764 C763 1.385 . S
C764 C765 1.389 1_554 S
C765 C764 1.389 1_556 S
C765 C766 1.387 . S
C766 H751 0.930 . S
C766 C761 1.390 1_556 S
C766 C765 1.387 . S
H767 C779 0.930 . S
H768 C781 0.930 . S
H769 C782 0.930 . S
H770 C786 0.959 . S
H771 C786 0.959 . S
H772 C786 0.961 . S
H773 C787 0.960 . S
H774 C787 0.961 1_556 S
H775 C787 0.959 1_556 S
H776 C790 0.929 . S
H777 C791 0.931 1_565 S
H778 C793 0.930 . S
C779 H767 0.930 . S
C779 C780 1.399 1_545 S
C779 C784 1.399 . S
C780 C779 1.399 1_565 S
C780 C781 1.376 . S
C781 H768 0.930 . S
C781 C780 1.376 . S
C781 C782 1.388 . S
C782 H769 0.930 . S
C782 C781 1.388 . S
C782 C783 1.364 1_565 S
C783 C782 1.364 1_545 S
C783 C784 1.417 . S
C783 C789 1.474 . S
C784 C779 1.399 . S
C784 C783 1.417 . S
C784 C785 1.516 . S
C785 C784 1.516 . S
C785 C786 1.502 . S
C785 C787 1.561 . S
C785 C788 1.526 . S
C786 H770 0.959 . S
C786 H771 0.959 . S
C786 H772 0.961 . S
C786 C785 1.502 . S
C787 H773 0.960 . S
C787 H774 0.961 1_554 S
C787 H775 0.959 1_554 S
C787 C785 1.561 . S
C788 C785 1.526 . S
C788 C789 1.396 . S
C788 C793 1.390 . S
C789 C783 1.474 . S
C789 C788 1.396 . S
C789 C790 1.399 1_545 S
C790 H776 0.929 . S
C790 C789 1.399 1_565 S
C790 C791 1.385 1_564 S
C791 H777 0.931 1_545 S
C791 C790 1.385 1_546 S
C791 C792 1.389 . S
C792 C791 1.389 . S
C792 C793 1.387 1_556 S
C793 H778 0.930 . S
C793 C788 1.390 . S
C793 C792 1.387 1_554 S
H794 C806 0.930 . S
H795 C808 0.930 . S
H796 C809 0.930 1_556 S
H797 C813 0.959 . S
H798 C813 0.959 . S
H799 C813 0.961 . S
H800 C814 0.960 . S
H801 C814 0.961 . S
H802 C814 0.959 . S
H803 C817 0.929 . S
H804 C818 0.931 . S
H805 C820 0.930 . S
C806 H794 0.930 . S
C806 C807 1.399 . S
C806 C811 1.399 . S
C807 C806 1.399 . S
C807 C808 1.376 . S
C808 H795 0.930 . S
C808 C807 1.376 . S
C808 C809 1.388 . S
C809 H796 0.930 1_554 S
C809 C808 1.388 . S
C809 C810 1.390 . S
C810 C809 1.390 . S
C810 C811 1.394 . S
C810 C816 1.465 . S
C811 C806 1.399 . S
C811 C810 1.394 . S
C811 C812 1.516 . S
C812 C811 1.516 . S
C812 C813 1.502 . S
C812 C814 1.561 . S
C812 C815 1.526 . S
C813 H797 0.959 . S
C813 H798 0.959 . S
C813 H799 0.961 . S
C813 C812 1.502 . S
C814 H800 0.960 . S
C814 H801 0.961 . S
C814 H802 0.959 . S
C814 C812 1.561 . S
C815 C812 1.526 . S
C815 C816 1.396 . S
C815 C820 1.390 . S
C816 C810 1.465 . S
C816 C815 1.396 . S
C816 C817 1.399 1_554 S
C817 H803 0.929 . S
C817 C816 1.399 1_556 S
C817 C818 1.385 . S
C818 H804 0.931 . S
C818 C817 1.385 . S
C818 C819 1.389 . S
C819 C818 1.389 . S
C819 C820 1.387 1_556 S
C820 H805 0.930 . S
C820 C815 1.390 . S
C820 C819 1.387 1_554 S
H821 C833 0.930 . S
H822 C835 0.930 . S
H823 C836 0.930 . S
H824 C840 0.959 1_556 S
H825 C840 0.959 . S
H826 C840 0.961 . S
H827 C841 0.960 . S
H828 C841 0.961 . S
H829 C841 0.959 . S
H830 C844 0.929 . S
H831 C845 0.931 1_556 S
H832 C847 0.930 1_556 S
C833 H821 0.930 . S
C833 C834 1.399 . S
C833 C838 1.399 . S
C834 C833 1.399 . S
C834 C835 1.376 . S
C835 H822 0.930 . S
C835 C834 1.376 . S
C835 C836 1.388 . S
C836 H823 0.930 . S
C836 C835 1.388 . S
C836 C837 1.390 . S
C837 C836 1.390 . S
C837 C838 1.394 . S
C837 C843 1.465 . S
C838 C833 1.399 . S
C838 C837 1.394 . S
C838 C839 1.516 . S
C839 C838 1.516 . S
C839 C840 1.502 . S
C839 C841 1.561 . S
C839 C842 1.526 . S
C840 H824 0.959 1_554 S
C840 H825 0.959 . S
C840 H826 0.961 . S
C840 C839 1.502 . S
C841 H827 0.960 . S
C841 H828 0.961 . S
C841 H829 0.959 . S
C841 C839 1.561 . S
C842 C839 1.526 . S
C842 C843 1.396 . S
C842 C847 1.390 . S
C843 C837 1.465 . S
C843 C842 1.396 . S
C843 C844 1.399 . S
C844 H830 0.929 . S
C844 C843 1.399 . S
C844 C845 1.385 . S
C845 H831 0.931 1_554 S
C845 C844 1.385 . S
C845 C846 1.389 1_554 S
C846 C845 1.389 1_556 S
C846 C847 1.387 1_556 S
C847 H832 0.930 1_554 S
C847 C842 1.390 . S
C847 C846 1.387 1_554 S
H848 C860 0.930 . S
H849 C862 0.930 . S
H850 C863 0.930 . S
H851 C867 0.959 . S
H852 C867 0.959 . S
H853 C867 0.961 . S
H854 C868 0.960 . S
H855 C868 0.961 . S
H856 C868 0.959 . S
H857 C871 0.929 . S
H858 C872 0.931 . S
H859 C874 0.930 1_655 S
C860 H848 0.930 . S
C860 C861 1.399 1_655 S
C860 C865 1.399 1_655 S
C861 C860 1.399 1_455 S
C861 C862 1.376 . S
C862 H849 0.930 . S
C862 C861 1.376 . S
C862 C863 1.388 . S
C863 H850 0.930 . S
C863 C862 1.388 . S
C863 C864 1.390 . S
C864 C863 1.390 . S
C864 C865 1.394 . S
C864 C870 1.465 . S
C865 C860 1.399 1_455 S
C865 C864 1.394 . S
C865 C866 1.516 1_455 S
C866 C865 1.516 1_655 S
C866 C867 1.502 . S
C866 C868 1.561 1_655 S
C866 C869 1.526 1_655 S
C867 H851 0.959 . S
C867 H852 0.959 . S
C867 H853 0.961 . S
C867 C866 1.502 . S
C868 H854 0.960 . S
C868 H855 0.961 . S
C868 H856 0.959 . S
C868 C866 1.561 1_455 S
C869 C866 1.526 1_455 S
C869 C870 1.396 . S
C869 C874 1.390 . S
C870 C864 1.465 . S
C870 C869 1.396 . S
C870 C871 1.399 . S
C871 H857 0.929 . S
C871 C870 1.399 . S
C871 C872 1.385 . S
C872 H858 0.931 . S
C872 C871 1.385 . S
C872 C873 1.389 . S
C873 C872 1.389 . S
C873 C874 1.387 . S
C874 H859 0.930 1_455 S
C874 C869 1.390 . S
C874 C873 1.387 . S
H875 C887 0.930 . S
H876 C889 0.930 . S
H877 C890 0.930 . S
H878 C894 0.959 . S
H879 C894 0.959 . S
H880 C894 0.961 . S
H881 C895 0.960 . S
H882 C895 0.961 . S
H883 C895 0.959 . S
H884 C898 0.929 . S
H885 C899 0.931 . S
H886 C901 0.930 . S
C887 H875 0.930 . S
C887 C888 1.396 . S
C887 C892 1.399 . S
C888 C887 1.396 . S
C888 C889 1.380 1_545 S
C889 H876 0.930 . S
C889 C888 1.380 1_565 S
C889 C890 1.388 . S
C890 H877 0.930 . S
C890 C889 1.388 . S
C890 C891 1.390 . S
C891 C890 1.390 . S
C891 C892 1.394 1_565 S
C891 C897 1.465 . S
C892 C887 1.399 . S
C892 C891 1.394 1_545 S
C892 C893 1.516 . S
C893 C892 1.516 . S
C893 C894 1.502 . S
C893 C895 1.561 . S
C893 C896 1.526 . S
C894 H878 0.959 . S
C894 H879 0.959 . S
C894 H880 0.961 . S
C894 C893 1.502 . S
C895 H881 0.960 . S
C895 H882 0.961 . S
C895 H883 0.959 . S
C895 C893 1.561 . S
C896 C893 1.526 . S
C896 C897 1.396 1_545 S
C896 C901 1.390 . S
C897 C891 1.465 . S
C897 C896 1.396 1_565 S
C897 C898 1.399 . S
C898 H884 0.929 . S
C898 C897 1.399 . S
C898 C899 1.385 . S
C899 H885 0.931 . S
C899 C898 1.385 . S
C899 C900 1.389 1_565 S
C900 C899 1.389 1_545 S
C900 C901 1.387 . S
C901 H886 0.930 . S
C901 C896 1.390 . S
C901 C900 1.387 . S
H902 C914 0.930 . S
H903 C916 0.930 . S
H904 C917 0.930 . S
H905 C921 0.959 . S
H906 C921 0.959 . S
H907 C921 0.961 . S
H908 C922 0.960 . S
H909 C922 0.961 . S
H910 C922 0.959 . S
H911 C925 0.929 . S
H912 C926 0.931 . S
H913 C928 0.930 . S
C914 H902 0.930 . S
C914 C915 1.399 . S
C914 C919 1.399 . S
C915 C914 1.399 . S
C915 C916 1.376 . S
C916 H903 0.930 . S
C916 C915 1.376 . S
C916 C917 1.388 . S
C917 H904 0.930 . S
C917 C916 1.388 . S
C917 C918 1.390 . S
C918 C917 1.390 . S
C918 C919 1.394 . S
C918 C924 1.465 . S
C919 C914 1.399 . S
C919 C918 1.394 . S
C919 C920 1.516 . S
C920 C919 1.516 . S
C920 C921 1.502 . S
C920 C922 1.561 . S
C920 C923 1.526 . S
C921 H905 0.959 . S
C921 H906 0.959 . S
C921 H907 0.961 . S
C921 C920 1.502 . S
C922 H908 0.960 . S
C922 H909 0.961 . S
C922 H910 0.959 . S
C922 C920 1.561 . S
C923 C920 1.526 . S
C923 C924 1.396 . S
C923 C928 1.390 . S
C924 C918 1.465 . S
C924 C923 1.396 . S
C924 C925 1.399 . S
C925 H911 0.929 . S
C925 C924 1.399 . S
C925 C926 1.385 . S
C926 H912 0.931 . S
C926 C925 1.385 . S
C926 C927 1.389 . S
C927 C926 1.389 . S
C927 C928 1.387 . S
C928 H913 0.930 . S
C928 C923 1.390 . S
C928 C927 1.387 . S
H929 C941 0.930 . S
H930 C943 0.930 . S
H931 C944 0.930 . S
H932 C948 0.959 . S
H933 C948 0.959 . S
H934 C948 0.961 . S
H935 C949 0.960 . S
H936 C949 0.961 . S
H937 C949 0.959 . S
H938 C952 0.929 . S
H939 C953 0.931 . S
H940 C955 0.930 . S
C941 H929 0.930 . S
C941 C942 1.399 . S
C941 C946 1.399 . S
C942 C941 1.399 . S
C942 C943 1.376 . S
C943 H930 0.930 . S
C943 C942 1.376 . S
C943 C944 1.388 . S
C944 H931 0.930 . S
C944 C943 1.388 . S
C944 C945 1.390 . S
C945 C944 1.390 . S
C945 C946 1.394 . S
C945 C951 1.465 . S
C946 C941 1.399 . S
C946 C945 1.394 . S
C946 C947 1.516 . S
C947 C946 1.516 . S
C947 C948 1.502 . S
C947 C949 1.561 . S
C947 C950 1.526 . S
C948 H932 0.959 . S
C948 H933 0.959 . S
C948 H934 0.961 . S
C948 C947 1.502 . S
C949 H935 0.960 . S
C949 H936 0.961 . S
C949 H937 0.959 . S
C949 C947 1.561 . S
C950 C947 1.526 . S
C950 C951 1.396 . S
C950 C955 1.390 . S
C951 C945 1.465 . S
C951 C950 1.396 . S
C951 C952 1.399 . S
C952 H938 0.929 . S
C952 C951 1.399 . S
C952 C953 1.385 . S
C953 H939 0.931 . S
C953 C952 1.385 . S
C953 C954 1.389 . S
C954 C953 1.389 . S
C954 C955 1.387 . S
C955 H940 0.930 . S
C955 C950 1.390 . S
C955 C954 1.387 . S
H956 C968 0.930 . S
H957 C970 0.930 . S
H958 C971 0.930 . S
H959 C975 0.959 . S
H960 C975 0.959 . S
H961 C975 0.961 . S
H962 C976 0.960 . S
H963 C976 0.961 . S
H964 C976 0.959 . S
H965 C979 0.929 . S
H966 C980 0.931 . S
H967 C982 0.930 1_455 S
C968 H956 0.930 . S
C968 C969 1.399 1_455 S
C968 C973 1.399 1_455 S
C969 C968 1.399 1_655 S
C969 C970 1.376 . S
C970 H957 0.930 . S
C970 C969 1.376 . S
C970 C971 1.388 . S
C971 H958 0.930 . S
C971 C970 1.388 . S
C971 C972 1.390 . S
C972 C971 1.390 . S
C972 C973 1.394 . S
C972 C978 1.465 . S
C973 C968 1.399 1_655 S
C973 C972 1.394 . S
C973 C974 1.516 1_655 S
C974 C973 1.516 1_455 S
C974 C975 1.502 . S
C974 C976 1.561 1_455 S
C974 C977 1.526 1_455 S
C975 H959 0.959 . S
C975 H960 0.959 . S
C975 H961 0.961 . S
C975 C974 1.502 . S
C976 H962 0.960 . S
C976 H963 0.961 . S
C976 H964 0.959 . S
C976 C974 1.561 1_655 S
C977 C974 1.526 1_655 S
C977 C978 1.396 . S
C977 C982 1.390 . S
C978 C972 1.465 . S
C978 C977 1.396 . S
C978 C979 1.399 . S
C979 H965 0.929 . S
C979 C978 1.399 . S
C979 C980 1.385 . S
C980 H966 0.931 . S
C980 C979 1.385 . S
C980 C981 1.389 . S
C981 C980 1.389 . S
C981 C982 1.387 . S
C982 H967 0.930 1_655 S
C982 C977 1.390 . S
C982 C981 1.387 . S
H983 C995 0.930 . S
H984 C997 0.930 . S
H985 C998 0.930 . S
H986 C1002 0.959 . S
H987 C1002 0.959 . S
H988 C1002 0.961 . S
H989 C1003 0.960 . S
H990 C1003 0.961 . S
H991 C1003 0.959 . S
H992 C1006 0.929 . S
H993 C1007 0.931 . S
H994 C1009 0.930 . S
C995 H983 0.930 . S
C995 C996 1.399 1_545 S
C995 C1000 1.399 . S
C996 C995 1.399 1_565 S
C996 C997 1.376 . S
C997 H984 0.930 . S
C997 C996 1.376 . S
C997 C998 1.388 . S
C998 H985 0.930 . S
C998 C997 1.388 . S
C998 C999 1.390 . S
C999 C998 1.390 . S
C999 C1000 1.394 1_565 S
C999 C1005 1.465 . S
C1000 C995 1.399 . S
C1000 C999 1.394 1_545 S
C1000 C1001 1.516 . S
C1001 C1000 1.516 . S
C1001 C1002 1.502 . S
C1001 C1003 1.561 . S
C1001 C1004 1.526 . S
C1002 H986 0.959 . S
C1002 H987 0.959 . S
C1002 H988 0.961 . S
C1002 C1001 1.502 . S
C1003 H989 0.960 . S
C1003 H990 0.961 . S
C1003 H991 0.959 . S
C1003 C1001 1.561 . S
C1004 C1001 1.526 . S
C1004 C1005 1.396 1_545 S
C1004 C1009 1.390 . S
C1005 C999 1.465 . S
C1005 C1004 1.396 1_565 S
C1005 C1006 1.399 . S
C1006 H992 0.929 . S
C1006 C1005 1.399 . S
C1006 C1007 1.385 . S
C1007 H993 0.931 . S
C1007 C1006 1.385 . S
C1007 C1008 1.389 . S
C1008 C1007 1.389 . S
C1008 C1009 1.387 1_565 S
C1009 H994 0.930 . S
C1009 C1004 1.390 . S
C1009 C1008 1.387 1_545 S
H1010 C1022 0.930 . S
H1011 C1024 0.930 . S
H1012 C1025 0.930 . S
H1013 C1029 0.959 . S
H1014 C1029 0.959 . S
H1015 C1029 0.961 . S
H1016 C1030 0.960 . S
H1017 C1030 0.961 . S
H1018 C1030 0.959 . S
H1019 C1033 0.929 . S
H1020 C1034 0.931 . S
H1021 C1036 0.930 . S
C1022 H1010 0.930 . S
C1022 C1023 1.399 . S
C1022 C1027 1.399 . S
C1023 C1022 1.399 . S
C1023 C1024 1.376 . S
C1024 H1011 0.930 . S
C1024 C1023 1.376 . S
C1024 C1025 1.388 . S
C1025 H1012 0.930 . S
C1025 C1024 1.388 . S
C1025 C1026 1.390 . S
C1026 C1025 1.390 . S
C1026 C1027 1.394 . S
C1026 C1032 1.465 . S
C1027 C1022 1.399 . S
C1027 C1026 1.394 . S
C1027 C1028 1.516 . S
C1028 C1027 1.516 . S
C1028 C1029 1.502 . S
C1028 C1030 1.561 . S
C1028 C1031 1.526 . S
C1029 H1013 0.959 . S
C1029 H1014 0.959 . S
C1029 H1015 0.961 . S
C1029 C1028 1.502 . S
C1030 H1016 0.960 . S
C1030 H1017 0.961 . S
C1030 H1018 0.959 . S
C1030 C1028 1.561 . S
C1031 C1028 1.526 . S
C1031 C1032 1.396 . S
C1031 C1036 1.390 . S
C1032 C1026 1.465 . S
C1032 C1031 1.396 . S
C1032 C1033 1.399 . S
C1033 H1019 0.929 . S
C1033 C1032 1.399 . S
C1033 C1034 1.385 . S
C1034 H1020 0.931 . S
C1034 C1033 1.385 . S
C1034 C1035 1.389 . S
C1035 C1034 1.389 . S
C1035 C1036 1.387 . S
C1036 H1021 0.930 . S
C1036 C1031 1.390 . S
C1036 C1035 1.387 . S
H1037 C1049 0.930 . S
H1038 C1051 0.930 . S
H1039 C1052 0.930 . S
H1040 C1056 0.959 . S
H1041 C1056 0.959 . S
H1042 C1056 0.961 . S
H1043 C1057 0.960 . S
H1044 C1057 0.961 . S
H1045 C1057 0.959 . S
H1046 C1060 0.929 . S
H1047 C1061 0.931 . S
H1048 C1063 0.930 . S
C1049 H1037 0.930 . S
C1049 C1050 1.399 . S
C1049 C1054 1.399 . S
C1050 C1049 1.399 . S
C1050 C1051 1.376 . S
C1051 H1038 0.930 . S
C1051 C1050 1.376 . S
C1051 C1052 1.388 . S
C1052 H1039 0.930 . S
C1052 C1051 1.388 . S
C1052 C1053 1.390 . S
C1053 C1052 1.390 . S
C1053 C1054 1.394 . S
C1053 C1059 1.465 . S
C1054 C1049 1.399 . S
C1054 C1053 1.394 . S
C1054 C1055 1.516 . S
C1055 C1054 1.516 . S
C1055 C1056 1.502 . S
C1055 C1057 1.561 . S
C1055 C1058 1.526 . S
C1056 H1040 0.959 . S
C1056 H1041 0.959 . S
C1056 H1042 0.961 . S
C1056 C1055 1.502 . S
C1057 H1043 0.960 . S
C1057 H1044 0.961 . S
C1057 H1045 0.959 . S
C1057 C1055 1.561 . S
C1058 C1055 1.526 . S
C1058 C1059 1.396 . S
C1058 C1063 1.390 . S
C1059 C1053 1.465 . S
C1059 C1058 1.396 . S
C1059 C1060 1.399 . S
C1060 H1046 0.929 . S
C1060 C1059 1.399 . S
C1060 C1061 1.385 . S
C1061 H1047 0.931 . S
C1061 C1060 1.385 . S
C1061 C1062 1.389 . S
C1062 C1061 1.389 . S
C1062 C1063 1.387 . S
C1063 H1048 0.930 . S
C1063 C1058 1.390 . S
C1063 C1062 1.387 . S
C429 C215 2.075 1_565 S
C441 C274 2.211 . S
C468 C314 2.231 . S
C456 C247 2.059 . S
C495 C354 2.229 . S
C483 C151 2.086 . S
C522 C394 2.223 1_455 S
C510 C183 2.053 . S
C549 C264 2.221 1_565 S
C537 C87 2.077 1_565 S
C564 C119 2.043 . S
C576 C304 2.237 . S
C591 C23 2.103 . S
C603 C344 2.241 . S
C618 C55 2.029 1_655 S
C630 C384 2.225 1_655 S
C657 C261 0.538 . S
C645 C189 0.413 . S
C684 C301 0.324 . S
C672 C221 0.337 . S
C711 C341 0.465 . S
C699 C253 0.371 . S
C726 C157 0.433 . S
C738 C381 0.496 . S
C753 C61 0.575 1_655 S
C765 C271 0.428 . S
C792 C311 0.322 . S
C780 C93 0.653 1_565 S
C819 C351 0.389 . S
C807 C125 0.561 . S
C834 C29 0.368 . S
C846 C391 0.531 . S
C861 C177 2.466 . S
C873 C265 2.808 . S
C888 C209 2.465 . S
C900 C305 2.757 . S
C927 C345 2.766 . S
C915 C241 2.410 . S
C954 C385 2.776 . S
C942 C145 2.504 . S
C969 C49 2.560 1_655 S
C981 C275 2.816 . S
C1008 C315 2.786 . S
C996 C81 2.480 1_565 S
C1035 C355 2.751 . S
C1023 C113 2.453 . S
C1050 C17 2.530 . S
C1062 C395 2.809 . S
