# Generated by pormake.
# Topology anh, (6,3)-cn, num edge types: 1
# Building blocks:
#     Node 0, Type 0, BuildingBlock: INOVEN_clean_sbu_0, # of connection points: 6
#     Node 1, Type 0, BuildingBlock: INOVEN_clean_sbu_0, # of connection points: 6
#     Node 2, Type 0, BuildingBlock: INOVEN_clean_sbu_0, # of connection points: 6
#     Node 3, Type 1, BuildingBlock: ESEHIV_clean_linker_0, # of connection points: 3
#     Node 4, Type 1, BuildingBlock: ESEHIV_clean_linker_0, # of connection points: 3
#     Node 5, Type 1, BuildingBlock: ESEHIV_clean_linker_0, # of connection points: 3
#     Node 6, Type 1, BuildingBlock: ESEHIV_clean_linker_0, # of connection points: 3
#     Node 7, Type 1, BuildingBlock: ESEHIV_clean_linker_0, # of connection points: 3
#     Node 8, Type 1, BuildingBlock: ESEHIV_clean_linker_0, # of connection points: 3
#     Edge 9, Type (0, 1), BuildingBlock: UVAHIK_clean_linker_0, # of connection points: 2
#     Edge 10, Type (0, 1), BuildingBlock: UVAHIK_clean_linker_0, # of connection points: 2
#     Edge 11, Type (0, 1), BuildingBlock: UVAHIK_clean_linker_0, # of connection points: 2
#     Edge 12, Type (0, 1), BuildingBlock: UVAHIK_clean_linker_0, # of connection points: 2
#     Edge 13, Type (0, 1), BuildingBlock: UVAHIK_clean_linker_0, # of connection points: 2
#     Edge 14, Type (0, 1), BuildingBlock: UVAHIK_clean_linker_0, # of connection points: 2
#     Edge 15, Type (0, 1), BuildingBlock: UVAHIK_clean_linker_0, # of connection points: 2
#     Edge 16, Type (0, 1), BuildingBlock: UVAHIK_clean_linker_0, # of connection points: 2
#     Edge 17, Type (0, 1), BuildingBlock: UVAHIK_clean_linker_0, # of connection points: 2
#     Edge 18, Type (0, 1), BuildingBlock: UVAHIK_clean_linker_0, # of connection points: 2
#     Edge 19, Type (0, 1), BuildingBlock: UVAHIK_clean_linker_0, # of connection points: 2
#     Edge 20, Type (0, 1), BuildingBlock: UVAHIK_clean_linker_0, # of connection points: 2
#     Edge 21, Type (0, 1), BuildingBlock: UVAHIK_clean_linker_0, # of connection points: 2
#     Edge 22, Type (0, 1), BuildingBlock: UVAHIK_clean_linker_0, # of connection points: 2
#     Edge 23, Type (0, 1), BuildingBlock: UVAHIK_clean_linker_0, # of connection points: 2
#     Edge 24, Type (0, 1), BuildingBlock: UVAHIK_clean_linker_0, # of connection points: 2
#     Edge 25, Type (0, 1), BuildingBlock: UVAHIK_clean_linker_0, # of connection points: 2
#     Edge 26, Type (0, 1), BuildingBlock: UVAHIK_clean_linker_0, # of connection points: 2
# Relax obj value: 0.179
# Max RMSD: 0.212
# Mean RMSD: 0.157
data_MOF--net-anh--node1-INOVEN_clean_sbu_0--node2-ESEHIV_clean_linker_0--edge1-UVAHIK_clean_linker_0
_symmetry_space_group_name_H-M    P1
_symmetry_Int_Tables_number       1
_symmetry_cell_setting            triclinic
loop_
_symmetry_equiv_pos_as_xyz
'x, y, z'
_cell_length_a     36.698625
_cell_length_b     43.91072
_cell_length_c     67.178396
_cell_angle_alpha  92.941278
_cell_angle_beta   89.511116
_cell_angle_gamma 127.84449
loop_
_atom_site_label
_atom_site_type_symbol
_atom_site_fract_x
_atom_site_fract_y
_atom_site_fract_z
_atom_type_partial_charge
Gd0 Gd 0.10688 0.51326 0.1438 0.0
Gd1 Gd 1.05416 0.5396 0.16218 0.0
C2 C 0.15916 0.60585 0.15548 0.0
C3 C 0.16256 0.50865 0.1229 0.0
C4 C 0.21219 0.52916 0.12591 0.0
C5 C 0.23297 0.54608 0.14482 0.0
C6 C 0.23894 0.53151 0.11019 0.0
C7 C 0.30592 0.56413 0.13278 0.0
C8 C 0.28568 0.54908 0.11358 0.0
C9 C 0.27942 0.56314 0.14828 0.0
C10 C 0.10364 0.51284 0.18384 0.0
C11 C 1.00156 0.44775 0.15064 0.0
C12 C 0.9974 0.54078 0.1842 0.0
C13 C 0.9478 0.50942 0.18679 0.0
C14 C 0.91665 0.494 0.17041 0.0
C15 C 0.93227 0.49131 0.20497 0.0
C16 C 0.85641 0.44148 0.18983 0.0
C17 C 0.88686 0.45763 0.2065 0.0
C18 C 0.87157 0.46056 0.17194 0.0
C19 C 1.05858 0.54006 0.12205 0.0
O20 O 0.15871 0.57912 0.14503 0.0
O21 O 0.12345 0.59683 0.16591 0.0
O22 O 0.1367 0.48448 0.13653 0.0
O23 O 0.15071 0.53014 0.11826 0.0
O24 O 0.10388 0.48797 0.17274 0.0
O25 O 0.10897 0.53823 0.17344 0.0
O26 O 1.00419 0.47438 0.16218 0.0
O27 O 1.03568 0.45696 0.13892 0.0
O28 O 1.00933 0.55567 0.1667 0.0
O29 O 1.02526 0.53446 0.19119 0.0
O30 O 1.0594 0.56572 0.13303 0.0
O31 O 1.05229 0.5145 0.13261 0.0
H32 H 0.21287 0.54506 0.15706 0.0
H33 H 0.22343 0.51891 0.09548 0.0
H34 H 0.30542 0.54919 0.10146 0.0
H35 H 0.29437 0.57465 0.16317 0.0
H36 H 0.9273 0.50701 0.15614 0.0
H37 H 0.95572 0.50248 0.21778 0.0
H38 H 0.876 0.44369 0.22051 0.0
H39 H 0.84854 0.44953 0.15898 0.0
Gd40 Gd 0.62224 0.01676 0.48064 0.0
Gd41 Gd 0.55664 0.03309 0.46935 0.0
C42 C 0.5132 0.9455 0.47109 0.0
C43 C 0.66135 0.9914 0.4974 0.0
C44 C 0.65034 0.9537 0.50085 0.0
C45 C 0.63183 0.9244 0.48555 0.0
C46 C 0.65883 0.94704 0.51983 0.0
C47 C 0.63152 0.88263 0.50816 0.0
C48 C 0.64938 0.91182 0.52348 0.0
C49 C 0.62277 0.88925 0.48915 0.0
C50 C 0.61698 0.02376 0.44136 0.0
C51 C 0.66714 0.10462 0.47672 0.0
C52 C 0.5176 0.06044 0.45502 0.0
C53 C 0.52234 0.09554 0.46068 0.0
C54 C 0.54023 0.11392 0.47967 0.0
C55 C 0.50936 0.11101 0.44728 0.0
C56 C 0.52997 0.1619 0.47223 0.0
C57 C 0.51334 0.14413 0.45298 0.0
C58 C 0.54374 0.14663 0.48543 0.0
C59 C 0.56433 0.02815 0.50878 0.0
O60 O 0.55129 0.95819 0.48129 0.0
O61 O 0.51018 0.9695 0.46158 0.0
O62 O 0.66845 0.00181 0.47899 0.0
O63 O 0.63721 0.9997 0.50721 0.0
O64 O 0.65477 0.03563 0.4507 0.0
O65 O 0.58336 0.0066 0.45282 0.0
O66 O 0.62695 0.09168 0.46855 0.0
O67 O 0.6728 0.08119 0.48513 0.0
O68 O 0.49867 0.03429 0.46829 0.0
O69 O 0.55395 0.06608 0.44723 0.0
O70 O 0.52598 0.01556 0.49984 0.0
O71 O 0.59679 0.04464 0.49682 0.0
H72 H 0.62449 0.92865 0.47081 0.0
H73 H 0.67306 0.96924 0.53183 0.0
H74 H 0.65689 0.90771 0.53822 0.0
H75 H 0.60856 0.86711 0.47713 0.0
H76 H 0.55112 0.10274 0.49013 0.0
H77 H 0.49582 0.09733 0.43251 0.0
H78 H 0.50244 0.1553 0.44254 0.0
H79 H 0.55737 0.16009 0.50023 0.0
Gd80 Gd 0.6403 0.56676 0.83696 0.0
Gd81 Gd 0.57637 0.48239 0.8457 0.0
C82 C 0.53026 0.52416 0.8444 0.0
C83 C 0.67837 0.63369 0.82303 0.0
C84 C 0.66566 0.65914 0.81953 0.0
C85 C 0.66063 0.67833 0.83543 0.0
C86 C 0.65933 0.665 0.7999 0.0
C87 C 0.64312 0.70864 0.81206 0.0
C88 C 0.64798 0.68933 0.79621 0.0
C89 C 0.64957 0.70289 0.83172 0.0
C90 C 0.6362 0.55136 0.87555 0.0
C91 C 0.68765 0.52619 0.83982 0.0
C92 C 0.5404 0.41534 0.85886 0.0
C93 C 0.54933 0.38754 0.85386 0.0
C94 C 0.57355 0.39153 0.83668 0.0
C95 C 0.53437 0.35728 0.86619 0.0
C96 C 0.56697 0.33456 0.84385 0.0
C97 C 0.54312 0.33097 0.86124 0.0
C98 C 0.58207 0.36523 0.83166 0.0
C99 C 0.58203 0.49616 0.80665 0.0
O100 O 0.56852 0.55174 0.83555 0.0
O101 O 0.52752 0.49613 0.8527 0.0
O102 O 0.68391 0.62903 0.84156 0.0
O103 O 0.657 0.60167 0.81174 0.0
O104 O 0.67421 0.57812 0.8672 0.0
O105 O 0.60254 0.53539 0.86341 0.0
O106 O 0.64797 0.49721 0.84719 0.0
O107 O 0.69187 0.55533 0.83214 0.0
O108 O 0.52146 0.42077 0.84448 0.0
O109 O 0.5744 0.44767 0.86817 0.0
O110 O 0.54471 0.46812 0.81476 0.0
O111 O 0.61514 0.51363 0.81918 0.0
H112 H 0.66533 0.67452 0.85074 0.0
H113 H 0.66343 0.65089 0.78737 0.0
H114 H 0.64391 0.69361 0.78089 0.0
H115 H 0.6457 0.71716 0.84424 0.0
H116 H 0.58558 0.41489 0.82703 0.0
H117 H 0.51597 0.35402 0.87961 0.0
H118 H 0.53153 0.30803 0.8711 0.0
H119 H 0.59979 0.36861 0.818 0.0
H120 H 0.52896 0.97138 0.22497 0.0
H121 H 0.64666 0.09134 0.22664 0.0
H122 H 0.58267 0.02911 0.17023 0.0
C123 C 0.55391 0.99737 0.2173 0.0
C124 C 0.55155 0.99624 0.19639 0.0
C125 C 0.5884 0.03134 0.22834 0.0
C126 C 0.62047 0.06467 0.21821 0.0
C127 C 0.61869 0.06422 0.19729 0.0
C128 C 0.58466 0.02961 0.18634 0.0
H129 H 0.60115 0.5745 0.59522 0.0
H130 H 0.58269 0.46829 0.5882 0.0
H131 H 0.57492 0.5187 0.53664 0.0
C132 C 0.59489 0.55108 0.58557 0.0
C133 C 0.58849 0.55042 0.56488 0.0
C134 C 0.59206 0.52124 0.59403 0.0
C135 C 0.58393 0.49093 0.58161 0.0
C136 C 0.57796 0.48975 0.56087 0.0
C137 C 0.58066 0.51985 0.55254 0.0
H138 H 1.05759 0.54148 0.90564 0.0
H139 H 0.17235 0.53924 0.90861 0.0
H140 H 0.11964 0.53925 0.8513 0.0
C141 C 0.08345 0.54099 0.89805 0.0
C142 C 0.08455 0.54069 0.87714 0.0
C143 C 0.11477 0.54047 0.90942 0.0
C144 C 0.14778 0.53922 0.89973 0.0
C145 C 0.15041 0.53903 0.87879 0.0
C146 C 0.11783 0.53896 0.8674 0.0
H147 H 1.01989 0.45995 0.40051 0.0
H148 H 0.15081 0.57263 0.40023 0.0
H149 H 0.09241 0.52078 0.45604 0.0
C150 C 1.04957 0.48526 0.40856 0.0
C151 C 1.05178 0.4867 0.42949 0.0
C152 C 0.08518 0.51604 0.39792 0.0
C153 C 0.12333 0.54867 0.40843 0.0
C154 C 0.12649 0.55078 0.42937 0.0
C155 C 0.09046 0.51954 0.43989 0.0
H156 H 0.60534 0.07425 0.72653 0.0
H157 H 0.59038 0.96928 0.72095 0.0
H158 H 0.59702 0.01866 0.77922 0.0
C159 C 0.60259 0.05116 0.73345 0.0
C160 C 0.60189 0.05003 0.75431 0.0
C161 C 0.59758 0.02172 0.7214 0.0
C162 C 0.59297 0.99142 0.73034 0.0
C163 C 0.59337 0.99025 0.7512 0.0
C164 C 0.59738 0.01954 0.76312 0.0
H165 H 0.57808 0.48311 0.07681 0.0
H166 H 0.57452 0.38348 0.07508 0.0
H167 H 0.55718 0.42661 0.13061 0.0
C168 C 0.57527 0.46068 0.08451 0.0
C169 C 0.56724 0.45794 0.10499 0.0
C170 C 0.57908 0.43461 0.0737 0.0
C171 C 0.57206 0.40389 0.08343 0.0
C172 C 0.56341 0.40027 0.10401 0.0
C173 C 0.56148 0.42775 0.11463 0.0
C174 C 0.38974 0.6019 0.12519 0.0
C175 C 0.35253 0.57611 0.13711 0.0
C176 C 0.43155 0.60779 0.1273 0.0
C177 C 0.48985 0.57637 0.15642 0.0
H178 H 0.52939 0.56976 0.10379 0.0
C179 C 0.52929 0.47409 0.12992 0.0
C180 C 0.5639 0.48635 0.11596 0.0
C181 C 0.52102 0.49943 0.13761 0.0
C182 C 0.51973 0.57251 0.11868 0.0
H183 H 0.3302 0.53797 0.16128 0.0
H184 H 0.40152 0.54634 0.16431 0.0
H185 H 0.4818 0.59028 0.10759 0.0
H186 H 0.62037 0.536 0.1009 0.0
H187 H 0.60449 0.5797 0.11375 0.0
H188 H 0.52425 0.55436 0.16693 0.0
C189 C 0.39985 0.56335 0.15381 0.0
C190 C 0.49244 0.58451 0.12093 0.0
C191 C 0.35858 0.55821 0.15199 0.0
C192 C 0.59253 0.52534 0.11117 0.0
C193 C 0.58386 0.55051 0.11866 0.0
C194 C 0.51636 0.56349 0.15407 0.0
C195 C 0.43635 0.58706 0.14096 0.0
C196 C 0.47519 0.58478 0.13968 0.0
C197 C 0.54695 0.53733 0.13135 0.0
C198 C 0.52984 0.55997 0.13503 0.0
H199 H 0.38591 0.6164 0.11379 0.0
H200 H 0.45925 0.62713 0.11754 0.0
H201 H 0.47854 0.57743 0.1712 0.0
H202 H 0.50655 0.44428 0.13389 0.0
H203 H 0.49198 0.48845 0.14721 0.0
C204 C 0.7002 0.1715 0.4676 0.0
C205 C 0.7066 0.14628 0.4759 0.0
C206 C 0.73762 0.21011 0.46532 0.0
C207 C 0.85892 0.2887 0.4813 0.0
H208 H 0.86291 0.32728 0.43006 0.0
C209 C 1.02101 0.43275 0.45236 0.0
C210 C 1.01325 0.45316 0.43997 0.0
C211 C 0.98369 0.39712 0.45922 0.0
C212 C 0.8621 0.31735 0.4446 0.0
H213 H 0.7574 0.14245 0.48899 0.0
H214 H 0.82295 0.21003 0.48489 0.0
H215 H 0.79804 0.26194 0.43735 0.0
H216 H 0.96083 0.45406 0.42622 0.0
H217 H 0.89587 0.39285 0.43864 0.0
H218 H 0.92341 0.34438 0.48844 0.0
C219 C 0.78878 0.19982 0.48024 0.0
C220 C 0.82483 0.27972 0.44876 0.0
C221 C 0.75123 0.16103 0.48251 0.0
C222 C 0.96769 0.43865 0.4356 0.0
C223 C 0.93053 0.40341 0.44258 0.0
C224 C 0.89633 0.32659 0.47715 0.0
C225 C 0.7825 0.22462 0.47127 0.0
C226 C 0.82259 0.26491 0.46717 0.0
C227 C 0.93797 0.38147 0.45388 0.0
C228 C 0.89826 0.34145 0.45875 0.0
H229 H 0.66629 0.16133 0.46252 0.0
H230 H 0.73141 0.22859 0.45871 0.0
H231 H 0.8581 0.27821 0.49567 0.0
H232 H 1.05588 0.44325 0.4558 0.0
H233 H 0.99076 0.38101 0.46782 0.0
C234 C 0.65616 0.77161 0.8183 0.0
C235 C 0.63224 0.73525 0.808 0.0
C236 C 0.6477 0.79749 0.81366 0.0
C237 C 0.60209 0.81918 0.77259 0.0
H238 H 0.60298 0.88606 0.81294 0.0
C239 C 0.56094 0.92076 0.75224 0.0
C240 C 0.59105 0.959 0.76033 0.0
C241 C 0.56198 0.89203 0.75946 0.0
C242 C 0.60291 0.86772 0.80151 0.0
H243 H 0.57926 0.69686 0.78537 0.0
H244 H 0.56412 0.74178 0.7774 0.0
H245 H 0.61206 0.83826 0.82294 0.0
H246 H 0.64483 0.99678 0.7828 0.0
H247 H 0.64662 0.94654 0.79543 0.0
H248 H 0.59334 0.84871 0.75116 0.0
C249 C 0.59021 0.75071 0.78875 0.0
C250 C 0.60817 0.84038 0.80722 0.0
C251 C 0.59882 0.72493 0.79333 0.0
C252 C 0.62091 0.96752 0.77637 0.0
C253 C 0.62194 0.93874 0.7836 0.0
C254 C 0.59673 0.84638 0.7669 0.0
C255 C 0.61499 0.78752 0.79866 0.0
C256 C 0.60798 0.81586 0.79281 0.0
C257 C 0.59313 0.90083 0.77494 0.0
C258 C 0.59721 0.87106 0.78127 0.0
H259 H 0.68247 0.78054 0.82954 0.0
H260 H 0.66784 0.82576 0.82141 0.0
H261 H 0.60272 0.80136 0.76106 0.0
H262 H 0.53692 0.91313 0.74013 0.0
H263 H 0.53868 0.86295 0.75274 0.0
C264 C 0.78861 0.37851 0.17442 0.0
C265 C 0.80832 0.40558 0.19078 0.0
C266 C 0.74092 0.3507 0.17238 0.0
C267 C 0.64469 0.35064 0.18649 0.0
H268 H 0.59159 0.27706 0.14081 0.0
C269 C 0.53381 0.35499 0.13195 0.0
C270 C 0.56118 0.37057 0.11502 0.0
C271 C 0.54029 0.3349 0.14508 0.0
C272 C 0.60503 0.29674 0.15394 0.0
H273 H 0.7944 0.42059 0.21954 0.0
H274 H 0.71097 0.37086 0.21646 0.0
H275 H 0.65082 0.28428 0.16167 0.0
H276 H 0.61284 0.37296 0.09751 0.0
H277 H 0.62298 0.3372 0.11997 0.0
H278 H 0.60045 0.3643 0.17823 0.0
C279 C 0.73211 0.37226 0.20465 0.0
C280 C 0.63939 0.30129 0.16579 0.0
C281 C 0.78005 0.40061 0.20653 0.0
C282 C 0.59094 0.36141 0.11028 0.0
C283 C 0.59671 0.3407 0.12319 0.0
C284 C 0.6096 0.34537 0.17497 0.0
C285 C 0.71172 0.34905 0.1868 0.0
C286 C 0.66294 0.33116 0.18093 0.0
C287 C 0.57344 0.32922 0.14127 0.0
C288 C 0.59254 0.32095 0.15757 0.0
H289 H 0.80981 0.38082 0.16235 0.0
H290 H 0.72734 0.33347 0.15845 0.0
H291 H 0.66105 0.3736 0.1981 0.0
H292 H 0.50941 0.36039 0.13573 0.0
H293 H 0.52178 0.32618 0.15888 0.0
C294 C 0.43374 0.88943 0.45855 0.0
C295 C 0.47371 0.90363 0.46995 0.0
C296 C 0.39634 0.85006 0.45752 0.0
C297 C 0.36557 0.75388 0.46472 0.0
H298 H 0.24073 0.72141 0.46159 0.0
C299 C 0.16185 0.6059 0.45532 0.0
C300 C 0.16727 0.58647 0.43976 0.0
C301 C 0.19967 0.64282 0.46266 0.0
C302 C 0.27526 0.72982 0.46277 0.0
H303 H 0.5055 0.88738 0.48935 0.0
H304 H 0.44003 0.81875 0.48773 0.0
H305 H 0.30526 0.78962 0.46738 0.0
H306 H 0.21705 0.58918 0.42072 0.0
H307 H 0.28256 0.65337 0.43322 0.0
H308 H 0.3355 0.69402 0.46018 0.0
C309 C 0.43782 0.83803 0.47937 0.0
C310 C 0.3124 0.76909 0.46579 0.0
C311 C 0.47532 0.87746 0.48036 0.0
C312 C 0.21171 0.60364 0.43258 0.0
C313 C 0.2494 0.64037 0.4399 0.0
C314 C 0.3284 0.71458 0.46174 0.0
C315 C 0.39781 0.8238 0.46793 0.0
C316 C 0.35811 0.78173 0.4664 0.0
C317 C 0.24371 0.66094 0.45465 0.0
C318 C 0.28281 0.70209 0.46032 0.0
H319 H 0.43129 0.90868 0.45028 0.0
H320 H 0.36653 0.84013 0.44826 0.0
H321 H 0.40025 0.76248 0.465 0.0
H322 H 0.12799 0.59343 0.46111 0.0
H323 H 0.19419 0.65758 0.47425 0.0
C324 C 0.61656 0.31821 0.82896 0.0
C325 C 0.57528 0.30611 0.83806 0.0
C326 C 0.62288 0.29129 0.82196 0.0
C327 C 0.58287 0.19192 0.82595 0.0
H328 H 0.62215 0.20129 0.77136 0.0
C329 C 0.57124 0.06984 0.78116 0.0
C330 C 0.60432 0.08017 0.76671 0.0
C331 C 0.5708 0.09812 0.79145 0.0
C332 C 0.61204 0.19854 0.78675 0.0
H333 H 0.50886 0.25603 0.84743 0.0
H334 H 0.52046 0.20913 0.83555 0.0
H335 H 0.61631 0.24938 0.78679 0.0
H336 H 0.66431 0.12811 0.75241 0.0
H337 H 0.66472 0.17765 0.7708 0.0
H338 H 0.57898 0.14125 0.82601 0.0
C339 C 0.54784 0.23956 0.83386 0.0
C340 C 0.60851 0.2261 0.79556 0.0
C341 C 0.54128 0.26648 0.84071 0.0
C342 C 0.63808 0.11938 0.76331 0.0
C343 C 0.63806 0.14769 0.77377 0.0
C344 C 0.58692 0.16452 0.81721 0.0
C345 C 0.58834 0.25166 0.82408 0.0
C346 C 0.59364 0.22298 0.81519 0.0
C347 C 0.60381 0.13741 0.78767 0.0
C348 C 0.60129 0.16734 0.79743 0.0
H349 H 0.64397 0.34854 0.82709 0.0
H350 H 0.65477 0.30148 0.81476 0.0
H351 H 0.57167 0.18901 0.84117 0.0
H352 H 0.54456 0.03974 0.78392 0.0
H353 H 0.54353 0.08897 0.80182 0.0
C354 C 0.60089 0.82681 0.52949 0.0
C355 C 0.62275 0.8457 0.51205 0.0
C356 C 0.59486 0.79322 0.53378 0.0
C357 C 0.59667 0.71475 0.51161 0.0
H358 H 0.61591 0.70491 0.56683 0.0
C359 C 0.6115 0.59851 0.53896 0.0
C360 C 0.58842 0.58113 0.55655 0.0
C361 C 0.61397 0.62938 0.53218 0.0
C362 C 0.61002 0.70704 0.55137 0.0
H363 H 0.65485 0.84389 0.48526 0.0
H364 H 0.64506 0.7855 0.49289 0.0
H365 H 0.62349 0.76131 0.55763 0.0
H366 H 0.54723 0.58084 0.58002 0.0
H367 H 0.55201 0.63468 0.56837 0.0
H368 H 0.58396 0.66045 0.50545 0.0
C369 C 0.63183 0.79626 0.50311 0.0
C370 C 0.6142 0.73935 0.54608 0.0
C371 C 0.63753 0.82976 0.49874 0.0
C372 C 0.56636 0.59425 0.56673 0.0
C373 C 0.56901 0.62506 0.56004 0.0
C374 C 0.59278 0.68243 0.51691 0.0
C375 C 0.61094 0.77784 0.52082 0.0
C376 C 0.60713 0.7435 0.52618 0.0
C377 C 0.59352 0.64346 0.54291 0.0
C378 C 0.59896 0.67809 0.53689 0.0
H379 H 0.58843 0.83805 0.53985 0.0
H380 H 0.57761 0.77932 0.54731 0.0
H381 H 0.59062 0.71683 0.49616 0.0
H382 H 0.62893 0.58911 0.53082 0.0
H383 H 0.63321 0.64309 0.51895 0.0
C384 C 0.72891 0.50193 0.85348 0.0
C385 C 0.72832 0.52603 0.84066 0.0
C386 C 0.76778 0.50294 0.85512 0.0
C387 C 0.87272 0.52903 0.8298 0.0
H388 H 0.91948 0.53942 0.88326 0.0
C389 C 1.01788 0.51493 0.85254 0.0
C390 C 1.05107 0.54372 0.86661 0.0
C391 C 0.97973 0.51327 0.84676 0.0
C392 C 0.90687 0.53645 0.86821 0.0
H393 H 0.76827 0.56939 0.81907 0.0
H394 H 0.8357 0.57045 0.82161 0.0
H395 H 0.84993 0.53431 0.87858 0.0
H396 H 0.07183 0.59489 0.88439 0.0
H397 H 1.00576 0.59172 0.87457 0.0
H398 H 0.92976 0.53072 0.81954 0.0
C399 C 0.80603 0.55096 0.83051 0.0
C400 C 0.86678 0.5333 0.86553 0.0
C401 C 0.76742 0.55048 0.82914 0.0
C402 C 1.04681 0.57217 0.87363 0.0
C403 C 1.00872 0.57023 0.86811 0.0
C404 C 0.91246 0.53137 0.83251 0.0
C405 C 0.807 0.52756 0.84372 0.0
C406 C 0.84927 0.52987 0.8463 0.0
C407 C 0.97385 0.5401 0.85512 0.0
C408 C 0.93036 0.53559 0.85178 0.0
H409 H 0.69962 0.48275 0.86262 0.0
H410 H 0.76713 0.48435 0.86535 0.0
H411 H 0.86007 0.52621 0.81479 0.0
H412 H 1.01982 0.49237 0.84701 0.0
H413 H 0.95349 0.48973 0.83668 0.0
C414 C 0.24126 0.65749 0.14617 0.0
C415 C 0.20104 0.6468 0.15579 0.0
C416 C 0.28058 0.69628 0.14655 0.0
C417 C 0.31778 0.79591 0.15563 0.0
H418 H 0.43777 0.82294 0.16796 0.0
C419 C 0.46741 0.94337 0.19106 0.0
C420 C 0.51286 0.96014 0.1856 0.0
C421 C 0.43072 0.90676 0.18321 0.0
C422 C 0.40469 0.81589 0.16411 0.0
H423 H 0.17079 0.66867 0.17331 0.0
H424 H 0.23907 0.73583 0.1741 0.0
H425 H 0.37087 0.75505 0.16259 0.0
H426 H 0.55572 0.95255 0.16721 0.0
H427 H 0.49114 0.88785 0.1534 0.0
H428 H 0.35124 0.85661 0.15778 0.0
C429 C 0.24017 0.71442 0.16602 0.0
C430 C 0.36631 0.77696 0.16106 0.0
C431 C 0.20104 0.67577 0.16571 0.0
C432 C 0.52087 0.94023 0.17152 0.0
C433 C 0.48404 0.90319 0.16379 0.0
C434 C 0.35605 0.83473 0.15869 0.0
C435 C 0.28042 0.72523 0.15644 0.0
C436 C 0.32217 0.76649 0.15732 0.0
C437 C 0.43862 0.88584 0.16982 0.0
C438 C 0.39972 0.84515 0.16349 0.0
H439 H 0.24249 0.63592 0.13838 0.0
H440 H 0.31094 0.70364 0.13894 0.0
H441 H 0.28449 0.7889 0.1523 0.0
H442 H 0.46042 0.95819 0.20193 0.0
H443 H 0.39634 0.89414 0.18837 0.0
C444 C 0.51497 0.19642 0.49754 0.0
C445 C 0.5321 0.1957 0.47891 0.0
C446 C 0.51883 0.22877 0.50453 0.0
C447 C 0.54213 0.31938 0.48934 0.0
H448 H 0.56916 0.34679 0.54598 0.0
C449 C 0.5907 0.46181 0.53029 0.0
C450 C 0.56815 0.45643 0.54832 0.0
C451 C 0.58521 0.43061 0.51992 0.0
C452 C 0.56135 0.33937 0.53015 0.0
H453 H 0.56587 0.22793 0.45276 0.0
H454 H 0.57365 0.28516 0.46518 0.0
H455 H 0.5629 0.29178 0.53164 0.0
H456 H 0.51926 0.41358 0.56868 0.0
H457 H 0.51046 0.35968 0.55086 0.0
H458 H 0.54162 0.36794 0.48805 0.0
C459 C 0.55655 0.26041 0.47427 0.0
C460 C 0.55752 0.3077 0.52191 0.0
C461 C 0.55222 0.22772 0.46716 0.0
C462 C 0.53812 0.41894 0.55514 0.0
C463 C 0.53297 0.38802 0.54492 0.0
C464 C 0.54647 0.35149 0.4976 0.0
C465 C 0.54046 0.26152 0.49319 0.0
C466 C 0.54699 0.29677 0.50148 0.0
C467 C 0.55729 0.39366 0.5275 0.0
C468 C 0.55529 0.3613 0.51816 0.0
H469 H 0.49849 0.17184 0.50674 0.0
H470 H 0.50482 0.22806 0.51891 0.0
H471 H 0.53379 0.31171 0.47356 0.0
H472 H 0.61409 0.49035 0.52468 0.0
H473 H 0.60433 0.43569 0.5065 0.0
C474 C 0.49169 0.55413 0.83615 0.0
C475 C 0.4904 0.52551 0.84551 0.0
C476 C 0.4545 0.5556 0.8373 0.0
C477 C 0.32909 0.49721 0.85026 0.0
H478 H 0.35549 0.59735 0.85448 0.0
C479 C 0.1814 0.51226 0.85588 0.0
C480 C 0.18927 0.54091 0.86979 0.0
C481 C 0.21764 0.51084 0.85049 0.0
C482 C 0.34725 0.56904 0.85341 0.0
H483 H 0.44818 0.4759 0.86348 0.0
H484 H 0.38405 0.47885 0.86581 0.0
H485 H 0.41849 0.59344 0.85086 0.0
H486 H 0.2419 0.5915 0.88819 0.0
H487 H 0.30434 0.58919 0.87897 0.0
H488 H 0.2579 0.47294 0.85357 0.0
C489 C 0.41345 0.49986 0.85721 0.0
C490 C 0.38362 0.56676 0.85106 0.0
C491 C 0.45059 0.49832 0.856 0.0
C492 C 0.23458 0.56906 0.8774 0.0
C493 C 0.27061 0.56778 0.872 0.0
C494 C 0.29266 0.4995 0.85264 0.0
C495 C 0.41473 0.52859 0.84792 0.0
C496 C 0.37533 0.53083 0.84964 0.0
C497 C 0.26274 0.53825 0.85876 0.0
C498 C 0.30114 0.53549 0.85451 0.0
H499 H 0.5215 0.57551 0.82784 0.0
H500 H 0.45689 0.57784 0.82964 0.0
H501 H 0.32085 0.46891 0.84891 0.0
H502 H 0.14687 0.48995 0.84987 0.0
H503 H 0.21012 0.48791 0.84005 0.0
C504 C 0.92166 0.39883 0.16237 0.0
C505 C 0.95927 0.40713 0.15135 0.0
C506 C 0.88304 0.36075 0.16467 0.0
C507 C 0.82004 0.25933 0.14532 0.0
H508 H 0.77493 0.23817 0.19914 0.0
C509 C 0.68215 0.10443 0.17323 0.0
C510 C 0.65163 0.10086 0.18745 0.0
C511 C 0.71789 0.14083 0.1665 0.0
C512 C 0.78653 0.24356 0.18395 0.0
H513 H 0.98483 0.38172 0.13343 0.0
H514 H 0.91701 0.31474 0.13761 0.0
H515 H 0.84057 0.30309 0.19173 0.0
H516 H 0.63204 0.1316 0.20461 0.0
H517 H 0.69317 0.19462 0.19256 0.0
H518 H 0.76562 0.19933 0.13767 0.0
C519 C 0.91758 0.33796 0.14437 0.0
C520 C 0.82432 0.28089 0.1797 0.0
C521 C 0.95648 0.3763 0.14204 0.0
C522 C 0.65557 0.13372 0.19385 0.0
C523 C 0.6908 0.16983 0.18704 0.0
C524 C 0.78191 0.22175 0.14959 0.0
C525 C 0.88086 0.32979 0.15608 0.0
C526 C 0.84131 0.28942 0.16032 0.0
C527 C 0.72341 0.17413 0.17382 0.0
C528 C 0.76439 0.21356 0.16893 0.0
H529 H 0.9222 0.42174 0.16958 0.0
H530 H 0.85501 0.35554 0.17346 0.0
H531 H 0.83224 0.26501 0.13022 0.0
H532 H 0.67982 0.07946 0.16814 0.0
H533 H 0.74242 0.14313 0.15634 0.0
C534 C 0.06567 0.51227 0.09025 0.0
C535 C 0.06543 0.54097 0.10034 0.0
C536 C 0.07303 0.5133 0.06977 0.0
C537 C 0.06403 0.55131 0.02418 0.0
H538 H 0.14625 0.53121 0.00262 0.0
C539 C 0.11058 0.56984 0.94142 0.0
C540 C 0.1135 0.54248 0.93151 0.0
C541 C 0.10701 0.57079 0.96212 0.0
C542 C 0.12274 0.53642 0.00835 0.0
H543 H 0.07253 0.59316 0.097 0.0
H544 H 0.08502 0.59485 0.06109 0.0
H545 H 0.13505 0.53048 0.03851 0.0
H546 H 0.11567 0.495 0.9355 0.0
H547 H 0.10846 0.496 0.97171 0.0
H548 H 1.05089 0.55654 0.99412 0.0
C549 C 0.07941 0.57149 0.06902 0.0
C550 C 0.11642 0.53609 0.02893 0.0
C551 C 0.0724 0.57061 0.08956 0.0
C552 C 0.11375 0.51654 0.94279 0.0
C553 C 0.10974 0.51723 0.96353 0.0
C554 C 0.07006 0.55137 0.00361 0.0
C555 C 0.0799 0.54288 0.05891 0.0
C556 C 0.08704 0.54358 0.03707 0.0
C557 C 0.10584 0.54414 0.97344 0.0
C558 C 0.09958 0.54402 0.9954 0.0
H559 H 1.06028 0.489 0.09819 0.0
H560 H 0.07266 0.4906 0.06238 0.0
H561 H 1.04059 0.55658 0.02996 0.0
H562 H 0.1111 0.59062 0.93313 0.0
H563 H 0.10523 0.59252 0.96923 0.0
C564 C 0.57009 0.01 0.41062 0.0
C565 C 0.61315 0.02644 0.41981 0.0
C566 C 0.56651 0.01181 0.39007 0.0
C567 C 0.63512 0.06498 0.34663 0.0
H568 H 0.53607 0.97274 0.31609 0.0
C569 C 0.63317 0.05085 0.2607 0.0
C570 C 0.5906 0.03211 0.25045 0.0
C571 C 0.63519 0.05112 0.28148 0.0
C572 C 0.56358 0.99891 0.32442 0.0
H573 H 0.68626 0.05814 0.41493 0.0
H574 H 0.68007 0.06112 0.37906 0.0
H575 H 0.54068 0.97179 0.35221 0.0
H576 H 0.51687 0.99971 0.254 0.0
H577 H 0.52038 1.00026 0.29027 0.0
H578 H 0.65814 0.09207 0.31885 0.0
C579 C 0.6491 0.0471 0.38768 0.0
C580 C 0.56621 0.99835 0.34513 0.0
C581 C 0.65264 0.0452 0.4082 0.0
C582 C 0.55012 0.01387 0.26145 0.0
C583 C 0.55214 0.01419 0.28223 0.0
C584 C 0.63245 0.06556 0.32593 0.0
C585 C 0.60597 0.03025 0.37836 0.0
C586 C 0.60219 0.03131 0.35645 0.0
C587 C 0.59469 0.03271 0.29249 0.0
C588 C 0.59681 0.03245 0.31456 0.0
H589 H 0.53912 0.99555 0.41927 0.0
H590 H 0.53288 0.99897 0.38337 0.0
H591 H 0.66286 0.09102 0.35497 0.0
H592 H 0.66489 0.06471 0.25263 0.0
H593 H 0.66844 0.06513 0.28888 0.0
C594 C 0.62878 0.53179 0.77718 0.0
C595 C 0.58669 0.50141 0.78504 0.0
C596 C 0.63289 0.53608 0.75659 0.0
C597 C 0.58529 0.48073 0.70914 0.0
H598 H 0.62822 0.57674 0.68652 0.0
C599 C 0.56148 0.48708 0.62561 0.0
C600 C 0.59525 0.52058 0.61595 0.0
C601 C 0.56359 0.48621 0.64628 0.0
C602 C 0.61696 0.54991 0.69256 0.0
H603 H 0.51603 0.45171 0.77766 0.0
H604 H 0.52358 0.45864 0.74171 0.0
H605 H 0.62704 0.57296 0.72272 0.0
H606 H 0.65797 0.57936 0.62021 0.0
H607 H 0.66264 0.57761 0.65638 0.0
H608 H 0.57596 0.45763 0.67926 0.0
C609 C 0.55322 0.47925 0.75146 0.0
C610 C 0.61614 0.54778 0.71329 0.0
C611 C 0.54889 0.47538 0.772 0.0
C612 C 0.63135 0.55324 0.62735 0.0
C613 C 0.63384 0.55223 0.64806 0.0
C614 C 0.58676 0.48299 0.68848 0.0
C615 C 0.59524 0.50957 0.74356 0.0
C616 C 0.5995 0.51295 0.72172 0.0
C617 C 0.59992 0.51867 0.6578 0.0
C618 C 0.60174 0.51737 0.67987 0.0
H619 H 0.65857 0.55205 0.7869 0.0
H620 H 0.6657 0.55957 0.75081 0.0
H621 H 0.57296 0.45371 0.71533 0.0
H622 H 0.53285 0.46171 0.61719 0.0
H623 H 0.53617 0.46018 0.65322 0.0
C624 C 0.6137 0.05107 0.53976 0.0
C625 C 0.56986 0.02665 0.5303 0.0
C626 C 0.61858 0.05046 0.56032 0.0
C627 C 0.56711 0.99005 0.6024 0.0
H628 H 0.62398 0.08514 0.63499 0.0
C629 C 0.55942 0.9901 0.68811 0.0
C630 C 0.59636 0.02222 0.69942 0.0
C631 C 0.55763 0.99069 0.66738 0.0
C632 C 0.60883 0.05842 0.62616 0.0
H633 H 0.49704 0.9818 0.53462 0.0
H634 H 0.50581 0.97995 0.57056 0.0
H635 H 0.61944 0.08579 0.59886 0.0
H636 H 0.66091 0.07978 0.69812 0.0
H637 H 0.65915 0.08038 0.66184 0.0
H638 H 0.55764 0.96265 0.62941 0.0
C639 C 0.53618 0.99983 0.56209 0.0
C640 C 0.60603 0.05885 0.60546 0.0
C641 C 0.53116 0.00102 0.54162 0.0
C642 C 0.63185 0.05479 0.68967 0.0
C643 C 0.63058 0.05514 0.66889 0.0
C644 C 0.57072 0.98971 0.62307 0.0
C645 C 0.57985 0.02482 0.57164 0.0
C646 C 0.58472 0.02461 0.59344 0.0
C647 C 0.59327 0.02317 0.65744 0.0
C648 C 0.59114 0.02381 0.63529 0.0
H649 H 0.64407 0.07107 0.53132 0.0
H650 H 0.65262 0.06985 0.56738 0.0
H651 H 0.55091 0.96334 0.59338 0.0
H652 H 0.5314 0.9648 0.69536 0.0
H653 H 0.5278 0.96584 0.65923 0.0
C654 C 0.59203 0.51448 0.90484 0.0
C655 C 0.63374 0.53587 0.89481 0.0
C656 C 0.58908 0.49896 0.92295 0.0
C657 C 0.58296 0.45449 0.95709 0.0
H658 H 0.6893 0.51308 0.9934 0.0
C659 C 0.56977 0.41015 0.03784 0.0
C660 C 0.59176 0.44091 0.05241 0.0
C661 C 0.57906 0.41737 0.01762 0.0
C662 C 0.65909 0.49641 0.98352 0.0
H663 H 0.70461 0.55665 0.89518 0.0
H664 H 0.6992 0.52815 0.92634 0.0
H665 H 0.69572 0.53481 0.96028 0.0
H666 H 0.6432 0.503 0.05733 0.0
H667 H 0.65741 0.5157 0.02247 0.0
H668 H 0.54533 0.418 0.98097 0.0
C669 C 0.6691 0.52454 0.92078 0.0
C670 C 0.663 0.50856 0.96429 0.0
C671 C 0.67228 0.54085 0.90289 0.0
C672 C 0.62481 0.47868 0.04645 0.0
C673 C 0.63361 0.48591 0.02637 0.0
C674 C 0.57878 0.44283 0.97649 0.0
C675 C 0.62754 0.50366 0.93119 0.0
C676 C 0.62468 0.48831 0.95093 0.0
C677 C 0.61035 0.45549 0.0116 0.0
C678 C 0.61649 0.46425 0.99015 0.0
H679 H 0.56181 0.51023 0.89882 0.0
H680 H 0.55678 0.48394 0.93062 0.0
H681 H 0.55299 0.4374 0.94709 0.0
H682 H 0.54421 0.3807 0.04196 0.0
H683 H 0.56107 0.39312 0.00672 0.0
C684 C 0.10663 0.54353 0.21678 0.0
C685 C 0.09965 0.51232 0.20567 0.0
C686 C 0.10281 0.54289 0.2375 0.0
C687 C 0.10593 0.49541 0.28068 0.0
H688 H 1.05011 0.53688 0.30795 0.0
C689 C 0.07007 0.48055 0.3648 0.0
C690 C 0.08295 0.51405 0.3758 0.0
C691 C 0.06982 0.47924 0.34397 0.0
C692 C 0.06607 0.52544 0.30055 0.0
H693 H 0.08268 0.45579 0.20732 0.0
H694 H 0.07532 0.4543 0.24345 0.0
H695 H 1.05399 0.5366 0.27166 0.0
H696 H 0.10439 0.57203 0.37361 0.0
H697 H 0.10425 0.56984 0.33722 0.0
H698 H 0.11786 0.48415 0.30957 0.0
C699 C 0.08456 0.47962 0.23627 0.0
C700 C 0.0684 0.52535 0.27976 0.0
C701 C 0.08856 0.48036 0.21558 0.0
C702 C 0.09474 0.54595 0.36553 0.0
C703 C 0.09422 0.54456 0.3447 0.0
C704 C 0.10339 0.49533 0.30144 0.0
C705 C 0.09182 0.51094 0.24751 0.0
C706 C 0.08853 0.51047 0.26958 0.0
C707 C 0.08217 0.51132 0.3337 0.0
C708 C 0.08361 0.51048 0.3116 0.0
H709 H 0.11543 0.56861 0.20947 0.0
H710 H 0.10926 0.56773 0.2457 0.0
H711 H 0.12238 0.48433 0.27338 0.0
H712 H 1.06111 0.45562 0.3723 0.0
H713 H 1.05994 0.45309 0.33589 0.0
loop_
_geom_bond_atom_site_label_1
_geom_bond_atom_site_label_2
_geom_bond_distance
_geom_bond_site_symmetry_2
_ccdc_geom_bond_type
Gd0 C3 2.818 . S
Gd0 O20 2.377 . S
Gd0 O22 2.448 . S
Gd0 O23 2.506 . S
Gd0 O24 2.435 . S
Gd0 O25 2.717 . S
Gd0 O27 2.395 1_455 S
Gd0 O31 2.327 . S
Gd1 C12 2.818 1_455 S
Gd1 O21 2.395 . S
Gd1 O25 2.327 . S
Gd1 O26 2.377 1_455 S
Gd1 O28 2.448 1_455 S
Gd1 O29 2.506 1_455 S
Gd1 O30 2.435 . S
Gd1 O31 2.717 . S
C2 O20 1.240 . S
C2 O21 1.240 . S
C3 Gd0 2.818 . S
C3 C4 1.510 . S
C3 O22 1.249 . S
C3 O23 1.252 . S
C4 C3 1.510 . S
C4 C5 1.404 . S
C4 C6 1.352 . S
C5 C4 1.404 . S
C5 C9 1.389 . S
C5 H32 0.930 . S
C6 C4 1.352 . S
C6 C8 1.374 . S
C6 H33 0.931 . S
C7 C8 1.359 . S
C7 C9 1.364 . S
C8 C6 1.374 . S
C8 C7 1.359 . S
C8 H34 0.931 . S
C9 C5 1.389 . S
C9 C7 1.364 . S
C9 H35 0.931 . S
C10 O24 1.256 . S
C10 O25 1.257 . S
C11 O26 1.240 . S
C11 O27 1.240 . S
C12 Gd1 2.818 1_655 S
C12 C13 1.510 . S
C12 O28 1.249 . S
C12 O29 1.252 . S
C13 C12 1.510 . S
C13 C14 1.404 . S
C13 C15 1.352 . S
C14 C13 1.404 . S
C14 C18 1.389 . S
C14 H36 0.930 . S
C15 C13 1.352 . S
C15 C17 1.374 . S
C15 H37 0.931 . S
C16 C17 1.359 . S
C16 C18 1.364 . S
C17 C15 1.374 . S
C17 C16 1.359 . S
C17 H38 0.931 . S
C18 C14 1.389 . S
C18 C16 1.364 . S
C18 H39 0.931 . S
C19 O30 1.256 . S
C19 O31 1.257 . S
O20 Gd0 2.377 . S
O20 C2 1.240 . S
O21 Gd1 2.395 . S
O21 C2 1.240 . S
O22 Gd0 2.448 . S
O22 C3 1.249 . S
O23 Gd0 2.506 . S
O23 C3 1.252 . S
O24 Gd0 2.435 . S
O24 C10 1.256 . S
O25 Gd0 2.717 . S
O25 Gd1 2.327 . S
O25 C10 1.257 . S
O26 Gd1 2.377 1_655 S
O26 C11 1.240 . S
O27 Gd0 2.395 1_655 S
O27 C11 1.240 . S
O28 Gd1 2.448 1_655 S
O28 C12 1.249 . S
O29 Gd1 2.506 1_655 S
O29 C12 1.252 . S
O30 Gd1 2.435 . S
O30 C19 1.256 . S
O31 Gd0 2.327 . S
O31 Gd1 2.717 . S
O31 C19 1.257 . S
H32 C5 0.930 . S
H33 C6 0.931 . S
H34 C8 0.931 . S
H35 C9 0.931 . S
H36 C14 0.930 . S
H37 C15 0.931 . S
H38 C17 0.931 . S
H39 C18 0.931 . S
Gd40 C43 2.818 . S
Gd40 O60 2.377 . S
Gd40 O62 2.448 . S
Gd40 O63 2.506 . S
Gd40 O64 2.435 . S
Gd40 O65 2.717 1_565 S
Gd40 O67 2.395 1_565 S
Gd40 O71 2.327 1_565 S
Gd41 C52 2.818 . S
Gd41 O61 2.395 1_545 S
Gd41 O65 2.327 . S
Gd41 O66 2.377 . S
Gd41 O68 2.448 . S
Gd41 O69 2.506 . S
Gd41 O70 2.435 . S
Gd41 O71 2.717 . S
C42 O60 1.240 . S
C42 O61 1.240 . S
C43 Gd40 2.818 . S
C43 C44 1.510 . S
C43 O62 1.249 . S
C43 O63 1.252 . S
C44 C43 1.510 . S
C44 C45 1.404 . S
C44 C46 1.352 . S
C45 C44 1.404 . S
C45 C49 1.389 . S
C45 H72 0.930 . S
C46 C44 1.352 . S
C46 C48 1.374 . S
C46 H73 0.931 . S
C47 C48 1.359 . S
C47 C49 1.364 . S
C48 C46 1.374 . S
C48 C47 1.359 . S
C48 H74 0.931 . S
C49 C45 1.389 . S
C49 C47 1.364 . S
C49 H75 0.931 . S
C50 O64 1.256 1_545 S
C50 O65 1.257 . S
C51 O66 1.240 . S
C51 O67 1.240 . S
C52 Gd41 2.818 . S
C52 C53 1.510 . S
C52 O68 1.249 . S
C52 O69 1.252 . S
C53 C52 1.510 . S
C53 C54 1.404 . S
C53 C55 1.352 . S
C54 C53 1.404 . S
C54 C58 1.389 . S
C54 H76 0.930 . S
C55 C53 1.352 . S
C55 C57 1.374 . S
C55 H77 0.931 . S
C56 C57 1.359 . S
C56 C58 1.364 . S
C57 C55 1.374 . S
C57 C56 1.359 . S
C57 H78 0.931 . S
C58 C54 1.389 . S
C58 C56 1.364 . S
C58 H79 0.931 . S
C59 O70 1.256 . S
C59 O71 1.257 . S
O60 Gd40 2.377 . S
O60 C42 1.240 . S
O61 Gd41 2.395 1_565 S
O61 C42 1.240 . S
O62 Gd40 2.448 . S
O62 C43 1.249 . S
O63 Gd40 2.506 . S
O63 C43 1.252 . S
O64 Gd40 2.435 . S
O64 C50 1.256 1_565 S
O65 Gd40 2.717 1_545 S
O65 Gd41 2.327 . S
O65 C50 1.257 . S
O66 Gd41 2.377 . S
O66 C51 1.240 . S
O67 Gd40 2.395 1_545 S
O67 C51 1.240 . S
O68 Gd41 2.448 . S
O68 C52 1.249 . S
O69 Gd41 2.506 . S
O69 C52 1.252 . S
O70 Gd41 2.435 . S
O70 C59 1.256 . S
O71 Gd40 2.327 1_545 S
O71 Gd41 2.717 . S
O71 C59 1.257 . S
H72 C45 0.930 . S
H73 C46 0.931 . S
H74 C48 0.931 . S
H75 C49 0.931 . S
H76 C54 0.930 . S
H77 C55 0.931 . S
H78 C57 0.931 . S
H79 C58 0.931 . S
Gd80 C83 2.818 . S
Gd80 O100 2.377 . S
Gd80 O102 2.448 . S
Gd80 O103 2.506 . S
Gd80 O104 2.435 . S
Gd80 O105 2.717 . S
Gd80 O107 2.395 . S
Gd80 O111 2.327 . S
Gd81 C92 2.818 . S
Gd81 O101 2.395 . S
Gd81 O105 2.327 . S
Gd81 O106 2.377 . S
Gd81 O108 2.448 . S
Gd81 O109 2.506 . S
Gd81 O110 2.435 . S
Gd81 O111 2.717 . S
C82 O100 1.240 . S
C82 O101 1.240 . S
C83 Gd80 2.818 . S
C83 C84 1.510 . S
C83 O102 1.249 . S
C83 O103 1.252 . S
C84 C83 1.510 . S
C84 C85 1.404 . S
C84 C86 1.352 . S
C85 C84 1.404 . S
C85 C89 1.389 . S
C85 H112 0.930 . S
C86 C84 1.352 . S
C86 C88 1.374 . S
C86 H113 0.931 . S
C87 C88 1.359 . S
C87 C89 1.364 . S
C88 C86 1.374 . S
C88 C87 1.359 . S
C88 H114 0.931 . S
C89 C85 1.389 . S
C89 C87 1.364 . S
C89 H115 0.931 . S
C90 O104 1.256 . S
C90 O105 1.257 . S
C91 O106 1.240 . S
C91 O107 1.240 . S
C92 Gd81 2.818 . S
C92 C93 1.510 . S
C92 O108 1.249 . S
C92 O109 1.252 . S
C93 C92 1.510 . S
C93 C94 1.404 . S
C93 C95 1.352 . S
C94 C93 1.404 . S
C94 C98 1.389 . S
C94 H116 0.930 . S
C95 C93 1.352 . S
C95 C97 1.374 . S
C95 H117 0.931 . S
C96 C97 1.359 . S
C96 C98 1.364 . S
C97 C95 1.374 . S
C97 C96 1.359 . S
C97 H118 0.931 . S
C98 C94 1.389 . S
C98 C96 1.364 . S
C98 H119 0.931 . S
C99 O110 1.256 . S
C99 O111 1.257 . S
O100 Gd80 2.377 . S
O100 C82 1.240 . S
O101 Gd81 2.395 . S
O101 C82 1.240 . S
O102 Gd80 2.448 . S
O102 C83 1.249 . S
O103 Gd80 2.506 . S
O103 C83 1.252 . S
O104 Gd80 2.435 . S
O104 C90 1.256 . S
O105 Gd80 2.717 . S
O105 Gd81 2.327 . S
O105 C90 1.257 . S
O106 Gd81 2.377 . S
O106 C91 1.240 . S
O107 Gd80 2.395 . S
O107 C91 1.240 . S
O108 Gd81 2.448 . S
O108 C92 1.249 . S
O109 Gd81 2.506 . S
O109 C92 1.252 . S
O110 Gd81 2.435 . S
O110 C99 1.256 . S
O111 Gd80 2.327 . S
O111 Gd81 2.717 . S
O111 C99 1.257 . S
H112 C85 0.930 . S
H113 C86 0.931 . S
H114 C88 0.931 . S
H115 C89 0.931 . S
H116 C94 0.930 . S
H117 C95 0.931 . S
H118 C97 0.931 . S
H119 C98 0.931 . S
H120 C123 0.931 . S
H121 C126 0.928 . S
H122 C128 0.930 . S
C123 H120 0.931 . S
C123 C124 1.413 . S
C123 C125 1.360 1_565 S
C124 C123 1.413 . S
C124 C128 1.429 1_565 S
C125 C123 1.360 1_545 S
C125 C126 1.372 . S
C126 H121 0.928 . S
C126 C125 1.372 . S
C126 C127 1.404 . S
C127 C126 1.404 . S
C127 C128 1.391 . S
C128 H122 0.930 . S
C128 C124 1.429 1_545 S
C128 C127 1.391 . S
H129 C132 0.931 . S
H130 C135 0.928 . S
H131 C137 0.930 . S
C132 H129 0.931 . S
C132 C133 1.413 . S
C132 C134 1.360 . S
C133 C132 1.413 . S
C133 C137 1.429 . S
C134 C132 1.360 . S
C134 C135 1.372 . S
C135 H130 0.928 . S
C135 C134 1.372 . S
C135 C136 1.404 . S
C136 C135 1.404 . S
C136 C137 1.391 . S
C137 H131 0.930 . S
C137 C133 1.429 . S
C137 C136 1.391 . S
H138 C141 0.931 . S
H139 C144 0.928 . S
H140 C146 0.930 . S
C141 H138 0.931 . S
C141 C142 1.413 . S
C141 C143 1.360 . S
C142 C141 1.413 . S
C142 C146 1.429 . S
C143 C141 1.360 . S
C143 C144 1.372 . S
C144 H139 0.928 . S
C144 C143 1.372 . S
C144 C145 1.404 . S
C145 C144 1.404 . S
C145 C146 1.391 . S
C146 H140 0.930 . S
C146 C142 1.429 . S
C146 C145 1.391 . S
H147 C150 0.931 . S
H148 C153 0.928 . S
H149 C155 0.930 . S
C150 H147 0.931 . S
C150 C151 1.413 . S
C150 C152 1.360 . S
C151 C150 1.413 . S
C151 C155 1.429 1_655 S
C152 C150 1.360 . S
C152 C153 1.372 1_655 S
C153 H148 0.928 . S
C153 C152 1.372 1_455 S
C153 C154 1.404 . S
C154 C153 1.404 . S
C154 C155 1.391 . S
C155 H149 0.930 . S
C155 C151 1.429 1_455 S
C155 C154 1.391 . S
H156 C159 0.931 . S
H157 C162 0.928 . S
H158 C164 0.930 . S
C159 H156 0.931 . S
C159 C160 1.413 . S
C159 C161 1.360 . S
C160 C159 1.413 . S
C160 C164 1.429 . S
C161 C159 1.360 . S
C161 C162 1.372 1_545 S
C162 H157 0.928 . S
C162 C161 1.372 1_565 S
C162 C163 1.404 . S
C163 C162 1.404 . S
C163 C164 1.391 1_565 S
C164 H158 0.930 . S
C164 C160 1.429 . S
C164 C163 1.391 1_545 S
H165 C168 0.931 . S
H166 C171 0.928 . S
H167 C173 0.930 . S
C168 H165 0.931 . S
C168 C169 1.413 . S
C168 C170 1.360 . S
C169 C168 1.413 . S
C169 C173 1.429 . S
C170 C168 1.360 . S
C170 C171 1.372 . S
C171 H166 0.928 . S
C171 C170 1.372 . S
C171 C172 1.404 . S
C172 C171 1.404 . S
C172 C173 1.391 . S
C173 H167 0.930 . S
C173 C169 1.429 . S
C173 C172 1.391 . S
C174 C175 1.349 . S
C174 C176 1.327 . S
C174 H199 0.950 . S
C175 C174 1.349 . S
C175 C191 1.349 . S
C176 C174 1.327 . S
C176 C195 1.429 . S
C176 H200 0.950 . S
C177 C194 1.574 . S
C177 C196 1.368 . S
C177 H201 0.949 . S
H178 C182 0.949 . S
C179 C180 1.349 . S
C179 C181 1.327 . S
C179 H202 0.950 . S
C180 C179 1.349 . S
C180 C192 1.349 . S
C181 C179 1.327 . S
C181 C197 1.429 . S
C181 H203 0.950 . S
C182 H178 0.949 . S
C182 C190 1.574 . S
C182 C198 1.368 . S
H183 C191 0.950 . S
H184 C189 0.950 . S
H185 C190 0.949 . S
H186 C192 0.950 . S
H187 C193 0.950 . S
H188 C194 0.949 . S
C189 H184 0.950 . S
C189 C191 1.327 . S
C189 C195 1.429 . S
C190 C182 1.574 . S
C190 H185 0.949 . S
C190 C196 1.368 . S
C191 C175 1.349 . S
C191 H183 0.950 . S
C191 C189 1.327 . S
C192 C180 1.349 . S
C192 H186 0.950 . S
C192 C193 1.327 . S
C193 H187 0.950 . S
C193 C192 1.327 . S
C193 C197 1.429 . S
C194 C177 1.574 . S
C194 H188 0.949 . S
C194 C198 1.368 . S
C195 C176 1.429 . S
C195 C189 1.429 . S
C195 C196 1.523 . S
C196 C177 1.368 . S
C196 C190 1.368 . S
C196 C195 1.523 . S
C197 C181 1.429 . S
C197 C193 1.429 . S
C197 C198 1.523 . S
C198 C182 1.368 . S
C198 C194 1.368 . S
C198 C197 1.523 . S
H199 C174 0.950 . S
H200 C176 0.950 . S
H201 C177 0.949 . S
H202 C179 0.950 . S
H203 C181 0.950 . S
C204 C205 1.349 . S
C204 C206 1.327 . S
C204 H229 0.950 . S
C205 C204 1.349 . S
C205 C221 1.349 . S
C206 C204 1.327 . S
C206 C225 1.429 . S
C206 H230 0.950 . S
C207 C224 1.574 . S
C207 C226 1.368 . S
C207 H231 0.949 . S
H208 C212 0.949 . S
C209 C210 1.349 . S
C209 C211 1.327 . S
C209 H232 0.950 . S
C210 C209 1.349 . S
C210 C222 1.349 . S
C211 C209 1.327 . S
C211 C227 1.429 . S
C211 H233 0.950 . S
C212 H208 0.949 . S
C212 C220 1.574 . S
C212 C228 1.368 . S
H213 C221 0.950 . S
H214 C219 0.950 . S
H215 C220 0.949 . S
H216 C222 0.950 . S
H217 C223 0.950 . S
H218 C224 0.949 . S
C219 H214 0.950 . S
C219 C221 1.327 . S
C219 C225 1.429 . S
C220 C212 1.574 . S
C220 H215 0.949 . S
C220 C226 1.368 . S
C221 C205 1.349 . S
C221 H213 0.950 . S
C221 C219 1.327 . S
C222 C210 1.349 . S
C222 H216 0.950 . S
C222 C223 1.327 . S
C223 H217 0.950 . S
C223 C222 1.327 . S
C223 C227 1.429 . S
C224 C207 1.574 . S
C224 H218 0.949 . S
C224 C228 1.368 . S
C225 C206 1.429 . S
C225 C219 1.429 . S
C225 C226 1.523 . S
C226 C207 1.368 . S
C226 C220 1.368 . S
C226 C225 1.523 . S
C227 C211 1.429 . S
C227 C223 1.429 . S
C227 C228 1.523 . S
C228 C212 1.368 . S
C228 C224 1.368 . S
C228 C227 1.523 . S
H229 C204 0.950 . S
H230 C206 0.950 . S
H231 C207 0.949 . S
H232 C209 0.950 . S
H233 C211 0.950 . S
C234 C235 1.349 . S
C234 C236 1.327 . S
C234 H259 0.950 . S
C235 C234 1.349 . S
C235 C251 1.349 . S
C236 C234 1.327 . S
C236 C255 1.429 . S
C236 H260 0.950 . S
C237 C254 1.574 . S
C237 C256 1.368 . S
C237 H261 0.949 . S
H238 C242 0.949 . S
C239 C240 1.349 . S
C239 C241 1.327 . S
C239 H262 0.950 . S
C240 C239 1.349 . S
C240 C252 1.349 . S
C241 C239 1.327 . S
C241 C257 1.429 . S
C241 H263 0.950 . S
C242 H238 0.949 . S
C242 C250 1.574 . S
C242 C258 1.368 . S
H243 C251 0.950 . S
H244 C249 0.950 . S
H245 C250 0.949 . S
H246 C252 0.950 . S
H247 C253 0.950 . S
H248 C254 0.949 . S
C249 H244 0.950 . S
C249 C251 1.327 . S
C249 C255 1.429 . S
C250 C242 1.574 . S
C250 H245 0.949 . S
C250 C256 1.368 . S
C251 C235 1.349 . S
C251 H243 0.950 . S
C251 C249 1.327 . S
C252 C240 1.349 . S
C252 H246 0.950 . S
C252 C253 1.327 . S
C253 H247 0.950 . S
C253 C252 1.327 . S
C253 C257 1.429 . S
C254 C237 1.574 . S
C254 H248 0.949 . S
C254 C258 1.368 . S
C255 C236 1.429 . S
C255 C249 1.429 . S
C255 C256 1.523 . S
C256 C237 1.368 . S
C256 C250 1.368 . S
C256 C255 1.523 . S
C257 C241 1.429 . S
C257 C253 1.429 . S
C257 C258 1.523 . S
C258 C242 1.368 . S
C258 C254 1.368 . S
C258 C257 1.523 . S
H259 C234 0.950 . S
H260 C236 0.950 . S
H261 C237 0.949 . S
H262 C239 0.950 . S
H263 C241 0.950 . S
C264 C265 1.349 . S
C264 C266 1.327 . S
C264 H289 0.950 . S
C265 C264 1.349 . S
C265 C281 1.349 . S
C266 C264 1.327 . S
C266 C285 1.429 . S
C266 H290 0.950 . S
C267 C284 1.574 . S
C267 C286 1.368 . S
C267 H291 0.949 . S
H268 C272 0.949 . S
C269 C270 1.349 . S
C269 C271 1.327 . S
C269 H292 0.950 . S
C270 C269 1.349 . S
C270 C282 1.349 . S
C271 C269 1.327 . S
C271 C287 1.429 . S
C271 H293 0.950 . S
C272 H268 0.949 . S
C272 C280 1.574 . S
C272 C288 1.368 . S
H273 C281 0.950 . S
H274 C279 0.950 . S
H275 C280 0.949 . S
H276 C282 0.950 . S
H277 C283 0.950 . S
H278 C284 0.949 . S
C279 H274 0.950 . S
C279 C281 1.327 . S
C279 C285 1.429 . S
C280 C272 1.574 . S
C280 H275 0.949 . S
C280 C286 1.368 . S
C281 C265 1.349 . S
C281 H273 0.950 . S
C281 C279 1.327 . S
C282 C270 1.349 . S
C282 H276 0.950 . S
C282 C283 1.327 . S
C283 H277 0.950 . S
C283 C282 1.327 . S
C283 C287 1.429 . S
C284 C267 1.574 . S
C284 H278 0.949 . S
C284 C288 1.368 . S
C285 C266 1.429 . S
C285 C279 1.429 . S
C285 C286 1.523 . S
C286 C267 1.368 . S
C286 C280 1.368 . S
C286 C285 1.523 . S
C287 C271 1.429 . S
C287 C283 1.429 . S
C287 C288 1.523 . S
C288 C272 1.368 . S
C288 C284 1.368 . S
C288 C287 1.523 . S
H289 C264 0.950 . S
H290 C266 0.950 . S
H291 C267 0.949 . S
H292 C269 0.950 . S
H293 C271 0.950 . S
C294 C295 1.349 . S
C294 C296 1.327 . S
C294 H319 0.950 . S
C295 C294 1.349 . S
C295 C311 1.349 . S
C296 C294 1.327 . S
C296 C315 1.429 . S
C296 H320 0.950 . S
C297 C314 1.574 . S
C297 C316 1.368 . S
C297 H321 0.949 . S
H298 C302 0.949 . S
C299 C300 1.349 . S
C299 C301 1.327 . S
C299 H322 0.950 . S
C300 C299 1.349 . S
C300 C312 1.349 . S
C301 C299 1.327 . S
C301 C317 1.429 . S
C301 H323 0.950 . S
C302 H298 0.949 . S
C302 C310 1.574 . S
C302 C318 1.368 . S
H303 C311 0.950 . S
H304 C309 0.950 . S
H305 C310 0.949 . S
H306 C312 0.950 . S
H307 C313 0.950 . S
H308 C314 0.949 . S
C309 H304 0.950 . S
C309 C311 1.327 . S
C309 C315 1.429 . S
C310 C302 1.574 . S
C310 H305 0.949 . S
C310 C316 1.368 . S
C311 C295 1.349 . S
C311 H303 0.950 . S
C311 C309 1.327 . S
C312 C300 1.349 . S
C312 H306 0.950 . S
C312 C313 1.327 . S
C313 H307 0.950 . S
C313 C312 1.327 . S
C313 C317 1.429 . S
C314 C297 1.574 . S
C314 H308 0.949 . S
C314 C318 1.368 . S
C315 C296 1.429 . S
C315 C309 1.429 . S
C315 C316 1.523 . S
C316 C297 1.368 . S
C316 C310 1.368 . S
C316 C315 1.523 . S
C317 C301 1.429 . S
C317 C313 1.429 . S
C317 C318 1.523 . S
C318 C302 1.368 . S
C318 C314 1.368 . S
C318 C317 1.523 . S
H319 C294 0.950 . S
H320 C296 0.950 . S
H321 C297 0.949 . S
H322 C299 0.950 . S
H323 C301 0.950 . S
C324 C325 1.349 . S
C324 C326 1.327 . S
C324 H349 0.950 . S
C325 C324 1.349 . S
C325 C341 1.349 . S
C326 C324 1.327 . S
C326 C345 1.429 . S
C326 H350 0.950 . S
C327 C344 1.574 . S
C327 C346 1.368 . S
C327 H351 0.949 . S
H328 C332 0.949 . S
C329 C330 1.349 . S
C329 C331 1.327 . S
C329 H352 0.950 . S
C330 C329 1.349 . S
C330 C342 1.349 . S
C331 C329 1.327 . S
C331 C347 1.429 . S
C331 H353 0.950 . S
C332 H328 0.949 . S
C332 C340 1.574 . S
C332 C348 1.368 . S
H333 C341 0.950 . S
H334 C339 0.950 . S
H335 C340 0.949 . S
H336 C342 0.950 . S
H337 C343 0.950 . S
H338 C344 0.949 . S
C339 H334 0.950 . S
C339 C341 1.327 . S
C339 C345 1.429 . S
C340 C332 1.574 . S
C340 H335 0.949 . S
C340 C346 1.368 . S
C341 C325 1.349 . S
C341 H333 0.950 . S
C341 C339 1.327 . S
C342 C330 1.349 . S
C342 H336 0.950 . S
C342 C343 1.327 . S
C343 H337 0.950 . S
C343 C342 1.327 . S
C343 C347 1.429 . S
C344 C327 1.574 . S
C344 H338 0.949 . S
C344 C348 1.368 . S
C345 C326 1.429 . S
C345 C339 1.429 . S
C345 C346 1.523 . S
C346 C327 1.368 . S
C346 C340 1.368 . S
C346 C345 1.523 . S
C347 C331 1.429 . S
C347 C343 1.429 . S
C347 C348 1.523 . S
C348 C332 1.368 . S
C348 C344 1.368 . S
C348 C347 1.523 . S
H349 C324 0.950 . S
H350 C326 0.950 . S
H351 C327 0.949 . S
H352 C329 0.950 . S
H353 C331 0.950 . S
C354 C355 1.349 . S
C354 C356 1.327 . S
C354 H379 0.950 . S
C355 C354 1.349 . S
C355 C371 1.349 . S
C356 C354 1.327 . S
C356 C375 1.429 . S
C356 H380 0.950 . S
C357 C374 1.574 . S
C357 C376 1.368 . S
C357 H381 0.949 . S
H358 C362 0.949 . S
C359 C360 1.349 . S
C359 C361 1.327 . S
C359 H382 0.950 . S
C360 C359 1.349 . S
C360 C372 1.349 . S
C361 C359 1.327 . S
C361 C377 1.429 . S
C361 H383 0.950 . S
C362 H358 0.949 . S
C362 C370 1.574 . S
C362 C378 1.368 . S
H363 C371 0.950 . S
H364 C369 0.950 . S
H365 C370 0.949 . S
H366 C372 0.950 . S
H367 C373 0.950 . S
H368 C374 0.949 . S
C369 H364 0.950 . S
C369 C371 1.327 . S
C369 C375 1.429 . S
C370 C362 1.574 . S
C370 H365 0.949 . S
C370 C376 1.368 . S
C371 C355 1.349 . S
C371 H363 0.950 . S
C371 C369 1.327 . S
C372 C360 1.349 . S
C372 H366 0.950 . S
C372 C373 1.327 . S
C373 H367 0.950 . S
C373 C372 1.327 . S
C373 C377 1.429 . S
C374 C357 1.574 . S
C374 H368 0.949 . S
C374 C378 1.368 . S
C375 C356 1.429 . S
C375 C369 1.429 . S
C375 C376 1.523 . S
C376 C357 1.368 . S
C376 C370 1.368 . S
C376 C375 1.523 . S
C377 C361 1.429 . S
C377 C373 1.429 . S
C377 C378 1.523 . S
C378 C362 1.368 . S
C378 C374 1.368 . S
C378 C377 1.523 . S
H379 C354 0.950 . S
H380 C356 0.950 . S
H381 C357 0.949 . S
H382 C359 0.950 . S
H383 C361 0.950 . S
C384 C385 1.349 . S
C384 C386 1.327 . S
C384 H409 0.950 . S
C385 C384 1.349 . S
C385 C401 1.349 . S
C386 C384 1.327 . S
C386 C405 1.429 . S
C386 H410 0.950 . S
C387 C404 1.574 . S
C387 C406 1.368 . S
C387 H411 0.949 . S
H388 C392 0.949 . S
C389 C390 1.349 . S
C389 C391 1.327 . S
C389 H412 0.950 . S
C390 C389 1.349 . S
C390 C402 1.349 . S
C391 C389 1.327 . S
C391 C407 1.429 . S
C391 H413 0.950 . S
C392 H388 0.949 . S
C392 C400 1.574 . S
C392 C408 1.368 . S
H393 C401 0.950 . S
H394 C399 0.950 . S
H395 C400 0.949 . S
H396 C402 0.950 . S
H397 C403 0.950 . S
H398 C404 0.949 . S
C399 H394 0.950 . S
C399 C401 1.327 . S
C399 C405 1.429 . S
C400 C392 1.574 . S
C400 H395 0.949 . S
C400 C406 1.368 . S
C401 C385 1.349 . S
C401 H393 0.950 . S
C401 C399 1.327 . S
C402 C390 1.349 . S
C402 H396 0.950 . S
C402 C403 1.327 . S
C403 H397 0.950 . S
C403 C402 1.327 . S
C403 C407 1.429 . S
C404 C387 1.574 . S
C404 H398 0.949 . S
C404 C408 1.368 . S
C405 C386 1.429 . S
C405 C399 1.429 . S
C405 C406 1.523 . S
C406 C387 1.368 . S
C406 C400 1.368 . S
C406 C405 1.523 . S
C407 C391 1.429 . S
C407 C403 1.429 . S
C407 C408 1.523 . S
C408 C392 1.368 . S
C408 C404 1.368 . S
C408 C407 1.523 . S
H409 C384 0.950 . S
H410 C386 0.950 . S
H411 C387 0.949 . S
H412 C389 0.950 . S
H413 C391 0.950 . S
C414 C415 1.349 . S
C414 C416 1.327 . S
C414 H439 0.950 . S
C415 C414 1.349 . S
C415 C431 1.349 . S
C416 C414 1.327 . S
C416 C435 1.429 . S
C416 H440 0.950 . S
C417 C434 1.574 . S
C417 C436 1.368 . S
C417 H441 0.949 . S
H418 C422 0.949 . S
C419 C420 1.349 . S
C419 C421 1.327 . S
C419 H442 0.950 . S
C420 C419 1.349 . S
C420 C432 1.349 . S
C421 C419 1.327 . S
C421 C437 1.429 . S
C421 H443 0.950 . S
C422 H418 0.949 . S
C422 C430 1.574 . S
C422 C438 1.368 . S
H423 C431 0.950 . S
H424 C429 0.950 . S
H425 C430 0.949 . S
H426 C432 0.950 . S
H427 C433 0.950 . S
H428 C434 0.949 . S
C429 H424 0.950 . S
C429 C431 1.327 . S
C429 C435 1.429 . S
C430 C422 1.574 . S
C430 H425 0.949 . S
C430 C436 1.368 . S
C431 C415 1.349 . S
C431 H423 0.950 . S
C431 C429 1.327 . S
C432 C420 1.349 . S
C432 H426 0.950 . S
C432 C433 1.327 . S
C433 H427 0.950 . S
C433 C432 1.327 . S
C433 C437 1.429 . S
C434 C417 1.574 . S
C434 H428 0.949 . S
C434 C438 1.368 . S
C435 C416 1.429 . S
C435 C429 1.429 . S
C435 C436 1.523 . S
C436 C417 1.368 . S
C436 C430 1.368 . S
C436 C435 1.523 . S
C437 C421 1.429 . S
C437 C433 1.429 . S
C437 C438 1.523 . S
C438 C422 1.368 . S
C438 C434 1.368 . S
C438 C437 1.523 . S
H439 C414 0.950 . S
H440 C416 0.950 . S
H441 C417 0.949 . S
H442 C419 0.950 . S
H443 C421 0.950 . S
C444 C445 1.349 . S
C444 C446 1.327 . S
C444 H469 0.950 . S
C445 C444 1.349 . S
C445 C461 1.349 . S
C446 C444 1.327 . S
C446 C465 1.429 . S
C446 H470 0.950 . S
C447 C464 1.574 . S
C447 C466 1.368 . S
C447 H471 0.949 . S
H448 C452 0.949 . S
C449 C450 1.349 . S
C449 C451 1.327 . S
C449 H472 0.950 . S
C450 C449 1.349 . S
C450 C462 1.349 . S
C451 C449 1.327 . S
C451 C467 1.429 . S
C451 H473 0.950 . S
C452 H448 0.949 . S
C452 C460 1.574 . S
C452 C468 1.368 . S
H453 C461 0.950 . S
H454 C459 0.950 . S
H455 C460 0.949 . S
H456 C462 0.950 . S
H457 C463 0.950 . S
H458 C464 0.949 . S
C459 H454 0.950 . S
C459 C461 1.327 . S
C459 C465 1.429 . S
C460 C452 1.574 . S
C460 H455 0.949 . S
C460 C466 1.368 . S
C461 C445 1.349 . S
C461 H453 0.950 . S
C461 C459 1.327 . S
C462 C450 1.349 . S
C462 H456 0.950 . S
C462 C463 1.327 . S
C463 H457 0.950 . S
C463 C462 1.327 . S
C463 C467 1.429 . S
C464 C447 1.574 . S
C464 H458 0.949 . S
C464 C468 1.368 . S
C465 C446 1.429 . S
C465 C459 1.429 . S
C465 C466 1.523 . S
C466 C447 1.368 . S
C466 C460 1.368 . S
C466 C465 1.523 . S
C467 C451 1.429 . S
C467 C463 1.429 . S
C467 C468 1.523 . S
C468 C452 1.368 . S
C468 C464 1.368 . S
C468 C467 1.523 . S
H469 C444 0.950 . S
H470 C446 0.950 . S
H471 C447 0.949 . S
H472 C449 0.950 . S
H473 C451 0.950 . S
C474 C475 1.349 . S
C474 C476 1.327 . S
C474 H499 0.950 . S
C475 C474 1.349 . S
C475 C491 1.349 . S
C476 C474 1.327 . S
C476 C495 1.429 . S
C476 H500 0.950 . S
C477 C494 1.574 . S
C477 C496 1.368 . S
C477 H501 0.949 . S
H478 C482 0.949 . S
C479 C480 1.349 . S
C479 C481 1.327 . S
C479 H502 0.950 . S
C480 C479 1.349 . S
C480 C492 1.349 . S
C481 C479 1.327 . S
C481 C497 1.429 . S
C481 H503 0.950 . S
C482 H478 0.949 . S
C482 C490 1.574 . S
C482 C498 1.368 . S
H483 C491 0.950 . S
H484 C489 0.950 . S
H485 C490 0.949 . S
H486 C492 0.950 . S
H487 C493 0.950 . S
H488 C494 0.949 . S
C489 H484 0.950 . S
C489 C491 1.327 . S
C489 C495 1.429 . S
C490 C482 1.574 . S
C490 H485 0.949 . S
C490 C496 1.368 . S
C491 C475 1.349 . S
C491 H483 0.950 . S
C491 C489 1.327 . S
C492 C480 1.349 . S
C492 H486 0.950 . S
C492 C493 1.327 . S
C493 H487 0.950 . S
C493 C492 1.327 . S
C493 C497 1.429 . S
C494 C477 1.574 . S
C494 H488 0.949 . S
C494 C498 1.368 . S
C495 C476 1.429 . S
C495 C489 1.429 . S
C495 C496 1.523 . S
C496 C477 1.368 . S
C496 C490 1.368 . S
C496 C495 1.523 . S
C497 C481 1.429 . S
C497 C493 1.429 . S
C497 C498 1.523 . S
C498 C482 1.368 . S
C498 C494 1.368 . S
C498 C497 1.523 . S
H499 C474 0.950 . S
H500 C476 0.950 . S
H501 C477 0.949 . S
H502 C479 0.950 . S
H503 C481 0.950 . S
C504 C505 1.349 . S
C504 C506 1.327 . S
C504 H529 0.950 . S
C505 C504 1.349 . S
C505 C521 1.349 . S
C506 C504 1.327 . S
C506 C525 1.429 . S
C506 H530 0.950 . S
C507 C524 1.574 . S
C507 C526 1.368 . S
C507 H531 0.949 . S
H508 C512 0.949 . S
C509 C510 1.349 . S
C509 C511 1.327 . S
C509 H532 0.950 . S
C510 C509 1.349 . S
C510 C522 1.349 . S
C511 C509 1.327 . S
C511 C527 1.429 . S
C511 H533 0.950 . S
C512 H508 0.949 . S
C512 C520 1.574 . S
C512 C528 1.368 . S
H513 C521 0.950 . S
H514 C519 0.950 . S
H515 C520 0.949 . S
H516 C522 0.950 . S
H517 C523 0.950 . S
H518 C524 0.949 . S
C519 H514 0.950 . S
C519 C521 1.327 . S
C519 C525 1.429 . S
C520 C512 1.574 . S
C520 H515 0.949 . S
C520 C526 1.368 . S
C521 C505 1.349 . S
C521 H513 0.950 . S
C521 C519 1.327 . S
C522 C510 1.349 . S
C522 H516 0.950 . S
C522 C523 1.327 . S
C523 H517 0.950 . S
C523 C522 1.327 . S
C523 C527 1.429 . S
C524 C507 1.574 . S
C524 H518 0.949 . S
C524 C528 1.368 . S
C525 C506 1.429 . S
C525 C519 1.429 . S
C525 C526 1.523 . S
C526 C507 1.368 . S
C526 C520 1.368 . S
C526 C525 1.523 . S
C527 C511 1.429 . S
C527 C523 1.429 . S
C527 C528 1.523 . S
C528 C512 1.368 . S
C528 C524 1.368 . S
C528 C527 1.523 . S
H529 C504 0.950 . S
H530 C506 0.950 . S
H531 C507 0.949 . S
H532 C509 0.950 . S
H533 C511 0.950 . S
C534 C535 1.349 . S
C534 C536 1.327 . S
C534 H559 0.950 1_455 S
C535 C534 1.349 . S
C535 C551 1.349 . S
C536 C534 1.327 . S
C536 C555 1.429 . S
C536 H560 0.950 1_455 S
C537 C554 1.574 . S
C537 C556 1.368 . S
C537 H561 0.949 . S
H538 C542 0.949 1_656 S
C539 C540 1.349 . S
C539 C541 1.327 . S
C539 H562 0.950 . S
C540 C539 1.349 . S
C540 C552 1.349 . S
C541 C539 1.327 . S
C541 C557 1.429 . S
C541 H563 0.950 . S
C542 H538 0.949 1_454 S
C542 C550 1.574 . S
C542 C558 1.368 . S
H543 C551 0.950 . S
H544 C549 0.950 . S
H545 C550 0.949 1_655 S
H546 C552 0.956 . S
H547 C553 0.950 1_655 S
H548 C554 0.949 . S
C549 H544 0.950 . S
C549 C551 1.327 . S
C549 C555 1.429 . S
C550 C542 1.574 . S
C550 H545 0.949 1_455 S
C550 C556 1.368 . S
C551 C535 1.349 . S
C551 H543 0.950 . S
C551 C549 1.327 . S
C552 C540 1.349 . S
C552 H546 0.956 . S
C552 C553 1.327 . S
C553 H547 0.950 1_455 S
C553 C552 1.327 . S
C553 C557 1.429 . S
C554 C537 1.574 . S
C554 H548 0.949 . S
C554 C558 1.368 . S
C555 C536 1.429 . S
C555 C549 1.429 . S
C555 C556 1.523 . S
C556 C537 1.368 . S
C556 C550 1.368 . S
C556 C555 1.523 . S
C557 C541 1.429 . S
C557 C553 1.429 . S
C557 C558 1.523 1_556 S
C558 C542 1.368 . S
C558 C554 1.368 . S
C558 C557 1.523 1_554 S
H559 C534 0.950 1_655 S
H560 C536 0.950 1_655 S
H561 C537 0.949 . S
H562 C539 0.950 . S
H563 C541 0.950 . S
C564 C565 1.349 1_565 S
C564 C566 1.327 . S
C564 H589 0.950 . S
C565 C564 1.349 1_545 S
C565 C581 1.349 . S
C566 C564 1.327 . S
C566 C585 1.429 1_565 S
C566 H590 0.950 . S
C567 C584 1.574 . S
C567 C586 1.368 . S
C567 H591 0.949 . S
H568 C572 0.949 . S
C569 C570 1.349 . S
C569 C571 1.327 . S
C569 H592 0.950 . S
C570 C569 1.349 . S
C570 C582 1.349 1_545 S
C571 C569 1.327 . S
C571 C587 1.429 . S
C571 H593 0.950 . S
C572 H568 0.949 . S
C572 C580 1.574 . S
C572 C588 1.368 1_565 S
H573 C581 0.950 . S
H574 C579 0.950 . S
H575 C580 0.949 . S
H576 C582 0.950 . S
H577 C583 0.950 . S
H578 C584 0.949 . S
C579 H574 0.950 . S
C579 C581 1.327 . S
C579 C585 1.429 . S
C580 C572 1.574 . S
C580 H575 0.949 . S
C580 C586 1.368 1_565 S
C581 C565 1.349 . S
C581 H573 0.950 . S
C581 C579 1.327 . S
C582 C570 1.349 1_565 S
C582 H576 0.950 . S
C582 C583 1.327 . S
C583 H577 0.950 . S
C583 C582 1.327 . S
C583 C587 1.429 1_565 S
C584 C567 1.574 . S
C584 H578 0.949 . S
C584 C588 1.368 . S
C585 C566 1.429 1_545 S
C585 C579 1.429 . S
C585 C586 1.523 . S
C586 C567 1.368 . S
C586 C580 1.368 1_545 S
C586 C585 1.523 . S
C587 C571 1.429 . S
C587 C583 1.429 1_545 S
C587 C588 1.523 . S
C588 C572 1.368 1_545 S
C588 C584 1.368 . S
C588 C587 1.523 . S
H589 C564 0.950 . S
H590 C566 0.950 . S
H591 C567 0.949 . S
H592 C569 0.950 . S
H593 C571 0.950 . S
C594 C595 1.349 . S
C594 C596 1.327 . S
C594 H619 0.950 . S
C595 C594 1.349 . S
C595 C611 1.349 . S
C596 C594 1.327 . S
C596 C615 1.429 . S
C596 H620 0.950 . S
C597 C614 1.574 . S
C597 C616 1.368 . S
C597 H621 0.949 . S
H598 C602 0.949 . S
C599 C600 1.349 . S
C599 C601 1.327 . S
C599 H622 0.950 . S
C600 C599 1.349 . S
C600 C612 1.349 . S
C601 C599 1.327 . S
C601 C617 1.429 . S
C601 H623 0.950 . S
C602 H598 0.949 . S
C602 C610 1.574 . S
C602 C618 1.368 . S
H603 C611 0.950 . S
H604 C609 0.950 . S
H605 C610 0.949 . S
H606 C612 0.950 . S
H607 C613 0.950 . S
H608 C614 0.949 . S
C609 H604 0.950 . S
C609 C611 1.327 . S
C609 C615 1.429 . S
C610 C602 1.574 . S
C610 H605 0.949 . S
C610 C616 1.368 . S
C611 C595 1.349 . S
C611 H603 0.950 . S
C611 C609 1.327 . S
C612 C600 1.349 . S
C612 H606 0.950 . S
C612 C613 1.327 . S
C613 H607 0.950 . S
C613 C612 1.327 . S
C613 C617 1.429 . S
C614 C597 1.574 . S
C614 H608 0.949 . S
C614 C618 1.368 . S
C615 C596 1.429 . S
C615 C609 1.429 . S
C615 C616 1.523 . S
C616 C597 1.368 . S
C616 C610 1.368 . S
C616 C615 1.523 . S
C617 C601 1.429 . S
C617 C613 1.429 . S
C617 C618 1.523 . S
C618 C602 1.368 . S
C618 C614 1.368 . S
C618 C617 1.523 . S
H619 C594 0.950 . S
H620 C596 0.950 . S
H621 C597 0.949 . S
H622 C599 0.950 . S
H623 C601 0.950 . S
C624 C625 1.349 . S
C624 C626 1.327 . S
C624 H649 0.950 . S
C625 C624 1.349 . S
C625 C641 1.349 1_545 S
C626 C624 1.327 . S
C626 C645 1.429 . S
C626 H650 0.950 . S
C627 C644 1.574 . S
C627 C646 1.368 1_565 S
C627 H651 0.949 . S
H628 C632 0.949 . S
C629 C630 1.318 1_565 S
C629 C631 1.327 . S
C629 H652 0.950 . S
C630 C629 1.318 1_545 S
C630 C642 1.383 . S
C631 C629 1.327 . S
C631 C647 1.429 1_565 S
C631 H653 0.950 . S
C632 H628 0.949 . S
C632 C640 1.574 . S
C632 C648 1.368 . S
H633 C641 0.950 . S
H634 C639 0.950 . S
H635 C640 0.949 . S
H636 C642 0.950 . S
H637 C643 0.950 . S
H638 C644 0.949 . S
C639 H634 0.950 . S
C639 C641 1.327 . S
C639 C645 1.429 1_565 S
C640 C632 1.574 . S
C640 H635 0.949 . S
C640 C646 1.368 . S
C641 C625 1.349 1_565 S
C641 H633 0.950 . S
C641 C639 1.327 . S
C642 C630 1.383 . S
C642 H636 0.950 . S
C642 C643 1.327 . S
C643 H637 0.950 . S
C643 C642 1.327 . S
C643 C647 1.429 . S
C644 C627 1.574 . S
C644 H638 0.949 . S
C644 C648 1.368 1_565 S
C645 C626 1.429 . S
C645 C639 1.429 1_545 S
C645 C646 1.523 . S
C646 C627 1.368 1_545 S
C646 C640 1.368 . S
C646 C645 1.523 . S
C647 C631 1.429 1_545 S
C647 C643 1.429 . S
C647 C648 1.523 . S
C648 C632 1.368 . S
C648 C644 1.368 1_545 S
C648 C647 1.523 . S
H649 C624 0.950 . S
H650 C626 0.950 . S
H651 C627 0.949 . S
H652 C629 0.950 . S
H653 C631 0.950 . S
C654 C655 1.349 . S
C654 C656 1.327 . S
C654 H679 0.950 . S
C655 C654 1.349 . S
C655 C671 1.349 . S
C656 C654 1.327 . S
C656 C675 1.429 . S
C656 H680 0.950 . S
C657 C674 1.574 . S
C657 C676 1.368 . S
C657 H681 0.949 . S
H658 C662 0.949 . S
C659 C660 1.349 . S
C659 C661 1.327 . S
C659 H682 0.950 . S
C660 C659 1.349 . S
C660 C672 1.349 . S
C661 C659 1.327 . S
C661 C677 1.429 . S
C661 H683 0.950 . S
C662 H658 0.949 . S
C662 C670 1.574 . S
C662 C678 1.368 . S
H663 C671 0.950 . S
H664 C669 0.950 . S
H665 C670 0.949 . S
H666 C672 0.950 . S
H667 C673 0.950 . S
H668 C674 0.949 . S
C669 H664 0.950 . S
C669 C671 1.327 . S
C669 C675 1.429 . S
C670 C662 1.574 . S
C670 H665 0.949 . S
C670 C676 1.368 . S
C671 C655 1.349 . S
C671 H663 0.950 . S
C671 C669 1.327 . S
C672 C660 1.349 . S
C672 H666 0.950 . S
C672 C673 1.327 . S
C673 H667 0.950 . S
C673 C672 1.327 . S
C673 C677 1.429 . S
C674 C657 1.574 . S
C674 H668 0.949 . S
C674 C678 1.368 . S
C675 C656 1.429 . S
C675 C669 1.429 . S
C675 C676 1.523 . S
C676 C657 1.368 . S
C676 C670 1.368 . S
C676 C675 1.523 . S
C677 C661 1.429 . S
C677 C673 1.429 . S
C677 C678 1.523 1_554 S
C678 C662 1.368 . S
C678 C674 1.368 . S
C678 C677 1.523 1_556 S
H679 C654 0.950 . S
H680 C656 0.950 . S
H681 C657 0.949 . S
H682 C659 0.950 . S
H683 C661 0.950 . S
C684 C685 1.349 . S
C684 C686 1.327 . S
C684 H709 0.950 . S
C685 C684 1.349 . S
C685 C701 1.349 . S
C686 C684 1.327 . S
C686 C705 1.429 . S
C686 H710 0.950 . S
C687 C704 1.574 . S
C687 C706 1.368 . S
C687 H711 0.949 . S
H688 C692 0.949 . S
C689 C690 1.349 1_455 S
C689 C691 1.327 . S
C689 H712 0.950 . S
C690 C689 1.349 1_655 S
C690 C702 1.353 1_655 S
C691 C689 1.327 . S
C691 C707 1.429 . S
C691 H713 0.950 . S
C692 H688 0.949 . S
C692 C700 1.574 . S
C692 C708 1.368 . S
H693 C701 0.950 . S
H694 C699 0.950 . S
H695 C700 0.949 . S
H696 C702 0.924 1_655 S
H697 C703 0.950 . S
H698 C704 0.949 . S
C699 H694 0.950 . S
C699 C701 1.327 . S
C699 C705 1.429 . S
C700 C692 1.574 . S
C700 H695 0.949 . S
C700 C706 1.368 . S
C701 C685 1.349 . S
C701 H693 0.950 . S
C701 C699 1.327 . S
C702 C690 1.353 1_455 S
C702 H696 0.924 1_455 S
C702 C703 1.328 . S
C703 H697 0.950 . S
C703 C702 1.328 . S
C703 C707 1.429 . S
C704 C687 1.574 . S
C704 H698 0.949 . S
C704 C708 1.368 . S
C705 C686 1.429 . S
C705 C699 1.429 . S
C705 C706 1.523 . S
C706 C687 1.368 . S
C706 C700 1.368 . S
C706 C705 1.523 . S
C707 C691 1.429 . S
C707 C703 1.429 . S
C707 C708 1.523 . S
C708 C692 1.368 . S
C708 C704 1.368 . S
C708 C707 1.523 . S
H709 C684 0.950 . S
H710 C686 0.950 . S
H711 C687 0.949 . S
H712 C689 0.950 . S
H713 C691 0.950 . S
C175 C7 0.541 . S
C180 C169 0.496 . S
C205 C51 1.761 . S
C210 C151 1.743 . S
C235 C87 1.174 . S
C240 C163 1.195 . S
C265 C16 0.420 . S
C270 C172 0.305 . S
C300 C154 1.801 . S
C295 C42 1.813 . S
C330 C160 1.311 . S
C325 C96 1.296 . S
C355 C47 1.164 . S
C360 C133 1.184 . S
C385 C91 2.951 . S
C390 C142 2.918 1_655 S
C415 C2 1.858 . S
C420 C124 1.862 . S
C450 C136 1.282 . S
C445 C56 1.263 . S
C480 C145 2.805 . S
C475 C82 2.808 . S
C505 C11 1.740 . S
C510 C127 1.722 . S
C540 C143 1.774 . S
C535 C19 1.707 . S
C565 C50 1.333 . S
C570 C125 1.378 . S
C595 C99 1.458 . S
C600 C134 1.513 . S
C630 C161 1.484 . S
C625 C59 1.443 . S
C660 C170 1.108 . S
C655 C90 1.090 . S
C685 C10 1.331 . S
C690 C152 1.367 . S
