# Generated by pormake.
# Topology ftw, (4,12)-cn, num edge types: 1
# Building blocks:
#     Node 0, Type 0, BuildingBlock: GIZVER_clean_linker_0, # of connection points: 4
#     Node 1, Type 0, BuildingBlock: GIZVER_clean_linker_0, # of connection points: 4
#     Node 2, Type 0, BuildingBlock: GIZVER_clean_linker_0, # of connection points: 4
#     Node 3, Type 1, BuildingBlock: QEWDON_clean_sbu_0, # of connection points: 12
#     Edge 4, Type (0, 1), BuildingBlock: FUNLAD_clean_linker_1, # of connection points: 2
#     Edge 5, Type (0, 1), BuildingBlock: FUNLAD_clean_linker_1, # of connection points: 2
#     Edge 6, Type (0, 1), BuildingBlock: FUNLAD_clean_linker_1, # of connection points: 2
#     Edge 7, Type (0, 1), BuildingBlock: FUNLAD_clean_linker_1, # of connection points: 2
#     Edge 8, Type (0, 1), BuildingBlock: FUNLAD_clean_linker_1, # of connection points: 2
#     Edge 9, Type (0, 1), BuildingBlock: FUNLAD_clean_linker_1, # of connection points: 2
#     Edge 10, Type (0, 1), BuildingBlock: FUNLAD_clean_linker_1, # of connection points: 2
#     Edge 11, Type (0, 1), BuildingBlock: FUNLAD_clean_linker_1, # of connection points: 2
#     Edge 12, Type (0, 1), BuildingBlock: FUNLAD_clean_linker_1, # of connection points: 2
#     Edge 13, Type (0, 1), BuildingBlock: FUNLAD_clean_linker_1, # of connection points: 2
#     Edge 14, Type (0, 1), BuildingBlock: FUNLAD_clean_linker_1, # of connection points: 2
#     Edge 15, Type (0, 1), BuildingBlock: FUNLAD_clean_linker_1, # of connection points: 2
# Relax obj value: 0.120
# Max RMSD: 0.265
# Mean RMSD: 0.215
data_MOF--net-ftw--node1-QEWDON_clean_sbu_0--node2-GIZVER_clean_linker_0--edge1-FUNLAD_clean_linker_1
_symmetry_space_group_name_H-M    P1
_symmetry_Int_Tables_number       1
_symmetry_cell_setting            triclinic
loop_
_symmetry_equiv_pos_as_xyz
'x, y, z'
_cell_length_a     27.183298
_cell_length_b     25.231076
_cell_length_c     24.628152
_cell_angle_alpha  89.757734
_cell_angle_beta   89.860721
_cell_angle_gamma 90.429381
loop_
_atom_site_label
_atom_site_type_symbol
_atom_site_fract_x
_atom_site_fract_y
_atom_site_fract_z
_atom_type_partial_charge
H0 H 0.93872 0.43553 0.39611 0.0
H1 H 0.95732 0.44403 0.56893 0.0
H2 H 0.04611 0.33771 0.47606 0.0
H3 H 0.87465 0.47338 0.45274 0.0
H4 H 0.8797 0.47217 0.52494 0.0
H5 H 0.89778 0.55165 0.40282 0.0
H6 H 0.94687 0.68936 0.48999 0.0
H7 H 0.9351 0.53891 0.57195 0.0
C8 C 0.95843 0.42386 0.43243 0.0
C9 C 0.99556 0.38547 0.42899 0.0
C10 C 0.94456 0.44522 0.48276 0.0
C11 C 0.96861 0.42831 0.53004 0.0
C12 C 0.00541 0.38955 0.52752 0.0
C13 C 0.0194 0.36926 0.47692 0.0
C14 C 0.90042 0.48107 0.48691 0.0
C15 C 0.91538 0.53878 0.4872 0.0
C16 C 0.911 0.5697 0.43996 0.0
C17 C 0.9231 0.62383 0.44042 0.0
C18 C 0.93989 0.6471 0.48886 0.0
C19 C 0.94489 0.61652 0.53644 0.0
C20 C 0.93228 0.5625 0.53521 0.0
H21 H 0.44745 0.05786 0.38413 0.0
H22 H 0.45886 0.04018 0.55688 0.0
H23 H 0.32946 0.98427 0.47409 0.0
H24 H 0.50792 0.1084 0.4329 0.0
H25 H 0.50454 0.11194 0.50502 0.0
H26 H 0.56462 0.04822 0.38913 0.0
H27 H 0.67206 0.9701 0.48821 0.0
H28 H 0.54857 0.04669 0.56291 0.0
C29 C 0.43261 0.04285 0.42215 0.0
C30 C 0.38637 0.01771 0.42277 0.0
C31 C 0.45893 0.05072 0.47052 0.0
C32 C 0.43852 0.03319 0.51995 0.0
C33 C 0.39148 0.00942 0.52162 0.0
C34 C 0.36637 0.00074 0.47266 0.0
C35 C 0.50552 0.08375 0.47041 0.0
C36 C 0.55097 0.05006 0.47539 0.0
C37 C 0.57775 0.03614 0.42881 0.0
C38 C 0.62253 0.00917 0.43327 0.0
C39 C 0.63917 0.9937 0.48491 0.0
C40 C 0.61303 0.00766 0.53205 0.0
C41 C 0.56865 0.03524 0.52679 0.0
H42 H 0.51647 0.40286 0.16789 0.0
H43 H 0.57063 0.5635 0.17867 0.0
H44 H 0.66564 0.44053 0.1223 0.0
H45 H 0.47607 0.46924 0.22746 0.0
H46 H 0.49622 0.53675 0.22746 0.0
H47 H 0.4117 0.44203 0.16766 0.0
H48 H 0.34778 0.55576 0.0596 0.0
H49 H 0.48291 0.59324 0.14253 0.0
C50 C 0.54564 0.43179 0.16153 0.0
C51 C 0.59122 0.41544 0.14107 0.0
C52 C 0.53784 0.48528 0.1748 0.0
C53 C 0.57613 0.52251 0.16733 0.0
C54 C 0.62226 0.50613 0.1483 0.0
C55 C 0.62944 0.45287 0.13549 0.0
C56 C 0.49017 0.50176 0.20087 0.0
C57 C 0.45216 0.51558 0.1587 0.0
C58 C 0.41339 0.48013 0.14724 0.0
C59 C 0.37536 0.49517 0.11204 0.0
C60 C 0.37693 0.54519 0.08745 0.0
C61 C 0.41542 0.58112 0.09833 0.0
C62 C 0.45344 0.56557 0.13322 0.0
Zn63 Zn 0.11841 0.10338 0.92941 0.0
Zn64 Zn 0.0808 0.10516 0.05331 0.0
O65 O 0.08658 0.0586 0.98793 0.0
H66 H 0.06881 0.0258 0.98195 0.0
C67 C 0.96695 0.15891 0.86141 0.0
O68 O 0.99507 0.16037 0.90471 0.0
Zn69 Zn 0.92764 0.88394 0.06724 0.0
Zn70 Zn 0.90369 0.87107 0.94022 0.0
O71 O 0.92514 0.92422 0.99718 0.0
H72 H 0.94183 0.95745 0.98991 0.0
Zn73 Zn 0.89855 0.09609 0.93144 0.0
O74 O 0.94481 0.07429 0.99173 0.0
Zn75 Zn 0.90541 0.07421 0.06077 0.0
H76 H 0.97499 0.05506 0.98592 0.0
Zn77 Zn 0.12528 0.90548 0.94386 0.0
O78 O 0.06974 0.90291 0.99968 0.0
H79 H 0.03538 0.90891 0.99192 0.0
Zn80 Zn 0.10468 0.91673 0.06937 0.0
C81 C 0.0782 0.83809 0.86314 0.0
O82 O 0.05771 0.81874 0.90743 0.0
O83 O 0.14256 0.17572 0.95714 0.0
O84 O 0.11029 0.17863 0.04038 0.0
O85 O 0.8723 0.80373 0.97311 0.0
O86 O 0.89614 0.81088 0.05925 0.0
O87 O 0.83168 0.12245 0.959 0.0
O88 O 0.8374 0.10488 0.04757 0.0
C89 C 0.12516 0.02353 0.11634 0.0
O90 O 0.19361 0.88855 0.97679 0.0
O91 O 0.17472 0.89055 0.06487 0.0
O92 O 0.87424 0.89915 0.86812 0.0
C93 C 0.13522 0.19968 0.00176 0.0
O94 O 0.16175 0.06727 0.87122 0.0
C95 C 0.87942 0.97077 0.12127 0.0
O96 O 0.92626 0.13388 0.86288 0.0
C97 C 0.87396 0.78588 0.02147 0.0
O98 O 0.10901 0.87601 0.86698 0.0
C99 C 0.98668 0.12696 0.11216 0.0
O100 O 0.11952 0.07336 0.11422 0.0
O101 O 0.10372 0.99514 0.08104 0.0
C102 C 0.81357 0.1225 0.00666 0.0
O103 O 0.88615 0.92108 0.12247 0.0
O104 O 0.9018 0.998 0.08524 0.0
C105 C 0.02432 0.87028 0.1315 0.0
O106 O 0.94056 0.11916 0.11657 0.0
O107 O 0.00922 0.10563 0.07289 0.0
C108 C 0.20544 0.88282 0.02656 0.0
O109 O 0.07025 0.87982 0.13149 0.0
O110 O 0.99915 0.88405 0.09033 0.0
C111 C 0.82892 0.91089 0.86721 0.0
O112 O 0.80254 0.90564 0.91172 0.0
C113 C 0.20183 0.04518 0.88464 0.0
O114 O 0.21458 0.04358 0.93599 0.0
H115 H 0.97326 0.35987 0.34692 0.0
C116 C 1.00285 0.35742 0.37649 0.0
H117 H 0.07191 0.32226 0.39311 0.0
H118 H 0.00633 0.11471 0.26694 0.0
H119 H 0.01614 0.08176 0.35915 0.0
H120 H 0.03613 0.14288 0.43404 0.0
H121 H 0.04674 0.23707 0.41727 0.0
C122 C 0.04119 0.32566 0.36537 0.0
C123 C 0.03856 0.28801 0.31903 0.0
C124 C 0.03317 0.23297 0.3297 0.0
C125 C 0.021 0.1978 0.28676 0.0
C126 C 0.01497 0.14313 0.29839 0.0
C127 C 0.02065 0.12372 0.35102 0.0
C128 C 0.03198 0.15812 0.39316 0.0
C129 C 0.038 0.21216 0.38293 0.0
H130 H 0.05277 0.16592 0.14718 0.0
C131 C 0.01332 0.16015 0.15181 0.0
H132 H 0.95001 0.17744 0.19812 0.0
H133 H 0.05839 0.38853 0.2834 0.0
H134 H 0.0536 0.42036 0.19017 0.0
H135 H 0.03036 0.35977 0.11595 0.0
H136 H 0.01202 0.26707 0.1343 0.0
C137 C 0.98928 0.18391 0.19261 0.0
C138 C 0.01428 0.21771 0.2335 0.0
C139 C 0.02465 0.27171 0.22189 0.0
C140 C 0.03717 0.30688 0.26478 0.0
C141 C 0.04767 0.36057 0.25232 0.0
C142 C 0.0453 0.3792 0.19905 0.0
C143 C 0.03226 0.34506 0.15724 0.0
C144 C 0.02179 0.29194 0.16832 0.0
H145 H 0.63261 0.99797 0.34474 0.0
C146 C 0.65184 -0.00087 0.38341 0.0
H147 H 0.72203 0.99886 0.42098 0.0
H148 H 0.82857 0.87937 0.22908 0.0
H149 H 0.82458 0.80976 0.29662 0.0
H150 H 0.77855 0.82192 0.38193 0.0
H151 H 0.73507 0.90367 0.39954 0.0
C152 C 0.70131 0.99633 0.38346 0.0
C153 C 0.72975 0.98989 0.33224 0.0
C154 C 0.75531 0.94217 0.32265 0.0
C155 C 0.78159 0.93518 0.27321 0.0
C156 C 0.80697 0.88686 0.26512 0.0
C157 C 0.80538 0.8465 0.30385 0.0
C158 C 0.77945 0.85333 0.35187 0.0
C159 C 0.75472 0.90052 0.36144 0.0
H160 H 0.85646 0.03201 0.18049 0.0
C161 C 0.84639 0.99444 0.16207 0.0
H162 H 0.79836 0.92893 0.16017 0.0
H163 H 0.69071 0.08919 0.34145 0.0
H164 H 0.68855 0.15677 0.27146 0.0
H165 H 0.72623 0.1415 0.18251 0.0
H166 H 0.76906 0.0593 0.16287 0.0
C167 C 0.80757 0.96592 0.18044 0.0
C168 C 0.78204 0.97599 0.23309 0.0
C169 C 0.75612 0.0237 0.24275 0.0
C170 C 0.73126 0.03121 0.29308 0.0
C171 C 0.70813 0.08035 0.30307 0.0
C172 C 0.7069 0.11967 0.26342 0.0
C173 C 0.72858 0.11115 0.21325 0.0
C174 C 0.75313 0.06394 0.20276 0.0
H175 H 0.88676 0.6441 0.36266 0.0
C176 C 0.91609 0.65562 0.39025 0.0
H177 H 0.97655 0.70694 0.40286 0.0
H178 H 0.94917 0.73437 0.13706 0.0
H179 H 0.95736 0.6389 0.12994 0.0
H180 H 0.96103 0.58292 0.21219 0.0
H181 H 0.95541 0.62161 0.30152 0.0
C182 C 0.94666 0.69546 0.37607 0.0
C183 C 0.9404 0.72712 0.32533 0.0
C184 C 0.9452 0.70337 0.2733 0.0
C185 C 0.94514 0.73574 0.22582 0.0
C186 C 0.94954 0.71148 0.17432 0.0
C187 C 0.95434 0.65681 0.16967 0.0
C188 C 0.95621 0.62531 0.21597 0.0
C189 C 0.9523 0.64811 0.26722 0.0
H190 H 0.02815 0.83602 0.21305 0.0
C191 C 1.0031 0.84364 0.17954 0.0
H192 H 0.93113 0.82999 0.15023 0.0
H193 H 0.92292 0.78456 0.41748 0.0
H194 H 0.91348 0.88001 0.42317 0.0
H195 H 0.91782 0.93595 0.34082 0.0
H196 H 0.93091 0.89655 0.25205 0.0
C197 C 0.95688 0.82519 0.18315 0.0
C198 C 0.94309 0.79156 0.23056 0.0
C199 C 0.93565 0.81499 0.28195 0.0
C200 C 0.93378 0.78273 0.32936 0.0
C201 C 0.92558 0.80726 0.38019 0.0
C202 C 0.91995 0.86198 0.38402 0.0
C203 C 0.92245 0.8935 0.33767 0.0
C204 C 0.93026 0.87049 0.28709 0.0
H205 H 0.36211 0.04865 0.34316 0.0
C206 C 0.35657 0.0166 0.37226 0.0
H207 H 0.31607 0.94698 0.39053 0.0
H208 H 0.12269 0.02062 0.27265 0.0
H209 H 0.09638 0.01434 0.36672 0.0
H210 H 0.15607 0.99509 0.43934 0.0
H211 H 0.24222 0.98211 0.41855 0.0
C212 C 0.32165 0.97975 0.36241 0.0
C213 C 0.28539 0.98659 0.31756 0.0
C214 C 0.23483 0.99303 0.33055 0.0
C215 C 0.2004 0.00463 0.28883 0.0
C216 C 0.15037 0.01206 0.30291 0.0
C217 C 0.13475 0.00848 0.35669 0.0
C218 C 0.16835 0.99758 0.39755 0.0
C219 C 0.2178 0.99003 0.38494 0.0
H220 H 0.16212 0.95723 0.15916 0.0
C221 C 0.15754 -4e-05 0.15788 0.0
H222 H 0.17763 0.07376 0.1921 0.0
H223 H 0.37797 0.96896 0.27733 0.0
H224 H 0.40424 0.97865 0.18357 0.0
H225 H 0.34469 0.00108 0.11181 0.0
H226 H 0.25859 0.01469 0.1335 0.0
C227 C 0.18228 0.03102 0.19286 0.0
C228 C 0.21644 0.00969 0.23433 0.0
C229 C 0.26647 0.00121 0.22094 0.0
C230 C 0.30096 0.98915 0.26251 0.0
C231 C 0.35057 0.98019 0.24777 0.0
C232 C 0.36606 0.98522 0.19401 0.0
C233 C 0.33252 0.99773 0.15358 0.0
C234 C 0.28322 0.00546 0.16659 0.0
H235 H 0.94792 0.62108 0.62611 0.0
C236 C 0.96032 0.64035 0.58886 0.0
H237 H 0.00366 0.7029 0.55623 0.0
H238 H 0.98206 0.85087 0.76102 0.0
H239 H 0.93532 0.89913 0.69358 0.0
H240 H 0.91889 0.86042 0.60357 0.0
H241 H 0.94877 0.77304 0.58063 0.0
C242 C 0.98992 0.68318 0.59252 0.0
C243 C 1.00233 0.70711 0.64608 0.0
C244 C 0.98557 0.75882 0.6584 0.0
C245 C 0.99563 0.78149 0.71006 0.0
C246 C 0.97666 0.83229 0.72199 0.0
C247 C 0.94947 0.86033 0.68374 0.0
C248 C 0.94016 0.83851 0.6331 0.0
C249 C 0.95769 0.78831 0.62042 0.0
H250 H 0.08374 0.8334 0.77373 0.0
C251 C 0.06594 0.81621 0.80931 0.0
H252 H 0.01691 0.75724 0.8386 0.0
H253 H 0.04499 0.60962 0.63366 0.0
H254 H 0.09045 0.56085 0.70174 0.0
H255 H 0.1057 0.59911 0.79219 0.0
H256 H 0.07583 0.6866 0.81492 0.0
C257 C 0.03381 0.77591 0.80328 0.0
C258 C 0.02315 0.75272 0.74902 0.0
C259 C 0.04 0.70109 0.73669 0.0
C260 C 0.03024 0.67853 0.68492 0.0
C261 C 0.04962 0.62791 0.67295 0.0
C262 C 0.07624 0.59963 0.71152 0.0
C263 C 0.08489 0.6212 0.76241 0.0
C264 C 0.06738 0.67143 0.77497 0.0
H265 H 0.33011 0.9764 0.57075 0.0
C266 C 0.36462 0.99838 0.57335 0.0
H267 H 0.40843 0.04587 0.62535 0.0
H268 H 0.22938 0.12753 0.76106 0.0
H269 H 0.25273 0.20599 0.70997 0.0
H270 H 0.31548 0.20159 0.63767 0.0
H271 H 0.35543 0.11883 0.61631 0.0
C272 C 0.37619 0.02072 0.62121 0.0
C273 C 0.33933 0.02254 0.6659 0.0
C274 C 0.31605 0.07133 0.67758 0.0
C275 C 0.27927 0.07368 0.71854 0.0
C276 C 0.25704 0.12313 0.72978 0.0
C277 C 0.27017 0.16862 0.70084 0.0
C278 C 0.30553 0.16617 0.66022 0.0
C279 C 0.32828 0.11828 0.64849 0.0
H280 H 0.27394 0.01724 0.85553 0.0
C281 C 0.23711 0.02813 0.84275 0.0
H282 H 0.19013 0.04317 0.77653 0.0
H283 H 0.37952 0.92395 0.65659 0.0
H284 H 0.35524 0.84485 0.70684 0.0
H285 H 0.28895 0.84808 0.77536 0.0
H286 H 0.24674 0.93044 0.79434 0.0
C287 C 0.22641 0.03065 0.78962 0.0
C288 C 0.26562 0.0272 0.74763 0.0
C289 C 0.28905 0.97844 0.73624 0.0
C290 C 0.32637 0.97625 0.69567 0.0
C291 C 0.35016 0.92747 0.68607 0.0
C292 C 0.33671 0.88187 0.71476 0.0
C293 C 0.29945 0.88371 0.75343 0.0
C294 C 0.27568 0.93129 0.76412 0.0
H295 H 0.06267 0.34806 0.57521 0.0
C296 C 0.02604 0.365 0.57727 0.0
H297 H 0.96056 0.36952 0.62353 0.0
H298 H 0.04068 0.15036 0.73134 0.0
H299 H 0.03376 0.11243 0.64105 0.0
H300 H 0.01587 0.16916 0.56177 0.0
H301 H 0.00602 0.26378 0.57187 0.0
C302 C 0.99795 0.35488 0.62113 0.0
C303 C 0.01475 0.32074 0.6667 0.0
C304 C 0.01887 0.26509 0.65977 0.0
C305 C 0.02659 0.23194 0.70572 0.0
C306 C 0.03269 0.17683 0.69786 0.0
C307 C 0.02914 0.15467 0.64631 0.0
C308 C 0.01925 0.18664 0.60167 0.0
C309 C 0.01394 0.24115 0.60808 0.0
H310 H 0.95275 0.18926 0.77942 0.0
C311 C 0.97954 0.18941 0.81217 0.0
H312 H 0.04712 0.22097 0.83997 0.0
H313 H 0.01704 0.42594 0.69225 0.0
H314 H 0.02644 0.4635 0.78239 0.0
H315 H 0.03613 0.40556 0.86259 0.0
H316 H 0.03682 0.30989 0.85322 0.0
C317 C 0.02063 0.21902 0.80707 0.0
C318 C 0.02717 0.254 0.75858 0.0
C319 C 0.02751 0.30981 0.76492 0.0
C320 C 0.02133 0.34321 0.71881 0.0
C321 C 0.02104 0.39884 0.72613 0.0
C322 C 0.02652 0.42087 0.77755 0.0
C323 C 0.03202 0.38824 0.8227 0.0
C324 C 0.03231 0.33334 0.81675 0.0
H325 H 0.60505 0.99336 0.62061 0.0
C326 C 0.63138 0.99441 0.58728 0.0
H327 H 0.70703 0.99125 0.56693 0.0
H328 H 0.79087 0.0349 0.79916 0.0
H329 H 0.81005 0.11783 0.75341 0.0
H330 H 0.7775 0.13664 0.66197 0.0
H331 H 0.72544 0.07273 0.61585 0.0
C332 C 0.67922 0.98609 0.59822 0.0
C333 C 0.69687 0.97516 0.65427 0.0
C334 C 0.72759 0.01282 0.68048 0.0
C335 C 0.74676 0.00179 0.73296 0.0
C336 C 0.7763 0.04067 0.75876 0.0
C337 C 0.78733 0.08862 0.7331 0.0
C338 C 0.76898 0.09923 0.68165 0.0
C339 C 0.73928 0.06206 0.65554 0.0
H340 H 0.82958 0.93164 0.78011 0.0
C341 C 0.80631 0.92851 0.81598 0.0
H342 H 0.73402 0.93464 0.84706 0.0
H343 H 0.64157 0.89265 0.61424 0.0
H344 H 0.6215 0.81055 0.66075 0.0
H345 H 0.6529 0.79263 0.75284 0.0
H346 H 0.70495 0.85665 0.79874 0.0
C347 C 0.75813 0.93934 0.81208 0.0
C348 C 0.73565 0.95283 0.75884 0.0
C349 C 0.70395 0.91574 0.73328 0.0
C350 C 0.68504 0.92656 0.68061 0.0
C351 C 0.65569 0.88745 0.65488 0.0
C352 C 0.64416 0.83985 0.68098 0.0
C353 C 0.66189 0.82973 0.73279 0.0
C354 C 0.69166 0.86692 0.75871 0.0
H355 H 0.29602 0.48152 0.09943 0.0
C356 C 0.33121 0.46166 0.10348 0.0
H357 H 0.36795 0.38846 0.10018 0.0
H358 H 0.1893 0.2375 0.14969 0.0
H359 H 0.24177 0.2224 0.22718 0.0
H360 H 0.31488 0.27861 0.24311 0.0
H361 H 0.33633 0.34977 0.18095 0.0
C362 C 0.33307 0.40896 0.09686 0.0
C363 C 0.28741 0.377 0.08786 0.0
C364 C 0.27446 0.33654 0.12554 0.0
C365 C 0.23151 0.30504 0.11709 0.0
C366 C 0.22081 0.26344 0.15429 0.0
C367 C 0.25071 0.25421 0.19912 0.0
C368 C 0.2919 0.28579 0.20804 0.0
C369 C 0.30383 0.32648 0.17188 0.0
H370 H 0.19044 0.25999 0.98072 0.0
C371 C 0.163 0.24909 0.01108 0.0
H372 H 0.13449 0.26486 0.08896 0.0
H373 H 0.30423 0.44605 0.00277 0.0
H374 H 0.24778 0.46658 0.92989 0.0
H375 H 0.16745 0.42086 0.92332 0.0
H376 H 0.14415 0.35279 0.98872 0.0
C377 C 0.16103 0.27621 0.05789 0.0
C378 C 0.2009 0.31488 0.07156 0.0
C379 C 0.21206 0.35772 0.03603 0.0
C380 C 0.25652 0.38705 0.0425 0.0
C381 C 0.26939 0.42515 0.00235 0.0
C382 C 0.23753 0.43693 0.95982 0.0
C383 C 0.19245 0.411 0.95593 0.0
C384 C 0.17971 0.37176 0.99343 0.0
H385 H 0.44987 0.657 0.07077 0.0
C386 C 0.41516 0.63583 0.07571 0.0
H387 H 0.3376 0.64174 0.07232 0.0
H388 H 0.34061 0.89013 0.09149 0.0
H389 H 0.37438 0.87691 0.18243 0.0
H390 H 0.40665 0.79015 0.2104 0.0
H391 H 0.40596 0.71576 0.14808 0.0
C392 C 0.37284 0.661 0.06514 0.0
C393 C 0.37044 0.71604 0.04427 0.0
C394 C 0.37197 0.75897 0.08093 0.0
C395 C 0.35215 0.80864 0.06528 0.0
C396 C 0.35403 0.85122 0.10237 0.0
C397 C 0.37353 0.8443 0.1542 0.0
C398 C 0.39173 0.7953 0.17002 0.0
C399 C 0.39101 0.75292 0.13397 0.0
H400 H 0.25429 0.8375 0.0791 0.0
C401 C 0.25281 0.8586 0.04057 0.0
H402 H 0.28854 0.87641 0.96705 0.0
H403 H 0.37486 0.64557 0.96107 0.0
H404 H 0.34674 0.6601 0.86841 0.0
H405 H 0.31143 0.74598 0.84107 0.0
H406 H 0.30391 0.81752 0.90563 0.0
C407 C 0.29059 0.85527 0.0054 0.0
C408 C 0.3292 0.81426 0.01391 0.0
C409 C 0.33537 0.77407 0.97437 0.0
C410 C 0.35575 0.72459 0.98993 0.0
C411 C 0.3593 0.68374 0.95099 0.0
C412 C 0.3435 0.69164 0.89783 0.0
C413 C 0.3236 0.74 0.88245 0.0
C414 C 0.31927 0.78078 0.92013 0.0
H415 H 0.58493 0.32918 0.15828 0.0
C416 C 0.60079 0.35855 0.13083 0.0
H417 H 0.64748 0.37211 0.06344 0.0
H418 H 0.79857 0.19968 0.13607 0.0
H419 H 0.82589 0.26879 0.19689 0.0
H420 H 0.77549 0.34831 0.21191 0.0
H421 H 0.69768 0.35913 0.16573 0.0
C422 C 0.63254 0.34335 0.09211 0.0
C423 C 0.6559 0.29049 0.09281 0.0
C424 C 0.70045 0.28386 0.12177 0.0
C425 C 0.72897 0.23762 0.11388 0.0
C426 C 0.77473 0.23341 0.14113 0.0
C427 C 0.79103 0.27293 0.17618 0.0
C428 C 0.76271 0.31769 0.18458 0.0
C429 C 0.71808 0.32343 0.15766 0.0
H430 H 0.75365 0.17577 0.98245 0.0
C431 C 0.76707 0.15085 0.01529 0.0
H432 H 0.75999 0.12929 0.09716 0.0
H433 H 0.56986 0.28915 0.03603 0.0
H434 H 0.53973 0.21761 0.97871 0.0
H435 H 0.58759 0.13557 0.96771 0.0
H436 H 0.66613 0.12472 0.01343 0.0
C437 C 0.74575 0.15331 0.06432 0.0
C438 C 0.71228 0.19768 0.07778 0.0
C439 C 0.66588 0.20254 0.05216 0.0
C440 C 0.63787 0.24939 0.05925 0.0
C441 C 0.59241 0.2542 0.03194 0.0
C442 C 0.5747 0.21344 0.99915 0.0
C443 C 0.60169 0.16725 0.99292 0.0
C444 C 0.64676 0.16161 0.0191 0.0
H445 H 0.70115 0.52619 0.153 0.0
C446 C 0.66504 0.54247 0.14431 0.0
H447 H 0.62675 0.609 0.1145 0.0
H448 H 0.79328 0.7785 0.15931 0.0
H449 H 0.7294 0.80663 0.22101 0.0
H450 H 0.65544 0.75144 0.23649 0.0
H451 H 0.64451 0.66802 0.18935 0.0
C452 C 0.66221 0.59191 0.12438 0.0
C453 C 0.70761 0.62442 0.1155 0.0
C454 C 0.71403 0.67251 0.14427 0.0
C455 C 0.75733 0.70369 0.13629 0.0
C456 C 0.76178 0.75253 0.16426 0.0
C457 C 0.72529 0.76931 0.19993 0.0
C458 C 0.68359 0.73828 0.20856 0.0
C459 C 0.67778 0.69048 0.18116 0.0
H460 H 0.82079 0.7227 0.00269 0.0
C461 C 0.84317 0.73939 0.03503 0.0
H462 H 0.85733 0.74014 0.11913 0.0
H463 H 0.70466 0.53842 0.04707 0.0
H464 H 0.77158 0.5061 0.99159 0.0
H465 H 0.85129 0.55347 0.98843 0.0
H466 H 0.86365 0.63468 0.03931 0.0
C467 C 0.83649 0.72225 0.08634 0.0
C468 C 0.79463 0.6861 0.10023 0.0
C469 C 0.78945 0.63645 0.074 0.0
C470 C 0.74498 0.6069 0.07944 0.0
C471 C 0.73882 0.5606 0.04767 0.0
C472 C 0.77681 0.54186 0.01509 0.0
C473 C 0.82157 0.56868 0.01305 0.0
C474 C 0.82801 0.61547 0.04204 0.0
loop_
_geom_bond_atom_site_label_1
_geom_bond_atom_site_label_2
_geom_bond_distance
_geom_bond_site_symmetry_2
_ccdc_geom_bond_type
H0 C8 0.930 . S
H1 C11 0.930 . S
H2 C13 0.930 . S
H3 C14 0.970 . S
H4 C14 0.970 . S
H5 C16 0.930 . S
H6 C18 0.930 . S
H7 C20 0.930 . S
C8 H0 0.930 . S
C8 C9 1.382 . S
C8 C10 1.426 . S
C9 C8 1.382 . S
C9 C13 1.389 1_655 S
C10 C8 1.426 . S
C10 C11 1.375 . S
C10 C14 1.532 . S
C11 H1 0.930 . S
C11 C10 1.375 . S
C11 C12 1.416 . S
C12 C11 1.416 . S
C12 C13 1.371 1_655 S
C13 H2 0.930 . S
C13 C9 1.389 1_455 S
C13 C12 1.371 1_455 S
C14 H3 0.970 . S
C14 H4 0.970 . S
C14 C10 1.532 . S
C14 C15 1.499 . S
C15 C14 1.499 . S
C15 C16 1.370 . S
C15 C20 1.415 . S
C16 H5 0.930 . S
C16 C15 1.370 . S
C16 C17 1.407 . S
C17 C16 1.407 . S
C17 C18 1.365 1_655 S
C18 H6 0.930 . S
C18 C17 1.365 1_455 S
C18 C19 1.393 1_455 S
C19 C18 1.393 1_655 S
C19 C20 1.387 . S
C20 H7 0.930 . S
C20 C15 1.415 . S
C20 C19 1.387 . S
H21 C29 0.930 . S
H22 C32 0.930 . S
H23 C34 0.930 . S
H24 C35 0.970 . S
H25 C35 0.970 . S
H26 C37 0.930 . S
H27 C39 0.930 . S
H28 C41 0.930 . S
C29 H21 0.930 . S
C29 C30 1.382 . S
C29 C31 1.426 . S
C30 C29 1.382 . S
C30 C34 1.389 1_545 S
C31 C29 1.426 . S
C31 C32 1.375 . S
C31 C35 1.532 . S
C32 H22 0.930 . S
C32 C31 1.375 . S
C32 C33 1.416 . S
C33 C32 1.416 . S
C33 C34 1.371 1_545 S
C34 H23 0.930 . S
C34 C30 1.389 1_565 S
C34 C33 1.371 1_565 S
C35 H24 0.970 . S
C35 H25 0.970 . S
C35 C31 1.532 . S
C35 C36 1.499 . S
C36 C35 1.499 . S
C36 C37 1.370 . S
C36 C41 1.415 . S
C37 H26 0.930 . S
C37 C36 1.370 . S
C37 C38 1.407 . S
C38 C37 1.407 . S
C38 C39 1.365 1_545 S
C39 H27 0.930 . S
C39 C38 1.365 1_565 S
C39 C40 1.393 1_565 S
C40 C39 1.393 1_545 S
C40 C41 1.387 . S
C41 H28 0.930 . S
C41 C36 1.415 . S
C41 C40 1.387 . S
H42 C50 0.930 . S
H43 C53 0.930 . S
H44 C55 0.930 1_556 S
H45 C56 0.970 . S
H46 C56 0.970 . S
H47 C58 0.930 . S
H48 C60 0.930 1_556 S
H49 C62 0.930 . S
C50 H42 0.930 . S
C50 C51 1.382 . S
C50 C52 1.426 . S
C51 C50 1.382 . S
C51 C55 1.389 . S
C52 C50 1.426 . S
C52 C53 1.375 . S
C52 C56 1.532 . S
C53 H43 0.930 . S
C53 C52 1.375 . S
C53 C54 1.416 . S
C54 C53 1.416 . S
C54 C55 1.371 . S
C55 H44 0.930 1_554 S
C55 C51 1.389 . S
C55 C54 1.371 . S
C56 H45 0.970 . S
C56 H46 0.970 . S
C56 C52 1.532 . S
C56 C57 1.499 . S
C57 C56 1.499 . S
C57 C58 1.370 . S
C57 C62 1.415 . S
C58 H47 0.930 . S
C58 C57 1.370 . S
C58 C59 1.407 . S
C59 C58 1.407 . S
C59 C60 1.365 . S
C60 H48 0.930 1_554 S
C60 C59 1.365 . S
C60 C61 1.393 . S
C61 C60 1.393 . S
C61 C62 1.387 . S
C62 H49 0.930 . S
C62 C57 1.415 . S
C62 C61 1.387 . S
Zn63 O65 1.933 1_556 S
Zn63 O83 1.985 . S
Zn63 O94 1.955 . S
Zn64 O65 1.911 . S
Zn64 O84 1.970 . S
Zn64 O100 1.945 . S
Zn64 O107 1.981 . S
O65 Zn63 1.933 1_554 S
O65 Zn64 1.911 . S
O65 H66 0.841 . S
H66 O65 0.841 . S
C67 O68 1.246 . S
C67 O96 1.276 1_455 S
O68 C67 1.246 . S
Zn69 O71 1.911 . S
Zn69 O86 1.970 . S
Zn69 O103 1.945 . S
Zn69 O110 1.981 . S
Zn70 O71 1.933 1_556 S
Zn70 O85 1.985 . S
Zn70 O92 1.955 . S
O71 Zn69 1.911 . S
O71 Zn70 1.933 1_554 S
O71 H72 0.841 . S
H72 O71 0.841 . S
Zn73 O74 1.933 1_556 S
Zn73 O87 1.985 . S
Zn73 O96 1.955 . S
O74 Zn73 1.933 1_554 S
O74 Zn75 1.911 . S
O74 H76 0.841 . S
Zn75 O74 1.911 . S
Zn75 O88 1.970 . S
Zn75 O104 1.981 . S
Zn75 O106 1.945 . S
H76 O74 0.841 . S
Zn77 O78 1.933 1_556 S
Zn77 O90 1.985 . S
Zn77 O98 1.955 . S
O78 Zn77 1.933 1_554 S
O78 H79 0.841 . S
O78 Zn80 1.911 . S
H79 O78 0.841 . S
Zn80 O78 1.911 . S
Zn80 O91 1.970 . S
Zn80 O101 1.981 . S
Zn80 O109 1.945 . S
C81 O82 1.246 . S
C81 O98 1.276 1_655 S
O82 C81 1.246 . S
O83 Zn63 1.985 . S
O83 C93 1.245 1_556 S
O84 Zn64 1.970 . S
O84 C93 1.263 . S
O85 Zn70 1.985 . S
O85 C97 1.245 1_556 S
O86 Zn69 1.970 . S
O86 C97 1.263 . S
O87 Zn73 1.985 . S
O87 C102 1.245 1_556 S
O88 Zn75 1.970 . S
O88 C102 1.263 . S
C89 O100 1.262 . S
C89 O101 1.245 1_545 S
O90 Zn77 1.985 . S
O90 C108 1.245 1_556 S
O91 Zn80 1.970 . S
O91 C108 1.263 . S
O92 Zn70 1.955 . S
O92 C111 1.276 1_565 S
C93 O83 1.245 1_554 S
C93 O84 1.263 . S
O94 Zn63 1.955 . S
O94 C113 1.276 1_545 S
C95 O103 1.270 . S
C95 O104 1.241 1_565 S
O96 C67 1.276 1_655 S
O96 Zn73 1.955 . S
C97 O85 1.245 1_554 S
C97 O86 1.263 . S
O98 Zn77 1.955 . S
O98 C81 1.276 1_455 S
C99 O106 1.260 . S
C99 O107 1.246 1_655 S
O100 Zn64 1.945 . S
O100 C89 1.262 . S
O101 Zn80 1.981 . S
O101 C89 1.245 1_565 S
C102 O87 1.245 1_554 S
C102 O88 1.263 . S
O103 Zn69 1.945 . S
O103 C95 1.270 . S
O104 Zn75 1.981 . S
O104 C95 1.241 1_545 S
C105 O109 1.264 . S
C105 O110 1.243 1_455 S
O106 Zn75 1.945 . S
O106 C99 1.260 . S
O107 Zn64 1.981 . S
O107 C99 1.246 1_455 S
C108 O90 1.245 1_554 S
C108 O91 1.263 . S
O109 Zn80 1.945 . S
O109 C105 1.264 . S
O110 Zn69 1.981 . S
O110 C105 1.243 1_655 S
C111 O92 1.276 1_545 S
C111 O112 1.246 . S
O112 C111 1.246 . S
C113 O94 1.276 1_565 S
C113 O114 1.246 . S
O114 C113 1.246 . S
H115 C116 0.951 . S
C116 H115 0.951 . S
C116 C122 1.265 1_655 S
H117 C122 0.950 . S
H118 C126 0.949 . S
H119 C127 0.950 . S
H120 C128 0.951 . S
H121 C129 0.951 . S
C122 C116 1.265 1_455 S
C122 H117 0.950 . S
C122 C123 1.478 . S
C123 C122 1.478 . S
C123 C124 1.397 . S
C123 C140 1.394 . S
C124 C123 1.397 . S
C124 C125 1.438 . S
C124 C129 1.429 . S
C125 C124 1.438 . S
C125 C126 1.428 1_455 S
C125 C138 1.394 1_455 S
C126 H118 0.949 . S
C126 C125 1.428 1_655 S
C126 C127 1.345 . S
C127 H119 0.950 . S
C127 C126 1.345 . S
C127 C128 1.424 1_655 S
C128 H120 0.951 . S
C128 C127 1.424 1_455 S
C128 C129 1.347 . S
C129 H121 0.951 . S
C129 C124 1.429 . S
C129 C128 1.347 . S
H130 C131 0.951 . S
C131 H130 0.951 . S
C131 C137 1.265 1_455 S
H132 C137 0.950 . S
H133 C141 0.949 . S
H134 C142 0.950 . S
H135 C143 0.951 1_655 S
H136 C144 0.953 . S
C137 C131 1.265 1_655 S
C137 H132 0.950 . S
C137 C138 1.478 . S
C138 C125 1.394 1_655 S
C138 C137 1.478 . S
C138 C139 1.397 1_655 S
C139 C138 1.397 1_455 S
C139 C140 1.438 . S
C139 C144 1.428 1_455 S
C140 C123 1.394 . S
C140 C139 1.438 . S
C140 C141 1.428 . S
C141 H133 0.949 . S
C141 C140 1.428 . S
C141 C142 1.345 . S
C142 H134 0.950 . S
C142 C141 1.345 . S
C142 C143 1.424 . S
C143 H135 0.951 1_455 S
C143 C142 1.424 . S
C143 C144 1.346 1_455 S
C144 H136 0.953 . S
C144 C139 1.428 1_655 S
C144 C143 1.346 1_655 S
H145 C146 0.951 1_545 S
C146 H145 0.951 1_565 S
C146 C152 1.265 . S
H147 C152 0.950 . S
H148 C156 0.949 . S
H149 C157 0.950 . S
H150 C158 0.951 . S
H151 C159 0.951 . S
C152 C146 1.265 . S
C152 H147 0.950 . S
C152 C153 1.478 1_565 S
C153 C152 1.478 1_545 S
C153 C154 1.392 1_545 S
C153 C170 1.398 . S
C154 C153 1.392 1_565 S
C154 C155 1.438 . S
C154 C159 1.429 . S
C155 C154 1.438 . S
C155 C156 1.428 . S
C155 C168 1.394 1_565 S
C156 H148 0.949 . S
C156 C155 1.428 . S
C156 C157 1.345 . S
C157 H149 0.950 . S
C157 C156 1.345 . S
C157 C158 1.424 . S
C158 H150 0.951 . S
C158 C157 1.424 . S
C158 C159 1.347 . S
C159 H151 0.951 . S
C159 C154 1.429 . S
C159 C158 1.347 . S
H160 C161 0.951 . S
C161 H160 0.951 . S
C161 C167 1.265 . S
H162 C167 0.950 . S
H163 C171 0.949 . S
H164 C172 0.950 . S
H165 C173 0.951 . S
H166 C174 0.951 . S
C167 C161 1.265 . S
C167 H162 0.950 . S
C167 C168 1.478 . S
C168 C155 1.394 1_545 S
C168 C167 1.478 . S
C168 C169 1.397 . S
C169 C168 1.397 . S
C169 C170 1.438 . S
C169 C174 1.429 . S
C170 C153 1.398 . S
C170 C169 1.438 . S
C170 C171 1.428 . S
C171 H163 0.949 . S
C171 C170 1.428 . S
C171 C172 1.345 . S
C172 H164 0.950 . S
C172 C171 1.345 . S
C172 C173 1.424 . S
C173 H165 0.951 . S
C173 C172 1.424 . S
C173 C174 1.347 . S
C174 H166 0.951 . S
C174 C169 1.429 . S
C174 C173 1.347 . S
H175 C176 0.951 . S
C176 H175 0.951 . S
C176 C182 1.265 1_655 S
H177 C182 0.950 . S
H178 C186 0.949 . S
H179 C187 0.950 . S
H180 C188 0.951 . S
H181 C189 0.951 . S
C182 C176 1.265 1_455 S
C182 H177 0.950 . S
C182 C183 1.478 . S
C183 C182 1.478 . S
C183 C184 1.397 . S
C183 C200 1.394 1_455 S
C184 C183 1.397 . S
C184 C185 1.438 . S
C184 C189 1.429 . S
C185 C184 1.438 . S
C185 C186 1.428 . S
C185 C198 1.394 1_455 S
C186 H178 0.949 . S
C186 C185 1.428 . S
C186 C187 1.345 . S
C187 H179 0.950 . S
C187 C186 1.345 . S
C187 C188 1.424 . S
C188 H180 0.951 . S
C188 C187 1.424 . S
C188 C189 1.347 . S
C189 H181 0.951 . S
C189 C184 1.429 . S
C189 C188 1.347 . S
H190 C191 0.951 1_455 S
C191 H190 0.951 1_655 S
C191 C197 1.265 . S
H192 C197 0.950 . S
H193 C201 0.949 . S
H194 C202 0.950 . S
H195 C203 0.951 . S
H196 C204 0.951 . S
C197 C191 1.265 . S
C197 H192 0.950 . S
C197 C198 1.478 . S
C198 C185 1.394 1_655 S
C198 C197 1.478 . S
C198 C199 1.397 . S
C199 C198 1.397 . S
C199 C200 1.438 . S
C199 C204 1.429 . S
C200 C183 1.394 1_655 S
C200 C199 1.438 . S
C200 C201 1.428 . S
C201 H193 0.949 . S
C201 C200 1.428 . S
C201 C202 1.345 . S
C202 H194 0.950 . S
C202 C201 1.345 . S
C202 C203 1.424 . S
C203 H195 0.951 . S
C203 C202 1.424 . S
C203 C204 1.347 . S
C204 H196 0.951 . S
C204 C199 1.429 . S
C204 C203 1.347 . S
H205 C206 0.951 . S
C206 H205 0.951 . S
C206 C212 1.265 . S
H207 C212 0.950 . S
H208 C216 0.949 . S
H209 C217 0.950 . S
H210 C218 0.951 . S
H211 C219 0.951 . S
C212 C206 1.265 . S
C212 H207 0.950 . S
C212 C213 1.477 1_545 S
C213 C212 1.477 1_565 S
C213 C214 1.385 1_565 S
C213 C230 1.407 . S
C214 C213 1.385 1_545 S
C214 C215 1.438 . S
C214 C219 1.429 . S
C215 C214 1.438 . S
C215 C216 1.428 . S
C215 C228 1.394 1_545 S
C216 H208 0.949 . S
C216 C215 1.428 . S
C216 C217 1.345 . S
C217 H209 0.950 . S
C217 C216 1.345 . S
C217 C218 1.424 . S
C218 H210 0.951 . S
C218 C217 1.424 . S
C218 C219 1.347 . S
C219 H211 0.951 . S
C219 C214 1.429 . S
C219 C218 1.347 . S
H220 C221 0.951 . S
C221 H220 0.951 . S
C221 C227 1.265 . S
H222 C227 0.950 . S
H223 C231 0.949 . S
H224 C232 0.950 . S
H225 C233 0.951 . S
H226 C234 0.951 . S
C227 C221 1.265 . S
C227 H222 0.950 . S
C227 C228 1.478 . S
C228 C215 1.394 1_565 S
C228 C227 1.478 . S
C228 C229 1.397 . S
C229 C228 1.397 . S
C229 C230 1.438 . S
C229 C234 1.429 . S
C230 C213 1.407 . S
C230 C229 1.438 . S
C230 C231 1.428 . S
C231 H223 0.949 . S
C231 C230 1.428 . S
C231 C232 1.345 . S
C232 H224 0.950 . S
C232 C231 1.345 . S
C232 C233 1.424 . S
C233 H225 0.951 . S
C233 C232 1.424 . S
C233 C234 1.347 . S
C234 H226 0.951 . S
C234 C229 1.429 . S
C234 C233 1.347 . S
H235 C236 0.951 . S
C236 H235 0.951 . S
C236 C242 1.265 1_655 S
H237 C242 0.950 . S
H238 C246 0.949 . S
H239 C247 0.950 . S
H240 C248 0.951 . S
H241 C249 0.951 . S
C242 C236 1.265 1_455 S
C242 H237 0.950 . S
C242 C243 1.478 . S
C243 C242 1.478 . S
C243 C244 1.397 . S
C243 C260 1.394 1_455 S
C244 C243 1.397 . S
C244 C245 1.438 . S
C244 C249 1.429 . S
C245 C244 1.438 . S
C245 C246 1.428 . S
C245 C258 1.394 1_455 S
C246 H238 0.949 . S
C246 C245 1.428 . S
C246 C247 1.345 . S
C247 H239 0.950 . S
C247 C246 1.345 . S
C247 C248 1.424 . S
C248 H240 0.951 . S
C248 C247 1.424 . S
C248 C249 1.347 . S
C249 H241 0.951 . S
C249 C244 1.429 . S
C249 C248 1.347 . S
H250 C251 0.951 1_455 S
C251 H250 0.951 1_655 S
C251 C257 1.265 . S
H252 C257 0.950 . S
H253 C261 0.949 . S
H254 C262 0.950 . S
H255 C263 0.951 . S
H256 C264 0.951 . S
C257 C251 1.265 . S
C257 H252 0.950 . S
C257 C258 1.478 . S
C258 C245 1.394 1_655 S
C258 C257 1.478 . S
C258 C259 1.397 . S
C259 C258 1.397 . S
C259 C260 1.438 . S
C259 C264 1.429 . S
C260 C243 1.394 1_655 S
C260 C259 1.438 . S
C260 C261 1.428 . S
C261 H253 0.949 . S
C261 C260 1.428 . S
C261 C262 1.345 . S
C262 H254 0.950 . S
C262 C261 1.345 . S
C262 C263 1.424 . S
C263 H255 0.951 . S
C263 C262 1.424 . S
C263 C264 1.347 . S
C264 H256 0.951 . S
C264 C259 1.429 . S
C264 C263 1.347 . S
H265 C266 0.951 . S
C266 H265 0.951 . S
C266 C272 1.265 1_565 S
H267 C272 0.950 . S
H268 C276 0.949 . S
H269 C277 0.950 . S
H270 C278 0.951 . S
H271 C279 0.951 . S
C272 C266 1.265 1_545 S
C272 H267 0.950 . S
C272 C273 1.478 1_545 S
C273 C272 1.478 1_565 S
C273 C274 1.397 1_565 S
C273 C290 1.394 . S
C274 C273 1.397 1_545 S
C274 C275 1.438 . S
C274 C279 1.429 . S
C275 C274 1.438 . S
C275 C276 1.428 . S
C275 C288 1.394 1_545 S
C276 H268 0.949 . S
C276 C275 1.428 . S
C276 C277 1.345 . S
C277 H269 0.950 . S
C277 C276 1.345 . S
C277 C278 1.424 . S
C278 H270 0.951 . S
C278 C277 1.424 . S
C278 C279 1.347 . S
C279 H271 0.951 . S
C279 C274 1.429 . S
C279 C278 1.347 . S
H280 C281 0.951 1_545 S
C281 H280 0.951 1_565 S
C281 C287 1.265 . S
H282 C287 0.950 . S
H283 C291 0.949 . S
H284 C292 0.950 . S
H285 C293 0.951 . S
H286 C294 0.951 . S
C287 C281 1.265 . S
C287 H282 0.950 . S
C287 C288 1.478 . S
C288 C275 1.394 1_565 S
C288 C287 1.478 . S
C288 C289 1.397 . S
C289 C288 1.397 . S
C289 C290 1.438 . S
C289 C294 1.429 . S
C290 C273 1.394 . S
C290 C289 1.438 . S
C290 C291 1.428 . S
C291 H283 0.949 . S
C291 C290 1.428 . S
C291 C292 1.345 . S
C292 H284 0.950 . S
C292 C291 1.345 . S
C292 C293 1.424 . S
C293 H285 0.951 . S
C293 C292 1.424 . S
C293 C294 1.347 . S
C294 H286 0.951 . S
C294 C289 1.429 . S
C294 C293 1.347 . S
H295 C296 0.951 . S
C296 H295 0.951 . S
C296 C302 1.265 1_455 S
H297 C302 0.950 . S
H298 C306 0.949 1_455 S
H299 C307 0.950 . S
H300 C308 0.951 . S
H301 C309 0.951 . S
C302 C296 1.265 1_655 S
C302 H297 0.950 . S
C302 C303 1.478 . S
C303 C302 1.478 . S
C303 C304 1.397 . S
C303 C320 1.394 1_655 S
C304 C303 1.397 . S
C304 C305 1.438 1_655 S
C304 C309 1.429 . S
C305 C304 1.438 1_455 S
C305 C306 1.428 1_455 S
C305 C318 1.394 . S
C306 H298 0.949 1_655 S
C306 C305 1.428 1_655 S
C306 C307 1.345 . S
C307 H299 0.950 . S
C307 C306 1.345 . S
C307 C308 1.424 . S
C308 H300 0.951 . S
C308 C307 1.424 . S
C308 C309 1.347 . S
C309 H301 0.951 . S
C309 C304 1.429 . S
C309 C308 1.347 . S
H310 C311 0.951 1_655 S
C311 H310 0.951 1_455 S
C311 C317 1.265 . S
H312 C317 0.950 . S
H313 C321 0.949 . S
H314 C322 0.950 . S
H315 C323 0.951 . S
H316 C324 0.951 . S
C317 C311 1.265 . S
C317 H312 0.950 . S
C317 C318 1.478 . S
C318 C305 1.394 . S
C318 C317 1.478 . S
C318 C319 1.397 . S
C319 C318 1.397 . S
C319 C320 1.438 . S
C319 C324 1.429 . S
C320 C303 1.394 1_455 S
C320 C319 1.438 . S
C320 C321 1.428 . S
C321 H313 0.949 . S
C321 C320 1.428 . S
C321 C322 1.345 . S
C322 H314 0.950 . S
C322 C321 1.345 . S
C322 C323 1.424 . S
C323 H315 0.951 . S
C323 C322 1.424 . S
C323 C324 1.347 . S
C324 H316 0.951 . S
C324 C319 1.429 . S
C324 C323 1.347 . S
H325 C326 0.951 . S
C326 H325 0.951 . S
C326 C332 1.265 . S
H327 C332 0.950 . S
H328 C336 0.949 . S
H329 C337 0.950 . S
H330 C338 0.951 . S
H331 C339 0.951 . S
C332 C326 1.265 . S
C332 H327 0.950 . S
C332 C333 1.478 . S
C333 C332 1.478 . S
C333 C334 1.397 . S
C333 C350 1.394 1_545 S
C334 C333 1.397 . S
C334 C335 1.438 . S
C334 C339 1.429 . S
C335 C334 1.438 . S
C335 C336 1.428 . S
C335 C348 1.394 . S
C336 H328 0.949 . S
C336 C335 1.428 . S
C336 C337 1.345 . S
C337 H329 0.950 . S
C337 C336 1.345 . S
C337 C338 1.424 . S
C338 H330 0.951 . S
C338 C337 1.424 . S
C338 C339 1.347 . S
C339 H331 0.951 . S
C339 C334 1.429 . S
C339 C338 1.347 . S
H340 C341 0.951 . S
C341 H340 0.951 . S
C341 C347 1.265 . S
H342 C347 0.950 . S
H343 C351 0.949 . S
H344 C352 0.950 . S
H345 C353 0.951 . S
H346 C354 0.951 . S
C347 C341 1.265 . S
C347 H342 0.950 . S
C347 C348 1.478 . S
C348 C335 1.394 . S
C348 C347 1.478 . S
C348 C349 1.397 1_545 S
C349 C348 1.397 1_565 S
C349 C350 1.438 . S
C349 C354 1.429 . S
C350 C333 1.394 1_565 S
C350 C349 1.438 . S
C350 C351 1.428 . S
C351 H343 0.949 . S
C351 C350 1.428 . S
C351 C352 1.345 . S
C352 H344 0.950 . S
C352 C351 1.345 . S
C352 C353 1.424 . S
C353 H345 0.951 . S
C353 C352 1.424 . S
C353 C354 1.347 . S
C354 H346 0.951 . S
C354 C349 1.429 . S
C354 C353 1.347 . S
H355 C356 0.951 . S
C356 H355 0.951 . S
C356 C362 1.265 . S
H357 C362 0.950 . S
H358 C366 0.949 . S
H359 C367 0.950 . S
H360 C368 0.951 . S
H361 C369 0.951 . S
C362 C356 1.265 . S
C362 H357 0.950 . S
C362 C363 1.478 . S
C363 C362 1.478 . S
C363 C364 1.397 . S
C363 C380 1.394 1_554 S
C364 C363 1.397 . S
C364 C365 1.438 . S
C364 C369 1.429 . S
C365 C364 1.438 . S
C365 C366 1.428 . S
C365 C378 1.394 . S
C366 H358 0.949 . S
C366 C365 1.428 . S
C366 C367 1.345 . S
C367 H359 0.950 . S
C367 C366 1.345 . S
C367 C368 1.424 . S
C368 H360 0.951 . S
C368 C367 1.424 . S
C368 C369 1.347 . S
C369 H361 0.951 . S
C369 C364 1.429 . S
C369 C368 1.347 . S
H370 C371 0.951 . S
C371 H370 0.951 . S
C371 C377 1.265 . S
H372 C377 0.950 . S
H373 C381 0.949 . S
H374 C382 0.950 . S
H375 C383 0.951 . S
H376 C384 0.951 . S
C377 C371 1.265 . S
C377 H372 0.950 . S
C377 C378 1.478 . S
C378 C365 1.394 . S
C378 C377 1.478 . S
C378 C379 1.397 1_554 S
C379 C378 1.397 1_556 S
C379 C380 1.438 . S
C379 C384 1.429 . S
C380 C363 1.394 1_556 S
C380 C379 1.438 . S
C380 C381 1.428 . S
C381 H373 0.949 . S
C381 C380 1.428 . S
C381 C382 1.345 . S
C382 H374 0.950 . S
C382 C381 1.345 . S
C382 C383 1.424 . S
C383 H375 0.951 . S
C383 C382 1.424 . S
C383 C384 1.347 . S
C384 H376 0.951 . S
C384 C379 1.429 . S
C384 C383 1.347 . S
H385 C386 0.951 . S
C386 H385 0.951 . S
C386 C392 1.265 . S
H387 C392 0.950 . S
H388 C396 0.949 . S
H389 C397 0.950 . S
H390 C398 0.951 . S
H391 C399 0.951 . S
C392 C386 1.265 . S
C392 H387 0.950 . S
C392 C393 1.478 . S
C393 C392 1.478 . S
C393 C394 1.397 . S
C393 C410 1.394 1_554 S
C394 C393 1.397 . S
C394 C395 1.438 . S
C394 C399 1.429 . S
C395 C394 1.438 . S
C395 C396 1.428 . S
C395 C408 1.394 . S
C396 H388 0.949 . S
C396 C395 1.428 . S
C396 C397 1.345 . S
C397 H389 0.950 . S
C397 C396 1.345 . S
C397 C398 1.424 . S
C398 H390 0.951 . S
C398 C397 1.424 . S
C398 C399 1.347 . S
C399 H391 0.951 . S
C399 C394 1.429 . S
C399 C398 1.347 . S
H400 C401 0.951 . S
C401 H400 0.951 . S
C401 C407 1.265 . S
H402 C407 0.950 . S
H403 C411 0.949 . S
H404 C412 0.950 . S
H405 C413 0.951 . S
H406 C414 0.951 . S
C407 C401 1.265 . S
C407 H402 0.950 . S
C407 C408 1.478 . S
C408 C395 1.394 . S
C408 C407 1.478 . S
C408 C409 1.397 1_554 S
C409 C408 1.397 1_556 S
C409 C410 1.438 . S
C409 C414 1.429 . S
C410 C393 1.394 1_556 S
C410 C409 1.438 . S
C410 C411 1.428 . S
C411 H403 0.949 . S
C411 C410 1.428 . S
C411 C412 1.345 . S
C412 H404 0.950 . S
C412 C411 1.345 . S
C412 C413 1.424 . S
C413 H405 0.951 . S
C413 C412 1.424 . S
C413 C414 1.347 . S
C414 H406 0.951 . S
C414 C409 1.429 . S
C414 C413 1.347 . S
H415 C416 0.951 . S
C416 H415 0.951 . S
C416 C422 1.265 . S
H417 C422 0.950 . S
H418 C426 0.949 . S
H419 C427 0.950 . S
H420 C428 0.951 . S
H421 C429 0.951 . S
C422 C416 1.265 . S
C422 H417 0.950 . S
C422 C423 1.478 . S
C423 C422 1.478 . S
C423 C424 1.397 . S
C423 C440 1.394 1_554 S
C424 C423 1.397 . S
C424 C425 1.438 . S
C424 C429 1.429 . S
C425 C424 1.438 . S
C425 C426 1.428 . S
C425 C438 1.394 . S
C426 H418 0.949 . S
C426 C425 1.428 . S
C426 C427 1.345 . S
C427 H419 0.950 . S
C427 C426 1.345 . S
C427 C428 1.424 . S
C428 H420 0.951 . S
C428 C427 1.424 . S
C428 C429 1.347 . S
C429 H421 0.951 . S
C429 C424 1.429 . S
C429 C428 1.347 . S
H430 C431 0.951 . S
C431 H430 0.951 . S
C431 C437 1.265 . S
H432 C437 0.950 . S
H433 C441 0.949 . S
H434 C442 0.950 . S
H435 C443 0.951 . S
H436 C444 0.951 . S
C437 C431 1.265 . S
C437 H432 0.950 . S
C437 C438 1.478 . S
C438 C425 1.394 . S
C438 C437 1.478 . S
C438 C439 1.397 1_554 S
C439 C438 1.397 1_556 S
C439 C440 1.438 . S
C439 C444 1.429 . S
C440 C423 1.394 1_556 S
C440 C439 1.438 . S
C440 C441 1.428 . S
C441 H433 0.949 . S
C441 C440 1.428 . S
C441 C442 1.345 . S
C442 H434 0.950 . S
C442 C441 1.345 . S
C442 C443 1.424 . S
C443 H435 0.951 . S
C443 C442 1.424 . S
C443 C444 1.347 . S
C444 H436 0.951 . S
C444 C439 1.429 . S
C444 C443 1.347 . S
H445 C446 0.951 . S
C446 H445 0.951 . S
C446 C452 1.265 . S
H447 C452 0.950 . S
H448 C456 0.949 . S
H449 C457 0.950 . S
H450 C458 0.951 . S
H451 C459 0.951 . S
C452 C446 1.265 . S
C452 H447 0.950 . S
C452 C453 1.478 . S
C453 C452 1.478 . S
C453 C454 1.397 . S
C453 C470 1.394 1_554 S
C454 C453 1.397 . S
C454 C455 1.438 . S
C454 C459 1.429 . S
C455 C454 1.438 . S
C455 C456 1.428 . S
C455 C468 1.394 . S
C456 H448 0.949 . S
C456 C455 1.428 . S
C456 C457 1.345 . S
C457 H449 0.950 . S
C457 C456 1.345 . S
C457 C458 1.424 . S
C458 H450 0.951 . S
C458 C457 1.424 . S
C458 C459 1.347 . S
C459 H451 0.951 . S
C459 C454 1.429 . S
C459 C458 1.347 . S
H460 C461 0.951 . S
C461 H460 0.951 . S
C461 C467 1.265 . S
H462 C467 0.950 . S
H463 C471 0.949 . S
H464 C472 0.950 . S
H465 C473 0.951 . S
H466 C474 0.951 . S
C467 C461 1.265 . S
C467 H462 0.950 . S
C467 C468 1.478 . S
C468 C455 1.394 . S
C468 C467 1.478 . S
C468 C469 1.397 1_554 S
C469 C468 1.397 1_556 S
C469 C470 1.438 . S
C469 C474 1.429 . S
C470 C453 1.394 1_556 S
C470 C469 1.438 . S
C470 C471 1.428 . S
C471 H463 0.949 . S
C471 C470 1.428 . S
C471 C472 1.345 . S
C472 H464 0.950 . S
C472 C471 1.345 . S
C472 C473 1.424 . S
C473 H465 0.951 . S
C473 C472 1.424 . S
C473 C474 1.347 . S
C474 H466 0.951 . S
C474 C469 1.429 . S
C474 C473 1.347 . S
C131 C99 1.354 1_455 S
C116 C9 1.327 . S
C161 C95 1.694 1_545 S
C146 C38 1.724 1_565 S
C191 C105 1.277 1_655 S
C176 C17 1.311 . S
C221 C89 1.684 1_565 S
C206 C30 1.728 . S
C236 C19 1.409 . S
C251 C81 1.332 . S
C281 C113 1.710 . S
C266 C33 1.790 1_565 S
C296 C12 1.479 1_455 S
C311 C67 1.361 . S
C326 C40 1.833 . S
C341 C111 1.772 . S
C356 C59 1.347 . S
C371 C93 1.362 . S
C386 C61 1.431 . S
C401 C108 1.340 . S
C431 C102 1.349 . S
C416 C51 1.435 . S
C461 C97 1.358 . S
C446 C54 1.335 . S
