# Generated by pormake.
# Topology zzz, (3,6)-cn, num edge types: 1
# Building blocks:
#     Node 0, Type 0, BuildingBlock: BELTOD_clean_linker_0, # of connection points: 3
#     Node 1, Type 0, BuildingBlock: BELTOD_clean_linker_0, # of connection points: 3
#     Node 2, Type 0, BuildingBlock: BELTOD_clean_linker_0, # of connection points: 3
#     Node 3, Type 0, BuildingBlock: BELTOD_clean_linker_0, # of connection points: 3
#     Node 4, Type 0, BuildingBlock: BELTOD_clean_linker_0, # of connection points: 3
#     Node 5, Type 0, BuildingBlock: BELTOD_clean_linker_0, # of connection points: 3
#     Node 6, Type 0, BuildingBlock: BELTOD_clean_linker_0, # of connection points: 3
#     Node 7, Type 0, BuildingBlock: BELTOD_clean_linker_0, # of connection points: 3
#     Node 8, Type 1, BuildingBlock: KUMBOL_clean_sbu_1, # of connection points: 6
#     Node 9, Type 1, BuildingBlock: KUMBOL_clean_sbu_1, # of connection points: 6
#     Node 10, Type 1, BuildingBlock: KUMBOL_clean_sbu_1, # of connection points: 6
#     Node 11, Type 1, BuildingBlock: KUMBOL_clean_sbu_1, # of connection points: 6
#     Edge 12, Type (0, 1), BuildingBlock: AJUNOK_clean_linker_0, # of connection points: 2
#     Edge 13, Type (0, 1), BuildingBlock: AJUNOK_clean_linker_0, # of connection points: 2
#     Edge 14, Type (0, 1), BuildingBlock: AJUNOK_clean_linker_0, # of connection points: 2
#     Edge 15, Type (0, 1), BuildingBlock: AJUNOK_clean_linker_0, # of connection points: 2
#     Edge 16, Type (0, 1), BuildingBlock: AJUNOK_clean_linker_0, # of connection points: 2
#     Edge 17, Type (0, 1), BuildingBlock: AJUNOK_clean_linker_0, # of connection points: 2
#     Edge 18, Type (0, 1), BuildingBlock: AJUNOK_clean_linker_0, # of connection points: 2
#     Edge 19, Type (0, 1), BuildingBlock: AJUNOK_clean_linker_0, # of connection points: 2
#     Edge 20, Type (0, 1), BuildingBlock: AJUNOK_clean_linker_0, # of connection points: 2
#     Edge 21, Type (0, 1), BuildingBlock: AJUNOK_clean_linker_0, # of connection points: 2
#     Edge 22, Type (0, 1), BuildingBlock: AJUNOK_clean_linker_0, # of connection points: 2
#     Edge 23, Type (0, 1), BuildingBlock: AJUNOK_clean_linker_0, # of connection points: 2
#     Edge 24, Type (0, 1), BuildingBlock: AJUNOK_clean_linker_0, # of connection points: 2
#     Edge 25, Type (0, 1), BuildingBlock: AJUNOK_clean_linker_0, # of connection points: 2
#     Edge 26, Type (0, 1), BuildingBlock: AJUNOK_clean_linker_0, # of connection points: 2
#     Edge 27, Type (0, 1), BuildingBlock: AJUNOK_clean_linker_0, # of connection points: 2
#     Edge 28, Type (0, 1), BuildingBlock: AJUNOK_clean_linker_0, # of connection points: 2
#     Edge 29, Type (0, 1), BuildingBlock: AJUNOK_clean_linker_0, # of connection points: 2
#     Edge 30, Type (0, 1), BuildingBlock: AJUNOK_clean_linker_0, # of connection points: 2
#     Edge 31, Type (0, 1), BuildingBlock: AJUNOK_clean_linker_0, # of connection points: 2
#     Edge 32, Type (0, 1), BuildingBlock: AJUNOK_clean_linker_0, # of connection points: 2
#     Edge 33, Type (0, 1), BuildingBlock: AJUNOK_clean_linker_0, # of connection points: 2
#     Edge 34, Type (0, 1), BuildingBlock: AJUNOK_clean_linker_0, # of connection points: 2
#     Edge 35, Type (0, 1), BuildingBlock: AJUNOK_clean_linker_0, # of connection points: 2
# Relax obj value: 0.348
# Max RMSD: 0.189
# Mean RMSD: 0.175
data_MOF--net-zzz--node1-KUMBOL_clean_sbu_1--node2-BELTOD_clean_linker_0--edge1-AJUNOK_clean_linker_0
_symmetry_space_group_name_H-M    P1
_symmetry_Int_Tables_number       1
_symmetry_cell_setting            triclinic
loop_
_symmetry_equiv_pos_as_xyz
'x, y, z'
_cell_length_a     40.691985
_cell_length_b     40.744409
_cell_length_c     15.133877
_cell_angle_alpha  90.075472
_cell_angle_beta   89.653069
_cell_angle_gamma 90.6068
loop_
_atom_site_label
_atom_site_type_symbol
_atom_site_fract_x
_atom_site_fract_y
_atom_site_fract_z
_atom_type_partial_charge
P0 P 0.73172 0.51108 0.31831 0.0
H1 H 0.74541 0.48739 0.49831 0.0
H2 H 0.79573 0.49153 0.58457 0.0
H3 H 0.82904 0.57172 0.42012 0.0
H4 H 0.7783 0.56824 0.33604 0.0
H5 H 0.67672 0.46749 0.27375 0.0
H6 H 0.63263 0.47258 0.16939 0.0
H7 H 0.6499 0.57705 0.15565 0.0
H8 H 0.6935 0.57213 0.26674 0.0
H9 H 0.78111 0.46996 0.23666 0.0
H10 H 0.74119 0.56644 0.19334 0.0
O11 O 0.73134 0.47071 0.33784 0.0
H12 H 0.8174 0.4777 0.11024 0.0
H13 H 0.77694 0.5736 0.06433 0.0
C14 C 0.75751 0.52712 0.40859 0.0
C15 C 0.76272 0.50693 0.48268 0.0
C16 C 0.79209 0.50889 0.5315 0.0
C17 C 0.81721 0.53153 0.50906 0.0
C18 C 0.81054 0.55398 0.44059 0.0
C19 C 0.78106 0.55204 0.39192 0.0
C20 C 0.68987 0.51927 0.27793 0.0
C21 C 0.67074 0.49193 0.25175 0.0
C22 C 0.64542 0.49473 0.18995 0.0
C23 C 0.63806 0.52501 0.15077 0.0
C24 C 0.65481 0.55312 0.18325 0.0
C25 C 0.68012 0.55029 0.24686 0.0
C26 C 0.7572 0.5169 0.22236 0.0
C27 C 0.77959 0.49254 0.19937 0.0
C28 C 0.80056 0.49713 0.12782 0.0
C29 C 0.79963 0.52624 0.07844 0.0
C30 C 0.77769 0.55095 0.10161 0.0
C31 C 0.75685 0.54646 0.17427 0.0
P32 P 1.00776 0.72036 0.36566 0.0
H33 H 0.03926 0.75383 0.51422 0.0
H34 H 0.03585 0.80914 0.57038 0.0
H35 H 0.94557 0.82306 0.42914 0.0
H36 H 0.94889 0.76652 0.37125 0.0
H37 H 0.03292 0.65337 0.35078 0.0
H38 H 0.02926 0.61348 0.23297 0.0
H39 H 0.94627 0.66388 0.12499 0.0
H40 H 0.94973 0.70473 0.24498 0.0
H41 H 0.07258 0.73612 0.29194 0.0
H42 H 0.97087 0.75635 0.23369 0.0
O43 O 0.04146 0.70695 0.41613 0.0
H44 H 0.08952 0.77263 0.17171 0.0
H45 H 0.98797 0.79288 0.11462 0.0
C46 C 0.9944 0.75484 0.43697 0.0
C47 C 0.01789 0.76781 0.49635 0.0
C48 C 0.01631 0.80016 0.52815 0.0
C49 C 0.99087 0.82115 0.50338 0.0
C50 C 0.96574 0.80776 0.44957 0.0
C51 C 0.96754 0.77511 0.41657 0.0
C52 C 0.99211 0.68338 0.30791 0.0
C53 C 0.01308 0.65597 0.30422 0.0
C54 C 0.01123 0.63285 0.23556 0.0
C55 C 0.98804 0.63573 0.16782 0.0
C56 C 0.96472 0.66101 0.17558 0.0
C57 C 0.96673 0.68455 0.2447 0.0
C58 C 0.02051 0.74367 0.27198 0.0
C59 C 0.05392 0.74787 0.25279 0.0
C60 C 0.06355 0.76846 0.18415 0.0
C61 C 0.03982 0.78495 0.13502 0.0
C62 C 1.00642 0.78001 0.15211 0.0
C63 C 0.9968 0.75924 0.22018 0.0
P64 P 0.80204 0.02583 0.31774 0.0
H65 H 0.7867 0.0517 0.49613 0.0
H66 H 0.73579 0.04959 0.58323 0.0
H67 H 0.70059 0.96958 0.42239 0.0
H68 H 0.75158 0.97071 0.33791 0.0
H69 H 0.86111 0.06607 0.28573 0.0
H70 H 0.90288 0.0608 0.17269 0.0
H71 H 0.87753 0.95846 0.14143 0.0
H72 H 0.83668 0.96332 0.26035 0.0
H73 H 0.76937 0.07115 0.19826 0.0
H74 H 0.78559 0.96669 0.21351 0.0
O75 O 0.8036 0.06637 0.33441 0.0
H76 H 0.72876 0.06177 0.08511 0.0
H77 H 0.74534 0.95736 0.09849 0.0
C78 C 0.77364 0.01204 0.40712 0.0
C79 C 0.76877 0.03272 0.48104 0.0
C80 C 0.73923 0.03177 0.53093 0.0
C81 C 0.71333 1.01015 0.50853 0.0
C82 C 0.71945 0.98728 0.44044 0.0
C83 C 0.74916 0.98791 0.39157 0.0
C84 C 0.84392 0.01549 0.28052 0.0
C85 C 0.86494 0.04195 0.25786 0.0
C86 C 0.88884 0.03911 0.19113 0.0
C87 C 0.89299 1.00959 0.14436 0.0
C88 C 0.87497 0.98188 0.17444 0.0
C89 C 0.85115 0.98472 0.24265 0.0
C90 C 0.77974 0.0196 0.21701 0.0
C91 C 0.76518 0.04629 0.17544 0.0
C92 C 0.74234 0.04089 0.10909 0.0
C93 C 0.73352 1.00867 0.08456 0.0
C94 C 0.75162 0.98235 0.11691 0.0
C95 C 0.77458 0.98781 0.18323 0.0
P96 P 0.50594 0.79578 0.3246 0.0
H97 H 0.4775 0.77739 0.4974 0.0
H98 H 0.48175 0.72574 0.57761 0.0
H99 H 0.57048 0.70336 0.43419 0.0
H100 H 0.56606 0.75505 0.35281 0.0
H101 H 0.46412 0.83277 0.21124 0.0
H102 H 0.4735 0.87528 0.103 0.0
H103 H 0.57115 0.89141 0.20341 0.0
H104 H 0.56222 0.84644 0.31188 0.0
H105 H 0.47265 0.73935 0.24824 0.0
H106 H 0.56168 0.79538 0.20011 0.0
O107 O 0.46518 0.79378 0.33841 0.0
H108 H 0.48297 0.70764 0.11449 0.0
H109 H 0.57132 0.76432 0.06369 0.0
C110 C 0.5211 0.77066 0.4168 0.0
C111 C 0.49873 0.76225 0.4849 0.0
C112 C 0.50083 0.73216 0.53031 0.0
C113 C 0.52599 0.70972 0.51129 0.0
C114 C 0.55062 0.71979 0.45073 0.0
C115 C 0.54827 0.74983 0.40445 0.0
C116 C 0.51202 0.83638 0.27307 0.0
C117 C 0.48739 0.84584 0.21337 0.0
C118 C 0.49292 0.87002 0.14942 0.0
C119 C 0.52304 0.88685 0.14365 0.0
C120 C 0.54747 0.87908 0.20633 0.0
C121 C 0.54223 0.85367 0.26952 0.0
C122 C 0.51556 0.77055 0.23162 0.0
C123 C 0.49434 0.74485 0.20895 0.0
C124 C 0.50043 0.72664 0.13325 0.0
C125 C 0.52782 0.73396 0.07957 0.0
C126 C 0.55003 0.75861 0.10438 0.0
C127 C 0.5442 0.7765 0.18135 0.0
P128 P 0.2946 0.45021 0.08149 0.0
H129 H 0.26228 0.42508 0.92254 0.0
H130 H 0.21155 0.43978 0.85285 0.0
H131 H 0.21503 0.53408 0.98379 0.0
H132 H 0.26426 0.51697 0.06294 0.0
H133 H 0.35222 0.41555 0.13943 0.0
H134 H 0.39348 0.42806 0.24649 0.0
H135 H 0.36712 0.53045 0.238 0.0
H136 H 0.3223 0.51648 0.13574 0.0
H137 H 0.22401 0.43544 0.1012 0.0
H138 H 0.30516 0.45617 0.27643 0.0
O139 O 0.30097 0.41196 0.04619 0.0
H140 H 0.18669 0.46129 0.20601 0.0
H141 H 0.268 0.4817 0.37989 0.0
C142 C 0.2681 0.46981 0.99848 0.0
C143 C 0.25287 0.44937 0.93531 0.0
C144 C 0.22311 0.45794 0.89491 0.0
C145 C 0.20746 0.48797 0.91329 0.0
C146 C 0.22455 0.50993 0.97026 0.0
C147 C 0.2539 0.50072 1.01351 0.0
C148 C 0.33423 0.46504 0.1255 0.0
C149 C 0.35588 0.44108 0.15689 0.0
C150 C 0.38017 0.44847 0.21937 0.0
C151 C 0.38515 0.48065 0.25137 0.0
C152 C 0.36455 0.50527 0.21616 0.0
C153 C 0.3392 0.49751 0.1552 0.0
C154 C 0.26782 0.44722 0.17639 0.0
C155 C 0.23381 0.44445 0.16304 0.0
C156 C 0.21238 0.45896 0.22315 0.0
C157 C 0.22513 0.47496 0.2977 0.0
C158 C 0.25798 0.47042 0.32086 0.0
C159 C 0.27936 0.45625 0.26035 0.0
P160 P 0.06036 0.29769 0.09127 0.0
H161 H 0.087 0.27488 0.92093 0.0
H162 H 0.07496 0.22665 0.83139 0.0
H163 H 0.98525 0.21055 0.97864 0.0
H164 H 0.99717 0.25938 0.06802 0.0
H165 H 0.0973 0.35851 0.12855 0.0
H166 H 0.08737 0.40319 0.22993 0.0
H167 H 0.98686 0.37019 0.26214 0.0
H168 H 0.99569 0.32871 0.14775 0.0
H169 H 0.10776 0.25462 0.1814 0.0
H170 H 1.00604 0.28196 0.2109 0.0
O171 O 0.10028 0.30175 0.06673 0.0
H172 H 0.10166 0.2181 0.31062 0.0
H173 H 1.00101 0.24856 0.34041 0.0
C174 C 0.04325 0.27144 1.00291 0.0
C175 C 0.0641 0.26187 0.93294 0.0
C176 C 0.05739 0.23372 0.8818 0.0
C177 C 0.02932 0.21405 0.89778 0.0
C178 C 1.00706 0.22494 0.96337 0.0
C179 C 0.0139 0.2532 0.01499 0.0
C180 C 0.04777 0.33843 0.13236 0.0
C181 C 0.07267 0.3612 0.15467 0.0
C182 C 0.06722 0.38649 0.21615 0.0
C183 C 0.03699 0.38922 0.26157 0.0
C184 C 0.01097 0.36867 0.23203 0.0
C185 C 0.01612 0.34429 0.16673 0.0
C186 C 0.05772 0.27234 0.18817 0.0
C187 C 0.0846 0.25382 0.21686 0.0
C188 C 0.0813 0.23327 0.29074 0.0
C189 C 0.05137 0.23194 0.33706 0.0
C190 C 0.0248 0.25048 0.30802 0.0
C191 C 0.02778 0.26989 0.23363 0.0
P192 P 0.22663 0.08222 0.05815 0.0
H193 H 0.25744 0.10245 0.89094 0.0
H194 H 0.31002 0.08937 0.82559 0.0
H195 H 0.3172 1.00485 0.99553 0.0
H196 H 0.26454 0.01928 0.06465 0.0
H197 H 0.18045 0.11968 0.15782 0.0
H198 H 0.13668 0.10582 0.25945 0.0
H199 H 0.13921 1.00517 0.16937 0.0
H200 H 0.18578 0.01922 0.07107 0.0
H201 H 0.28288 0.12318 0.10795 0.0
H202 H 0.22631 0.04264 0.21814 0.0
O203 O 0.22237 0.12054 0.02136 0.0
H204 H 0.3292 0.10812 0.20101 0.0
H205 H 0.27183 0.02652 0.30374 0.0
C206 C 0.25586 0.06178 0.98269 0.0
C207 C 0.26933 0.08024 0.91241 0.0
C208 C 0.3 0.0726 0.87436 0.0
C209 C 0.31848 0.04562 0.90348 0.0
C210 C 0.30415 0.02591 0.97069 0.0
C211 C 0.27339 0.03379 1.0094 0.0
C212 C 0.18644 0.07076 0.10482 0.0
C213 C 0.17119 0.09466 0.15764 0.0
C214 C 0.14586 0.08659 0.21681 0.0
C215 C 0.13423 0.05413 0.22546 0.0
C216 C 0.148 0.0303 0.16792 0.0
C217 C 0.17418 0.0384 0.10928 0.0
C218 C 0.25124 0.08394 0.15532 0.0
C219 C 0.2797 0.10353 0.15548 0.0
C220 C 0.3062 0.09471 0.20801 0.0
C221 C 0.30443 0.06581 0.25861 0.0
C222 C 0.27417 0.04931 0.26755 0.0
C223 C 0.24772 0.05852 0.21692 0.0
P224 P 0.46514 0.23411 0.08254 0.0
H225 H 0.45286 0.25465 0.90032 0.0
H226 H 0.46572 0.30573 0.82647 0.0
H227 H 0.54163 0.32571 0.01828 0.0
H228 H 0.52575 0.2758 0.09786 0.0
H229 H 0.44741 0.16436 0.09946 0.0
H230 H 0.45844 0.12379 0.21263 0.0
H231 H 0.5324 0.18773 0.32436 0.0
H232 H 0.52108 0.22886 0.20975 0.0
H233 H 0.43803 0.3003 0.0624 0.0
H234 H 0.45472 0.23342 0.27798 0.0
O235 O 0.43283 0.21885 0.0282 0.0
H236 H 0.44864 0.34663 0.16023 0.0
H237 H 0.46501 0.2795 0.37556 0.0
C238 C 0.48822 0.26067 1.00547 0.0
C239 C 0.473 0.26936 0.92569 0.0
C240 C 0.48036 0.29922 0.88311 0.0
C241 C 0.50397 0.32141 0.91713 0.0
C242 C 0.52193 0.31079 0.99165 0.0
C243 C 0.51379 0.28121 0.03593 0.0
C244 C 0.48344 0.20004 0.14443 0.0
C245 C 0.46692 0.1695 0.14586 0.0
C246 C 0.47323 0.14603 0.21147 0.0
C247 C 0.49629 0.15224 0.2785 0.0
C248 C 0.51434 0.18204 0.2742 0.0
C249 C 0.50828 0.20546 0.20747 0.0
C250 C 0.44936 0.2635 0.16086 0.0
C251 C 0.44273 0.29544 0.1314 0.0
C252 C 0.44844 0.32204 0.18741 0.0
C253 C 0.45909 0.31643 0.27387 0.0
C254 C 0.45758 0.28444 0.30827 0.0
C255 C 0.45238 0.25793 0.25174 0.0
C256 C 0.10598 0.05627 0.79421 0.0
C257 C 0.09681 0.07029 0.94855 0.0
C258 C 0.0873 0.05342 0.87116 0.0
C259 C 0.12513 0.09023 0.94738 0.0
C260 C 0.13502 0.07557 0.79393 0.0
C261 C 0.14434 0.09264 0.87062 0.0
N262 N 0.09614 0.03979 0.7204 0.0
C263 C 0.11563 0.03983 0.64661 0.0
C264 C 0.1541 0.07688 0.71683 0.0
C265 C 0.14451 0.05865 0.64319 0.0
Gd266 Gd 0.96889 0.0318 0.60699 0.0
Gd267 Gd 0.04826 1.00711 0.73678 0.0
N268 N 0.05953 0.03455 0.86991 0.0
C269 C 0.07762 0.06653 0.02499 0.0
C270 C 0.04165 0.02959 0.94537 0.0
C271 C 0.0501 0.04582 0.02357 0.0
H272 H 0.0212 0.0127 0.94631 0.0
H273 H 0.03559 0.04206 0.08295 0.0
H274 H 1.00392 0.02152 0.40207 0.0
H275 H 0.10999 0.02433 0.59149 0.0
H276 H 0.99732 0.98504 0.2751 0.0
H277 H 0.08414 0.07905 0.08572 0.0
H278 H 0.13244 0.10381 1.00564 0.0
H279 H 0.90788 0.01212 0.7469 0.0
H280 H 0.17663 0.09127 0.71415 0.0
H281 H 0.15969 0.05856 0.5842 0.0
H282 H 0.90102 0.92168 0.34384 0.0
H283 H 0.16645 0.1077 0.87137 0.0
H284 H 0.84666 0.94061 0.62018 0.0
H285 H 0.85886 0.97613 0.74872 0.0
N286 N 0.92444 0.99562 0.62114 0.0
C287 C 0.91795 0.97685 0.54874 0.0
C288 C 0.90352 0.99586 0.69188 0.0
C289 C 0.86852 0.95603 0.61952 0.0
C290 C 0.87542 0.97588 0.69248 0.0
C291 C 0.88985 0.95629 0.54654 0.0
H292 H 0.8626 0.92048 0.46961 0.0
N293 N 0.96612 0.9988 0.4791 0.0
C294 C 0.9397 0.97786 0.47695 0.0
C295 C 0.95541 0.95972 0.33057 0.0
C296 C 0.93372 0.95783 0.40241 0.0
C297 C 0.98578 1.00236 0.40618 0.0
C298 C 0.98131 0.98234 0.33209 0.0
O299 O 0.03341 0.05991 0.76409 0.0
O300 O 0.99477 0.07718 0.66289 0.0
O301 O 0.94494 0.05585 0.49778 0.0
O302 O 0.92618 0.06218 0.63049 0.0
O303 O 0.99897 0.99492 0.80332 0.0
O304 O 0.96473 0.03574 0.75603 0.0
O305 O 0.97591 0.97771 0.64464 0.0
O306 O 0.03083 0.97388 0.62526 0.0
O307 O 0.05037 0.96338 0.81685 0.0
O308 O 0.09471 0.98189 0.74832 0.0
O309 O 0.01737 0.04768 0.5405 0.0
O310 O 0.05313 1.00836 0.58803 0.0
C311 C 0.01567 0.08303 0.72757 0.0
C312 C 0.97341 0.01414 0.81593 0.0
C313 C 0.92798 0.10807 0.5396 0.0
C314 C 0.96252 0.1565 0.51945 0.0
C315 C 0.90372 0.16197 0.54505 0.0
C316 C 0.90035 0.12787 0.55024 0.0
C317 C 0.9346 0.1763 0.52935 0.0
C318 C 0.95891 0.12248 0.52475 0.0
C319 C 0.92555 0.07251 0.54932 0.0
C320 C 0.90597 0.93707 0.40078 0.0
C321 C 0.88402 0.93646 0.47229 0.0
H322 H 0.95176 0.94455 0.27256 0.0
C323 C 1.00161 0.95998 0.62345 0.0
C324 C 0.04493 0.03112 0.53116 0.0
C325 C 0.10044 0.93265 0.8348 0.0
C326 C 0.10108 0.88225 0.918 0.0
C327 C 0.1515 0.90325 0.85236 0.0
C328 C 0.13437 0.93002 0.81902 0.0
C329 C 0.13491 0.8793 0.90179 0.0
C330 C 0.08399 0.90862 0.88351 0.0
C331 C 0.08157 0.95968 0.79919 0.0
H332 H 0.88234 0.17733 0.55254 0.0
H333 H 0.87637 0.11699 0.56285 0.0
H334 H 0.93644 0.2027 0.52254 0.0
H335 H 0.98035 0.10717 0.51678 0.0
H336 H 0.17761 0.90109 0.84006 0.0
H337 H 0.14754 0.94842 0.78078 0.0
H338 H 0.14842 0.85877 0.92806 0.0
H339 H 0.05764 0.91014 0.89415 0.0
C340 C 0.52565 0.91301 0.65639 0.0
C341 C 0.47867 0.88359 0.71844 0.0
C342 C 0.49376 0.91307 0.68996 0.0
C343 C 0.49593 0.85409 0.71236 0.0
C344 C 0.54289 0.8832 0.64939 0.0
C345 C 0.52798 0.85386 0.67827 0.0
N346 N 0.53926 0.94172 0.62733 0.0
C347 C 0.56904 0.94167 0.58491 0.0
C348 C 0.57424 0.88355 0.61099 0.0
C349 C 0.58719 0.91287 0.57773 0.0
Gd350 Gd 0.52763 0.05997 0.79479 0.0
Gd351 Gd 0.50476 0.98776 0.63676 0.0
N352 N 0.47757 0.94197 0.69568 0.0
C353 C 0.44655 0.88459 0.75192 0.0
C354 C 0.44575 0.94292 0.72456 0.0
C355 C 0.42997 0.91439 0.75458 0.0
H356 H 0.43231 0.96554 0.72379 0.0
H357 H 0.4049 0.91532 0.77865 0.0
H358 H 0.60365 0.07836 0.70404 0.0
H359 H 0.57851 0.96325 0.5526 0.0
H360 H 0.62921 0.12349 0.62271 0.0
H361 H 0.43421 0.86246 0.77478 0.0
H362 H 0.48443 0.8313 0.73281 0.0
H363 H 0.45379 0.08728 0.85756 0.0
H364 H 0.58817 0.86117 0.60412 0.0
H365 H 0.61082 0.91316 0.54447 0.0
H366 H 0.54907 0.20841 0.62998 0.0
H367 H 0.54081 0.83076 0.6731 0.0
H368 H 0.44628 0.187 0.77469 0.0
H369 H 0.42218 0.13823 0.84866 0.0
N370 N 0.49416 0.10577 0.78215 0.0
C371 C 0.50878 0.13276 0.74565 0.0
C372 C 0.46395 0.10773 0.82126 0.0
C373 C 0.46007 0.16442 0.77699 0.0
C374 C 0.44626 0.13688 0.81814 0.0
C375 C 0.49171 0.16269 0.74055 0.0
H376 H 0.49369 0.2129 0.69388 0.0
N377 N 0.55691 0.10124 0.71728 0.0
C378 C 0.54053 0.13022 0.71034 0.0
C379 C 0.5871 0.1547 0.63406 0.0
C380 C 0.55528 0.15763 0.66826 0.0
C381 C 0.58888 0.09927 0.68962 0.0
C382 C 0.60406 0.12552 0.64565 0.0
O383 O 0.50635 0.97374 0.78248 0.0
O384 O 0.54351 1.00959 0.846 0.0
O385 O 0.55647 0.09302 0.875 0.0
O386 O 0.51467 0.06776 0.93273 0.0
O387 O 0.4618 0.01808 0.68996 0.0
O388 O 0.47944 0.03371 0.82737 0.0
O389 O 0.50023 0.07187 0.6661 0.0
O390 O 0.52395 0.03478 0.57573 0.0
O391 O 0.4639 0.99344 0.55013 0.0
O392 O 0.50441 0.96105 0.51102 0.0
O393 O 0.57341 0.03172 0.74718 0.0
O394 O 0.5552 0.01047 0.61504 0.0
C395 C 0.52678 0.98153 0.84661 0.0
C396 C 0.45544 0.02689 0.77228 0.0
C397 C 0.56028 0.07786 0.02123 0.0
C398 C 0.60661 0.04759 0.07577 0.0
C399 C 0.57604 0.08346 0.17422 0.0
C400 C 0.5552 0.09166 0.10482 0.0
C401 C 0.60185 0.06169 0.1597 0.0
C402 C 0.58585 0.05591 1.00703 0.0
C403 C 0.53999 0.08676 0.94691 0.0
C404 C 0.53806 0.18723 0.66222 0.0
C405 C 0.50652 0.18981 0.69871 0.0
H406 H 0.59914 0.17512 0.60086 0.0
C407 C 0.50931 0.06299 0.58601 0.0
C408 C 0.57937 0.01912 0.66792 0.0
C409 C 0.45917 0.96716 0.40834 0.0
C410 C 0.41431 0.9811 0.31202 0.0
C411 C 0.45381 0.94039 0.26595 0.0
C412 C 0.47055 0.94438 0.34589 0.0
C413 C 0.42569 0.95872 0.24872 0.0
C414 C 0.43148 0.98557 0.39022 0.0
C415 C 0.47639 0.97389 0.49068 0.0
H416 H 0.57256 0.09438 0.23879 0.0
H417 H 0.53555 0.10895 0.11587 0.0
H418 H 0.61867 0.05669 0.21288 0.0
H419 H 0.58968 0.04531 0.94199 0.0
H420 H 0.46265 0.9233 0.21711 0.0
H421 H 0.49237 0.93013 0.35817 0.0
H422 H 0.41288 0.95542 0.18677 0.0
H423 H 0.42339 1.00419 0.43664 0.0
C424 C 0.41872 0.47188 0.81416 0.0
C425 C 0.42828 0.45287 0.96333 0.0
C426 C 0.43695 0.47282 0.89072 0.0
C427 C 0.40196 0.43051 0.95575 0.0
C428 C 0.39076 0.45117 0.80856 0.0
C429 C 0.38312 0.42975 0.87858 0.0
N430 N 0.4262 0.49375 0.74928 0.0
C431 C 0.40421 0.49898 0.68313 0.0
C432 C 0.37024 0.45405 0.73524 0.0
C433 C 0.37658 0.47865 0.67329 0.0
Gd434 Gd 0.55128 0.50145 0.62809 0.0
Gd435 Gd 0.4738 0.52666 0.77028 0.0
N436 N 0.46201 0.49492 0.8961 0.0
C437 C 0.44541 0.45703 0.0425 0.0
C438 C 0.47757 0.50045 0.97453 0.0
C439 C 0.46962 0.48149 0.0488 0.0
H440 H 0.49646 0.51918 0.9792 0.0
H441 H 0.48241 0.48549 0.11047 0.0
H442 H 0.51361 0.51751 0.43037 0.0
H443 H 0.40696 0.51981 0.64038 0.0
H444 H 0.5206 0.55516 0.30652 0.0
H445 H 0.43948 0.4421 0.09956 0.0
H446 H 0.39526 0.41455 1.01025 0.0
H447 H 0.61729 0.51349 0.75585 0.0
H448 H 0.34843 0.43878 0.72866 0.0
H449 H 0.35968 0.48267 0.61951 0.0
H450 H 0.62048 0.61313 0.36962 0.0
H451 H 0.36194 0.41347 0.87514 0.0
H452 H 0.67812 0.58666 0.63409 0.0
H453 H 0.6673 0.54783 0.75648 0.0
N454 N 0.5982 0.53469 0.63883 0.0
C455 C 0.60423 0.55484 0.5688 0.0
C456 C 0.62079 0.5314 0.70438 0.0
C457 C 0.65568 0.5721 0.63445 0.0
C458 C 0.64958 0.55038 0.70395 0.0
C459 C 0.6331 0.57434 0.56536 0.0
H460 H 0.66062 0.61055 0.48982 0.0
N461 N 0.55433 0.53605 0.50312 0.0
C462 C 0.58153 0.55596 0.50004 0.0
C463 C 0.56461 0.57734 0.35854 0.0
C464 C 0.58728 0.5771 0.42752 0.0
C465 C 0.53324 0.53503 0.43331 0.0
C466 C 0.53766 0.556 0.36112 0.0
O467 O 0.49831 0.479 0.80814 0.0
O468 O 0.5167 0.46015 0.67501 0.0
O469 O 0.57736 0.47996 0.51826 0.0
O470 O 0.58786 0.46377 0.65109 0.0
O471 O 0.52435 0.54003 0.82915 0.0
O472 O 0.55945 0.5004 0.7759 0.0
O473 O 0.54468 0.55576 0.66455 0.0
O474 O 0.48935 0.55918 0.65568 0.0
O475 O 0.47374 0.56645 0.86373 0.0
O476 O 0.4295 0.55543 0.79079 0.0
O477 O 0.50281 0.48675 0.56328 0.0
O478 O 0.46513 0.5231 0.6207 0.0
C479 C 0.50825 0.45477 0.7581 0.0
C480 C 0.55095 0.52175 0.83728 0.0
C481 C 0.59198 0.42515 0.53553 0.0
C482 C 0.56368 0.38133 0.45691 0.0
C483 C 0.62065 0.37497 0.49982 0.0
C484 C 0.62053 0.40626 0.53768 0.0
C485 C 0.59247 0.36267 0.45854 0.0
C486 C 0.56333 0.41229 0.49692 0.0
C487 C 0.59298 0.4591 0.56702 0.0
C488 C 0.61574 0.59687 0.42494 0.0
C489 C 0.63864 0.59536 0.49332 0.0
H490 H 0.56813 0.59329 0.30198 0.0
C491 C 0.51835 0.57322 0.64856 0.0
C492 C 0.47422 0.50179 0.55947 0.0
C493 C 0.44296 0.61116 0.81463 0.0
C494 C 0.47067 0.66418 0.81619 0.0
C495 C 0.41107 0.66063 0.80181 0.0
C496 C 0.41247 0.62649 0.80784 0.0
C497 C 0.43983 0.6795 0.80955 0.0
C498 C 0.47185 0.63003 0.80838 0.0
C499 C 0.44486 0.57652 0.84026 0.0
H500 H 0.6428 0.3605 0.50097 0.0
H501 H 0.64284 0.41595 0.56707 0.0
H502 H 0.59312 0.33867 0.42773 0.0
H503 H 0.54124 0.42688 0.49477 0.0
H504 H 0.38747 0.67256 0.79856 0.0
H505 H 0.38986 0.61225 0.81071 0.0
H506 H 0.43731 0.70573 0.81746 0.0
H507 H 0.49553 0.61811 0.80994 0.0
C508 C 0.06052 0.42667 0.82761 0.0
C509 C 0.07921 0.44232 0.97401 0.0
C510 C 0.05848 0.44738 0.90094 0.0
C511 C 0.10211 0.41678 0.97194 0.0
C512 C 0.0832 0.40073 0.82601 0.0
C513 C 0.10403 0.39601 0.89835 0.0
N514 N 0.04048 0.43205 0.75753 0.0
C515 C 0.0404 0.41132 0.68668 0.0
C516 C 0.08407 0.38009 0.75196 0.0
C517 C 0.0624 0.38527 0.68233 0.0
Gd518 Gd 0.02818 0.55428 0.64446 0.0
Gd519 Gd 1.00301 0.47475 0.77433 0.0
N520 N 0.03607 0.47208 0.9013 0.0
C521 C 0.07595 0.46272 0.04786 0.0
C522 C 0.03162 0.49075 0.97531 0.0
C523 C 0.05179 0.48674 0.04889 0.0
H524 H 0.01193 0.50802 0.97984 0.0
H525 H 0.04838 0.50193 0.10689 0.0
H526 H 0.01343 0.52201 0.44207 0.0
H527 H 0.02282 0.41427 0.63438 0.0
H528 H 0.9813 0.53486 0.31069 0.0
H529 H 0.09142 0.4596 0.10522 0.0
H530 H 0.1182 0.41261 0.0275 0.0
H531 H 0.02039 0.61931 0.78032 0.0
H532 H 0.10103 0.3598 0.74848 0.0
H533 H 0.06237 0.36901 0.6257 0.0
H534 H 0.93414 0.63935 0.37612 0.0
H535 H 0.12158 0.37619 0.89828 0.0
H536 H 0.96035 0.69006 0.65268 0.0
H537 H 0.99291 0.67276 0.78164 0.0
N538 N 1.00193 0.6052 0.65478 0.0
C539 C 0.98452 0.61443 0.5826 0.0
C540 C 1.00523 0.62584 0.72532 0.0
C541 C 0.97189 0.66622 0.65247 0.0
C542 C 0.99012 0.65649 0.72553 0.0
C543 C 0.96899 0.64521 0.57968 0.0
H544 H 0.93888 0.67755 0.50133 0.0
N545 N 0.99769 0.56364 0.51538 0.0
C546 C 0.98227 0.59308 0.51105 0.0
C547 C 0.96322 0.5803 0.36377 0.0
C548 C 0.96421 0.60193 0.43558 0.0
C549 C 0.99845 0.54348 0.44325 0.0
C550 C 0.9808 0.55116 0.36723 0.0
O551 O 0.05699 0.4842 0.73613 0.0
O552 O 0.06113 0.53897 0.75811 0.0
O553 O 0.06932 0.55155 0.55741 0.0
O554 O 0.05872 0.59856 0.62311 0.0
O555 O 0.98728 0.52334 0.84095 0.0
O556 O 0.02684 0.56 0.79292 0.0
O557 O 0.97268 0.54611 0.64103 0.0
O558 O 0.95943 0.49515 0.7 0.0
O559 O 0.97497 0.45417 0.8834 0.0
O560 O 0.97611 0.42886 0.75792 0.0
O561 O 0.03866 0.50441 0.57997 0.0
O562 O 0.99684 0.47041 0.6264 0.0
C563 C 0.07425 0.50974 0.76275 0.0
C564 C 1.00376 0.55141 0.84984 0.0
C565 C 0.10686 0.59569 0.52605 0.0
C566 C 0.15813 0.58455 0.45058 0.0
C567 C 0.14194 0.64078 0.47792 0.0
C568 C 0.11314 0.62953 0.51971 0.0
C569 C 0.16446 0.61835 0.44298 0.0
C570 C 0.12939 0.5736 0.49149 0.0
C571 C 0.07761 0.58224 0.5696 0.0
C572 C 0.94825 0.63227 0.43335 0.0
C573 C 0.95096 0.65402 0.50467 0.0
H574 H 0.94979 0.58632 0.30444 0.0
C575 C 0.9514 0.5224 0.65899 0.0
C576 C 0.01901 0.47889 0.56738 0.0
C577 C 0.9255 0.43293 0.82842 0.0
C578 C 0.8756 0.46508 0.83887 0.0
C579 C 0.87268 0.40644 0.80735 0.0
C580 C 0.90689 0.40457 0.8117 0.0
C581 C 0.85702 0.43633 0.8226 0.0
C582 C 0.90985 0.46322 0.83714 0.0
C583 C 0.96133 0.43179 0.83362 0.0
H584 H 0.14679 0.66687 0.47253 0.0
H585 H 0.09591 0.64706 0.54651 0.0
H586 H 0.18662 0.62726 0.41064 0.0
H587 H 0.1245 0.5474 0.49558 0.0
H588 H 0.8582 0.38445 0.79565 0.0
H589 H 0.91875 0.38113 0.80251 0.0
H590 H 0.83046 0.43635 0.8266 0.0
H591 H 0.92437 0.48531 0.84783 0.0
C592 C 0.08491 0.06874 0.32262 0.0
C593 C 0.10941 0.04593 0.29793 0.0
C594 C 0.06399 0.0637 0.39641 0.0
C595 C 0.06605 0.03534 0.44913 0.0
H596 H 0.08201 0.09113 0.28517 0.0
H597 H 0.0464 0.08253 0.41307 0.0
S598 S 0.12372 0.96631 0.41072 0.0
N599 N 0.13348 0.99317 0.33317 0.0
N600 N 0.09284 0.98254 0.46598 0.0
C601 C 0.08919 0.01148 0.42265 0.0
C602 C 0.11105 0.01699 0.34886 0.0
C603 C 0.4978 0.14059 0.44311 0.0
C604 C 0.49965 0.12889 0.35559 0.0
C605 C 0.49919 0.11918 0.5163 0.0
C606 C 0.50465 0.08522 0.50685 0.0
H607 H 0.49413 0.1665 0.45533 0.0
H608 H 0.49558 0.12958 0.58043 0.0
S609 S 0.50539 0.04113 0.29247 0.0
N610 N 0.50213 0.08001 0.26407 0.0
N611 N 0.50769 0.04058 0.4011 0.0
C612 C 0.50551 0.07309 0.41956 0.0
C613 C 0.50246 0.09464 0.34465 0.0
C614 C 0.40378 0.51176 0.39029 0.0
C615 C 0.40978 0.48751 0.32542 0.0
C616 C 0.42501 0.51682 0.463 0.0
C617 C 0.45264 0.49685 0.47831 0.0
H618 H 0.38219 0.52694 0.38602 0.0
H619 H 0.4196 0.53694 0.50711 0.0
S620 S 0.48359 0.43414 0.32056 0.0
N621 N 0.44964 0.44741 0.27453 0.0
N622 N 0.48683 0.45424 0.41476 0.0
C623 C 0.45972 0.47338 0.41223 0.0
C624 C 0.439 0.46929 0.33584 0.0
C625 C 1.0025 0.42769 0.35836 0.0
C626 C 0.03299 0.41261 0.33984 0.0
C627 C 0.99811 0.44887 0.43167 0.0
C628 C 0.0242 0.45696 0.48872 0.0
H629 H 0.98168 0.42335 0.31564 0.0
H630 H 0.97414 0.45946 0.443 0.0
S631 S 0.10805 0.42263 0.4784 0.0
N632 N 0.08893 0.40547 0.39393 0.0
N633 N 0.08111 0.44734 0.52489 0.0
C634 C 0.05471 0.44239 0.47172 0.0
C635 C 0.05899 0.41982 0.39933 0.0
C636 C 0.91168 0.03539 0.99993 0.0
C637 C 0.91381 1.00924 0.06084 0.0
C638 C 0.93077 0.03652 0.92189 0.0
C639 C 0.95319 0.01158 0.89988 0.0
H640 H 0.89478 0.05526 1.01217 0.0
H641 H 0.92793 0.05744 0.87858 0.0
S642 S 0.96839 0.93728 0.03544 0.0
N643 N 0.94048 0.95756 0.09261 0.0
N644 N 0.97591 0.95939 0.94607 0.0
C645 C 0.95544 0.98506 0.95961 0.0
C646 C 0.93588 0.98391 0.03946 0.0
C647 C 0.52288 0.90121 0.981 0.0
C648 C 0.52831 0.91102 0.06909 0.0
C649 C 0.52381 0.92385 0.91049 0.0
C650 C 0.5295 0.95774 0.9235 0.0
H651 H 0.51747 0.87568 0.96637 0.0
H652 H 0.5199 0.91447 0.84511 0.0
S653 S 0.54396 0.99629 0.14196 0.0
N654 N 0.53973 0.95699 0.16564 0.0
N655 N 0.53993 0.99961 0.03393 0.0
C656 C 0.53526 0.96776 1.01141 0.0
C657 C 0.53496 0.94452 0.08354 0.0
C658 C 0.6177 0.50128 1.00619 0.0
C659 C 0.61527 0.52583 0.07176 0.0
C660 C 0.59678 0.50027 0.93249 0.0
C661 C 0.57228 0.524 0.91874 0.0
H662 H 0.63624 0.48251 1.01132 0.0
H663 H 0.60001 0.48039 0.88578 0.0
S664 S 0.55443 0.59316 0.07142 0.0
N665 N 0.58533 0.57413 0.11878 0.0
N666 N 0.54654 0.57274 0.97945 0.0
C667 C 0.56938 0.54875 0.98374 0.0
C668 C 0.59075 0.54966 0.0597 0.0
C669 C 0.96618 0.59277 0.05795 0.0
C670 C 0.99121 0.6147 0.08574 0.0
C671 C 0.97033 0.57206 0.98298 0.0
C672 C 0.99949 0.57272 0.93153 0.0
H673 H 0.94342 0.59124 0.09522 0.0
H674 H 0.95039 0.55564 0.96478 0.0
S675 S 0.07234 0.62635 0.97614 0.0
N676 N 0.04596 0.63588 0.05504 0.0
N677 N 0.05392 0.59777 0.91649 0.0
C678 C 0.02455 0.59478 0.95919 0.0
C679 C 0.02037 0.61548 0.03528 0.0
C680 C 0.03595 0.17586 0.37636 0.0
C681 C 0.04425 0.20753 0.40567 0.0
C682 C 0.01123 0.15779 0.41914 0.0
C683 C 0.99462 0.17081 0.49305 0.0
H684 H 0.04503 0.16707 0.31321 0.0
H685 H 1.0028 0.13523 0.38837 0.0
S686 S 0.01577 0.24766 0.6114 0.0
N687 N 0.04009 0.24771 0.52355 0.0
N688 N 0.99426 0.2131 0.60648 0.0
C689 C 1.00676 0.19985 0.53119 0.0
C690 C 0.03178 0.21829 0.4872 0.0
C691 C 0.35911 0.04474 0.21496 0.0
C692 C 0.33455 0.0479 0.28054 0.0
C693 C 0.38433 0.0221 0.22384 0.0
C694 C 0.38548 1.00158 0.29779 0.0
H695 H 0.35816 0.05882 0.15437 0.0
H696 H 0.40312 0.02078 0.17294 0.0
S697 S 0.32721 0.99945 0.48714 0.0
N698 N 0.31394 0.02935 0.42359 0.0
N699 N 0.36001 0.98485 0.43666 0.0
C700 C 0.36123 1.00437 0.36383 0.0
C701 C 0.33621 0.02812 0.35631 0.0
C702 C 0.51021 0.34969 0.27209 0.0
C703 C 0.48113 0.34032 0.31682 0.0
C704 C 0.53658 0.36381 0.3177 0.0
C705 C 0.53457 0.36918 0.40911 0.0
H706 H 0.51351 0.34395 0.20267 0.0
H707 H 0.55904 0.36961 0.28188 0.0
S708 S 0.46289 0.35173 0.55412 0.0
N709 N 0.45089 0.33973 0.45516 0.0
N710 N 0.50081 0.36593 0.54125 0.0
C711 C 0.50503 0.36171 0.45324 0.0
C712 C 0.47817 0.34738 0.40691 0.0
C713 C 0.20283 0.50475 0.42774 0.0
C714 C 0.20773 0.50284 0.33625 0.0
C715 C 0.18885 0.53264 0.46542 0.0
C716 C 0.17965 0.55946 0.41266 0.0
H717 H 0.20957 0.48449 0.47003 0.0
H718 H 0.18416 0.53286 0.536 0.0
S719 S 0.1905 0.56747 0.17081 0.0
N720 N 0.20497 0.53082 0.19441 0.0
N721 N 0.17779 0.58303 0.26564 0.0
C722 C 0.18556 0.55828 0.32161 0.0
C723 C 0.19972 0.52991 0.28318 0.0
C724 C 0.06902 0.80082 0.99861 0.0
C725 C 0.05051 0.80996 0.07277 0.0
C726 C 0.08503 0.82458 0.94764 0.0
C727 C 0.08306 0.85787 0.97046 0.0
H728 H 0.07195 0.77515 0.98189 0.0
H729 H 0.09943 0.81689 0.89099 0.0
S730 S 0.03623 0.8939 0.15748 0.0
N731 N 0.02957 0.85395 0.16519 0.0
N732 N 0.06016 0.899 0.06989 0.0
C733 C 0.06343 0.86735 0.04272 0.0
C734 C 0.04695 0.84318 0.09396 0.0
C735 C 0.68868 0.02398 0.98474 0.0
C736 C 0.69991 1.0034 0.05221 0.0
C737 C 0.65673 0.03601 0.98766 0.0
C738 C 0.63526 0.02705 0.05695 0.0
H739 H 0.70596 0.03471 0.93797 0.0
H740 H 0.65017 0.05507 0.94135 0.0
S741 S 0.64895 0.96348 0.22655 0.0
N742 N 0.68447 0.96714 0.17398 0.0
N743 N 0.62393 0.98922 0.17732 0.0
C744 C 0.64421 1.00168 0.11381 0.0
C745 C 0.67673 0.98953 0.11111 0.0
C746 C 0.53105 0.68318 0.99419 0.0
C747 C 0.5302 0.71744 0.99406 0.0
C748 C 0.5155 0.66541 0.92764 0.0
C749 C 0.4989 0.68151 0.8584 0.0
H750 H 0.53943 0.6702 0.05221 0.0
H751 H 0.51287 0.63928 0.93842 0.0
S752 S 0.50168 0.77069 0.81328 0.0
N753 N 0.51984 0.76681 0.90992 0.0
N754 N 0.49203 0.73314 0.78065 0.0
C755 C 0.5039 0.71549 0.84924 0.0
C756 C 0.51933 0.73363 0.91825 0.0
C757 C 0.85487 0.52564 0.01478 0.0
C758 C 0.82107 0.5288 1.00084 0.0
C759 C 0.8741 0.5085 0.95434 0.0
C760 C 0.85999 0.49455 0.87777 0.0
H761 H 0.86533 0.53182 0.07848 0.0
H762 H 0.8988 0.50254 0.97455 0.0
S763 S 0.77586 0.50925 0.79592 0.0
N764 N 0.77642 0.5259 0.89555 0.0
N765 N 0.81321 0.49498 0.77841 0.0
C766 C 0.82799 0.50389 0.85513 0.0
C767 C 0.80828 0.52095 0.91768 0.0
C768 C 0.05174 0.15965 0.84278 0.0
C769 C 0.02501 0.18132 0.85072 0.0
C770 C 0.04857 0.12864 0.8016 0.0
C771 C 0.01859 0.11739 0.76551 0.0
H772 H 0.07539 0.16643 0.87013 0.0
H773 H 0.07007 0.11347 0.79753 0.0
S774 S 0.941 0.16468 0.76581 0.0
N775 N 0.96748 0.18934 0.81584 0.0
N776 N 0.9615 0.13119 0.74 0.0
C777 C 0.99175 0.139 0.77152 0.0
C778 C 0.99492 0.17067 0.81391 0.0
C779 C 0.37881 0.02994 0.92422 0.0
C780 C 0.35303 0.03936 0.86745 0.0
C781 C 0.41149 0.02585 0.89327 0.0
C782 C 0.42021 0.03047 0.80357 0.0
H783 H 0.37395 0.02649 0.99404 0.0
H784 H 0.43015 0.01901 0.94035 0.0
S785 S 0.36321 0.05629 0.62706 0.0
N786 N 0.33951 0.05332 0.71565 0.0
N787 N 0.40039 0.04605 0.65911 0.0
C788 C 0.39487 0.03973 0.74608 0.0
C789 C 0.36163 0.0441 0.77746 0.0
C790 C 0.50267 0.36107 0.78579 0.0
C791 C 0.50803 0.35566 0.8771 0.0
C792 C 0.5034 0.39288 0.74828 0.0
C793 C 0.51003 0.421 0.79862 0.0
H794 H 0.49753 0.34057 0.74235 0.0
H795 H 0.49769 0.39598 0.67966 0.0
S796 S 0.52857 0.42172 0.03877 0.0
N797 N 0.52083 0.38275 0.01668 0.0
N798 N 0.5248 0.44131 0.94404 0.0
C799 C 0.51671 0.41617 0.88905 0.0
C800 C 0.51523 0.38395 0.92835 0.0
C801 C 0.16335 0.48103 0.79332 0.0
C802 C 0.17341 0.49513 0.87486 0.0
C803 C 0.13147 0.48546 0.75843 0.0
C804 C 0.1081 0.50531 0.80097 0.0
H805 H 0.18024 0.46638 0.75495 0.0
H806 H 0.12527 0.47363 0.69649 0.0
S807 S 0.11925 0.54634 0.01769 0.0
N808 N 0.15461 0.52791 0.99991 0.0
N809 N 0.09654 0.53835 0.93015 0.0
C810 C 0.11749 0.51985 0.88148 0.0
C811 C 0.14951 0.51435 0.91911 0.0
C812 C 0.02087 0.87605 0.5175 0.0
C813 C 0.99207 0.85697 0.53125 0.0
C814 C 0.02356 0.90897 0.54687 0.0
C815 C 0.99774 0.92466 0.59263 0.0
H816 H 0.04167 0.8654 0.48334 0.0
H817 H 0.04626 0.92223 0.53345 0.0
S818 S 0.91833 0.8846 0.65451 0.0
N819 N 0.93775 0.85605 0.59767 0.0
N820 N 0.94318 0.91692 0.65612 0.0
C821 C 0.96903 0.90561 0.60835 0.0
C822 C 0.9661 0.87221 0.57692 0.0
C823 C 0.67437 0.01339 0.64295 0.0
C824 C 0.67937 0.01314 0.55023 0.0
C825 C 0.64243 0.01582 0.68136 0.0
C826 C 0.61395 0.01846 0.62887 0.0
H827 H 0.6953 0.0111 0.68628 0.0
H828 H 0.64002 0.0151 0.75264 0.0
S829 S 0.61388 0.02407 0.38338 0.0
N830 N 0.65293 0.01888 0.40798 0.0
N831 N 0.59399 0.02422 0.47849 0.0
C832 C 0.619 0.01975 0.53625 0.0
C833 C 0.65123 0.01686 0.49754 0.0
C834 C 0.49572 0.65612 0.54378 0.0
C835 C 0.52481 0.67523 0.54894 0.0
C836 C 0.49397 0.62357 0.57604 0.0
C837 C 0.52113 0.60833 0.61605 0.0
H838 H 0.47412 0.66622 0.51295 0.0
H839 H 0.47102 0.61016 0.56878 0.0
S840 S 0.60185 0.64901 0.6567 0.0
N841 N 0.58079 0.67697 0.60286 0.0
N842 N 0.57722 0.61671 0.66624 0.0
C843 C 0.55005 0.62757 0.62426 0.0
C844 C 0.55197 0.66061 0.59008 0.0
C845 C 0.86595 0.49946 0.5678 0.0
C846 C 0.8508 0.52999 0.55223 0.0
C847 C 0.89787 0.49728 0.60376 0.0
C848 C 0.91656 0.52549 0.6258 0.0
H849 H 0.85335 0.47689 0.55001 0.0
H850 H 0.90829 0.47314 0.61235 0.0
S851 S 0.88681 0.61119 0.61118 0.0
N852 N 0.85625 0.589 0.57065 0.0
N853 N 0.91573 0.5849 0.63764 0.0
C854 C 0.90131 0.55609 0.61356 0.0
C855 C 0.86875 0.55833 0.57705 0.0
loop_
_geom_bond_atom_site_label_1
_geom_bond_atom_site_label_2
_geom_bond_distance
_geom_bond_site_symmetry_2
_ccdc_geom_bond_type
P0 O11 1.490 . S
P0 C14 1.812 . S
P0 C20 1.803 . S
P0 C26 1.819 . S
H1 C15 0.941 . S
H2 C16 0.939 . S
H3 C18 0.940 . S
H4 C19 0.940 . S
H5 C21 0.939 . S
H6 C22 0.942 . S
H7 C24 0.940 . S
H8 C25 0.939 . S
H9 C27 0.941 . S
H10 C31 0.939 . S
O11 P0 1.490 . S
H12 C28 0.939 . S
H13 C30 0.940 . S
C14 P0 1.812 . S
C14 C15 1.389 . S
C14 C19 1.391 . S
C15 H1 0.941 . S
C15 C14 1.389 . S
C15 C16 1.397 . S
C16 H2 0.939 . S
C16 C15 1.397 . S
C16 C17 1.378 . S
C17 C16 1.378 . S
C17 C18 1.378 . S
C18 H3 0.940 . S
C18 C17 1.378 . S
C18 C19 1.396 . S
C19 H4 0.940 . S
C19 C14 1.391 . S
C19 C18 1.396 . S
C20 P0 1.803 . S
C20 C21 1.378 . S
C20 C25 1.400 . S
C21 H5 0.939 . S
C21 C20 1.378 . S
C21 C22 1.361 . S
C22 H6 0.942 . S
C22 C21 1.361 . S
C22 C23 1.369 . S
C23 C22 1.369 . S
C23 C24 1.404 . S
C24 H7 0.940 . S
C24 C23 1.404 . S
C24 C25 1.389 . S
C25 H8 0.939 . S
C25 C20 1.400 . S
C25 C24 1.389 . S
C26 P0 1.819 . S
C26 C27 1.391 . S
C26 C31 1.391 . S
C27 H9 0.941 . S
C27 C26 1.391 . S
C27 C28 1.396 . S
C28 H12 0.939 . S
C28 C27 1.396 . S
C28 C29 1.397 . S
C29 C28 1.397 . S
C29 C30 1.385 . S
C30 H13 0.940 . S
C30 C29 1.385 . S
C30 C31 1.388 . S
C31 H10 0.939 . S
C31 C26 1.391 . S
C31 C30 1.388 . S
P32 O43 1.490 . S
P32 C46 1.812 . S
P32 C52 1.803 . S
P32 C58 1.819 . S
H33 C47 0.941 . S
H34 C48 0.939 . S
H35 C50 0.940 . S
H36 C51 0.940 . S
H37 C53 0.939 . S
H38 C54 0.942 . S
H39 C56 0.940 . S
H40 C57 0.939 . S
H41 C59 0.941 . S
H42 C63 0.939 . S
O43 P32 1.490 . S
H44 C60 0.939 . S
H45 C62 0.940 . S
C46 P32 1.812 . S
C46 C47 1.389 . S
C46 C51 1.391 1_455 S
C47 H33 0.941 . S
C47 C46 1.389 . S
C47 C48 1.397 . S
C48 H34 0.939 . S
C48 C47 1.397 . S
C48 C49 1.378 1_455 S
C49 C48 1.378 1_655 S
C49 C50 1.378 . S
C50 H35 0.940 . S
C50 C49 1.378 . S
C50 C51 1.396 . S
C51 H36 0.940 . S
C51 C46 1.391 1_655 S
C51 C50 1.396 . S
C52 P32 1.803 . S
C52 C53 1.378 . S
C52 C57 1.400 1_455 S
C53 H37 0.939 . S
C53 C52 1.378 . S
C53 C54 1.361 . S
C54 H38 0.942 . S
C54 C53 1.361 . S
C54 C55 1.369 1_455 S
C55 C54 1.369 1_655 S
C55 C56 1.404 . S
C56 H39 0.940 . S
C56 C55 1.404 . S
C56 C57 1.389 . S
C57 H40 0.939 . S
C57 C52 1.400 1_655 S
C57 C56 1.389 . S
C58 P32 1.819 . S
C58 C59 1.391 . S
C58 C63 1.391 1_455 S
C59 H41 0.941 . S
C59 C58 1.391 . S
C59 C60 1.396 . S
C60 H44 0.939 . S
C60 C59 1.396 . S
C60 C61 1.397 1_455 S
C61 C60 1.397 1_655 S
C61 C62 1.385 . S
C62 H45 0.940 . S
C62 C61 1.385 . S
C62 C63 1.388 . S
C63 H42 0.939 . S
C63 C58 1.391 1_655 S
C63 C62 1.388 . S
P64 O75 1.490 . S
P64 C78 1.812 . S
P64 C84 1.803 . S
P64 C90 1.819 . S
H65 C79 0.941 . S
H66 C80 0.939 . S
H67 C82 0.940 . S
H68 C83 0.940 . S
H69 C85 0.939 . S
H70 C86 0.942 . S
H71 C88 0.940 . S
H72 C89 0.939 . S
H73 C91 0.941 . S
H74 C95 0.939 . S
O75 P64 1.490 . S
H76 C92 0.939 . S
H77 C94 0.940 . S
C78 P64 1.812 . S
C78 C79 1.389 . S
C78 C83 1.391 1_545 S
C79 H65 0.941 . S
C79 C78 1.389 . S
C79 C80 1.397 . S
C80 H66 0.939 . S
C80 C79 1.397 . S
C80 C81 1.378 1_545 S
C81 C80 1.378 1_565 S
C81 C82 1.378 . S
C82 H67 0.940 . S
C82 C81 1.378 . S
C82 C83 1.396 . S
C83 H68 0.940 . S
C83 C78 1.391 1_565 S
C83 C82 1.396 . S
C84 P64 1.803 . S
C84 C85 1.378 . S
C84 C89 1.400 1_545 S
C85 H69 0.939 . S
C85 C84 1.378 . S
C85 C86 1.361 . S
C86 H70 0.942 . S
C86 C85 1.361 . S
C86 C87 1.369 1_545 S
C87 C86 1.369 1_565 S
C87 C88 1.404 . S
C88 H71 0.940 . S
C88 C87 1.404 . S
C88 C89 1.389 . S
C89 H72 0.939 . S
C89 C84 1.400 1_565 S
C89 C88 1.389 . S
C90 P64 1.819 . S
C90 C91 1.391 . S
C90 C95 1.391 1_545 S
C91 H73 0.941 . S
C91 C90 1.391 . S
C91 C92 1.396 . S
C92 H76 0.939 . S
C92 C91 1.396 . S
C92 C93 1.397 1_545 S
C93 C92 1.397 1_565 S
C93 C94 1.385 . S
C94 H77 0.940 . S
C94 C93 1.385 . S
C94 C95 1.388 . S
C95 H74 0.939 . S
C95 C90 1.391 1_565 S
C95 C94 1.388 . S
P96 O107 1.490 . S
P96 C110 1.812 . S
P96 C116 1.803 . S
P96 C122 1.819 . S
H97 C111 0.941 . S
H98 C112 0.939 . S
H99 C114 0.940 . S
H100 C115 0.940 . S
H101 C117 0.939 . S
H102 C118 0.942 . S
H103 C120 0.940 . S
H104 C121 0.939 . S
H105 C123 0.941 . S
H106 C127 0.939 . S
O107 P96 1.490 . S
H108 C124 0.939 . S
H109 C126 0.940 . S
C110 P96 1.812 . S
C110 C111 1.389 . S
C110 C115 1.391 . S
C111 H97 0.941 . S
C111 C110 1.389 . S
C111 C112 1.397 . S
C112 H98 0.939 . S
C112 C111 1.397 . S
C112 C113 1.378 . S
C113 C112 1.378 . S
C113 C114 1.378 . S
C114 H99 0.940 . S
C114 C113 1.378 . S
C114 C115 1.396 . S
C115 H100 0.940 . S
C115 C110 1.391 . S
C115 C114 1.396 . S
C116 P96 1.803 . S
C116 C117 1.378 . S
C116 C121 1.400 . S
C117 H101 0.939 . S
C117 C116 1.378 . S
C117 C118 1.361 . S
C118 H102 0.942 . S
C118 C117 1.361 . S
C118 C119 1.369 . S
C119 C118 1.369 . S
C119 C120 1.404 . S
C120 H103 0.940 . S
C120 C119 1.404 . S
C120 C121 1.389 . S
C121 H104 0.939 . S
C121 C116 1.400 . S
C121 C120 1.389 . S
C122 P96 1.819 . S
C122 C123 1.391 . S
C122 C127 1.391 . S
C123 H105 0.941 . S
C123 C122 1.391 . S
C123 C124 1.396 . S
C124 H108 0.939 . S
C124 C123 1.396 . S
C124 C125 1.397 . S
C125 C124 1.397 . S
C125 C126 1.385 . S
C126 H109 0.940 . S
C126 C125 1.385 . S
C126 C127 1.388 . S
C127 H106 0.939 . S
C127 C122 1.391 . S
C127 C126 1.388 . S
P128 O139 1.490 . S
P128 C142 1.812 1_554 S
P128 C148 1.803 . S
P128 C154 1.819 . S
H129 C143 0.941 . S
H130 C144 0.939 . S
H131 C146 0.940 . S
H132 C147 0.940 . S
H133 C149 0.939 . S
H134 C150 0.942 . S
H135 C152 0.940 . S
H136 C153 0.939 . S
H137 C155 0.941 . S
H138 C159 0.939 . S
O139 P128 1.490 . S
H140 C156 0.939 . S
H141 C158 0.940 . S
C142 P128 1.812 1_556 S
C142 C143 1.389 . S
C142 C147 1.391 . S
C143 H129 0.941 . S
C143 C142 1.389 . S
C143 C144 1.397 . S
C144 H130 0.939 . S
C144 C143 1.397 . S
C144 C145 1.378 . S
C145 C144 1.378 . S
C145 C146 1.378 . S
C146 H131 0.940 . S
C146 C145 1.378 . S
C146 C147 1.396 . S
C147 H132 0.940 . S
C147 C142 1.391 . S
C147 C146 1.396 . S
C148 P128 1.803 . S
C148 C149 1.378 . S
C148 C153 1.400 . S
C149 H133 0.939 . S
C149 C148 1.378 . S
C149 C150 1.361 . S
C150 H134 0.942 . S
C150 C149 1.361 . S
C150 C151 1.369 . S
C151 C150 1.369 . S
C151 C152 1.404 . S
C152 H135 0.940 . S
C152 C151 1.404 . S
C152 C153 1.389 . S
C153 H136 0.939 . S
C153 C148 1.400 . S
C153 C152 1.389 . S
C154 P128 1.819 . S
C154 C155 1.391 . S
C154 C159 1.391 . S
C155 H137 0.941 . S
C155 C154 1.391 . S
C155 C156 1.396 . S
C156 H140 0.939 . S
C156 C155 1.396 . S
C156 C157 1.397 . S
C157 C156 1.397 . S
C157 C158 1.385 . S
C158 H141 0.940 . S
C158 C157 1.385 . S
C158 C159 1.388 . S
C159 H138 0.939 . S
C159 C154 1.391 . S
C159 C158 1.388 . S
P160 O171 1.490 . S
P160 C174 1.812 1_554 S
P160 C180 1.803 . S
P160 C186 1.819 . S
H161 C175 0.941 . S
H162 C176 0.939 . S
H163 C178 0.940 . S
H164 C179 0.940 . S
H165 C181 0.939 . S
H166 C182 0.942 . S
H167 C184 0.940 . S
H168 C185 0.939 . S
H169 C187 0.941 . S
H170 C191 0.939 . S
O171 P160 1.490 . S
H172 C188 0.939 . S
H173 C190 0.940 . S
C174 P160 1.812 1_556 S
C174 C175 1.389 . S
C174 C179 1.391 . S
C175 H161 0.941 . S
C175 C174 1.389 . S
C175 C176 1.397 . S
C176 H162 0.939 . S
C176 C175 1.397 . S
C176 C177 1.378 . S
C177 C176 1.378 . S
C177 C178 1.378 . S
C178 H163 0.940 . S
C178 C177 1.378 . S
C178 C179 1.396 . S
C179 H164 0.940 . S
C179 C174 1.391 . S
C179 C178 1.396 . S
C180 P160 1.803 . S
C180 C181 1.378 . S
C180 C185 1.400 . S
C181 H165 0.939 . S
C181 C180 1.378 . S
C181 C182 1.361 . S
C182 H166 0.942 . S
C182 C181 1.361 . S
C182 C183 1.369 . S
C183 C182 1.369 . S
C183 C184 1.404 . S
C184 H167 0.940 . S
C184 C183 1.404 . S
C184 C185 1.389 . S
C185 H168 0.939 . S
C185 C180 1.400 . S
C185 C184 1.389 . S
C186 P160 1.819 . S
C186 C187 1.391 . S
C186 C191 1.391 . S
C187 H169 0.941 . S
C187 C186 1.391 . S
C187 C188 1.396 . S
C188 H172 0.939 . S
C188 C187 1.396 . S
C188 C189 1.397 . S
C189 C188 1.397 . S
C189 C190 1.385 . S
C190 H173 0.940 . S
C190 C189 1.385 . S
C190 C191 1.388 . S
C191 H170 0.939 . S
C191 C186 1.391 . S
C191 C190 1.388 . S
P192 O203 1.490 . S
P192 C206 1.812 1_554 S
P192 C212 1.803 . S
P192 C218 1.819 . S
H193 C207 0.941 . S
H194 C208 0.939 . S
H195 C210 0.940 . S
H196 C211 0.940 . S
H197 C213 0.939 . S
H198 C214 0.942 . S
H199 C216 0.940 . S
H200 C217 0.939 . S
H201 C219 0.941 . S
H202 C223 0.939 . S
O203 P192 1.490 . S
H204 C220 0.939 . S
H205 C222 0.940 . S
C206 P192 1.812 1_556 S
C206 C207 1.389 . S
C206 C211 1.391 . S
C207 H193 0.941 . S
C207 C206 1.389 . S
C207 C208 1.397 . S
C208 H194 0.939 . S
C208 C207 1.397 . S
C208 C209 1.378 . S
C209 C208 1.378 . S
C209 C210 1.378 . S
C210 H195 0.940 . S
C210 C209 1.378 . S
C210 C211 1.396 . S
C211 H196 0.940 . S
C211 C206 1.391 . S
C211 C210 1.396 . S
C212 P192 1.803 . S
C212 C213 1.378 . S
C212 C217 1.400 . S
C213 H197 0.939 . S
C213 C212 1.378 . S
C213 C214 1.361 . S
C214 H198 0.942 . S
C214 C213 1.361 . S
C214 C215 1.369 . S
C215 C214 1.369 . S
C215 C216 1.404 . S
C216 H199 0.940 . S
C216 C215 1.404 . S
C216 C217 1.389 . S
C217 H200 0.939 . S
C217 C212 1.400 . S
C217 C216 1.389 . S
C218 P192 1.819 . S
C218 C219 1.391 . S
C218 C223 1.391 . S
C219 H201 0.941 . S
C219 C218 1.391 . S
C219 C220 1.396 . S
C220 H204 0.939 . S
C220 C219 1.396 . S
C220 C221 1.397 . S
C221 C220 1.397 . S
C221 C222 1.385 . S
C222 H205 0.940 . S
C222 C221 1.385 . S
C222 C223 1.388 . S
C223 H202 0.939 . S
C223 C218 1.391 . S
C223 C222 1.388 . S
P224 O235 1.490 . S
P224 C238 1.812 1_554 S
P224 C244 1.803 . S
P224 C250 1.819 . S
H225 C239 0.941 . S
H226 C240 0.939 . S
H227 C242 0.940 . S
H228 C243 0.940 . S
H229 C245 0.939 . S
H230 C246 0.942 . S
H231 C248 0.940 . S
H232 C249 0.939 . S
H233 C251 0.941 . S
H234 C255 0.939 . S
O235 P224 1.490 . S
H236 C252 0.939 . S
H237 C254 0.940 . S
C238 P224 1.812 1_556 S
C238 C239 1.389 . S
C238 C243 1.391 . S
C239 H225 0.941 . S
C239 C238 1.389 . S
C239 C240 1.397 . S
C240 H226 0.939 . S
C240 C239 1.397 . S
C240 C241 1.378 . S
C241 C240 1.378 . S
C241 C242 1.378 . S
C242 H227 0.940 . S
C242 C241 1.378 . S
C242 C243 1.396 . S
C243 H228 0.940 . S
C243 C238 1.391 . S
C243 C242 1.396 . S
C244 P224 1.803 . S
C244 C245 1.378 . S
C244 C249 1.400 . S
C245 H229 0.939 . S
C245 C244 1.378 . S
C245 C246 1.361 . S
C246 H230 0.942 . S
C246 C245 1.361 . S
C246 C247 1.369 . S
C247 C246 1.369 . S
C247 C248 1.404 . S
C248 H231 0.940 . S
C248 C247 1.404 . S
C248 C249 1.389 . S
C249 H232 0.939 . S
C249 C244 1.400 . S
C249 C248 1.389 . S
C250 P224 1.819 . S
C250 C251 1.391 . S
C250 C255 1.391 . S
C251 H233 0.941 . S
C251 C250 1.391 . S
C251 C252 1.396 . S
C252 H236 0.939 . S
C252 C251 1.396 . S
C252 C253 1.397 . S
C253 C252 1.397 . S
C253 C254 1.385 . S
C254 H237 0.940 . S
C254 C253 1.385 . S
C254 C255 1.388 . S
C255 H234 0.939 . S
C255 C250 1.391 . S
C255 C254 1.388 . S
C256 C258 1.422 . S
C256 C260 1.415 . S
C256 N262 1.369 . S
C257 C258 1.421 1_554 S
C257 C259 1.417 . S
C257 C269 1.422 . S
C258 C256 1.422 . S
C258 C257 1.421 1_556 S
C258 N268 1.359 . S
C259 C257 1.417 . S
C259 C261 1.329 1_554 S
C259 H278 0.930 . S
C260 C256 1.415 . S
C260 C261 1.437 . S
C260 C264 1.413 . S
C261 C259 1.329 1_556 S
C261 C260 1.437 . S
C261 H283 0.929 1_556 S
N262 C256 1.369 . S
N262 C263 1.338 1_545 S
N262 Gd267 2.622 1_545 S
C263 N262 1.338 1_565 S
C263 C265 1.378 1_565 S
C263 H275 0.929 . S
C264 C260 1.413 . S
C264 C265 1.348 . S
C264 H280 0.931 . S
C265 C263 1.378 1_545 S
C265 C264 1.348 . S
C265 H281 0.930 . S
Gd266 N286 2.622 . S
Gd266 N293 2.570 . S
Gd266 O300 2.353 1_655 S
Gd266 O301 2.468 . S
Gd266 O302 2.427 . S
Gd266 O304 2.388 . S
Gd266 O305 2.386 1_545 S
Gd266 O309 2.307 1_655 S
Gd266 C319 2.805 . S
Gd267 N262 2.622 1_565 S
Gd267 N268 2.570 1_565 S
Gd267 O299 2.386 1_565 S
Gd267 O303 2.304 1_465 S
Gd267 O306 2.353 . S
Gd267 O307 2.468 . S
Gd267 O308 2.427 . S
Gd267 O310 2.388 . S
Gd267 C331 2.805 . S
N268 C258 1.359 . S
N268 Gd267 2.570 1_545 S
N268 C270 1.343 . S
C269 C257 1.422 . S
C269 C271 1.321 . S
C269 H277 0.931 . S
C270 N268 1.343 . S
C270 C271 1.390 1_556 S
C270 H272 0.931 . S
C271 C269 1.321 . S
C271 C270 1.390 1_554 S
C271 H273 0.930 . S
H272 C270 0.931 . S
H273 C271 0.930 . S
H274 C297 0.931 1_455 S
H275 C263 0.929 . S
H276 C298 0.930 1_455 S
H277 C269 0.931 . S
H278 C259 0.930 . S
H279 C288 0.929 . S
H280 C264 0.931 . S
H281 C265 0.930 . S
H282 C320 0.930 . S
H283 C261 0.929 1_554 S
H284 C289 0.931 . S
H285 C290 0.930 . S
N286 Gd266 2.622 . S
N286 C287 1.369 1_545 S
N286 C288 1.338 . S
C287 N286 1.369 1_565 S
C287 C291 1.415 . S
C287 C294 1.422 . S
C288 H279 0.929 . S
C288 N286 1.338 . S
C288 C290 1.378 . S
C289 H284 0.931 . S
C289 C290 1.348 1_565 S
C289 C291 1.413 . S
C290 H285 0.930 . S
C290 C288 1.378 . S
C290 C289 1.348 1_545 S
C291 C287 1.415 . S
C291 C289 1.413 . S
C291 C321 1.437 . S
H292 C321 0.929 . S
N293 Gd266 2.570 . S
N293 C294 1.359 1_545 S
N293 C297 1.343 . S
C294 C287 1.422 . S
C294 N293 1.359 1_565 S
C294 C296 1.421 . S
C295 C296 1.422 . S
C295 C298 1.321 . S
C295 H322 0.931 . S
C296 C294 1.421 . S
C296 C295 1.422 . S
C296 C320 1.417 . S
C297 H274 0.931 1_655 S
C297 N293 1.343 . S
C297 C298 1.390 1_545 S
C298 H276 0.930 1_655 S
C298 C295 1.321 . S
C298 C297 1.390 1_565 S
O299 Gd267 2.386 1_545 S
O299 C311 1.265 . S
O300 Gd266 2.353 1_455 S
O300 C311 1.242 . S
O301 Gd266 2.468 . S
O301 C319 1.263 . S
O302 Gd266 2.427 . S
O302 C319 1.252 . S
O303 Gd267 2.304 1_645 S
O303 C312 1.264 . S
O304 Gd266 2.388 . S
O304 C312 1.252 . S
O305 Gd266 2.386 1_565 S
O305 C323 1.265 . S
O306 Gd267 2.353 . S
O306 C323 1.242 1_455 S
O307 Gd267 2.468 . S
O307 C331 1.263 . S
O308 Gd267 2.427 . S
O308 C331 1.252 . S
O309 Gd266 2.307 1_455 S
O309 C324 1.261 . S
O310 Gd267 2.388 . S
O310 C324 1.252 1_565 S
C311 O299 1.265 . S
C311 O300 1.242 . S
C312 O303 1.264 . S
C312 O304 1.252 . S
C313 C316 1.394 . S
C313 C318 1.370 . S
C313 C319 1.500 . S
C314 C317 1.383 . S
C314 C318 1.395 . S
C315 C316 1.396 . S
C315 C317 1.365 . S
C315 H332 0.929 . S
C316 C313 1.394 . S
C316 C315 1.396 . S
C316 H333 0.930 . S
C317 C314 1.383 . S
C317 C315 1.365 . S
C317 H334 0.931 . S
C318 C313 1.370 . S
C318 C314 1.395 . S
C318 H335 0.930 1_655 S
C319 Gd266 2.805 . S
C319 O301 1.263 . S
C319 O302 1.252 . S
C319 C313 1.500 . S
C320 H282 0.930 . S
C320 C296 1.417 . S
C320 C321 1.329 . S
C321 C291 1.437 . S
C321 H292 0.929 . S
C321 C320 1.329 . S
H322 C295 0.931 . S
C323 O305 1.265 . S
C323 O306 1.242 1_655 S
C324 O309 1.261 . S
C324 O310 1.252 1_545 S
C325 C328 1.394 . S
C325 C330 1.370 . S
C325 C331 1.500 . S
C326 C329 1.383 . S
C326 C330 1.395 . S
C327 C328 1.396 . S
C327 C329 1.365 . S
C327 H336 0.929 . S
C328 C325 1.394 . S
C328 C327 1.396 . S
C328 H337 0.930 . S
C329 C326 1.383 . S
C329 C327 1.365 . S
C329 H338 0.931 1_556 S
C330 C325 1.370 . S
C330 C326 1.395 . S
C330 H339 0.930 . S
C331 Gd267 2.805 . S
C331 O307 1.263 . S
C331 O308 1.252 . S
C331 C325 1.500 . S
H332 C315 0.929 . S
H333 C316 0.930 . S
H334 C317 0.931 . S
H335 C318 0.930 1_455 S
H336 C327 0.929 . S
H337 C328 0.930 . S
H338 C329 0.931 1_554 S
H339 C330 0.930 . S
C340 C342 1.422 . S
C340 C344 1.415 . S
C340 N346 1.369 . S
C341 C342 1.421 . S
C341 C343 1.417 . S
C341 C353 1.422 . S
C342 C340 1.422 . S
C342 C341 1.421 . S
C342 N352 1.359 . S
C343 C341 1.417 . S
C343 C345 1.329 . S
C343 H362 0.930 . S
C344 C340 1.415 . S
C344 C345 1.437 . S
C344 C348 1.413 . S
C345 C343 1.329 . S
C345 C344 1.437 . S
C345 H367 0.929 . S
N346 C340 1.369 . S
N346 C347 1.338 . S
N346 Gd351 2.622 . S
C347 N346 1.338 . S
C347 C349 1.378 . S
C347 H359 0.929 . S
C348 C344 1.413 . S
C348 C349 1.348 . S
C348 H364 0.931 . S
C349 C347 1.378 . S
C349 C348 1.348 . S
C349 H365 0.930 . S
Gd350 N370 2.622 . S
Gd350 N377 2.570 . S
Gd350 O384 2.353 1_545 S
Gd350 O385 2.468 . S
Gd350 O386 2.427 . S
Gd350 O388 2.388 . S
Gd350 O389 2.386 . S
Gd350 O393 2.307 . S
Gd350 C403 2.805 . S
Gd351 N346 2.622 . S
Gd351 N352 2.570 . S
Gd351 O383 2.386 . S
Gd351 O387 2.307 1_565 S
Gd351 O390 2.353 1_565 S
Gd351 O391 2.468 . S
Gd351 O392 2.427 . S
Gd351 O394 2.388 . S
Gd351 C415 2.805 . S
N352 C342 1.359 . S
N352 Gd351 2.570 . S
N352 C354 1.343 . S
C353 C341 1.422 . S
C353 C355 1.321 . S
C353 H361 0.931 . S
C354 N352 1.343 . S
C354 C355 1.390 . S
C354 H356 0.931 . S
C355 C353 1.321 . S
C355 C354 1.390 . S
C355 H357 0.930 . S
H356 C354 0.931 . S
H357 C355 0.930 . S
H358 C381 0.931 . S
H359 C347 0.929 . S
H360 C382 0.930 . S
H361 C353 0.931 . S
H362 C343 0.930 . S
H363 C372 0.929 . S
H364 C348 0.931 . S
H365 C349 0.930 . S
H366 C404 0.930 . S
H367 C345 0.929 . S
H368 C373 0.931 . S
H369 C374 0.930 . S
N370 Gd350 2.622 . S
N370 C371 1.369 . S
N370 C372 1.338 . S
C371 N370 1.369 . S
C371 C375 1.415 . S
C371 C378 1.422 . S
C372 H363 0.929 . S
C372 N370 1.338 . S
C372 C374 1.378 . S
C373 H368 0.931 . S
C373 C374 1.348 . S
C373 C375 1.413 . S
C374 H369 0.930 . S
C374 C372 1.378 . S
C374 C373 1.348 . S
C375 C371 1.415 . S
C375 C373 1.413 . S
C375 C405 1.437 . S
H376 C405 0.929 . S
N377 Gd350 2.570 . S
N377 C378 1.359 . S
N377 C381 1.343 . S
C378 C371 1.422 . S
C378 N377 1.359 . S
C378 C380 1.421 . S
C379 C380 1.422 . S
C379 C382 1.321 . S
C379 H406 0.931 . S
C380 C378 1.421 . S
C380 C379 1.422 . S
C380 C404 1.417 . S
C381 H358 0.931 . S
C381 N377 1.343 . S
C381 C382 1.390 . S
C382 H360 0.930 . S
C382 C379 1.321 . S
C382 C381 1.390 . S
O383 Gd351 2.386 . S
O383 C395 1.265 . S
O384 Gd350 2.353 1_565 S
O384 C395 1.242 . S
O385 Gd350 2.468 . S
O385 C403 1.263 . S
O386 Gd350 2.427 . S
O386 C403 1.252 . S
O387 Gd351 2.307 1_545 S
O387 C396 1.261 . S
O388 Gd350 2.388 . S
O388 C396 1.252 . S
O389 Gd350 2.386 . S
O389 C407 1.265 . S
O390 Gd351 2.353 1_545 S
O390 C407 1.242 . S
O391 Gd351 2.468 . S
O391 C415 1.263 . S
O392 Gd351 2.427 . S
O392 C415 1.252 . S
O393 Gd350 2.307 . S
O393 C408 1.261 1_545 S
O394 Gd351 2.388 . S
O394 C408 1.252 . S
C395 O383 1.265 . S
C395 O384 1.242 . S
C396 O387 1.261 . S
C396 O388 1.252 . S
C397 C400 1.394 1_556 S
C397 C402 1.370 . S
C397 C403 1.500 . S
C398 C401 1.383 . S
C398 C402 1.395 1_554 S
C399 C400 1.396 . S
C399 C401 1.365 . S
C399 H416 0.929 . S
C400 C397 1.394 1_554 S
C400 C399 1.396 . S
C400 H417 0.930 . S
C401 C398 1.383 . S
C401 C399 1.365 . S
C401 H418 0.931 . S
C402 C397 1.370 . S
C402 C398 1.395 1_556 S
C402 H419 0.930 . S
C403 Gd350 2.805 . S
C403 O385 1.263 . S
C403 O386 1.252 . S
C403 C397 1.500 . S
C404 H366 0.930 . S
C404 C380 1.417 . S
C404 C405 1.329 . S
C405 C375 1.437 . S
C405 H376 0.929 . S
C405 C404 1.329 . S
H406 C379 0.931 . S
C407 O389 1.265 . S
C407 O390 1.242 . S
C408 O393 1.261 1_565 S
C408 O394 1.252 . S
C409 C412 1.394 . S
C409 C414 1.370 . S
C409 C415 1.500 . S
C410 C413 1.383 . S
C410 C414 1.395 . S
C411 C412 1.396 . S
C411 C413 1.365 . S
C411 H420 0.929 . S
C412 C409 1.394 . S
C412 C411 1.396 . S
C412 H421 0.930 . S
C413 C410 1.383 . S
C413 C411 1.365 . S
C413 H422 0.931 . S
C414 C409 1.370 . S
C414 C410 1.395 . S
C414 H423 0.930 . S
C415 Gd351 2.805 . S
C415 O391 1.263 . S
C415 O392 1.252 . S
C415 C409 1.500 . S
H416 C399 0.929 . S
H417 C400 0.930 . S
H418 C401 0.931 . S
H419 C402 0.930 . S
H420 C411 0.929 . S
H421 C412 0.930 . S
H422 C413 0.931 . S
H423 C414 0.930 . S
C424 C426 1.422 . S
C424 C428 1.415 . S
C424 N430 1.369 . S
C425 C426 1.421 1_554 S
C425 C427 1.417 . S
C425 C437 1.422 . S
C426 C424 1.422 . S
C426 C425 1.421 1_556 S
C426 N436 1.359 . S
C427 C425 1.417 . S
C427 C429 1.329 1_554 S
C427 H446 0.930 . S
C428 C424 1.415 . S
C428 C429 1.437 . S
C428 C432 1.413 . S
C429 C427 1.329 1_556 S
C429 C428 1.437 . S
C429 H451 0.929 1_556 S
N430 C424 1.369 . S
N430 C431 1.338 . S
N430 Gd435 2.622 . S
C431 N430 1.338 . S
C431 C433 1.378 . S
C431 H443 0.929 . S
C432 C428 1.413 . S
C432 C433 1.348 . S
C432 H448 0.931 . S
C433 C431 1.378 . S
C433 C432 1.348 . S
C433 H449 0.930 . S
Gd434 N454 2.622 . S
Gd434 N461 2.570 . S
Gd434 O468 2.353 . S
Gd434 O469 2.468 . S
Gd434 O470 2.427 . S
Gd434 O472 2.388 . S
Gd434 O473 2.386 . S
Gd434 O477 2.307 . S
Gd434 C487 2.805 . S
Gd435 N430 2.622 . S
Gd435 N436 2.570 . S
Gd435 O467 2.386 . S
Gd435 O471 2.307 . S
Gd435 O474 2.353 . S
Gd435 O475 2.468 . S
Gd435 O476 2.427 . S
Gd435 O478 2.388 . S
Gd435 C499 2.805 . S
N436 C426 1.359 . S
N436 Gd435 2.570 . S
N436 C438 1.343 . S
C437 C425 1.422 . S
C437 C439 1.321 . S
C437 H445 0.931 . S
C438 N436 1.343 . S
C438 C439 1.390 1_556 S
C438 H440 0.931 . S
C439 C437 1.321 . S
C439 C438 1.390 1_554 S
C439 H441 0.930 . S
H440 C438 0.931 . S
H441 C439 0.930 . S
H442 C465 0.931 . S
H443 C431 0.929 . S
H444 C466 0.930 . S
H445 C437 0.931 . S
H446 C427 0.930 . S
H447 C456 0.929 . S
H448 C432 0.931 . S
H449 C433 0.930 . S
H450 C488 0.930 . S
H451 C429 0.929 1_554 S
H452 C457 0.931 . S
H453 C458 0.930 . S
N454 Gd434 2.622 . S
N454 C455 1.369 . S
N454 C456 1.338 . S
C455 N454 1.369 . S
C455 C459 1.415 . S
C455 C462 1.422 . S
C456 H447 0.929 . S
C456 N454 1.338 . S
C456 C458 1.378 . S
C457 H452 0.931 . S
C457 C458 1.348 . S
C457 C459 1.413 . S
C458 H453 0.930 . S
C458 C456 1.378 . S
C458 C457 1.348 . S
C459 C455 1.415 . S
C459 C457 1.413 . S
C459 C489 1.437 . S
H460 C489 0.929 . S
N461 Gd434 2.570 . S
N461 C462 1.359 . S
N461 C465 1.343 . S
C462 C455 1.422 . S
C462 N461 1.359 . S
C462 C464 1.421 . S
C463 C464 1.422 . S
C463 C466 1.321 . S
C463 H490 0.931 . S
C464 C462 1.421 . S
C464 C463 1.422 . S
C464 C488 1.417 . S
C465 H442 0.931 . S
C465 N461 1.343 . S
C465 C466 1.390 . S
C466 H444 0.930 . S
C466 C463 1.321 . S
C466 C465 1.390 . S
O467 Gd435 2.386 . S
O467 C479 1.265 . S
O468 Gd434 2.353 . S
O468 C479 1.242 . S
O469 Gd434 2.468 . S
O469 C487 1.263 . S
O470 Gd434 2.427 . S
O470 C487 1.252 . S
O471 Gd435 2.307 . S
O471 C480 1.261 . S
O472 Gd434 2.388 . S
O472 C480 1.252 . S
O473 Gd434 2.386 . S
O473 C491 1.265 . S
O474 Gd435 2.353 . S
O474 C491 1.242 . S
O475 Gd435 2.468 . S
O475 C499 1.263 . S
O476 Gd435 2.427 . S
O476 C499 1.252 . S
O477 Gd434 2.307 . S
O477 C492 1.261 . S
O478 Gd435 2.388 . S
O478 C492 1.252 . S
C479 O467 1.265 . S
C479 O468 1.242 . S
C480 O471 1.261 . S
C480 O472 1.252 . S
C481 C484 1.394 . S
C481 C486 1.370 . S
C481 C487 1.500 . S
C482 C485 1.383 . S
C482 C486 1.395 . S
C483 C484 1.396 . S
C483 C485 1.365 . S
C483 H500 0.929 . S
C484 C481 1.394 . S
C484 C483 1.396 . S
C484 H501 0.930 . S
C485 C482 1.383 . S
C485 C483 1.365 . S
C485 H502 0.931 . S
C486 C481 1.370 . S
C486 C482 1.395 . S
C486 H503 0.930 . S
C487 Gd434 2.805 . S
C487 O469 1.263 . S
C487 O470 1.252 . S
C487 C481 1.500 . S
C488 H450 0.930 . S
C488 C464 1.417 . S
C488 C489 1.329 . S
C489 C459 1.437 . S
C489 H460 0.929 . S
C489 C488 1.329 . S
H490 C463 0.931 . S
C491 O473 1.265 . S
C491 O474 1.242 . S
C492 O477 1.261 . S
C492 O478 1.252 . S
C493 C496 1.394 . S
C493 C498 1.370 . S
C493 C499 1.500 . S
C494 C497 1.383 . S
C494 C498 1.395 . S
C495 C496 1.396 . S
C495 C497 1.365 . S
C495 H504 0.929 . S
C496 C493 1.394 . S
C496 C495 1.396 . S
C496 H505 0.930 . S
C497 C494 1.383 . S
C497 C495 1.365 . S
C497 H506 0.931 1_556 S
C498 C493 1.370 . S
C498 C494 1.395 . S
C498 H507 0.930 . S
C499 Gd435 2.805 . S
C499 O475 1.263 . S
C499 O476 1.252 . S
C499 C493 1.500 . S
H500 C483 0.929 . S
H501 C484 0.930 . S
H502 C485 0.931 . S
H503 C486 0.930 . S
H504 C495 0.929 . S
H505 C496 0.930 . S
H506 C497 0.931 1_554 S
H507 C498 0.930 . S
C508 C510 1.422 . S
C508 C512 1.415 . S
C508 N514 1.369 1_455 S
C509 C510 1.421 1_554 S
C509 C511 1.417 . S
C509 C521 1.422 . S
C510 C508 1.422 . S
C510 C509 1.421 1_556 S
C510 N520 1.359 . S
C511 C509 1.417 . S
C511 C513 1.329 1_554 S
C511 H530 0.930 . S
C512 C508 1.415 . S
C512 C513 1.437 . S
C512 C516 1.413 . S
C513 C511 1.329 1_556 S
C513 C512 1.437 . S
C513 H535 0.929 1_556 S
N514 C508 1.369 1_655 S
N514 C515 1.338 . S
N514 Gd519 2.622 . S
C515 N514 1.338 . S
C515 C517 1.378 1_655 S
C515 H527 0.929 . S
C516 C512 1.413 . S
C516 C517 1.348 . S
C516 H532 0.931 . S
C517 C515 1.378 1_455 S
C517 C516 1.348 . S
C517 H533 0.930 . S
Gd518 N538 2.622 . S
Gd518 N545 2.570 . S
Gd518 O552 2.353 . S
Gd518 O553 2.468 . S
Gd518 O554 2.427 . S
Gd518 O556 2.388 . S
Gd518 O557 2.386 1_455 S
Gd518 O561 2.307 . S
Gd518 C571 2.805 . S
Gd519 N514 2.622 . S
Gd519 N520 2.570 1_655 S
Gd519 O551 2.386 1_655 S
Gd519 O555 2.307 . S
Gd519 O558 2.353 . S
Gd519 O559 2.468 . S
Gd519 O560 2.427 . S
Gd519 O562 2.388 . S
Gd519 C583 2.805 . S
N520 C510 1.359 . S
N520 Gd519 2.570 1_455 S
N520 C522 1.343 . S
C521 C509 1.422 . S
C521 C523 1.321 . S
C521 H529 0.931 . S
C522 N520 1.343 . S
C522 C523 1.390 1_556 S
C522 H524 0.943 . S
C523 C521 1.321 . S
C523 C522 1.390 1_554 S
C523 H525 0.930 . S
H524 C522 0.943 . S
H525 C523 0.930 . S
H526 C549 0.931 . S
H527 C515 0.929 . S
H528 C550 0.930 . S
H529 C521 0.931 . S
H530 C511 0.930 . S
H531 C540 0.929 . S
H532 C516 0.931 . S
H533 C517 0.930 . S
H534 C572 0.930 . S
H535 C513 0.929 1_554 S
H536 C541 0.931 . S
H537 C542 0.930 . S
N538 Gd518 2.622 . S
N538 C539 1.369 1_455 S
N538 C540 1.338 . S
C539 N538 1.369 1_655 S
C539 C543 1.415 . S
C539 C546 1.422 . S
C540 H531 0.929 . S
C540 N538 1.338 . S
C540 C542 1.378 . S
C541 H536 0.931 . S
C541 C542 1.348 1_655 S
C541 C543 1.413 . S
C542 H537 0.930 . S
C542 C540 1.378 . S
C542 C541 1.348 1_455 S
C543 C539 1.415 . S
C543 C541 1.413 . S
C543 C573 1.437 . S
H544 C573 0.929 . S
N545 Gd518 2.570 . S
N545 C546 1.359 1_455 S
N545 C549 1.343 . S
C546 C539 1.422 . S
C546 N545 1.359 1_655 S
C546 C548 1.421 . S
C547 C548 1.422 . S
C547 C550 1.321 . S
C547 H574 0.931 . S
C548 C546 1.421 . S
C548 C547 1.422 . S
C548 C572 1.417 . S
C549 H526 0.931 . S
C549 N545 1.343 . S
C549 C550 1.390 1_455 S
C550 H528 0.930 . S
C550 C547 1.321 . S
C550 C549 1.390 1_655 S
O551 Gd519 2.386 1_455 S
O551 C563 1.265 . S
O552 Gd518 2.353 . S
O552 C563 1.242 . S
O553 Gd518 2.468 . S
O553 C571 1.263 . S
O554 Gd518 2.427 . S
O554 C571 1.252 . S
O555 Gd519 2.307 . S
O555 C564 1.261 1_655 S
O556 Gd518 2.388 . S
O556 C564 1.252 . S
O557 Gd518 2.386 1_655 S
O557 C575 1.265 . S
O558 Gd519 2.353 . S
O558 C575 1.242 . S
O559 Gd519 2.468 . S
O559 C583 1.263 . S
O560 Gd519 2.427 . S
O560 C583 1.252 . S
O561 Gd518 2.307 . S
O561 C576 1.261 . S
O562 Gd519 2.388 . S
O562 C576 1.252 1_655 S
C563 O551 1.265 . S
C563 O552 1.242 . S
C564 O555 1.261 1_455 S
C564 O556 1.252 . S
C565 C568 1.394 . S
C565 C570 1.370 . S
C565 C571 1.500 . S
C566 C569 1.383 . S
C566 C570 1.395 . S
C567 C568 1.396 . S
C567 C569 1.365 . S
C567 H584 0.929 . S
C568 C565 1.394 . S
C568 C567 1.396 . S
C568 H585 0.930 . S
C569 C566 1.383 . S
C569 C567 1.365 . S
C569 H586 0.931 . S
C570 C565 1.370 . S
C570 C566 1.395 . S
C570 H587 0.930 . S
C571 Gd518 2.805 . S
C571 O553 1.263 . S
C571 O554 1.252 . S
C571 C565 1.500 . S
C572 H534 0.930 . S
C572 C548 1.417 . S
C572 C573 1.329 . S
C573 C543 1.437 . S
C573 H544 0.929 . S
C573 C572 1.329 . S
H574 C547 0.931 . S
C575 O557 1.265 . S
C575 O558 1.242 . S
C576 O561 1.261 . S
C576 O562 1.252 1_455 S
C577 C580 1.394 . S
C577 C582 1.370 . S
C577 C583 1.500 . S
C578 C581 1.383 . S
C578 C582 1.395 . S
C579 C580 1.396 . S
C579 C581 1.365 . S
C579 H588 0.929 . S
C580 C577 1.394 . S
C580 C579 1.396 . S
C580 H589 0.930 . S
C581 C578 1.383 . S
C581 C579 1.365 . S
C581 H590 0.931 1_556 S
C582 C577 1.370 . S
C582 C578 1.395 . S
C582 H591 0.930 . S
C583 Gd519 2.805 . S
C583 O559 1.263 . S
C583 O560 1.252 . S
C583 C577 1.500 . S
H584 C567 0.929 . S
H585 C568 0.930 . S
H586 C569 0.931 . S
H587 C570 0.930 . S
H588 C579 0.929 . S
H589 C580 0.930 . S
H590 C581 0.931 1_554 S
H591 C582 0.930 . S
C592 C593 1.369 . S
C592 C594 1.419 . S
C592 H596 0.930 . S
C593 C592 1.369 . S
C593 C602 1.458 . S
C594 C592 1.419 . S
C594 C595 1.363 . S
C594 H597 0.929 . S
C595 C594 1.363 . S
C595 C601 1.428 1_545 S
H596 C592 0.930 . S
H597 C594 0.929 . S
S598 N599 1.613 . S
S598 N600 1.610 . S
N599 S598 1.613 . S
N599 C602 1.323 1_565 S
N600 S598 1.610 . S
N600 C601 1.351 . S
C601 C595 1.428 1_565 S
C601 N600 1.351 . S
C601 C602 1.430 1_565 S
C602 C593 1.458 . S
C602 N599 1.323 1_545 S
C602 C601 1.430 1_545 S
C603 C604 1.369 . S
C603 C605 1.419 . S
C603 H607 0.930 . S
C604 C603 1.369 . S
C604 C613 1.429 . S
C605 C603 1.419 . S
C605 C606 1.363 . S
C605 H608 0.929 . S
C606 C605 1.363 . S
C606 C612 1.428 . S
H607 C603 0.930 . S
H608 C605 0.929 . S
S609 N610 1.613 . S
S609 N611 1.610 . S
N610 S609 1.613 . S
N610 C613 1.350 . S
N611 S609 1.610 . S
N611 C612 1.351 . S
C612 C606 1.428 . S
C612 N611 1.351 . S
C612 C613 1.434 . S
C613 C604 1.429 . S
C613 N610 1.350 . S
C613 C612 1.434 . S
C614 C615 1.369 . S
C614 C616 1.419 . S
C614 H618 0.930 . S
C615 C614 1.369 . S
C615 C624 1.429 . S
C616 C614 1.419 . S
C616 C617 1.363 . S
C616 H619 0.929 . S
C617 C616 1.363 . S
C617 C623 1.428 . S
H618 C614 0.930 . S
H619 C616 0.929 . S
S620 N621 1.613 . S
S620 N622 1.610 . S
N621 S620 1.613 . S
N621 C624 1.350 . S
N622 S620 1.610 . S
N622 C623 1.351 . S
C623 C617 1.428 . S
C623 N622 1.351 . S
C623 C624 1.434 . S
C624 C615 1.429 . S
C624 N621 1.350 . S
C624 C623 1.434 . S
C625 C626 1.369 . S
C625 C627 1.419 . S
C625 H629 0.930 . S
C626 C625 1.369 . S
C626 C635 1.429 . S
C627 C625 1.419 . S
C627 C628 1.363 . S
C627 H630 0.929 . S
C628 C627 1.363 . S
C628 C634 1.428 . S
H629 C625 0.930 . S
H630 C627 0.929 . S
S631 N632 1.613 . S
S631 N633 1.610 . S
N632 S631 1.613 . S
N632 C635 1.350 . S
N633 S631 1.610 . S
N633 C634 1.351 . S
C634 C628 1.428 . S
C634 N633 1.351 . S
C634 C635 1.434 . S
C635 C626 1.429 . S
C635 N632 1.350 . S
C635 C634 1.434 . S
C636 C637 1.369 1_545 S
C636 C638 1.419 1_554 S
C636 H640 0.930 . S
C637 C636 1.369 1_565 S
C637 C646 1.429 . S
C638 C636 1.419 1_556 S
C638 C639 1.363 1_545 S
C638 H641 0.929 . S
C639 C638 1.363 1_565 S
C639 C645 1.428 . S
H640 C636 0.930 . S
H641 C638 0.929 . S
S642 N643 1.613 . S
S642 N644 1.610 1_554 S
N643 S642 1.613 . S
N643 C646 1.350 . S
N644 S642 1.610 1_556 S
N644 C645 1.351 . S
C645 C639 1.428 . S
C645 N644 1.351 . S
C645 C646 1.434 1_556 S
C646 C637 1.429 . S
C646 N643 1.350 . S
C646 C645 1.434 1_554 S
C647 C648 1.369 . S
C647 C649 1.419 1_554 S
C647 H651 0.930 . S
C648 C647 1.369 . S
C648 C657 1.429 . S
C649 C647 1.419 1_556 S
C649 C650 1.363 . S
C649 H652 0.929 . S
C650 C649 1.363 . S
C650 C656 1.428 . S
H651 C647 0.930 . S
H652 C649 0.929 . S
S653 N654 1.613 . S
S653 N655 1.610 1_554 S
N654 S653 1.613 . S
N654 C657 1.350 . S
N655 S653 1.610 1_556 S
N655 C656 1.351 . S
C656 C650 1.428 . S
C656 N655 1.351 . S
C656 C657 1.434 1_556 S
C657 C648 1.429 . S
C657 N654 1.350 . S
C657 C656 1.434 1_554 S
C658 C659 1.369 . S
C658 C660 1.419 1_554 S
C658 H662 0.930 . S
C659 C658 1.369 . S
C659 C668 1.429 . S
C660 C658 1.419 1_556 S
C660 C661 1.363 . S
C660 H663 0.929 . S
C661 C660 1.363 . S
C661 C667 1.428 . S
H662 C658 0.930 . S
H663 C660 0.929 . S
S664 N665 1.613 . S
S664 N666 1.610 1_554 S
N665 S664 1.613 . S
N665 C668 1.350 . S
N666 S664 1.610 1_556 S
N666 C667 1.351 . S
C667 C661 1.428 . S
C667 N666 1.351 . S
C667 C668 1.434 1_556 S
C668 C659 1.429 . S
C668 N665 1.350 . S
C668 C667 1.434 1_554 S
C669 C670 1.369 . S
C669 C671 1.419 1_554 S
C669 H673 0.930 . S
C670 C669 1.369 . S
C670 C679 1.429 1_655 S
C671 C669 1.419 1_556 S
C671 C672 1.363 . S
C671 H674 0.929 . S
C672 C671 1.363 . S
C672 C678 1.428 1_655 S
H673 C669 0.930 . S
H674 C671 0.929 . S
S675 N676 1.613 . S
S675 N677 1.610 1_554 S
N676 S675 1.613 . S
N676 C679 1.350 . S
N677 S675 1.610 1_556 S
N677 C678 1.351 . S
C678 C672 1.428 1_455 S
C678 N677 1.351 . S
C678 C679 1.434 1_556 S
C679 C670 1.429 1_455 S
C679 N676 1.350 . S
C679 C678 1.434 1_554 S
C680 C681 1.369 . S
C680 C682 1.419 . S
C680 H684 0.930 . S
C681 C680 1.369 . S
C681 C690 1.429 . S
C682 C680 1.419 . S
C682 C683 1.363 1_455 S
C682 H685 0.929 . S
C683 C682 1.363 1_655 S
C683 C689 1.428 . S
H684 C680 0.930 . S
H685 C682 0.929 . S
S686 N687 1.613 1_655 S
S686 N688 1.610 . S
N687 S686 1.613 1_455 S
N687 C690 1.350 . S
N688 S686 1.610 . S
N688 C689 1.351 . S
C689 C683 1.428 . S
C689 N688 1.351 . S
C689 C690 1.434 1_655 S
C690 C681 1.429 . S
C690 N687 1.350 . S
C690 C689 1.434 1_455 S
C691 C692 1.369 . S
C691 C693 1.419 . S
C691 H695 0.930 . S
C692 C691 1.369 . S
C692 C701 1.429 . S
C693 C691 1.419 . S
C693 C694 1.363 1_545 S
C693 H696 0.929 . S
C694 C693 1.363 1_565 S
C694 C700 1.428 . S
H695 C691 0.930 . S
H696 C693 0.929 . S
S697 N698 1.613 1_565 S
S697 N699 1.610 . S
N698 S697 1.613 1_545 S
N698 C701 1.350 . S
N699 S697 1.610 . S
N699 C700 1.351 . S
C700 C694 1.428 . S
C700 N699 1.351 . S
C700 C701 1.434 1_565 S
C701 C692 1.429 . S
C701 N698 1.350 . S
C701 C700 1.434 1_545 S
C702 C703 1.369 . S
C702 C704 1.419 . S
C702 H706 0.930 . S
C703 C702 1.369 . S
C703 C712 1.429 . S
C704 C702 1.419 . S
C704 C705 1.363 . S
C704 H707 0.929 . S
C705 C704 1.363 . S
C705 C711 1.428 . S
H706 C702 0.930 . S
H707 C704 0.929 . S
S708 N709 1.613 . S
S708 N710 1.610 . S
N709 S708 1.613 . S
N709 C712 1.350 . S
N710 S708 1.610 . S
N710 C711 1.351 . S
C711 C705 1.428 . S
C711 N710 1.351 . S
C711 C712 1.434 . S
C712 C703 1.429 . S
C712 N709 1.350 . S
C712 C711 1.434 . S
C713 C714 1.369 . S
C713 C715 1.419 . S
C713 H717 0.930 . S
C714 C713 1.369 . S
C714 C723 1.429 . S
C715 C713 1.419 . S
C715 C716 1.363 . S
C715 H718 0.929 . S
C716 C715 1.363 . S
C716 C722 1.428 . S
H717 C713 0.930 . S
H718 C715 0.929 . S
S719 N720 1.613 . S
S719 N721 1.610 . S
N720 S719 1.613 . S
N720 C723 1.350 . S
N721 S719 1.610 . S
N721 C722 1.351 . S
C722 C716 1.428 . S
C722 N721 1.351 . S
C722 C723 1.434 . S
C723 C714 1.429 . S
C723 N720 1.350 . S
C723 C722 1.434 . S
C724 C725 1.369 . S
C724 C726 1.419 1_654 S
C724 H728 0.930 1_554 S
C725 C724 1.369 . S
C725 C734 1.429 . S
C726 C724 1.419 1_456 S
C726 C727 1.363 1_556 S
C726 H729 0.929 . S
C727 C726 1.363 1_554 S
C727 C733 1.428 . S
H728 C724 0.930 1_556 S
H729 C726 0.929 . S
S730 N731 1.613 1_455 S
S730 N732 1.610 . S
N731 S730 1.613 1_655 S
N731 C734 1.350 . S
N732 S730 1.610 . S
N732 C733 1.351 . S
C733 C727 1.428 . S
C733 N732 1.351 . S
C733 C734 1.434 1_455 S
C734 C725 1.429 . S
C734 N731 1.350 . S
C734 C733 1.434 1_655 S
C735 C736 1.369 . S
C735 C737 1.419 1_564 S
C735 H739 0.930 1_554 S
C736 C735 1.369 . S
C736 C745 1.429 . S
C737 C735 1.419 1_546 S
C737 C738 1.363 1_556 S
C737 H740 0.929 . S
C738 C737 1.363 1_554 S
C738 C744 1.428 . S
H739 C735 0.930 1_556 S
H740 C737 0.929 . S
S741 N742 1.613 1_545 S
S741 N743 1.610 . S
N742 S741 1.613 1_565 S
N742 C745 1.350 . S
N743 S741 1.610 . S
N743 C744 1.351 . S
C744 C738 1.428 . S
C744 N743 1.351 . S
C744 C745 1.434 1_545 S
C745 C736 1.429 . S
C745 N742 1.350 . S
C745 C744 1.434 1_565 S
C746 C747 1.369 . S
C746 C748 1.419 . S
C746 H750 0.930 . S
C747 C746 1.369 . S
C747 C756 1.429 . S
C748 C746 1.419 . S
C748 C749 1.363 . S
C748 H751 0.929 . S
C749 C748 1.363 . S
C749 C755 1.428 1_554 S
H750 C746 0.930 . S
H751 C748 0.929 . S
S752 N753 1.613 . S
S752 N754 1.610 . S
N753 S752 1.613 . S
N753 C756 1.350 1_556 S
N754 S752 1.610 . S
N754 C755 1.351 . S
C755 C749 1.428 1_556 S
C755 N754 1.351 . S
C755 C756 1.434 1_556 S
C756 C747 1.429 . S
C756 N753 1.350 1_554 S
C756 C755 1.434 1_554 S
C757 C758 1.369 . S
C757 C759 1.419 . S
C757 H761 0.930 . S
C758 C757 1.369 . S
C758 C767 1.429 . S
C759 C757 1.419 . S
C759 C760 1.363 . S
C759 H762 0.929 . S
C760 C759 1.363 . S
C760 C766 1.428 1_554 S
H761 C757 0.930 . S
H762 C759 0.929 . S
S763 N764 1.613 . S
S763 N765 1.610 . S
N764 S763 1.613 . S
N764 C767 1.350 1_556 S
N765 S763 1.610 . S
N765 C766 1.351 . S
C766 C760 1.428 1_556 S
C766 N765 1.351 . S
C766 C767 1.434 1_556 S
C767 C758 1.429 . S
C767 N764 1.350 1_554 S
C767 C766 1.434 1_554 S
C768 C769 1.369 . S
C768 C770 1.419 . S
C768 H772 0.930 . S
C769 C768 1.369 . S
C769 C778 1.429 . S
C770 C768 1.419 . S
C770 C771 1.363 . S
C770 H773 0.929 . S
C771 C770 1.363 . S
C771 C777 1.428 . S
H772 C768 0.930 . S
H773 C770 0.929 . S
S774 N775 1.613 . S
S774 N776 1.610 . S
N775 S774 1.613 . S
N775 C778 1.350 1_655 S
N776 S774 1.610 . S
N776 C777 1.351 1_655 S
C777 C771 1.428 . S
C777 N776 1.351 1_455 S
C777 C778 1.434 . S
C778 C769 1.429 . S
C778 N775 1.350 1_455 S
C778 C777 1.434 . S
C779 C780 1.369 . S
C779 C781 1.419 . S
C779 H783 0.930 . S
C780 C779 1.369 . S
C780 C789 1.429 . S
C781 C779 1.419 . S
C781 C782 1.363 . S
C781 H784 0.929 . S
C782 C781 1.363 . S
C782 C788 1.428 . S
H783 C779 0.930 . S
H784 C781 0.929 . S
S785 N786 1.613 . S
S785 N787 1.610 . S
N786 S785 1.613 . S
N786 C789 1.350 . S
N787 S785 1.610 . S
N787 C788 1.351 . S
C788 C782 1.428 . S
C788 N787 1.351 . S
C788 C789 1.434 . S
C789 C780 1.429 . S
C789 N786 1.350 . S
C789 C788 1.434 . S
C790 C791 1.369 . S
C790 C792 1.419 . S
C790 H794 0.930 . S
C791 C790 1.369 . S
C791 C800 1.429 . S
C792 C790 1.419 . S
C792 C793 1.363 . S
C792 H795 0.929 . S
C793 C792 1.363 . S
C793 C799 1.428 . S
H794 C790 0.930 . S
H795 C792 0.929 . S
S796 N797 1.613 . S
S796 N798 1.610 . S
N797 S796 1.613 . S
N797 C800 1.350 . S
N798 S796 1.610 . S
N798 C799 1.351 . S
C799 C793 1.428 . S
C799 N798 1.351 . S
C799 C800 1.434 . S
C800 C791 1.429 . S
C800 N797 1.350 . S
C800 C799 1.434 . S
C801 C802 1.369 . S
C801 C803 1.419 . S
C801 H805 0.930 . S
C802 C801 1.369 . S
C802 C811 1.429 . S
C803 C801 1.419 . S
C803 C804 1.363 . S
C803 H806 0.929 . S
C804 C803 1.363 . S
C804 C810 1.428 . S
H805 C801 0.930 . S
H806 C803 0.929 . S
S807 N808 1.613 . S
S807 N809 1.610 . S
N808 S807 1.613 . S
N808 C811 1.350 . S
N809 S807 1.610 . S
N809 C810 1.351 . S
C810 C804 1.428 . S
C810 N809 1.351 . S
C810 C811 1.434 . S
C811 C802 1.429 . S
C811 N808 1.350 . S
C811 C810 1.434 . S
C812 C813 1.369 1_455 S
C812 C814 1.419 . S
C812 H816 0.930 . S
C813 C812 1.369 1_655 S
C813 C822 1.429 . S
C814 C812 1.419 . S
C814 C815 1.363 1_455 S
C814 H817 0.929 . S
C815 C814 1.363 1_655 S
C815 C821 1.428 . S
H816 C812 0.930 . S
H817 C814 0.929 . S
S818 N819 1.613 . S
S818 N820 1.610 . S
N819 S818 1.613 . S
N819 C822 1.350 . S
N820 S818 1.610 . S
N820 C821 1.351 . S
C821 C815 1.428 . S
C821 N820 1.351 . S
C821 C822 1.434 . S
C822 C813 1.429 . S
C822 N819 1.350 . S
C822 C821 1.434 . S
C823 C824 1.369 . S
C823 C825 1.419 . S
C823 H827 0.930 . S
C824 C823 1.369 . S
C824 C833 1.429 . S
C825 C823 1.419 . S
C825 C826 1.363 . S
C825 H828 0.929 . S
C826 C825 1.363 . S
C826 C832 1.417 1_565 S
H827 C823 0.930 . S
H828 C825 0.929 . S
S829 N830 1.613 . S
S829 N831 1.610 . S
N830 S829 1.613 . S
N830 C833 1.350 1_545 S
N831 S829 1.610 . S
N831 C832 1.367 . S
C832 C826 1.417 1_545 S
C832 N831 1.367 . S
C832 C833 1.432 1_545 S
C833 C824 1.429 . S
C833 N830 1.350 1_565 S
C833 C832 1.432 1_565 S
C834 C835 1.369 . S
C834 C836 1.419 . S
C834 H838 0.930 . S
C835 C834 1.369 . S
C835 C844 1.429 . S
C836 C834 1.419 . S
C836 C837 1.363 . S
C836 H839 0.929 . S
C837 C836 1.363 . S
C837 C843 1.428 . S
H838 C834 0.930 . S
H839 C836 0.929 . S
S840 N841 1.613 . S
S840 N842 1.610 . S
N841 S840 1.613 . S
N841 C844 1.350 . S
N842 S840 1.610 . S
N842 C843 1.351 . S
C843 C837 1.428 . S
C843 N842 1.351 . S
C843 C844 1.434 . S
C844 C835 1.429 . S
C844 N841 1.350 . S
C844 C843 1.434 . S
C845 C846 1.369 . S
C845 C847 1.419 . S
C845 H849 0.930 . S
C846 C845 1.369 . S
C846 C855 1.429 . S
C847 C845 1.419 . S
C847 C848 1.363 . S
C847 H850 0.929 . S
C848 C847 1.363 . S
C848 C854 1.428 . S
H849 C845 0.930 . S
H850 C847 0.929 . S
S851 N852 1.613 . S
S851 N853 1.610 . S
N852 S851 1.613 . S
N852 C855 1.350 . S
N853 S851 1.610 . S
N853 C854 1.351 . S
C854 C848 1.428 . S
C854 N853 1.351 . S
C854 C855 1.434 . S
C855 C846 1.429 . S
C855 N852 1.350 . S
C855 C854 1.434 . S
C593 C215 2.385 . S
C595 C324 2.564 . S
C606 C407 2.565 . S
C604 C247 2.392 . S
C617 C492 2.569 . S
C615 C151 2.386 . S
C628 C576 2.551 . S
C626 C183 2.360 . S
C639 C312 2.566 1_565 S
C637 C87 2.324 . S
C648 C119 2.331 . S
C650 C395 2.565 . S
C659 C23 2.329 . S
C661 C480 2.569 . S
C670 C55 2.300 . S
C672 C564 2.550 1_655 S
C683 C314 0.751 . S
C681 C189 0.758 . S
C694 C410 0.752 . S
C692 C221 0.744 . S
C705 C482 0.774 . S
C703 C253 0.780 . S
C714 C157 0.743 . S
C716 C566 0.745 . S
C725 C61 0.753 . S
C727 C326 0.761 1_554 S
C738 C398 0.736 . S
C736 C93 0.743 . S
C749 C494 0.770 1_554 S
C747 C125 0.766 . S
C758 C29 0.753 . S
C760 C578 0.743 1_554 S
C769 C177 2.584 . S
C771 C311 2.884 . S
C780 C209 2.590 . S
C782 C396 2.963 . S
C793 C479 2.907 . S
C791 C241 2.595 . S
C804 C563 2.910 . S
C802 C145 2.598 . S
C813 C49 2.549 . S
C815 C323 2.886 . S
C826 C408 2.963 . S
C824 C81 2.547 . S
C837 C491 2.904 . S
C835 C113 2.572 . S
C846 C17 2.573 . S
C848 C575 2.908 . S
