# Generated by pormake.
# Topology nom, (4,4)-cn, num edge types: 1
# Building blocks:
#     Node 0, Type 0, BuildingBlock: MUDLON_clean_linker_0, # of connection points: 4
#     Node 1, Type 0, BuildingBlock: MUDLON_clean_linker_0, # of connection points: 4
#     Node 2, Type 0, BuildingBlock: MUDLON_clean_linker_0, # of connection points: 4
#     Node 3, Type 0, BuildingBlock: MUDLON_clean_linker_0, # of connection points: 4
#     Node 4, Type 0, BuildingBlock: MUDLON_clean_linker_0, # of connection points: 4
#     Node 5, Type 0, BuildingBlock: MUDLON_clean_linker_0, # of connection points: 4
#     Node 6, Type 1, BuildingBlock: QUQFOY_clean_sbu_1, # of connection points: 4
#     Node 7, Type 1, BuildingBlock: QUQFOY_clean_sbu_1, # of connection points: 4
#     Node 8, Type 1, BuildingBlock: QUQFOY_clean_sbu_1, # of connection points: 4
#     Node 9, Type 1, BuildingBlock: QUQFOY_clean_sbu_1, # of connection points: 4
#     Node 10, Type 1, BuildingBlock: QUQFOY_clean_sbu_1, # of connection points: 4
#     Node 11, Type 1, BuildingBlock: QUQFOY_clean_sbu_1, # of connection points: 4
#     Edge 12, Type (0, 1), BuildingBlock: TEMPAE_clean_linker_10, # of connection points: 2
#     Edge 13, Type (0, 1), BuildingBlock: TEMPAE_clean_linker_10, # of connection points: 2
#     Edge 14, Type (0, 1), BuildingBlock: TEMPAE_clean_linker_10, # of connection points: 2
#     Edge 15, Type (0, 1), BuildingBlock: TEMPAE_clean_linker_10, # of connection points: 2
#     Edge 16, Type (0, 1), BuildingBlock: TEMPAE_clean_linker_10, # of connection points: 2
#     Edge 17, Type (0, 1), BuildingBlock: TEMPAE_clean_linker_10, # of connection points: 2
#     Edge 18, Type (0, 1), BuildingBlock: TEMPAE_clean_linker_10, # of connection points: 2
#     Edge 19, Type (0, 1), BuildingBlock: TEMPAE_clean_linker_10, # of connection points: 2
#     Edge 20, Type (0, 1), BuildingBlock: TEMPAE_clean_linker_10, # of connection points: 2
#     Edge 21, Type (0, 1), BuildingBlock: TEMPAE_clean_linker_10, # of connection points: 2
#     Edge 22, Type (0, 1), BuildingBlock: TEMPAE_clean_linker_10, # of connection points: 2
#     Edge 23, Type (0, 1), BuildingBlock: TEMPAE_clean_linker_10, # of connection points: 2
#     Edge 24, Type (0, 1), BuildingBlock: TEMPAE_clean_linker_10, # of connection points: 2
#     Edge 25, Type (0, 1), BuildingBlock: TEMPAE_clean_linker_10, # of connection points: 2
#     Edge 26, Type (0, 1), BuildingBlock: TEMPAE_clean_linker_10, # of connection points: 2
#     Edge 27, Type (0, 1), BuildingBlock: TEMPAE_clean_linker_10, # of connection points: 2
#     Edge 28, Type (0, 1), BuildingBlock: TEMPAE_clean_linker_10, # of connection points: 2
#     Edge 29, Type (0, 1), BuildingBlock: TEMPAE_clean_linker_10, # of connection points: 2
#     Edge 30, Type (0, 1), BuildingBlock: TEMPAE_clean_linker_10, # of connection points: 2
#     Edge 31, Type (0, 1), BuildingBlock: TEMPAE_clean_linker_10, # of connection points: 2
#     Edge 32, Type (0, 1), BuildingBlock: TEMPAE_clean_linker_10, # of connection points: 2
#     Edge 33, Type (0, 1), BuildingBlock: TEMPAE_clean_linker_10, # of connection points: 2
#     Edge 34, Type (0, 1), BuildingBlock: TEMPAE_clean_linker_10, # of connection points: 2
#     Edge 35, Type (0, 1), BuildingBlock: TEMPAE_clean_linker_10, # of connection points: 2
# Relax obj value: 0.009
# Max RMSD: 0.106
# Mean RMSD: 0.097
data_MOF--net-nom--node1-QUQFOY_clean_sbu_1--node2-MUDLON_clean_linker_0--edge1-TEMPAE_clean_linker_10
_symmetry_space_group_name_H-M    P1
_symmetry_Int_Tables_number       1
_symmetry_cell_setting            triclinic
loop_
_symmetry_equiv_pos_as_xyz
'x, y, z'
_cell_length_a     63.548288
_cell_length_b     64.40271
_cell_length_c     57.612582
_cell_angle_alpha  90.35668
_cell_angle_beta   89.793809
_cell_angle_gamma 120.44231
loop_
_atom_site_label
_atom_site_type_symbol
_atom_site_fract_x
_atom_site_fract_y
_atom_site_fract_z
_atom_type_partial_charge
H0 H 0.12072 0.57115 0.2995 0.0
N1 N 0.09457 0.59232 0.31335 0.0
H2 H 0.15639 0.58938 0.27413 0.0
H3 H 0.10822 0.62974 0.28574 0.0
H4 H 0.14435 0.64838 0.26061 0.0
H5 H 0.11533 0.63203 0.33907 0.0
H6 H 0.1392 0.63938 0.37465 0.0
H7 H 0.09929 0.55849 0.33775 0.0
H8 H 0.12305 0.56567 0.3732 0.0
H9 H 0.07926 0.54578 0.29946 0.0
H10 H 0.0544 0.59403 0.32075 0.0
H11 H 0.03712 0.51277 0.29685 0.0
H12 H 0.01204 0.56095 0.31851 0.0
H13 H 0.92021 0.42429 0.27192 0.0
H14 H 0.8969 0.41236 0.23544 0.0
H15 H 0.87404 0.46404 0.24877 0.0
H16 H 0.89709 0.47584 0.28471 0.0
H17 H 0.91461 0.48991 0.32443 0.0
H18 H 0.87942 0.48181 0.34807 0.0
H19 H 0.85636 0.40623 0.34898 0.0
H20 H 0.89159 0.41436 0.32492 0.0
H21 H 0.96025 0.4547 0.32093 0.0
H22 H 0.00269 0.48788 0.32268 0.0
H23 H 0.98142 0.53482 0.29035 0.0
N24 N 0.92191 0.45535 0.30372 0.0
H25 H 0.93933 0.50197 0.28905 0.0
C26 C 0.11155 0.599 0.29434 0.0
C27 C 0.12494 0.58736 0.29027 0.0
C28 C 0.14548 0.59788 0.27583 0.0
C29 C 0.15317 0.62034 0.26558 0.0
C30 C 0.13883 0.63108 0.2684 0.0
C31 C 0.11814 0.62041 0.28257 0.0
C32 C 0.10543 0.59478 0.33584 0.0
C33 C 0.1166 0.61738 0.34673 0.0
C34 C 0.13035 0.62158 0.36687 0.0
C35 C 0.13308 0.60313 0.37657 0.0
C36 C 0.12109 0.58017 0.36618 0.0
C37 C 0.10748 0.57604 0.3459 0.0
C38 C 0.07001 0.57254 0.3102 0.0
C39 C 0.06481 0.54938 0.30347 0.0
C40 C 0.04062 0.5304 0.30216 0.0
C41 C 0.02119 0.53419 0.30751 0.0
C42 C 0.02652 0.55744 0.31398 0.0
C43 C 0.05067 0.57635 0.31533 0.0
C44 C 0.91039 0.45079 0.28121 0.0
C45 C 0.91045 0.43325 0.26673 0.0
C46 C 0.89717 0.42648 0.24598 0.0
C47 C 0.88344 0.43708 0.23951 0.0
C48 C 0.88414 0.45529 0.25356 0.0
C49 C 0.8975 0.46215 0.27412 0.0
C50 C 0.90568 0.4526 0.3226 0.0
C51 C 0.90253 0.47169 0.3302 0.0
C52 C 0.88228 0.46704 0.34366 0.0
C53 C 0.86503 0.44336 0.35006 0.0
C54 C 0.86942 0.42466 0.34435 0.0
C55 C 0.88953 0.42928 0.33066 0.0
C56 C 0.94651 0.47566 0.30494 0.0
C57 C 0.9648 0.4722 0.31433 0.0
C58 C 0.98904 0.49111 0.31513 0.0
C59 C 0.99546 0.51399 0.30657 0.0
C60 C 0.97707 0.5175 0.2973 0.0
C61 C 0.95287 0.49858 0.29646 0.0
H62 H 0.44926 0.90333 0.46951 0.0
N63 N 0.42507 0.92835 0.46496 0.0
H64 H 0.43585 0.86758 0.49335 0.0
H65 H 0.39372 0.91445 0.50019 0.0
H66 H 0.38067 0.87889 0.52467 0.0
H67 H 0.38287 0.90212 0.44304 0.0
H68 H 0.37568 0.87968 0.40659 0.0
H69 H 0.46037 0.9316 0.43512 0.0
H70 H 0.45335 0.90917 0.39892 0.0
H71 H 0.47264 0.94614 0.47892 0.0
H72 H 0.42094 0.96651 0.45672 0.0
H73 H 0.5042 0.98846 0.48207 0.0
H74 H 0.45265 0.00899 0.45895 0.0
H75 H 0.58195 0.09956 0.51718 0.0
H76 H 0.58784 0.11964 0.55501 0.0
H77 H 0.53991 0.14525 0.53375 0.0
H78 H 0.53394 0.12514 0.49636 0.0
H79 H 0.52528 0.10721 0.45281 0.0
H80 H 0.53592 0.14294 0.42972 0.0
H81 H 0.61193 0.17197 0.44625 0.0
H82 H 0.60135 0.13594 0.46898 0.0
H83 H 0.56145 0.0655 0.46364 0.0
H84 H 0.52954 0.0232 0.45912 0.0
H85 H 0.47636 0.04018 0.48594 0.0
N86 N 0.55704 0.10142 0.48093 0.0
H87 H 0.50802 0.08229 0.48948 0.0
C88 C 0.42222 0.91148 0.48284 0.0
C89 C 0.43473 0.89862 0.4819 0.0
C90 C 0.42705 0.87814 0.49552 0.0
C91 C 0.40714 0.87044 0.51066 0.0
C92 C 0.39618 0.88456 0.51321 0.0
C93 C 0.4036 0.90484 0.49929 0.0
C94 C 0.42205 0.9186 0.44178 0.0
C95 C 0.39833 0.90411 0.43318 0.0
C96 C 0.39427 0.89117 0.41252 0.0
C97 C 0.41395 0.89253 0.40002 0.0
C98 C 0.43784 0.90793 0.40807 0.0
C99 C 0.44187 0.92079 0.4288 0.0
C100 C 0.4442 0.95312 0.46786 0.0
C101 C 0.46799 0.95967 0.47479 0.0
C102 C 0.48617 0.98399 0.47632 0.0
C103 C 0.48104 0.00224 0.47076 0.0
C104 C 0.45723 0.99552 0.46375 0.0
C105 C 0.43908 0.97126 0.46238 0.0
C106 C 0.55775 0.11095 0.50387 0.0
C107 C 0.57243 0.10917 0.5209 0.0
C108 C 0.57574 0.1206 0.54242 0.0
C109 C 0.56452 0.13419 0.54713 0.0
C110 C 0.54903 0.13516 0.53042 0.0
C111 C 0.54554 0.12356 0.50905 0.0
C112 C 0.56262 0.11882 0.46273 0.0
C113 C 0.54432 0.12072 0.45083 0.0
C114 C 0.55039 0.1412 0.43763 0.0
C115 C 0.5747 0.16019 0.43642 0.0
C116 C 0.59306 0.15756 0.44699 0.0
C117 C 0.58706 0.13698 0.45983 0.0
C118 C 0.5373 0.07709 0.47696 0.0
C119 C 0.54282 0.06005 0.46827 0.0
C120 C 0.5246 0.03586 0.46595 0.0
C121 C 0.50035 0.02816 0.47238 0.0
C122 C 0.49474 0.04543 0.48061 0.0
C123 C 0.51296 0.06962 0.48279 0.0
H124 H 0.49699 0.61679 0.61441 0.0
N125 N 0.48832 0.58525 0.64781 0.0
H126 H 0.46666 0.62016 0.59123 0.0
H127 H 0.43997 0.55062 0.64386 0.0
H128 H 0.40984 0.55318 0.62013 0.0
H129 H 0.46044 0.55083 0.67978 0.0
H130 H 0.44628 0.55787 0.71698 0.0
H131 H 0.50247 0.62734 0.66805 0.0
H132 H 0.48883 0.63462 0.70543 0.0
H133 H 0.53539 0.60077 0.65178 0.0
H134 H 0.46629 0.53651 0.63842 0.0
H135 H 0.55591 0.57748 0.6492 0.0
H136 H 0.48667 0.51328 0.63467 0.0
H137 H 0.61581 0.50351 0.61216 0.0
H138 H 0.62077 0.48723 0.5752 0.0
H139 H 0.54251 0.44541 0.56749 0.0
H140 H 0.53765 0.46269 0.60385 0.0
H141 H 0.53615 0.44471 0.63927 0.0
H142 H 0.5373 0.41321 0.66123 0.0
H143 H 0.60782 0.46539 0.68883 0.0
H144 H 0.60657 0.49717 0.66666 0.0
H145 H 0.58955 0.53561 0.62063 0.0
H146 H 0.56801 0.55791 0.62262 0.0
H147 H 0.50691 0.49693 0.65558 0.0
N148 N 0.57431 0.49107 0.63414 0.0
H149 H 0.52799 0.47441 0.65245 0.0
C150 C 0.47094 0.58345 0.63072 0.0
C151 C 0.47807 0.60252 0.61517 0.0
C152 C 0.46069 0.60439 0.60196 0.0
C153 C 0.43575 0.58709 0.60404 0.0
C154 C 0.42884 0.56706 0.61843 0.0
C155 C 0.44619 0.56535 0.63178 0.0
C156 C 0.4825 0.58867 0.67117 0.0
C157 C 0.46698 0.56916 0.68542 0.0
C158 C 0.45896 0.57321 0.7067 0.0
C159 C 0.46625 0.5968 0.714 0.0
C160 C 0.48257 0.61624 0.7001 0.0
C161 C 0.49057 0.61216 0.6789 0.0
C162 C 0.49943 0.57064 0.64502 0.0
C163 C 0.52471 0.58168 0.64795 0.0
C164 C 0.53639 0.56831 0.64632 0.0
C165 C 0.52302 0.54344 0.6415 0.0
C166 C 0.49756 0.53231 0.63863 0.0
C167 C 0.48584 0.54572 0.64052 0.0
C168 C 0.57646 0.4841 0.61084 0.0
C169 C 0.59978 0.49133 0.60216 0.0
C170 C 0.60257 0.48201 0.58119 0.0
C171 C 0.58199 0.46498 0.5688 0.0
C172 C 0.55859 0.45842 0.57694 0.0
C173 C 0.55583 0.46821 0.59767 0.0
C174 C 0.57139 0.47351 0.65127 0.0
C175 C 0.55157 0.44969 0.65052 0.0
C176 C 0.5523 0.43156 0.66298 0.0
C177 C 0.57281 0.4368 0.67643 0.0
C178 C 0.59173 0.46086 0.67866 0.0
C179 C 0.59102 0.47902 0.66609 0.0
C180 C 0.56071 0.5034 0.63644 0.0
C181 C 0.57148 0.52707 0.62827 0.0
C182 C 0.55917 0.53984 0.62958 0.0
C183 C 0.53573 0.52936 0.63947 0.0
C184 C 0.5248 0.50552 0.64759 0.0
C185 C 0.53705 0.49259 0.64596 0.0
H186 H 0.11522 0.55647 0.79444 0.0
N187 N 0.09426 0.50758 0.79183 0.0
H188 H 0.14969 0.58288 0.81963 0.0
H189 H 0.10737 0.49436 0.83011 0.0
H190 H 0.14153 0.52051 0.85549 0.0
H191 H 0.13434 0.50763 0.77871 0.0
H192 H 0.15805 0.52439 0.74359 0.0
H193 H 0.08006 0.52336 0.75355 0.0
H194 H 0.10227 0.53785 0.71748 0.0
H195 H 0.06885 0.53145 0.79398 0.0
H196 H 0.06136 0.46119 0.79417 0.0
H197 H 0.02439 0.51301 0.79544 0.0
H198 H 0.01716 0.44249 0.79705 0.0
H199 H 0.90125 0.45742 0.82586 0.0
H200 H 0.88091 0.45543 0.8625 0.0
H201 H 0.886 0.39363 0.88254 0.0
H202 H 0.90596 0.39541 0.84539 0.0
H203 H 0.88585 0.3803 0.79347 0.0
H204 H 0.8487 0.36508 0.77013 0.0
H205 H 0.86166 0.43738 0.76393 0.0
H206 H 0.89976 0.45269 0.78614 0.0
H207 H 0.94549 0.47119 0.82371 0.0
H208 H 0.98953 0.49233 0.81863 0.0
H209 H 0.98244 0.43342 0.77627 0.0
N210 N 0.91315 0.42462 0.80994 0.0
H211 H 0.93853 0.41164 0.78297 0.0
C212 C 0.10899 0.52342 0.81031 0.0
C213 C 0.12027 0.54859 0.80832 0.0
C214 C 0.14005 0.56363 0.82261 0.0
C215 C 0.1485 0.55374 0.83932 0.0
C216 C 0.13538 0.52871 0.84289 0.0
C217 C 0.11586 0.51371 0.82843 0.0
C218 C 0.10545 0.51422 0.7691 0.0
C219 C 0.12718 0.51407 0.7653 0.0
C220 C 0.14064 0.52354 0.745 0.0
C221 C 0.13231 0.53272 0.72745 0.0
C222 C 0.10979 0.53166 0.73075 0.0
C223 C 0.09673 0.52294 0.75146 0.0
C224 C 0.06828 0.49756 0.79372 0.0
C225 C 0.05757 0.51203 0.79455 0.0
C226 C 0.03213 0.50141 0.7955 0.0
C227 C 0.01696 0.47614 0.79609 0.0
C228 C 0.02801 0.46191 0.79588 0.0
C229 C 0.05331 0.47253 0.79453 0.0
C230 C 0.90489 0.42633 0.83281 0.0
C231 C 0.89818 0.44354 0.83812 0.0
C232 C 0.88656 0.44241 0.85908 0.0
C233 C 0.88173 0.42426 0.8752 0.0
C234 C 0.88964 0.40787 0.87043 0.0
C235 C 0.90101 0.40886 0.84931 0.0
C236 C 0.89519 0.41745 0.79187 0.0
C237 C 0.88117 0.39294 0.78628 0.0
C238 C 0.86001 0.38431 0.77301 0.0
C239 C 0.85231 0.40008 0.76547 0.0
C240 C 0.86724 0.42491 0.76968 0.0
C241 C 0.88885 0.43362 0.78245 0.0
C242 C 0.9386 0.43948 0.80403 0.0
C243 C 0.9533 0.46279 0.81325 0.0
C244 C 0.97865 0.47504 0.81016 0.0
C245 C 0.98981 0.46446 0.79741 0.0
C246 C 0.97475 0.44187 0.78686 0.0
C247 C 0.94954 0.42949 0.79037 0.0
H248 H 0.51375 0.1216 0.01099 0.0
N249 N 0.51945 0.09598 0.97768 0.0
H250 H 0.54579 0.15864 0.02935 0.0
H251 H 0.56864 0.1131 0.97523 0.0
H252 H 0.60062 0.14988 0.99348 0.0
H253 H 0.54541 0.09358 0.94063 0.0
H254 H 0.55354 0.11566 0.9043 0.0
H255 H 0.49848 0.12025 0.96273 0.0
H256 H 0.50658 0.14246 0.92623 0.0
H257 H 0.48777 0.05732 0.95257 0.0
H258 H 0.54163 0.07847 0.00708 0.0
H259 H 0.48163 0.01681 0.95308 0.0
H260 H 0.53518 0.03817 0.00764 0.0
H261 H 0.4643 0.92797 0.01882 0.0
H262 H 0.45537 0.90631 0.05538 0.0
H263 H 0.51122 0.88866 0.04066 0.0
H264 H 0.51993 0.91029 0.00378 0.0
H265 H 0.51189 0.91561 0.94914 0.0
H266 H 0.48942 0.8776 0.9277 0.0
H267 H 0.42321 0.86244 0.96322 0.0
H268 H 0.44573 0.90015 0.98468 0.0
H269 H 0.45957 0.94076 0.97856 0.0
H270 H 0.46528 0.9811 0.97699 0.0
H271 H 0.5432 0.01166 0.9838 0.0
N272 N 0.4956 0.92947 0.98503 0.0
H273 H 0.53721 0.97107 0.98587 0.0
C274 C 0.53868 0.11458 0.99175 0.0
C275 C 0.53271 0.12736 0.00763 0.0
C276 C 0.55102 0.14851 0.01804 0.0
C277 C 0.57569 0.15732 0.01259 0.0
C278 C 0.58174 0.14376 0.99769 0.0
C279 C 0.56347 0.12265 0.98733 0.0
C280 C 0.52118 0.1052 0.95446 0.0
C281 C 0.53639 0.10374 0.93746 0.0
C282 C 0.54102 0.11635 0.91666 0.0
C283 C 0.5308 0.13088 0.91253 0.0
C284 C 0.51485 0.13156 0.92907 0.0
C285 C 0.51004 0.11875 0.94979 0.0
C286 C 0.51631 0.07193 0.97863 0.0
C287 C 0.49861 0.05353 0.96438 0.0
C288 C 0.49486 0.03019 0.96486 0.0
C289 C 0.50829 0.02436 0.98006 0.0
C290 C 0.52512 0.04228 0.99514 0.0
C291 C 0.5289 0.06563 0.99468 0.0
C292 C 0.49292 0.92081 0.00851 0.0
C293 C 0.47508 0.92001 0.02363 0.0
C294 C 0.46998 0.90759 0.0446 0.0
C295 C 0.48247 0.89563 0.05081 0.0
C296 C 0.5011 0.89747 0.03621 0.0
C297 C 0.50625 0.90997 0.01529 0.0
C298 C 0.48068 0.91081 0.96854 0.0
C299 C 0.49236 0.90451 0.95161 0.0
C300 C 0.47947 0.88278 0.9394 0.0
C301 C 0.4546 0.86689 0.94402 0.0
C302 C 0.44243 0.87419 0.95951 0.0
C303 C 0.45531 0.89595 0.97166 0.0
C304 C 0.49808 0.95285 0.98228 0.0
C305 C 0.47789 0.95603 0.97953 0.0
C306 C 0.4812 0.97921 0.97857 0.0
C307 C 0.5047 0.99965 0.98036 0.0
C308 C 0.52482 0.99634 0.98273 0.0
C309 C 0.52149 0.9732 0.9837 0.0
H310 H 0.56563 0.45915 0.14926 0.0
N311 N 0.58848 0.5081 0.15549 0.0
H312 H 0.58081 0.43819 0.12522 0.0
H313 H 0.62116 0.5272 0.12155 0.0
H314 H 0.63628 0.50621 0.09716 0.0
H315 H 0.6307 0.52471 0.17742 0.0
H316 H 0.63833 0.50914 0.21317 0.0
H317 H 0.55343 0.47532 0.18502 0.0
H318 H 0.56092 0.45988 0.2207 0.0
H319 H 0.54057 0.47668 0.14374 0.0
H320 H 0.59225 0.55072 0.16065 0.0
H321 H 0.5082 0.48641 0.14055 0.0
H322 H 0.55989 0.56061 0.15777 0.0
H323 H 0.42133 0.51528 0.11469 0.0
H324 H 0.40799 0.52451 0.07807 0.0
H325 H 0.4618 0.59971 0.08709 0.0
H326 H 0.47537 0.59053 0.12296 0.0
H327 H 0.49128 0.58933 0.16237 0.0
H328 H 0.48558 0.61787 0.18558 0.0
H329 H 0.40852 0.56625 0.19074 0.0
H330 H 0.41427 0.53769 0.16721 0.0
H331 H 0.45242 0.50825 0.16382 0.0
H332 H 0.48482 0.49827 0.16587 0.0
H333 H 0.53336 0.56384 0.12925 0.0
N334 N 0.45437 0.54648 0.14452 0.0
H335 H 0.50118 0.57378 0.12757 0.0
C336 C 0.59245 0.4949 0.13734 0.0
C337 C 0.58053 0.46956 0.13742 0.0
C338 C 0.5893 0.45756 0.12376 0.0
C339 C 0.60988 0.47061 0.10954 0.0
C340 C 0.62031 0.49569 0.10786 0.0
C341 C 0.61169 0.5077 0.12174 0.0
C342 C 0.59159 0.50141 0.17855 0.0
C343 C 0.61537 0.51096 0.1871 0.0
C344 C 0.6197 0.50191 0.20735 0.0
C345 C 0.60022 0.4832 0.21958 0.0
C346 C 0.57625 0.47443 0.2117 0.0
C347 C 0.57195 0.48332 0.19128 0.0
C348 C 0.56897 0.5131 0.15235 0.0
C349 C 0.54503 0.49506 0.14666 0.0
C350 C 0.52646 0.50063 0.14501 0.0
C351 C 0.53144 0.5243 0.14893 0.0
C352 C 0.55546 0.54228 0.15436 0.0
C353 C 0.57395 0.53667 0.15609 0.0
C354 C 0.44912 0.55208 0.12178 0.0
C355 C 0.43049 0.53365 0.1085 0.0
C356 C 0.4229 0.53894 0.08769 0.0
C357 C 0.43368 0.56286 0.08005 0.0
C358 C 0.45297 0.58117 0.09284 0.0
C359 C 0.46078 0.57586 0.11337 0.0
C360 C 0.45306 0.56126 0.16281 0.0
C361 C 0.47326 0.58375 0.16897 0.0
C362 C 0.46998 0.60018 0.18217 0.0
C363 C 0.44656 0.59438 0.1897 0.0
C364 C 0.42679 0.57118 0.18526 0.0
C365 C 0.43004 0.55484 0.17186 0.0
C366 C 0.47422 0.54168 0.14564 0.0
C367 C 0.47009 0.52045 0.15631 0.0
C368 C 0.48856 0.51471 0.15729 0.0
C369 C 0.51167 0.53023 0.14766 0.0
C370 C 0.51585 0.55161 0.13705 0.0
C371 C 0.49734 0.55728 0.136 0.0
O372 O 0.60518 0.37617 0.41925 0.0
Cd373 Cd 0.6125 0.36278 0.38959 0.0
Cd374 Cd 0.65749 0.40037 0.39586 0.0
O375 O 0.64357 0.40234 0.42764 0.0
O376 O 0.58791 0.32768 0.38819 0.0
O377 O 0.62765 0.3421 0.39196 0.0
C378 C 0.60576 0.32374 0.39071 0.0
C379 C 0.69608 0.40425 0.39443 0.0
C380 C 0.62105 0.39186 0.43284 0.0
C381 C 0.629 0.40089 0.35411 0.0
O382 O 0.64743 0.41268 0.36725 0.0
O383 O 0.61307 0.37925 0.35888 0.0
O384 O 0.69343 0.42239 0.39904 0.0
O385 O 0.67666 0.3836 0.39091 0.0
O386 O 0.24435 0.60551 0.57449 0.0
Cd387 Cd 0.26842 0.61971 0.54708 0.0
Cd388 Cd 0.26739 0.6591 0.55895 0.0
O389 O 0.25204 0.64038 0.58926 0.0
O390 O 0.283 0.59894 0.54267 0.0
O391 O 0.30435 0.63716 0.55369 0.0
C392 C 0.3036 0.61712 0.54908 0.0
C393 C 0.29779 0.69973 0.5598 0.0
C394 C 0.24182 0.6176 0.59064 0.0
C395 C 0.24384 0.63438 0.51363 0.0
O396 O 0.24557 0.64888 0.52959 0.0
O397 O 0.25415 0.62201 0.51595 0.0
O398 O 0.2753 0.69291 0.56418 0.0
O399 O 0.30333 0.68328 0.55594 0.0
O400 O 0.61641 0.24358 0.76499 0.0
Cd401 Cd 0.63351 0.26079 0.73448 0.0
Cd402 Cd 0.59147 0.26121 0.72906 0.0
O403 O 0.58208 0.24372 0.76039 0.0
O404 O 0.66783 0.26872 0.7392 0.0
O405 O 0.65779 0.29652 0.73336 0.0
C406 C 0.67448 0.29113 0.73713 0.0
C407 C 0.59019 0.29646 0.72486 0.0
C408 C 0.59528 0.23808 0.77217 0.0
C409 C 0.60258 0.23466 0.69284 0.0
O410 O 0.5875 0.24073 0.70002 0.0
O411 O 0.62227 0.24118 0.70391 0.0
O412 O 0.57048 0.27564 0.72511 0.0
O413 O 0.61083 0.29728 0.72709 0.0
O414 O 0.40268 0.64099 0.93023 0.0
Cd415 Cd 0.4007 0.65797 0.90086 0.0
Cd416 Cd 0.35806 0.61604 0.89508 0.0
O417 O 0.36728 0.60732 0.92647 0.0
O418 O 0.425 0.69263 0.90586 0.0
O419 O 0.38554 0.67891 0.90144 0.0
C420 C 0.40729 0.69692 0.90489 0.0
C421 C 0.31834 0.60862 0.89009 0.0
C422 C 0.38699 0.62024 0.93761 0.0
C423 C 0.39703 0.62943 0.85853 0.0
O424 O 0.37567 0.61421 0.8655 0.0
O425 O 0.41018 0.6486 0.87006 0.0
O426 O 0.32319 0.59147 0.88972 0.0
O427 O 0.33616 0.63028 0.89374 0.0
O428 O 0.76828 0.37263 0.02662 0.0
Cd429 Cd 0.74854 0.3604 0.05705 0.0
Cd430 Cd 0.75604 0.4058 0.05749 0.0
O431 O 0.77356 0.40924 0.02638 0.0
O432 O 0.73483 0.32494 0.05621 0.0
O433 O 0.71178 0.34158 0.05575 0.0
C434 C 0.71338 0.32236 0.05533 0.0
C435 C 0.72565 0.41584 0.06053 0.0
C436 C 0.7768 0.39311 0.01711 0.0
C437 C 0.77749 0.39227 0.09686 0.0
O438 O 0.77535 0.40877 0.08716 0.0
O439 O 0.76741 0.37127 0.08804 0.0
O440 O 0.74845 0.43217 0.05971 0.0
O441 O 0.71997 0.39356 0.05902 0.0
O442 O 0.42171 0.78095 0.20209 0.0
Cd443 Cd 0.40806 0.75956 0.23115 0.0
Cd444 Cd 0.36683 0.75812 0.21904 0.0
O445 O 0.38604 0.77367 0.18902 0.0
O446 O 0.42948 0.74598 0.23777 0.0
O447 O 0.39095 0.72378 0.22658 0.0
C448 C 0.41132 0.72515 0.2321 0.0
C449 C 0.32693 0.72556 0.21765 0.0
C450 C 0.40899 0.78329 0.18647 0.0
C451 C 0.39073 0.78405 0.26335 0.0
O452 O 0.375 0.78016 0.24779 0.0
O453 O 0.40493 0.77565 0.26103 0.0
O454 O 0.33202 0.74687 0.2117 0.0
O455 O 0.34473 0.72249 0.22365 0.0
C456 C 0.19414 0.65725 0.26324 0.0
C457 C 0.17773 0.63407 0.25494 0.0
C458 C 0.21816 0.67013 0.25497 0.0
C459 C 0.22587 0.65978 0.2376 0.0
C460 C 0.20922 0.63655 0.22875 0.0
C461 C 0.18536 0.62379 0.23778 0.0
C462 C 0.23542 0.69466 0.26521 0.0
C463 C 0.21664 0.62518 0.20988 0.0
C464 C 0.28292 0.70731 0.20732 0.0
C465 C 0.30122 0.70596 0.21956 0.0
C466 C 0.25814 0.69104 0.2117 0.0
C467 C 0.25155 0.67344 0.22917 0.0
C468 C 0.26995 0.67115 0.24065 0.0
C469 C 0.2946 0.6873 0.2355 0.0
C470 C 0.23908 0.69368 0.19863 0.0
C471 C 0.26373 0.6529 0.25966 0.0
H472 H 0.18837 0.66502 0.27682 0.0
H473 H 0.17264 0.60584 0.23139 0.0
H474 H 0.25149 0.69479 0.27286 0.0
H475 H 0.24225 0.70849 0.25139 0.0
H476 H 0.22663 0.69993 0.27889 0.0
H477 H 0.20121 0.60751 0.20411 0.0
H478 H 0.22378 0.63734 0.19468 0.0
H479 H 0.23157 0.62251 0.21617 0.0
H480 H 0.28798 0.72157 0.19479 0.0
H481 H 0.3087 0.68625 0.24506 0.0
H482 H 0.23099 0.70155 0.21029 0.0
H483 H 0.22408 0.67582 0.19278 0.0
H484 H 0.24689 0.70554 0.18327 0.0
H485 H 0.25682 0.65811 0.27502 0.0
H486 H 0.2798 0.65161 0.26506 0.0
H487 H 0.24905 0.63483 0.25396 0.0
C488 C 0.5916 0.20419 0.44141 0.0
C489 C 0.58052 0.18384 0.42696 0.0
C490 C 0.59592 0.2266 0.43367 0.0
C491 C 0.58949 0.22886 0.4107 0.0
C492 C 0.5789 0.20847 0.39579 0.0
C493 C 0.57417 0.18605 0.40424 0.0
C494 C 0.60668 0.2477 0.45034 0.0
C495 C 0.57236 0.21031 0.37103 0.0
C496 C 0.5781 0.2806 0.40102 0.0
C497 C 0.60106 0.29891 0.3935 0.0
C498 C 0.57388 0.2575 0.40604 0.0
C499 C 0.59291 0.25239 0.40288 0.0
C500 C 0.61578 0.27047 0.39416 0.0
C501 C 0.6197 0.29364 0.38988 0.0
C502 C 0.54942 0.23894 0.41582 0.0
C503 C 0.63632 0.26554 0.39 0.0
H504 H 0.5962 0.20236 0.4591 0.0
H505 H 0.56561 0.17026 0.3931 0.0
H506 H 0.62382 0.26274 0.44313 0.0
H507 H 0.5938 0.25439 0.45276 0.0
H508 H 0.6107 0.24291 0.4676 0.0
H509 H 0.56599 0.19326 0.36119 0.0
H510 H 0.55771 0.21488 0.37078 0.0
H511 H 0.5884 0.22502 0.36199 0.0
H512 H 0.56366 0.2846 0.40396 0.0
H513 H 0.63743 0.30768 0.38388 0.0
H514 H 0.55183 0.23439 0.43379 0.0
H515 H 0.54151 0.2221 0.40543 0.0
H516 H 0.53618 0.24539 0.41618 0.0
H517 H 0.64301 0.26289 0.40684 0.0
H518 H 0.6519 0.28053 0.38069 0.0
H519 H 0.62971 0.24872 0.37974 0.0
C520 C 0.39599 0.58629 0.60583 0.0
C521 C 0.41688 0.59109 0.59316 0.0
C522 C 0.37853 0.59109 0.5966 0.0
C523 C 0.38204 0.60113 0.57415 0.0
C524 C 0.40297 0.60592 0.56114 0.0
C525 C 0.42015 0.60083 0.5708 0.0
C526 C 0.35646 0.5857 0.61106 0.0
C527 C 0.40728 0.61659 0.53714 0.0
C528 C 0.32401 0.59265 0.54677 0.0
C529 C 0.32516 0.6144 0.55259 0.0
C530 C 0.34304 0.58857 0.55258 0.0
C531 C 0.36369 0.60664 0.56458 0.0
C532 C 0.36553 0.62909 0.56945 0.0
C533 C 0.34625 0.63272 0.56335 0.0
C534 C 0.34044 0.56445 0.54696 0.0
C535 C 0.38728 0.64882 0.58219 0.0
H536 H 0.39355 0.57931 0.62331 0.0
H537 H 0.43614 0.60445 0.56083 0.0
H538 H 0.35613 0.60253 0.61431 0.0
H539 H 0.33951 0.57318 0.60153 0.0
H540 H 0.35625 0.57752 0.62804 0.0
H541 H 0.4243 0.61897 0.52917 0.0
H542 H 0.39168 0.60484 0.52567 0.0
H543 H 0.40848 0.63438 0.53794 0.0
H544 H 0.30787 0.57845 0.5383 0.0
H545 H 0.34732 0.6496 0.56785 0.0
H546 H 0.33791 0.55435 0.56326 0.0
H547 H 0.35723 0.56688 0.53847 0.0
H548 H 0.32462 0.55337 0.5354 0.0
H549 H 0.38729 0.64317 0.60034 0.0
H550 H 0.38712 0.66599 0.58255 0.0
H551 H 0.4045 0.6521 0.57397 0.0
C552 C 0.81919 0.37406 0.7375 0.0
C553 C 0.82721 0.38994 0.75645 0.0
C554 C 0.7943 0.36065 0.73177 0.0
C555 C 0.77705 0.36265 0.74582 0.0
C556 C 0.78528 0.37969 0.7642 0.0
C557 C 0.81033 0.39333 0.76913 0.0
C558 C 0.78636 0.3432 0.71162 0.0
C559 C 0.76754 0.38203 0.77994 0.0
C560 C 0.71004 0.3321 0.72824 0.0
C561 C 0.70049 0.30985 0.73944 0.0
C562 C 0.73504 0.34946 0.72982 0.0
C563 C 0.75057 0.34463 0.74347 0.0
C564 C 0.7408 0.32235 0.75518 0.0
C565 C 0.716 0.30513 0.75274 0.0
C566 C 0.74492 0.37274 0.71661 0.0
C567 C 0.75655 0.31667 0.7704 0.0
H568 H 0.83231 0.37146 0.72774 0.0
H569 H 0.81655 0.4054 0.78399 0.0
H570 H 0.77798 0.32455 0.71829 0.0
H571 H 0.77237 0.34428 0.70107 0.0
H572 H 0.80194 0.34668 0.70022 0.0
H573 H 0.77685 0.398 0.79158 0.0
H574 H 0.75358 0.38339 0.76966 0.0
H575 H 0.75782 0.36567 0.79085 0.0
H576 H 0.69809 0.3357 0.71779 0.0
H577 H 0.70862 0.28801 0.76157 0.0
H578 H 0.75926 0.37461 0.70431 0.0
H579 H 0.75361 0.38828 0.72875 0.0
H580 H 0.73048 0.3737 0.70671 0.0
H581 H 0.7711 0.31651 0.75984 0.0
H582 H 0.74589 0.29895 0.7791 0.0
H583 H 0.76564 0.33082 0.78391 0.0
C584 C 0.44589 0.83636 0.91253 0.0
C585 C 0.44254 0.84163 0.93543 0.0
C586 C 0.43759 0.81251 0.90543 0.0
C587 C 0.42603 0.79361 0.92174 0.0
C588 C 0.42153 0.79873 0.94454 0.0
C589 C 0.42975 0.82264 0.95106 0.0
C590 C 0.44236 0.80773 0.88086 0.0
C591 C 0.40953 0.77917 0.96255 0.0
C592 C 0.39378 0.72745 0.90395 0.0
C593 C 0.41202 0.72176 0.90816 0.0
C594 C 0.39823 0.75097 0.9076 0.0
C595 C 0.42131 0.76904 0.91596 0.0
C596 C 0.43982 0.76341 0.91999 0.0
C597 C 0.43499 0.73992 0.9159 0.0
C598 C 0.37818 0.7564 0.90283 0.0
C599 C 0.4646 0.78207 0.92917 0.0
H600 H 0.4556 0.85096 0.90034 0.0
H601 H 0.42741 0.8266 0.96888 0.0
H602 H 0.45682 0.80289 0.88086 0.0
H603 H 0.42571 0.79228 0.87329 0.0
H604 H 0.44838 0.82367 0.86955 0.0
H605 H 0.4052 0.78573 0.97874 0.0
H606 H 0.39243 0.76377 0.95563 0.0
H607 H 0.42191 0.77233 0.96697 0.0
H608 H 0.37603 0.71353 0.89783 0.0
H609 H 0.44918 0.7357 0.91924 0.0
H610 H 0.3849 0.77203 0.89099 0.0
H611 H 0.37263 0.7614 0.91924 0.0
H612 H 0.36184 0.74081 0.89494 0.0
H613 H 0.47319 0.7978 0.9174 0.0
H614 H 0.47712 0.77487 0.93099 0.0
H615 H 0.46257 0.78865 0.9464 0.0
C616 C 0.62854 0.44485 0.11343 0.0
C617 C 0.62258 0.45874 0.09926 0.0
C618 C 0.64356 0.43625 0.1053 0.0
C619 C 0.65255 0.44134 0.08226 0.0
C620 C 0.6455 0.45425 0.06745 0.0
C621 C 0.63084 0.46308 0.07623 0.0
C622 C 0.65099 0.42299 0.12183 0.0
C623 C 0.65426 0.45957 0.04264 0.0
C624 C 0.71376 0.44573 0.07265 0.0
C625 C 0.70684 0.42264 0.06431 0.0
C626 C 0.69627 0.45215 0.07807 0.0
C627 C 0.6712 0.43524 0.07462 0.0
C628 C 0.66412 0.41218 0.06535 0.0
C629 C 0.68202 0.40604 0.06054 0.0
C630 C 0.70461 0.47678 0.08832 0.0
C631 C 0.63762 0.39387 0.06095 0.0
H632 H 0.62251 0.44178 0.13136 0.0
H633 H 0.62617 0.47375 0.06522 0.0
H634 H 0.64741 0.40572 0.11402 0.0
H635 H 0.67089 0.43396 0.12524 0.0
H636 H 0.64117 0.41914 0.13867 0.0
H637 H 0.64465 0.46695 0.03259 0.0
H638 H 0.67411 0.47289 0.04234 0.0
H639 H 0.65154 0.443 0.03386 0.0
H640 H 0.73289 0.45863 0.07569 0.0
H641 H 0.67658 0.38822 0.05395 0.0
H642 H 0.69695 0.47487 0.10604 0.0
H643 H 0.69775 0.48643 0.07773 0.0
H644 H 0.72481 0.48803 0.0894 0.0
H645 H 0.62767 0.38811 0.0777 0.0
H646 H 0.63531 0.37767 0.05168 0.0
H647 H 0.62898 0.402 0.05055 0.0
C648 C 0.38751 0.82606 0.50621 0.0
C649 C 0.39545 0.84606 0.52091 0.0
C650 C 0.37348 0.80256 0.51473 0.0
C651 C 0.36774 0.79895 0.53869 0.0
C652 C 0.37685 0.8191 0.55385 0.0
C653 C 0.39028 0.84249 0.5447 0.0
C654 C 0.36364 0.78169 0.49784 0.0
C655 C 0.37172 0.81596 0.57957 0.0
C656 C 0.30821 0.74198 0.55263 0.0
C657 C 0.31606 0.72564 0.55726 0.0
C658 C 0.32493 0.76608 0.54729 0.0
C659 C 0.35023 0.77427 0.5472 0.0
C660 C 0.35838 0.75819 0.55319 0.0
C661 C 0.34116 0.73392 0.5578 0.0
C662 C 0.31538 0.78243 0.54049 0.0
C663 C 0.38522 0.76642 0.55398 0.0
H664 H 0.39123 0.82884 0.48776 0.0
H665 H 0.39647 0.858 0.55605 0.0
H666 H 0.36856 0.76827 0.50351 0.0
H667 H 0.34341 0.77248 0.49742 0.0
H668 H 0.37065 0.7875 0.47994 0.0
H669 H 0.38289 0.83304 0.58934 0.0
H670 H 0.35217 0.80963 0.58276 0.0
H671 H 0.37542 0.80209 0.58652 0.0
H672 H 0.28883 0.73568 0.55206 0.0
H673 H 0.34733 0.72139 0.56155 0.0
H674 H 0.32032 0.7881 0.52217 0.0
H675 H 0.3239 0.79897 0.55135 0.0
H676 H 0.29524 0.77353 0.54229 0.0
H677 H 0.39278 0.77003 0.53611 0.0
H678 H 0.38865 0.75274 0.56193 0.0
H679 H 0.39532 0.78349 0.56397 0.0
C680 C 0.5834 0.41752 0.70866 0.0
C681 C 0.5756 0.41692 0.68581 0.0
C682 C 0.58654 0.39884 0.71719 0.0
C683 C 0.58216 0.37942 0.70236 0.0
C684 C 0.57453 0.37892 0.67921 0.0
C685 C 0.57124 0.3976 0.67128 0.0
C686 C 0.59437 0.39979 0.74206 0.0
C687 C 0.56996 0.35872 0.66273 0.0
C688 C 0.60948 0.33989 0.71383 0.0
C689 C 0.58895 0.31856 0.72137 0.0
C690 C 0.60779 0.36023 0.70837 0.0
C691 C 0.58513 0.35929 0.71089 0.0
C692 C 0.56468 0.33818 0.7196 0.0
C693 C 0.56678 0.31801 0.72454 0.0
C694 C 0.62993 0.3823 0.69884 0.0
C695 C 0.54031 0.33657 0.72287 0.0
H696 H 0.58677 0.43245 0.71991 0.0
H697 H 0.56568 0.39733 0.65345 0.0
H698 H 0.58045 0.3836 0.75146 0.0
H699 H 0.61171 0.39958 0.74266 0.0
H700 H 0.597 0.4161 0.75135 0.0
H701 H 0.56466 0.36134 0.64511 0.0
H702 H 0.58661 0.35732 0.66121 0.0
H703 H 0.5552 0.34131 0.6696 0.0
H704 H 0.62665 0.3404 0.71133 0.0
H705 H 0.5509 0.30164 0.73061 0.0
H706 H 0.6333 0.39861 0.70858 0.0
H707 H 0.62662 0.38488 0.68046 0.0
H708 H 0.64662 0.38087 0.69964 0.0
H709 H 0.54256 0.35234 0.73289 0.0
H710 H 0.52695 0.31987 0.73203 0.0
H711 H 0.53261 0.33686 0.7057 0.0
C712 C 0.17682 0.56559 0.87348 0.0
C713 C 0.17297 0.56849 0.85006 0.0
C714 C 0.20056 0.57545 0.8824 0.0
C715 C 0.22086 0.58809 0.86743 0.0
C716 C 0.21705 0.59252 0.84422 0.0
C717 C 0.19316 0.58277 0.83586 0.0
C718 C 0.20385 0.57081 0.9074 0.0
C719 C 0.23811 0.60566 0.82757 0.0
C720 C 0.28657 0.62093 0.88922 0.0
C721 C 0.29317 0.60341 0.88557 0.0
C722 C 0.26283 0.61606 0.88411 0.0
C723 C 0.24553 0.59331 0.87477 0.0
C724 C 0.25208 0.57552 0.87132 0.0
C725 C 0.2757 0.58073 0.87693 0.0
C726 C 0.25636 0.63529 0.88839 0.0
C727 C 0.23432 0.55111 0.86114 0.0
H728 H 0.16125 0.55473 0.88455 0.0
H729 H 0.19033 0.58484 0.81767 0.0
H730 H 0.20896 0.55671 0.90814 0.0
H731 H 0.2188 0.58731 0.91563 0.0
H732 H 0.18687 0.56459 0.91766 0.0
H733 H 0.23238 0.61028 0.81112 0.0
H734 H 0.25282 0.62246 0.83557 0.0
H735 H 0.24594 0.59411 0.82334 0.0
H736 H 0.29995 0.63846 0.89602 0.0
H737 H 0.28065 0.5671 0.87399 0.0
H738 H 0.23953 0.62799 0.89906 0.0
H739 H 0.25251 0.64111 0.87164 0.0
H740 H 0.27124 0.65133 0.89734 0.0
H741 H 0.21764 0.54199 0.87202 0.0
H742 H 0.24223 0.53923 0.85975 0.0
H743 H 0.22863 0.5533 0.84357 0.0
C744 C 0.59548 0.18865 0.04399 0.0
C745 C 0.59493 0.18143 0.02087 0.0
C746 C 0.6136 0.2116 0.05169 0.0
C747 C 0.63142 0.22769 0.03582 0.0
C748 C 0.63071 0.22057 0.01241 0.0
C749 C 0.61253 0.19756 0.00525 0.0
C750 C 0.6139 0.21851 0.07682 0.0
C751 C 0.64926 0.23725 0.9949 0.0
C752 C 0.66887 0.29519 0.04677 0.0
C753 C 0.69155 0.29807 0.05284 0.0
C754 C 0.64875 0.27222 0.04207 0.0
C755 C 0.6514 0.25172 0.04365 0.0
C756 C 0.67394 0.25445 0.05084 0.0
C757 C 0.69375 0.27758 0.05526 0.0
C758 C 0.62502 0.27002 0.03439 0.0
C759 C 0.67746 0.23304 0.05292 0.0
H760 H 0.58194 0.17622 0.05613 0.0
H761 H 0.61189 0.19226 0.98725 0.0
H762 H 0.63118 0.2221 0.08509 0.0
H763 H 0.61322 0.23535 0.07806 0.0
H764 H 0.59835 0.20421 0.08678 0.0
H765 H 0.64575 0.2292 0.97721 0.0
H766 H 0.64911 0.25438 0.99408 0.0
H767 H 0.66785 0.24176 0.00033 0.0
H768 H 0.66703 0.31093 0.0449 0.0
H769 H 0.71116 0.27963 0.06015 0.0
H770 H 0.6096 0.25617 0.04477 0.0
H771 H 0.62147 0.2641 0.01597 0.0
H772 H 0.62525 0.28733 0.03603 0.0
H773 H 0.66277 0.21885 0.0637 0.0
H774 H 0.69538 0.23796 0.06071 0.0
H775 H 0.67634 0.22515 0.03547 0.0
C776 C 0.42754 0.60889 0.21914 0.0
C777 C 0.44226 0.61329 0.19948 0.0
C778 C 0.42191 0.62618 0.2272 0.0
C779 C 0.43081 0.6481 0.215 0.0
C780 C 0.44591 0.65268 0.1953 0.0
C781 C 0.45157 0.63531 0.18789 0.0
C782 C 0.40617 0.62087 0.24854 0.0
C783 C 0.4555 0.67566 0.18157 0.0
C784 C 0.39822 0.68383 0.21708 0.0
C785 C 0.41445 0.70392 0.23039 0.0
C786 C 0.40281 0.665 0.2127 0.0
C787 C 0.42389 0.6661 0.22219 0.0
C788 C 0.43953 0.68565 0.23678 0.0
C789 C 0.43475 0.70444 0.24051 0.0
C790 C 0.38583 0.64463 0.19682 0.0
C791 C 0.46191 0.68725 0.24761 0.0
H792 H 0.42036 0.59189 0.22814 0.0
H793 H 0.46259 0.63859 0.17244 0.0
H794 H 0.4154 0.63572 0.26137 0.0
H795 H 0.38871 0.61974 0.24381 0.0
H796 H 0.40202 0.6037 0.25689 0.0
H797 H 0.4672 0.67653 0.1668 0.0
H798 H 0.44002 0.67711 0.17468 0.0
H799 H 0.4663 0.69149 0.193 0.0
H800 H 0.38253 0.68334 0.20916 0.0
H801 H 0.44725 0.71983 0.25099 0.0
H802 H 0.38002 0.62701 0.20505 0.0
H803 H 0.39559 0.64535 0.18055 0.0
H804 H 0.36931 0.64547 0.19227 0.0
H805 H 0.45718 0.66999 0.25607 0.0
H806 H 0.47048 0.70198 0.26069 0.0
H807 H 0.47557 0.6906 0.23391 0.0
C808 C 0.83107 0.42273 0.37909 0.0
C809 C 0.84109 0.43775 0.35976 0.0
C810 C 0.80763 0.41622 0.38723 0.0
C811 C 0.79378 0.42449 0.37538 0.0
C812 C 0.8039 0.43967 0.35587 0.0
C813 C 0.82748 0.44626 0.34843 0.0
C814 C 0.79763 0.40042 0.40837 0.0
C815 C 0.78962 0.44858 0.3425 0.0
C816 C 0.72456 0.39159 0.37852 0.0
C817 C 0.72077 0.40755 0.39206 0.0
C818 C 0.74829 0.39634 0.37369 0.0
C819 C 0.76861 0.41729 0.38306 0.0
C820 C 0.76476 0.43264 0.39791 0.0
C821 C 0.7409 0.42774 0.40202 0.0
C822 C 0.75163 0.37972 0.35748 0.0
C823 C 0.7859 0.45485 0.40864 0.0
H824 H 0.84161 0.41613 0.38783 0.0
H825 H 0.83502 0.45749 0.33321 0.0
H826 H 0.79219 0.40935 0.42167 0.0
H827 H 0.78102 0.3832 0.40365 0.0
H828 H 0.81109 0.39635 0.41617 0.0
H829 H 0.80004 0.46001 0.32753 0.0
H830 H 0.77239 0.43304 0.33593 0.0
H831 H 0.7846 0.4592 0.3541 0.0
H832 H 0.70905 0.37599 0.37075 0.0
H833 H 0.73803 0.44 0.41271 0.0
H834 H 0.76408 0.37434 0.36526 0.0
H835 H 0.76017 0.38932 0.34109 0.0
H836 H 0.73404 0.36321 0.35322 0.0
H837 H 0.79889 0.45036 0.41676 0.0
H838 H 0.77979 0.46319 0.42198 0.0
H839 H 0.79597 0.46836 0.39494 0.0
C840 C 0.17282 0.62869 0.39689 0.0
C841 C 0.14941 0.60818 0.39675 0.0
C842 C 0.1888 0.63352 0.41554 0.0
C843 C 0.1811 0.61754 0.43458 0.0
C844 C 0.15742 0.59686 0.4346 0.0
C845 C 0.14189 0.59235 0.4156 0.0
C846 C 0.21399 0.65561 0.41477 0.0
C847 C 0.14848 0.57955 0.45473 0.0
C848 C 0.22862 0.61709 0.47401 0.0
C849 C 0.2287 0.631 0.49288 0.0
C850 C 0.21344 0.61281 0.45477 0.0
C851 C 0.19779 0.62248 0.45451 0.0
C852 C 0.19795 0.63672 0.47338 0.0
C853 C 0.21349 0.64092 0.49228 0.0
C854 C 0.21397 0.59777 0.43482 0.0
C855 C 0.18141 0.64722 0.47378 0.0
H856 H 0.17881 0.64077 0.38216 0.0
H857 H 0.12374 0.57658 0.41558 0.0
H858 H 0.21663 0.66745 0.42989 0.0
H859 H 0.22802 0.65025 0.41597 0.0
H860 H 0.21719 0.66616 0.39863 0.0
H861 H 0.1295 0.56444 0.45215 0.0
H862 H 0.16058 0.57197 0.45717 0.0
H863 H 0.14919 0.58922 0.47098 0.0
H864 H 0.24037 0.60942 0.47429 0.0
H865 H 0.21334 0.65161 0.50682 0.0
H866 H 0.21822 0.60806 0.4184 0.0
H867 H 0.19574 0.58139 0.4327 0.0
H868 H 0.22768 0.59214 0.4374 0.0
H869 H 0.185 0.65885 0.45841 0.0
H870 H 0.18387 0.65805 0.48969 0.0
H871 H 0.16206 0.63252 0.4728 0.0
C872 C 0.56869 0.13792 0.59042 0.0
C873 C 0.56995 0.14842 0.56885 0.0
C874 C 0.57381 0.1514 0.61102 0.0
C875 C 0.5807 0.17602 0.60991 0.0
C876 C 0.58223 0.18674 0.58812 0.0
C877 C 0.57669 0.17277 0.56787 0.0
C878 C 0.57167 0.13929 0.63397 0.0
C879 C 0.58986 0.21302 0.58619 0.0
C880 C 0.57321 0.20731 0.66267 0.0
C881 C 0.597 0.21959 0.67169 0.0
C882 C 0.56756 0.19271 0.64282 0.0
C883 C 0.58622 0.19063 0.6315 0.0
C884 C 0.61027 0.20301 0.64046 0.0
C885 C 0.61534 0.21721 0.66055 0.0
C886 C 0.54164 0.17955 0.63392 0.0
C887 C 0.63072 0.2015 0.62866 0.0
H888 H 0.56336 0.11906 0.59117 0.0
H889 H 0.57801 0.18099 0.55116 0.0
H890 H 0.58945 0.14855 0.64317 0.0
H891 H 0.55821 0.14067 0.64521 0.0
H892 H 0.56591 0.11997 0.63185 0.0
H893 H 0.59054 0.21868 0.56789 0.0
H894 H 0.57691 0.21658 0.59592 0.0
H895 H 0.60815 0.22438 0.59409 0.0
H896 H 0.55889 0.2089 0.67128 0.0
H897 H 0.63377 0.2267 0.66736 0.0
H898 H 0.53484 0.15995 0.63279 0.0
H899 H 0.54102 0.18576 0.61615 0.0
H900 H 0.52909 0.1824 0.64519 0.0
H901 H 0.62618 0.18247 0.62759 0.0
H902 H 0.64839 0.21211 0.63792 0.0
H903 H 0.63299 0.20826 0.61062 0.0
C904 C 0.44793 0.61784 0.73521 0.0
C905 C 0.45597 0.60118 0.73542 0.0
C906 C 0.43804 0.62223 0.75515 0.0
C907 C 0.43616 0.60967 0.77584 0.0
C908 C 0.44414 0.59274 0.77617 0.0
C909 C 0.4539 0.58864 0.75591 0.0
C910 C 0.42956 0.64028 0.75406 0.0
C911 C 0.44254 0.57912 0.79796 0.0
C912 C 0.43198 0.63803 0.83233 0.0
C913 C 0.40692 0.62448 0.83723 0.0
C914 C 0.44177 0.63318 0.81257 0.0
C915 C 0.4261 0.61452 0.79718 0.0
C916 C 0.40077 0.60085 0.80194 0.0
C917 C 0.3915 0.6059 0.82198 0.0
C918 C 0.46891 0.64802 0.80817 0.0
C919 C 0.38345 0.58099 0.78577 0.0
H920 H 0.44908 0.62726 0.7193 0.0
H921 H 0.46023 0.57587 0.75618 0.0
H922 H 0.40998 0.6315 0.75883 0.0
H923 H 0.43986 0.655 0.76679 0.0
H924 H 0.43203 0.64831 0.73654 0.0
H925 H 0.44936 0.56644 0.79529 0.0
H926 H 0.45336 0.59197 0.812 0.0
H927 H 0.42335 0.56877 0.80403 0.0
H928 H 0.44406 0.6523 0.8441 0.0
H929 H 0.37211 0.59538 0.82562 0.0
H930 H 0.4724 0.6576 0.7914 0.0
H931 H 0.47674 0.63608 0.80683 0.0
H932 H 0.47868 0.66152 0.82211 0.0
H933 H 0.38431 0.58842 0.76824 0.0
H934 H 0.36426 0.57201 0.79198 0.0
H935 H 0.38895 0.56724 0.78393 0.0
C936 C 0.87469 0.41852 0.91805 0.0
C937 C 0.867 0.42142 0.89618 0.0
C938 C 0.86029 0.41488 0.93785 0.0
C939 C 0.8375 0.41367 0.93556 0.0
C940 C 0.82974 0.41671 0.9135 0.0
C941 C 0.84468 0.42072 0.89409 0.0
C942 C 0.86934 0.41211 0.96116 0.0
C943 C 0.80539 0.41513 0.91029 0.0
C944 C 0.79014 0.3796 0.98215 0.0
C945 C 0.79148 0.39843 0.99564 0.0
C946 C 0.80477 0.38433 0.96235 0.0
C947 C 0.82143 0.40848 0.95613 0.0
C948 C 0.82278 0.42758 0.96959 0.0
C949 C 0.80762 0.42233 0.98909 0.0
C950 C 0.80249 0.36348 0.94817 0.0
C951 C 0.84056 0.45355 0.96364 0.0
H952 H 0.89202 0.4192 0.91966 0.0
H953 H 0.83858 0.42264 0.8771 0.0
H954 H 0.86956 0.42536 0.97371 0.0
H955 H 0.85676 0.3939 0.96816 0.0
H956 H 0.88797 0.41467 0.96014 0.0
H957 H 0.80226 0.41834 0.89204 0.0
H958 H 0.79046 0.39703 0.91554 0.0
H959 H 0.80421 0.4285 0.92161 0.0
H960 H 0.77761 0.3611 0.98705 0.0
H961 H 0.80887 0.43697 -0.00046 0.0
H962 H 0.8201 0.3638 0.94818 0.0
H963 H 0.79819 0.36514 0.92987 0.0
H964 H 0.78806 0.34579 0.95492 0.0
H965 H 0.85948 0.45688 0.96399 0.0
H966 H 0.83933 0.46631 0.97586 0.0
H967 H 0.83709 0.45747 0.9458 0.0
C968 C 0.47132 0.85648 0.06965 0.0
C969 C 0.47469 0.87972 0.07142 0.0
C970 C 0.46191 0.84037 0.08828 0.0
C971 C 0.45576 0.84768 0.10919 0.0
C972 C 0.45981 0.87135 0.11133 0.0
C973 C 0.46916 0.88707 0.09238 0.0
C974 C 0.45775 0.81524 0.0853 0.0
C975 C 0.45364 0.87986 0.13344 0.0
C976 C 0.40704 0.80036 0.14818 0.0
C977 C 0.42106 0.79849 0.1659 0.0
C978 C 0.41814 0.81601 0.12943 0.0
C979 C 0.44391 0.83021 0.12841 0.0
C980 C 0.45821 0.82805 0.14594 0.0
C981 C 0.44662 0.81217 0.16446 0.0
C982 C 0.40227 0.81767 0.11095 0.0
C983 C 0.48574 0.84291 0.14541 0.0
H984 H 0.47522 0.85057 0.05337 0.0
H985 H 0.47196 0.90509 0.09388 0.0
H986 H 0.46662 0.81103 0.09958 0.0
H987 H 0.43791 0.80194 0.08616 0.0
H988 H 0.46491 0.81287 0.06848 0.0
H989 H 0.45914 0.8992 0.13274 0.0
H990 H 0.4337 0.8691 0.13664 0.0
H991 H 0.46283 0.87709 0.14844 0.0
H992 H 0.38729 0.78983 0.14908 0.0
H993 H 0.45762 0.81088 0.17808 0.0
H994 H 0.40738 0.81403 0.0936 0.0
H995 H 0.40521 0.83618 0.11059 0.0
H996 H 0.38255 0.80479 0.11387 0.0
H997 H 0.49272 0.83997 0.12878 0.0
H998 H 0.49424 0.83852 0.15994 0.0
H999 H 0.49169 0.86234 0.14643 0.0
C1000 C 0.62256 0.46477 0.23763 0.0
C1001 C 0.60501 0.47177 0.23954 0.0
C1002 C 0.62676 0.45309 0.25595 0.0
C1003 C 0.61327 0.44853 0.27678 0.0
C1004 C 0.59568 0.45577 0.2789 0.0
C1005 C 0.59163 0.46716 0.26017 0.0
C1006 C 0.64544 0.44538 0.25291 0.0
C1007 C 0.58118 0.4515 0.30096 0.0
C1008 C 0.60764 0.39948 0.31711 0.0
C1009 C 0.62555 0.4129 0.33381 0.0
C1010 C 0.60361 0.41082 0.29833 0.0
C1011 C 0.6176 0.43621 0.29636 0.0
C1012 C 0.63576 0.44984 0.3131 0.0
C1013 C 0.63962 0.43802 0.33152 0.0
C1014 C 0.58432 0.39565 0.28062 0.0
C1015 C 0.65089 0.47697 0.3117 0.0
H1016 H 0.63265 0.46798 0.22156 0.0
H1017 H 0.57815 0.47267 0.2617 0.0
H1018 H 0.6598 0.45398 0.2664 0.0
H1019 H 0.63663 0.4256 0.25518 0.0
H1020 H 0.65429 0.45016 0.23557 0.0
H1021 H 0.56849 0.45857 0.29994 0.0
H1022 H 0.57042 0.43193 0.30466 0.0
H1023 H 0.59374 0.46027 0.31582 0.0
H1024 H 0.59674 0.38006 0.3187 0.0
H1025 H 0.65339 0.44856 0.34441 0.0
H1026 H 0.59256 0.39897 0.26304 0.0
H1027 H 0.5701 0.4008 0.28025 0.0
H1028 H 0.57539 0.37609 0.28436 0.0
H1029 H 0.66103 0.48239 0.29504 0.0
H1030 H 0.66421 0.48494 0.32617 0.0
H1031 H 0.63879 0.48473 0.31211 0.0
C1032 C 0.4238 0.88587 0.35944 0.0
C1033 C 0.40952 0.87678 0.3795 0.0
C1034 C 0.4204 0.87082 0.34036 0.0
C1035 C 0.40241 0.84607 0.34148 0.0
C1036 C 0.38781 0.83684 0.36162 0.0
C1037 C 0.39152 0.85232 0.38037 0.0
C1038 C 0.43618 0.88134 0.31908 0.0
C1039 C 0.36855 0.81053 0.36351 0.0
C1040 C 0.37941 0.81075 0.28514 0.0
C1041 C 0.39312 0.79922 0.28377 0.0
C1042 C 0.38222 0.82602 0.30383 0.0
C1043 C 0.39904 0.82975 0.32167 0.0
C1044 C 0.4127 0.81794 0.32059 0.0
C1045 C 0.40963 0.80286 0.30163 0.0
C1046 C 0.36736 0.83834 0.30438 0.0
C1047 C 0.4307 0.82136 0.3394 0.0
H1048 H 0.4376 0.90481 0.35864 0.0
H1049 H 0.3807 0.84512 0.39599 0.0
H1050 H 0.44692 0.87237 0.3159 0.0
H1051 H 0.42454 0.87802 0.3036 0.0
H1052 H 0.449 0.90103 0.3208 0.0
H1053 H 0.35844 0.8063 0.38022 0.0
H1054 H 0.35527 0.80529 0.34908 0.0
H1055 H 0.37716 0.79929 0.36198 0.0
H1056 H 0.36664 0.80811 0.27142 0.0
H1057 H 0.42027 0.79402 0.30076 0.0
H1058 H 0.3797 0.85817 0.30462 0.0
H1059 H 0.35625 0.83348 0.32046 0.0
H1060 H 0.35497 0.83344 0.2892 0.0
H1061 H 0.44506 0.84064 0.34065 0.0
H1062 H 0.4396 0.81057 0.33616 0.0
H1063 H 0.42131 0.81613 0.35645 0.0
C1064 C 0.5981 0.46623 0.529 0.0
C1065 C 0.58507 0.45286 0.54837 0.0
C1066 C 0.60252 0.45508 0.51014 0.0
C1067 C 0.5943 0.43013 0.51108 0.0
C1068 C 0.58102 0.41654 0.53064 0.0
C1069 C 0.5763 0.42806 0.54898 0.0
C1070 C 0.61627 0.47005 0.48935 0.0
C1071 C 0.57248 0.39006 0.53253 0.0
C1072 C 0.59044 0.3979 0.45444 0.0
C1073 C 0.61326 0.39947 0.45383 0.0
C1074 C 0.58387 0.40756 0.47311 0.0
C1075 C 0.60028 0.41847 0.49185 0.0
C1076 C 0.6229 0.41912 0.4918 0.0
C1077 C 0.62926 0.40991 0.47262 0.0
C1078 C 0.55982 0.40697 0.47232 0.0
C1079 C 0.64059 0.43002 0.51177 0.0
H1080 H 0.60486 0.48543 0.52868 0.0
H1081 H 0.56649 0.41787 0.56419 0.0
H1082 H 0.63392 0.47059 0.48758 0.0
H1083 H 0.60568 0.46177 0.47326 0.0
H1084 H 0.61999 0.48884 0.49072 0.0
H1085 H 0.56198 0.38201 0.54871 0.0
H1086 H 0.56085 0.38009 0.51745 0.0
H1087 H 0.58847 0.38747 0.53221 0.0
H1088 H 0.57811 0.39004 0.43983 0.0
H1089 H 0.64686 0.41101 0.47225 0.0
H1090 H 0.56322 0.42565 0.47195 0.0
H1091 H 0.549 0.39832 0.48816 0.0
H1092 H 0.54877 0.39711 0.45688 0.0
H1093 H 0.64743 0.44962 0.51287 0.0
H1094 H 0.65649 0.42738 0.50989 0.0
H1095 H 0.63124 0.42192 0.5284 0.0
C1096 C 0.16324 0.53669 0.69755 0.0
C1097 C 0.14756 0.54428 0.70638 0.0
C1098 C 0.17901 0.5486 0.6789 0.0
C1099 C 0.17838 0.56791 0.66806 0.0
C1100 C 0.16202 0.57513 0.67621 0.0
C1101 C 0.14722 0.5636 0.69552 0.0
C1102 C 0.19664 0.54074 0.67107 0.0
C1103 C 0.16026 0.59517 0.66462 0.0
C1104 C 0.23271 0.61407 0.63306 0.0
C1105 C 0.22593 0.60489 0.61052 0.0
C1106 C 0.21765 0.60188 0.65206 0.0
C1107 C 0.19488 0.58062 0.6482 0.0
C1108 C 0.1878 0.57158 0.62535 0.0
C1109 C 0.20367 0.58358 0.60682 0.0
C1110 C 0.2262 0.6116 0.67626 0.0
C1111 C 0.16329 0.54951 0.62042 0.0
H1112 H 0.16337 0.52146 0.70523 0.0
H1113 H 0.13571 0.57014 0.70228 0.0
H1114 H 0.19278 0.53429 0.65284 0.0
H1115 H 0.21559 0.55629 0.67162 0.0
H1116 H 0.19562 0.52613 0.68202 0.0
H1117 H 0.1453 0.59738 0.67194 0.0
H1118 H 0.17769 0.61244 0.6667 0.0
H1119 H 0.15708 0.59155 0.64571 0.0
H1120 H 0.25003 0.63049 0.63586 0.0
H1121 H 0.19836 0.57667 0.58929 0.0
H1122 H 0.22606 0.59746 0.68728 0.0
H1123 H 0.21356 0.61667 0.68432 0.0
H1124 H 0.24489 0.62763 0.67636 0.0
H1125 H 0.16178 0.53368 0.62951 0.0
H1126 H 0.16026 0.54529 0.60158 0.0
H1127 H 0.14849 0.55225 0.62715 0.0
C1128 C 0.54562 0.17105 0.89426 0.0
C1129 C 0.53821 0.14661 0.89182 0.0
C1130 C 0.55445 0.18665 0.8752 0.0
C1131 C 0.55571 0.17752 0.85316 0.0
C1132 C 0.54772 0.15273 0.85048 0.0
C1133 C 0.53918 0.13758 0.8699 0.0
C1134 C 0.56302 0.21301 0.87877 0.0
C1135 C 0.54853 0.14228 0.82719 0.0
C1136 C 0.56058 0.21325 0.79917 0.0
C1137 C 0.58546 0.22383 0.79369 0.0
C1138 C 0.55067 0.19829 0.81859 0.0
C1139 C 0.56605 0.194 0.833 0.0
C1140 C 0.59127 0.2051 0.82792 0.0
C1141 C 0.60066 0.21979 0.80826 0.0
C1142 C 0.52366 0.18664 0.82339 0.0
C1143 C 0.6083 0.20118 0.84305 0.0
H1144 H 0.54523 0.17816 0.91126 0.0
H1145 H 0.5333 0.11865 0.86796 0.0
H1146 H 0.58277 0.22401 0.87469 0.0
H1147 H 0.55328 0.21869 0.86678 0.0
H1148 H 0.56008 0.21709 0.89686 0.0
H1149 H 0.5407 0.12247 0.82786 0.0
H1150 H 0.5383 0.14629 0.81414 0.0
H1151 H 0.5677 0.15074 0.82107 0.0
H1152 H 0.54867 0.21618 0.78797 0.0
H1153 H 0.61991 0.22796 0.80422 0.0
H1154 H 0.52061 0.19133 0.84116 0.0
H1155 H 0.51505 0.16676 0.82258 0.0
H1156 H 0.5143 0.19225 0.81081 0.0
H1157 H 0.60715 0.20616 0.86129 0.0
H1158 H 0.62759 0.21186 0.83722 0.0
H1159 H 0.60274 0.18184 0.84289 0.0
C1160 C 0.42238 0.55781 0.03796 0.0
C1161 C 0.42432 0.56908 0.05935 0.0
C1162 C 0.41502 0.56486 0.01798 0.0
C1163 C 0.40905 0.58325 0.01965 0.0
C1164 C 0.4101 0.59399 0.04145 0.0
C1165 C 0.41794 0.58691 0.061 0.0
C1166 C 0.41447 0.55325 0.99497 0.0
C1167 C 0.40348 0.61333 0.04404 0.0
C1168 C 0.4164 0.6213 0.9669 0.0
C1169 C 0.39233 0.61077 0.95877 0.0
C1170 C 0.42208 0.61222 0.98644 0.0
C1171 C 0.40319 0.59237 -0.00157 0.0
C1172 C 0.37882 0.58174 0.99046 0.0
C1173 C 0.3737 0.59094 0.97057 0.0
C1174 C 0.44835 0.62387 0.99422 0.0
C1175 C 0.35815 0.56083 0.00307 0.0
H1176 H 0.4274 0.54407 0.03672 0.0
H1177 H 0.41915 0.59539 0.07766 0.0
H1178 H 0.39632 0.54593 0.98669 0.0
H1179 H 0.42814 0.56699 0.98307 0.0
H1180 H 0.4185 0.53845 0.9968 0.0
H1181 H 0.40347 0.61851 0.06247 0.0
H1182 H 0.4167 0.62961 0.03431 0.0
H1183 H 0.38515 0.60709 0.03656 0.0
H1184 H 0.43094 0.63648 0.95775 0.0
H1185 H 0.35506 0.58275 0.96441 0.0
H1186 H 0.45405 0.6102 0.99493 0.0
H1187 H 0.45028 0.63137 0.01198 0.0
H1188 H 0.46099 0.63861 0.98249 0.0
H1189 H 0.36148 0.54553 0.0038 0.0
H1190 H 0.34022 0.55459 0.99462 0.0
H1191 H 0.35721 0.56613 0.02124 0.0
C1192 C 0.87669 0.42626 0.19726 0.0
C1193 C 0.86763 0.42871 0.21867 0.0
C1194 C 0.86205 0.41945 0.17726 0.0
C1195 C 0.83776 0.41474 0.17888 0.0
C1196 C 0.82836 0.41654 0.20062 0.0
C1197 C 0.84345 0.42361 0.22023 0.0
C1198 C 0.87274 0.4179 0.15432 0.0
C1199 C 0.80247 0.41138 0.2031 0.0
C1200 C 0.8073 0.42182 0.12545 0.0
C1201 C 0.79257 0.39786 0.11807 0.0
C1202 C 0.82231 0.42755 0.14504 0.0
C1203 C 0.82242 0.40885 0.15772 0.0
C1204 C 0.8075 0.38462 0.1505 0.0
C1205 C 0.79283 0.37941 0.13068 0.0
C1206 C 0.83808 0.45363 0.15215 0.0
C1207 C 0.80696 0.36421 0.16377 0.0
H1208 H 0.89542 0.43031 0.19604 0.0
H1209 H 0.83632 0.42514 0.23687 0.0
H1210 H 0.86119 0.39985 0.14639 0.0
H1211 H 0.87303 0.43131 0.14212 0.0
H1212 H 0.89162 0.42128 0.15616 0.0
H1213 H 0.79763 0.41251 0.22143 0.0
H1214 H 0.80002 0.42445 0.19271 0.0
H1215 H 0.78948 0.39314 0.19627 0.0
H1216 H 0.80735 0.43621 0.11575 0.0
H1217 H 0.78148 0.36085 0.12513 0.0
H1218 H 0.85752 0.45854 0.15274 0.0
H1219 H 0.833 0.4564 0.16986 0.0
H1220 H 0.83632 0.46606 0.14009 0.0
H1221 H 0.82555 0.36672 0.16452 0.0
H1222 H 0.79443 0.34636 0.15581 0.0
H1223 H 0.80105 0.36421 0.18191 0.0
loop_
_geom_bond_atom_site_label_1
_geom_bond_atom_site_label_2
_geom_bond_distance
_geom_bond_site_symmetry_2
_ccdc_geom_bond_type
H0 C27 0.929 . S
N1 C26 1.433 . S
N1 C32 1.435 . S
N1 C38 1.423 . S
H2 C28 0.930 . S
H3 C31 0.931 . S
H4 C30 0.929 . S
H5 C33 0.930 . S
H6 C34 0.932 . S
H7 C37 0.929 . S
H8 C36 0.931 . S
H9 C39 0.929 . S
H10 C43 0.932 . S
H11 C40 0.931 . S
H12 C42 0.929 . S
H13 C45 0.929 . S
H14 C46 0.930 . S
H15 C48 0.929 . S
H16 C49 0.931 . S
H17 C51 0.930 . S
H18 C52 0.932 . S
H19 C54 0.931 . S
H20 C55 0.929 . S
H21 C57 0.929 . S
H22 C58 0.931 . S
H23 C60 0.929 . S
N24 C44 1.433 . S
N24 C50 1.435 . S
N24 C56 1.423 . S
H25 C61 0.932 . S
C26 N1 1.433 . S
C26 C27 1.363 . S
C26 C31 1.370 . S
C27 H0 0.929 . S
C27 C26 1.363 . S
C27 C28 1.385 . S
C28 H2 0.930 . S
C28 C27 1.385 . S
C28 C29 1.357 . S
C29 C28 1.357 . S
C29 C30 1.406 . S
C30 H4 0.929 . S
C30 C29 1.406 . S
C30 C31 1.391 . S
C31 H3 0.931 . S
C31 C26 1.370 . S
C31 C30 1.391 . S
C32 N1 1.435 . S
C32 C33 1.358 . S
C32 C37 1.371 . S
C33 H5 0.930 . S
C33 C32 1.358 . S
C33 C34 1.405 . S
C34 H6 0.932 . S
C34 C33 1.405 . S
C34 C35 1.383 . S
C35 C34 1.383 . S
C35 C36 1.393 . S
C36 H8 0.931 . S
C36 C35 1.393 . S
C36 C37 1.382 . S
C37 H7 0.929 . S
C37 C32 1.371 . S
C37 C36 1.382 . S
C38 N1 1.423 . S
C38 C39 1.362 . S
C38 C43 1.388 . S
C39 H9 0.929 . S
C39 C38 1.362 . S
C39 C40 1.376 . S
C40 H11 0.931 . S
C40 C39 1.376 . S
C40 C41 1.396 . S
C41 C40 1.396 . S
C41 C42 1.348 . S
C41 C59 1.472 1_455 S
C42 H12 0.929 . S
C42 C41 1.348 . S
C42 C43 1.443 . S
C43 H10 0.932 . S
C43 C38 1.388 . S
C43 C42 1.443 . S
C44 N24 1.433 . S
C44 C45 1.363 . S
C44 C49 1.370 . S
C45 H13 0.929 . S
C45 C44 1.363 . S
C45 C46 1.385 . S
C46 H14 0.930 . S
C46 C45 1.385 . S
C46 C47 1.357 . S
C47 C46 1.357 . S
C47 C48 1.406 . S
C48 H15 0.929 . S
C48 C47 1.406 . S
C48 C49 1.391 . S
C49 H16 0.931 . S
C49 C44 1.370 . S
C49 C48 1.391 . S
C50 N24 1.435 . S
C50 C51 1.358 . S
C50 C55 1.371 . S
C51 H17 0.930 . S
C51 C50 1.358 . S
C51 C52 1.405 . S
C52 H18 0.932 . S
C52 C51 1.405 . S
C52 C53 1.383 . S
C53 C52 1.383 . S
C53 C54 1.393 . S
C54 H19 0.931 . S
C54 C53 1.393 . S
C54 C55 1.382 . S
C55 H20 0.929 . S
C55 C50 1.371 . S
C55 C54 1.382 . S
C56 N24 1.423 . S
C56 C57 1.362 . S
C56 C61 1.388 . S
C57 H21 0.929 . S
C57 C56 1.362 . S
C57 C58 1.376 . S
C58 H22 0.931 . S
C58 C57 1.376 . S
C58 C59 1.396 . S
C59 C41 1.472 1_655 S
C59 C58 1.396 . S
C59 C60 1.348 . S
C60 H23 0.929 . S
C60 C59 1.348 . S
C60 C61 1.443 . S
C61 H25 0.932 . S
C61 C56 1.388 . S
C61 C60 1.443 . S
H62 C89 0.929 . S
N63 C88 1.433 . S
N63 C94 1.435 . S
N63 C100 1.423 . S
H64 C90 0.930 . S
H65 C93 0.931 . S
H66 C92 0.929 . S
H67 C95 0.930 . S
H68 C96 0.932 . S
H69 C99 0.929 . S
H70 C98 0.931 . S
H71 C101 0.929 . S
H72 C105 0.932 . S
H73 C102 0.931 . S
H74 C104 0.929 1_545 S
H75 C107 0.929 . S
H76 C108 0.930 . S
H77 C110 0.929 . S
H78 C111 0.931 . S
H79 C113 0.930 . S
H80 C114 0.932 . S
H81 C116 0.931 . S
H82 C117 0.929 . S
H83 C119 0.929 . S
H84 C120 0.931 . S
H85 C122 0.929 . S
N86 C106 1.433 . S
N86 C112 1.435 . S
N86 C118 1.423 . S
H87 C123 0.932 . S
C88 N63 1.433 . S
C88 C89 1.363 . S
C88 C93 1.370 . S
C89 H62 0.929 . S
C89 C88 1.363 . S
C89 C90 1.385 . S
C90 H64 0.930 . S
C90 C89 1.385 . S
C90 C91 1.357 . S
C91 C90 1.357 . S
C91 C92 1.406 . S
C92 H66 0.929 . S
C92 C91 1.406 . S
C92 C93 1.391 . S
C93 H65 0.931 . S
C93 C88 1.370 . S
C93 C92 1.391 . S
C94 N63 1.435 . S
C94 C95 1.358 . S
C94 C99 1.371 . S
C95 H67 0.930 . S
C95 C94 1.358 . S
C95 C96 1.405 . S
C96 H68 0.932 . S
C96 C95 1.405 . S
C96 C97 1.383 . S
C97 C96 1.383 . S
C97 C98 1.393 . S
C98 H70 0.931 . S
C98 C97 1.393 . S
C98 C99 1.382 . S
C99 H69 0.929 . S
C99 C94 1.371 . S
C99 C98 1.382 . S
C100 N63 1.423 . S
C100 C101 1.362 . S
C100 C105 1.388 . S
C101 H71 0.929 . S
C101 C100 1.362 . S
C101 C102 1.376 . S
C102 H73 0.931 . S
C102 C101 1.376 . S
C102 C103 1.396 1_565 S
C103 C102 1.396 1_545 S
C103 C104 1.348 1_545 S
C103 C121 1.472 . S
C104 H74 0.929 1_565 S
C104 C103 1.348 1_565 S
C104 C105 1.443 . S
C105 H72 0.932 . S
C105 C100 1.388 . S
C105 C104 1.443 . S
C106 N86 1.433 . S
C106 C107 1.363 . S
C106 C111 1.370 . S
C107 H75 0.929 . S
C107 C106 1.363 . S
C107 C108 1.385 . S
C108 H76 0.930 . S
C108 C107 1.385 . S
C108 C109 1.357 . S
C109 C108 1.357 . S
C109 C110 1.406 . S
C110 H77 0.929 . S
C110 C109 1.406 . S
C110 C111 1.391 . S
C111 H78 0.931 . S
C111 C106 1.370 . S
C111 C110 1.391 . S
C112 N86 1.435 . S
C112 C113 1.358 . S
C112 C117 1.371 . S
C113 H79 0.930 . S
C113 C112 1.358 . S
C113 C114 1.405 . S
C114 H80 0.932 . S
C114 C113 1.405 . S
C114 C115 1.383 . S
C115 C114 1.383 . S
C115 C116 1.393 . S
C116 H81 0.931 . S
C116 C115 1.393 . S
C116 C117 1.382 . S
C117 H82 0.929 . S
C117 C112 1.371 . S
C117 C116 1.382 . S
C118 N86 1.423 . S
C118 C119 1.362 . S
C118 C123 1.388 . S
C119 H83 0.929 . S
C119 C118 1.362 . S
C119 C120 1.376 . S
C120 H84 0.931 . S
C120 C119 1.376 . S
C120 C121 1.396 . S
C121 C103 1.472 . S
C121 C120 1.396 . S
C121 C122 1.348 . S
C122 H85 0.929 . S
C122 C121 1.348 . S
C122 C123 1.443 . S
C123 H87 0.932 . S
C123 C118 1.388 . S
C123 C122 1.443 . S
H124 C151 0.929 . S
N125 C150 1.433 . S
N125 C156 1.435 . S
N125 C162 1.423 . S
H126 C152 0.930 . S
H127 C155 0.931 . S
H128 C154 0.929 . S
H129 C157 0.930 . S
H130 C158 0.932 . S
H131 C161 0.929 . S
H132 C160 0.931 . S
H133 C163 0.929 . S
H134 C167 0.932 . S
H135 C164 0.931 . S
H136 C166 0.929 . S
H137 C169 0.929 . S
H138 C170 0.930 . S
H139 C172 0.929 . S
H140 C173 0.931 . S
H141 C175 0.930 . S
H142 C176 0.932 . S
H143 C178 0.931 . S
H144 C179 0.929 . S
H145 C181 0.929 . S
H146 C182 0.931 . S
H147 C184 0.929 . S
N148 C168 1.433 . S
N148 C174 1.435 . S
N148 C180 1.423 . S
H149 C185 0.932 . S
C150 N125 1.433 . S
C150 C151 1.363 . S
C150 C155 1.370 . S
C151 H124 0.929 . S
C151 C150 1.363 . S
C151 C152 1.385 . S
C152 H126 0.930 . S
C152 C151 1.385 . S
C152 C153 1.357 . S
C153 C152 1.357 . S
C153 C154 1.406 . S
C154 H128 0.929 . S
C154 C153 1.406 . S
C154 C155 1.391 . S
C155 H127 0.931 . S
C155 C150 1.370 . S
C155 C154 1.391 . S
C156 N125 1.435 . S
C156 C157 1.358 . S
C156 C161 1.371 . S
C157 H129 0.930 . S
C157 C156 1.358 . S
C157 C158 1.405 . S
C158 H130 0.932 . S
C158 C157 1.405 . S
C158 C159 1.383 . S
C159 C158 1.383 . S
C159 C160 1.393 . S
C160 H132 0.931 . S
C160 C159 1.393 . S
C160 C161 1.382 . S
C161 H131 0.929 . S
C161 C156 1.371 . S
C161 C160 1.382 . S
C162 N125 1.423 . S
C162 C163 1.362 . S
C162 C167 1.388 . S
C163 H133 0.929 . S
C163 C162 1.362 . S
C163 C164 1.376 . S
C164 H135 0.931 . S
C164 C163 1.376 . S
C164 C165 1.396 . S
C165 C164 1.396 . S
C165 C166 1.348 . S
C165 C183 1.472 . S
C166 H136 0.929 . S
C166 C165 1.348 . S
C166 C167 1.443 . S
C167 H134 0.932 . S
C167 C162 1.388 . S
C167 C166 1.443 . S
C168 N148 1.433 . S
C168 C169 1.363 . S
C168 C173 1.370 . S
C169 H137 0.929 . S
C169 C168 1.363 . S
C169 C170 1.385 . S
C170 H138 0.930 . S
C170 C169 1.385 . S
C170 C171 1.357 . S
C171 C170 1.357 . S
C171 C172 1.406 . S
C172 H139 0.929 . S
C172 C171 1.406 . S
C172 C173 1.391 . S
C173 H140 0.931 . S
C173 C168 1.370 . S
C173 C172 1.391 . S
C174 N148 1.435 . S
C174 C175 1.358 . S
C174 C179 1.371 . S
C175 H141 0.930 . S
C175 C174 1.358 . S
C175 C176 1.405 . S
C176 H142 0.932 . S
C176 C175 1.405 . S
C176 C177 1.383 . S
C177 C176 1.383 . S
C177 C178 1.393 . S
C178 H143 0.931 . S
C178 C177 1.393 . S
C178 C179 1.382 . S
C179 H144 0.929 . S
C179 C174 1.371 . S
C179 C178 1.382 . S
C180 N148 1.423 . S
C180 C181 1.362 . S
C180 C185 1.388 . S
C181 H145 0.929 . S
C181 C180 1.362 . S
C181 C182 1.376 . S
C182 H146 0.931 . S
C182 C181 1.376 . S
C182 C183 1.396 . S
C183 C165 1.472 . S
C183 C182 1.396 . S
C183 C184 1.348 . S
C184 H147 0.929 . S
C184 C183 1.348 . S
C184 C185 1.443 . S
C185 H149 0.932 . S
C185 C180 1.388 . S
C185 C184 1.443 . S
H186 C213 0.929 . S
N187 C212 1.433 . S
N187 C218 1.435 . S
N187 C224 1.423 . S
H188 C214 0.930 . S
H189 C217 0.931 . S
H190 C216 0.929 . S
H191 C219 0.930 . S
H192 C220 0.932 . S
H193 C223 0.929 . S
H194 C222 0.931 . S
H195 C225 0.929 . S
H196 C229 0.932 . S
H197 C226 0.931 . S
H198 C228 0.929 . S
H199 C231 0.929 . S
H200 C232 0.930 . S
H201 C234 0.929 . S
H202 C235 0.931 . S
H203 C237 0.930 . S
H204 C238 0.932 . S
H205 C240 0.931 . S
H206 C241 0.929 . S
H207 C243 0.929 . S
H208 C244 0.931 . S
H209 C246 0.929 . S
N210 C230 1.433 . S
N210 C236 1.435 . S
N210 C242 1.423 . S
H211 C247 0.932 . S
C212 N187 1.433 . S
C212 C213 1.363 . S
C212 C217 1.370 . S
C213 H186 0.929 . S
C213 C212 1.363 . S
C213 C214 1.385 . S
C214 H188 0.930 . S
C214 C213 1.385 . S
C214 C215 1.357 . S
C215 C214 1.357 . S
C215 C216 1.406 . S
C216 H190 0.929 . S
C216 C215 1.406 . S
C216 C217 1.391 . S
C217 H189 0.931 . S
C217 C212 1.370 . S
C217 C216 1.391 . S
C218 N187 1.435 . S
C218 C219 1.358 . S
C218 C223 1.371 . S
C219 H191 0.930 . S
C219 C218 1.358 . S
C219 C220 1.405 . S
C220 H192 0.932 . S
C220 C219 1.405 . S
C220 C221 1.383 . S
C221 C220 1.383 . S
C221 C222 1.393 . S
C222 H194 0.931 . S
C222 C221 1.393 . S
C222 C223 1.382 . S
C223 H193 0.929 . S
C223 C218 1.371 . S
C223 C222 1.382 . S
C224 N187 1.423 . S
C224 C225 1.362 . S
C224 C229 1.388 . S
C225 H195 0.929 . S
C225 C224 1.362 . S
C225 C226 1.376 . S
C226 H197 0.931 . S
C226 C225 1.376 . S
C226 C227 1.396 . S
C227 C226 1.396 . S
C227 C228 1.348 . S
C227 C245 1.472 1_455 S
C228 H198 0.929 . S
C228 C227 1.348 . S
C228 C229 1.443 . S
C229 H196 0.932 . S
C229 C224 1.388 . S
C229 C228 1.443 . S
C230 N210 1.433 . S
C230 C231 1.363 . S
C230 C235 1.370 . S
C231 H199 0.929 . S
C231 C230 1.363 . S
C231 C232 1.385 . S
C232 H200 0.930 . S
C232 C231 1.385 . S
C232 C233 1.357 . S
C233 C232 1.357 . S
C233 C234 1.406 . S
C234 H201 0.929 . S
C234 C233 1.406 . S
C234 C235 1.391 . S
C235 H202 0.931 . S
C235 C230 1.370 . S
C235 C234 1.391 . S
C236 N210 1.435 . S
C236 C237 1.358 . S
C236 C241 1.371 . S
C237 H203 0.930 . S
C237 C236 1.358 . S
C237 C238 1.405 . S
C238 H204 0.932 . S
C238 C237 1.405 . S
C238 C239 1.383 . S
C239 C238 1.383 . S
C239 C240 1.393 . S
C240 H205 0.931 . S
C240 C239 1.393 . S
C240 C241 1.382 . S
C241 H206 0.929 . S
C241 C236 1.371 . S
C241 C240 1.382 . S
C242 N210 1.423 . S
C242 C243 1.362 . S
C242 C247 1.388 . S
C243 H207 0.929 . S
C243 C242 1.362 . S
C243 C244 1.376 . S
C244 H208 0.931 . S
C244 C243 1.376 . S
C244 C245 1.396 . S
C245 C227 1.472 1_655 S
C245 C244 1.396 . S
C245 C246 1.348 . S
C246 H209 0.929 . S
C246 C245 1.348 . S
C246 C247 1.443 . S
C247 H211 0.932 . S
C247 C242 1.388 . S
C247 C246 1.443 . S
H248 C275 0.929 . S
N249 C274 1.433 . S
N249 C280 1.435 . S
N249 C286 1.423 . S
H250 C276 0.930 . S
H251 C279 0.931 . S
H252 C278 0.929 . S
H253 C281 0.930 . S
H254 C282 0.932 . S
H255 C285 0.929 . S
H256 C284 0.931 . S
H257 C287 0.929 . S
H258 C291 0.932 . S
H259 C288 0.931 . S
H260 C290 0.929 . S
H261 C293 0.929 . S
H262 C294 0.930 . S
H263 C296 0.929 . S
H264 C297 0.931 . S
H265 C299 0.930 1_554 S
H266 C300 0.932 . S
H267 C302 0.931 . S
H268 C303 0.929 . S
H269 C305 0.929 . S
H270 C306 0.916 1_554 S
H271 C308 0.929 . S
N272 C292 1.433 . S
N272 C298 1.435 1_554 S
N272 C304 1.423 1_554 S
H273 C309 0.932 . S
C274 N249 1.433 . S
C274 C275 1.363 . S
C274 C279 1.370 . S
C275 H248 0.929 . S
C275 C274 1.363 . S
C275 C276 1.385 . S
C276 H250 0.930 . S
C276 C275 1.385 . S
C276 C277 1.357 1_556 S
C277 C276 1.357 1_554 S
C277 C278 1.406 . S
C278 H252 0.929 . S
C278 C277 1.406 . S
C278 C279 1.391 1_554 S
C279 H251 0.931 . S
C279 C274 1.370 . S
C279 C278 1.391 1_556 S
C280 N249 1.435 . S
C280 C281 1.358 . S
C280 C285 1.371 . S
C281 H253 0.930 . S
C281 C280 1.358 . S
C281 C282 1.405 . S
C282 H254 0.932 . S
C282 C281 1.405 . S
C282 C283 1.383 . S
C283 C282 1.383 . S
C283 C284 1.393 . S
C284 H256 0.931 . S
C284 C283 1.393 . S
C284 C285 1.382 . S
C285 H255 0.929 . S
C285 C280 1.371 . S
C285 C284 1.382 . S
C286 N249 1.423 . S
C286 C287 1.362 . S
C286 C291 1.388 . S
C287 H257 0.929 . S
C287 C286 1.362 . S
C287 C288 1.376 . S
C288 H259 0.931 . S
C288 C287 1.376 . S
C288 C289 1.396 . S
C289 C288 1.396 . S
C289 C290 1.348 . S
C289 C307 1.472 1_545 S
C290 H260 0.929 . S
C290 C289 1.348 . S
C290 C291 1.443 . S
C291 H258 0.932 . S
C291 C286 1.388 . S
C291 C290 1.443 . S
C292 N272 1.433 . S
C292 C293 1.363 . S
C292 C297 1.370 . S
C293 H261 0.929 . S
C293 C292 1.363 . S
C293 C294 1.385 . S
C294 H262 0.930 . S
C294 C293 1.385 . S
C294 C295 1.357 . S
C295 C294 1.357 . S
C295 C296 1.406 . S
C296 H263 0.929 . S
C296 C295 1.406 . S
C296 C297 1.391 . S
C297 H264 0.931 . S
C297 C292 1.370 . S
C297 C296 1.391 . S
C298 N272 1.435 1_556 S
C298 C299 1.358 . S
C298 C303 1.371 . S
C299 H265 0.930 1_556 S
C299 C298 1.358 . S
C299 C300 1.405 . S
C300 H266 0.932 . S
C300 C299 1.405 . S
C300 C301 1.383 . S
C301 C300 1.383 . S
C301 C302 1.393 . S
C302 H267 0.931 . S
C302 C301 1.393 . S
C302 C303 1.382 . S
C303 H268 0.929 . S
C303 C298 1.371 . S
C303 C302 1.382 . S
C304 N272 1.423 1_556 S
C304 C305 1.362 1_556 S
C304 C309 1.388 . S
C305 H269 0.929 . S
C305 C304 1.362 1_554 S
C305 C306 1.376 1_554 S
C306 H270 0.916 1_556 S
C306 C305 1.376 1_556 S
C306 C307 1.396 . S
C307 C289 1.472 1_565 S
C307 C306 1.396 . S
C307 C308 1.348 . S
C308 H271 0.929 . S
C308 C307 1.348 . S
C308 C309 1.443 . S
C309 H273 0.932 . S
C309 C304 1.388 . S
C309 C308 1.443 . S
H310 C337 0.929 . S
N311 C336 1.433 . S
N311 C342 1.435 . S
N311 C348 1.423 . S
H312 C338 0.930 . S
H313 C341 0.931 . S
H314 C340 0.929 . S
H315 C343 0.930 . S
H316 C344 0.932 . S
H317 C347 0.929 . S
H318 C346 0.931 . S
H319 C349 0.929 . S
H320 C353 0.932 . S
H321 C350 0.931 . S
H322 C352 0.929 . S
H323 C355 0.929 . S
H324 C356 0.930 . S
H325 C358 0.929 . S
H326 C359 0.931 . S
H327 C361 0.930 . S
H328 C362 0.932 . S
H329 C364 0.931 . S
H330 C365 0.929 . S
H331 C367 0.929 . S
H332 C368 0.931 . S
H333 C370 0.929 . S
N334 C354 1.433 . S
N334 C360 1.435 . S
N334 C366 1.423 . S
H335 C371 0.932 . S
C336 N311 1.433 . S
C336 C337 1.363 . S
C336 C341 1.370 . S
C337 H310 0.929 . S
C337 C336 1.363 . S
C337 C338 1.385 . S
C338 H312 0.930 . S
C338 C337 1.385 . S
C338 C339 1.357 . S
C339 C338 1.357 . S
C339 C340 1.406 . S
C340 H314 0.929 . S
C340 C339 1.406 . S
C340 C341 1.391 . S
C341 H313 0.931 . S
C341 C336 1.370 . S
C341 C340 1.391 . S
C342 N311 1.435 . S
C342 C343 1.358 . S
C342 C347 1.371 . S
C343 H315 0.930 . S
C343 C342 1.358 . S
C343 C344 1.405 . S
C344 H316 0.932 . S
C344 C343 1.405 . S
C344 C345 1.383 . S
C345 C344 1.383 . S
C345 C346 1.393 . S
C346 H318 0.931 . S
C346 C345 1.393 . S
C346 C347 1.382 . S
C347 H317 0.929 . S
C347 C342 1.371 . S
C347 C346 1.382 . S
C348 N311 1.423 . S
C348 C349 1.362 . S
C348 C353 1.388 . S
C349 H319 0.929 . S
C349 C348 1.362 . S
C349 C350 1.376 . S
C350 H321 0.931 . S
C350 C349 1.376 . S
C350 C351 1.396 . S
C351 C350 1.396 . S
C351 C352 1.348 . S
C351 C369 1.472 . S
C352 H322 0.929 . S
C352 C351 1.348 . S
C352 C353 1.443 . S
C353 H320 0.932 . S
C353 C348 1.388 . S
C353 C352 1.443 . S
C354 N334 1.433 . S
C354 C355 1.363 . S
C354 C359 1.370 . S
C355 H323 0.929 . S
C355 C354 1.363 . S
C355 C356 1.385 . S
C356 H324 0.930 . S
C356 C355 1.385 . S
C356 C357 1.357 . S
C357 C356 1.357 . S
C357 C358 1.406 . S
C358 H325 0.929 . S
C358 C357 1.406 . S
C358 C359 1.391 . S
C359 H326 0.931 . S
C359 C354 1.370 . S
C359 C358 1.391 . S
C360 N334 1.435 . S
C360 C361 1.358 . S
C360 C365 1.371 . S
C361 H327 0.930 . S
C361 C360 1.358 . S
C361 C362 1.405 . S
C362 H328 0.932 . S
C362 C361 1.405 . S
C362 C363 1.383 . S
C363 C362 1.383 . S
C363 C364 1.393 . S
C364 H329 0.931 . S
C364 C363 1.393 . S
C364 C365 1.382 . S
C365 H330 0.929 . S
C365 C360 1.371 . S
C365 C364 1.382 . S
C366 N334 1.423 . S
C366 C367 1.362 . S
C366 C371 1.388 . S
C367 H331 0.929 . S
C367 C366 1.362 . S
C367 C368 1.376 . S
C368 H332 0.931 . S
C368 C367 1.376 . S
C368 C369 1.396 . S
C369 C351 1.472 . S
C369 C368 1.396 . S
C369 C370 1.348 . S
C370 H333 0.929 . S
C370 C369 1.348 . S
C370 C371 1.443 . S
C371 H335 0.932 . S
C371 C366 1.388 . S
C371 C370 1.443 . S
O372 Cd373 2.223 . S
O372 C380 1.315 . S
Cd373 O372 2.223 . S
Cd373 O376 2.297 . S
Cd373 O377 2.439 . S
Cd373 O383 2.240 . S
Cd374 O375 2.240 . S
Cd374 O382 2.223 . S
Cd374 O384 2.297 . S
Cd374 O385 2.439 . S
O375 Cd374 2.240 . S
O375 C380 1.279 . S
O376 Cd373 2.297 . S
O376 C378 1.247 . S
O377 Cd373 2.439 . S
O377 C378 1.208 . S
C378 O376 1.247 . S
C378 O377 1.208 . S
C379 O384 1.247 . S
C379 O385 1.208 . S
C380 O372 1.315 . S
C380 O375 1.279 . S
C381 O382 1.315 . S
C381 O383 1.279 . S
O382 Cd374 2.223 . S
O382 C381 1.315 . S
O383 Cd373 2.240 . S
O383 C381 1.279 . S
O384 Cd374 2.297 . S
O384 C379 1.247 . S
O385 Cd374 2.439 . S
O385 C379 1.208 . S
O386 Cd387 2.223 . S
O386 C394 1.315 . S
Cd387 O386 2.223 . S
Cd387 O390 2.297 . S
Cd387 O391 2.439 . S
Cd387 O397 2.240 . S
Cd388 O389 2.240 . S
Cd388 O396 2.223 . S
Cd388 O398 2.297 . S
Cd388 O399 2.439 . S
O389 Cd388 2.240 . S
O389 C394 1.279 . S
O390 Cd387 2.297 . S
O390 C392 1.247 . S
O391 Cd387 2.439 . S
O391 C392 1.208 . S
C392 O390 1.247 . S
C392 O391 1.208 . S
C393 O398 1.247 . S
C393 O399 1.208 . S
C394 O386 1.315 . S
C394 O389 1.279 . S
C395 O396 1.315 . S
C395 O397 1.279 . S
O396 Cd388 2.223 . S
O396 C395 1.315 . S
O397 Cd387 2.240 . S
O397 C395 1.279 . S
O398 Cd388 2.297 . S
O398 C393 1.247 . S
O399 Cd388 2.439 . S
O399 C393 1.208 . S
O400 Cd401 2.223 . S
O400 C408 1.315 . S
Cd401 O400 2.223 . S
Cd401 O404 2.297 . S
Cd401 O405 2.439 . S
Cd401 O411 2.240 . S
Cd402 O403 2.240 . S
Cd402 O410 2.223 . S
Cd402 O412 2.297 . S
Cd402 O413 2.439 . S
O403 Cd402 2.240 . S
O403 C408 1.279 . S
O404 Cd401 2.297 . S
O404 C406 1.247 . S
O405 Cd401 2.439 . S
O405 C406 1.208 . S
C406 O404 1.247 . S
C406 O405 1.208 . S
C407 O412 1.247 . S
C407 O413 1.208 . S
C408 O400 1.315 . S
C408 O403 1.279 . S
C409 O410 1.315 . S
C409 O411 1.279 . S
O410 Cd402 2.223 . S
O410 C409 1.315 . S
O411 Cd401 2.240 . S
O411 C409 1.279 . S
O412 Cd402 2.297 . S
O412 C407 1.247 . S
O413 Cd402 2.439 . S
O413 C407 1.208 . S
O414 Cd415 2.223 . S
O414 C422 1.315 . S
Cd415 O414 2.223 . S
Cd415 O418 2.297 . S
Cd415 O419 2.439 . S
Cd415 O425 2.240 . S
Cd416 O417 2.240 . S
Cd416 O424 2.223 . S
Cd416 O426 2.297 . S
Cd416 O427 2.439 . S
O417 Cd416 2.240 . S
O417 C422 1.279 . S
O418 Cd415 2.297 . S
O418 C420 1.247 . S
O419 Cd415 2.439 . S
O419 C420 1.208 . S
C420 O418 1.247 . S
C420 O419 1.208 . S
C421 O426 1.247 . S
C421 O427 1.208 . S
C422 O414 1.315 . S
C422 O417 1.279 . S
C423 O424 1.315 . S
C423 O425 1.279 . S
O424 Cd416 2.223 . S
O424 C423 1.315 . S
O425 Cd415 2.240 . S
O425 C423 1.279 . S
O426 Cd416 2.297 . S
O426 C421 1.247 . S
O427 Cd416 2.439 . S
O427 C421 1.208 . S
O428 Cd429 2.223 . S
O428 C436 1.315 . S
Cd429 O428 2.223 . S
Cd429 O432 2.297 . S
Cd429 O433 2.439 . S
Cd429 O439 2.240 . S
Cd430 O431 2.240 . S
Cd430 O438 2.223 . S
Cd430 O440 2.297 . S
Cd430 O441 2.439 . S
O431 Cd430 2.240 . S
O431 C436 1.279 . S
O432 Cd429 2.297 . S
O432 C434 1.247 . S
O433 Cd429 2.439 . S
O433 C434 1.208 . S
C434 O432 1.247 . S
C434 O433 1.208 . S
C435 O440 1.247 . S
C435 O441 1.208 . S
C436 O428 1.315 . S
C436 O431 1.279 . S
C437 O438 1.315 . S
C437 O439 1.279 . S
O438 Cd430 2.223 . S
O438 C437 1.315 . S
O439 Cd429 2.240 . S
O439 C437 1.279 . S
O440 Cd430 2.297 . S
O440 C435 1.247 . S
O441 Cd430 2.439 . S
O441 C435 1.208 . S
O442 Cd443 2.223 . S
O442 C450 1.315 . S
Cd443 O442 2.223 . S
Cd443 O446 2.297 . S
Cd443 O447 2.439 . S
Cd443 O453 2.240 . S
Cd444 O445 2.240 . S
Cd444 O452 2.223 . S
Cd444 O454 2.297 . S
Cd444 O455 2.439 . S
O445 Cd444 2.240 . S
O445 C450 1.279 . S
O446 Cd443 2.297 . S
O446 C448 1.247 . S
O447 Cd443 2.439 . S
O447 C448 1.208 . S
C448 O446 1.247 . S
C448 O447 1.208 . S
C449 O454 1.247 . S
C449 O455 1.208 . S
C450 O442 1.315 . S
C450 O445 1.279 . S
C451 O452 1.315 . S
C451 O453 1.279 . S
O452 Cd444 2.223 . S
O452 C451 1.315 . S
O453 Cd443 2.240 . S
O453 C451 1.279 . S
O454 Cd444 2.297 . S
O454 C449 1.247 . S
O455 Cd444 2.439 . S
O455 C449 1.208 . S
C456 C457 1.391 . S
C456 C458 1.394 . S
C456 H472 0.931 . S
C457 C456 1.391 . S
C457 C461 1.376 . S
C458 C456 1.394 . S
C458 C459 1.369 . S
C458 C462 1.531 . S
C459 C458 1.369 . S
C459 C460 1.410 . S
C459 C467 1.503 . S
C460 C459 1.410 . S
C460 C461 1.392 . S
C460 C463 1.511 . S
C461 C457 1.376 . S
C461 C460 1.392 . S
C461 H473 0.929 . S
C462 C458 1.531 . S
C462 H474 0.960 . S
C462 H475 0.962 . S
C462 H476 0.960 . S
C463 C460 1.511 . S
C463 H477 0.961 . S
C463 H478 0.961 . S
C463 H479 0.961 . S
C464 C465 1.370 . S
C464 C466 1.363 . S
C464 H480 0.931 . S
C465 C464 1.370 . S
C465 C469 1.408 . S
C466 C464 1.363 . S
C466 C467 1.370 . S
C466 C470 1.524 . S
C467 C459 1.503 . S
C467 C466 1.370 . S
C467 C468 1.403 . S
C468 C467 1.403 . S
C468 C469 1.404 . S
C468 C471 1.539 . S
C469 C465 1.408 . S
C469 C468 1.404 . S
C469 H481 0.930 . S
C470 C466 1.524 . S
C470 H482 0.956 . S
C470 H483 0.961 . S
C470 H484 0.961 . S
C471 C468 1.539 . S
C471 H485 0.958 . S
C471 H486 0.961 . S
C471 H487 0.960 . S
H472 C456 0.931 . S
H473 C461 0.929 . S
H474 C462 0.960 . S
H475 C462 0.962 . S
H476 C462 0.960 . S
H477 C463 0.961 . S
H478 C463 0.961 . S
H479 C463 0.961 . S
H480 C464 0.931 . S
H481 C469 0.930 . S
H482 C470 0.956 . S
H483 C470 0.961 . S
H484 C470 0.961 . S
H485 C471 0.958 . S
H486 C471 0.961 . S
H487 C471 0.960 . S
C488 C489 1.391 . S
C488 C490 1.394 . S
C488 H504 0.931 . S
C489 C488 1.391 . S
C489 C493 1.376 . S
C490 C488 1.394 . S
C490 C491 1.369 . S
C490 C494 1.531 . S
C491 C490 1.369 . S
C491 C492 1.410 . S
C491 C499 1.503 . S
C492 C491 1.410 . S
C492 C493 1.392 . S
C492 C495 1.511 . S
C493 C489 1.376 . S
C493 C492 1.392 . S
C493 H505 0.929 . S
C494 C490 1.531 . S
C494 H506 0.960 . S
C494 H507 0.962 . S
C494 H508 0.960 . S
C495 C492 1.511 . S
C495 H509 0.961 . S
C495 H510 0.961 . S
C495 H511 0.961 . S
C496 C497 1.370 . S
C496 C498 1.363 . S
C496 H512 0.931 . S
C497 C496 1.370 . S
C497 C501 1.408 . S
C498 C496 1.363 . S
C498 C499 1.370 . S
C498 C502 1.524 . S
C499 C491 1.503 . S
C499 C498 1.370 . S
C499 C500 1.403 . S
C500 C499 1.403 . S
C500 C501 1.404 . S
C500 C503 1.539 . S
C501 C497 1.408 . S
C501 C500 1.404 . S
C501 H513 0.930 . S
C502 C498 1.524 . S
C502 H514 0.956 . S
C502 H515 0.961 . S
C502 H516 0.961 . S
C503 C500 1.539 . S
C503 H517 0.958 . S
C503 H518 0.961 . S
C503 H519 0.960 . S
H504 C488 0.931 . S
H505 C493 0.929 . S
H506 C494 0.960 . S
H507 C494 0.962 . S
H508 C494 0.960 . S
H509 C495 0.961 . S
H510 C495 0.961 . S
H511 C495 0.961 . S
H512 C496 0.931 . S
H513 C501 0.930 . S
H514 C502 0.956 . S
H515 C502 0.961 . S
H516 C502 0.961 . S
H517 C503 0.958 . S
H518 C503 0.961 . S
H519 C503 0.960 . S
C520 C521 1.391 . S
C520 C522 1.394 . S
C520 H536 0.931 . S
C521 C520 1.391 . S
C521 C525 1.376 . S
C522 C520 1.394 . S
C522 C523 1.369 . S
C522 C526 1.531 . S
C523 C522 1.369 . S
C523 C524 1.410 . S
C523 C531 1.503 . S
C524 C523 1.410 . S
C524 C525 1.392 . S
C524 C527 1.511 . S
C525 C521 1.376 . S
C525 C524 1.392 . S
C525 H537 0.929 . S
C526 C522 1.531 . S
C526 H538 0.960 . S
C526 H539 0.962 . S
C526 H540 0.960 . S
C527 C524 1.511 . S
C527 H541 0.961 . S
C527 H542 0.961 . S
C527 H543 0.961 . S
C528 C529 1.370 . S
C528 C530 1.363 . S
C528 H544 0.931 . S
C529 C528 1.370 . S
C529 C533 1.408 . S
C530 C528 1.363 . S
C530 C531 1.370 . S
C530 C534 1.524 . S
C531 C523 1.503 . S
C531 C530 1.370 . S
C531 C532 1.403 . S
C532 C531 1.403 . S
C532 C533 1.404 . S
C532 C535 1.539 . S
C533 C529 1.408 . S
C533 C532 1.404 . S
C533 H545 0.930 . S
C534 C530 1.524 . S
C534 H546 0.956 . S
C534 H547 0.961 . S
C534 H548 0.961 . S
C535 C532 1.539 . S
C535 H549 0.958 . S
C535 H550 0.961 . S
C535 H551 0.960 . S
H536 C520 0.931 . S
H537 C525 0.929 . S
H538 C526 0.960 . S
H539 C526 0.962 . S
H540 C526 0.960 . S
H541 C527 0.961 . S
H542 C527 0.961 . S
H543 C527 0.961 . S
H544 C528 0.931 . S
H545 C533 0.930 . S
H546 C534 0.956 . S
H547 C534 0.961 . S
H548 C534 0.961 . S
H549 C535 0.958 . S
H550 C535 0.961 . S
H551 C535 0.960 . S
C552 C553 1.391 . S
C552 C554 1.394 . S
C552 H568 0.931 . S
C553 C552 1.391 . S
C553 C557 1.376 . S
C554 C552 1.394 . S
C554 C555 1.369 . S
C554 C558 1.531 . S
C555 C554 1.369 . S
C555 C556 1.410 . S
C555 C563 1.503 . S
C556 C555 1.410 . S
C556 C557 1.392 . S
C556 C559 1.511 . S
C557 C553 1.376 . S
C557 C556 1.392 . S
C557 H569 0.929 . S
C558 C554 1.531 . S
C558 H570 0.960 . S
C558 H571 0.962 . S
C558 H572 0.960 . S
C559 C556 1.511 . S
C559 H573 0.961 . S
C559 H574 0.961 . S
C559 H575 0.961 . S
C560 C561 1.370 . S
C560 C562 1.363 . S
C560 H576 0.931 . S
C561 C560 1.370 . S
C561 C565 1.408 . S
C562 C560 1.363 . S
C562 C563 1.370 . S
C562 C566 1.524 . S
C563 C555 1.503 . S
C563 C562 1.370 . S
C563 C564 1.403 . S
C564 C563 1.403 . S
C564 C565 1.404 . S
C564 C567 1.539 . S
C565 C561 1.408 . S
C565 C564 1.404 . S
C565 H577 0.930 . S
C566 C562 1.524 . S
C566 H578 0.956 . S
C566 H579 0.961 . S
C566 H580 0.961 . S
C567 C564 1.539 . S
C567 H581 0.958 . S
C567 H582 0.961 . S
C567 H583 0.960 . S
H568 C552 0.931 . S
H569 C557 0.929 . S
H570 C558 0.960 . S
H571 C558 0.962 . S
H572 C558 0.960 . S
H573 C559 0.961 . S
H574 C559 0.961 . S
H575 C559 0.961 . S
H576 C560 0.931 . S
H577 C565 0.930 . S
H578 C566 0.956 . S
H579 C566 0.961 . S
H580 C566 0.961 . S
H581 C567 0.958 . S
H582 C567 0.961 . S
H583 C567 0.960 . S
C584 C585 1.391 . S
C584 C586 1.394 . S
C584 H600 0.931 . S
C585 C584 1.391 . S
C585 C589 1.376 . S
C586 C584 1.394 . S
C586 C587 1.369 . S
C586 C590 1.531 . S
C587 C586 1.369 . S
C587 C588 1.410 . S
C587 C595 1.503 . S
C588 C587 1.410 . S
C588 C589 1.392 . S
C588 C591 1.511 . S
C589 C585 1.376 . S
C589 C588 1.392 . S
C589 H601 0.929 . S
C590 C586 1.531 . S
C590 H602 0.960 . S
C590 H603 0.962 . S
C590 H604 0.960 . S
C591 C588 1.511 . S
C591 H605 0.961 . S
C591 H606 0.961 . S
C591 H607 0.961 . S
C592 C593 1.370 . S
C592 C594 1.363 . S
C592 H608 0.931 . S
C593 C592 1.370 . S
C593 C597 1.408 . S
C594 C592 1.363 . S
C594 C595 1.370 . S
C594 C598 1.524 . S
C595 C587 1.503 . S
C595 C594 1.370 . S
C595 C596 1.403 . S
C596 C595 1.403 . S
C596 C597 1.404 . S
C596 C599 1.539 . S
C597 C593 1.408 . S
C597 C596 1.404 . S
C597 H609 0.930 . S
C598 C594 1.524 . S
C598 H610 0.956 . S
C598 H611 0.961 . S
C598 H612 0.961 . S
C599 C596 1.539 . S
C599 H613 0.958 . S
C599 H614 0.961 . S
C599 H615 0.960 . S
H600 C584 0.931 . S
H601 C589 0.929 . S
H602 C590 0.960 . S
H603 C590 0.962 . S
H604 C590 0.960 . S
H605 C591 0.961 . S
H606 C591 0.961 . S
H607 C591 0.961 . S
H608 C592 0.931 . S
H609 C597 0.930 . S
H610 C598 0.956 . S
H611 C598 0.961 . S
H612 C598 0.961 . S
H613 C599 0.958 . S
H614 C599 0.961 . S
H615 C599 0.960 . S
C616 C617 1.391 . S
C616 C618 1.394 . S
C616 H632 0.931 . S
C617 C616 1.391 . S
C617 C621 1.376 . S
C618 C616 1.394 . S
C618 C619 1.369 . S
C618 C622 1.531 . S
C619 C618 1.369 . S
C619 C620 1.410 . S
C619 C627 1.503 . S
C620 C619 1.410 . S
C620 C621 1.392 . S
C620 C623 1.511 . S
C621 C617 1.376 . S
C621 C620 1.392 . S
C621 H633 0.929 . S
C622 C618 1.531 . S
C622 H634 0.960 . S
C622 H635 0.962 . S
C622 H636 0.960 . S
C623 C620 1.511 . S
C623 H637 0.961 . S
C623 H638 0.961 . S
C623 H639 0.961 . S
C624 C625 1.370 . S
C624 C626 1.363 . S
C624 H640 0.931 . S
C625 C624 1.370 . S
C625 C629 1.408 . S
C626 C624 1.363 . S
C626 C627 1.370 . S
C626 C630 1.524 . S
C627 C619 1.503 . S
C627 C626 1.370 . S
C627 C628 1.403 . S
C628 C627 1.403 . S
C628 C629 1.404 . S
C628 C631 1.539 . S
C629 C625 1.408 . S
C629 C628 1.404 . S
C629 H641 0.930 . S
C630 C626 1.524 . S
C630 H642 0.956 . S
C630 H643 0.961 . S
C630 H644 0.961 . S
C631 C628 1.539 . S
C631 H645 0.958 . S
C631 H646 0.961 . S
C631 H647 0.960 . S
H632 C616 0.931 . S
H633 C621 0.929 . S
H634 C622 0.960 . S
H635 C622 0.962 . S
H636 C622 0.960 . S
H637 C623 0.961 . S
H638 C623 0.961 . S
H639 C623 0.961 . S
H640 C624 0.931 . S
H641 C629 0.930 . S
H642 C630 0.956 . S
H643 C630 0.961 . S
H644 C630 0.961 . S
H645 C631 0.958 . S
H646 C631 0.961 . S
H647 C631 0.960 . S
C648 C649 1.391 . S
C648 C650 1.394 . S
C648 H664 0.931 . S
C649 C648 1.391 . S
C649 C653 1.376 . S
C650 C648 1.394 . S
C650 C651 1.369 . S
C650 C654 1.531 . S
C651 C650 1.369 . S
C651 C652 1.410 . S
C651 C659 1.503 . S
C652 C651 1.410 . S
C652 C653 1.392 . S
C652 C655 1.511 . S
C653 C649 1.376 . S
C653 C652 1.392 . S
C653 H665 0.929 . S
C654 C650 1.531 . S
C654 H666 0.960 . S
C654 H667 0.962 . S
C654 H668 0.960 . S
C655 C652 1.511 . S
C655 H669 0.961 . S
C655 H670 0.961 . S
C655 H671 0.961 . S
C656 C657 1.370 . S
C656 C658 1.363 . S
C656 H672 0.931 . S
C657 C656 1.370 . S
C657 C661 1.408 . S
C658 C656 1.363 . S
C658 C659 1.370 . S
C658 C662 1.524 . S
C659 C651 1.503 . S
C659 C658 1.370 . S
C659 C660 1.403 . S
C660 C659 1.403 . S
C660 C661 1.404 . S
C660 C663 1.539 . S
C661 C657 1.408 . S
C661 C660 1.404 . S
C661 H673 0.930 . S
C662 C658 1.524 . S
C662 H674 0.956 . S
C662 H675 0.961 . S
C662 H676 0.961 . S
C663 C660 1.539 . S
C663 H677 0.958 . S
C663 H678 0.961 . S
C663 H679 0.960 . S
H664 C648 0.931 . S
H665 C653 0.929 . S
H666 C654 0.960 . S
H667 C654 0.962 . S
H668 C654 0.960 . S
H669 C655 0.961 . S
H670 C655 0.961 . S
H671 C655 0.961 . S
H672 C656 0.931 . S
H673 C661 0.930 . S
H674 C662 0.956 . S
H675 C662 0.961 . S
H676 C662 0.961 . S
H677 C663 0.958 . S
H678 C663 0.961 . S
H679 C663 0.960 . S
C680 C681 1.391 . S
C680 C682 1.394 . S
C680 H696 0.931 . S
C681 C680 1.391 . S
C681 C685 1.376 . S
C682 C680 1.394 . S
C682 C683 1.369 . S
C682 C686 1.531 . S
C683 C682 1.369 . S
C683 C684 1.410 . S
C683 C691 1.503 . S
C684 C683 1.410 . S
C684 C685 1.392 . S
C684 C687 1.511 . S
C685 C681 1.376 . S
C685 C684 1.392 . S
C685 H697 0.929 . S
C686 C682 1.531 . S
C686 H698 0.960 . S
C686 H699 0.962 . S
C686 H700 0.960 . S
C687 C684 1.511 . S
C687 H701 0.961 . S
C687 H702 0.961 . S
C687 H703 0.961 . S
C688 C689 1.370 . S
C688 C690 1.363 . S
C688 H704 0.931 . S
C689 C688 1.370 . S
C689 C693 1.408 . S
C690 C688 1.363 . S
C690 C691 1.370 . S
C690 C694 1.524 . S
C691 C683 1.503 . S
C691 C690 1.370 . S
C691 C692 1.403 . S
C692 C691 1.403 . S
C692 C693 1.404 . S
C692 C695 1.539 . S
C693 C689 1.408 . S
C693 C692 1.404 . S
C693 H705 0.930 . S
C694 C690 1.524 . S
C694 H706 0.956 . S
C694 H707 0.961 . S
C694 H708 0.961 . S
C695 C692 1.539 . S
C695 H709 0.958 . S
C695 H710 0.961 . S
C695 H711 0.960 . S
H696 C680 0.931 . S
H697 C685 0.929 . S
H698 C686 0.960 . S
H699 C686 0.962 . S
H700 C686 0.960 . S
H701 C687 0.961 . S
H702 C687 0.961 . S
H703 C687 0.961 . S
H704 C688 0.931 . S
H705 C693 0.930 . S
H706 C694 0.956 . S
H707 C694 0.961 . S
H708 C694 0.961 . S
H709 C695 0.958 . S
H710 C695 0.961 . S
H711 C695 0.960 . S
C712 C713 1.391 . S
C712 C714 1.394 . S
C712 H728 0.931 . S
C713 C712 1.391 . S
C713 C717 1.376 . S
C714 C712 1.394 . S
C714 C715 1.369 . S
C714 C718 1.531 . S
C715 C714 1.369 . S
C715 C716 1.410 . S
C715 C723 1.503 . S
C716 C715 1.410 . S
C716 C717 1.392 . S
C716 C719 1.511 . S
C717 C713 1.376 . S
C717 C716 1.392 . S
C717 H729 0.929 . S
C718 C714 1.531 . S
C718 H730 0.960 . S
C718 H731 0.962 . S
C718 H732 0.960 . S
C719 C716 1.511 . S
C719 H733 0.961 . S
C719 H734 0.961 . S
C719 H735 0.961 . S
C720 C721 1.370 . S
C720 C722 1.363 . S
C720 H736 0.931 . S
C721 C720 1.370 . S
C721 C725 1.408 . S
C722 C720 1.363 . S
C722 C723 1.370 . S
C722 C726 1.524 . S
C723 C715 1.503 . S
C723 C722 1.370 . S
C723 C724 1.403 . S
C724 C723 1.403 . S
C724 C725 1.404 . S
C724 C727 1.539 . S
C725 C721 1.408 . S
C725 C724 1.404 . S
C725 H737 0.930 . S
C726 C722 1.524 . S
C726 H738 0.956 . S
C726 H739 0.961 . S
C726 H740 0.961 . S
C727 C724 1.539 . S
C727 H741 0.958 . S
C727 H742 0.961 . S
C727 H743 0.960 . S
H728 C712 0.931 . S
H729 C717 0.929 . S
H730 C718 0.960 . S
H731 C718 0.962 . S
H732 C718 0.960 . S
H733 C719 0.961 . S
H734 C719 0.961 . S
H735 C719 0.961 . S
H736 C720 0.931 . S
H737 C725 0.930 . S
H738 C726 0.956 . S
H739 C726 0.961 . S
H740 C726 0.961 . S
H741 C727 0.958 . S
H742 C727 0.961 . S
H743 C727 0.960 . S
C744 C745 1.391 . S
C744 C746 1.394 . S
C744 H760 0.931 . S
C745 C744 1.391 . S
C745 C749 1.376 . S
C746 C744 1.394 . S
C746 C747 1.369 . S
C746 C750 1.531 . S
C747 C746 1.369 . S
C747 C748 1.410 . S
C747 C755 1.503 . S
C748 C747 1.410 . S
C748 C749 1.392 . S
C748 C751 1.511 1_554 S
C749 C745 1.376 . S
C749 C748 1.392 . S
C749 H761 0.929 1_554 S
C750 C746 1.531 . S
C750 H762 0.960 . S
C750 H763 0.962 . S
C750 H764 0.960 . S
C751 C748 1.511 1_556 S
C751 H765 0.961 . S
C751 H766 0.961 . S
C751 H767 0.961 1_556 S
C752 C753 1.370 . S
C752 C754 1.363 . S
C752 H768 0.931 . S
C753 C752 1.370 . S
C753 C757 1.408 . S
C754 C752 1.363 . S
C754 C755 1.370 . S
C754 C758 1.524 . S
C755 C747 1.503 . S
C755 C754 1.370 . S
C755 C756 1.403 . S
C756 C755 1.403 . S
C756 C757 1.404 . S
C756 C759 1.539 . S
C757 C753 1.408 . S
C757 C756 1.404 . S
C757 H769 0.930 . S
C758 C754 1.524 . S
C758 H770 0.956 . S
C758 H771 0.961 1_554 S
C758 H772 0.961 . S
C759 C756 1.539 . S
C759 H773 0.958 . S
C759 H774 0.961 . S
C759 H775 0.960 . S
H760 C744 0.931 . S
H761 C749 0.929 1_556 S
H762 C750 0.960 . S
H763 C750 0.962 . S
H764 C750 0.960 . S
H765 C751 0.961 . S
H766 C751 0.961 . S
H767 C751 0.961 1_554 S
H768 C752 0.931 . S
H769 C757 0.930 . S
H770 C758 0.956 . S
H771 C758 0.961 1_556 S
H772 C758 0.961 . S
H773 C759 0.958 . S
H774 C759 0.961 . S
H775 C759 0.960 . S
C776 C777 1.391 . S
C776 C778 1.394 . S
C776 H792 0.931 . S
C777 C776 1.391 . S
C777 C781 1.376 . S
C778 C776 1.394 . S
C778 C779 1.369 . S
C778 C782 1.531 . S
C779 C778 1.369 . S
C779 C780 1.410 . S
C779 C787 1.503 . S
C780 C779 1.410 . S
C780 C781 1.392 . S
C780 C783 1.511 . S
C781 C777 1.376 . S
C781 C780 1.392 . S
C781 H793 0.929 . S
C782 C778 1.531 . S
C782 H794 0.960 . S
C782 H795 0.962 . S
C782 H796 0.960 . S
C783 C780 1.511 . S
C783 H797 0.961 . S
C783 H798 0.961 . S
C783 H799 0.961 . S
C784 C785 1.370 . S
C784 C786 1.363 . S
C784 H800 0.931 . S
C785 C784 1.370 . S
C785 C789 1.408 . S
C786 C784 1.363 . S
C786 C787 1.370 . S
C786 C790 1.524 . S
C787 C779 1.503 . S
C787 C786 1.370 . S
C787 C788 1.403 . S
C788 C787 1.403 . S
C788 C789 1.404 . S
C788 C791 1.539 . S
C789 C785 1.408 . S
C789 C788 1.404 . S
C789 H801 0.930 . S
C790 C786 1.524 . S
C790 H802 0.956 . S
C790 H803 0.961 . S
C790 H804 0.961 . S
C791 C788 1.539 . S
C791 H805 0.958 . S
C791 H806 0.961 . S
C791 H807 0.960 . S
H792 C776 0.931 . S
H793 C781 0.929 . S
H794 C782 0.960 . S
H795 C782 0.962 . S
H796 C782 0.960 . S
H797 C783 0.961 . S
H798 C783 0.961 . S
H799 C783 0.961 . S
H800 C784 0.931 . S
H801 C789 0.930 . S
H802 C790 0.956 . S
H803 C790 0.961 . S
H804 C790 0.961 . S
H805 C791 0.958 . S
H806 C791 0.961 . S
H807 C791 0.960 . S
C808 C809 1.391 . S
C808 C810 1.394 . S
C808 H824 0.931 . S
C809 C808 1.391 . S
C809 C813 1.376 . S
C810 C808 1.394 . S
C810 C811 1.369 . S
C810 C814 1.531 . S
C811 C810 1.369 . S
C811 C812 1.410 . S
C811 C819 1.503 . S
C812 C811 1.410 . S
C812 C813 1.392 . S
C812 C815 1.511 . S
C813 C809 1.376 . S
C813 C812 1.392 . S
C813 H825 0.929 . S
C814 C810 1.531 . S
C814 H826 0.960 . S
C814 H827 0.962 . S
C814 H828 0.960 . S
C815 C812 1.511 . S
C815 H829 0.961 . S
C815 H830 0.961 . S
C815 H831 0.961 . S
C816 C817 1.370 . S
C816 C818 1.363 . S
C816 H832 0.931 . S
C817 C816 1.370 . S
C817 C821 1.408 . S
C818 C816 1.363 . S
C818 C819 1.370 . S
C818 C822 1.524 . S
C819 C811 1.503 . S
C819 C818 1.370 . S
C819 C820 1.403 . S
C820 C819 1.403 . S
C820 C821 1.404 . S
C820 C823 1.539 . S
C821 C817 1.408 . S
C821 C820 1.404 . S
C821 H833 0.930 . S
C822 C818 1.524 . S
C822 H834 0.956 . S
C822 H835 0.961 . S
C822 H836 0.961 . S
C823 C820 1.539 . S
C823 H837 0.958 . S
C823 H838 0.961 . S
C823 H839 0.960 . S
H824 C808 0.931 . S
H825 C813 0.929 . S
H826 C814 0.960 . S
H827 C814 0.962 . S
H828 C814 0.960 . S
H829 C815 0.961 . S
H830 C815 0.961 . S
H831 C815 0.961 . S
H832 C816 0.931 . S
H833 C821 0.930 . S
H834 C822 0.956 . S
H835 C822 0.961 . S
H836 C822 0.961 . S
H837 C823 0.958 . S
H838 C823 0.961 . S
H839 C823 0.960 . S
C840 C841 1.391 . S
C840 C842 1.394 . S
C840 H856 0.931 . S
C841 C840 1.391 . S
C841 C845 1.376 . S
C842 C840 1.394 . S
C842 C843 1.369 . S
C842 C846 1.531 . S
C843 C842 1.369 . S
C843 C844 1.410 . S
C843 C851 1.503 . S
C844 C843 1.410 . S
C844 C845 1.392 . S
C844 C847 1.511 . S
C845 C841 1.376 . S
C845 C844 1.392 . S
C845 H857 0.929 . S
C846 C842 1.531 . S
C846 H858 0.960 . S
C846 H859 0.962 . S
C846 H860 0.960 . S
C847 C844 1.511 . S
C847 H861 0.961 . S
C847 H862 0.961 . S
C847 H863 0.961 . S
C848 C849 1.370 . S
C848 C850 1.363 . S
C848 H864 0.931 . S
C849 C848 1.370 . S
C849 C853 1.408 . S
C850 C848 1.363 . S
C850 C851 1.370 . S
C850 C854 1.524 . S
C851 C843 1.503 . S
C851 C850 1.370 . S
C851 C852 1.403 . S
C852 C851 1.403 . S
C852 C853 1.404 . S
C852 C855 1.539 . S
C853 C849 1.408 . S
C853 C852 1.404 . S
C853 H865 0.930 . S
C854 C850 1.524 . S
C854 H866 0.956 . S
C854 H867 0.961 . S
C854 H868 0.961 . S
C855 C852 1.539 . S
C855 H869 0.958 . S
C855 H870 0.961 . S
C855 H871 0.960 . S
H856 C840 0.931 . S
H857 C845 0.929 . S
H858 C846 0.960 . S
H859 C846 0.962 . S
H860 C846 0.960 . S
H861 C847 0.961 . S
H862 C847 0.961 . S
H863 C847 0.961 . S
H864 C848 0.931 . S
H865 C853 0.930 . S
H866 C854 0.956 . S
H867 C854 0.961 . S
H868 C854 0.961 . S
H869 C855 0.958 . S
H870 C855 0.961 . S
H871 C855 0.960 . S
C872 C873 1.391 . S
C872 C874 1.394 . S
C872 H888 0.931 . S
C873 C872 1.391 . S
C873 C877 1.376 . S
C874 C872 1.394 . S
C874 C875 1.369 . S
C874 C878 1.531 . S
C875 C874 1.369 . S
C875 C876 1.410 . S
C875 C883 1.503 . S
C876 C875 1.410 . S
C876 C877 1.392 . S
C876 C879 1.511 . S
C877 C873 1.376 . S
C877 C876 1.392 . S
C877 H889 0.929 . S
C878 C874 1.531 . S
C878 H890 0.960 . S
C878 H891 0.962 . S
C878 H892 0.960 . S
C879 C876 1.511 . S
C879 H893 0.961 . S
C879 H894 0.961 . S
C879 H895 0.961 . S
C880 C881 1.370 . S
C880 C882 1.363 . S
C880 H896 0.931 . S
C881 C880 1.370 . S
C881 C885 1.408 . S
C882 C880 1.363 . S
C882 C883 1.370 . S
C882 C886 1.524 . S
C883 C875 1.503 . S
C883 C882 1.370 . S
C883 C884 1.403 . S
C884 C883 1.403 . S
C884 C885 1.404 . S
C884 C887 1.539 . S
C885 C881 1.408 . S
C885 C884 1.404 . S
C885 H897 0.930 . S
C886 C882 1.524 . S
C886 H898 0.956 . S
C886 H899 0.961 . S
C886 H900 0.961 . S
C887 C884 1.539 . S
C887 H901 0.958 . S
C887 H902 0.961 . S
C887 H903 0.960 . S
H888 C872 0.931 . S
H889 C877 0.929 . S
H890 C878 0.960 . S
H891 C878 0.962 . S
H892 C878 0.960 . S
H893 C879 0.961 . S
H894 C879 0.961 . S
H895 C879 0.961 . S
H896 C880 0.931 . S
H897 C885 0.930 . S
H898 C886 0.956 . S
H899 C886 0.961 . S
H900 C886 0.961 . S
H901 C887 0.958 . S
H902 C887 0.961 . S
H903 C887 0.960 . S
C904 C905 1.391 . S
C904 C906 1.394 . S
C904 H920 0.931 . S
C905 C904 1.391 . S
C905 C909 1.376 . S
C906 C904 1.394 . S
C906 C907 1.369 . S
C906 C910 1.531 . S
C907 C906 1.369 . S
C907 C908 1.410 . S
C907 C915 1.503 . S
C908 C907 1.410 . S
C908 C909 1.392 . S
C908 C911 1.511 . S
C909 C905 1.376 . S
C909 C908 1.392 . S
C909 H921 0.929 . S
C910 C906 1.531 . S
C910 H922 0.960 . S
C910 H923 0.962 . S
C910 H924 0.960 . S
C911 C908 1.511 . S
C911 H925 0.961 . S
C911 H926 0.961 . S
C911 H927 0.961 . S
C912 C913 1.370 . S
C912 C914 1.363 . S
C912 H928 0.931 . S
C913 C912 1.370 . S
C913 C917 1.408 . S
C914 C912 1.363 . S
C914 C915 1.370 . S
C914 C918 1.524 . S
C915 C907 1.503 . S
C915 C914 1.370 . S
C915 C916 1.403 . S
C916 C915 1.403 . S
C916 C917 1.404 . S
C916 C919 1.539 . S
C917 C913 1.408 . S
C917 C916 1.404 . S
C917 H929 0.930 . S
C918 C914 1.524 . S
C918 H930 0.956 . S
C918 H931 0.961 . S
C918 H932 0.961 . S
C919 C916 1.539 . S
C919 H933 0.958 . S
C919 H934 0.961 . S
C919 H935 0.960 . S
H920 C904 0.931 . S
H921 C909 0.929 . S
H922 C910 0.960 . S
H923 C910 0.962 . S
H924 C910 0.960 . S
H925 C911 0.961 . S
H926 C911 0.961 . S
H927 C911 0.961 . S
H928 C912 0.931 . S
H929 C917 0.930 . S
H930 C918 0.956 . S
H931 C918 0.961 . S
H932 C918 0.961 . S
H933 C919 0.958 . S
H934 C919 0.961 . S
H935 C919 0.960 . S
C936 C937 1.391 . S
C936 C938 1.394 . S
C936 H952 0.931 . S
C937 C936 1.391 . S
C937 C941 1.376 . S
C938 C936 1.394 . S
C938 C939 1.369 . S
C938 C942 1.531 . S
C939 C938 1.369 . S
C939 C940 1.410 . S
C939 C947 1.503 . S
C940 C939 1.410 . S
C940 C941 1.392 . S
C940 C943 1.511 . S
C941 C937 1.376 . S
C941 C940 1.392 . S
C941 H953 0.929 . S
C942 C938 1.531 . S
C942 H954 0.960 1_556 S
C942 H955 0.962 . S
C942 H956 0.960 . S
C943 C940 1.511 . S
C943 H957 0.961 . S
C943 H958 0.961 . S
C943 H959 0.961 . S
C944 C945 1.378 . S
C944 C946 1.352 1_554 S
C944 H960 0.935 . S
C945 C944 1.378 . S
C945 C949 1.408 . S
C946 C944 1.352 1_556 S
C946 C947 1.370 . S
C946 C950 1.524 . S
C947 C939 1.503 . S
C947 C946 1.370 . S
C947 C948 1.403 . S
C948 C947 1.403 . S
C948 C949 1.404 1_556 S
C948 C951 1.539 . S
C949 C945 1.408 . S
C949 C948 1.404 1_554 S
C949 H961 0.930 . S
C950 C946 1.524 . S
C950 H962 0.956 . S
C950 H963 0.961 . S
C950 H964 0.961 . S
C951 C948 1.539 . S
C951 H965 0.958 . S
C951 H966 0.961 . S
C951 H967 0.960 . S
H952 C936 0.931 . S
H953 C941 0.929 . S
H954 C942 0.960 1_554 S
H955 C942 0.962 . S
H956 C942 0.960 . S
H957 C943 0.961 . S
H958 C943 0.961 . S
H959 C943 0.961 . S
H960 C944 0.935 . S
H961 C949 0.930 . S
H962 C950 0.956 . S
H963 C950 0.961 . S
H964 C950 0.961 . S
H965 C951 0.958 . S
H966 C951 0.961 . S
H967 C951 0.960 . S
C968 C969 1.391 . S
C968 C970 1.394 . S
C968 H984 0.931 . S
C969 C968 1.391 . S
C969 C973 1.376 . S
C970 C968 1.394 . S
C970 C971 1.369 . S
C970 C974 1.531 . S
C971 C970 1.369 . S
C971 C972 1.410 . S
C971 C979 1.503 . S
C972 C971 1.410 . S
C972 C973 1.392 . S
C972 C975 1.511 . S
C973 C969 1.376 . S
C973 C972 1.392 . S
C973 H985 0.929 . S
C974 C970 1.531 . S
C974 H986 0.960 . S
C974 H987 0.962 . S
C974 H988 0.960 . S
C975 C972 1.511 . S
C975 H989 0.961 . S
C975 H990 0.961 . S
C975 H991 0.961 . S
C976 C977 1.370 . S
C976 C978 1.363 . S
C976 H992 0.931 . S
C977 C976 1.370 . S
C977 C981 1.408 . S
C978 C976 1.363 . S
C978 C979 1.370 . S
C978 C982 1.524 . S
C979 C971 1.503 . S
C979 C978 1.370 . S
C979 C980 1.403 . S
C980 C979 1.403 . S
C980 C981 1.404 . S
C980 C983 1.539 . S
C981 C977 1.408 . S
C981 C980 1.404 . S
C981 H993 0.930 . S
C982 C978 1.524 . S
C982 H994 0.956 . S
C982 H995 0.961 . S
C982 H996 0.961 . S
C983 C980 1.539 . S
C983 H997 0.958 . S
C983 H998 0.961 . S
C983 H999 0.960 . S
H984 C968 0.931 . S
H985 C973 0.929 . S
H986 C974 0.960 . S
H987 C974 0.962 . S
H988 C974 0.960 . S
H989 C975 0.961 . S
H990 C975 0.961 . S
H991 C975 0.961 . S
H992 C976 0.931 . S
H993 C981 0.930 . S
H994 C982 0.956 . S
H995 C982 0.961 . S
H996 C982 0.961 . S
H997 C983 0.958 . S
H998 C983 0.961 . S
H999 C983 0.960 . S
C1000 C1001 1.391 . S
C1000 C1002 1.394 . S
C1000 H1016 0.931 . S
C1001 C1000 1.391 . S
C1001 C1005 1.376 . S
C1002 C1000 1.394 . S
C1002 C1003 1.369 . S
C1002 C1006 1.531 . S
C1003 C1002 1.369 . S
C1003 C1004 1.410 . S
C1003 C1011 1.503 . S
C1004 C1003 1.410 . S
C1004 C1005 1.392 . S
C1004 C1007 1.511 . S
C1005 C1001 1.376 . S
C1005 C1004 1.392 . S
C1005 H1017 0.929 . S
C1006 C1002 1.531 . S
C1006 H1018 0.960 . S
C1006 H1019 0.962 . S
C1006 H1020 0.960 . S
C1007 C1004 1.511 . S
C1007 H1021 0.961 . S
C1007 H1022 0.961 . S
C1007 H1023 0.961 . S
C1008 C1009 1.370 . S
C1008 C1010 1.363 . S
C1008 H1024 0.931 . S
C1009 C1008 1.370 . S
C1009 C1013 1.408 . S
C1010 C1008 1.363 . S
C1010 C1011 1.370 . S
C1010 C1014 1.524 . S
C1011 C1003 1.503 . S
C1011 C1010 1.370 . S
C1011 C1012 1.403 . S
C1012 C1011 1.403 . S
C1012 C1013 1.404 . S
C1012 C1015 1.539 . S
C1013 C1009 1.408 . S
C1013 C1012 1.404 . S
C1013 H1025 0.930 . S
C1014 C1010 1.524 . S
C1014 H1026 0.956 . S
C1014 H1027 0.961 . S
C1014 H1028 0.961 . S
C1015 C1012 1.539 . S
C1015 H1029 0.958 . S
C1015 H1030 0.961 . S
C1015 H1031 0.960 . S
H1016 C1000 0.931 . S
H1017 C1005 0.929 . S
H1018 C1006 0.960 . S
H1019 C1006 0.962 . S
H1020 C1006 0.960 . S
H1021 C1007 0.961 . S
H1022 C1007 0.961 . S
H1023 C1007 0.961 . S
H1024 C1008 0.931 . S
H1025 C1013 0.930 . S
H1026 C1014 0.956 . S
H1027 C1014 0.961 . S
H1028 C1014 0.961 . S
H1029 C1015 0.958 . S
H1030 C1015 0.961 . S
H1031 C1015 0.960 . S
C1032 C1033 1.391 . S
C1032 C1034 1.394 . S
C1032 H1048 0.931 . S
C1033 C1032 1.391 . S
C1033 C1037 1.376 . S
C1034 C1032 1.394 . S
C1034 C1035 1.369 . S
C1034 C1038 1.531 . S
C1035 C1034 1.369 . S
C1035 C1036 1.410 . S
C1035 C1043 1.503 . S
C1036 C1035 1.410 . S
C1036 C1037 1.392 . S
C1036 C1039 1.511 . S
C1037 C1033 1.376 . S
C1037 C1036 1.392 . S
C1037 H1049 0.929 . S
C1038 C1034 1.531 . S
C1038 H1050 0.960 . S
C1038 H1051 0.962 . S
C1038 H1052 0.960 . S
C1039 C1036 1.511 . S
C1039 H1053 0.961 . S
C1039 H1054 0.961 . S
C1039 H1055 0.961 . S
C1040 C1041 1.370 . S
C1040 C1042 1.363 . S
C1040 H1056 0.931 . S
C1041 C1040 1.370 . S
C1041 C1045 1.408 . S
C1042 C1040 1.363 . S
C1042 C1043 1.370 . S
C1042 C1046 1.524 . S
C1043 C1035 1.503 . S
C1043 C1042 1.370 . S
C1043 C1044 1.403 . S
C1044 C1043 1.403 . S
C1044 C1045 1.404 . S
C1044 C1047 1.539 . S
C1045 C1041 1.408 . S
C1045 C1044 1.404 . S
C1045 H1057 0.930 . S
C1046 C1042 1.524 . S
C1046 H1058 0.956 . S
C1046 H1059 0.961 . S
C1046 H1060 0.961 . S
C1047 C1044 1.539 . S
C1047 H1061 0.958 . S
C1047 H1062 0.961 . S
C1047 H1063 0.960 . S
H1048 C1032 0.931 . S
H1049 C1037 0.929 . S
H1050 C1038 0.960 . S
H1051 C1038 0.962 . S
H1052 C1038 0.960 . S
H1053 C1039 0.961 . S
H1054 C1039 0.961 . S
H1055 C1039 0.961 . S
H1056 C1040 0.931 . S
H1057 C1045 0.930 . S
H1058 C1046 0.956 . S
H1059 C1046 0.961 . S
H1060 C1046 0.961 . S
H1061 C1047 0.958 . S
H1062 C1047 0.961 . S
H1063 C1047 0.960 . S
C1064 C1065 1.391 . S
C1064 C1066 1.394 . S
C1064 H1080 0.931 . S
C1065 C1064 1.391 . S
C1065 C1069 1.376 . S
C1066 C1064 1.394 . S
C1066 C1067 1.369 . S
C1066 C1070 1.531 . S
C1067 C1066 1.369 . S
C1067 C1068 1.410 . S
C1067 C1075 1.503 . S
C1068 C1067 1.410 . S
C1068 C1069 1.392 . S
C1068 C1071 1.511 . S
C1069 C1065 1.376 . S
C1069 C1068 1.392 . S
C1069 H1081 0.929 . S
C1070 C1066 1.531 . S
C1070 H1082 0.960 . S
C1070 H1083 0.962 . S
C1070 H1084 0.960 . S
C1071 C1068 1.511 . S
C1071 H1085 0.961 . S
C1071 H1086 0.961 . S
C1071 H1087 0.961 . S
C1072 C1073 1.370 . S
C1072 C1074 1.363 . S
C1072 H1088 0.931 . S
C1073 C1072 1.370 . S
C1073 C1077 1.408 . S
C1074 C1072 1.363 . S
C1074 C1075 1.370 . S
C1074 C1078 1.524 . S
C1075 C1067 1.503 . S
C1075 C1074 1.370 . S
C1075 C1076 1.403 . S
C1076 C1075 1.403 . S
C1076 C1077 1.404 . S
C1076 C1079 1.539 . S
C1077 C1073 1.408 . S
C1077 C1076 1.404 . S
C1077 H1089 0.930 . S
C1078 C1074 1.524 . S
C1078 H1090 0.956 . S
C1078 H1091 0.961 . S
C1078 H1092 0.961 . S
C1079 C1076 1.539 . S
C1079 H1093 0.958 . S
C1079 H1094 0.961 . S
C1079 H1095 0.960 . S
H1080 C1064 0.931 . S
H1081 C1069 0.929 . S
H1082 C1070 0.960 . S
H1083 C1070 0.962 . S
H1084 C1070 0.960 . S
H1085 C1071 0.961 . S
H1086 C1071 0.961 . S
H1087 C1071 0.961 . S
H1088 C1072 0.931 . S
H1089 C1077 0.930 . S
H1090 C1078 0.956 . S
H1091 C1078 0.961 . S
H1092 C1078 0.961 . S
H1093 C1079 0.958 . S
H1094 C1079 0.961 . S
H1095 C1079 0.960 . S
C1096 C1097 1.391 . S
C1096 C1098 1.394 . S
C1096 H1112 0.931 . S
C1097 C1096 1.391 . S
C1097 C1101 1.376 . S
C1098 C1096 1.394 . S
C1098 C1099 1.369 . S
C1098 C1102 1.531 . S
C1099 C1098 1.369 . S
C1099 C1100 1.410 . S
C1099 C1107 1.503 . S
C1100 C1099 1.410 . S
C1100 C1101 1.392 . S
C1100 C1103 1.511 . S
C1101 C1097 1.376 . S
C1101 C1100 1.392 . S
C1101 H1113 0.929 . S
C1102 C1098 1.531 . S
C1102 H1114 0.960 . S
C1102 H1115 0.962 . S
C1102 H1116 0.960 . S
C1103 C1100 1.511 . S
C1103 H1117 0.961 . S
C1103 H1118 0.961 . S
C1103 H1119 0.961 . S
C1104 C1105 1.370 . S
C1104 C1106 1.363 . S
C1104 H1120 0.931 . S
C1105 C1104 1.370 . S
C1105 C1109 1.408 . S
C1106 C1104 1.363 . S
C1106 C1107 1.370 . S
C1106 C1110 1.524 . S
C1107 C1099 1.503 . S
C1107 C1106 1.370 . S
C1107 C1108 1.403 . S
C1108 C1107 1.403 . S
C1108 C1109 1.404 . S
C1108 C1111 1.539 . S
C1109 C1105 1.408 . S
C1109 C1108 1.404 . S
C1109 H1121 0.930 . S
C1110 C1106 1.524 . S
C1110 H1122 0.956 . S
C1110 H1123 0.961 . S
C1110 H1124 0.961 . S
C1111 C1108 1.539 . S
C1111 H1125 0.958 . S
C1111 H1126 0.961 . S
C1111 H1127 0.960 . S
H1112 C1096 0.931 . S
H1113 C1101 0.929 . S
H1114 C1102 0.960 . S
H1115 C1102 0.962 . S
H1116 C1102 0.960 . S
H1117 C1103 0.961 . S
H1118 C1103 0.961 . S
H1119 C1103 0.961 . S
H1120 C1104 0.931 . S
H1121 C1109 0.930 . S
H1122 C1110 0.956 . S
H1123 C1110 0.961 . S
H1124 C1110 0.961 . S
H1125 C1111 0.958 . S
H1126 C1111 0.961 . S
H1127 C1111 0.960 . S
C1128 C1129 1.391 . S
C1128 C1130 1.394 . S
C1128 H1144 0.931 . S
C1129 C1128 1.391 . S
C1129 C1133 1.376 . S
C1130 C1128 1.394 . S
C1130 C1131 1.369 . S
C1130 C1134 1.531 . S
C1131 C1130 1.369 . S
C1131 C1132 1.410 . S
C1131 C1139 1.503 . S
C1132 C1131 1.410 . S
C1132 C1133 1.392 . S
C1132 C1135 1.511 . S
C1133 C1129 1.376 . S
C1133 C1132 1.392 . S
C1133 H1145 0.929 . S
C1134 C1130 1.531 . S
C1134 H1146 0.960 . S
C1134 H1147 0.962 . S
C1134 H1148 0.960 . S
C1135 C1132 1.511 . S
C1135 H1149 0.961 . S
C1135 H1150 0.961 . S
C1135 H1151 0.961 . S
C1136 C1137 1.370 . S
C1136 C1138 1.363 . S
C1136 H1152 0.931 . S
C1137 C1136 1.370 . S
C1137 C1141 1.408 . S
C1138 C1136 1.363 . S
C1138 C1139 1.370 . S
C1138 C1142 1.524 . S
C1139 C1131 1.503 . S
C1139 C1138 1.370 . S
C1139 C1140 1.403 . S
C1140 C1139 1.403 . S
C1140 C1141 1.404 . S
C1140 C1143 1.539 . S
C1141 C1137 1.408 . S
C1141 C1140 1.404 . S
C1141 H1153 0.930 . S
C1142 C1138 1.524 . S
C1142 H1154 0.956 . S
C1142 H1155 0.961 . S
C1142 H1156 0.961 . S
C1143 C1140 1.539 . S
C1143 H1157 0.958 . S
C1143 H1158 0.961 . S
C1143 H1159 0.960 . S
H1144 C1128 0.931 . S
H1145 C1133 0.929 . S
H1146 C1134 0.960 . S
H1147 C1134 0.962 . S
H1148 C1134 0.960 . S
H1149 C1135 0.961 . S
H1150 C1135 0.961 . S
H1151 C1135 0.961 . S
H1152 C1136 0.931 . S
H1153 C1141 0.930 . S
H1154 C1142 0.956 . S
H1155 C1142 0.961 . S
H1156 C1142 0.961 . S
H1157 C1143 0.958 . S
H1158 C1143 0.961 . S
H1159 C1143 0.960 . S
C1160 C1161 1.391 . S
C1160 C1162 1.394 . S
C1160 H1176 0.931 . S
C1161 C1160 1.391 . S
C1161 C1165 1.376 . S
C1162 C1160 1.394 . S
C1162 C1163 1.369 1_554 S
C1162 C1166 1.519 1_554 S
C1163 C1162 1.369 1_556 S
C1163 C1164 1.410 1_556 S
C1163 C1171 1.503 . S
C1164 C1163 1.410 1_554 S
C1164 C1165 1.392 . S
C1164 C1167 1.511 1_554 S
C1165 C1161 1.376 . S
C1165 C1164 1.392 . S
C1165 H1177 0.929 . S
C1166 C1162 1.519 1_556 S
C1166 H1178 0.967 . S
C1166 H1179 1.006 . S
C1166 H1180 0.924 1_556 S
C1167 C1164 1.511 1_556 S
C1167 H1181 0.961 . S
C1167 H1182 0.961 . S
C1167 H1183 0.961 1_556 S
C1168 C1169 1.370 . S
C1168 C1170 1.363 . S
C1168 H1184 0.931 . S
C1169 C1168 1.370 . S
C1169 C1173 1.408 . S
C1170 C1168 1.363 . S
C1170 C1171 1.370 . S
C1170 C1174 1.524 . S
C1171 C1163 1.503 . S
C1171 C1170 1.370 . S
C1171 C1172 1.403 . S
C1172 C1171 1.403 . S
C1172 C1173 1.404 . S
C1172 C1175 1.539 1_556 S
C1173 C1169 1.408 . S
C1173 C1172 1.404 . S
C1173 H1185 0.930 . S
C1174 C1170 1.524 . S
C1174 H1186 0.956 . S
C1174 H1187 0.961 . S
C1174 H1188 0.961 . S
C1175 C1172 1.539 1_554 S
C1175 H1189 0.958 . S
C1175 H1190 0.961 . S
C1175 H1191 0.960 . S
H1176 C1160 0.931 . S
H1177 C1165 0.929 . S
H1178 C1166 0.967 . S
H1179 C1166 1.006 . S
H1180 C1166 0.924 1_554 S
H1181 C1167 0.961 . S
H1182 C1167 0.961 . S
H1183 C1167 0.961 1_554 S
H1184 C1168 0.931 . S
H1185 C1173 0.930 . S
H1186 C1174 0.956 . S
H1187 C1174 0.961 . S
H1188 C1174 0.961 . S
H1189 C1175 0.958 . S
H1190 C1175 0.961 . S
H1191 C1175 0.960 . S
C1192 C1193 1.391 . S
C1192 C1194 1.394 . S
C1192 H1208 0.931 . S
C1193 C1192 1.391 . S
C1193 C1197 1.376 . S
C1194 C1192 1.394 . S
C1194 C1195 1.369 . S
C1194 C1198 1.531 . S
C1195 C1194 1.369 . S
C1195 C1196 1.410 . S
C1195 C1203 1.503 . S
C1196 C1195 1.410 . S
C1196 C1197 1.392 . S
C1196 C1199 1.511 . S
C1197 C1193 1.376 . S
C1197 C1196 1.392 . S
C1197 H1209 0.929 . S
C1198 C1194 1.531 . S
C1198 H1210 0.960 . S
C1198 H1211 0.962 . S
C1198 H1212 0.960 . S
C1199 C1196 1.511 . S
C1199 H1213 0.961 . S
C1199 H1214 0.961 . S
C1199 H1215 0.961 . S
C1200 C1201 1.370 . S
C1200 C1202 1.363 . S
C1200 H1216 0.931 . S
C1201 C1200 1.370 . S
C1201 C1205 1.408 . S
C1202 C1200 1.363 . S
C1202 C1203 1.370 . S
C1202 C1206 1.524 . S
C1203 C1195 1.503 . S
C1203 C1202 1.370 . S
C1203 C1204 1.403 . S
C1204 C1203 1.403 . S
C1204 C1205 1.404 . S
C1204 C1207 1.539 . S
C1205 C1201 1.408 . S
C1205 C1204 1.404 . S
C1205 H1217 0.930 . S
C1206 C1202 1.524 . S
C1206 H1218 0.956 . S
C1206 H1219 0.961 . S
C1206 H1220 0.961 . S
C1207 C1204 1.539 . S
C1207 H1221 0.958 . S
C1207 H1222 0.961 . S
C1207 H1223 0.960 . S
H1208 C1192 0.931 . S
H1209 C1197 0.929 . S
H1210 C1198 0.960 . S
H1211 C1198 0.962 . S
H1212 C1198 0.960 . S
H1213 C1199 0.961 . S
H1214 C1199 0.961 . S
H1215 C1199 0.961 . S
H1216 C1200 0.931 . S
H1217 C1205 0.930 . S
H1218 C1206 0.956 . S
H1219 C1206 0.961 . S
H1220 C1206 0.961 . S
H1221 C1207 0.958 . S
H1222 C1207 0.961 . S
H1223 C1207 0.960 . S
C465 C449 1.526 . S
C457 C29 1.383 . S
C489 C115 1.420 . S
C497 C378 1.407 . S
C521 C153 1.399 . S
C529 C392 1.538 . S
C553 C239 1.345 . S
C561 C406 1.385 . S
C593 C420 1.472 . S
C585 C301 1.428 . S
C617 C339 1.685 . S
C625 C435 1.785 . S
C649 C91 1.456 . S
C657 C393 1.530 . S
C681 C177 1.388 . S
C689 C407 1.407 . S
C713 C215 1.401 . S
C721 C421 1.520 . S
C753 C434 1.774 . S
C745 C277 1.697 . S
C785 C448 1.452 . S
C777 C363 1.469 . S
C817 C379 1.371 . S
C809 C53 1.381 . S
C841 C35 1.631 . S
C849 C395 1.621 . S
C873 C109 1.399 . S
C881 C409 1.546 . S
C913 C423 1.494 . S
C905 C159 1.455 . S
C937 C233 1.644 . S
C945 C436 1.787 . S
C977 C450 1.611 . S
C969 C295 1.486 . S
C1009 C381 1.456 . S
C1001 C345 1.481 . S
C1041 C451 1.503 . S
C1033 C97 1.465 . S
C1065 C171 1.378 . S
C1073 C380 1.553 . S
C1105 C394 1.626 . S
C1097 C221 1.630 . S
C1129 C283 1.461 . S
C1137 C408 1.455 . S
C1161 C357 1.408 . S
C1169 C422 1.608 . S
C1193 C47 1.608 . S
C1201 C437 1.782 . S
