# Generated by pormake.
# Topology ssb, (4,4)-cn, num edge types: 1
# Building blocks:
#     Node 0, Type 0, BuildingBlock: NAHDIM_clean_linker_0, # of connection points: 4
#     Node 1, Type 0, BuildingBlock: NAHDIM_clean_linker_0, # of connection points: 4
#     Node 2, Type 0, BuildingBlock: NAHDIM_clean_linker_0, # of connection points: 4
#     Node 3, Type 0, BuildingBlock: NAHDIM_clean_linker_0, # of connection points: 4
#     Node 4, Type 0, BuildingBlock: NAHDIM_clean_linker_0, # of connection points: 4
#     Node 5, Type 0, BuildingBlock: NAHDIM_clean_linker_0, # of connection points: 4
#     Node 6, Type 0, BuildingBlock: NAHDIM_clean_linker_0, # of connection points: 4
#     Node 7, Type 0, BuildingBlock: NAHDIM_clean_linker_0, # of connection points: 4
#     Node 8, Type 1, BuildingBlock: KOZSID_clean_sbu_0, # of connection points: 4
#     Node 9, Type 1, BuildingBlock: KOZSID_clean_sbu_0, # of connection points: 4
#     Node 10, Type 1, BuildingBlock: KOZSID_clean_sbu_0, # of connection points: 4
#     Node 11, Type 1, BuildingBlock: KOZSID_clean_sbu_0, # of connection points: 4
#     Node 12, Type 1, BuildingBlock: KOZSID_clean_sbu_0, # of connection points: 4
#     Node 13, Type 1, BuildingBlock: KOZSID_clean_sbu_0, # of connection points: 4
#     Node 14, Type 1, BuildingBlock: KOZSID_clean_sbu_0, # of connection points: 4
#     Node 15, Type 1, BuildingBlock: KOZSID_clean_sbu_0, # of connection points: 4
#     Edge 16, Type (0, 1), BuildingBlock: ZUJKAS_clean_linker_0, # of connection points: 2
#     Edge 17, Type (0, 1), BuildingBlock: ZUJKAS_clean_linker_0, # of connection points: 2
#     Edge 18, Type (0, 1), BuildingBlock: ZUJKAS_clean_linker_0, # of connection points: 2
#     Edge 19, Type (0, 1), BuildingBlock: ZUJKAS_clean_linker_0, # of connection points: 2
#     Edge 20, Type (0, 1), BuildingBlock: ZUJKAS_clean_linker_0, # of connection points: 2
#     Edge 21, Type (0, 1), BuildingBlock: ZUJKAS_clean_linker_0, # of connection points: 2
#     Edge 22, Type (0, 1), BuildingBlock: ZUJKAS_clean_linker_0, # of connection points: 2
#     Edge 23, Type (0, 1), BuildingBlock: ZUJKAS_clean_linker_0, # of connection points: 2
#     Edge 24, Type (0, 1), BuildingBlock: ZUJKAS_clean_linker_0, # of connection points: 2
#     Edge 25, Type (0, 1), BuildingBlock: ZUJKAS_clean_linker_0, # of connection points: 2
#     Edge 26, Type (0, 1), BuildingBlock: ZUJKAS_clean_linker_0, # of connection points: 2
#     Edge 27, Type (0, 1), BuildingBlock: ZUJKAS_clean_linker_0, # of connection points: 2
#     Edge 28, Type (0, 1), BuildingBlock: ZUJKAS_clean_linker_0, # of connection points: 2
#     Edge 29, Type (0, 1), BuildingBlock: ZUJKAS_clean_linker_0, # of connection points: 2
#     Edge 30, Type (0, 1), BuildingBlock: ZUJKAS_clean_linker_0, # of connection points: 2
#     Edge 31, Type (0, 1), BuildingBlock: ZUJKAS_clean_linker_0, # of connection points: 2
#     Edge 32, Type (0, 1), BuildingBlock: ZUJKAS_clean_linker_0, # of connection points: 2
#     Edge 33, Type (0, 1), BuildingBlock: ZUJKAS_clean_linker_0, # of connection points: 2
#     Edge 34, Type (0, 1), BuildingBlock: ZUJKAS_clean_linker_0, # of connection points: 2
#     Edge 35, Type (0, 1), BuildingBlock: ZUJKAS_clean_linker_0, # of connection points: 2
#     Edge 36, Type (0, 1), BuildingBlock: ZUJKAS_clean_linker_0, # of connection points: 2
#     Edge 37, Type (0, 1), BuildingBlock: ZUJKAS_clean_linker_0, # of connection points: 2
#     Edge 38, Type (0, 1), BuildingBlock: ZUJKAS_clean_linker_0, # of connection points: 2
#     Edge 39, Type (0, 1), BuildingBlock: ZUJKAS_clean_linker_0, # of connection points: 2
#     Edge 40, Type (0, 1), BuildingBlock: ZUJKAS_clean_linker_0, # of connection points: 2
#     Edge 41, Type (0, 1), BuildingBlock: ZUJKAS_clean_linker_0, # of connection points: 2
#     Edge 42, Type (0, 1), BuildingBlock: ZUJKAS_clean_linker_0, # of connection points: 2
#     Edge 43, Type (0, 1), BuildingBlock: ZUJKAS_clean_linker_0, # of connection points: 2
#     Edge 44, Type (0, 1), BuildingBlock: ZUJKAS_clean_linker_0, # of connection points: 2
#     Edge 45, Type (0, 1), BuildingBlock: ZUJKAS_clean_linker_0, # of connection points: 2
#     Edge 46, Type (0, 1), BuildingBlock: ZUJKAS_clean_linker_0, # of connection points: 2
#     Edge 47, Type (0, 1), BuildingBlock: ZUJKAS_clean_linker_0, # of connection points: 2
# Relax obj value: 0.003
# Max RMSD: 0.050
# Mean RMSD: 0.032
data_MOF--net-ssb--node1-KOZSID_clean_sbu_0--node2-NAHDIM_clean_linker_0--edge1-ZUJKAS_clean_linker_0
_symmetry_space_group_name_H-M    P1
_symmetry_Int_Tables_number       1
_symmetry_cell_setting            triclinic
loop_
_symmetry_equiv_pos_as_xyz
'x, y, z'
_cell_length_a     86.569176
_cell_length_b     86.458264
_cell_length_c     63.169509
_cell_angle_alpha  91.647091
_cell_angle_beta   93.325033
_cell_angle_gamma 90.03187
loop_
_atom_site_label
_atom_site_type_symbol
_atom_site_fract_x
_atom_site_fract_y
_atom_site_fract_z
_atom_type_partial_charge
C0 C 0.25762 0.16265 0.34144 0.0
C1 C 0.27537 0.16273 0.3434 0.0
C2 C 0.28208 0.18992 0.33744 0.0
C3 C 0.28789 0.20362 0.34714 0.0
C4 C 0.28937 0.2171 0.33553 0.0
C5 C 0.28483 0.21686 0.31366 0.0
C6 C 0.27892 0.20306 0.3037 0.0
C7 C 0.27766 0.18972 0.31563 0.0
C8 C 0.29574 0.23163 0.34662 0.0
C9 C 0.2739 0.20243 0.2804 0.0
C10 C 0.38016 0.23135 0.25062 0.0
C11 C 0.36652 0.23195 0.23415 0.0
C12 C 0.34439 0.24609 0.24604 0.0
C13 C 0.33199 0.23701 0.23763 0.0
C14 C 0.31781 0.23711 0.24731 0.0
C15 C 0.31616 0.24632 0.26594 0.0
C16 C 0.32858 0.25581 0.2741 0.0
C17 C 0.3425 0.25577 0.26376 0.0
C18 C 0.30473 0.22712 0.23786 0.0
C19 C 0.32729 0.26568 0.29401 0.0
C20 C 0.25374 0.32574 0.22215 0.0
C21 C 0.25062 0.31034 0.2154 0.0
C22 C 0.25033 0.29847 0.23005 0.0
C23 C 0.25373 0.30192 0.25185 0.0
C24 C 0.25699 0.31735 0.25872 0.0
C25 C 0.25674 0.32909 0.24378 0.0
C26 C 0.24621 0.28223 0.2222 0.0
C27 C 0.26078 0.32142 0.28182 0.0
C28 C 0.17591 0.24212 0.34847 0.0
C29 C 0.18106 0.25904 0.35085 0.0
C30 C 0.19574 0.26805 0.32171 0.0
C31 C 0.19685 0.26415 0.30028 0.0
C32 C 0.21061 0.26659 0.2902 0.0
C33 C 0.2234 0.2735 0.30184 0.0
C34 C 0.22205 0.27826 0.32328 0.0
C35 C 0.20821 0.27543 0.33305 0.0
C36 C 0.21156 0.26153 0.26725 0.0
C37 C 0.23529 0.28616 0.3359 0.0
C38 C 0.28631 0.23099 0.30108 0.0
C39 C 0.29981 0.23288 0.29035 0.0
C40 C 0.30169 0.24548 0.27735 0.0
C41 C 0.28984 0.25665 0.27504 0.0
C42 C 0.29125 0.26936 0.26186 0.0
C43 C 0.27946 0.28022 0.25958 0.0
C44 C 0.26572 0.2787 0.27018 0.0
C45 C 0.25345 0.28939 0.26741 0.0
C46 C 0.24003 0.28762 0.2784 0.0
C47 C 0.23832 0.27521 0.29174 0.0
C48 C 0.25032 0.26422 0.29439 0.0
C49 C 0.24878 0.25133 0.30722 0.0
C50 C 0.26057 0.24049 0.30953 0.0
C51 C 0.27435 0.24208 0.29907 0.0
C52 C 0.27614 0.25496 0.28602 0.0
C53 C 0.2641 0.26603 0.28365 0.0
C54 C 0.272 0.33428 0.18181 0.0
C55 C 0.25506 0.33681 0.18677 0.0
O56 O 0.28086 0.17732 0.34973 0.0
O57 O 0.18235 0.26485 0.3308 0.0
O58 O 0.25379 0.3377 0.20857 0.0
O59 O 0.35835 0.24551 0.23743 0.0
H60 H 0.27986 0.15937 0.32777 0.0
H61 H 0.25325 0.17075 0.32919 0.0
H62 H 0.25281 0.16624 0.35675 0.0
H63 H 0.25327 0.15088 0.33674 0.0
H64 H 0.29127 0.20371 0.36393 0.0
H65 H 0.27316 0.17929 0.30772 0.0
H66 H 0.30603 0.23567 0.33862 0.0
H67 H 0.29909 0.22984 0.36362 0.0
H68 H 0.28693 0.24094 0.34553 0.0
H69 H 0.26885 0.19103 0.2752 0.0
H70 H 0.28401 0.20471 0.27091 0.0
H71 H 0.2652 0.21157 0.27691 0.0
H72 H 0.35912 0.22164 0.23639 0.0
H73 H 0.38681 0.22048 0.2485 0.0
H74 H 0.37582 0.23166 0.26683 0.0
H75 H 0.388 0.24139 0.24916 0.0
H76 H 0.33345 0.22983 0.22355 0.0
H77 H 0.35217 0.26283 0.26993 0.0
H78 H 0.30316 0.21713 0.24817 0.0
H79 H 0.30701 0.22261 0.22169 0.0
H80 H 0.29373 0.23375 0.23705 0.0
H81 H 0.33837 0.27154 0.29911 0.0
H82 H 0.32367 0.25844 0.30711 0.0
H83 H 0.31828 0.27464 0.29126 0.0
H84 H 0.24802 0.32708 0.17962 0.0
H85 H 0.24814 0.30736 0.19885 0.0
H86 H 0.25911 0.34096 0.24891 0.0
H87 H 0.25651 0.27466 0.22427 0.0
H88 H 0.24216 0.28176 0.20518 0.0
H89 H 0.237 0.27742 0.23164 0.0
H90 H 0.26439 0.3337 0.28437 0.0
H91 H 0.27021 0.31386 0.28819 0.0
H92 H 0.25047 0.31934 0.29102 0.0
H93 H 0.1924 0.25928 0.36011 0.0
H94 H 0.17508 0.23698 0.36429 0.0
H95 H 0.18449 0.23536 0.33965 0.0
H96 H 0.16446 0.24118 0.33958 0.0
H97 H 0.187 0.25876 0.29161 0.0
H98 H 0.2071 0.27913 0.34941 0.0
H99 H 0.22164 0.25377 0.26546 0.0
H100 H 0.21332 0.27182 0.25753 0.0
H101 H 0.20093 0.2554 0.26088 0.0
H102 H 0.23186 0.29061 0.35161 0.0
H103 H 0.23971 0.29593 0.32693 0.0
H104 H 0.24493 0.27783 0.33844 0.0
H105 H 0.30891 0.22428 0.2919 0.0
H106 H 0.30149 0.27104 0.25313 0.0
H107 H 0.28121 0.2898 0.2493 0.0
H108 H 0.2306 0.29578 0.27606 0.0
H109 H 0.23841 0.24944 0.31558 0.0
H110 H 0.25872 0.2308 0.31958 0.0
H111 H 0.27317 0.33373 0.16438 0.0
H112 H 0.27622 0.32319 0.18842 0.0
H113 H 0.27938 0.34383 0.18892 0.0
C114 C 0.68073 0.1868 0.16459 0.0
C115 C 0.67648 0.20361 0.16971 0.0
C116 C 0.69895 0.21843 0.18202 0.0
C117 C 0.69387 0.22798 0.19846 0.0
C118 C 0.70408 0.2327 0.21549 0.0
C119 C 0.7196 0.22749 0.21616 0.0
C120 C 0.7248 0.21807 0.19928 0.0
C121 C 0.71442 0.2139 0.18217 0.0
C122 C 0.69819 0.24299 0.23295 0.0
C123 C 0.74116 0.21201 0.19958 0.0
C124 C 0.75027 0.19515 0.37753 0.0
C125 C 0.74557 0.18524 0.35775 0.0
C126 C 0.73389 0.19926 0.32782 0.0
C127 C 0.74291 0.19345 0.31163 0.0
C128 C 0.744 0.20149 0.29279 0.0
C129 C 0.73576 0.21549 0.29009 0.0
C130 C 0.72595 0.22086 0.30585 0.0
C131 C 0.72507 0.21257 0.3245 0.0
C132 C 0.75422 0.19525 0.27599 0.0
C133 C 0.71679 0.23559 0.30324 0.0
C134 C 0.81753 0.27567 0.32616 0.0
C135 C 0.82054 0.26423 0.31074 0.0
C136 C 0.81064 0.26221 0.29247 0.0
C137 C 0.79753 0.27187 0.28962 0.0
C138 C 0.79479 0.28373 0.30481 0.0
C139 C 0.80495 0.28558 0.32281 0.0
C140 C 0.8141 0.24971 0.27628 0.0
C141 C 0.78096 0.29427 0.30219 0.0
C142 C 0.76655 0.30572 0.12561 0.0
C143 C 0.77085 0.31328 0.14735 0.0
C144 C 0.78283 0.29912 0.17686 0.0
C145 C 0.79099 0.28546 0.18064 0.0
C146 C 0.79019 0.27796 0.19993 0.0
C147 C 0.78113 0.28445 0.21583 0.0
C148 C 0.77375 0.29886 0.2127 0.0
C149 C 0.77473 0.30611 0.19323 0.0
C150 C 0.79851 0.26278 0.203 0.0
C151 C 0.7644 0.3063 0.22965 0.0
C152 C 0.73013 0.23114 0.23506 0.0
C153 C 0.72843 0.22254 0.2532 0.0
C154 C 0.73815 0.225 0.2714 0.0
C155 C 0.75005 0.2362 0.27161 0.0
C156 C 0.76015 0.23882 0.28962 0.0
C157 C 0.77199 0.24968 0.28956 0.0
C158 C 0.77422 0.25835 0.27148 0.0
C159 C 0.78641 0.26921 0.27111 0.0
C160 C 0.78833 0.27763 0.25289 0.0
C161 C 0.77829 0.27553 0.23491 0.0
C162 C 0.76597 0.26478 0.23498 0.0
C163 C 0.75558 0.26248 0.21718 0.0
C164 C 0.74369 0.25164 0.21726 0.0
C165 C 0.74183 0.24257 0.23505 0.0
C166 C 0.75194 0.24497 0.25333 0.0
C167 C 0.76402 0.25607 0.25328 0.0
C168 C 0.82252 0.26394 0.37517 0.0
C169 C 0.83296 0.26627 0.35679 0.0
O170 O 0.68893 0.2131 0.16623 0.0
O171 O 0.78282 0.30505 0.1572 0.0
O172 O 0.82676 0.27781 0.34409 0.0
O173 O 0.7333 0.19228 0.34672 0.0
H174 H 0.67373 0.20431 0.18675 0.0
H175 H 0.69078 0.18329 0.17511 0.0
H176 H 0.68389 0.18539 0.14785 0.0
H177 H 0.67086 0.179 0.16726 0.0
H178 H 0.68187 0.23161 0.19798 0.0
H179 H 0.71817 0.20655 0.16926 0.0
H180 H 0.69727 0.23617 0.24744 0.0
H181 H 0.68662 0.24789 0.22854 0.0
H182 H 0.70643 0.25264 0.23689 0.0
H183 H 0.74283 0.20343 0.18649 0.0
H184 H 0.74424 0.20652 0.21493 0.0
H185 H 0.74931 0.22177 0.19799 0.0
H186 H 0.75594 0.18446 0.34818 0.0
H187 H 0.76003 0.18967 0.38673 0.0
H188 H 0.74038 0.19666 0.38786 0.0
H189 H 0.75407 0.20676 0.37277 0.0
H190 H 0.74909 0.18266 0.31362 0.0
H191 H 0.71787 0.21674 0.33692 0.0
H192 H 0.74747 0.19411 0.26052 0.0
H193 H 0.75924 0.18381 0.28001 0.0
H194 H 0.76381 0.20352 0.27401 0.0
H195 H 0.70919 0.23785 0.31656 0.0
H196 H 0.70954 0.23493 0.28816 0.0
H197 H 0.72484 0.24551 0.30231 0.0
H198 H 0.83353 0.25506 0.34779 0.0
H199 H 0.83071 0.25702 0.31274 0.0
H200 H 0.80292 0.29455 0.33465 0.0
H201 H 0.80464 0.24099 0.27531 0.0
H202 H 0.82521 0.24373 0.28024 0.0
H203 H 0.81459 0.25476 0.26037 0.0
H204 H 0.78039 0.30287 0.31552 0.0
H205 H 0.77017 0.28727 0.30115 0.0
H206 H 0.78143 0.30053 0.28714 0.0
H207 H 0.76019 0.31267 0.15635 0.0
H208 H 0.75717 0.31234 0.11724 0.0
H209 H 0.76235 0.29374 0.12764 0.0
H210 H 0.77671 0.30514 0.11564 0.0
H211 H 0.79749 0.28036 0.16805 0.0
H212 H 0.76901 0.3171 0.19077 0.0
H213 H 0.78989 0.25338 0.20422 0.0
H214 H 0.8058 0.26328 0.21805 0.0
H215 H 0.80595 0.25983 0.18972 0.0
H216 H 0.7601 0.31795 0.22525 0.0
H217 H 0.77156 0.30739 0.24479 0.0
H218 H 0.75434 0.29883 0.23247 0.0
H219 H 0.71946 0.21376 0.25312 0.0
H220 H 0.75907 0.23245 0.30396 0.0
H221 H 0.77943 0.25114 0.30386 0.0
H222 H 0.79778 0.28586 0.25266 0.0
H223 H 0.75652 0.26901 0.20295 0.0
H224 H 0.73605 0.25038 0.20313 0.0
H225 H 0.82171 0.2748 0.3849 0.0
H226 H 0.82711 0.25458 0.38545 0.0
H227 H 0.81071 0.26058 0.36887 0.0
C228 C 0.69782 0.84502 0.32118 0.0
C229 C 0.70947 0.8402 0.33898 0.0
C230 C 0.72404 0.82065 0.32014 0.0
C231 C 0.7176 0.80713 0.32776 0.0
C232 C 0.71801 0.79311 0.31607 0.0
C233 C 0.72499 0.79261 0.29637 0.0
C234 C 0.73211 0.80606 0.28911 0.0
C235 C 0.73172 0.81989 0.30129 0.0
C236 C 0.71073 0.77888 0.32459 0.0
C237 C 0.73975 0.8059 0.26824 0.0
C238 C 0.64821 0.72803 0.18093 0.0
C239 C 0.65474 0.74445 0.18375 0.0
C240 C 0.66739 0.75345 0.21748 0.0
C241 C 0.67977 0.76154 0.20951 0.0
C242 C 0.69306 0.76509 0.22251 0.0
C243 C 0.6939 0.76054 0.24388 0.0
C244 C 0.68107 0.75321 0.25225 0.0
C245 C 0.6679 0.74988 0.23892 0.0
C246 C 0.70638 0.77335 0.2133 0.0
C247 C 0.6815 0.74846 0.27507 0.0
C248 C 0.75678 0.68183 0.20661 0.0
C249 C 0.75864 0.69723 0.20055 0.0
C250 C 0.75916 0.70944 0.21568 0.0
C251 C 0.75718 0.70632 0.23724 0.0
C252 C 0.75512 0.69088 0.24338 0.0
C253 C 0.75513 0.67883 0.22799 0.0
C254 C 0.7619 0.7257 0.20854 0.0
C255 C 0.75283 0.68711 0.26616 0.0
C256 C 0.83368 0.76916 0.34897 0.0
C257 C 0.83086 0.75168 0.34782 0.0
C258 C 0.8155 0.74333 0.31575 0.0
C259 C 0.81368 0.74762 0.29463 0.0
C260 C 0.79982 0.74469 0.28262 0.0
C261 C 0.78763 0.73697 0.29195 0.0
C262 C 0.78967 0.73191 0.31302 0.0
C263 C 0.80363 0.73513 0.32474 0.0
C264 C 0.79811 0.75004 0.26007 0.0
C265 C 0.77705 0.72322 0.32315 0.0
C266 C 0.72399 0.77828 0.28284 0.0
C267 C 0.71044 0.77579 0.27006 0.0
C268 C 0.70854 0.76251 0.25706 0.0
C269 C 0.72047 0.75137 0.25659 0.0
C270 C 0.71888 0.73784 0.24371 0.0
C271 C 0.73086 0.72718 0.24286 0.0
C272 C 0.74489 0.72963 0.25483 0.0
C273 C 0.75743 0.71924 0.25327 0.0
C274 C 0.77103 0.72176 0.26591 0.0
C275 C 0.77262 0.73461 0.27981 0.0
C276 C 0.76039 0.74537 0.28114 0.0
C277 C 0.76178 0.75865 0.29454 0.0
C278 C 0.74983 0.76938 0.2953 0.0
C279 C 0.73607 0.76728 0.28261 0.0
C280 C 0.73432 0.75383 0.26929 0.0
C281 C 0.74651 0.74288 0.26853 0.0
C282 C 0.73951 0.67307 0.16191 0.0
C283 C 0.75607 0.66996 0.17059 0.0
O284 O 0.72285 0.8346 0.3304 0.0
O285 O 0.82903 0.74689 0.32669 0.0
O286 O 0.75656 0.66956 0.19257 0.0
O287 O 0.65483 0.74888 0.20503 0.0
H288 H 0.70398 0.83107 0.34804 0.0
H289 H 0.69434 0.83479 0.31097 0.0
H290 H 0.70297 0.85379 0.31115 0.0
H291 H 0.68725 0.84993 0.32796 0.0
H292 H 0.71229 0.80742 0.34284 0.0
H293 H 0.73686 0.83034 0.29571 0.0
H294 H 0.70029 0.77562 0.31438 0.0
H295 H 0.70725 0.78074 0.34112 0.0
H296 H 0.71892 0.76901 0.32413 0.0
H297 H 0.74451 0.81741 0.26464 0.0
H298 H 0.73126 0.80226 0.2552 0.0
H299 H 0.74931 0.79735 0.26857 0.0
H300 H 0.66671 0.74394 0.17818 0.0
H301 H 0.64802 0.72418 0.16398 0.0
H302 H 0.63628 0.72747 0.18647 0.0
H303 H 0.65563 0.71993 0.19033 0.0
H304 H 0.67911 0.76502 0.19315 0.0
H305 H 0.65813 0.74394 0.245 0.0
H306 H 0.70991 0.78355 0.22354 0.0
H307 H 0.70344 0.77726 0.19696 0.0
H308 H 0.71647 0.76546 0.21287 0.0
H309 H 0.67049 0.743 0.2792 0.0
H310 H 0.6838 0.75874 0.28571 0.0
H311 H 0.69109 0.74015 0.27809 0.0
H312 H 0.76387 0.67919 0.16552 0.0
H313 H 0.75981 0.69993 0.18414 0.0
H314 H 0.75368 0.66695 0.23256 0.0
H315 H 0.75096 0.73235 0.20888 0.0
H316 H 0.76591 0.72585 0.19216 0.0
H317 H 0.77063 0.73173 0.2194 0.0
H318 H 0.74973 0.67477 0.26797 0.0
H319 H 0.74357 0.6945 0.27249 0.0
H320 H 0.76366 0.68964 0.27592 0.0
H321 H 0.82027 0.74941 0.3564 0.0
H322 H 0.83499 0.77339 0.36576 0.0
H323 H 0.82368 0.7752 0.34113 0.0
H324 H 0.84428 0.77212 0.34082 0.0
H325 H 0.82307 0.75365 0.28774 0.0
H326 H 0.80528 0.73103 0.34074 0.0
H327 H 0.78798 0.75786 0.2582 0.0
H328 H 0.79592 0.73992 0.24909 0.0
H329 H 0.80856 0.75623 0.25533 0.0
H330 H 0.78077 0.71924 0.33922 0.0
H331 H 0.77341 0.713 0.313 0.0
H332 H 0.76678 0.7308 0.32447 0.0
H333 H 0.70122 0.78428 0.27027 0.0
H334 H 0.70841 0.73539 0.234 0.0
H335 H 0.72902 0.71702 0.23259 0.0
H336 H 0.78066 0.71385 0.26451 0.0
H337 H 0.77217 0.76096 0.30451 0.0
H338 H 0.75156 0.77941 0.30583 0.0
H339 H 0.73903 0.67342 0.14432 0.0
H340 H 0.73546 0.68441 0.16813 0.0
H341 H 0.73154 0.6639 0.16674 0.0
C342 C 0.32435 0.81508 0.16628 0.0
C343 C 0.33061 0.79862 0.16868 0.0
C344 C 0.3093 0.78277 0.17773 0.0
C345 C 0.31506 0.77422 0.19493 0.0
C346 C 0.30539 0.77009 0.21092 0.0
C347 C 0.28971 0.77479 0.2097 0.0
C348 C 0.28377 0.78296 0.19188 0.0
C349 C 0.29364 0.78662 0.17589 0.0
C350 C 0.31205 0.76114 0.22946 0.0
C351 C 0.26719 0.7884 0.19016 0.0
C352 C 0.27122 0.85788 0.33782 0.0
C353 C 0.26753 0.84668 0.31999 0.0
C354 C 0.27584 0.82178 0.30561 0.0
C355 C 0.26359 0.82056 0.29002 0.0
C356 C 0.26231 0.80774 0.27597 0.0
C357 C 0.2733 0.79567 0.27782 0.0
C358 C 0.28548 0.79669 0.29372 0.0
C359 C 0.28663 0.80981 0.30736 0.0
C360 C 0.24934 0.80727 0.25888 0.0
C361 C 0.29734 0.78399 0.29615 0.0
C362 C 0.19038 0.73865 0.3085 0.0
C363 C 0.19075 0.75042 0.29358 0.0
C364 C 0.20167 0.75017 0.27802 0.0
C365 C 0.21284 0.73821 0.27776 0.0
C366 C 0.21263 0.72646 0.29286 0.0
C367 C 0.2013 0.72678 0.30791 0.0
C368 C 0.20121 0.76273 0.26185 0.0
C369 C 0.22439 0.71358 0.29312 0.0
C370 C 0.23396 0.69916 0.11387 0.0
C371 C 0.23255 0.69217 0.13565 0.0
C372 C 0.22238 0.70546 0.16639 0.0
C373 C 0.21429 0.71888 0.17145 0.0
C374 C 0.21653 0.72618 0.19148 0.0
C375 C 0.22687 0.71962 0.2069 0.0
C376 C 0.23408 0.70531 0.20245 0.0
C377 C 0.23179 0.69837 0.18216 0.0
C378 C 0.20839 0.74128 0.19583 0.0
C379 C 0.24473 0.69776 0.21883 0.0
C380 C 0.28 0.77252 0.22797 0.0
C381 C 0.28173 0.78318 0.24497 0.0
C382 C 0.27244 0.7825 0.26225 0.0
C383 C 0.26131 0.77059 0.26301 0.0
C384 C 0.25208 0.7693 0.28046 0.0
C385 C 0.24034 0.75828 0.28032 0.0
C386 C 0.2373 0.74828 0.2626 0.0
C387 C 0.22455 0.73797 0.26147 0.0
C388 C 0.22184 0.72824 0.24356 0.0
C389 C 0.23144 0.72865 0.22656 0.0
C390 C 0.24427 0.73883 0.22742 0.0
C391 C 0.25414 0.73954 0.21052 0.0
C392 C 0.26618 0.75022 0.21096 0.0
C393 C 0.26859 0.76083 0.22809 0.0
C394 C 0.25913 0.75995 0.24561 0.0
C395 C 0.24703 0.74885 0.24535 0.0
C396 C 0.17596 0.76263 0.34142 0.0
C397 C 0.16866 0.74926 0.32788 0.0
O398 O 0.3189 0.78803 0.16336 0.0
O399 O 0.22109 0.69992 0.14607 0.0
O400 O 0.17979 0.73824 0.32361 0.0
O401 O 0.27767 0.8343 0.31906 0.0
H402 H 0.33478 0.79742 0.18559 0.0
H403 H 0.31496 0.81715 0.17727 0.0
H404 H 0.31961 0.81683 0.1498 0.0
H405 H 0.33369 0.82369 0.17025 0.0
H406 H 0.32719 0.77109 0.19599 0.0
H407 H 0.28937 0.79317 0.16241 0.0
H408 H 0.31293 0.76886 0.24383 0.0
H409 H 0.32374 0.75651 0.22662 0.0
H410 H 0.30427 0.75138 0.23274 0.0
H411 H 0.2647 0.79555 0.17602 0.0
H412 H 0.26456 0.79533 0.20458 0.0
H413 H 0.25929 0.77827 0.18908 0.0
H414 H 0.2651 0.85208 0.30432 0.0
H415 H 0.27411 0.869 0.33006 0.0
H416 H 0.28352 0.85552 0.34367 0.0
H417 H 0.25235 0.85583 0.35703 0.0
H418 H 0.25504 0.82965 0.28851 0.0
H419 H 0.29601 0.81079 0.31946 0.0
H420 H 0.24106 0.79795 0.26211 0.0
H421 H 0.25396 0.80465 0.24315 0.0
H422 H 0.24289 0.81837 0.25804 0.0
H423 H 0.30506 0.78571 0.3107 0.0
H424 H 0.30454 0.78366 0.28217 0.0
H425 H 0.29147 0.77259 0.29672 0.0
H426 H 0.16349 0.75381 0.31279 0.0
H427 H 0.18258 0.75985 0.2938 0.0
H428 H 0.20099 0.71776 0.31945 0.0
H429 H 0.21102 0.77082 0.26545 0.0
H430 H 0.1903 0.76949 0.26187 0.0
H431 H 0.20242 0.7577 0.24565 0.0
H432 H 0.22358 0.70616 0.30709 0.0
H433 H 0.23626 0.71849 0.29325 0.0
H434 H 0.22257 0.70623 0.27849 0.0
H435 H 0.24402 0.69387 0.14435 0.0
H436 H 0.24308 0.69309 0.10518 0.0
H437 H 0.23719 0.71157 0.11585 0.0
H438 H 0.2228 0.69828 0.10427 0.0
H439 H 0.2068 0.72404 0.15927 0.0
H440 H 0.23755 0.68757 0.17855 0.0
H441 H 0.21707 0.75059 0.19948 0.0
H442 H 0.20142 0.74023 0.20993 0.0
H443 H 0.20063 0.74478 0.18219 0.0
H444 H 0.24784 0.68577 0.21392 0.0
H445 H 0.23919 0.69748 0.23424 0.0
H446 H 0.25551 0.70468 0.22133 0.0
H447 H 0.29006 0.79253 0.24436 0.0
H448 H 0.25372 0.77693 0.2943 0.0
H449 H 0.23347 0.75791 0.29408 0.0
H450 H 0.21177 0.72072 0.24246 0.0
H451 H 0.2526 0.73196 0.19663 0.0
H452 H 0.27335 0.75031 0.19748 0.0
H453 H 0.16707 0.77146 0.34494 0.0
H454 H 0.18513 0.76831 0.3328 0.0
H455 H 0.18123 0.75834 0.3566 0.0
C456 C 0.19559 0.72717 0.62792 0.0
C457 C 0.18462 0.72056 0.64362 0.0
C458 C 0.19535 0.7304 0.67845 0.0
C459 C 0.1929 0.74083 0.6952 0.0
C460 C 0.20363 0.74239 0.71263 0.0
C461 C 0.21725 0.73335 0.71315 0.0
C462 C 0.21972 0.72256 0.69644 0.0
C463 C 0.20872 0.72113 0.67928 0.0
C464 C 0.20055 0.75387 0.73033 0.0
C465 C 0.23412 0.71272 0.69657 0.0
C466 C 0.24115 0.65838 0.84719 0.0
C467 C 0.24657 0.66939 0.83145 0.0
C468 C 0.23833 0.69286 0.81324 0.0
C469 C 0.24892 0.69132 0.79723 0.0
C470 C 0.24956 0.70234 0.78139 0.0
C471 C 0.23965 0.71535 0.78177 0.0
C472 C 0.2291 0.71702 0.79797 0.0
C473 C 0.22853 0.70569 0.81342 0.0
C474 C 0.26076 0.7 0.76413 0.0
C475 C 0.21841 0.73077 0.79891 0.0
C476 C 0.31997 0.77753 0.8167 0.0
C477 C 0.32256 0.76795 0.79894 0.0
C478 C 0.31161 0.76695 0.7817 0.0
C479 C 0.29789 0.7758 0.78223 0.0
C480 C 0.29559 0.78598 0.79968 0.0
C481 C 0.30678 0.78681 0.81665 0.0
C482 C 0.31459 0.75631 0.76302 0.0
C483 C 0.28117 0.79571 0.80058 0.0
C484 C 0.25971 0.82118 0.63533 0.0
C485 C 0.26622 0.83185 0.65345 0.0
C486 C 0.2774 0.81474 0.68037 0.0
C487 C 0.28662 0.80149 0.68065 0.0
C488 C 0.28581 0.79076 0.69684 0.0
C489 C 0.27574 0.79359 0.71338 0.0
C490 C 0.26674 0.80725 0.71356 0.0
C491 C 0.26767 0.8177 0.69705 0.0
C492 C 0.29567 0.77639 0.69625 0.0
C493 C 0.25625 0.81085 0.7313 0.0
C494 C 0.22916 0.73556 0.73079 0.0
C495 C 0.22907 0.72554 0.74776 0.0
C496 C 0.24004 0.72693 0.76484 0.0
C497 C 0.25134 0.73879 0.76517 0.0
C498 C 0.26238 0.74074 0.78225 0.0
C499 C 0.27362 0.75225 0.78224 0.0
C500 C 0.27422 0.76231 0.76517 0.0
C501 C 0.2857 0.77393 0.76491 0.0
C502 C 0.28588 0.78386 0.74787 0.0
C503 C 0.27491 0.78247 0.7308 0.0
C504 C 0.26345 0.77078 0.73062 0.0
C505 C 0.25238 0.76887 0.71356 0.0
C506 C 0.24115 0.75734 0.71357 0.0
C507 C 0.24054 0.74729 0.73064 0.0
C508 C 0.25163 0.74894 0.74793 0.0
C509 C 0.26309 0.7607 0.74792 0.0
C510 C 0.32776 0.76013 0.8611 0.0
C511 C 0.33746 0.7659 0.84342 0.0
O512 O 0.18462 0.72986 0.66185 0.0
O513 O 0.27853 0.82463 0.66417 0.0
O514 O 0.33009 0.77836 0.8339 0.0
O515 O 0.23714 0.68223 0.82858 0.0
H516 H 0.18837 0.70865 0.64773 0.0
H517 H 0.20766 0.72741 0.63483 0.0
H518 H 0.19223 0.73917 0.62384 0.0
H519 H 0.1953 0.71985 0.61315 0.0
H520 H 0.18254 0.74788 0.69449 0.0
H521 H 0.2108 0.7129 0.66657 0.0
H522 H 0.20165 0.74811 0.74584 0.0
H523 H 0.18886 0.75911 0.72838 0.0
H524 H 0.20932 0.76326 0.73077 0.0
H525 H 0.23456 0.70517 0.68209 0.0
H526 H 0.2346 0.70531 0.71066 0.0
H527 H 0.24455 0.72025 0.69783 0.0
H528 H 0.2591 0.67248 0.83334 0.0
H529 H 0.23582 0.63829 0.82887 0.0
H530 H 0.23235 0.66476 0.85659 0.0
H531 H 0.25043 0.65871 0.86044 0.0
H532 H 0.25661 0.68148 0.79682 0.0
H533 H 0.2204 0.70682 0.82579 0.0
H534 H 0.25455 0.7007 0.74831 0.0
H535 H 0.26678 0.68868 0.76509 0.0
H536 H 0.26959 0.70934 0.76539 0.0
H537 H 0.21181 0.73106 0.81348 0.0
H538 H 0.21007 0.73034 0.78487 0.0
H539 H 0.22515 0.74166 0.79835 0.0
H540 H 0.33871 0.7561 0.83188 0.0
H541 H 0.33316 0.76137 0.79835 0.0
H542 H 0.30507 0.7944 0.83027 0.0
H543 H 0.30561 0.74711 0.76153 0.0
H544 H 0.32615 0.75076 0.76458 0.0
H545 H 0.31375 0.7629 0.74816 0.0
H546 H 0.28121 0.80319 0.81517 0.0
H547 H 0.27083 0.78807 0.80001 0.0
H548 H 0.28007 0.80314 0.78652 0.0
H549 H 0.25671 0.83422 0.66415 0.0
H550 H 0.24995 0.82688 0.62643 0.0
H551 H 0.25533 0.81033 0.64186 0.0
H552 H 0.26881 0.81815 0.62422 0.0
H553 H 0.29428 0.79943 0.6679 0.0
H554 H 0.26106 0.8283 0.69756 0.0
H555 H 0.28827 0.76595 0.69708 0.0
H556 H 0.304 0.77651 0.7103 0.0
H557 H 0.30225 0.77545 0.68169 0.0
H558 H 0.2504 0.82222 0.72954 0.0
H559 H 0.26303 0.8109 0.74678 0.0
H560 H 0.24728 0.8017 0.73168 0.0
H561 H 0.22042 0.71644 0.74757 0.0
H562 H 0.26247 0.73335 0.79582 0.0
H563 H 0.28184 0.75316 0.79581 0.0
H564 H 0.29471 0.79279 0.74788 0.0
H565 H 0.2523 0.77625 0.7 0.0
H566 H 0.23296 0.75642 0.69997 0.0
H567 H 0.33355 0.75019 0.869 0.0
H568 H 0.31625 0.75621 0.8543 0.0
H569 H 0.32602 0.76951 0.87312 0.0
C570 C 0.20942 0.35299 0.81699 0.0
C571 C 0.21517 0.34559 0.83773 0.0
C572 C 0.22972 0.32355 0.82583 0.0
C573 C 0.22231 0.31098 0.83441 0.0
C574 C 0.22221 0.29638 0.82414 0.0
C575 C 0.22957 0.29445 0.80481 0.0
C576 C 0.23751 0.30705 0.79651 0.0
C577 C 0.23769 0.32142 0.8074 0.0
C578 C 0.21395 0.28312 0.83368 0.0
C579 C 0.24532 0.30546 0.77582 0.0
C580 C 0.13091 0.27385 0.74093 0.0
C581 C 0.14374 0.27432 0.72531 0.0
C582 C 0.16705 0.26058 0.73566 0.0
C583 C 0.17876 0.26933 0.72738 0.0
C584 C 0.19368 0.26976 0.7373 0.0
C585 C 0.19676 0.26146 0.75608 0.0
C586 C 0.18498 0.25231 0.76414 0.0
C587 C 0.1703 0.25175 0.7535 0.0
C588 C 0.20602 0.27938 0.72801 0.0
C589 C 0.1877 0.24359 0.78438 0.0
C590 C 0.24861 0.17605 0.73234 0.0
C591 C 0.25639 0.18807 0.72285 0.0
C592 C 0.26057 0.20166 0.73451 0.0
C593 C 0.25697 0.20314 0.75603 0.0
C594 C 0.25001 0.19066 0.76592 0.0
C595 C 0.246 0.17722 0.75392 0.0
C596 C 0.26836 0.21463 0.7237 0.0
C597 C 0.24625 0.19177 0.78894 0.0
C598 C 0.33485 0.27428 0.86213 0.0
C599 C 0.33187 0.2569 0.85908 0.0
C600 C 0.31764 0.24734 0.8265 0.0
C601 C 0.31547 0.25086 0.80511 0.0
C602 C 0.30212 0.24606 0.79311 0.0
C603 C 0.29075 0.23741 0.80281 0.0
C604 C 0.29337 0.23287 0.82404 0.0
C605 C 0.30688 0.23779 0.83568 0.0
C606 C 0.29985 0.25082 0.77034 0.0
C607 C 0.28161 0.22329 0.83462 0.0
C608 C 0.22801 0.2796 0.79254 0.0
C609 C 0.21421 0.27694 0.78045 0.0
C610 C 0.21187 0.26337 0.76817 0.0
C611 C 0.22365 0.25208 0.76775 0.0
C612 C 0.22179 0.23841 0.75528 0.0
C613 C 0.23336 0.22725 0.75531 0.0
C614 C 0.24734 0.22945 0.76754 0.0
C615 C 0.25918 0.21817 0.76771 0.0
C616 C 0.27313 0.22093 0.77948 0.0
C617 C 0.2755 0.23465 0.79146 0.0
C618 C 0.26361 0.24584 0.79208 0.0
C619 C 0.26547 0.25955 0.80454 0.0
C620 C 0.25378 0.27056 0.8049 0.0
C621 C 0.23985 0.26837 0.79262 0.0
C622 C 0.23767 0.25458 0.7801 0.0
C623 C 0.24955 0.24328 0.77991 0.0
C624 C 0.22373 0.15387 0.69661 0.0
C625 C 0.23945 0.16193 0.69977 0.0
O626 O 0.22896 0.33791 0.83481 0.0
O627 O 0.33028 0.25332 0.83752 0.0
O628 O 0.24339 0.1632 0.72133 0.0
O629 O 0.15242 0.2609 0.72698 0.0
H630 H 0.20617 0.33729 0.84228 0.0
H631 H 0.20723 0.3439 0.8044 0.0
H632 H 0.21819 0.3612 0.81166 0.0
H633 H 0.19842 0.3593 0.81916 0.0
H634 H 0.21652 0.31263 0.84905 0.0
H635 H 0.24348 0.33125 0.80108 0.0
H636 H 0.20331 0.28023 0.8237 0.0
H637 H 0.21062 0.28596 0.85006 0.0
H638 H 0.22142 0.27268 0.83398 0.0
H639 H 0.25011 0.31663 0.77087 0.0
H640 H 0.23696 0.30099 0.7631 0.0
H641 H 0.25491 0.29699 0.7774 0.0
H642 H 0.15106 0.28469 0.72966 0.0
H643 H 0.12393 0.28462 0.7402 0.0
H644 H 0.13609 0.27288 0.75735 0.0
H645 H 0.12319 0.26374 0.73727 0.0
H646 H 0.17613 0.27593 0.7133 0.0
H647 H 0.1611 0.24498 0.75962 0.0
H648 H 0.21698 0.27275 0.72748 0.0
H649 H 0.20833 0.28986 0.73826 0.0
H650 H 0.2025 0.28311 0.71175 0.0
H651 H 0.17693 0.23821 0.78953 0.0
H652 H 0.19247 0.25151 0.79731 0.0
H653 H 0.19634 0.23432 0.78202 0.0
H654 H 0.23804 0.17356 0.69279 0.0
H655 H 0.25911 0.18695 0.70636 0.0
H656 H 0.24028 0.16774 0.76117 0.0
H657 H 0.2606 0.22485 0.72307 0.0
H658 H 0.27128 0.21132 0.70729 0.0
H659 H 0.27913 0.21816 0.73301 0.0
H660 H 0.2417 0.1807 0.79461 0.0
H661 H 0.23746 0.20094 0.79114 0.0
H662 H 0.25677 0.19511 0.79894 0.0
H663 H 0.32108 0.2544 0.86709 0.0
H664 H 0.33605 0.27754 0.87929 0.0
H665 H 0.32496 0.28082 0.85483 0.0
H666 H 0.34555 0.27766 0.85451 0.0
H667 H 0.32405 0.2579 0.79805 0.0
H668 H 0.30889 0.23421 0.85188 0.0
H669 H 0.29019 0.25923 0.76889 0.0
H670 H 0.29663 0.24059 0.75996 0.0
H671 H 0.31039 0.25623 0.76456 0.0
H672 H 0.28573 0.21998 0.85084 0.0
H673 H 0.27888 0.21263 0.8249 0.0
H674 H 0.27071 0.22996 0.83567 0.0
H675 H 0.20513 0.28559 0.78061 0.0
H676 H 0.21133 0.23615 0.74544 0.0
H677 H 0.23121 0.21691 0.74552 0.0
H678 H 0.28224 0.21232 0.77929 0.0
H679 H 0.27596 0.26194 0.81425 0.0
H680 H 0.25581 0.28084 0.81485 0.0
H681 H 0.22004 0.15295 0.67947 0.0
H682 H 0.21489 0.16067 0.70487 0.0
H683 H 0.22427 0.14208 0.70317 0.0
C684 C 0.82576 0.32135 0.67589 0.0
C685 C 0.83152 0.30489 0.6798 0.0
C686 C 0.80998 0.28998 0.69077 0.0
C687 C 0.81593 0.28257 0.70889 0.0
C688 C 0.80625 0.27876 0.72503 0.0
C689 C 0.79035 0.28265 0.72301 0.0
C690 C 0.78427 0.28974 0.70439 0.0
C691 C 0.79418 0.29307 0.68829 0.0
C692 C 0.81306 0.27091 0.74444 0.0
C693 C 0.76745 0.29429 0.70179 0.0
C694 C 0.77243 0.36601 0.85117 0.0
C695 C 0.76794 0.35441 0.83405 0.0
C696 C 0.77554 0.32926 0.81942 0.0
C697 C 0.76311 0.32824 0.80405 0.0
C698 C 0.76172 0.31564 0.78956 0.0
C699 C 0.77274 0.30356 0.79076 0.0
C700 C 0.78501 0.30433 0.80657 0.0
C701 C 0.78629 0.31723 0.82062 0.0
C702 C 0.7486 0.31539 0.7727 0.0
C703 C 0.79689 0.29161 0.80845 0.0
C704 C 0.69232 0.24306 0.82119 0.0
C705 C 0.69203 0.25415 0.80529 0.0
C706 C 0.70308 0.25393 0.78991 0.0
C707 C 0.71508 0.24282 0.79092 0.0
C708 C 0.7155 0.23172 0.80696 0.0
C709 C 0.70398 0.23189 0.82172 0.0
C710 C 0.70186 0.26563 0.77257 0.0
C711 C 0.72816 0.21975 0.80861 0.0
C712 C 0.74442 0.19164 0.64686 0.0
C713 C 0.73915 0.18072 0.66369 0.0
C714 C 0.72971 0.19812 0.6911 0.0
C715 C 0.72053 0.21139 0.69131 0.0
C716 C 0.72256 0.2227 0.70763 0.0
C717 C 0.73382 0.22043 0.7244 0.0
C718 C 0.74277 0.20674 0.72466 0.0
C719 C 0.74064 0.19572 0.70797 0.0
C720 C 0.71274 0.23711 0.7069 0.0
C721 C 0.7545 0.20372 0.74267 0.0
C722 C 0.78038 0.28038 0.74102 0.0
C723 C 0.78126 0.2915 0.75755 0.0
C724 C 0.77187 0.29061 0.77473 0.0
C725 C 0.76127 0.27822 0.77556 0.0
C726 C 0.75176 0.27684 0.7927 0.0
C727 C 0.74078 0.26509 0.79281 0.0
C728 C 0.7389 0.25427 0.77578 0.0
C729 C 0.72713 0.24288 0.77512 0.0
C730 C 0.72594 0.23196 0.75835 0.0
C731 C 0.73602 0.23224 0.74186 0.0
C732 C 0.74754 0.24387 0.74188 0.0
C733 C 0.75759 0.2448 0.72524 0.0
C734 C 0.76856 0.25658 0.7251 0.0
C735 C 0.76979 0.26795 0.74148 0.0
C736 C 0.76008 0.26699 0.75871 0.0
C737 C 0.74891 0.25496 0.75887 0.0
C738 C 0.67786 0.26707 0.85383 0.0
C739 C 0.67053 0.25364 0.84046 0.0
O740 O 0.81941 0.29454 0.67574 0.0
O741 O 0.72748 0.1877 0.67469 0.0
O742 O 0.68167 0.24263 0.83621 0.0
O743 O 0.77762 0.34165 0.83312 0.0
H744 H 0.8359 0.30443 0.69672 0.0
H745 H 0.81644 0.32427 0.68668 0.0
H746 H 0.82107 0.32241 0.65924 0.0
H747 H 0.83534 0.32981 0.67907 0.0
H748 H 0.82816 0.27989 0.71043 0.0
H749 H 0.78975 0.29871 0.67409 0.0
H750 H 0.81332 0.27921 0.7582 0.0
H751 H 0.82503 0.26676 0.74232 0.0
H752 H 0.80573 0.26094 0.74827 0.0
H753 H 0.76484 0.30077 0.68708 0.0
H754 H 0.76423 0.30157 0.71561 0.0
H755 H 0.76009 0.28376 0.70122 0.0
H756 H 0.76524 0.35949 0.81822 0.0
H757 H 0.77545 0.37679 0.84269 0.0
H758 H 0.78476 0.36337 0.85658 0.0
H759 H 0.75407 0.36516 0.87135 0.0
H760 H 0.75452 0.33731 0.80303 0.0
H761 H 0.79578 0.31802 0.83256 0.0
H762 H 0.74052 0.30581 0.77559 0.0
H763 H 0.75313 0.31326 0.75679 0.0
H764 H 0.74197 0.32639 0.77252 0.0
H765 H 0.80455 0.29297 0.82312 0.0
H766 H 0.80417 0.29172 0.79455 0.0
H767 H 0.79107 0.28015 0.80839 0.0
H768 H 0.66526 0.25812 0.82541 0.0
H769 H 0.68323 0.263 0.80453 0.0
H770 H 0.70414 0.22337 0.834 0.0
H771 H 0.71087 0.27466 0.77574 0.0
H772 H 0.69039 0.27141 0.77162 0.0
H773 H 0.70381 0.26002 0.75691 0.0
H774 H 0.72779 0.21304 0.82331 0.0
H775 H 0.73966 0.22541 0.80833 0.0
H776 H 0.72693 0.21157 0.79474 0.0
H777 H 0.74932 0.17825 0.6746 0.0
H778 H 0.7537 0.18615 0.6378 0.0
H779 H 0.74912 0.20249 0.65461 0.0
H780 H 0.73457 0.19463 0.63567 0.0
H781 H 0.71196 0.213 0.67836 0.0
H782 H 0.7473 0.18514 0.70842 0.0
H783 H 0.72026 0.24754 0.70814 0.0
H784 H 0.70532 0.23751 0.72067 0.0
H785 H 0.70519 0.23759 0.6921 0.0
H786 H 0.76003 0.19218 0.74106 0.0
H787 H 0.74885 0.20446 0.75801 0.0
H788 H 0.76366 0.21274 0.74321 0.0
H789 H 0.78919 0.30118 0.75683 0.0
H790 H 0.75258 0.28495 0.8061 0.0
H791 H 0.73367 0.26468 0.80632 0.0
H792 H 0.71684 0.22331 0.75789 0.0
H793 H 0.757 0.23651 0.71204 0.0
H794 H 0.77594 0.25678 0.71185 0.0
H795 H 0.66899 0.2759 0.85737 0.0
H796 H 0.68697 0.2727 0.84505 0.0
H797 H 0.68321 0.26283 0.869 0.0
C798 C 0.80261 0.66059 0.80494 0.0
C799 C 0.79694 0.66889 0.82477 0.0
C800 C 0.78252 0.69087 0.81161 0.0
C801 C 0.79036 0.70338 0.82194 0.0
C802 C 0.79056 0.7179 0.81264 0.0
C803 C 0.78279 0.71986 0.79257 0.0
C804 C 0.7743 0.70741 0.78256 0.0
C805 C 0.7741 0.69308 0.79242 0.0
C806 C 0.79939 0.73104 0.82399 0.0
C807 C 0.76588 0.7091 0.76116 0.0
C808 C 0.85802 0.78329 0.69258 0.0
C809 C 0.85202 0.76665 0.69268 0.0
C810 C 0.84046 0.75751 0.72441 0.0
C811 C 0.8275 0.74984 0.71467 0.0
C812 C 0.81452 0.74679 0.72618 0.0
C813 C 0.8146 0.75137 0.74787 0.0
C814 C 0.82802 0.75822 0.75801 0.0
C815 C 0.84085 0.7611 0.74612 0.0
C816 C 0.80053 0.73907 0.71507 0.0
C817 C 0.82856 0.76298 0.7812 0.0
C818 C 0.76576 0.83698 0.7233 0.0
C819 C 0.7561 0.82521 0.71421 0.0
C820 C 0.75193 0.81261 0.72621 0.0
C821 C 0.7573 0.81198 0.74775 0.0
C822 C 0.76599 0.82442 0.75732 0.0
C823 C 0.77009 0.8368 0.74492 0.0
C824 C 0.7423 0.7997 0.71568 0.0
C825 C 0.77158 0.82427 0.78038 0.0
C826 C 0.67616 0.74701 0.82985 0.0
C827 C 0.68122 0.76343 0.83708 0.0
C828 C 0.69646 0.77489 0.81034 0.0
C829 C 0.69727 0.77273 0.78847 0.0
C830 C 0.71116 0.77513 0.7787 0.0
C831 C 0.72439 0.78027 0.79114 0.0
C832 C 0.72341 0.78325 0.81317 0.0
C833 C 0.70943 0.78043 0.8226 0.0
C834 C 0.71173 0.77197 0.75514 0.0
C835 C 0.73715 0.78927 0.82674 0.0
C836 C 0.78447 0.73457 0.78144 0.0
C837 C 0.79783 0.73653 0.77037 0.0
C838 C 0.80029 0.75005 0.7595 0.0
C839 C 0.78919 0.76202 0.75958 0.0
C840 C 0.79134 0.77576 0.74875 0.0
C841 C 0.78031 0.78742 0.74875 0.0
C842 C 0.76669 0.78582 0.75961 0.0
C843 C 0.75534 0.79758 0.75952 0.0
C844 C 0.74186 0.7956 0.77026 0.0
C845 C 0.73934 0.78204 0.78113 0.0
C846 C 0.7506 0.77018 0.78155 0.0
C847 C 0.74846 0.7564 0.79237 0.0
C848 C 0.7596 0.74479 0.79259 0.0
C849 C 0.77319 0.74639 0.78169 0.0
C850 C 0.77558 0.76017 0.77069 0.0
C851 C 0.76431 0.77209 0.7707 0.0
C852 C 0.78959 0.85374 0.68637 0.0
C853 C 0.7732 0.84829 0.69017 0.0
O854 O 0.78321 0.67652 0.81965 0.0
O855 O 0.68289 0.7719 0.81906 0.0
O856 O 0.77129 0.84858 0.71182 0.0
O857 O 0.85272 0.76166 0.71338 0.0
H858 H 0.80608 0.67729 0.83062 0.0
H859 H 0.80496 0.66917 0.79277 0.0
H860 H 0.79374 0.65229 0.79808 0.0
H861 H 0.8135 0.65423 0.80889 0.0
H862 H 0.79641 0.70175 0.83721 0.0
H863 H 0.76792 0.68334 0.78477 0.0
H864 H 0.80975 0.73375 0.81522 0.0
H865 H 0.80323 0.72818 0.8405 0.0
H866 H 0.7921 0.74159 0.82438 0.0
H867 H 0.76023 0.69816 0.75521 0.0
H868 H 0.7741 0.71284 0.74945 0.0
H869 H 0.75689 0.7182 0.76223 0.0
H870 H 0.83986 0.767 0.68594 0.0
H871 H 0.85768 0.78751 0.6761 0.0
H872 H 0.87009 0.78409 0.69956 0.0
H873 H 0.8506 0.79095 0.70208 0.0
H874 H 0.82747 0.74631 0.69808 0.0
H875 H 0.85105 0.76671 0.75357 0.0
H876 H 0.7906 0.7472 0.7149 0.0
H877 H 0.79722 0.72876 0.72388 0.0
H878 H 0.8026 0.73543 0.69847 0.0
H879 H 0.84012 0.76747 0.78699 0.0
H880 H 0.82559 0.75296 0.79081 0.0
H881 H 0.81981 0.77212 0.78381 0.0
H882 H 0.77222 0.83629 0.68334 0.0
H883 H 0.75195 0.82568 0.69775 0.0
H884 H 0.77724 0.84614 0.75189 0.0
H885 H 0.749 0.78875 0.71605 0.0
H886 H 0.7387 0.8021 0.69893 0.0
H887 H 0.73179 0.79791 0.72458 0.0
H888 H 0.77676 0.83552 0.786 0.0
H889 H 0.78043 0.81508 0.78266 0.0
H890 H 0.76184 0.82151 0.79035 0.0
H891 H 0.69237 0.76253 0.84664 0.0
H892 H 0.67628 0.73913 0.84341 0.0
H893 H 0.6843 0.74221 0.8184 0.0
H894 H 0.66436 0.74715 0.82192 0.0
H895 H 0.68705 0.76874 0.77917 0.0
H896 H 0.70857 0.78272 0.83944 0.0
H897 H 0.72139 0.76397 0.75189 0.0
H898 H 0.71392 0.78296 0.74716 0.0
H899 H 0.70077 0.76686 0.74806 0.0
H900 H 0.73407 0.79249 0.84311 0.0
H901 H 0.74212 0.79955 0.81944 0.0
H902 H 0.74627 0.78026 0.82764 0.0
H903 H 0.80641 0.72739 0.77018 0.0
H904 H 0.80156 0.77767 0.74008 0.0
H905 H 0.78262 0.79769 0.74005 0.0
H906 H 0.73315 0.80461 0.76992 0.0
H907 H 0.73815 0.75443 0.80083 0.0
H908 H 0.75737 0.73448 0.80127 0.0
H909 H 0.79146 0.85359 0.6691 0.0
H910 H 0.79817 0.84588 0.69418 0.0
H911 H 0.79163 0.86566 0.69301 0.0
C912 C 0.02842 0.31076 0.54556 0.0
C913 C 0.03343 0.32502 0.55401 0.0
C914 C 0.02542 0.33599 0.54285 0.0
C915 C 0.01611 0.32785 0.5282 0.0
N916 N 0.01743 0.31232 0.52959 0.0
Co917 Co 0.0074 0.29618 0.50984 0.0
N918 N 0.99652 0.31233 0.49236 0.0
C919 C 0.99689 0.32782 0.49604 0.0
C920 C 0.98729 0.33587 0.48233 0.0
C921 C 0.98009 0.32486 0.46936 0.0
C922 C 0.98584 0.31067 0.47587 0.0
N923 N 0.99809 0.28005 0.48954 0.0
C924 C 0.98805 0.2816 0.47253 0.0
C925 C 0.98474 0.26747 0.46227 0.0
C926 C 0.99268 0.25652 0.47358 0.0
C927 C 0.00044 0.26459 0.48991 0.0
N928 N 0.01766 0.27997 0.52777 0.0
C929 C 0.01593 0.26445 0.52541 0.0
C930 C 0.02425 0.25631 0.54046 0.0
C931 C 0.03192 0.26727 0.553 0.0
C932 C 0.02791 0.28152 0.54468 0.0
N933 N 0.98909 0.29526 0.52732 0.0
C934 C 0.9628 0.29408 0.55152 0.0
C935 C 0.96811 0.28084 0.54114 0.0
C936 C 0.98122 0.28165 0.52934 0.0
C937 C 0.97084 0.30792 0.54963 0.0
C938 C 0.98379 0.30827 0.53746 0.0
N939 N 0.0257 0.29709 0.49246 0.0
C940 C 0.04752 0.28445 0.4773 0.0
C941 C 0.05281 0.29849 0.47007 0.0
C942 C 0.04414 0.31179 0.47382 0.0
C943 C 0.03073 0.31085 0.48501 0.0
C944 C 0.03403 0.284 0.48827 0.0
H945 H 0.02474 0.32142 0.48764 0.0
H946 H 0.03064 0.27293 0.49334 0.0
H947 H 0.98473 0.2711 0.52198 0.0
H948 H 0.98922 0.31924 0.53639 0.0
C949 C 0.00628 0.33442 0.51262 0.0
C950 C 0.03491 0.29607 0.5525 0.0
C951 C 0.98025 0.2959 0.46672 0.0
C952 C 0.00829 0.25788 0.50726 0.0
H953 H 0.04222 0.32728 0.56659 0.0
H954 H 0.02654 0.34843 0.54482 0.0
H955 H 0.98549 0.34826 0.48209 0.0
H956 H 0.97138 0.32702 0.45683 0.0
H957 H 0.9769 0.26527 0.44854 0.0
H958 H 0.99226 0.24411 0.47081 0.0
H959 H 0.02523 0.24388 0.54157 0.0
H960 H 0.03998 0.26501 0.56629 0.0
H961 H 0.9623 0.26982 0.54233 0.0
H962 H 0.96702 0.31853 0.55722 0.0
H963 H 0.05369 0.27378 0.47435 0.0
H964 H 0.04782 0.32294 0.46851 0.0
C965 C 0.69482 0.03043 0.53971 0.0
C966 C 0.68009 0.03511 0.54465 0.0
C967 C 0.66993 0.02565 0.53314 0.0
C968 C 0.679 0.01572 0.52198 0.0
N969 N 0.69434 0.01823 0.5257 0.0
Co970 Co 0.71159 0.00621 0.51318 0.0
N971 N 0.69666 0.99355 0.49436 0.0
C972 C 0.68109 0.9951 0.49262 0.0
C973 C 0.67393 0.98527 0.47774 0.0
C974 C 0.68562 0.97691 0.46946 0.0
C975 C 0.69928 0.98204 0.47999 0.0
N976 N 0.72883 0.99374 0.5014 0.0
C977 C 0.72836 0.98162 0.48725 0.0
C978 C 0.74301 0.97555 0.48466 0.0
C979 C 0.7531 0.98421 0.49743 0.0
C980 C 0.74408 0.99494 0.50721 0.0
N981 N 0.72658 0.01943 0.5312 0.0
C982 C 0.74221 0.01857 0.53192 0.0
C983 C 0.74948 0.02973 0.5447 0.0
C984 C 0.73781 0.0384 0.55243 0.0
C985 C 0.72403 0.03189 0.54402 0.0
N986 N 0.71043 0.99104 0.53609 0.0
C987 C 0.70979 0.96799 0.56663 0.0
C988 C 0.72301 0.97693 0.56468 0.0
C989 C 0.72311 0.98823 0.54943 0.0
C990 C 0.69671 0.97101 0.55346 0.0
C991 C 0.69722 0.98265 0.53858 0.0
N992 N 0.71276 0.02129 0.49033 0.0
C993 C 0.72796 0.03687 0.46813 0.0
C994 C 0.71467 0.04423 0.45988 0.0
C995 C 0.70036 0.03954 0.46661 0.0
C996 C 0.69966 0.0281 0.48168 0.0
C997 C 0.72675 0.02551 0.48318 0.0
H998 H 0.68842 0.0251 0.48631 0.0
H999 H 0.73732 0.02052 0.4891 0.0
H1000 H 0.73371 0.9943 0.54855 0.0
H1001 H 0.68682 0.98449 0.52915 0.0
C1002 C 0.67348 0.00516 0.5062 0.0
C1003 C 0.70886 0.03816 0.54837 0.0
C1004 C 0.71438 0.97538 0.4761 0.0
C1005 C 0.74969 0.0068 0.52099 0.0
H1006 H 0.67703 0.04456 0.5552 0.0
H1007 H 0.65742 0.02625 0.53247 0.0
H1008 H 0.66166 0.98415 0.47364 0.0
H1009 H 0.6842 0.96792 0.45722 0.0
H1010 H 0.74613 0.96584 0.47461 0.0
H1011 H 0.76553 0.98291 0.49927 0.0
H1012 H 0.76179 0.0314 0.54795 0.0
H1013 H 0.73933 0.04844 0.56297 0.0
H1014 H 0.73349 0.97487 0.57441 0.0
H1015 H 0.68616 0.96441 0.5546 0.0
H1016 H 0.73934 0.04021 0.46357 0.0
H1017 H 0.68971 0.04474 0.4604 0.0
C1018 C 0.02603 0.72807 0.52989 0.0
C1019 C 0.03181 0.74266 0.53579 0.0
C1020 C 0.02287 0.75307 0.52489 0.0
C1021 C 0.01227 0.74431 0.51292 0.0
N1022 N 0.01372 0.72889 0.5157 0.0
Co1023 Co 0.00143 0.71189 0.50027 0.0
N1024 N 0.98869 0.72725 0.48369 0.0
C1025 C 0.98985 0.74287 0.48499 0.0
C1026 C 0.97913 0.75033 0.47217 0.0
C1027 C 0.97041 0.73881 0.46231 0.0
C1028 C 0.97635 0.72494 0.46978 0.0
N1029 N 0.98941 0.69491 0.48448 0.0
C1030 C 0.9772 0.69571 0.47014 0.0
C1031 C 0.97206 0.68113 0.46318 0.0
C1032 C 0.98128 0.6707 0.47367 0.0
C1033 C 0.99145 0.67949 0.48636 0.0
N1034 N 0.01389 0.69657 0.51727 0.0
C1035 C 0.01226 0.681 0.51658 0.0
C1036 C 0.02242 0.67355 0.53024 0.0
C1037 C 0.03118 0.68504 0.54012 0.0
C1038 C 0.02588 0.69887 0.53175 0.0
N1039 N 0.986 0.7126 0.52231 0.0
C1040 C 0.96347 0.71401 0.55276 0.0
C1041 C 0.96826 0.69979 0.54438 0.0
C1042 C 0.97951 0.69935 0.52934 0.0
C1043 C 0.97017 0.72746 0.54569 0.0
C1044 C 0.98128 0.7265 0.53062 0.0
N1045 N 0.01693 0.71122 0.47826 0.0
C1046 C 0.0358 0.69723 0.45836 0.0
C1047 C 0.0406 0.71088 0.4494 0.0
C1048 C 0.03307 0.7246 0.45472 0.0
C1049 C 0.02139 0.7245 0.46898 0.0
C1050 C 0.02397 0.69764 0.47256 0.0
H1051 H 0.01636 0.7354 0.4725 0.0
H1052 H 0.02086 0.68687 0.47891 0.0
H1053 H 0.98272 0.68818 0.52357 0.0
H1054 H 0.98575 0.7372 0.5258 0.0
C1055 C 0.00099 0.7502 0.49865 0.0
C1056 C 0.03308 0.71377 0.5374 0.0
C1057 C 0.96955 0.70994 0.46367 0.0
C1058 C 0.00195 0.67364 0.50172 0.0
H1059 H 0.04165 0.74551 0.54652 0.0
H1060 H 0.02415 0.76553 0.52532 0.0
H1061 H 0.97768 0.76267 0.47043 0.0
H1062 H 0.96064 0.74043 0.45112 0.0
H1063 H 0.96238 0.67831 0.45212 0.0
H1064 H 0.98029 0.65822 0.47275 0.0
H1065 H 0.02361 0.66122 0.53233 0.0
H1066 H 0.04063 0.68342 0.55182 0.0
H1067 H 0.96345 0.68905 0.5495 0.0
H1068 H 0.96665 0.73877 0.55142 0.0
H1069 H 0.04113 0.68625 0.45448 0.0
H1070 H 0.03647 0.73553 0.44841 0.0
C1071 C 0.3117 0.98108 0.54722 0.0
C1072 C 0.32568 0.97573 0.55599 0.0
C1073 C 0.33702 0.98402 0.54731 0.0
C1074 C 0.32933 0.99395 0.53385 0.0
N1075 N 0.31375 0.99262 0.53355 0.0
Co1076 Co 0.29813 0.00457 0.51592 0.0
N1077 N 0.31481 0.01559 0.50147 0.0
C1078 C 0.33025 0.01335 0.50427 0.0
C1079 C 0.33883 0.02278 0.4924 0.0
C1080 C 0.32827 0.03168 0.4815 0.0
C1081 C 0.31378 0.02713 0.48736 0.0
N1082 N 0.28247 0.01687 0.49878 0.0
C1083 C 0.28454 0.02851 0.48531 0.0
C1084 C 0.27052 0.03433 0.47724 0.0
C1085 C 0.25918 0.02631 0.48627 0.0
C1086 C 0.26687 0.01608 0.49924 0.0
N1087 N 0.28141 0.99324 0.5299 0.0
C1088 C 0.26594 0.99485 0.52631 0.0
C1089 C 0.25737 0.98492 0.53745 0.0
C1090 C 0.26799 0.97623 0.54858 0.0
C1091 C 0.28247 0.98142 0.54356 0.0
N1092 N 0.2984 0.02116 0.53831 0.0
C1093 C 0.29821 0.04685 0.56662 0.0
C1094 C 0.28445 0.03969 0.55915 0.0
C1095 C 0.28481 0.02691 0.5453 0.0
C1096 C 0.31216 0.04055 0.56048 0.0
C1097 C 0.31198 0.02779 0.54632 0.0
N1098 N 0.29784 0.98803 0.49345 0.0
C1099 C 0.28345 0.97182 0.46751 0.0
C1100 C 0.2967 0.96342 0.46328 0.0
C1101 C 0.31064 0.96764 0.4741 0.0
C1102 C 0.31098 0.98005 0.48885 0.0
C1103 C 0.28425 0.9839 0.48257 0.0
H1104 H 0.32197 0.98286 0.49646 0.0
H1105 H 0.27362 0.98951 0.48532 0.0
H1106 H 0.2739 0.02204 0.54024 0.0
H1107 H 0.32295 0.02368 0.5418 0.0
C1108 C 0.33636 0.00344 0.51967 0.0
C1109 C 0.29684 0.9743 0.55148 0.0
C1110 C 0.29947 0.0347 0.48007 0.0
C1111 C 0.25979 0.00562 0.51208 0.0
H1112 H 0.32749 0.96648 0.56706 0.0
H1113 H 0.3494 0.98258 0.5499 0.0
H1114 H 0.35131 0.0235 0.49229 0.0
H1115 H 0.33095 0.04079 0.47089 0.0
H1116 H 0.26869 0.04356 0.46616 0.0
H1117 H 0.2468 0.02788 0.48387 0.0
H1118 H 0.2449 0.98392 0.5372 0.0
H1119 H 0.26538 0.96692 0.55891 0.0
H1120 H 0.27338 0.04396 0.56397 0.0
H1121 H 0.32311 0.04569 0.56609 0.0
H1122 H 0.27234 0.96881 0.45966 0.0
H1123 H 0.32122 0.96145 0.47115 0.0
C1124 C 0.52889 0.81344 0.03773 0.0
C1125 C 0.53302 0.8278 0.04666 0.0
C1126 C 0.52496 0.83853 0.03508 0.0
C1127 C 0.51641 0.83012 0.01985 0.0
N1128 N 0.51834 0.81464 0.02115 0.0
Co1129 Co 0.50869 0.7981 0.0017 0.0
N1130 N 0.49795 0.81392 0.98352 0.0
C1131 C 0.49877 0.8295 0.9861 0.0
C1132 C 0.48994 0.83732 0.97123 0.0
C1133 C 0.48288 0.82608 0.95852 0.0
C1134 C 0.48781 0.812 0.96649 0.0
N1135 N 0.49909 0.78155 0.9822 0.0
C1136 C 0.4888 0.78274 0.96532 0.0
C1137 C 0.48458 0.76829 0.95665 0.0
C1138 C 0.49243 0.7576 0.96848 0.0
C1139 C 0.5009 0.76605 0.98371 0.0
N1140 N 0.51945 0.78226 0.01988 0.0
C1141 C 0.51861 0.76668 0.01734 0.0
C1142 C 0.52768 0.75886 0.03193 0.0
C1143 C 0.53493 0.77011 0.04441 0.0
C1144 C 0.52979 0.7842 0.03667 0.0
N1145 N 0.49045 0.79736 0.01932 0.0
C1146 C 0.46366 0.79619 0.0426 0.0
C1147 C 0.4711 0.78265 0.03627 0.0
C1148 C 0.48435 0.7835 0.02479 0.0
C1149 C 0.47 0.81034 0.03733 0.0
C1150 C 0.48328 0.81066 0.02581 0.0
N1151 N 0.52688 0.79881 0.98404 0.0
C1152 C 0.54661 0.78555 0.96503 0.0
C1153 C 0.55282 0.79959 0.95916 0.0
C1154 C 0.5459 0.81327 0.96608 0.0
C1155 C 0.53303 0.81261 0.9784 0.0
C1156 C 0.53377 0.78543 0.97733 0.0
H1157 H 0.52826 0.82342 0.98315 0.0
H1158 H 0.52969 0.77435 0.98129 0.0
H1159 H 0.48933 0.77275 0.02034 0.0
H1160 H 0.48748 0.8218 0.02226 0.0
C1161 C 0.50734 0.83643 0.00325 0.0
C1162 C 0.53575 0.79905 0.04502 0.0
C1163 C 0.48201 0.79717 0.95784 0.0
C1164 C 0.50996 0.75974 0.00029 0.0
H1165 H 0.54125 0.83026 0.05989 0.0
H1166 H 0.5256 0.85099 0.03714 0.0
H1167 H 0.48853 0.84971 0.97004 0.0
H1168 H 0.47479 0.82798 0.94513 0.0
H1169 H 0.47639 0.76565 0.94347 0.0
H1170 H 0.49171 0.74513 0.96659 0.0
H1171 H 0.52921 0.74648 0.03298 0.0
H1172 H 0.54334 0.76814 0.05739 0.0
H1173 H 0.46657 0.77139 0.03977 0.0
H1174 H 0.4648 0.82118 0.04218 0.0
H1175 H 0.55174 0.77463 0.9604 0.0
H1176 H 0.55024 0.82444 0.96181 0.0
C1177 C 0.19873 0.53141 0.04325 0.0
C1178 C 0.18383 0.53495 0.04877 0.0
C1179 C 0.17405 0.52597 0.03593 0.0
C1180 C 0.18351 0.51742 0.02349 0.0
N1181 N 0.19875 0.52038 0.02759 0.0
Co1182 Co 0.21649 0.50996 0.01397 0.0
N1183 N 0.20207 0.49724 0.99457 0.0
C1184 C 0.18649 0.49843 0.99245 0.0
C1185 C 0.17974 0.48838 0.97749 0.0
C1186 C 0.19173 0.48018 0.96969 0.0
C1187 C 0.20512 0.48566 0.98055 0.0
N1188 N 0.23423 0.49886 0.00118 0.0
C1189 C 0.23419 0.48654 0.98742 0.0
C1190 C 0.24909 0.48146 0.98406 0.0
C1191 C 0.25891 0.49089 0.99615 0.0
C1192 C 0.24949 0.50105 0.00629 0.0
N1193 N 0.23094 0.52322 0.03267 0.0
C1194 C 0.24656 0.52356 0.03261 0.0
C1195 C 0.25334 0.53444 0.04633 0.0
C1196 C 0.24133 0.54161 0.05559 0.0
C1197 C 0.22785 0.53455 0.04706 0.0
N1198 N 0.2164 0.4939 0.03575 0.0
C1199 C 0.21696 0.47042 0.06572 0.0
C1200 C 0.22995 0.47962 0.06337 0.0
C1201 C 0.22946 0.49112 0.04835 0.0
C1202 C 0.20358 0.47325 0.05299 0.0
C1203 C 0.2035 0.48509 0.03834 0.0
N1204 N 0.21663 0.52613 0.99214 0.0
C1205 C 0.23079 0.5424 0.96942 0.0
C1206 C 0.21725 0.54991 0.96245 0.0
C1207 C 0.20334 0.54523 0.97045 0.0
C1208 C 0.20327 0.53334 0.98505 0.0
C1209 C 0.23024 0.53071 0.98412 0.0
H1210 H 0.19227 0.53025 0.99038 0.0
H1211 H 0.24104 0.52567 0.98885 0.0
H1212 H 0.23989 0.49746 0.04707 0.0
H1213 H 0.19292 0.48685 0.02918 0.0
C1214 C 0.17844 0.50756 0.00665 0.0
C1215 C 0.21241 0.53931 0.05271 0.0
C1216 C 0.22035 0.47902 0.9777 0.0
C1217 C 0.25458 0.51285 0.02051 0.0
H1218 H 0.18039 0.54338 0.0606 0.0
H1219 H 0.16153 0.52595 0.03539 0.0
H1220 H 0.16753 0.48676 0.97336 0.0
H1221 H 0.19069 0.47093 0.95778 0.0
H1222 H 0.25254 0.4718 0.97414 0.0
H1223 H 0.27141 0.49029 0.99759 0.0
H1224 H 0.26556 0.53682 0.04934 0.0
H1225 H 0.24244 0.55102 0.06723 0.0
H1226 H 0.24064 0.47768 0.07271 0.0
H1227 H 0.19322 0.46641 0.0544 0.0
H1228 H 0.24189 0.54573 0.96387 0.0
H1229 H 0.1925 0.55059 0.96532 0.0
C1230 C 0.47809 0.22804 0.97762 0.0
C1231 C 0.47261 0.24202 0.96996 0.0
C1232 C 0.48105 0.25338 0.98066 0.0
C1233 C 0.49117 0.24572 0.99414 0.0
N1234 N 0.48989 0.23011 0.99245 0.0
Co1235 Co 0.50187 0.21445 0.00949 0.0
N1236 N 0.51348 0.23119 0.02639 0.0
C1237 C 0.51173 0.24667 0.02469 0.0
C1238 C 0.52176 0.2552 0.03794 0.0
C1239 C 0.53065 0.24456 0.04849 0.0
C1240 C 0.52551 0.2301 0.04097 0.0
N1241 N 0.51385 0.19882 0.02662 0.0
C1242 C 0.52578 0.20088 0.04128 0.0
C1243 C 0.53131 0.18689 0.04883 0.0
C1244 C 0.52268 0.17555 0.03835 0.0
C1245 C 0.51245 0.18323 0.02505 0.0
N1246 N 0.49032 0.19772 0.9925 0.0
C1247 C 0.49208 0.18225 0.99425 0.0
C1248 C 0.48212 0.1737 0.98091 0.0
C1249 C 0.47332 0.18433 0.97018 0.0
C1250 C 0.47847 0.19879 0.97765 0.0
N1251 N 0.5182 0.2142 0.98869 0.0
C1252 C 0.54233 0.21425 0.96062 0.0
C1253 C 0.53669 0.20037 0.96797 0.0
C1254 C 0.52465 0.20061 0.98182 0.0
C1255 C 0.53558 0.22805 0.96737 0.0
C1256 C 0.52367 0.22776 0.98125 0.0
N1257 N 0.48549 0.21473 0.03024 0.0
C1258 C 0.46745 0.20129 0.05114 0.0
C1259 C 0.46107 0.2153 0.05787 0.0
C1260 C 0.46724 0.22899 0.05076 0.0
C1261 C 0.47936 0.22845 0.03718 0.0
C1262 C 0.47954 0.20127 0.0374 0.0
H1263 H 0.48352 0.2393 0.03247 0.0
H1264 H 0.48379 0.19024 0.03267 0.0
H1265 H 0.52085 0.18968 0.98688 0.0
H1266 H 0.51924 0.2387 0.98595 0.0
C1267 C 0.50135 0.25284 0.00941 0.0
C1268 C 0.47116 0.21317 0.97112 0.0
C1269 C 0.5329 0.21574 0.04743 0.0
C1270 C 0.50235 0.17613 0.00968 0.0
H1271 H 0.46322 0.24382 0.95821 0.0
H1272 H 0.47967 0.26576 0.97924 0.0
H1273 H 0.52282 0.26767 0.03926 0.0
H1274 H 0.54012 0.24712 0.06002 0.0
H1275 H 0.54089 0.18503 0.06023 0.0
H1276 H 0.52409 0.16317 0.03969 0.0
H1277 H 0.48105 0.16123 0.97965 0.0
H1278 H 0.4639 0.18175 0.9586 0.0
H1279 H 0.54147 0.18937 0.96301 0.0
H1280 H 0.53971 0.23912 0.96239 0.0
H1281 H 0.46302 0.19037 0.05623 0.0
H1282 H 0.46291 0.24015 0.05592 0.0
C1283 C 0.78089 0.5246 0.04883 0.0
C1284 C 0.76656 0.52959 0.05516 0.0
C1285 C 0.75566 0.52112 0.04354 0.0
C1286 C 0.76387 0.51154 0.03075 0.0
N1287 N 0.77941 0.51328 0.03355 0.0
Co1288 Co 0.79564 0.5021 0.0176 0.0
N1289 N 0.77949 0.48993 0.0001 0.0
C1290 C 0.76395 0.49084 0.00129 0.0
C1291 C 0.75583 0.48069 0.98785 0.0
C1292 C 0.76681 0.47271 0.97749 0.0
C1293 C 0.78108 0.47855 0.98517 0.0
N1294 N 0.81185 0.49092 0.00156 0.0
C1295 C 0.81036 0.47947 0.98642 0.0
C1296 C 0.82461 0.47479 0.97957 0.0
C1297 C 0.83553 0.48345 0.99095 0.0
C1298 C 0.82736 0.49291 0.00401 0.0
N1299 N 0.81178 0.51422 0.03517 0.0
C1300 C 0.82732 0.5132 0.03413 0.0
C1301 C 0.83542 0.52307 0.04805 0.0
C1302 C 0.82441 0.53096 0.05855 0.0
C1303 C 0.81018 0.52543 0.05033 0.0
N1304 N 0.7965 0.48567 0.03891 0.0
C1305 C 0.79746 0.46177 0.06834 0.0
C1306 C 0.81109 0.46796 0.06127 0.0
C1307 C 0.81034 0.47984 0.04672 0.0
C1308 C 0.78339 0.46789 0.06062 0.0
C1309 C 0.78317 0.47971 0.04608 0.0
N1310 N 0.79479 0.51863 0.99638 0.0
C1311 C 0.80764 0.53785 0.97655 0.0
C1312 C 0.79344 0.54375 0.96888 0.0
C1313 C 0.77995 0.53657 0.97473 0.0
C1314 C 0.78089 0.52411 0.98829 0.0
C1315 C 0.80804 0.52536 0.9901 0.0
H1316 H 0.77017 0.51927 0.99221 0.0
H1317 H 0.81921 0.52147 0.99543 0.0
H1318 H 0.82112 0.48405 0.04192 0.0
H1319 H 0.77206 0.48368 0.0407 0.0
C1320 C 0.75731 0.50101 0.01568 0.0
C1321 C 0.79549 0.53134 0.0573 0.0
C1322 C 0.79577 0.47255 0.97824 0.0
C1323 C 0.83393 0.50326 0.01937 0.0
H1324 H 0.76418 0.53859 0.06676 0.0
H1325 H 0.74322 0.522 0.04412 0.0
H1326 H 0.74342 0.47909 0.98607 0.0
H1327 H 0.76452 0.46345 0.96583 0.0
H1328 H 0.82686 0.46592 0.96771 0.0
H1329 H 0.84796 0.48275 0.99007 0.0
H1330 H 0.84784 0.52451 0.05012 0.0
H1331 H 0.82659 0.53986 0.07076 0.0
H1332 H 0.82229 0.46366 0.06693 0.0
H1333 H 0.77249 0.4633 0.06532 0.0
H1334 H 0.81844 0.54279 0.97208 0.0
H1335 H 0.76865 0.54075 0.9693 0.0
H1336 H 0.15669 0.27712 0.33524 0.0
H1337 H 0.13667 0.2897 0.35518 0.0
H1338 H 0.15811 0.2729 0.41345 0.0
H1339 H 0.17865 0.26098 0.39365 0.0
H1340 H 0.11653 0.27537 0.37631 0.0
H1341 H 0.14809 0.31583 0.43265 0.0
H1342 H 0.15706 0.30698 0.41024 0.0
H1343 H 0.15583 0.29667 0.43449 0.0
C1344 C 0.15744 0.27651 0.35236 0.0
C1345 C 0.16945 0.2683 0.36296 0.0
C1346 C 0.14593 0.28366 0.36374 0.0
C1347 C 0.14602 0.28252 0.38588 0.0
C1348 C 0.15806 0.27443 0.39649 0.0
H1349 H 0.08027 0.28426 0.48005 0.0
H1350 H 0.10312 0.28301 0.45903 0.0
C1351 C 0.16972 0.26749 0.38516 0.0
C1352 C 0.13262 0.28814 0.39749 0.0
H1353 H 0.12256 0.30807 0.4421 0.0
C1354 C 0.11783 0.28279 0.39044 0.0
C1355 C 0.1343 0.29781 0.41596 0.0
C1356 C 0.14967 0.30478 0.42363 0.0
C1357 C 0.10481 0.28623 0.40187 0.0
C1358 C 0.10662 0.2953 0.4208 0.0
C1359 C 0.12128 0.30108 0.42756 0.0
C1360 C 0.09357 0.29778 0.43453 0.0
C1361 C 0.0893 0.27955 0.39414 0.0
C1362 C 0.08083 0.30681 0.42788 0.0
C1363 C 0.06772 0.30748 0.4398 0.0
C1364 C 0.06718 0.29908 0.45848 0.0
C1365 C 0.08026 0.29062 0.46553 0.0
C1366 C 0.09336 0.29001 0.45367 0.0
H1367 H 0.0903 0.27096 0.38087 0.0
H1368 H 0.0837 0.27389 0.40728 0.0
H1369 H 0.08161 0.28902 0.3885 0.0
H1370 H 0.08087 0.31295 0.41317 0.0
H1371 H 0.05781 0.31407 0.43396 0.0
H1372 H 0.71848 0.17628 0.37451 0.0
H1373 H 0.71206 0.15091 0.38801 0.0
H1374 H 0.75585 0.133 0.36934 0.0
H1375 H 0.76239 0.15838 0.35582 0.0
H1376 H 0.72327 0.11372 0.36054 0.0
H1377 H 0.74134 0.1346 0.44259 0.0
H1378 H 0.73001 0.14731 0.42573 0.0
H1379 H 0.74939 0.14253 0.41947 0.0
C1380 C 0.7266 0.16685 0.37294 0.0
C1381 C 0.74088 0.16924 0.36398 0.0
C1382 C 0.72293 0.15242 0.38063 0.0
C1383 C 0.73348 0.14017 0.37955 0.0
C1384 C 0.74755 0.14234 0.37011 0.0
H1385 H 0.73356 0.04673 0.42674 0.0
H1386 H 0.73746 0.06952 0.40554 0.0
C1387 C 0.75126 0.1568 0.36245 0.0
C1388 C 0.73035 0.12555 0.38994 0.0
H1389 H 0.73076 0.10957 0.43867 0.0
C1390 C 0.72492 0.11273 0.3776 0.0
C1391 C 0.73256 0.12443 0.41215 0.0
C1392 C 0.73871 0.13788 0.42589 0.0
C1393 C 0.72135 0.09876 0.38708 0.0
C1394 C 0.7235 0.09766 0.40935 0.0
C1395 C 0.72905 0.1105 0.4216 0.0
C1396 C 0.7201 0.08335 0.4205 0.0
C1397 C 0.715 0.08542 0.37331 0.0
C1398 C 0.7091 0.08362 0.43595 0.0
C1399 C 0.70696 0.07071 0.44822 0.0
C1400 C 0.71588 0.05731 0.44535 0.0
C1401 C 0.72661 0.05693 0.42944 0.0
C1402 C 0.72873 0.06987 0.41715 0.0
H1403 H 0.71067 0.08923 0.3574 0.0
H1404 H 0.72431 0.07681 0.37109 0.0
H1405 H 0.70543 0.07957 0.38095 0.0
H1406 H 0.70242 0.09399 0.43886 0.0
H1407 H 0.69877 0.07147 0.46052 0.0
H1408 H 0.83563 0.74606 0.39 0.0
H1409 H 0.85868 0.73529 0.40852 0.0
H1410 H 0.87953 0.728 0.34866 0.0
H1411 H 0.8569 0.73933 0.33022 0.0
H1412 H 0.87381 0.70732 0.40617 0.0
H1413 H 0.9112 0.75496 0.38138 0.0
H1414 H 0.8904 0.75549 0.37772 0.0
H1415 H 0.90159 0.7444 0.35957 0.0
C1416 C 0.84509 0.74199 0.38082 0.0
C1417 C 0.84438 0.74341 0.35868 0.0
C1418 C 0.85821 0.73585 0.39138 0.0
C1419 C 0.87089 0.73106 0.37997 0.0
C1420 C 0.86999 0.7319 0.35779 0.0
H1421 H 0.96433 0.70383 0.42143 0.0
H1422 H 0.9397 0.70639 0.40039 0.0
C1423 C 0.85697 0.73824 0.34726 0.0
C1424 C 0.88531 0.72592 0.39138 0.0
H1425 H 0.92365 0.73469 0.39985 0.0
C1426 C 0.88473 0.71326 0.40478 0.0
C1427 C 0.89951 0.73377 0.38961 0.0
C1428 C 0.90074 0.74799 0.37647 0.0
C1429 C 0.89802 0.7082 0.41637 0.0
C1430 C 0.91217 0.71608 0.41455 0.0
C1431 C 0.91278 0.72859 0.401 0.0
C1432 C 0.92637 0.71223 0.42744 0.0
C1433 C 0.89685 0.69447 0.43039 0.0
C1434 C 0.92692 0.71453 0.44956 0.0
C1435 C 0.94091 0.71309 0.46147 0.0
C1436 C 0.95448 0.70936 0.4514 0.0
C1437 C 0.95388 0.70658 0.42941 0.0
C1438 C 0.93989 0.70804 0.41747 0.0
H1439 H 0.88646 0.68732 0.42582 0.0
H1440 H 0.90731 0.68708 0.42973 0.0
H1441 H 0.89594 0.69865 0.44705 0.0
H1442 H 0.91669 0.71812 0.45747 0.0
H1443 H 0.94128 0.71544 0.47844 0.0
H1444 H 0.26832 0.82513 0.35893 0.0
H1445 H 0.27823 0.84962 0.38906 0.0
H1446 H 0.24934 0.88919 0.34605 0.0
H1447 H 0.23874 0.86593 0.31489 0.0
H1448 H 0.29513 0.87825 0.38084 0.0
H1449 H 0.23856 0.89757 0.40744 0.0
H1450 H 0.24062 0.88032 0.39111 0.0
H1451 H 0.23911 0.89904 0.37929 0.0
C1452 C 0.26425 0.83687 0.3571 0.0
C1453 C 0.25469 0.84352 0.33175 0.0
C1454 C 0.27089 0.85227 0.3752 0.0
C1455 C 0.26551 0.87207 0.3703 0.0
C1456 C 0.25256 0.87723 0.34819 0.0
H1457 H 0.2829 0.96241 0.42352 0.0
H1458 H 0.2773 0.93945 0.40088 0.0
C1459 C 0.24532 0.86275 0.3292 0.0
C1460 C 0.27141 0.88441 0.38507 0.0
H1461 H 0.25976 0.91543 0.4145 0.0
C1462 C 0.28746 0.88632 0.38842 0.0
C1463 C 0.2613 0.89478 0.39497 0.0
C1464 C 0.24395 0.8927 0.39317 0.0
C1465 C 0.29371 0.89894 0.40058 0.0
C1466 C 0.28356 0.90965 0.40985 0.0
C1467 C 0.26752 0.90733 0.4071 0.0
C1468 C 0.28912 0.92358 0.42216 0.0
C1469 C 0.31103 0.90104 0.40275 0.0
C1470 C 0.29798 0.9223 0.44136 0.0
C1471 C 0.30128 0.93545 0.45426 0.0
C1472 C 0.29558 0.94999 0.44823 0.0
C1473 C 0.28732 0.95131 0.42858 0.0
C1474 C 0.28413 0.93822 0.41566 0.0
H1475 H 0.31696 0.89396 0.39073 0.0
H1476 H 0.31422 0.91338 0.40115 0.0
H1477 H 0.31537 0.89739 0.41871 0.0
H1478 H 0.30169 0.91107 0.44686 0.0
H1479 H 0.30753 0.93413 0.46946 0.0
H1480 H 0.16882 0.69501 0.62702 0.0
H1481 H 0.14279 0.69387 0.60953 0.0
H1482 H 0.13797 0.74314 0.61968 0.0
H1483 H 0.16402 0.74437 0.63698 0.0
H1484 H 0.11415 0.70299 0.62557 0.0
H1485 H 0.12844 0.73638 0.55544 0.0
H1486 H 0.1431 0.72827 0.57334 0.0
H1487 H 0.13344 0.74587 0.58059 0.0
C1488 C 0.16216 0.70557 0.6256 0.0
C1489 C 0.16836 0.71975 0.63353 0.0
C1490 C 0.14733 0.70491 0.61562 0.0
C1491 C 0.13855 0.71844 0.61317 0.0
C1492 C 0.14466 0.7326 0.62118 0.0
H1493 H 0.03987 0.7241 0.57805 0.0
H1494 H 0.06546 0.72522 0.59706 0.0
C1495 C 0.15947 0.73327 0.63116 0.0
C1496 C 0.12301 0.71773 0.60218 0.0
H1497 H 0.10198 0.73047 0.55879 0.0
C1498 C 0.11146 0.70896 0.61095 0.0
C1499 C 0.11964 0.72541 0.58301 0.0
C1500 C 0.13182 0.73441 0.57239 0.0
C1501 C 0.09653 0.70778 0.60112 0.0
C1502 C 0.09306 0.71579 0.58222 0.0
C1503 C 0.10466 0.72444 0.57337 0.0
C1504 C 0.07757 0.71506 0.57102 0.0
C1505 C 0.08472 0.69774 0.61083 0.0
C1506 C 0.07599 0.70932 0.54999 0.0
C1507 C 0.06149 0.70888 0.53913 0.0
C1508 C 0.04839 0.71422 0.54913 0.0
C1509 C 0.04991 0.71994 0.57015 0.0
C1510 C 0.06444 0.72046 0.58099 0.0
H1511 H 0.09026 0.68935 0.62188 0.0
H1512 H 0.07689 0.70519 0.61997 0.0
H1513 H 0.07759 0.69124 0.59838 0.0
H1514 H 0.08599 0.70515 0.54201 0.0
H1515 H 0.06047 0.70444 0.52289 0.0
H1516 H 0.25893 0.13898 0.71529 0.0
H1517 H 0.27563 0.12196 0.69527 0.0
H1518 H 0.26239 0.14593 0.63806 0.0
H1519 H 0.24622 0.16344 0.65825 0.0
H1520 H 0.26526 0.10254 0.66567 0.0
H1521 H 0.30747 0.14039 0.63002 0.0
H1522 H 0.29591 0.14705 0.65134 0.0
H1523 H 0.28808 0.14692 0.62426 0.0
C1524 C 0.26 0.14098 0.6986 0.0
C1525 C 0.25149 0.15275 0.68838 0.0
C1526 C 0.26951 0.1312 0.68715 0.0
C1527 C 0.27051 0.13281 0.66521 0.0
C1528 C 0.26225 0.14475 0.65507 0.0
H1529 H 0.28054 0.07246 0.56055 0.0
H1530 H 0.27702 0.09404 0.58572 0.0
C1531 C 0.25291 0.15468 0.66657 0.0
C1532 C 0.27837 0.12079 0.65253 0.0
H1533 H 0.30266 0.11541 0.6122 0.0
C1534 C 0.27373 0.10534 0.65436 0.0
C1535 C 0.2894 0.12441 0.6377 0.0
C1536 C 0.29561 0.14059 0.63588 0.0
C1537 C 0.27919 0.09356 0.64109 0.0
C1538 C 0.28955 0.09733 0.62558 0.0
C1539 C 0.29469 0.11263 0.62417 0.0
C1540 C 0.29376 0.08569 0.60941 0.0
C1541 C 0.27329 0.07726 0.64296 0.0
C1542 C 0.30463 0.07411 0.61432 0.0
C1543 C 0.30668 0.06176 0.59995 0.0
C1544 C 0.29775 0.06081 0.58066 0.0
C1545 C 0.28743 0.07284 0.57544 0.0
C1546 C 0.28549 0.0852 0.58968 0.0
H1547 H 0.26479 0.07636 0.65539 0.0
H1548 H 0.26771 0.07313 0.62755 0.0
H1549 H 0.28313 0.06943 0.64688 0.0
H1550 H 0.31104 0.07432 0.62958 0.0
H1551 H 0.31467 0.0526 0.60434 0.0
H1552 H 0.86257 0.30697 0.69007 0.0
H1553 H 0.884 0.30312 0.66687 0.0
H1554 H 0.85156 0.29081 0.61468 0.0
H1555 H 0.83003 0.29502 0.63774 0.0
H1556 H 0.89327 0.27751 0.64369 0.0
H1557 H 0.87625 0.32571 0.59088 0.0
H1558 H 0.8678 0.32306 0.61598 0.0
H1559 H 0.86152 0.31131 0.59314 0.0
C1560 C 0.86004 0.30329 0.6737 0.0
C1561 C 0.84466 0.30108 0.66578 0.0
C1562 C 0.87226 0.30111 0.66047 0.0
C1563 C 0.86936 0.29684 0.63901 0.0
C1564 C 0.85404 0.29434 0.63112 0.0
H1565 H 0.93498 0.28021 0.54056 0.0
H1566 H 0.91192 0.27973 0.56143 0.0
C1567 C 0.84177 0.29659 0.64434 0.0
C1568 C 0.88242 0.29535 0.62494 0.0
H1569 H 0.89779 0.31072 0.58156 0.0
C1570 C 0.89423 0.28473 0.63007 0.0
C1571 C 0.88367 0.30485 0.60722 0.0
C1572 C 0.87172 0.31698 0.60153 0.0
C1573 C 0.90729 0.28342 0.618 0.0
C1574 C 0.90855 0.29297 0.60043 0.0
C1575 C 0.89667 0.30338 0.59503 0.0
C1576 C 0.92251 0.29285 0.5881 0.0
C1577 C 0.91977 0.27194 0.62408 0.0
C1578 C 0.93597 0.30044 0.59626 0.0
C1579 C 0.94907 0.30081 0.58439 0.0
C1580 C 0.94894 0.29351 0.5642 0.0
C1581 C 0.93544 0.2858 0.55615 0.0
C1582 C 0.92228 0.28556 0.56797 0.0
H1583 H 0.91616 0.26399 0.6364 0.0
H1584 H 0.9229 0.26498 0.60991 0.0
H1585 H 0.9303 0.27827 0.63032 0.0
H1586 H 0.93628 0.30617 0.61176 0.0
H1587 H 0.95935 0.30672 0.59105 0.0
H1588 H 0.75766 0.84355 0.65142 0.0
H1589 H 0.74176 0.86218 0.6312 0.0
H1590 H 0.74717 0.89529 0.68342 0.0
H1591 H 0.7631 0.87684 0.70362 0.0
H1592 H 0.71297 0.88441 0.64635 0.0
H1593 H 0.76882 0.91064 0.62588 0.0
H1594 H 0.76721 0.89053 0.63245 0.0
H1595 H 0.76694 0.90528 0.65296 0.0
C1596 C 0.7551 0.85466 0.65875 0.0
C1597 C 0.76148 0.85872 0.67913 0.0
C1598 C 0.74601 0.86523 0.64725 0.0
C1599 C 0.74327 0.88 0.65595 0.0
C1600 C 0.74907 0.88386 0.6766 0.0
H1601 H 0.72048 0.96878 0.60801 0.0
H1602 H 0.72592 0.94663 0.63045 0.0
C1603 C 0.75815 0.87333 0.68808 0.0
C1604 C 0.73627 0.89213 0.64261 0.0
H1605 H 0.74603 0.92379 0.61539 0.0
C1606 C 0.72012 0.89301 0.63944 0.0
C1607 C 0.74573 0.9032 0.63363 0.0
C1608 C 0.76315 0.90242 0.63622 0.0
C1609 C 0.71315 0.90509 0.62789 0.0
C1610 C 0.72265 0.91635 0.61932 0.0
C1611 C 0.73879 0.9152 0.62218 0.0
C1612 C 0.71635 0.92967 0.60747 0.0
C1613 C 0.69575 0.90597 0.62538 0.0
C1614 C 0.70872 0.92747 0.5874 0.0
C1615 C 0.70557 0.94013 0.57455 0.0
C1616 C 0.71019 0.9551 0.58156 0.0
C1617 C 0.71695 0.95733 0.60217 0.0
C1618 C 0.72001 0.94472 0.615 0.0
H1619 H 0.69011 0.89824 0.63637 0.0
H1620 H 0.69177 0.91802 0.62825 0.0
H1621 H 0.6919 0.90243 0.60889 0.0
H1622 H 0.70606 0.91591 0.58116 0.0
H1623 H 0.70047 0.9381 0.55864 0.0
H1624 H 0.84409 0.75401 0.6532 0.0
H1625 H 0.86059 0.73949 0.62949 0.0
H1626 H 0.89824 0.74214 0.67731 0.0
H1627 H 0.88167 0.75632 0.7012 0.0
H1628 H 0.88633 0.75102 0.61442 0.0
H1629 H 0.90146 0.6976 0.65697 0.0
H1630 H 0.88558 0.70989 0.66403 0.0
H1631 H 0.9051 0.71461 0.67343 0.0
C1632 C 0.85578 0.75116 0.6588 0.0
C1633 C 0.86159 0.75618 0.67907 0.0
C1634 C 0.86518 0.74288 0.64526 0.0
C1635 C 0.88057 0.73951 0.65175 0.0
C1636 C 0.88628 0.74422 0.67218 0.0
H1637 H 0.9633 0.73266 0.58831 0.0
H1638 H 0.94208 0.73665 0.61179 0.0
C1639 C 0.87686 0.75242 0.68575 0.0
C1640 C 0.89119 0.73279 0.63638 0.0
H1641 H 0.91875 0.70498 0.63018 0.0
C1642 C 0.89318 0.74077 0.61768 0.0
C1643 C 0.9001 0.71937 0.6406 0.0
C1644 C 0.89784 0.70979 0.65975 0.0
C1645 C 0.90438 0.73618 0.60367 0.0
C1646 C 0.91387 0.72336 0.60854 0.0
C1647 C 0.91147 0.7149 0.62666 0.0
C1648 C 0.9271 0.7195 0.59572 0.0
C1649 C 0.90643 0.74536 0.58408 0.0
C1650 C 0.9257 0.70831 0.57922 0.0
C1651 C 0.93777 0.70606 0.56565 0.0
C1652 C 0.95136 0.71503 0.56841 0.0
C1653 C 0.95289 0.72576 0.58557 0.0
C1654 C 0.94085 0.72798 0.59907 0.0
H1655 H 0.89693 0.75381 0.58119 0.0
H1656 H 0.91756 0.75179 0.5859 0.0
H1657 H 0.90694 0.73747 0.56995 0.0
H1658 H 0.91509 0.70173 0.57642 0.0
H1659 H 0.93622 0.69779 0.55249 0.0
H1660 H 0.2925 0.83786 0.63228 0.0
H1661 H 0.29969 0.86201 0.61585 0.0
H1662 H 0.25866 0.88392 0.63802 0.0
H1663 H 0.25133 0.8598 0.65416 0.0
H1664 H 0.26232 0.88804 0.5956 0.0
H1665 H 0.31668 0.90261 0.64303 0.0
H1666 H 0.31609 0.88346 0.63119 0.0
H1667 H 0.30298 0.88856 0.65128 0.0
C1668 C 0.28517 0.84792 0.63392 0.0
C1669 C 0.27148 0.84703 0.64479 0.0
C1670 C 0.28931 0.86171 0.6246 0.0
C1671 C 0.27983 0.87484 0.626 0.0
C1672 C 0.2662 0.87397 0.63689 0.0
H1673 H 0.29536 0.9702 0.59386 0.0
H1674 H 0.2921 0.94564 0.61187 0.0
C1675 C 0.26205 0.86021 0.64616 0.0
C1676 C 0.28355 0.88924 0.61509 0.0
H1677 H 0.31042 0.91808 0.61328 0.0
C1678 C 0.27284 0.89461 0.59947 0.0
C1679 C 0.29723 0.89784 0.62028 0.0
C1680 C 0.30887 0.89294 0.63748 0.0
C1681 C 0.27542 0.90833 0.58886 0.0
C1682 C 0.28922 0.91678 0.59375 0.0
C1683 C 0.29992 0.91148 0.60944 0.0
C1684 C 0.29245 0.93141 0.58313 0.0
C1685 C 0.26319 0.91384 0.57282 0.0
C1686 C 0.29408 0.93148 0.56113 0.0
C1687 C 0.29591 0.94544 0.55093 0.0
C1688 C 0.29624 0.95948 0.56262 0.0
C1689 C 0.29514 0.95943 0.58467 0.0
C1690 C 0.29331 0.94546 0.59488 0.0
H1691 H 0.25187 0.90807 0.5745 0.0
H1692 H 0.26157 0.92655 0.57443 0.0
H1693 H 0.26688 0.91115 0.55659 0.0
H1694 H 0.29367 0.92075 0.55183 0.0
H1695 H 0.29676 0.94533 0.53388 0.0
H1696 H 0.1345 0.25134 0.69586 0.0
H1697 H 0.12025 0.25444 0.66168 0.0
H1698 H 0.12157 0.30403 0.67143 0.0
H1699 H 0.13637 0.30099 0.70516 0.0
H1700 H 0.0925 0.26598 0.65766 0.0
H1701 H 0.13005 0.30092 0.60982 0.0
H1702 H 0.13729 0.29148 0.63351 0.0
H1703 H 0.12788 0.31002 0.63532 0.0
C1704 C 0.1322 0.26291 0.69037 0.0
C1705 C 0.1368 0.27596 0.70298 0.0
C1706 C 0.12401 0.26467 0.67088 0.0
C1707 C 0.12006 0.27948 0.66379 0.0
C1708 C 0.1249 0.29251 0.67619 0.0
H1709 H 0.03653 0.30432 0.5944 0.0
H1710 H 0.05841 0.30049 0.6202 0.0
C1711 C 0.13324 0.29077 0.69554 0.0
C1712 C 0.10915 0.28127 0.64505 0.0
H1713 H 0.10257 0.30175 0.59997 0.0
C1714 C 0.09484 0.27362 0.64489 0.0
C1715 C 0.11223 0.29107 0.62822 0.0
C1716 C 0.12778 0.2987 0.6266 0.0
C1717 C 0.08327 0.27605 0.62893 0.0
C1718 C 0.08591 0.28675 0.61303 0.0
C1719 C 0.10047 0.29383 0.6125 0.0
C1720 C 0.07351 0.29082 0.5971 0.0
C1721 C 0.06827 0.26716 0.6293 0.0
C1722 C 0.07508 0.28731 0.57551 0.0
C1723 C 0.06268 0.28967 0.56081 0.0
C1724 C 0.04865 0.29565 0.56754 0.0
C1725 C 0.04732 0.29978 0.58896 0.0
C1726 C 0.05972 0.29749 0.60363 0.0
H1727 H 0.06974 0.25646 0.63854 0.0
H1728 H 0.05955 0.27451 0.63693 0.0
H1729 H 0.0637 0.26392 0.61299 0.0
H1730 H 0.08565 0.28219 0.57019 0.0
H1731 H 0.06383 0.28636 0.5443 0.0
H1732 H 0.75521 0.15372 0.65915 0.0
H1733 H 0.747 0.12989 0.63982 0.0
H1734 H 0.70237 0.15007 0.62439 0.0
H1735 H 0.71054 0.17401 0.64375 0.0
H1736 H 0.70212 0.11786 0.63872 0.0
H1737 H 0.74119 0.12761 0.57367 0.0
H1738 H 0.7504 0.1289 0.5999 0.0
H1739 H 0.73594 0.14283 0.59205 0.0
C1740 C 0.74358 0.15299 0.65188 0.0
C1741 C 0.73344 0.16563 0.65324 0.0
C1742 C 0.73894 0.13943 0.64076 0.0
C1743 C 0.72413 0.13828 0.6306 0.0
C1744 C 0.71384 0.15074 0.63219 0.0
H1745 H 0.70166 0.06661 0.53366 0.0
H1746 H 0.70292 0.09142 0.55368 0.0
C1747 C 0.7185 0.16437 0.64327 0.0
C1748 C 0.71965 0.12423 0.61775 0.0
H1749 H 0.72934 0.10287 0.57426 0.0
C1750 C 0.70796 0.1146 0.62453 0.0
C1751 C 0.72714 0.12017 0.5991 0.0
C1752 C 0.73928 0.13046 0.59058 0.0
C1753 C 0.70394 0.10069 0.61348 0.0
C1754 C 0.71195 0.0963 0.59535 0.0
C1755 C 0.72327 0.10621 0.58822 0.0
C1756 C 0.70926 0.08124 0.58387 0.0
C1757 C 0.69117 0.09086 0.62127 0.0
C1758 C 0.71223 0.0673 0.59425 0.0
C1759 C 0.71145 0.0532 0.58285 0.0
C1760 C 0.70784 0.05286 0.56091 0.0
C1761 C 0.70441 0.06669 0.55062 0.0
C1762 C 0.70516 0.0808 0.56201 0.0
H1763 H 0.68332 0.09778 0.63112 0.0
H1764 H 0.68423 0.08527 0.60782 0.0
H1765 H 0.69633 0.08162 0.63125 0.0
H1766 H 0.71574 0.06738 0.61099 0.0
H1767 H 0.71423 0.0426 0.59098 0.0
H1768 H 0.85616 0.2469 0.37018 0.0
H1769 H 0.8816 0.2536 0.38694 0.0
H1770 H 0.87161 0.30207 0.37932 0.0
H1771 H 0.84595 0.29549 0.36352 0.0
H1772 H 0.90627 0.26885 0.37369 0.0
H1773 H 0.88255 0.3009 0.44188 0.0
H1774 H 0.87054 0.28931 0.42332 0.0
H1775 H 0.87635 0.30848 0.41666 0.0
C1776 C 0.85947 0.25897 0.37197 0.0
C1777 C 0.84913 0.27062 0.36531 0.0
C1778 C 0.87397 0.26279 0.38152 0.0
C1779 C 0.87841 0.27835 0.38465 0.0
C1780 C 0.8683 0.29001 0.37747 0.0
H1781 H 0.97371 0.30492 0.42607 0.0
H1782 H 0.94903 0.30176 0.40503 0.0
C1783 C 0.8537 0.28621 0.36821 0.0
C1784 C 0.89346 0.2823 0.39591 0.0
H1785 H 0.90969 0.30166 0.43952 0.0
C1786 C 0.90704 0.27605 0.38807 0.0
C1787 C 0.8944 0.29154 0.41481 0.0
C1788 C 0.88018 0.29782 0.4248 0.0
C1789 C 0.92153 0.2787 0.3987 0.0
C1790 C 0.92248 0.28818 0.41736 0.0
C1791 C 0.90893 0.29453 0.42508 0.0
C1792 C 0.93725 0.2908 0.42999 0.0
C1793 C 0.93559 0.27086 0.39028 0.0
C1794 C 0.9386 0.2862 0.45114 0.0
C1795 C 0.95251 0.28824 0.46316 0.0
C1796 C 0.96527 0.29495 0.45422 0.0
C1797 C 0.96392 0.2998 0.4332 0.0
C1798 C 0.94993 0.29785 0.42119 0.0
H1799 H 0.93237 0.26111 0.37904 0.0
H1800 H 0.94228 0.27938 0.38169 0.0
H1801 H 0.94324 0.26637 0.40342 0.0
H1802 H 0.92896 0.28077 0.45825 0.0
H1803 H 0.95342 0.28438 0.47935 0.0
H1804 H 0.72763 0.86568 0.33247 0.0
H1805 H 0.7316 0.88884 0.35562 0.0
H1806 H 0.70314 0.86886 0.40157 0.0
H1807 H 0.69914 0.8458 0.37861 0.0
H1808 H 0.70695 0.90808 0.36978 0.0
H1809 H 0.74216 0.88405 0.43726 0.0
H1810 H 0.7405 0.87466 0.4113 0.0
H1811 H 0.72519 0.87294 0.42912 0.0
C1812 C 0.72247 0.86616 0.34769 0.0
C1813 C 0.71326 0.85386 0.35389 0.0
C1814 C 0.72471 0.87937 0.36084 0.0
C1815 C 0.71786 0.88043 0.38043 0.0
C1816 C 0.7088 0.86812 0.38673 0.0
H1817 H 0.70377 0.94629 0.48168 0.0
H1818 H 0.70538 0.92366 0.45753 0.0
C1819 C 0.7065 0.85497 0.37358 0.0
C1820 C 0.71915 0.89482 0.39369 0.0
H1821 H 0.73068 0.90872 0.44319 0.0
C1822 C 0.71231 0.90833 0.38574 0.0
C1823 C 0.72607 0.895 0.41451 0.0
C1824 C 0.73403 0.88093 0.42354 0.0
C1825 C 0.71163 0.9219 0.39839 0.0
C1826 C 0.71832 0.92202 0.41939 0.0
C1827 C 0.72552 0.9086 0.42713 0.0
C1828 C 0.71747 0.93576 0.43388 0.0
C1829 C 0.70317 0.93574 0.38946 0.0
C1830 C 0.72384 0.95001 0.42867 0.0
C1831 C 0.72273 0.96294 0.44231 0.0
C1832 C 0.71546 0.96172 0.46148 0.0
C1833 C 0.70933 0.94744 0.46687 0.0
C1834 C 0.71032 0.93456 0.45316 0.0
H1835 H 0.69536 0.93247 0.37546 0.0
H1836 H 0.69621 0.94152 0.40159 0.0
H1837 H 0.71172 0.9442 0.3843 0.0
H1838 H 0.72972 0.95112 0.41412 0.0
H1839 H 0.7276 0.97387 0.43798 0.0
H1840 H 0.17057 0.72739 0.35905 0.0
H1841 H 0.14943 0.71681 0.37854 0.0
H1842 H 0.11679 0.7453 0.34329 0.0
H1843 H 0.13776 0.75565 0.32356 0.0
H1844 H 0.12985 0.7329 0.40389 0.0
H1845 H 0.09593 0.70312 0.33774 0.0
H1846 H 0.11568 0.70935 0.33554 0.0
H1847 H 0.10003 0.72294 0.33245 0.0
C1848 C 0.15883 0.73114 0.3552 0.0
C1849 C 0.15573 0.74202 0.33936 0.0
C1850 C 0.1468 0.72515 0.36637 0.0
C1851 C 0.1315 0.72998 0.36198 0.0
C1852 C 0.12843 0.74103 0.34646 0.0
H1853 H 0.04287 0.72716 0.41321 0.0
H1854 H 0.06553 0.72984 0.39227 0.0
C1855 C 0.14042 0.74698 0.33527 0.0
C1856 C 0.1188 0.7243 0.37448 0.0
H1857 H 0.08274 0.70809 0.36961 0.0
C1858 C 0.11964 0.72724 0.39648 0.0
C1859 C 0.10551 0.71692 0.36474 0.0
C1860 C 0.10427 0.71275 0.34135 0.0
C1861 C 0.10723 0.72372 0.40886 0.0
C1862 C 0.09374 0.71682 0.39899 0.0
C1863 C 0.09309 0.71341 0.37711 0.0
C1864 C 0.07977 0.71408 0.41086 0.0
C1865 C 0.10838 0.72808 0.43221 0.0
C1866 C 0.08014 0.704 0.42789 0.0
C1867 C 0.06723 0.70254 0.44003 0.0
C1868 C 0.05372 0.71109 0.43524 0.0
C1869 C 0.05319 0.72063 0.41755 0.0
C1870 C 0.06609 0.72209 0.40548 0.0
H1871 H 0.11815 0.73615 0.43639 0.0
H1872 H 0.0975 0.73359 0.43708 0.0
H1873 H 0.11028 0.71749 0.44151 0.0
H1874 H 0.09051 0.6975 0.43206 0.0
H1875 H 0.06804 0.69514 0.4536 0.0
H1876 H 0.27476 0.16456 0.38698 0.0
H1877 H 0.28163 0.14441 0.41244 0.0
H1878 H 0.29478 0.11408 0.36119 0.0
H1879 H 0.28795 0.13412 0.33574 0.0
H1880 H 0.26787 0.11466 0.41139 0.0
H1881 H 0.33146 0.11083 0.40564 0.0
H1882 H 0.32034 0.12736 0.39686 0.0
H1883 H 0.32062 0.11002 0.38051 0.0
C1884 C 0.27939 0.15368 0.38123 0.0
C1885 C 0.28102 0.15098 0.35941 0.0
C1886 C 0.28327 0.1422 0.39575 0.0
C1887 C 0.28894 0.12786 0.38872 0.0
C1888 C 0.29076 0.12519 0.36699 0.0
H1889 H 0.30592 0.03738 0.43865 0.0
H1890 H 0.30414 0.06082 0.4175 0.0
C1891 C 0.28681 0.13663 0.35247 0.0
C1892 C 0.29177 0.11521 0.40379 0.0
H1893 H 0.31939 0.09018 0.42283 0.0
C1894 C 0.27916 0.10942 0.41412 0.0
C1895 C 0.30651 0.10836 0.40719 0.0
C1896 C 0.32056 0.11453 0.39713 0.0
C1897 C 0.28078 0.09662 0.42723 0.0
C1898 C 0.29547 0.08963 0.4304 0.0
C1899 C 0.30815 0.09557 0.42034 0.0
C1900 C 0.29774 0.07582 0.44358 0.0
C1901 C 0.26663 0.09034 0.43696 0.0
C1902 C 0.2951 0.0766 0.46531 0.0
C1903 C 0.29613 0.06328 0.47731 0.0
C1904 C 0.29993 0.04903 0.46778 0.0
C1905 C 0.30306 0.04831 0.44625 0.0
C1906 C 0.30204 0.06165 0.43423 0.0
H1907 H 0.25575 0.09475 0.42913 0.0
H1908 H 0.26643 0.07749 0.43592 0.0
H1909 H 0.26688 0.09395 0.45397 0.0
H1910 H 0.292 0.08747 0.47288 0.0
H1911 H 0.29366 0.06399 0.49393 0.0
H1912 H 0.66646 0.79203 0.83307 0.0
H1913 H 0.6471 0.8033 0.85523 0.0
H1914 H 0.64991 0.76346 0.89484 0.0
H1915 H 0.67007 0.75257 0.87371 0.0
H1916 H 0.61965 0.79348 0.86024 0.0
H1917 H 0.64973 0.79629 0.93954 0.0
H1918 H 0.65991 0.7924 0.91584 0.0
H1919 H 0.65053 0.77694 0.92881 0.0
C1920 C 0.66312 0.78564 0.84657 0.0
C1921 C 0.66953 0.77104 0.85111 0.0
C1922 C 0.65202 0.79219 0.85929 0.0
C1923 C 0.64709 0.78432 0.87683 0.0
C1924 C 0.65375 0.76997 0.88172 0.0
H1925 H 0.55844 0.78074 0.9251 0.0
H1926 H 0.58158 0.77978 0.90493 0.0
C1927 C 0.66507 0.76358 0.8693 0.0
C1928 C 0.63405 0.7904 0.88884 0.0
H1929 H 0.62161 0.79521 0.93889 0.0
C1930 C 0.6202 0.79414 0.87744 0.0
C1931 C 0.63478 0.79165 0.91128 0.0
C1932 C 0.64962 0.78927 0.92451 0.0
C1933 C 0.60684 0.79812 0.88785 0.0
C1934 C 0.6072 0.79785 0.91024 0.0
C1935 C 0.62127 0.79512 0.92169 0.0
C1936 C 0.59291 0.79912 0.92196 0.0
C1937 C 0.59244 0.80238 0.87471 0.0
C1938 C 0.59172 0.8101 0.93859 0.0
C1939 C 0.57856 0.8105 0.95045 0.0
C1940 C 0.56644 0.79984 0.94595 0.0
C1941 C 0.56763 0.789 0.92912 0.0
C1942 C 0.58077 0.78858 0.91736 0.0
H1943 H 0.5954 0.80747 0.8595 0.0
H1944 H 0.58547 0.7918 0.87084 0.0
H1945 H 0.58523 0.81079 0.88336 0.0
H1946 H 0.60103 0.81824 0.94253 0.0
H1947 H 0.57807 0.81886 0.96349 0.0
H1948 H 0.21294 0.66186 0.81299 0.0
H1949 H 0.20544 0.6429 0.84815 0.0
H1950 H 0.26043 0.6253 0.85804 0.0
H1951 H 0.26949 0.64393 0.82353 0.0
H1952 H 0.20969 0.61222 0.85518 0.0
H1953 H 0.24984 0.63627 0.91892 0.0
H1954 H 0.2458 0.64598 0.89433 0.0
H1955 H 0.25991 0.63067 0.89593 0.0
C1956 C 0.22161 0.65472 0.82093 0.0
C1957 C 0.24268 0.65709 0.81716 0.0
C1958 C 0.21724 0.64355 0.84349 0.0
C1959 C 0.23232 0.63314 0.85804 0.0
C1960 C 0.25197 0.63252 0.84985 0.0
H1961 H 0.23367 0.55068 0.92683 0.0
H1962 H 0.23565 0.57199 0.90243 0.0
C1963 C 0.25753 0.64328 0.82755 0.0
C1964 C 0.22805 0.62285 0.87502 0.0
H1965 H 0.23989 0.61064 0.92429 0.0
C1966 C 0.2161 0.61208 0.87045 0.0
C1967 C 0.23638 0.62269 0.89494 0.0
C1968 C 0.24859 0.63464 0.90139 0.0
C1969 C 0.21287 0.60057 0.88483 0.0
C1970 C 0.22176 0.59992 0.90422 0.0
C1971 C 0.2332 0.61112 0.90926 0.0
C1972 C 0.22005 0.58703 0.91879 0.0
C1973 C 0.20037 0.5888 0.87901 0.0
C1974 C 0.21053 0.58849 0.93595 0.0
C1975 C 0.20935 0.57631 0.94994 0.0
C1976 C 0.21778 0.56257 0.94705 0.0
C1977 C 0.22718 0.56117 0.92965 0.0
C1978 C 0.22828 0.57329 0.91565 0.0
H1979 H 0.19359 0.59165 0.86416 0.0
H1980 H 0.2057 0.57723 0.87686 0.0
H1981 H 0.19237 0.58805 0.89207 0.0
H1982 H 0.20413 0.59906 0.93859 0.0
H1983 H 0.20214 0.5778 0.96329 0.0
H1984 H 0.35898 0.24775 0.8416 0.0
H1985 H 0.38152 0.23569 0.85929 0.0
H1986 H 0.35807 0.23539 0.91771 0.0
H1987 H 0.33522 0.24697 0.89982 0.0
H1988 H 0.3984 0.24897 0.89149 0.0
H1989 H 0.37667 0.19252 0.91694 0.0
H1990 H 0.36611 0.20405 0.8976 0.0
H1991 H 0.36529 0.20863 0.92548 0.0
C1992 C 0.35844 0.24469 0.85804 0.0
C1993 C 0.3452 0.24797 0.86923 0.0
C1994 C 0.37135 0.23786 0.86816 0.0
C1995 C 0.37138 0.23437 0.88971 0.0
C1996 C 0.35814 0.23753 0.90091 0.0
H1997 H 0.44298 0.21817 0.9864 0.0
H1998 H 0.41829 0.22139 0.96577 0.0
C1999 C 0.34514 0.24423 0.89073 0.0
C2000 C 0.38582 0.22904 0.90091 0.0
H2001 H 0.40118 0.20098 0.93275 0.0
C2002 C 0.39904 0.23837 0.90028 0.0
C2003 C 0.3866 0.21526 0.91249 0.0
C2004 C 0.37295 0.20446 0.91304 0.0
C2005 C 0.41295 0.23449 0.91125 0.0
C2006 C 0.41368 0.22083 0.923 0.0
C2007 C 0.40053 0.21141 0.92361 0.0
C2008 C 0.42794 0.21664 0.93543 0.0
C2009 C 0.42665 0.24526 0.91071 0.0
C2010 C 0.44134 0.21251 0.92514 0.0
C2011 C 0.45537 0.21068 0.93687 0.0
C2012 C 0.45606 0.2129 0.95896 0.0
C2013 C 0.44255 0.21635 0.96934 0.0
C2014 C 0.42852 0.21814 0.95762 0.0
H2015 H 0.42336 0.25664 0.90409 0.0
H2016 H 0.43216 0.24721 0.92689 0.0
H2017 H 0.43541 0.23992 0.90064 0.0
H2018 H 0.44104 0.21125 0.90801 0.0
H2019 H 0.46576 0.20809 0.92869 0.0
H2020 H 0.76918 0.3341 0.87442 0.0
H2021 H 0.7803 0.35921 0.90284 0.0
H2022 H 0.75146 0.39816 0.85867 0.0
H2023 H 0.73963 0.37429 0.82922 0.0
H2024 H 0.79743 0.38782 0.89464 0.0
H2025 H 0.74039 0.40704 0.9195 0.0
H2026 H 0.74269 0.38978 0.90332 0.0
H2027 H 0.74118 0.40846 0.89137 0.0
C2028 C 0.76542 0.34588 0.87203 0.0
C2029 C 0.7554 0.35199 0.84666 0.0
C2030 C 0.77287 0.36164 0.88899 0.0
C2031 C 0.76785 0.38142 0.88318 0.0
C2032 C 0.75455 0.38622 0.86125 0.0
H2033 H 0.78775 0.47212 0.93601 0.0
H2034 H 0.78317 0.44922 0.91255 0.0
C2035 C 0.74651 0.37138 0.8434 0.0
C2036 C 0.77357 0.39399 0.89785 0.0
H2037 H 0.76138 0.42506 0.92689 0.0
C2038 C 0.78958 0.39591 0.90186 0.0
C2039 C 0.76327 0.40436 0.90744 0.0
C2040 C 0.74594 0.40218 0.90535 0.0
C2041 C 0.79557 0.40845 0.91448 0.0
C2042 C 0.78525 0.41916 0.9233 0.0
C2043 C 0.76926 0.41695 0.91977 0.0
C2044 C 0.7906 0.43285 0.9363 0.0
C2045 C 0.81284 0.41047 0.9179 0.0
C2046 C 0.79657 0.43117 0.95725 0.0
C2047 C 0.79909 0.44422 0.97064 0.0
C2048 C 0.79568 0.45904 0.9632 0.0
C2049 C 0.7905 0.46076 0.94195 0.0
C2050 C 0.78789 0.44773 0.92862 0.0
H2051 H 0.8193 0.40225 0.90788 0.0
H2052 H 0.81619 0.42248 0.91432 0.0
H2053 H 0.81635 0.40855 0.9348 0.0
H2054 H 0.79852 0.41977 0.96353 0.0
H2055 H 0.803 0.44271 0.98706 0.0
H2056 H 0.67453 0.21107 0.12748 0.0
H2057 H 0.65111 0.21632 0.10504 0.0
H2058 H 0.62329 0.21091 0.15883 0.0
H2059 H 0.64659 0.20585 0.18127 0.0
H2060 H 0.6265 0.19613 0.09715 0.0
H2061 H 0.60635 0.25088 0.13382 0.0
H2062 H 0.6258 0.24372 0.13851 0.0
H2063 H 0.61023 0.23612 0.15279 0.0
C2064 C 0.66343 0.21133 0.13455 0.0
C2065 C 0.66238 0.20832 0.15619 0.0
C2066 C 0.65008 0.21428 0.12174 0.0
C2067 C 0.6355 0.21429 0.13037 0.0
C2068 C 0.63446 0.21138 0.15198 0.0
H2069 H 0.53939 0.21172 0.08955 0.0
H2070 H 0.565 0.21218 0.10859 0.0
C2071 C 0.64776 0.20842 0.16476 0.0
C2072 C 0.62122 0.21609 0.11658 0.0
H2073 H 0.58764 0.23668 0.1115 0.0
C2074 C 0.61809 0.20513 0.10006 0.0
C2075 C 0.61029 0.22784 0.12044 0.0
C2076 C 0.61338 0.2404 0.13722 0.0
C2077 C 0.604 0.20519 0.08789 0.0
C2078 C 0.59288 0.21664 0.09222 0.0
C2079 C 0.59618 0.22786 0.10833 0.0
C2080 C 0.5775 0.21679 0.08073 0.0
C2081 C 0.60088 0.19264 0.07107 0.0
C2082 C 0.5761 0.21944 0.05888 0.0
C2083 C 0.56154 0.21915 0.04808 0.0
C2084 C 0.54825 0.21625 0.05902 0.0
C2085 C 0.54959 0.21388 0.0809 0.0
C2086 C 0.56413 0.21418 0.09171 0.0
H2087 H 0.60927 0.18297 0.07264 0.0
H2088 H 0.58899 0.18793 0.07187 0.0
H2089 H 0.6018 0.19759 0.05518 0.0
H2090 H 0.58625 0.22171 0.05021 0.0
H2091 H 0.56064 0.22111 0.03119 0.0
H2092 H 0.771 0.66535 0.13408 0.0
H2093 H 0.77931 0.64096 0.1178 0.0
H2094 H 0.76206 0.616 0.16971 0.0
H2095 H 0.75327 0.64034 0.18573 0.0
H2096 H 0.79991 0.61924 0.13257 0.0
H2097 H 0.74122 0.59358 0.11869 0.0
H2098 H 0.74424 0.61368 0.12622 0.0
H2099 H 0.74617 0.59905 0.14586 0.0
C2100 C 0.76907 0.65466 0.14207 0.0
C2101 C 0.76176 0.65479 0.16137 0.0
C2102 C 0.77381 0.64075 0.13276 0.0
C2103 C 0.77122 0.62666 0.14246 0.0
C2104 C 0.76398 0.62672 0.16179 0.0
H2105 H 0.78892 0.53192 0.0989 0.0
H2106 H 0.78474 0.55491 0.12168 0.0
C2107 C 0.75911 0.64064 0.17104 0.0
C2108 C 0.77608 0.61197 0.13215 0.0
H2109 H 0.76235 0.57772 0.11034 0.0
C2110 C 0.7917 0.61014 0.12775 0.0
C2111 C 0.76534 0.60013 0.12586 0.0
C2112 C 0.74828 0.60171 0.1292 0.0
C2113 C 0.79688 0.59679 0.11717 0.0
C2114 C 0.78612 0.58505 0.11072 0.0
C2115 C 0.77057 0.58673 0.11545 0.0
C2116 C 0.79051 0.57126 0.09804 0.0
C2117 C 0.81381 0.59533 0.113 0.0
C2118 C 0.79532 0.57289 0.07736 0.0
C2119 C 0.79766 0.55982 0.06442 0.0
C2120 C 0.79519 0.54499 0.07199 0.0
C2121 C 0.79095 0.54332 0.0929 0.0
C2122 C 0.78854 0.55638 0.10581 0.0
H2123 H 0.82108 0.60324 0.12359 0.0
H2124 H 0.81788 0.58328 0.11519 0.0
H2125 H 0.81551 0.5984 0.09636 0.0
H2126 H 0.79662 0.58427 0.07094 0.0
H2127 H 0.80079 0.56128 0.04824 0.0
H2128 H 0.36149 0.79817 0.18066 0.0
H2129 H 0.38344 0.79643 0.15798 0.0
H2130 H 0.352 0.79226 0.1026 0.0
H2131 H 0.32993 0.7938 0.1253 0.0
H2132 H 0.37804 0.77161 0.10249 0.0
H2133 H 0.39516 0.83267 0.12081 0.0
H2134 H 0.3933 0.82113 0.14373 0.0
H2135 H 0.37651 0.82504 0.12665 0.0
C2136 C 0.35927 0.79667 0.16367 0.0
C2137 C 0.34403 0.79601 0.15473 0.0
C2138 C 0.37179 0.79578 0.15075 0.0
C2139 C 0.36931 0.79443 0.12864 0.0
C2140 C 0.35413 0.79332 0.11965 0.0
H2141 H 0.43771 0.81412 0.03762 0.0
H2142 H 0.41432 0.81318 0.0575 0.0
C2143 C 0.34157 0.79418 0.13259 0.0
C2144 C 0.38258 0.79472 0.11492 0.0
H2145 H 0.41266 0.81734 0.10168 0.0
C2146 C 0.38559 0.78161 0.10221 0.0
C2147 C 0.39224 0.80788 0.11441 0.0
C2148 C 0.3891 0.82255 0.12697 0.0
C2149 C 0.39831 0.78119 0.08938 0.0
C2150 C 0.40828 0.79415 0.08948 0.0
C2151 C 0.40504 0.80738 0.10179 0.0
C2152 C 0.42223 0.79427 0.07701 0.0
C2153 C 0.4009 0.76695 0.07568 0.0
C2154 C 0.43447 0.78405 0.08158 0.0
C2155 C 0.4479 0.78465 0.07039 0.0
C2156 C 0.44937 0.79552 0.05448 0.0
C2157 C 0.43705 0.80575 0.04997 0.0
C2158 C 0.42364 0.80516 0.06119 0.0
H2159 H 0.3903 0.7597 0.07345 0.0
H2160 H 0.40464 0.77016 0.05986 0.0
H2161 H 0.41018 0.75985 0.08339 0.0
H2162 H 0.43374 0.7758 0.09406 0.0
H2163 H 0.45726 0.77678 0.0745 0.0
H2164 H 0.25886 0.36711 0.20145 0.0
H2165 H 0.24999 0.39074 0.18389 0.0
H2166 H 0.22989 0.36315 0.13136 0.0
H2167 H 0.23851 0.33958 0.1489 0.0
H2168 H 0.25814 0.40019 0.14415 0.0
H2169 H 0.19456 0.39258 0.14494 0.0
H2170 H 0.20802 0.38187 0.1618 0.0
H2171 H 0.20446 0.37609 0.13438 0.0
C2172 C 0.25229 0.36611 0.18635 0.0
C2173 C 0.24902 0.35149 0.17678 0.0
C2174 C 0.24728 0.37959 0.17632 0.0
C2175 C 0.23896 0.37867 0.15656 0.0
C2176 C 0.23587 0.36411 0.14689 0.0
H2177 H 0.20778 0.44042 0.05842 0.0
H2178 H 0.21233 0.41863 0.08197 0.0
C2179 C 0.24085 0.35066 0.15688 0.0
C2180 C 0.23445 0.3929 0.14529 0.0
H2181 H 0.20351 0.41186 0.12226 0.0
C2182 C 0.24619 0.40287 0.13958 0.0
C2183 C 0.21885 0.39626 0.13922 0.0
C2184 C 0.20572 0.38622 0.14555 0.0
C2185 C 0.24282 0.41586 0.12735 0.0
C2186 C 0.22722 0.41917 0.12112 0.0
C2187 C 0.21544 0.40931 0.12709 0.0
C2188 C 0.22302 0.43256 0.10784 0.0
C2189 C 0.25606 0.42557 0.12055 0.0
C2190 C 0.227 0.44766 0.11488 0.0
C2191 C 0.22452 0.46006 0.10143 0.0
C2192 C 0.21777 0.45761 0.08082 0.0
C2193 C 0.21294 0.44263 0.07425 0.0
C2194 C 0.21558 0.43018 0.08766 0.0
H2195 H 0.26724 0.41927 0.12193 0.0
H2196 H 0.25398 0.42918 0.1039 0.0
H2197 H 0.25718 0.43615 0.1309 0.0
H2198 H 0.23236 0.4498 0.13061 0.0
H2199 H 0.22812 0.47154 0.10699 0.0
H2200 H 0.37045 0.20617 0.2091 0.0
H2201 H 0.38343 0.20407 0.17572 0.0
H2202 H 0.38907 0.25365 0.17627 0.0
H2203 H 0.37646 0.25578 0.20996 0.0
H2204 H 0.37859 0.21706 0.13507 0.0
H2205 H 0.43344 0.23713 0.17743 0.0
H2206 H 0.41672 0.23169 0.19129 0.0
H2207 H 0.41741 0.25018 0.17909 0.0
C2208 C 0.3742 0.21664 0.20187 0.0
C2209 C 0.37234 0.23114 0.21203 0.0
C2210 C 0.38158 0.21543 0.18283 0.0
C2211 C 0.38734 0.22869 0.17369 0.0
C2212 C 0.38486 0.24326 0.18324 0.0
H2213 H 0.43518 0.23347 0.05621 0.0
H2214 H 0.41588 0.23622 0.08296 0.0
C2215 C 0.37757 0.24448 0.20238 0.0
C2216 C 0.3971 0.22703 0.15529 0.0
H2217 H 0.43417 0.2316 0.1408 0.0
C2218 C 0.39072 0.22032 0.13623 0.0
C2219 C 0.41297 0.23112 0.15701 0.0
C2220 C 0.42062 0.23781 0.17733 0.0
C2221 C 0.39984 0.21759 0.11882 0.0
C2222 C 0.41566 0.2217 0.12062 0.0
C2223 C 0.422 0.22849 0.13957 0.0
C2224 C 0.42608 0.21878 0.10325 0.0
C2225 C 0.39268 0.20999 0.09881 0.0
C2226 C 0.4381 0.208 0.10582 0.0
C2227 C 0.44915 0.20645 0.09066 0.0
C2228 C 0.44845 0.21578 0.07278 0.0
C2229 C 0.4361 0.22624 0.06995 0.0
C2230 C 0.425 0.22773 0.08508 0.0
H2231 H 0.38081 0.20565 0.10094 0.0
H2232 H 0.39208 0.21848 0.08595 0.0
H2233 H 0.39997 0.20018 0.09361 0.0
H2234 H 0.43915 0.20109 0.11986 0.0
H2235 H 0.45859 0.1984 0.09338 0.0
H2236 H 0.75622 0.33956 0.16112 0.0
H2237 H 0.76268 0.36652 0.15455 0.0
H2238 H 0.80252 0.35138 0.12162 0.0
H2239 H 0.79644 0.32444 0.12889 0.0
H2240 H 0.8084 0.37795 0.14586 0.0
H2241 H 0.75375 0.38332 0.09596 0.0
H2242 H 0.75102 0.37821 0.12282 0.0
H2243 H 0.76069 0.365 0.10552 0.0
C2244 C 0.76645 0.34202 0.1527 0.0
C2245 C 0.77568 0.32993 0.14516 0.0
C2246 C 0.77009 0.35739 0.14888 0.0
C2247 C 0.78285 0.3609 0.13713 0.0
C2248 C 0.79255 0.34891 0.13057 0.0
H2249 H 0.81579 0.43604 0.06704 0.0
H2250 H 0.8136 0.41264 0.0875 0.0
C2251 C 0.78902 0.33355 0.13462 0.0
C2252 C 0.78555 0.3769 0.13043 0.0
H2253 H 0.76935 0.40557 0.10055 0.0
C2254 C 0.79985 0.38404 0.13604 0.0
C2255 C 0.77439 0.38477 0.11749 0.0
C2256 C 0.75916 0.37741 0.1099 0.0
C2257 C 0.80329 0.39885 0.12901 0.0
C2258 C 0.79216 0.4066 0.11597 0.0
C2259 C 0.77779 0.3996 0.11071 0.0
C2260 C 0.79536 0.42159 0.1064 0.0
C2261 C 0.81875 0.40609 0.13551 0.0
C2262 C 0.78595 0.4344 0.11044 0.0
C2263 C 0.78717 0.44778 0.09879 0.0
C2264 C 0.79774 0.44851 0.08275 0.0
C2265 C 0.80766 0.43591 0.07945 0.0
C2266 C 0.80645 0.42253 0.09115 0.0
H2267 H 0.8243 0.40056 0.14966 0.0
H2268 H 0.82656 0.40464 0.12228 0.0
H2269 H 0.81752 0.41868 0.13901 0.0
H2270 H 0.77729 0.43385 0.12211 0.0
H2271 H 0.77954 0.45739 0.10193 0.0
H2272 H 0.66075 0.75599 0.1451 0.0
H2273 H 0.64351 0.7711 0.12153 0.0
H2274 H 0.60921 0.77186 0.16843 0.0
H2275 H 0.62646 0.75695 0.1921 0.0
H2276 H 0.61543 0.76038 0.1061 0.0
H2277 H 0.60785 0.81632 0.14899 0.0
H2278 H 0.62355 0.80325 0.15569 0.0
H2279 H 0.60464 0.80003 0.16518 0.0
C2280 C 0.64969 0.75974 0.15056 0.0
C2281 C 0.64501 0.75548 0.17051 0.0
C2282 C 0.63987 0.76835 0.1371 0.0
C2283 C 0.62519 0.77283 0.14337 0.0
C2284 C 0.62065 0.76891 0.1635 0.0
H2285 H 0.53688 0.79543 0.08765 0.0
H2286 H 0.56014 0.79158 0.11111 0.0
C2287 C 0.63047 0.76032 0.17696 0.0
C2288 C 0.61388 0.7798 0.12797 0.0
H2289 H 0.58824 0.80955 0.12162 0.0
C2290 C 0.6097 0.77128 0.10927 0.0
C2291 C 0.60638 0.79399 0.13222 0.0
C2292 C 0.61094 0.80401 0.15152 0.0
C2293 C 0.59768 0.77616 0.09522 0.0
C2294 C 0.58982 0.79008 0.09984 0.0
C2295 C 0.59431 0.79889 0.11817 0.0
C2296 C 0.57615 0.79492 0.08655 0.0
C2297 C 0.59298 0.76598 0.07609 0.0
C2298 C 0.57755 0.79861 0.06525 0.0
C2299 C 0.56433 0.80075 0.05192 0.0
C2300 C 0.54961 0.79935 0.05983 0.0
C2301 C 0.5482 0.7966 0.08139 0.0
C2302 C 0.56143 0.79442 0.09471 0.0
H2303 H 0.59826 0.75429 0.07702 0.0
H2304 H 0.5802 0.76466 0.0744 0.0
H2305 H 0.5968 0.77143 0.06158 0.0
H2306 H 0.58884 0.79919 0.05875 0.0
H2307 H 0.56554 0.80286 0.03527 0.0
H2308 H 0.25192 0.6675 0.14228 0.0
H2309 H 0.24663 0.64011 0.13374 0.0
H2310 H 0.19949 0.65128 0.11415 0.0
H2311 H 0.20467 0.67866 0.12293 0.0
H2312 H 0.20356 0.62248 0.13719 0.0
H2313 H 0.24146 0.62797 0.06956 0.0
H2314 H 0.2502 0.63329 0.09523 0.0
H2315 H 0.23449 0.64456 0.08408 0.0
C2316 C 0.24036 0.66405 0.13656 0.0
C2317 C 0.2287 0.67515 0.13322 0.0
C2318 C 0.23736 0.64844 0.13168 0.0
C2319 C 0.22272 0.64377 0.12314 0.0
C2320 C 0.21085 0.6547 0.12079 0.0
H2321 H 0.20219 0.5667 0.03795 0.0
H2322 H 0.20267 0.59179 0.05706 0.0
C2323 C 0.21382 0.6703 0.12574 0.0
C2324 C 0.22025 0.62786 0.1145 0.0
H2325 H 0.23074 0.60344 0.07454 0.0
C2326 C 0.20951 0.61824 0.12355 0.0
C2327 C 0.22791 0.62253 0.09652 0.0
C2328 C 0.23907 0.63263 0.08561 0.0
C2329 C 0.20627 0.60331 0.11505 0.0
C2330 C 0.21405 0.59798 0.09718 0.0
C2331 C 0.2248 0.60761 0.08824 0.0
C2332 C 0.21118 0.58257 0.08703 0.0
C2333 C 0.19436 0.59349 0.12487 0.0
C2334 C 0.21545 0.56909 0.09775 0.0
C2335 C 0.21509 0.55477 0.08686 0.0
C2336 C 0.21061 0.55388 0.06515 0.0
C2337 C 0.20565 0.56723 0.05472 0.0
C2338 C 0.20594 0.58149 0.06559 0.0
H2339 H 0.18709 0.60044 0.13551 0.0
H2340 H 0.18673 0.58758 0.11241 0.0
H2341 H 0.20033 0.58445 0.1344 0.0
H2342 H 0.21978 0.56973 0.11418 0.0
H2343 H 0.21898 0.54453 0.09507 0.0
H2344 H 0.36426 0.74905 0.84405 0.0
H2345 H 0.3896 0.75605 0.86105 0.0
H2346 H 0.37157 0.80029 0.88078 0.0
H2347 H 0.34616 0.79335 0.86397 0.0
H2348 H 0.40416 0.79815 0.86048 0.0
H2349 H 0.39413 0.76166 0.92971 0.0
H2350 H 0.38962 0.75348 0.90352 0.0
H2351 H 0.37839 0.76932 0.91316 0.0
C2352 C 0.36578 0.76035 0.85174 0.0
C2353 C 0.35333 0.77075 0.85242 0.0
C2354 C 0.38021 0.76431 0.86143 0.0
C2355 C 0.38237 0.77868 0.87201 0.0
C2356 C 0.37008 0.7892 0.87247 0.0
H2357 H 0.45303 0.80439 0.96849 0.0
H2358 H 0.42892 0.80151 0.94634 0.0
C2359 C 0.35563 0.78523 0.86288 0.0
C2360 C 0.39717 0.78233 0.88382 0.0
H2361 H 0.41827 0.77405 0.92927 0.0
C2362 C 0.40731 0.79293 0.87553 0.0
C2363 C 0.40105 0.77555 0.90347 0.0
C2364 C 0.39025 0.76441 0.91318 0.0
C2365 C 0.42143 0.79688 0.88645 0.0
C2366 C 0.42543 0.78991 0.90601 0.0
C2367 C 0.41518 0.77937 0.91428 0.0
C2368 C 0.44014 0.79332 0.91838 0.0
C2369 C 0.43178 0.80864 0.87716 0.0
C2370 C 0.45442 0.7899 0.90989 0.0
C2371 C 0.46816 0.7917 0.92247 0.0
C2372 C 0.46773 0.79669 0.94375 0.0
C2373 C 0.45353 0.80051 0.95208 0.0
C2374 C 0.43982 0.79884 0.93948 0.0
H2375 H 0.42529 0.81585 0.86539 0.0
H2376 H 0.43731 0.81636 0.88976 0.0
H2377 H 0.44106 0.80252 0.8689 0.0
H2378 H 0.45491 0.78533 0.8938 0.0
H2379 H 0.47907 0.78871 0.91584 0.0
H2380 H 0.19431 0.35525 0.86609 0.0
H2381 H 0.19663 0.37699 0.89186 0.0
H2382 H 0.24291 0.38591 0.8735 0.0
H2383 H 0.24064 0.36429 0.84751 0.0
H2384 H 0.23566 0.38599 0.92212 0.0
H2385 H 0.19996 0.42354 0.86837 0.0
H2386 H 0.19303 0.40423 0.87227 0.0
H2387 H 0.21039 0.40695 0.85865 0.0
C2388 C 0.20508 0.36168 0.86784 0.0
C2389 C 0.21739 0.35791 0.85509 0.0
C2390 C 0.20636 0.37407 0.88249 0.0
C2391 C 0.21995 0.38294 0.88454 0.0
C2392 C 0.2324 0.37907 0.87219 0.0
H2393 H 0.23179 0.47555 0.93868 0.0
H2394 H 0.23286 0.45169 0.91676 0.0
C2395 C 0.23109 0.36672 0.85743 0.0
C2396 C 0.22075 0.39688 0.89854 0.0
H2397 H 0.20765 0.43398 0.90219 0.0
C2398 C 0.22958 0.39652 0.91784 0.0
C2399 C 0.21289 0.41054 0.89269 0.0
C2400 C 0.20357 0.4115 0.87182 0.0
C2401 C 0.23061 0.40955 0.93165 0.0
C2402 C 0.2225 0.42316 0.92595 0.0
C2403 C 0.21382 0.42351 0.90651 0.0
C2404 C 0.22281 0.43724 0.93983 0.0
C2405 C 0.24052 0.40872 0.95203 0.0
C2406 C 0.21678 0.43698 0.95997 0.0
C2407 C 0.21625 0.45054 0.97246 0.0
C2408 C 0.22166 0.46452 0.96489 0.0
C2409 C 0.2277 0.46481 0.94479 0.0
C2410 C 0.22828 0.45124 0.93234 0.0
H2411 H 0.24897 0.39907 0.95148 0.0
H2412 H 0.24692 0.41973 0.95548 0.0
H2413 H 0.23299 0.40673 0.96532 0.0
H2414 H 0.21217 0.42637 0.96582 0.0
H2415 H 0.21142 0.45021 0.98788 0.0
H2416 H 0.67238 0.23096 0.8706 0.0
H2417 H 0.65123 0.2201 0.88978 0.0
H2418 H 0.61887 0.2503 0.85698 0.0
H2419 H 0.63983 0.26089 0.83747 0.0
H2420 H 0.63208 0.23528 0.91641 0.0
H2421 H 0.59731 0.20871 0.84855 0.0
H2422 H 0.61712 0.21479 0.84657 0.0
H2423 H 0.60166 0.22868 0.84468 0.0
C2424 C 0.6607 0.23504 0.86721 0.0
C2425 C 0.65765 0.24643 0.85205 0.0
C2426 C 0.64866 0.22889 0.87822 0.0
C2427 C 0.63343 0.23409 0.87436 0.0
C2428 C 0.63045 0.24573 0.85966 0.0
H2429 H 0.54533 0.23205 0.92609 0.0
H2430 H 0.56805 0.23469 0.90527 0.0
C2431 C 0.64243 0.25182 0.84861 0.0
C2432 C 0.62071 0.22809 0.88653 0.0
H2433 H 0.58427 0.21286 0.88077 0.0
C2434 C 0.62173 0.23013 0.90869 0.0
C2435 C 0.60724 0.22135 0.87638 0.0
C2436 C 0.60581 0.21811 0.85275 0.0
C2437 C 0.60928 0.22637 0.92088 0.0
C2438 C 0.59559 0.22019 0.91062 0.0
C2439 C 0.59478 0.21763 0.88856 0.0
C2440 C 0.58155 0.2175 0.92231 0.0
C2441 C 0.61061 0.22974 0.9445 0.0
C2442 C 0.58149 0.20666 0.93841 0.0
C2443 C 0.56854 0.2052 0.95047 0.0
C2444 C 0.55545 0.21455 0.94653 0.0
C2445 C 0.55534 0.22489 0.92975 0.0
C2446 C 0.56826 0.22634 0.91775 0.0
H2447 H 0.62074 0.23722 0.94927 0.0
H2448 H 0.59999 0.23551 0.9498 0.0
H2449 H 0.61199 0.2187 0.95293 0.0
H2450 H 0.59156 0.19955 0.94193 0.0
H2451 H 0.569 0.19717 0.96333 0.0
H2452 H 0.81591 0.66321 0.85991 0.0
H2453 H 0.81342 0.64288 0.88575 0.0
H2454 H 0.77053 0.62793 0.85343 0.0
H2455 H 0.77295 0.64825 0.82748 0.0
H2456 H 0.78691 0.63573 0.91271 0.0
H2457 H 0.80088 0.58965 0.85347 0.0
H2458 H 0.80555 0.60977 0.85016 0.0
H2459 H 0.78596 0.60315 0.84558 0.0
C2460 C 0.80583 0.65574 0.85853 0.0
C2461 C 0.79455 0.65737 0.84182 0.0
C2462 C 0.80443 0.64416 0.87326 0.0
C2463 C 0.79184 0.63392 0.87136 0.0
C2464 C 0.78036 0.63572 0.85503 0.0
H2465 H 0.77382 0.54836 0.93407 0.0
H2466 H 0.77246 0.57087 0.9115 0.0
C2467 C 0.78172 0.64733 0.84032 0.0
C2468 C 0.79119 0.62085 0.88581 0.0
H2469 H 0.79513 0.58165 0.88742 0.0
C2470 C 0.78866 0.62389 0.90725 0.0
C2471 C 0.79351 0.60547 0.87852 0.0
C2472 C 0.79674 0.60171 0.85572 0.0
C2473 C 0.78823 0.61184 0.92165 0.0
C2474 C 0.79075 0.59645 0.91441 0.0
C2475 C 0.79318 0.59345 0.89291 0.0
C2476 C 0.79113 0.58325 0.92883 0.0
C2477 C 0.78485 0.61567 0.94437 0.0
C2478 C 0.80216 0.5827 0.94596 0.0
C2479 C 0.80289 0.56991 0.959 0.0
C2480 C 0.79269 0.55736 0.95502 0.0
C2481 C 0.7817 0.55793 0.93776 0.0
C2482 C 0.78095 0.57074 0.92478 0.0
H2483 H 0.77892 0.62701 0.94591 0.0
H2484 H 0.77752 0.60661 0.95087 0.0
H2485 H 0.7959 0.61635 0.95417 0.0
H2486 H 0.81034 0.59209 0.9491 0.0
H2487 H 0.81139 0.56991 0.97228 0.0
loop_
_geom_bond_atom_site_label_1
_geom_bond_atom_site_label_2
_geom_bond_distance
_geom_bond_site_symmetry_2
_ccdc_geom_bond_type
C0 C1 1.560 . S
C0 H61 0.959 . S
C0 H62 0.959 . S
C0 H63 0.960 . S
C1 C0 1.560 . S
C1 O56 1.426 . S
C1 H60 0.980 . S
C2 C3 1.407 . S
C2 C7 1.418 . S
C2 O56 1.334 . S
C3 C2 1.407 . S
C3 C4 1.360 . S
C3 H64 0.929 . S
C4 C3 1.360 . S
C4 C5 1.401 . S
C4 C8 1.527 . S
C5 C4 1.401 . S
C5 C6 1.405 . S
C5 C38 1.587 . S
C6 C5 1.405 . S
C6 C7 1.332 . S
C6 C9 1.496 . S
C7 C2 1.418 . S
C7 C6 1.332 . S
C7 H65 0.929 . S
C8 C4 1.527 . S
C8 H66 0.959 . S
C8 H67 0.961 . S
C8 H68 0.961 . S
C9 C6 1.496 . S
C9 H69 0.960 . S
C9 H70 0.960 . S
C9 H71 0.961 . S
C10 C11 1.517 . S
C10 H73 0.961 . S
C10 H74 0.960 . S
C10 H75 0.959 . S
C11 C10 1.517 . S
C11 O59 1.468 . S
C11 H72 0.980 . S
C12 C13 1.349 . S
C12 C17 1.367 . S
C12 O59 1.408 . S
C13 C12 1.349 . S
C13 C14 1.407 . S
C13 H76 0.930 . S
C14 C13 1.407 . S
C14 C15 1.449 . S
C14 C18 1.535 . S
C15 C14 1.449 . S
C15 C16 1.384 . S
C15 C40 1.553 . S
C16 C15 1.384 . S
C16 C17 1.364 . S
C16 C19 1.450 . S
C17 C12 1.367 . S
C17 C16 1.364 . S
C17 H77 0.931 . S
C18 C14 1.535 . S
C18 H78 0.959 . S
C18 H79 0.961 . S
C18 H80 0.959 . S
C19 C16 1.450 . S
C19 H81 0.960 . S
C19 H82 0.960 . S
C19 H83 0.960 . S
C20 C21 1.309 . S
C20 C25 1.304 . S
C20 O58 1.435 . S
C21 C20 1.309 . S
C21 C22 1.476 . S
C21 H85 0.930 . S
C22 C21 1.476 . S
C22 C23 1.400 . S
C22 C26 1.567 . S
C23 C22 1.400 . S
C23 C24 1.373 . S
C23 C45 1.432 . S
C24 C23 1.373 . S
C24 C25 1.339 . S
C24 C27 1.530 . S
C25 C20 1.304 . S
C25 C24 1.339 . S
C25 H86 0.930 . S
C26 C22 1.567 . S
C26 H87 0.961 . S
C26 H88 0.960 . S
C26 H89 0.958 . S
C27 C24 1.530 . S
C27 H90 0.961 . S
C27 H91 0.960 . S
C27 H92 0.960 . S
C28 C29 1.530 . S
C28 H94 0.961 . S
C28 H95 0.961 . S
C28 H96 0.959 . S
C29 C28 1.530 . S
C29 O57 1.412 . S
C29 H93 0.980 . S
C30 C31 1.288 . S
C30 C35 1.377 . S
C30 O57 1.393 . S
C31 C30 1.288 . S
C31 C32 1.369 . S
C31 H97 0.932 . S
C32 C31 1.369 . S
C32 C33 1.398 . S
C32 C36 1.527 . S
C33 C32 1.398 . S
C33 C34 1.380 . S
C33 C47 1.497 . S
C34 C33 1.380 . S
C34 C35 1.383 . S
C34 C37 1.603 . S
C35 C30 1.377 . S
C35 C34 1.383 . S
C35 H98 0.929 . S
C36 C32 1.527 . S
C36 H99 0.961 . S
C36 H100 0.959 . S
C36 H101 0.959 . S
C37 C34 1.603 . S
C37 H102 0.960 . S
C37 H103 0.962 . S
C37 H104 0.961 . S
C38 C5 1.587 . S
C38 C39 1.360 . S
C38 C51 1.412 . S
C39 C38 1.360 . S
C39 C40 1.365 . S
C39 H105 0.929 . S
C40 C15 1.553 . S
C40 C39 1.365 . S
C40 C41 1.404 . S
C41 C40 1.404 . S
C41 C42 1.395 . S
C41 C52 1.451 . S
C42 C41 1.395 . S
C42 C43 1.322 . S
C42 H106 0.930 . S
C43 C42 1.322 . S
C43 C44 1.459 . S
C43 H107 0.929 . S
C44 C43 1.459 . S
C44 C45 1.445 . S
C44 C53 1.395 . S
C45 C23 1.432 . S
C45 C44 1.445 . S
C45 C46 1.370 . S
C46 C45 1.370 . S
C46 C47 1.438 . S
C46 H108 0.930 . S
C47 C33 1.497 . S
C47 C46 1.438 . S
C47 C48 1.360 . S
C48 C47 1.360 . S
C48 C49 1.401 . S
C48 C53 1.446 . S
C49 C48 1.401 . S
C49 C50 1.347 . S
C49 H109 0.929 . S
C50 C49 1.347 . S
C50 C51 1.455 . S
C50 H110 0.930 . S
C51 C38 1.412 . S
C51 C50 1.455 . S
C51 C52 1.331 . S
C52 C41 1.451 . S
C52 C51 1.331 . S
C52 C53 1.497 . S
C53 C44 1.395 . S
C53 C48 1.446 . S
C53 C52 1.497 . S
C54 C55 1.582 . S
C54 H111 0.962 . S
C54 H112 0.959 . S
C54 H113 0.958 . S
C55 C54 1.582 . S
C55 O58 1.458 . S
C55 H84 0.980 . S
O56 C1 1.426 . S
O56 C2 1.334 . S
O57 C29 1.412 . S
O57 C30 1.393 . S
O58 C20 1.435 . S
O58 C55 1.458 . S
O59 C11 1.468 . S
O59 C12 1.408 . S
H60 C1 0.980 . S
H61 C0 0.959 . S
H62 C0 0.959 . S
H63 C0 0.960 . S
H64 C3 0.929 . S
H65 C7 0.929 . S
H66 C8 0.959 . S
H67 C8 0.961 . S
H68 C8 0.961 . S
H69 C9 0.960 . S
H70 C9 0.960 . S
H71 C9 0.961 . S
H72 C11 0.980 . S
H73 C10 0.961 . S
H74 C10 0.960 . S
H75 C10 0.959 . S
H76 C13 0.930 . S
H77 C17 0.931 . S
H78 C18 0.959 . S
H79 C18 0.961 . S
H80 C18 0.959 . S
H81 C19 0.960 . S
H82 C19 0.960 . S
H83 C19 0.960 . S
H84 C55 0.980 . S
H85 C21 0.930 . S
H86 C25 0.930 . S
H87 C26 0.961 . S
H88 C26 0.960 . S
H89 C26 0.958 . S
H90 C27 0.961 . S
H91 C27 0.960 . S
H92 C27 0.960 . S
H93 C29 0.980 . S
H94 C28 0.961 . S
H95 C28 0.961 . S
H96 C28 0.959 . S
H97 C31 0.932 . S
H98 C35 0.929 . S
H99 C36 0.961 . S
H100 C36 0.959 . S
H101 C36 0.959 . S
H102 C37 0.960 . S
H103 C37 0.962 . S
H104 C37 0.961 . S
H105 C39 0.929 . S
H106 C42 0.930 . S
H107 C43 0.929 . S
H108 C46 0.930 . S
H109 C49 0.929 . S
H110 C50 0.930 . S
H111 C54 0.962 . S
H112 C54 0.959 . S
H113 C54 0.958 . S
C114 C115 1.560 . S
C114 H175 0.959 . S
C114 H176 0.959 . S
C114 H177 0.960 . S
C115 C114 1.560 . S
C115 O170 1.426 . S
C115 H174 0.980 . S
C116 C117 1.407 . S
C116 C121 1.418 . S
C116 O170 1.334 . S
C117 C116 1.407 . S
C117 C118 1.360 . S
C117 H178 0.929 . S
C118 C117 1.360 . S
C118 C119 1.401 . S
C118 C122 1.527 . S
C119 C118 1.401 . S
C119 C120 1.405 . S
C119 C152 1.587 . S
C120 C119 1.405 . S
C120 C121 1.332 . S
C120 C123 1.496 . S
C121 C116 1.418 . S
C121 C120 1.332 . S
C121 H179 0.929 . S
C122 C118 1.527 . S
C122 H180 0.959 . S
C122 H181 0.961 . S
C122 H182 0.961 . S
C123 C120 1.496 . S
C123 H183 0.960 . S
C123 H184 0.960 . S
C123 H185 0.961 . S
C124 C125 1.517 . S
C124 H187 0.961 . S
C124 H188 0.960 . S
C124 H189 0.959 . S
C125 C124 1.517 . S
C125 O173 1.468 . S
C125 H186 0.980 . S
C126 C127 1.349 . S
C126 C131 1.367 . S
C126 O173 1.408 . S
C127 C126 1.349 . S
C127 C128 1.407 . S
C127 H190 0.930 . S
C128 C127 1.407 . S
C128 C129 1.449 . S
C128 C132 1.535 . S
C129 C128 1.449 . S
C129 C130 1.384 . S
C129 C154 1.553 . S
C130 C129 1.384 . S
C130 C131 1.364 . S
C130 C133 1.450 . S
C131 C126 1.367 . S
C131 C130 1.364 . S
C131 H191 0.931 . S
C132 C128 1.535 . S
C132 H192 0.959 . S
C132 H193 0.961 . S
C132 H194 0.959 . S
C133 C130 1.450 . S
C133 H195 0.960 . S
C133 H196 0.960 . S
C133 H197 0.960 . S
C134 C135 1.309 . S
C134 C139 1.304 . S
C134 O172 1.435 . S
C135 C134 1.309 . S
C135 C136 1.476 . S
C135 H199 0.930 . S
C136 C135 1.476 . S
C136 C137 1.400 . S
C136 C140 1.567 . S
C137 C136 1.400 . S
C137 C138 1.373 . S
C137 C159 1.432 . S
C138 C137 1.373 . S
C138 C139 1.339 . S
C138 C141 1.530 . S
C139 C134 1.304 . S
C139 C138 1.339 . S
C139 H200 0.930 . S
C140 C136 1.567 . S
C140 H201 0.961 . S
C140 H202 0.960 . S
C140 H203 0.958 . S
C141 C138 1.530 . S
C141 H204 0.961 . S
C141 H205 0.960 . S
C141 H206 0.960 . S
C142 C143 1.530 . S
C142 H208 0.961 . S
C142 H209 0.961 . S
C142 H210 0.959 . S
C143 C142 1.530 . S
C143 O171 1.412 . S
C143 H207 0.980 . S
C144 C145 1.288 . S
C144 C149 1.377 . S
C144 O171 1.393 . S
C145 C144 1.288 . S
C145 C146 1.369 . S
C145 H211 0.932 . S
C146 C145 1.369 . S
C146 C147 1.398 . S
C146 C150 1.527 . S
C147 C146 1.398 . S
C147 C148 1.380 . S
C147 C161 1.497 . S
C148 C147 1.380 . S
C148 C149 1.383 . S
C148 C151 1.603 . S
C149 C144 1.377 . S
C149 C148 1.383 . S
C149 H212 0.929 . S
C150 C146 1.527 . S
C150 H213 0.961 . S
C150 H214 0.959 . S
C150 H215 0.959 . S
C151 C148 1.603 . S
C151 H216 0.960 . S
C151 H217 0.962 . S
C151 H218 0.961 . S
C152 C119 1.587 . S
C152 C153 1.360 . S
C152 C165 1.412 . S
C153 C152 1.360 . S
C153 C154 1.365 . S
C153 H219 0.929 . S
C154 C129 1.553 . S
C154 C153 1.365 . S
C154 C155 1.404 . S
C155 C154 1.404 . S
C155 C156 1.395 . S
C155 C166 1.451 . S
C156 C155 1.395 . S
C156 C157 1.322 . S
C156 H220 0.930 . S
C157 C156 1.322 . S
C157 C158 1.459 . S
C157 H221 0.929 . S
C158 C157 1.459 . S
C158 C159 1.445 . S
C158 C167 1.395 . S
C159 C137 1.432 . S
C159 C158 1.445 . S
C159 C160 1.370 . S
C160 C159 1.370 . S
C160 C161 1.438 . S
C160 H222 0.930 . S
C161 C147 1.497 . S
C161 C160 1.438 . S
C161 C162 1.360 . S
C162 C161 1.360 . S
C162 C163 1.401 . S
C162 C167 1.446 . S
C163 C162 1.401 . S
C163 C164 1.347 . S
C163 H223 0.929 . S
C164 C163 1.347 . S
C164 C165 1.455 . S
C164 H224 0.930 . S
C165 C152 1.412 . S
C165 C164 1.455 . S
C165 C166 1.331 . S
C166 C155 1.451 . S
C166 C165 1.331 . S
C166 C167 1.497 . S
C167 C158 1.395 . S
C167 C162 1.446 . S
C167 C166 1.497 . S
C168 C169 1.582 . S
C168 H225 0.962 . S
C168 H226 0.959 . S
C168 H227 0.958 . S
C169 C168 1.582 . S
C169 O172 1.458 . S
C169 H198 0.980 . S
O170 C115 1.426 . S
O170 C116 1.334 . S
O171 C143 1.412 . S
O171 C144 1.393 . S
O172 C134 1.435 . S
O172 C169 1.458 . S
O173 C125 1.468 . S
O173 C126 1.408 . S
H174 C115 0.980 . S
H175 C114 0.959 . S
H176 C114 0.959 . S
H177 C114 0.960 . S
H178 C117 0.929 . S
H179 C121 0.929 . S
H180 C122 0.959 . S
H181 C122 0.961 . S
H182 C122 0.961 . S
H183 C123 0.960 . S
H184 C123 0.960 . S
H185 C123 0.961 . S
H186 C125 0.980 . S
H187 C124 0.961 . S
H188 C124 0.960 . S
H189 C124 0.959 . S
H190 C127 0.930 . S
H191 C131 0.931 . S
H192 C132 0.959 . S
H193 C132 0.961 . S
H194 C132 0.959 . S
H195 C133 0.960 . S
H196 C133 0.960 . S
H197 C133 0.960 . S
H198 C169 0.980 . S
H199 C135 0.930 . S
H200 C139 0.930 . S
H201 C140 0.961 . S
H202 C140 0.960 . S
H203 C140 0.958 . S
H204 C141 0.961 . S
H205 C141 0.960 . S
H206 C141 0.960 . S
H207 C143 0.980 . S
H208 C142 0.961 . S
H209 C142 0.961 . S
H210 C142 0.959 . S
H211 C145 0.932 . S
H212 C149 0.929 . S
H213 C150 0.961 . S
H214 C150 0.959 . S
H215 C150 0.959 . S
H216 C151 0.960 . S
H217 C151 0.962 . S
H218 C151 0.961 . S
H219 C153 0.929 . S
H220 C156 0.930 . S
H221 C157 0.929 . S
H222 C160 0.930 . S
H223 C163 0.929 . S
H224 C164 0.930 . S
H225 C168 0.962 . S
H226 C168 0.959 . S
H227 C168 0.958 . S
C228 C229 1.560 . S
C228 H289 0.959 . S
C228 H290 0.959 . S
C228 H291 0.960 . S
C229 C228 1.560 . S
C229 O284 1.426 . S
C229 H288 0.980 . S
C230 C231 1.407 . S
C230 C235 1.418 . S
C230 O284 1.334 . S
C231 C230 1.407 . S
C231 C232 1.360 . S
C231 H292 0.929 . S
C232 C231 1.360 . S
C232 C233 1.401 . S
C232 C236 1.527 . S
C233 C232 1.401 . S
C233 C234 1.405 . S
C233 C266 1.587 . S
C234 C233 1.405 . S
C234 C235 1.332 . S
C234 C237 1.496 . S
C235 C230 1.418 . S
C235 C234 1.332 . S
C235 H293 0.929 . S
C236 C232 1.527 . S
C236 H294 0.959 . S
C236 H295 0.961 . S
C236 H296 0.961 . S
C237 C234 1.496 . S
C237 H297 0.960 . S
C237 H298 0.960 . S
C237 H299 0.961 . S
C238 C239 1.517 . S
C238 H301 0.961 . S
C238 H302 0.960 . S
C238 H303 0.959 . S
C239 C238 1.517 . S
C239 O287 1.468 . S
C239 H300 0.980 . S
C240 C241 1.349 . S
C240 C245 1.367 . S
C240 O287 1.408 . S
C241 C240 1.349 . S
C241 C242 1.407 . S
C241 H304 0.930 . S
C242 C241 1.407 . S
C242 C243 1.449 . S
C242 C246 1.535 . S
C243 C242 1.449 . S
C243 C244 1.384 . S
C243 C268 1.553 . S
C244 C243 1.384 . S
C244 C245 1.364 . S
C244 C247 1.450 . S
C245 C240 1.367 . S
C245 C244 1.364 . S
C245 H305 0.931 . S
C246 C242 1.535 . S
C246 H306 0.959 . S
C246 H307 0.961 . S
C246 H308 0.959 . S
C247 C244 1.450 . S
C247 H309 0.960 . S
C247 H310 0.960 . S
C247 H311 0.960 . S
C248 C249 1.309 . S
C248 C253 1.304 . S
C248 O286 1.435 . S
C249 C248 1.309 . S
C249 C250 1.476 . S
C249 H313 0.930 . S
C250 C249 1.476 . S
C250 C251 1.400 . S
C250 C254 1.567 . S
C251 C250 1.400 . S
C251 C252 1.373 . S
C251 C273 1.432 . S
C252 C251 1.373 . S
C252 C253 1.339 . S
C252 C255 1.530 . S
C253 C248 1.304 . S
C253 C252 1.339 . S
C253 H314 0.930 . S
C254 C250 1.567 . S
C254 H315 0.961 . S
C254 H316 0.960 . S
C254 H317 0.958 . S
C255 C252 1.530 . S
C255 H318 0.961 . S
C255 H319 0.960 . S
C255 H320 0.960 . S
C256 C257 1.530 . S
C256 H322 0.961 . S
C256 H323 0.961 . S
C256 H324 0.959 . S
C257 C256 1.530 . S
C257 O285 1.412 . S
C257 H321 0.980 . S
C258 C259 1.288 . S
C258 C263 1.377 . S
C258 O285 1.393 . S
C259 C258 1.288 . S
C259 C260 1.369 . S
C259 H325 0.932 . S
C260 C259 1.369 . S
C260 C261 1.398 . S
C260 C264 1.527 . S
C261 C260 1.398 . S
C261 C262 1.380 . S
C261 C275 1.497 . S
C262 C261 1.380 . S
C262 C263 1.383 . S
C262 C265 1.603 . S
C263 C258 1.377 . S
C263 C262 1.383 . S
C263 H326 0.929 . S
C264 C260 1.527 . S
C264 H327 0.961 . S
C264 H328 0.959 . S
C264 H329 0.959 . S
C265 C262 1.603 . S
C265 H330 0.960 . S
C265 H331 0.962 . S
C265 H332 0.961 . S
C266 C233 1.587 . S
C266 C267 1.360 . S
C266 C279 1.412 . S
C267 C266 1.360 . S
C267 C268 1.365 . S
C267 H333 0.929 . S
C268 C243 1.553 . S
C268 C267 1.365 . S
C268 C269 1.404 . S
C269 C268 1.404 . S
C269 C270 1.395 . S
C269 C280 1.451 . S
C270 C269 1.395 . S
C270 C271 1.322 . S
C270 H334 0.930 . S
C271 C270 1.322 . S
C271 C272 1.459 . S
C271 H335 0.929 . S
C272 C271 1.459 . S
C272 C273 1.445 . S
C272 C281 1.395 . S
C273 C251 1.432 . S
C273 C272 1.445 . S
C273 C274 1.370 . S
C274 C273 1.370 . S
C274 C275 1.438 . S
C274 H336 0.930 . S
C275 C261 1.497 . S
C275 C274 1.438 . S
C275 C276 1.360 . S
C276 C275 1.360 . S
C276 C277 1.401 . S
C276 C281 1.446 . S
C277 C276 1.401 . S
C277 C278 1.347 . S
C277 H337 0.929 . S
C278 C277 1.347 . S
C278 C279 1.455 . S
C278 H338 0.930 . S
C279 C266 1.412 . S
C279 C278 1.455 . S
C279 C280 1.331 . S
C280 C269 1.451 . S
C280 C279 1.331 . S
C280 C281 1.497 . S
C281 C272 1.395 . S
C281 C276 1.446 . S
C281 C280 1.497 . S
C282 C283 1.582 . S
C282 H339 0.962 . S
C282 H340 0.959 . S
C282 H341 0.958 . S
C283 C282 1.582 . S
C283 O286 1.458 . S
C283 H312 0.980 . S
O284 C229 1.426 . S
O284 C230 1.334 . S
O285 C257 1.412 . S
O285 C258 1.393 . S
O286 C248 1.435 . S
O286 C283 1.458 . S
O287 C239 1.468 . S
O287 C240 1.408 . S
H288 C229 0.980 . S
H289 C228 0.959 . S
H290 C228 0.959 . S
H291 C228 0.960 . S
H292 C231 0.929 . S
H293 C235 0.929 . S
H294 C236 0.959 . S
H295 C236 0.961 . S
H296 C236 0.961 . S
H297 C237 0.960 . S
H298 C237 0.960 . S
H299 C237 0.961 . S
H300 C239 0.980 . S
H301 C238 0.961 . S
H302 C238 0.960 . S
H303 C238 0.959 . S
H304 C241 0.930 . S
H305 C245 0.931 . S
H306 C246 0.959 . S
H307 C246 0.961 . S
H308 C246 0.959 . S
H309 C247 0.960 . S
H310 C247 0.960 . S
H311 C247 0.960 . S
H312 C283 0.980 . S
H313 C249 0.930 . S
H314 C253 0.930 . S
H315 C254 0.961 . S
H316 C254 0.960 . S
H317 C254 0.958 . S
H318 C255 0.961 . S
H319 C255 0.960 . S
H320 C255 0.960 . S
H321 C257 0.980 . S
H322 C256 0.961 . S
H323 C256 0.961 . S
H324 C256 0.959 . S
H325 C259 0.932 . S
H326 C263 0.929 . S
H327 C264 0.961 . S
H328 C264 0.959 . S
H329 C264 0.959 . S
H330 C265 0.960 . S
H331 C265 0.962 . S
H332 C265 0.961 . S
H333 C267 0.929 . S
H334 C270 0.930 . S
H335 C271 0.929 . S
H336 C274 0.930 . S
H337 C277 0.929 . S
H338 C278 0.930 . S
H339 C282 0.962 . S
H340 C282 0.959 . S
H341 C282 0.958 . S
C342 C343 1.560 . S
C342 H403 0.959 . S
C342 H404 0.959 . S
C342 H405 0.960 . S
C343 C342 1.560 . S
C343 O398 1.426 . S
C343 H402 0.980 . S
C344 C345 1.407 . S
C344 C349 1.418 . S
C344 O398 1.334 . S
C345 C344 1.407 . S
C345 C346 1.360 . S
C345 H406 0.929 . S
C346 C345 1.360 . S
C346 C347 1.401 . S
C346 C350 1.527 . S
C347 C346 1.401 . S
C347 C348 1.405 . S
C347 C380 1.587 . S
C348 C347 1.405 . S
C348 C349 1.332 . S
C348 C351 1.496 . S
C349 C344 1.418 . S
C349 C348 1.332 . S
C349 H407 0.929 . S
C350 C346 1.527 . S
C350 H408 0.959 . S
C350 H409 0.961 . S
C350 H410 0.961 . S
C351 C348 1.496 . S
C351 H411 0.960 . S
C351 H412 0.960 . S
C351 H413 0.961 . S
C352 C353 1.517 . S
C352 H415 0.961 . S
C352 H416 0.960 . S
C352 H417 0.959 . S
C353 C352 1.517 . S
C353 O401 1.468 . S
C353 H414 0.980 . S
C354 C355 1.349 . S
C354 C359 1.367 . S
C354 O401 1.408 . S
C355 C354 1.349 . S
C355 C356 1.407 . S
C355 H418 0.930 . S
C356 C355 1.407 . S
C356 C357 1.449 . S
C356 C360 1.535 . S
C357 C356 1.449 . S
C357 C358 1.384 . S
C357 C382 1.553 . S
C358 C357 1.384 . S
C358 C359 1.364 . S
C358 C361 1.450 . S
C359 C354 1.367 . S
C359 C358 1.364 . S
C359 H419 0.931 . S
C360 C356 1.535 . S
C360 H420 0.959 . S
C360 H421 0.961 . S
C360 H422 0.959 . S
C361 C358 1.450 . S
C361 H423 0.960 . S
C361 H424 0.960 . S
C361 H425 0.960 . S
C362 C363 1.309 . S
C362 C367 1.304 . S
C362 O400 1.435 . S
C363 C362 1.309 . S
C363 C364 1.476 . S
C363 H427 0.930 . S
C364 C363 1.476 . S
C364 C365 1.400 . S
C364 C368 1.567 . S
C365 C364 1.400 . S
C365 C366 1.373 . S
C365 C387 1.432 . S
C366 C365 1.373 . S
C366 C367 1.339 . S
C366 C369 1.530 . S
C367 C362 1.304 . S
C367 C366 1.339 . S
C367 H428 0.930 . S
C368 C364 1.567 . S
C368 H429 0.961 . S
C368 H430 0.960 . S
C368 H431 0.958 . S
C369 C366 1.530 . S
C369 H432 0.961 . S
C369 H433 0.960 . S
C369 H434 0.960 . S
C370 C371 1.530 . S
C370 H436 0.961 . S
C370 H437 0.961 . S
C370 H438 0.959 . S
C371 C370 1.530 . S
C371 O399 1.412 . S
C371 H435 0.980 . S
C372 C373 1.288 . S
C372 C377 1.377 . S
C372 O399 1.393 . S
C373 C372 1.288 . S
C373 C374 1.369 . S
C373 H439 0.932 . S
C374 C373 1.369 . S
C374 C375 1.398 . S
C374 C378 1.527 . S
C375 C374 1.398 . S
C375 C376 1.380 . S
C375 C389 1.497 . S
C376 C375 1.380 . S
C376 C377 1.383 . S
C376 C379 1.603 . S
C377 C372 1.377 . S
C377 C376 1.383 . S
C377 H440 0.929 . S
C378 C374 1.527 . S
C378 H441 0.961 . S
C378 H442 0.959 . S
C378 H443 0.959 . S
C379 C376 1.603 . S
C379 H444 0.960 . S
C379 H445 0.962 . S
C379 H446 0.961 . S
C380 C347 1.587 . S
C380 C381 1.360 . S
C380 C393 1.412 . S
C381 C380 1.360 . S
C381 C382 1.365 . S
C381 H447 0.929 . S
C382 C357 1.553 . S
C382 C381 1.365 . S
C382 C383 1.404 . S
C383 C382 1.404 . S
C383 C384 1.395 . S
C383 C394 1.451 . S
C384 C383 1.395 . S
C384 C385 1.322 . S
C384 H448 0.930 . S
C385 C384 1.322 . S
C385 C386 1.459 . S
C385 H449 0.929 . S
C386 C385 1.459 . S
C386 C387 1.445 . S
C386 C395 1.395 . S
C387 C365 1.432 . S
C387 C386 1.445 . S
C387 C388 1.370 . S
C388 C387 1.370 . S
C388 C389 1.438 . S
C388 H450 0.930 . S
C389 C375 1.497 . S
C389 C388 1.438 . S
C389 C390 1.360 . S
C390 C389 1.360 . S
C390 C391 1.401 . S
C390 C395 1.446 . S
C391 C390 1.401 . S
C391 C392 1.347 . S
C391 H451 0.929 . S
C392 C391 1.347 . S
C392 C393 1.455 . S
C392 H452 0.930 . S
C393 C380 1.412 . S
C393 C392 1.455 . S
C393 C394 1.331 . S
C394 C383 1.451 . S
C394 C393 1.331 . S
C394 C395 1.497 . S
C395 C386 1.395 . S
C395 C390 1.446 . S
C395 C394 1.497 . S
C396 C397 1.582 . S
C396 H453 0.962 . S
C396 H454 0.959 . S
C396 H455 0.958 . S
C397 C396 1.582 . S
C397 O400 1.458 . S
C397 H426 0.980 . S
O398 C343 1.426 . S
O398 C344 1.334 . S
O399 C371 1.412 . S
O399 C372 1.393 . S
O400 C362 1.435 . S
O400 C397 1.458 . S
O401 C353 1.468 . S
O401 C354 1.408 . S
H402 C343 0.980 . S
H403 C342 0.959 . S
H404 C342 0.959 . S
H405 C342 0.960 . S
H406 C345 0.929 . S
H407 C349 0.929 . S
H408 C350 0.959 . S
H409 C350 0.961 . S
H410 C350 0.961 . S
H411 C351 0.960 . S
H412 C351 0.960 . S
H413 C351 0.961 . S
H414 C353 0.980 . S
H415 C352 0.961 . S
H416 C352 0.960 . S
H417 C352 0.959 . S
H418 C355 0.930 . S
H419 C359 0.931 . S
H420 C360 0.959 . S
H421 C360 0.961 . S
H422 C360 0.959 . S
H423 C361 0.960 . S
H424 C361 0.960 . S
H425 C361 0.960 . S
H426 C397 0.980 . S
H427 C363 0.930 . S
H428 C367 0.930 . S
H429 C368 0.961 . S
H430 C368 0.960 . S
H431 C368 0.958 . S
H432 C369 0.961 . S
H433 C369 0.960 . S
H434 C369 0.960 . S
H435 C371 0.980 . S
H436 C370 0.961 . S
H437 C370 0.961 . S
H438 C370 0.959 . S
H439 C373 0.932 . S
H440 C377 0.929 . S
H441 C378 0.961 . S
H442 C378 0.959 . S
H443 C378 0.959 . S
H444 C379 0.960 . S
H445 C379 0.962 . S
H446 C379 0.961 . S
H447 C381 0.929 . S
H448 C384 0.930 . S
H449 C385 0.929 . S
H450 C388 0.930 . S
H451 C391 0.929 . S
H452 C392 0.930 . S
H453 C396 0.962 . S
H454 C396 0.959 . S
H455 C396 0.958 . S
C456 C457 1.560 . S
C456 H517 0.959 . S
C456 H518 0.959 . S
C456 H519 0.960 . S
C457 C456 1.560 . S
C457 O512 1.426 . S
C457 H516 0.980 . S
C458 C459 1.407 . S
C458 C463 1.418 . S
C458 O512 1.334 . S
C459 C458 1.407 . S
C459 C460 1.360 . S
C459 H520 0.929 . S
C460 C459 1.360 . S
C460 C461 1.401 . S
C460 C464 1.527 . S
C461 C460 1.401 . S
C461 C462 1.405 . S
C461 C494 1.587 . S
C462 C461 1.405 . S
C462 C463 1.332 . S
C462 C465 1.496 . S
C463 C458 1.418 . S
C463 C462 1.332 . S
C463 H521 0.929 . S
C464 C460 1.527 . S
C464 H522 0.959 . S
C464 H523 0.961 . S
C464 H524 0.961 . S
C465 C462 1.496 . S
C465 H525 0.960 . S
C465 H526 0.960 . S
C465 H527 0.961 . S
C466 C467 1.517 . S
C466 H529 0.961 . S
C466 H530 0.960 . S
C466 H531 0.959 . S
C467 C466 1.517 . S
C467 O515 1.468 . S
C467 H528 0.980 . S
C468 C469 1.349 . S
C468 C473 1.367 . S
C468 O515 1.408 . S
C469 C468 1.349 . S
C469 C470 1.407 . S
C469 H532 0.930 . S
C470 C469 1.407 . S
C470 C471 1.449 . S
C470 C474 1.535 . S
C471 C470 1.449 . S
C471 C472 1.384 . S
C471 C496 1.553 . S
C472 C471 1.384 . S
C472 C473 1.364 . S
C472 C475 1.450 . S
C473 C468 1.367 . S
C473 C472 1.364 . S
C473 H533 0.931 . S
C474 C470 1.535 . S
C474 H534 0.959 . S
C474 H535 0.961 . S
C474 H536 0.959 . S
C475 C472 1.450 . S
C475 H537 0.960 . S
C475 H538 0.960 . S
C475 H539 0.960 . S
C476 C477 1.309 . S
C476 C481 1.304 . S
C476 O514 1.435 . S
C477 C476 1.309 . S
C477 C478 1.476 . S
C477 H541 0.930 . S
C478 C477 1.476 . S
C478 C479 1.400 . S
C478 C482 1.567 . S
C479 C478 1.400 . S
C479 C480 1.373 . S
C479 C501 1.432 . S
C480 C479 1.373 . S
C480 C481 1.339 . S
C480 C483 1.530 . S
C481 C476 1.304 . S
C481 C480 1.339 . S
C481 H542 0.930 . S
C482 C478 1.567 . S
C482 H543 0.961 . S
C482 H544 0.960 . S
C482 H545 0.958 . S
C483 C480 1.530 . S
C483 H546 0.961 . S
C483 H547 0.960 . S
C483 H548 0.960 . S
C484 C485 1.530 . S
C484 H550 0.961 . S
C484 H551 0.961 . S
C484 H552 0.959 . S
C485 C484 1.530 . S
C485 O513 1.412 . S
C485 H549 0.980 . S
C486 C487 1.288 . S
C486 C491 1.377 . S
C486 O513 1.393 . S
C487 C486 1.288 . S
C487 C488 1.369 . S
C487 H553 0.932 . S
C488 C487 1.369 . S
C488 C489 1.398 . S
C488 C492 1.527 . S
C489 C488 1.398 . S
C489 C490 1.380 . S
C489 C503 1.497 . S
C490 C489 1.380 . S
C490 C491 1.383 . S
C490 C493 1.603 . S
C491 C486 1.377 . S
C491 C490 1.383 . S
C491 H554 0.929 . S
C492 C488 1.527 . S
C492 H555 0.961 . S
C492 H556 0.959 . S
C492 H557 0.959 . S
C493 C490 1.603 . S
C493 H558 0.960 . S
C493 H559 0.962 . S
C493 H560 0.961 . S
C494 C461 1.587 . S
C494 C495 1.360 . S
C494 C507 1.412 . S
C495 C494 1.360 . S
C495 C496 1.365 . S
C495 H561 0.929 . S
C496 C471 1.553 . S
C496 C495 1.365 . S
C496 C497 1.404 . S
C497 C496 1.404 . S
C497 C498 1.395 . S
C497 C508 1.451 . S
C498 C497 1.395 . S
C498 C499 1.322 . S
C498 H562 0.930 . S
C499 C498 1.322 . S
C499 C500 1.459 . S
C499 H563 0.929 . S
C500 C499 1.459 . S
C500 C501 1.445 . S
C500 C509 1.395 . S
C501 C479 1.432 . S
C501 C500 1.445 . S
C501 C502 1.370 . S
C502 C501 1.370 . S
C502 C503 1.438 . S
C502 H564 0.930 . S
C503 C489 1.497 . S
C503 C502 1.438 . S
C503 C504 1.360 . S
C504 C503 1.360 . S
C504 C505 1.401 . S
C504 C509 1.446 . S
C505 C504 1.401 . S
C505 C506 1.347 . S
C505 H565 0.929 . S
C506 C505 1.347 . S
C506 C507 1.455 . S
C506 H566 0.930 . S
C507 C494 1.412 . S
C507 C506 1.455 . S
C507 C508 1.331 . S
C508 C497 1.451 . S
C508 C507 1.331 . S
C508 C509 1.497 . S
C509 C500 1.395 . S
C509 C504 1.446 . S
C509 C508 1.497 . S
C510 C511 1.582 . S
C510 H567 0.962 . S
C510 H568 0.959 . S
C510 H569 0.958 . S
C511 C510 1.582 . S
C511 O514 1.458 . S
C511 H540 0.980 . S
O512 C457 1.426 . S
O512 C458 1.334 . S
O513 C485 1.412 . S
O513 C486 1.393 . S
O514 C476 1.435 . S
O514 C511 1.458 . S
O515 C467 1.468 . S
O515 C468 1.408 . S
H516 C457 0.980 . S
H517 C456 0.959 . S
H518 C456 0.959 . S
H519 C456 0.960 . S
H520 C459 0.929 . S
H521 C463 0.929 . S
H522 C464 0.959 . S
H523 C464 0.961 . S
H524 C464 0.961 . S
H525 C465 0.960 . S
H526 C465 0.960 . S
H527 C465 0.961 . S
H528 C467 0.980 . S
H529 C466 0.961 . S
H530 C466 0.960 . S
H531 C466 0.959 . S
H532 C469 0.930 . S
H533 C473 0.931 . S
H534 C474 0.959 . S
H535 C474 0.961 . S
H536 C474 0.959 . S
H537 C475 0.960 . S
H538 C475 0.960 . S
H539 C475 0.960 . S
H540 C511 0.980 . S
H541 C477 0.930 . S
H542 C481 0.930 . S
H543 C482 0.961 . S
H544 C482 0.960 . S
H545 C482 0.958 . S
H546 C483 0.961 . S
H547 C483 0.960 . S
H548 C483 0.960 . S
H549 C485 0.980 . S
H550 C484 0.961 . S
H551 C484 0.961 . S
H552 C484 0.959 . S
H553 C487 0.932 . S
H554 C491 0.929 . S
H555 C492 0.961 . S
H556 C492 0.959 . S
H557 C492 0.959 . S
H558 C493 0.960 . S
H559 C493 0.962 . S
H560 C493 0.961 . S
H561 C495 0.929 . S
H562 C498 0.930 . S
H563 C499 0.929 . S
H564 C502 0.930 . S
H565 C505 0.929 . S
H566 C506 0.930 . S
H567 C510 0.962 . S
H568 C510 0.959 . S
H569 C510 0.958 . S
C570 C571 1.560 . S
C570 H631 0.959 . S
C570 H632 0.959 . S
C570 H633 0.960 . S
C571 C570 1.560 . S
C571 O626 1.426 . S
C571 H630 0.980 . S
C572 C573 1.407 . S
C572 C577 1.418 . S
C572 O626 1.334 . S
C573 C572 1.407 . S
C573 C574 1.360 . S
C573 H634 0.929 . S
C574 C573 1.360 . S
C574 C575 1.401 . S
C574 C578 1.527 . S
C575 C574 1.401 . S
C575 C576 1.405 . S
C575 C608 1.587 . S
C576 C575 1.405 . S
C576 C577 1.332 . S
C576 C579 1.496 . S
C577 C572 1.418 . S
C577 C576 1.332 . S
C577 H635 0.929 . S
C578 C574 1.527 . S
C578 H636 0.959 . S
C578 H637 0.961 . S
C578 H638 0.961 . S
C579 C576 1.496 . S
C579 H639 0.960 . S
C579 H640 0.960 . S
C579 H641 0.961 . S
C580 C581 1.517 . S
C580 H643 0.961 . S
C580 H644 0.960 . S
C580 H645 0.959 . S
C581 C580 1.517 . S
C581 O629 1.468 . S
C581 H642 0.980 . S
C582 C583 1.349 . S
C582 C587 1.367 . S
C582 O629 1.408 . S
C583 C582 1.349 . S
C583 C584 1.407 . S
C583 H646 0.930 . S
C584 C583 1.407 . S
C584 C585 1.449 . S
C584 C588 1.535 . S
C585 C584 1.449 . S
C585 C586 1.384 . S
C585 C610 1.553 . S
C586 C585 1.384 . S
C586 C587 1.364 . S
C586 C589 1.450 . S
C587 C582 1.367 . S
C587 C586 1.364 . S
C587 H647 0.931 . S
C588 C584 1.535 . S
C588 H648 0.959 . S
C588 H649 0.961 . S
C588 H650 0.959 . S
C589 C586 1.450 . S
C589 H651 0.960 . S
C589 H652 0.960 . S
C589 H653 0.960 . S
C590 C591 1.309 . S
C590 C595 1.304 . S
C590 O628 1.435 . S
C591 C590 1.309 . S
C591 C592 1.476 . S
C591 H655 0.930 . S
C592 C591 1.476 . S
C592 C593 1.400 . S
C592 C596 1.567 . S
C593 C592 1.400 . S
C593 C594 1.373 . S
C593 C615 1.432 . S
C594 C593 1.373 . S
C594 C595 1.339 . S
C594 C597 1.530 . S
C595 C590 1.304 . S
C595 C594 1.339 . S
C595 H656 0.930 . S
C596 C592 1.567 . S
C596 H657 0.961 . S
C596 H658 0.960 . S
C596 H659 0.958 . S
C597 C594 1.530 . S
C597 H660 0.961 . S
C597 H661 0.960 . S
C597 H662 0.960 . S
C598 C599 1.530 . S
C598 H664 0.961 . S
C598 H665 0.961 . S
C598 H666 0.959 . S
C599 C598 1.530 . S
C599 O627 1.412 . S
C599 H663 0.980 . S
C600 C601 1.288 . S
C600 C605 1.377 . S
C600 O627 1.393 . S
C601 C600 1.288 . S
C601 C602 1.369 . S
C601 H667 0.932 . S
C602 C601 1.369 . S
C602 C603 1.398 . S
C602 C606 1.527 . S
C603 C602 1.398 . S
C603 C604 1.380 . S
C603 C617 1.497 . S
C604 C603 1.380 . S
C604 C605 1.383 . S
C604 C607 1.603 . S
C605 C600 1.377 . S
C605 C604 1.383 . S
C605 H668 0.929 . S
C606 C602 1.527 . S
C606 H669 0.961 . S
C606 H670 0.959 . S
C606 H671 0.959 . S
C607 C604 1.603 . S
C607 H672 0.960 . S
C607 H673 0.962 . S
C607 H674 0.961 . S
C608 C575 1.587 . S
C608 C609 1.360 . S
C608 C621 1.412 . S
C609 C608 1.360 . S
C609 C610 1.365 . S
C609 H675 0.929 . S
C610 C585 1.553 . S
C610 C609 1.365 . S
C610 C611 1.404 . S
C611 C610 1.404 . S
C611 C612 1.395 . S
C611 C622 1.451 . S
C612 C611 1.395 . S
C612 C613 1.322 . S
C612 H676 0.930 . S
C613 C612 1.322 . S
C613 C614 1.459 . S
C613 H677 0.929 . S
C614 C613 1.459 . S
C614 C615 1.445 . S
C614 C623 1.395 . S
C615 C593 1.432 . S
C615 C614 1.445 . S
C615 C616 1.370 . S
C616 C615 1.370 . S
C616 C617 1.438 . S
C616 H678 0.930 . S
C617 C603 1.497 . S
C617 C616 1.438 . S
C617 C618 1.360 . S
C618 C617 1.360 . S
C618 C619 1.401 . S
C618 C623 1.446 . S
C619 C618 1.401 . S
C619 C620 1.347 . S
C619 H679 0.929 . S
C620 C619 1.347 . S
C620 C621 1.455 . S
C620 H680 0.930 . S
C621 C608 1.412 . S
C621 C620 1.455 . S
C621 C622 1.331 . S
C622 C611 1.451 . S
C622 C621 1.331 . S
C622 C623 1.497 . S
C623 C614 1.395 . S
C623 C618 1.446 . S
C623 C622 1.497 . S
C624 C625 1.582 . S
C624 H681 0.962 . S
C624 H682 0.959 . S
C624 H683 0.958 . S
C625 C624 1.582 . S
C625 O628 1.458 . S
C625 H654 0.980 . S
O626 C571 1.426 . S
O626 C572 1.334 . S
O627 C599 1.412 . S
O627 C600 1.393 . S
O628 C590 1.435 . S
O628 C625 1.458 . S
O629 C581 1.468 . S
O629 C582 1.408 . S
H630 C571 0.980 . S
H631 C570 0.959 . S
H632 C570 0.959 . S
H633 C570 0.960 . S
H634 C573 0.929 . S
H635 C577 0.929 . S
H636 C578 0.959 . S
H637 C578 0.961 . S
H638 C578 0.961 . S
H639 C579 0.960 . S
H640 C579 0.960 . S
H641 C579 0.961 . S
H642 C581 0.980 . S
H643 C580 0.961 . S
H644 C580 0.960 . S
H645 C580 0.959 . S
H646 C583 0.930 . S
H647 C587 0.931 . S
H648 C588 0.959 . S
H649 C588 0.961 . S
H650 C588 0.959 . S
H651 C589 0.960 . S
H652 C589 0.960 . S
H653 C589 0.960 . S
H654 C625 0.980 . S
H655 C591 0.930 . S
H656 C595 0.930 . S
H657 C596 0.961 . S
H658 C596 0.960 . S
H659 C596 0.958 . S
H660 C597 0.961 . S
H661 C597 0.960 . S
H662 C597 0.960 . S
H663 C599 0.980 . S
H664 C598 0.961 . S
H665 C598 0.961 . S
H666 C598 0.959 . S
H667 C601 0.932 . S
H668 C605 0.929 . S
H669 C606 0.961 . S
H670 C606 0.959 . S
H671 C606 0.959 . S
H672 C607 0.960 . S
H673 C607 0.962 . S
H674 C607 0.961 . S
H675 C609 0.929 . S
H676 C612 0.930 . S
H677 C613 0.929 . S
H678 C616 0.930 . S
H679 C619 0.929 . S
H680 C620 0.930 . S
H681 C624 0.962 . S
H682 C624 0.959 . S
H683 C624 0.958 . S
C684 C685 1.560 . S
C684 H745 0.959 . S
C684 H746 0.959 . S
C684 H747 0.960 . S
C685 C684 1.560 . S
C685 O740 1.426 . S
C685 H744 0.980 . S
C686 C687 1.407 . S
C686 C691 1.418 . S
C686 O740 1.334 . S
C687 C686 1.407 . S
C687 C688 1.360 . S
C687 H748 0.929 . S
C688 C687 1.360 . S
C688 C689 1.401 . S
C688 C692 1.527 . S
C689 C688 1.401 . S
C689 C690 1.405 . S
C689 C722 1.587 . S
C690 C689 1.405 . S
C690 C691 1.332 . S
C690 C693 1.496 . S
C691 C686 1.418 . S
C691 C690 1.332 . S
C691 H749 0.929 . S
C692 C688 1.527 . S
C692 H750 0.959 . S
C692 H751 0.961 . S
C692 H752 0.961 . S
C693 C690 1.496 . S
C693 H753 0.960 . S
C693 H754 0.960 . S
C693 H755 0.961 . S
C694 C695 1.517 . S
C694 H757 0.961 . S
C694 H758 0.960 . S
C694 H759 0.959 . S
C695 C694 1.517 . S
C695 O743 1.468 . S
C695 H756 0.980 . S
C696 C697 1.349 . S
C696 C701 1.367 . S
C696 O743 1.408 . S
C697 C696 1.349 . S
C697 C698 1.407 . S
C697 H760 0.930 . S
C698 C697 1.407 . S
C698 C699 1.449 . S
C698 C702 1.535 . S
C699 C698 1.449 . S
C699 C700 1.384 . S
C699 C724 1.553 . S
C700 C699 1.384 . S
C700 C701 1.364 . S
C700 C703 1.450 . S
C701 C696 1.367 . S
C701 C700 1.364 . S
C701 H761 0.931 . S
C702 C698 1.535 . S
C702 H762 0.959 . S
C702 H763 0.961 . S
C702 H764 0.959 . S
C703 C700 1.450 . S
C703 H765 0.960 . S
C703 H766 0.960 . S
C703 H767 0.960 . S
C704 C705 1.309 . S
C704 C709 1.304 . S
C704 O742 1.435 . S
C705 C704 1.309 . S
C705 C706 1.476 . S
C705 H769 0.930 . S
C706 C705 1.476 . S
C706 C707 1.400 . S
C706 C710 1.567 . S
C707 C706 1.400 . S
C707 C708 1.373 . S
C707 C729 1.432 . S
C708 C707 1.373 . S
C708 C709 1.339 . S
C708 C711 1.530 . S
C709 C704 1.304 . S
C709 C708 1.339 . S
C709 H770 0.930 . S
C710 C706 1.567 . S
C710 H771 0.961 . S
C710 H772 0.960 . S
C710 H773 0.958 . S
C711 C708 1.530 . S
C711 H774 0.961 . S
C711 H775 0.960 . S
C711 H776 0.960 . S
C712 C713 1.530 . S
C712 H778 0.961 . S
C712 H779 0.961 . S
C712 H780 0.959 . S
C713 C712 1.530 . S
C713 O741 1.412 . S
C713 H777 0.980 . S
C714 C715 1.288 . S
C714 C719 1.377 . S
C714 O741 1.393 . S
C715 C714 1.288 . S
C715 C716 1.369 . S
C715 H781 0.932 . S
C716 C715 1.369 . S
C716 C717 1.398 . S
C716 C720 1.527 . S
C717 C716 1.398 . S
C717 C718 1.380 . S
C717 C731 1.497 . S
C718 C717 1.380 . S
C718 C719 1.383 . S
C718 C721 1.603 . S
C719 C714 1.377 . S
C719 C718 1.383 . S
C719 H782 0.929 . S
C720 C716 1.527 . S
C720 H783 0.961 . S
C720 H784 0.959 . S
C720 H785 0.959 . S
C721 C718 1.603 . S
C721 H786 0.960 . S
C721 H787 0.962 . S
C721 H788 0.961 . S
C722 C689 1.587 . S
C722 C723 1.360 . S
C722 C735 1.412 . S
C723 C722 1.360 . S
C723 C724 1.365 . S
C723 H789 0.929 . S
C724 C699 1.553 . S
C724 C723 1.365 . S
C724 C725 1.404 . S
C725 C724 1.404 . S
C725 C726 1.395 . S
C725 C736 1.451 . S
C726 C725 1.395 . S
C726 C727 1.322 . S
C726 H790 0.930 . S
C727 C726 1.322 . S
C727 C728 1.459 . S
C727 H791 0.929 . S
C728 C727 1.459 . S
C728 C729 1.445 . S
C728 C737 1.395 . S
C729 C707 1.432 . S
C729 C728 1.445 . S
C729 C730 1.370 . S
C730 C729 1.370 . S
C730 C731 1.438 . S
C730 H792 0.930 . S
C731 C717 1.497 . S
C731 C730 1.438 . S
C731 C732 1.360 . S
C732 C731 1.360 . S
C732 C733 1.401 . S
C732 C737 1.446 . S
C733 C732 1.401 . S
C733 C734 1.347 . S
C733 H793 0.929 . S
C734 C733 1.347 . S
C734 C735 1.455 . S
C734 H794 0.930 . S
C735 C722 1.412 . S
C735 C734 1.455 . S
C735 C736 1.331 . S
C736 C725 1.451 . S
C736 C735 1.331 . S
C736 C737 1.497 . S
C737 C728 1.395 . S
C737 C732 1.446 . S
C737 C736 1.497 . S
C738 C739 1.582 . S
C738 H795 0.962 . S
C738 H796 0.959 . S
C738 H797 0.958 . S
C739 C738 1.582 . S
C739 O742 1.458 . S
C739 H768 0.980 . S
O740 C685 1.426 . S
O740 C686 1.334 . S
O741 C713 1.412 . S
O741 C714 1.393 . S
O742 C704 1.435 . S
O742 C739 1.458 . S
O743 C695 1.468 . S
O743 C696 1.408 . S
H744 C685 0.980 . S
H745 C684 0.959 . S
H746 C684 0.959 . S
H747 C684 0.960 . S
H748 C687 0.929 . S
H749 C691 0.929 . S
H750 C692 0.959 . S
H751 C692 0.961 . S
H752 C692 0.961 . S
H753 C693 0.960 . S
H754 C693 0.960 . S
H755 C693 0.961 . S
H756 C695 0.980 . S
H757 C694 0.961 . S
H758 C694 0.960 . S
H759 C694 0.959 . S
H760 C697 0.930 . S
H761 C701 0.931 . S
H762 C702 0.959 . S
H763 C702 0.961 . S
H764 C702 0.959 . S
H765 C703 0.960 . S
H766 C703 0.960 . S
H767 C703 0.960 . S
H768 C739 0.980 . S
H769 C705 0.930 . S
H770 C709 0.930 . S
H771 C710 0.961 . S
H772 C710 0.960 . S
H773 C710 0.958 . S
H774 C711 0.961 . S
H775 C711 0.960 . S
H776 C711 0.960 . S
H777 C713 0.980 . S
H778 C712 0.961 . S
H779 C712 0.961 . S
H780 C712 0.959 . S
H781 C715 0.932 . S
H782 C719 0.929 . S
H783 C720 0.961 . S
H784 C720 0.959 . S
H785 C720 0.959 . S
H786 C721 0.960 . S
H787 C721 0.962 . S
H788 C721 0.961 . S
H789 C723 0.929 . S
H790 C726 0.930 . S
H791 C727 0.929 . S
H792 C730 0.930 . S
H793 C733 0.929 . S
H794 C734 0.930 . S
H795 C738 0.962 . S
H796 C738 0.959 . S
H797 C738 0.958 . S
C798 C799 1.560 . S
C798 H859 0.959 . S
C798 H860 0.959 . S
C798 H861 0.960 . S
C799 C798 1.560 . S
C799 O854 1.426 . S
C799 H858 0.980 . S
C800 C801 1.407 . S
C800 C805 1.418 . S
C800 O854 1.334 . S
C801 C800 1.407 . S
C801 C802 1.360 . S
C801 H862 0.929 . S
C802 C801 1.360 . S
C802 C803 1.401 . S
C802 C806 1.527 . S
C803 C802 1.401 . S
C803 C804 1.405 . S
C803 C836 1.587 . S
C804 C803 1.405 . S
C804 C805 1.332 . S
C804 C807 1.496 . S
C805 C800 1.418 . S
C805 C804 1.332 . S
C805 H863 0.929 . S
C806 C802 1.527 . S
C806 H864 0.959 . S
C806 H865 0.961 . S
C806 H866 0.961 . S
C807 C804 1.496 . S
C807 H867 0.960 . S
C807 H868 0.960 . S
C807 H869 0.961 . S
C808 C809 1.517 . S
C808 H871 0.961 . S
C808 H872 0.960 . S
C808 H873 0.959 . S
C809 C808 1.517 . S
C809 O857 1.468 . S
C809 H870 0.980 . S
C810 C811 1.349 . S
C810 C815 1.367 . S
C810 O857 1.408 . S
C811 C810 1.349 . S
C811 C812 1.407 . S
C811 H874 0.930 . S
C812 C811 1.407 . S
C812 C813 1.449 . S
C812 C816 1.535 . S
C813 C812 1.449 . S
C813 C814 1.384 . S
C813 C838 1.553 . S
C814 C813 1.384 . S
C814 C815 1.364 . S
C814 C817 1.450 . S
C815 C810 1.367 . S
C815 C814 1.364 . S
C815 H875 0.931 . S
C816 C812 1.535 . S
C816 H876 0.959 . S
C816 H877 0.961 . S
C816 H878 0.959 . S
C817 C814 1.450 . S
C817 H879 0.960 . S
C817 H880 0.960 . S
C817 H881 0.960 . S
C818 C819 1.309 . S
C818 C823 1.304 . S
C818 O856 1.435 . S
C819 C818 1.309 . S
C819 C820 1.476 . S
C819 H883 0.930 . S
C820 C819 1.476 . S
C820 C821 1.400 . S
C820 C824 1.567 . S
C821 C820 1.400 . S
C821 C822 1.373 . S
C821 C843 1.432 . S
C822 C821 1.373 . S
C822 C823 1.339 . S
C822 C825 1.530 . S
C823 C818 1.304 . S
C823 C822 1.339 . S
C823 H884 0.930 . S
C824 C820 1.567 . S
C824 H885 0.961 . S
C824 H886 0.960 . S
C824 H887 0.958 . S
C825 C822 1.530 . S
C825 H888 0.961 . S
C825 H889 0.960 . S
C825 H890 0.960 . S
C826 C827 1.530 . S
C826 H892 0.961 . S
C826 H893 0.961 . S
C826 H894 0.959 . S
C827 C826 1.530 . S
C827 O855 1.412 . S
C827 H891 0.980 . S
C828 C829 1.288 . S
C828 C833 1.377 . S
C828 O855 1.393 . S
C829 C828 1.288 . S
C829 C830 1.369 . S
C829 H895 0.932 . S
C830 C829 1.369 . S
C830 C831 1.398 . S
C830 C834 1.527 . S
C831 C830 1.398 . S
C831 C832 1.380 . S
C831 C845 1.497 . S
C832 C831 1.380 . S
C832 C833 1.383 . S
C832 C835 1.603 . S
C833 C828 1.377 . S
C833 C832 1.383 . S
C833 H896 0.929 . S
C834 C830 1.527 . S
C834 H897 0.961 . S
C834 H898 0.959 . S
C834 H899 0.959 . S
C835 C832 1.603 . S
C835 H900 0.960 . S
C835 H901 0.962 . S
C835 H902 0.961 . S
C836 C803 1.587 . S
C836 C837 1.360 . S
C836 C849 1.412 . S
C837 C836 1.360 . S
C837 C838 1.365 . S
C837 H903 0.929 . S
C838 C813 1.553 . S
C838 C837 1.365 . S
C838 C839 1.404 . S
C839 C838 1.404 . S
C839 C840 1.395 . S
C839 C850 1.451 . S
C840 C839 1.395 . S
C840 C841 1.322 . S
C840 H904 0.930 . S
C841 C840 1.322 . S
C841 C842 1.459 . S
C841 H905 0.929 . S
C842 C841 1.459 . S
C842 C843 1.445 . S
C842 C851 1.395 . S
C843 C821 1.432 . S
C843 C842 1.445 . S
C843 C844 1.370 . S
C844 C843 1.370 . S
C844 C845 1.438 . S
C844 H906 0.930 . S
C845 C831 1.497 . S
C845 C844 1.438 . S
C845 C846 1.360 . S
C846 C845 1.360 . S
C846 C847 1.401 . S
C846 C851 1.446 . S
C847 C846 1.401 . S
C847 C848 1.347 . S
C847 H907 0.929 . S
C848 C847 1.347 . S
C848 C849 1.455 . S
C848 H908 0.930 . S
C849 C836 1.412 . S
C849 C848 1.455 . S
C849 C850 1.331 . S
C850 C839 1.451 . S
C850 C849 1.331 . S
C850 C851 1.497 . S
C851 C842 1.395 . S
C851 C846 1.446 . S
C851 C850 1.497 . S
C852 C853 1.582 . S
C852 H909 0.962 . S
C852 H910 0.959 . S
C852 H911 0.958 . S
C853 C852 1.582 . S
C853 O856 1.458 . S
C853 H882 0.980 . S
O854 C799 1.426 . S
O854 C800 1.334 . S
O855 C827 1.412 . S
O855 C828 1.393 . S
O856 C818 1.435 . S
O856 C853 1.458 . S
O857 C809 1.468 . S
O857 C810 1.408 . S
H858 C799 0.980 . S
H859 C798 0.959 . S
H860 C798 0.959 . S
H861 C798 0.960 . S
H862 C801 0.929 . S
H863 C805 0.929 . S
H864 C806 0.959 . S
H865 C806 0.961 . S
H866 C806 0.961 . S
H867 C807 0.960 . S
H868 C807 0.960 . S
H869 C807 0.961 . S
H870 C809 0.980 . S
H871 C808 0.961 . S
H872 C808 0.960 . S
H873 C808 0.959 . S
H874 C811 0.930 . S
H875 C815 0.931 . S
H876 C816 0.959 . S
H877 C816 0.961 . S
H878 C816 0.959 . S
H879 C817 0.960 . S
H880 C817 0.960 . S
H881 C817 0.960 . S
H882 C853 0.980 . S
H883 C819 0.930 . S
H884 C823 0.930 . S
H885 C824 0.961 . S
H886 C824 0.960 . S
H887 C824 0.958 . S
H888 C825 0.961 . S
H889 C825 0.960 . S
H890 C825 0.960 . S
H891 C827 0.980 . S
H892 C826 0.961 . S
H893 C826 0.961 . S
H894 C826 0.959 . S
H895 C829 0.932 . S
H896 C833 0.929 . S
H897 C834 0.961 . S
H898 C834 0.959 . S
H899 C834 0.959 . S
H900 C835 0.960 . S
H901 C835 0.962 . S
H902 C835 0.961 . S
H903 C837 0.929 . S
H904 C840 0.930 . S
H905 C841 0.929 . S
H906 C844 0.930 . S
H907 C847 0.929 . S
H908 C848 0.930 . S
H909 C852 0.962 . S
H910 C852 0.959 . S
H911 C852 0.958 . S
C912 C913 1.443 . S
C912 N916 1.376 . S
C912 C950 1.389 . S
C913 C912 1.443 . S
C913 C914 1.340 . S
C913 H953 0.951 . S
C914 C913 1.340 . S
C914 C915 1.439 . S
C914 H954 0.950 . S
C915 C914 1.439 . S
C915 N916 1.374 . S
C915 C949 1.395 . S
N916 C912 1.376 . S
N916 C915 1.374 . S
N916 Co917 2.008 . S
Co917 N916 2.008 . S
Co917 N918 1.995 1_455 S
Co917 N923 2.008 1_455 S
Co917 N928 1.995 . S
Co917 N933 2.282 1_455 S
Co917 N939 2.282 . S
N918 Co917 1.995 1_655 S
N918 C919 1.376 . S
N918 C922 1.383 . S
C919 N918 1.376 . S
C919 C920 1.446 . S
C919 C949 1.391 1_655 S
C920 C919 1.446 . S
C920 C921 1.339 . S
C920 H955 0.949 . S
C921 C920 1.339 . S
C921 C922 1.439 . S
C921 H956 0.950 . S
C922 N918 1.383 . S
C922 C921 1.439 . S
C922 C951 1.392 . S
N923 Co917 2.008 1_655 S
N923 C924 1.376 . S
N923 C927 1.374 . S
C924 N923 1.376 . S
C924 C925 1.443 . S
C924 C951 1.389 . S
C925 C924 1.443 . S
C925 C926 1.340 . S
C925 H957 0.951 . S
C926 C925 1.340 . S
C926 C927 1.439 . S
C926 H958 0.950 . S
C927 N923 1.374 . S
C927 C926 1.439 . S
C927 C952 1.395 1_655 S
N928 Co917 1.995 . S
N928 C929 1.376 . S
N928 C932 1.383 . S
C929 N928 1.376 . S
C929 C930 1.446 . S
C929 C952 1.391 . S
C930 C929 1.446 . S
C930 C931 1.339 . S
C930 H959 0.949 . S
C931 C930 1.339 . S
C931 C932 1.439 . S
C931 H960 0.950 . S
C932 N928 1.383 . S
C932 C931 1.439 . S
C932 C950 1.392 . S
N933 Co917 2.282 1_655 S
N933 C936 1.332 . S
N933 C938 1.332 . S
C934 C935 1.386 . S
C934 C937 1.388 . S
C935 C934 1.386 . S
C935 C936 1.382 . S
C935 H961 0.950 . S
C936 N933 1.332 . S
C936 C935 1.382 . S
C936 H947 0.952 . S
C937 C934 1.388 . S
C937 C938 1.382 . S
C937 H962 0.950 . S
C938 N933 1.332 . S
C938 C937 1.382 . S
C938 H948 0.948 . S
N939 Co917 2.282 . S
N939 C943 1.332 . S
N939 C944 1.332 . S
C940 C941 1.388 . S
C940 C944 1.382 . S
C940 H963 0.950 . S
C941 C940 1.388 . S
C941 C942 1.386 . S
C942 C941 1.386 . S
C942 C943 1.382 . S
C942 H964 0.950 . S
C943 N939 1.332 . S
C943 C942 1.382 . S
C943 H945 0.952 . S
C944 N939 1.332 . S
C944 C940 1.382 . S
C944 H946 0.948 . S
H945 C943 0.952 . S
H946 C944 0.948 . S
H947 C936 0.952 . S
H948 C938 0.948 . S
C949 C915 1.395 . S
C949 C919 1.391 1_455 S
C950 C912 1.389 . S
C950 C932 1.392 . S
C951 C922 1.392 . S
C951 C924 1.389 . S
C952 C927 1.395 1_455 S
C952 C929 1.391 . S
H953 C913 0.951 . S
H954 C914 0.950 . S
H955 C920 0.949 . S
H956 C921 0.950 . S
H957 C925 0.951 . S
H958 C926 0.950 . S
H959 C930 0.949 . S
H960 C931 0.950 . S
H961 C935 0.950 . S
H962 C937 0.950 . S
H963 C940 0.950 . S
H964 C942 0.950 . S
C965 C966 1.443 . S
C965 N969 1.376 . S
C965 C1003 1.389 . S
C966 C965 1.443 . S
C966 C967 1.340 . S
C966 H1006 0.951 . S
C967 C966 1.340 . S
C967 C968 1.439 . S
C967 H1007 0.950 . S
C968 C967 1.439 . S
C968 N969 1.374 . S
C968 C1002 1.395 . S
N969 C965 1.376 . S
N969 C968 1.374 . S
N969 Co970 2.008 . S
Co970 N969 2.008 . S
Co970 N971 1.995 1_545 S
Co970 N976 2.008 1_545 S
Co970 N981 1.995 . S
Co970 N986 2.282 1_545 S
Co970 N992 2.282 . S
N971 Co970 1.995 1_565 S
N971 C972 1.376 . S
N971 C975 1.383 . S
C972 N971 1.376 . S
C972 C973 1.446 . S
C972 C1002 1.391 1_565 S
C973 C972 1.446 . S
C973 C974 1.339 . S
C973 H1008 0.949 . S
C974 C973 1.339 . S
C974 C975 1.439 . S
C974 H1009 0.950 . S
C975 N971 1.383 . S
C975 C974 1.439 . S
C975 C1004 1.392 . S
N976 Co970 2.008 1_565 S
N976 C977 1.376 . S
N976 C980 1.374 . S
C977 N976 1.376 . S
C977 C978 1.443 . S
C977 C1004 1.389 . S
C978 C977 1.443 . S
C978 C979 1.340 . S
C978 H1010 0.951 . S
C979 C978 1.340 . S
C979 C980 1.439 . S
C979 H1011 0.950 . S
C980 N976 1.374 . S
C980 C979 1.439 . S
C980 C1005 1.395 1_565 S
N981 Co970 1.995 . S
N981 C982 1.376 . S
N981 C985 1.383 . S
C982 N981 1.376 . S
C982 C983 1.446 . S
C982 C1005 1.391 . S
C983 C982 1.446 . S
C983 C984 1.339 . S
C983 H1012 0.949 . S
C984 C983 1.339 . S
C984 C985 1.439 . S
C984 H1013 0.950 . S
C985 N981 1.383 . S
C985 C984 1.439 . S
C985 C1003 1.392 . S
N986 Co970 2.282 1_565 S
N986 C989 1.332 . S
N986 C991 1.332 . S
C987 C988 1.386 . S
C987 C990 1.388 . S
C988 C987 1.386 . S
C988 C989 1.382 . S
C988 H1014 0.950 . S
C989 N986 1.332 . S
C989 C988 1.382 . S
C989 H1000 0.952 . S
C990 C987 1.388 . S
C990 C991 1.382 . S
C990 H1015 0.950 . S
C991 N986 1.332 . S
C991 C990 1.382 . S
C991 H1001 0.948 . S
N992 Co970 2.282 . S
N992 C996 1.332 . S
N992 C997 1.332 . S
C993 C994 1.388 . S
C993 C997 1.382 . S
C993 H1016 0.950 . S
C994 C993 1.388 . S
C994 C995 1.386 . S
C995 C994 1.386 . S
C995 C996 1.382 . S
C995 H1017 0.950 . S
C996 N992 1.332 . S
C996 C995 1.382 . S
C996 H998 0.952 . S
C997 N992 1.332 . S
C997 C993 1.382 . S
C997 H999 0.948 . S
H998 C996 0.952 . S
H999 C997 0.948 . S
H1000 C989 0.952 . S
H1001 C991 0.948 . S
C1002 C968 1.395 . S
C1002 C972 1.391 1_545 S
C1003 C965 1.389 . S
C1003 C985 1.392 . S
C1004 C975 1.392 . S
C1004 C977 1.389 . S
C1005 C980 1.395 1_545 S
C1005 C982 1.391 . S
H1006 C966 0.951 . S
H1007 C967 0.950 . S
H1008 C973 0.949 . S
H1009 C974 0.950 . S
H1010 C978 0.951 . S
H1011 C979 0.950 . S
H1012 C983 0.949 . S
H1013 C984 0.950 . S
H1014 C988 0.950 . S
H1015 C990 0.950 . S
H1016 C993 0.950 . S
H1017 C995 0.950 . S
C1018 C1019 1.443 . S
C1018 N1022 1.376 . S
C1018 C1056 1.389 . S
C1019 C1018 1.443 . S
C1019 C1020 1.340 . S
C1019 H1059 0.951 . S
C1020 C1019 1.340 . S
C1020 C1021 1.439 . S
C1020 H1060 0.950 . S
C1021 C1020 1.439 . S
C1021 N1022 1.374 . S
C1021 C1055 1.395 . S
N1022 C1018 1.376 . S
N1022 C1021 1.374 . S
N1022 Co1023 2.008 . S
Co1023 N1022 2.008 . S
Co1023 N1024 1.995 1_455 S
Co1023 N1029 2.008 1_455 S
Co1023 N1034 1.995 . S
Co1023 N1039 2.282 1_455 S
Co1023 N1045 2.282 . S
N1024 Co1023 1.995 1_655 S
N1024 C1025 1.376 . S
N1024 C1028 1.383 . S
C1025 N1024 1.376 . S
C1025 C1026 1.446 . S
C1025 C1055 1.391 1_655 S
C1026 C1025 1.446 . S
C1026 C1027 1.339 . S
C1026 H1061 0.949 . S
C1027 C1026 1.339 . S
C1027 C1028 1.439 . S
C1027 H1062 0.950 . S
C1028 N1024 1.383 . S
C1028 C1027 1.439 . S
C1028 C1057 1.392 . S
N1029 Co1023 2.008 1_655 S
N1029 C1030 1.376 . S
N1029 C1033 1.374 . S
C1030 N1029 1.376 . S
C1030 C1031 1.443 . S
C1030 C1057 1.389 . S
C1031 C1030 1.443 . S
C1031 C1032 1.340 . S
C1031 H1063 0.951 . S
C1032 C1031 1.340 . S
C1032 C1033 1.439 . S
C1032 H1064 0.950 . S
C1033 N1029 1.374 . S
C1033 C1032 1.439 . S
C1033 C1058 1.395 1_655 S
N1034 Co1023 1.995 . S
N1034 C1035 1.376 . S
N1034 C1038 1.383 . S
C1035 N1034 1.376 . S
C1035 C1036 1.446 . S
C1035 C1058 1.391 . S
C1036 C1035 1.446 . S
C1036 C1037 1.339 . S
C1036 H1065 0.949 . S
C1037 C1036 1.339 . S
C1037 C1038 1.439 . S
C1037 H1066 0.950 . S
C1038 N1034 1.383 . S
C1038 C1037 1.439 . S
C1038 C1056 1.392 . S
N1039 Co1023 2.282 1_655 S
N1039 C1042 1.332 . S
N1039 C1044 1.332 . S
C1040 C1041 1.386 . S
C1040 C1043 1.388 . S
C1041 C1040 1.386 . S
C1041 C1042 1.382 . S
C1041 H1067 0.950 . S
C1042 N1039 1.332 . S
C1042 C1041 1.382 . S
C1042 H1053 0.952 . S
C1043 C1040 1.388 . S
C1043 C1044 1.382 . S
C1043 H1068 0.950 . S
C1044 N1039 1.332 . S
C1044 C1043 1.382 . S
C1044 H1054 0.948 . S
N1045 Co1023 2.282 . S
N1045 C1049 1.332 . S
N1045 C1050 1.332 . S
C1046 C1047 1.388 . S
C1046 C1050 1.382 . S
C1046 H1069 0.950 . S
C1047 C1046 1.388 . S
C1047 C1048 1.386 . S
C1048 C1047 1.386 . S
C1048 C1049 1.382 . S
C1048 H1070 0.950 . S
C1049 N1045 1.332 . S
C1049 C1048 1.382 . S
C1049 H1051 0.952 . S
C1050 N1045 1.332 . S
C1050 C1046 1.382 . S
C1050 H1052 0.948 . S
H1051 C1049 0.952 . S
H1052 C1050 0.948 . S
H1053 C1042 0.952 . S
H1054 C1044 0.948 . S
C1055 C1021 1.395 . S
C1055 C1025 1.391 1_455 S
C1056 C1018 1.389 . S
C1056 C1038 1.392 . S
C1057 C1028 1.392 . S
C1057 C1030 1.389 . S
C1058 C1033 1.395 1_455 S
C1058 C1035 1.391 . S
H1059 C1019 0.951 . S
H1060 C1020 0.950 . S
H1061 C1026 0.949 . S
H1062 C1027 0.950 . S
H1063 C1031 0.951 . S
H1064 C1032 0.950 . S
H1065 C1036 0.949 . S
H1066 C1037 0.950 . S
H1067 C1041 0.950 . S
H1068 C1043 0.950 . S
H1069 C1046 0.950 . S
H1070 C1048 0.950 . S
C1071 C1072 1.443 . S
C1071 N1075 1.376 . S
C1071 C1109 1.389 . S
C1072 C1071 1.443 . S
C1072 C1073 1.340 . S
C1072 H1112 0.951 . S
C1073 C1072 1.340 . S
C1073 C1074 1.439 . S
C1073 H1113 0.950 . S
C1074 C1073 1.439 . S
C1074 N1075 1.374 . S
C1074 C1108 1.395 1_565 S
N1075 C1071 1.376 . S
N1075 C1074 1.374 . S
N1075 Co1076 2.008 1_565 S
Co1076 N1075 2.008 1_545 S
Co1076 N1077 1.995 . S
Co1076 N1082 2.008 . S
Co1076 N1087 1.995 1_545 S
Co1076 N1092 2.282 . S
Co1076 N1098 2.282 1_545 S
N1077 Co1076 1.995 . S
N1077 C1078 1.376 . S
N1077 C1081 1.383 . S
C1078 N1077 1.376 . S
C1078 C1079 1.446 . S
C1078 C1108 1.391 . S
C1079 C1078 1.446 . S
C1079 C1080 1.339 . S
C1079 H1114 0.949 . S
C1080 C1079 1.339 . S
C1080 C1081 1.439 . S
C1080 H1115 0.950 . S
C1081 N1077 1.383 . S
C1081 C1080 1.439 . S
C1081 C1110 1.392 . S
N1082 Co1076 2.008 . S
N1082 C1083 1.376 . S
N1082 C1086 1.374 . S
C1083 N1082 1.376 . S
C1083 C1084 1.443 . S
C1083 C1110 1.389 . S
C1084 C1083 1.443 . S
C1084 C1085 1.340 . S
C1084 H1116 0.951 . S
C1085 C1084 1.340 . S
C1085 C1086 1.439 . S
C1085 H1117 0.950 . S
C1086 N1082 1.374 . S
C1086 C1085 1.439 . S
C1086 C1111 1.395 . S
N1087 Co1076 1.995 1_565 S
N1087 C1088 1.376 . S
N1087 C1091 1.383 . S
C1088 N1087 1.376 . S
C1088 C1089 1.446 . S
C1088 C1111 1.391 1_565 S
C1089 C1088 1.446 . S
C1089 C1090 1.339 . S
C1089 H1118 0.949 . S
C1090 C1089 1.339 . S
C1090 C1091 1.439 . S
C1090 H1119 0.950 . S
C1091 N1087 1.383 . S
C1091 C1090 1.439 . S
C1091 C1109 1.392 . S
N1092 Co1076 2.282 . S
N1092 C1095 1.332 . S
N1092 C1097 1.332 . S
C1093 C1094 1.386 . S
C1093 C1096 1.388 . S
C1094 C1093 1.386 . S
C1094 C1095 1.382 . S
C1094 H1120 0.950 . S
C1095 N1092 1.332 . S
C1095 C1094 1.382 . S
C1095 H1106 0.952 . S
C1096 C1093 1.388 . S
C1096 C1097 1.382 . S
C1096 H1121 0.950 . S
C1097 N1092 1.332 . S
C1097 C1096 1.382 . S
C1097 H1107 0.948 . S
N1098 Co1076 2.282 1_565 S
N1098 C1102 1.332 . S
N1098 C1103 1.332 . S
C1099 C1100 1.388 . S
C1099 C1103 1.382 . S
C1099 H1122 0.950 . S
C1100 C1099 1.388 . S
C1100 C1101 1.386 . S
C1101 C1100 1.386 . S
C1101 C1102 1.382 . S
C1101 H1123 0.950 . S
C1102 N1098 1.332 . S
C1102 C1101 1.382 . S
C1102 H1104 0.952 . S
C1103 N1098 1.332 . S
C1103 C1099 1.382 . S
C1103 H1105 0.948 . S
H1104 C1102 0.952 . S
H1105 C1103 0.948 . S
H1106 C1095 0.952 . S
H1107 C1097 0.948 . S
C1108 C1074 1.395 1_545 S
C1108 C1078 1.391 . S
C1109 C1071 1.389 . S
C1109 C1091 1.392 . S
C1110 C1081 1.392 . S
C1110 C1083 1.389 . S
C1111 C1086 1.395 . S
C1111 C1088 1.391 1_545 S
H1112 C1072 0.951 . S
H1113 C1073 0.950 . S
H1114 C1079 0.949 . S
H1115 C1080 0.950 . S
H1116 C1084 0.951 . S
H1117 C1085 0.950 . S
H1118 C1089 0.949 . S
H1119 C1090 0.950 . S
H1120 C1094 0.950 . S
H1121 C1096 0.950 . S
H1122 C1099 0.950 . S
H1123 C1101 0.950 . S
C1124 C1125 1.443 . S
C1124 N1128 1.376 . S
C1124 C1162 1.389 . S
C1125 C1124 1.443 . S
C1125 C1126 1.340 . S
C1125 H1165 0.951 . S
C1126 C1125 1.340 . S
C1126 C1127 1.439 . S
C1126 H1166 0.950 . S
C1127 C1126 1.439 . S
C1127 N1128 1.374 . S
C1127 C1161 1.395 1_554 S
N1128 C1124 1.376 . S
N1128 C1127 1.374 . S
N1128 Co1129 2.022 . S
Co1129 N1128 2.022 . S
Co1129 N1130 1.978 1_554 S
Co1129 N1135 1.994 1_554 S
Co1129 N1140 2.012 . S
Co1129 N1145 2.305 . S
Co1129 N1151 2.260 1_554 S
N1130 Co1129 1.978 1_556 S
N1130 C1131 1.376 . S
N1130 C1134 1.383 . S
C1131 N1130 1.376 . S
C1131 C1132 1.446 . S
C1131 C1161 1.391 . S
C1132 C1131 1.446 . S
C1132 C1133 1.339 . S
C1132 H1167 0.949 . S
C1133 C1132 1.339 . S
C1133 C1134 1.439 . S
C1133 H1168 0.950 . S
C1134 N1130 1.383 . S
C1134 C1133 1.439 . S
C1134 C1163 1.392 . S
N1135 Co1129 1.994 1_556 S
N1135 C1136 1.376 . S
N1135 C1139 1.374 . S
C1136 N1135 1.376 . S
C1136 C1137 1.443 . S
C1136 C1163 1.389 . S
C1137 C1136 1.443 . S
C1137 C1138 1.340 . S
C1137 H1169 0.951 . S
C1138 C1137 1.340 . S
C1138 C1139 1.439 . S
C1138 H1170 0.950 . S
C1139 N1135 1.374 . S
C1139 C1138 1.439 . S
C1139 C1164 1.395 1_556 S
N1140 Co1129 2.012 . S
N1140 C1141 1.376 . S
N1140 C1144 1.383 . S
C1141 N1140 1.376 . S
C1141 C1142 1.446 . S
C1141 C1164 1.391 . S
C1142 C1141 1.446 . S
C1142 C1143 1.339 . S
C1142 H1171 0.949 . S
C1143 C1142 1.339 . S
C1143 C1144 1.439 . S
C1143 H1172 0.950 . S
C1144 N1140 1.383 . S
C1144 C1143 1.439 . S
C1144 C1162 1.392 . S
N1145 Co1129 2.305 . S
N1145 C1148 1.332 . S
N1145 C1150 1.332 . S
C1146 C1147 1.386 . S
C1146 C1149 1.388 . S
C1147 C1146 1.386 . S
C1147 C1148 1.382 . S
C1147 H1173 0.950 . S
C1148 N1145 1.332 . S
C1148 C1147 1.382 . S
C1148 H1159 0.952 . S
C1149 C1146 1.388 . S
C1149 C1150 1.382 . S
C1149 H1174 0.950 . S
C1150 N1145 1.332 . S
C1150 C1149 1.382 . S
C1150 H1160 0.948 . S
N1151 Co1129 2.260 1_556 S
N1151 C1155 1.332 . S
N1151 C1156 1.332 . S
C1152 C1153 1.388 . S
C1152 C1156 1.382 . S
C1152 H1175 0.950 . S
C1153 C1152 1.388 . S
C1153 C1154 1.386 . S
C1154 C1153 1.386 . S
C1154 C1155 1.382 . S
C1154 H1176 0.950 . S
C1155 N1151 1.332 . S
C1155 C1154 1.382 . S
C1155 H1157 0.952 . S
C1156 N1151 1.332 . S
C1156 C1152 1.382 . S
C1156 H1158 0.948 . S
H1157 C1155 0.952 . S
H1158 C1156 0.948 . S
H1159 C1148 0.952 . S
H1160 C1150 0.948 . S
C1161 C1127 1.395 1_556 S
C1161 C1131 1.391 . S
C1162 C1124 1.389 . S
C1162 C1144 1.392 . S
C1163 C1134 1.392 . S
C1163 C1136 1.389 . S
C1164 C1139 1.395 1_554 S
C1164 C1141 1.391 . S
H1165 C1125 0.951 . S
H1166 C1126 0.950 . S
H1167 C1132 0.949 . S
H1168 C1133 0.950 . S
H1169 C1137 0.951 . S
H1170 C1138 0.950 . S
H1171 C1142 0.949 . S
H1172 C1143 0.950 . S
H1173 C1147 0.950 . S
H1174 C1149 0.950 . S
H1175 C1152 0.950 . S
H1176 C1154 0.950 . S
C1177 C1178 1.443 . S
C1177 N1181 1.376 . S
C1177 C1215 1.389 . S
C1178 C1177 1.443 . S
C1178 C1179 1.340 . S
C1178 H1218 0.951 . S
C1179 C1178 1.340 . S
C1179 C1180 1.439 . S
C1179 H1219 0.950 . S
C1180 C1179 1.439 . S
C1180 N1181 1.374 . S
C1180 C1214 1.395 . S
N1181 C1177 1.376 . S
N1181 C1180 1.374 . S
N1181 Co1182 2.008 . S
Co1182 N1181 2.008 . S
Co1182 N1183 1.995 1_554 S
Co1182 N1188 2.008 . S
Co1182 N1193 1.995 . S
Co1182 N1198 2.282 . S
Co1182 N1204 2.282 1_554 S
N1183 Co1182 1.995 1_556 S
N1183 C1184 1.376 . S
N1183 C1187 1.383 . S
C1184 N1183 1.376 . S
C1184 C1185 1.446 . S
C1184 C1214 1.391 1_556 S
C1185 C1184 1.446 . S
C1185 C1186 1.339 . S
C1185 H1220 0.949 . S
C1186 C1185 1.339 . S
C1186 C1187 1.439 . S
C1186 H1221 0.950 . S
C1187 N1183 1.383 . S
C1187 C1186 1.439 . S
C1187 C1216 1.392 . S
N1188 Co1182 2.008 . S
N1188 C1189 1.376 1_554 S
N1188 C1192 1.374 . S
C1189 N1188 1.376 1_556 S
C1189 C1190 1.443 . S
C1189 C1216 1.389 . S
C1190 C1189 1.443 . S
C1190 C1191 1.340 . S
C1190 H1222 0.951 . S
C1191 C1190 1.340 . S
C1191 C1192 1.439 1_556 S
C1191 H1223 0.950 . S
C1192 N1188 1.374 . S
C1192 C1191 1.439 1_554 S
C1192 C1217 1.395 . S
N1193 Co1182 1.995 . S
N1193 C1194 1.376 . S
N1193 C1197 1.383 . S
C1194 N1193 1.376 . S
C1194 C1195 1.446 . S
C1194 C1217 1.391 . S
C1195 C1194 1.446 . S
C1195 C1196 1.339 . S
C1195 H1224 0.949 . S
C1196 C1195 1.339 . S
C1196 C1197 1.439 . S
C1196 H1225 0.950 . S
C1197 N1193 1.383 . S
C1197 C1196 1.439 . S
C1197 C1215 1.392 . S
N1198 Co1182 2.282 . S
N1198 C1201 1.332 . S
N1198 C1203 1.332 . S
C1199 C1200 1.386 . S
C1199 C1202 1.388 . S
C1200 C1199 1.386 . S
C1200 C1201 1.382 . S
C1200 H1226 0.950 . S
C1201 N1198 1.332 . S
C1201 C1200 1.382 . S
C1201 H1212 0.952 . S
C1202 C1199 1.388 . S
C1202 C1203 1.382 . S
C1202 H1227 0.950 . S
C1203 N1198 1.332 . S
C1203 C1202 1.382 . S
C1203 H1213 0.948 . S
N1204 Co1182 2.282 1_556 S
N1204 C1208 1.332 . S
N1204 C1209 1.332 . S
C1205 C1206 1.388 . S
C1205 C1209 1.382 . S
C1205 H1228 0.950 . S
C1206 C1205 1.388 . S
C1206 C1207 1.386 . S
C1207 C1206 1.386 . S
C1207 C1208 1.382 . S
C1207 H1229 0.950 . S
C1208 N1204 1.332 . S
C1208 C1207 1.382 . S
C1208 H1210 0.952 . S
C1209 N1204 1.332 . S
C1209 C1205 1.382 . S
C1209 H1211 0.948 . S
H1210 C1208 0.952 . S
H1211 C1209 0.948 . S
H1212 C1201 0.952 . S
H1213 C1203 0.948 . S
C1214 C1180 1.395 . S
C1214 C1184 1.391 1_554 S
C1215 C1177 1.389 . S
C1215 C1197 1.392 . S
C1216 C1187 1.392 . S
C1216 C1189 1.389 . S
C1217 C1192 1.395 . S
C1217 C1194 1.391 . S
H1218 C1178 0.951 . S
H1219 C1179 0.950 . S
H1220 C1185 0.949 . S
H1221 C1186 0.950 . S
H1222 C1190 0.951 . S
H1223 C1191 0.950 . S
H1224 C1195 0.949 . S
H1225 C1196 0.950 . S
H1226 C1200 0.950 . S
H1227 C1202 0.950 . S
H1228 C1205 0.950 . S
H1229 C1207 0.950 . S
C1230 C1231 1.443 . S
C1230 N1234 1.368 1_556 S
C1230 C1268 1.389 . S
C1231 C1230 1.443 . S
C1231 C1232 1.340 . S
C1231 H1271 0.951 . S
C1232 C1231 1.340 . S
C1232 C1233 1.439 1_556 S
C1232 H1272 0.950 . S
C1233 C1232 1.439 1_554 S
C1233 N1234 1.377 . S
C1233 C1267 1.395 . S
N1234 C1230 1.368 1_554 S
N1234 C1233 1.377 . S
N1234 Co1235 2.014 . S
Co1235 N1234 2.014 . S
Co1235 N1236 1.995 . S
Co1235 N1241 2.008 . S
Co1235 N1246 1.995 1_554 S
Co1235 N1251 2.282 1_554 S
Co1235 N1257 2.282 . S
N1236 Co1235 1.995 . S
N1236 C1237 1.376 . S
N1236 C1240 1.383 . S
C1237 N1236 1.376 . S
C1237 C1238 1.446 . S
C1237 C1267 1.391 . S
C1238 C1237 1.446 . S
C1238 C1239 1.339 . S
C1238 H1273 0.949 . S
C1239 C1238 1.339 . S
C1239 C1240 1.439 . S
C1239 H1274 0.950 . S
C1240 N1236 1.383 . S
C1240 C1239 1.439 . S
C1240 C1269 1.392 . S
N1241 Co1235 2.008 . S
N1241 C1242 1.376 . S
N1241 C1245 1.374 . S
C1242 N1241 1.376 . S
C1242 C1243 1.443 . S
C1242 C1269 1.389 . S
C1243 C1242 1.443 . S
C1243 C1244 1.340 . S
C1243 H1275 0.951 . S
C1244 C1243 1.340 . S
C1244 C1245 1.439 . S
C1244 H1276 0.950 . S
C1245 N1241 1.374 . S
C1245 C1244 1.439 . S
C1245 C1270 1.395 . S
N1246 Co1235 1.995 1_556 S
N1246 C1247 1.376 . S
N1246 C1250 1.383 . S
C1247 N1246 1.376 . S
C1247 C1248 1.446 . S
C1247 C1270 1.391 1_556 S
C1248 C1247 1.446 . S
C1248 C1249 1.339 . S
C1248 H1277 0.949 . S
C1249 C1248 1.339 . S
C1249 C1250 1.439 . S
C1249 H1278 0.950 . S
C1250 N1246 1.383 . S
C1250 C1249 1.439 . S
C1250 C1268 1.392 . S
N1251 Co1235 2.282 1_556 S
N1251 C1254 1.332 . S
N1251 C1256 1.332 . S
C1252 C1253 1.386 . S
C1252 C1255 1.388 . S
C1253 C1252 1.386 . S
C1253 C1254 1.382 . S
C1253 H1279 0.950 . S
C1254 N1251 1.332 . S
C1254 C1253 1.382 . S
C1254 H1265 0.952 . S
C1255 C1252 1.388 . S
C1255 C1256 1.382 . S
C1255 H1280 0.950 . S
C1256 N1251 1.332 . S
C1256 C1255 1.382 . S
C1256 H1266 0.948 . S
N1257 Co1235 2.282 . S
N1257 C1261 1.332 . S
N1257 C1262 1.332 . S
C1258 C1259 1.388 . S
C1258 C1262 1.382 . S
C1258 H1281 0.950 . S
C1259 C1258 1.388 . S
C1259 C1260 1.386 . S
C1260 C1259 1.386 . S
C1260 C1261 1.382 . S
C1260 H1282 0.950 . S
C1261 N1257 1.332 . S
C1261 C1260 1.382 . S
C1261 H1263 0.952 . S
C1262 N1257 1.332 . S
C1262 C1258 1.382 . S
C1262 H1264 0.948 . S
H1263 C1261 0.952 . S
H1264 C1262 0.948 . S
H1265 C1254 0.952 . S
H1266 C1256 0.948 . S
C1267 C1233 1.395 . S
C1267 C1237 1.391 . S
C1268 C1230 1.389 . S
C1268 C1250 1.392 . S
C1269 C1240 1.392 . S
C1269 C1242 1.389 . S
C1270 C1245 1.395 . S
C1270 C1247 1.391 1_554 S
H1271 C1231 0.951 . S
H1272 C1232 0.950 . S
H1273 C1238 0.949 . S
H1274 C1239 0.950 . S
H1275 C1243 0.951 . S
H1276 C1244 0.950 . S
H1277 C1248 0.949 . S
H1278 C1249 0.950 . S
H1279 C1253 0.950 . S
H1280 C1255 0.950 . S
H1281 C1258 0.950 . S
H1282 C1260 0.950 . S
C1283 C1284 1.443 . S
C1283 N1287 1.376 . S
C1283 C1321 1.389 . S
C1284 C1283 1.443 . S
C1284 C1285 1.340 . S
C1284 H1324 0.951 . S
C1285 C1284 1.340 . S
C1285 C1286 1.439 . S
C1285 H1325 0.950 . S
C1286 C1285 1.439 . S
C1286 N1287 1.374 . S
C1286 C1320 1.395 . S
N1287 C1283 1.376 . S
N1287 C1286 1.374 . S
N1287 Co1288 2.008 . S
Co1288 N1287 2.008 . S
Co1288 N1289 1.995 1_554 S
Co1288 N1294 2.008 . S
Co1288 N1299 1.995 . S
Co1288 N1304 2.282 . S
Co1288 N1310 2.282 1_554 S
N1289 Co1288 1.995 1_556 S
N1289 C1290 1.376 . S
N1289 C1293 1.383 . S
C1290 N1289 1.376 . S
C1290 C1291 1.446 . S
C1290 C1320 1.391 1_556 S
C1291 C1290 1.446 . S
C1291 C1292 1.339 . S
C1291 H1326 0.949 . S
C1292 C1291 1.339 . S
C1292 C1293 1.439 . S
C1292 H1327 0.950 . S
C1293 N1289 1.383 . S
C1293 C1292 1.439 . S
C1293 C1322 1.392 . S
N1294 Co1288 2.008 . S
N1294 C1295 1.376 1_554 S
N1294 C1298 1.374 . S
C1295 N1294 1.376 1_556 S
C1295 C1296 1.443 . S
C1295 C1322 1.389 . S
C1296 C1295 1.443 . S
C1296 C1297 1.340 . S
C1296 H1328 0.951 . S
C1297 C1296 1.340 . S
C1297 C1298 1.439 1_556 S
C1297 H1329 0.950 . S
C1298 N1294 1.374 . S
C1298 C1297 1.439 1_554 S
C1298 C1323 1.395 . S
N1299 Co1288 1.995 . S
N1299 C1300 1.376 . S
N1299 C1303 1.383 . S
C1300 N1299 1.376 . S
C1300 C1301 1.446 . S
C1300 C1323 1.391 . S
C1301 C1300 1.446 . S
C1301 C1302 1.339 . S
C1301 H1330 0.949 . S
C1302 C1301 1.339 . S
C1302 C1303 1.439 . S
C1302 H1331 0.950 . S
C1303 N1299 1.383 . S
C1303 C1302 1.439 . S
C1303 C1321 1.392 . S
N1304 Co1288 2.282 . S
N1304 C1307 1.332 . S
N1304 C1309 1.332 . S
C1305 C1306 1.386 . S
C1305 C1308 1.388 . S
C1306 C1305 1.386 . S
C1306 C1307 1.382 . S
C1306 H1332 0.950 . S
C1307 N1304 1.332 . S
C1307 C1306 1.382 . S
C1307 H1318 0.952 . S
C1308 C1305 1.388 . S
C1308 C1309 1.382 . S
C1308 H1333 0.950 . S
C1309 N1304 1.332 . S
C1309 C1308 1.382 . S
C1309 H1319 0.948 . S
N1310 Co1288 2.282 1_556 S
N1310 C1314 1.332 . S
N1310 C1315 1.332 . S
C1311 C1312 1.388 . S
C1311 C1315 1.382 . S
C1311 H1334 0.950 . S
C1312 C1311 1.388 . S
C1312 C1313 1.386 . S
C1313 C1312 1.386 . S
C1313 C1314 1.382 . S
C1313 H1335 0.950 . S
C1314 N1310 1.332 . S
C1314 C1313 1.382 . S
C1314 H1316 0.952 . S
C1315 N1310 1.332 . S
C1315 C1311 1.382 . S
C1315 H1317 0.948 . S
H1316 C1314 0.952 . S
H1317 C1315 0.948 . S
H1318 C1307 0.952 . S
H1319 C1309 0.948 . S
C1320 C1286 1.395 . S
C1320 C1290 1.391 1_554 S
C1321 C1283 1.389 . S
C1321 C1303 1.392 . S
C1322 C1293 1.392 . S
C1322 C1295 1.389 . S
C1323 C1298 1.395 . S
C1323 C1300 1.391 . S
H1324 C1284 0.951 . S
H1325 C1285 0.950 . S
H1326 C1291 0.949 . S
H1327 C1292 0.950 . S
H1328 C1296 0.951 . S
H1329 C1297 0.950 . S
H1330 C1301 0.949 . S
H1331 C1302 0.950 . S
H1332 C1306 0.950 . S
H1333 C1308 0.950 . S
H1334 C1311 0.950 . S
H1335 C1313 0.950 . S
H1336 C1344 0.929 . S
H1337 C1346 0.930 . S
H1338 C1348 0.930 . S
H1339 C1351 0.929 . S
H1340 C1354 0.930 . S
H1341 C1356 0.960 . S
H1342 C1356 0.960 . S
H1343 C1356 0.960 . S
C1344 H1336 0.929 . S
C1344 C1345 1.377 . S
C1344 C1346 1.384 . S
C1345 C1344 1.377 . S
C1345 C1351 1.390 . S
C1346 H1337 0.930 . S
C1346 C1344 1.384 . S
C1346 C1347 1.372 . S
C1347 C1346 1.372 . S
C1347 C1348 1.400 . S
C1347 C1352 1.490 . S
C1348 H1338 0.930 . S
C1348 C1347 1.400 . S
C1348 C1351 1.386 . S
H1349 C1365 0.930 . S
H1350 C1366 0.931 . S
C1351 H1339 0.929 . S
C1351 C1345 1.390 . S
C1351 C1348 1.386 . S
C1352 C1347 1.490 . S
C1352 C1354 1.395 . S
C1352 C1355 1.403 . S
H1353 C1359 0.930 . S
C1354 H1340 0.930 . S
C1354 C1352 1.395 . S
C1354 C1357 1.403 . S
C1355 C1352 1.403 . S
C1355 C1356 1.524 . S
C1355 C1359 1.400 . S
C1356 H1341 0.960 . S
C1356 H1342 0.960 . S
C1356 H1343 0.960 . S
C1356 C1355 1.524 . S
C1357 C1354 1.403 . S
C1357 C1358 1.392 . S
C1357 C1361 1.495 . S
C1358 C1357 1.392 . S
C1358 C1359 1.385 . S
C1358 C1360 1.478 . S
C1359 H1353 0.930 . S
C1359 C1355 1.400 . S
C1359 C1358 1.385 . S
C1360 C1358 1.478 . S
C1360 C1362 1.381 . S
C1360 C1366 1.383 . S
C1361 C1357 1.495 . S
C1361 H1367 0.959 . S
C1361 H1368 0.961 . S
C1361 H1369 0.960 . S
C1362 C1360 1.381 . S
C1362 C1363 1.394 . S
C1362 H1370 0.930 . S
C1363 C1362 1.394 . S
C1363 C1364 1.383 . S
C1363 H1371 0.929 . S
C1364 C1363 1.383 . S
C1364 C1365 1.377 . S
C1365 H1349 0.930 . S
C1365 C1364 1.377 . S
C1365 C1366 1.379 . S
C1366 H1350 0.931 . S
C1366 C1360 1.383 . S
C1366 C1365 1.379 . S
H1367 C1361 0.959 . S
H1368 C1361 0.961 . S
H1369 C1361 0.960 . S
H1370 C1362 0.930 . S
H1371 C1363 0.929 . S
H1372 C1380 0.929 . S
H1373 C1382 0.930 . S
H1374 C1384 0.930 . S
H1375 C1387 0.929 . S
H1376 C1390 0.930 . S
H1377 C1392 0.960 . S
H1378 C1392 0.960 . S
H1379 C1392 0.960 . S
C1380 H1372 0.929 . S
C1380 C1381 1.377 . S
C1380 C1382 1.384 . S
C1381 C1380 1.377 . S
C1381 C1387 1.390 . S
C1382 H1373 0.930 . S
C1382 C1380 1.384 . S
C1382 C1383 1.372 . S
C1383 C1382 1.372 . S
C1383 C1384 1.400 . S
C1383 C1388 1.490 . S
C1384 H1374 0.930 . S
C1384 C1383 1.400 . S
C1384 C1387 1.386 . S
H1385 C1401 0.930 . S
H1386 C1402 0.931 . S
C1387 H1375 0.929 . S
C1387 C1381 1.390 . S
C1387 C1384 1.386 . S
C1388 C1383 1.490 . S
C1388 C1390 1.395 . S
C1388 C1391 1.403 . S
H1389 C1395 0.930 . S
C1390 H1376 0.930 . S
C1390 C1388 1.395 . S
C1390 C1393 1.403 . S
C1391 C1388 1.403 . S
C1391 C1392 1.524 . S
C1391 C1395 1.400 . S
C1392 H1377 0.960 . S
C1392 H1378 0.960 . S
C1392 H1379 0.960 . S
C1392 C1391 1.524 . S
C1393 C1390 1.403 . S
C1393 C1394 1.392 . S
C1393 C1397 1.495 . S
C1394 C1393 1.392 . S
C1394 C1395 1.385 . S
C1394 C1396 1.478 . S
C1395 H1389 0.930 . S
C1395 C1391 1.400 . S
C1395 C1394 1.385 . S
C1396 C1394 1.478 . S
C1396 C1398 1.381 . S
C1396 C1402 1.383 . S
C1397 C1393 1.495 . S
C1397 H1403 0.959 . S
C1397 H1404 0.961 . S
C1397 H1405 0.960 . S
C1398 C1396 1.381 . S
C1398 C1399 1.394 . S
C1398 H1406 0.930 . S
C1399 C1398 1.394 . S
C1399 C1400 1.383 . S
C1399 H1407 0.929 . S
C1400 C1399 1.383 . S
C1400 C1401 1.377 . S
C1401 H1385 0.930 . S
C1401 C1400 1.377 . S
C1401 C1402 1.379 . S
C1402 H1386 0.931 . S
C1402 C1396 1.383 . S
C1402 C1401 1.379 . S
H1403 C1397 0.959 . S
H1404 C1397 0.961 . S
H1405 C1397 0.960 . S
H1406 C1398 0.930 . S
H1407 C1399 0.929 . S
H1408 C1416 0.929 . S
H1409 C1418 0.930 . S
H1410 C1420 0.930 . S
H1411 C1423 0.929 . S
H1412 C1426 0.930 . S
H1413 C1428 0.960 . S
H1414 C1428 0.960 . S
H1415 C1428 0.960 . S
C1416 H1408 0.929 . S
C1416 C1417 1.377 . S
C1416 C1418 1.384 . S
C1417 C1416 1.377 . S
C1417 C1423 1.390 . S
C1418 H1409 0.930 . S
C1418 C1416 1.384 . S
C1418 C1419 1.372 . S
C1419 C1418 1.372 . S
C1419 C1420 1.400 . S
C1419 C1424 1.490 . S
C1420 H1410 0.930 . S
C1420 C1419 1.400 . S
C1420 C1423 1.386 . S
H1421 C1437 0.930 . S
H1422 C1438 0.931 . S
C1423 H1411 0.929 . S
C1423 C1417 1.390 . S
C1423 C1420 1.386 . S
C1424 C1419 1.490 . S
C1424 C1426 1.395 . S
C1424 C1427 1.403 . S
H1425 C1431 0.930 . S
C1426 H1412 0.930 . S
C1426 C1424 1.395 . S
C1426 C1429 1.403 . S
C1427 C1424 1.403 . S
C1427 C1428 1.524 . S
C1427 C1431 1.400 . S
C1428 H1413 0.960 . S
C1428 H1414 0.960 . S
C1428 H1415 0.960 . S
C1428 C1427 1.524 . S
C1429 C1426 1.403 . S
C1429 C1430 1.392 . S
C1429 C1433 1.495 . S
C1430 C1429 1.392 . S
C1430 C1431 1.385 . S
C1430 C1432 1.478 . S
C1431 H1425 0.930 . S
C1431 C1427 1.400 . S
C1431 C1430 1.385 . S
C1432 C1430 1.478 . S
C1432 C1434 1.381 . S
C1432 C1438 1.383 . S
C1433 C1429 1.495 . S
C1433 H1439 0.959 . S
C1433 H1440 0.961 . S
C1433 H1441 0.960 . S
C1434 C1432 1.381 . S
C1434 C1435 1.394 . S
C1434 H1442 0.930 . S
C1435 C1434 1.394 . S
C1435 C1436 1.383 . S
C1435 H1443 0.929 . S
C1436 C1435 1.383 . S
C1436 C1437 1.377 . S
C1437 H1421 0.930 . S
C1437 C1436 1.377 . S
C1437 C1438 1.379 . S
C1438 H1422 0.931 . S
C1438 C1432 1.383 . S
C1438 C1437 1.379 . S
H1439 C1433 0.959 . S
H1440 C1433 0.961 . S
H1441 C1433 0.960 . S
H1442 C1434 0.930 . S
H1443 C1435 0.929 . S
H1444 C1452 0.929 . S
H1445 C1454 0.930 . S
H1446 C1456 0.930 . S
H1447 C1459 0.929 . S
H1448 C1462 0.930 . S
H1449 C1464 0.960 . S
H1450 C1464 0.960 . S
H1451 C1464 0.960 . S
C1452 H1444 0.929 . S
C1452 C1453 1.377 . S
C1452 C1454 1.384 . S
C1453 C1452 1.377 . S
C1453 C1459 1.390 . S
C1454 H1445 0.930 . S
C1454 C1452 1.384 . S
C1454 C1455 1.372 . S
C1455 C1454 1.372 . S
C1455 C1456 1.400 . S
C1455 C1460 1.490 . S
C1456 H1446 0.930 . S
C1456 C1455 1.400 . S
C1456 C1459 1.386 . S
H1457 C1473 0.930 . S
H1458 C1474 0.931 . S
C1459 H1447 0.929 . S
C1459 C1453 1.390 . S
C1459 C1456 1.386 . S
C1460 C1455 1.490 . S
C1460 C1462 1.395 . S
C1460 C1463 1.403 . S
H1461 C1467 0.930 . S
C1462 H1448 0.930 . S
C1462 C1460 1.395 . S
C1462 C1465 1.403 . S
C1463 C1460 1.403 . S
C1463 C1464 1.524 . S
C1463 C1467 1.400 . S
C1464 H1449 0.960 . S
C1464 H1450 0.960 . S
C1464 H1451 0.960 . S
C1464 C1463 1.524 . S
C1465 C1462 1.403 . S
C1465 C1466 1.392 . S
C1465 C1469 1.495 . S
C1466 C1465 1.392 . S
C1466 C1467 1.385 . S
C1466 C1468 1.478 . S
C1467 H1461 0.930 . S
C1467 C1463 1.400 . S
C1467 C1466 1.385 . S
C1468 C1466 1.478 . S
C1468 C1470 1.381 . S
C1468 C1474 1.383 . S
C1469 C1465 1.495 . S
C1469 H1475 0.959 . S
C1469 H1476 0.961 . S
C1469 H1477 0.960 . S
C1470 C1468 1.381 . S
C1470 C1471 1.394 . S
C1470 H1478 0.930 . S
C1471 C1470 1.394 . S
C1471 C1472 1.383 . S
C1471 H1479 0.929 . S
C1472 C1471 1.383 . S
C1472 C1473 1.377 . S
C1473 H1457 0.930 . S
C1473 C1472 1.377 . S
C1473 C1474 1.379 . S
C1474 H1458 0.931 . S
C1474 C1468 1.383 . S
C1474 C1473 1.379 . S
H1475 C1469 0.959 . S
H1476 C1469 0.961 . S
H1477 C1469 0.960 . S
H1478 C1470 0.930 . S
H1479 C1471 0.929 . S
H1480 C1488 0.929 . S
H1481 C1490 0.930 . S
H1482 C1492 0.930 . S
H1483 C1495 0.929 . S
H1484 C1498 0.930 . S
H1485 C1500 0.960 . S
H1486 C1500 0.960 . S
H1487 C1500 0.960 . S
C1488 H1480 0.929 . S
C1488 C1489 1.377 . S
C1488 C1490 1.384 . S
C1489 C1488 1.377 . S
C1489 C1495 1.390 . S
C1490 H1481 0.930 . S
C1490 C1488 1.384 . S
C1490 C1491 1.372 . S
C1491 C1490 1.372 . S
C1491 C1492 1.400 . S
C1491 C1496 1.490 . S
C1492 H1482 0.930 . S
C1492 C1491 1.400 . S
C1492 C1495 1.386 . S
H1493 C1509 0.930 . S
H1494 C1510 0.931 . S
C1495 H1483 0.929 . S
C1495 C1489 1.390 . S
C1495 C1492 1.386 . S
C1496 C1491 1.490 . S
C1496 C1498 1.395 . S
C1496 C1499 1.403 . S
H1497 C1503 0.930 . S
C1498 H1484 0.930 . S
C1498 C1496 1.395 . S
C1498 C1501 1.403 . S
C1499 C1496 1.403 . S
C1499 C1500 1.524 . S
C1499 C1503 1.400 . S
C1500 H1485 0.960 . S
C1500 H1486 0.960 . S
C1500 H1487 0.960 . S
C1500 C1499 1.524 . S
C1501 C1498 1.403 . S
C1501 C1502 1.392 . S
C1501 C1505 1.495 . S
C1502 C1501 1.392 . S
C1502 C1503 1.385 . S
C1502 C1504 1.478 . S
C1503 H1497 0.930 . S
C1503 C1499 1.400 . S
C1503 C1502 1.385 . S
C1504 C1502 1.478 . S
C1504 C1506 1.381 . S
C1504 C1510 1.383 . S
C1505 C1501 1.495 . S
C1505 H1511 0.959 . S
C1505 H1512 0.961 . S
C1505 H1513 0.960 . S
C1506 C1504 1.381 . S
C1506 C1507 1.394 . S
C1506 H1514 0.930 . S
C1507 C1506 1.394 . S
C1507 C1508 1.383 . S
C1507 H1515 0.929 . S
C1508 C1507 1.383 . S
C1508 C1509 1.377 . S
C1509 H1493 0.930 . S
C1509 C1508 1.377 . S
C1509 C1510 1.379 . S
C1510 H1494 0.931 . S
C1510 C1504 1.383 . S
C1510 C1509 1.379 . S
H1511 C1505 0.959 . S
H1512 C1505 0.961 . S
H1513 C1505 0.960 . S
H1514 C1506 0.930 . S
H1515 C1507 0.929 . S
H1516 C1524 0.929 . S
H1517 C1526 0.930 . S
H1518 C1528 0.930 . S
H1519 C1531 0.929 . S
H1520 C1534 0.930 . S
H1521 C1536 0.960 . S
H1522 C1536 0.960 . S
H1523 C1536 0.960 . S
C1524 H1516 0.929 . S
C1524 C1525 1.377 . S
C1524 C1526 1.384 . S
C1525 C1524 1.377 . S
C1525 C1531 1.390 . S
C1526 H1517 0.930 . S
C1526 C1524 1.384 . S
C1526 C1527 1.372 . S
C1527 C1526 1.372 . S
C1527 C1528 1.400 . S
C1527 C1532 1.490 . S
C1528 H1518 0.930 . S
C1528 C1527 1.400 . S
C1528 C1531 1.386 . S
H1529 C1545 0.930 . S
H1530 C1546 0.931 . S
C1531 H1519 0.929 . S
C1531 C1525 1.390 . S
C1531 C1528 1.386 . S
C1532 C1527 1.490 . S
C1532 C1534 1.395 . S
C1532 C1535 1.403 . S
H1533 C1539 0.930 . S
C1534 H1520 0.930 . S
C1534 C1532 1.395 . S
C1534 C1537 1.403 . S
C1535 C1532 1.403 . S
C1535 C1536 1.524 . S
C1535 C1539 1.400 . S
C1536 H1521 0.960 . S
C1536 H1522 0.960 . S
C1536 H1523 0.960 . S
C1536 C1535 1.524 . S
C1537 C1534 1.403 . S
C1537 C1538 1.392 . S
C1537 C1541 1.495 . S
C1538 C1537 1.392 . S
C1538 C1539 1.385 . S
C1538 C1540 1.478 . S
C1539 H1533 0.930 . S
C1539 C1535 1.400 . S
C1539 C1538 1.385 . S
C1540 C1538 1.478 . S
C1540 C1542 1.381 . S
C1540 C1546 1.383 . S
C1541 C1537 1.495 . S
C1541 H1547 0.959 . S
C1541 H1548 0.961 . S
C1541 H1549 0.960 . S
C1542 C1540 1.381 . S
C1542 C1543 1.394 . S
C1542 H1550 0.930 . S
C1543 C1542 1.394 . S
C1543 C1544 1.383 . S
C1543 H1551 0.929 . S
C1544 C1543 1.383 . S
C1544 C1545 1.377 . S
C1545 H1529 0.930 . S
C1545 C1544 1.377 . S
C1545 C1546 1.379 . S
C1546 H1530 0.931 . S
C1546 C1540 1.383 . S
C1546 C1545 1.379 . S
H1547 C1541 0.959 . S
H1548 C1541 0.961 . S
H1549 C1541 0.960 . S
H1550 C1542 0.930 . S
H1551 C1543 0.929 . S
H1552 C1560 0.929 . S
H1553 C1562 0.930 . S
H1554 C1564 0.930 . S
H1555 C1567 0.929 . S
H1556 C1570 0.930 . S
H1557 C1572 0.960 . S
H1558 C1572 0.960 . S
H1559 C1572 0.960 . S
C1560 H1552 0.929 . S
C1560 C1561 1.377 . S
C1560 C1562 1.384 . S
C1561 C1560 1.377 . S
C1561 C1567 1.390 . S
C1562 H1553 0.930 . S
C1562 C1560 1.384 . S
C1562 C1563 1.372 . S
C1563 C1562 1.372 . S
C1563 C1564 1.400 . S
C1563 C1568 1.490 . S
C1564 H1554 0.930 . S
C1564 C1563 1.400 . S
C1564 C1567 1.386 . S
H1565 C1581 0.930 . S
H1566 C1582 0.931 . S
C1567 H1555 0.929 . S
C1567 C1561 1.390 . S
C1567 C1564 1.386 . S
C1568 C1563 1.490 . S
C1568 C1570 1.395 . S
C1568 C1571 1.403 . S
H1569 C1575 0.930 . S
C1570 H1556 0.930 . S
C1570 C1568 1.395 . S
C1570 C1573 1.403 . S
C1571 C1568 1.403 . S
C1571 C1572 1.524 . S
C1571 C1575 1.400 . S
C1572 H1557 0.960 . S
C1572 H1558 0.960 . S
C1572 H1559 0.960 . S
C1572 C1571 1.524 . S
C1573 C1570 1.403 . S
C1573 C1574 1.392 . S
C1573 C1577 1.495 . S
C1574 C1573 1.392 . S
C1574 C1575 1.385 . S
C1574 C1576 1.478 . S
C1575 H1569 0.930 . S
C1575 C1571 1.400 . S
C1575 C1574 1.385 . S
C1576 C1574 1.478 . S
C1576 C1578 1.381 . S
C1576 C1582 1.383 . S
C1577 C1573 1.495 . S
C1577 H1583 0.959 . S
C1577 H1584 0.961 . S
C1577 H1585 0.960 . S
C1578 C1576 1.381 . S
C1578 C1579 1.394 . S
C1578 H1586 0.930 . S
C1579 C1578 1.394 . S
C1579 C1580 1.383 . S
C1579 H1587 0.929 . S
C1580 C1579 1.383 . S
C1580 C1581 1.377 . S
C1581 H1565 0.930 . S
C1581 C1580 1.377 . S
C1581 C1582 1.379 . S
C1582 H1566 0.931 . S
C1582 C1576 1.383 . S
C1582 C1581 1.379 . S
H1583 C1577 0.959 . S
H1584 C1577 0.961 . S
H1585 C1577 0.960 . S
H1586 C1578 0.930 . S
H1587 C1579 0.929 . S
H1588 C1596 0.929 . S
H1589 C1598 0.930 . S
H1590 C1600 0.930 . S
H1591 C1603 0.929 . S
H1592 C1606 0.930 . S
H1593 C1608 0.960 . S
H1594 C1608 0.960 . S
H1595 C1608 0.960 . S
C1596 H1588 0.929 . S
C1596 C1597 1.377 . S
C1596 C1598 1.384 . S
C1597 C1596 1.377 . S
C1597 C1603 1.390 . S
C1598 H1589 0.930 . S
C1598 C1596 1.384 . S
C1598 C1599 1.372 . S
C1599 C1598 1.372 . S
C1599 C1600 1.400 . S
C1599 C1604 1.490 . S
C1600 H1590 0.930 . S
C1600 C1599 1.400 . S
C1600 C1603 1.386 . S
H1601 C1617 0.930 . S
H1602 C1618 0.931 . S
C1603 H1591 0.929 . S
C1603 C1597 1.390 . S
C1603 C1600 1.386 . S
C1604 C1599 1.490 . S
C1604 C1606 1.395 . S
C1604 C1607 1.403 . S
H1605 C1611 0.930 . S
C1606 H1592 0.930 . S
C1606 C1604 1.395 . S
C1606 C1609 1.403 . S
C1607 C1604 1.403 . S
C1607 C1608 1.524 . S
C1607 C1611 1.400 . S
C1608 H1593 0.960 . S
C1608 H1594 0.960 . S
C1608 H1595 0.960 . S
C1608 C1607 1.524 . S
C1609 C1606 1.403 . S
C1609 C1610 1.392 . S
C1609 C1613 1.495 . S
C1610 C1609 1.392 . S
C1610 C1611 1.385 . S
C1610 C1612 1.478 . S
C1611 H1605 0.930 . S
C1611 C1607 1.400 . S
C1611 C1610 1.385 . S
C1612 C1610 1.478 . S
C1612 C1614 1.381 . S
C1612 C1618 1.383 . S
C1613 C1609 1.495 . S
C1613 H1619 0.959 . S
C1613 H1620 0.961 . S
C1613 H1621 0.960 . S
C1614 C1612 1.381 . S
C1614 C1615 1.394 . S
C1614 H1622 0.930 . S
C1615 C1614 1.394 . S
C1615 C1616 1.383 . S
C1615 H1623 0.929 . S
C1616 C1615 1.383 . S
C1616 C1617 1.377 . S
C1617 H1601 0.930 . S
C1617 C1616 1.377 . S
C1617 C1618 1.379 . S
C1618 H1602 0.931 . S
C1618 C1612 1.383 . S
C1618 C1617 1.379 . S
H1619 C1613 0.959 . S
H1620 C1613 0.961 . S
H1621 C1613 0.960 . S
H1622 C1614 0.930 . S
H1623 C1615 0.929 . S
H1624 C1632 0.929 . S
H1625 C1634 0.930 . S
H1626 C1636 0.930 . S
H1627 C1639 0.929 . S
H1628 C1642 0.930 . S
H1629 C1644 0.960 . S
H1630 C1644 0.960 . S
H1631 C1644 0.960 . S
C1632 H1624 0.929 . S
C1632 C1633 1.377 . S
C1632 C1634 1.384 . S
C1633 C1632 1.377 . S
C1633 C1639 1.390 . S
C1634 H1625 0.930 . S
C1634 C1632 1.384 . S
C1634 C1635 1.372 . S
C1635 C1634 1.372 . S
C1635 C1636 1.400 . S
C1635 C1640 1.490 . S
C1636 H1626 0.930 . S
C1636 C1635 1.400 . S
C1636 C1639 1.386 . S
H1637 C1653 0.930 . S
H1638 C1654 0.931 . S
C1639 H1627 0.929 . S
C1639 C1633 1.390 . S
C1639 C1636 1.386 . S
C1640 C1635 1.490 . S
C1640 C1642 1.395 . S
C1640 C1643 1.403 . S
H1641 C1647 0.930 . S
C1642 H1628 0.930 . S
C1642 C1640 1.395 . S
C1642 C1645 1.403 . S
C1643 C1640 1.403 . S
C1643 C1644 1.524 . S
C1643 C1647 1.400 . S
C1644 H1629 0.960 . S
C1644 H1630 0.960 . S
C1644 H1631 0.960 . S
C1644 C1643 1.524 . S
C1645 C1642 1.403 . S
C1645 C1646 1.392 . S
C1645 C1649 1.495 . S
C1646 C1645 1.392 . S
C1646 C1647 1.385 . S
C1646 C1648 1.478 . S
C1647 H1641 0.930 . S
C1647 C1643 1.400 . S
C1647 C1646 1.385 . S
C1648 C1646 1.478 . S
C1648 C1650 1.381 . S
C1648 C1654 1.383 . S
C1649 C1645 1.495 . S
C1649 H1655 0.959 . S
C1649 H1656 0.961 . S
C1649 H1657 0.960 . S
C1650 C1648 1.381 . S
C1650 C1651 1.394 . S
C1650 H1658 0.930 . S
C1651 C1650 1.394 . S
C1651 C1652 1.383 . S
C1651 H1659 0.929 . S
C1652 C1651 1.383 . S
C1652 C1653 1.377 . S
C1653 H1637 0.930 . S
C1653 C1652 1.377 . S
C1653 C1654 1.379 . S
C1654 H1638 0.931 . S
C1654 C1648 1.383 . S
C1654 C1653 1.379 . S
H1655 C1649 0.959 . S
H1656 C1649 0.961 . S
H1657 C1649 0.960 . S
H1658 C1650 0.930 . S
H1659 C1651 0.929 . S
H1660 C1668 0.929 . S
H1661 C1670 0.930 . S
H1662 C1672 0.930 . S
H1663 C1675 0.929 . S
H1664 C1678 0.930 . S
H1665 C1680 0.960 . S
H1666 C1680 0.960 . S
H1667 C1680 0.960 . S
C1668 H1660 0.929 . S
C1668 C1669 1.377 . S
C1668 C1670 1.384 . S
C1669 C1668 1.377 . S
C1669 C1675 1.390 . S
C1670 H1661 0.930 . S
C1670 C1668 1.384 . S
C1670 C1671 1.372 . S
C1671 C1670 1.372 . S
C1671 C1672 1.400 . S
C1671 C1676 1.490 . S
C1672 H1662 0.930 . S
C1672 C1671 1.400 . S
C1672 C1675 1.386 . S
H1673 C1689 0.930 . S
H1674 C1690 0.931 . S
C1675 H1663 0.929 . S
C1675 C1669 1.390 . S
C1675 C1672 1.386 . S
C1676 C1671 1.490 . S
C1676 C1678 1.395 . S
C1676 C1679 1.403 . S
H1677 C1683 0.930 . S
C1678 H1664 0.930 . S
C1678 C1676 1.395 . S
C1678 C1681 1.403 . S
C1679 C1676 1.403 . S
C1679 C1680 1.524 . S
C1679 C1683 1.400 . S
C1680 H1665 0.960 . S
C1680 H1666 0.960 . S
C1680 H1667 0.960 . S
C1680 C1679 1.524 . S
C1681 C1678 1.403 . S
C1681 C1682 1.392 . S
C1681 C1685 1.495 . S
C1682 C1681 1.392 . S
C1682 C1683 1.385 . S
C1682 C1684 1.478 . S
C1683 H1677 0.930 . S
C1683 C1679 1.400 . S
C1683 C1682 1.385 . S
C1684 C1682 1.478 . S
C1684 C1686 1.381 . S
C1684 C1690 1.383 . S
C1685 C1681 1.495 . S
C1685 H1691 0.959 . S
C1685 H1692 0.961 . S
C1685 H1693 0.960 . S
C1686 C1684 1.381 . S
C1686 C1687 1.394 . S
C1686 H1694 0.930 . S
C1687 C1686 1.394 . S
C1687 C1688 1.383 . S
C1687 H1695 0.929 . S
C1688 C1687 1.383 . S
C1688 C1689 1.377 . S
C1689 H1673 0.930 . S
C1689 C1688 1.377 . S
C1689 C1690 1.379 . S
C1690 H1674 0.931 . S
C1690 C1684 1.383 . S
C1690 C1689 1.379 . S
H1691 C1685 0.959 . S
H1692 C1685 0.961 . S
H1693 C1685 0.960 . S
H1694 C1686 0.930 . S
H1695 C1687 0.929 . S
H1696 C1704 0.929 . S
H1697 C1706 0.930 . S
H1698 C1708 0.930 . S
H1699 C1711 0.929 . S
H1700 C1714 0.930 . S
H1701 C1716 0.960 . S
H1702 C1716 0.960 . S
H1703 C1716 0.960 . S
C1704 H1696 0.929 . S
C1704 C1705 1.377 . S
C1704 C1706 1.384 . S
C1705 C1704 1.377 . S
C1705 C1711 1.390 . S
C1706 H1697 0.930 . S
C1706 C1704 1.384 . S
C1706 C1707 1.372 . S
C1707 C1706 1.372 . S
C1707 C1708 1.400 . S
C1707 C1712 1.490 . S
C1708 H1698 0.930 . S
C1708 C1707 1.400 . S
C1708 C1711 1.386 . S
H1709 C1725 0.930 . S
H1710 C1726 0.931 . S
C1711 H1699 0.929 . S
C1711 C1705 1.390 . S
C1711 C1708 1.386 . S
C1712 C1707 1.490 . S
C1712 C1714 1.395 . S
C1712 C1715 1.403 . S
H1713 C1719 0.930 . S
C1714 H1700 0.930 . S
C1714 C1712 1.395 . S
C1714 C1717 1.403 . S
C1715 C1712 1.403 . S
C1715 C1716 1.524 . S
C1715 C1719 1.400 . S
C1716 H1701 0.960 . S
C1716 H1702 0.960 . S
C1716 H1703 0.960 . S
C1716 C1715 1.524 . S
C1717 C1714 1.403 . S
C1717 C1718 1.392 . S
C1717 C1721 1.495 . S
C1718 C1717 1.392 . S
C1718 C1719 1.385 . S
C1718 C1720 1.478 . S
C1719 H1713 0.930 . S
C1719 C1715 1.400 . S
C1719 C1718 1.385 . S
C1720 C1718 1.478 . S
C1720 C1722 1.381 . S
C1720 C1726 1.383 . S
C1721 C1717 1.495 . S
C1721 H1727 0.959 . S
C1721 H1728 0.961 . S
C1721 H1729 0.960 . S
C1722 C1720 1.381 . S
C1722 C1723 1.394 . S
C1722 H1730 0.930 . S
C1723 C1722 1.394 . S
C1723 C1724 1.383 . S
C1723 H1731 0.929 . S
C1724 C1723 1.383 . S
C1724 C1725 1.377 . S
C1725 H1709 0.930 . S
C1725 C1724 1.377 . S
C1725 C1726 1.379 . S
C1726 H1710 0.931 . S
C1726 C1720 1.383 . S
C1726 C1725 1.379 . S
H1727 C1721 0.959 . S
H1728 C1721 0.961 . S
H1729 C1721 0.960 . S
H1730 C1722 0.930 . S
H1731 C1723 0.929 . S
H1732 C1740 0.929 . S
H1733 C1742 0.930 . S
H1734 C1744 0.930 . S
H1735 C1747 0.929 . S
H1736 C1750 0.930 . S
H1737 C1752 0.960 . S
H1738 C1752 0.960 . S
H1739 C1752 0.960 . S
C1740 H1732 0.929 . S
C1740 C1741 1.377 . S
C1740 C1742 1.384 . S
C1741 C1740 1.377 . S
C1741 C1747 1.390 . S
C1742 H1733 0.930 . S
C1742 C1740 1.384 . S
C1742 C1743 1.372 . S
C1743 C1742 1.372 . S
C1743 C1744 1.400 . S
C1743 C1748 1.490 . S
C1744 H1734 0.930 . S
C1744 C1743 1.400 . S
C1744 C1747 1.386 . S
H1745 C1761 0.930 . S
H1746 C1762 0.931 . S
C1747 H1735 0.929 . S
C1747 C1741 1.390 . S
C1747 C1744 1.386 . S
C1748 C1743 1.490 . S
C1748 C1750 1.395 . S
C1748 C1751 1.403 . S
H1749 C1755 0.930 . S
C1750 H1736 0.930 . S
C1750 C1748 1.395 . S
C1750 C1753 1.403 . S
C1751 C1748 1.403 . S
C1751 C1752 1.524 . S
C1751 C1755 1.400 . S
C1752 H1737 0.960 . S
C1752 H1738 0.960 . S
C1752 H1739 0.960 . S
C1752 C1751 1.524 . S
C1753 C1750 1.403 . S
C1753 C1754 1.392 . S
C1753 C1757 1.495 . S
C1754 C1753 1.392 . S
C1754 C1755 1.385 . S
C1754 C1756 1.478 . S
C1755 H1749 0.930 . S
C1755 C1751 1.400 . S
C1755 C1754 1.385 . S
C1756 C1754 1.478 . S
C1756 C1758 1.381 . S
C1756 C1762 1.383 . S
C1757 C1753 1.495 . S
C1757 H1763 0.959 . S
C1757 H1764 0.961 . S
C1757 H1765 0.960 . S
C1758 C1756 1.381 . S
C1758 C1759 1.394 . S
C1758 H1766 0.930 . S
C1759 C1758 1.394 . S
C1759 C1760 1.383 . S
C1759 H1767 0.929 . S
C1760 C1759 1.383 . S
C1760 C1761 1.377 . S
C1761 H1745 0.930 . S
C1761 C1760 1.377 . S
C1761 C1762 1.379 . S
C1762 H1746 0.931 . S
C1762 C1756 1.383 . S
C1762 C1761 1.379 . S
H1763 C1757 0.959 . S
H1764 C1757 0.961 . S
H1765 C1757 0.960 . S
H1766 C1758 0.930 . S
H1767 C1759 0.929 . S
H1768 C1776 0.929 . S
H1769 C1778 0.930 . S
H1770 C1780 0.930 . S
H1771 C1783 0.929 . S
H1772 C1786 0.930 . S
H1773 C1788 0.960 . S
H1774 C1788 0.960 . S
H1775 C1788 0.960 . S
C1776 H1768 0.929 . S
C1776 C1777 1.377 . S
C1776 C1778 1.384 . S
C1777 C1776 1.377 . S
C1777 C1783 1.390 . S
C1778 H1769 0.930 . S
C1778 C1776 1.384 . S
C1778 C1779 1.372 . S
C1779 C1778 1.372 . S
C1779 C1780 1.400 . S
C1779 C1784 1.490 . S
C1780 H1770 0.930 . S
C1780 C1779 1.400 . S
C1780 C1783 1.386 . S
H1781 C1797 0.930 . S
H1782 C1798 0.931 . S
C1783 H1771 0.929 . S
C1783 C1777 1.390 . S
C1783 C1780 1.386 . S
C1784 C1779 1.490 . S
C1784 C1786 1.395 . S
C1784 C1787 1.403 . S
H1785 C1791 0.930 . S
C1786 H1772 0.930 . S
C1786 C1784 1.395 . S
C1786 C1789 1.403 . S
C1787 C1784 1.403 . S
C1787 C1788 1.524 . S
C1787 C1791 1.400 . S
C1788 H1773 0.960 . S
C1788 H1774 0.960 . S
C1788 H1775 0.960 . S
C1788 C1787 1.524 . S
C1789 C1786 1.403 . S
C1789 C1790 1.392 . S
C1789 C1793 1.495 . S
C1790 C1789 1.392 . S
C1790 C1791 1.385 . S
C1790 C1792 1.478 . S
C1791 H1785 0.930 . S
C1791 C1787 1.400 . S
C1791 C1790 1.385 . S
C1792 C1790 1.478 . S
C1792 C1794 1.381 . S
C1792 C1798 1.383 . S
C1793 C1789 1.495 . S
C1793 H1799 0.959 . S
C1793 H1800 0.961 . S
C1793 H1801 0.960 . S
C1794 C1792 1.381 . S
C1794 C1795 1.394 . S
C1794 H1802 0.930 . S
C1795 C1794 1.394 . S
C1795 C1796 1.383 . S
C1795 H1803 0.929 . S
C1796 C1795 1.383 . S
C1796 C1797 1.377 . S
C1797 H1781 0.930 . S
C1797 C1796 1.377 . S
C1797 C1798 1.379 . S
C1798 H1782 0.931 . S
C1798 C1792 1.383 . S
C1798 C1797 1.379 . S
H1799 C1793 0.959 . S
H1800 C1793 0.961 . S
H1801 C1793 0.960 . S
H1802 C1794 0.930 . S
H1803 C1795 0.929 . S
H1804 C1812 0.929 . S
H1805 C1814 0.930 . S
H1806 C1816 0.930 . S
H1807 C1819 0.929 . S
H1808 C1822 0.930 . S
H1809 C1824 0.960 . S
H1810 C1824 0.960 . S
H1811 C1824 0.960 . S
C1812 H1804 0.929 . S
C1812 C1813 1.377 . S
C1812 C1814 1.384 . S
C1813 C1812 1.377 . S
C1813 C1819 1.390 . S
C1814 H1805 0.930 . S
C1814 C1812 1.384 . S
C1814 C1815 1.372 . S
C1815 C1814 1.372 . S
C1815 C1816 1.400 . S
C1815 C1820 1.490 . S
C1816 H1806 0.930 . S
C1816 C1815 1.400 . S
C1816 C1819 1.386 . S
H1817 C1833 0.930 . S
H1818 C1834 0.931 . S
C1819 H1807 0.929 . S
C1819 C1813 1.390 . S
C1819 C1816 1.386 . S
C1820 C1815 1.490 . S
C1820 C1822 1.395 . S
C1820 C1823 1.403 . S
H1821 C1827 0.930 . S
C1822 H1808 0.930 . S
C1822 C1820 1.395 . S
C1822 C1825 1.403 . S
C1823 C1820 1.403 . S
C1823 C1824 1.524 . S
C1823 C1827 1.400 . S
C1824 H1809 0.960 . S
C1824 H1810 0.960 . S
C1824 H1811 0.960 . S
C1824 C1823 1.524 . S
C1825 C1822 1.403 . S
C1825 C1826 1.392 . S
C1825 C1829 1.495 . S
C1826 C1825 1.392 . S
C1826 C1827 1.385 . S
C1826 C1828 1.478 . S
C1827 H1821 0.930 . S
C1827 C1823 1.400 . S
C1827 C1826 1.385 . S
C1828 C1826 1.478 . S
C1828 C1830 1.381 . S
C1828 C1834 1.383 . S
C1829 C1825 1.495 . S
C1829 H1835 0.959 . S
C1829 H1836 0.961 . S
C1829 H1837 0.960 . S
C1830 C1828 1.381 . S
C1830 C1831 1.394 . S
C1830 H1838 0.930 . S
C1831 C1830 1.394 . S
C1831 C1832 1.383 . S
C1831 H1839 0.929 . S
C1832 C1831 1.383 . S
C1832 C1833 1.377 . S
C1833 H1817 0.930 . S
C1833 C1832 1.377 . S
C1833 C1834 1.379 . S
C1834 H1818 0.931 . S
C1834 C1828 1.383 . S
C1834 C1833 1.379 . S
H1835 C1829 0.959 . S
H1836 C1829 0.961 . S
H1837 C1829 0.960 . S
H1838 C1830 0.930 . S
H1839 C1831 0.929 . S
H1840 C1848 0.929 . S
H1841 C1850 0.930 . S
H1842 C1852 0.930 . S
H1843 C1855 0.929 . S
H1844 C1858 0.930 . S
H1845 C1860 0.960 . S
H1846 C1860 0.960 . S
H1847 C1860 0.960 . S
C1848 H1840 0.929 . S
C1848 C1849 1.377 . S
C1848 C1850 1.384 . S
C1849 C1848 1.377 . S
C1849 C1855 1.390 . S
C1850 H1841 0.930 . S
C1850 C1848 1.384 . S
C1850 C1851 1.372 . S
C1851 C1850 1.372 . S
C1851 C1852 1.400 . S
C1851 C1856 1.490 . S
C1852 H1842 0.930 . S
C1852 C1851 1.400 . S
C1852 C1855 1.386 . S
H1853 C1869 0.930 . S
H1854 C1870 0.931 . S
C1855 H1843 0.929 . S
C1855 C1849 1.390 . S
C1855 C1852 1.386 . S
C1856 C1851 1.490 . S
C1856 C1858 1.395 . S
C1856 C1859 1.403 . S
H1857 C1863 0.930 . S
C1858 H1844 0.930 . S
C1858 C1856 1.395 . S
C1858 C1861 1.403 . S
C1859 C1856 1.403 . S
C1859 C1860 1.524 . S
C1859 C1863 1.400 . S
C1860 H1845 0.960 . S
C1860 H1846 0.960 . S
C1860 H1847 0.960 . S
C1860 C1859 1.524 . S
C1861 C1858 1.403 . S
C1861 C1862 1.392 . S
C1861 C1865 1.495 . S
C1862 C1861 1.392 . S
C1862 C1863 1.385 . S
C1862 C1864 1.478 . S
C1863 H1857 0.930 . S
C1863 C1859 1.400 . S
C1863 C1862 1.385 . S
C1864 C1862 1.478 . S
C1864 C1866 1.381 . S
C1864 C1870 1.383 . S
C1865 C1861 1.495 . S
C1865 H1871 0.959 . S
C1865 H1872 0.961 . S
C1865 H1873 0.960 . S
C1866 C1864 1.381 . S
C1866 C1867 1.394 . S
C1866 H1874 0.930 . S
C1867 C1866 1.394 . S
C1867 C1868 1.383 . S
C1867 H1875 0.929 . S
C1868 C1867 1.383 . S
C1868 C1869 1.377 . S
C1869 H1853 0.930 . S
C1869 C1868 1.377 . S
C1869 C1870 1.379 . S
C1870 H1854 0.931 . S
C1870 C1864 1.383 . S
C1870 C1869 1.379 . S
H1871 C1865 0.959 . S
H1872 C1865 0.961 . S
H1873 C1865 0.960 . S
H1874 C1866 0.930 . S
H1875 C1867 0.929 . S
H1876 C1884 0.929 . S
H1877 C1886 0.930 . S
H1878 C1888 0.930 . S
H1879 C1891 0.929 . S
H1880 C1894 0.930 . S
H1881 C1896 0.960 . S
H1882 C1896 0.960 . S
H1883 C1896 0.960 . S
C1884 H1876 0.929 . S
C1884 C1885 1.377 . S
C1884 C1886 1.384 . S
C1885 C1884 1.377 . S
C1885 C1891 1.390 . S
C1886 H1877 0.930 . S
C1886 C1884 1.384 . S
C1886 C1887 1.372 . S
C1887 C1886 1.372 . S
C1887 C1888 1.400 . S
C1887 C1892 1.490 . S
C1888 H1878 0.930 . S
C1888 C1887 1.400 . S
C1888 C1891 1.386 . S
H1889 C1905 0.930 . S
H1890 C1906 0.931 . S
C1891 H1879 0.929 . S
C1891 C1885 1.390 . S
C1891 C1888 1.386 . S
C1892 C1887 1.490 . S
C1892 C1894 1.395 . S
C1892 C1895 1.403 . S
H1893 C1899 0.930 . S
C1894 H1880 0.930 . S
C1894 C1892 1.395 . S
C1894 C1897 1.403 . S
C1895 C1892 1.403 . S
C1895 C1896 1.524 . S
C1895 C1899 1.400 . S
C1896 H1881 0.960 . S
C1896 H1882 0.960 . S
C1896 H1883 0.960 . S
C1896 C1895 1.524 . S
C1897 C1894 1.403 . S
C1897 C1898 1.392 . S
C1897 C1901 1.495 . S
C1898 C1897 1.392 . S
C1898 C1899 1.385 . S
C1898 C1900 1.478 . S
C1899 H1893 0.930 . S
C1899 C1895 1.400 . S
C1899 C1898 1.385 . S
C1900 C1898 1.478 . S
C1900 C1902 1.381 . S
C1900 C1906 1.383 . S
C1901 C1897 1.495 . S
C1901 H1907 0.959 . S
C1901 H1908 0.961 . S
C1901 H1909 0.960 . S
C1902 C1900 1.381 . S
C1902 C1903 1.394 . S
C1902 H1910 0.930 . S
C1903 C1902 1.394 . S
C1903 C1904 1.383 . S
C1903 H1911 0.929 . S
C1904 C1903 1.383 . S
C1904 C1905 1.377 . S
C1905 H1889 0.930 . S
C1905 C1904 1.377 . S
C1905 C1906 1.379 . S
C1906 H1890 0.931 . S
C1906 C1900 1.383 . S
C1906 C1905 1.379 . S
H1907 C1901 0.959 . S
H1908 C1901 0.961 . S
H1909 C1901 0.960 . S
H1910 C1902 0.930 . S
H1911 C1903 0.929 . S
H1912 C1920 0.929 . S
H1913 C1922 0.930 . S
H1914 C1924 0.930 . S
H1915 C1927 0.929 . S
H1916 C1930 0.930 . S
H1917 C1932 0.960 . S
H1918 C1932 0.960 . S
H1919 C1932 0.960 . S
C1920 H1912 0.929 . S
C1920 C1921 1.377 . S
C1920 C1922 1.384 . S
C1921 C1920 1.377 . S
C1921 C1927 1.390 . S
C1922 H1913 0.930 . S
C1922 C1920 1.384 . S
C1922 C1923 1.372 . S
C1923 C1922 1.372 . S
C1923 C1924 1.400 . S
C1923 C1928 1.490 . S
C1924 H1914 0.930 . S
C1924 C1923 1.400 . S
C1924 C1927 1.386 . S
H1925 C1941 0.930 . S
H1926 C1942 0.931 . S
C1927 H1915 0.929 . S
C1927 C1921 1.390 . S
C1927 C1924 1.386 . S
C1928 C1923 1.490 . S
C1928 C1930 1.395 . S
C1928 C1931 1.403 . S
H1929 C1935 0.930 . S
C1930 H1916 0.930 . S
C1930 C1928 1.395 . S
C1930 C1933 1.403 . S
C1931 C1928 1.403 . S
C1931 C1932 1.524 . S
C1931 C1935 1.400 . S
C1932 H1917 0.960 . S
C1932 H1918 0.960 . S
C1932 H1919 0.960 . S
C1932 C1931 1.524 . S
C1933 C1930 1.403 . S
C1933 C1934 1.392 . S
C1933 C1937 1.495 . S
C1934 C1933 1.392 . S
C1934 C1935 1.385 . S
C1934 C1936 1.478 . S
C1935 H1929 0.930 . S
C1935 C1931 1.400 . S
C1935 C1934 1.385 . S
C1936 C1934 1.478 . S
C1936 C1938 1.381 . S
C1936 C1942 1.383 . S
C1937 C1933 1.495 . S
C1937 H1943 0.959 . S
C1937 H1944 0.961 . S
C1937 H1945 0.960 . S
C1938 C1936 1.381 . S
C1938 C1939 1.394 . S
C1938 H1946 0.930 . S
C1939 C1938 1.394 . S
C1939 C1940 1.383 . S
C1939 H1947 0.929 . S
C1940 C1939 1.383 . S
C1940 C1941 1.377 . S
C1941 H1925 0.930 . S
C1941 C1940 1.377 . S
C1941 C1942 1.379 . S
C1942 H1926 0.931 . S
C1942 C1936 1.383 . S
C1942 C1941 1.379 . S
H1943 C1937 0.959 . S
H1944 C1937 0.961 . S
H1945 C1937 0.960 . S
H1946 C1938 0.930 . S
H1947 C1939 0.929 . S
H1948 C1956 0.929 . S
H1949 C1958 0.930 . S
H1950 C1960 0.930 . S
H1951 C1963 0.929 . S
H1952 C1966 0.930 . S
H1953 C1968 0.960 . S
H1954 C1968 0.960 . S
H1955 C1968 0.960 . S
C1956 H1948 0.929 . S
C1956 C1957 1.377 . S
C1956 C1958 1.384 . S
C1957 C1956 1.377 . S
C1957 C1963 1.390 . S
C1958 H1949 0.930 . S
C1958 C1956 1.384 . S
C1958 C1959 1.372 . S
C1959 C1958 1.372 . S
C1959 C1960 1.400 . S
C1959 C1964 1.490 . S
C1960 H1950 0.930 . S
C1960 C1959 1.400 . S
C1960 C1963 1.386 . S
H1961 C1977 0.930 . S
H1962 C1978 0.931 . S
C1963 H1951 0.929 . S
C1963 C1957 1.390 . S
C1963 C1960 1.386 . S
C1964 C1959 1.490 . S
C1964 C1966 1.395 . S
C1964 C1967 1.403 . S
H1965 C1971 0.930 . S
C1966 H1952 0.930 . S
C1966 C1964 1.395 . S
C1966 C1969 1.403 . S
C1967 C1964 1.403 . S
C1967 C1968 1.524 . S
C1967 C1971 1.400 . S
C1968 H1953 0.960 . S
C1968 H1954 0.960 . S
C1968 H1955 0.960 . S
C1968 C1967 1.524 . S
C1969 C1966 1.403 . S
C1969 C1970 1.392 . S
C1969 C1973 1.495 . S
C1970 C1969 1.392 . S
C1970 C1971 1.385 . S
C1970 C1972 1.478 . S
C1971 H1965 0.930 . S
C1971 C1967 1.400 . S
C1971 C1970 1.385 . S
C1972 C1970 1.478 . S
C1972 C1974 1.381 . S
C1972 C1978 1.383 . S
C1973 C1969 1.495 . S
C1973 H1979 0.959 . S
C1973 H1980 0.961 . S
C1973 H1981 0.960 . S
C1974 C1972 1.381 . S
C1974 C1975 1.394 . S
C1974 H1982 0.930 . S
C1975 C1974 1.394 . S
C1975 C1976 1.383 . S
C1975 H1983 0.929 . S
C1976 C1975 1.383 . S
C1976 C1977 1.377 . S
C1977 H1961 0.930 . S
C1977 C1976 1.377 . S
C1977 C1978 1.379 . S
C1978 H1962 0.931 . S
C1978 C1972 1.383 . S
C1978 C1977 1.379 . S
H1979 C1973 0.959 . S
H1980 C1973 0.961 . S
H1981 C1973 0.960 . S
H1982 C1974 0.930 . S
H1983 C1975 0.929 . S
H1984 C1992 0.929 . S
H1985 C1994 0.930 . S
H1986 C1996 0.930 . S
H1987 C1999 0.929 . S
H1988 C2002 0.930 . S
H1989 C2004 0.960 . S
H1990 C2004 0.960 . S
H1991 C2004 0.960 . S
C1992 H1984 0.929 . S
C1992 C1993 1.377 . S
C1992 C1994 1.384 . S
C1993 C1992 1.377 . S
C1993 C1999 1.390 . S
C1994 H1985 0.930 . S
C1994 C1992 1.384 . S
C1994 C1995 1.372 . S
C1995 C1994 1.372 . S
C1995 C1996 1.400 . S
C1995 C2000 1.490 . S
C1996 H1986 0.930 . S
C1996 C1995 1.400 . S
C1996 C1999 1.386 . S
H1997 C2013 0.930 . S
H1998 C2014 0.931 . S
C1999 H1987 0.929 . S
C1999 C1993 1.390 . S
C1999 C1996 1.386 . S
C2000 C1995 1.490 . S
C2000 C2002 1.395 . S
C2000 C2003 1.403 . S
H2001 C2007 0.930 . S
C2002 H1988 0.930 . S
C2002 C2000 1.395 . S
C2002 C2005 1.403 . S
C2003 C2000 1.403 . S
C2003 C2004 1.524 . S
C2003 C2007 1.400 . S
C2004 H1989 0.960 . S
C2004 H1990 0.960 . S
C2004 H1991 0.960 . S
C2004 C2003 1.524 . S
C2005 C2002 1.403 . S
C2005 C2006 1.392 . S
C2005 C2009 1.495 . S
C2006 C2005 1.392 . S
C2006 C2007 1.385 . S
C2006 C2008 1.478 . S
C2007 H2001 0.930 . S
C2007 C2003 1.400 . S
C2007 C2006 1.385 . S
C2008 C2006 1.478 . S
C2008 C2010 1.381 . S
C2008 C2014 1.383 . S
C2009 C2005 1.495 . S
C2009 H2015 0.959 . S
C2009 H2016 0.961 . S
C2009 H2017 0.960 . S
C2010 C2008 1.381 . S
C2010 C2011 1.394 . S
C2010 H2018 0.930 . S
C2011 C2010 1.394 . S
C2011 C2012 1.383 . S
C2011 H2019 0.929 . S
C2012 C2011 1.383 . S
C2012 C2013 1.377 . S
C2013 H1997 0.930 . S
C2013 C2012 1.377 . S
C2013 C2014 1.379 . S
C2014 H1998 0.931 . S
C2014 C2008 1.383 . S
C2014 C2013 1.379 . S
H2015 C2009 0.959 . S
H2016 C2009 0.961 . S
H2017 C2009 0.960 . S
H2018 C2010 0.930 . S
H2019 C2011 0.929 . S
H2020 C2028 0.929 . S
H2021 C2030 0.930 . S
H2022 C2032 0.930 . S
H2023 C2035 0.929 . S
H2024 C2038 0.930 . S
H2025 C2040 0.960 . S
H2026 C2040 0.960 . S
H2027 C2040 0.960 . S
C2028 H2020 0.929 . S
C2028 C2029 1.377 . S
C2028 C2030 1.384 . S
C2029 C2028 1.377 . S
C2029 C2035 1.390 . S
C2030 H2021 0.930 . S
C2030 C2028 1.384 . S
C2030 C2031 1.372 . S
C2031 C2030 1.372 . S
C2031 C2032 1.400 . S
C2031 C2036 1.490 . S
C2032 H2022 0.930 . S
C2032 C2031 1.400 . S
C2032 C2035 1.386 . S
H2033 C2049 0.930 . S
H2034 C2050 0.931 . S
C2035 H2023 0.929 . S
C2035 C2029 1.390 . S
C2035 C2032 1.386 . S
C2036 C2031 1.490 . S
C2036 C2038 1.395 . S
C2036 C2039 1.403 . S
H2037 C2043 0.930 . S
C2038 H2024 0.930 . S
C2038 C2036 1.395 . S
C2038 C2041 1.403 . S
C2039 C2036 1.403 . S
C2039 C2040 1.524 . S
C2039 C2043 1.400 . S
C2040 H2025 0.960 . S
C2040 H2026 0.960 . S
C2040 H2027 0.960 . S
C2040 C2039 1.524 . S
C2041 C2038 1.403 . S
C2041 C2042 1.392 . S
C2041 C2045 1.495 . S
C2042 C2041 1.392 . S
C2042 C2043 1.385 . S
C2042 C2044 1.478 . S
C2043 H2037 0.930 . S
C2043 C2039 1.400 . S
C2043 C2042 1.385 . S
C2044 C2042 1.478 . S
C2044 C2046 1.381 . S
C2044 C2050 1.383 . S
C2045 C2041 1.495 . S
C2045 H2051 0.959 . S
C2045 H2052 0.961 . S
C2045 H2053 0.960 . S
C2046 C2044 1.381 . S
C2046 C2047 1.394 . S
C2046 H2054 0.930 . S
C2047 C2046 1.394 . S
C2047 C2048 1.383 . S
C2047 H2055 0.929 . S
C2048 C2047 1.383 . S
C2048 C2049 1.377 . S
C2049 H2033 0.930 . S
C2049 C2048 1.377 . S
C2049 C2050 1.379 . S
C2050 H2034 0.931 . S
C2050 C2044 1.383 . S
C2050 C2049 1.379 . S
H2051 C2045 0.959 . S
H2052 C2045 0.961 . S
H2053 C2045 0.960 . S
H2054 C2046 0.930 . S
H2055 C2047 0.929 . S
H2056 C2064 0.929 . S
H2057 C2066 0.930 . S
H2058 C2068 0.930 . S
H2059 C2071 0.929 . S
H2060 C2074 0.930 . S
H2061 C2076 0.960 . S
H2062 C2076 0.960 . S
H2063 C2076 0.960 . S
C2064 H2056 0.929 . S
C2064 C2065 1.377 . S
C2064 C2066 1.384 . S
C2065 C2064 1.377 . S
C2065 C2071 1.390 . S
C2066 H2057 0.930 . S
C2066 C2064 1.384 . S
C2066 C2067 1.372 . S
C2067 C2066 1.372 . S
C2067 C2068 1.400 . S
C2067 C2072 1.490 . S
C2068 H2058 0.930 . S
C2068 C2067 1.400 . S
C2068 C2071 1.386 . S
H2069 C2085 0.930 . S
H2070 C2086 0.931 . S
C2071 H2059 0.929 . S
C2071 C2065 1.390 . S
C2071 C2068 1.386 . S
C2072 C2067 1.490 . S
C2072 C2074 1.395 . S
C2072 C2075 1.403 . S
H2073 C2079 0.930 . S
C2074 H2060 0.930 . S
C2074 C2072 1.395 . S
C2074 C2077 1.403 . S
C2075 C2072 1.403 . S
C2075 C2076 1.524 . S
C2075 C2079 1.400 . S
C2076 H2061 0.960 . S
C2076 H2062 0.960 . S
C2076 H2063 0.960 . S
C2076 C2075 1.524 . S
C2077 C2074 1.403 . S
C2077 C2078 1.392 . S
C2077 C2081 1.495 . S
C2078 C2077 1.392 . S
C2078 C2079 1.385 . S
C2078 C2080 1.478 . S
C2079 H2073 0.930 . S
C2079 C2075 1.400 . S
C2079 C2078 1.385 . S
C2080 C2078 1.478 . S
C2080 C2082 1.381 . S
C2080 C2086 1.383 . S
C2081 C2077 1.495 . S
C2081 H2087 0.959 . S
C2081 H2088 0.961 . S
C2081 H2089 0.960 . S
C2082 C2080 1.381 . S
C2082 C2083 1.394 . S
C2082 H2090 0.930 . S
C2083 C2082 1.394 . S
C2083 C2084 1.383 . S
C2083 H2091 0.929 . S
C2084 C2083 1.383 . S
C2084 C2085 1.377 . S
C2085 H2069 0.930 . S
C2085 C2084 1.377 . S
C2085 C2086 1.379 . S
C2086 H2070 0.931 . S
C2086 C2080 1.383 . S
C2086 C2085 1.379 . S
H2087 C2081 0.959 . S
H2088 C2081 0.961 . S
H2089 C2081 0.960 . S
H2090 C2082 0.930 . S
H2091 C2083 0.929 . S
H2092 C2100 0.929 . S
H2093 C2102 0.930 . S
H2094 C2104 0.930 . S
H2095 C2107 0.929 . S
H2096 C2110 0.930 . S
H2097 C2112 0.960 . S
H2098 C2112 0.960 . S
H2099 C2112 0.960 . S
C2100 H2092 0.929 . S
C2100 C2101 1.377 . S
C2100 C2102 1.384 . S
C2101 C2100 1.377 . S
C2101 C2107 1.390 . S
C2102 H2093 0.930 . S
C2102 C2100 1.384 . S
C2102 C2103 1.372 . S
C2103 C2102 1.372 . S
C2103 C2104 1.400 . S
C2103 C2108 1.490 . S
C2104 H2094 0.930 . S
C2104 C2103 1.400 . S
C2104 C2107 1.386 . S
H2105 C2121 0.930 . S
H2106 C2122 0.931 . S
C2107 H2095 0.929 . S
C2107 C2101 1.390 . S
C2107 C2104 1.386 . S
C2108 C2103 1.490 . S
C2108 C2110 1.395 . S
C2108 C2111 1.403 . S
H2109 C2115 0.930 . S
C2110 H2096 0.930 . S
C2110 C2108 1.395 . S
C2110 C2113 1.403 . S
C2111 C2108 1.403 . S
C2111 C2112 1.524 . S
C2111 C2115 1.400 . S
C2112 H2097 0.960 . S
C2112 H2098 0.960 . S
C2112 H2099 0.960 . S
C2112 C2111 1.524 . S
C2113 C2110 1.403 . S
C2113 C2114 1.392 . S
C2113 C2117 1.495 . S
C2114 C2113 1.392 . S
C2114 C2115 1.385 . S
C2114 C2116 1.478 . S
C2115 H2109 0.930 . S
C2115 C2111 1.400 . S
C2115 C2114 1.385 . S
C2116 C2114 1.478 . S
C2116 C2118 1.381 . S
C2116 C2122 1.383 . S
C2117 C2113 1.495 . S
C2117 H2123 0.959 . S
C2117 H2124 0.961 . S
C2117 H2125 0.960 . S
C2118 C2116 1.381 . S
C2118 C2119 1.394 . S
C2118 H2126 0.930 . S
C2119 C2118 1.394 . S
C2119 C2120 1.383 . S
C2119 H2127 0.929 . S
C2120 C2119 1.383 . S
C2120 C2121 1.377 . S
C2121 H2105 0.930 . S
C2121 C2120 1.377 . S
C2121 C2122 1.379 . S
C2122 H2106 0.931 . S
C2122 C2116 1.383 . S
C2122 C2121 1.379 . S
H2123 C2117 0.959 . S
H2124 C2117 0.961 . S
H2125 C2117 0.960 . S
H2126 C2118 0.930 . S
H2127 C2119 0.929 . S
H2128 C2136 0.929 . S
H2129 C2138 0.930 . S
H2130 C2140 0.930 . S
H2131 C2143 0.929 . S
H2132 C2146 0.930 . S
H2133 C2148 0.960 . S
H2134 C2148 0.960 . S
H2135 C2148 0.960 . S
C2136 H2128 0.929 . S
C2136 C2137 1.377 . S
C2136 C2138 1.384 . S
C2137 C2136 1.377 . S
C2137 C2143 1.390 . S
C2138 H2129 0.930 . S
C2138 C2136 1.384 . S
C2138 C2139 1.372 . S
C2139 C2138 1.372 . S
C2139 C2140 1.400 . S
C2139 C2144 1.490 . S
C2140 H2130 0.930 . S
C2140 C2139 1.400 . S
C2140 C2143 1.386 . S
H2141 C2157 0.930 . S
H2142 C2158 0.931 . S
C2143 H2131 0.929 . S
C2143 C2137 1.390 . S
C2143 C2140 1.386 . S
C2144 C2139 1.490 . S
C2144 C2146 1.395 . S
C2144 C2147 1.403 . S
H2145 C2151 0.930 . S
C2146 H2132 0.930 . S
C2146 C2144 1.395 . S
C2146 C2149 1.403 . S
C2147 C2144 1.403 . S
C2147 C2148 1.524 . S
C2147 C2151 1.400 . S
C2148 H2133 0.960 . S
C2148 H2134 0.960 . S
C2148 H2135 0.960 . S
C2148 C2147 1.524 . S
C2149 C2146 1.403 . S
C2149 C2150 1.392 . S
C2149 C2153 1.495 . S
C2150 C2149 1.392 . S
C2150 C2151 1.385 . S
C2150 C2152 1.478 . S
C2151 H2145 0.930 . S
C2151 C2147 1.400 . S
C2151 C2150 1.385 . S
C2152 C2150 1.478 . S
C2152 C2154 1.381 . S
C2152 C2158 1.383 . S
C2153 C2149 1.495 . S
C2153 H2159 0.959 . S
C2153 H2160 0.961 . S
C2153 H2161 0.960 . S
C2154 C2152 1.381 . S
C2154 C2155 1.394 . S
C2154 H2162 0.930 . S
C2155 C2154 1.394 . S
C2155 C2156 1.383 . S
C2155 H2163 0.929 . S
C2156 C2155 1.383 . S
C2156 C2157 1.377 . S
C2157 H2141 0.930 . S
C2157 C2156 1.377 . S
C2157 C2158 1.379 . S
C2158 H2142 0.931 . S
C2158 C2152 1.383 . S
C2158 C2157 1.379 . S
H2159 C2153 0.959 . S
H2160 C2153 0.961 . S
H2161 C2153 0.960 . S
H2162 C2154 0.930 . S
H2163 C2155 0.929 . S
H2164 C2172 0.929 . S
H2165 C2174 0.930 . S
H2166 C2176 0.930 . S
H2167 C2179 0.929 . S
H2168 C2182 0.930 . S
H2169 C2184 0.960 . S
H2170 C2184 0.960 . S
H2171 C2184 0.960 . S
C2172 H2164 0.929 . S
C2172 C2173 1.377 . S
C2172 C2174 1.384 . S
C2173 C2172 1.377 . S
C2173 C2179 1.390 . S
C2174 H2165 0.930 . S
C2174 C2172 1.384 . S
C2174 C2175 1.372 . S
C2175 C2174 1.372 . S
C2175 C2176 1.400 . S
C2175 C2180 1.490 . S
C2176 H2166 0.930 . S
C2176 C2175 1.400 . S
C2176 C2179 1.386 . S
H2177 C2193 0.930 . S
H2178 C2194 0.931 . S
C2179 H2167 0.929 . S
C2179 C2173 1.390 . S
C2179 C2176 1.386 . S
C2180 C2175 1.490 . S
C2180 C2182 1.395 . S
C2180 C2183 1.403 . S
H2181 C2187 0.930 . S
C2182 H2168 0.930 . S
C2182 C2180 1.395 . S
C2182 C2185 1.403 . S
C2183 C2180 1.403 . S
C2183 C2184 1.524 . S
C2183 C2187 1.400 . S
C2184 H2169 0.960 . S
C2184 H2170 0.960 . S
C2184 H2171 0.960 . S
C2184 C2183 1.524 . S
C2185 C2182 1.403 . S
C2185 C2186 1.392 . S
C2185 C2189 1.495 . S
C2186 C2185 1.392 . S
C2186 C2187 1.385 . S
C2186 C2188 1.478 . S
C2187 H2181 0.930 . S
C2187 C2183 1.400 . S
C2187 C2186 1.385 . S
C2188 C2186 1.478 . S
C2188 C2190 1.381 . S
C2188 C2194 1.383 . S
C2189 C2185 1.495 . S
C2189 H2195 0.959 . S
C2189 H2196 0.961 . S
C2189 H2197 0.960 . S
C2190 C2188 1.381 . S
C2190 C2191 1.394 . S
C2190 H2198 0.930 . S
C2191 C2190 1.394 . S
C2191 C2192 1.383 . S
C2191 H2199 0.929 . S
C2192 C2191 1.383 . S
C2192 C2193 1.377 . S
C2193 H2177 0.930 . S
C2193 C2192 1.377 . S
C2193 C2194 1.379 . S
C2194 H2178 0.931 . S
C2194 C2188 1.383 . S
C2194 C2193 1.379 . S
H2195 C2189 0.959 . S
H2196 C2189 0.961 . S
H2197 C2189 0.960 . S
H2198 C2190 0.930 . S
H2199 C2191 0.929 . S
H2200 C2208 0.929 . S
H2201 C2210 0.930 . S
H2202 C2212 0.930 . S
H2203 C2215 0.929 . S
H2204 C2218 0.930 . S
H2205 C2220 0.960 . S
H2206 C2220 0.960 . S
H2207 C2220 0.960 . S
C2208 H2200 0.929 . S
C2208 C2209 1.377 . S
C2208 C2210 1.384 . S
C2209 C2208 1.377 . S
C2209 C2215 1.390 . S
C2210 H2201 0.930 . S
C2210 C2208 1.384 . S
C2210 C2211 1.372 . S
C2211 C2210 1.372 . S
C2211 C2212 1.400 . S
C2211 C2216 1.490 . S
C2212 H2202 0.930 . S
C2212 C2211 1.400 . S
C2212 C2215 1.386 . S
H2213 C2229 0.930 . S
H2214 C2230 0.931 . S
C2215 H2203 0.929 . S
C2215 C2209 1.390 . S
C2215 C2212 1.386 . S
C2216 C2211 1.490 . S
C2216 C2218 1.395 . S
C2216 C2219 1.403 . S
H2217 C2223 0.930 . S
C2218 H2204 0.930 . S
C2218 C2216 1.395 . S
C2218 C2221 1.403 . S
C2219 C2216 1.403 . S
C2219 C2220 1.524 . S
C2219 C2223 1.400 . S
C2220 H2205 0.960 . S
C2220 H2206 0.960 . S
C2220 H2207 0.960 . S
C2220 C2219 1.524 . S
C2221 C2218 1.403 . S
C2221 C2222 1.392 . S
C2221 C2225 1.495 . S
C2222 C2221 1.392 . S
C2222 C2223 1.385 . S
C2222 C2224 1.478 . S
C2223 H2217 0.930 . S
C2223 C2219 1.400 . S
C2223 C2222 1.385 . S
C2224 C2222 1.478 . S
C2224 C2226 1.381 . S
C2224 C2230 1.383 . S
C2225 C2221 1.495 . S
C2225 H2231 0.959 . S
C2225 H2232 0.961 . S
C2225 H2233 0.960 . S
C2226 C2224 1.381 . S
C2226 C2227 1.394 . S
C2226 H2234 0.930 . S
C2227 C2226 1.394 . S
C2227 C2228 1.383 . S
C2227 H2235 0.929 . S
C2228 C2227 1.383 . S
C2228 C2229 1.377 . S
C2229 H2213 0.930 . S
C2229 C2228 1.377 . S
C2229 C2230 1.379 . S
C2230 H2214 0.931 . S
C2230 C2224 1.383 . S
C2230 C2229 1.379 . S
H2231 C2225 0.959 . S
H2232 C2225 0.961 . S
H2233 C2225 0.960 . S
H2234 C2226 0.930 . S
H2235 C2227 0.929 . S
H2236 C2244 0.929 . S
H2237 C2246 0.930 . S
H2238 C2248 0.930 . S
H2239 C2251 0.929 . S
H2240 C2254 0.930 . S
H2241 C2256 0.960 . S
H2242 C2256 0.960 . S
H2243 C2256 0.960 . S
C2244 H2236 0.929 . S
C2244 C2245 1.377 . S
C2244 C2246 1.384 . S
C2245 C2244 1.377 . S
C2245 C2251 1.390 . S
C2246 H2237 0.930 . S
C2246 C2244 1.384 . S
C2246 C2247 1.372 . S
C2247 C2246 1.372 . S
C2247 C2248 1.400 . S
C2247 C2252 1.490 . S
C2248 H2238 0.930 . S
C2248 C2247 1.400 . S
C2248 C2251 1.386 . S
H2249 C2265 0.930 . S
H2250 C2266 0.931 . S
C2251 H2239 0.929 . S
C2251 C2245 1.390 . S
C2251 C2248 1.386 . S
C2252 C2247 1.490 . S
C2252 C2254 1.395 . S
C2252 C2255 1.403 . S
H2253 C2259 0.930 . S
C2254 H2240 0.930 . S
C2254 C2252 1.395 . S
C2254 C2257 1.403 . S
C2255 C2252 1.403 . S
C2255 C2256 1.524 . S
C2255 C2259 1.400 . S
C2256 H2241 0.960 . S
C2256 H2242 0.960 . S
C2256 H2243 0.960 . S
C2256 C2255 1.524 . S
C2257 C2254 1.403 . S
C2257 C2258 1.392 . S
C2257 C2261 1.495 . S
C2258 C2257 1.392 . S
C2258 C2259 1.385 . S
C2258 C2260 1.478 . S
C2259 H2253 0.930 . S
C2259 C2255 1.400 . S
C2259 C2258 1.385 . S
C2260 C2258 1.478 . S
C2260 C2262 1.381 . S
C2260 C2266 1.383 . S
C2261 C2257 1.495 . S
C2261 H2267 0.959 . S
C2261 H2268 0.961 . S
C2261 H2269 0.960 . S
C2262 C2260 1.381 . S
C2262 C2263 1.394 . S
C2262 H2270 0.930 . S
C2263 C2262 1.394 . S
C2263 C2264 1.383 . S
C2263 H2271 0.929 . S
C2264 C2263 1.383 . S
C2264 C2265 1.377 . S
C2265 H2249 0.930 . S
C2265 C2264 1.377 . S
C2265 C2266 1.379 . S
C2266 H2250 0.931 . S
C2266 C2260 1.383 . S
C2266 C2265 1.379 . S
H2267 C2261 0.959 . S
H2268 C2261 0.961 . S
H2269 C2261 0.960 . S
H2270 C2262 0.930 . S
H2271 C2263 0.929 . S
H2272 C2280 0.929 . S
H2273 C2282 0.930 . S
H2274 C2284 0.930 . S
H2275 C2287 0.929 . S
H2276 C2290 0.930 . S
H2277 C2292 0.960 . S
H2278 C2292 0.960 . S
H2279 C2292 0.960 . S
C2280 H2272 0.929 . S
C2280 C2281 1.377 . S
C2280 C2282 1.384 . S
C2281 C2280 1.377 . S
C2281 C2287 1.390 . S
C2282 H2273 0.930 . S
C2282 C2280 1.384 . S
C2282 C2283 1.372 . S
C2283 C2282 1.372 . S
C2283 C2284 1.400 . S
C2283 C2288 1.490 . S
C2284 H2274 0.930 . S
C2284 C2283 1.400 . S
C2284 C2287 1.386 . S
H2285 C2301 0.930 . S
H2286 C2302 0.931 . S
C2287 H2275 0.929 . S
C2287 C2281 1.390 . S
C2287 C2284 1.386 . S
C2288 C2283 1.490 . S
C2288 C2290 1.395 . S
C2288 C2291 1.403 . S
H2289 C2295 0.930 . S
C2290 H2276 0.930 . S
C2290 C2288 1.395 . S
C2290 C2293 1.403 . S
C2291 C2288 1.403 . S
C2291 C2292 1.524 . S
C2291 C2295 1.400 . S
C2292 H2277 0.960 . S
C2292 H2278 0.960 . S
C2292 H2279 0.960 . S
C2292 C2291 1.524 . S
C2293 C2290 1.403 . S
C2293 C2294 1.392 . S
C2293 C2297 1.495 . S
C2294 C2293 1.392 . S
C2294 C2295 1.385 . S
C2294 C2296 1.478 . S
C2295 H2289 0.930 . S
C2295 C2291 1.400 . S
C2295 C2294 1.385 . S
C2296 C2294 1.478 . S
C2296 C2298 1.381 . S
C2296 C2302 1.383 . S
C2297 C2293 1.495 . S
C2297 H2303 0.959 . S
C2297 H2304 0.961 . S
C2297 H2305 0.960 . S
C2298 C2296 1.381 . S
C2298 C2299 1.394 . S
C2298 H2306 0.930 . S
C2299 C2298 1.394 . S
C2299 C2300 1.383 . S
C2299 H2307 0.929 . S
C2300 C2299 1.383 . S
C2300 C2301 1.377 . S
C2301 H2285 0.930 . S
C2301 C2300 1.377 . S
C2301 C2302 1.379 . S
C2302 H2286 0.931 . S
C2302 C2296 1.383 . S
C2302 C2301 1.379 . S
H2303 C2297 0.959 . S
H2304 C2297 0.961 . S
H2305 C2297 0.960 . S
H2306 C2298 0.930 . S
H2307 C2299 0.929 . S
H2308 C2316 0.929 . S
H2309 C2318 0.930 . S
H2310 C2320 0.930 . S
H2311 C2323 0.929 . S
H2312 C2326 0.930 . S
H2313 C2328 0.960 . S
H2314 C2328 0.960 . S
H2315 C2328 0.960 . S
C2316 H2308 0.929 . S
C2316 C2317 1.377 . S
C2316 C2318 1.384 . S
C2317 C2316 1.377 . S
C2317 C2323 1.390 . S
C2318 H2309 0.930 . S
C2318 C2316 1.384 . S
C2318 C2319 1.372 . S
C2319 C2318 1.372 . S
C2319 C2320 1.400 . S
C2319 C2324 1.490 . S
C2320 H2310 0.930 . S
C2320 C2319 1.400 . S
C2320 C2323 1.386 . S
H2321 C2337 0.930 . S
H2322 C2338 0.931 . S
C2323 H2311 0.929 . S
C2323 C2317 1.390 . S
C2323 C2320 1.386 . S
C2324 C2319 1.490 . S
C2324 C2326 1.395 . S
C2324 C2327 1.403 . S
H2325 C2331 0.930 . S
C2326 H2312 0.930 . S
C2326 C2324 1.395 . S
C2326 C2329 1.403 . S
C2327 C2324 1.403 . S
C2327 C2328 1.524 . S
C2327 C2331 1.400 . S
C2328 H2313 0.960 . S
C2328 H2314 0.960 . S
C2328 H2315 0.960 . S
C2328 C2327 1.524 . S
C2329 C2326 1.403 . S
C2329 C2330 1.392 . S
C2329 C2333 1.495 . S
C2330 C2329 1.392 . S
C2330 C2331 1.385 . S
C2330 C2332 1.478 . S
C2331 H2325 0.930 . S
C2331 C2327 1.400 . S
C2331 C2330 1.385 . S
C2332 C2330 1.478 . S
C2332 C2334 1.381 . S
C2332 C2338 1.383 . S
C2333 C2329 1.495 . S
C2333 H2339 0.959 . S
C2333 H2340 0.961 . S
C2333 H2341 0.960 . S
C2334 C2332 1.381 . S
C2334 C2335 1.394 . S
C2334 H2342 0.930 . S
C2335 C2334 1.394 . S
C2335 C2336 1.383 . S
C2335 H2343 0.929 . S
C2336 C2335 1.383 . S
C2336 C2337 1.377 . S
C2337 H2321 0.930 . S
C2337 C2336 1.377 . S
C2337 C2338 1.379 . S
C2338 H2322 0.931 . S
C2338 C2332 1.383 . S
C2338 C2337 1.379 . S
H2339 C2333 0.959 . S
H2340 C2333 0.961 . S
H2341 C2333 0.960 . S
H2342 C2334 0.930 . S
H2343 C2335 0.929 . S
H2344 C2352 0.929 . S
H2345 C2354 0.930 . S
H2346 C2356 0.930 . S
H2347 C2359 0.929 . S
H2348 C2362 0.930 . S
H2349 C2364 0.960 . S
H2350 C2364 0.960 . S
H2351 C2364 0.960 . S
C2352 H2344 0.929 . S
C2352 C2353 1.377 . S
C2352 C2354 1.384 . S
C2353 C2352 1.377 . S
C2353 C2359 1.390 . S
C2354 H2345 0.930 . S
C2354 C2352 1.384 . S
C2354 C2355 1.372 . S
C2355 C2354 1.372 . S
C2355 C2356 1.400 . S
C2355 C2360 1.490 . S
C2356 H2346 0.930 . S
C2356 C2355 1.400 . S
C2356 C2359 1.386 . S
H2357 C2373 0.930 . S
H2358 C2374 0.931 . S
C2359 H2347 0.929 . S
C2359 C2353 1.390 . S
C2359 C2356 1.386 . S
C2360 C2355 1.490 . S
C2360 C2362 1.395 . S
C2360 C2363 1.403 . S
H2361 C2367 0.930 . S
C2362 H2348 0.930 . S
C2362 C2360 1.395 . S
C2362 C2365 1.403 . S
C2363 C2360 1.403 . S
C2363 C2364 1.524 . S
C2363 C2367 1.400 . S
C2364 H2349 0.960 . S
C2364 H2350 0.960 . S
C2364 H2351 0.960 . S
C2364 C2363 1.524 . S
C2365 C2362 1.403 . S
C2365 C2366 1.392 . S
C2365 C2369 1.495 . S
C2366 C2365 1.392 . S
C2366 C2367 1.385 . S
C2366 C2368 1.478 . S
C2367 H2361 0.930 . S
C2367 C2363 1.400 . S
C2367 C2366 1.385 . S
C2368 C2366 1.478 . S
C2368 C2370 1.381 . S
C2368 C2374 1.383 . S
C2369 C2365 1.495 . S
C2369 H2375 0.959 . S
C2369 H2376 0.961 . S
C2369 H2377 0.960 . S
C2370 C2368 1.381 . S
C2370 C2371 1.394 . S
C2370 H2378 0.930 . S
C2371 C2370 1.394 . S
C2371 C2372 1.383 . S
C2371 H2379 0.929 . S
C2372 C2371 1.383 . S
C2372 C2373 1.377 . S
C2373 H2357 0.930 . S
C2373 C2372 1.377 . S
C2373 C2374 1.379 . S
C2374 H2358 0.931 . S
C2374 C2368 1.383 . S
C2374 C2373 1.379 . S
H2375 C2369 0.959 . S
H2376 C2369 0.961 . S
H2377 C2369 0.960 . S
H2378 C2370 0.930 . S
H2379 C2371 0.929 . S
H2380 C2388 0.929 . S
H2381 C2390 0.930 . S
H2382 C2392 0.930 . S
H2383 C2395 0.929 . S
H2384 C2398 0.930 . S
H2385 C2400 0.960 . S
H2386 C2400 0.960 . S
H2387 C2400 0.960 . S
C2388 H2380 0.929 . S
C2388 C2389 1.377 . S
C2388 C2390 1.384 . S
C2389 C2388 1.377 . S
C2389 C2395 1.390 . S
C2390 H2381 0.930 . S
C2390 C2388 1.384 . S
C2390 C2391 1.372 . S
C2391 C2390 1.372 . S
C2391 C2392 1.400 . S
C2391 C2396 1.490 . S
C2392 H2382 0.930 . S
C2392 C2391 1.400 . S
C2392 C2395 1.386 . S
H2393 C2409 0.930 . S
H2394 C2410 0.931 . S
C2395 H2383 0.929 . S
C2395 C2389 1.390 . S
C2395 C2392 1.386 . S
C2396 C2391 1.490 . S
C2396 C2398 1.395 . S
C2396 C2399 1.403 . S
H2397 C2403 0.930 . S
C2398 H2384 0.930 . S
C2398 C2396 1.395 . S
C2398 C2401 1.403 . S
C2399 C2396 1.403 . S
C2399 C2400 1.524 . S
C2399 C2403 1.400 . S
C2400 H2385 0.960 . S
C2400 H2386 0.960 . S
C2400 H2387 0.960 . S
C2400 C2399 1.524 . S
C2401 C2398 1.403 . S
C2401 C2402 1.392 . S
C2401 C2405 1.495 . S
C2402 C2401 1.392 . S
C2402 C2403 1.385 . S
C2402 C2404 1.478 . S
C2403 H2397 0.930 . S
C2403 C2399 1.400 . S
C2403 C2402 1.385 . S
C2404 C2402 1.478 . S
C2404 C2406 1.381 . S
C2404 C2410 1.383 . S
C2405 C2401 1.495 . S
C2405 H2411 0.959 . S
C2405 H2412 0.961 . S
C2405 H2413 0.960 . S
C2406 C2404 1.381 . S
C2406 C2407 1.394 . S
C2406 H2414 0.930 . S
C2407 C2406 1.394 . S
C2407 C2408 1.383 . S
C2407 H2415 0.929 . S
C2408 C2407 1.383 . S
C2408 C2409 1.377 . S
C2409 H2393 0.930 . S
C2409 C2408 1.377 . S
C2409 C2410 1.379 . S
C2410 H2394 0.931 . S
C2410 C2404 1.383 . S
C2410 C2409 1.379 . S
H2411 C2405 0.959 . S
H2412 C2405 0.961 . S
H2413 C2405 0.960 . S
H2414 C2406 0.930 . S
H2415 C2407 0.929 . S
H2416 C2424 0.929 . S
H2417 C2426 0.930 . S
H2418 C2428 0.930 . S
H2419 C2431 0.929 . S
H2420 C2434 0.930 . S
H2421 C2436 0.960 . S
H2422 C2436 0.960 . S
H2423 C2436 0.960 . S
C2424 H2416 0.929 . S
C2424 C2425 1.377 . S
C2424 C2426 1.384 . S
C2425 C2424 1.377 . S
C2425 C2431 1.390 . S
C2426 H2417 0.930 . S
C2426 C2424 1.384 . S
C2426 C2427 1.372 . S
C2427 C2426 1.372 . S
C2427 C2428 1.400 . S
C2427 C2432 1.490 . S
C2428 H2418 0.930 . S
C2428 C2427 1.400 . S
C2428 C2431 1.386 . S
H2429 C2445 0.930 . S
H2430 C2446 0.931 . S
C2431 H2419 0.929 . S
C2431 C2425 1.390 . S
C2431 C2428 1.386 . S
C2432 C2427 1.490 . S
C2432 C2434 1.395 . S
C2432 C2435 1.403 . S
H2433 C2439 0.930 . S
C2434 H2420 0.930 . S
C2434 C2432 1.395 . S
C2434 C2437 1.403 . S
C2435 C2432 1.403 . S
C2435 C2436 1.524 . S
C2435 C2439 1.400 . S
C2436 H2421 0.960 . S
C2436 H2422 0.960 . S
C2436 H2423 0.960 . S
C2436 C2435 1.524 . S
C2437 C2434 1.403 . S
C2437 C2438 1.392 . S
C2437 C2441 1.495 . S
C2438 C2437 1.392 . S
C2438 C2439 1.385 . S
C2438 C2440 1.478 . S
C2439 H2433 0.930 . S
C2439 C2435 1.400 . S
C2439 C2438 1.385 . S
C2440 C2438 1.478 . S
C2440 C2442 1.381 . S
C2440 C2446 1.383 . S
C2441 C2437 1.495 . S
C2441 H2447 0.959 . S
C2441 H2448 0.961 . S
C2441 H2449 0.960 . S
C2442 C2440 1.381 . S
C2442 C2443 1.394 . S
C2442 H2450 0.930 . S
C2443 C2442 1.394 . S
C2443 C2444 1.383 . S
C2443 H2451 0.929 . S
C2444 C2443 1.383 . S
C2444 C2445 1.377 . S
C2445 H2429 0.930 . S
C2445 C2444 1.377 . S
C2445 C2446 1.379 . S
C2446 H2430 0.931 . S
C2446 C2440 1.383 . S
C2446 C2445 1.379 . S
H2447 C2441 0.959 . S
H2448 C2441 0.961 . S
H2449 C2441 0.960 . S
H2450 C2442 0.930 . S
H2451 C2443 0.929 . S
H2452 C2460 0.929 . S
H2453 C2462 0.930 . S
H2454 C2464 0.930 . S
H2455 C2467 0.929 . S
H2456 C2470 0.930 . S
H2457 C2472 0.960 . S
H2458 C2472 0.960 . S
H2459 C2472 0.960 . S
C2460 H2452 0.929 . S
C2460 C2461 1.377 . S
C2460 C2462 1.384 . S
C2461 C2460 1.377 . S
C2461 C2467 1.390 . S
C2462 H2453 0.930 . S
C2462 C2460 1.384 . S
C2462 C2463 1.372 . S
C2463 C2462 1.372 . S
C2463 C2464 1.400 . S
C2463 C2468 1.490 . S
C2464 H2454 0.930 . S
C2464 C2463 1.400 . S
C2464 C2467 1.386 . S
H2465 C2481 0.930 . S
H2466 C2482 0.931 . S
C2467 H2455 0.929 . S
C2467 C2461 1.390 . S
C2467 C2464 1.386 . S
C2468 C2463 1.490 . S
C2468 C2470 1.395 . S
C2468 C2471 1.403 . S
H2469 C2475 0.930 . S
C2470 H2456 0.930 . S
C2470 C2468 1.395 . S
C2470 C2473 1.403 . S
C2471 C2468 1.403 . S
C2471 C2472 1.524 . S
C2471 C2475 1.400 . S
C2472 H2457 0.960 . S
C2472 H2458 0.960 . S
C2472 H2459 0.960 . S
C2472 C2471 1.524 . S
C2473 C2470 1.403 . S
C2473 C2474 1.392 . S
C2473 C2477 1.495 . S
C2474 C2473 1.392 . S
C2474 C2475 1.385 . S
C2474 C2476 1.478 . S
C2475 H2469 0.930 . S
C2475 C2471 1.400 . S
C2475 C2474 1.385 . S
C2476 C2474 1.478 . S
C2476 C2478 1.381 . S
C2476 C2482 1.383 . S
C2477 C2473 1.495 . S
C2477 H2483 0.959 . S
C2477 H2484 0.961 . S
C2477 H2485 0.960 . S
C2478 C2476 1.381 . S
C2478 C2479 1.394 . S
C2478 H2486 0.930 . S
C2479 C2478 1.394 . S
C2479 C2480 1.383 . S
C2479 H2487 0.929 . S
C2480 C2479 1.383 . S
C2480 C2481 1.377 . S
C2481 H2465 0.930 . S
C2481 C2480 1.377 . S
C2481 C2482 1.379 . S
C2482 H2466 0.931 . S
C2482 C2476 1.383 . S
C2482 C2481 1.379 . S
H2483 C2477 0.959 . S
H2484 C2477 0.961 . S
H2485 C2477 0.960 . S
H2486 C2478 0.930 . S
H2487 C2479 0.929 . S
C1364 C941 1.446 . S
C1345 C29 1.188 . S
C1400 C994 1.496 . S
C1381 C125 0.826 . S
C1436 C1057 1.548 . S
C1417 C257 1.243 . S
C1472 C1100 1.440 . S
C1453 C353 0.817 . S
C1489 C457 1.154 . S
C1508 C1056 1.500 . S
C1544 C1093 1.499 . S
C1525 C625 1.203 . S
C1580 C934 1.420 . S
C1561 C685 1.104 . S
C1616 C987 1.398 . S
C1597 C853 1.080 . S
C1652 C1040 1.648 . S
C1633 C809 1.077 . S
C1688 C1109 1.754 . S
C1669 C485 1.469 . S
C1724 C950 1.745 . S
C1705 C581 1.138 . S
C1760 C1003 1.676 . S
C1741 C713 1.385 . S
C1796 C951 1.714 . S
C1777 C169 1.257 . S
C1832 C1004 1.731 . S
C1813 C229 1.349 . S
C1868 C1047 1.645 . S
C1849 C397 1.199 . S
C1904 C1110 1.629 . S
C1885 C1 1.280 . S
C1940 C1153 1.417 . S
C1921 C827 1.146 . S
C1957 C467 1.094 . S
C1976 C1206 1.864 . S
C1993 C599 1.299 . S
C2012 C1268 1.565 . S
C2029 C695 1.097 . S
C2048 C1322 1.846 . S
C2065 C115 1.157 . S
C2084 C1269 1.470 . S
C2101 C283 1.529 . S
C2120 C1321 1.932 . S
C2137 C343 1.128 . S
C2156 C1146 1.448 . S
C2192 C1199 1.750 . S
C2173 C55 1.382 . S
C2228 C1259 1.620 . S
C2209 C11 1.030 . S
C2245 C143 1.094 . S
C2264 C1305 1.312 . S
C2281 C239 1.156 . S
C2300 C1162 1.788 . S
C2317 C371 1.075 . S
C2336 C1215 1.286 . S
C2372 C1163 1.665 . S
C2353 C511 1.216 . S
C2408 C1216 1.354 . S
C2389 C571 1.023 . S
C2425 C739 1.235 . S
C2444 C1252 1.678 . S
C2480 C1312 1.199 . S
C2461 C799 0.944 . S
