# Generated by pormake.
# Topology pyr, (3,6)-cn, num edge types: 1
# Building blocks:
#     Node 0, Type 0, BuildingBlock: PAMTOO_clean_linker_0, # of connection points: 3
#     Node 1, Type 0, BuildingBlock: PAMTOO_clean_linker_0, # of connection points: 3
#     Node 2, Type 0, BuildingBlock: PAMTOO_clean_linker_0, # of connection points: 3
#     Node 3, Type 0, BuildingBlock: PAMTOO_clean_linker_0, # of connection points: 3
#     Node 4, Type 0, BuildingBlock: PAMTOO_clean_linker_0, # of connection points: 3
#     Node 5, Type 0, BuildingBlock: PAMTOO_clean_linker_0, # of connection points: 3
#     Node 6, Type 0, BuildingBlock: PAMTOO_clean_linker_0, # of connection points: 3
#     Node 7, Type 0, BuildingBlock: PAMTOO_clean_linker_0, # of connection points: 3
#     Node 8, Type 1, BuildingBlock: GEDQOX_clean_sbu_0, # of connection points: 6
#     Node 9, Type 1, BuildingBlock: GEDQOX_clean_sbu_0, # of connection points: 6
#     Node 10, Type 1, BuildingBlock: GEDQOX_clean_sbu_0, # of connection points: 6
#     Node 11, Type 1, BuildingBlock: GEDQOX_clean_sbu_0, # of connection points: 6
#     Edge 12, Type (0, 1), BuildingBlock: CIFDUS_clean_linker_0, # of connection points: 2
#     Edge 13, Type (0, 1), BuildingBlock: CIFDUS_clean_linker_0, # of connection points: 2
#     Edge 14, Type (0, 1), BuildingBlock: CIFDUS_clean_linker_0, # of connection points: 2
#     Edge 15, Type (0, 1), BuildingBlock: CIFDUS_clean_linker_0, # of connection points: 2
#     Edge 16, Type (0, 1), BuildingBlock: CIFDUS_clean_linker_0, # of connection points: 2
#     Edge 17, Type (0, 1), BuildingBlock: CIFDUS_clean_linker_0, # of connection points: 2
#     Edge 18, Type (0, 1), BuildingBlock: CIFDUS_clean_linker_0, # of connection points: 2
#     Edge 19, Type (0, 1), BuildingBlock: CIFDUS_clean_linker_0, # of connection points: 2
#     Edge 20, Type (0, 1), BuildingBlock: CIFDUS_clean_linker_0, # of connection points: 2
#     Edge 21, Type (0, 1), BuildingBlock: CIFDUS_clean_linker_0, # of connection points: 2
#     Edge 22, Type (0, 1), BuildingBlock: CIFDUS_clean_linker_0, # of connection points: 2
#     Edge 23, Type (0, 1), BuildingBlock: CIFDUS_clean_linker_0, # of connection points: 2
#     Edge 24, Type (0, 1), BuildingBlock: CIFDUS_clean_linker_0, # of connection points: 2
#     Edge 25, Type (0, 1), BuildingBlock: CIFDUS_clean_linker_0, # of connection points: 2
#     Edge 26, Type (0, 1), BuildingBlock: CIFDUS_clean_linker_0, # of connection points: 2
#     Edge 27, Type (0, 1), BuildingBlock: CIFDUS_clean_linker_0, # of connection points: 2
#     Edge 28, Type (0, 1), BuildingBlock: CIFDUS_clean_linker_0, # of connection points: 2
#     Edge 29, Type (0, 1), BuildingBlock: CIFDUS_clean_linker_0, # of connection points: 2
#     Edge 30, Type (0, 1), BuildingBlock: CIFDUS_clean_linker_0, # of connection points: 2
#     Edge 31, Type (0, 1), BuildingBlock: CIFDUS_clean_linker_0, # of connection points: 2
#     Edge 32, Type (0, 1), BuildingBlock: CIFDUS_clean_linker_0, # of connection points: 2
#     Edge 33, Type (0, 1), BuildingBlock: CIFDUS_clean_linker_0, # of connection points: 2
#     Edge 34, Type (0, 1), BuildingBlock: CIFDUS_clean_linker_0, # of connection points: 2
#     Edge 35, Type (0, 1), BuildingBlock: CIFDUS_clean_linker_0, # of connection points: 2
# Relax obj value: 0.194
# Max RMSD: 0.235
# Mean RMSD: 0.153
data_MOF--net-pyr--node1-GEDQOX_clean_sbu_0--node2-PAMTOO_clean_linker_0--edge1-CIFDUS_clean_linker_0
_symmetry_space_group_name_H-M    P1
_symmetry_Int_Tables_number       1
_symmetry_cell_setting            triclinic
loop_
_symmetry_equiv_pos_as_xyz
'x, y, z'
_cell_length_a     34.847872
_cell_length_b     35.475903
_cell_length_c     31.431956
_cell_angle_alpha  89.585446
_cell_angle_beta   95.240931
_cell_angle_gamma 93.234767
loop_
_atom_site_label
_atom_site_type_symbol
_atom_site_fract_x
_atom_site_fract_y
_atom_site_fract_z
_atom_type_partial_charge
H0 H 0.16242 0.21925 0.23758 0.0
H1 H 0.24524 0.1317 0.25093 0.0
H2 H 0.25454 0.21802 0.15384 0.0
H3 H 0.28845 0.14254 0.12383 0.0
C4 C 0.30152 0.13187 0.15482 0.0
O5 O 0.29125 0.1578 0.18789 0.0
H6 H 0.28555 0.10448 0.15991 0.0
C7 C 0.18752 0.20656 0.22769 0.0
C8 C 0.2055 0.22472 0.19221 0.0
C9 C 0.20036 0.17278 0.25076 0.0
C10 C 0.2339 0.15611 0.23441 0.0
C11 C 0.25442 0.17138 0.19851 0.0
C12 C 0.23906 0.20572 0.1792 0.0
H13 H 0.37296 0.85799 0.7639 0.0
H14 H 0.39317 0.75791 0.69355 0.0
H15 H 0.48017 0.80371 0.78655 0.0
H16 H 0.51359 0.78077 0.71176 0.0
C17 C 0.48911 0.76258 0.69664 0.0
O18 O 0.46376 0.75309 0.72677 0.0
H19 H 0.47468 0.77913 0.67012 0.0
C20 C 0.39081 0.83506 0.75742 0.0
C21 C 0.42739 0.83346 0.77999 0.0
C22 C 0.37763 0.80785 0.72618 0.0
C23 C 0.40216 0.77921 0.71745 0.0
C24 C 0.43909 0.7782 0.73877 0.0
C25 C 0.45133 0.80468 0.77057 0.0
H26 H 0.81028 0.37345 0.9047 0.0
H27 H 0.7317 0.38908 0.79281 0.0
H28 H 0.82293 0.47216 0.82497 0.0
H29 H 0.75244 0.50732 0.79139 0.0
C30 C 0.73666 0.48162 0.77718 0.0
O31 O 0.76278 0.45444 0.77254 0.0
H32 H 0.71485 0.47156 0.7991 0.0
C33 C 0.80102 0.38999 0.87695 0.0
C34 C 0.82073 0.4247 0.86897 0.0
C35 C 0.76927 0.37643 0.84929 0.0
C36 C 0.75677 0.39836 0.81385 0.0
C37 C 0.77588 0.43296 0.80582 0.0
C38 C 0.80806 0.44571 0.83268 0.0
H39 H 0.84346 0.86382 0.34102 0.0
H40 H 0.86821 0.7999 0.23226 0.0
H41 H 0.91612 0.91327 0.24952 0.0
H42 H 0.91244 0.86261 0.13877 0.0
C43 C 0.90034 0.8424 0.16187 0.0
O44 O 0.91434 0.85301 0.2028 0.0
H45 H 0.86829 0.843 0.15717 0.0
C46 C 0.85569 0.86263 0.31057 0.0
C47 C 0.87986 0.89282 0.29801 0.0
C48 C 0.85094 0.8291 0.28678 0.0
C49 C 0.87019 0.8262 0.2498 0.0
C50 C 0.89235 0.85713 0.23547 0.0
C51 C 0.89672 0.89051 0.25924 0.0
H52 H 0.85261 0.93363 0.83725 0.0
H53 H 0.85668 0.8469 0.93669 0.0
H54 H 0.94044 0.85037 0.84455 0.0
H55 H 0.91434 0.76488 0.87881 0.0
C56 C 0.91711 0.77286 0.9131 0.0
O57 O 0.92154 0.81401 0.91505 0.0
H58 H 0.88856 0.76476 0.92451 0.0
C59 C 0.86533 0.90916 0.8522 0.0
C60 C 0.89892 0.89438 0.83334 0.0
C61 C 0.84809 0.89308 0.89024 0.0
C62 C 0.86731 0.85996 0.90856 0.0
C63 C 0.90027 0.84303 0.89222 0.0
C64 C 0.91476 0.86149 0.8553 0.0
H65 H 0.75048 0.20794 0.26042 0.0
H66 H 0.65058 0.26873 0.21721 0.0
H67 H 0.72318 0.3079 0.32651 0.0
H68 H 0.6486 0.35516 0.22953 0.0
C69 C 0.66396 0.35441 0.2621 0.0
O70 O 0.66015 0.31837 0.27847 0.0
H71 H 0.69488 0.36304 0.2593 0.0
C72 C 0.73259 0.23158 0.26342 0.0
C73 C 0.74135 0.25732 0.2974 0.0
C74 C 0.70026 0.23562 0.23376 0.0
C75 C 0.67643 0.26572 0.2386 0.0
C76 C 0.68478 0.29133 0.27216 0.0
C77 C 0.71724 0.28743 0.30103 0.0
H78 H 0.32233 0.67148 0.19269 0.0
H79 H 0.27001 0.63935 0.30778 0.0
H80 H 0.37212 0.71227 0.31582 0.0
H81 H 0.31419 0.62202 0.37528 0.0
C82 C 0.32976 0.64883 0.38672 0.0
O83 O 0.32017 0.67792 0.35901 0.0
H84 H 0.31928 0.6549 0.41815 0.0
C85 C 0.32177 0.6729 0.22705 0.0
C86 C 0.35063 0.69487 0.25163 0.0
C87 C 0.29318 0.65159 0.24723 0.0
C88 C 0.29259 0.65429 0.29176 0.0
C89 C 0.32135 0.6755 0.31626 0.0
C90 C 0.35045 0.69534 0.29636 0.0
H91 H 0.21399 0.21329 0.77945 0.0
H92 H 0.32579 0.26928 0.76817 0.0
H93 H 0.30027 0.15988 0.71451 0.0
H94 H 0.39793 0.18763 0.73525 0.0
C95 C 0.38642 0.21552 0.74114 0.0
O96 O 0.34956 0.21667 0.72137 0.0
H97 H 0.38695 0.21943 0.77634 0.0
C98 C 0.24303 0.21309 0.76978 0.0
C99 C 0.25404 0.182 0.74694 0.0
C100 C 0.26885 0.24479 0.77807 0.0
C101 C 0.30573 0.2449 0.76333 0.0
C102 C 0.31696 0.21391 0.74138 0.0
C103 C 0.29161 0.18246 0.73397 0.0
Nd104 Nd 0.07037 1.00303 0.54174 0.0
Nd105 Nd 1.02499 0.06836 0.54219 0.0
C106 C 0.09849 0.93573 0.53531 0.0
C107 C 0.12324 0.91034 0.5613 0.0
C108 C 0.11406 0.89662 0.60137 0.0
C109 C 0.14077 0.87635 0.62706 0.0
C110 C 0.17729 0.87 0.61336 0.0
C111 C 0.1855 0.88278 0.5725 0.0
C112 C 0.15867 0.90226 0.54671 0.0
C113 C 0.10577 0.05789 0.59511 0.0
C114 C 1.0057 1.0024 0.61924 0.0
C115 C 0.9945 0.13488 0.54399 0.0
C116 C 0.9715 0.15811 0.51314 0.0
C117 C 0.98597 0.17238 0.47558 0.0
C118 C 0.9617 0.1902 0.44462 0.0
C119 C 0.9224 0.19364 0.45037 0.0
C120 C 0.90858 0.18037 0.48876 0.0
C121 C 0.93291 0.16324 0.51984 0.0
C122 C 0.9923 1.01347 0.48663 0.0
C123 C 0.09027 0.06903 0.46504 0.0
O124 O 0.06344 0.94023 0.54557 0.0
O125 O 0.116 0.96727 0.52424 0.0
O126 O 0.12418 0.03513 0.57349 0.0
O127 O 0.07015 0.04919 0.59153 0.0
O128 O 1.02791 0.98162 0.59664 0.0
O129 O 1.00312 0.03852 0.60632 0.0
O130 O 1.03091 0.13114 0.53852 0.0
O131 O 0.97694 0.10327 0.55483 0.0
O132 O 0.97234 0.03345 0.5098 0.0
O133 O 1.02728 0.02399 0.49194 0.0
O134 O 0.06771 0.08981 0.48728 0.0
O135 O 0.09284 0.033 0.47815 0.0
H136 H 0.08682 0.90238 0.61337 0.0
H137 H 0.13309 0.86643 0.65797 0.0
H138 H 0.21341 0.87944 0.5609 0.0
H139 H 0.16638 0.91259 0.51591 0.0
H140 H 1.01567 0.16892 0.46954 0.0
H141 H 0.97361 0.20066 0.4159 0.0
H142 H 0.87848 0.18164 0.49429 0.0
H143 H 0.92103 0.15247 0.54852 0.0
Nd144 Nd 0.57506 0.99394 0.05509 0.0
Nd145 Nd 0.57705 0.03367 0.99737 0.0
C146 C 0.5707 0.9339 0.10625 0.0
C147 C 0.54103 0.90662 0.12045 0.0
C148 C 0.55046 0.86917 0.12821 0.0
C149 C 0.52257 0.84212 0.13981 0.0
C150 C 0.48455 0.85199 0.14405 0.0
C151 C 0.47517 0.88969 0.13611 0.0
C152 C 0.50313 0.91673 0.12425 0.0
C153 C 0.50997 0.04184 0.06705 0.0
C154 C 0.5271 0.9632 0.96973 0.0
C155 C 0.57812 0.09493 0.94811 0.0
C156 C 0.60445 0.12817 0.9415 0.0
C157 C 0.59872 0.16252 0.96134 0.0
C158 C 0.62296 0.19436 0.95537 0.0
C159 C 0.6533 0.19271 0.92909 0.0
C160 C 0.65901 0.15842 0.90903 0.0
C161 C 0.63481 0.12642 0.91518 0.0
C162 C 0.64083 0.98601 0.98142 0.0
C163 C 0.62855 0.06185 0.08213 0.0
O164 O 0.57658 0.93217 0.0661 0.0
O165 O 0.57103 0.96857 0.11969 0.0
O166 O 0.5383 0.03412 0.09497 0.0
O167 O 0.51893 0.02658 0.03178 0.0
O168 O 0.54899 0.95256 1.00295 0.0
O169 O 0.52731 0.99917 0.9617 0.0
O170 O 0.56356 0.09305 0.98474 0.0
O171 O 0.58754 0.06206 0.93564 0.0
O172 O 0.61179 0.99532 0.95524 0.0
O173 O 0.63317 0.99958 0.01842 0.0
O174 O 0.60663 0.07359 0.04945 0.0
O175 O 0.62702 0.0258 0.08961 0.0
H176 H 0.57943 0.86071 0.12483 0.0
H177 H 0.53073 0.81332 0.14486 0.0
H178 H 0.44633 0.89843 0.13949 0.0
H179 H 0.49512 0.94545 0.11792 0.0
H180 H 0.57528 0.16491 0.98138 0.0
H181 H 0.61739 0.22053 0.97064 0.0
H182 H 0.68232 0.1563 0.88877 0.0
H183 H 0.63986 0.10042 0.89926 0.0
Nd184 Nd 0.54 0.51264 0.50144 0.0
Nd185 Nd 0.60614 0.56825 0.50131 0.0
C186 C 0.47489 0.47133 0.50445 0.0
C187 C 0.46562 0.43914 0.53189 0.0
C188 C 0.43715 0.41154 0.51766 0.0
C189 C 0.43082 0.37918 0.54226 0.0
C190 C 0.45295 0.37406 0.58142 0.0
C191 C 0.48118 0.40206 0.59572 0.0
C192 C 0.48759 0.43424 0.57105 0.0
C193 C 0.60146 0.49541 0.55906 0.0
C194 C 0.54133 0.58787 0.55847 0.0
C195 C 0.67316 0.6072 0.50238 0.0
C196 C 0.69071 0.63239 0.47166 0.0
C197 C 0.73041 0.64177 0.4765 0.0
C198 C 0.74682 0.66712 0.44817 0.0
C199 C 0.72358 0.68351 0.41489 0.0
C200 C 0.68393 0.67331 0.40963 0.0
C201 C 0.66764 0.64776 0.43769 0.0
C202 C 0.54421 0.5863 0.44495 0.0
C203 C 0.60341 0.49433 0.44026 0.0
O204 O 0.48161 0.50387 0.52366 0.0
O205 O 0.50002 0.46513 0.47737 0.0
O206 O 0.57983 0.47054 0.53697 0.0
O207 O 0.58921 0.52766 0.55226 0.0
O208 O 0.51933 0.56667 0.53062 0.0
O209 O 0.57907 0.58608 0.56071 0.0
O210 O 0.66853 0.57166 0.49152 0.0
O211 O 0.64299 0.61963 0.51833 0.0
O212 O 0.56682 0.61113 0.46603 0.0
O213 O 0.55654 0.55401 0.45124 0.0
O214 O 0.62592 0.51689 0.46612 0.0
O215 O 0.56576 0.49299 0.44181 0.0
H216 H 0.42025 0.41475 0.48729 0.0
H217 H 0.40857 0.35822 0.53073 0.0
H218 H 0.49889 0.39867 0.62551 0.0
H219 H 0.5102 0.455 0.58221 0.0
H220 H 0.74855 0.62998 0.50252 0.0
H221 H 0.77743 0.67479 0.45307 0.0
H222 H 0.66551 0.68529 0.38397 0.0
H223 H 0.63693 0.64044 0.43329 0.0
Nd224 Nd 0.04544 0.50409 0.09182 0.0
Nd225 Nd 0.0925 0.50766 0.02597 0.0
C226 C 0.98891 0.514 0.14016 0.0
C227 C 0.97382 0.55108 0.1474 0.0
C228 C 0.93673 0.55493 0.16007 0.0
C229 C 0.92204 0.59091 0.16184 0.0
C230 C 0.94386 0.6234 0.14975 0.0
C231 C 0.98098 0.61881 0.13698 0.0
C232 C 0.99601 0.58339 0.13691 0.0
C233 C 0.1155 0.54154 0.11524 0.0
C234 C 0.03353 0.57989 0.02222 0.0
C235 C 0.14936 0.504 0.97615 0.0
C236 C 0.16797 0.47245 0.95755 0.0
C237 C 0.18083 0.44194 0.98273 0.0
C238 C 0.19407 0.41025 0.96363 0.0
C239 C 0.19443 0.40829 0.91896 0.0
C240 C 0.18235 0.43931 0.89404 0.0
C241 C 0.16943 0.47107 0.91317 0.0
C242 C 1.02199 0.47395 1.00048 0.0
C243 C 0.10008 0.42944 0.09509 0.0
O244 O 0.9828 0.50201 0.10079 0.0
O245 O 1.02449 0.51023 0.1559 0.0
O246 O 0.10002 0.51502 0.1376 0.0
O247 O 0.09478 0.54721 0.08109 0.0
O248 O 1.01858 0.55645 0.05085 0.0
O249 O 0.06706 0.56946 1.00931 0.0
O250 O 0.15517 0.50891 0.01751 0.0
O251 O 0.11351 0.50774 0.9616 0.0
O252 O 0.03925 0.49978 0.97889 0.0
O253 O 0.04162 0.46603 0.03483 0.0
O254 O 0.11575 0.45056 0.06438 0.0
O255 O 0.06845 0.44298 0.1091 0.0
H256 H 0.91908 0.53025 0.16809 0.0
H257 H 0.89361 0.5931 0.17255 0.0
H258 H 0.99851 0.64237 0.12589 0.0
H259 H 1.02484 0.58117 0.12722 0.0
H260 H 0.17988 0.44211 0.01707 0.0
H261 H 0.20372 0.38717 0.98388 0.0
H262 H 0.18162 0.43865 0.85954 0.0
H263 H 0.15929 0.49409 0.8931 0.0
H264 H 0.19318 0.09811 0.2958 0.0
H265 H 0.15669 0.21157 0.30662 0.0
H266 H 0.12148 0.19249 0.36691 0.0
H267 H 0.09836 0.14372 0.42118 0.0
H268 H 0.13569 0.03062 0.41242 0.0
H269 H 0.17084 0.04934 0.35104 0.0
C270 C 0.17776 0.11928 0.31079 0.0
C271 C 0.17878 0.15737 0.29247 0.0
C272 C 0.15643 0.10785 0.3482 0.0
C273 C 0.15735 0.18219 0.31577 0.0
C274 C 0.1367 0.17112 0.35196 0.0
C275 C 0.114 0.12262 0.40635 0.0
C276 C 0.11272 0.08456 0.42441 0.0
C277 C 0.13543 0.13394 0.3691 0.0
C278 C 0.13453 0.05969 0.40189 0.0
C279 C 0.1553 0.07067 0.36564 0.0
H280 H 0.4616 0.82231 0.85963 0.0
H281 H 0.42428 0.91005 0.77235 0.0
H282 H 0.44973 0.95825 0.82435 0.0
H283 H 0.48555 0.97541 0.89343 0.0
H284 H 0.52276 0.88705 0.98026 0.0
H285 H 0.49437 0.83929 0.92977 0.0
C286 C 0.4591 0.852 0.85205 0.0
C287 C 0.44129 0.86263 0.81222 0.0
C288 C 0.47381 0.87948 0.88201 0.0
C289 C 0.43767 0.90117 0.80297 0.0
C290 C 0.45236 0.92873 0.83259 0.0
C291 C 0.4871 0.94572 0.90143 0.0
C292 C 0.50647 0.93486 0.94043 0.0
C293 C 0.47084 0.91823 0.87209 0.0
C294 C 0.50819 0.89624 0.95037 0.0
C295 C 0.49202 0.86883 0.92149 0.0
H296 H 0.69904 0.43201 0.72003 0.0
H297 H 0.72612 0.55093 0.74037 0.0
H298 H 0.68804 0.56557 0.67364 0.0
H299 H 0.64502 0.54462 0.61102 0.0
H300 H 0.61769 0.42567 0.59043 0.0
H301 H 0.65829 0.41082 0.65539 0.0
C302 C 0.69692 0.46104 0.70941 0.0
C303 C 0.71562 0.49034 0.73463 0.0
C304 C 0.67494 0.46919 0.67109 0.0
C305 C 0.71227 0.52793 0.72114 0.0
C306 C 0.69045 0.5363 0.6831 0.0
C307 C 0.64819 0.51545 0.62065 0.0
C308 C 0.62829 0.48628 0.59624 0.0
C309 C 0.6714 0.50718 0.65803 0.0
C310 C 0.63274 0.4486 0.60882 0.0
C311 C 0.65584 0.44011 0.64598 0.0
H312 H 0.85666 0.77624 0.14463 0.0
H313 H 0.97415 0.82209 0.16415 0.0
H314 H 0.99772 0.75855 0.16443 0.0
H315 H 0.98479 0.69081 0.16431 0.0
H316 H 0.86816 0.64372 0.13592 0.0
H317 H 0.84424 0.70704 0.136 0.0
C318 C 0.88741 0.7722 0.14807 0.0
C319 C 0.91375 0.80362 0.15443 0.0
C320 C 0.90079 0.73552 0.1478 0.0
C321 C 0.9535 0.79819 0.15907 0.0
C322 C 0.96691 0.76194 0.15958 0.0
C323 C 0.95418 0.69397 0.15682 0.0
C324 C 0.92857 0.66196 0.14999 0.0
C325 C 0.94078 0.73044 0.15465 0.0
C326 C 0.88879 0.66742 0.1422 0.0
C327 C 0.87502 0.70377 0.14164 0.0
H328 H 0.33377 0.10773 0.078 0.0
H329 H 0.37323 0.12446 0.21051 0.0
H330 H 0.43591 0.10008 0.19671 0.0
H331 H 0.4826 0.07142 0.14671 0.0
H332 H 0.4412 0.05435 1.01451 0.0
H333 H 0.37975 0.08027 0.02855 0.0
C334 C 0.356 0.10712 0.10437 0.0
C335 C 0.34629 0.1207 0.14592 0.0
C336 C 0.39339 0.09187 0.09595 0.0
C337 C 0.3774 0.11664 0.17811 0.0
C338 C 0.41421 0.1019 0.16995 0.0
C339 C 0.46052 0.07317 0.12033 0.0
C340 C 0.4695 0.05957 0.07836 0.0
C341 C 0.42319 0.08901 0.12896 0.0
C342 C 0.43799 0.06344 0.04674 0.0
C343 C 0.40177 0.07876 0.05505 0.0
H344 H 0.31088 0.83244 0.75347 0.0
H345 H 0.35808 0.79027 0.64169 0.0
H346 H 0.29754 0.79952 0.59926 0.0
H347 H 0.23377 0.82508 0.59189 0.0
H348 H 0.19088 0.87727 0.70061 0.0
H349 H 0.24668 0.8579 0.74606 0.0
C350 C 0.30821 0.82553 0.71976 0.0
C351 C 0.33946 0.81083 0.70107 0.0
C352 C 0.27387 0.83267 0.69481 0.0
C353 C 0.33464 0.80104 0.65748 0.0
C354 C 0.30003 0.80668 0.6329 0.0
C355 C 0.23659 0.83256 0.62544 0.0
C356 C 0.20814 0.8532 0.64236 0.0
C357 C 0.26985 0.82334 0.65099 0.0
C358 C 0.21188 0.86116 0.68643 0.0
C359 C 0.24414 0.8505 0.71248 0.0
H360 H 0.87621 0.38416 0.91365 0.0
H361 H 0.84091 0.4981 0.89129 0.0
H362 H 0.89916 0.52283 0.93245 0.0
H363 H 0.96231 0.51263 0.97 0.0
H364 H 0.99617 0.39961 0.99806 0.0
H365 H 0.93532 0.37377 0.96075 0.0
C366 C 0.88065 0.41435 0.91847 0.0
C367 C 0.85442 0.43916 0.89816 0.0
C368 C 0.91383 0.42853 0.94336 0.0
C369 C 0.86112 0.47826 0.90494 0.0
C370 C 0.89428 0.49252 0.92894 0.0
C371 C 0.95593 0.48232 0.9685 0.0
C372 C 0.98337 0.45787 0.98614 0.0
C373 C 0.92116 0.46797 0.94741 0.0
C374 C 0.9751 0.41876 0.98468 0.0
C375 C 0.94056 0.40411 0.9631 0.0
H376 H 0.78015 0.82768 0.31551 0.0
H377 H 0.87369 0.75695 0.29621 0.0
H378 H 0.84135 0.70453 0.33229 0.0
H379 H 0.78876 0.68056 0.37417 0.0
H380 H 0.69571 0.75182 0.39392 0.0
H381 H 0.72546 0.80232 0.35273 0.0
C382 C 0.79321 0.80065 0.31896 0.0
C383 C 0.82922 0.79613 0.30355 0.0
C384 C 0.7747 0.7709 0.34004 0.0
C385 C 0.84579 0.76094 0.30761 0.0
C386 C 0.82749 0.73109 0.32851 0.0
C387 C 0.77504 0.70714 0.36924 0.0
C388 C 0.74032 0.71267 0.38717 0.0
C389 C 0.79234 0.73604 0.34563 0.0
C390 C 0.72238 0.74693 0.38016 0.0
C391 C 0.73944 0.77584 0.35682 0.0
H392 H 0.13943 0.27203 0.20466 0.0
H393 H 0.23409 0.2709 0.12526 0.0
H394 H 0.21296 0.32846 0.09049 0.0
H395 H 0.16708 0.38327 0.07975 0.0
H396 H 0.0727 0.38357 0.15925 0.0
H397 H 0.09398 0.32567 0.19397 0.0
C398 C 0.15619 0.28357 0.17986 0.0
C399 C 0.1898 0.2636 0.16955 0.0
C400 C 0.1434 0.31871 0.15851 0.0
C401 C 0.20873 0.28244 0.13614 0.0
C402 C 0.1963 0.31672 0.11537 0.0
C403 C 0.15067 0.37113 0.10461 0.0
C404 C 0.11697 0.39062 0.11539 0.0
C405 C 0.16354 0.33581 0.12582 0.0
C406 C 0.09807 0.37168 0.14854 0.0
C407 C 0.11058 0.33752 0.1691 0.0
H408 H 0.7495 0.34854 0.92568 0.0
H409 H 0.743 0.32177 0.79139 0.0
H410 H 0.70756 0.26209 0.80441 0.0
H411 H 0.67691 0.21836 0.85362 0.0
H412 H 0.6846 0.24449 0.98809 0.0
H413 H 0.72151 0.30345 0.97536 0.0
C414 C 0.74082 0.32942 0.89935 0.0
C415 C 0.74881 0.33966 0.85762 0.0
C416 C 0.72065 0.29508 0.90707 0.0
C417 C 0.73674 0.31482 0.82374 0.0
C418 C 0.71668 0.28059 0.83117 0.0
C419 C 0.68718 0.23668 0.88021 0.0
C420 C 0.67796 0.22714 0.92169 0.0
C421 C 0.70829 0.27054 0.87266 0.0
C422 C 0.69094 0.25146 0.95576 0.0
C423 C 0.71213 0.2851 0.94854 0.0
H424 H 0.95372 0.91319 0.3229 0.0
H425 H 0.83728 0.93592 0.3462 0.0
H426 H 0.86171 0.97582 0.40732 0.0
H427 H 0.91659 1.00118 0.45647 0.0
H428 H 0.03245 0.97536 0.43324 0.0
H429 H 1.00783 0.93953 0.36984 0.0
C430 C 0.93372 0.92771 0.34064 0.0
C431 C 0.89385 0.92218 0.32979 0.0
C432 C 0.94787 0.94944 0.37622 0.0
C433 C 0.86816 0.94015 0.35386 0.0
C434 C 0.8821 0.96267 0.38891 0.0
C435 C 0.93631 0.98761 0.43749 0.0
C436 C 0.97621 0.99078 0.4495 0.0
C437 C 0.92193 0.96689 0.40091 0.0
C438 C 1.00158 0.97324 0.42465 0.0
C439 C 0.98758 0.95286 0.3883 0.0
H440 H 0.44993 0.71356 0.64008 0.0
H441 H 0.5602 0.73354 0.7125 0.0
H442 H 0.58536 0.67968 0.67799 0.0
H443 H 0.57719 0.62967 0.62399 0.0
H444 H 0.46703 0.60972 0.55076 0.0
H445 H 0.44051 0.66057 0.58896 0.0
C446 C 0.47934 0.70577 0.64839 0.0
C447 C 0.50343 0.72758 0.67819 0.0
C448 C 0.49362 0.67495 0.62821 0.0
C449 C 0.54135 0.71726 0.68927 0.0
C450 C 0.55571 0.68655 0.66953 0.0
C451 C 0.54728 0.63622 0.61658 0.0
C452 C 0.52421 0.61606 0.58441 0.0
C453 C 0.53231 0.66563 0.63843 0.0
C454 C 0.48543 0.62475 0.57544 0.0
C455 C 0.47026 0.65393 0.59715 0.0
H456 H 0.90639 0.97074 0.79117 0.0
H457 H 0.93831 0.85661 0.7733 0.0
H458 H 0.97241 0.87679 0.71254 0.0
H459 H 0.99598 0.92675 0.66006 0.0
H460 H 0.96285 0.04062 0.67513 0.0
H461 H 0.92872 0.02085 0.73699 0.0
C462 C 0.92048 0.94967 0.77443 0.0
C463 C 0.9187 0.91094 0.79093 0.0
C464 C 0.94111 0.96181 0.73669 0.0
C465 C 0.93843 0.88633 0.76551 0.0
C466 C 0.95841 0.89808 0.7291 0.0
C467 C 0.98149 0.94782 0.67638 0.0
C468 C 0.98367 0.98643 0.65999 0.0
C469 C 0.96059 0.93584 0.71379 0.0
C470 C 0.96327 1.01117 0.68434 0.0
C471 C 0.94309 0.99956 0.72087 0.0
H472 H 0.70332 0.15889 0.23835 0.0
H473 H 0.67423 0.24933 0.15072 0.0
H474 H 0.65219 0.20343 0.09505 0.0
H475 H 0.6373 0.13779 0.07275 0.0
H476 H 0.66652 0.04717 0.16004 0.0
H477 H 0.69343 0.09306 0.21395 0.0
C478 C 0.69287 0.16863 0.20686 0.0
C479 C 0.69013 0.20757 0.19893 0.0
C480 C 0.68027 0.14206 0.17491 0.0
C481 C 0.676 0.21955 0.15799 0.0
C482 C 0.66357 0.19333 0.12604 0.0
C483 C 0.64996 0.12802 0.1034 0.0
C484 C 0.64962 0.08911 0.11248 0.0
C485 C 0.66492 0.15453 0.13439 0.0
C486 C 0.66637 0.07696 0.15223 0.0
C487 C 0.68159 0.10319 0.18317 0.0
H488 H 0.36938 0.58638 0.37417 0.0
H489 H 0.38573 0.70241 0.41454 0.0
H490 H 0.4547 0.69428 0.43286 0.0
H491 H 0.50897 0.65259 0.44266 0.0
H492 H 0.49171 0.5358 0.40473 0.0
H493 H 0.42449 0.54573 0.37985 0.0
C494 C 0.38823 0.60996 0.38644 0.0
C495 C 0.37276 0.64495 0.39302 0.0
C496 C 0.42753 0.60482 0.39752 0.0
C497 C 0.39726 0.6753 0.40913 0.0
C498 C 0.43654 0.6706 0.41971 0.0
C499 C 0.4906 0.62949 0.42838 0.0
C500 C 0.50515 0.59352 0.42555 0.0
C501 C 0.45183 0.63528 0.41481 0.0
C502 C 0.48108 0.56375 0.4072 0.0
C503 C 0.44265 0.56938 0.3931 0.0
H504 H 0.22846 0.24785 0.84834 0.0
H505 H 0.28212 0.31846 0.75557 0.0
H506 H 0.26535 0.37481 0.79189 0.0
H507 H 0.23605 0.40424 0.85004 0.0
H508 H 0.17908 0.33431 0.94095 0.0
H509 H 0.19704 0.27767 0.90569 0.0
C510 C 0.23615 0.27557 0.8359 0.0
C511 C 0.25686 0.27885 0.79954 0.0
C512 C 0.22614 0.30805 0.85679 0.0
C513 C 0.26686 0.31504 0.78399 0.0
C514 C 0.25712 0.34734 0.8046 0.0
C515 C 0.22715 0.37665 0.86196 0.0
C516 C 0.20624 0.37371 0.89817 0.0
C517 C 0.23689 0.34419 0.84108 0.0
C518 C 0.19572 0.33757 0.91356 0.0
C519 C 0.20567 0.30509 0.89318 0.0
H520 H 0.77936 0.93713 0.85915 0.0
H521 H 0.82986 0.89038 0.9767 0.0
H522 H 0.77724 0.9125 1.01412 0.0
H523 H 0.71291 0.94593 0.01723 0.0
H524 H 0.66203 0.99081 0.89882 0.0
H525 H 0.71552 0.96992 0.86203 0.0
C526 C 0.77971 0.93143 0.89306 0.0
C527 C 0.81168 0.9103 0.91299 0.0
C528 C 0.74733 0.94477 0.91614 0.0
C529 C 0.80784 0.90495 0.95773 0.0
C530 C 0.77671 0.9183 0.98021 0.0
C531 C 0.71297 0.95184 0.98341 0.0
C532 C 0.68038 0.97176 0.96267 0.0
C533 C 0.74553 0.93842 0.9604 0.0
C534 C 0.68433 0.97669 0.91798 0.0
C535 C 0.71599 0.96427 0.89598 0.0
H536 H 0.81192 0.23014 0.28618 0.0
H537 H 0.74484 0.27125 0.38342 0.0
H538 H 0.79704 0.26006 0.43781 0.0
H539 H 0.85974 0.23506 0.45883 0.0
H540 H 0.92311 0.1856 0.36345 0.0
H541 H 0.8747 0.20418 0.30756 0.0
C542 C 0.80845 0.23637 0.31927 0.0
C543 C 0.77422 0.25165 0.3303 0.0
C544 C 0.83808 0.22847 0.35094 0.0
C545 C 0.77093 0.26024 0.37346 0.0
C546 C 0.80072 0.2535 0.40485 0.0
C547 C 0.86296 0.22795 0.42592 0.0
C548 C 0.8951 0.20857 0.41576 0.0
C549 C 0.83412 0.23709 0.39405 0.0
C550 C 0.89911 0.20087 0.37253 0.0
C551 C 0.87113 0.2111 0.34044 0.0
H552 H 0.24895 0.66425 0.17205 0.0
H553 H 0.27306 0.57951 0.26852 0.0
H554 H 0.22116 0.53779 0.23537 0.0
H555 H 0.16641 0.52663 0.18196 0.0
H556 H 0.14173 0.60967 0.084 0.0
H557 H 0.19641 0.6506 0.11434 0.0
C558 C 0.24314 0.63644 0.18533 0.0
C559 C 0.26443 0.62529 0.22314 0.0
C560 C 0.21297 0.61239 0.16605 0.0
C561 C 0.25658 0.58911 0.23999 0.0
C562 C 0.22696 0.56516 0.22101 0.0
C563 C 0.17311 0.55363 0.16713 0.0
C564 C 0.1499 0.56535 0.13117 0.0
C565 C 0.20448 0.57678 0.18461 0.0
C566 C 0.15916 0.60014 0.11189 0.0
C567 C 0.19037 0.62355 0.12926 0.0
H568 H 0.41147 0.21589 0.66259 0.0
H569 H 0.41039 0.285 0.77451 0.0
H570 H 0.43419 0.34013 0.73535 0.0
H571 H 0.44746 0.36981 0.66695 0.0
H572 H 0.44418 0.30117 0.55377 0.0
H573 H 0.42947 0.24466 0.59549 0.0
C574 C 0.41771 0.24283 0.6786 0.0
C575 C 0.41006 0.24642 0.72142 0.0
C576 C 0.4296 0.27456 0.65537 0.0
C577 C 0.41696 0.28155 0.74179 0.0
C578 C 0.43006 0.31309 0.71926 0.0
C579 C 0.44416 0.34238 0.65161 0.0
C580 C 0.44653 0.33964 0.60733 0.0
C581 C 0.43529 0.31013 0.67569 0.0
C582 C 0.44179 0.30401 0.58771 0.0
C583 C 0.43365 0.27171 0.61157 0.0
H584 H 0.90758 0.7117 0.97407 0.0
H585 H 0.9973 0.76227 0.90361 0.0
H586 H 0.03919 0.71104 0.92754 0.0
H587 H 0.05157 0.64748 0.96734 0.0
H588 H 0.96034 0.59937 0.03814 0.0
H589 H 0.9207 0.65169 0.01615 0.0
C590 C 0.93671 0.71278 0.96455 0.0
C591 C 0.94816 0.74411 0.93727 0.0
C592 C 0.96146 0.68178 0.97853 0.0
C593 C 0.98637 0.74127 0.92527 0.0
C594 C 1.01075 0.71081 0.93886 0.0
C595 C 1.02308 0.64793 0.97837 0.0
C596 C 1.01051 0.61667 1.00548 0.0
C597 C 0.99894 0.68009 0.96533 0.0
C598 C 0.97266 0.6208 0.01793 0.0
C599 C 0.94921 0.65164 1.00503 0.0
H600 H 0.34084 0.74454 0.18547 0.0
H601 H 0.42806 0.69791 0.27351 0.0
H602 H 0.47719 0.74173 0.24733 0.0
H603 H 0.4946 0.79591 0.20308 0.0
H604 H 0.40793 0.84297 0.11449 0.0
H605 H 0.35934 0.79684 0.13767 0.0
C606 C 0.37074 0.74359 0.19829 0.0
C607 C 0.38081 0.71812 0.23144 0.0
C608 C 0.39882 0.76936 0.18354 0.0
C609 C 0.41958 0.71747 0.24819 0.0
C610 C 0.44766 0.74254 0.2333 0.0
C611 C 0.46525 0.79579 0.18826 0.0
C612 C 0.45506 0.82311 0.15716 0.0
C613 C 0.4375 0.76906 0.20155 0.0
C614 C 0.41658 0.82277 0.13901 0.0
C615 C 0.38878 0.79617 0.15202 0.0
H616 H 0.17979 0.1892 0.71342 0.0
H617 H 0.2646 0.10645 0.7427 0.0
H618 H 0.22496 0.05983 0.69915 0.0
H619 H 0.1704 0.04526 0.64568 0.0
H620 H 0.0834 0.12597 0.61948 0.0
H621 H 0.11955 0.17082 0.66937 0.0
C622 C 0.18905 0.16064 0.71149 0.0
C623 C 0.22553 0.15159 0.73058 0.0
C624 C 0.16608 0.1339 0.68634 0.0
C625 C 0.23704 0.11439 0.72754 0.0
C626 C 0.21445 0.08773 0.70257 0.0
C627 C 0.15925 0.07256 0.65132 0.0
C628 C 0.12492 0.08289 0.62856 0.0
C629 C 0.17972 0.09767 0.6805 0.0
C630 C 0.11008 0.1178 0.63658 0.0
C631 C 0.13071 0.14335 0.665 0.0
H632 H 0.70128 0.39836 0.32546 0.0
H633 H 0.588 0.36831 0.26461 0.0
H634 H 0.55902 0.40882 0.31428 0.0
H635 H 0.56606 0.4522 0.37546 0.0
H636 H 0.67974 0.48281 0.43581 0.0
H637 H 0.70844 0.44289 0.38581 0.0
C638 C 0.67031 0.40114 0.32289 0.0
C639 C 0.64675 0.38111 0.29107 0.0
C640 C 0.65397 0.42443 0.35151 0.0
C641 C 0.60661 0.38409 0.28849 0.0
C642 C 0.5901 0.40708 0.31693 0.0
C643 C 0.59712 0.45017 0.37769 0.0
C644 C 0.62067 0.47044 0.40943 0.0
C645 C 0.6135 0.42732 0.34864 0.0
C646 C 0.66089 0.46759 0.41168 0.0
C647 C 0.67737 0.44472 0.38311 0.0
loop_
_geom_bond_atom_site_label_1
_geom_bond_atom_site_label_2
_geom_bond_distance
_geom_bond_site_symmetry_2
_ccdc_geom_bond_type
H0 C7 0.929 . S
H1 C10 0.930 . S
H2 C12 0.929 . S
H3 C4 0.969 . S
C4 H3 0.969 . S
C4 O5 1.550 . S
C4 H6 0.973 . S
O5 C4 1.550 . S
O5 C11 1.412 . S
H6 C4 0.973 . S
C7 H0 0.929 . S
C7 C8 1.400 . S
C7 C9 1.364 . S
C8 C7 1.400 . S
C8 C12 1.377 . S
C9 C7 1.364 . S
C9 C10 1.374 . S
C10 H1 0.930 . S
C10 C9 1.374 . S
C10 C11 1.383 . S
C11 O5 1.412 . S
C11 C10 1.383 . S
C11 C12 1.394 . S
C12 H2 0.929 . S
C12 C8 1.377 . S
C12 C11 1.394 . S
H13 C20 0.929 . S
H14 C23 0.930 . S
H15 C25 0.929 . S
H16 C17 0.969 . S
C17 H16 0.969 . S
C17 O18 1.550 . S
C17 H19 0.973 . S
O18 C17 1.550 . S
O18 C24 1.412 . S
H19 C17 0.973 . S
C20 H13 0.929 . S
C20 C21 1.400 . S
C20 C22 1.364 . S
C21 C20 1.400 . S
C21 C25 1.377 . S
C22 C20 1.364 . S
C22 C23 1.374 . S
C23 H14 0.930 . S
C23 C22 1.374 . S
C23 C24 1.383 . S
C24 O18 1.412 . S
C24 C23 1.383 . S
C24 C25 1.394 . S
C25 H15 0.929 . S
C25 C21 1.377 . S
C25 C24 1.394 . S
H26 C33 0.929 . S
H27 C36 0.930 . S
H28 C38 0.929 . S
H29 C30 0.969 . S
C30 H29 0.969 . S
C30 O31 1.550 . S
C30 H32 0.973 . S
O31 C30 1.550 . S
O31 C37 1.412 . S
H32 C30 0.973 . S
C33 H26 0.929 . S
C33 C34 1.400 . S
C33 C35 1.364 . S
C34 C33 1.400 . S
C34 C38 1.377 . S
C35 C33 1.364 . S
C35 C36 1.374 . S
C36 H27 0.930 . S
C36 C35 1.374 . S
C36 C37 1.383 . S
C37 O31 1.412 . S
C37 C36 1.383 . S
C37 C38 1.394 . S
C38 H28 0.929 . S
C38 C34 1.377 . S
C38 C37 1.394 . S
H39 C46 0.929 . S
H40 C49 0.930 . S
H41 C51 0.929 . S
H42 C43 0.969 . S
C43 H42 0.969 . S
C43 O44 1.550 . S
C43 H45 0.973 . S
O44 C43 1.550 . S
O44 C50 1.412 . S
H45 C43 0.973 . S
C46 H39 0.929 . S
C46 C47 1.400 . S
C46 C48 1.364 . S
C47 C46 1.400 . S
C47 C51 1.377 . S
C48 C46 1.364 . S
C48 C49 1.374 . S
C49 H40 0.930 . S
C49 C48 1.374 . S
C49 C50 1.383 . S
C50 O44 1.412 . S
C50 C49 1.383 . S
C50 C51 1.394 . S
C51 H41 0.929 . S
C51 C47 1.377 . S
C51 C50 1.394 . S
H52 C59 0.929 . S
H53 C62 0.930 . S
H54 C64 0.929 . S
H55 C56 0.969 . S
C56 H55 0.969 . S
C56 O57 1.550 . S
C56 H58 0.973 . S
O57 C56 1.550 . S
O57 C63 1.412 . S
H58 C56 0.973 . S
C59 H52 0.929 . S
C59 C60 1.400 . S
C59 C61 1.364 . S
C60 C59 1.400 . S
C60 C64 1.377 . S
C61 C59 1.364 . S
C61 C62 1.374 . S
C62 H53 0.930 . S
C62 C61 1.374 . S
C62 C63 1.383 . S
C63 O57 1.412 . S
C63 C62 1.383 . S
C63 C64 1.394 . S
C64 H54 0.929 . S
C64 C60 1.377 . S
C64 C63 1.394 . S
H65 C72 0.929 . S
H66 C75 0.930 . S
H67 C77 0.929 . S
H68 C69 0.969 . S
C69 H68 0.969 . S
C69 O70 1.550 . S
C69 H71 0.973 . S
O70 C69 1.550 . S
O70 C76 1.412 . S
H71 C69 0.973 . S
C72 H65 0.929 . S
C72 C73 1.400 . S
C72 C74 1.364 . S
C73 C72 1.400 . S
C73 C77 1.377 . S
C74 C72 1.364 . S
C74 C75 1.374 . S
C75 H66 0.930 . S
C75 C74 1.374 . S
C75 C76 1.383 . S
C76 O70 1.412 . S
C76 C75 1.383 . S
C76 C77 1.394 . S
C77 H67 0.929 . S
C77 C73 1.377 . S
C77 C76 1.394 . S
H78 C85 0.929 . S
H79 C88 0.930 . S
H80 C90 0.929 . S
H81 C82 0.969 . S
C82 H81 0.969 . S
C82 O83 1.550 . S
C82 H84 0.973 . S
O83 C82 1.550 . S
O83 C89 1.412 . S
H84 C82 0.973 . S
C85 H78 0.929 . S
C85 C86 1.400 . S
C85 C87 1.364 . S
C86 C85 1.400 . S
C86 C90 1.377 . S
C87 C85 1.364 . S
C87 C88 1.374 . S
C88 H79 0.930 . S
C88 C87 1.374 . S
C88 C89 1.383 . S
C89 O83 1.412 . S
C89 C88 1.383 . S
C89 C90 1.394 . S
C90 H80 0.929 . S
C90 C86 1.377 . S
C90 C89 1.394 . S
H91 C98 0.929 . S
H92 C101 0.930 . S
H93 C103 0.929 . S
H94 C95 0.969 . S
C95 H94 0.969 . S
C95 O96 1.550 . S
C95 H97 0.973 . S
O96 C95 1.550 . S
O96 C102 1.412 . S
H97 C95 0.973 . S
C98 H91 0.929 . S
C98 C99 1.400 . S
C98 C100 1.364 . S
C99 C98 1.400 . S
C99 C103 1.377 . S
C100 C98 1.364 . S
C100 C101 1.374 . S
C101 H92 0.930 . S
C101 C100 1.374 . S
C101 C102 1.383 . S
C102 O96 1.412 . S
C102 C101 1.383 . S
C102 C103 1.394 . S
C103 H93 0.929 . S
C103 C99 1.377 . S
C103 C102 1.394 . S
Nd104 C106 2.836 . S
Nd104 O124 2.500 . S
Nd104 O125 2.492 . S
Nd104 O126 2.487 1_565 S
Nd104 O127 2.682 1_565 S
Nd104 O128 2.410 . S
Nd104 O133 2.414 . S
Nd104 O135 2.424 1_565 S
Nd105 C115 2.836 . S
Nd105 O127 2.414 1_655 S
Nd105 O129 2.424 . S
Nd105 O130 2.500 . S
Nd105 O131 2.492 . S
Nd105 O132 2.487 1_545 S
Nd105 O133 2.682 1_645 S
Nd105 O134 2.410 1_655 S
C106 Nd104 2.836 . S
C106 C107 1.498 . S
C106 O124 1.258 . S
C106 O125 1.239 . S
C107 C106 1.498 . S
C107 C108 1.366 . S
C107 C112 1.407 . S
C108 C107 1.366 . S
C108 C109 1.392 . S
C108 H136 0.930 . S
C109 C108 1.392 . S
C109 C110 1.398 . S
C109 H137 0.929 . S
C110 C109 1.398 . S
C110 C111 1.352 . S
C111 C110 1.352 . S
C111 C112 1.384 . S
C111 H138 0.930 . S
C112 C107 1.407 . S
C112 C111 1.384 . S
C112 H139 0.929 . S
C113 O126 1.241 . S
C113 O127 1.273 . S
C114 O128 1.251 1_655 S
C114 O129 1.268 1_565 S
C115 Nd105 2.836 . S
C115 C116 1.498 . S
C115 O130 1.258 . S
C115 O131 1.239 . S
C116 C115 1.498 . S
C116 C117 1.366 . S
C116 C121 1.407 . S
C117 C116 1.366 . S
C117 C118 1.392 . S
C117 H140 0.930 . S
C118 C117 1.392 . S
C118 C119 1.398 . S
C118 H141 0.929 . S
C119 C118 1.398 . S
C119 C120 1.352 . S
C120 C119 1.352 . S
C120 C121 1.384 . S
C120 H142 0.930 . S
C121 C116 1.407 . S
C121 C120 1.384 . S
C121 H143 0.929 . S
C122 O132 1.241 . S
C122 O133 1.273 1_655 S
C123 O134 1.251 . S
C123 O135 1.268 . S
O124 Nd104 2.500 . S
O124 C106 1.258 . S
O125 Nd104 2.492 . S
O125 C106 1.239 . S
O126 Nd104 2.487 1_545 S
O126 C113 1.241 . S
O127 Nd104 2.682 1_545 S
O127 Nd105 2.414 1_455 S
O127 C113 1.273 . S
O128 Nd104 2.410 . S
O128 C114 1.251 1_455 S
O129 Nd105 2.424 . S
O129 C114 1.268 1_545 S
O130 Nd105 2.500 . S
O130 C115 1.258 . S
O131 Nd105 2.492 . S
O131 C115 1.239 . S
O132 Nd105 2.487 1_565 S
O132 C122 1.241 . S
O133 Nd104 2.414 . S
O133 Nd105 2.682 1_465 S
O133 C122 1.273 1_455 S
O134 Nd105 2.410 1_455 S
O134 C123 1.251 . S
O135 Nd104 2.424 1_545 S
O135 C123 1.268 . S
H136 C108 0.930 . S
H137 C109 0.929 . S
H138 C111 0.930 . S
H139 C112 0.929 . S
H140 C117 0.930 . S
H141 C118 0.929 . S
H142 C120 0.930 . S
H143 C121 0.929 . S
Nd144 C146 2.836 . S
Nd144 O164 2.500 . S
Nd144 O165 2.492 . S
Nd144 O166 2.487 1_565 S
Nd144 O167 2.682 1_565 S
Nd144 O168 2.410 1_554 S
Nd144 O173 2.414 1_554 S
Nd144 O175 2.424 1_565 S
Nd145 C155 2.836 . S
Nd145 O167 2.414 1_556 S
Nd145 O169 2.424 1_545 S
Nd145 O170 2.500 . S
Nd145 O171 2.492 . S
Nd145 O172 2.487 . S
Nd145 O173 2.682 1_545 S
Nd145 O174 2.410 1_556 S
C146 Nd144 2.836 . S
C146 C147 1.498 . S
C146 O164 1.258 . S
C146 O165 1.239 . S
C147 C146 1.498 . S
C147 C148 1.366 . S
C147 C152 1.407 . S
C148 C147 1.366 . S
C148 C149 1.392 . S
C148 H176 0.930 . S
C149 C148 1.392 . S
C149 C150 1.398 . S
C149 H177 0.929 . S
C150 C149 1.398 . S
C150 C151 1.352 . S
C151 C150 1.352 . S
C151 C152 1.384 . S
C151 H178 0.930 . S
C152 C147 1.407 . S
C152 C151 1.384 . S
C152 H179 0.929 . S
C153 O166 1.241 . S
C153 O167 1.273 . S
C154 O168 1.251 . S
C154 O169 1.268 . S
C155 Nd145 2.836 . S
C155 C156 1.498 . S
C155 O170 1.258 . S
C155 O171 1.239 . S
C156 C155 1.498 . S
C156 C157 1.366 . S
C156 C161 1.407 . S
C157 C156 1.366 . S
C157 C158 1.392 . S
C157 H180 0.930 . S
C158 C157 1.392 . S
C158 C159 1.398 . S
C158 H181 0.929 . S
C159 C158 1.398 . S
C159 C160 1.352 . S
C160 C159 1.352 . S
C160 C161 1.384 . S
C160 H182 0.930 . S
C161 C156 1.407 . S
C161 C160 1.384 . S
C161 H183 0.929 . S
C162 O172 1.241 1_565 S
C162 O173 1.273 . S
C163 O174 1.251 . S
C163 O175 1.268 . S
O164 Nd144 2.500 . S
O164 C146 1.258 . S
O165 Nd144 2.492 . S
O165 C146 1.239 . S
O166 Nd144 2.487 1_545 S
O166 C153 1.241 . S
O167 Nd144 2.682 1_545 S
O167 Nd145 2.414 1_554 S
O167 C153 1.273 . S
O168 Nd144 2.410 1_556 S
O168 C154 1.251 . S
O169 Nd145 2.424 1_565 S
O169 C154 1.268 . S
O170 Nd145 2.500 . S
O170 C155 1.258 . S
O171 Nd145 2.492 . S
O171 C155 1.239 . S
O172 Nd145 2.487 . S
O172 C162 1.241 1_545 S
O173 Nd144 2.414 1_556 S
O173 Nd145 2.682 1_565 S
O173 C162 1.273 . S
O174 Nd145 2.410 1_554 S
O174 C163 1.251 . S
O175 Nd144 2.424 1_545 S
O175 C163 1.268 . S
H176 C148 0.930 . S
H177 C149 0.929 . S
H178 C151 0.930 . S
H179 C152 0.929 . S
H180 C157 0.930 . S
H181 C158 0.929 . S
H182 C160 0.930 . S
H183 C161 0.929 . S
Nd184 C186 2.836 . S
Nd184 O204 2.500 . S
Nd184 O205 2.492 . S
Nd184 O206 2.487 . S
Nd184 O207 2.682 . S
Nd184 O208 2.410 . S
Nd184 O213 2.414 . S
Nd184 O215 2.424 . S
Nd185 C195 2.836 . S
Nd185 O207 2.414 . S
Nd185 O209 2.424 . S
Nd185 O210 2.500 . S
Nd185 O211 2.492 . S
Nd185 O212 2.487 . S
Nd185 O213 2.682 . S
Nd185 O214 2.410 . S
C186 Nd184 2.836 . S
C186 C187 1.498 . S
C186 O204 1.258 . S
C186 O205 1.239 . S
C187 C186 1.498 . S
C187 C188 1.366 . S
C187 C192 1.407 . S
C188 C187 1.366 . S
C188 C189 1.392 . S
C188 H216 0.930 . S
C189 C188 1.392 . S
C189 C190 1.398 . S
C189 H217 0.929 . S
C190 C189 1.398 . S
C190 C191 1.352 . S
C191 C190 1.352 . S
C191 C192 1.384 . S
C191 H218 0.930 . S
C192 C187 1.407 . S
C192 C191 1.384 . S
C192 H219 0.929 . S
C193 O206 1.241 . S
C193 O207 1.273 . S
C194 O208 1.251 . S
C194 O209 1.268 . S
C195 Nd185 2.836 . S
C195 C196 1.498 . S
C195 O210 1.258 . S
C195 O211 1.239 . S
C196 C195 1.498 . S
C196 C197 1.366 . S
C196 C201 1.407 . S
C197 C196 1.366 . S
C197 C198 1.392 . S
C197 H220 0.930 . S
C198 C197 1.392 . S
C198 C199 1.398 . S
C198 H221 0.929 . S
C199 C198 1.398 . S
C199 C200 1.352 . S
C200 C199 1.352 . S
C200 C201 1.384 . S
C200 H222 0.930 . S
C201 C196 1.407 . S
C201 C200 1.384 . S
C201 H223 0.929 . S
C202 O212 1.241 . S
C202 O213 1.273 . S
C203 O214 1.251 . S
C203 O215 1.268 . S
O204 Nd184 2.500 . S
O204 C186 1.258 . S
O205 Nd184 2.492 . S
O205 C186 1.239 . S
O206 Nd184 2.487 . S
O206 C193 1.241 . S
O207 Nd184 2.682 . S
O207 Nd185 2.414 . S
O207 C193 1.273 . S
O208 Nd184 2.410 . S
O208 C194 1.251 . S
O209 Nd185 2.424 . S
O209 C194 1.268 . S
O210 Nd185 2.500 . S
O210 C195 1.258 . S
O211 Nd185 2.492 . S
O211 C195 1.239 . S
O212 Nd185 2.487 . S
O212 C202 1.241 . S
O213 Nd184 2.414 . S
O213 Nd185 2.682 . S
O213 C202 1.273 . S
O214 Nd185 2.410 . S
O214 C203 1.251 . S
O215 Nd184 2.424 . S
O215 C203 1.268 . S
H216 C188 0.930 . S
H217 C189 0.929 . S
H218 C191 0.930 . S
H219 C192 0.929 . S
H220 C197 0.930 . S
H221 C198 0.929 . S
H222 C200 0.930 . S
H223 C201 0.929 . S
Nd224 C226 2.836 1_455 S
Nd224 O244 2.500 1_455 S
Nd224 O245 2.492 . S
Nd224 O246 2.487 . S
Nd224 O247 2.682 . S
Nd224 O248 2.410 . S
Nd224 O253 2.414 1_455 S
Nd224 O255 2.424 . S
Nd225 C235 2.836 . S
Nd225 O247 2.414 1_556 S
Nd225 O249 2.424 . S
Nd225 O250 2.500 . S
Nd225 O251 2.492 . S
Nd225 O252 2.487 1_455 S
Nd225 O253 2.682 1_456 S
Nd225 O254 2.410 . S
C226 Nd224 2.836 1_655 S
C226 C227 1.498 . S
C226 O244 1.258 . S
C226 O245 1.239 1_655 S
C227 C226 1.498 . S
C227 C228 1.366 . S
C227 C232 1.407 . S
C228 C227 1.366 . S
C228 C229 1.392 . S
C228 H256 0.930 . S
C229 C228 1.392 . S
C229 C230 1.398 . S
C229 H257 0.929 . S
C230 C229 1.398 . S
C230 C231 1.352 . S
C231 C230 1.352 . S
C231 C232 1.384 . S
C231 H258 0.930 . S
C232 C227 1.407 . S
C232 C231 1.384 . S
C232 H259 0.929 1_655 S
C233 O246 1.241 . S
C233 O247 1.273 . S
C234 O248 1.270 . S
C234 O249 1.251 1_554 S
C235 Nd225 2.836 . S
C235 C236 1.498 . S
C235 O250 1.258 . S
C235 O251 1.239 . S
C236 C235 1.498 . S
C236 C237 1.366 . S
C236 C241 1.407 . S
C237 C236 1.366 . S
C237 C238 1.392 . S
C237 H260 0.930 . S
C238 C237 1.392 . S
C238 C239 1.398 . S
C238 H261 0.929 . S
C239 C238 1.398 . S
C239 C240 1.352 . S
C240 C239 1.352 . S
C240 C241 1.384 . S
C240 H262 0.930 . S
C241 C236 1.407 . S
C241 C240 1.384 . S
C241 H263 0.929 . S
C242 O252 1.241 . S
C242 O253 1.273 1_556 S
C243 O254 1.251 1_554 S
C243 O255 1.268 . S
O244 Nd224 2.500 1_655 S
O244 C226 1.258 . S
O245 Nd224 2.492 . S
O245 C226 1.239 1_455 S
O246 Nd224 2.487 . S
O246 C233 1.241 . S
O247 Nd224 2.682 . S
O247 Nd225 2.414 1_554 S
O247 C233 1.273 . S
O248 Nd224 2.410 . S
O248 C234 1.270 . S
O249 Nd225 2.424 . S
O249 C234 1.251 1_556 S
O250 Nd225 2.500 . S
O250 C235 1.258 . S
O251 Nd225 2.492 . S
O251 C235 1.239 . S
O252 Nd225 2.487 1_655 S
O252 C242 1.241 . S
O253 Nd224 2.414 1_655 S
O253 Nd225 2.682 1_654 S
O253 C242 1.273 1_554 S
O254 Nd225 2.410 . S
O254 C243 1.251 1_556 S
O255 Nd224 2.424 . S
O255 C243 1.268 . S
H256 C228 0.930 . S
H257 C229 0.929 . S
H258 C231 0.930 . S
H259 C232 0.929 1_455 S
H260 C237 0.930 . S
H261 C238 0.929 . S
H262 C240 0.930 . S
H263 C241 0.929 . S
H264 C270 0.930 . S
H265 C273 0.930 . S
H266 C274 0.930 . S
H267 C275 0.930 . S
H268 C278 0.930 . S
H269 C279 0.930 . S
C270 H264 0.930 . S
C270 C271 1.355 . S
C270 C272 1.415 . S
C271 C270 1.355 . S
C271 C273 1.419 . S
C272 C270 1.415 . S
C272 C277 1.425 . S
C272 C279 1.409 . S
C273 H265 0.930 . S
C273 C271 1.419 . S
C273 C274 1.362 . S
C274 H266 0.930 . S
C274 C273 1.362 . S
C274 C277 1.409 . S
C275 H267 0.930 . S
C275 C276 1.355 . S
C275 C277 1.415 . S
C276 C275 1.355 . S
C276 C278 1.419 . S
C277 C272 1.425 . S
C277 C274 1.409 . S
C277 C275 1.415 . S
C278 H268 0.930 . S
C278 C276 1.419 . S
C278 C279 1.362 . S
C279 H269 0.930 . S
C279 C272 1.409 . S
C279 C278 1.362 . S
H280 C286 0.930 . S
H281 C289 0.930 . S
H282 C290 0.930 . S
H283 C291 0.930 . S
H284 C294 0.930 . S
H285 C295 0.930 . S
C286 H280 0.930 . S
C286 C287 1.355 . S
C286 C288 1.415 . S
C287 C286 1.355 . S
C287 C289 1.419 . S
C288 C286 1.415 . S
C288 C293 1.425 . S
C288 C295 1.409 . S
C289 H281 0.930 . S
C289 C287 1.419 . S
C289 C290 1.362 . S
C290 H282 0.930 . S
C290 C289 1.362 . S
C290 C293 1.409 . S
C291 H283 0.930 . S
C291 C292 1.355 . S
C291 C293 1.415 . S
C292 C291 1.355 . S
C292 C294 1.419 . S
C293 C288 1.425 . S
C293 C290 1.409 . S
C293 C291 1.415 . S
C294 H284 0.930 . S
C294 C292 1.419 . S
C294 C295 1.362 . S
C295 H285 0.930 . S
C295 C288 1.409 . S
C295 C294 1.362 . S
H296 C302 0.930 . S
H297 C305 0.930 . S
H298 C306 0.930 . S
H299 C307 0.930 . S
H300 C310 0.930 . S
H301 C311 0.930 . S
C302 H296 0.930 . S
C302 C303 1.355 . S
C302 C304 1.415 . S
C303 C302 1.355 . S
C303 C305 1.419 . S
C304 C302 1.415 . S
C304 C309 1.425 . S
C304 C311 1.409 . S
C305 H297 0.930 . S
C305 C303 1.419 . S
C305 C306 1.362 . S
C306 H298 0.930 . S
C306 C305 1.362 . S
C306 C309 1.409 . S
C307 H299 0.930 . S
C307 C308 1.355 . S
C307 C309 1.415 . S
C308 C307 1.355 . S
C308 C310 1.419 . S
C309 C304 1.425 . S
C309 C306 1.409 . S
C309 C307 1.415 . S
C310 H300 0.930 . S
C310 C308 1.419 . S
C310 C311 1.362 . S
C311 H301 0.930 . S
C311 C304 1.409 . S
C311 C310 1.362 . S
H312 C318 0.930 . S
H313 C321 0.930 . S
H314 C322 0.930 . S
H315 C323 0.930 . S
H316 C326 0.930 . S
H317 C327 0.930 . S
C318 H312 0.930 . S
C318 C319 1.355 . S
C318 C320 1.415 . S
C319 C318 1.355 . S
C319 C321 1.419 . S
C320 C318 1.415 . S
C320 C325 1.425 . S
C320 C327 1.409 . S
C321 H313 0.930 . S
C321 C319 1.419 . S
C321 C322 1.362 . S
C322 H314 0.930 . S
C322 C321 1.362 . S
C322 C325 1.409 . S
C323 H315 0.930 . S
C323 C324 1.355 . S
C323 C325 1.415 . S
C324 C323 1.355 . S
C324 C326 1.419 . S
C325 C320 1.425 . S
C325 C322 1.409 . S
C325 C323 1.415 . S
C326 H316 0.930 . S
C326 C324 1.419 . S
C326 C327 1.362 . S
C327 H317 0.930 . S
C327 C320 1.409 . S
C327 C326 1.362 . S
H328 C334 0.930 . S
H329 C337 0.930 . S
H330 C338 0.928 . S
H331 C339 0.921 1_556 S
H332 C342 0.930 . S
H333 C343 0.930 . S
C334 H328 0.930 . S
C334 C335 1.355 . S
C334 C336 1.415 . S
C335 C334 1.355 . S
C335 C337 1.419 . S
C336 C334 1.415 . S
C336 C341 1.425 . S
C336 C343 1.409 . S
C337 H329 0.930 . S
C337 C335 1.419 . S
C337 C338 1.362 . S
C338 H330 0.928 . S
C338 C337 1.362 . S
C338 C341 1.409 . S
C339 H331 0.921 1_554 S
C339 C340 1.355 . S
C339 C341 1.415 . S
C340 C339 1.355 . S
C340 C342 1.419 . S
C341 C336 1.425 . S
C341 C338 1.409 . S
C341 C339 1.415 . S
C342 H332 0.930 . S
C342 C340 1.419 . S
C342 C343 1.362 . S
C343 H333 0.930 . S
C343 C336 1.409 . S
C343 C342 1.362 . S
H344 C350 0.930 . S
H345 C353 0.930 . S
H346 C354 0.930 . S
H347 C355 0.930 . S
H348 C358 0.930 . S
H349 C359 0.930 . S
C350 H344 0.930 . S
C350 C351 1.355 . S
C350 C352 1.415 . S
C351 C350 1.355 . S
C351 C353 1.419 . S
C352 C350 1.415 . S
C352 C357 1.425 . S
C352 C359 1.409 . S
C353 H345 0.930 . S
C353 C351 1.419 . S
C353 C354 1.362 . S
C354 H346 0.930 . S
C354 C353 1.362 . S
C354 C357 1.409 . S
C355 H347 0.930 . S
C355 C356 1.355 . S
C355 C357 1.415 . S
C356 C355 1.355 . S
C356 C358 1.419 . S
C357 C352 1.425 . S
C357 C354 1.409 . S
C357 C355 1.415 . S
C358 H348 0.930 . S
C358 C356 1.419 . S
C358 C359 1.362 . S
C359 H349 0.930 . S
C359 C352 1.409 . S
C359 C358 1.362 . S
H360 C366 0.930 . S
H361 C369 0.930 . S
H362 C370 0.930 . S
H363 C371 0.930 . S
H364 C374 0.930 . S
H365 C375 0.930 . S
C366 H360 0.930 . S
C366 C367 1.355 . S
C366 C368 1.415 . S
C367 C366 1.355 . S
C367 C369 1.419 . S
C368 C366 1.415 . S
C368 C373 1.425 . S
C368 C375 1.409 . S
C369 H361 0.930 . S
C369 C367 1.419 . S
C369 C370 1.362 . S
C370 H362 0.930 . S
C370 C369 1.362 . S
C370 C373 1.409 . S
C371 H363 0.930 . S
C371 C372 1.355 . S
C371 C373 1.415 . S
C372 C371 1.355 . S
C372 C374 1.419 . S
C373 C368 1.425 . S
C373 C370 1.409 . S
C373 C371 1.415 . S
C374 H364 0.930 . S
C374 C372 1.419 . S
C374 C375 1.362 . S
C375 H365 0.930 . S
C375 C368 1.409 . S
C375 C374 1.362 . S
H376 C382 0.930 . S
H377 C385 0.930 . S
H378 C386 0.930 . S
H379 C387 0.930 . S
H380 C390 0.930 . S
H381 C391 0.930 . S
C382 H376 0.930 . S
C382 C383 1.355 . S
C382 C384 1.415 . S
C383 C382 1.355 . S
C383 C385 1.419 . S
C384 C382 1.415 . S
C384 C389 1.425 . S
C384 C391 1.409 . S
C385 H377 0.930 . S
C385 C383 1.419 . S
C385 C386 1.362 . S
C386 H378 0.930 . S
C386 C385 1.362 . S
C386 C389 1.409 . S
C387 H379 0.930 . S
C387 C388 1.355 . S
C387 C389 1.415 . S
C388 C387 1.355 . S
C388 C390 1.419 . S
C389 C384 1.425 . S
C389 C386 1.409 . S
C389 C387 1.415 . S
C390 H380 0.930 . S
C390 C388 1.419 . S
C390 C391 1.362 . S
C391 H381 0.930 . S
C391 C384 1.409 . S
C391 C390 1.362 . S
H392 C398 0.930 . S
H393 C401 0.930 . S
H394 C402 0.930 . S
H395 C403 0.930 . S
H396 C406 0.930 . S
H397 C407 0.930 . S
C398 H392 0.930 . S
C398 C399 1.355 . S
C398 C400 1.415 . S
C399 C398 1.355 . S
C399 C401 1.419 . S
C400 C398 1.415 . S
C400 C405 1.425 . S
C400 C407 1.409 . S
C401 H393 0.930 . S
C401 C399 1.419 . S
C401 C402 1.362 . S
C402 H394 0.930 . S
C402 C401 1.362 . S
C402 C405 1.409 . S
C403 H395 0.930 . S
C403 C404 1.355 . S
C403 C405 1.415 . S
C404 C403 1.355 . S
C404 C406 1.419 . S
C405 C400 1.425 . S
C405 C402 1.409 . S
C405 C403 1.415 . S
C406 H396 0.930 . S
C406 C404 1.419 . S
C406 C407 1.362 . S
C407 H397 0.930 . S
C407 C400 1.409 . S
C407 C406 1.362 . S
H408 C414 0.930 . S
H409 C417 0.930 . S
H410 C418 0.930 . S
H411 C419 0.930 . S
H412 C422 0.930 . S
H413 C423 0.930 . S
C414 H408 0.930 . S
C414 C415 1.355 . S
C414 C416 1.415 . S
C415 C414 1.355 . S
C415 C417 1.419 . S
C416 C414 1.415 . S
C416 C421 1.425 . S
C416 C423 1.409 . S
C417 H409 0.930 . S
C417 C415 1.419 . S
C417 C418 1.362 . S
C418 H410 0.930 . S
C418 C417 1.362 . S
C418 C421 1.409 . S
C419 H411 0.930 . S
C419 C420 1.355 . S
C419 C421 1.415 . S
C420 C419 1.355 . S
C420 C422 1.419 . S
C421 C416 1.425 . S
C421 C418 1.409 . S
C421 C419 1.415 . S
C422 H412 0.930 . S
C422 C420 1.419 . S
C422 C423 1.362 . S
C423 H413 0.930 . S
C423 C416 1.409 . S
C423 C422 1.362 . S
H424 C430 0.930 . S
H425 C433 0.930 . S
H426 C434 0.930 . S
H427 C435 0.930 1_455 S
H428 C438 0.930 . S
H429 C439 0.930 . S
C430 H424 0.930 . S
C430 C431 1.355 . S
C430 C432 1.415 . S
C431 C430 1.355 . S
C431 C433 1.419 . S
C432 C430 1.415 . S
C432 C437 1.425 . S
C432 C439 1.409 . S
C433 H425 0.930 . S
C433 C431 1.419 . S
C433 C434 1.362 . S
C434 H426 0.930 . S
C434 C433 1.362 . S
C434 C437 1.409 . S
C435 H427 0.930 1_655 S
C435 C436 1.355 . S
C435 C437 1.415 . S
C436 C435 1.355 . S
C436 C438 1.419 . S
C437 C432 1.425 . S
C437 C434 1.409 . S
C437 C435 1.415 . S
C438 H428 0.930 . S
C438 C436 1.419 . S
C438 C439 1.362 . S
C439 H429 0.930 . S
C439 C432 1.409 . S
C439 C438 1.362 . S
H440 C446 0.930 . S
H441 C449 0.930 . S
H442 C450 0.930 . S
H443 C451 0.930 . S
H444 C454 0.930 . S
H445 C455 0.930 . S
C446 H440 0.930 . S
C446 C447 1.355 . S
C446 C448 1.415 . S
C447 C446 1.355 . S
C447 C449 1.419 . S
C448 C446 1.415 . S
C448 C453 1.425 . S
C448 C455 1.409 . S
C449 H441 0.930 . S
C449 C447 1.419 . S
C449 C450 1.362 . S
C450 H442 0.930 . S
C450 C449 1.362 . S
C450 C453 1.409 . S
C451 H443 0.930 . S
C451 C452 1.355 . S
C451 C453 1.415 . S
C452 C451 1.355 . S
C452 C454 1.419 . S
C453 C448 1.425 . S
C453 C450 1.409 . S
C453 C451 1.415 . S
C454 H444 0.930 . S
C454 C452 1.419 . S
C454 C455 1.362 . S
C455 H445 0.930 . S
C455 C448 1.409 . S
C455 C454 1.362 . S
H456 C462 0.930 . S
H457 C465 0.930 . S
H458 C466 0.930 . S
H459 C467 0.930 . S
H460 C470 0.930 . S
H461 C471 0.930 . S
C462 H456 0.930 . S
C462 C463 1.355 . S
C462 C464 1.415 . S
C463 C462 1.355 . S
C463 C465 1.419 . S
C464 C462 1.415 . S
C464 C469 1.425 . S
C464 C471 1.409 . S
C465 H457 0.930 . S
C465 C463 1.419 . S
C465 C466 1.362 . S
C466 H458 0.930 . S
C466 C465 1.362 . S
C466 C469 1.409 . S
C467 H459 0.930 . S
C467 C468 1.355 . S
C467 C469 1.415 . S
C468 C467 1.355 . S
C468 C470 1.419 . S
C469 C464 1.425 . S
C469 C466 1.409 . S
C469 C467 1.415 . S
C470 H460 0.930 . S
C470 C468 1.419 . S
C470 C471 1.362 . S
C471 H461 0.930 . S
C471 C464 1.409 . S
C471 C470 1.362 . S
H472 C478 0.930 . S
H473 C481 0.930 . S
H474 C482 0.930 . S
H475 C483 0.930 . S
H476 C486 0.930 . S
H477 C487 0.930 . S
C478 H472 0.930 . S
C478 C479 1.355 . S
C478 C480 1.415 . S
C479 C478 1.355 . S
C479 C481 1.419 . S
C480 C478 1.415 . S
C480 C485 1.425 . S
C480 C487 1.409 . S
C481 H473 0.930 . S
C481 C479 1.419 . S
C481 C482 1.362 . S
C482 H474 0.930 . S
C482 C481 1.362 . S
C482 C485 1.409 . S
C483 H475 0.930 . S
C483 C484 1.355 . S
C483 C485 1.415 . S
C484 C483 1.355 . S
C484 C486 1.419 . S
C485 C480 1.425 . S
C485 C482 1.409 . S
C485 C483 1.415 . S
C486 H476 0.930 . S
C486 C484 1.419 . S
C486 C487 1.362 . S
C487 H477 0.930 . S
C487 C480 1.409 . S
C487 C486 1.362 . S
H488 C494 0.930 . S
H489 C497 0.930 . S
H490 C498 0.930 . S
H491 C499 0.930 . S
H492 C502 0.930 . S
H493 C503 0.930 . S
C494 H488 0.930 . S
C494 C495 1.355 . S
C494 C496 1.415 . S
C495 C494 1.355 . S
C495 C497 1.419 . S
C496 C494 1.415 . S
C496 C501 1.425 . S
C496 C503 1.409 . S
C497 H489 0.930 . S
C497 C495 1.419 . S
C497 C498 1.362 . S
C498 H490 0.930 . S
C498 C497 1.362 . S
C498 C501 1.409 . S
C499 H491 0.930 . S
C499 C500 1.355 . S
C499 C501 1.415 . S
C500 C499 1.355 . S
C500 C502 1.419 . S
C501 C496 1.425 . S
C501 C498 1.409 . S
C501 C499 1.415 . S
C502 H492 0.930 . S
C502 C500 1.419 . S
C502 C503 1.362 . S
C503 H493 0.930 . S
C503 C496 1.409 . S
C503 C502 1.362 . S
H504 C510 0.930 . S
H505 C513 0.930 . S
H506 C514 0.930 . S
H507 C515 0.930 . S
H508 C518 0.930 . S
H509 C519 0.930 . S
C510 H504 0.930 . S
C510 C511 1.355 . S
C510 C512 1.415 . S
C511 C510 1.355 . S
C511 C513 1.419 . S
C512 C510 1.415 . S
C512 C517 1.425 . S
C512 C519 1.409 . S
C513 H505 0.930 . S
C513 C511 1.419 . S
C513 C514 1.362 . S
C514 H506 0.930 . S
C514 C513 1.362 . S
C514 C517 1.409 . S
C515 H507 0.930 . S
C515 C516 1.355 . S
C515 C517 1.415 . S
C516 C515 1.355 . S
C516 C518 1.419 . S
C517 C512 1.425 . S
C517 C514 1.409 . S
C517 C515 1.415 . S
C518 H508 0.930 . S
C518 C516 1.419 . S
C518 C519 1.362 . S
C519 H509 0.930 . S
C519 C512 1.409 . S
C519 C518 1.362 . S
H520 C526 0.930 . S
H521 C529 0.930 . S
H522 C530 0.930 . S
H523 C531 0.930 . S
H524 C534 0.933 . S
H525 C535 0.930 . S
C526 H520 0.930 . S
C526 C527 1.355 . S
C526 C528 1.415 . S
C527 C526 1.355 . S
C527 C529 1.419 . S
C528 C526 1.415 . S
C528 C533 1.425 . S
C528 C535 1.409 . S
C529 H521 0.930 . S
C529 C527 1.419 . S
C529 C530 1.362 . S
C530 H522 0.930 . S
C530 C529 1.362 . S
C530 C533 1.409 . S
C531 H523 0.930 . S
C531 C532 1.355 . S
C531 C533 1.415 . S
C532 C531 1.355 . S
C532 C534 1.419 . S
C533 C528 1.425 . S
C533 C530 1.409 . S
C533 C531 1.415 . S
C534 H524 0.933 . S
C534 C532 1.419 . S
C534 C535 1.362 . S
C535 H525 0.930 . S
C535 C528 1.409 . S
C535 C534 1.362 . S
H536 C542 0.930 . S
H537 C545 0.930 . S
H538 C546 0.930 . S
H539 C547 0.930 . S
H540 C550 0.930 . S
H541 C551 0.930 . S
C542 H536 0.930 . S
C542 C543 1.355 . S
C542 C544 1.415 . S
C543 C542 1.355 . S
C543 C545 1.419 . S
C544 C542 1.415 . S
C544 C549 1.425 . S
C544 C551 1.409 . S
C545 H537 0.930 . S
C545 C543 1.419 . S
C545 C546 1.362 . S
C546 H538 0.930 . S
C546 C545 1.362 . S
C546 C549 1.409 . S
C547 H539 0.930 . S
C547 C548 1.355 . S
C547 C549 1.415 . S
C548 C547 1.355 . S
C548 C550 1.419 . S
C549 C544 1.425 . S
C549 C546 1.409 . S
C549 C547 1.415 . S
C550 H540 0.930 . S
C550 C548 1.419 . S
C550 C551 1.362 . S
C551 H541 0.930 . S
C551 C544 1.409 . S
C551 C550 1.362 . S
H552 C558 0.930 . S
H553 C561 0.930 . S
H554 C562 0.930 . S
H555 C563 0.930 . S
H556 C566 0.930 . S
H557 C567 0.930 . S
C558 H552 0.930 . S
C558 C559 1.355 . S
C558 C560 1.415 . S
C559 C558 1.355 . S
C559 C561 1.419 . S
C560 C558 1.415 . S
C560 C565 1.425 . S
C560 C567 1.409 . S
C561 H553 0.930 . S
C561 C559 1.419 . S
C561 C562 1.362 . S
C562 H554 0.930 . S
C562 C561 1.362 . S
C562 C565 1.409 . S
C563 H555 0.930 . S
C563 C564 1.355 . S
C563 C565 1.415 . S
C564 C563 1.355 . S
C564 C566 1.419 . S
C565 C560 1.425 . S
C565 C562 1.409 . S
C565 C563 1.415 . S
C566 H556 0.930 . S
C566 C564 1.419 . S
C566 C567 1.362 . S
C567 H557 0.930 . S
C567 C560 1.409 . S
C567 C566 1.362 . S
H568 C574 0.930 . S
H569 C577 0.930 . S
H570 C578 0.930 . S
H571 C579 0.930 . S
H572 C582 0.930 . S
H573 C583 0.930 . S
C574 H568 0.930 . S
C574 C575 1.355 . S
C574 C576 1.415 . S
C575 C574 1.355 . S
C575 C577 1.419 . S
C576 C574 1.415 . S
C576 C581 1.425 . S
C576 C583 1.409 . S
C577 H569 0.930 . S
C577 C575 1.419 . S
C577 C578 1.362 . S
C578 H570 0.930 . S
C578 C577 1.362 . S
C578 C581 1.409 . S
C579 H571 0.930 . S
C579 C580 1.355 . S
C579 C581 1.415 . S
C580 C579 1.355 . S
C580 C582 1.419 . S
C581 C576 1.425 . S
C581 C578 1.409 . S
C581 C579 1.415 . S
C582 H572 0.930 . S
C582 C580 1.419 . S
C582 C583 1.362 . S
C583 H573 0.930 . S
C583 C576 1.409 . S
C583 C582 1.362 . S
H584 C590 0.930 1_554 S
H585 C593 0.930 . S
H586 C594 0.930 . S
H587 C595 0.930 . S
H588 C598 0.930 . S
H589 C599 0.930 . S
C590 H584 0.930 1_556 S
C590 C591 1.355 . S
C590 C592 1.415 . S
C591 C590 1.355 . S
C591 C593 1.419 . S
C592 C590 1.415 . S
C592 C597 1.425 . S
C592 C599 1.409 1_556 S
C593 H585 0.930 . S
C593 C591 1.419 . S
C593 C594 1.362 . S
C594 H586 0.930 . S
C594 C593 1.362 . S
C594 C597 1.409 . S
C595 H587 0.930 . S
C595 C596 1.355 . S
C595 C597 1.415 . S
C596 C595 1.355 . S
C596 C598 1.419 1_556 S
C597 C592 1.425 . S
C597 C594 1.409 . S
C597 C595 1.415 . S
C598 H588 0.930 . S
C598 C596 1.419 1_554 S
C598 C599 1.362 . S
C599 H589 0.930 . S
C599 C592 1.409 1_554 S
C599 C598 1.362 . S
H600 C606 0.930 . S
H601 C609 0.930 . S
H602 C610 0.930 . S
H603 C611 0.930 . S
H604 C614 0.930 . S
H605 C615 0.930 . S
C606 H600 0.930 . S
C606 C607 1.355 . S
C606 C608 1.415 . S
C607 C606 1.355 . S
C607 C609 1.419 . S
C608 C606 1.415 . S
C608 C613 1.425 . S
C608 C615 1.409 . S
C609 H601 0.930 . S
C609 C607 1.419 . S
C609 C610 1.362 . S
C610 H602 0.930 . S
C610 C609 1.362 . S
C610 C613 1.409 . S
C611 H603 0.930 . S
C611 C612 1.355 . S
C611 C613 1.415 . S
C612 C611 1.355 . S
C612 C614 1.419 . S
C613 C608 1.425 . S
C613 C610 1.409 . S
C613 C611 1.415 . S
C614 H604 0.930 . S
C614 C612 1.419 . S
C614 C615 1.362 . S
C615 H605 0.930 . S
C615 C608 1.409 . S
C615 C614 1.362 . S
H616 C622 0.930 . S
H617 C625 0.930 . S
H618 C626 0.930 . S
H619 C627 0.930 . S
H620 C630 0.930 . S
H621 C631 0.930 . S
C622 H616 0.930 . S
C622 C623 1.355 . S
C622 C624 1.415 . S
C623 C622 1.355 . S
C623 C625 1.419 . S
C624 C622 1.415 . S
C624 C629 1.425 . S
C624 C631 1.409 . S
C625 H617 0.930 . S
C625 C623 1.419 . S
C625 C626 1.362 . S
C626 H618 0.930 . S
C626 C625 1.362 . S
C626 C629 1.409 . S
C627 H619 0.930 . S
C627 C628 1.355 . S
C627 C629 1.415 . S
C628 C627 1.355 . S
C628 C630 1.419 . S
C629 C624 1.425 . S
C629 C626 1.409 . S
C629 C627 1.415 . S
C630 H620 0.930 . S
C630 C628 1.419 . S
C630 C631 1.362 . S
C631 H621 0.930 . S
C631 C624 1.409 . S
C631 C630 1.362 . S
H632 C638 0.930 . S
H633 C641 0.930 . S
H634 C642 0.930 . S
H635 C643 0.930 . S
H636 C646 0.930 . S
H637 C647 0.930 . S
C638 H632 0.930 . S
C638 C639 1.355 . S
C638 C640 1.415 . S
C639 C638 1.355 . S
C639 C641 1.419 . S
C640 C638 1.415 . S
C640 C645 1.425 . S
C640 C647 1.409 . S
C641 H633 0.930 . S
C641 C639 1.419 . S
C641 C642 1.362 . S
C642 H634 0.930 . S
C642 C641 1.362 . S
C642 C645 1.409 . S
C643 H635 0.930 . S
C643 C644 1.355 . S
C643 C645 1.415 . S
C644 C643 1.355 . S
C644 C646 1.419 . S
C645 C640 1.425 . S
C645 C642 1.409 . S
C645 C643 1.415 . S
C646 H636 0.930 . S
C646 C644 1.419 . S
C646 C647 1.362 . S
C647 H637 0.930 . S
C647 C640 1.409 . S
C647 C646 1.362 . S
C271 C9 3.268 . S
C276 C123 3.239 . S
C287 C21 1.987 . S
C292 C154 2.071 . S
C308 C193 0.935 . S
C303 C30 0.989 . S
C319 C43 0.542 . S
C324 C230 0.502 . S
C340 C153 2.654 . S
C335 C4 2.767 . S
C356 C110 1.712 . S
C351 C22 1.692 . S
C372 C242 1.013 . S
C367 C34 1.110 . S
C388 C199 0.956 . S
C383 C48 0.973 . S
C399 C8 2.342 . S
C404 C243 2.326 . S
C420 C159 1.471 . S
C415 C35 1.475 . S
C431 C47 0.486 . S
C436 C122 0.533 . S
C447 C17 1.936 . S
C452 C194 2.118 . S
C468 C114 2.789 . S
C463 C60 2.811 . S
C479 C74 2.320 . S
C484 C163 2.429 . S
C495 C82 0.915 . S
C500 C202 0.861 . S
C511 C100 0.794 . S
C516 C239 0.828 . S
C527 C61 3.190 . S
C532 C162 3.089 . S
C548 C119 1.348 . S
C543 C73 1.304 . S
C564 C233 1.544 . S
C559 C87 1.580 . S
C580 C190 0.828 . S
C575 C95 0.804 . S
C591 C56 2.425 . S
C596 C234 2.466 1_656 S
C612 C150 1.410 . S
C607 C86 1.410 . S
C628 C113 0.444 . S
C623 C99 0.376 . S
C639 C69 2.023 . S
C644 C203 2.162 . S
