# Generated by pormake.
# Topology ptr, (4,4)-cn, num edge types: 1
# Building blocks:
#     Node 0, Type 0, BuildingBlock: NAHDIM_clean_sbu_0, # of connection points: 4
#     Node 1, Type 0, BuildingBlock: NAHDIM_clean_sbu_0, # of connection points: 4
#     Node 2, Type 0, BuildingBlock: NAHDIM_clean_sbu_0, # of connection points: 4
#     Node 3, Type 0, BuildingBlock: NAHDIM_clean_sbu_0, # of connection points: 4
#     Node 4, Type 0, BuildingBlock: NAHDIM_clean_sbu_0, # of connection points: 4
#     Node 5, Type 0, BuildingBlock: NAHDIM_clean_sbu_0, # of connection points: 4
#     Node 6, Type 0, BuildingBlock: NAHDIM_clean_sbu_0, # of connection points: 4
#     Node 7, Type 0, BuildingBlock: NAHDIM_clean_sbu_0, # of connection points: 4
#     Node 8, Type 0, BuildingBlock: NAHDIM_clean_sbu_0, # of connection points: 4
#     Node 9, Type 0, BuildingBlock: NAHDIM_clean_sbu_0, # of connection points: 4
#     Node 10, Type 0, BuildingBlock: NAHDIM_clean_sbu_0, # of connection points: 4
#     Node 11, Type 0, BuildingBlock: NAHDIM_clean_sbu_0, # of connection points: 4
#     Node 12, Type 0, BuildingBlock: NAHDIM_clean_sbu_0, # of connection points: 4
#     Node 13, Type 0, BuildingBlock: NAHDIM_clean_sbu_0, # of connection points: 4
#     Node 14, Type 0, BuildingBlock: NAHDIM_clean_sbu_0, # of connection points: 4
#     Node 15, Type 0, BuildingBlock: NAHDIM_clean_sbu_0, # of connection points: 4
#     Node 16, Type 0, BuildingBlock: NAHDIM_clean_sbu_0, # of connection points: 4
#     Node 17, Type 0, BuildingBlock: NAHDIM_clean_sbu_0, # of connection points: 4
#     Node 18, Type 1, BuildingBlock: AZAVOO_clean_linker_0, # of connection points: 4
#     Node 19, Type 1, BuildingBlock: AZAVOO_clean_linker_0, # of connection points: 4
#     Node 20, Type 1, BuildingBlock: AZAVOO_clean_linker_0, # of connection points: 4
#     Node 21, Type 1, BuildingBlock: AZAVOO_clean_linker_0, # of connection points: 4
#     Node 22, Type 1, BuildingBlock: AZAVOO_clean_linker_0, # of connection points: 4
#     Node 23, Type 1, BuildingBlock: AZAVOO_clean_linker_0, # of connection points: 4
#     Node 24, Type 1, BuildingBlock: AZAVOO_clean_linker_0, # of connection points: 4
#     Node 25, Type 1, BuildingBlock: AZAVOO_clean_linker_0, # of connection points: 4
#     Node 26, Type 1, BuildingBlock: AZAVOO_clean_linker_0, # of connection points: 4
#     Node 27, Type 1, BuildingBlock: AZAVOO_clean_linker_0, # of connection points: 4
#     Node 28, Type 1, BuildingBlock: AZAVOO_clean_linker_0, # of connection points: 4
#     Node 29, Type 1, BuildingBlock: AZAVOO_clean_linker_0, # of connection points: 4
#     Node 30, Type 1, BuildingBlock: AZAVOO_clean_linker_0, # of connection points: 4
#     Node 31, Type 1, BuildingBlock: AZAVOO_clean_linker_0, # of connection points: 4
#     Node 32, Type 1, BuildingBlock: AZAVOO_clean_linker_0, # of connection points: 4
#     Node 33, Type 1, BuildingBlock: AZAVOO_clean_linker_0, # of connection points: 4
#     Node 34, Type 1, BuildingBlock: AZAVOO_clean_linker_0, # of connection points: 4
#     Node 35, Type 1, BuildingBlock: AZAVOO_clean_linker_0, # of connection points: 4
#     Edge 36, Type (0, 1), BuildingBlock: MIFKUJ_clean_linker_0, # of connection points: 2
#     Edge 37, Type (0, 1), BuildingBlock: MIFKUJ_clean_linker_0, # of connection points: 2
#     Edge 38, Type (0, 1), BuildingBlock: MIFKUJ_clean_linker_0, # of connection points: 2
#     Edge 39, Type (0, 1), BuildingBlock: MIFKUJ_clean_linker_0, # of connection points: 2
#     Edge 40, Type (0, 1), BuildingBlock: MIFKUJ_clean_linker_0, # of connection points: 2
#     Edge 41, Type (0, 1), BuildingBlock: MIFKUJ_clean_linker_0, # of connection points: 2
#     Edge 42, Type (0, 1), BuildingBlock: MIFKUJ_clean_linker_0, # of connection points: 2
#     Edge 43, Type (0, 1), BuildingBlock: MIFKUJ_clean_linker_0, # of connection points: 2
#     Edge 44, Type (0, 1), BuildingBlock: MIFKUJ_clean_linker_0, # of connection points: 2
#     Edge 45, Type (0, 1), BuildingBlock: MIFKUJ_clean_linker_0, # of connection points: 2
#     Edge 46, Type (0, 1), BuildingBlock: MIFKUJ_clean_linker_0, # of connection points: 2
#     Edge 47, Type (0, 1), BuildingBlock: MIFKUJ_clean_linker_0, # of connection points: 2
#     Edge 48, Type (0, 1), BuildingBlock: MIFKUJ_clean_linker_0, # of connection points: 2
#     Edge 49, Type (0, 1), BuildingBlock: MIFKUJ_clean_linker_0, # of connection points: 2
#     Edge 50, Type (0, 1), BuildingBlock: MIFKUJ_clean_linker_0, # of connection points: 2
#     Edge 51, Type (0, 1), BuildingBlock: MIFKUJ_clean_linker_0, # of connection points: 2
#     Edge 52, Type (0, 1), BuildingBlock: MIFKUJ_clean_linker_0, # of connection points: 2
#     Edge 53, Type (0, 1), BuildingBlock: MIFKUJ_clean_linker_0, # of connection points: 2
#     Edge 54, Type (0, 1), BuildingBlock: MIFKUJ_clean_linker_0, # of connection points: 2
#     Edge 55, Type (0, 1), BuildingBlock: MIFKUJ_clean_linker_0, # of connection points: 2
#     Edge 56, Type (0, 1), BuildingBlock: MIFKUJ_clean_linker_0, # of connection points: 2
#     Edge 57, Type (0, 1), BuildingBlock: MIFKUJ_clean_linker_0, # of connection points: 2
#     Edge 58, Type (0, 1), BuildingBlock: MIFKUJ_clean_linker_0, # of connection points: 2
#     Edge 59, Type (0, 1), BuildingBlock: MIFKUJ_clean_linker_0, # of connection points: 2
#     Edge 60, Type (0, 1), BuildingBlock: MIFKUJ_clean_linker_0, # of connection points: 2
#     Edge 61, Type (0, 1), BuildingBlock: MIFKUJ_clean_linker_0, # of connection points: 2
#     Edge 62, Type (0, 1), BuildingBlock: MIFKUJ_clean_linker_0, # of connection points: 2
#     Edge 63, Type (0, 1), BuildingBlock: MIFKUJ_clean_linker_0, # of connection points: 2
#     Edge 64, Type (0, 1), BuildingBlock: MIFKUJ_clean_linker_0, # of connection points: 2
#     Edge 65, Type (0, 1), BuildingBlock: MIFKUJ_clean_linker_0, # of connection points: 2
#     Edge 66, Type (0, 1), BuildingBlock: MIFKUJ_clean_linker_0, # of connection points: 2
#     Edge 67, Type (0, 1), BuildingBlock: MIFKUJ_clean_linker_0, # of connection points: 2
#     Edge 68, Type (0, 1), BuildingBlock: MIFKUJ_clean_linker_0, # of connection points: 2
#     Edge 69, Type (0, 1), BuildingBlock: MIFKUJ_clean_linker_0, # of connection points: 2
#     Edge 70, Type (0, 1), BuildingBlock: MIFKUJ_clean_linker_0, # of connection points: 2
#     Edge 71, Type (0, 1), BuildingBlock: MIFKUJ_clean_linker_0, # of connection points: 2
#     Edge 72, Type (0, 1), BuildingBlock: MIFKUJ_clean_linker_0, # of connection points: 2
#     Edge 73, Type (0, 1), BuildingBlock: MIFKUJ_clean_linker_0, # of connection points: 2
#     Edge 74, Type (0, 1), BuildingBlock: MIFKUJ_clean_linker_0, # of connection points: 2
#     Edge 75, Type (0, 1), BuildingBlock: MIFKUJ_clean_linker_0, # of connection points: 2
#     Edge 76, Type (0, 1), BuildingBlock: MIFKUJ_clean_linker_0, # of connection points: 2
#     Edge 77, Type (0, 1), BuildingBlock: MIFKUJ_clean_linker_0, # of connection points: 2
#     Edge 78, Type (0, 1), BuildingBlock: MIFKUJ_clean_linker_0, # of connection points: 2
#     Edge 79, Type (0, 1), BuildingBlock: MIFKUJ_clean_linker_0, # of connection points: 2
#     Edge 80, Type (0, 1), BuildingBlock: MIFKUJ_clean_linker_0, # of connection points: 2
#     Edge 81, Type (0, 1), BuildingBlock: MIFKUJ_clean_linker_0, # of connection points: 2
#     Edge 82, Type (0, 1), BuildingBlock: MIFKUJ_clean_linker_0, # of connection points: 2
#     Edge 83, Type (0, 1), BuildingBlock: MIFKUJ_clean_linker_0, # of connection points: 2
#     Edge 84, Type (0, 1), BuildingBlock: MIFKUJ_clean_linker_0, # of connection points: 2
#     Edge 85, Type (0, 1), BuildingBlock: MIFKUJ_clean_linker_0, # of connection points: 2
#     Edge 86, Type (0, 1), BuildingBlock: MIFKUJ_clean_linker_0, # of connection points: 2
#     Edge 87, Type (0, 1), BuildingBlock: MIFKUJ_clean_linker_0, # of connection points: 2
#     Edge 88, Type (0, 1), BuildingBlock: MIFKUJ_clean_linker_0, # of connection points: 2
#     Edge 89, Type (0, 1), BuildingBlock: MIFKUJ_clean_linker_0, # of connection points: 2
#     Edge 90, Type (0, 1), BuildingBlock: MIFKUJ_clean_linker_0, # of connection points: 2
#     Edge 91, Type (0, 1), BuildingBlock: MIFKUJ_clean_linker_0, # of connection points: 2
#     Edge 92, Type (0, 1), BuildingBlock: MIFKUJ_clean_linker_0, # of connection points: 2
#     Edge 93, Type (0, 1), BuildingBlock: MIFKUJ_clean_linker_0, # of connection points: 2
#     Edge 94, Type (0, 1), BuildingBlock: MIFKUJ_clean_linker_0, # of connection points: 2
#     Edge 95, Type (0, 1), BuildingBlock: MIFKUJ_clean_linker_0, # of connection points: 2
#     Edge 96, Type (0, 1), BuildingBlock: MIFKUJ_clean_linker_0, # of connection points: 2
#     Edge 97, Type (0, 1), BuildingBlock: MIFKUJ_clean_linker_0, # of connection points: 2
#     Edge 98, Type (0, 1), BuildingBlock: MIFKUJ_clean_linker_0, # of connection points: 2
#     Edge 99, Type (0, 1), BuildingBlock: MIFKUJ_clean_linker_0, # of connection points: 2
#     Edge 100, Type (0, 1), BuildingBlock: MIFKUJ_clean_linker_0, # of connection points: 2
#     Edge 101, Type (0, 1), BuildingBlock: MIFKUJ_clean_linker_0, # of connection points: 2
#     Edge 102, Type (0, 1), BuildingBlock: MIFKUJ_clean_linker_0, # of connection points: 2
#     Edge 103, Type (0, 1), BuildingBlock: MIFKUJ_clean_linker_0, # of connection points: 2
#     Edge 104, Type (0, 1), BuildingBlock: MIFKUJ_clean_linker_0, # of connection points: 2
#     Edge 105, Type (0, 1), BuildingBlock: MIFKUJ_clean_linker_0, # of connection points: 2
#     Edge 106, Type (0, 1), BuildingBlock: MIFKUJ_clean_linker_0, # of connection points: 2
#     Edge 107, Type (0, 1), BuildingBlock: MIFKUJ_clean_linker_0, # of connection points: 2
# Relax obj value: 0.097
# Max RMSD: 0.290
# Mean RMSD: 0.174
data_MOF--net-ptr--node1-NAHDIM_clean_sbu_0--node2-AZAVOO_clean_linker_0--edge1-MIFKUJ_clean_linker_0
_symmetry_space_group_name_H-M    P1
_symmetry_Int_Tables_number       1
_symmetry_cell_setting            triclinic
loop_
_symmetry_equiv_pos_as_xyz
'x, y, z'
_cell_length_a     103.63865
_cell_length_b     100.40011
_cell_length_c     85.041645
_cell_angle_alpha  93.891157
_cell_angle_beta   91.496566
_cell_angle_gamma 122.09382
loop_
_atom_site_label
_atom_site_type_symbol
_atom_site_fract_x
_atom_site_fract_y
_atom_site_fract_z
_atom_type_partial_charge
C0 C 0.02322 0.35369 0.03768 0.0
O1 O 0.00844 0.34623 0.03915 0.0
O2 O 0.99805 0.3481 0.00551 0.0
Zn3 Zn 0.01395 0.36853 0.01801 0.0
O4 O 0.00509 0.37532 0.03516 0.0
C5 C 0.0238 0.38351 0.98891 0.0
O6 O 0.01891 0.36911 0.98275 0.0
O7 O 0.02914 0.36472 0.02859 0.0
C8 C 0.99647 0.38047 0.03241 0.0
O9 O 0.99234 0.38062 0.01771 0.0
C10 C 0.98404 0.33989 0.00824 0.0
O11 O 0.97896 0.34487 0.01974 0.0
O12 O 0.02344 0.386 0.00369 0.0
C13 C 0.66331 0.64008 0.04428 0.0
O14 O 0.65544 0.64642 0.04071 0.0
O15 O 0.64404 0.64716 0.07236 0.0
Zn16 Zn 0.63854 0.62592 0.06215 0.0
O17 O 0.62366 0.61905 0.04305 0.0
C18 C 0.62122 0.61036 0.08767 0.0
O19 O 0.61814 0.62141 0.0868 0.0
O20 O 0.65813 0.62962 0.05401 0.0
C21 C 0.60916 0.61152 0.04264 0.0
O22 O 0.60231 0.6075 0.05584 0.0
C23 C 0.63577 0.653 0.07212 0.0
O24 O 0.62196 0.64472 0.06504 0.0
O25 O 0.63016 0.60972 0.07813 0.0
C26 C 0.37056 0.02231 0.00054 0.0
O27 O 0.36399 0.00761 0.99432 0.0
O28 O 0.36167 0.99429 0.02683 0.0
Zn29 Zn 0.38232 0.00945 0.0194 0.0
O30 O 0.38755 0.00015 0.00079 0.0
C31 C 0.395 0.0069 0.04808 0.0
O32 O 0.3822 0.99302 0.046 0.0
O33 O 0.38041 0.02703 0.0122 0.0
C34 C 0.39258 0.99108 0.00147 0.0
O35 O 0.39418 0.98664 0.01518 0.0
C36 C 0.35154 0.98025 0.02147 0.0
O37 O 0.35405 0.9735 0.00917 0.0
O38 O 0.3981 0.01666 0.03782 0.0
C39 C 0.98008 0.6447 0.02154 0.0
O40 O 0.99162 0.64564 0.01448 0.0
O41 O 0.01045 0.65921 0.05818 0.0
Zn42 Zn 0.99395 0.63829 0.04694 0.0
O43 O 0.0023 0.62959 0.03091 0.0
C44 C 0.99201 0.6163 0.06698 0.0
O45 O 0.00467 0.62031 0.0602 0.0
O46 O 0.97827 0.64119 0.03575 0.0
C47 C 0.01576 0.63656 0.02635 0.0
O48 O 0.02583 0.65114 0.0321 0.0
C49 C 0.01575 0.67214 0.05197 0.0
O50 O 0.01085 0.67192 0.03751 0.0
O51 O 0.98468 0.62268 0.06329 0.0
C52 C 0.34016 0.36711 0.01785 0.0
O53 O 0.34792 0.3608 0.02202 0.0
O54 O 0.36037 0.36078 0.98998 0.0
Zn55 Zn 0.36571 0.38168 0.00099 0.0
O56 O 0.38029 0.38828 0.02026 0.0
C57 C 0.38277 0.39704 0.97536 0.0
O58 O 0.3841 0.38473 0.97483 0.0
O59 O 0.34584 0.37779 0.00838 0.0
C60 C 0.39429 0.39272 0.02014 0.0
O61 O 0.40017 0.39295 0.00659 0.0
C62 C 0.36575 0.35249 0.99356 0.0
O63 O 0.37624 0.35768 0.00532 0.0
O64 O 0.37489 0.39848 0.98577 0.0
C65 C 0.63121 0.98337 0.06118 0.0
O66 O 0.63172 0.99411 0.07136 0.0
O67 O 0.6429 0.01538 0.03218 0.0
Zn68 Zn 0.62311 0.99914 0.04028 0.0
O69 O 0.6174 0.00808 0.05887 0.0
C70 C 0.60783 0.98507 0.00926 0.0
O71 O 0.61954 0.98355 0.00733 0.0
O72 O 0.62671 0.98238 0.04686 0.0
C73 C 0.60335 0.00126 0.06143 0.0
O74 O 0.59324 0.9892 0.05163 0.0
C75 C 0.65506 0.0241 0.04107 0.0
O76 O 0.6545 0.02378 0.05646 0.0
O77 O 0.60679 0.99096 0.0225 0.0
C78 C 0.68574 0.69174 0.372 0.0
O79 O 0.67128 0.68509 0.37482 0.0
O80 O 0.65965 0.6821 0.33883 0.0
Zn81 Zn 0.67543 0.70356 0.34922 0.0
O82 O 0.66558 0.71096 0.36467 0.0
C83 C 0.68388 0.71497 0.31817 0.0
O84 O 0.6768 0.69989 0.31323 0.0
O85 O 0.69088 0.70106 0.3612 0.0
C86 C 0.67029 0.72553 0.36708 0.0
O87 O 0.68155 0.73573 0.35919 0.0
C88 C 0.6474 0.67901 0.33149 0.0
O89 O 0.64467 0.6903 0.33051 0.0
O90 O 0.68503 0.71911 0.33286 0.0
C91 C 0.316 0.95715 0.37289 0.0
O92 O 0.30609 0.95945 0.36564 0.0
O93 O 0.30519 0.97614 0.40728 0.0
Zn94 Zn 0.29729 0.95383 0.39816 0.0
O95 O 0.27963 0.94573 0.38194 0.0
C96 C 0.28746 0.94312 0.42874 0.0
O97 O 0.28954 0.9572 0.43137 0.0
O98 O 0.31448 0.95408 0.38724 0.0
C99 C 0.27043 0.95036 0.38034 0.0
O100 O 0.27167 0.96158 0.39039 0.0
C101 C 0.30754 0.98713 0.39891 0.0
O102 O 0.30428 0.98397 0.38356 0.0
O103 O 0.29034 0.93913 0.41541 0.0
C104 C 0.05104 0.35379 0.33511 0.0
O105 O 0.04336 0.3393 0.32816 0.0
O106 O 0.03717 0.32357 0.36174 0.0
Zn107 Zn 0.05851 0.33787 0.35546 0.0
O108 O 0.06324 0.32729 0.33758 0.0
C109 C 0.07796 0.35615 0.38387 0.0
O110 O 0.07255 0.3652 0.38184 0.0
O111 O 0.05932 0.35672 0.34772 0.0
C112 C 0.07703 0.33144 0.33613 0.0
O113 O 0.08767 0.34202 0.3467 0.0
C114 C 0.03369 0.31349 0.37167 0.0
O115 O 0.04436 0.31171 0.3779 0.0
O116 O 0.07353 0.34408 0.37416 0.0
C117 C 0.63694 0.95804 0.35482 0.0
O118 O 0.64318 0.95115 0.34746 0.0
O119 O 0.67335 0.98631 0.39003 0.0
Zn120 Zn 0.65869 0.96385 0.38073 0.0
O121 O 0.6686 0.95646 0.36531 0.0
C122 C 0.65936 0.95249 0.41061 0.0
O123 O 0.67277 0.96578 0.41236 0.0
O124 O 0.64136 0.9637 0.36914 0.0
C125 C 0.67737 0.95174 0.36911 0.0
O126 O 0.68103 0.95209 0.3841 0.0
C127 C 0.68779 0.99376 0.38974 0.0
O128 O 0.69415 0.9867 0.38301 0.0
O129 O 0.65093 0.94917 0.39801 0.0
C130 C 0.01349 0.71327 0.36334 0.0
O131 O 0.02488 0.71568 0.37282 0.0
O132 O 0.03363 0.70249 0.3294 0.0
Zn133 Zn 0.03615 0.72201 0.34081 0.0
O134 O 0.05191 0.7299 0.35924 0.0
C135 C 0.0547 0.75239 0.32864 0.0
O136 O 0.06228 0.75606 0.34249 0.0
O137 O 0.01566 0.71579 0.3489 0.0
C138 C 0.06298 0.72783 0.36006 0.0
O139 O 0.06486 0.72016 0.34811 0.0
C140 C 0.02941 0.69038 0.33676 0.0
O141 O 0.02726 0.69106 0.35187 0.0
O142 O 0.04284 0.73864 0.32547 0.0
C143 C 0.28842 0.31537 0.39901 0.0
O144 O 0.29077 0.32776 0.40794 0.0
O145 O 0.30218 0.34559 0.36936 0.0
Zn146 Zn 0.28136 0.33033 0.37619 0.0
O147 O 0.27575 0.34089 0.39324 0.0
C148 C 0.27027 0.32035 0.34373 0.0
O149 O 0.2843 0.32377 0.3425 0.0
O150 O 0.28329 0.31322 0.38472 0.0
C151 C 0.26186 0.33497 0.3961 0.0
O152 O 0.25124 0.32219 0.38746 0.0
C153 C 0.30702 0.35929 0.3652 0.0
O154 O 0.29805 0.36485 0.36557 0.0
O155 O 0.26607 0.32188 0.35729 0.0
C156 C 0.36628 0.04413 0.70654 0.0
O157 O 0.36428 0.05548 0.71178 0.0
O158 O 0.32685 0.0167 0.67224 0.0
Zn159 Zn 0.34315 0.03813 0.68245 0.0
O160 O 0.33445 0.0465 0.69833 0.0
C161 C 0.35045 0.0493 0.65136 0.0
O162 O 0.3423 0.03415 0.64656 0.0
O163 O 0.35885 0.03558 0.69389 0.0
C164 C 0.3207 0.04296 0.69809 0.0
O165 O 0.31078 0.03294 0.68669 0.0
C166 C 0.31816 0.00573 0.6806 0.0
O167 O 0.31957 0.00867 0.69605 0.0
O168 O 0.35259 0.05364 0.66608 0.0
C169 C 0.0015 0.29789 0.72311 0.0
O170 O 0.00095 0.30529 0.73617 0.0
O171 O 0.97333 0.30507 0.7315 0.0
Zn172 Zn 0.96907 0.28417 0.72162 0.0
O173 O 0.955 0.2773 0.70191 0.0
C174 C 0.95198 0.26943 0.7478 0.0
O175 O 0.95011 0.28139 0.74781 0.0
O176 O 0.98911 0.28765 0.71521 0.0
C177 C 0.9405 0.26921 0.70159 0.0
O178 O 0.93383 0.26467 0.71481 0.0
C179 C 0.9652 0.3108 0.72885 0.0
O180 O 0.95303 0.30288 0.71892 0.0
O181 O 0.95984 0.26791 0.73742 0.0
C182 C 0.71273 0.68796 0.66795 0.0
O183 O 0.70619 0.6732 0.66195 0.0
O184 O 0.70548 0.66035 0.69395 0.0
Zn185 Zn 0.72597 0.67615 0.68645 0.0
O186 O 0.73102 0.66694 0.66762 0.0
C187 C 0.74095 0.67585 0.71504 0.0
O188 O 0.7289 0.6614 0.71396 0.0
O189 O 0.72302 0.69306 0.67921 0.0
C190 C 0.73679 0.65851 0.66793 0.0
O191 O 0.73985 0.65499 0.68156 0.0
C192 C 0.69879 0.64543 0.69348 0.0
O193 O 0.70557 0.63839 0.68779 0.0
O194 O 0.74249 0.68475 0.70435 0.0
C195 C 0.31184 0.3061 0.68506 0.0
O196 O 0.32081 0.30349 0.67656 0.0
O197 O 0.34474 0.32298 0.72109 0.0
Zn198 Zn 0.32796 0.30199 0.71047 0.0
O199 O 0.33609 0.29332 0.69422 0.0
C200 C 0.32806 0.28695 0.73731 0.0
O201 O 0.34264 0.29785 0.73727 0.0
O202 O 0.31243 0.30548 0.69994 0.0
C203 C 0.34951 0.29589 0.69488 0.0
O204 O 0.35925 0.30507 0.70679 0.0
C205 C 0.35101 0.33526 0.71369 0.0
O206 O 0.34683 0.33403 0.69867 0.0
O207 O 0.31879 0.28636 0.72678 0.0
C208 C 0.67176 0.04303 0.67098 0.0
O209 O 0.66929 0.03504 0.65717 0.0
O210 O 0.6941 0.02772 0.65899 0.0
Zn211 Zn 0.70256 0.04976 0.66929 0.0
O212 O 0.71702 0.05435 0.68814 0.0
C213 C 0.72011 0.06356 0.64287 0.0
O214 O 0.72044 0.05064 0.64219 0.0
O215 O 0.68512 0.05061 0.67783 0.0
C216 C 0.73153 0.06223 0.68853 0.0
O217 O 0.73833 0.06791 0.67562 0.0
C218 C 0.70102 0.02047 0.66019 0.0
O219 O 0.71433 0.02755 0.66829 0.0
O220 O 0.71299 0.06586 0.65359 0.0
C221 C 0.93826 0.63698 0.7267 0.0
O222 O 0.93119 0.64178 0.73581 0.0
O223 O 0.9602 0.6752 0.69698 0.0
Zn224 Zn 0.94045 0.66021 0.70612 0.0
O225 O 0.93636 0.67131 0.72416 0.0
C226 C 0.92176 0.6615 0.68224 0.0
O227 O 0.93099 0.67661 0.68684 0.0
O228 O 0.94262 0.64285 0.71365 0.0
C229 C 0.92263 0.66621 0.72719 0.0
O230 O 0.91151 0.65387 0.71847 0.0
C231 C 0.97285 0.6809 0.70499 0.0
O232 O 0.97281 0.67766 0.71971 0.0
O233 O 0.9235 0.65156 0.68891 0.0
H234 H 0.13698 0.32468 0.04891 0.0
H235 H 0.23121 0.27451 0.15273 0.0
H236 H 0.14738 0.32519 0.1452 0.0
H237 H 0.12907 0.33201 0.13647 0.0
H238 H 0.09971 0.28476 0.1136 0.0
H239 H 0.1181 0.27801 0.12238 0.0
H240 H 0.15812 0.3257 0.11357 0.0
H241 H 0.15018 0.32969 0.08791 0.0
H242 H 0.13327 0.28107 0.07145 0.0
H243 H 0.14115 0.27721 0.0973 0.0
H244 H 0.18493 0.32479 0.11156 0.0
H245 H 0.20311 0.3304 0.09153 0.0
H246 H 0.19078 0.28181 0.08823 0.0
H247 H 0.17246 0.27627 0.10839 0.0
H248 H 0.20228 0.3183 0.13754 0.0
H249 H 0.22442 0.31581 0.14078 0.0
H250 H 0.19454 0.26709 0.1501 0.0
H251 H 0.17248 0.26968 0.14663 0.0
H252 H 0.19088 0.31927 0.16849 0.0
H253 H 0.20209 0.31976 0.1943 0.0
H254 H 0.16322 0.2732 0.1997 0.0
H255 H 0.15205 0.27278 0.17365 0.0
H256 H 0.16277 0.32191 0.17366 0.0
H257 H 0.15121 0.32371 0.19773 0.0
H258 H 0.11225 0.27646 0.18499 0.0
H259 H 0.12387 0.27493 0.1607 0.0
O260 O 0.13967 0.3227 0.05908 0.0
O261 O 0.12977 0.29723 0.05163 0.0
O262 O 0.2375 0.30086 0.14631 0.0
O263 O 0.22265 0.2758 0.15131 0.0
C264 C 0.14668 0.29839 0.13631 0.0
C265 C 0.15474 0.29873 0.12302 0.0
C266 C 0.16763 0.2975 0.12477 0.0
C267 C 0.17232 0.29561 0.13977 0.0
C268 C 0.1645 0.29567 0.15313 0.0
C269 C 0.15168 0.29707 0.15139 0.0
C270 C 0.13403 0.30111 0.13443 0.0
C271 C 0.13675 0.31616 0.13878 0.0
C272 C 0.12638 0.32008 0.13365 0.0
C273 C 0.11308 0.30895 0.12424 0.0
C274 C 0.10983 0.29352 0.12092 0.0
C275 C 0.12028 0.28964 0.12593 0.0
C276 C 0.15009 0.30113 0.10731 0.0
C277 C 0.15261 0.3159 0.10444 0.0
C278 C 0.14812 0.31816 0.08975 0.0
C279 C 0.14108 0.30569 0.07763 0.0
C280 C 0.13863 0.29091 0.08054 0.0
C281 C 0.14314 0.28867 0.09526 0.0
C282 C 0.17732 0.30011 0.11135 0.0
C283 C 0.18588 0.31526 0.10624 0.0
C284 C 0.19625 0.31843 0.09478 0.0
C285 C 0.19836 0.30653 0.08827 0.0
C286 C 0.18946 0.29123 0.09311 0.0
C287 C 0.17897 0.28803 0.10454 0.0
C288 C 0.18578 0.29412 0.14169 0.0
C289 C 0.20054 0.30706 0.14014 0.0
C290 C 0.21316 0.30563 0.14207 0.0
C291 C 0.21124 0.29123 0.14567 0.0
C292 C 0.19642 0.27833 0.1473 0.0
C293 C 0.18381 0.27977 0.14533 0.0
C294 C 0.17076 0.29591 0.16913 0.0
C295 C 0.18481 0.30915 0.17521 0.0
C296 C 0.1912 0.30939 0.18992 0.0
C297 C 0.18361 0.29643 0.19892 0.0
C298 C 0.1693 0.28334 0.19302 0.0
C299 C 0.16294 0.28307 0.17818 0.0
C300 C 0.14418 0.29826 0.16554 0.0
C301 C 0.15172 0.31198 0.17607 0.0
C302 C 0.14514 0.31293 0.18985 0.0
C303 C 0.13088 0.30015 0.19337 0.0
C304 C 0.1232 0.28653 0.18257 0.0
C305 C 0.12981 0.2856 0.16874 0.0
C306 C 0.13645 0.3082 0.06199 0.0
C307 C 0.22462 0.28965 0.14777 0.0
H308 H 0.68421 0.84702 0.065 0.0
H309 H 0.73804 0.96994 0.20376 0.0
H310 H 0.68124 0.83515 0.14708 0.0
H311 H 0.67296 0.80848 0.13646 0.0
H312 H 0.71686 0.81661 0.15208 0.0
H313 H 0.72541 0.84382 0.16173 0.0
H314 H 0.68391 0.86146 0.13273 0.0
H315 H 0.67989 0.85495 0.10407 0.0
H316 H 0.7237 0.85934 0.10349 0.0
H317 H 0.72767 0.86603 0.13215 0.0
H318 H 0.68732 0.88709 0.15954 0.0
H319 H 0.68201 0.90306 0.14343 0.0
H320 H 0.72217 0.91601 0.11837 0.0
H321 H 0.72772 0.90019 0.13497 0.0
H322 H 0.69432 0.89128 0.19263 0.0
H323 H 0.69842 0.91636 0.20409 0.0
H324 H 0.74219 0.94133 0.18392 0.0
H325 H 0.73803 0.91613 0.17271 0.0
H326 H 0.6901 0.86026 0.20347 0.0
H327 H 0.68862 0.8677 0.23096 0.0
H328 H 0.73569 0.90643 0.23293 0.0
H329 H 0.73722 0.89861 0.20537 0.0
H330 H 0.68623 0.83274 0.18358 0.0
H331 H 0.68505 0.81392 0.20122 0.0
H332 H 0.73317 0.84558 0.21492 0.0
H333 H 0.73424 0.86434 0.19718 0.0
O334 O 0.68606 0.84966 0.07633 0.0
O335 O 0.70863 0.85197 0.07669 0.0
O336 O 0.71361 0.94644 0.20962 0.0
O337 O 0.73616 0.95985 0.19941 0.0
C338 C 0.70855 0.85755 0.16183 0.0
C339 C 0.70866 0.86836 0.1519 0.0
C340 C 0.71081 0.88274 0.15857 0.0
C341 C 0.71355 0.88664 0.17511 0.0
C342 C 0.7135 0.87588 0.18505 0.0
C343 C 0.71102 0.86134 0.17841 0.0
C344 C 0.70399 0.8415 0.15501 0.0
C345 C 0.68918 0.83128 0.14793 0.0
C346 C 0.68438 0.81592 0.14211 0.0
C347 C 0.69417 0.81028 0.14355 0.0
C348 C 0.70907 0.82059 0.15061 0.0
C349 C 0.71396 0.8361 0.15622 0.0
C350 C 0.70616 0.86438 0.13448 0.0
C351 C 0.69268 0.86114 0.12637 0.0
C352 C 0.69039 0.85736 0.11001 0.0
C353 C 0.70149 0.85666 0.10148 0.0
C354 C 0.71493 0.85981 0.10969 0.0
C355 C 0.71723 0.86362 0.12605 0.0
C356 C 0.70803 0.89268 0.1486 0.0
C357 C 0.69513 0.89356 0.15075 0.0
C358 C 0.6921 0.90266 0.14154 0.0
C359 C 0.70178 0.91088 0.12979 0.0
C360 C 0.71457 0.90978 0.12739 0.0
C361 C 0.71775 0.90082 0.13684 0.0
C362 C 0.71597 0.90188 0.18201 0.0
C363 C 0.70485 0.90217 0.19082 0.0
C364 C 0.70719 0.91652 0.19729 0.0
C365 C 0.72066 0.93086 0.19495 0.0
C366 C 0.73171 0.93051 0.18598 0.0
C367 C 0.72937 0.91614 0.17956 0.0
C368 C 0.71376 0.8789 0.20242 0.0
C369 C 0.70024 0.87005 0.20996 0.0
C370 C 0.69936 0.87442 0.2256 0.0
C371 C 0.71198 0.88778 0.23399 0.0
C372 C 0.72582 0.89606 0.22675 0.0
C373 C 0.72671 0.89164 0.21104 0.0
C374 C 0.71036 0.84983 0.18898 0.0
C375 C 0.69654 0.83553 0.19026 0.0
C376 C 0.6959 0.82479 0.20032 0.0
C377 C 0.70903 0.82825 0.20941 0.0
C378 C 0.72284 0.84264 0.20816 0.0
C379 C 0.72349 0.85333 0.19802 0.0
C380 C 0.699 0.85263 0.0841 0.0
C381 C 0.7232 0.94615 0.20179 0.0
H382 H 0.14844 0.85236 0.05631 0.0
H383 H 0.27389 0.95955 0.18179 0.0
H384 H 0.13755 0.86152 0.13845 0.0
H385 H 0.11498 0.8362 0.12787 0.0
H386 H 0.13298 0.81163 0.15071 0.0
H387 H 0.15532 0.83693 0.16134 0.0
H388 H 0.16639 0.8866 0.11937 0.0
H389 H 0.15862 0.87596 0.09165 0.0
H390 H 0.16113 0.83569 0.10167 0.0
H391 H 0.16908 0.84657 0.1293 0.0
H392 H 0.19865 0.91591 0.13544 0.0
H393 H 0.21787 0.92742 0.116 0.0
H394 H 0.22036 0.88569 0.11289 0.0
H395 H 0.20115 0.87432 0.13214 0.0
H396 H 0.19788 0.92253 0.17471 0.0
H397 H 0.22286 0.94658 0.18207 0.0
H398 H 0.24479 0.92129 0.16913 0.0
H399 H 0.21974 0.8973 0.162 0.0
H400 H 0.17082 0.89809 0.19707 0.0
H401 H 0.1791 0.90588 0.22525 0.0
H402 H 0.21345 0.89431 0.2191 0.0
H403 H 0.2046 0.88585 0.19132 0.0
H404 H 0.13994 0.86898 0.17622 0.0
H405 H 0.12277 0.85509 0.19675 0.0
H406 H 0.15414 0.84253 0.21404 0.0
H407 H 0.17115 0.85634 0.19347 0.0
O408 O 0.15159 0.85638 0.0673 0.0
O409 O 0.15293 0.83586 0.0731 0.0
O410 O 0.25203 0.96265 0.18558 0.0
O411 O 0.26387 0.95021 0.179 0.0
C412 C 0.16272 0.86616 0.15502 0.0
C413 C 0.17279 0.87379 0.14318 0.0
C414 C 0.18737 0.88742 0.14736 0.0
C415 C 0.19179 0.89367 0.16334 0.0
C416 C 0.18179 0.88596 0.17522 0.0
C417 C 0.16722 0.87221 0.17103 0.0
C418 C 0.14804 0.85103 0.15063 0.0
C419 C 0.13643 0.85064 0.14139 0.0
C420 C 0.12362 0.83619 0.13529 0.0
C421 C 0.12225 0.8219 0.13835 0.0
C422 C 0.13359 0.82238 0.14828 0.0
C423 C 0.14637 0.83683 0.15435 0.0
C424 C 0.16819 0.8673 0.12634 0.0
C425 C 0.16529 0.8755 0.11553 0.0
C426 C 0.16083 0.86938 0.09972 0.0
C427 C 0.15921 0.85495 0.09445 0.0
C428 C 0.16223 0.84681 0.10534 0.0
C429 C 0.16672 0.85297 0.12113 0.0
C430 C 0.1985 0.89428 0.13514 0.0
C431 C 0.20331 0.90927 0.13046 0.0
C432 C 0.21431 0.91582 0.11942 0.0
C433 C 0.22061 0.90744 0.11288 0.0
C434 C 0.21556 0.89233 0.11748 0.0
C435 C 0.20463 0.88584 0.12852 0.0
C436 C 0.20701 0.90822 0.16772 0.0
C437 C 0.2081 0.92222 0.17349 0.0
C438 C 0.22237 0.93593 0.17767 0.0
C439 C 0.23583 0.93587 0.17615 0.0
C440 C 0.23467 0.92177 0.17041 0.0
C441 C 0.22038 0.90806 0.16627 0.0
C442 C 0.18715 0.89146 0.19214 0.0
C443 C 0.18011 0.89724 0.20187 0.0
C444 C 0.18492 0.90176 0.21793 0.0
C445 C 0.1969 0.90065 0.22448 0.0
C446 C 0.20401 0.89505 0.21456 0.0
C447 C 0.19912 0.89041 0.19861 0.0
C448 C 0.15683 0.86378 0.18346 0.0
C449 C 0.14306 0.8632 0.18445 0.0
C450 C 0.13327 0.85524 0.19613 0.0
C451 C 0.13716 0.84781 0.20706 0.0
C452 C 0.15096 0.84837 0.20596 0.0
C453 C 0.16066 0.85621 0.19421 0.0
C454 C 0.1544 0.84844 0.07767 0.0
C455 C 0.25103 0.95041 0.18054 0.0
H456 H 0.28923 0.16609 0.99744 0.0
H457 H 0.30451 0.05435 0.88491 0.0
H458 H 0.27582 0.16017 0.91362 0.0
H459 H 0.28375 0.18731 0.92307 0.0
H460 H 0.32752 0.2046 0.90384 0.0
H461 H 0.31967 0.17756 0.89479 0.0
H462 H 0.27275 0.13159 0.93456 0.0
H463 H 0.27533 0.14265 0.96185 0.0
H464 H 0.32197 0.17945 0.95568 0.0
H465 H 0.31929 0.16814 0.9285 0.0
H466 H 0.27382 0.09985 0.92149 0.0
H467 H 0.28052 0.08641 0.94004 0.0
H468 H 0.32693 0.12683 0.9455 0.0
H469 H 0.32008 0.14011 0.92726 0.0
H470 H 0.26818 0.09276 0.88217 0.0
H471 H 0.26792 0.06828 0.87734 0.0
H472 H 0.31551 0.09317 0.89436 0.0
H473 H 0.31569 0.11758 0.89884 0.0
H474 H 0.26864 0.11771 0.8576 0.0
H475 H 0.26908 0.10772 0.83055 0.0
H476 H 0.31469 0.11826 0.84192 0.0
H477 H 0.31434 0.12871 0.86848 0.0
H478 H 0.27097 0.15075 0.87505 0.0
H479 H 0.27293 0.1678 0.85469 0.0
H480 H 0.31674 0.17525 0.84407 0.0
H481 H 0.31485 0.15859 0.86467 0.0
O482 O 0.28848 0.16187 0.98665 0.0
O483 O 0.31238 0.18058 0.98284 0.0
O484 O 0.28 0.0517 0.87735 0.0
O485 O 0.30432 0.06387 0.88651 0.0
C486 C 0.29368 0.1506 0.90023 0.0
C487 C 0.29404 0.14242 0.91294 0.0
C488 C 0.29341 0.12809 0.90991 0.0
C489 C 0.29195 0.12167 0.89417 0.0
C490 C 0.2913 0.12971 0.88144 0.0
C491 C 0.29217 0.14419 0.88447 0.0
C492 C 0.29717 0.16693 0.90352 0.0
C493 C 0.28699 0.16988 0.91119 0.0
C494 C 0.29152 0.18534 0.91654 0.0
C495 C 0.30631 0.19801 0.91432 0.0
C496 C 0.31614 0.19504 0.9059 0.0
C497 C 0.31161 0.17964 0.90056 0.0
C498 C 0.29577 0.14916 0.92953 0.0
C499 C 0.28351 0.14203 0.93915 0.0
C500 C 0.28501 0.14838 0.95472 0.0
C501 C 0.29884 0.16198 0.96093 0.0
C502 C 0.31115 0.16901 0.95125 0.0
C503 C 0.30964 0.16261 0.93571 0.0
C504 C 0.29647 0.12095 0.92308 0.0
C505 C 0.28532 0.1059 0.92704 0.0
C506 C 0.28919 0.09823 0.93755 0.0
C507 C 0.30428 0.10552 0.94421 0.0
C508 C 0.31516 0.12096 0.94084 0.0
C509 C 0.31128 0.12859 0.93037 0.0
C510 C 0.2919 0.10689 0.89099 0.0
C511 C 0.27854 0.09289 0.88479 0.0
C512 C 0.27842 0.07893 0.88207 0.0
C513 C 0.29169 0.07875 0.88553 0.0
C514 C 0.30509 0.09287 0.89162 0.0
C515 C 0.30521 0.10682 0.89424 0.0
C516 C 0.29141 0.12379 0.865 0.0
C517 C 0.27873 0.11792 0.85414 0.0
C518 C 0.27898 0.11217 0.83876 0.0
C519 C 0.29195 0.11225 0.83405 0.0
C520 C 0.30463 0.11827 0.84502 0.0
C521 C 0.30439 0.12407 0.86028 0.0
C522 C 0.29271 0.15335 0.87124 0.0
C523 C 0.2809 0.15597 0.8682 0.0
C524 C 0.28202 0.16564 0.85654 0.0
C525 C 0.29502 0.17292 0.84783 0.0
C526 C 0.30667 0.16998 0.85073 0.0
C527 C 0.30554 0.16032 0.86235 0.0
C528 C 0.30037 0.16874 0.97745 0.0
C529 C 0.29159 0.06394 0.88285 0.0
H530 H 0.86039 0.17126 0.00699 0.0
H531 H 0.74698 0.02922 0.87881 0.0
H532 H 0.84577 0.16628 0.90734 0.0
H533 H 0.86626 0.19308 0.91713 0.0
H534 H 0.89198 0.17471 0.9366 0.0
H535 H 0.87141 0.14781 0.92656 0.0
H536 H 0.83704 0.156 0.94067 0.0
H537 H 0.84627 0.16611 0.96827 0.0
H538 H 0.85336 0.12788 0.9737 0.0
H539 H 0.8443 0.11802 0.94599 0.0
H540 H 0.80767 0.12796 0.93954 0.0
H541 H 0.78983 0.11515 0.95974 0.0
H542 H 0.79149 0.07334 0.94992 0.0
H543 H 0.80995 0.08652 0.93004 0.0
H544 H 0.7871 0.10474 0.90864 0.0
H545 H 0.76241 0.08018 0.90188 0.0
H546 H 0.78563 0.05755 0.88435 0.0
H547 H 0.81025 0.08215 0.89134 0.0
H548 H 0.8003 0.11778 0.87841 0.0
H549 H 0.78998 0.10914 0.85095 0.0
H550 H 0.82497 0.09926 0.84128 0.0
H551 H 0.83523 0.1079 0.86898 0.0
H552 H 0.83198 0.1485 0.8757 0.0
H553 H 0.8479 0.1648 0.85558 0.0
H554 H 0.88249 0.15521 0.86903 0.0
H555 H 0.86628 0.13857 0.88885 0.0
O556 O 0.85681 0.16707 0.9961 0.0
O557 O 0.86013 0.14712 0.99831 0.0
O558 O 0.7452 0.05121 0.89093 0.0
O559 O 0.75658 0.03907 0.88166 0.0
C560 C 0.84362 0.13893 0.91227 0.0
C561 C 0.83473 0.13031 0.92447 0.0
C562 C 0.82052 0.11603 0.92068 0.0
C563 C 0.81545 0.11011 0.90468 0.0
C564 C 0.82448 0.11862 0.89249 0.0
C565 C 0.8386 0.13299 0.89631 0.0
C566 C 0.85713 0.15513 0.91625 0.0
C567 C 0.85598 0.16807 0.9134 0.0
C568 C 0.86761 0.18333 0.91911 0.0
C569 C 0.88061 0.18592 0.92775 0.0
C570 C 0.8821 0.17302 0.9299 0.0
C571 C 0.87039 0.1577 0.92422 0.0
C572 C 0.84017 0.13638 0.94129 0.0
C573 C 0.84071 0.14991 0.94781 0.0
C574 C 0.84593 0.15561 0.96359 0.0
C575 C 0.85059 0.14782 0.97318 0.0
C576 C 0.84988 0.13418 0.96663 0.0
C577 C 0.84471 0.12851 0.95082 0.0
C578 C 0.81025 0.10824 0.93342 0.0
C579 C 0.8045 0.11618 0.942 0.0
C580 C 0.7943 0.10886 0.9535 0.0
C581 C 0.7894 0.09332 0.95642 0.0
C582 C 0.79515 0.08535 0.94787 0.0
C583 C 0.80564 0.09283 0.93655 0.0
C584 C 0.80045 0.09518 0.9006 0.0
C585 C 0.78682 0.09443 0.90344 0.0
C586 C 0.77274 0.08041 0.89952 0.0
C587 C 0.77205 0.06688 0.89259 0.0
C588 C 0.78575 0.06773 0.88968 0.0
C589 C 0.79982 0.08176 0.89365 0.0
C590 C 0.8184 0.11328 0.87573 0.0
C591 C 0.80565 0.1136 0.87041 0.0
C592 C 0.79977 0.10865 0.85473 0.0
C593 C 0.80659 0.1034 0.844 0.0
C594 C 0.81952 0.10331 0.84928 0.0
C595 C 0.82535 0.10817 0.86506 0.0
C596 C 0.84794 0.14228 0.88363 0.0
C597 C 0.84291 0.14976 0.87413 0.0
C598 C 0.85207 0.15918 0.86277 0.0
C599 C 0.86648 0.16134 0.86076 0.0
C600 C 0.87139 0.15364 0.87017 0.0
C601 C 0.8622 0.14421 0.88154 0.0
C602 C 0.85613 0.15393 0.98995 0.0
C603 C 0.75711 0.05196 0.88837 0.0
H604 H 0.87638 0.71533 0.02554 0.0
H605 H 0.75825 0.70058 0.90204 0.0
H606 H 0.88873 0.72751 0.93968 0.0
H607 H 0.9063 0.72024 0.95014 0.0
H608 H 0.87305 0.67123 0.935 0.0
H609 H 0.8557 0.67855 0.92448 0.0
H610 H 0.86423 0.73086 0.96404 0.0
H611 H 0.8711 0.72902 0.99121 0.0
H612 H 0.85207 0.67903 0.98014 0.0
H613 H 0.84508 0.68102 0.95309 0.0
H614 H 0.8314 0.72947 0.95167 0.0
H615 H 0.81135 0.72321 0.96993 0.0
H616 H 0.79915 0.67466 0.96642 0.0
H617 H 0.81905 0.68099 0.94829 0.0
H618 H 0.83372 0.73691 0.91667 0.0
H619 H 0.81129 0.73827 0.91027 0.0
H620 H 0.78233 0.68759 0.91075 0.0
H621 H 0.80487 0.68641 0.91705 0.0
H622 H 0.85035 0.73583 0.89214 0.0
H623 H 0.84057 0.73477 0.86515 0.0
H624 H 0.81602 0.68376 0.86165 0.0
H625 H 0.82545 0.68499 0.88867 0.0
H626 H 0.87877 0.73301 0.89813 0.0
H627 H 0.89023 0.731 0.87391 0.0
H628 H 0.86266 0.68008 0.87239 0.0
H629 H 0.85105 0.68225 0.89631 0.0
O630 O 0.87349 0.71577 0.01477 0.0
O631 O 0.86366 0.69015 0.00844 0.0
O632 O 0.7827 0.7264 0.90441 0.0
O633 O 0.76731 0.70039 0.90455 0.0
C634 C 0.85926 0.70724 0.92779 0.0
C635 C 0.85044 0.70747 0.94009 0.0
C636 C 0.8378 0.70881 0.93668 0.0
C637 C 0.83449 0.71081 0.92113 0.0
C638 C 0.84346 0.71086 0.90891 0.0
C639 C 0.85576 0.70893 0.91221 0.0
C640 C 0.87104 0.70356 0.9312 0.0
C641 C 0.88548 0.71529 0.93821 0.0
C642 C 0.89544 0.71113 0.9442 0.0
C643 C 0.89091 0.69518 0.94345 0.0
C644 C 0.87673 0.68359 0.93578 0.0
C645 C 0.86691 0.68776 0.92962 0.0
C646 C 0.85432 0.70612 0.95659 0.0
C647 C 0.86154 0.71953 0.96753 0.0
C648 C 0.86547 0.71844 0.98303 0.0
C649 C 0.86219 0.70389 0.98784 0.0
C650 C 0.85481 0.69043 0.97682 0.0
C651 C 0.85086 0.69154 0.96135 0.0
C652 C 0.82674 0.70571 0.94879 0.0
C653 C 0.82449 0.71755 0.95504 0.0
C654 C 0.81303 0.71394 0.96539 0.0
C655 C 0.80372 0.69845 0.96967 0.0
C656 C 0.8063 0.68675 0.96362 0.0
C657 C 0.81765 0.69034 0.95324 0.0
C658 C 0.82087 0.71158 0.91733 0.0
C659 C 0.82251 0.72613 0.91536 0.0
C660 C 0.80969 0.72687 0.91173 0.0
C661 C 0.795 0.71303 0.91001 0.0
C662 C 0.79345 0.69846 0.912 0.0
C663 C 0.80629 0.69775 0.91561 0.0
C664 C 0.8385 0.71049 0.8923 0.0
C665 C 0.84291 0.72447 0.88545 0.0
C666 C 0.8374 0.72383 0.87004 0.0
C667 C 0.82742 0.70917 0.86131 0.0
C668 C 0.82345 0.69522 0.86814 0.0
C669 C 0.82889 0.69589 0.88352 0.0
C670 C 0.86427 0.70778 0.89904 0.0
C671 C 0.87546 0.72146 0.89269 0.0
C672 C 0.88197 0.72028 0.87888 0.0
C673 C 0.87727 0.70538 0.87119 0.0
C674 C 0.86637 0.69172 0.87792 0.0
C675 C 0.85989 0.69292 0.8917 0.0
C676 C 0.86646 0.70279 0.00428 0.0
C677 C 0.78135 0.71374 0.90615 0.0
H678 H 0.83247 0.66755 0.37884 0.0
H679 H 0.89261 0.61346 0.50932 0.0
H680 H 0.81685 0.66369 0.46281 0.0
H681 H 0.79928 0.67007 0.45103 0.0
H682 H 0.76302 0.62079 0.44802 0.0
H683 H 0.78078 0.61454 0.46005 0.0
H684 H 0.84243 0.66415 0.44607 0.0
H685 H 0.84203 0.67004 0.41868 0.0
H686 H 0.80226 0.62312 0.40683 0.0
H687 H 0.8029 0.61732 0.43423 0.0
H688 H 0.86407 0.66052 0.47007 0.0
H689 H 0.88557 0.66703 0.45413 0.0
H690 H 0.85649 0.62501 0.42245 0.0
H691 H 0.83496 0.61839 0.4387 0.0
H692 H 0.85802 0.65331 0.50319 0.0
H693 H 0.87837 0.65103 0.51526 0.0
H694 H 0.86155 0.60715 0.48616 0.0
H695 H 0.84112 0.60947 0.47434 0.0
H696 H 0.82789 0.65259 0.51426 0.0
H697 H 0.8322 0.65256 0.54249 0.0
H698 H 0.82883 0.60778 0.53402 0.0
H699 H 0.82296 0.60723 0.50587 0.0
H700 H 0.80606 0.65408 0.49571 0.0
H701 H 0.79011 0.65202 0.51716 0.0
H702 H 0.77348 0.60234 0.51701 0.0
H703 H 0.78984 0.60467 0.49579 0.0
O704 O 0.83246 0.66495 0.38959 0.0
O705 O 0.81197 0.64073 0.38413 0.0
O706 O 0.89289 0.63729 0.51939 0.0
O707 O 0.88477 0.61474 0.50462 0.0
C708 C 0.81129 0.63502 0.46829 0.0
C709 C 0.82295 0.63672 0.45875 0.0
C710 C 0.83496 0.63549 0.46518 0.0
C711 C 0.83527 0.63251 0.48115 0.0
C712 C 0.82358 0.63077 0.49067 0.0
C713 C 0.81137 0.63161 0.48409 0.0
C714 C 0.80009 0.63865 0.46215 0.0
C715 C 0.80509 0.65429 0.45966 0.0
C716 C 0.79506 0.65788 0.45286 0.0
C717 C 0.77981 0.6459 0.44842 0.0
C718 C 0.77469 0.63027 0.45138 0.0
C719 C 0.78479 0.62667 0.4582 0.0
C720 C 0.82277 0.64027 0.44209 0.0
C721 C 0.83371 0.65513 0.43751 0.0
C722 C 0.83342 0.65848 0.42187 0.0
C723 C 0.82212 0.64704 0.41055 0.0
C724 C 0.81113 0.63218 0.41523 0.0
C725 C 0.81146 0.62884 0.43087 0.0
C726 C 0.848 0.6389 0.45564 0.0
C727 C 0.86238 0.65258 0.45984 0.0
C728 C 0.87464 0.65629 0.45072 0.0
C729 C 0.8727 0.64648 0.4371 0.0
C730 C 0.85826 0.6328 0.43285 0.0
C731 C 0.84601 0.62898 0.44212 0.0
C732 C 0.84803 0.63149 0.48798 0.0
C733 C 0.85874 0.6432 0.49946 0.0
C734 C 0.87036 0.64189 0.50632 0.0
C735 C 0.87155 0.62887 0.50172 0.0
C736 C 0.86094 0.6173 0.49001 0.0
C737 C 0.84929 0.61861 0.4832 0.0
C738 C 0.82503 0.62988 0.50798 0.0
C739 C 0.82758 0.64252 0.51856 0.0
C740 C 0.83031 0.6426 0.5347 0.0
C741 C 0.83114 0.6303 0.5406 0.0
C742 C 0.82811 0.61738 0.53 0.0
C743 C 0.82493 0.61711 0.51386 0.0
C744 C 0.79911 0.62953 0.49423 0.0
C745 C 0.79859 0.64264 0.49995 0.0
C746 C 0.78947 0.64143 0.51226 0.0
C747 C 0.78065 0.62704 0.51896 0.0
C748 C 0.78036 0.61366 0.51233 0.0
C749 C 0.78956 0.61491 0.5001 0.0
C750 C 0.82182 0.65065 0.39396 0.0
C751 C 0.88374 0.62729 0.50913 0.0
H752 H 0.34128 0.17707 0.39726 0.0
H753 H 0.39406 0.29421 0.54526 0.0
H754 H 0.34438 0.16301 0.47792 0.0
H755 H 0.33936 0.13804 0.46504 0.0
H756 H 0.38604 0.15248 0.47715 0.0
H757 H 0.39113 0.17776 0.48974 0.0
H758 H 0.3429 0.18873 0.46582 0.0
H759 H 0.33788 0.18292 0.43713 0.0
H760 H 0.3836 0.19274 0.43318 0.0
H761 H 0.38853 0.1987 0.46188 0.0
H762 H 0.345 0.21261 0.49416 0.0
H763 H 0.33725 0.22795 0.48011 0.0
H764 H 0.37699 0.24559 0.45315 0.0
H765 H 0.38495 0.23039 0.46763 0.0
H766 H 0.35366 0.21613 0.52695 0.0
H767 H 0.35657 0.23955 0.54149 0.0
H768 H 0.39892 0.26895 0.51997 0.0
H769 H 0.39598 0.24537 0.50569 0.0
H770 H 0.35448 0.18717 0.53684 0.0
H771 H 0.35405 0.19513 0.56448 0.0
H772 H 0.39891 0.23706 0.5627 0.0
H773 H 0.39953 0.22857 0.53523 0.0
H774 H 0.3512 0.16099 0.51367 0.0
H775 H 0.35218 0.14298 0.53089 0.0
H776 H 0.39997 0.17752 0.54362 0.0
H777 H 0.39885 0.19551 0.52632 0.0
O778 O 0.34353 0.17949 0.40858 0.0
O779 O 0.36712 0.18458 0.40721 0.0
O780 O 0.37059 0.26915 0.55006 0.0
O781 O 0.39247 0.28479 0.53941 0.0
C782 C 0.37096 0.1874 0.49237 0.0
C783 C 0.36919 0.19774 0.48334 0.0
C784 C 0.37007 0.21119 0.49096 0.0
C785 C 0.3735 0.21473 0.50745 0.0
C786 C 0.37544 0.20451 0.51648 0.0
C787 C 0.37405 0.19077 0.50896 0.0
C788 C 0.36817 0.1723 0.48458 0.0
C789 C 0.35359 0.16091 0.4776 0.0
C790 C 0.35074 0.14666 0.47027 0.0
C791 C 0.36235 0.14341 0.47002 0.0
C792 C 0.3769 0.15471 0.47722 0.0
C793 C 0.37982 0.16912 0.48437 0.0
C794 C 0.36612 0.19428 0.46591 0.0
C795 C 0.35185 0.18975 0.45872 0.0
C796 C 0.349 0.18637 0.44233 0.0
C797 C 0.36035 0.18739 0.43285 0.0
C798 C 0.37462 0.19186 0.44013 0.0
C799 C 0.37747 0.19527 0.45651 0.0
C800 C 0.36564 0.22055 0.48207 0.0
C801 C 0.35215 0.21993 0.48536 0.0
C802 C 0.34773 0.22867 0.47733 0.0
C803 C 0.35661 0.23804 0.46567 0.0
C804 C 0.36997 0.23843 0.4621 0.0
C805 C 0.37452 0.22982 0.47035 0.0
C806 C 0.37469 0.22905 0.5154 0.0
C807 C 0.36355 0.22764 0.5254 0.0
C808 C 0.36524 0.24104 0.53367 0.0
C809 C 0.37803 0.25613 0.53196 0.0
C810 C 0.38897 0.25751 0.52161 0.0
C811 C 0.38729 0.24408 0.51339 0.0
C812 C 0.37699 0.20734 0.534 0.0
C813 C 0.36447 0.19773 0.54261 0.0
C814 C 0.36416 0.20243 0.55833 0.0
C815 C 0.37631 0.21691 0.56567 0.0
C816 C 0.3894 0.22583 0.55742 0.0
C817 C 0.38976 0.22102 0.54171 0.0
C818 C 0.37498 0.17951 0.51867 0.0
C819 C 0.36194 0.16456 0.51998 0.0
C820 C 0.36253 0.15429 0.5298 0.0
C821 C 0.37617 0.15882 0.53859 0.0
C822 C 0.38927 0.17375 0.5371 0.0
C823 C 0.38868 0.184 0.5272 0.0
C824 C 0.35727 0.18375 0.41545 0.0
C825 C 0.38007 0.27037 0.54102 0.0
H826 H 0.8074 0.17994 0.38143 0.0
H827 H 0.94015 0.2894 0.50018 0.0
H828 H 0.80163 0.18955 0.4656 0.0
H829 H 0.77862 0.16369 0.45723 0.0
H830 H 0.80081 0.14092 0.4752 0.0
H831 H 0.82338 0.16668 0.48386 0.0
H832 H 0.82998 0.21553 0.44377 0.0
H833 H 0.82026 0.20435 0.41645 0.0
H834 H 0.82383 0.16442 0.42503 0.0
H835 H 0.83377 0.17585 0.45221 0.0
H836 H 0.8656 0.24565 0.4585 0.0
H837 H 0.88711 0.25723 0.44164 0.0
H838 H 0.88526 0.21309 0.43704 0.0
H839 H 0.86437 0.20194 0.45441 0.0
H840 H 0.86414 0.25232 0.49714 0.0
H841 H 0.88932 0.2765 0.50317 0.0
H842 H 0.91068 0.25076 0.48968 0.0
H843 H 0.88546 0.22665 0.48391 0.0
H844 H 0.8381 0.22771 0.52103 0.0
H845 H 0.84796 0.23662 0.5488 0.0
H846 H 0.88179 0.22464 0.54097 0.0
H847 H 0.87186 0.21573 0.51343 0.0
H848 H 0.80658 0.19646 0.50367 0.0
H849 H 0.79093 0.17989 0.52389 0.0
H850 H 0.82554 0.16974 0.53536 0.0
H851 H 0.8408 0.18588 0.51487 0.0
O852 O 0.81142 0.18423 0.39221 0.0
O853 O 0.81321 0.16382 0.39734 0.0
O854 O 0.91852 0.2926 0.50518 0.0
O855 O 0.93006 0.27999 0.49803 0.0
C856 C 0.82859 0.1954 0.47905 0.0
C857 C 0.83787 0.20306 0.4667 0.0
C858 C 0.85255 0.21676 0.47025 0.0
C859 C 0.85765 0.22323 0.48613 0.0
C860 C 0.84836 0.21554 0.49847 0.0
C861 C 0.83389 0.20152 0.49494 0.0
C862 C 0.81409 0.17993 0.47538 0.0
C863 C 0.80133 0.17893 0.46795 0.0
C864 C 0.78827 0.16416 0.46309 0.0
C865 C 0.78785 0.1502 0.46552 0.0
C866 C 0.80057 0.15136 0.47341 0.0
C867 C 0.81353 0.16608 0.47832 0.0
C868 C 0.83242 0.19642 0.45 0.0
C869 C 0.82871 0.2044 0.43969 0.0
C870 C 0.82313 0.19797 0.42411 0.0
C871 C 0.82119 0.18344 0.41857 0.0
C872 C 0.82512 0.17559 0.42892 0.0
C873 C 0.83075 0.18206 0.44447 0.0
C874 C 0.86345 0.22297 0.45771 0.0
C875 C 0.8697 0.23844 0.45361 0.0
C876 C 0.88194 0.245 0.44394 0.0
C877 C 0.88801 0.23613 0.43818 0.0
C878 C 0.88104 0.22033 0.44154 0.0
C879 C 0.86895 0.21386 0.45128 0.0
C880 C 0.87299 0.23779 0.48995 0.0
C881 C 0.87428 0.25194 0.49553 0.0
C882 C 0.88867 0.26573 0.49895 0.0
C883 C 0.90202 0.26558 0.49684 0.0
C884 C 0.90065 0.25131 0.49138 0.0
C885 C 0.88626 0.23753 0.48803 0.0
C886 C 0.85441 0.22129 0.51519 0.0
C887 C 0.84767 0.22708 0.52535 0.0
C888 C 0.85326 0.23208 0.54118 0.0
C889 C 0.86572 0.23144 0.547 0.0
C890 C 0.87237 0.22556 0.53676 0.0
C891 C 0.86672 0.22048 0.52103 0.0
C892 C 0.82484 0.19242 0.50788 0.0
C893 C 0.81077 0.19071 0.51063 0.0
C894 C 0.80191 0.18132 0.52222 0.0
C895 C 0.80697 0.17345 0.53117 0.0
C896 C 0.82121 0.17546 0.52851 0.0
C897 C 0.83002 0.1848 0.51694 0.0
C898 C 0.81505 0.17653 0.40209 0.0
C899 C 0.91733 0.28022 0.50029 0.0
H900 H 0.99931 0.51107 0.33625 0.0
H901 H 0.00917 0.41172 0.20073 0.0
H902 H 0.97237 0.50379 0.25557 0.0
H903 H 0.97478 0.52818 0.26696 0.0
H904 H 0.01579 0.55555 0.24271 0.0
H905 H 0.0133 0.53116 0.23145 0.0
H906 H 0.97768 0.47903 0.27236 0.0
H907 H 0.98282 0.48863 0.30043 0.0
H908 H 0.02548 0.52996 0.29024 0.0
H909 H 0.02027 0.52012 0.26223 0.0
H910 H 0.97731 0.45036 0.25267 0.0
H911 H 0.98501 0.43594 0.26857 0.0
H912 H 0.03123 0.47666 0.274 0.0
H913 H 0.02338 0.49098 0.25821 0.0
H914 H 0.9691 0.44519 0.21512 0.0
H915 H 0.96989 0.42208 0.20564 0.0
H916 H 0.0188 0.44885 0.21645 0.0
H917 H 0.01786 0.47191 0.22572 0.0
H918 H 0.96381 0.4681 0.19618 0.0
H919 H 0.96034 0.45712 0.16862 0.0
H920 H 0.00833 0.4735 0.16992 0.0
H921 H 0.0117 0.48482 0.19712 0.0
H922 H 0.964 0.49685 0.21611 0.0
H923 H 0.95915 0.51057 0.19625 0.0
H924 H 0.0043 0.52826 0.18033 0.0
H925 H 0.00881 0.51418 0.1999 0.0
O926 O 0.99753 0.50746 0.3251 0.0
O927 O 0.0193 0.52852 0.31922 0.0
O928 O 0.98324 0.40711 0.20015 0.0
O929 O 0.00853 0.42068 0.2044 0.0
C930 C 0.99219 0.50114 0.23721 0.0
C931 C 0.99532 0.49309 0.24823 0.0
C932 C 0.99565 0.47964 0.24298 0.0
C933 C 0.99287 0.47422 0.22675 0.0
C934 C 0.98989 0.48235 0.21573 0.0
C935 C 0.98948 0.49576 0.22096 0.0
C936 C 0.99264 0.51573 0.24267 0.0
C937 C 0.98175 0.51507 0.25259 0.0
C938 C 0.9832 0.52898 0.25913 0.0
C939 C 0.99551 0.54377 0.25577 0.0
C940 C 0.00608 0.54434 0.24537 0.0
C941 C 0.00468 0.53044 0.23893 0.0
C942 C 0.99856 0.49891 0.26527 0.0
C943 C 0.98814 0.49013 0.27623 0.0
C944 C 0.9911 0.49566 0.29225 0.0
C945 C 0.00455 0.51008 0.29758 0.0
C946 C 0.015 0.51882 0.28653 0.0
C947 C 0.01204 0.51325 0.27053 0.0
C948 C -0.0002 0.47167 0.25429 0.0
C949 C 0.98903 0.45621 0.25752 0.0
C950 C 0.99347 0.44799 0.26651 0.0
C951 C 0.00876 0.45513 0.27243 0.0
C952 C 0.01935 0.47089 0.26975 0.0
C953 C 0.0149 0.47909 0.26073 0.0
C954 C 0.9934 0.46018 0.22117 0.0
C955 C 0.97996 0.44602 0.21542 0.0
C956 C 0.98046 0.43285 0.21003 0.0
C957 C 0.99442 0.43361 0.21032 0.0
C958 C 0.00787 0.44785 0.21608 0.0
C959 C 0.00736 0.46102 0.22143 0.0
C960 C 0.98798 0.47716 0.19862 0.0
C961 C 0.97359 0.46954 0.19036 0.0
C962 C 0.97162 0.46319 0.17468 0.0
C963 C 0.98405 0.46438 0.16707 0.0
C964 C 0.99856 0.47257 0.17529 0.0
C965 C 0.0005 0.47894 0.19089 0.0
C966 C 0.9867 0.50446 0.20932 0.0
C967 C 0.97281 0.50372 0.20831 0.0
C968 C 0.97011 0.51162 0.19703 0.0
C969 C 0.9813 0.52043 0.18662 0.0
C970 C 0.99531 0.52132 0.18792 0.0
C971 C 0.99796 0.51337 0.19914 0.0
C972 C 0.00763 0.51596 0.31459 0.0
C973 C 0.995 0.41964 0.20463 0.0
H974 H 0.49459 0.49177 0.34151 0.0
H975 H 0.41112 0.36282 0.20734 0.0
H976 H 0.50076 0.49846 0.25808 0.0
H977 H 0.52135 0.52508 0.2678 0.0
H978 H 0.55448 0.51283 0.25667 0.0
H979 H 0.53359 0.48581 0.24751 0.0
H980 H 0.47668 0.4746 0.27388 0.0
H981 H 0.48076 0.48267 0.30226 0.0
H982 H 0.51711 0.47361 0.30535 0.0
H983 H 0.51277 0.46538 0.27696 0.0
H984 H 0.45183 0.44892 0.24799 0.0
H985 H 0.43132 0.43758 0.26578 0.0
H986 H 0.456 0.42218 0.29304 0.0
H987 H 0.47639 0.43318 0.27469 0.0
H988 H 0.4523 0.44166 0.21532 0.0
H989 H 0.42937 0.41685 0.2045 0.0
H990 H 0.44594 0.39081 0.22695 0.0
H991 H 0.46891 0.41572 0.23754 0.0
H992 H 0.47971 0.47043 0.20362 0.0
H993 H 0.47103 0.46302 0.1756 0.0
H994 H 0.47792 0.42422 0.17607 0.0
H995 H 0.48671 0.4318 0.20425 0.0
H996 H 0.507 0.49879 0.22351 0.0
H997 H 0.52523 0.51657 0.20591 0.0
H998 H 0.53614 0.4816 0.19201 0.0
H999 H 0.51862 0.46435 0.21064 0.0
O1000 O 0.49312 0.48846 0.33031 0.0
O1001 O 0.51174 0.48366 0.33125 0.0
O1002 O 0.41211 0.38675 0.20011 0.0
O1003 O 0.42008 0.37281 0.21146 0.0
C1004 C 0.50288 0.47419 0.24594 0.0
C1005 C 0.49189 0.46436 0.25614 0.0
C1006 C 0.47845 0.45022 0.24987 0.0
C1007 C 0.47637 0.44551 0.2335 0.0
C1008 C 0.48736 0.45532 0.22328 0.0
C1009 C 0.50063 0.46967 0.22948 0.0
C1010 C 0.51568 0.49016 0.25226 0.0
C1011 C 0.51245 0.50144 0.25797 0.0
C1012 C 0.52425 0.51672 0.2633 0.0
C1013 C 0.53957 0.52113 0.26286 0.0
C1014 C 0.5428 0.50976 0.25725 0.0
C1015 C 0.53092 0.49437 0.25198 0.0
C1016 C 0.49431 0.46923 0.2734 0.0
C1017 C 0.48542 0.47423 0.28073 0.0
C1018 C 0.48782 0.4789 0.29694 0.0
C1019 C 0.49924 0.47875 0.30609 0.0
C1020 C 0.5082 0.47383 0.29866 0.0
C1021 C 0.50575 0.46913 0.28245 0.0
C1022 C 0.46554 0.44178 0.25999 0.0
C1023 C 0.45268 0.44281 0.2576 0.0
C1024 C 0.44108 0.43653 0.26792 0.0
C1025 C 0.44216 0.4292 0.28096 0.0
C1026 C 0.45485 0.42773 0.28308 0.0
C1027 C 0.46648 0.434 0.27265 0.0
C1028 C 0.46234 0.43047 0.22705 0.0
C1029 C 0.45101 0.43058 0.21778 0.0
C1030 C 0.4379 0.4164 0.21167 0.0
C1031 C 0.43584 0.40183 0.21482 0.0
C1032 C 0.44718 0.4018 0.22426 0.0
C1033 C 0.4603 0.416 0.23033 0.0
C1034 C 0.48385 0.45166 0.20593 0.0
C1035 C 0.47961 0.46051 0.19761 0.0
C1036 C 0.47456 0.45619 0.18167 0.0
C1037 C 0.47371 0.44298 0.17375 0.0
C1038 C 0.47855 0.4345 0.18192 0.0
C1039 C 0.48352 0.43877 0.19796 0.0
C1040 C 0.51166 0.48038 0.21856 0.0
C1041 C 0.51353 0.49509 0.21687 0.0
C1042 C 0.52381 0.50514 0.20659 0.0
C1043 C 0.53216 0.50054 0.19742 0.0
C1044 C 0.53012 0.48568 0.19904 0.0
C1045 C 0.52002 0.47573 0.20957 0.0
C1046 C 0.50179 0.48376 0.3233 0.0
C1047 C 0.42195 0.38672 0.20833 0.0
H1048 H 0.51409 0.00627 0.35135 0.0
H1049 H 0.40502 0.991 0.21596 0.0
H1050 H 0.53314 0.0266 0.27187 0.0
H1051 H 0.55261 0.02233 0.28283 0.0
H1052 H 0.53031 0.97661 0.25584 0.0
H1053 H 0.5111 0.98112 0.24483 0.0
H1054 H 0.50465 0.0245 0.29026 0.0
H1055 H 0.50939 0.02114 0.31762 0.0
H1056 H 0.50043 0.97477 0.30259 0.0
H1057 H 0.49552 0.9782 0.27533 0.0
H1058 H 0.47595 0.02431 0.27159 0.0
H1059 H 0.45519 0.01836 0.2887 0.0
H1060 H 0.44544 0.97098 0.29034 0.0
H1061 H 0.46598 0.9769 0.27301 0.0
H1062 H 0.4798 0.03136 0.23676 0.0
H1063 H 0.45713 0.03095 0.22711 0.0
H1064 H 0.42972 0.98051 0.2301 0.0
H1065 H 0.45254 0.98107 0.23954 0.0
H1066 H 0.50385 0.03525 0.21815 0.0
H1067 H 0.49542 0.03809 0.1921 0.0
H1068 H 0.4653 0.98731 0.18403 0.0
H1069 H 0.47335 0.98474 0.21032 0.0
H1070 H 0.53286 0.03341 0.23239 0.0
H1071 H 0.54903 0.03613 0.21072 0.0
H1072 H 0.51695 0.98728 0.19349 0.0
H1073 H 0.50078 0.98485 0.21493 0.0
O1074 O 0.51208 0.00732 0.34047 0.0
O1075 O 0.50746 0.9836 0.33212 0.0
O1076 O 0.42879 0.01742 0.21834 0.0
O1077 O 0.41413 0.99152 0.21991 0.0
C1078 C 0.50767 0.00558 0.25294 0.0
C1079 C 0.4972 0.00387 0.26422 0.0
C1080 C 0.48413 0.00414 0.25966 0.0
C1081 C 0.48171 0.00644 0.24391 0.0
C1082 C 0.49222 0.00824 0.23272 0.0
C1083 C 0.50513 0.00772 0.23719 0.0
C1084 C 0.52076 0.00419 0.25755 0.0
C1085 C 0.5327 0.01583 0.2681 0.0
C1086 C 0.5437 0.0133 0.27443 0.0
C1087 C 0.54293 0.99906 0.27032 0.0
C1088 C 0.53135 0.98777 0.25913 0.0
C1089 C 0.52036 0.99032 0.25281 0.0
C1090 C 0.49984 0.00164 0.28082 0.0
C1091 C 0.50367 0.01361 0.29293 0.0
C1092 C 0.5064 0.01167 0.30853 0.0
C1093 C 0.50533 0.9977 0.31229 0.0
C1094 C 0.50139 0.98568 0.3001 0.0
C1095 C 0.49862 0.98763 0.28452 0.0
C1096 C 0.47246 0.00104 0.27107 0.0
C1097 C 0.46937 0.01268 0.27572 0.0
C1098 C 0.45753 0.00926 0.28544 0.0
C1099 C 0.44873 0.99421 0.29082 0.0
C1100 C 0.45216 0.98273 0.28651 0.0
C1101 C 0.46386 0.98609 0.27664 0.0
C1102 C 0.46779 0.00625 0.23883 0.0
C1103 C 0.46888 0.02025 0.23533 0.0
C1104 C 0.45592 0.01998 0.22983 0.0
C1105 C 0.4416 0.00568 0.2278 0.0
C1106 C 0.44055 0.99171 0.23151 0.0
C1107 C 0.45355 0.992 0.23696 0.0
C1108 C 0.4891 0.00981 0.21608 0.0
C1109 C 0.49562 0.02477 0.2106 0.0
C1110 C 0.49083 0.02634 0.1957 0.0
C1111 C 0.47953 0.01293 0.18604 0.0
C1112 C 0.47375 0.9979 0.19129 0.0
C1113 C 0.47843 0.99637 0.20623 0.0
C1114 C 0.51567 0.00896 0.22513 0.0
C1115 C 0.52946 0.02329 0.224 0.0
C1116 C 0.53868 0.02479 0.21166 0.0
C1117 C 0.5342 0.01196 0.20029 0.0
C1118 C 0.52058 0.99748 0.20186 0.0
C1119 C 0.51139 0.99601 0.21414 0.0
C1120 C 0.50834 0.99572 0.32886 0.0
C1121 C 0.42783 0.0053 0.22174 0.0
H1122 H 0.50048 0.03878 0.72866 0.0
H1123 H 0.58097 0.97773 0.82629 0.0
H1124 H 0.49481 0.02507 0.81185 0.0
H1125 H 0.47494 0.0292 0.80212 0.0
H1126 H 0.44307 0.97865 0.79528 0.0
H1127 H 0.46322 0.97466 0.80485 0.0
H1128 H 0.51965 0.02976 0.79026 0.0
H1129 H 0.51529 0.03808 0.76532 0.0
H1130 H 0.47781 0.99026 0.75144 0.0
H1131 H 0.48241 0.98208 0.77637 0.0
H1132 H 0.54389 0.02644 0.8036 0.0
H1133 H 0.56317 0.03344 0.78446 0.0
H1134 H 0.53389 0.9878 0.75803 0.0
H1135 H 0.51442 0.98127 0.77695 0.0
H1136 H 0.5435 0.01443 0.83809 0.0
H1137 H 0.56582 0.01275 0.84395 0.0
H1138 H 0.54641 0.9708 0.81107 0.0
H1139 H 0.52409 0.97253 0.80547 0.0
H1140 H 0.51656 0.00877 0.85803 0.0
H1141 H 0.52483 0.00337 0.8827 0.0
H1142 H 0.51403 0.95821 0.86058 0.0
H1143 H 0.50593 0.96382 0.83591 0.0
H1144 H 0.49118 0.01383 0.84352 0.0
H1145 H 0.47447 0.00914 0.86502 0.0
H1146 H 0.45865 0.95953 0.85946 0.0
H1147 H 0.47548 0.96437 0.83794 0.0
O1148 O 0.50214 0.03519 0.73835 0.0
O1149 O 0.48307 0.01039 0.7317 0.0
O1150 O 0.58173 0.00025 0.84101 0.0
O1151 O 0.57229 0.97869 0.82418 0.0
C1152 C 0.49323 0.99731 0.81214 0.0
C1153 C 0.50368 0.00044 0.80044 0.0
C1154 C 0.51639 0.99916 0.80348 0.0
C1155 C 0.51855 0.99449 0.81809 0.0
C1156 C 0.50796 0.99107 0.82969 0.0
C1157 C 0.49529 0.99252 0.82674 0.0
C1158 C 0.48043 0.99958 0.80901 0.0
C1159 C 0.48344 0.01491 0.80858 0.0
C1160 C 0.47206 0.01723 0.80306 0.0
C1161 C 0.45745 0.00424 0.79787 0.0
C1162 C 0.45427 0.98888 0.79905 0.0
C1163 C 0.46568 0.98657 0.80463 0.0
C1164 C 0.50139 0.00532 0.78505 0.0
C1165 C 0.51061 0.02108 0.78174 0.0
C1166 C 0.50804 0.02581 0.76752 0.0
C1167 C 0.49619 0.01483 0.75639 0.0
C1168 C 0.48703 0.99901 0.75975 0.0
C1169 C 0.48963 0.9943 0.77396 0.0
C1170 C 0.52784 0.00336 0.79162 0.0
C1171 C 0.54165 0.01803 0.7936 0.0
C1172 C 0.55268 0.02193 0.78271 0.0
C1173 C 0.55016 0.01114 0.76973 0.0
C1174 C 0.53616 0.99648 0.76774 0.0
C1175 C 0.52506 0.99267 0.77857 0.0
C1176 C 0.5322 0.99359 0.82138 0.0
C1177 C 0.5441 0.00488 0.8322 0.0
C1178 C 0.55683 0.0039 0.8355 0.0
C1179 C 0.5579 0.99163 0.82798 0.0
C1180 C 0.54596 0.9804 0.81707 0.0
C1181 C 0.53322 0.98137 0.81381 0.0
C1182 C 0.5107 0.98671 0.8452 0.0
C1183 C 0.51567 0.99757 0.85864 0.0
C1184 C 0.52037 0.99445 0.87272 0.0
C1185 C 0.5202 0.98041 0.87356 0.0
C1186 C 0.51452 0.96923 0.86024 0.0
C1187 C 0.5098 0.97236 0.84619 0.0
C1188 C 0.48447 0.98943 0.83913 0.0
C1189 C 0.48394 0.00192 0.84681 0.0
C1190 C 0.47438 0.9992 0.85906 0.0
C1191 C 0.46522 0.98395 0.86392 0.0
C1192 C 0.46568 0.97143 0.85608 0.0
C1193 C 0.47521 0.97415 0.84377 0.0
C1194 C 0.49336 0.01994 0.74139 0.0
C1195 C 0.57138 0.99051 0.83149 0.0
H1196 H 0.96702 0.45068 0.74356 0.0
H1197 H 0.02118 0.60958 0.84943 0.0
H1198 H 0.98512 0.47147 0.83918 0.0
H1199 H 0.9805 0.44544 0.83027 0.0
H1200 H 0.0211 0.46777 0.8045 0.0
H1201 H 0.02562 0.49374 0.81342 0.0
H1202 H 0.97599 0.47838 0.80869 0.0
H1203 H 0.96812 0.46329 0.7827 0.0
H1204 H 0.01044 0.49915 0.76517 0.0
H1205 H 0.01823 0.51404 0.79131 0.0
H1206 H 0.97392 0.50756 0.8095 0.0
H1207 H 0.96428 0.51968 0.7926 0.0
H1208 H 0.01053 0.55831 0.78841 0.0
H1209 H 0.02009 0.54602 0.80523 0.0
H1210 H 0.98295 0.53091 0.83818 0.0
H1211 H 0.98286 0.55522 0.84223 0.0
H1212 H 0.03226 0.58252 0.84602 0.0
H1213 H 0.03217 0.5581 0.84179 0.0
H1214 H 0.99201 0.52333 0.86793 0.0
H1215 H 0.99785 0.53792 0.89392 0.0
H1216 H 0.04524 0.55262 0.89201 0.0
H1217 H 0.03927 0.53821 0.86565 0.0
H1218 H 0.99608 0.4962 0.8718 0.0
H1219 H 0.00166 0.48353 0.89225 0.0
H1220 H 0.04062 0.49043 0.86812 0.0
H1221 H 0.03528 0.50357 0.84797 0.0
O1222 O 0.97034 0.4569 0.75371 0.0
O1223 O 0.9924 0.47548 0.74534 0.0
O1224 O 0.99555 0.58512 0.84715 0.0
O1225 O 0.02092 0.59979 0.84804 0.0
C1226 C 0.00699 0.49978 0.83015 0.0
C1227 C 0.00279 0.5059 0.8179 0.0
C1228 C 0.00311 0.52003 0.821 0.0
C1229 C 0.00755 0.52804 0.83635 0.0
C1230 C 0.01163 0.52186 0.84864 0.0
C1231 C 0.01143 0.50774 0.84554 0.0
C1232 C 0.00568 0.48442 0.8269 0.0
C1233 C 0.99319 0.47073 0.83191 0.0
C1234 C 0.99052 0.45592 0.82675 0.0
C1235 C 0.00042 0.45465 0.81667 0.0
C1236 C 0.01339 0.46845 0.81239 0.0
C1237 C 0.01596 0.48325 0.81742 0.0
C1238 C 0.9977 0.49724 0.80187 0.0
C1239 C 0.98353 0.48295 0.79921 0.0
C1240 C 0.97907 0.47437 0.78436 0.0
C1241 C 0.98867 0.47998 0.77187 0.0
C1242 C 0.00278 0.49447 0.77454 0.0
C1243 C 0.00724 0.50302 0.78943 0.0
C1244 C 0.99768 0.52594 0.80856 0.0
C1245 C 0.98198 0.51842 0.80458 0.0
C1246 C 0.9765 0.52541 0.79506 0.0
C1247 C 0.98667 0.53999 0.78932 0.0
C1248 C 0.00246 0.54702 0.79258 0.0
C1249 C 0.00793 0.54005 0.80218 0.0
C1250 C 0.00756 0.54278 0.83962 0.0
C1251 C 0.99373 0.54216 0.83989 0.0
C1252 C 0.99372 0.55605 0.84223 0.0
C1253 C 0.00756 0.57083 0.8444 0.0
C1254 C 0.0214 0.57136 0.84434 0.0
C1255 C 0.02139 0.55743 0.84198 0.0
C1256 C 0.01523 0.52981 0.86491 0.0
C1257 C 0.00363 0.52964 0.87316 0.0
C1258 C 0.00698 0.53788 0.88807 0.0
C1259 C 0.02201 0.5464 0.89506 0.0
C1260 C 0.03358 0.54628 0.88687 0.0
C1261 C 0.0302 0.538 0.8719 0.0
C1262 C 0.01532 0.50089 0.85843 0.0
C1263 C 0.006 0.49527 0.8711 0.0
C1264 C 0.00917 0.48802 0.88273 0.0
C1265 C 0.02155 0.486 0.88172 0.0
C1266 C 0.03095 0.49176 0.86911 0.0
C1267 C 0.02793 0.49926 0.85763 0.0
C1268 C 0.98398 0.47071 0.75616 0.0
C1269 C 0.00759 0.58563 0.84662 0.0
H1270 H 0.489 0.5216 0.71757 0.0
H1271 H 0.6152 0.61299 0.84695 0.0
H1272 H 0.47751 0.52517 0.79951 0.0
H1273 H 0.45431 0.50076 0.78815 0.0
H1274 H 0.46991 0.47343 0.80956 0.0
H1275 H 0.49291 0.4978 0.82085 0.0
H1276 H 0.50829 0.55158 0.78238 0.0
H1277 H 0.50043 0.54307 0.75427 0.0
H1278 H 0.49825 0.49954 0.76055 0.0
H1279 H 0.50631 0.50829 0.78858 0.0
H1280 H 0.54281 0.57867 0.80095 0.0
H1281 H 0.56367 0.59022 0.78343 0.0
H1282 H 0.558 0.54451 0.77327 0.0
H1283 H 0.53806 0.53346 0.7917 0.0
H1284 H 0.54017 0.58296 0.83865 0.0
H1285 H 0.56599 0.60514 0.84715 0.0
H1286 H 0.58406 0.57643 0.83265 0.0
H1287 H 0.55817 0.55431 0.82439 0.0
H1288 H 0.51113 0.55951 0.8584 0.0
H1289 H 0.51998 0.56828 0.8864 0.0
H1290 H 0.55058 0.55152 0.88193 0.0
H1291 H 0.54173 0.54288 0.85407 0.0
H1292 H 0.4792 0.5302 0.83823 0.0
H1293 H 0.46106 0.51417 0.8572 0.0
H1294 H 0.49156 0.49965 0.8723 0.0
H1295 H 0.50925 0.51519 0.853 0.0
O1296 O 0.49217 0.52477 0.72869 0.0
O1297 O 0.49115 0.50255 0.73257 0.0
O1298 O 0.59498 0.61858 0.85128 0.0
O1299 O 0.60486 0.60439 0.84378 0.0
C1300 C 0.50185 0.52782 0.81607 0.0
C1301 C 0.51234 0.53571 0.80463 0.0
C1302 C 0.52731 0.54842 0.80945 0.0
C1303 C 0.5316 0.55367 0.82568 0.0
C1304 C 0.52105 0.5459 0.8371 0.0
C1305 C 0.50621 0.53289 0.8323 0.0
C1306 C 0.48686 0.51323 0.81102 0.0
C1307 C 0.47574 0.51389 0.80195 0.0
C1308 C 0.46258 0.49996 0.79541 0.0
C1309 C 0.46031 0.48517 0.79791 0.0
C1310 C 0.47119 0.48461 0.80758 0.0
C1311 C 0.48435 0.49851 0.81405 0.0
C1312 C 0.50774 0.53051 0.78753 0.0
C1313 C 0.50614 0.54023 0.77764 0.0
C1314 C 0.50163 0.53533 0.76161 0.0
C1315 C 0.49866 0.5206 0.75517 0.0
C1316 C 0.50039 0.51093 0.76513 0.0
C1317 C 0.50494 0.51587 0.78115 0.0
C1318 C 0.53892 0.55523 0.79762 0.0
C1319 C 0.5461 0.57119 0.79491 0.0
C1320 C 0.55794 0.57772 0.78476 0.0
C1321 C 0.56262 0.56833 0.77695 0.0
C1322 C 0.55497 0.5522 0.77931 0.0
C1323 C 0.54338 0.54578 0.78966 0.0
C1324 C 0.54732 0.56708 0.83082 0.0
C1325 C 0.54972 0.58149 0.83735 0.0
C1326 C 0.56448 0.59413 0.84217 0.0
C1327 C 0.57711 0.59257 0.84053 0.0
C1328 C 0.57461 0.57806 0.83404 0.0
C1329 C 0.55985 0.56541 0.82927 0.0
C1330 C 0.52594 0.55075 0.85419 0.0
C1331 C 0.5197 0.5577 0.86353 0.0
C1332 C 0.52471 0.56263 0.8795 0.0
C1333 C 0.53607 0.56071 0.88632 0.0
C1334 C 0.54203 0.55343 0.87695 0.0
C1335 C 0.53698 0.54846 0.86106 0.0
C1336 C 0.49555 0.52389 0.8443 0.0
C1337 C 0.48193 0.52356 0.84569 0.0
C1338 C 0.47164 0.51448 0.85657 0.0
C1339 C 0.47484 0.50558 0.86618 0.0
C1340 C 0.48864 0.50617 0.86488 0.0
C1341 C 0.49884 0.51517 0.854 0.0
C1342 C 0.49377 0.51538 0.73815 0.0
C1343 C 0.59282 0.60599 0.84554 0.0
H1344 H 0.62781 0.82672 0.67112 0.0
H1345 H 0.64276 0.72105 0.5481 0.0
H1346 H 0.61426 0.82515 0.58789 0.0
H1347 H 0.62115 0.85189 0.59758 0.0
H1348 H 0.6648 0.87112 0.57746 0.0
H1349 H 0.65806 0.84447 0.5684 0.0
H1350 H 0.61187 0.79531 0.60683 0.0
H1351 H 0.61428 0.80489 0.63465 0.0
H1352 H 0.66037 0.84336 0.62915 0.0
H1353 H 0.65786 0.83354 0.60142 0.0
H1354 H 0.61361 0.76445 0.59112 0.0
H1355 H 0.6212 0.75043 0.60788 0.0
H1356 H 0.66686 0.79197 0.61486 0.0
H1357 H 0.65923 0.80574 0.59813 0.0
H1358 H 0.60638 0.75945 0.55338 0.0
H1359 H 0.60586 0.7351 0.5464 0.0
H1360 H 0.6542 0.75964 0.56006 0.0
H1361 H 0.65458 0.78394 0.5668 0.0
H1362 H 0.60615 0.7805 0.53059 0.0
H1363 H 0.60712 0.77157 0.50315 0.0
H1364 H 0.65586 0.79327 0.5111 0.0
H1365 H 0.65475 0.80179 0.53841 0.0
H1366 H 0.60888 0.81655 0.54791 0.0
H1367 H 0.61031 0.83409 0.52834 0.0
H1368 H 0.65557 0.84514 0.51877 0.0
H1369 H 0.65421 0.82807 0.53863 0.0
O1370 O 0.62713 0.82309 0.66012 0.0
O1371 O 0.65075 0.84268 0.65666 0.0
O1372 O 0.61788 0.71853 0.54354 0.0
O1373 O 0.64266 0.73054 0.55065 0.0
C1374 C 0.63248 0.8168 0.57315 0.0
C1375 C 0.63296 0.80797 0.58518 0.0
C1376 C 0.63237 0.79377 0.58112 0.0
C1377 C 0.63067 0.78807 0.56506 0.0
C1378 C 0.63003 0.79679 0.55307 0.0
C1379 C 0.63096 0.81117 0.55709 0.0
C1380 C 0.63564 0.8329 0.57739 0.0
C1381 C 0.62522 0.83518 0.58544 0.0
C1382 C 0.62915 0.85044 0.5909 0.0
C1383 C 0.64357 0.8636 0.58839 0.0
C1384 C 0.65371 0.86123 0.5798 0.0
C1385 C 0.6498 0.84603 0.57443 0.0
C1386 C 0.63462 0.81382 0.60208 0.0
C1387 C 0.62248 0.80579 0.61168 0.0
C1388 C 0.62389 0.8113 0.62755 0.0
C1389 C 0.6375 0.82494 0.63412 0.0
C1390 C 0.64971 0.83287 0.62446 0.0
C1391 C 0.64829 0.82732 0.60861 0.0
C1392 C 0.63586 0.78612 0.59344 0.0
C1393 C 0.62514 0.77059 0.59658 0.0
C1394 C 0.62952 0.7626 0.60607 0.0
C1395 C 0.64465 0.77008 0.61264 0.0
C1396 C 0.65508 0.78594 0.61018 0.0
C1397 C 0.65073 0.79384 0.60062 0.0
C1398 C 0.63049 0.77339 0.56067 0.0
C1399 C 0.61684 0.75953 0.5548 0.0
C1400 C 0.61658 0.74565 0.55085 0.0
C1401 C 0.62999 0.74541 0.55272 0.0
C1402 C 0.64367 0.7594 0.55851 0.0
C1403 C 0.64392 0.77328 0.5624 0.0
C1404 C 0.6304 0.79185 0.53637 0.0
C1405 C 0.617 0.78335 0.52631 0.0
C1406 C 0.61757 0.77825 0.51075 0.0
C1407 C 0.63158 0.78188 0.50505 0.0
C1408 C 0.64496 0.79053 0.51515 0.0
C1409 C 0.64434 0.79534 0.53072 0.0
C1410 C 0.63136 0.8209 0.54452 0.0
C1411 C 0.61903 0.82269 0.54146 0.0
C1412 C 0.61985 0.83265 0.53026 0.0
C1413 C 0.63307 0.84103 0.52203 0.0
C1414 C 0.6453 0.839 0.52503 0.0
C1415 C 0.64447 0.82909 0.53621 0.0
C1416 C 0.63892 0.83081 0.65096 0.0
C1417 C 0.62975 0.73066 0.54867 0.0
H1418 H 0.15356 0.81513 0.6825 0.0
H1419 H 0.07733 0.69813 0.53824 0.0
H1420 H 0.16673 0.8302 0.60128 0.0
H1421 H 0.18773 0.85548 0.61392 0.0
H1422 H 0.21969 0.84189 0.60195 0.0
H1423 H 0.19848 0.81635 0.58956 0.0
H1424 H 0.1398 0.80364 0.61402 0.0
H1425 H 0.14211 0.80928 0.64274 0.0
H1426 H 0.17907 0.80116 0.64602 0.0
H1427 H 0.1765 0.79535 0.61728 0.0
H1428 H 0.11588 0.77887 0.58758 0.0
H1429 H 0.09453 0.76358 0.60365 0.0
H1430 H 0.1202 0.74706 0.62716 0.0
H1431 H 0.14163 0.76251 0.61093 0.0
H1432 H 0.11944 0.77661 0.55311 0.0
H1433 H 0.0969 0.75285 0.53991 0.0
H1434 H 0.111 0.72407 0.56084 0.0
H1435 H 0.1336 0.74795 0.57381 0.0
H1436 H 0.1496 0.80665 0.54313 0.0
H1437 H 0.14324 0.80125 0.51468 0.0
H1438 H 0.14521 0.75931 0.51505 0.0
H1439 H 0.15244 0.76536 0.5435 0.0
H1440 H 0.17325 0.83185 0.56431 0.0
H1441 H 0.19208 0.84984 0.54715 0.0
H1442 H 0.20648 0.81694 0.53777 0.0
H1443 H 0.18717 0.79879 0.55457 0.0
O1444 O 0.15282 0.81282 0.67116 0.0
O1445 O 0.17188 0.8087 0.6722 0.0
O1446 O 0.07941 0.72304 0.53282 0.0
O1447 O 0.08613 0.70771 0.54334 0.0
C1448 C 0.16814 0.8061 0.58698 0.0
C1449 C 0.15646 0.79548 0.59614 0.0
C1450 C 0.14334 0.78175 0.58867 0.0
C1451 C 0.14206 0.77844 0.57209 0.0
C1452 C 0.15377 0.78901 0.56292 0.0
C1453 C 0.16684 0.80279 0.57039 0.0
C1454 C 0.18106 0.82138 0.59464 0.0
C1455 C 0.17824 0.83259 0.60155 0.0
C1456 C 0.19022 0.84701 0.60875 0.0
C1457 C 0.2053 0.85059 0.60897 0.0
C1458 C 0.20816 0.83943 0.60187 0.0
C1459 C 0.1961 0.82488 0.59484 0.0
C1460 C 0.15789 0.79895 0.61359 0.0
C1461 C 0.1483 0.80297 0.62097 0.0
C1462 C 0.14969 0.80624 0.63738 0.0
C1463 C 0.16076 0.80564 0.64668 0.0
C1464 C 0.17041 0.80171 0.63921 0.0
C1465 C 0.16898 0.79839 0.6228 0.0
C1466 C 0.13024 0.7717 0.59801 0.0
C1467 C 0.11681 0.77177 0.59604 0.0
C1468 C 0.10463 0.76301 0.60522 0.0
C1469 C 0.10565 0.75405 0.61662 0.0
C1470 C 0.11912 0.75394 0.61854 0.0
C1471 C 0.13132 0.76267 0.60926 0.0
C1472 C 0.12821 0.76399 0.56431 0.0
C1473 C 0.11767 0.76517 0.55476 0.0
C1474 C 0.10479 0.75158 0.54727 0.0
C1475 C 0.10217 0.73655 0.54929 0.0
C1476 C 0.11269 0.73544 0.55901 0.0
C1477 C 0.12559 0.74905 0.56645 0.0
C1478 C 0.15154 0.78644 0.54538 0.0
C1479 C 0.14906 0.79653 0.537 0.0
C1480 C 0.14521 0.79329 0.52077 0.0
C1481 C 0.14351 0.77972 0.5126 0.0
C1482 C 0.14655 0.76992 0.52094 0.0
C1483 C 0.15059 0.7733 0.5372 0.0
C1484 C 0.17889 0.81406 0.56068 0.0
C1485 C 0.18057 0.82862 0.55863 0.0
C1486 C 0.1914 0.83891 0.54888 0.0
C1487 C 0.20085 0.83487 0.54107 0.0
C1488 C 0.19926 0.82034 0.5434 0.0
C1489 C 0.18832 0.80999 0.55306 0.0
C1490 C 0.1622 0.80913 0.66411 0.0
C1491 C 0.08854 0.72208 0.5413 0.0
H1492 H 0.20447 0.37283 0.69283 0.0
H1493 H 0.08881 0.35946 0.56914 0.0
H1494 H 0.21857 0.3919 0.61274 0.0
H1495 H 0.23792 0.3871 0.62308 0.0
H1496 H 0.21487 0.34168 0.59559 0.0
H1497 H 0.19542 0.34635 0.58569 0.0
H1498 H 0.19147 0.39042 0.63299 0.0
H1499 H 0.19776 0.38733 0.6599 0.0
H1500 H 0.18829 0.3409 0.64414 0.0
H1501 H 0.18182 0.34406 0.61735 0.0
H1502 H 0.16122 0.38859 0.61907 0.0
H1503 H 0.14082 0.38045 0.63729 0.0
H1504 H 0.13179 0.33305 0.63236 0.0
H1505 H 0.15187 0.34118 0.61405 0.0
H1506 H 0.16459 0.39739 0.58191 0.0
H1507 H 0.14176 0.39795 0.57532 0.0
H1508 H 0.11363 0.34763 0.57885 0.0
H1509 H 0.13657 0.34724 0.58527 0.0
H1510 H 0.18719 0.39889 0.55889 0.0
H1511 H 0.17936 0.39952 0.53155 0.0
H1512 H 0.14621 0.34928 0.52875 0.0
H1513 H 0.15412 0.3488 0.55595 0.0
H1514 H 0.21466 0.39666 0.56858 0.0
H1515 H 0.22684 0.39574 0.54449 0.0
H1516 H 0.19376 0.34551 0.53611 0.0
H1517 H 0.18146 0.34673 0.55975 0.0
O1518 O 0.20184 0.37376 0.68214 0.0
O1519 O 0.19697 0.35003 0.6734 0.0
O1520 O 0.113 0.38543 0.57003 0.0
O1521 O 0.09802 0.35958 0.57174 0.0
C1522 C 0.19238 0.37095 0.59473 0.0
C1523 C 0.18277 0.36962 0.60686 0.0
C1524 C 0.16945 0.36977 0.60337 0.0
C1525 C 0.16612 0.37204 0.58795 0.0
C1526 C 0.17566 0.37331 0.57585 0.0
C1527 C 0.18861 0.37246 0.57915 0.0
C1528 C 0.20568 0.36955 0.59832 0.0
C1529 C 0.21793 0.3811 0.60866 0.0
C1530 C 0.22889 0.3783 0.61462 0.0
C1531 C 0.22785 0.36401 0.61015 0.0
C1532 C 0.21606 0.35288 0.59907 0.0
C1533 C 0.205 0.35558 0.59331 0.0
C1534 C 0.18633 0.36753 0.62321 0.0
C1535 C 0.19073 0.37958 0.6354 0.0
C1536 C 0.19434 0.37779 0.65074 0.0
C1537 C 0.19359 0.36389 0.65416 0.0
C1538 C 0.18904 0.35178 0.64191 0.0
C1539 C 0.18539 0.35356 0.62659 0.0
C1540 C 0.15801 0.36547 0.61529 0.0
C1541 C 0.15488 0.3765 0.62205 0.0
C1542 C 0.1433 0.37185 0.63247 0.0
C1543 C 0.13466 0.35609 0.63615 0.0
C1544 C 0.1381 0.34521 0.62957 0.0
C1545 C 0.14965 0.34986 0.61924 0.0
C1546 C 0.1522 0.37231 0.58418 0.0
C1547 C 0.15348 0.38652 0.58127 0.0
C1548 C 0.14042 0.3868 0.57751 0.0
C1549 C 0.12586 0.37283 0.57659 0.0
C1550 C 0.12466 0.3586 0.57949 0.0
C1551 C 0.13773 0.35834 0.58321 0.0
C1552 C 0.17116 0.37381 0.55933 0.0
C1553 C 0.17827 0.38806 0.55231 0.0
C1554 C 0.17378 0.38839 0.53676 0.0
C1555 C 0.16222 0.37443 0.52802 0.0
C1556 C 0.15528 0.36017 0.53511 0.0
C1557 C 0.15969 0.35988 0.55065 0.0
C1558 C 0.19728 0.37174 0.5659 0.0
C1559 C 0.21024 0.38546 0.5616 0.0
C1560 C 0.21716 0.38489 0.54787 0.0
C1561 C 0.21118 0.37057 0.53827 0.0
C1562 C 0.19847 0.35679 0.54301 0.0
C1563 C 0.19153 0.35741 0.55662 0.0
C1564 C 0.19755 0.36208 0.67045 0.0
C1565 C 0.11195 0.37306 0.57259 0.0
H1566 H 0.97461 0.38796 0.0319 0.0
H1567 H 0.96874 0.40075 0.05362 0.0
H1568 H 0.00333 0.40193 0.08418 0.0
H1569 H 0.00874 0.38861 0.06283 0.0
H1570 H 0.9805 0.39518 0.10022 0.0
H1571 H 0.00925 0.43467 0.06465 0.0
H1572 H 0.01431 0.44564 0.03882 0.0
H1573 H 0.97207 0.44406 0.03784 0.0
H1574 H 0.96667 0.43288 0.06358 0.0
H1575 H 0.00287 0.47501 0.14278 0.0
H1576 H 0.00144 0.45974 0.11847 0.0
H1577 H 0.95857 0.42014 0.13051 0.0
H1578 H 0.96031 0.43506 0.15523 0.0
H1579 H 0.98319 0.44513 0.09255 0.0
H1580 H 0.95804 0.38629 0.12087 0.0
H1581 H 0.9565 0.37683 0.1472 0.0
H1582 H 0.99787 0.42039 0.1639 0.0
H1583 H -0.00021 0.43 0.13759 0.0
C1584 C 0.98085 0.39083 0.0433 0.0
C1585 C 0.99219 0.38735 0.04563 0.0
C1586 C 0.97754 0.39821 0.05568 0.0
C1587 C 0.98576 0.40255 0.07049 0.0
C1588 C 0.9968 0.39869 0.0729 0.0
C1589 C -7e-05 0.3911 0.06064 0.0
C1590 C 0.98332 0.41153 0.08343 0.0
C1591 C 0.98097 0.40604 0.09848 0.0
C1592 C 0.98413 0.42582 0.08128 0.0
C1593 C 0.98748 0.43279 0.06595 0.0
C1594 C 0.00101 0.43659 0.05888 0.0
C1595 C 0.00394 0.44284 0.04426 0.0
C1596 C 0.99349 0.44549 0.03667 0.0
C1597 C 0.98013 0.44196 0.04372 0.0
C1598 C 0.97714 0.43568 0.05832 0.0
C1599 C 0.9931 0.46307 0.14023 0.0
C1600 C 0.98185 0.45617 0.15109 0.0
C1601 C 0.99222 0.45441 0.12624 0.0
C1602 C 0.98004 0.4387 0.1228 0.0
C1603 C 0.9682 0.43217 0.13305 0.0
C1604 C 0.96914 0.44078 0.14712 0.0
C1605 C 0.9805 0.42883 0.10931 0.0
C1606 C 0.98247 0.43414 0.09419 0.0
C1607 C 0.97986 0.41463 0.11149 0.0
C1608 C 0.97893 0.40892 0.12732 0.0
C1609 C 0.96682 0.39382 0.13015 0.0
C1610 C 0.96589 0.38844 0.14507 0.0
C1611 C 0.97705 0.39802 0.15722 0.0
C1612 C 0.9892 0.413 0.15448 0.0
C1613 C 0.99021 0.41842 0.13957 0.0
H1614 H 0.97631 0.39381 0.16874 0.0
H1615 H 0.99576 0.45031 0.02534 0.0
H1616 H 0.59757 0.60525 0.10489 0.0
H1617 H 0.58532 0.58628 0.12421 0.0
H1618 H 0.61606 0.57016 0.11662 0.0
H1619 H 0.62817 0.58896 0.0967 0.0
H1620 H 0.58817 0.54576 0.11871 0.0
H1621 H 0.62056 0.59383 0.15039 0.0
H1622 H 0.63276 0.62207 0.15949 0.0
H1623 H 0.58921 0.61437 0.17039 0.0
H1624 H 0.5767 0.58612 0.16115 0.0
H1625 H 0.55988 0.50517 0.18991 0.0
H1626 H 0.57738 0.52308 0.17162 0.0
H1627 H 0.54649 0.53837 0.16171 0.0
H1628 H 0.52859 0.52002 0.17921 0.0
H1629 H 0.57863 0.5633 0.17068 0.0
H1630 H 0.54674 0.51512 0.13548 0.0
H1631 H 0.5357 0.48691 0.12712 0.0
H1632 H 0.58071 0.49527 0.12443 0.0
H1633 H 0.59202 0.52352 0.13301 0.0
C1634 C 0.6018 0.59773 0.10733 0.0
C1635 C 0.61393 0.5987 0.09935 0.0
C1636 C 0.59482 0.58692 0.11846 0.0
C1637 C 0.59999 0.57703 0.12216 0.0
C1638 C 0.61196 0.57776 0.11404 0.0
C1639 C 0.61887 0.58851 0.1027 0.0
C1640 C 0.59256 0.56582 0.1343 0.0
C1641 C 0.58638 0.54965 0.1302 0.0
C1642 C 0.59021 0.57085 0.14933 0.0
C1643 C 0.59767 0.58785 0.15498 0.0
C1644 C 0.61356 0.59817 0.15463 0.0
C1645 C 0.62054 0.61418 0.15983 0.0
C1646 C 0.61177 0.62001 0.16549 0.0
C1647 C 0.596 0.60983 0.166 0.0
C1648 C 0.58896 0.59381 0.16081 0.0
C1649 C 0.55666 0.51213 0.18365 0.0
C1650 C 0.54282 0.51118 0.18615 0.0
C1651 C 0.56674 0.52243 0.1733 0.0
C1652 C 0.56321 0.53205 0.16543 0.0
C1653 C 0.54944 0.53111 0.16782 0.0
C1654 C 0.53928 0.52068 0.17793 0.0
C1655 C 0.57388 0.54335 0.15482 0.0
C1656 C 0.5807 0.55952 0.15928 0.0
C1657 C 0.57704 0.53834 0.1403 0.0
C1658 C 0.57022 0.52138 0.13509 0.0
C1659 C 0.55428 0.51092 0.13326 0.0
C1660 C 0.54797 0.49492 0.12845 0.0
C1661 C 0.5575 0.48929 0.1253 0.0
C1662 C 0.57335 0.49964 0.12691 0.0
C1663 C 0.57971 0.51565 0.13174 0.0
H1664 H 0.55259 0.4769 0.12157 0.0
H1665 H 0.61719 0.63241 0.16951 0.0
H1666 H 0.42491 0.0315 0.05382 0.0
H1667 H 0.44212 0.03698 0.07715 0.0
H1668 H 0.40576 0.99672 0.09741 0.0
H1669 H 0.38864 0.99116 0.07433 0.0
H1670 H 0.42163 0.02324 0.11896 0.0
H1671 H 0.43212 0.99361 0.07916 0.0
H1672 H 0.44004 0.98937 0.05316 0.0
H1673 H 0.48339 0.03299 0.06274 0.0
H1674 H 0.47562 0.03759 0.08872 0.0
H1675 H 0.4496 0.99621 0.17488 0.0
H1676 H 0.43829 0.99933 0.15113 0.0
H1677 H 0.48265 0.03725 0.14015 0.0
H1678 H 0.49428 0.03365 0.16367 0.0
H1679 H 0.46646 0.01813 0.11394 0.0
H1680 H 0.45755 0.04552 0.15571 0.0
H1681 H 0.44983 0.04925 0.18199 0.0
H1682 H 0.40393 0.01059 0.16904 0.0
H1683 H 0.41143 0.00644 0.14275 0.0
C1684 C 0.4206 0.02389 0.06331 0.0
C1685 C 0.40545 0.01085 0.06221 0.0
C1686 C 0.43043 0.02702 0.07658 0.0
C1687 C 0.4252 0.01722 0.08896 0.0
C1688 C 0.41001 0.00445 0.088 0.0
C1689 C 0.40026 0.00124 0.07475 0.0
C1690 C 0.43548 0.01977 0.10282 0.0
C1691 C 0.43144 0.02214 0.11789 0.0
C1692 C 0.44855 0.01884 0.10136 0.0
C1693 C 0.45321 0.01605 0.08577 0.0
C1694 C 0.44328 0.00237 0.07565 0.0
C1695 C 0.44776 -0.00012 0.06094 0.0
C1696 C 0.46219 0.01093 0.05627 0.0
C1697 C 0.4722 0.02446 0.06634 0.0
C1698 C 0.46777 0.02701 0.08107 0.0
C1699 C 0.45705 0.00503 0.16731 0.0
C1700 C 0.47288 0.01464 0.17118 0.0
C1701 C 0.45052 0.00696 0.15382 0.0
C1702 C 0.45958 0.01875 0.14404 0.0
C1703 C 0.47543 0.02817 0.14763 0.0
C1704 C 0.48203 0.02617 0.16112 0.0
C1705 C 0.45229 0.02104 0.13013 0.0
C1706 C 0.45689 0.01962 0.11505 0.0
C1707 C 0.43976 0.02294 0.13158 0.0
C1708 C 0.43508 0.02563 0.14726 0.0
C1709 C 0.44583 0.03777 0.15848 0.0
C1710 C 0.44149 0.03995 0.17338 0.0
C1711 C 0.4264 0.03015 0.17719 0.0
C1712 C 0.41561 0.01818 0.16607 0.0
C1713 C 0.41989 0.01592 0.15115 0.0
H1714 H 0.42307 0.03185 0.18875 0.0
H1715 H 0.46564 0.00899 0.04488 0.0
H1716 H 0.39204 0.99962 0.9718 0.0
H1717 H 0.40212 0.99408 0.94844 0.0
H1718 H 0.41462 0.96686 0.9748 0.0
H1719 H 0.4048 0.97266 0.99847 0.0
H1720 H 0.43753 0.98657 0.95865 0.0
H1721 H 0.38473 0.94874 0.94605 0.0
H1722 H 0.35725 0.93869 0.94264 0.0
H1723 H 0.3658 0.97014 0.90694 0.0
H1724 H 0.39338 0.98055 0.91029 0.0
H1725 H 0.46133 0.96595 0.88828 0.0
H1726 H 0.44661 0.96284 0.9113 0.0
H1727 H 0.43306 0.99314 0.89337 0.0
H1728 H 0.44738 0.99594 0.87011 0.0
H1729 H 0.40941 0.96779 0.90573 0.0
H1730 H 0.46256 0.00759 0.92119 0.0
H1731 H 0.48999 0.01735 0.92459 0.0
H1732 H 0.48028 0.98117 0.95504 0.0
H1733 H 0.45275 0.97108 0.95166 0.0
C1734 C 0.39679 0.99232 0.97264 0.0
C1735 C 0.39763 0.9866 0.98703 0.0
C1736 C 0.40247 0.98908 0.95921 0.0
C1737 C 0.40896 0.97988 0.95979 0.0
C1738 C 0.40962 0.97394 0.97407 0.0
C1739 C 0.40397 0.97724 0.98757 0.0
C1740 C 0.41583 0.97735 0.94569 0.0
C1741 C 0.43127 0.98212 0.94714 0.0
C1742 C 0.40775 0.97178 0.93062 0.0
C1743 C 0.39115 0.9655 0.9285 0.0
C1744 C 0.38077 0.9536 0.93755 0.0
C1745 C 0.36517 0.94782 0.93561 0.0
C1746 C 0.35979 0.95379 0.9246 0.0
C1747 C 0.36999 0.96553 0.91547 0.0
C1748 C 0.38561 0.97136 0.91737 0.0
C1749 C 0.455 0.97173 0.88911 0.0
C1750 C 0.45559 0.98127 0.87742 0.0
C1751 C 0.4467 0.97004 0.90233 0.0
C1752 C 0.4389 0.97791 0.90413 0.0
C1753 C 0.43904 0.987 0.89223 0.0
C1754 C 0.44734 0.9887 0.87902 0.0
C1755 C 0.43112 0.9773 0.91869 0.0
C1756 C 0.41555 0.97197 0.9173 0.0
C1757 C 0.43904 0.98228 0.93383 0.0
C1758 C 0.4556 0.98848 0.93603 0.0
C1759 C 0.46627 0.00166 0.92853 0.0
C1760 C 0.48183 0.00726 0.93047 0.0
C1761 C 0.48687 -0.00015 0.93999 0.0
C1762 C 0.47636 0.98687 0.94765 0.0
C1763 C 0.46078 0.98122 0.94574 0.0
H1764 H 0.49892 0.0042 0.94147 0.0
H1765 H 0.3477 0.94931 0.92312 0.0
H1766 H 0.03128 0.41365 0.99767 0.0
H1767 H 0.03417 0.43338 0.98036 0.0
H1768 H 0.02756 0.40193 0.93951 0.0
H1769 H 0.02473 0.38211 0.95673 0.0
H1770 H 0.05019 0.43364 0.93657 0.0
H1771 H 0.99788 0.403 0.95162 0.0
H1772 H 0.97852 0.39216 0.97121 0.0
H1773 H 0.99424 0.43912 0.9915 0.0
H1774 H 0.01382 0.45023 0.97212 0.0
H1775 H 0.02585 0.46169 0.87591 0.0
H1776 H 0.02909 0.44648 0.89512 0.0
H1777 H 0.02692 0.47578 0.93321 0.0
H1778 H 0.02308 0.49064 0.91391 0.0
H1779 H 0.01051 0.447 0.93918 0.0
H1780 H 0.06128 0.47836 0.92377 0.0
H1781 H 0.08178 0.49025 0.90552 0.0
H1782 H 0.07088 0.44413 0.88758 0.0
H1783 H 0.05016 0.43194 0.90557 0.0
C1784 C 0.03067 0.41099 0.98501 0.0
C1785 C 0.02761 0.39622 0.97857 0.0
C1786 C 0.03229 0.42228 0.97515 0.0
C1787 C 0.03085 0.41901 0.95867 0.0
C1788 C 0.02866 0.40465 0.95221 0.0
C1789 C 0.027 0.39333 0.96207 0.0
C1790 C 0.03051 0.43002 0.94816 0.0
C1791 C 0.04146 0.4365 0.93701 0.0
C1792 C 0.0194 0.4341 0.94913 0.0
C1793 C 0.00739 0.42743 0.96052 0.0
C1794 C 0.99725 0.41101 0.96031 0.0
C1795 C 0.98623 0.40482 0.97136 0.0
C1796 C 0.98518 0.41494 0.98262 0.0
C1797 C 0.99508 0.43129 0.98278 0.0
C1798 C 0.00613 0.43754 0.97175 0.0
C1799 C 0.02623 0.46497 0.8884 0.0
C1800 C 0.02429 0.47736 0.89345 0.0
C1801 C 0.02815 0.45632 0.89938 0.0
C1802 C 0.02853 0.46013 0.91567 0.0
C1803 C 0.02669 0.47261 0.92073 0.0
C1804 C 0.02451 0.48109 0.90972 0.0
C1805 C 0.03014 0.45063 0.92736 0.0
C1806 C 0.01938 0.44436 0.93875 0.0
C1807 C 0.04159 0.44695 0.92676 0.0
C1808 C 0.05408 0.45423 0.91594 0.0
C1809 C 0.06318 0.47075 0.91585 0.0
C1810 C 0.07485 0.47754 0.90556 0.0
C1811 C 0.07761 0.46795 0.89537 0.0
C1812 C 0.06872 0.45155 0.89547 0.0
C1813 C 0.05702 0.44469 0.90573 0.0
H1814 H 0.08665 0.47324 0.88741 0.0
H1815 H 0.97666 0.41013 0.99119 0.0
H1816 H 0.6198 0.61548 0.01324 0.0
H1817 H 0.60511 0.60779 0.98786 0.0
H1818 H 0.56355 0.59019 0.01165 0.0
H1819 H 0.5782 0.59754 0.03724 0.0
H1820 H 0.55952 0.56986 0.98762 0.0
H1821 H 0.57942 0.625 0.99403 0.0
H1822 H 0.59904 0.65333 -0.0002 0.0
H1823 H 0.62314 0.65106 0.96044 0.0
H1824 H 0.60378 0.62265 0.95456 0.0
H1825 H 0.51992 0.55804 0.91227 0.0
H1826 H 0.53009 0.56761 0.93984 0.0
H1827 H 0.57578 0.58601 0.92557 0.0
H1828 H 0.56578 0.57689 0.89808 0.0
H1829 H 0.57463 0.60691 0.94615 0.0
H1830 H 0.5558 0.55088 0.94204 0.0
H1831 H 0.53633 0.5224 0.93709 0.0
H1832 H 0.50977 0.52669 0.97266 0.0
H1833 H 0.52898 0.55525 0.97767 0.0
C1834 C 0.60754 0.61004 0.01313 0.0
C1835 C 0.60017 0.60716 0.02729 0.0
C1836 C 0.59916 0.60573 0.99858 0.0
C1837 C 0.58325 0.59866 0.99784 0.0
C1838 C 0.57583 0.5957 0.01194 0.0
C1839 C 0.58422 0.59993 0.02655 0.0
C1840 C 0.57444 0.59389 0.98226 0.0
C1841 C 0.56261 0.57804 0.97865 0.0
C1842 C 0.57856 0.60452 0.9705 0.0
C1843 C 0.59018 0.62166 0.97391 0.0
C1844 C 0.58895 0.63051 0.98666 0.0
C1845 C 0.60002 0.64659 0.98994 0.0
C1846 C 0.61234 0.65399 0.9805 0.0
C1847 C 0.61359 0.64532 0.96774 0.0
C1848 C 0.60256 0.62923 0.96441 0.0
C1849 C 0.53214 0.56425 0.91503 0.0
C1850 C 0.54205 0.56662 0.90303 0.0
C1851 C 0.53792 0.5696 0.93078 0.0
C1852 C 0.55368 0.5774 0.93477 0.0
C1853 C 0.56358 0.58 0.92276 0.0
C1854 C 0.55783 0.57465 0.90708 0.0
C1855 C 0.56005 0.58281 0.95141 0.0
C1856 C 0.57139 0.59881 0.95521 0.0
C1857 C 0.55541 0.57233 0.96335 0.0
C1858 C 0.54374 0.55523 0.9601 0.0
C1859 C 0.54573 0.54578 0.94868 0.0
C1860 C 0.53476 0.52962 0.94589 0.0
C1861 C 0.52183 0.52275 0.95455 0.0
C1862 C 0.51979 0.53204 0.96596 0.0
C1863 C 0.53071 0.5482 0.96878 0.0
H1864 H 0.51342 0.51022 0.95249 0.0
H1865 H 0.6209 0.66643 0.98307 0.0
H1866 H 0.04188 0.64869 0.01053 0.0
H1867 H 0.04778 0.63474 0.99002 0.0
H1868 H 0.00476 0.59167 0.99491 0.0
H1869 H 0.9988 0.60541 0.01534 0.0
H1870 H 0.02832 0.58667 0.99238 0.0
H1871 H 0.00808 0.61386 0.96589 0.0
H1872 H 0.00776 0.63735 0.95974 0.0
H1873 H 0.05284 0.65822 0.94353 0.0
H1874 H 0.05349 0.63492 0.9498 0.0
H1875 H 0.00541 0.53808 0.92105 0.0
H1876 H 0.00934 0.55485 0.94507 0.0
H1877 H 0.05069 0.59287 0.92837 0.0
H1878 H 0.04643 0.5763 0.9039 0.0
H1879 H 0.03337 0.60312 0.93803 0.0
H1880 H 0.05165 0.57353 0.9603 0.0
H1881 H 0.05153 0.54974 0.96609 0.0
H1882 H 0.01048 0.53319 0.99012 0.0
H1883 H 0.01021 0.55677 0.98428 0.0
C1884 C 0.03373 0.63623 0.0073 0.0
C1885 C 0.01982 0.62819 0.01447 0.0
C1886 C 0.03712 0.62829 0.99559 0.0
C1887 C 0.02666 0.6122 0.99091 0.0
C1888 C 0.01299 0.60407 0.99838 0.0
C1889 C 0.00957 0.61199 0.00999 0.0
C1890 C 0.02944 0.60385 0.97771 0.0
C1891 C 0.02941 0.59021 0.98047 0.0
C1892 C 0.03132 0.60878 0.9623 0.0
C1893 C 0.03091 0.62276 0.9585 0.0
C1894 C 0.01797 0.62352 0.96114 0.0
C1895 C 0.01772 0.63678 0.95761 0.0
C1896 C 0.03029 0.64929 0.9513 0.0
C1897 C 0.04312 0.64854 0.94846 0.0
C1898 C 0.04344 0.63531 0.95199 0.0
C1899 C 0.01539 0.54998 0.92251 0.0
C1900 C 0.02555 0.55589 0.91051 0.0
C1901 C 0.01773 0.5595 0.93635 0.0
C1902 C 0.03041 0.57508 0.93862 0.0
C1903 C 0.04087 0.58086 0.9269 0.0
C1904 C 0.03849 0.57134 0.91298 0.0
C1905 C 0.03189 0.58564 0.95257 0.0
C1906 C 0.03267 0.59971 0.94996 0.0
C1907 C 0.03072 0.58108 0.96812 0.0
C1908 C 0.03088 0.56691 0.97177 0.0
C1909 C 0.04254 0.56478 0.96674 0.0
C1910 C 0.04255 0.55133 0.97004 0.0
C1911 C 0.031 0.53995 0.97845 0.0
C1912 C 0.01943 0.54202 0.9836 0.0
C1913 C 0.01936 0.55544 0.98032 0.0
H1914 H 0.03102 0.52955 0.98099 0.0
H1915 H 0.03008 0.65955 0.94857 0.0
H1916 H 0.38297 0.42434 0.97301 0.0
H1917 H 0.39765 0.44496 0.95545 0.0
H1918 H 0.41575 0.41804 0.93562 0.0
H1919 H 0.40131 0.39756 0.95304 0.0
H1920 H 0.438 0.44876 0.94368 0.0
H1921 H 0.38783 0.41919 0.91563 0.0
H1922 H 0.36006 0.40786 0.91272 0.0
H1923 H 0.36761 0.45418 0.92159 0.0
H1924 H 0.39544 0.46577 0.92475 0.0
H1925 H 0.46656 0.47573 0.87177 0.0
H1926 H 0.44993 0.45968 0.89148 0.0
H1927 H 0.44109 0.49604 0.90542 0.0
H1928 H 0.45803 0.51241 0.88579 0.0
H1929 H 0.41464 0.46456 0.90315 0.0
H1930 H 0.46512 0.49439 0.92797 0.0
H1931 H 0.49285 0.50556 0.92963 0.0
H1932 H 0.4848 0.45883 0.92689 0.0
H1933 H 0.45699 0.44737 0.92485 0.0
C1934 C 0.39003 0.4228 0.96485 0.0
C1935 C 0.39099 0.40932 0.96444 0.0
C1936 C 0.39837 0.43457 0.95482 0.0
C1937 C 0.40777 0.433 0.94424 0.0
C1938 C 0.40863 0.41951 0.94375 0.0
C1939 C 0.4003 0.40778 0.9537 0.0
C1940 C 0.41703 0.44544 0.93377 0.0
C1941 C 0.43288 0.45217 0.93479 0.0
C1942 C 0.41039 0.45027 0.92253 0.0
C1943 C 0.39369 0.44331 0.92063 0.0
C1944 C 0.38356 0.42694 0.9171 0.0
C1945 C 0.36781 0.42048 0.91538 0.0
C1946 C 0.36207 0.43029 0.91702 0.0
C1947 C 0.37207 0.44659 0.92035 0.0
C1948 C 0.38783 0.45311 0.92211 0.0
C1949 C 0.46116 0.48038 0.87906 0.0
C1950 C 0.46381 0.49545 0.87739 0.0
C1951 C 0.45159 0.47115 0.89025 0.0
C1952 C 0.44447 0.47679 0.90002 0.0
C1953 C 0.44652 0.49152 0.89798 0.0
C1954 C 0.45617 0.50083 0.88677 0.0
C1955 C 0.43549 0.46741 0.91277 0.0
C1956 C 0.41976 0.46134 0.91223 0.0
C1957 C 0.44222 0.46318 0.92451 0.0
C1958 C 0.45895 0.47002 0.92614 0.0
C1959 C 0.46925 0.48649 0.92762 0.0
C1960 C 0.48499 0.49287 0.92863 0.0
C1961 C 0.49059 0.48291 0.92834 0.0
C1962 C 0.48045 0.46654 0.9271 0.0
C1963 C 0.46469 0.46009 0.92602 0.0
H1964 H 0.50278 0.48787 0.92909 0.0
H1965 H 0.34988 0.42526 0.91567 0.0
H1966 H 0.60674 0.97261 0.97925 0.0
H1967 H 0.58997 0.96905 0.95645 0.0
H1968 H 0.56748 0.98621 0.9858 0.0
H1969 H 0.58397 0.98949 0.00871 0.0
H1970 H 0.54714 0.96219 0.9652 0.0
H1971 H 0.5954 0.01057 0.96291 0.0
H1972 H 0.62342 0.02743 0.96265 0.0
H1973 H 0.62199 0.00044 0.9205 0.0
H1974 H 0.59396 0.98327 0.92064 0.0
H1975 H 0.51726 0.98678 0.90469 0.0
H1976 H 0.53047 0.98498 0.92797 0.0
H1977 H 0.55169 0.96681 0.89793 0.0
H1978 H 0.53893 0.96904 0.87464 0.0
H1979 H 0.57222 0.99048 0.91878 0.0
H1980 H 0.52308 0.94278 0.92081 0.0
H1981 H 0.49503 0.92703 0.92128 0.0
H1982 H 0.49807 0.95405 0.96414 0.0
H1983 H 0.52613 0.9701 0.96383 0.0
C1984 C 0.59812 0.97547 0.9809 0.0
C1985 C 0.5968 0.98149 0.99577 0.0
C1986 C 0.58858 0.97348 0.96784 0.0
C1987 C 0.57765 0.97763 0.96937 0.0
C1988 C 0.57586 0.98297 0.98434 0.0
C1989 C 0.58534 0.98489 0.99741 0.0
C1990 C 0.56862 0.97715 0.95527 0.0
C1991 C 0.55262 0.96848 0.9551 0.0
C1992 C 0.57576 0.98521 0.94201 0.0
C1993 C 0.59261 0.99553 0.94188 0.0
C1994 C 0.60108 0.00815 0.95366 0.0
C1995 C 0.61695 0.01778 0.95352 0.0
C1996 C 0.62448 0.01498 0.94159 0.0
C1997 C 0.61614 0.00257 0.92975 0.0
C1998 C 0.60026 0.9929 0.92985 0.0
C1999 C 0.5247 0.98235 0.90307 0.0
C2000 C 0.52702 0.97802 0.88782 0.0
C2001 C 0.53214 0.9812 0.91638 0.0
C2002 C 0.54197 0.97564 0.91469 0.0
C2003 C 0.54411 0.97107 0.89951 0.0
C2004 C 0.53669 0.97222 0.88622 0.0
C2005 C 0.55073 0.97542 0.92863 0.0
C2006 C 0.56672 0.98406 0.92881 0.0
C2007 C 0.54357 0.96746 0.94192 0.0
C2008 C 0.5267 0.95772 0.94222 0.0
C2009 C 0.51776 0.94543 0.93028 0.0
C2010 C 0.50186 0.93644 0.93053 0.0
C2011 C 0.49477 0.93956 0.94271 0.0
C2012 C 0.50357 0.95166 0.9547 0.0
C2013 C 0.51948 0.96069 0.95451 0.0
H2014 H 0.48246 0.9326 0.94288 0.0
H2015 H 0.63677 0.02244 0.9415 0.0
H2016 H 0.57429 0.99186 0.06798 0.0
H2017 H 0.56578 0.99827 0.09218 0.0
H2018 H 0.6125 0.02772 0.11154 0.0
H2019 H 0.62117 0.02132 0.08724 0.0
H2020 H 0.59344 0.00701 0.13221 0.0
H2021 H 0.59433 0.04506 0.10105 0.0
H2022 H 0.5892 0.05493 0.07742 0.0
H2023 H 0.54094 0.02442 0.08115 0.0
H2024 H 0.54577 0.01419 0.10468 0.0
H2025 H 0.56541 0.02765 0.1997 0.0
H2026 H 0.58015 0.03024 0.17676 0.0
H2027 H 0.53829 0.00263 0.14697 0.0
H2028 H 0.52358 0.00053 0.16961 0.0
H2029 H 0.55894 0.02723 0.13274 0.0
H2030 H 0.55806 0.98649 0.16107 0.0
H2031 H 0.56278 0.97583 0.18431 0.0
H2032 H 0.61073 0.01093 0.18553 0.0
H2033 H 0.60626 0.02192 0.1624 0.0
C2034 C 0.58279 -0.00019 0.07731 0.0
C2035 C 0.5984 0.00608 0.0757 0.0
C2036 C 0.5779 0.00353 0.09112 0.0
C2037 C 0.58852 0.01358 0.10359 0.0
C2038 C 0.60414 0.01998 0.10201 0.0
C2039 C 0.60906 0.01636 0.08811 0.0
C2040 C 0.58306 0.01664 0.11852 0.0
C2041 C 0.58618 0.01177 0.13243 0.0
C2042 C 0.5734 0.02262 0.11871 0.0
C2043 C 0.57042 0.02878 0.10459 0.0
C2044 C 0.58262 0.04036 0.09677 0.0
C2045 C 0.57977 0.04604 0.0834 0.0
C2046 C 0.56475 0.04028 0.07777 0.0
C2047 C 0.55256 0.02886 0.08552 0.0
C2048 C 0.55535 0.02314 0.09889 0.0
C2049 C 0.55937 0.02228 0.18822 0.0
C2050 C 0.54332 0.01375 0.18651 0.0
C2051 C 0.5678 0.02367 0.17516 0.0
C2052 C 0.56031 0.01648 0.16018 0.0
C2053 C 0.54431 0.00825 0.15841 0.0
C2054 C 0.53591 0.0069 0.17141 0.0
C2055 C 0.56895 0.01716 0.14631 0.0
C2056 C 0.56644 0.02275 0.1326 0.0
C2057 C 0.57911 0.01178 0.14628 0.0
C2058 C 0.5818 0.00514 0.16014 0.0
C2059 C 0.56959 0.99201 0.16637 0.0
C2060 C 0.57223 0.98589 0.17951 0.0
C2061 C 0.58704 0.99273 0.18643 0.0
C2062 C 0.59926 0.00567 0.18019 0.0
C2063 C 0.59668 0.01184 0.16706 0.0
H2064 H 0.58906 0.98798 0.1966 0.0
H2065 H 0.56257 0.04469 0.06742 0.0
H2066 H 0.97144 0.61082 0.08927 0.0
H2067 H 0.96423 0.59257 0.1099 0.0
H2068 H 0.99337 0.57741 0.09185 0.0
H2069 H 0.00069 0.59558 0.07145 0.0
H2070 H 0.96454 0.55236 0.09935 0.0
H2071 H 0.00647 0.60429 0.12205 0.0
H2072 H 0.01829 0.63273 0.12994 0.0
H2073 H 0.98172 0.62241 0.15951 0.0
H2074 H 0.96957 0.59389 0.15161 0.0
H2075 H 0.98938 0.52266 0.15614 0.0
H2076 H 0.98598 0.53712 0.13633 0.0
H2077 H 0.96261 0.55045 0.16891 0.0
H2078 H 0.96671 0.53661 0.1892 0.0
H2079 H 0.98239 0.57503 0.15502 0.0
H2080 H 0.94298 0.5229 0.13653 0.0
H2081 H 0.93087 0.49438 0.12895 0.0
H2082 H 0.96103 0.50432 0.0917 0.0
H2083 H 0.97349 0.5329 0.0992 0.0
C2084 C 0.97618 0.60348 0.08964 0.0
C2085 C 0.9867 0.6047 0.07883 0.0
C2086 C 0.97207 0.5931 0.10142 0.0
C2087 C 0.97831 0.5837 0.10238 0.0
C2088 C 0.9884 0.58454 0.09126 0.0
C2089 C 0.99264 0.595 0.07967 0.0
C2090 C 0.97512 0.57352 0.11538 0.0
C2091 C 0.9684 0.55725 0.11154 0.0
C2092 C 0.97969 0.57989 0.13132 0.0
C2093 C 0.98701 0.597 0.13608 0.0
C2094 C 0.00088 0.6081 0.13012 0.0
C2095 C 0.00765 0.62423 0.13461 0.0
C2096 C 0.00073 0.62938 0.14517 0.0
C2097 C 0.98705 0.6184 0.1513 0.0
C2098 C 0.98021 0.60226 0.14682 0.0
C2099 C 0.9836 0.52874 0.15917 0.0
C2100 C 0.9784 0.52854 0.17431 0.0
C2101 C 0.98144 0.53681 0.14772 0.0
C2102 C 0.97379 0.54465 0.15102 0.0
C2103 C 0.96845 0.54438 0.16607 0.0
C2104 C 0.9707 0.53637 0.17761 0.0
C2105 C 0.97226 0.55384 0.13895 0.0
C2106 C 0.9781 0.56995 0.14293 0.0
C2107 C 0.96674 0.54727 0.12315 0.0
C2108 C 0.95922 0.53007 0.11849 0.0
C2109 C 0.9471 0.51901 0.12678 0.0
C2110 C 0.94016 0.50283 0.12249 0.0
C2111 C 0.94518 0.49754 0.10986 0.0
C2112 C 0.95714 0.50843 0.10148 0.0
C2113 C 0.96413 0.52463 0.10573 0.0
H2114 H 0.9398 0.48501 0.10657 0.0
H2115 H 0.006 0.64187 0.14865 0.0
H2116 H 0.38666 0.39753 0.04949 0.0
H2117 H 0.40253 0.40655 0.07429 0.0
H2118 H 0.43929 0.4083 0.04992 0.0
H2119 H 0.42347 0.3993 0.02488 0.0
H2120 H 0.43367 0.39395 0.07908 0.0
H2121 H 0.44268 0.44155 0.05932 0.0
H2122 H 0.43532 0.45883 0.04816 0.0
H2123 H 0.41131 0.45692 0.08918 0.0
H2124 H 0.41834 0.43944 0.10049 0.0
H2125 H 0.48492 0.43505 0.14839 0.0
H2126 H 0.47363 0.42691 0.12104 0.0
H2127 H 0.43565 0.43031 0.13502 0.0
H2128 H 0.44704 0.43876 0.16211 0.0
H2129 H 0.4451 0.44363 0.10906 0.0
H2130 H 0.43343 0.39427 0.12773 0.0
H2131 H 0.43952 0.37612 0.1391 0.0
H2132 H 0.4672 0.3804 0.10072 0.0
H2133 H 0.46143 0.39875 0.08923 0.0
C2134 C 0.3981 0.39979 0.04936 0.0
C2135 C 0.40384 0.39778 0.03519 0.0
C2136 C 0.40716 0.40497 0.06355 0.0
C2137 C 0.42211 0.40821 0.06388 0.0
C2138 C 0.42779 0.40589 0.04986 0.0
C2139 C 0.41875 0.40081 0.03559 0.0
C2140 C 0.43175 0.41426 0.07893 0.0
C2141 C 0.43644 0.40495 0.08555 0.0
C2142 C 0.4351 0.42847 0.08741 0.0
C2143 C 0.43095 0.43909 0.0807 0.0
C2144 C 0.43574 0.44472 0.06591 0.0
C2145 C 0.43164 0.45457 0.05957 0.0
C2146 C 0.42283 0.45895 0.06794 0.0
C2147 C 0.41813 0.45352 0.0827 0.0
C2148 C 0.42218 0.44365 0.08909 0.0
C2149 C 0.47413 0.43397 0.14556 0.0
C2150 C 0.46689 0.43762 0.15729 0.0
C2151 C 0.46768 0.4293 0.12998 0.0
C2152 C 0.45374 0.42792 0.12598 0.0
C2153 C 0.44646 0.4314 0.13777 0.0
C2154 C 0.45297 0.43623 0.15324 0.0
C2155 C 0.44668 0.42309 0.10953 0.0
C2156 C 0.44251 0.4327 0.10258 0.0
C2157 C 0.4437 0.40907 0.10084 0.0
C2158 C 0.44714 0.39802 0.10772 0.0
C2159 C 0.44091 0.39144 0.12178 0.0
C2160 C 0.44429 0.3811 0.12824 0.0
C2161 C 0.45378 0.37715 0.12067 0.0
C2162 C 0.45988 0.3835 0.10659 0.0
C2163 C 0.45655 0.39386 0.1001 0.0
H2164 H 0.45638 0.36915 0.12568 0.0
H2165 H 0.41967 0.46657 0.06301 0.0
H2166 H 0.6785 0.75588 0.3757 0.0
H2167 H 0.66935 0.76525 0.39729 0.0
H2168 H 0.63847 0.71728 0.40783 0.0
H2169 H 0.64749 0.70774 0.38614 0.0
H2170 H 0.62544 0.73557 0.41014 0.0
H2171 H 0.67129 0.73867 0.42895 0.0
H2172 H 0.69819 0.74648 0.42829 0.0
H2173 H 0.71247 0.79538 0.43177 0.0
H2174 H 0.68562 0.78784 0.43223 0.0
H2175 H 0.61486 0.75187 0.49052 0.0
H2176 H 0.61894 0.74223 0.46504 0.0
H2177 H 0.6543 0.7899 0.45752 0.0
H2178 H 0.65053 0.79942 0.48316 0.0
H2179 H 0.66446 0.7715 0.45303 0.0
H2180 H 0.61867 0.76868 0.43541 0.0
H2181 H 0.59178 0.76093 0.43596 0.0
H2182 H 0.57723 0.71197 0.43022 0.0
H2183 H 0.60405 0.71942 0.42985 0.0
C2184 C 0.66967 0.74729 0.3825 0.0
C2185 C 0.66385 0.73107 0.37931 0.0
C2186 C 0.66445 0.75267 0.39484 0.0
C2187 C 0.65337 0.74197 0.40426 0.0
C2188 C 0.64704 0.72573 0.40069 0.0
C2189 C 0.65227 0.72031 0.38835 0.0
C2190 C 0.64916 0.74782 0.41844 0.0
C2191 C 0.6339 0.74331 0.41962 0.0
C2192 C 0.66028 0.75813 0.43063 0.0
C2193 C 0.67644 0.76269 0.43046 0.0
C2194 C 0.68016 0.75108 0.42945 0.0
C2195 C 0.6954 0.75546 0.42913 0.0
C2196 C 0.70703 0.77142 0.42994 0.0
C2197 C 0.70345 0.78303 0.43112 0.0
C2198 C 0.68823 0.77871 0.43142 0.0
C2199 C 0.62327 0.76028 0.48324 0.0
C2200 C 0.63244 0.77635 0.48877 0.0
C2201 C 0.62558 0.75479 0.46868 0.0
C2202 C 0.6369 0.76535 0.4593 0.0
C2203 C 0.64556 0.78152 0.46456 0.0
C2204 C 0.6434 0.78695 0.47918 0.0
C2205 C 0.6407 0.75948 0.44475 0.0
C2206 C 0.65593 0.76388 0.44354 0.0
C2207 C 0.62953 0.74912 0.43256 0.0
C2208 C 0.61339 0.74461 0.43275 0.0
C2209 C 0.60974 0.75626 0.43439 0.0
C2210 C 0.59451 0.75192 0.43465 0.0
C2211 C 0.58281 0.73597 0.43316 0.0
C2212 C 0.58631 0.72432 0.43138 0.0
C2213 C 0.60152 0.72859 0.43113 0.0
H2214 H 0.57102 0.73264 0.43336 0.0
H2215 H 0.71882 0.77478 0.42969 0.0
H2216 H 0.28172 0.94852 0.45889 0.0
H2217 H 0.26931 0.92933 0.47817 0.0
H2218 H 0.26578 0.89274 0.44521 0.0
H2219 H 0.27816 0.91187 0.42577 0.0
H2220 H 0.23875 0.88392 0.45799 0.0
H2221 H 0.29083 0.9066 0.47694 0.0
H2222 H 0.3171 0.92816 0.48584 0.0
H2223 H 0.30029 0.94297 0.52448 0.0
H2224 H 0.27388 0.92162 0.51569 0.0
H2225 H 0.20824 0.82675 0.5128 0.0
H2226 H 0.22537 0.84436 0.49427 0.0
H2227 H 0.23495 0.88476 0.5255 0.0
H2228 H 0.21857 0.86725 0.54456 0.0
H2229 H 0.26008 0.89049 0.51291 0.0
H2230 H 0.20828 0.86994 0.49299 0.0
H2231 H 0.18172 0.849 0.48422 0.0
H2232 H 0.19768 0.831 0.44748 0.0
H2233 H 0.22436 0.85172 0.45618 0.0
C2234 C 0.27844 0.93642 0.45577 0.0
C2235 C 0.2809 0.93172 0.44078 0.0
C2236 C 0.2714 0.92548 0.46684 0.0
C2237 C 0.26673 0.90964 0.46316 0.0
C2238 C 0.26934 0.90493 0.44829 0.0
C2239 C 0.27645 0.91588 0.43722 0.0
C2240 C 0.25838 0.89787 0.47455 0.0
C2241 C 0.24351 0.88517 0.46991 0.0
C2242 C 0.26448 0.89976 0.4902 0.0
C2243 C 0.28036 0.91258 0.49557 0.0
C2244 C 0.29272 0.91453 0.48726 0.0
C2245 C 0.30764 0.9267 0.4923 0.0
C2246 C 0.31036 0.93695 0.5057 0.0
C2247 C 0.29816 0.93503 0.5141 0.0
C2248 C 0.28322 0.92288 0.50911 0.0
C2249 C 0.21423 0.83938 0.51591 0.0
C2250 C 0.21191 0.84557 0.53015 0.0
C2251 C 0.22389 0.84944 0.5052 0.0
C2252 C 0.23121 0.86589 0.50834 0.0
C2253 C 0.22934 0.87211 0.52276 0.0
C2254 C 0.21982 0.86207 0.53357 0.0
C2255 C 0.24037 0.87662 0.49641 0.0
C2256 C 0.25537 0.88913 0.50094 0.0
C2257 C 0.23435 0.87465 0.48068 0.0
C2258 C 0.21831 0.86228 0.47534 0.0
C2259 C 0.20613 0.86145 0.48311 0.0
C2260 C 0.19105 0.84963 0.47814 0.0
C2261 C 0.18802 0.83864 0.46533 0.0
C2262 C 0.20005 0.8395 0.45742 0.0
C2263 C 0.21515 0.85129 0.46236 0.0
H2264 H 0.17634 0.82949 0.46151 0.0
H2265 H 0.32192 0.94637 0.50958 0.0
H2266 H 0.09166 0.34015 0.39082 0.0
H2267 H 0.10849 0.34501 0.41401 0.0
H2268 H 0.10554 0.38467 0.43112 0.0
H2269 H 0.08879 0.38003 0.4078 0.0
H2270 H 0.1348 0.39089 0.43545 0.0
H2271 H 0.08386 0.34996 0.44571 0.0
H2272 H 0.05933 0.32456 0.43993 0.0
H2273 H 0.08273 0.29983 0.43959 0.0
H2274 H 0.10743 0.32511 0.44515 0.0
H2275 H 0.15563 0.39534 0.51726 0.0
H2276 H 0.14413 0.39394 0.49123 0.0
H2277 H 0.14522 0.35265 0.47611 0.0
H2278 H 0.15663 0.35395 0.50217 0.0
H2279 H 0.11767 0.34749 0.47011 0.0
H2280 H 0.16858 0.38823 0.46143 0.0
H2281 H 0.19316 0.41359 0.46718 0.0
H2282 H 0.17024 0.43866 0.46457 0.0
H2283 H 0.14549 0.41345 0.45906 0.0
C2284 C 0.09463 0.34997 0.39946 0.0
C2285 C 0.08876 0.35961 0.39754 0.0
C2286 C 0.10425 0.35272 0.41271 0.0
C2287 C 0.1081 0.36507 0.42437 0.0
C2288 C 0.10268 0.37506 0.42226 0.0
C2289 C 0.09306 0.37234 0.40897 0.0
C2290 C 0.11717 0.36708 0.43909 0.0
C2291 C 0.13101 0.38149 0.44314 0.0
C2292 C 0.11236 0.35466 0.4489 0.0
C2293 C 0.0975 0.33944 0.44569 0.0
C2294 C 0.08378 0.33911 0.44429 0.0
C2295 C 0.06985 0.32474 0.44107 0.0
C2296 C 0.06947 0.31059 0.43935 0.0
C2297 C 0.08304 0.31079 0.4409 0.0
C2298 C 0.097 0.32514 0.4441 0.0
C2299 C 0.15371 0.38617 0.50827 0.0
C2300 C 0.15692 0.37469 0.51175 0.0
C2301 C 0.14714 0.38538 0.4934 0.0
C2302 C 0.14385 0.37321 0.4817 0.0
C2303 C 0.1476 0.36209 0.48499 0.0
C2304 C 0.15407 0.36283 0.49987 0.0
C2305 C 0.1354 0.37131 0.46652 0.0
C2306 C 0.12158 0.3569 0.4624 0.0
C2307 C 0.14028 0.38373 0.45668 0.0
C2308 C 0.15515 0.39893 0.45997 0.0
C2309 C 0.16876 0.39914 0.46221 0.0
C2310 C 0.18273 0.41349 0.4654 0.0
C2311 C 0.18326 0.42772 0.46627 0.0
C2312 C 0.16982 0.42763 0.46391 0.0
C2313 C 0.15582 0.41331 0.46074 0.0
H2314 H 0.19408 0.43881 0.46873 0.0
H2315 H 0.05868 0.29947 0.43686 0.0
H2316 H 0.10503 0.33652 0.33059 0.0
H2317 H 0.11269 0.32888 0.30646 0.0
H2318 H 0.06656 0.30566 0.28555 0.0
H2319 H 0.05869 0.31303 0.30983 0.0
H2320 H 0.07948 0.28873 0.27796 0.0
H2321 H 0.09266 0.34205 0.2766 0.0
H2322 H 0.10417 0.36994 0.28675 0.0
H2323 H 0.14865 0.37649 0.28925 0.0
H2324 H 0.13737 0.34855 0.27933 0.0
H2325 H 0.10104 0.2901 0.19791 0.0
H2326 H 0.09052 0.29299 0.22245 0.0
H2327 H 0.13513 0.31542 0.24702 0.0
H2328 H 0.14566 0.31235 0.22268 0.0
H2329 H 0.12171 0.33233 0.25204 0.0
H2330 H 0.10789 0.2784 0.25314 0.0
H2331 H 0.09588 0.25055 0.24254 0.0
H2332 H 0.05196 0.24532 0.2396 0.0
H2333 H 0.06375 0.27322 0.24999 0.0
C2334 C 0.09646 0.32966 0.32093 0.0
C2335 C 0.08129 0.32553 0.32206 0.0
C2336 C 0.10087 0.32533 0.30713 0.0
C2337 C 0.09025 0.31695 0.29411 0.0
C2338 C 0.07494 0.31218 0.29544 0.0
C2339 C 0.07048 0.31644 0.3093 0.0
C2340 C 0.09536 0.31389 0.27893 0.0
C2341 C 0.08858 0.29827 0.27216 0.0
C2342 C 0.10731 0.32633 0.27147 0.0
C2343 C 0.11415 0.34317 0.27736 0.0
C2344 C 0.10488 0.3494 0.27943 0.0
C2345 C 0.11137 0.36523 0.28512 0.0
C2346 C 0.12713 0.37497 0.28867 0.0
C2347 C 0.13644 0.36892 0.28651 0.0
C2348 C 0.13001 0.35309 0.28084 0.0
C2349 C 0.10855 0.29542 0.2086 0.0
C2350 C 0.12421 0.30111 0.20832 0.0
C2351 C 0.10253 0.29708 0.22259 0.0
C2352 C 0.11205 0.3044 0.23654 0.0
C2353 C 0.12761 0.30981 0.23635 0.0
C2354 C 0.13362 0.30813 0.22242 0.0
C2355 C 0.10605 0.30716 0.25119 0.0
C2356 C 0.11261 0.32278 0.25782 0.0
C2357 C 0.09383 0.29472 0.2584 0.0
C2358 C 0.08673 0.27795 0.25218 0.0
C2359 C 0.09569 0.27135 0.2501 0.0
C2360 C 0.08892 0.25555 0.24416 0.0
C2361 C 0.07317 0.24619 0.24036 0.0
C2362 C 0.06416 0.2526 0.24253 0.0
C2363 C 0.07088 0.2684 0.24845 0.0
H2364 H 0.06795 0.23396 0.23576 0.0
H2365 H 0.13212 0.38722 0.29308 0.0
H2366 H 0.70186 0.74708 0.32424 0.0
H2367 H 0.7085 0.76686 0.30557 0.0
H2368 H 0.6839 0.7298 0.26762 0.0
H2369 H 0.67763 0.70996 0.28614 0.0
H2370 H 0.70904 0.75343 0.2575 0.0
H2371 H 0.66777 0.74855 0.2865 0.0
H2372 H 0.65477 0.74837 0.31044 0.0
H2373 H 0.69026 0.79658 0.32441 0.0
H2374 H 0.70359 0.79697 0.30064 0.0
H2375 H 0.6945 0.79614 0.20385 0.0
H2376 H 0.69235 0.7775 0.2223 0.0
H2377 H 0.71974 0.8162 0.25803 0.0
H2378 H 0.72164 0.83488 0.23975 0.0
H2379 H 0.6943 0.79245 0.2695 0.0
H2380 H 0.73487 0.79732 0.23931 0.0
H2381 H 0.74712 0.79711 0.21491 0.0
H2382 H 0.71189 0.74848 0.20251 0.0
H2383 H 0.69932 0.74845 0.22677 0.0
C2384 C 0.698 0.74314 0.31189 0.0
C2385 C 0.6891 0.72695 0.30669 0.0
C2386 C 0.70175 0.75446 0.30124 0.0
C2387 C 0.69643 0.74981 0.28525 0.0
C2388 C 0.68809 0.73367 0.27991 0.0
C2389 C 0.68448 0.72234 0.29053 0.0
C2390 C 0.69896 0.76171 0.27422 0.0
C2391 C 0.70568 0.76186 0.26006 0.0
C2392 C 0.69482 0.7729 0.27766 0.0
C2393 C 0.68675 0.77273 0.29188 0.0
C2394 C 0.67285 0.75908 0.29473 0.0
C2395 C 0.66542 0.75894 0.30826 0.0
C2396 C 0.67171 0.77244 0.31896 0.0
C2397 C 0.68542 0.78612 0.31612 0.0
C2398 C 0.69291 0.78631 0.30262 0.0
C2399 C 0.70003 0.80067 0.21565 0.0
C2400 C 0.70824 0.81698 0.22036 0.0
C2401 C 0.69891 0.79003 0.22613 0.0
C2402 C 0.70601 0.79548 0.24149 0.0
C2403 C 0.71423 0.81175 0.24621 0.0
C2404 C 0.7154 0.82241 0.23572 0.0
C2405 C 0.70437 0.78417 0.2528 0.0
C2406 C 0.69776 0.78409 0.267 0.0
C2407 C 0.7085 0.77299 0.24933 0.0
C2408 C 0.7161 0.77292 0.2348 0.0
C2409 C 0.72968 0.78661 0.23133 0.0
C2410 C 0.73669 0.78653 0.21754 0.0
C2411 C 0.73028 0.7728 0.20716 0.0
C2412 C 0.71685 0.75911 0.21056 0.0
C2413 C 0.70979 0.75913 0.22435 0.0
H2414 H 0.73575 0.77276 0.1965 0.0
H2415 H 0.66594 0.77231 0.32943 0.0
H2416 H 0.26128 0.92374 0.36095 0.0
H2417 H 0.2463 0.91535 0.33566 0.0
H2418 H 0.24044 0.95478 0.34197 0.0
H2419 H 0.25524 0.96312 0.36762 0.0
H2420 H 0.21454 0.92788 0.32758 0.0
H2421 H 0.26798 0.95818 0.3205 0.0
H2422 H 0.29472 0.96556 0.32458 0.0
H2423 H 0.28263 0.9202 0.30273 0.0
H2424 H 0.25575 0.91242 0.29879 0.0
H2425 H 0.20002 0.92574 0.24326 0.0
H2426 H 0.21005 0.93403 0.27094 0.0
H2427 H 0.21586 0.89463 0.27181 0.0
H2428 H 0.20543 0.88596 0.24441 0.0
H2429 H 0.24211 0.92382 0.28246 0.0
H2430 H 0.1883 0.89347 0.29053 0.0
H2431 H 0.16161 0.88635 0.28695 0.0
H2432 H 0.17481 0.93279 0.30656 0.0
H2433 H 0.20164 0.94027 0.31004 0.0
C2434 C 0.25664 0.93053 0.35709 0.0
C2435 C 0.25962 0.94422 0.36617 0.0
C2436 C 0.24809 0.92572 0.34262 0.0
C2437 C 0.24256 0.93464 0.33679 0.0
C2438 C 0.24469 0.94778 0.34624 0.0
C2439 C 0.25316 0.95254 0.36086 0.0
C2440 C 0.23562 0.93083 0.32038 0.0
C2441 C 0.22063 0.92722 0.31767 0.0
C2442 C 0.24357 0.9299 0.30748 0.0
C2443 C 0.25981 0.93467 0.30946 0.0
C2444 C 0.271 0.94974 0.31664 0.0
C2445 C 0.28619 0.954 0.31893 0.0
C2446 C 0.29037 0.94334 0.31395 0.0
C2447 C 0.27937 0.92843 0.3066 0.0
C2448 C 0.26416 0.9241 0.30433 0.0
C2449 C 0.20316 0.91867 0.24942 0.0
C2450 C 0.20205 0.90526 0.24154 0.0
C2451 C 0.20894 0.92346 0.26522 0.0
C2452 C 0.21373 0.91496 0.27337 0.0
C2453 C 0.21233 0.90141 0.26567 0.0
C2454 C 0.20645 0.89654 0.24997 0.0
C2455 C 0.22091 0.92051 0.28968 0.0
C2456 C 0.23604 0.92457 0.29235 0.0
C2457 C 0.21312 0.92197 0.30245 0.0
C2458 C 0.19701 0.91749 0.30037 0.0
C2459 C 0.18554 0.90222 0.29393 0.0
C2460 C 0.17038 0.8981 0.29195 0.0
C2461 C 0.16652 0.90912 0.29648 0.0
C2462 C 0.17782 0.92427 0.30303 0.0
C2463 C 0.193 0.92845 0.30502 0.0
H2464 H 0.15478 0.90591 0.29494 0.0
H2465 H 0.30212 0.94665 0.31575 0.0
H2466 H 0.70041 0.94607 0.37185 0.0
H2467 H 0.70876 0.93465 0.35111 0.0
H2468 H 0.67476 0.93115 0.31781 0.0
H2469 H 0.66653 0.94272 0.33825 0.0
H2470 H 0.67526 0.90273 0.31933 0.0
H2471 H 0.70923 0.95922 0.31535 0.0
H2472 H 0.72892 0.98641 0.32594 0.0
H2473 H 0.75974 0.97148 0.33692 0.0
H2474 H 0.74012 0.94412 0.32658 0.0
H2475 H 0.68885 0.89151 0.24189 0.0
H2476 H 0.68536 0.90142 0.2673 0.0
H2477 H 0.72743 0.90797 0.28681 0.0
H2478 H 0.7311 0.89814 0.26109 0.0
H2479 H 0.72528 0.93278 0.29602 0.0
H2480 H 0.69337 0.8774 0.29677 0.0
H2481 H 0.6741 0.84991 0.28664 0.0
H2482 H 0.63993 0.86163 0.28312 0.0
H2483 H 0.65904 0.88925 0.293 0.0
C2484 C 0.69477 0.94292 0.36009 0.0
C2485 C 0.68282 0.9453 0.35667 0.0
C2486 C 0.69956 0.93643 0.34828 0.0
C2487 C 0.69234 0.93207 0.33299 0.0
C2488 C 0.68043 0.93443 0.32957 0.0
C2489 C 0.6758 0.9411 0.34125 0.0
C2490 C 0.6969 0.9248 0.32043 0.0
C2491 C 0.68617 0.90927 0.31418 0.0
C2492 C 0.71137 0.93317 0.31422 0.0
C2493 C 0.72314 0.9496 0.3204 0.0
C2494 C 0.72015 0.9617 0.32017 0.0
C2495 C 0.73131 0.97715 0.3261 0.0
C2496 C 0.74555 0.98066 0.33216 0.0
C2497 C 0.74868 0.96873 0.33226 0.0
C2498 C 0.73755 0.95326 0.32637 0.0
C2499 C 0.69728 0.89486 0.25164 0.0
C2500 C 0.71012 0.8938 0.2496 0.0
C2501 C 0.69527 0.90054 0.26616 0.0
C2502 C 0.70595 0.90509 0.27906 0.0
C2503 C 0.71899 0.90439 0.27703 0.0
C2504 C 0.72107 0.89879 0.26238 0.0
C2505 C 0.70339 0.91084 0.29448 0.0
C2506 C 0.71448 0.92605 0.30133 0.0
C2507 C 0.68929 0.90209 0.30141 0.0
C2508 C 0.67768 0.88544 0.29556 0.0
C2509 C 0.68177 0.87415 0.29374 0.0
C2510 C 0.67087 0.85853 0.28805 0.0
C2511 C 0.65581 0.85403 0.28422 0.0
C2512 C 0.65161 0.86513 0.2861 0.0
C2513 C 0.66247 0.88077 0.29177 0.0
H2514 H 0.64739 0.84194 0.27981 0.0
H2515 H 0.75418 0.99263 0.33673 0.0
H2516 H 0.08229 0.78015 0.3298 0.0
H2517 H 0.09337 0.79739 0.30877 0.0
H2518 H 0.05197 0.76754 0.27877 0.0
H2519 H 0.04095 0.74987 0.29968 0.0
H2520 H 0.07526 0.77372 0.26301 0.0
H2521 H 0.06281 0.8055 0.29485 0.0
H2522 H 0.06153 0.81945 0.31918 0.0
H2523 H 0.11049 0.8487 0.32437 0.0
H2524 H 0.11208 0.83478 0.30019 0.0
H2525 H 0.10612 0.82756 0.20395 0.0
H2526 H 0.08936 0.81262 0.2243 0.0
H2527 H 0.1282 0.83382 0.25844 0.0
H2528 H 0.14495 0.849 0.23826 0.0
H2529 H 0.10306 0.83221 0.27071 0.0
H2530 H 0.11472 0.79762 0.2403 0.0
H2531 H 0.11554 0.78373 0.21566 0.0
H2532 H 0.06684 0.75985 0.2075 0.0
H2533 H 0.06576 0.77377 0.23201 0.0
C2534 C 0.07545 0.77733 0.31881 0.0
C2535 C 0.06075 0.76361 0.3164 0.0
C2536 C 0.08177 0.78728 0.3068 0.0
C2537 C 0.07344 0.78391 0.29223 0.0
C2538 C 0.05861 0.77041 0.28992 0.0
C2539 C 0.05232 0.76034 0.30189 0.0
C2540 C 0.0807 0.79386 0.2791 0.0
C2541 C 0.08103 0.78649 0.26461 0.0
C2542 C 0.08844 0.81055 0.2812 0.0
C2543 C 0.08756 0.81901 0.29575 0.0
C2544 C 0.07331 0.81483 0.30124 0.0
C2545 C 0.07253 0.82275 0.315 0.0
C2546 C 0.08592 0.83494 0.32333 0.0
C2547 C 0.10012 0.83926 0.3179 0.0
C2548 C 0.10097 0.83137 0.30416 0.0
C2549 C 0.11104 0.82919 0.21585 0.0
C2550 C 0.12685 0.83935 0.2195 0.0
C2551 C 0.10147 0.82059 0.22743 0.0
C2552 C 0.10757 0.82201 0.24283 0.0
C2553 C 0.12328 0.83254 0.24662 0.0
C2554 C 0.13284 0.84109 0.23505 0.0
C2555 C 0.09779 0.81204 0.25487 0.0
C2556 C 0.09703 0.81942 0.26911 0.0
C2557 C 0.08954 0.79535 0.25251 0.0
C2558 C 0.09018 0.78686 0.23788 0.0
C2559 C 0.1042 0.78949 0.23319 0.0
C2560 C 0.10471 0.7816 0.21926 0.0
C2561 C 0.09125 0.77095 0.21 0.0
C2562 C 0.07725 0.76812 0.21467 0.0
C2563 C 0.07668 0.776 0.22859 0.0
H2564 H 0.09167 0.76485 0.19921 0.0
H2565 H 0.08529 0.84105 0.33398 0.0
H2566 H 0.23963 0.30911 0.34192 0.0
H2567 H 0.223 0.30317 0.31802 0.0
H2568 H 0.26089 0.31581 0.28936 0.0
H2569 H 0.27752 0.32164 0.31306 0.0
H2570 H 0.24513 0.33066 0.28276 0.0
H2571 H 0.23438 0.27842 0.28981 0.0
H2572 H 0.22625 0.25522 0.30459 0.0
H2573 H 0.18241 0.24941 0.30912 0.0
H2574 H 0.19036 0.27272 0.29455 0.0
H2575 H 0.21314 0.30537 0.20534 0.0
H2576 H 0.22583 0.30777 0.2309 0.0
H2577 H 0.18334 0.29039 0.25281 0.0
H2578 H 0.17049 0.2879 0.22709 0.0
H2579 H 0.19944 0.27813 0.26439 0.0
H2580 H 0.20908 0.32903 0.25652 0.0
H2581 H 0.21669 0.35233 0.24211 0.0
H2582 H 0.26194 0.36123 0.24005 0.0
H2583 H 0.25454 0.33783 0.25425 0.0
C2584 C 0.24439 0.31051 0.33051 0.0
C2585 C 0.2599 0.31587 0.32938 0.0
C2586 C 0.23487 0.30706 0.31689 0.0
C2587 C 0.24074 0.30904 0.30196 0.0
C2588 C 0.25616 0.31423 0.3008 0.0
C2589 C 0.26563 0.31751 0.31436 0.0
C2590 C 0.23105 0.30633 0.28751 0.0
C2591 C 0.23523 0.31914 0.27866 0.0
C2592 C 0.21782 0.29144 0.28252 0.0
C2593 C 0.21303 0.27742 0.29126 0.0
C2594 C 0.22306 0.27229 0.29409 0.0
C2595 C 0.21847 0.2591 0.3024 0.0
C2596 C 0.20384 0.25088 0.30784 0.0
C2597 C 0.19375 0.2558 0.30493 0.0
C2598 C 0.19829 0.269 0.29664 0.0
C2599 C 0.20649 0.30207 0.2156 0.0
C2600 C 0.19088 0.29667 0.21428 0.0
C2601 C 0.21374 0.30342 0.23018 0.0
C2602 C 0.20559 0.29954 0.2438 0.0
C2603 C 0.18985 0.2935 0.24244 0.0
C2604 C 0.18253 0.29208 0.22778 0.0
C2605 C 0.21376 0.30238 0.25943 0.0
C2606 C 0.20928 0.28967 0.26855 0.0
C2607 C 0.22665 0.31742 0.2648 0.0
C2608 C 0.23121 0.33159 0.25635 0.0
C2609 C 0.22062 0.33589 0.2529 0.0
C2610 C 0.2249 0.34912 0.24478 0.0
C2611 C 0.23978 0.35824 0.24014 0.0
C2612 C 0.25042 0.35415 0.24364 0.0
C2613 C 0.24619 0.34091 0.25174 0.0
H2614 H 0.24307 0.36848 0.23385 0.0
H2615 H 0.20031 0.24066 0.31426 0.0
H2616 H 0.28119 0.35973 0.41783 0.0
H2617 H 0.27442 0.36955 0.44129 0.0
H2618 H 0.22669 0.33524 0.42866 0.0
H2619 H 0.23332 0.32545 0.40512 0.0
H2620 H 0.23174 0.36411 0.43943 0.0
H2621 H 0.24617 0.32813 0.4555 0.0
H2622 H 0.26359 0.31855 0.458 0.0
H2623 H 0.29715 0.3623 0.48437 0.0
H2624 H 0.27999 0.37223 0.48182 0.0
H2625 H 0.19582 0.35377 0.51025 0.0
H2626 H 0.20644 0.35141 0.48581 0.0
H2627 H 0.252 0.38421 0.50701 0.0
H2628 H 0.24143 0.38597 0.53193 0.0
H2629 H 0.2508 0.35991 0.49184 0.0
H2630 H 0.23497 0.39473 0.47851 0.0
H2631 H 0.21734 0.40407 0.47612 0.0
H2632 H 0.18651 0.36293 0.44474 0.0
H2633 H 0.20384 0.35322 0.4471 0.0
C2634 C 0.26924 0.35437 0.41996 0.0
C2635 C 0.25779 0.34172 0.40967 0.0
C2636 C 0.2654 0.35997 0.43339 0.0
C2637 C 0.25006 0.353 0.43679 0.0
C2638 C 0.23859 0.34078 0.42624 0.0
C2639 C 0.24242 0.33515 0.41283 0.0
C2640 C 0.24592 0.35786 0.45171 0.0
C2641 C 0.23583 0.36313 0.4509 0.0
C2642 C 0.25162 0.357 0.46666 0.0
C2643 C 0.26188 0.35099 0.46831 0.0
C2644 C 0.25731 0.33575 0.46172 0.0
C2645 C 0.26713 0.33025 0.46317 0.0
C2646 C 0.28149 0.33983 0.4713 0.0
C2647 C 0.28604 0.35491 0.47805 0.0
C2648 C 0.27627 0.36047 0.47662 0.0
C2649 C 0.20812 0.3604 0.5098 0.0
C2650 C 0.21778 0.36995 0.52313 0.0
C2651 C 0.21417 0.35923 0.4957 0.0
C2652 C 0.23002 0.36782 0.49446 0.0
C2653 C 0.23973 0.37753 0.50767 0.0
C2654 C 0.23367 0.37862 0.52186 0.0
C2655 C 0.23637 0.36593 0.47962 0.0
C2656 C 0.24688 0.36118 0.48041 0.0
C2657 C 0.23106 0.36731 0.46466 0.0
C2658 C 0.22068 0.3732 0.46306 0.0
C2659 C 0.22439 0.38763 0.47117 0.0
C2660 C 0.21445 0.39299 0.46981 0.0
C2661 C 0.20081 0.38408 0.4603 0.0
C2662 C 0.19708 0.36981 0.4521 0.0
C2663 C 0.20697 0.36439 0.45342 0.0
H2664 H 0.19314 0.38824 0.45926 0.0
H2665 H 0.28907 0.33555 0.4724 0.0
H2666 H 0.67627 0.95473 0.4369 0.0
H2667 H 0.66973 0.93489 0.45541 0.0
H2668 H 0.62578 0.90431 0.4299 0.0
H2669 H 0.63223 0.92416 0.41121 0.0
H2670 H 0.62461 0.90525 0.46318 0.0
H2671 H 0.6518 0.89667 0.42329 0.0
H2672 H 0.67287 0.90431 0.40593 0.0
H2673 H 0.70461 0.91936 0.44652 0.0
H2674 H 0.68376 0.91205 0.46414 0.0
H2675 H 0.61134 0.8369 0.4997 0.0
H2676 H 0.61392 0.8552 0.48055 0.0
H2677 H 0.66022 0.8885 0.4995 0.0
H2678 H 0.65769 0.87039 0.51867 0.0
H2679 H 0.65844 0.88445 0.46779 0.0
H2680 H 0.63153 0.89426 0.50768 0.0
H2681 H 0.61058 0.88698 0.52513 0.0
H2682 H 0.57834 0.86967 0.48467 0.0
H2683 H 0.59909 0.87664 0.46697 0.0
C2684 C 0.66515 0.94386 0.43526 0.0
C2685 C 0.65481 0.94097 0.4225 0.0
C2686 C 0.66145 0.93252 0.44584 0.0
C2687 C 0.64736 0.91808 0.44388 0.0
C2688 C 0.63674 0.91538 0.43156 0.0
C2689 C 0.64047 0.92671 0.42088 0.0
C2690 C 0.64408 0.90563 0.45439 0.0
C2691 C 0.63183 0.90049 0.46404 0.0
C2692 C 0.65366 0.89962 0.4556 0.0
C2693 C 0.66623 0.90394 0.44504 0.0
C2694 C 0.66329 0.90172 0.42852 0.0
C2695 C 0.67519 0.90598 0.41863 0.0
C2696 C 0.69008 0.91235 0.42512 0.0
C2697 C 0.69308 0.91444 0.44152 0.0
C2698 C 0.68122 0.91023 0.45146 0.0
C2699 C 0.62201 0.8482 0.49988 0.0
C2700 C 0.63434 0.85216 0.51064 0.0
C2701 C 0.62347 0.85863 0.48893 0.0
C2702 C 0.63725 0.87323 0.48864 0.0
C2703 C 0.64951 0.87725 0.49945 0.0
C2704 C 0.64807 0.86686 0.51036 0.0
C2705 C 0.63914 0.88427 0.47687 0.0
C2706 C 0.65113 0.88911 0.4669 0.0
C2707 C 0.62931 0.88998 0.47539 0.0
C2708 C 0.61684 0.8858 0.48601 0.0
C2709 C 0.61996 0.88877 0.5025 0.0
C2710 C 0.60812 0.88473 0.51244 0.0
C2711 C 0.59313 0.87782 0.50601 0.0
C2712 C 0.58996 0.87499 0.48963 0.0
C2713 C 0.60175 0.87899 0.47964 0.0
H2714 H 0.58399 0.87471 0.51372 0.0
H2715 H 0.69928 0.91563 0.41745 0.0
H2716 H 0.06248 0.74477 0.38622 0.0
H2717 H 0.07936 0.75443 0.41029 0.0
H2718 H 0.10415 0.73441 0.39095 0.0
H2719 H 0.08712 0.72448 0.36673 0.0
H2720 H 0.09775 0.72793 0.42144 0.0
H2721 H 0.12016 0.77368 0.3933 0.0
H2722 H 0.12065 0.79381 0.37782 0.0
H2723 H 0.10406 0.80884 0.4165 0.0
H2724 H 0.10325 0.78863 0.43214 0.0
H2725 H 0.15235 0.76704 0.4887 0.0
H2726 H 0.14167 0.75897 0.46117 0.0
H2727 H 0.11079 0.77446 0.4709 0.0
H2728 H 0.12109 0.78221 0.49833 0.0
H2729 H 0.12421 0.78411 0.44315 0.0
H2730 H 0.09859 0.73617 0.46956 0.0
H2731 H 0.09755 0.71579 0.48509 0.0
H2732 H 0.1201 0.70492 0.44951 0.0
H2733 H 0.12147 0.72542 0.43388 0.0
C2734 C 0.07155 0.74245 0.38701 0.0
C2735 C 0.07348 0.7339 0.37451 0.0
C2736 C 0.08124 0.74805 0.40077 0.0
C2737 C 0.09314 0.74533 0.40232 0.0
C2738 C 0.09507 0.7367 0.38995 0.0
C2739 C 0.08536 0.73108 0.37611 0.0
C2740 C 0.10324 0.75122 0.41711 0.0
C2741 C 0.10383 0.74027 0.42603 0.0
C2742 C 0.11098 0.76729 0.42319 0.0
C2743 C 0.11156 0.77956 0.41386 0.0
C2744 C 0.11652 0.7812 0.39847 0.0
C2745 C 0.11687 0.79264 0.38967 0.0
C2746 C 0.11236 0.80258 0.39616 0.0
C2747 C 0.10754 0.80112 0.41149 0.0
C2748 C 0.10715 0.7897 0.42034 0.0
C2749 C 0.14325 0.76867 0.48497 0.0
C2750 C 0.13763 0.77534 0.49572 0.0
C2751 C 0.1372 0.76411 0.46925 0.0
C2752 C 0.12542 0.7661 0.46402 0.0
C2753 C 0.11996 0.77294 0.47465 0.0
C2754 C 0.12593 0.77743 0.49033 0.0
C2755 C 0.11838 0.76076 0.44762 0.0
C2756 C 0.11838 0.77182 0.4384 0.0
C2757 C 0.11117 0.74481 0.44129 0.0
C2758 C 0.11031 0.73246 0.45066 0.0
C2759 C 0.10345 0.72953 0.46512 0.0
C2760 C 0.10277 0.71794 0.47393 0.0
C2761 C 0.1088 0.7091 0.46831 0.0
C2762 C 0.11547 0.71181 0.45386 0.0
C2763 C 0.1162 0.72341 0.44502 0.0
H2764 H 0.10826 0.70013 0.47514 0.0
H2765 H 0.11264 0.81142 0.38932 0.0
H2766 H 0.29165 0.03397 0.70513 0.0
H2767 H 0.28417 0.04499 0.72703 0.0
H2768 H 0.33167 0.07895 0.74135 0.0
H2769 H 0.33918 0.06771 0.7199 0.0
H2770 H 0.3173 0.06648 0.76591 0.0
H2771 H 0.30777 0.08864 0.72187 0.0
H2772 H 0.29626 0.08794 0.69583 0.0
H2773 H 0.25142 0.06005 0.71227 0.0
H2774 H 0.26266 0.06042 0.73836 0.0
H2775 H 0.31576 0.1241 0.81505 0.0
H2776 H 0.31767 0.11132 0.79054 0.0
H2777 H 0.27084 0.07311 0.79172 0.0
H2778 H 0.26893 0.08554 0.81665 0.0
H2779 H 0.28203 0.08539 0.75979 0.0
H2780 H 0.2926 0.06466 0.80456 0.0
H2781 H 0.30503 0.06723 0.83069 0.0
H2782 H 0.34912 0.09413 0.81236 0.0
H2783 H 0.33695 0.09195 0.78618 0.0
C2784 C 0.30048 0.04383 0.71291 0.0
C2785 C 0.316 0.04994 0.71081 0.0
C2786 C 0.29619 0.05017 0.72538 0.0
C2787 C 0.30736 0.06289 0.73578 0.0
C2788 C 0.32284 0.0691 0.73353 0.0
C2789 C 0.32712 0.06268 0.72123 0.0
C2790 C 0.30309 0.06948 0.74939 0.0
C2791 C 0.30968 0.07071 0.76448 0.0
C2792 C 0.29282 0.07464 0.74767 0.0
C2793 C 0.28605 0.0744 0.732 0.0
C2794 C 0.29545 0.08225 0.71989 0.0
C2795 C 0.28898 0.08193 0.70513 0.0
C2796 C 0.27312 0.07392 0.70238 0.0
C2797 C 0.2637 0.06623 0.7144 0.0
C2798 C 0.27012 0.0665 0.72918 0.0
C2799 C 0.30583 0.113 0.81011 0.0
C2800 C 0.29228 0.10569 0.81797 0.0
C2801 C 0.30691 0.10581 0.79603 0.0
C2802 C 0.29443 0.09125 0.78946 0.0
C2803 C 0.28056 0.08438 0.79665 0.0
C2804 C 0.2795 0.09152 0.81086 0.0
C2805 C 0.29653 0.08262 0.77603 0.0
C2806 C 0.28953 0.08098 0.76109 0.0
C2807 C 0.30652 0.07719 0.7778 0.0
C2808 C 0.31387 0.07826 0.79345 0.0
C2809 C 0.30495 0.07123 0.80613 0.0
C2810 C 0.31194 0.0726 0.82095 0.0
C2811 C 0.32786 0.08087 0.82319 0.0
C2812 C 0.3368 0.08774 0.81061 0.0
C2813 C 0.32986 0.08643 0.79577 0.0
H2814 H 0.33325 0.08193 0.83467 0.0
H2815 H 0.26813 0.07369 0.69095 0.0
H2816 H 0.93519 0.27015 0.77155 0.0
H2817 H 0.92289 0.25108 0.79086 0.0
H2818 H 0.94 0.22348 0.7703 0.0
H2819 H 0.95228 0.24252 0.75067 0.0
H2820 H 0.90998 0.2051 0.77605 0.0
H2821 H 0.95602 0.24526 0.80509 0.0
H2822 H 0.97597 0.27244 0.81544 0.0
H2823 H 0.94296 0.27701 0.84065 0.0
H2824 H 0.92274 0.24994 0.83026 0.0
H2825 H 0.8839 0.1565 0.84026 0.0
H2826 H 0.90055 0.17427 0.82138 0.0
H2827 H 0.88814 0.20773 0.83613 0.0
H2828 H 0.87188 0.19028 0.85531 0.0
H2829 H 0.91847 0.22219 0.8335 0.0
H2830 H 0.87218 0.18335 0.80214 0.0
H2831 H 0.85198 0.15635 0.79155 0.0
H2832 H 0.88554 0.14943 0.77071 0.0
H2833 H 0.90597 0.17634 0.78137 0.0
C2834 C 0.9364 0.26006 0.77112 0.0
C2835 C 0.94476 0.25787 0.75959 0.0
C2836 C 0.92941 0.2492 0.78223 0.0
C2837 C 0.93071 0.23599 0.78215 0.0
C2838 C 0.93893 0.23366 0.7706 0.0
C2839 C 0.94596 0.24455 0.75943 0.0
C2840 C 0.92311 0.22449 0.79398 0.0
C2841 C 0.91205 0.20875 0.78863 0.0
C2842 C 0.92567 0.22934 0.81038 0.0
C2843 C 0.93783 0.24559 0.81679 0.0
C2844 C 0.95298 0.2521 0.81275 0.0
C2845 C 0.96435 0.26748 0.81864 0.0
C2846 C 0.96073 0.27646 0.82867 0.0
C2847 C 0.94574 0.27005 0.83287 0.0
C2848 C 0.93433 0.25468 0.827 0.0
C2849 C 0.88483 0.1677 0.83956 0.0
C2850 C 0.87651 0.17196 0.8492 0.0
C2851 C 0.89425 0.17778 0.82869 0.0
C2852 C 0.89547 0.19225 0.82726 0.0
C2853 C 0.88734 0.1966 0.83703 0.0
C2854 C 0.87793 0.18655 0.84786 0.0
C2855 C 0.9051 0.20291 0.81555 0.0
C2856 C 0.91656 0.2185 0.82093 0.0
C2857 C 0.9029 0.19792 0.7992 0.0
C2858 C 0.89062 0.18178 0.79271 0.0
C2859 C 0.87526 0.17603 0.7954 0.0
C2860 C 0.86377 0.16075 0.78937 0.0
C2861 C 0.86748 0.15116 0.7805 0.0
C2862 C 0.88269 0.15686 0.77761 0.0
C2863 C 0.89423 0.17212 0.78364 0.0
H2864 H 0.85857 0.13934 0.77584 0.0
H2865 H 0.96954 0.28837 0.8332 0.0
H2866 H 0.73771 0.66171 0.74207 0.0
H2867 H 0.75543 0.67153 0.7655 0.0
H2868 H 0.78725 0.71287 0.74311 0.0
H2869 H 0.76938 0.70318 0.71944 0.0
H2870 H 0.80009 0.69668 0.76006 0.0
H2871 H 0.77019 0.71972 0.76811 0.0
H2872 H 0.74639 0.7197 0.76836 0.0
H2873 H 0.72983 0.68595 0.80281 0.0
H2874 H 0.75344 0.68558 0.80259 0.0
H2875 H 0.84122 0.72749 0.83701 0.0
H2876 H 0.82936 0.72576 0.81096 0.0
H2877 H 0.78636 0.68689 0.82376 0.0
H2878 H 0.79791 0.68892 0.84981 0.0
H2879 H 0.78232 0.70745 0.81018 0.0
H2880 H 0.81012 0.68171 0.79998 0.0
H2881 H 0.83314 0.68029 0.79949 0.0
H2882 H 0.8531 0.71767 0.76901 0.0
H2883 H 0.83029 0.71952 0.76956 0.0
C2884 C 0.74849 0.67286 0.74203 0.0
C2885 C 0.75211 0.68171 0.72892 0.0
C2886 C 0.7586 0.67845 0.75545 0.0
C2887 C 0.77258 0.69294 0.75602 0.0
C2888 C 0.77649 0.70165 0.74284 0.0
C2889 C 0.76625 0.69614 0.7294 0.0
C2890 C 0.78268 0.69898 0.77075 0.0
C2891 C 0.79644 0.69941 0.771 0.0
C2892 C 0.77773 0.70228 0.78498 0.0
C2893 C 0.76355 0.70255 0.78525 0.0
C2894 C 0.76142 0.7122 0.77565 0.0
C2895 C 0.74798 0.71227 0.77581 0.0
C2896 C 0.7366 0.70281 0.78558 0.0
C2897 C 0.73866 0.69328 0.79525 0.0
C2898 C 0.75208 0.69315 0.79513 0.0
C2899 C 0.82921 0.71867 0.83427 0.0
C2900 C 0.82053 0.70827 0.84543 0.0
C2901 C 0.82249 0.71761 0.81936 0.0
C2902 C 0.807 0.70611 0.81537 0.0
C2903 C 0.79834 0.69584 0.82656 0.0
C2904 C 0.805 0.69691 0.8414 0.0
C2905 C 0.79954 0.70464 0.79968 0.0
C2906 C 0.78622 0.70508 0.79924 0.0
C2907 C 0.80488 0.70203 0.78534 0.0
C2908 C 0.81859 0.70091 0.785 0.0
C2909 C 0.81948 0.68974 0.79331 0.0
C2910 C 0.83248 0.68884 0.79299 0.0
C2911 C 0.84461 0.69893 0.78428 0.0
C2912 C 0.84372 0.7099 0.77581 0.0
C2913 C 0.83076 0.71089 0.77612 0.0
H2914 H 0.85467 0.69824 0.78408 0.0
H2915 H 0.72619 0.70288 0.78568 0.0
H2916 H 0.7343 0.66619 0.63835 0.0
H2917 H 0.73999 0.65738 0.61361 0.0
H2918 H 0.75235 0.62926 0.63853 0.0
H2919 H 0.74699 0.63836 0.66356 0.0
H2920 H 0.77252 0.6447 0.61755 0.0
H2921 H 0.71837 0.6118 0.61604 0.0
H2922 H 0.692 0.60537 0.61809 0.0
H2923 H 0.69695 0.63329 0.57994 0.0
H2924 H 0.72343 0.64008 0.5778 0.0
H2925 H 0.77911 0.61131 0.54458 0.0
H2926 H 0.76921 0.61264 0.56995 0.0
H2927 H 0.75621 0.64362 0.55269 0.0
H2928 H 0.76537 0.64169 0.52696 0.0
H2929 H 0.73514 0.62306 0.57076 0.0
H2930 H 0.79049 0.65763 0.5744 0.0
H2931 H 0.81649 0.66298 0.57211 0.0
H2932 H 0.80878 0.63055 0.60648 0.0
H2933 H 0.78263 0.6248 0.60879 0.0
C2934 C 0.73818 0.65809 0.63862 0.0
C2935 C 0.74013 0.65292 0.65294 0.0
C2936 C 0.74136 0.65299 0.62442 0.0
C2937 C 0.74635 0.64244 0.62417 0.0
C2938 C 0.74845 0.63735 0.63845 0.0
C2939 C 0.74535 0.64254 0.65273 0.0
C2940 C 0.74965 0.63708 0.60896 0.0
C2941 C 0.76425 0.63968 0.6074 0.0
C2942 C 0.7389 0.63067 0.59566 0.0
C2943 C 0.72293 0.62654 0.59683 0.0
C2944 C 0.71387 0.61666 0.60815 0.0
C2945 C 0.6989 0.61294 0.60932 0.0
C2946 C 0.69282 0.61894 0.59917 0.0
C2947 C 0.70168 0.62865 0.5878 0.0
C2948 C 0.71667 0.63242 0.58659 0.0
C2949 C 0.77377 0.61806 0.546 0.0
C2950 C 0.7731 0.62646 0.53373 0.0
C2951 C 0.76829 0.61896 0.5606 0.0
C2952 C 0.76227 0.62849 0.56331 0.0
C2953 C 0.76092 0.63628 0.55088 0.0
C2954 C 0.76627 0.63528 0.53623 0.0
C2955 C 0.7581 0.63105 0.57928 0.0
C2956 C 0.74334 0.6279 0.58098 0.0
C2957 C 0.76867 0.63685 0.59271 0.0
C2958 C 0.78455 0.64067 0.59165 0.0
C2959 C 0.79432 0.65158 0.58142 0.0
C2960 C 0.80907 0.65468 0.58011 0.0
C2961 C 0.81426 0.64708 0.58912 0.0
C2962 C 0.80473 0.63641 0.5995 0.0
C2963 C 0.78994 0.63323 0.60082 0.0
H2964 H 0.82568 0.64948 0.58808 0.0
H2965 H 0.68122 0.61605 0.6001 0.0
H2966 H 0.34531 0.04405 0.61919 0.0
H2967 H 0.35282 0.0637 0.60025 0.0
H2968 H 0.37586 0.10108 0.63817 0.0
H2969 H 0.36813 0.08148 0.65725 0.0
H2970 H 0.35828 0.10611 0.61983 0.0
H2971 H 0.39592 0.09326 0.61122 0.0
H2972 H 0.40573 0.07591 0.60579 0.0
H2973 H 0.37985 0.05873 0.56083 0.0
H2974 H 0.36971 0.07582 0.56609 0.0
H2975 H 0.38957 0.1669 0.56869 0.0
H2976 H 0.38836 0.14923 0.58783 0.0
H2977 H 0.36182 0.1092 0.55321 0.0
H2978 H 0.36333 0.12686 0.53386 0.0
H2979 H 0.38317 0.10681 0.57056 0.0
H2980 H 0.34426 0.11836 0.58032 0.0
H2981 H 0.33464 0.13588 0.58577 0.0
H2982 H 0.36342 0.15571 0.6289 0.0
H2983 H 0.37338 0.13845 0.62358 0.0
C2984 C 0.35212 0.05645 0.6235 0.0
C2985 C 0.35608 0.06119 0.63974 0.0
C2986 C 0.35647 0.06769 0.61263 0.0
C2987 C 0.36503 0.08388 0.61777 0.0
C2988 C 0.36927 0.08865 0.63394 0.0
C2989 C 0.36486 0.07742 0.64483 0.0
C2990 C 0.36872 0.09579 0.60637 0.0
C2991 C 0.364 0.10645 0.60921 0.0
C2992 C 0.37586 0.09602 0.59234 0.0
C2993 C 0.38195 0.08573 0.58912 0.0
C2994 C 0.39222 0.08569 0.60023 0.0
C2995 C 0.39786 0.07592 0.59717 0.0
C2996 C 0.39339 0.06619 0.58299 0.0
C2997 C 0.38329 0.06625 0.57182 0.0
C2998 C 0.37761 0.076 0.57483 0.0
C2999 C 0.38372 0.15437 0.56506 0.0
C3000 C 0.37646 0.14826 0.54979 0.0
C3001 C 0.38294 0.14428 0.57604 0.0
C3002 C 0.37483 0.12789 0.57199 0.0
C3003 C 0.36809 0.12181 0.55658 0.0
C3004 C 0.36885 0.13189 0.54559 0.0
C3005 C 0.37267 0.11701 0.58403 0.0
C3006 C 0.37762 0.10654 0.58128 0.0
C3007 C 0.36576 0.11696 0.59818 0.0
C3008 C 0.35968 0.12724 0.60146 0.0
C3009 C 0.34862 0.12654 0.5909 0.0
C3010 C 0.34309 0.13641 0.59398 0.0
C3011 C 0.34845 0.14693 0.60765 0.0
C3012 C 0.3593 0.14757 0.6183 0.0
C3013 C 0.36489 0.13774 0.61527 0.0
H3014 H 0.34415 0.15457 0.61001 0.0
H3015 H 0.39776 0.05864 0.58064 0.0
H3016 H 0.90936 0.25359 0.69667 0.0
H3017 H 0.89439 0.24789 0.6716 0.0
H3018 H 0.93588 0.27053 0.64737 0.0
H3019 H 0.95089 0.27648 0.67231 0.0
H3020 H 0.91708 0.27961 0.63793 0.0
H3021 H 0.91278 0.23017 0.64613 0.0
H3022 H 0.90623 0.20723 0.66075 0.0
H3023 H 0.85957 0.19452 0.66029 0.0
H3024 H 0.8659 0.21752 0.64583 0.0
H3025 H 0.89556 0.24964 0.55827 0.0
H3026 H 0.90579 0.25683 0.58579 0.0
H3027 H 0.86 0.23262 0.60112 0.0
H3028 H 0.84966 0.22503 0.57346 0.0
H3029 H 0.87779 0.22476 0.61667 0.0
H3030 H 0.8816 0.27247 0.60546 0.0
H3031 H 0.8882 0.29512 0.59036 0.0
H3032 H 0.93571 0.31107 0.59624 0.0
H3033 H 0.92937 0.28838 0.61118 0.0
C3034 C 0.91529 0.25734 0.68599 0.0
C3035 C 0.93132 0.26546 0.68648 0.0
C3036 C 0.90672 0.25404 0.67168 0.0
C3037 C 0.91402 0.2587 0.6576 0.0
C3038 C 0.93001 0.26686 0.65809 0.0
C3039 C 0.93857 0.27019 0.67236 0.0
C3040 C 0.90514 0.25509 0.64227 0.0
C3041 C 0.90856 0.26761 0.63323 0.0
C3042 C 0.89365 0.23948 0.63639 0.0
C3043 C 0.88985 0.22567 0.64508 0.0
C3044 C 0.90115 0.22256 0.64927 0.0
C3045 C 0.89747 0.20954 0.6575 0.0
C3046 C 0.8825 0.19946 0.66149 0.0
C3047 C 0.87117 0.20236 0.65722 0.0
C3048 C 0.87479 0.21538 0.649 0.0
C3049 C 0.88766 0.24586 0.5675 0.0
C3050 C 0.87181 0.23673 0.56372 0.0
C3051 C 0.89352 0.2501 0.58322 0.0
C3052 C 0.88365 0.2454 0.5955 0.0
C3053 C 0.8678 0.23643 0.5918 0.0
C3054 C 0.86192 0.2322 0.57603 0.0
C3055 C 0.89004 0.24925 0.61215 0.0
C3056 C 0.88614 0.23679 0.62146 0.0
C3057 C 0.9011 0.26492 0.61828 0.0
C3058 C 0.90499 0.27865 0.60936 0.0
C3059 C 0.89344 0.28074 0.60344 0.0
C3060 C 0.89714 0.2936 0.59492 0.0
C3061 C 0.91236 0.30451 0.59232 0.0
C3062 C 0.92392 0.30261 0.59826 0.0
C3063 C 0.92028 0.28976 0.60678 0.0
H3064 H 0.9152 0.31446 0.58572 0.0
H3065 H 0.87967 0.18937 0.66786 0.0
H3066 H 0.33203 0.2767 0.66873 0.0
H3067 H 0.33858 0.26299 0.64889 0.0
H3068 H 0.38305 0.28341 0.67318 0.0
H3069 H 0.37665 0.29739 0.69312 0.0
H3070 H 0.3843 0.28426 0.64083 0.0
H3071 H 0.35627 0.24567 0.6769 0.0
H3072 H 0.33471 0.23 0.69309 0.0
H3073 H 0.30401 0.2098 0.6513 0.0
H3074 H 0.32535 0.22551 0.63488 0.0
H3075 H 0.3976 0.23307 0.59089 0.0
H3076 H 0.3949 0.24602 0.61497 0.0
H3077 H 0.34841 0.22902 0.59883 0.0
H3078 H 0.35104 0.21626 0.57485 0.0
H3079 H 0.3506 0.22604 0.62976 0.0
H3080 H 0.37699 0.2663 0.59421 0.0
H3081 H 0.39772 0.28219 0.57722 0.0
H3082 H 0.43058 0.29942 0.61712 0.0
H3083 H 0.41005 0.28343 0.63431 0.0
C3084 C 0.34323 0.27833 0.66989 0.0
C3085 C 0.35379 0.28807 0.68258 0.0
C3086 C 0.34693 0.27042 0.65855 0.0
C3087 C 0.36121 0.27198 0.65971 0.0
C3088 C 0.37194 0.28199 0.67213 0.0
C3089 C 0.36825 0.28994 0.68352 0.0
C3090 C 0.36478 0.26307 0.64789 0.0
C3091 C 0.37713 0.2715 0.63862 0.0
C3092 C 0.35525 0.24645 0.64483 0.0
C3093 C 0.34241 0.23685 0.65467 0.0
C3094 C 0.3449 0.23796 0.67117 0.0
C3095 C 0.33272 0.22906 0.68039 0.0
C3096 C 0.318 0.21893 0.67323 0.0
C3097 C 0.31543 0.21765 0.65683 0.0
C3098 C 0.32757 0.22653 0.64756 0.0
C3099 C 0.38679 0.23204 0.59254 0.0
C3100 C 0.37451 0.22356 0.58099 0.0
C3101 C 0.38526 0.23943 0.60629 0.0
C3102 C 0.37147 0.23855 0.60863 0.0
C3103 C 0.35911 0.22975 0.59732 0.0
C3104 C 0.36062 0.22238 0.58364 0.0
C3105 C 0.36992 0.24725 0.6225 0.0
C3106 C 0.35793 0.23878 0.63216 0.0
C3107 C 0.37969 0.26382 0.6258 0.0
C3108 C 0.39202 0.27353 0.61551 0.0
C3109 C 0.38866 0.27338 0.59934 0.0
C3110 C 0.40036 0.28242 0.58967 0.0
C3111 C 0.41546 0.29177 0.59608 0.0
C3112 C 0.41888 0.29214 0.61217 0.0
C3113 C 0.40722 0.2831 0.62188 0.0
H3114 H 0.42451 0.29876 0.58858 0.0
H3115 H 0.30858 0.21206 0.68039 0.0
H3116 H 0.72175 0.09155 0.64072 0.0
H3117 H 0.73604 0.1114 0.6224 0.0
H3118 H 0.75135 0.08234 0.60131 0.0
H3119 H 0.73726 0.06255 0.61959 0.0
H3120 H 0.77462 0.1128 0.60764 0.0
H3121 H 0.72336 0.08468 0.58277 0.0
H3122 H 0.69571 0.07404 0.58159 0.0
H3123 H 0.70476 0.12089 0.59144 0.0
H3124 H 0.73249 0.13179 0.59288 0.0
H3125 H 0.80169 0.14445 0.53607 0.0
H3126 H 0.78663 0.12728 0.55597 0.0
H3127 H 0.77509 0.16095 0.57265 0.0
H3128 H 0.79031 0.17834 0.55275 0.0
H3129 H 0.75032 0.13046 0.57036 0.0
H3130 H 0.80147 0.15885 0.59354 0.0
H3131 H 0.82915 0.16968 0.59464 0.0
H3132 H 0.82045 0.12273 0.58836 0.0
H3133 H 0.7927 0.11162 0.58698 0.0
C3134 C 0.72812 0.08937 0.63215 0.0
C3135 C 0.72837 0.07547 0.63161 0.0
C3136 C 0.73624 0.1007 0.62166 0.0
C3137 C 0.74469 0.0983 0.61044 0.0
C3138 C 0.74493 0.08444 0.60989 0.0
C3139 C 0.73682 0.07311 0.62033 0.0
C3140 C 0.75354 0.11029 0.59941 0.0
C3141 C 0.76928 0.11655 0.59938 0.0
C3142 C 0.74665 0.11557 0.58901 0.0
C3143 C 0.72999 0.10903 0.58812 0.0
C3144 C 0.71945 0.0927 0.58482 0.0
C3145 C 0.70377 0.08663 0.58408 0.0
C3146 C 0.69848 0.09678 0.58649 0.0
C3147 C 0.70887 0.11304 0.5896 0.0
C3148 C 0.72457 0.11917 0.59038 0.0
C3149 C 0.79607 0.14829 0.54406 0.0
C3150 C 0.79735 0.16285 0.54296 0.0
C3151 C 0.78742 0.13844 0.55539 0.0
C3152 C 0.77994 0.14296 0.56594 0.0
C3153 C 0.78082 0.15728 0.56464 0.0
C3154 C 0.78949 0.16717 0.55326 0.0
C3155 C 0.77133 0.13269 0.57837 0.0
C3156 C 0.75567 0.12681 0.5787 0.0
C3157 C 0.7783 0.12778 0.58911 0.0
C3158 C 0.79499 0.13441 0.59004 0.0
C3159 C 0.80545 0.15084 0.59228 0.0
C3160 C 0.82116 0.15703 0.59297 0.0
C3161 C 0.82655 0.1469 0.59154 0.0
C3162 C 0.81625 0.13056 0.58945 0.0
C3163 C 0.80053 0.12431 0.58874 0.0
H3164 H 0.83872 0.15172 0.59207 0.0
H3165 H 0.68633 0.09206 0.5859 0.0
H3166 H 0.91636 0.67999 0.66464 0.0
H3167 H 0.89684 0.67152 0.64313 0.0
H3168 H 0.87993 0.62275 0.64941 0.0
H3169 H 0.89972 0.63117 0.67085 0.0
H3170 H 0.88246 0.62732 0.61911 0.0
H3171 H 0.8596 0.63949 0.66065 0.0
H3172 H 0.85809 0.65519 0.68327 0.0
H3173 H 0.86703 0.69175 0.65366 0.0
H3174 H 0.86883 0.67639 0.6309 0.0
H3175 H 0.82218 0.60662 0.56036 0.0
H3176 H 0.83344 0.60888 0.58686 0.0
H3177 H 0.86295 0.65921 0.58559 0.0
H3178 H 0.85247 0.65709 0.559 0.0
H3179 H 0.84964 0.64941 0.6154 0.0
H3180 H 0.87692 0.63882 0.57565 0.0
H3181 H 0.8783 0.62306 0.55298 0.0
H3182 H 0.8603 0.58293 0.57989 0.0
H3183 H 0.85858 0.5984 0.60266 0.0
C3184 C 0.90846 0.66745 0.66154 0.0
C3185 C 0.9096 0.65625 0.66947 0.0
C3186 C 0.89721 0.66262 0.64928 0.0
C3187 C 0.88674 0.64649 0.64482 0.0
C3188 C 0.88783 0.63526 0.65272 0.0
C3189 C 0.89915 0.64009 0.66497 0.0
C3190 C 0.87523 0.64152 0.63135 0.0
C3191 C 0.87502 0.63185 0.61849 0.0
C3192 C 0.8656 0.64754 0.63043 0.0
C3193 C 0.86445 0.65681 0.64407 0.0
C3194 C 0.86135 0.65093 0.65898 0.0
C3195 C 0.86043 0.65976 0.67183 0.0
C3196 C 0.86249 0.67447 0.66991 0.0
C3197 C 0.86544 0.68036 0.65513 0.0
C3198 C 0.86639 0.67158 0.64224 0.0
C3199 C 0.83107 0.61818 0.5657 0.0
C3200 C 0.83645 0.63165 0.55742 0.0
C3201 C 0.83737 0.61944 0.58089 0.0
C3202 C 0.84901 0.63421 0.58811 0.0
C3203 C 0.85387 0.64773 0.58025 0.0
C3204 C 0.84777 0.64647 0.56502 0.0
C3205 C 0.85723 0.63559 0.6032 0.0
C3206 C 0.85683 0.64461 0.61628 0.0
C3207 C 0.86625 0.62893 0.60438 0.0
C3208 C 0.86743 0.61969 0.59077 0.0
C3209 C 0.87313 0.62659 0.57668 0.0
C3210 C 0.87399 0.61772 0.56382 0.0
C3211 C 0.86934 0.60199 0.56498 0.0
C3212 C 0.86387 0.59511 0.57901 0.0
C3213 C 0.86294 0.60392 0.59189 0.0
H3214 H 0.87003 0.59514 0.55501 0.0
H3215 H 0.86177 0.68129 0.67988 0.0
H3216 H 0.89461 0.65713 0.73738 0.0
H3217 H 0.88887 0.66777 0.76089 0.0
H3218 H 0.93692 0.70223 0.77154 0.0
H3219 H 0.9428 0.69142 0.74811 0.0
H3220 H 0.92422 0.68811 0.7969 0.0
H3221 H 0.91219 0.71288 0.75838 0.0
H3222 H 0.90021 0.71499 0.73403 0.0
H3223 H 0.85573 0.68444 0.75023 0.0
H3224 H 0.86742 0.68185 0.77452 0.0
H3225 H 0.90675 0.72248 0.8626 0.0
H3226 H 0.91628 0.7197 0.83731 0.0
H3227 H 0.87069 0.68229 0.82004 0.0
H3228 H 0.86105 0.68534 0.84502 0.0
H3229 H 0.88487 0.70197 0.79781 0.0
H3230 H 0.89691 0.67438 0.8342 0.0
H3231 H 0.90864 0.67215 0.85868 0.0
H3232 H 0.95301 0.70819 0.8463 0.0
H3233 H 0.9415 0.71078 0.82183 0.0
C3234 C 0.90397 0.66706 0.74463 0.0
C3235 C 0.91917 0.67339 0.74089 0.0
C3236 C 0.90066 0.67322 0.75802 0.0
C3237 C 0.91245 0.68593 0.76789 0.0
C3238 C 0.92763 0.69245 0.76407 0.0
C3239 C 0.93097 0.68626 0.75067 0.0
C3240 C 0.90892 0.69163 0.78273 0.0
C3241 C 0.91586 0.69147 0.79706 0.0
C3242 C 0.89779 0.69573 0.78297 0.0
C3243 C 0.8907 0.69708 0.76824 0.0
C3244 C 0.89985 0.70647 0.75669 0.0
C3245 C 0.89311 0.70776 0.74289 0.0
C3246 C 0.87722 0.69982 0.74057 0.0
C3247 C 0.86804 0.69056 0.75203 0.0
C3248 C 0.87472 0.68918 0.76581 0.0
C3249 C 0.89875 0.71377 0.85335 0.0
C3250 C 0.88318 0.70399 0.85586 0.0
C3251 C 0.90422 0.71213 0.83895 0.0
C3252 C 0.89422 0.70066 0.82686 0.0
C3253 C 0.87862 0.69118 0.82922 0.0
C3254 C 0.87315 0.69282 0.84357 0.0
C3255 C 0.89994 0.6981 0.81188 0.0
C3256 C 0.89341 0.69884 0.79757 0.0
C3257 C 0.91141 0.6945 0.81162 0.0
C3258 C 0.91833 0.6929 0.82629 0.0
C3259 C 0.90915 0.68191 0.83677 0.0
C3260 C 0.91577 0.68057 0.85063 0.0
C3261 C 0.93156 0.69006 0.85407 0.0
C3262 C 0.94078 0.70088 0.84363 0.0
C3263 C 0.93422 0.70228 0.82977 0.0
H3264 H 0.93666 0.689 0.86481 0.0
H3265 H 0.87203 0.70086 0.72989 0.0
H3266 H 0.29936 0.26072 0.73892 0.0
H3267 H 0.29152 0.24022 0.75711 0.0
H3268 H 0.33706 0.26584 0.77997 0.0
H3269 H 0.34501 0.28616 0.7618 0.0
H3270 H 0.32714 0.23537 0.77296 0.0
H3271 H 0.30707 0.26501 0.79726 0.0
H3272 H 0.29144 0.27685 0.79788 0.0
H3273 H 0.25087 0.23106 0.78601 0.0
H3274 H 0.2663 0.21898 0.78512 0.0
H3275 H 0.32044 0.20143 0.84374 0.0
H3276 H 0.32372 0.21943 0.82413 0.0
H3277 H 0.27685 0.18778 0.80604 0.0
H3278 H 0.27347 0.16958 0.82571 0.0
H3279 H 0.28496 0.21868 0.80845 0.0
H3280 H 0.3046 0.18874 0.78601 0.0
H3281 H 0.32004 0.17669 0.78551 0.0
H3282 H 0.36112 0.22267 0.79342 0.0
H3283 H 0.34591 0.235 0.79421 0.0
C3284 C 0.30766 0.26203 0.74791 0.0
C3285 C 0.32282 0.27504 0.74888 0.0
C3286 C 0.30315 0.25033 0.75832 0.0
C3287 C 0.31371 0.25152 0.76992 0.0
C3288 C 0.32875 0.26464 0.77106 0.0
C3289 C 0.33326 0.27628 0.76068 0.0
C3290 C 0.30941 0.23889 0.78055 0.0
C3291 C 0.318 0.23183 0.78082 0.0
C3292 C 0.29713 0.23386 0.79039 0.0
C3293 C 0.28786 0.24112 0.79095 0.0
C3294 C 0.29483 0.25749 0.79465 0.0
C3295 C 0.286 0.26424 0.79508 0.0
C3296 C 0.27017 0.25472 0.79194 0.0
C3297 C 0.26313 0.23842 0.78841 0.0
C3298 C 0.27191 0.23162 0.78795 0.0
C3299 C 0.31085 0.19821 0.83551 0.0
C3300 C 0.29675 0.18398 0.83613 0.0
C3301 C 0.31273 0.20854 0.82434 0.0
C3302 C 0.3006 0.20482 0.81347 0.0
C3303 C 0.28637 0.19084 0.8143 0.0
C3304 C 0.28446 0.18048 0.82554 0.0
C3305 C 0.30299 0.21553 0.80115 0.0
C3306 C 0.294 0.22214 0.80049 0.0
C3307 C 0.31489 0.22014 0.79089 0.0
C3308 C 0.3241 0.21278 0.79028 0.0
C3309 C 0.31692 0.19628 0.78775 0.0
C3310 C 0.32563 0.1894 0.7874 0.0
C3311 C 0.34155 0.19891 0.78946 0.0
C3312 C 0.34879 0.21532 0.79184 0.0
C3313 C 0.34013 0.22226 0.79221 0.0
H3314 H 0.34827 0.19356 0.78919 0.0
H3315 H 0.26336 0.25997 0.79228 0.0
H3316 H 0.72076 0.05258 0.7172 0.0
H3317 H 0.73541 0.05959 0.74256 0.0
H3318 H 0.77732 0.08662 0.71983 0.0
H3319 H 0.76271 0.07955 0.69422 0.0
H3320 H 0.77932 0.06897 0.74281 0.0
H3321 H 0.76393 0.10589 0.73844 0.0
H3322 H 0.74587 0.11426 0.73332 0.0
H3323 H 0.7199 0.08907 0.77136 0.0
H3324 H 0.73769 0.08035 0.77657 0.0
H3325 H 0.82193 0.11063 0.81699 0.0
H3326 H 0.81085 0.10335 0.7896 0.0
H3327 H 0.76565 0.07703 0.80621 0.0
H3328 H 0.77662 0.08425 0.8335 0.0
H3329 H 0.76742 0.09642 0.78523 0.0
H3330 H 0.78226 0.05853 0.7888 0.0
H3331 H 0.80027 0.05007 0.79378 0.0
H3332 H 0.82749 0.07729 0.75735 0.0
H3333 H 0.80973 0.08609 0.75229 0.0
C3334 C 0.7331 0.05994 0.71752 0.0
C3335 C 0.74056 0.06564 0.70369 0.0
C3336 C 0.74145 0.06395 0.73205 0.0
C3337 C 0.75742 0.0738 0.73309 0.0
C3338 C 0.76499 0.07904 0.71926 0.0
C3339 C 0.75662 0.07503 0.70466 0.0
C3340 C 0.76604 0.07909 0.74877 0.0
C3341 C 0.77692 0.07519 0.75204 0.0
C3342 C 0.76275 0.08704 0.76083 0.0
C3343 C 0.75208 0.09236 0.75781 0.0
C3344 C 0.75431 0.10204 0.74564 0.0
C3345 C 0.74413 0.10686 0.74274 0.0
C3346 C 0.73173 0.10217 0.75199 0.0
C3347 C 0.72951 0.09268 0.76419 0.0
C3348 C 0.73964 0.08781 0.76714 0.0
C3349 C 0.80965 0.10309 0.81476 0.0
C3350 C 0.80013 0.09809 0.82738 0.0
C3351 C 0.80333 0.09895 0.79912 0.0
C3352 C 0.78742 0.08963 0.79587 0.0
C3353 C 0.77795 0.08432 0.80845 0.0
C3354 C 0.78423 0.08848 0.82403 0.0
C3355 C 0.78045 0.08595 0.77945 0.0
C3356 C 0.76991 0.09026 0.77601 0.0
C3357 C 0.7841 0.07841 0.76728 0.0
C3358 C 0.79476 0.07311 0.77029 0.0
C3359 C 0.79216 0.06282 0.78195 0.0
C3360 C 0.8023 0.05794 0.78476 0.0
C3361 C 0.81504 0.06317 0.77592 0.0
C3362 C 0.81763 0.07327 0.76421 0.0
C3363 C 0.80752 0.0782 0.76135 0.0
H3364 H 0.82288 0.05938 0.77812 0.0
H3365 H 0.72386 0.10592 0.74972 0.0
H3366 H 0.01341 0.33012 0.0571 0.0
H3367 H 0.02871 0.3228 0.07209 0.0
H3368 H 0.06957 0.35983 0.0537 0.0
H3369 H 0.05426 0.36713 0.0384 0.0
H3370 H 0.06911 0.33257 0.053 0.0
H3371 H 0.06106 0.36437 0.09125 0.0
H3372 H 0.04589 0.37246 0.10626 0.0
H3373 H 0.02168 0.32737 0.12497 0.0
H3374 H 0.03656 0.31892 0.10989 0.0
H3375 H 0.12274 0.33457 0.10792 0.0
H3376 H 0.10711 0.342 0.09354 0.0
H3377 H 0.06628 0.30176 0.1083 0.0
H3378 H 0.08193 0.29421 0.12275 0.0
H3379 H 0.06663 0.33046 0.11107 0.0
H3380 H 0.07443 0.2986 0.07304 0.0
H3381 H 0.08917 0.29007 0.05786 0.0
H3382 H 0.11359 0.33493 0.03874 0.0
H3383 H 0.09917 0.34385 0.05403 0.0
C3384 C 0.02565 0.33675 0.05622 0.0
C3385 C 0.03263 0.34927 0.0466 0.0
C3386 C 0.03439 0.33257 0.06487 0.0
C3387 C 0.0503 0.34091 0.06419 0.0
C3388 C 0.0573 0.35328 0.05442 0.0
C3389 C 0.04855 0.35746 0.04572 0.0
C3390 C 0.05956 0.3366 0.07363 0.0
C3391 C 0.06876 0.33236 0.06573 0.0
C3392 C 0.05875 0.33589 0.09018 0.0
C3393 C 0.04983 0.34097 0.09932 0.0
C3394 C 0.05242 0.35613 0.09847 0.0
C3395 C 0.04389 0.36079 0.10701 0.0
C3396 C 0.0328 0.35042 0.11653 0.0
C3397 C 0.03025 0.33538 0.11757 0.0
C3398 C 0.03874 0.33066 0.10904 0.0
C3399 C 0.11044 0.32743 0.10829 0.0
C3400 C 0.10351 0.31387 0.11651 0.0
C3401 C 0.10154 0.33162 0.09998 0.0
C3402 C 0.08557 0.32237 0.0998 0.0
C3403 C 0.07861 0.30903 0.10831 0.0
C3404 C 0.08752 0.30471 0.11649 0.0
C3405 C 0.0762 0.32653 0.09043 0.0
C3406 C 0.06699 0.33073 0.09834 0.0
C3407 C 0.07698 0.32718 0.0739 0.0
C3408 C 0.08581 0.32195 0.06481 0.0
C3409 C 0.08306 0.30672 0.06574 0.0
C3410 C 0.09133 0.3018 0.05709 0.0
C3411 C 0.1023 0.31195 0.04734 0.0
C3412 C 0.10507 0.32708 0.04629 0.0
C3413 C 0.09685 0.33207 0.05494 0.0
H3414 H 0.1086 0.30807 0.04056 0.0
H3415 H 0.02621 0.35405 0.12314 0.0
H3416 H 0.61964 0.66601 0.0821 0.0
H3417 H 0.62982 0.69248 0.09523 0.0
H3418 H 0.67571 0.70277 0.09213 0.0
H3419 H 0.66556 0.67611 0.07967 0.0
H3420 H 0.67413 0.71401 0.11934 0.0
H3421 H 0.65923 0.71711 0.06678 0.0
H3422 H 0.64205 0.7094 0.04273 0.0
H3423 H 0.61155 0.71736 0.069 0.0
H3424 H 0.62845 0.72493 0.09327 0.0
H3425 H 0.71029 0.79896 0.12892 0.0
H3426 H 0.7007 0.77179 0.1182 0.0
H3427 H 0.65609 0.75706 0.13355 0.0
H3428 H 0.66566 0.78391 0.14499 0.0
H3429 H 0.65746 0.74854 0.1003 0.0
H3430 H 0.67456 0.74642 0.1531 0.0
H3431 H 0.69354 0.75532 0.17578 0.0
H3432 H 0.72239 0.74715 0.14673 0.0
H3433 H 0.70368 0.73842 0.12381 0.0
C3434 C 0.63189 0.67394 0.08421 0.0
C3435 C 0.64181 0.66903 0.07983 0.0
C3436 C 0.63771 0.68909 0.09166 0.0
C3437 C 0.65357 0.69975 0.09446 0.0
C3438 C 0.66345 0.69479 0.09013 0.0
C3439 C 0.65763 0.67956 0.08296 0.0
C3440 C 0.65987 0.71603 0.10195 0.0
C3441 C 0.67061 0.72161 0.11503 0.0
C3442 C 0.65521 0.72595 0.09645 0.0
C3443 C 0.64503 0.72143 0.08188 0.0
C3444 C 0.6488 0.7171 0.06746 0.0
C3445 C 0.63912 0.71278 0.05378 0.0
C3446 C 0.6257 0.71285 0.05435 0.0
C3447 C 0.62194 0.71729 0.06859 0.0
C3448 C 0.63157 0.72161 0.0823 0.0
C3449 C 0.69852 0.7899 0.13032 0.0
C3450 C 0.68872 0.7937 0.1377 0.0
C3451 C 0.69305 0.77442 0.1241 0.0
C3452 C 0.6777 0.76252 0.12506 0.0
C3453 C 0.66796 0.76616 0.13262 0.0
C3454 C 0.67345 0.78155 0.13903 0.0
C3455 C 0.67158 0.74636 0.11762 0.0
C3456 C 0.66092 0.74087 0.10455 0.0
C3457 C 0.67656 0.73668 0.1229 0.0
C3458 C 0.68779 0.74192 0.1367 0.0
C3459 C 0.68502 0.74667 0.15151 0.0
C3460 C 0.69571 0.75165 0.16441 0.0
C3461 C 0.70917 0.75184 0.16267 0.0
C3462 C 0.71196 0.74702 0.14804 0.0
C3463 C 0.70131 0.74204 0.1351 0.0
H3464 H 0.71743 0.75569 0.17266 0.0
H3465 H 0.61823 0.7095 0.04375 0.0
H3466 H 0.34275 0.99196 0.0458 0.0
H3467 H 0.31958 0.97812 0.05964 0.0
H3468 H 0.3044 0.93546 0.02931 0.0
H3469 H 0.32768 0.94938 0.0151 0.0
H3470 H 0.28117 0.94089 0.03447 0.0
H3471 H 0.31909 0.93892 0.06566 0.0
H3472 H 0.34427 0.94984 0.07983 0.0
H3473 H 0.33635 0.97986 0.11099 0.0
H3474 H 0.31121 0.9693 0.09685 0.0
H3475 H 0.22391 0.89321 0.08599 0.0
H3476 H 0.24529 0.9045 0.06909 0.0
H3477 H 0.26624 0.94917 0.09762 0.0
H3478 H 0.24517 0.93782 0.11488 0.0
H3479 H 0.2863 0.94059 0.09261 0.0
H3480 H 0.24909 0.94367 0.06071 0.0
H3481 H 0.22411 0.93327 0.04632 0.0
H3482 H 0.23068 0.90137 0.01655 0.0
H3483 H 0.25562 0.91143 0.03091 0.0
C3484 C 0.33452 0.97963 0.042 0.0
C3485 C 0.33714 0.97173 0.02941 0.0
C3486 C 0.32128 0.97174 0.04997 0.0
C3487 C 0.3104 0.95571 0.04566 0.0
C3488 C 0.31272 0.94783 0.03284 0.0
C3489 C 0.32603 0.95577 0.02478 0.0
C3490 C 0.2968 0.94731 0.05486 0.0
C3491 C 0.28224 0.94055 0.04714 0.0
C3492 C 0.29827 0.94717 0.07143 0.0
C3493 C 0.3133 0.95339 0.08011 0.0
C3494 C 0.32276 0.94793 0.07547 0.0
C3495 C 0.33702 0.95404 0.0835 0.0
C3496 C 0.34192 0.96556 0.09628 0.0
C3497 C 0.33254 0.97095 0.10108 0.0
C3498 C 0.31828 0.96488 0.09307 0.0
C3499 C 0.23308 0.90544 0.08866 0.0
C3500 C 0.23287 0.91462 0.1018 0.0
C3501 C 0.24521 0.91191 0.07891 0.0
C3502 C 0.25731 0.9277 0.08204 0.0
C3503 C 0.257 0.93696 0.09498 0.0
C3504 C 0.24489 0.9305 0.10475 0.0
C3505 C 0.27064 0.93442 0.07229 0.0
C3506 C 0.28518 0.94082 0.07992 0.0
C3507 C 0.26913 0.93422 0.05567 0.0
C3508 C 0.25415 0.92819 0.047 0.0
C3509 C 0.24515 0.93434 0.05118 0.0
C3510 C 0.23101 0.92853 0.04302 0.0
C3511 C 0.22579 0.91664 0.03056 0.0
C3512 C 0.23472 0.91056 0.02622 0.0
C3513 C 0.24887 0.91633 0.03436 0.0
H3514 H 0.21484 0.91215 0.02425 0.0
H3515 H 0.35297 0.97029 0.10248 0.0
H3516 H 0.37965 0.0525 0.01212 0.0
H3517 H 0.36922 0.06806 0.00382 0.0
H3518 H 0.33903 0.0303 0.96833 0.0
H3519 H 0.34954 0.0149 0.97628 0.0
H3520 H 0.35081 0.05795 0.95674 0.0
H3521 H 0.32676 0.0355 0.00418 0.0
H3522 H 0.32634 0.0305 0.03221 0.0
H3523 H 0.34959 0.08029 0.04615 0.0
H3524 H 0.35033 0.08559 0.01816 0.0
H3525 H 0.29572 0.07477 0.93775 0.0
H3526 H 0.30698 0.0614 0.94946 0.0
H3527 H 0.33606 0.10283 0.9817 0.0
H3528 H 0.32432 0.1161 0.97052 0.0
H3529 H 0.32665 0.07552 0.99561 0.0
H3530 H 0.34931 0.09765 0.94787 0.0
H3531 H 0.3484 0.10214 0.91982 0.0
H3532 H 0.32709 0.05249 0.90638 0.0
H3533 H 0.32766 0.04766 0.93439 0.0
C3534 C 0.3709 0.0476 0.00245 0.0
C3535 C 0.36536 0.03243 0.99492 0.0
C3536 C 0.3649 0.05646 0.99778 0.0
C3537 C 0.35319 0.05023 0.9856 0.0
C3538 C 0.34803 0.03533 0.97777 0.0
C3539 C 0.35404 0.02652 0.98237 0.0
C3540 C 0.34596 0.05895 0.98113 0.0
C3541 C 0.34544 0.06169 0.96523 0.0
C3542 C 0.33923 0.06413 0.99226 0.0
C3543 C 0.33875 0.06095 0.00908 0.0
C3544 C 0.33189 0.04539 0.01322 0.0
C3545 C 0.33158 0.0425 0.0291 0.0
C3546 C 0.33798 0.05507 0.04095 0.0
C3547 C 0.34467 0.07056 0.03695 0.0
C3548 C 0.34503 0.07351 0.02108 0.0
C3549 C 0.30414 0.08089 0.94767 0.0
C3550 C 0.30923 0.09657 0.9531 0.0
C3551 C 0.3107 0.07328 0.95423 0.0
C3552 C 0.32261 0.08128 0.96617 0.0
C3553 C 0.32698 0.09652 0.97238 0.0
C3554 C 0.32035 0.10411 0.9659 0.0
C3555 C 0.33127 0.07421 0.97121 0.0
C3556 C 0.33212 0.07187 0.98717 0.0
C3557 C 0.33829 0.06935 0.96014 0.0
C3558 C 0.33844 0.07229 0.94324 0.0
C3559 C 0.34439 0.08768 0.93894 0.0
C3560 C 0.34393 0.09029 0.92305 0.0
C3561 C 0.33768 0.0776 0.91133 0.0
C3562 C 0.33193 0.0623 0.91547 0.0
C3563 C 0.33234 0.05962 0.93135 0.0
H3564 H 0.3373 0.07964 0.89904 0.0
H3565 H 0.33772 0.05281 0.05324 0.0
H3566 H 0.953 0.32089 0.0084 0.0
H3567 H 0.93625 0.29486 0.99407 0.0
H3568 H 0.97512 0.29763 0.97346 0.0
H3569 H 0.99189 0.32387 0.98739 0.0
H3570 H 0.95214 0.28544 0.95197 0.0
H3571 H 0.95867 0.27551 0.0048 0.0
H3572 H 0.95879 0.2781 0.03385 0.0
H3573 H 0.91074 0.26011 0.03032 0.0
H3574 H 0.91038 0.25762 0.00123 0.0
H3575 H 0.91182 0.20196 0.92792 0.0
H3576 H 0.93035 0.22835 0.94109 0.0
H3577 H 0.89338 0.23194 0.95818 0.0
H3578 H 0.87491 0.20568 0.94517 0.0
H3579 H 0.91656 0.24041 0.98143 0.0
H3580 H 0.9109 0.25116 0.92796 0.0
H3581 H 0.91142 0.24813 0.899 0.0
H3582 H 0.95892 0.26393 0.90409 0.0
H3583 H 0.95863 0.26683 0.93311 0.0
C3584 C 0.95798 0.31599 0.00077 0.0
C3585 C 0.97378 0.3244 0.99911 0.0
C3586 C 0.9484 0.30107 0.99264 0.0
C3587 C 0.95446 0.29416 0.98291 0.0
C3588 C 0.97019 0.3027 0.98094 0.0
C3589 C 0.97976 0.31769 0.98894 0.0
C3590 C 0.94441 0.27797 0.9749 0.0
C3591 C 0.94453 0.27556 0.95846 0.0
C3592 C 0.93436 0.26507 0.98332 0.0
C3593 C 0.93453 0.26651 0.00083 0.0
C3594 C 0.94815 0.27221 0.01021 0.0
C3595 C 0.94826 0.27365 0.02669 0.0
C3596 C 0.93479 0.26931 0.03393 0.0
C3597 C 0.92117 0.26349 0.0247 0.0
C3598 C 0.921 0.26205 0.00821 0.0
C3599 C 0.9077 0.20842 0.93451 0.0
C3600 C 0.89196 0.20187 0.93544 0.0
C3601 C 0.91826 0.22347 0.94194 0.0
C3602 C 0.9132 0.23209 0.95051 0.0
C3603 C 0.8975 0.22548 0.95159 0.0
C3604 C 0.88697 0.21055 0.94406 0.0
C3605 C 0.92418 0.24798 0.95854 0.0
C3606 C 0.92425 0.25031 0.97499 0.0
C3607 C 0.9345 0.26072 0.95015 0.0
C3608 C 0.9347 0.25904 0.93271 0.0
C3609 C 0.92142 0.25385 0.92291 0.0
C3610 C 0.92168 0.25219 0.90649 0.0
C3611 C 0.93518 0.25579 0.89971 0.0
C3612 C 0.94847 0.26112 0.90936 0.0
C3613 C 0.94826 0.26278 0.92579 0.0
H3614 H 0.93536 0.2545 0.887 0.0
H3615 H 0.9349 0.27042 0.04669 0.0
H3616 H 0.67651 0.66185 0.02307 0.0
H3617 H 0.70089 0.67136 0.0117 0.0
H3618 H 0.70802 0.64034 0.03812 0.0
H3619 H 0.68352 0.63078 0.0498 0.0
H3620 H 0.7338 0.67024 0.03922 0.0
H3621 H 0.69771 0.63089 0.99947 0.0
H3622 H 0.67445 0.61722 0.98132 0.0
H3623 H 0.69093 0.65919 0.95757 0.0
H3624 H 0.7142 0.67318 0.97573 0.0
H3625 H 0.79476 0.67936 0.99379 0.0
H3626 H 0.77153 0.66963 0.0078 0.0
H3627 H 0.76013 0.69804 0.98204 0.0
H3628 H 0.7831 0.70743 0.96764 0.0
H3629 H 0.73647 0.66806 0.98101 0.0
H3630 H 0.77224 0.70765 0.02123 0.0
H3631 H 0.79547 0.72135 0.03942 0.0
H3632 H 0.77969 0.67896 0.06221 0.0
H3633 H 0.75645 0.66493 0.044 0.0
C3634 C 0.6832 0.65698 0.02648 0.0
C3635 C 0.67803 0.64549 0.0373 0.0
C3636 C 0.69714 0.66242 0.01992 0.0
C3637 C 0.70617 0.65642 0.02392 0.0
C3638 C 0.70117 0.64507 0.03485 0.0
C3639 C 0.68716 0.63959 0.04145 0.0
C3640 C 0.72085 0.66217 0.01665 0.0
C3641 C 0.73439 0.66954 0.0265 0.0
C3642 C 0.7216 0.66153 5e-05 0.0
C3643 C 0.70765 0.65312 0.98905 0.0
C3644 C 0.69632 0.63724 0.99045 0.0
C3645 C 0.68314 0.62943 0.98015 0.0
C3646 C 0.6812 0.63734 0.96832 0.0
C3647 C 0.69244 0.65308 0.96675 0.0
C3648 C 0.70564 0.66095 0.97703 0.0
C3649 C 0.78734 0.6836 0.99119 0.0
C3650 C 0.79073 0.69412 0.97958 0.0
C3651 C 0.77414 0.67813 0.99928 0.0
C3652 C 0.76413 0.68316 0.996 0.0
C3653 C 0.76772 0.69402 0.98475 0.0
C3654 C 0.78091 0.69949 0.97665 0.0
C3655 C 0.74947 0.67638 0.00355 0.0
C3656 C 0.7359 0.66874 0.99374 0.0
C3657 C 0.74872 0.67677 0.02016 0.0
C3658 C 0.76267 0.6852 0.03114 0.0
C3659 C 0.77378 0.70121 0.03003 0.0
C3660 C 0.78694 0.70904 0.04036 0.0
C3661 C 0.78908 0.70102 0.05193 0.0
C3662 C 0.77803 0.68515 0.05323 0.0
C3663 C 0.76486 0.67726 0.04291 0.0
H3664 H 0.79927 0.7071 0.05992 0.0
H3665 H 0.67098 0.63127 0.96036 0.0
H3666 H 0.9858 0.66037 0.99518 0.0
H3667 H 0.97039 0.66896 0.98245 0.0
H3668 H 0.93684 0.64767 0.01665 0.0
H3669 H 0.95236 0.63921 0.02971 0.0
H3670 H 0.92518 0.64107 0.98319 0.0
H3671 H 0.95828 0.68436 0.02223 0.0
H3672 H 0.98323 0.70452 0.03581 0.0
H3673 H 0.99862 0.72549 0.99234 0.0
H3674 H 0.97383 0.70529 0.97844 0.0
H3675 H 0.88197 0.67407 0.96527 0.0
H3676 H 0.89711 0.66566 0.9789 0.0
H3677 H 0.93609 0.69688 0.95369 0.0
H3678 H 0.92101 0.70578 0.94047 0.0
H3679 H 0.94513 0.69824 0.98282 0.0
H3680 H 0.91344 0.65589 0.94329 0.0
H3681 H 0.88938 0.63554 0.92831 0.0
H3682 H 0.87236 0.61248 0.97046 0.0
H3683 H 0.89624 0.63283 0.98574 0.0
C3684 C 0.97511 0.65743 -2e-05 0.0
C3685 C 0.97029 0.64913 0.01347 0.0
C3686 C 0.96636 0.66239 0.99271 0.0
C3687 C 0.95256 0.65901 0.99869 0.0
C3688 C 0.94749 0.65039 0.01191 0.0
C3689 C 0.95637 0.64561 0.01936 0.0
C3690 C 0.94357 0.66468 0.99117 0.0
C3691 C 0.92938 0.65355 0.98328 0.0
C3692 C 0.94939 0.68097 0.99089 0.0
C3693 C 0.96425 0.69322 0.99926 0.0
C3694 C 0.96703 0.69319 0.01554 0.0
C3695 C 0.98113 0.70463 0.0233 0.0
C3696 C 0.99252 0.71625 0.01493 0.0
C3697 C 0.9898 0.71647 0.9988 0.0
C3698 C 0.97572 0.70503 0.99098 0.0
C3699 C 0.89376 0.67908 0.96262 0.0
C3700 C 0.90032 0.6904 0.9517 0.0
C3701 C 0.90239 0.67425 0.97037 0.0
C3702 C 0.91765 0.68035 0.96706 0.0
C3703 C 0.92432 0.69194 0.95638 0.0
C3704 C 0.91573 0.69699 0.94881 0.0
C3705 C 0.9266 0.67463 0.97478 0.0
C3706 C 0.94083 0.68574 0.9827 0.0
C3707 C 0.92092 0.6583 0.97486 0.0
C3708 C 0.90658 0.64597 0.96569 0.0
C3709 C 0.90452 0.64654 0.94938 0.0
C3710 C 0.89093 0.635 0.94084 0.0
C3711 C 0.87934 0.62274 0.94844 0.0
C3712 C 0.88134 0.62199 0.9646 0.0
C3713 C 0.89491 0.63352 0.9732 0.0
H3714 H 0.86882 0.61382 0.9418 0.0
H3715 H 0.00343 0.7251 0.02096 0.0
H3716 H 0.34043 0.33602 0.97299 0.0
H3717 H 0.33003 0.30989 0.95898 0.0
H3718 H 0.36686 0.30743 0.9802 0.0
H3719 H 0.37736 0.3336 0.9944 0.0
H3720 H 0.36083 0.29841 0.94706 0.0
H3721 H 0.33387 0.28762 0.99458 0.0
H3722 H 0.31821 0.29073 0.01405 0.0
H3723 H 0.282 0.27504 0.97798 0.0
H3724 H 0.29755 0.27207 0.95822 0.0
H3725 H 0.33334 0.21779 0.93133 0.0
H3726 H 0.34291 0.24428 0.94382 0.0
H3727 H 0.30165 0.2411 0.92687 0.0
H3728 H 0.29189 0.21433 0.91444 0.0
H3729 H 0.30938 0.25349 0.95678 0.0
H3730 H 0.33518 0.26335 0.90936 0.0
H3731 H 0.35048 0.26067 0.88914 0.0
H3732 H 0.38837 0.27866 0.92364 0.0
H3733 H 0.37322 0.28124 0.94414 0.0
C3734 C 0.34637 0.32996 0.97466 0.0
C3735 C 0.35971 0.33685 0.98483 0.0
C3736 C 0.34036 0.31502 0.96669 0.0
C3737 C 0.34763 0.30674 0.96867 0.0
C3738 C 0.3611 0.31367 0.97857 0.0
C3739 C 0.36704 0.32858 0.9867 0.0
C3740 C 0.34112 0.2908 0.96042 0.0
C3741 C 0.34967 0.28852 0.9493 0.0
C3742 C 0.32633 0.27811 0.963 0.0
C3743 C 0.31694 0.27978 0.97489 0.0
C3744 C 0.32262 0.28497 0.99077 0.0
C3745 C 0.31376 0.28668 0.00186 0.0
C3746 C 0.29914 0.28313 0.99725 0.0
C3747 C 0.29334 0.27781 0.98153 0.0
C3748 C 0.30216 0.2761 0.97038 0.0
C3749 C 0.32637 0.2228 0.93011 0.0
C3750 C 0.31196 0.21411 0.92174 0.0
C3751 C 0.33185 0.23793 0.93726 0.0
C3752 C 0.32313 0.24479 0.93603 0.0
C3753 C 0.3086 0.23605 0.92789 0.0
C3754 C 0.30304 0.2208 0.92082 0.0
C3755 C 0.32917 0.26099 0.94349 0.0
C3756 C 0.32052 0.26336 0.95445 0.0
C3757 C 0.34381 0.27382 0.94063 0.0
C3758 C 0.35301 0.27236 0.92832 0.0
C3759 C 0.34673 0.26663 0.91267 0.0
C3760 C 0.35539 0.26514 0.90115 0.0
C3761 C 0.37038 0.26946 0.90511 0.0
C3762 C 0.37676 0.27531 0.92059 0.0
C3763 C 0.36814 0.2768 0.93216 0.0
H3764 H 0.37706 0.26831 0.89617 0.0
H3765 H 0.2923 0.28447 0.00585 0.0
H3766 H 0.66073 0.02074 0.01043 0.0
H3767 H 0.68549 0.03291 0.99915 0.0
H3768 H 0.70782 0.05898 0.04414 0.0
H3769 H 0.68299 0.04658 0.05572 0.0
H3770 H 0.717 0.07665 0.01512 0.0
H3771 H 0.71147 0.03093 0.03686 0.0
H3772 H 0.69774 0.00269 0.04122 0.0
H3773 H 0.69446 0.99023 0.99135 0.0
H3774 H 0.70801 0.01838 0.98665 0.0
H3775 H 0.78948 0.10392 0.98681 0.0
H3776 H 0.7685 0.0922 0.00425 0.0
H3777 H 0.74146 0.05343 0.96843 0.0
H3778 H 0.76264 0.06486 0.95123 0.0
H3779 H 0.73607 0.04277 0.99611 0.0
H3780 H 0.73824 0.08639 0.97327 0.0
H3781 H 0.75032 0.11399 0.96697 0.0
H3782 H 0.75794 0.12981 0.01645 0.0
H3783 H 0.74609 0.1023 0.02305 0.0
C3784 C 0.67086 0.02917 0.01794 0.0
C3785 C 0.66991 0.03269 0.03399 0.0
C3786 C 0.685 0.03604 0.01147 0.0
C3787 C 0.69842 0.04669 0.02088 0.0
C3788 C 0.69753 0.05071 0.03675 0.0
C3789 C 0.68337 0.04364 0.04332 0.0
C3790 C 0.71332 0.0534 0.01398 0.0
C3791 C 0.72139 0.06937 0.01125 0.0
C3792 C 0.7187 0.04371 0.00857 0.0
C3793 C 0.71065 0.02677 0.01139 0.0
C3794 C 0.70771 0.02217 0.02681 0.0
C3795 C 0.69998 0.00618 0.02935 0.0
C3796 C 0.69519 0.99468 0.01658 0.0
C3797 C 0.69816 0.99915 0.00124 0.0
C3798 C 0.70589 0.01512 0.99863 0.0
C3799 C 0.77912 0.09278 0.9828 0.0
C3800 C 0.77759 0.0853 0.96769 0.0
C3801 C 0.76713 0.08613 0.99272 0.0
C3802 C 0.75327 0.07211 0.98751 0.0
C3803 C 0.75203 0.06426 0.9727 0.0
C3804 C 0.76411 0.07077 0.96288 0.0
C3805 C 0.73977 0.06608 0.99703 0.0
C3806 C 0.73189 0.05019 0.0002 0.0
C3807 C 0.7344 0.07579 0.00259 0.0
C3808 C 0.74144 0.09232 0.99866 0.0
C3809 C 0.74259 0.09577 0.98281 0.0
C3810 C 0.74938 0.11139 0.97918 0.0
C3811 C 0.75494 0.12365 0.9913 0.0
C3812 C 0.75366 0.1203 0.00708 0.0
C3813 C 0.74691 0.1047 0.01077 0.0
H3814 H 0.76019 0.13573 0.98847 0.0
H3815 H 0.6892 0.98231 0.01858 0.0
H3816 H 0.6406 0.98208 0.0909 0.0
H3817 H 0.65471 0.9701 0.09855 0.0
H3818 H 0.65176 0.95261 0.05 0.0
H3819 H 0.63741 0.9645 0.04219 0.0
H3820 H 0.64717 0.93078 0.07079 0.0
H3821 H 0.68406 0.9845 0.06469 0.0
H3822 H 0.69569 0.01335 0.06813 0.0
H3823 H 0.70197 0.01337 0.11822 0.0
H3824 H 0.69008 0.98448 0.11515 0.0
H3825 H 0.69993 0.91021 0.09756 0.0
H3826 H 0.69059 0.92344 0.08176 0.0
H3827 H 0.68592 0.9457 0.12457 0.0
H3828 H 0.69532 0.93268 0.14029 0.0
H3829 H 0.69722 0.96585 0.1012 0.0
H3830 H 0.65592 0.9118 0.10715 0.0
H3831 H 0.64378 0.88288 0.10393 0.0
H3832 H 0.64619 0.88382 0.05365 0.0
H3833 H 0.65854 0.9128 0.05661 0.0
C3834 C 0.64279 0.97556 0.08184 0.0
C3835 C 0.63799 0.97435 0.06592 0.0
C3836 C 0.65094 0.96879 0.08623 0.0
C3837 C 0.65457 0.96078 0.07478 0.0
C3838 C 0.64917 0.95886 0.05898 0.0
C3839 C 0.64096 0.96563 0.05456 0.0
C3840 C 0.66426 0.95476 0.07951 0.0
C3841 C 0.65827 0.93849 0.07712 0.0
C3842 C 0.67873 0.96484 0.0878 0.0
C3843 C 0.68609 0.98228 0.08969 0.0
C3844 C 0.68783 0.99063 0.07645 0.0
C3845 C 0.69448 0.00699 0.07833 0.0
C3846 C 0.69956 0.01517 0.09338 0.0
C3847 C 0.69803 0.00701 0.10657 0.0
C3848 C 0.69134 0.99064 0.10477 0.0
C3849 C 0.6972 0.91819 0.10352 0.0
C3850 C 0.69819 0.92035 0.12011 0.0
C3851 C 0.6918 0.92565 0.09452 0.0
C3852 C 0.68742 0.9354 0.10203 0.0
C3853 C 0.68923 0.93822 0.11855 0.0
C3854 C 0.6945 0.93071 0.12752 0.0
C3855 C 0.67988 0.94184 0.09298 0.0
C3856 C 0.68629 0.95821 0.09453 0.0
C3857 C 0.66584 0.93187 0.08389 0.0
C3858 C 0.65831 0.91446 0.08212 0.0
C3859 C 0.65396 0.90585 0.09542 0.0
C3860 C 0.64703 0.88944 0.09364 0.0
C3861 C 0.64426 0.88152 0.0786 0.0
C3862 C 0.64837 0.88998 0.0653 0.0
C3863 C 0.65534 0.90639 0.06702 0.0
H3864 H 0.63889 0.86882 0.07724 0.0
H3865 H 0.70471 0.02784 0.09481 0.0
H3866 H 0.03013 0.70159 0.04175 0.0
H3867 H 0.04782 0.72679 0.05709 0.0
H3868 H 0.04412 0.70244 0.09823 0.0
H3869 H 0.02632 0.67712 0.08299 0.0
H3870 H 0.04171 0.72818 0.10494 0.0
H3871 H 0.07541 0.71659 0.07855 0.0
H3872 H 0.08543 0.70941 0.05571 0.0
H3873 H 0.09461 0.75105 0.03474 0.0
H3874 H 0.08444 0.75837 0.05736 0.0
H3875 H 0.10561 0.79337 0.15064 0.0
H3876 H 0.08694 0.76779 0.13641 0.0
H3877 H 0.0918 0.79035 0.09363 0.0
H3878 H 0.11091 0.81582 0.1076 0.0
H3879 H 0.09359 0.76508 0.08819 0.0
H3880 H 0.05967 0.77662 0.11438 0.0
H3881 H 0.04962 0.78384 0.13716 0.0
H3882 H 0.04081 0.74249 0.15847 0.0
H3883 H 0.051 0.73512 0.13589 0.0
C3884 C 0.03311 0.70156 0.05404 0.0
C3885 C 0.02685 0.68734 0.06114 0.0
C3886 C 0.04325 0.71598 0.06278 0.0
C3887 C 0.04735 0.71645 0.07876 0.0
C3888 C 0.04109 0.7023 0.08591 0.0
C3889 C 0.03098 0.68786 0.07716 0.0
C3890 C 0.05809 0.73176 0.088 0.0
C3891 C 0.05313 0.73618 0.10143 0.0
C3892 C 0.07286 0.74229 0.08318 0.0
C3893 C 0.07903 0.73795 0.06958 0.0
C3894 C 0.07945 0.72415 0.069 0.0
C3895 C 0.08518 0.72007 0.05611 0.0
C3896 C 0.09062 0.72975 0.04376 0.0
C3897 C 0.09038 0.74356 0.0443 0.0
C3898 C 0.08464 0.74769 0.05717 0.0
C3899 C 0.10267 0.79288 0.13821 0.0
C3900 C 0.10973 0.80663 0.13026 0.0
C3901 C 0.0919 0.77828 0.13012 0.0
C3902 C 0.0879 0.77718 0.11397 0.0
C3903 C 0.0947 0.79093 0.10609 0.0
C3904 C 0.1055 0.80551 0.11415 0.0
C3905 C 0.07718 0.76162 0.10508 0.0
C3906 C 0.08216 0.75712 0.09172 0.0
C3907 C 0.06243 0.75104 0.10997 0.0
C3908 C 0.05623 0.7554 0.12352 0.0
C3909 C 0.0557 0.76913 0.12398 0.0
C3910 C 0.04996 0.77324 0.13684 0.0
C3911 C 0.04462 0.76365 0.14927 0.0
C3912 C 0.04497 0.74991 0.14884 0.0
C3913 C 0.05071 0.74575 0.13601 0.0
H3914 H 0.04018 0.76685 0.15922 0.0
H3915 H 0.09505 0.72657 0.03379 0.0
H3916 H 0.31984 0.37569 0.01012 0.0
H3917 H 0.29406 0.36471 0.019 0.0
H3918 H 0.30016 0.33407 0.04721 0.0
H3919 H 0.3257 0.34475 0.0383 0.0
H3920 H 0.27282 0.31817 0.03102 0.0
H3921 H 0.30307 0.36753 0.06389 0.0
H3922 H 0.3205 0.39641 0.0691 0.0
H3923 H 0.2884 0.40334 0.04389 0.0
H3924 H 0.27086 0.37449 0.03835 0.0
H3925 H 0.21897 0.2975 0.08872 0.0
H3926 H 0.24114 0.30675 0.07312 0.0
H3927 H 0.22806 0.33426 0.04812 0.0
H3928 H 0.20577 0.32499 0.06367 0.0
H3929 H 0.25733 0.35177 0.05931 0.0
H3930 H 0.22565 0.30185 0.02934 0.0
H3931 H 0.20828 0.27292 0.02493 0.0
H3932 H 0.24299 0.26683 0.04519 0.0
H3933 H 0.26051 0.29573 0.04993 0.0
C3934 C 0.31569 0.36666 0.01826 0.0
C3935 C 0.32482 0.36112 0.02353 0.0
C3936 C 0.30097 0.36041 0.02333 0.0
C3937 C 0.29522 0.34861 0.03381 0.0
C3938 C 0.30434 0.34311 0.03907 0.0
C3939 C 0.31899 0.3493 0.03401 0.0
C3940 C 0.27974 0.34193 0.03945 0.0
C3941 C 0.26945 0.3255 0.03729 0.0
C3942 C 0.2752 0.35154 0.04723 0.0
C3943 C 0.28574 0.36887 0.05054 0.0
C3944 C 0.29979 0.37522 0.05934 0.0
C3945 C 0.30968 0.39158 0.06238 0.0
C3946 C 0.30558 0.4017 0.05679 0.0
C3947 C 0.29157 0.39549 0.04818 0.0
C3948 C 0.28165 0.37913 0.0451 0.0
C3949 C 0.22058 0.30519 0.07962 0.0
C3950 C 0.21064 0.31053 0.07743 0.0
C3951 C 0.23328 0.3105 0.07073 0.0
C3952 C 0.2362 0.32113 0.05939 0.0
C3953 C 0.22602 0.32608 0.05682 0.0
C3954 C 0.21333 0.3208 0.06573 0.0
C3955 C 0.2505 0.32797 0.05115 0.0
C3956 C 0.26058 0.34444 0.05282 0.0
C3957 C 0.25486 0.31838 0.04298 0.0
C3958 C 0.24437 0.30098 0.04009 0.0
C3959 C 0.22955 0.29434 0.03296 0.0
C3960 C 0.21968 0.27795 0.03039 0.0
C3961 C 0.22452 0.26804 0.03481 0.0
C3962 C 0.23925 0.27452 0.04178 0.0
C3963 C 0.24917 0.29091 0.0444 0.0
H3964 H 0.21686 0.25535 0.0328 0.0
H3965 H 0.31325 0.41437 0.05916 0.0
H3966 H 0.71569 0.70199 0.36808 0.0
H3967 H 0.73126 0.6939 0.38146 0.0
H3968 H 0.69347 0.6639 0.40859 0.0
H3969 H 0.6779 0.67207 0.39545 0.0
H3970 H 0.71994 0.67982 0.42683 0.0
H3971 H 0.70171 0.64822 0.37697 0.0
H3972 H 0.69726 0.64331 0.34795 0.0
H3973 H 0.74563 0.67038 0.34334 0.0
H3974 H 0.75037 0.67565 0.37234 0.0
H3975 H 0.74996 0.63518 0.45363 0.0
H3976 H 0.73338 0.6424 0.44076 0.0
H3977 H 0.76993 0.67283 0.41254 0.0
H3978 H 0.78635 0.66532 0.42496 0.0
H3979 H 0.74334 0.65591 0.39498 0.0
H3980 H 0.76148 0.68789 0.44492 0.0
H3981 H 0.76585 0.69269 0.47396 0.0
H3982 H 0.71749 0.66469 0.47843 0.0
H3983 H 0.71285 0.65953 0.44941 0.0
C3984 C 0.71072 0.69375 0.37696 0.0
C3985 C 0.69553 0.6876 0.38063 0.0
C3986 C 0.71961 0.68908 0.38454 0.0
C3987 C 0.71344 0.67812 0.39586 0.0
C3988 C 0.69843 0.67233 0.39986 0.0
C3989 C 0.68954 0.67699 0.3923 0.0
C3990 C 0.72255 0.6725 0.40335 0.0
C3991 C 0.7249 0.6744 0.41989 0.0
C3992 C 0.7292 0.66566 0.39427 0.0
C3993 C 0.72639 0.66246 0.37682 0.0
C3994 C 0.7114 0.65323 0.36976 0.0
C3995 C 0.70882 0.65037 0.35332 0.0
C3996 C 0.72116 0.65656 0.3438 0.0
C3997 C 0.73609 0.66561 0.35072 0.0
C3998 C 0.73873 0.66853 0.36716 0.0
C3999 C 0.75439 0.64328 0.44456 0.0
C4000 C 0.7695 0.64979 0.44041 0.0
C4001 C 0.74496 0.6475 0.43732 0.0
C4002 C 0.75051 0.65832 0.42584 0.0
C4003 C 0.76545 0.66452 0.42142 0.0
C4004 C 0.77486 0.66032 0.42863 0.0
C4005 C 0.74084 0.66334 0.41846 0.0
C4006 C 0.73836 0.6613 0.40194 0.0
C4007 C 0.73406 0.67004 0.42756 0.0
C4008 C 0.73683 0.67319 0.44501 0.0
C4009 C 0.75179 0.68265 0.4521 0.0
C4010 C 0.75431 0.68546 0.46856 0.0
C4011 C 0.74195 0.67896 0.47804 0.0
C4012 C 0.72705 0.66969 0.47108 0.0
C4013 C 0.72446 0.66683 0.45463 0.0
H4014 H 0.74393 0.68115 0.49077 0.0
H4015 H 0.71914 0.65433 0.33107 0.0
H4016 H 0.32154 0.99916 0.42855 0.0
H4017 H 0.33274 0.0261 0.44075 0.0
H4018 H 0.31926 0.03866 0.39856 0.0
H4019 H 0.30855 0.01185 0.38608 0.0
H4020 H 0.34675 0.06127 0.40883 0.0
H4021 H 0.29935 0.03121 0.43301 0.0
H4022 H 0.28017 0.00961 0.4475 0.0
H4023 H 0.31268 0.02537 0.48751 0.0
H4024 H 0.33212 0.04696 0.47318 0.0
H4025 H 0.34802 0.12923 0.44098 0.0
H4026 H 0.34087 0.10309 0.42914 0.0
H4027 H 0.3619 0.09684 0.47006 0.0
H4028 H 0.36906 0.12304 0.48202 0.0
H4029 H 0.33218 0.07139 0.46134 0.0
H4030 H 0.37901 0.10294 0.43697 0.0
H4031 H 0.39729 0.1248 0.42215 0.0
H4032 H 0.36462 0.10644 0.38198 0.0
H4033 H 0.34605 0.08458 0.39665 0.0
C4034 C 0.32094 0.00765 0.42188 0.0
C4035 C 0.31409 0.00337 0.40638 0.0
C4036 C 0.3273 0.02305 0.42889 0.0
C4037 C 0.32664 0.03437 0.42068 0.0
C4038 C 0.31991 0.03013 0.40514 0.0
C4039 C 0.31374 0.0148 0.39804 0.0
C4040 C 0.33297 0.05063 0.42824 0.0
C4041 C 0.34342 0.06347 0.42023 0.0
C4042 C 0.32892 0.05353 0.4433 0.0
C4043 C 0.31723 0.0406 0.45196 0.0
C4044 C 0.30244 0.03 0.44486 0.0
C4045 C 0.29152 0.01777 0.45305 0.0
C4046 C 0.29522 0.01609 0.4684 0.0
C4047 C 0.30983 0.02667 0.47561 0.0
C4048 C 0.3208 0.03891 0.46747 0.0
C4049 C 0.35119 0.12231 0.4474 0.0
C4050 C 0.35906 0.12811 0.46241 0.0
C4051 C 0.34718 0.10744 0.4406 0.0
C4052 C 0.35093 0.09809 0.4487 0.0
C4053 C 0.35895 0.10392 0.46362 0.0
C4054 C 0.36311 0.11889 0.47038 0.0
C4055 C 0.3458 0.08194 0.44185 0.0
C4056 C 0.33557 0.06914 0.44999 0.0
C4057 C 0.34991 0.07909 0.42685 0.0
C4058 C 0.36109 0.09219 0.41797 0.0
C4059 C 0.37567 0.10363 0.42502 0.0
C4060 C 0.3861 0.116 0.41664 0.0
C4061 C 0.38211 0.11702 0.40114 0.0
C4062 C 0.36769 0.10564 0.39399 0.0
C4063 C 0.35722 0.09324 0.40233 0.0
H4064 H 0.3902 0.12662 0.39467 0.0
H4065 H 0.28675 0.00661 0.47472 0.0
H4066 H 0.02201 0.29061 0.39222 0.0
H4067 H 0.9963 0.27687 0.40155 0.0
H4068 H 0.98413 0.30252 0.37221 0.0
H4069 H 0.0098 0.31637 0.36288 0.0
H4070 H 0.97558 0.30268 0.40221 0.0
H4071 H 0.97063 0.26435 0.3617 0.0
H4072 H 0.97763 0.24709 0.34754 0.0
H4073 H 0.97158 0.22265 0.38891 0.0
H4074 H 0.96474 0.23992 0.40339 0.0
H4075 H 0.89619 0.25672 0.41528 0.0
H4076 H 0.92018 0.26947 0.40219 0.0
H4077 H 0.93589 0.24518 0.42907 0.0
H4078 H 0.91215 0.23258 0.44225 0.0
H4079 H 0.94182 0.24427 0.39847 0.0
H4080 H 0.94842 0.28331 0.43946 0.0
H4081 H 0.94166 0.30055 0.45411 0.0
H4082 H 0.94498 0.3237 0.41239 0.0
H4083 H 0.95154 0.30641 0.39742 0.0
C4084 C 0.01384 0.29326 0.38767 0.0
C4085 C 0.01795 0.30458 0.3768 0.0
C4086 C 0.99914 0.28536 0.39298 0.0
C4087 C 0.98829 0.28861 0.38748 0.0
C4088 C 0.99234 0.29984 0.37659 0.0
C4089 C 0.007 0.3077 0.37124 0.0
C4090 C 0.97285 0.28061 0.39345 0.0
C4091 C 0.96808 0.28991 0.40116 0.0
C4092 C 0.96323 0.26396 0.39236 0.0
C4093 C 0.9673 0.25353 0.38367 0.0
C4094 C 0.97091 0.25538 0.36782 0.0
C4095 C 0.97483 0.24558 0.35973 0.0
C4096 C 0.97508 0.2338 0.36733 0.0
C4097 C 0.97139 0.23179 0.38304 0.0
C4098 C 0.96748 0.24157 0.39119 0.0
C4099 C 0.90479 0.25415 0.41841 0.0
C4100 C 0.90224 0.24358 0.42974 0.0
C4101 C 0.91846 0.2614 0.41091 0.0
C4102 C 0.92983 0.25831 0.41471 0.0
C4103 C 0.92722 0.24764 0.42587 0.0
C4104 C 0.91361 0.2404 0.43335 0.0
C4105 C 0.94461 0.26634 0.40734 0.0
C4106 C 0.94926 0.25704 0.39939 0.0
C4107 C 0.95416 0.283 0.40828 0.0
C4108 C 0.95029 0.29344 0.41727 0.0
C4109 C 0.94758 0.29198 0.43338 0.0
C4110 C 0.94381 0.30178 0.44174 0.0
C4111 C 0.94285 0.31318 0.43418 0.0
C4112 C 0.9457 0.31484 0.41823 0.0
C4113 C 0.94945 0.30505 0.4098 0.0
H4114 H 0.93993 0.32076 0.44068 0.0
H4115 H 0.97812 0.22622 0.36105 0.0
H4116 H 0.06334 0.38438 0.34771 0.0
H4117 H 0.05874 0.40401 0.33794 0.0
H4118 H 0.02978 0.37052 0.29882 0.0
H4119 H 0.03446 0.35099 0.30832 0.0
H4120 H 0.04808 0.39939 0.28931 0.0
H4121 H 0.01474 0.37681 0.33153 0.0
H4122 H 0.00883 0.36976 0.35879 0.0
H4123 H 0.03696 0.4187 0.37641 0.0
H4124 H 0.0432 0.42602 0.34925 0.0
H4125 H 0.00089 0.425 0.26364 0.0
H4126 H 0.01039 0.41009 0.27554 0.0
H4127 H 0.0382 0.44943 0.3105 0.0
H4128 H 0.02839 0.46434 0.29886 0.0
H4129 H 0.02377 0.42083 0.3233 0.0
H4130 H 0.05472 0.44345 0.28028 0.0
H4131 H 0.05963 0.45006 0.25279 0.0
H4132 H 0.03545 0.40074 0.23643 0.0
H4133 H 0.03019 0.39382 0.26381 0.0
C4134 C 0.0561 0.38125 0.33695 0.0
C4135 C 0.04919 0.3661 0.32884 0.0
C4136 C 0.05344 0.39246 0.33143 0.0
C4137 C 0.04378 0.38865 0.31775 0.0
C4138 C 0.03727 0.3737 0.3094 0.0
C4139 C 0.03992 0.36253 0.31489 0.0
C4140 C 0.04 0.39996 0.31228 0.0
C4141 C 0.04269 0.40402 0.29671 0.0
C4142 C 0.03334 0.40632 0.32208 0.0
C4143 C 0.02958 0.40194 0.33839 0.0
C4144 C 0.01976 0.38605 0.34124 0.0
C4145 C 0.01634 0.38201 0.35666 0.0
C4146 C 0.02256 0.39377 0.36933 0.0
C4147 C 0.03218 0.4096 0.36659 0.0
C4148 C 0.03566 0.4137 0.35118 0.0
C4149 C 0.00883 0.4304 0.27402 0.0
C4150 C 0.01389 0.44584 0.28033 0.0
C4151 C 0.01437 0.42193 0.2807 0.0
C4152 C 0.02517 0.42877 0.29374 0.0
C4153 C 0.02994 0.44401 0.30037 0.0
C4154 C 0.0244 0.45252 0.29367 0.0
C4155 C 0.03153 0.41995 0.30023 0.0
C4156 C 0.02935 0.41639 0.31598 0.0
C4157 C 0.03863 0.41401 0.29058 0.0
C4158 C 0.04197 0.41812 0.2741 0.0
C4159 C 0.05037 0.43401 0.27082 0.0
C4160 C 0.05322 0.43781 0.25525 0.0
C4161 C 0.04783 0.42583 0.24287 0.0
C4162 C 0.03961 0.41001 0.24603 0.0
C4163 C 0.03671 0.40614 0.26158 0.0
H4164 H 0.05004 0.42879 0.23082 0.0
H4165 H 0.01989 0.39062 0.38126 0.0
H4166 H 0.64943 0.65305 0.3324 0.0
H4167 H 0.63177 0.6265 0.3197 0.0
H4168 H 0.60343 0.64187 0.3004 0.0
H4169 H 0.62096 0.6685 0.31331 0.0
H4170 H 0.58657 0.61423 0.31254 0.0
H4171 H 0.62663 0.63582 0.27723 0.0
H4172 H 0.65321 0.64906 0.2697 0.0
H4173 H 0.65712 0.61175 0.28612 0.0
H4174 H 0.63062 0.59839 0.29396 0.0
H4175 H 0.54114 0.54837 0.25716 0.0
H4176 H 0.56027 0.57525 0.26809 0.0
H4177 H 0.58545 0.5582 0.29136 0.0
H4178 H 0.56612 0.53111 0.28073 0.0
H4179 H 0.60403 0.58653 0.27698 0.0
H4180 H 0.56391 0.56522 0.31251 0.0
H4181 H 0.53721 0.55197 0.31961 0.0
H4182 H 0.53342 0.58903 0.30227 0.0
H4183 H 0.56005 0.60238 0.29483 0.0
C4184 C 0.63946 0.65082 0.32544 0.0
C4185 C 0.63661 0.66291 0.32383 0.0
C4186 C 0.62941 0.63564 0.31812 0.0
C4187 C 0.6164 0.63226 0.30892 0.0
C4188 C 0.61344 0.64425 0.30741 0.0
C4189 C 0.62347 0.65946 0.31478 0.0
C4190 C 0.60574 0.61612 0.30116 0.0
C4191 C 0.59035 0.60827 0.30458 0.0
C4192 C 0.61076 0.60821 0.29108 0.0
C4193 C 0.62668 0.61618 0.28632 0.0
C4194 C 0.6332 0.6305 0.27935 0.0
C4195 C 0.64824 0.63802 0.27501 0.0
C4196 C 0.65686 0.63127 0.27747 0.0
C4197 C 0.65043 0.61697 0.28424 0.0
C4198 C 0.6354 0.60942 0.28862 0.0
C4199 C 0.55071 0.5503 0.26465 0.0
C4200 C 0.55199 0.53757 0.26828 0.0
C4201 C 0.56166 0.56568 0.2708 0.0
C4202 C 0.57413 0.56864 0.28068 0.0
C4203 C 0.57587 0.55611 0.28376 0.0
C4204 C 0.56485 0.54066 0.27765 0.0
C4205 C 0.58493 0.58475 0.28832 0.0
C4206 C 0.6003 0.59255 0.28492 0.0
C4207 C 0.5799 0.59265 0.29838 0.0
C4208 C 0.56393 0.58472 0.30297 0.0
C4209 C 0.55734 0.57048 0.31009 0.0
C4210 C 0.54223 0.56296 0.31419 0.0
C4211 C 0.53361 0.56963 0.31136 0.0
C4212 C 0.5401 0.58386 0.30444 0.0
C4213 C 0.55521 0.59142 0.30029 0.0
H4214 H 0.5219 0.5638 0.31455 0.0
H4215 H 0.6685 0.63711 0.2741 0.0
H4216 H 0.33803 0.95196 0.38353 0.0
H4217 H 0.36052 0.95661 0.37019 0.0
H4218 H 0.34657 0.97197 0.33059 0.0
H4219 H 0.32391 0.9669 0.34358 0.0
H4220 H 0.35671 0.95445 0.32021 0.0
H4221 H 0.37474 0.9984 0.35974 0.0
H4222 H 0.37866 0.01134 0.38666 0.0
H4223 H 0.40335 0.99063 0.40205 0.0
H4224 H 0.3994 0.97738 0.37525 0.0
H4225 H 0.4264 0.0002 0.28506 0.0
H4226 H 0.4039 0.99248 0.29987 0.0
H4227 H 0.41863 0.97129 0.33253 0.0
H4228 H 0.44125 0.97905 0.31776 0.0
H4229 H 0.40841 0.99007 0.34714 0.0
H4230 H 0.39159 0.94776 0.3061 0.0
H4231 H 0.38815 0.93623 0.27862 0.0
H4232 H 0.3615 0.95552 0.26552 0.0
H4233 H 0.36497 0.96737 0.29289 0.0
C4234 C 0.33972 0.95624 0.37194 0.0
C4235 C 0.32924 0.95916 0.36466 0.0
C4236 C 0.35261 0.95897 0.36436 0.0
C4237 C 0.35537 0.96489 0.3495 0.0
C4238 C 0.34471 0.96742 0.34206 0.0
C4239 C 0.33177 0.96456 0.34954 0.0
C4240 C 0.36945 0.96874 0.3417 0.0
C4241 C 0.36801 0.96235 0.32608 0.0
C4242 C 0.38421 0.97879 0.34944 0.0
C4243 C 0.38662 0.98676 0.36554 0.0
C4244 C 0.3809 0.9965 0.3689 0.0
C4245 C 0.38314 0.00391 0.38413 0.0
C4246 C 0.39121 0.00177 0.39607 0.0
C4247 C 0.39708 0.99225 0.3928 0.0
C4248 C 0.39485 0.9848 0.37759 0.0
C4249 C 0.42493 0.99405 0.2955 0.0
C4250 C 0.43555 0.99021 0.30028 0.0
C4251 C 0.41204 0.98956 0.30387 0.0
C4252 C 0.40957 0.9812 0.31718 0.0
C4253 C 0.42034 0.97769 0.32224 0.0
C4254 C 0.43318 0.98205 0.31377 0.0
C4255 C 0.3956 0.97596 0.32566 0.0
C4256 C 0.39709 0.98207 0.34138 0.0
C4257 C 0.38088 0.96581 0.31796 0.0
C4258 C 0.37865 0.95857 0.30152 0.0
C4259 C 0.38509 0.94965 0.29734 0.0
C4260 C 0.38312 0.94304 0.28178 0.0
C4261 C 0.37464 0.94517 0.27032 0.0
C4262 C 0.36808 0.95389 0.27441 0.0
C4263 C 0.37003 0.96054 0.28994 0.0
H4264 H 0.37313 0.94005 0.25829 0.0
H4265 H 0.39294 0.00752 0.40785 0.0
H4266 H 0.62246 0.97246 0.36623 0.0
H4267 H 0.60595 0.97839 0.35131 0.0
H4268 H 0.61008 0.95532 0.30881 0.0
H4269 H 0.62675 0.94947 0.32361 0.0
H4270 H 0.61482 0.98386 0.30392 0.0
H4271 H 0.57714 0.9379 0.32714 0.0
H4272 H 0.56489 0.92117 0.34873 0.0
H4273 H 0.55848 0.95664 0.37123 0.0
H4274 H 0.57089 0.97369 0.34988 0.0
H4275 H 0.55688 0.98449 0.25751 0.0
H4276 H 0.57249 0.9768 0.27149 0.0
H4277 H 0.5685 0.99799 0.31546 0.0
H4278 H 0.5524 0.00514 0.30169 0.0
H4279 H 0.56334 0.96949 0.31895 0.0
H4280 H 0.60168 0.01578 0.29627 0.0
H4281 H 0.61403 0.03264 0.27479 0.0
H4282 H 0.61927 0.9967 0.2514 0.0
H4283 H 0.60676 0.97952 0.27265 0.0
C4284 C 0.61975 0.96851 0.35374 0.0
C4285 C 0.62593 0.9605 0.34611 0.0
C4286 C 0.61027 0.97187 0.34524 0.0
C4287 C 0.60672 0.96722 0.32897 0.0
C4288 C 0.61269 0.95903 0.32136 0.0
C4289 C 0.62216 0.95564 0.32986 0.0
C4290 C 0.59724 0.97143 0.31981 0.0
C4291 C 0.60346 0.9805 0.30704 0.0
C4292 C 0.58258 0.96737 0.32413 0.0
C4293 C 0.57508 0.95713 0.33698 0.0
C4294 C 0.57323 0.94219 0.33676 0.0
C4295 C 0.56623 0.93264 0.34894 0.0
C4296 C 0.56094 0.93786 0.36137 0.0
C4297 C 0.5626 0.95262 0.36161 0.0
C4298 C 0.5696 0.96223 0.34946 0.0
C4299 C 0.55932 0.9875 0.27015 0.0
C4300 C 0.55344 0.99548 0.27847 0.0
C4301 C 0.56835 0.98321 0.27811 0.0
C4302 C 0.57177 0.98694 0.29451 0.0
C4303 C 0.56603 0.99503 0.3028 0.0
C4304 C 0.55697 0.99927 0.29488 0.0
C4305 C 0.58095 0.98202 0.30313 0.0
C4306 C 0.57468 0.9728 0.31579 0.0
C4307 C 0.59557 0.98597 0.29873 0.0
C4308 C 0.60314 0.9963 0.28597 0.0
C4309 C 0.60536 0.01142 0.28648 0.0
C4310 C 0.61241 0.02105 0.27436 0.0
C4311 C 0.61739 0.01573 0.26171 0.0
C4312 C 0.61538 0.00079 0.26119 0.0
C4313 C 0.60832 0.99111 0.27328 0.0
H4314 H 0.62284 0.0232 0.25234 0.0
H4315 H 0.55552 0.93044 0.37079 0.0
H4316 H 0.02044 0.66252 0.34904 0.0
H4317 H 0.01465 0.63774 0.3349 0.0
H4318 H 0.02571 0.65976 0.29127 0.0
H4319 H 0.03139 0.68458 0.30529 0.0
H4320 H 0.99929 0.63105 0.28759 0.0
H4321 H 0.05028 0.65275 0.30985 0.0
H4322 H 0.07105 0.66438 0.33101 0.0
H4323 H 0.04632 0.62269 0.35538 0.0
H4324 H 0.02529 0.6109 0.33446 0.0
H4325 H 0.00367 0.57112 0.24269 0.0
H4326 H 0.00912 0.59605 0.25631 0.0
H4327 H 0.998 0.57473 0.30033 0.0
H4328 H 0.99289 0.54991 0.28687 0.0
H4329 H 0.02461 0.60326 0.30352 0.0
H4330 H 0.97355 0.58162 0.28118 0.0
H4331 H 0.95289 0.57005 0.2599 0.0
H4332 H 0.97793 0.61168 0.23551 0.0
H4333 H 0.99885 0.62342 0.25655 0.0
C4334 C 0.02171 0.66213 0.33645 0.0
C4335 C 0.0264 0.67553 0.3283 0.0
C4336 C 0.01843 0.64796 0.32839 0.0
C4337 C 0.01987 0.64696 0.31206 0.0
C4338 C 0.02453 0.6603 0.30388 0.0
C4339 C 0.02783 0.67448 0.31193 0.0
C4340 C 0.0163 0.6319 0.30348 0.0
C4341 C 0.00497 0.62507 0.29092 0.0
C4342 C 0.02349 0.62397 0.30807 0.0
C4343 C 0.03614 0.63101 0.32066 0.0
C4344 C 0.04921 0.64612 0.31978 0.0
C4345 C 0.06104 0.65273 0.33173 0.0
C4346 C 0.05999 0.6443 0.34456 0.0
C4347 C 0.04712 0.62922 0.34545 0.0
C4348 C 0.03524 0.62256 0.33354 0.0
C4349 C 0.00238 0.57176 0.25527 0.0
C4350 C 0.99782 0.55856 0.26371 0.0
C4351 C 0.00539 0.58596 0.26301 0.0
C4352 C 0.00386 0.58719 0.27931 0.0
C4353 C 0.99921 0.574 0.28774 0.0
C4354 C 0.99616 0.5598 0.28001 0.0
C4355 C 0.00756 0.60237 0.28767 0.0
C4356 C 0.01893 0.60923 0.30019 0.0
C4357 C 0.00042 0.61034 0.28302 0.0
C4358 C 0.98784 0.60333 0.27037 0.0
C4359 C 0.97471 0.58826 0.27122 0.0
C4360 C 0.96294 0.58168 0.25921 0.0
C4361 C 0.96412 0.59011 0.24634 0.0
C4362 C 0.97705 0.60516 0.24547 0.0
C4363 C 0.98886 0.61179 0.25745 0.0
H4364 H 0.95499 0.585 0.23705 0.0
H4365 H 0.06916 0.64944 0.35379 0.0
H4366 H 0.327 0.34977 0.36093 0.0
H4367 H 0.3514 0.36362 0.34916 0.0
H4368 H 0.34632 0.40306 0.34376 0.0
H4369 H 0.32155 0.38904 0.35526 0.0
H4370 H 0.35447 0.39504 0.31731 0.0
H4371 H 0.37247 0.40526 0.37177 0.0
H4372 H 0.37403 0.39846 0.39878 0.0
H4373 H 0.39 0.36896 0.38143 0.0
H4374 H 0.38834 0.37542 0.35427 0.0
H4375 H 0.42855 0.44419 0.29303 0.0
H4376 H 0.40709 0.43385 0.30976 0.0
H4377 H 0.40724 0.39112 0.31171 0.0
H4378 H 0.42867 0.40133 0.29473 0.0
H4379 H 0.40236 0.40225 0.34089 0.0
H4380 H 0.38273 0.3907 0.28649 0.0
H4381 H 0.38095 0.3972 0.2594 0.0
H4382 H 0.36786 0.42915 0.27693 0.0
H4383 H 0.3698 0.42302 0.30418 0.0
C4384 C 0.33109 0.36145 0.35739 0.0
C4385 C 0.3223 0.3683 0.35902 0.0
C4386 C 0.34512 0.36941 0.35074 0.0
C4387 C 0.3508 0.38447 0.34577 0.0
C4388 C 0.34217 0.39146 0.34757 0.0
C4389 C 0.32804 0.38345 0.35416 0.0
C4390 C 0.36529 0.39245 0.33784 0.0
C4391 C 0.36501 0.3969 0.32262 0.0
C4392 C 0.37895 0.39448 0.34459 0.0
C4393 C 0.38017 0.39074 0.36095 0.0
C4394 C 0.37622 0.39725 0.37369 0.0
C4395 C 0.37714 0.39346 0.38903 0.0
C4396 C 0.38207 0.38325 0.39181 0.0
C4397 C 0.38617 0.37686 0.37925 0.0
C4398 C 0.38527 0.3806 0.36389 0.0
C4399 C 0.42401 0.43258 0.297 0.0
C4400 C 0.43012 0.42344 0.29234 0.0
C4401 C 0.41182 0.42674 0.30663 0.0
C4402 C 0.40547 0.41165 0.31177 0.0
C4403 C 0.412 0.4028 0.30783 0.0
C4404 C 0.42423 0.40864 0.29815 0.0
C4405 C 0.39146 0.4048 0.32045 0.0
C4406 C 0.39183 0.40052 0.33572 0.0
C4407 C 0.37786 0.40292 0.31378 0.0
C4408 C 0.37656 0.40652 0.29739 0.0
C4409 C 0.37959 0.3992 0.28458 0.0
C4410 C 0.37854 0.40281 0.2692 0.0
C4411 C 0.37434 0.41361 0.26645 0.0
C4412 C 0.37114 0.4208 0.27908 0.0
C4413 C 0.3722 0.41726 0.2945 0.0
H4414 H 0.37353 0.41639 0.25453 0.0
H4415 H 0.38274 0.38031 0.40369 0.0
H4416 H 0.29654 0.31444 0.42945 0.0
H4417 H 0.30877 0.30102 0.43874 0.0
H4418 H 0.30567 0.28132 0.39106 0.0
H4419 H 0.29302 0.2944 0.38172 0.0
H4420 H 0.30017 0.26019 0.41116 0.0
H4421 H 0.33923 0.31378 0.40731 0.0
H4422 H 0.35213 0.34276 0.41141 0.0
H4423 H 0.355 0.34103 0.46162 0.0
H4424 H 0.34195 0.312 0.45783 0.0
H4425 H 0.35394 0.23937 0.43381 0.0
H4426 H 0.34345 0.25281 0.42023 0.0
H4427 H 0.33765 0.2707 0.4653 0.0
H4428 H 0.34813 0.2574 0.47886 0.0
H4429 H 0.34944 0.29318 0.44343 0.0
H4430 H 0.30817 0.23856 0.4461 0.0
H4431 H 0.29605 0.20974 0.44088 0.0
H4432 H 0.29872 0.21399 0.39099 0.0
H4433 H 0.31106 0.24288 0.39594 0.0
C4434 C 0.29829 0.3071 0.42096 0.0
C4435 C 0.29394 0.30559 0.40483 0.0
C4436 C 0.30537 0.29952 0.42627 0.0
C4437 C 0.3085 0.2905 0.41553 0.0
C4438 C 0.30348 0.28832 0.39953 0.0
C4439 C 0.29624 0.29579 0.39422 0.0
C4440 C 0.31735 0.28375 0.42102 0.0
C4441 C 0.31107 0.26745 0.41798 0.0
C4442 C 0.33158 0.29322 0.42993 0.0
C4443 C 0.3395 0.31069 0.43228 0.0
C4444 C 0.34252 0.31956 0.41923 0.0
C4445 C 0.34988 0.336 0.4215 0.0
C4446 C 0.35435 0.34373 0.43677 0.0
C4447 C 0.35152 0.33503 0.4498 0.0
C4448 C 0.34416 0.31858 0.4476 0.0
C4449 C 0.35063 0.24638 0.44076 0.0
C4450 C 0.35172 0.24729 0.45735 0.0
C4451 C 0.34457 0.25395 0.43302 0.0
C4452 C 0.33965 0.2626 0.44179 0.0
C4453 C 0.34136 0.26405 0.45834 0.0
C4454 C 0.34726 0.25639 0.46606 0.0
C4455 C 0.33208 0.26963 0.43389 0.0
C4456 C 0.33863 0.28599 0.43645 0.0
C4457 C 0.31824 0.26026 0.42436 0.0
C4458 C 0.31068 0.24289 0.4214 0.0
C4459 C 0.30627 0.23336 0.43403 0.0
C4460 C 0.29935 0.21701 0.43112 0.0
C4461 C 0.29666 0.21004 0.41562 0.0
C4462 C 0.30084 0.2194 0.40299 0.0
C4463 C 0.30779 0.23576 0.40584 0.0
H4464 H 0.2913 0.19738 0.41339 0.0
H4465 H 0.36004 0.35645 0.4385 0.0
H4466 H 0.7188 0.01134 0.39579 0.0
H4467 H 0.7344 0.03805 0.40911 0.0
H4468 H 0.69407 0.04005 0.4136 0.0
H4469 H 0.67835 0.01319 0.40073 0.0
H4470 H 0.74029 0.06557 0.40233 0.0
H4471 H 0.69778 0.0621 0.44735 0.0
H4472 H 0.67684 0.04218 0.46184 0.0
H4473 H 0.69604 0.01337 0.45879 0.0
H4474 H 0.71719 0.03321 0.44448 0.0
H4475 H 0.77118 0.14266 0.43716 0.0
H4476 H 0.752 0.11639 0.42489 0.0
H4477 H 0.75648 0.09579 0.46597 0.0
H4478 H 0.77491 0.1221 0.47878 0.0
H4479 H 0.72814 0.07954 0.4546 0.0
H4480 H 0.7768 0.09932 0.43303 0.0
H4481 H 0.79965 0.11876 0.42038 0.0
H4482 H 0.77158 0.11325 0.37935 0.0
H4483 H 0.74853 0.09394 0.39187 0.0
C4484 C 0.71325 0.01746 0.39961 0.0
C4485 C 0.69733 0.01011 0.3973 0.0
C4486 C 0.72219 0.03275 0.40718 0.0
C4487 C 0.71539 0.04099 0.41253 0.0
C4488 C 0.69954 0.03381 0.40987 0.0
C4489 C 0.69057 0.01848 0.40245 0.0
C4490 C 0.7249 0.05705 0.42094 0.0
C4491 C 0.7376 0.06862 0.41374 0.0
C4492 C 0.72155 0.061 0.43594 0.0
C4493 C 0.70897 0.04907 0.4447 0.0
C4494 C 0.69755 0.05154 0.44982 0.0
C4495 C 0.68565 0.04026 0.458 0.0
C4496 C 0.68508 0.02649 0.46119 0.0
C4497 C 0.69646 0.02401 0.45626 0.0
C4498 C 0.7084 0.03525 0.4481 0.0
C4499 C 0.76778 0.13261 0.44381 0.0
C4500 C 0.77477 0.1345 0.4589 0.0
C4501 C 0.75693 0.11756 0.43667 0.0
C4502 C 0.7531 0.1041 0.44434 0.0
C4503 C 0.75935 0.10599 0.45977 0.0
C4504 C 0.77003 0.12104 0.467 0.0
C4505 C 0.74345 0.08805 0.43594 0.0
C4506 C 0.73074 0.0765 0.44313 0.0
C4507 C 0.74706 0.08397 0.42115 0.0
C4508 C 0.76093 0.0953 0.41345 0.0
C4509 C 0.7755 0.10231 0.42134 0.0
C4510 C 0.78849 0.11331 0.4142 0.0
C4511 C 0.78707 0.11727 0.39909 0.0
C4512 C 0.77266 0.11019 0.39107 0.0
C4513 C 0.75963 0.09921 0.39817 0.0
H4514 H 0.79713 0.1258 0.39359 0.0
H4515 H 0.67585 0.01777 0.4675 0.0
H4516 H 0.98649 0.70363 0.34646 0.0
H4517 H 0.96088 0.69044 0.35617 0.0
H4518 H 0.98012 0.69411 0.40305 0.0
H4519 H 0.0056 0.70707 0.39348 0.0
H4520 H 0.95604 0.66476 0.39455 0.0
H4521 H 0.96792 0.71829 0.39329 0.0
H4522 H 0.97503 0.74245 0.38062 0.0
H4523 H 0.93538 0.71602 0.34802 0.0
H4524 H 0.92813 0.69165 0.36037 0.0
H4525 H 0.90175 0.6561 0.4473 0.0
H4526 H 0.92382 0.66515 0.43158 0.0
H4527 H 0.89534 0.65567 0.38918 0.0
H4528 H 0.87315 0.64677 0.40496 0.0
H4529 H 0.92174 0.68509 0.39135 0.0
H4530 H 0.90817 0.63219 0.39491 0.0
H4531 H 0.90088 0.60818 0.40792 0.0
H4532 H 0.9435 0.63319 0.43619 0.0
H4533 H 0.95097 0.65743 0.42351 0.0
C4534 C 0.98527 0.70174 0.35886 0.0
C4535 C 0.99809 0.70639 0.36919 0.0
C4536 C 0.97063 0.69421 0.36438 0.0
C4537 C 0.96861 0.6913 0.38033 0.0
C4538 C 0.98142 0.69615 0.39068 0.0
C4539 C 0.996 0.70363 0.38518 0.0
C4540 C 0.95319 0.68294 0.38637 0.0
C4541 C 0.94858 0.66925 0.39395 0.0
C4542 C 0.94323 0.68849 0.38505 0.0
C4543 C 0.94759 0.70312 0.37762 0.0
C4544 C 0.96079 0.71761 0.38332 0.0
C4545 C 0.96483 0.73134 0.37622 0.0
C4546 C 0.95569 0.73076 0.36349 0.0
C4547 C 0.94247 0.71645 0.35786 0.0
C4548 C 0.93838 0.70267 0.36491 0.0
C4549 C 0.90018 0.65589 0.43462 0.0
C4550 C 0.88576 0.65077 0.42734 0.0
C4551 C 0.91277 0.66095 0.42564 0.0
C4552 C 0.91119 0.66096 0.4092 0.0
C4553 C 0.89677 0.65569 0.40185 0.0
C4554 C 0.88411 0.65052 0.41084 0.0
C4555 C 0.92483 0.6672 0.39996 0.0
C4556 C 0.9291 0.68044 0.39175 0.0
C4557 C 0.93449 0.66125 0.40068 0.0
C4558 C 0.93008 0.64667 0.40832 0.0
C4559 C 0.91595 0.63261 0.40398 0.0
C4560 C 0.91179 0.61895 0.41128 0.0
C4561 C 0.92171 0.61917 0.42289 0.0
C4562 C 0.93582 0.63304 0.42719 0.0
C4563 C 0.94003 0.64674 0.41994 0.0
H4564 H 0.91847 0.60858 0.42853 0.0
H4565 H 0.95883 0.74141 0.35801 0.0
H4566 H 0.37193 0.02076 0.69963 0.0
H4567 H 0.38685 0.01379 0.71589 0.0
H4568 H 0.39753 0.05202 0.75096 0.0
H4569 H 0.38278 0.05922 0.73467 0.0
H4570 H 0.42234 0.05035 0.74571 0.0
H4571 H 0.37016 0.01441 0.75649 0.0
H4572 H 0.34289 0.99446 0.74963 0.0
H4573 H 0.35453 0.96268 0.72798 0.0
H4574 H 0.3819 0.98254 0.73452 0.0
H4575 H 0.45032 0.02614 0.80695 0.0
H4576 H 0.43397 0.03245 0.79217 0.0
H4577 H 0.4228 0.99473 0.75624 0.0
H4578 H 0.43917 0.98841 0.77089 0.0
H4579 H 0.39794 0.99618 0.76249 0.0
H4580 H 0.44986 0.03199 0.75088 0.0
H4581 H 0.47723 0.05175 0.75742 0.0
H4582 H 0.46619 0.08361 0.78013 0.0
H4583 H 0.43872 0.06392 0.77393 0.0
C4584 C 0.37752 0.02776 0.71075 0.0
C4585 C 0.3761 0.04051 0.71589 0.0
C4586 C 0.38598 0.0237 0.72007 0.0
C4587 C 0.3931 0.03223 0.73475 0.0
C4588 C 0.39207 0.04524 0.7397 0.0
C4589 C 0.38362 0.04932 0.73038 0.0
C4590 C 0.40151 0.0275 0.74498 0.0
C4591 C 0.41695 0.03858 0.74958 0.0
C4592 C 0.39455 0.01203 0.74972 0.0
C4593 C 0.37809 2e-05 0.74587 0.0
C4594 C 0.36691 0.00321 0.75017 0.0
C4595 C 0.35143 0.99191 0.74635 0.0
C4596 C 0.34698 0.97732 0.73834 0.0
C4597 C 0.358 0.97399 0.73417 0.0
C4598 C 0.37349 0.98526 0.73794 0.0
C4599 C 0.4443 0.01913 0.79594 0.0
C4600 C 0.4461 0.00684 0.79004 0.0
C4601 C 0.43497 0.02275 0.78753 0.0
C4602 C 0.42737 0.01421 0.77299 0.0
C4603 C 0.42857 0.00146 0.76743 0.0
C4604 C 0.43788 0.99783 0.77585 0.0
C4605 C 0.41875 0.01903 0.76322 0.0
C4606 C 0.4033 0.00797 0.75868 0.0
C4607 C 0.42571 0.0345 0.75848 0.0
C4608 C 0.44223 0.04642 0.76208 0.0
C4609 C 0.45326 0.04316 0.75737 0.0
C4610 C 0.46879 0.05435 0.761 0.0
C4611 C 0.47344 0.06891 0.76922 0.0
C4612 C 0.46257 0.07232 0.77379 0.0
C4613 C 0.44701 0.06115 0.77021 0.0
H4614 H 0.48547 0.07756 0.77203 0.0
H4615 H 0.335 0.96859 0.73539 0.0
H4616 H 0.99068 0.33105 0.74827 0.0
H4617 H 0.99653 0.35529 0.76362 0.0
H4618 H 0.95417 0.34863 0.74496 0.0
H4619 H 0.94836 0.32449 0.72927 0.0
H4620 H 0.97676 0.37876 0.74543 0.0
H4621 H 0.95772 0.33958 0.78216 0.0
H4622 H 0.95622 0.3182 0.79629 0.0
H4623 H 0.00235 0.34959 0.81594 0.0
H4624 H 0.00421 0.37111 0.80173 0.0
H4625 H 0.97318 0.43133 0.80219 0.0
H4626 H 0.96722 0.40646 0.788 0.0
H4627 H 0.0129 0.41797 0.80032 0.0
H4628 H 0.01896 0.44299 0.81454 0.0
H4629 H 0.98858 0.38545 0.80345 0.0
H4630 H 0.00712 0.42459 0.76609 0.0
H4631 H 0.00771 0.44575 0.75237 0.0
H4632 H 0.96112 0.41382 0.73437 0.0
H4633 H 0.96016 0.39251 0.74821 0.0
C4634 C 0.98261 0.33475 0.74738 0.0
C4635 C 0.969 0.3258 0.73762 0.0
C4636 C 0.98595 0.34858 0.75622 0.0
C4637 C 0.97566 0.35361 0.75564 0.0
C4638 C 0.96224 0.34491 0.74562 0.0
C4639 C 0.95892 0.33111 0.73669 0.0
C4640 C 0.9789 0.36792 0.76554 0.0
C4641 C 0.97914 0.38012 0.75814 0.0
C4642 C 0.98226 0.3698 0.7821 0.0
C4643 C 0.98115 0.35692 0.79075 0.0
C4644 C 0.96759 0.3419 0.7894 0.0
C4645 C 0.96667 0.32976 0.79744 0.0
C4646 C 0.9792 0.33252 0.80697 0.0
C4647 C 0.99266 0.34746 0.80853 0.0
C4648 C 0.99365 0.35963 0.80049 0.0
C4649 C 0.98186 0.42842 0.80211 0.0
C4650 C 0.99652 0.43902 0.80946 0.0
C4651 C 0.97847 0.41429 0.79394 0.0
C4652 C 0.98966 0.41049 0.79307 0.0
C4653 C 0.00414 0.42075 0.80089 0.0
C4654 C 0.0076 0.43501 0.80892 0.0
C4655 C 0.98643 0.39618 0.7833 0.0
C4656 C 0.98619 0.38402 0.79074 0.0
C4657 C 0.98293 0.39426 0.7668 0.0
C4658 C 0.98353 0.407 0.75831 0.0
C4659 C 0.99695 0.42211 0.75932 0.0
C4660 C 0.99736 0.43413 0.7515 0.0
C4661 C 0.98445 0.43114 0.74253 0.0
C4662 C 0.97111 0.41612 0.74134 0.0
C4663 C 0.97063 0.40406 0.74916 0.0
H4664 H 0.98482 0.44044 0.73645 0.0
H4665 H 0.97846 0.32311 0.81319 0.0
H4666 H 0.68491 0.61578 0.70342 0.0
H4667 H 0.6608 0.60178 0.71607 0.0
H4668 H 0.65444 0.6404 0.71054 0.0
H4669 H 0.67874 0.65465 0.69849 0.0
H4670 H 0.64882 0.63255 0.73868 0.0
H4671 H 0.63305 0.60355 0.68763 0.0
H4672 H 0.63394 0.58806 0.66438 0.0
H4673 H 0.62758 0.55196 0.69344 0.0
H4674 H 0.62685 0.56733 0.71691 0.0
H4675 H 0.57075 0.59177 0.75721 0.0
H4676 H 0.59315 0.60411 0.74172 0.0
H4677 H 0.60635 0.57291 0.75771 0.0
H4678 H 0.5845 0.56101 0.77383 0.0
H4679 H 0.60771 0.57661 0.72382 0.0
H4680 H 0.62418 0.60703 0.77497 0.0
H4681 H 0.62224 0.62262 0.7974 0.0
H4682 H 0.62615 0.65647 0.76648 0.0
H4683 H 0.62786 0.64093 0.7438 0.0
C4684 C 0.67828 0.6212 0.70479 0.0
C4685 C 0.68373 0.63632 0.70003 0.0
C4686 C 0.66447 0.61316 0.71196 0.0
C4687 C 0.6557 0.61997 0.71415 0.0
C4688 C 0.66101 0.63493 0.70906 0.0
C4689 C 0.67489 0.64305 0.70214 0.0
C4690 C 0.64138 0.61191 0.72242 0.0
C4691 C 0.63975 0.62039 0.73522 0.0
C4692 C 0.62961 0.59595 0.71815 0.0
C4693 C 0.63005 0.58667 0.70406 0.0
C4694 C 0.63197 0.59237 0.68909 0.0
C4695 C 0.63242 0.5836 0.67587 0.0
C4696 C 0.63086 0.56906 0.67744 0.0
C4697 C 0.62881 0.56324 0.69224 0.0
C4698 C 0.62836 0.57197 0.70551 0.0
C4699 C 0.57846 0.5876 0.75757 0.0
C4700 C 0.57577 0.57538 0.76683 0.0
C4701 C 0.59118 0.59458 0.7486 0.0
C4702 C 0.60133 0.58938 0.7486 0.0
C4703 C 0.59853 0.57697 0.75748 0.0
C4704 C 0.58597 0.57014 0.76662 0.0
C4705 C 0.61527 0.59731 0.73989 0.0
C4706 C 0.6168 0.5888 0.72711 0.0
C4707 C 0.62686 0.6133 0.74401 0.0
C4708 C 0.62598 0.62272 0.75766 0.0
C4709 C 0.62449 0.61772 0.77293 0.0
C4710 C 0.62346 0.62656 0.78569 0.0
C4711 C 0.62403 0.6405 0.78336 0.0
C4712 C 0.62568 0.64566 0.76826 0.0
C4713 C 0.62669 0.63684 0.75545 0.0
H4714 H 0.62323 0.64734 0.79326 0.0
H4715 H 0.63121 0.56228 0.66719 0.0
H4716 H 0.692 0.68051 0.64334 0.0
H4717 H 0.68131 0.6957 0.63522 0.0
H4718 H 0.70989 0.73284 0.67189 0.0
H4719 H 0.72061 0.71755 0.68027 0.0
H4720 H 0.68025 0.72516 0.67109 0.0
H4721 H 0.71822 0.73829 0.63412 0.0
H4722 H 0.73231 0.73316 0.6142 0.0
H4723 H 0.69139 0.70652 0.58335 0.0
H4724 H 0.67699 0.7113 0.60319 0.0
H4725 H 0.66374 0.77955 0.63951 0.0
H4726 H 0.67556 0.76617 0.65024 0.0
H4727 H 0.64974 0.72702 0.61452 0.0
H4728 H 0.63824 0.7405 0.60348 0.0
H4729 H 0.67963 0.73752 0.61568 0.0
H4730 H 0.64145 0.72349 0.6531 0.0
H4731 H 0.62732 0.72853 0.67305 0.0
H4732 H 0.66866 0.75699 0.703 0.0
H4733 H 0.68308 0.75229 0.68312 0.0
C4734 C 0.69613 0.69196 0.64963 0.0
C4735 C 0.70719 0.69784 0.66244 0.0
C4736 C 0.69003 0.70065 0.64494 0.0
C4737 C 0.6949 0.71545 0.65287 0.0
C4738 C 0.70601 0.72144 0.66561 0.0
C4739 C 0.71217 0.71274 0.67032 0.0
C4740 C 0.68801 0.72437 0.648 0.0
C4741 C 0.68033 0.72813 0.65905 0.0
C4742 C 0.68787 0.72792 0.6322 0.0
C4743 C 0.6965 0.72505 0.62021 0.0
C4744 C 0.71219 0.73123 0.62314 0.0
C4745 C 0.72024 0.7284 0.61186 0.0
C4746 C 0.71274 0.71949 0.59753 0.0
C4747 C 0.69718 0.71341 0.59446 0.0
C4748 C 0.68907 0.71619 0.60571 0.0
C4749 C 0.66048 0.76801 0.63406 0.0
C4750 C 0.65007 0.76108 0.62065 0.0
C4751 C 0.66717 0.76035 0.64025 0.0
C4752 C 0.66351 0.74559 0.63319 0.0
C4753 C 0.65273 0.73841 0.62015 0.0
C4754 C 0.64604 0.74605 0.61395 0.0
C4755 C 0.67163 0.73808 0.63869 0.0
C4756 C 0.67959 0.73463 0.62775 0.0
C4757 C 0.67203 0.73485 0.65457 0.0
C4758 C 0.66338 0.73768 0.66654 0.0
C4759 C 0.64756 0.73094 0.66388 0.0
C4760 C 0.63949 0.73371 0.67518 0.0
C4761 C 0.64709 0.74311 0.68926 0.0
C4762 C 0.66278 0.74973 0.69208 0.0
C4763 C 0.67091 0.74701 0.6808 0.0
H4764 H 0.64083 0.74524 0.698 0.0
H4765 H 0.71899 0.71731 0.58881 0.0
H4766 H 0.31713 0.99363 0.65053 0.0
H4767 H 0.29884 0.96703 0.63823 0.0
H4768 H 0.27511 0.9553 0.681 0.0
H4769 H 0.29377 0.98172 0.69359 0.0
H4770 H 0.2773 0.93194 0.67025 0.0
H4771 H 0.26152 0.9637 0.64687 0.0
H4772 H 0.26468 0.98574 0.63265 0.0
H4773 H 0.27764 0.96896 0.59202 0.0
H4774 H 0.27475 0.94692 0.60608 0.0
H4775 H 0.20657 0.86494 0.63784 0.0
H4776 H 0.22683 0.89106 0.64974 0.0
H4777 H 0.25275 0.89724 0.609 0.0
H4778 H 0.23243 0.87107 0.59698 0.0
H4779 H 0.25008 0.92305 0.61802 0.0
H4780 H 0.26427 0.89021 0.64189 0.0
H4781 H 0.25993 0.86794 0.65649 0.0
H4782 H 0.24843 0.8867 0.6968 0.0
H4783 H 0.2525 0.90897 0.68235 0.0
C4784 C 0.30798 0.9854 0.6573 0.0
C4785 C 0.30684 0.98977 0.67301 0.0
C4786 C 0.29749 0.9702 0.65023 0.0
C4787 C 0.28543 0.95921 0.65859 0.0
C4788 C 0.2843 0.96356 0.6743 0.0
C4789 C 0.29495 0.97868 0.68147 0.0
C4790 C 0.27409 0.9431 0.65105 0.0
C4791 C 0.27122 0.93003 0.65892 0.0
C4792 C 0.26638 0.94054 0.63608 0.0
C4793 C 0.26807 0.95375 0.62759 0.0
C4794 C 0.26515 0.96477 0.63494 0.0
C4795 C 0.26688 0.97726 0.6269 0.0
C4796 C 0.2714 0.97878 0.61146 0.0
C4797 C 0.27416 0.96778 0.60399 0.0
C4798 C 0.27247 0.95529 0.61199 0.0
C4799 C 0.21661 0.87186 0.63145 0.0
C4800 C 0.21795 0.86602 0.6165 0.0
C4801 C 0.22819 0.88672 0.63828 0.0
C4802 C 0.2413 0.89602 0.63027 0.0
C4803 C 0.24272 0.8902 0.61537 0.0
C4804 C 0.23118 0.87525 0.60858 0.0
C4805 C 0.25327 0.91202 0.6373 0.0
C4806 C 0.25624 0.92503 0.62932 0.0
C4807 C 0.26092 0.91453 0.65224 0.0
C4808 C 0.25856 0.90119 0.66099 0.0
C4809 C 0.2607 0.88952 0.65382 0.0
C4810 C 0.25831 0.87691 0.66208 0.0
C4811 C 0.25388 0.87589 0.67755 0.0
C4812 C 0.25186 0.8875 0.68481 0.0
C4813 C 0.25422 0.90013 0.6766 0.0
H4814 H 0.25203 0.86611 0.68392 0.0
H4815 H 0.27273 0.98845 0.60525 0.0
H4816 H 0.02986 0.32226 0.73475 0.0
H4817 H 0.05395 0.33232 0.72229 0.0
H4818 H 0.03087 0.29512 0.68424 0.0
H4819 H 0.00674 0.28493 0.69662 0.0
H4820 H 0.05898 0.30049 0.69376 0.0
H4821 H 0.03743 0.33093 0.67964 0.0
H4822 H 0.02711 0.3478 0.6852 0.0
H4823 H 0.06936 0.38304 0.71085 0.0
H4824 H 0.07985 0.36625 0.70563 0.0
H4825 H 0.10626 0.32946 0.63114 0.0
H4826 H 0.0852 0.32001 0.64831 0.0
H4827 H 0.1127 0.36112 0.68148 0.0
H4828 H 0.1339 0.37073 0.66421 0.0
H4829 H 0.08415 0.35477 0.6771 0.0
H4830 H 0.10665 0.32544 0.68916 0.0
H4831 H 0.11706 0.30869 0.68336 0.0
H4832 H 0.07341 0.27151 0.66186 0.0
H4833 H 0.06279 0.28813 0.66732 0.0
C4834 C 0.02993 0.31609 0.72383 0.0
C4835 C 0.01635 0.30287 0.7166 0.0
C4836 C 0.0437 0.32189 0.71671 0.0
C4837 C 0.04413 0.31459 0.70224 0.0
C4838 C 0.03076 0.30095 0.69539 0.0
C4839 C 0.01698 0.29517 0.70247 0.0
C4840 C 0.0583 0.32155 0.6938 0.0
C4841 C 0.06444 0.31231 0.69002 0.0
C4842 C 0.06563 0.33714 0.68931 0.0
C4843 C 0.05936 0.34726 0.6924 0.0
C4844 C 0.04447 0.34222 0.68658 0.0
C4845 C 0.0386 0.35177 0.68965 0.0
C4846 C 0.04756 0.36646 0.69842 0.0
C4847 C 0.06242 0.37164 0.70409 0.0
C4848 C 0.06834 0.36212 0.70107 0.0
C4849 C 0.10788 0.33644 0.64215 0.0
C4850 C 0.12178 0.35075 0.64643 0.0
C4851 C 0.09583 0.33102 0.65195 0.0
C4852 C 0.09749 0.3397 0.66633 0.0
C4853 C 0.11123 0.35419 0.67048 0.0
C4854 C 0.12329 0.35968 0.6606 0.0
C4855 C 0.08473 0.33362 0.67684 0.0
C4856 C 0.07884 0.34302 0.68101 0.0
C4857 C 0.07765 0.31819 0.68173 0.0
C4858 C 0.08395 0.30809 0.67855 0.0
C4859 C 0.09929 0.31373 0.6831 0.0
C4860 C 0.10523 0.30425 0.67989 0.0
C4861 C 0.09591 0.28906 0.67222 0.0
C4862 C 0.08062 0.28329 0.66779 0.0
C4863 C 0.07463 0.29273 0.67096 0.0
H4864 H 0.10053 0.28174 0.66974 0.0
H4865 H 0.04299 0.37385 0.70078 0.0
H4866 H 0.29536 0.31689 0.69956 0.0
H4867 H 0.2813 0.32718 0.6871 0.0
H4868 H 0.29263 0.31701 0.64122 0.0
H4869 H 0.30695 0.30702 0.65358 0.0
H4870 H 0.29755 0.34576 0.64392 0.0
H4871 H 0.25645 0.29423 0.65393 0.0
H4872 H 0.24098 0.27218 0.66995 0.0
H4873 H 0.23137 0.30179 0.69958 0.0
H4874 H 0.24697 0.3241 0.68386 0.0
H4875 H 0.24321 0.35159 0.59637 0.0
H4876 H 0.25816 0.34267 0.60972 0.0
H4877 H 0.25015 0.35807 0.65497 0.0
H4878 H 0.23515 0.36693 0.64169 0.0
H4879 H 0.24373 0.32734 0.65312 0.0
H4880 H 0.28443 0.37868 0.64223 0.0
H4881 H 0.29954 0.40031 0.62564 0.0
H4882 H 0.30945 0.37041 0.59694 0.0
H4883 H 0.29421 0.34851 0.61323 0.0
C4884 C 0.29474 0.3167 0.6868 0.0
C4885 C 0.30227 0.31113 0.67756 0.0
C4886 C 0.28667 0.32256 0.6797 0.0
C4887 C 0.28583 0.32277 0.66321 0.0
C4888 C 0.29316 0.317 0.65396 0.0
C4889 C 0.30129 0.31123 0.66105 0.0
C4890 C 0.27771 0.32944 0.65561 0.0
C4891 C 0.28572 0.34158 0.64577 0.0
C4892 C 0.26239 0.32427 0.65833 0.0
C4893 C 0.25302 0.31088 0.66781 0.0
C4894 C 0.25115 0.29608 0.66394 0.0
C4895 C 0.24233 0.28353 0.67295 0.0
C4896 C 0.23523 0.2856 0.6858 0.0
C4897 C 0.2369 0.30022 0.68964 0.0
C4898 C 0.24572 0.31281 0.68068 0.0
C4899 C 0.24478 0.35319 0.60915 0.0
C4900 C 0.23811 0.36001 0.61801 0.0
C4901 C 0.25334 0.34816 0.61675 0.0
C4902 C 0.25529 0.34977 0.63332 0.0
C4903 C 0.2488 0.35676 0.64217 0.0
C4904 C 0.24036 0.36193 0.63458 0.0
C4905 C 0.26355 0.34355 0.6414 0.0
C4906 C 0.25557 0.33152 0.65132 0.0
C4907 C 0.27886 0.34875 0.63868 0.0
C4908 C 0.28804 0.3619 0.62886 0.0
C4909 C 0.28971 0.37666 0.6323 0.0
C4910 C 0.29833 0.38898 0.62296 0.0
C4911 C 0.30542 0.38672 0.61022 0.0
C4912 C 0.30394 0.37214 0.6068 0.0
C4913 C 0.29532 0.35977 0.61609 0.0
H4914 H 0.31209 0.39627 0.603 0.0
H4915 H 0.22841 0.27586 0.69276 0.0
H4916 H 0.71399 0.00286 0.65786 0.0
H4917 H 0.70287 0.9763 0.64462 0.0
H4918 H 0.66166 0.97491 0.63151 0.0
H4919 H 0.67267 0.0015 0.64478 0.0
H4920 H 0.65581 0.94734 0.64311 0.0
H4921 H 0.68585 0.98088 0.60426 0.0
H4922 H 0.70898 0.00256 0.59394 0.0
H4923 H 0.73309 0.97968 0.60355 0.0
H4924 H 0.71016 0.95796 0.61416 0.0
H4925 H 0.62699 0.87769 0.58924 0.0
H4926 H 0.63544 0.90443 0.60066 0.0
H4927 H 0.67951 0.91239 0.61462 0.0
H4928 H 0.67116 0.88581 0.60336 0.0
H4929 H 0.68243 0.93704 0.60088 0.0
H4930 H 0.65308 0.9045 0.64131 0.0
H4931 H 0.63012 0.88286 0.65192 0.0
H4932 H 0.60484 0.90384 0.63949 0.0
H4933 H 0.62761 0.9255 0.62859 0.0
C4934 C 0.70256 0.99692 0.65217 0.0
C4935 C 0.69424 0.00432 0.65232 0.0
C4936 C 0.69624 0.98176 0.64457 0.0
C4937 C 0.68151 0.97372 0.63696 0.0
C4938 C 0.67306 0.98095 0.63729 0.0
C4939 C 0.6794 0.99616 0.64483 0.0
C4940 C 0.67497 0.95775 0.62867 0.0
C4941 C 0.66148 0.9451 0.6337 0.0
C4942 C 0.68251 0.95485 0.61656 0.0
C4943 C 0.69632 0.96786 0.61013 0.0
C4944 C 0.69612 0.98053 0.6043 0.0
C4945 C 0.70919 0.99282 0.59837 0.0
C4946 C 0.7225 0.99251 0.59812 0.0
C4947 C 0.72277 0.9799 0.60377 0.0
C4948 C 0.70973 0.9676 0.60972 0.0
C4949 C 0.63844 0.88513 0.59484 0.0
C4950 C 0.64844 0.87969 0.59532 0.0
C4951 C 0.64325 0.90039 0.60134 0.0
C4952 C 0.65809 0.91037 0.60853 0.0
C4953 C 0.66805 0.90493 0.60903 0.0
C4954 C 0.66327 0.88975 0.60254 0.0
C4955 C 0.66342 0.92655 0.61551 0.0
C4956 C 0.67668 0.93928 0.61021 0.0
C4957 C 0.65567 0.9295 0.62738 0.0
C4958 C 0.642 0.91652 0.63397 0.0
C4959 C 0.64259 0.90443 0.64071 0.0
C4960 C 0.62962 0.89217 0.6468 0.0
C4961 C 0.61602 0.89195 0.64633 0.0
C4962 C 0.61538 0.90401 0.63982 0.0
C4963 C 0.62831 0.91629 0.63369 0.0
H4964 H 0.60599 0.88246 0.65106 0.0
H4965 H 0.73261 0.00204 0.59353 0.0
H4966 H 0.97658 0.68617 0.67388 0.0
H4967 H 0.00037 0.6984 0.6607 0.0
H4968 H 0.0258 0.70746 0.70526 0.0
H4969 H 0.00199 0.6952 0.71862 0.0
H4970 H 0.03952 0.73292 0.6866 0.0
H4971 H 0.01952 0.67747 0.68157 0.0
H4972 H -0.00014 0.64923 0.67526 0.0
H4973 H 0.99591 0.65707 0.62684 0.0
H4974 H 0.0154 0.68543 0.63291 0.0
H4975 H 0.10697 0.752 0.64852 0.0
H4976 H 0.0855 0.73894 0.66521 0.0
H4977 H 0.05388 0.72363 0.62414 0.0
H4978 H 0.07523 0.73618 0.60738 0.0
H4979 H 0.0446 0.70059 0.64334 0.0
H4980 H 0.06291 0.75622 0.64878 0.0
H4981 H 0.08236 0.78456 0.65493 0.0
H4982 H 0.08935 0.77642 0.70244 0.0
H4983 H 0.07007 0.74797 0.6965 0.0
C4984 C 0.98723 0.69088 0.68093 0.0
C4985 C 0.98738 0.68961 0.69729 0.0
C4986 C 0.00081 0.6978 0.67336 0.0
C4987 C 0.0148 0.70361 0.68198 0.0
C4988 C 0.01509 0.70297 0.6984 0.0
C4989 C 0.00148 0.69594 0.706 0.0
C4990 C 0.02901 0.70995 0.67368 0.0
C4991 C 0.04077 0.7258 0.67732 0.0
C4992 C 0.0305 0.70068 0.66146 0.0
C4993 C 0.01883 0.68361 0.65773 0.0
C4994 C 0.01438 0.6732 0.6696 0.0
C4995 C 0.00328 0.65716 0.66607 0.0
C4996 C 0.99662 0.65136 0.65067 0.0
C4997 C 0.00107 0.66158 0.63877 0.0
C4998 C 0.01215 0.67764 0.64225 0.0
C4999 C 0.09544 0.74562 0.64303 0.0
C5000 C 0.09278 0.74521 0.62665 0.0
C5001 C 0.0832 0.73829 0.65259 0.0
C5002 C 0.0681 0.73052 0.64594 0.0
C5003 C 0.06544 0.72962 0.62953 0.0
C5004 C 0.07764 0.73691 0.61998 0.0
C5005 C 0.05501 0.72367 0.65601 0.0
C5006 C 0.04344 0.70769 0.65272 0.0
C5007 C 0.05369 0.73284 0.66852 0.0
C5008 C 0.06518 0.74995 0.67214 0.0
C5009 C 0.06868 0.76046 0.6605 0.0
C5010 C 0.07966 0.77654 0.66395 0.0
C5011 C 0.08712 0.78228 0.67905 0.0
C5012 C 0.08358 0.77195 0.69074 0.0
C5013 C 0.07263 0.75585 0.68734 0.0
H5014 H 0.09562 0.79474 0.6817 0.0
H5015 H 0.98803 0.63894 0.64795 0.0
H5016 H 0.95557 0.6273 0.71227 0.0
H5017 H 0.96318 0.60993 0.72187 0.0
H5018 H 0.9373 0.60366 0.76267 0.0
H5019 H 0.92988 0.62132 0.75331 0.0
H5020 H 0.96479 0.60958 0.77119 0.0
H5021 H 0.92468 0.57434 0.73185 0.0
H5022 H 0.91105 0.56564 0.70538 0.0
H5023 H 0.94982 0.56795 0.68562 0.0
H5024 H 0.96376 0.57687 0.71196 0.0
H5025 H 0.9643 0.54462 0.79845 0.0
H5026 H 0.95569 0.56028 0.78643 0.0
H5027 H 0.98732 0.57067 0.75029 0.0
H5028 H 0.99598 0.55489 0.76228 0.0
H5029 H 0.95754 0.5627 0.7389 0.0
H5030 H 0.99736 0.59749 0.77858 0.0
H5031 H 0.01059 0.60566 0.80523 0.0
H5032 H 0.97185 0.60381 0.8245 0.0
H5033 H 0.95825 0.59533 0.798 0.0
C5034 C 0.95139 0.62214 0.72323 0.0
C5035 C 0.94209 0.62568 0.73202 0.0
C5036 C 0.95572 0.61215 0.72867 0.0
C5037 C 0.9507 0.60536 0.74291 0.0
C5038 C 0.94131 0.60877 0.75164 0.0
C5039 C 0.93704 0.61883 0.74625 0.0
C5040 C 0.95564 0.59513 0.74897 0.0
C5041 C 0.963 0.59921 0.7642 0.0
C5042 C 0.95369 0.58184 0.73969 0.0
C5043 C 0.94532 0.57643 0.72385 0.0
C5044 C 0.93034 0.57312 0.72184 0.0
C5045 C 0.92255 0.56812 0.70687 0.0
C5046 C 0.92958 0.56628 0.69382 0.0
C5047 C 0.9444 0.5694 0.69574 0.0
C5048 C 0.95225 0.57441 0.71069 0.0
C5049 C 0.96924 0.55002 0.78779 0.0
C5050 C 0.98078 0.54852 0.78125 0.0
C5051 C 0.96439 0.55904 0.78101 0.0
C5052 C 0.97096 0.5667 0.76756 0.0
C5053 C 0.98214 0.56484 0.76069 0.0
C5054 C 0.98712 0.55592 0.76757 0.0
C5055 C 0.96649 0.57711 0.76111 0.0
C5056 C 0.9593 0.57309 0.74584 0.0
C5057 C 0.96854 0.59043 0.77036 0.0
C5058 C 0.97673 0.59563 0.78631 0.0
C5059 C 0.9916 0.59869 0.78852 0.0
C5060 C 0.99918 0.60339 0.8036 0.0
C5061 C 0.99206 0.60524 0.81655 0.0
C5062 C 0.97735 0.60237 0.81445 0.0
C5063 C 0.9697 0.59762 0.7994 0.0
H5064 H 0.99797 0.60894 0.8282 0.0
H5065 H 0.92353 0.56241 0.68224 0.0
H5066 H 0.36592 0.36394 0.70166 0.0
H5067 H 0.38374 0.38979 0.7159 0.0
H5068 H 0.37936 0.36776 0.75894 0.0
H5069 H 0.36141 0.34189 0.74485 0.0
H5070 H 0.37742 0.39355 0.76383 0.0
H5071 H 0.41088 0.38061 0.73866 0.0
H5072 H 0.42079 0.37266 0.71627 0.0
H5073 H 0.43027 0.41369 0.69384 0.0
H5074 H 0.42023 0.42178 0.71601 0.0
H5075 H 0.44225 0.45666 0.80973 0.0
H5076 H 0.42272 0.43168 0.79515 0.0
H5077 H 0.42927 0.45527 0.75281 0.0
H5078 H 0.44919 0.48018 0.76717 0.0
H5079 H 0.42962 0.42908 0.74708 0.0
H5080 H 0.39701 0.44259 0.7728 0.0
H5081 H 0.38723 0.45055 0.79528 0.0
H5082 H 0.37618 0.40858 0.81677 0.0
H5083 H 0.3861 0.40047 0.79451 0.0
C5084 C 0.36879 0.36458 0.71414 0.0
C5085 C 0.36227 0.35085 0.72211 0.0
C5086 C 0.379 0.37936 0.72225 0.0
C5087 C 0.38294 0.38068 0.73845 0.0
C5088 C 0.37645 0.367 0.74644 0.0
C5089 C 0.36624 0.35222 0.73835 0.0
C5090 C 0.39375 0.39633 0.74712 0.0
C5091 C 0.3889 0.40126 0.76029 0.0
C5092 C 0.40858 0.40653 0.74224 0.0
C5093 C 0.41465 0.40171 0.72892 0.0
C5094 C 0.41496 0.38787 0.72889 0.0
C5095 C 0.42062 0.38335 0.71626 0.0
C5096 C 0.42611 0.39264 0.70362 0.0
C5097 C 0.42599 0.4065 0.70362 0.0
C5098 C 0.42033 0.41106 0.71622 0.0
C5099 C 0.43948 0.45653 0.79733 0.0
C5100 C 0.44727 0.47039 0.7896 0.0
C5101 C 0.42822 0.44228 0.78904 0.0
C5102 C 0.42446 0.44164 0.77291 0.0
C5103 C 0.43197 0.45552 0.76526 0.0
C5104 C 0.44325 0.46977 0.77352 0.0
C5105 C 0.41332 0.42632 0.76383 0.0
C5106 C 0.41811 0.42143 0.75059 0.0
C5107 C 0.39845 0.41617 0.76865 0.0
C5108 C 0.39243 0.42099 0.78204 0.0
C5109 C 0.39261 0.43512 0.78237 0.0
C5110 C 0.38702 0.43965 0.79507 0.0
C5111 C 0.38112 0.4301 0.80746 0.0
C5112 C 0.38077 0.41597 0.80717 0.0
C5113 C 0.38636 0.4114 0.79451 0.0
H5114 H 0.37679 0.43362 0.81728 0.0
H5115 H 0.4305 0.38913 0.69385 0.0
H5116 H 0.67291 0.05629 0.70051 0.0
H5117 H 0.65145 0.05149 0.71573 0.0
H5118 H 0.61996 0.02185 0.67614 0.0
H5119 H 0.64142 0.02659 0.6607 0.0
H5120 H 0.61191 0.04179 0.6924 0.0
H5121 H 0.6257 0.00442 0.70373 0.0
H5122 H 0.64351 0.99635 0.71136 0.0
H5123 H 0.65484 0.02399 0.75612 0.0
H5124 H 0.63725 0.03242 0.74866 0.0
H5125 H 0.5467 0.0039 0.73752 0.0
H5126 H 0.56665 0.00962 0.71953 0.0
H5127 H 0.60093 0.03356 0.75852 0.0
H5128 H 0.58106 0.02703 0.77668 0.0
H5129 H 0.60684 0.01554 0.74127 0.0
H5130 H 0.59386 0.05357 0.73031 0.0
H5131 H 0.57666 0.06248 0.72294 0.0
H5132 H 0.56438 0.03478 0.67811 0.0
H5133 H 0.58136 0.02553 0.6853 0.0
C5134 C 0.66144 0.0489 0.69492 0.0
C5135 C 0.65887 0.04168 0.67943 0.0
C5136 C 0.6492 0.04616 0.70367 0.0
C5137 C 0.63415 0.03614 0.69712 0.0
C5138 C 0.63152 0.02958 0.6814 0.0
C5139 C 0.64379 0.03227 0.67262 0.0
C5140 C 0.62122 0.0318 0.70707 0.0
C5141 C 0.61064 0.03587 0.70298 0.0
C5142 C 0.61979 0.02433 0.72101 0.0
C5143 C 0.63026 0.01916 0.72558 0.0
C5144 C 0.63207 0.00887 0.71515 0.0
C5145 C 0.64211 0.00422 0.71945 0.0
C5146 C 0.65033 0.00969 0.7342 0.0
C5147 C 0.64848 0.01978 0.74469 0.0
C5148 C 0.63847 0.02449 0.74044 0.0
C5149 C 0.55847 0.01025 0.7423 0.0
C5150 C 0.56225 0.01504 0.75858 0.0
C5151 C 0.56989 0.0137 0.73195 0.0
C5152 C 0.58532 0.02223 0.73762 0.0
C5153 C 0.58911 0.02703 0.75384 0.0
C5154 C 0.57772 0.02343 0.7642 0.0
C5155 C 0.59757 0.02578 0.72682 0.0
C5156 C 0.60803 0.02147 0.73071 0.0
C5157 C 0.59892 0.03313 0.71278 0.0
C5158 C 0.58876 0.03873 0.70841 0.0
C5159 C 0.5874 0.04928 0.71893 0.0
C5160 C 0.57771 0.05441 0.71477 0.0
C5161 C 0.56941 0.04916 0.70008 0.0
C5162 C 0.57081 0.03881 0.68949 0.0
C5163 C 0.58047 0.03363 0.6936 0.0
H5164 H 0.56191 0.05315 0.69689 0.0
H5165 H 0.6581 0.00607 0.7375 0.0
loop_
_geom_bond_atom_site_label_1
_geom_bond_atom_site_label_2
_geom_bond_distance
_geom_bond_site_symmetry_2
_ccdc_geom_bond_type
C0 O1 1.160 . S
C0 O7 1.185 . S
O1 C0 1.160 . S
O2 Zn3 1.899 1_655 S
O2 C10 1.284 . S
Zn3 O2 1.899 1_455 S
Zn3 O4 2.032 . S
Zn3 O7 2.086 . S
Zn3 O12 1.977 . S
O4 Zn3 2.032 . S
O4 C8 1.279 1_455 S
C5 O6 1.203 1_455 S
C5 O12 1.267 1_556 S
O6 C5 1.203 1_655 S
O7 C0 1.185 . S
O7 Zn3 2.086 . S
C8 O4 1.279 1_655 S
C8 O9 1.210 . S
O9 C8 1.210 . S
C10 O2 1.284 . S
C10 O11 1.273 . S
O11 C10 1.273 . S
O12 Zn3 1.977 . S
O12 C5 1.267 1_554 S
C13 O14 1.160 . S
C13 O20 1.185 . S
O14 C13 1.160 . S
O15 Zn16 1.899 . S
O15 C23 1.284 . S
Zn16 O15 1.899 . S
Zn16 O17 2.032 . S
Zn16 O20 2.086 . S
Zn16 O25 1.977 . S
O17 Zn16 2.032 . S
O17 C21 1.278 . S
C18 O19 1.203 . S
C18 O25 1.267 . S
O19 C18 1.203 . S
O20 C13 1.185 . S
O20 Zn16 2.086 . S
C21 O17 1.278 . S
C21 O22 1.211 . S
O22 C21 1.211 . S
C23 O15 1.284 . S
C23 O24 1.273 . S
O24 C23 1.273 . S
O25 Zn16 1.977 . S
O25 C18 1.267 . S
C26 O27 1.160 . S
C26 O33 1.185 . S
O27 C26 1.160 . S
O28 Zn29 1.898 . S
O28 C36 1.290 1_545 S
Zn29 O28 1.898 . S
Zn29 O30 2.032 . S
Zn29 O33 2.086 . S
Zn29 O38 1.977 . S
O30 Zn29 2.032 . S
O30 C34 1.245 1_545 S
C31 O32 1.255 . S
C31 O38 1.267 . S
O32 C31 1.255 . S
O33 C26 1.185 . S
O33 Zn29 2.086 . S
C34 O30 1.245 1_565 S
C34 O35 1.234 . S
O35 C34 1.234 . S
C36 O28 1.290 1_565 S
C36 O37 1.273 . S
O37 C36 1.273 . S
O38 Zn29 1.977 . S
O38 C31 1.267 . S
C39 O40 1.160 . S
C39 O46 1.185 . S
O40 C39 1.160 . S
O41 Zn42 1.899 1_455 S
O41 C49 1.284 . S
Zn42 O41 1.899 1_655 S
Zn42 O43 2.019 1_655 S
Zn42 O46 2.086 . S
Zn42 O51 1.977 . S
O43 Zn42 2.019 1_455 S
O43 C47 1.307 . S
C44 O45 1.203 1_655 S
C44 O51 1.267 . S
O45 C44 1.203 1_455 S
O46 C39 1.185 . S
O46 Zn42 2.086 . S
C47 O43 1.307 . S
C47 O48 1.211 . S
O48 C47 1.211 . S
C49 O41 1.284 . S
C49 O50 1.273 . S
O50 C49 1.273 . S
O51 Zn42 1.977 . S
O51 C44 1.267 . S
C52 O53 1.160 . S
C52 O59 1.185 . S
O53 C52 1.160 . S
O54 Zn55 1.899 1_556 S
O54 C62 1.284 . S
Zn55 O54 1.899 1_554 S
Zn55 O56 2.032 . S
Zn55 O59 2.086 . S
Zn55 O64 1.977 1_554 S
O56 Zn55 2.032 . S
O56 C60 1.278 . S
C57 O58 1.203 . S
C57 O64 1.267 . S
O58 C57 1.203 . S
O59 C52 1.185 . S
O59 Zn55 2.086 . S
C60 O56 1.278 . S
C60 O61 1.211 . S
O61 C60 1.211 . S
C62 O54 1.284 . S
C62 O63 1.261 1_556 S
O63 C62 1.261 1_554 S
O64 Zn55 1.977 1_556 S
O64 C57 1.267 . S
C65 O66 1.160 . S
C65 O72 1.185 . S
O66 C65 1.160 . S
O67 Zn68 1.899 1_545 S
O67 C75 1.284 . S
Zn68 O67 1.899 1_565 S
Zn68 O69 2.032 1_565 S
Zn68 O72 2.086 . S
Zn68 O77 1.977 . S
O69 Zn68 2.032 1_545 S
O69 C73 1.278 . S
C70 O71 1.203 1_565 S
C70 O77 1.267 . S
O71 C70 1.203 1_545 S
O72 C65 1.185 . S
O72 Zn68 2.086 . S
C73 O69 1.278 . S
C73 O74 1.211 . S
O74 C73 1.211 . S
C75 O67 1.284 . S
C75 O76 1.273 . S
O76 C75 1.273 . S
O77 Zn68 1.977 . S
O77 C70 1.267 . S
C78 O79 1.160 . S
C78 O85 1.185 . S
O79 C78 1.160 . S
O80 Zn81 1.899 . S
O80 C88 1.284 . S
Zn81 O80 1.899 . S
Zn81 O82 2.032 . S
Zn81 O85 2.086 . S
Zn81 O90 1.977 . S
O82 Zn81 2.032 . S
O82 C86 1.278 . S
C83 O84 1.203 . S
C83 O90 1.267 . S
O84 C83 1.203 . S
O85 C78 1.185 . S
O85 Zn81 2.086 . S
C86 O82 1.278 . S
C86 O87 1.211 . S
O87 C86 1.211 . S
C88 O80 1.284 . S
C88 O89 1.273 . S
O89 C88 1.273 . S
O90 Zn81 1.977 . S
O90 C83 1.267 . S
C91 O92 1.160 . S
C91 O98 1.185 . S
O92 C91 1.160 . S
O93 Zn94 1.899 . S
O93 C101 1.284 . S
Zn94 O93 1.899 . S
Zn94 O95 2.032 . S
Zn94 O98 2.086 . S
Zn94 O103 1.977 . S
O95 Zn94 2.032 . S
O95 C99 1.278 . S
C96 O97 1.203 . S
C96 O103 1.267 . S
O97 C96 1.203 . S
O98 C91 1.185 . S
O98 Zn94 2.086 . S
C99 O95 1.278 . S
C99 O100 1.211 . S
O100 C99 1.211 . S
C101 O93 1.284 . S
C101 O102 1.273 . S
O102 C101 1.273 . S
O103 Zn94 1.977 . S
O103 C96 1.267 . S
C104 O105 1.160 . S
C104 O111 1.185 . S
O105 C104 1.160 . S
O106 Zn107 1.899 . S
O106 C114 1.284 . S
Zn107 O106 1.899 . S
Zn107 O108 2.032 . S
Zn107 O111 2.086 . S
Zn107 O116 1.977 . S
O108 Zn107 2.032 . S
O108 C112 1.278 . S
C109 O110 1.203 . S
C109 O116 1.267 . S
O110 C109 1.203 . S
O111 C104 1.185 . S
O111 Zn107 2.086 . S
C112 O108 1.278 . S
C112 O113 1.211 . S
O113 C112 1.211 . S
C114 O106 1.284 . S
C114 O115 1.273 . S
O115 C114 1.273 . S
O116 Zn107 1.977 . S
O116 C109 1.267 . S
C117 O118 1.160 . S
C117 O124 1.185 . S
O118 C117 1.160 . S
O119 Zn120 1.899 . S
O119 C127 1.284 . S
Zn120 O119 1.899 . S
Zn120 O121 2.032 . S
Zn120 O124 2.086 . S
Zn120 O129 1.977 . S
O121 Zn120 2.032 . S
O121 C125 1.278 . S
C122 O123 1.203 . S
C122 O129 1.267 . S
O123 C122 1.203 . S
O124 C117 1.185 . S
O124 Zn120 2.086 . S
C125 O121 1.278 . S
C125 O126 1.211 . S
O126 C125 1.211 . S
C127 O119 1.284 . S
C127 O128 1.273 . S
O128 C127 1.273 . S
O129 Zn120 1.977 . S
O129 C122 1.267 . S
C130 O131 1.160 . S
C130 O137 1.185 . S
O131 C130 1.160 . S
O132 Zn133 1.899 . S
O132 C140 1.284 . S
Zn133 O132 1.899 . S
Zn133 O134 2.032 . S
Zn133 O137 2.086 . S
Zn133 O142 1.977 . S
O134 Zn133 2.032 . S
O134 C138 1.278 . S
C135 O136 1.203 . S
C135 O142 1.267 . S
O136 C135 1.203 . S
O137 C130 1.185 . S
O137 Zn133 2.086 . S
C138 O134 1.278 . S
C138 O139 1.211 . S
O139 C138 1.211 . S
C140 O132 1.284 . S
C140 O141 1.273 . S
O141 C140 1.273 . S
O142 Zn133 1.977 . S
O142 C135 1.267 . S
C143 O144 1.160 . S
C143 O150 1.185 . S
O144 C143 1.160 . S
O145 Zn146 1.899 . S
O145 C153 1.284 . S
Zn146 O145 1.899 . S
Zn146 O147 2.032 . S
Zn146 O150 2.086 . S
Zn146 O155 1.977 . S
O147 Zn146 2.032 . S
O147 C151 1.278 . S
C148 O149 1.203 . S
C148 O155 1.267 . S
O149 C148 1.203 . S
O150 C143 1.185 . S
O150 Zn146 2.086 . S
C151 O147 1.278 . S
C151 O152 1.211 . S
O152 C151 1.211 . S
C153 O145 1.284 . S
C153 O154 1.273 . S
O154 C153 1.273 . S
O155 Zn146 1.977 . S
O155 C148 1.267 . S
C156 O157 1.160 . S
C156 O163 1.185 . S
O157 C156 1.160 . S
O158 Zn159 1.899 . S
O158 C166 1.284 . S
Zn159 O158 1.899 . S
Zn159 O160 2.032 . S
Zn159 O163 2.086 . S
Zn159 O168 1.977 . S
O160 Zn159 2.032 . S
O160 C164 1.278 . S
C161 O162 1.203 . S
C161 O168 1.267 . S
O162 C161 1.203 . S
O163 C156 1.185 . S
O163 Zn159 2.086 . S
C164 O160 1.278 . S
C164 O165 1.211 . S
O165 C164 1.211 . S
C166 O158 1.284 . S
C166 O167 1.273 . S
O167 C166 1.273 . S
O168 Zn159 1.977 . S
O168 C161 1.267 . S
C169 O170 1.208 . S
C169 O176 1.185 1_455 S
O170 C169 1.208 . S
O171 Zn172 1.899 . S
O171 C179 1.284 . S
Zn172 O171 1.899 . S
Zn172 O173 2.032 . S
Zn172 O176 2.086 . S
Zn172 O181 1.977 . S
O173 Zn172 2.032 . S
O173 C177 1.278 . S
C174 O175 1.203 . S
C174 O181 1.267 . S
O175 C174 1.203 . S
O176 C169 1.185 1_655 S
O176 Zn172 2.086 . S
C177 O173 1.278 . S
C177 O178 1.211 . S
O178 C177 1.211 . S
C179 O171 1.284 . S
C179 O180 1.273 . S
O180 C179 1.273 . S
O181 Zn172 1.977 . S
O181 C174 1.267 . S
C182 O183 1.160 . S
C182 O189 1.185 . S
O183 C182 1.160 . S
O184 Zn185 1.899 . S
O184 C192 1.284 . S
Zn185 O184 1.899 . S
Zn185 O186 2.032 . S
Zn185 O189 2.086 . S
Zn185 O194 1.977 . S
O186 Zn185 2.032 . S
O186 C190 1.278 . S
C187 O188 1.203 . S
C187 O194 1.267 . S
O188 C187 1.203 . S
O189 C182 1.185 . S
O189 Zn185 2.086 . S
C190 O186 1.278 . S
C190 O191 1.211 . S
O191 C190 1.211 . S
C192 O184 1.284 . S
C192 O193 1.273 . S
O193 C192 1.273 . S
O194 Zn185 1.977 . S
O194 C187 1.267 . S
C195 O196 1.160 . S
C195 O202 1.185 . S
O196 C195 1.160 . S
O197 Zn198 1.899 . S
O197 C205 1.284 . S
Zn198 O197 1.899 . S
Zn198 O199 2.032 . S
Zn198 O202 2.086 . S
Zn198 O207 1.977 . S
O199 Zn198 2.032 . S
O199 C203 1.278 . S
C200 O201 1.203 . S
C200 O207 1.267 . S
O201 C200 1.203 . S
O202 C195 1.185 . S
O202 Zn198 2.086 . S
C203 O199 1.278 . S
C203 O204 1.211 . S
O204 C203 1.211 . S
C205 O197 1.284 . S
C205 O206 1.273 . S
O206 C205 1.273 . S
O207 Zn198 1.977 . S
O207 C200 1.267 . S
C208 O209 1.160 . S
C208 O215 1.185 . S
O209 C208 1.160 . S
O210 Zn211 1.899 . S
O210 C218 1.284 . S
Zn211 O210 1.899 . S
Zn211 O212 2.032 . S
Zn211 O215 2.086 . S
Zn211 O220 1.977 . S
O212 Zn211 2.032 . S
O212 C216 1.278 . S
C213 O214 1.203 . S
C213 O220 1.267 . S
O214 C213 1.203 . S
O215 C208 1.185 . S
O215 Zn211 2.086 . S
C216 O212 1.278 . S
C216 O217 1.211 . S
O217 C216 1.211 . S
C218 O210 1.284 . S
C218 O219 1.273 . S
O219 C218 1.273 . S
O220 Zn211 1.977 . S
O220 C213 1.267 . S
C221 O222 1.160 . S
C221 O228 1.185 . S
O222 C221 1.160 . S
O223 Zn224 1.899 . S
O223 C231 1.284 . S
Zn224 O223 1.899 . S
Zn224 O225 2.032 . S
Zn224 O228 2.086 . S
Zn224 O233 1.977 . S
O225 Zn224 2.032 . S
O225 C229 1.278 . S
C226 O227 1.203 . S
C226 O233 1.267 . S
O227 C226 1.203 . S
O228 C221 1.185 . S
O228 Zn224 2.086 . S
C229 O225 1.278 . S
C229 O230 1.211 . S
O230 C229 1.211 . S
C231 O223 1.284 . S
C231 O232 1.273 . S
O232 C231 1.273 . S
O233 Zn224 1.977 . S
O233 C226 1.267 . S
H234 O260 0.856 . S
H235 O263 0.854 . S
H236 C271 0.930 . S
H237 C272 0.930 . S
H238 C274 0.930 . S
H239 C275 0.930 . S
H240 C277 0.931 . S
H241 C278 0.930 . S
H242 C280 0.930 . S
H243 C281 0.929 . S
H244 C283 0.930 . S
H245 C284 0.931 . S
H246 C286 0.930 . S
H247 C287 0.929 . S
H248 C289 0.931 . S
H249 C290 0.930 . S
H250 C292 0.930 . S
H251 C293 0.932 . S
H252 C295 0.930 . S
H253 C296 0.929 . S
H254 C298 0.931 . S
H255 C299 0.930 . S
H256 C301 0.929 . S
H257 C302 0.931 . S
H258 C304 0.930 . S
H259 C305 0.929 . S
O260 H234 0.856 . S
O260 C306 1.300 . S
O261 C306 1.209 . S
O262 C307 1.199 . S
O263 H235 0.854 . S
O263 C307 1.297 . S
C264 C265 1.404 . S
C264 C269 1.397 . S
C264 C270 1.492 . S
C265 C264 1.404 . S
C265 C266 1.396 . S
C265 C276 1.492 . S
C266 C265 1.396 . S
C266 C267 1.397 . S
C266 C282 1.509 . S
C267 C266 1.397 . S
C267 C268 1.412 . S
C267 C288 1.485 . S
C268 C267 1.412 . S
C268 C269 1.388 . S
C268 C294 1.490 . S
C269 C264 1.397 . S
C269 C268 1.388 . S
C269 C300 1.519 . S
C270 C264 1.492 . S
C270 C271 1.363 . S
C270 C275 1.390 . S
C271 H236 0.930 . S
C271 C270 1.363 . S
C271 C272 1.372 . S
C272 H237 0.930 . S
C272 C271 1.372 . S
C272 C273 1.383 . S
C273 C272 1.383 . S
C273 C274 1.395 . S
C274 H238 0.930 . S
C274 C273 1.395 . S
C274 C275 1.362 . S
C275 H239 0.930 . S
C275 C270 1.390 . S
C275 C274 1.362 . S
C276 C265 1.492 . S
C276 C277 1.377 . S
C276 C281 1.397 . S
C277 H240 0.931 . S
C277 C276 1.377 . S
C277 C278 1.376 . S
C278 H241 0.930 . S
C278 C277 1.376 . S
C278 C279 1.376 . S
C279 C278 1.376 . S
C279 C280 1.378 . S
C279 C306 1.486 . S
C280 H242 0.930 . S
C280 C279 1.378 . S
C280 C281 1.376 . S
C281 H243 0.929 . S
C281 C276 1.397 . S
C281 C280 1.376 . S
C282 C266 1.509 . S
C282 C283 1.391 . S
C282 C287 1.386 . S
C283 H244 0.930 . S
C283 C282 1.391 . S
C283 C284 1.375 . S
C284 H245 0.931 . S
C284 C283 1.375 . S
C284 C285 1.375 . S
C285 C284 1.375 . S
C285 C286 1.361 . S
C286 H246 0.930 . S
C286 C285 1.361 . S
C286 C287 1.399 . S
C287 H247 0.929 . S
C287 C282 1.386 . S
C287 C286 1.399 . S
C288 C267 1.485 . S
C288 C289 1.394 . S
C288 C293 1.360 . S
C289 H248 0.931 . S
C289 C288 1.394 . S
C289 C290 1.372 . S
C290 H249 0.930 . S
C290 C289 1.372 . S
C290 C291 1.397 . S
C291 C290 1.397 . S
C291 C292 1.390 . S
C291 C307 1.476 . S
C292 H250 0.930 . S
C292 C291 1.390 . S
C292 C293 1.366 . S
C293 H251 0.932 . S
C293 C288 1.360 . S
C293 C292 1.366 . S
C294 C268 1.490 . S
C294 C295 1.380 . S
C294 C299 1.386 . S
C295 H252 0.930 . S
C295 C294 1.380 . S
C295 C296 1.381 . S
C296 H253 0.929 . S
C296 C295 1.381 . S
C296 C297 1.371 . S
C297 C296 1.371 . S
C297 C298 1.380 . S
C298 H254 0.931 . S
C298 C297 1.380 . S
C298 C299 1.387 . S
C299 H255 0.930 . S
C299 C294 1.386 . S
C299 C298 1.387 . S
C300 C269 1.519 . S
C300 C301 1.377 . S
C300 C305 1.361 . S
C301 H256 0.929 . S
C301 C300 1.377 . S
C301 C302 1.386 . S
C302 H257 0.931 . S
C302 C301 1.386 . S
C302 C303 1.363 . S
C303 C302 1.363 . S
C303 C304 1.385 . S
C304 H258 0.930 . S
C304 C303 1.385 . S
C304 C305 1.396 . S
C305 H259 0.929 . S
C305 C300 1.361 . S
C305 C304 1.396 . S
C306 O260 1.300 . S
C306 O261 1.209 . S
C306 C279 1.486 . S
C307 O262 1.199 . S
C307 O263 1.297 . S
C307 C291 1.476 . S
H308 O334 0.856 . S
H309 O337 0.854 . S
H310 C345 0.930 . S
H311 C346 0.930 . S
H312 C348 0.930 . S
H313 C349 0.930 . S
H314 C351 0.931 . S
H315 C352 0.930 . S
H316 C354 0.930 . S
H317 C355 0.929 . S
H318 C357 0.930 . S
H319 C358 0.931 . S
H320 C360 0.930 . S
H321 C361 0.929 . S
H322 C363 0.931 . S
H323 C364 0.930 . S
H324 C366 0.930 . S
H325 C367 0.932 . S
H326 C369 0.930 . S
H327 C370 0.929 . S
H328 C372 0.931 . S
H329 C373 0.930 . S
H330 C375 0.929 . S
H331 C376 0.931 . S
H332 C378 0.930 . S
H333 C379 0.929 . S
O334 H308 0.856 . S
O334 C380 1.300 . S
O335 C380 1.209 . S
O336 C381 1.199 . S
O337 H309 0.854 . S
O337 C381 1.297 . S
C338 C339 1.404 . S
C338 C343 1.397 . S
C338 C344 1.492 . S
C339 C338 1.404 . S
C339 C340 1.396 . S
C339 C350 1.492 . S
C340 C339 1.396 . S
C340 C341 1.397 . S
C340 C356 1.509 . S
C341 C340 1.397 . S
C341 C342 1.412 . S
C341 C362 1.485 . S
C342 C341 1.412 . S
C342 C343 1.388 . S
C342 C368 1.490 . S
C343 C338 1.397 . S
C343 C342 1.388 . S
C343 C374 1.519 . S
C344 C338 1.492 . S
C344 C345 1.363 . S
C344 C349 1.390 . S
C345 H310 0.930 . S
C345 C344 1.363 . S
C345 C346 1.372 . S
C346 H311 0.930 . S
C346 C345 1.372 . S
C346 C347 1.383 . S
C347 C346 1.383 . S
C347 C348 1.395 . S
C348 H312 0.930 . S
C348 C347 1.395 . S
C348 C349 1.362 . S
C349 H313 0.930 . S
C349 C344 1.390 . S
C349 C348 1.362 . S
C350 C339 1.492 . S
C350 C351 1.377 . S
C350 C355 1.397 . S
C351 H314 0.931 . S
C351 C350 1.377 . S
C351 C352 1.376 . S
C352 H315 0.930 . S
C352 C351 1.376 . S
C352 C353 1.376 . S
C353 C352 1.376 . S
C353 C354 1.378 . S
C353 C380 1.486 . S
C354 H316 0.930 . S
C354 C353 1.378 . S
C354 C355 1.376 . S
C355 H317 0.929 . S
C355 C350 1.397 . S
C355 C354 1.376 . S
C356 C340 1.509 . S
C356 C357 1.391 . S
C356 C361 1.386 . S
C357 H318 0.930 . S
C357 C356 1.391 . S
C357 C358 1.375 . S
C358 H319 0.931 . S
C358 C357 1.375 . S
C358 C359 1.375 . S
C359 C358 1.375 . S
C359 C360 1.361 . S
C360 H320 0.930 . S
C360 C359 1.361 . S
C360 C361 1.399 . S
C361 H321 0.929 . S
C361 C356 1.386 . S
C361 C360 1.399 . S
C362 C341 1.485 . S
C362 C363 1.394 . S
C362 C367 1.360 . S
C363 H322 0.931 . S
C363 C362 1.394 . S
C363 C364 1.372 . S
C364 H323 0.930 . S
C364 C363 1.372 . S
C364 C365 1.397 . S
C365 C364 1.397 . S
C365 C366 1.390 . S
C365 C381 1.476 . S
C366 H324 0.930 . S
C366 C365 1.390 . S
C366 C367 1.366 . S
C367 H325 0.932 . S
C367 C362 1.360 . S
C367 C366 1.366 . S
C368 C342 1.490 . S
C368 C369 1.380 . S
C368 C373 1.386 . S
C369 H326 0.930 . S
C369 C368 1.380 . S
C369 C370 1.381 . S
C370 H327 0.929 . S
C370 C369 1.381 . S
C370 C371 1.371 . S
C371 C370 1.371 . S
C371 C372 1.380 . S
C372 H328 0.931 . S
C372 C371 1.380 . S
C372 C373 1.387 . S
C373 H329 0.930 . S
C373 C368 1.386 . S
C373 C372 1.387 . S
C374 C343 1.519 . S
C374 C375 1.377 . S
C374 C379 1.361 . S
C375 H330 0.929 . S
C375 C374 1.377 . S
C375 C376 1.386 . S
C376 H331 0.931 . S
C376 C375 1.386 . S
C376 C377 1.363 . S
C377 C376 1.363 . S
C377 C378 1.385 . S
C378 H332 0.930 . S
C378 C377 1.385 . S
C378 C379 1.396 . S
C379 H333 0.929 . S
C379 C374 1.361 . S
C379 C378 1.396 . S
C380 O334 1.300 . S
C380 O335 1.209 . S
C380 C353 1.486 . S
C381 O336 1.199 . S
C381 O337 1.297 . S
C381 C365 1.476 . S
H382 O408 0.856 . S
H383 O411 0.854 . S
H384 C419 0.930 . S
H385 C420 0.930 . S
H386 C422 0.930 . S
H387 C423 0.930 . S
H388 C425 0.931 . S
H389 C426 0.930 . S
H390 C428 0.930 . S
H391 C429 0.929 . S
H392 C431 0.930 . S
H393 C432 0.931 . S
H394 C434 0.930 . S
H395 C435 0.929 . S
H396 C437 0.931 . S
H397 C438 0.930 . S
H398 C440 0.930 . S
H399 C441 0.932 . S
H400 C443 0.930 . S
H401 C444 0.929 . S
H402 C446 0.931 . S
H403 C447 0.930 . S
H404 C449 0.929 . S
H405 C450 0.931 . S
H406 C452 0.930 . S
H407 C453 0.929 . S
O408 H382 0.856 . S
O408 C454 1.300 . S
O409 C454 1.209 . S
O410 C455 1.199 . S
O411 H383 0.854 . S
O411 C455 1.297 . S
C412 C413 1.404 . S
C412 C417 1.397 . S
C412 C418 1.492 . S
C413 C412 1.404 . S
C413 C414 1.396 . S
C413 C424 1.492 . S
C414 C413 1.396 . S
C414 C415 1.397 . S
C414 C430 1.509 . S
C415 C414 1.397 . S
C415 C416 1.412 . S
C415 C436 1.485 . S
C416 C415 1.412 . S
C416 C417 1.388 . S
C416 C442 1.490 . S
C417 C412 1.397 . S
C417 C416 1.388 . S
C417 C448 1.519 . S
C418 C412 1.492 . S
C418 C419 1.363 . S
C418 C423 1.390 . S
C419 H384 0.930 . S
C419 C418 1.363 . S
C419 C420 1.372 . S
C420 H385 0.930 . S
C420 C419 1.372 . S
C420 C421 1.383 . S
C421 C420 1.383 . S
C421 C422 1.395 . S
C422 H386 0.930 . S
C422 C421 1.395 . S
C422 C423 1.362 . S
C423 H387 0.930 . S
C423 C418 1.390 . S
C423 C422 1.362 . S
C424 C413 1.492 . S
C424 C425 1.377 . S
C424 C429 1.397 . S
C425 H388 0.931 . S
C425 C424 1.377 . S
C425 C426 1.376 . S
C426 H389 0.930 . S
C426 C425 1.376 . S
C426 C427 1.376 . S
C427 C426 1.376 . S
C427 C428 1.378 . S
C427 C454 1.486 . S
C428 H390 0.930 . S
C428 C427 1.378 . S
C428 C429 1.376 . S
C429 H391 0.929 . S
C429 C424 1.397 . S
C429 C428 1.376 . S
C430 C414 1.509 . S
C430 C431 1.391 . S
C430 C435 1.386 . S
C431 H392 0.930 . S
C431 C430 1.391 . S
C431 C432 1.375 . S
C432 H393 0.931 . S
C432 C431 1.375 . S
C432 C433 1.375 . S
C433 C432 1.375 . S
C433 C434 1.361 . S
C434 H394 0.930 . S
C434 C433 1.361 . S
C434 C435 1.399 . S
C435 H395 0.929 . S
C435 C430 1.386 . S
C435 C434 1.399 . S
C436 C415 1.485 . S
C436 C437 1.394 . S
C436 C441 1.360 . S
C437 H396 0.931 . S
C437 C436 1.394 . S
C437 C438 1.372 . S
C438 H397 0.930 . S
C438 C437 1.372 . S
C438 C439 1.397 . S
C439 C438 1.397 . S
C439 C440 1.390 . S
C439 C455 1.476 . S
C440 H398 0.930 . S
C440 C439 1.390 . S
C440 C441 1.366 . S
C441 H399 0.932 . S
C441 C436 1.360 . S
C441 C440 1.366 . S
C442 C416 1.490 . S
C442 C443 1.380 . S
C442 C447 1.386 . S
C443 H400 0.930 . S
C443 C442 1.380 . S
C443 C444 1.381 . S
C444 H401 0.929 . S
C444 C443 1.381 . S
C444 C445 1.371 . S
C445 C444 1.371 . S
C445 C446 1.380 . S
C446 H402 0.931 . S
C446 C445 1.380 . S
C446 C447 1.387 . S
C447 H403 0.930 . S
C447 C442 1.386 . S
C447 C446 1.387 . S
C448 C417 1.519 . S
C448 C449 1.377 . S
C448 C453 1.361 . S
C449 H404 0.929 . S
C449 C448 1.377 . S
C449 C450 1.386 . S
C450 H405 0.931 . S
C450 C449 1.386 . S
C450 C451 1.363 . S
C451 C450 1.363 . S
C451 C452 1.385 . S
C452 H406 0.930 . S
C452 C451 1.385 . S
C452 C453 1.396 . S
C453 H407 0.929 . S
C453 C448 1.361 . S
C453 C452 1.396 . S
C454 O408 1.300 . S
C454 O409 1.209 . S
C454 C427 1.486 . S
C455 O410 1.199 . S
C455 O411 1.297 . S
C455 C439 1.476 . S
H456 O482 0.856 . S
H457 O485 0.854 . S
H458 C493 0.930 . S
H459 C494 0.930 . S
H460 C496 0.930 . S
H461 C497 0.930 . S
H462 C499 0.931 . S
H463 C500 0.930 . S
H464 C502 0.930 . S
H465 C503 0.929 . S
H466 C505 0.930 . S
H467 C506 0.931 . S
H468 C508 0.930 . S
H469 C509 0.929 . S
H470 C511 0.931 . S
H471 C512 0.930 . S
H472 C514 0.930 . S
H473 C515 0.932 . S
H474 C517 0.930 . S
H475 C518 0.929 . S
H476 C520 0.931 . S
H477 C521 0.930 . S
H478 C523 0.929 . S
H479 C524 0.931 . S
H480 C526 0.930 . S
H481 C527 0.929 . S
O482 H456 0.856 . S
O482 C528 1.300 . S
O483 C528 1.209 . S
O484 C529 1.199 . S
O485 H457 0.854 . S
O485 C529 1.297 . S
C486 C487 1.404 . S
C486 C491 1.397 . S
C486 C492 1.492 . S
C487 C486 1.404 . S
C487 C488 1.396 . S
C487 C498 1.492 . S
C488 C487 1.396 . S
C488 C489 1.397 . S
C488 C504 1.509 . S
C489 C488 1.397 . S
C489 C490 1.412 . S
C489 C510 1.485 . S
C490 C489 1.412 . S
C490 C491 1.388 . S
C490 C516 1.490 . S
C491 C486 1.397 . S
C491 C490 1.388 . S
C491 C522 1.519 . S
C492 C486 1.492 . S
C492 C493 1.363 . S
C492 C497 1.390 . S
C493 H458 0.930 . S
C493 C492 1.363 . S
C493 C494 1.372 . S
C494 H459 0.930 . S
C494 C493 1.372 . S
C494 C495 1.383 . S
C495 C494 1.383 . S
C495 C496 1.395 . S
C496 H460 0.930 . S
C496 C495 1.395 . S
C496 C497 1.362 . S
C497 H461 0.930 . S
C497 C492 1.390 . S
C497 C496 1.362 . S
C498 C487 1.492 . S
C498 C499 1.377 . S
C498 C503 1.397 . S
C499 H462 0.931 . S
C499 C498 1.377 . S
C499 C500 1.376 . S
C500 H463 0.930 . S
C500 C499 1.376 . S
C500 C501 1.376 . S
C501 C500 1.376 . S
C501 C502 1.378 . S
C501 C528 1.486 . S
C502 H464 0.930 . S
C502 C501 1.378 . S
C502 C503 1.376 . S
C503 H465 0.929 . S
C503 C498 1.397 . S
C503 C502 1.376 . S
C504 C488 1.509 . S
C504 C505 1.391 . S
C504 C509 1.386 . S
C505 H466 0.930 . S
C505 C504 1.391 . S
C505 C506 1.375 . S
C506 H467 0.931 . S
C506 C505 1.375 . S
C506 C507 1.375 . S
C507 C506 1.375 . S
C507 C508 1.361 . S
C508 H468 0.930 . S
C508 C507 1.361 . S
C508 C509 1.399 . S
C509 H469 0.929 . S
C509 C504 1.386 . S
C509 C508 1.399 . S
C510 C489 1.485 . S
C510 C511 1.394 . S
C510 C515 1.360 . S
C511 H470 0.931 . S
C511 C510 1.394 . S
C511 C512 1.372 . S
C512 H471 0.930 . S
C512 C511 1.372 . S
C512 C513 1.397 . S
C513 C512 1.397 . S
C513 C514 1.390 . S
C513 C529 1.476 . S
C514 H472 0.930 . S
C514 C513 1.390 . S
C514 C515 1.366 . S
C515 H473 0.932 . S
C515 C510 1.360 . S
C515 C514 1.366 . S
C516 C490 1.490 . S
C516 C517 1.380 . S
C516 C521 1.386 . S
C517 H474 0.930 . S
C517 C516 1.380 . S
C517 C518 1.381 . S
C518 H475 0.929 . S
C518 C517 1.381 . S
C518 C519 1.371 . S
C519 C518 1.371 . S
C519 C520 1.380 . S
C520 H476 0.931 . S
C520 C519 1.380 . S
C520 C521 1.387 . S
C521 H477 0.930 . S
C521 C516 1.386 . S
C521 C520 1.387 . S
C522 C491 1.519 . S
C522 C523 1.377 . S
C522 C527 1.361 . S
C523 H478 0.929 . S
C523 C522 1.377 . S
C523 C524 1.386 . S
C524 H479 0.931 . S
C524 C523 1.386 . S
C524 C525 1.363 . S
C525 C524 1.363 . S
C525 C526 1.385 . S
C526 H480 0.930 . S
C526 C525 1.385 . S
C526 C527 1.396 . S
C527 H481 0.929 . S
C527 C522 1.361 . S
C527 C526 1.396 . S
C528 O482 1.300 . S
C528 O483 1.209 . S
C528 C501 1.486 . S
C529 O484 1.199 . S
C529 O485 1.297 . S
C529 C513 1.476 . S
H530 O556 0.856 1_554 S
H531 O559 0.854 . S
H532 C567 0.930 . S
H533 C568 0.930 . S
H534 C570 0.930 . S
H535 C571 0.930 . S
H536 C573 0.931 . S
H537 C574 0.930 . S
H538 C576 0.930 . S
H539 C577 0.929 . S
H540 C579 0.930 . S
H541 C580 0.931 . S
H542 C582 0.930 . S
H543 C583 0.929 . S
H544 C585 0.931 . S
H545 C586 0.930 . S
H546 C588 0.930 . S
H547 C589 0.932 . S
H548 C591 0.930 . S
H549 C592 0.929 . S
H550 C594 0.931 . S
H551 C595 0.930 . S
H552 C597 0.929 . S
H553 C598 0.931 . S
H554 C600 0.930 . S
H555 C601 0.929 . S
O556 H530 0.856 1_556 S
O556 C602 1.300 . S
O557 C602 1.209 . S
O558 C603 1.199 . S
O559 H531 0.854 . S
O559 C603 1.297 . S
C560 C561 1.404 . S
C560 C565 1.397 . S
C560 C566 1.492 . S
C561 C560 1.404 . S
C561 C562 1.396 . S
C561 C572 1.492 . S
C562 C561 1.396 . S
C562 C563 1.397 . S
C562 C578 1.509 . S
C563 C562 1.397 . S
C563 C564 1.412 . S
C563 C584 1.485 . S
C564 C563 1.412 . S
C564 C565 1.388 . S
C564 C590 1.490 . S
C565 C560 1.397 . S
C565 C564 1.388 . S
C565 C596 1.519 . S
C566 C560 1.492 . S
C566 C567 1.363 . S
C566 C571 1.390 . S
C567 H532 0.930 . S
C567 C566 1.363 . S
C567 C568 1.372 . S
C568 H533 0.930 . S
C568 C567 1.372 . S
C568 C569 1.383 . S
C569 C568 1.383 . S
C569 C570 1.395 . S
C570 H534 0.930 . S
C570 C569 1.395 . S
C570 C571 1.362 . S
C571 H535 0.930 . S
C571 C566 1.390 . S
C571 C570 1.362 . S
C572 C561 1.492 . S
C572 C573 1.377 . S
C572 C577 1.397 . S
C573 H536 0.931 . S
C573 C572 1.377 . S
C573 C574 1.376 . S
C574 H537 0.930 . S
C574 C573 1.376 . S
C574 C575 1.376 . S
C575 C574 1.376 . S
C575 C576 1.378 . S
C575 C602 1.486 . S
C576 H538 0.930 . S
C576 C575 1.378 . S
C576 C577 1.376 . S
C577 H539 0.929 . S
C577 C572 1.397 . S
C577 C576 1.376 . S
C578 C562 1.509 . S
C578 C579 1.391 . S
C578 C583 1.386 . S
C579 H540 0.930 . S
C579 C578 1.391 . S
C579 C580 1.375 . S
C580 H541 0.931 . S
C580 C579 1.375 . S
C580 C581 1.375 . S
C581 C580 1.375 . S
C581 C582 1.361 . S
C582 H542 0.930 . S
C582 C581 1.361 . S
C582 C583 1.399 . S
C583 H543 0.929 . S
C583 C578 1.386 . S
C583 C582 1.399 . S
C584 C563 1.485 . S
C584 C585 1.394 . S
C584 C589 1.360 . S
C585 H544 0.931 . S
C585 C584 1.394 . S
C585 C586 1.372 . S
C586 H545 0.930 . S
C586 C585 1.372 . S
C586 C587 1.397 . S
C587 C586 1.397 . S
C587 C588 1.390 . S
C587 C603 1.476 . S
C588 H546 0.930 . S
C588 C587 1.390 . S
C588 C589 1.366 . S
C589 H547 0.932 . S
C589 C584 1.360 . S
C589 C588 1.366 . S
C590 C564 1.490 . S
C590 C591 1.380 . S
C590 C595 1.386 . S
C591 H548 0.930 . S
C591 C590 1.380 . S
C591 C592 1.381 . S
C592 H549 0.929 . S
C592 C591 1.381 . S
C592 C593 1.371 . S
C593 C592 1.371 . S
C593 C594 1.380 . S
C594 H550 0.931 . S
C594 C593 1.380 . S
C594 C595 1.387 . S
C595 H551 0.930 . S
C595 C590 1.386 . S
C595 C594 1.387 . S
C596 C565 1.519 . S
C596 C597 1.377 . S
C596 C601 1.361 . S
C597 H552 0.929 . S
C597 C596 1.377 . S
C597 C598 1.386 . S
C598 H553 0.931 . S
C598 C597 1.386 . S
C598 C599 1.363 . S
C599 C598 1.363 . S
C599 C600 1.385 . S
C600 H554 0.930 . S
C600 C599 1.385 . S
C600 C601 1.396 . S
C601 H555 0.929 . S
C601 C596 1.361 . S
C601 C600 1.396 . S
C602 O556 1.300 . S
C602 O557 1.209 . S
C602 C575 1.486 . S
C603 O558 1.199 . S
C603 O559 1.297 . S
C603 C587 1.476 . S
H604 O630 0.856 . S
H605 O633 0.854 . S
H606 C641 0.930 . S
H607 C642 0.930 . S
H608 C644 0.930 . S
H609 C645 0.930 . S
H610 C647 0.931 . S
H611 C648 0.930 . S
H612 C650 0.930 . S
H613 C651 0.929 . S
H614 C653 0.930 . S
H615 C654 0.931 . S
H616 C656 0.930 . S
H617 C657 0.929 . S
H618 C659 0.931 . S
H619 C660 0.930 . S
H620 C662 0.930 . S
H621 C663 0.932 . S
H622 C665 0.930 . S
H623 C666 0.929 . S
H624 C668 0.931 . S
H625 C669 0.930 . S
H626 C671 0.929 . S
H627 C672 0.931 . S
H628 C674 0.930 . S
H629 C675 0.929 . S
O630 H604 0.856 . S
O630 C676 1.300 1_554 S
O631 C676 1.209 . S
O632 C677 1.199 . S
O633 H605 0.854 . S
O633 C677 1.297 . S
C634 C635 1.404 . S
C634 C639 1.397 . S
C634 C640 1.492 . S
C635 C634 1.404 . S
C635 C636 1.396 . S
C635 C646 1.492 . S
C636 C635 1.396 . S
C636 C637 1.397 . S
C636 C652 1.509 . S
C637 C636 1.397 . S
C637 C638 1.412 . S
C637 C658 1.485 . S
C638 C637 1.412 . S
C638 C639 1.388 . S
C638 C664 1.490 . S
C639 C634 1.397 . S
C639 C638 1.388 . S
C639 C670 1.519 . S
C640 C634 1.492 . S
C640 C641 1.363 . S
C640 C645 1.390 . S
C641 H606 0.930 . S
C641 C640 1.363 . S
C641 C642 1.372 . S
C642 H607 0.930 . S
C642 C641 1.372 . S
C642 C643 1.383 . S
C643 C642 1.383 . S
C643 C644 1.395 . S
C644 H608 0.930 . S
C644 C643 1.395 . S
C644 C645 1.362 . S
C645 H609 0.930 . S
C645 C640 1.390 . S
C645 C644 1.362 . S
C646 C635 1.492 . S
C646 C647 1.377 . S
C646 C651 1.397 . S
C647 H610 0.931 . S
C647 C646 1.377 . S
C647 C648 1.376 . S
C648 H611 0.930 . S
C648 C647 1.376 . S
C648 C649 1.376 . S
C649 C648 1.376 . S
C649 C650 1.378 . S
C649 C676 1.486 . S
C650 H612 0.930 . S
C650 C649 1.378 . S
C650 C651 1.376 . S
C651 H613 0.929 . S
C651 C646 1.397 . S
C651 C650 1.376 . S
C652 C636 1.509 . S
C652 C653 1.391 . S
C652 C657 1.386 . S
C653 H614 0.930 . S
C653 C652 1.391 . S
C653 C654 1.375 . S
C654 H615 0.931 . S
C654 C653 1.375 . S
C654 C655 1.375 . S
C655 C654 1.375 . S
C655 C656 1.361 . S
C656 H616 0.930 . S
C656 C655 1.361 . S
C656 C657 1.399 . S
C657 H617 0.929 . S
C657 C652 1.386 . S
C657 C656 1.399 . S
C658 C637 1.485 . S
C658 C659 1.394 . S
C658 C663 1.360 . S
C659 H618 0.931 . S
C659 C658 1.394 . S
C659 C660 1.372 . S
C660 H619 0.930 . S
C660 C659 1.372 . S
C660 C661 1.397 . S
C661 C660 1.397 . S
C661 C662 1.390 . S
C661 C677 1.476 . S
C662 H620 0.930 . S
C662 C661 1.390 . S
C662 C663 1.366 . S
C663 H621 0.932 . S
C663 C658 1.360 . S
C663 C662 1.366 . S
C664 C638 1.490 . S
C664 C665 1.380 . S
C664 C669 1.386 . S
C665 H622 0.930 . S
C665 C664 1.380 . S
C665 C666 1.381 . S
C666 H623 0.929 . S
C666 C665 1.381 . S
C666 C667 1.371 . S
C667 C666 1.371 . S
C667 C668 1.380 . S
C668 H624 0.931 . S
C668 C667 1.380 . S
C668 C669 1.387 . S
C669 H625 0.930 . S
C669 C664 1.386 . S
C669 C668 1.387 . S
C670 C639 1.519 . S
C670 C671 1.377 . S
C670 C675 1.361 . S
C671 H626 0.929 . S
C671 C670 1.377 . S
C671 C672 1.386 . S
C672 H627 0.931 . S
C672 C671 1.386 . S
C672 C673 1.363 . S
C673 C672 1.363 . S
C673 C674 1.385 . S
C674 H628 0.930 . S
C674 C673 1.385 . S
C674 C675 1.396 . S
C675 H629 0.929 . S
C675 C670 1.361 . S
C675 C674 1.396 . S
C676 O630 1.300 1_556 S
C676 O631 1.209 . S
C676 C649 1.486 . S
C677 O632 1.199 . S
C677 O633 1.297 . S
C677 C661 1.476 . S
H678 O704 0.856 . S
H679 O707 0.854 . S
H680 C715 0.930 . S
H681 C716 0.930 . S
H682 C718 0.930 . S
H683 C719 0.930 . S
H684 C721 0.931 . S
H685 C722 0.930 . S
H686 C724 0.930 . S
H687 C725 0.929 . S
H688 C727 0.930 . S
H689 C728 0.931 . S
H690 C730 0.930 . S
H691 C731 0.929 . S
H692 C733 0.931 . S
H693 C734 0.930 . S
H694 C736 0.930 . S
H695 C737 0.932 . S
H696 C739 0.930 . S
H697 C740 0.929 . S
H698 C742 0.931 . S
H699 C743 0.930 . S
H700 C745 0.929 . S
H701 C746 0.931 . S
H702 C748 0.930 . S
H703 C749 0.929 . S
O704 H678 0.856 . S
O704 C750 1.300 . S
O705 C750 1.209 . S
O706 C751 1.199 . S
O707 H679 0.854 . S
O707 C751 1.297 . S
C708 C709 1.404 . S
C708 C713 1.397 . S
C708 C714 1.492 . S
C709 C708 1.404 . S
C709 C710 1.396 . S
C709 C720 1.492 . S
C710 C709 1.396 . S
C710 C711 1.397 . S
C710 C726 1.509 . S
C711 C710 1.397 . S
C711 C712 1.412 . S
C711 C732 1.485 . S
C712 C711 1.412 . S
C712 C713 1.388 . S
C712 C738 1.490 . S
C713 C708 1.397 . S
C713 C712 1.388 . S
C713 C744 1.519 . S
C714 C708 1.492 . S
C714 C715 1.363 . S
C714 C719 1.390 . S
C715 H680 0.930 . S
C715 C714 1.363 . S
C715 C716 1.372 . S
C716 H681 0.930 . S
C716 C715 1.372 . S
C716 C717 1.383 . S
C717 C716 1.383 . S
C717 C718 1.395 . S
C718 H682 0.930 . S
C718 C717 1.395 . S
C718 C719 1.362 . S
C719 H683 0.930 . S
C719 C714 1.390 . S
C719 C718 1.362 . S
C720 C709 1.492 . S
C720 C721 1.377 . S
C720 C725 1.397 . S
C721 H684 0.931 . S
C721 C720 1.377 . S
C721 C722 1.376 . S
C722 H685 0.930 . S
C722 C721 1.376 . S
C722 C723 1.376 . S
C723 C722 1.376 . S
C723 C724 1.378 . S
C723 C750 1.486 . S
C724 H686 0.930 . S
C724 C723 1.378 . S
C724 C725 1.376 . S
C725 H687 0.929 . S
C725 C720 1.397 . S
C725 C724 1.376 . S
C726 C710 1.509 . S
C726 C727 1.391 . S
C726 C731 1.386 . S
C727 H688 0.930 . S
C727 C726 1.391 . S
C727 C728 1.375 . S
C728 H689 0.931 . S
C728 C727 1.375 . S
C728 C729 1.375 . S
C729 C728 1.375 . S
C729 C730 1.361 . S
C730 H690 0.930 . S
C730 C729 1.361 . S
C730 C731 1.399 . S
C731 H691 0.929 . S
C731 C726 1.386 . S
C731 C730 1.399 . S
C732 C711 1.485 . S
C732 C733 1.394 . S
C732 C737 1.360 . S
C733 H692 0.931 . S
C733 C732 1.394 . S
C733 C734 1.372 . S
C734 H693 0.930 . S
C734 C733 1.372 . S
C734 C735 1.397 . S
C735 C734 1.397 . S
C735 C736 1.390 . S
C735 C751 1.476 . S
C736 H694 0.930 . S
C736 C735 1.390 . S
C736 C737 1.366 . S
C737 H695 0.932 . S
C737 C732 1.360 . S
C737 C736 1.366 . S
C738 C712 1.490 . S
C738 C739 1.380 . S
C738 C743 1.386 . S
C739 H696 0.930 . S
C739 C738 1.380 . S
C739 C740 1.381 . S
C740 H697 0.929 . S
C740 C739 1.381 . S
C740 C741 1.371 . S
C741 C740 1.371 . S
C741 C742 1.380 . S
C742 H698 0.931 . S
C742 C741 1.380 . S
C742 C743 1.387 . S
C743 H699 0.930 . S
C743 C738 1.386 . S
C743 C742 1.387 . S
C744 C713 1.519 . S
C744 C745 1.377 . S
C744 C749 1.361 . S
C745 H700 0.929 . S
C745 C744 1.377 . S
C745 C746 1.386 . S
C746 H701 0.931 . S
C746 C745 1.386 . S
C746 C747 1.363 . S
C747 C746 1.363 . S
C747 C748 1.385 . S
C748 H702 0.930 . S
C748 C747 1.385 . S
C748 C749 1.396 . S
C749 H703 0.929 . S
C749 C744 1.361 . S
C749 C748 1.396 . S
C750 O704 1.300 . S
C750 O705 1.209 . S
C750 C723 1.486 . S
C751 O706 1.199 . S
C751 O707 1.297 . S
C751 C735 1.476 . S
H752 O778 0.856 . S
H753 O781 0.854 . S
H754 C789 0.930 . S
H755 C790 0.930 . S
H756 C792 0.930 . S
H757 C793 0.930 . S
H758 C795 0.931 . S
H759 C796 0.930 . S
H760 C798 0.930 . S
H761 C799 0.929 . S
H762 C801 0.930 . S
H763 C802 0.931 . S
H764 C804 0.930 . S
H765 C805 0.929 . S
H766 C807 0.931 . S
H767 C808 0.930 . S
H768 C810 0.930 . S
H769 C811 0.932 . S
H770 C813 0.930 . S
H771 C814 0.929 . S
H772 C816 0.931 . S
H773 C817 0.930 . S
H774 C819 0.929 . S
H775 C820 0.931 . S
H776 C822 0.930 . S
H777 C823 0.929 . S
O778 H752 0.856 . S
O778 C824 1.300 . S
O779 C824 1.209 . S
O780 C825 1.199 . S
O781 H753 0.854 . S
O781 C825 1.297 . S
C782 C783 1.404 . S
C782 C787 1.397 . S
C782 C788 1.492 . S
C783 C782 1.404 . S
C783 C784 1.396 . S
C783 C794 1.492 . S
C784 C783 1.396 . S
C784 C785 1.397 . S
C784 C800 1.509 . S
C785 C784 1.397 . S
C785 C786 1.412 . S
C785 C806 1.485 . S
C786 C785 1.412 . S
C786 C787 1.388 . S
C786 C812 1.490 . S
C787 C782 1.397 . S
C787 C786 1.388 . S
C787 C818 1.519 . S
C788 C782 1.492 . S
C788 C789 1.363 . S
C788 C793 1.390 . S
C789 H754 0.930 . S
C789 C788 1.363 . S
C789 C790 1.372 . S
C790 H755 0.930 . S
C790 C789 1.372 . S
C790 C791 1.383 . S
C791 C790 1.383 . S
C791 C792 1.395 . S
C792 H756 0.930 . S
C792 C791 1.395 . S
C792 C793 1.362 . S
C793 H757 0.930 . S
C793 C788 1.390 . S
C793 C792 1.362 . S
C794 C783 1.492 . S
C794 C795 1.377 . S
C794 C799 1.397 . S
C795 H758 0.931 . S
C795 C794 1.377 . S
C795 C796 1.376 . S
C796 H759 0.930 . S
C796 C795 1.376 . S
C796 C797 1.376 . S
C797 C796 1.376 . S
C797 C798 1.378 . S
C797 C824 1.486 . S
C798 H760 0.930 . S
C798 C797 1.378 . S
C798 C799 1.376 . S
C799 H761 0.929 . S
C799 C794 1.397 . S
C799 C798 1.376 . S
C800 C784 1.509 . S
C800 C801 1.391 . S
C800 C805 1.386 . S
C801 H762 0.930 . S
C801 C800 1.391 . S
C801 C802 1.375 . S
C802 H763 0.931 . S
C802 C801 1.375 . S
C802 C803 1.375 . S
C803 C802 1.375 . S
C803 C804 1.361 . S
C804 H764 0.930 . S
C804 C803 1.361 . S
C804 C805 1.399 . S
C805 H765 0.929 . S
C805 C800 1.386 . S
C805 C804 1.399 . S
C806 C785 1.485 . S
C806 C807 1.394 . S
C806 C811 1.360 . S
C807 H766 0.931 . S
C807 C806 1.394 . S
C807 C808 1.372 . S
C808 H767 0.930 . S
C808 C807 1.372 . S
C808 C809 1.397 . S
C809 C808 1.397 . S
C809 C810 1.390 . S
C809 C825 1.476 . S
C810 H768 0.930 . S
C810 C809 1.390 . S
C810 C811 1.366 . S
C811 H769 0.932 . S
C811 C806 1.360 . S
C811 C810 1.366 . S
C812 C786 1.490 . S
C812 C813 1.380 . S
C812 C817 1.386 . S
C813 H770 0.930 . S
C813 C812 1.380 . S
C813 C814 1.381 . S
C814 H771 0.929 . S
C814 C813 1.381 . S
C814 C815 1.371 . S
C815 C814 1.371 . S
C815 C816 1.380 . S
C816 H772 0.931 . S
C816 C815 1.380 . S
C816 C817 1.387 . S
C817 H773 0.930 . S
C817 C812 1.386 . S
C817 C816 1.387 . S
C818 C787 1.519 . S
C818 C819 1.377 . S
C818 C823 1.361 . S
C819 H774 0.929 . S
C819 C818 1.377 . S
C819 C820 1.386 . S
C820 H775 0.931 . S
C820 C819 1.386 . S
C820 C821 1.363 . S
C821 C820 1.363 . S
C821 C822 1.385 . S
C822 H776 0.930 . S
C822 C821 1.385 . S
C822 C823 1.396 . S
C823 H777 0.929 . S
C823 C818 1.361 . S
C823 C822 1.396 . S
C824 O778 1.300 . S
C824 O779 1.209 . S
C824 C797 1.486 . S
C825 O780 1.199 . S
C825 O781 1.297 . S
C825 C809 1.476 . S
H826 O852 0.856 . S
H827 O855 0.854 . S
H828 C863 0.930 . S
H829 C864 0.930 . S
H830 C866 0.930 . S
H831 C867 0.930 . S
H832 C869 0.931 . S
H833 C870 0.930 . S
H834 C872 0.930 . S
H835 C873 0.929 . S
H836 C875 0.930 . S
H837 C876 0.931 . S
H838 C878 0.930 . S
H839 C879 0.929 . S
H840 C881 0.931 . S
H841 C882 0.930 . S
H842 C884 0.930 . S
H843 C885 0.932 . S
H844 C887 0.930 . S
H845 C888 0.929 . S
H846 C890 0.931 . S
H847 C891 0.930 . S
H848 C893 0.929 . S
H849 C894 0.931 . S
H850 C896 0.930 . S
H851 C897 0.929 . S
O852 H826 0.856 . S
O852 C898 1.300 . S
O853 C898 1.209 . S
O854 C899 1.199 . S
O855 H827 0.854 . S
O855 C899 1.297 . S
C856 C857 1.404 . S
C856 C861 1.397 . S
C856 C862 1.492 . S
C857 C856 1.404 . S
C857 C858 1.396 . S
C857 C868 1.492 . S
C858 C857 1.396 . S
C858 C859 1.397 . S
C858 C874 1.509 . S
C859 C858 1.397 . S
C859 C860 1.412 . S
C859 C880 1.485 . S
C860 C859 1.412 . S
C860 C861 1.388 . S
C860 C886 1.490 . S
C861 C856 1.397 . S
C861 C860 1.388 . S
C861 C892 1.519 . S
C862 C856 1.492 . S
C862 C863 1.363 . S
C862 C867 1.390 . S
C863 H828 0.930 . S
C863 C862 1.363 . S
C863 C864 1.372 . S
C864 H829 0.930 . S
C864 C863 1.372 . S
C864 C865 1.383 . S
C865 C864 1.383 . S
C865 C866 1.395 . S
C866 H830 0.930 . S
C866 C865 1.395 . S
C866 C867 1.362 . S
C867 H831 0.930 . S
C867 C862 1.390 . S
C867 C866 1.362 . S
C868 C857 1.492 . S
C868 C869 1.377 . S
C868 C873 1.397 . S
C869 H832 0.931 . S
C869 C868 1.377 . S
C869 C870 1.376 . S
C870 H833 0.930 . S
C870 C869 1.376 . S
C870 C871 1.376 . S
C871 C870 1.376 . S
C871 C872 1.378 . S
C871 C898 1.486 . S
C872 H834 0.930 . S
C872 C871 1.378 . S
C872 C873 1.376 . S
C873 H835 0.929 . S
C873 C868 1.397 . S
C873 C872 1.376 . S
C874 C858 1.509 . S
C874 C875 1.391 . S
C874 C879 1.386 . S
C875 H836 0.930 . S
C875 C874 1.391 . S
C875 C876 1.375 . S
C876 H837 0.931 . S
C876 C875 1.375 . S
C876 C877 1.375 . S
C877 C876 1.375 . S
C877 C878 1.361 . S
C878 H838 0.930 . S
C878 C877 1.361 . S
C878 C879 1.399 . S
C879 H839 0.929 . S
C879 C874 1.386 . S
C879 C878 1.399 . S
C880 C859 1.485 . S
C880 C881 1.394 . S
C880 C885 1.360 . S
C881 H840 0.931 . S
C881 C880 1.394 . S
C881 C882 1.372 . S
C882 H841 0.930 . S
C882 C881 1.372 . S
C882 C883 1.397 . S
C883 C882 1.397 . S
C883 C884 1.390 . S
C883 C899 1.476 . S
C884 H842 0.930 . S
C884 C883 1.390 . S
C884 C885 1.366 . S
C885 H843 0.932 . S
C885 C880 1.360 . S
C885 C884 1.366 . S
C886 C860 1.490 . S
C886 C887 1.380 . S
C886 C891 1.386 . S
C887 H844 0.930 . S
C887 C886 1.380 . S
C887 C888 1.381 . S
C888 H845 0.929 . S
C888 C887 1.381 . S
C888 C889 1.371 . S
C889 C888 1.371 . S
C889 C890 1.380 . S
C890 H846 0.931 . S
C890 C889 1.380 . S
C890 C891 1.387 . S
C891 H847 0.930 . S
C891 C886 1.386 . S
C891 C890 1.387 . S
C892 C861 1.519 . S
C892 C893 1.377 . S
C892 C897 1.361 . S
C893 H848 0.929 . S
C893 C892 1.377 . S
C893 C894 1.386 . S
C894 H849 0.931 . S
C894 C893 1.386 . S
C894 C895 1.363 . S
C895 C894 1.363 . S
C895 C896 1.385 . S
C896 H850 0.930 . S
C896 C895 1.385 . S
C896 C897 1.396 . S
C897 H851 0.929 . S
C897 C892 1.361 . S
C897 C896 1.396 . S
C898 O852 1.300 . S
C898 O853 1.209 . S
C898 C871 1.486 . S
C899 O854 1.199 . S
C899 O855 1.297 . S
C899 C883 1.476 . S
H900 O926 0.856 . S
H901 O929 0.854 . S
H902 C937 0.930 . S
H903 C938 0.930 . S
H904 C940 0.930 . S
H905 C941 0.930 . S
H906 C943 0.931 . S
H907 C944 0.900 1_655 S
H908 C946 0.930 . S
H909 C947 0.929 . S
H910 C949 0.930 . S
H911 C950 0.931 1_655 S
H912 C952 0.930 . S
H913 C953 0.929 . S
H914 C955 0.931 . S
H915 C956 0.930 . S
H916 C958 0.930 . S
H917 C959 0.932 . S
H918 C961 0.930 . S
H919 C962 0.929 . S
H920 C964 0.931 . S
H921 C965 0.930 . S
H922 C967 0.929 . S
H923 C968 0.931 . S
H924 C970 0.930 . S
H925 C971 0.929 . S
O926 H900 0.856 . S
O926 C972 1.300 . S
O927 C972 1.209 . S
O928 C973 1.199 1_655 S
O929 H901 0.854 . S
O929 C973 1.297 . S
C930 C931 1.404 . S
C930 C935 1.393 . S
C930 C936 1.492 . S
C931 C930 1.404 . S
C931 C932 1.396 . S
C931 C942 1.492 . S
C932 C931 1.396 . S
C932 C933 1.397 . S
C932 C948 1.509 . S
C933 C932 1.397 . S
C933 C934 1.440 . S
C933 C954 1.485 . S
C934 C933 1.440 . S
C934 C935 1.391 . S
C934 C960 1.492 1_455 S
C935 C930 1.393 . S
C935 C934 1.391 . S
C935 C966 1.482 1_455 S
C936 C930 1.492 . S
C936 C937 1.363 1_455 S
C936 C941 1.390 . S
C937 H902 0.930 . S
C937 C936 1.363 1_655 S
C937 C938 1.372 . S
C938 H903 0.930 . S
C938 C937 1.372 . S
C938 C939 1.383 . S
C939 C938 1.383 . S
C939 C940 1.395 1_655 S
C940 H904 0.930 . S
C940 C939 1.395 1_455 S
C940 C941 1.362 . S
C941 H905 0.930 . S
C941 C936 1.390 . S
C941 C940 1.362 . S
C942 C931 1.492 . S
C942 C943 1.377 1_455 S
C942 C947 1.397 . S
C943 H906 0.931 . S
C943 C942 1.377 1_655 S
C943 C944 1.383 1_655 S
C944 H907 0.900 1_455 S
C944 C943 1.383 1_455 S
C944 C945 1.404 . S
C945 C944 1.404 . S
C945 C946 1.378 . S
C945 C972 1.486 . S
C946 H908 0.930 . S
C946 C945 1.378 . S
C946 C947 1.376 . S
C947 H909 0.929 . S
C947 C942 1.397 . S
C947 C946 1.376 . S
C948 C932 1.509 . S
C948 C949 1.391 1_455 S
C948 C953 1.386 . S
C949 H910 0.930 . S
C949 C948 1.391 1_655 S
C949 C950 1.375 1_655 S
C950 H911 0.931 1_455 S
C950 C949 1.375 1_455 S
C950 C951 1.375 . S
C951 C950 1.375 . S
C951 C952 1.361 . S
C952 H912 0.930 . S
C952 C951 1.361 . S
C952 C953 1.399 . S
C953 H913 0.929 . S
C953 C948 1.386 . S
C953 C952 1.399 . S
C954 C933 1.485 . S
C954 C955 1.394 1_455 S
C954 C959 1.360 . S
C955 H914 0.931 . S
C955 C954 1.394 1_655 S
C955 C956 1.372 . S
C956 H915 0.930 . S
C956 C955 1.372 . S
C956 C957 1.397 1_655 S
C957 C956 1.397 1_455 S
C957 C958 1.390 . S
C957 C973 1.476 . S
C958 H916 0.930 . S
C958 C957 1.390 . S
C958 C959 1.366 . S
C959 H917 0.932 . S
C959 C954 1.360 . S
C959 C958 1.366 . S
C960 C934 1.492 1_655 S
C960 C961 1.380 . S
C960 C965 1.386 1_655 S
C961 H918 0.930 . S
C961 C960 1.380 . S
C961 C962 1.381 . S
C962 H919 0.929 . S
C962 C961 1.381 . S
C962 C963 1.371 . S
C963 C962 1.371 . S
C963 C964 1.380 1_655 S
C964 H920 0.931 . S
C964 C963 1.380 1_455 S
C964 C965 1.387 . S
C965 H921 0.930 . S
C965 C960 1.386 1_455 S
C965 C964 1.387 . S
C966 C935 1.482 1_655 S
C966 C967 1.416 . S
C966 C971 1.337 1_655 S
C967 H922 0.929 . S
C967 C966 1.416 . S
C967 C968 1.386 . S
C968 H923 0.931 . S
C968 C967 1.386 . S
C968 C969 1.399 . S
C969 C968 1.399 . S
C969 C970 1.328 1_655 S
C970 H924 0.930 . S
C970 C969 1.328 1_455 S
C970 C971 1.396 . S
C971 H925 0.929 . S
C971 C966 1.337 1_455 S
C971 C970 1.396 . S
C972 O926 1.300 . S
C972 O927 1.209 . S
C972 C945 1.486 . S
C973 O928 1.199 1_455 S
C973 O929 1.297 . S
C973 C957 1.476 . S
H974 O1000 0.856 . S
H975 O1003 0.854 . S
H976 C1011 0.930 . S
H977 C1012 0.930 . S
H978 C1014 0.930 . S
H979 C1015 0.930 . S
H980 C1017 0.931 . S
H981 C1018 0.930 . S
H982 C1020 0.930 . S
H983 C1021 0.929 . S
H984 C1023 0.930 . S
H985 C1024 0.931 . S
H986 C1026 0.930 . S
H987 C1027 0.929 . S
H988 C1029 0.931 . S
H989 C1030 0.930 . S
H990 C1032 0.930 . S
H991 C1033 0.932 . S
H992 C1035 0.930 . S
H993 C1036 0.929 . S
H994 C1038 0.931 . S
H995 C1039 0.930 . S
H996 C1041 0.929 . S
H997 C1042 0.931 . S
H998 C1044 0.930 . S
H999 C1045 0.929 . S
O1000 H974 0.856 . S
O1000 C1046 1.300 . S
O1001 C1046 1.209 . S
O1002 C1047 1.199 . S
O1003 H975 0.854 . S
O1003 C1047 1.297 . S
C1004 C1005 1.404 . S
C1004 C1009 1.397 . S
C1004 C1010 1.492 . S
C1005 C1004 1.404 . S
C1005 C1006 1.396 . S
C1005 C1016 1.492 . S
C1006 C1005 1.396 . S
C1006 C1007 1.397 . S
C1006 C1022 1.509 . S
C1007 C1006 1.397 . S
C1007 C1008 1.412 . S
C1007 C1028 1.485 . S
C1008 C1007 1.412 . S
C1008 C1009 1.388 . S
C1008 C1034 1.490 . S
C1009 C1004 1.397 . S
C1009 C1008 1.388 . S
C1009 C1040 1.519 . S
C1010 C1004 1.492 . S
C1010 C1011 1.363 . S
C1010 C1015 1.390 . S
C1011 H976 0.930 . S
C1011 C1010 1.363 . S
C1011 C1012 1.372 . S
C1012 H977 0.930 . S
C1012 C1011 1.372 . S
C1012 C1013 1.383 . S
C1013 C1012 1.383 . S
C1013 C1014 1.395 . S
C1014 H978 0.930 . S
C1014 C1013 1.395 . S
C1014 C1015 1.362 . S
C1015 H979 0.930 . S
C1015 C1010 1.390 . S
C1015 C1014 1.362 . S
C1016 C1005 1.492 . S
C1016 C1017 1.377 . S
C1016 C1021 1.397 . S
C1017 H980 0.931 . S
C1017 C1016 1.377 . S
C1017 C1018 1.376 . S
C1018 H981 0.930 . S
C1018 C1017 1.376 . S
C1018 C1019 1.376 . S
C1019 C1018 1.376 . S
C1019 C1020 1.378 . S
C1019 C1046 1.486 . S
C1020 H982 0.930 . S
C1020 C1019 1.378 . S
C1020 C1021 1.376 . S
C1021 H983 0.929 . S
C1021 C1016 1.397 . S
C1021 C1020 1.376 . S
C1022 C1006 1.509 . S
C1022 C1023 1.391 . S
C1022 C1027 1.386 . S
C1023 H984 0.930 . S
C1023 C1022 1.391 . S
C1023 C1024 1.375 . S
C1024 H985 0.931 . S
C1024 C1023 1.375 . S
C1024 C1025 1.375 . S
C1025 C1024 1.375 . S
C1025 C1026 1.361 . S
C1026 H986 0.930 . S
C1026 C1025 1.361 . S
C1026 C1027 1.399 . S
C1027 H987 0.929 . S
C1027 C1022 1.386 . S
C1027 C1026 1.399 . S
C1028 C1007 1.485 . S
C1028 C1029 1.394 . S
C1028 C1033 1.360 . S
C1029 H988 0.931 . S
C1029 C1028 1.394 . S
C1029 C1030 1.372 . S
C1030 H989 0.930 . S
C1030 C1029 1.372 . S
C1030 C1031 1.397 . S
C1031 C1030 1.397 . S
C1031 C1032 1.390 . S
C1031 C1047 1.476 . S
C1032 H990 0.930 . S
C1032 C1031 1.390 . S
C1032 C1033 1.366 . S
C1033 H991 0.932 . S
C1033 C1028 1.360 . S
C1033 C1032 1.366 . S
C1034 C1008 1.490 . S
C1034 C1035 1.380 . S
C1034 C1039 1.386 . S
C1035 H992 0.930 . S
C1035 C1034 1.380 . S
C1035 C1036 1.381 . S
C1036 H993 0.929 . S
C1036 C1035 1.381 . S
C1036 C1037 1.371 . S
C1037 C1036 1.371 . S
C1037 C1038 1.380 . S
C1038 H994 0.931 . S
C1038 C1037 1.380 . S
C1038 C1039 1.387 . S
C1039 H995 0.930 . S
C1039 C1034 1.386 . S
C1039 C1038 1.387 . S
C1040 C1009 1.519 . S
C1040 C1041 1.377 . S
C1040 C1045 1.361 . S
C1041 H996 0.929 . S
C1041 C1040 1.377 . S
C1041 C1042 1.386 . S
C1042 H997 0.931 . S
C1042 C1041 1.386 . S
C1042 C1043 1.363 . S
C1043 C1042 1.363 . S
C1043 C1044 1.385 . S
C1044 H998 0.930 . S
C1044 C1043 1.385 . S
C1044 C1045 1.396 . S
C1045 H999 0.929 . S
C1045 C1040 1.361 . S
C1045 C1044 1.396 . S
C1046 O1000 1.300 . S
C1046 O1001 1.209 . S
C1046 C1019 1.486 . S
C1047 O1002 1.199 . S
C1047 O1003 1.297 . S
C1047 C1031 1.476 . S
H1048 O1074 0.856 . S
H1049 O1077 0.854 . S
H1050 C1085 0.930 . S
H1051 C1086 0.930 . S
H1052 C1088 0.930 . S
H1053 C1089 0.930 . S
H1054 C1091 0.931 . S
H1055 C1092 0.923 1_545 S
H1056 C1094 0.930 . S
H1057 C1095 0.929 . S
H1058 C1097 0.930 . S
H1059 C1098 0.931 . S
H1060 C1100 0.930 . S
H1061 C1101 0.929 . S
H1062 C1103 0.931 . S
H1063 C1104 0.930 . S
H1064 C1106 0.930 . S
H1065 C1107 0.932 . S
H1066 C1109 0.930 . S
H1067 C1110 0.929 . S
H1068 C1112 0.931 . S
H1069 C1113 0.930 . S
H1070 C1115 0.929 . S
H1071 C1116 0.931 . S
H1072 C1118 0.930 . S
H1073 C1119 0.929 . S
O1074 H1048 0.856 . S
O1074 C1120 1.300 . S
O1075 C1120 1.209 . S
O1076 C1121 1.199 1_545 S
O1077 H1049 0.854 . S
O1077 C1121 1.297 . S
C1078 C1079 1.404 . S
C1078 C1083 1.415 . S
C1078 C1084 1.492 . S
C1079 C1078 1.404 . S
C1079 C1080 1.396 . S
C1079 C1090 1.492 . S
C1080 C1079 1.396 . S
C1080 C1081 1.397 . S
C1080 C1096 1.509 . S
C1081 C1080 1.397 . S
C1081 C1082 1.411 1_565 S
C1081 C1102 1.485 . S
C1082 C1081 1.411 1_545 S
C1082 C1083 1.365 1_545 S
C1082 C1108 1.488 . S
C1083 C1078 1.415 . S
C1083 C1082 1.365 1_565 S
C1083 C1114 1.531 1_565 S
C1084 C1078 1.492 . S
C1084 C1085 1.363 1_565 S
C1084 C1089 1.390 . S
C1085 H1050 0.930 . S
C1085 C1084 1.363 1_545 S
C1085 C1086 1.372 . S
C1086 H1051 0.930 . S
C1086 C1085 1.372 . S
C1086 C1087 1.442 . S
C1087 C1086 1.442 . S
C1087 C1088 1.366 1_545 S
C1088 H1052 0.930 . S
C1088 C1087 1.366 1_565 S
C1088 C1089 1.362 . S
C1089 H1053 0.930 . S
C1089 C1084 1.390 . S
C1089 C1088 1.362 . S
C1090 C1079 1.492 . S
C1090 C1091 1.377 1_565 S
C1090 C1095 1.397 . S
C1091 H1054 0.931 . S
C1091 C1090 1.377 1_545 S
C1091 C1092 1.372 1_545 S
C1092 H1055 0.923 1_565 S
C1092 C1091 1.372 1_565 S
C1092 C1093 1.387 . S
C1093 C1092 1.387 . S
C1093 C1094 1.378 . S
C1093 C1120 1.486 . S
C1094 H1056 0.930 . S
C1094 C1093 1.378 . S
C1094 C1095 1.376 . S
C1095 H1057 0.929 . S
C1095 C1090 1.397 . S
C1095 C1094 1.376 . S
C1096 C1080 1.509 . S
C1096 C1097 1.391 1_565 S
C1096 C1101 1.386 . S
C1097 H1058 0.930 . S
C1097 C1096 1.391 1_545 S
C1097 C1098 1.375 . S
C1098 H1059 0.931 . S
C1098 C1097 1.375 . S
C1098 C1099 1.375 1_545 S
C1099 C1098 1.375 1_565 S
C1099 C1100 1.361 . S
C1100 H1060 0.930 . S
C1100 C1099 1.361 . S
C1100 C1101 1.399 . S
C1101 H1061 0.929 . S
C1101 C1096 1.386 . S
C1101 C1100 1.399 . S
C1102 C1081 1.485 . S
C1102 C1103 1.394 1_565 S
C1102 C1107 1.360 . S
C1103 H1062 0.931 . S
C1103 C1102 1.394 1_545 S
C1103 C1104 1.372 . S
C1104 H1063 0.930 . S
C1104 C1103 1.372 . S
C1104 C1105 1.397 1_545 S
C1105 C1104 1.397 1_565 S
C1105 C1106 1.390 . S
C1105 C1121 1.476 . S
C1106 H1064 0.930 . S
C1106 C1105 1.390 . S
C1106 C1107 1.366 . S
C1107 H1065 0.932 . S
C1107 C1102 1.360 . S
C1107 C1106 1.366 . S
C1108 C1082 1.488 . S
C1108 C1109 1.380 . S
C1108 C1113 1.386 1_545 S
C1109 H1066 0.930 . S
C1109 C1108 1.380 . S
C1109 C1110 1.381 . S
C1110 H1067 0.929 . S
C1110 C1109 1.381 . S
C1110 C1111 1.371 . S
C1111 C1110 1.371 . S
C1111 C1112 1.380 1_545 S
C1112 H1068 0.931 . S
C1112 C1111 1.380 1_565 S
C1112 C1113 1.387 . S
C1113 H1069 0.930 . S
C1113 C1108 1.386 1_565 S
C1113 C1112 1.387 . S
C1114 C1083 1.531 1_545 S
C1114 C1115 1.374 . S
C1114 C1119 1.366 1_545 S
C1115 H1070 0.929 . S
C1115 C1114 1.374 . S
C1115 C1116 1.386 . S
C1116 H1071 0.931 . S
C1116 C1115 1.386 . S
C1116 C1117 1.312 1_545 S
C1117 C1116 1.312 1_565 S
C1117 C1118 1.411 . S
C1118 H1072 0.930 . S
C1118 C1117 1.411 . S
C1118 C1119 1.396 . S
C1119 H1073 0.929 . S
C1119 C1114 1.366 1_565 S
C1119 C1118 1.396 . S
C1120 O1074 1.300 . S
C1120 O1075 1.209 . S
C1120 C1093 1.486 . S
C1121 O1076 1.199 1_565 S
C1121 O1077 1.297 . S
C1121 C1105 1.476 . S
H1122 O1148 0.856 . S
H1123 O1151 0.854 . S
H1124 C1159 0.930 . S
H1125 C1160 0.930 . S
H1126 C1162 0.930 . S
H1127 C1163 0.930 . S
H1128 C1165 0.931 . S
H1129 C1166 0.930 . S
H1130 C1168 0.930 . S
H1131 C1169 0.929 . S
H1132 C1171 0.930 . S
H1133 C1172 0.931 . S
H1134 C1174 0.930 . S
H1135 C1175 0.929 . S
H1136 C1177 0.931 . S
H1137 C1178 0.930 . S
H1138 C1180 0.930 . S
H1139 C1181 0.932 . S
H1140 C1183 0.930 . S
H1141 C1184 0.929 . S
H1142 C1186 0.931 . S
H1143 C1187 0.930 . S
H1144 C1189 0.929 . S
H1145 C1190 0.931 . S
H1146 C1192 0.930 . S
H1147 C1193 0.929 . S
O1148 H1122 0.856 . S
O1148 C1194 1.300 . S
O1149 C1194 1.209 1_565 S
O1150 C1195 1.199 1_545 S
O1151 H1123 0.854 . S
O1151 C1195 1.297 . S
C1152 C1153 1.404 . S
C1152 C1157 1.397 1_545 S
C1152 C1158 1.492 . S
C1153 C1152 1.404 . S
C1153 C1154 1.412 . S
C1153 C1164 1.492 . S
C1154 C1153 1.412 . S
C1154 C1155 1.376 1_545 S
C1154 C1170 1.499 . S
C1155 C1154 1.376 1_565 S
C1155 C1156 1.412 . S
C1155 C1176 1.523 . S
C1156 C1155 1.412 . S
C1156 C1157 1.354 . S
C1156 C1182 1.487 . S
C1157 C1152 1.397 1_565 S
C1157 C1156 1.354 . S
C1157 C1188 1.519 . S
C1158 C1152 1.492 . S
C1158 C1159 1.363 . S
C1158 C1163 1.390 1_545 S
C1159 H1124 0.930 . S
C1159 C1158 1.363 . S
C1159 C1160 1.372 . S
C1160 H1125 0.930 . S
C1160 C1159 1.372 . S
C1160 C1161 1.383 . S
C1161 C1160 1.383 . S
C1161 C1162 1.395 1_545 S
C1162 H1126 0.930 . S
C1162 C1161 1.395 1_565 S
C1162 C1163 1.362 . S
C1163 H1127 0.930 . S
C1163 C1158 1.390 1_565 S
C1163 C1162 1.362 . S
C1164 C1153 1.492 . S
C1164 C1165 1.377 . S
C1164 C1169 1.397 1_545 S
C1165 H1128 0.931 . S
C1165 C1164 1.377 . S
C1165 C1166 1.376 . S
C1166 H1129 0.930 . S
C1166 C1165 1.376 . S
C1166 C1167 1.376 . S
C1167 C1166 1.376 . S
C1167 C1168 1.378 1_545 S
C1167 C1194 1.486 . S
C1168 H1130 0.930 . S
C1168 C1167 1.378 1_565 S
C1168 C1169 1.376 . S
C1169 H1131 0.929 . S
C1169 C1164 1.397 1_565 S
C1169 C1168 1.376 . S
C1170 C1154 1.499 . S
C1170 C1171 1.390 . S
C1170 C1175 1.390 1_545 S
C1171 H1132 0.930 . S
C1171 C1170 1.390 . S
C1171 C1172 1.375 . S
C1172 H1133 0.931 . S
C1172 C1171 1.375 . S
C1172 C1173 1.340 1_545 S
C1173 C1172 1.340 1_565 S
C1173 C1174 1.381 . S
C1174 H1134 0.930 . S
C1174 C1173 1.381 . S
C1174 C1175 1.399 . S
C1175 H1135 0.929 . S
C1175 C1170 1.390 1_565 S
C1175 C1174 1.399 . S
C1176 C1155 1.523 . S
C1176 C1177 1.394 1_565 S
C1176 C1181 1.360 . S
C1177 H1136 0.931 . S
C1177 C1176 1.394 1_545 S
C1177 C1178 1.372 . S
C1178 H1137 0.930 . S
C1178 C1177 1.372 . S
C1178 C1179 1.397 1_545 S
C1179 C1178 1.397 1_565 S
C1179 C1180 1.390 . S
C1179 C1195 1.476 . S
C1180 H1138 0.930 . S
C1180 C1179 1.390 . S
C1180 C1181 1.366 . S
C1181 H1139 0.932 . S
C1181 C1176 1.360 . S
C1181 C1180 1.366 . S
C1182 C1156 1.487 . S
C1182 C1183 1.324 1_565 S
C1182 C1187 1.460 . S
C1183 H1140 0.930 . S
C1183 C1182 1.324 1_545 S
C1183 C1184 1.381 . S
C1184 H1141 0.929 . S
C1184 C1183 1.381 . S
C1184 C1185 1.369 1_545 S
C1185 C1184 1.369 1_565 S
C1185 C1186 1.381 . S
C1186 H1142 0.931 . S
C1186 C1185 1.381 . S
C1186 C1187 1.387 . S
C1187 H1143 0.930 . S
C1187 C1182 1.460 . S
C1187 C1186 1.387 . S
C1188 C1157 1.519 . S
C1188 C1189 1.377 1_565 S
C1188 C1193 1.361 . S
C1189 H1144 0.929 . S
C1189 C1188 1.377 1_545 S
C1189 C1190 1.386 . S
C1190 H1145 0.931 . S
C1190 C1189 1.386 . S
C1190 C1191 1.363 1_545 S
C1191 C1190 1.363 1_565 S
C1191 C1192 1.385 . S
C1192 H1146 0.930 . S
C1192 C1191 1.385 . S
C1192 C1193 1.396 . S
C1193 H1147 0.929 . S
C1193 C1188 1.361 . S
C1193 C1192 1.396 . S
C1194 O1148 1.300 . S
C1194 O1149 1.209 1_545 S
C1194 C1167 1.486 . S
C1195 O1150 1.199 1_565 S
C1195 O1151 1.297 . S
C1195 C1179 1.476 . S
H1196 O1222 0.856 . S
H1197 O1225 0.854 . S
H1198 C1233 0.930 . S
H1199 C1234 0.930 . S
H1200 C1236 0.930 . S
H1201 C1237 0.930 . S
H1202 C1239 0.931 . S
H1203 C1240 0.930 . S
H1204 C1242 0.930 . S
H1205 C1243 0.929 . S
H1206 C1245 0.930 . S
H1207 C1246 0.931 . S
H1208 C1248 0.930 . S
H1209 C1249 0.929 . S
H1210 C1251 0.931 . S
H1211 C1252 0.930 . S
H1212 C1254 0.930 . S
H1213 C1255 0.932 . S
H1214 C1257 0.930 . S
H1215 C1258 0.929 . S
H1216 C1260 0.931 . S
H1217 C1261 0.930 . S
H1218 C1263 0.929 . S
H1219 C1264 0.931 . S
H1220 C1266 0.930 . S
H1221 C1267 0.929 . S
O1222 H1196 0.856 . S
O1222 C1268 1.300 . S
O1223 C1268 1.209 1_455 S
O1224 C1269 1.199 1_655 S
O1225 H1197 0.854 . S
O1225 C1269 1.297 . S
C1226 C1227 1.404 . S
C1226 C1231 1.398 . S
C1226 C1232 1.492 . S
C1227 C1226 1.404 . S
C1227 C1228 1.396 . S
C1227 C1238 1.492 . S
C1228 C1227 1.396 . S
C1228 C1229 1.393 . S
C1228 C1244 1.509 . S
C1229 C1228 1.393 . S
C1229 C1230 1.390 1_655 S
C1229 C1250 1.512 1_655 S
C1230 C1229 1.390 1_455 S
C1230 C1231 1.390 1_455 S
C1230 C1256 1.501 . S
C1231 C1226 1.398 . S
C1231 C1230 1.390 1_655 S
C1231 C1262 1.521 1_655 S
C1232 C1226 1.492 . S
C1232 C1233 1.363 . S
C1232 C1237 1.390 1_655 S
C1233 H1198 0.930 . S
C1233 C1232 1.363 . S
C1233 C1234 1.372 . S
C1234 H1199 0.930 . S
C1234 C1233 1.372 . S
C1234 C1235 1.383 . S
C1235 C1234 1.383 . S
C1235 C1236 1.395 1_655 S
C1236 H1200 0.930 . S
C1236 C1235 1.395 1_455 S
C1236 C1237 1.362 . S
C1237 H1201 0.930 . S
C1237 C1232 1.390 1_455 S
C1237 C1236 1.362 . S
C1238 C1227 1.492 . S
C1238 C1239 1.377 . S
C1238 C1243 1.397 1_655 S
C1239 H1202 0.931 . S
C1239 C1238 1.377 . S
C1239 C1240 1.376 . S
C1240 H1203 0.930 . S
C1240 C1239 1.376 . S
C1240 C1241 1.376 . S
C1241 C1240 1.376 . S
C1241 C1242 1.378 1_655 S
C1241 C1268 1.486 . S
C1242 H1204 0.930 . S
C1242 C1241 1.378 1_455 S
C1242 C1243 1.376 . S
C1243 H1205 0.929 . S
C1243 C1238 1.397 1_455 S
C1243 C1242 1.376 . S
C1244 C1228 1.509 . S
C1244 C1245 1.391 . S
C1244 C1249 1.386 1_655 S
C1245 H1206 0.930 . S
C1245 C1244 1.391 . S
C1245 C1246 1.375 . S
C1246 H1207 0.931 . S
C1246 C1245 1.375 . S
C1246 C1247 1.375 . S
C1247 C1246 1.375 . S
C1247 C1248 1.361 1_655 S
C1248 H1208 0.930 . S
C1248 C1247 1.361 1_455 S
C1248 C1249 1.399 . S
C1249 H1209 0.929 . S
C1249 C1244 1.386 1_455 S
C1249 C1248 1.399 . S
C1250 C1229 1.512 1_455 S
C1250 C1251 1.392 1_455 S
C1250 C1255 1.361 . S
C1251 H1210 0.931 . S
C1251 C1250 1.392 1_655 S
C1251 C1252 1.372 . S
C1252 H1211 0.930 . S
C1252 C1251 1.372 . S
C1252 C1253 1.397 1_655 S
C1253 C1252 1.397 1_455 S
C1253 C1254 1.390 . S
C1253 C1269 1.476 . S
C1254 H1212 0.930 . S
C1254 C1253 1.390 . S
C1254 C1255 1.366 . S
C1255 H1213 0.932 . S
C1255 C1250 1.361 . S
C1255 C1254 1.366 . S
C1256 C1230 1.501 . S
C1256 C1257 1.342 1_455 S
C1256 C1261 1.415 . S
C1257 H1214 0.930 . S
C1257 C1256 1.342 1_655 S
C1257 C1258 1.381 . S
C1258 H1215 0.929 . S
C1258 C1257 1.381 . S
C1258 C1259 1.342 1_655 S
C1259 C1258 1.342 1_455 S
C1259 C1260 1.428 . S
C1260 H1216 0.931 . S
C1260 C1259 1.428 . S
C1260 C1261 1.387 . S
C1261 H1217 0.930 . S
C1261 C1256 1.415 . S
C1261 C1260 1.387 . S
C1262 C1231 1.521 1_455 S
C1262 C1263 1.377 1_455 S
C1262 C1267 1.361 . S
C1263 H1218 0.929 . S
C1263 C1262 1.377 1_655 S
C1263 C1264 1.386 . S
C1264 H1219 0.931 . S
C1264 C1263 1.386 . S
C1264 C1265 1.363 1_655 S
C1265 C1264 1.363 1_455 S
C1265 C1266 1.385 . S
C1266 H1220 0.930 . S
C1266 C1265 1.385 . S
C1266 C1267 1.396 . S
C1267 H1221 0.929 . S
C1267 C1262 1.361 . S
C1267 C1266 1.396 . S
C1268 O1222 1.300 . S
C1268 O1223 1.209 1_655 S
C1268 C1241 1.486 . S
C1269 O1224 1.199 1_455 S
C1269 O1225 1.297 . S
C1269 C1253 1.476 . S
H1270 O1296 0.856 . S
H1271 O1299 0.854 . S
H1272 C1307 0.930 . S
H1273 C1308 0.930 . S
H1274 C1310 0.930 . S
H1275 C1311 0.930 . S
H1276 C1313 0.931 . S
H1277 C1314 0.930 . S
H1278 C1316 0.930 . S
H1279 C1317 0.929 . S
H1280 C1319 0.930 . S
H1281 C1320 0.931 . S
H1282 C1322 0.930 . S
H1283 C1323 0.929 . S
H1284 C1325 0.931 . S
H1285 C1326 0.930 . S
H1286 C1328 0.930 . S
H1287 C1329 0.932 . S
H1288 C1331 0.930 . S
H1289 C1332 0.929 . S
H1290 C1334 0.931 . S
H1291 C1335 0.930 . S
H1292 C1337 0.929 . S
H1293 C1338 0.931 . S
H1294 C1340 0.930 . S
H1295 C1341 0.929 . S
O1296 H1270 0.856 . S
O1296 C1342 1.300 . S
O1297 C1342 1.209 . S
O1298 C1343 1.199 . S
O1299 H1271 0.854 . S
O1299 C1343 1.297 . S
C1300 C1301 1.404 . S
C1300 C1305 1.397 . S
C1300 C1306 1.492 . S
C1301 C1300 1.404 . S
C1301 C1302 1.396 . S
C1301 C1312 1.492 . S
C1302 C1301 1.396 . S
C1302 C1303 1.397 . S
C1302 C1318 1.509 . S
C1303 C1302 1.397 . S
C1303 C1304 1.412 . S
C1303 C1324 1.485 . S
C1304 C1303 1.412 . S
C1304 C1305 1.388 . S
C1304 C1330 1.490 . S
C1305 C1300 1.397 . S
C1305 C1304 1.388 . S
C1305 C1336 1.519 . S
C1306 C1300 1.492 . S
C1306 C1307 1.363 . S
C1306 C1311 1.390 . S
C1307 H1272 0.930 . S
C1307 C1306 1.363 . S
C1307 C1308 1.372 . S
C1308 H1273 0.930 . S
C1308 C1307 1.372 . S
C1308 C1309 1.383 . S
C1309 C1308 1.383 . S
C1309 C1310 1.395 . S
C1310 H1274 0.930 . S
C1310 C1309 1.395 . S
C1310 C1311 1.362 . S
C1311 H1275 0.930 . S
C1311 C1306 1.390 . S
C1311 C1310 1.362 . S
C1312 C1301 1.492 . S
C1312 C1313 1.377 . S
C1312 C1317 1.397 . S
C1313 H1276 0.931 . S
C1313 C1312 1.377 . S
C1313 C1314 1.376 . S
C1314 H1277 0.930 . S
C1314 C1313 1.376 . S
C1314 C1315 1.376 . S
C1315 C1314 1.376 . S
C1315 C1316 1.378 . S
C1315 C1342 1.486 . S
C1316 H1278 0.930 . S
C1316 C1315 1.378 . S
C1316 C1317 1.376 . S
C1317 H1279 0.929 . S
C1317 C1312 1.397 . S
C1317 C1316 1.376 . S
C1318 C1302 1.509 . S
C1318 C1319 1.391 . S
C1318 C1323 1.386 . S
C1319 H1280 0.930 . S
C1319 C1318 1.391 . S
C1319 C1320 1.375 . S
C1320 H1281 0.931 . S
C1320 C1319 1.375 . S
C1320 C1321 1.375 . S
C1321 C1320 1.375 . S
C1321 C1322 1.361 . S
C1322 H1282 0.930 . S
C1322 C1321 1.361 . S
C1322 C1323 1.399 . S
C1323 H1283 0.929 . S
C1323 C1318 1.386 . S
C1323 C1322 1.399 . S
C1324 C1303 1.485 . S
C1324 C1325 1.394 . S
C1324 C1329 1.360 . S
C1325 H1284 0.931 . S
C1325 C1324 1.394 . S
C1325 C1326 1.372 . S
C1326 H1285 0.930 . S
C1326 C1325 1.372 . S
C1326 C1327 1.397 . S
C1327 C1326 1.397 . S
C1327 C1328 1.390 . S
C1327 C1343 1.476 . S
C1328 H1286 0.930 . S
C1328 C1327 1.390 . S
C1328 C1329 1.366 . S
C1329 H1287 0.932 . S
C1329 C1324 1.360 . S
C1329 C1328 1.366 . S
C1330 C1304 1.490 . S
C1330 C1331 1.380 . S
C1330 C1335 1.386 . S
C1331 H1288 0.930 . S
C1331 C1330 1.380 . S
C1331 C1332 1.381 . S
C1332 H1289 0.929 . S
C1332 C1331 1.381 . S
C1332 C1333 1.371 . S
C1333 C1332 1.371 . S
C1333 C1334 1.380 . S
C1334 H1290 0.931 . S
C1334 C1333 1.380 . S
C1334 C1335 1.387 . S
C1335 H1291 0.930 . S
C1335 C1330 1.386 . S
C1335 C1334 1.387 . S
C1336 C1305 1.519 . S
C1336 C1337 1.377 . S
C1336 C1341 1.361 . S
C1337 H1292 0.929 . S
C1337 C1336 1.377 . S
C1337 C1338 1.386 . S
C1338 H1293 0.931 . S
C1338 C1337 1.386 . S
C1338 C1339 1.363 . S
C1339 C1338 1.363 . S
C1339 C1340 1.385 . S
C1340 H1294 0.930 . S
C1340 C1339 1.385 . S
C1340 C1341 1.396 . S
C1341 H1295 0.929 . S
C1341 C1336 1.361 . S
C1341 C1340 1.396 . S
C1342 O1296 1.300 . S
C1342 O1297 1.209 . S
C1342 C1315 1.486 . S
C1343 O1298 1.199 . S
C1343 O1299 1.297 . S
C1343 C1327 1.476 . S
H1344 O1370 0.856 . S
H1345 O1373 0.854 . S
H1346 C1381 0.930 . S
H1347 C1382 0.930 . S
H1348 C1384 0.930 . S
H1349 C1385 0.930 . S
H1350 C1387 0.931 . S
H1351 C1388 0.930 . S
H1352 C1390 0.930 . S
H1353 C1391 0.929 . S
H1354 C1393 0.930 . S
H1355 C1394 0.931 . S
H1356 C1396 0.930 . S
H1357 C1397 0.929 . S
H1358 C1399 0.931 . S
H1359 C1400 0.930 . S
H1360 C1402 0.930 . S
H1361 C1403 0.932 . S
H1362 C1405 0.930 . S
H1363 C1406 0.929 . S
H1364 C1408 0.931 . S
H1365 C1409 0.930 . S
H1366 C1411 0.929 . S
H1367 C1412 0.931 . S
H1368 C1414 0.930 . S
H1369 C1415 0.929 . S
O1370 H1344 0.856 . S
O1370 C1416 1.300 . S
O1371 C1416 1.209 . S
O1372 C1417 1.199 . S
O1373 H1345 0.854 . S
O1373 C1417 1.297 . S
C1374 C1375 1.404 . S
C1374 C1379 1.397 . S
C1374 C1380 1.492 . S
C1375 C1374 1.404 . S
C1375 C1376 1.396 . S
C1375 C1386 1.492 . S
C1376 C1375 1.396 . S
C1376 C1377 1.397 . S
C1376 C1392 1.509 . S
C1377 C1376 1.397 . S
C1377 C1378 1.412 . S
C1377 C1398 1.485 . S
C1378 C1377 1.412 . S
C1378 C1379 1.388 . S
C1378 C1404 1.490 . S
C1379 C1374 1.397 . S
C1379 C1378 1.388 . S
C1379 C1410 1.519 . S
C1380 C1374 1.492 . S
C1380 C1381 1.363 . S
C1380 C1385 1.390 . S
C1381 H1346 0.930 . S
C1381 C1380 1.363 . S
C1381 C1382 1.372 . S
C1382 H1347 0.930 . S
C1382 C1381 1.372 . S
C1382 C1383 1.383 . S
C1383 C1382 1.383 . S
C1383 C1384 1.395 . S
C1384 H1348 0.930 . S
C1384 C1383 1.395 . S
C1384 C1385 1.362 . S
C1385 H1349 0.930 . S
C1385 C1380 1.390 . S
C1385 C1384 1.362 . S
C1386 C1375 1.492 . S
C1386 C1387 1.377 . S
C1386 C1391 1.397 . S
C1387 H1350 0.931 . S
C1387 C1386 1.377 . S
C1387 C1388 1.376 . S
C1388 H1351 0.930 . S
C1388 C1387 1.376 . S
C1388 C1389 1.376 . S
C1389 C1388 1.376 . S
C1389 C1390 1.378 . S
C1389 C1416 1.486 . S
C1390 H1352 0.930 . S
C1390 C1389 1.378 . S
C1390 C1391 1.376 . S
C1391 H1353 0.929 . S
C1391 C1386 1.397 . S
C1391 C1390 1.376 . S
C1392 C1376 1.509 . S
C1392 C1393 1.391 . S
C1392 C1397 1.386 . S
C1393 H1354 0.930 . S
C1393 C1392 1.391 . S
C1393 C1394 1.375 . S
C1394 H1355 0.931 . S
C1394 C1393 1.375 . S
C1394 C1395 1.375 . S
C1395 C1394 1.375 . S
C1395 C1396 1.361 . S
C1396 H1356 0.930 . S
C1396 C1395 1.361 . S
C1396 C1397 1.399 . S
C1397 H1357 0.929 . S
C1397 C1392 1.386 . S
C1397 C1396 1.399 . S
C1398 C1377 1.485 . S
C1398 C1399 1.394 . S
C1398 C1403 1.360 . S
C1399 H1358 0.931 . S
C1399 C1398 1.394 . S
C1399 C1400 1.372 . S
C1400 H1359 0.930 . S
C1400 C1399 1.372 . S
C1400 C1401 1.397 . S
C1401 C1400 1.397 . S
C1401 C1402 1.390 . S
C1401 C1417 1.476 . S
C1402 H1360 0.930 . S
C1402 C1401 1.390 . S
C1402 C1403 1.366 . S
C1403 H1361 0.932 . S
C1403 C1398 1.360 . S
C1403 C1402 1.366 . S
C1404 C1378 1.490 . S
C1404 C1405 1.380 . S
C1404 C1409 1.386 . S
C1405 H1362 0.930 . S
C1405 C1404 1.380 . S
C1405 C1406 1.381 . S
C1406 H1363 0.929 . S
C1406 C1405 1.381 . S
C1406 C1407 1.371 . S
C1407 C1406 1.371 . S
C1407 C1408 1.380 . S
C1408 H1364 0.931 . S
C1408 C1407 1.380 . S
C1408 C1409 1.387 . S
C1409 H1365 0.930 . S
C1409 C1404 1.386 . S
C1409 C1408 1.387 . S
C1410 C1379 1.519 . S
C1410 C1411 1.377 . S
C1410 C1415 1.361 . S
C1411 H1366 0.929 . S
C1411 C1410 1.377 . S
C1411 C1412 1.386 . S
C1412 H1367 0.931 . S
C1412 C1411 1.386 . S
C1412 C1413 1.363 . S
C1413 C1412 1.363 . S
C1413 C1414 1.385 . S
C1414 H1368 0.930 . S
C1414 C1413 1.385 . S
C1414 C1415 1.396 . S
C1415 H1369 0.929 . S
C1415 C1410 1.361 . S
C1415 C1414 1.396 . S
C1416 O1370 1.300 . S
C1416 O1371 1.209 . S
C1416 C1389 1.486 . S
C1417 O1372 1.199 . S
C1417 O1373 1.297 . S
C1417 C1401 1.476 . S
H1418 O1444 0.856 . S
H1419 O1447 0.854 . S
H1420 C1455 0.930 . S
H1421 C1456 0.930 . S
H1422 C1458 0.930 . S
H1423 C1459 0.930 . S
H1424 C1461 0.931 . S
H1425 C1462 0.930 . S
H1426 C1464 0.930 . S
H1427 C1465 0.929 . S
H1428 C1467 0.930 . S
H1429 C1468 0.931 . S
H1430 C1470 0.930 . S
H1431 C1471 0.929 . S
H1432 C1473 0.931 . S
H1433 C1474 0.930 . S
H1434 C1476 0.930 . S
H1435 C1477 0.932 . S
H1436 C1479 0.930 . S
H1437 C1480 0.929 . S
H1438 C1482 0.931 . S
H1439 C1483 0.930 . S
H1440 C1485 0.929 . S
H1441 C1486 0.931 . S
H1442 C1488 0.930 . S
H1443 C1489 0.929 . S
O1444 H1418 0.856 . S
O1444 C1490 1.300 . S
O1445 C1490 1.209 . S
O1446 C1491 1.199 . S
O1447 H1419 0.854 . S
O1447 C1491 1.297 . S
C1448 C1449 1.404 . S
C1448 C1453 1.397 . S
C1448 C1454 1.492 . S
C1449 C1448 1.404 . S
C1449 C1450 1.396 . S
C1449 C1460 1.492 . S
C1450 C1449 1.396 . S
C1450 C1451 1.397 . S
C1450 C1466 1.509 . S
C1451 C1450 1.397 . S
C1451 C1452 1.412 . S
C1451 C1472 1.485 . S
C1452 C1451 1.412 . S
C1452 C1453 1.388 . S
C1452 C1478 1.490 . S
C1453 C1448 1.397 . S
C1453 C1452 1.388 . S
C1453 C1484 1.519 . S
C1454 C1448 1.492 . S
C1454 C1455 1.363 . S
C1454 C1459 1.390 . S
C1455 H1420 0.930 . S
C1455 C1454 1.363 . S
C1455 C1456 1.372 . S
C1456 H1421 0.930 . S
C1456 C1455 1.372 . S
C1456 C1457 1.383 . S
C1457 C1456 1.383 . S
C1457 C1458 1.395 . S
C1458 H1422 0.930 . S
C1458 C1457 1.395 . S
C1458 C1459 1.362 . S
C1459 H1423 0.930 . S
C1459 C1454 1.390 . S
C1459 C1458 1.362 . S
C1460 C1449 1.492 . S
C1460 C1461 1.377 . S
C1460 C1465 1.397 . S
C1461 H1424 0.931 . S
C1461 C1460 1.377 . S
C1461 C1462 1.376 . S
C1462 H1425 0.930 . S
C1462 C1461 1.376 . S
C1462 C1463 1.376 . S
C1463 C1462 1.376 . S
C1463 C1464 1.378 . S
C1463 C1490 1.486 . S
C1464 H1426 0.930 . S
C1464 C1463 1.378 . S
C1464 C1465 1.376 . S
C1465 H1427 0.929 . S
C1465 C1460 1.397 . S
C1465 C1464 1.376 . S
C1466 C1450 1.509 . S
C1466 C1467 1.391 . S
C1466 C1471 1.386 . S
C1467 H1428 0.930 . S
C1467 C1466 1.391 . S
C1467 C1468 1.375 . S
C1468 H1429 0.931 . S
C1468 C1467 1.375 . S
C1468 C1469 1.375 . S
C1469 C1468 1.375 . S
C1469 C1470 1.361 . S
C1470 H1430 0.930 . S
C1470 C1469 1.361 . S
C1470 C1471 1.399 . S
C1471 H1431 0.929 . S
C1471 C1466 1.386 . S
C1471 C1470 1.399 . S
C1472 C1451 1.485 . S
C1472 C1473 1.394 . S
C1472 C1477 1.360 . S
C1473 H1432 0.931 . S
C1473 C1472 1.394 . S
C1473 C1474 1.372 . S
C1474 H1433 0.930 . S
C1474 C1473 1.372 . S
C1474 C1475 1.397 . S
C1475 C1474 1.397 . S
C1475 C1476 1.390 . S
C1475 C1491 1.476 . S
C1476 H1434 0.930 . S
C1476 C1475 1.390 . S
C1476 C1477 1.366 . S
C1477 H1435 0.932 . S
C1477 C1472 1.360 . S
C1477 C1476 1.366 . S
C1478 C1452 1.490 . S
C1478 C1479 1.380 . S
C1478 C1483 1.386 . S
C1479 H1436 0.930 . S
C1479 C1478 1.380 . S
C1479 C1480 1.381 . S
C1480 H1437 0.929 . S
C1480 C1479 1.381 . S
C1480 C1481 1.371 . S
C1481 C1480 1.371 . S
C1481 C1482 1.380 . S
C1482 H1438 0.931 . S
C1482 C1481 1.380 . S
C1482 C1483 1.387 . S
C1483 H1439 0.930 . S
C1483 C1478 1.386 . S
C1483 C1482 1.387 . S
C1484 C1453 1.519 . S
C1484 C1485 1.377 . S
C1484 C1489 1.361 . S
C1485 H1440 0.929 . S
C1485 C1484 1.377 . S
C1485 C1486 1.386 . S
C1486 H1441 0.931 . S
C1486 C1485 1.386 . S
C1486 C1487 1.363 . S
C1487 C1486 1.363 . S
C1487 C1488 1.385 . S
C1488 H1442 0.930 . S
C1488 C1487 1.385 . S
C1488 C1489 1.396 . S
C1489 H1443 0.929 . S
C1489 C1484 1.361 . S
C1489 C1488 1.396 . S
C1490 O1444 1.300 . S
C1490 O1445 1.209 . S
C1490 C1463 1.486 . S
C1491 O1446 1.199 . S
C1491 O1447 1.297 . S
C1491 C1475 1.476 . S
H1492 O1518 0.856 . S
H1493 O1521 0.854 . S
H1494 C1529 0.930 . S
H1495 C1530 0.930 . S
H1496 C1532 0.930 . S
H1497 C1533 0.930 . S
H1498 C1535 0.931 . S
H1499 C1536 0.930 . S
H1500 C1538 0.930 . S
H1501 C1539 0.929 . S
H1502 C1541 0.930 . S
H1503 C1542 0.931 . S
H1504 C1544 0.930 . S
H1505 C1545 0.929 . S
H1506 C1547 0.931 . S
H1507 C1548 0.930 . S
H1508 C1550 0.930 . S
H1509 C1551 0.932 . S
H1510 C1553 0.930 . S
H1511 C1554 0.929 . S
H1512 C1556 0.931 . S
H1513 C1557 0.930 . S
H1514 C1559 0.929 . S
H1515 C1560 0.931 . S
H1516 C1562 0.930 . S
H1517 C1563 0.929 . S
O1518 H1492 0.856 . S
O1518 C1564 1.300 . S
O1519 C1564 1.209 . S
O1520 C1565 1.199 . S
O1521 H1493 0.854 . S
O1521 C1565 1.297 . S
C1522 C1523 1.404 . S
C1522 C1527 1.397 . S
C1522 C1528 1.492 . S
C1523 C1522 1.404 . S
C1523 C1524 1.396 . S
C1523 C1534 1.492 . S
C1524 C1523 1.396 . S
C1524 C1525 1.397 . S
C1524 C1540 1.509 . S
C1525 C1524 1.397 . S
C1525 C1526 1.412 . S
C1525 C1546 1.485 . S
C1526 C1525 1.412 . S
C1526 C1527 1.388 . S
C1526 C1552 1.490 . S
C1527 C1522 1.397 . S
C1527 C1526 1.388 . S
C1527 C1558 1.519 . S
C1528 C1522 1.492 . S
C1528 C1529 1.363 . S
C1528 C1533 1.390 . S
C1529 H1494 0.930 . S
C1529 C1528 1.363 . S
C1529 C1530 1.372 . S
C1530 H1495 0.930 . S
C1530 C1529 1.372 . S
C1530 C1531 1.383 . S
C1531 C1530 1.383 . S
C1531 C1532 1.395 . S
C1532 H1496 0.930 . S
C1532 C1531 1.395 . S
C1532 C1533 1.362 . S
C1533 H1497 0.930 . S
C1533 C1528 1.390 . S
C1533 C1532 1.362 . S
C1534 C1523 1.492 . S
C1534 C1535 1.377 . S
C1534 C1539 1.397 . S
C1535 H1498 0.931 . S
C1535 C1534 1.377 . S
C1535 C1536 1.376 . S
C1536 H1499 0.930 . S
C1536 C1535 1.376 . S
C1536 C1537 1.376 . S
C1537 C1536 1.376 . S
C1537 C1538 1.378 . S
C1537 C1564 1.486 . S
C1538 H1500 0.930 . S
C1538 C1537 1.378 . S
C1538 C1539 1.376 . S
C1539 H1501 0.929 . S
C1539 C1534 1.397 . S
C1539 C1538 1.376 . S
C1540 C1524 1.509 . S
C1540 C1541 1.391 . S
C1540 C1545 1.386 . S
C1541 H1502 0.930 . S
C1541 C1540 1.391 . S
C1541 C1542 1.375 . S
C1542 H1503 0.931 . S
C1542 C1541 1.375 . S
C1542 C1543 1.375 . S
C1543 C1542 1.375 . S
C1543 C1544 1.361 . S
C1544 H1504 0.930 . S
C1544 C1543 1.361 . S
C1544 C1545 1.399 . S
C1545 H1505 0.929 . S
C1545 C1540 1.386 . S
C1545 C1544 1.399 . S
C1546 C1525 1.485 . S
C1546 C1547 1.394 . S
C1546 C1551 1.360 . S
C1547 H1506 0.931 . S
C1547 C1546 1.394 . S
C1547 C1548 1.372 . S
C1548 H1507 0.930 . S
C1548 C1547 1.372 . S
C1548 C1549 1.397 . S
C1549 C1548 1.397 . S
C1549 C1550 1.390 . S
C1549 C1565 1.476 . S
C1550 H1508 0.930 . S
C1550 C1549 1.390 . S
C1550 C1551 1.366 . S
C1551 H1509 0.932 . S
C1551 C1546 1.360 . S
C1551 C1550 1.366 . S
C1552 C1526 1.490 . S
C1552 C1553 1.380 . S
C1552 C1557 1.386 . S
C1553 H1510 0.930 . S
C1553 C1552 1.380 . S
C1553 C1554 1.381 . S
C1554 H1511 0.929 . S
C1554 C1553 1.381 . S
C1554 C1555 1.371 . S
C1555 C1554 1.371 . S
C1555 C1556 1.380 . S
C1556 H1512 0.931 . S
C1556 C1555 1.380 . S
C1556 C1557 1.387 . S
C1557 H1513 0.930 . S
C1557 C1552 1.386 . S
C1557 C1556 1.387 . S
C1558 C1527 1.519 . S
C1558 C1559 1.377 . S
C1558 C1563 1.361 . S
C1559 H1514 0.929 . S
C1559 C1558 1.377 . S
C1559 C1560 1.386 . S
C1560 H1515 0.931 . S
C1560 C1559 1.386 . S
C1560 C1561 1.363 . S
C1561 C1560 1.363 . S
C1561 C1562 1.385 . S
C1562 H1516 0.930 . S
C1562 C1561 1.385 . S
C1562 C1563 1.396 . S
C1563 H1517 0.929 . S
C1563 C1558 1.361 . S
C1563 C1562 1.396 . S
C1564 O1518 1.300 . S
C1564 O1519 1.209 . S
C1564 C1537 1.486 . S
C1565 O1520 1.199 . S
C1565 O1521 1.297 . S
C1565 C1549 1.476 . S
H1566 C1584 0.951 . S
H1567 C1586 0.951 . S
H1568 C1588 0.950 . S
H1569 C1589 0.950 . S
H1570 C1591 1.012 . S
H1571 C1594 0.904 1_455 S
H1572 C1595 0.950 . S
H1573 C1597 0.950 . S
H1574 C1598 0.950 . S
H1575 C1599 0.951 . S
H1576 C1601 0.951 . S
H1577 C1603 0.950 . S
H1578 C1604 0.950 . S
H1579 C1606 0.950 . S
H1580 C1609 0.950 . S
H1581 C1610 0.999 . S
H1582 C1612 0.950 . S
H1583 C1613 0.950 . S
C1584 H1566 0.951 . S
C1584 C1585 1.366 . S
C1584 C1586 1.388 . S
C1585 C1584 1.366 . S
C1585 C1589 1.385 1_655 S
C1586 H1567 0.951 . S
C1586 C1584 1.388 . S
C1586 C1587 1.366 . S
C1587 C1586 1.366 . S
C1587 C1588 1.414 1_655 S
C1587 C1590 1.499 . S
C1588 H1568 0.950 . S
C1588 C1587 1.414 1_455 S
C1588 C1589 1.374 . S
C1589 H1569 0.950 . S
C1589 C1585 1.385 1_455 S
C1589 C1588 1.374 . S
C1590 C1587 1.499 . S
C1590 C1591 1.347 1_655 S
C1590 C1592 1.389 . S
C1591 H1570 1.012 . S
C1591 C1590 1.347 1_455 S
C1591 C1607 1.344 1_455 S
C1592 C1590 1.389 . S
C1592 C1593 1.524 . S
C1592 C1606 1.377 . S
C1593 C1592 1.524 . S
C1593 C1594 1.397 . S
C1593 C1598 1.363 . S
C1594 H1571 0.904 1_655 S
C1594 C1593 1.397 . S
C1594 C1595 1.334 . S
C1595 H1572 0.950 . S
C1595 C1594 1.334 . S
C1595 C1596 1.287 . S
C1596 C1595 1.287 . S
C1596 C1597 1.524 . S
C1596 H1615 0.913 . S
C1597 H1573 0.950 . S
C1597 C1596 1.524 . S
C1597 C1598 1.415 . S
C1598 H1574 0.950 . S
C1598 C1593 1.363 . S
C1598 C1597 1.415 . S
C1599 H1575 0.951 . S
C1599 C1600 1.366 1_455 S
C1599 C1601 1.388 . S
C1600 C1599 1.366 1_655 S
C1600 C1604 1.385 . S
C1601 H1576 0.951 . S
C1601 C1599 1.388 . S
C1601 C1602 1.366 1_455 S
C1602 C1601 1.366 1_655 S
C1602 C1603 1.414 . S
C1602 C1605 1.499 . S
C1603 H1577 0.950 . S
C1603 C1602 1.414 . S
C1603 C1604 1.374 . S
C1604 H1578 0.950 . S
C1604 C1600 1.385 . S
C1604 C1603 1.374 . S
C1605 C1602 1.499 . S
C1605 C1606 1.373 . S
C1605 C1607 1.389 . S
C1606 H1579 0.950 . S
C1606 C1592 1.377 . S
C1606 C1605 1.373 . S
C1607 C1591 1.344 1_655 S
C1607 C1605 1.389 . S
C1607 C1608 1.524 1_655 S
C1608 C1607 1.524 1_455 S
C1608 C1609 1.397 1_455 S
C1608 C1613 1.363 . S
C1609 H1580 0.950 . S
C1609 C1608 1.397 1_655 S
C1609 C1610 1.364 . S
C1610 H1581 0.999 . S
C1610 C1609 1.364 . S
C1610 C1611 1.211 1_655 S
C1611 C1610 1.211 1_455 S
C1611 C1612 1.524 . S
C1611 H1614 0.999 . S
C1612 H1582 0.950 . S
C1612 C1611 1.524 . S
C1612 C1613 1.415 . S
C1613 H1583 0.950 . S
C1613 C1608 1.363 . S
C1613 C1612 1.415 . S
H1614 C1611 0.999 . S
H1615 C1596 0.913 . S
H1616 C1634 0.951 . S
H1617 C1636 0.951 . S
H1618 C1638 0.950 . S
H1619 C1639 0.950 . S
H1620 C1641 0.950 . S
H1621 C1644 0.950 . S
H1622 C1645 0.950 . S
H1623 C1647 0.950 . S
H1624 C1648 0.950 . S
H1625 C1649 0.951 . S
H1626 C1651 0.951 . S
H1627 C1653 0.950 . S
H1628 C1654 0.950 . S
H1629 C1656 0.950 . S
H1630 C1659 0.950 . S
H1631 C1660 0.950 . S
H1632 C1662 0.950 . S
H1633 C1663 0.950 . S
C1634 H1616 0.951 . S
C1634 C1635 1.366 . S
C1634 C1636 1.388 . S
C1635 C1634 1.366 . S
C1635 C1639 1.385 . S
C1636 H1617 0.951 . S
C1636 C1634 1.388 . S
C1636 C1637 1.366 . S
C1637 C1636 1.366 . S
C1637 C1638 1.414 . S
C1637 C1640 1.499 . S
C1638 H1618 0.950 . S
C1638 C1637 1.414 . S
C1638 C1639 1.374 . S
C1639 H1619 0.950 . S
C1639 C1635 1.385 . S
C1639 C1638 1.374 . S
C1640 C1637 1.499 . S
C1640 C1641 1.373 . S
C1640 C1642 1.389 . S
C1641 H1620 0.950 . S
C1641 C1640 1.373 . S
C1641 C1657 1.377 . S
C1642 C1640 1.389 . S
C1642 C1643 1.524 . S
C1642 C1656 1.377 . S
C1643 C1642 1.524 . S
C1643 C1644 1.397 . S
C1643 C1648 1.363 . S
C1644 H1621 0.950 . S
C1644 C1643 1.397 . S
C1644 C1645 1.334 . S
C1645 H1622 0.950 . S
C1645 C1644 1.334 . S
C1645 C1646 1.287 . S
C1646 C1645 1.287 . S
C1646 C1647 1.524 . S
C1646 H1665 0.913 . S
C1647 H1623 0.950 . S
C1647 C1646 1.524 . S
C1647 C1648 1.415 . S
C1648 H1624 0.950 . S
C1648 C1643 1.363 . S
C1648 C1647 1.415 . S
C1649 H1625 0.951 . S
C1649 C1650 1.366 . S
C1649 C1651 1.388 . S
C1650 C1649 1.366 . S
C1650 C1654 1.385 . S
C1651 H1626 0.951 . S
C1651 C1649 1.388 . S
C1651 C1652 1.366 . S
C1652 C1651 1.366 . S
C1652 C1653 1.414 . S
C1652 C1655 1.499 . S
C1653 H1627 0.950 . S
C1653 C1652 1.414 . S
C1653 C1654 1.374 . S
C1654 H1628 0.950 . S
C1654 C1650 1.385 . S
C1654 C1653 1.374 . S
C1655 C1652 1.499 . S
C1655 C1656 1.373 . S
C1655 C1657 1.389 . S
C1656 H1629 0.950 . S
C1656 C1642 1.377 . S
C1656 C1655 1.373 . S
C1657 C1641 1.377 . S
C1657 C1655 1.389 . S
C1657 C1658 1.524 . S
C1658 C1657 1.524 . S
C1658 C1659 1.397 . S
C1658 C1663 1.363 . S
C1659 H1630 0.950 . S
C1659 C1658 1.397 . S
C1659 C1660 1.334 . S
C1660 H1631 0.950 . S
C1660 C1659 1.334 . S
C1660 C1661 1.287 . S
C1661 C1660 1.287 . S
C1661 C1662 1.524 . S
C1661 H1664 0.999 . S
C1662 H1632 0.950 . S
C1662 C1661 1.524 . S
C1662 C1663 1.415 . S
C1663 H1633 0.950 . S
C1663 C1658 1.363 . S
C1663 C1662 1.415 . S
H1664 C1661 0.999 . S
H1665 C1646 0.913 . S
H1666 C1684 0.951 . S
H1667 C1686 0.951 . S
H1668 C1688 0.950 . S
H1669 C1689 0.950 . S
H1670 C1691 0.950 . S
H1671 C1694 0.951 . S
H1672 C1695 0.950 . S
H1673 C1697 0.950 . S
H1674 C1698 0.950 . S
H1675 C1699 0.951 1_565 S
H1676 C1701 0.949 1_565 S
H1677 C1703 0.950 . S
H1678 C1704 0.950 . S
H1679 C1706 0.950 . S
H1680 C1709 0.950 . S
H1681 C1710 0.950 . S
H1682 C1712 0.950 . S
H1683 C1713 0.950 . S
C1684 H1666 0.951 . S
C1684 C1685 1.366 . S
C1684 C1686 1.388 . S
C1685 C1684 1.366 . S
C1685 C1689 1.385 . S
C1686 H1667 0.951 . S
C1686 C1684 1.388 . S
C1686 C1687 1.366 . S
C1687 C1686 1.366 . S
C1687 C1688 1.414 . S
C1687 C1690 1.499 . S
C1688 H1668 0.950 . S
C1688 C1687 1.414 . S
C1688 C1689 1.374 . S
C1689 H1669 0.950 . S
C1689 C1685 1.385 . S
C1689 C1688 1.374 . S
C1690 C1687 1.499 . S
C1690 C1691 1.373 . S
C1690 C1692 1.389 . S
C1691 H1670 0.950 . S
C1691 C1690 1.373 . S
C1691 C1707 1.377 . S
C1692 C1690 1.389 . S
C1692 C1693 1.524 . S
C1692 C1706 1.377 . S
C1693 C1692 1.524 . S
C1693 C1694 1.390 1_545 S
C1693 C1698 1.363 . S
C1694 H1671 0.951 . S
C1694 C1693 1.390 1_565 S
C1694 C1695 1.339 . S
C1695 H1672 0.950 . S
C1695 C1694 1.339 . S
C1695 C1696 1.287 1_565 S
C1696 C1695 1.287 1_545 S
C1696 C1697 1.524 . S
C1696 H1715 0.913 . S
C1697 H1673 0.950 . S
C1697 C1696 1.524 . S
C1697 C1698 1.415 . S
C1698 H1674 0.950 . S
C1698 C1693 1.363 . S
C1698 C1697 1.415 . S
C1699 H1675 0.951 1_545 S
C1699 C1700 1.366 . S
C1699 C1701 1.388 . S
C1700 C1699 1.366 . S
C1700 C1704 1.385 . S
C1701 H1676 0.949 1_545 S
C1701 C1699 1.388 . S
C1701 C1702 1.366 . S
C1702 C1701 1.366 . S
C1702 C1703 1.414 . S
C1702 C1705 1.499 . S
C1703 H1677 0.950 . S
C1703 C1702 1.414 . S
C1703 C1704 1.374 . S
C1704 H1678 0.950 . S
C1704 C1700 1.385 . S
C1704 C1703 1.374 . S
C1705 C1702 1.499 . S
C1705 C1706 1.373 . S
C1705 C1707 1.389 . S
C1706 H1679 0.950 . S
C1706 C1692 1.377 . S
C1706 C1705 1.373 . S
C1707 C1691 1.377 . S
C1707 C1705 1.389 . S
C1707 C1708 1.524 . S
C1708 C1707 1.524 . S
C1708 C1709 1.397 . S
C1708 C1713 1.363 . S
C1709 H1680 0.950 . S
C1709 C1708 1.397 . S
C1709 C1710 1.334 . S
C1710 H1681 0.950 . S
C1710 C1709 1.334 . S
C1710 C1711 1.287 . S
C1711 C1710 1.287 . S
C1711 C1712 1.524 . S
C1711 H1714 0.999 . S
C1712 H1682 0.950 . S
C1712 C1711 1.524 . S
C1712 C1713 1.415 . S
C1713 H1683 0.950 . S
C1713 C1708 1.363 . S
C1713 C1712 1.415 . S
H1714 C1711 0.999 . S
H1715 C1696 0.913 . S
H1716 C1734 0.951 . S
H1717 C1736 0.986 . S
H1718 C1738 0.950 . S
H1719 C1739 0.950 . S
H1720 C1741 0.950 1_545 S
H1721 C1744 0.950 . S
H1722 C1745 0.950 . S
H1723 C1747 0.950 . S
H1724 C1748 0.950 . S
H1725 C1749 0.951 . S
H1726 C1751 0.951 . S
H1727 C1753 0.950 1_545 S
H1728 C1754 0.950 1_545 S
H1729 C1756 0.950 . S
H1730 C1759 0.950 . S
H1731 C1760 0.950 . S
H1732 C1762 0.950 . S
H1733 C1763 0.950 1_565 S
C1734 H1716 0.951 . S
C1734 C1735 1.366 1_545 S
C1734 C1736 1.409 . S
C1735 C1734 1.366 1_565 S
C1735 C1739 1.385 . S
C1736 H1717 0.986 . S
C1736 C1734 1.409 . S
C1736 C1737 1.312 1_545 S
C1737 C1736 1.312 1_565 S
C1737 C1738 1.414 . S
C1737 C1740 1.499 . S
C1738 H1718 0.950 . S
C1738 C1737 1.414 . S
C1738 C1739 1.374 . S
C1739 H1719 0.950 . S
C1739 C1735 1.385 . S
C1739 C1738 1.374 . S
C1740 C1737 1.499 . S
C1740 C1741 1.361 . S
C1740 C1742 1.389 . S
C1741 H1720 0.950 1_565 S
C1741 C1740 1.361 . S
C1741 C1757 1.389 . S
C1742 C1740 1.389 . S
C1742 C1743 1.524 . S
C1742 C1756 1.377 . S
C1743 C1742 1.524 . S
C1743 C1744 1.397 . S
C1743 C1748 1.363 . S
C1744 H1721 0.950 . S
C1744 C1743 1.397 . S
C1744 C1745 1.334 . S
C1745 H1722 0.950 . S
C1745 C1744 1.334 . S
C1745 C1746 1.287 . S
C1746 C1745 1.287 . S
C1746 C1747 1.524 . S
C1746 H1765 0.913 . S
C1747 H1723 0.950 . S
C1747 C1746 1.524 . S
C1747 C1748 1.415 . S
C1748 H1724 0.950 . S
C1748 C1743 1.363 . S
C1748 C1747 1.415 . S
C1749 H1725 0.951 . S
C1749 C1750 1.366 . S
C1749 C1751 1.388 . S
C1750 C1749 1.366 . S
C1750 C1754 1.385 . S
C1751 H1726 0.951 . S
C1751 C1749 1.388 . S
C1751 C1752 1.366 . S
C1752 C1751 1.366 . S
C1752 C1753 1.414 . S
C1752 C1755 1.499 . S
C1753 H1727 0.950 1_565 S
C1753 C1752 1.414 . S
C1753 C1754 1.374 . S
C1754 H1728 0.950 1_565 S
C1754 C1750 1.385 . S
C1754 C1753 1.374 . S
C1755 C1752 1.499 . S
C1755 C1756 1.373 . S
C1755 C1757 1.391 . S
C1756 H1729 0.950 . S
C1756 C1742 1.377 . S
C1756 C1755 1.373 . S
C1757 C1741 1.389 . S
C1757 C1755 1.391 . S
C1757 C1758 1.527 1_565 S
C1758 C1757 1.527 1_545 S
C1758 C1759 1.397 . S
C1758 C1763 1.363 . S
C1759 H1730 0.950 . S
C1759 C1758 1.397 . S
C1759 C1760 1.334 . S
C1760 H1731 0.950 . S
C1760 C1759 1.334 . S
C1760 C1761 1.287 . S
C1761 C1760 1.287 . S
C1761 C1762 1.524 . S
C1761 H1764 0.999 . S
C1762 H1732 0.950 . S
C1762 C1761 1.524 . S
C1762 C1763 1.415 . S
C1763 H1733 0.950 1_545 S
C1763 C1758 1.363 . S
C1763 C1762 1.415 . S
H1764 C1761 0.999 . S
H1765 C1746 0.913 . S
H1766 C1784 0.960 . S
H1767 C1786 0.951 . S
H1768 C1788 0.950 . S
H1769 C1789 0.950 . S
H1770 C1791 0.950 . S
H1771 C1794 0.950 . S
H1772 C1795 0.950 . S
H1773 C1797 0.950 . S
H1774 C1798 0.950 . S
H1775 C1799 0.951 . S
H1776 C1801 0.951 . S
H1777 C1803 0.950 . S
H1778 C1804 0.950 . S
H1779 C1806 0.950 1_655 S
H1780 C1809 0.950 . S
H1781 C1810 0.950 . S
H1782 C1812 0.950 . S
H1783 C1813 0.950 . S
C1784 H1766 0.960 . S
C1784 C1785 1.366 . S
C1784 C1786 1.388 . S
C1785 C1784 1.366 . S
C1785 C1789 1.385 . S
C1786 H1767 0.951 . S
C1786 C1784 1.388 . S
C1786 C1787 1.366 . S
C1787 C1786 1.366 . S
C1787 C1788 1.414 . S
C1787 C1790 1.499 . S
C1788 H1768 0.950 . S
C1788 C1787 1.414 . S
C1788 C1789 1.374 . S
C1789 H1769 0.950 . S
C1789 C1785 1.385 . S
C1789 C1788 1.374 . S
C1790 C1787 1.499 . S
C1790 C1791 1.373 . S
C1790 C1792 1.475 . S
C1791 H1770 0.950 . S
C1791 C1790 1.373 . S
C1791 C1807 1.377 . S
C1792 C1790 1.475 . S
C1792 C1793 1.464 1_455 S
C1792 C1806 1.350 . S
C1793 C1792 1.464 1_655 S
C1793 C1794 1.397 . S
C1793 C1798 1.363 . S
C1794 H1771 0.950 . S
C1794 C1793 1.397 . S
C1794 C1795 1.334 . S
C1795 H1772 0.950 . S
C1795 C1794 1.334 . S
C1795 C1796 1.287 . S
C1796 C1795 1.287 . S
C1796 C1797 1.524 . S
C1796 H1815 0.913 . S
C1797 H1773 0.950 . S
C1797 C1796 1.524 . S
C1797 C1798 1.415 . S
C1798 H1774 0.950 . S
C1798 C1793 1.363 . S
C1798 C1797 1.415 . S
C1799 H1775 0.951 . S
C1799 C1800 1.366 . S
C1799 C1801 1.388 . S
C1800 C1799 1.366 . S
C1800 C1804 1.385 . S
C1801 H1776 0.951 . S
C1801 C1799 1.388 . S
C1801 C1802 1.366 . S
C1802 C1801 1.366 . S
C1802 C1803 1.414 . S
C1802 C1805 1.499 . S
C1803 H1777 0.950 . S
C1803 C1802 1.414 . S
C1803 C1804 1.374 . S
C1804 H1778 0.950 . S
C1804 C1800 1.385 . S
C1804 C1803 1.374 . S
C1805 C1802 1.499 . S
C1805 C1806 1.373 . S
C1805 C1807 1.389 . S
C1806 H1779 0.950 1_455 S
C1806 C1792 1.350 . S
C1806 C1805 1.373 . S
C1807 C1791 1.377 . S
C1807 C1805 1.389 . S
C1807 C1808 1.524 . S
C1808 C1807 1.524 . S
C1808 C1809 1.397 . S
C1808 C1813 1.363 . S
C1809 H1780 0.950 . S
C1809 C1808 1.397 . S
C1809 C1810 1.334 . S
C1810 H1781 0.950 . S
C1810 C1809 1.334 . S
C1810 C1811 1.287 . S
C1811 C1810 1.287 . S
C1811 C1812 1.524 . S
C1811 H1814 0.999 . S
C1812 H1782 0.950 . S
C1812 C1811 1.524 . S
C1812 C1813 1.415 . S
C1813 H1783 0.950 . S
C1813 C1808 1.363 . S
C1813 C1812 1.415 . S
H1814 C1811 0.999 . S
H1815 C1796 0.913 . S
H1816 C1834 0.951 . S
H1817 C1836 0.951 . S
H1818 C1838 0.950 . S
H1819 C1839 0.950 . S
H1820 C1841 0.950 . S
H1821 C1844 0.950 . S
H1822 C1845 0.950 . S
H1823 C1847 0.950 . S
H1824 C1848 0.950 . S
H1825 C1849 0.951 . S
H1826 C1851 0.951 . S
H1827 C1853 0.950 . S
H1828 C1854 0.950 . S
H1829 C1856 0.950 . S
H1830 C1859 0.950 . S
H1831 C1860 0.950 . S
H1832 C1862 0.950 . S
H1833 C1863 0.950 . S
C1834 H1816 0.951 . S
C1834 C1835 1.366 . S
C1834 C1836 1.388 1_554 S
C1835 C1834 1.366 . S
C1835 C1839 1.385 . S
C1836 H1817 0.951 . S
C1836 C1834 1.388 1_556 S
C1836 C1837 1.366 . S
C1837 C1836 1.366 . S
C1837 C1838 1.414 1_556 S
C1837 C1840 1.499 . S
C1838 H1818 0.950 . S
C1838 C1837 1.414 1_554 S
C1838 C1839 1.374 . S
C1839 H1819 0.950 . S
C1839 C1835 1.385 . S
C1839 C1838 1.374 . S
C1840 C1837 1.499 . S
C1840 C1841 1.373 . S
C1840 C1842 1.389 . S
C1841 H1820 0.950 . S
C1841 C1840 1.373 . S
C1841 C1857 1.377 . S
C1842 C1840 1.389 . S
C1842 C1843 1.524 . S
C1842 C1856 1.377 . S
C1843 C1842 1.524 . S
C1843 C1844 1.397 . S
C1843 C1848 1.363 . S
C1844 H1821 0.950 . S
C1844 C1843 1.397 . S
C1844 C1845 1.334 . S
C1845 H1822 0.950 . S
C1845 C1844 1.334 . S
C1845 C1846 1.287 . S
C1846 C1845 1.287 . S
C1846 C1847 1.524 . S
C1846 H1865 0.913 . S
C1847 H1823 0.950 . S
C1847 C1846 1.524 . S
C1847 C1848 1.415 . S
C1848 H1824 0.950 . S
C1848 C1843 1.363 . S
C1848 C1847 1.415 . S
C1849 H1825 0.951 . S
C1849 C1850 1.366 . S
C1849 C1851 1.388 . S
C1850 C1849 1.366 . S
C1850 C1854 1.385 . S
C1851 H1826 0.951 . S
C1851 C1849 1.388 . S
C1851 C1852 1.366 . S
C1852 C1851 1.366 . S
C1852 C1853 1.414 . S
C1852 C1855 1.499 . S
C1853 H1827 0.950 . S
C1853 C1852 1.414 . S
C1853 C1854 1.374 . S
C1854 H1828 0.950 . S
C1854 C1850 1.385 . S
C1854 C1853 1.374 . S
C1855 C1852 1.499 . S
C1855 C1856 1.373 . S
C1855 C1857 1.389 . S
C1856 H1829 0.950 . S
C1856 C1842 1.377 . S
C1856 C1855 1.373 . S
C1857 C1841 1.377 . S
C1857 C1855 1.389 . S
C1857 C1858 1.524 . S
C1858 C1857 1.524 . S
C1858 C1859 1.397 . S
C1858 C1863 1.363 . S
C1859 H1830 0.950 . S
C1859 C1858 1.397 . S
C1859 C1860 1.334 . S
C1860 H1831 0.950 . S
C1860 C1859 1.334 . S
C1860 C1861 1.287 . S
C1861 C1860 1.287 . S
C1861 C1862 1.524 . S
C1861 H1864 0.999 . S
C1862 H1832 0.950 . S
C1862 C1861 1.524 . S
C1862 C1863 1.415 . S
C1863 H1833 0.950 . S
C1863 C1858 1.363 . S
C1863 C1862 1.415 . S
H1864 C1861 0.999 . S
H1865 C1846 0.913 . S
H1866 C1884 0.951 . S
H1867 C1886 0.951 . S
H1868 C1888 0.950 . S
H1869 C1889 0.950 . S
H1870 C1891 0.950 . S
H1871 C1894 0.950 . S
H1872 C1895 0.950 . S
H1873 C1897 0.950 . S
H1874 C1898 0.950 . S
H1875 C1899 0.951 . S
H1876 C1901 0.951 . S
H1877 C1903 0.950 . S
H1878 C1904 0.950 . S
H1879 C1906 0.950 . S
H1880 C1909 0.950 . S
H1881 C1910 0.950 . S
H1882 C1912 0.950 . S
H1883 C1913 0.950 . S
C1884 H1866 0.951 . S
C1884 C1885 1.366 1_556 S
C1884 C1886 1.388 . S
C1885 C1884 1.366 1_554 S
C1885 C1889 1.385 1_455 S
C1886 H1867 0.951 . S
C1886 C1884 1.388 . S
C1886 C1887 1.366 . S
C1887 C1886 1.366 . S
C1887 C1888 1.414 1_455 S
C1887 C1890 1.499 . S
C1888 H1868 0.950 . S
C1888 C1887 1.414 1_655 S
C1888 C1889 1.374 1_556 S
C1889 H1869 0.950 . S
C1889 C1885 1.385 1_655 S
C1889 C1888 1.374 1_554 S
C1890 C1887 1.499 . S
C1890 C1891 1.373 . S
C1890 C1892 1.389 . S
C1891 H1870 0.950 . S
C1891 C1890 1.373 . S
C1891 C1907 1.377 . S
C1892 C1890 1.389 . S
C1892 C1893 1.524 . S
C1892 C1906 1.377 . S
C1893 C1892 1.524 . S
C1893 C1894 1.397 1_455 S
C1893 C1898 1.363 . S
C1894 H1871 0.950 . S
C1894 C1893 1.397 1_655 S
C1894 C1895 1.334 . S
C1895 H1872 0.950 . S
C1895 C1894 1.334 . S
C1895 C1896 1.316 . S
C1896 C1895 1.316 . S
C1896 C1897 1.457 1_655 S
C1896 H1915 0.956 . S
C1897 H1873 0.950 . S
C1897 C1896 1.457 1_455 S
C1897 C1898 1.415 . S
C1898 H1874 0.950 . S
C1898 C1893 1.363 . S
C1898 C1897 1.415 . S
C1899 H1875 0.951 . S
C1899 C1900 1.324 1_655 S
C1899 C1901 1.388 . S
C1900 C1899 1.324 1_455 S
C1900 C1904 1.404 . S
C1901 H1876 0.951 . S
C1901 C1899 1.388 . S
C1901 C1902 1.366 1_655 S
C1902 C1901 1.366 1_455 S
C1902 C1903 1.414 . S
C1902 C1905 1.499 . S
C1903 H1877 0.950 . S
C1903 C1902 1.414 . S
C1903 C1904 1.374 . S
C1904 H1878 0.950 . S
C1904 C1900 1.404 . S
C1904 C1903 1.374 . S
C1905 C1902 1.499 . S
C1905 C1906 1.373 . S
C1905 C1907 1.389 . S
C1906 H1879 0.950 . S
C1906 C1892 1.377 . S
C1906 C1905 1.373 . S
C1907 C1891 1.377 . S
C1907 C1905 1.389 . S
C1907 C1908 1.524 . S
C1908 C1907 1.524 . S
C1908 C1909 1.397 . S
C1908 C1913 1.363 1_455 S
C1909 H1880 0.950 . S
C1909 C1908 1.397 . S
C1909 C1910 1.334 . S
C1910 H1881 0.950 . S
C1910 C1909 1.334 . S
C1910 C1911 1.287 . S
C1911 C1910 1.287 . S
C1911 C1912 1.524 1_455 S
C1911 H1914 0.999 . S
C1912 H1882 0.950 . S
C1912 C1911 1.524 1_655 S
C1912 C1913 1.415 . S
C1913 H1883 0.950 . S
C1913 C1908 1.363 1_655 S
C1913 C1912 1.415 . S
H1914 C1911 0.999 . S
H1915 C1896 0.956 . S
H1916 C1934 0.951 . S
H1917 C1936 0.951 . S
H1918 C1938 0.950 . S
H1919 C1939 0.950 . S
H1920 C1941 0.950 . S
H1921 C1944 0.950 . S
H1922 C1945 0.950 . S
H1923 C1947 0.950 . S
H1924 C1948 0.950 . S
H1925 C1949 0.951 . S
H1926 C1951 0.951 . S
H1927 C1953 0.950 . S
H1928 C1954 0.950 . S
H1929 C1956 0.950 . S
H1930 C1959 0.950 . S
H1931 C1960 0.950 . S
H1932 C1962 0.950 . S
H1933 C1963 0.950 . S
C1934 H1916 0.951 . S
C1934 C1935 1.366 . S
C1934 C1936 1.388 . S
C1935 C1934 1.366 . S
C1935 C1939 1.385 . S
C1936 H1917 0.951 . S
C1936 C1934 1.388 . S
C1936 C1937 1.366 . S
C1937 C1936 1.366 . S
C1937 C1938 1.414 . S
C1937 C1940 1.499 . S
C1938 H1918 0.950 . S
C1938 C1937 1.414 . S
C1938 C1939 1.374 . S
C1939 H1919 0.950 . S
C1939 C1935 1.385 . S
C1939 C1938 1.374 . S
C1940 C1937 1.499 . S
C1940 C1941 1.373 . S
C1940 C1942 1.389 . S
C1941 H1920 0.950 . S
C1941 C1940 1.373 . S
C1941 C1957 1.377 . S
C1942 C1940 1.389 . S
C1942 C1943 1.524 . S
C1942 C1956 1.377 . S
C1943 C1942 1.524 . S
C1943 C1944 1.397 . S
C1943 C1948 1.363 . S
C1944 H1921 0.950 . S
C1944 C1943 1.397 . S
C1944 C1945 1.334 . S
C1945 H1922 0.950 . S
C1945 C1944 1.334 . S
C1945 C1946 1.287 . S
C1946 C1945 1.287 . S
C1946 C1947 1.524 . S
C1946 H1965 0.913 . S
C1947 H1923 0.950 . S
C1947 C1946 1.524 . S
C1947 C1948 1.415 . S
C1948 H1924 0.950 . S
C1948 C1943 1.363 . S
C1948 C1947 1.415 . S
C1949 H1925 0.951 . S
C1949 C1950 1.366 . S
C1949 C1951 1.388 . S
C1950 C1949 1.366 . S
C1950 C1954 1.385 . S
C1951 H1926 0.951 . S
C1951 C1949 1.388 . S
C1951 C1952 1.366 . S
C1952 C1951 1.366 . S
C1952 C1953 1.414 . S
C1952 C1955 1.499 . S
C1953 H1927 0.950 . S
C1953 C1952 1.414 . S
C1953 C1954 1.374 . S
C1954 H1928 0.950 . S
C1954 C1950 1.385 . S
C1954 C1953 1.374 . S
C1955 C1952 1.499 . S
C1955 C1956 1.373 . S
C1955 C1957 1.389 . S
C1956 H1929 0.950 . S
C1956 C1942 1.377 . S
C1956 C1955 1.373 . S
C1957 C1941 1.377 . S
C1957 C1955 1.389 . S
C1957 C1958 1.524 . S
C1958 C1957 1.524 . S
C1958 C1959 1.397 . S
C1958 C1963 1.363 . S
C1959 H1930 0.950 . S
C1959 C1958 1.397 . S
C1959 C1960 1.334 . S
C1960 H1931 0.950 . S
C1960 C1959 1.334 . S
C1960 C1961 1.287 . S
C1961 C1960 1.287 . S
C1961 C1962 1.524 . S
C1961 H1964 0.999 . S
C1962 H1932 0.950 . S
C1962 C1961 1.524 . S
C1962 C1963 1.415 . S
C1963 H1933 0.950 . S
C1963 C1958 1.363 . S
C1963 C1962 1.415 . S
H1964 C1961 0.999 . S
H1965 C1946 0.913 . S
H1966 C1984 0.951 . S
H1967 C1986 0.951 . S
H1968 C1988 0.950 . S
H1969 C1989 0.950 . S
H1970 C1991 0.950 . S
H1971 C1994 0.950 . S
H1972 C1995 0.950 . S
H1973 C1997 0.950 . S
H1974 C1998 0.950 . S
H1975 C1999 0.979 . S
H1976 C2001 0.961 . S
H1977 C2003 0.950 . S
H1978 C2004 0.950 . S
H1979 C2006 0.950 . S
H1980 C2009 0.950 . S
H1981 C2010 0.950 . S
H1982 C2012 0.950 . S
H1983 C2013 0.950 . S
C1984 H1966 0.951 . S
C1984 C1985 1.366 1_556 S
C1984 C1986 1.388 . S
C1985 C1984 1.366 1_554 S
C1985 C1989 1.385 . S
C1986 H1967 0.951 . S
C1986 C1984 1.388 . S
C1986 C1987 1.366 . S
C1987 C1986 1.366 . S
C1987 C1988 1.414 . S
C1987 C1990 1.499 . S
C1988 H1968 0.950 . S
C1988 C1987 1.414 . S
C1988 C1989 1.374 1_556 S
C1989 H1969 0.950 . S
C1989 C1985 1.385 . S
C1989 C1988 1.374 1_554 S
C1990 C1987 1.499 . S
C1990 C1991 1.373 . S
C1990 C1992 1.389 1_565 S
C1991 H1970 0.950 . S
C1991 C1990 1.373 . S
C1991 C2007 1.377 . S
C1992 C1990 1.389 1_545 S
C1992 C1993 1.524 . S
C1992 C2006 1.377 . S
C1993 C1992 1.524 . S
C1993 C1994 1.397 . S
C1993 C1998 1.363 . S
C1994 H1971 0.950 . S
C1994 C1993 1.397 . S
C1994 C1995 1.334 . S
C1995 H1972 0.950 . S
C1995 C1994 1.334 . S
C1995 C1996 1.287 . S
C1996 C1995 1.287 . S
C1996 C1997 1.524 . S
C1996 H2015 0.913 . S
C1997 H1973 0.950 . S
C1997 C1996 1.524 . S
C1997 C1998 1.415 . S
C1998 H1974 0.950 . S
C1998 C1993 1.363 . S
C1998 C1997 1.415 . S
C1999 H1975 0.979 . S
C1999 C2000 1.361 . S
C1999 C2001 1.367 1_545 S
C2000 C1999 1.361 . S
C2000 C2004 1.387 1_545 S
C2001 H1976 0.961 . S
C2001 C1999 1.367 1_565 S
C2001 C2002 1.366 . S
C2002 C2001 1.366 . S
C2002 C2003 1.414 . S
C2002 C2005 1.499 . S
C2003 H1977 0.950 . S
C2003 C2002 1.414 . S
C2003 C2004 1.374 . S
C2004 H1978 0.950 . S
C2004 C2000 1.387 1_565 S
C2004 C2003 1.374 . S
C2005 C2002 1.499 . S
C2005 C2006 1.373 1_565 S
C2005 C2007 1.389 . S
C2006 H1979 0.950 . S
C2006 C1992 1.377 . S
C2006 C2005 1.373 1_545 S
C2007 C1991 1.377 . S
C2007 C2005 1.389 . S
C2007 C2008 1.524 . S
C2008 C2007 1.524 . S
C2008 C2009 1.397 . S
C2008 C2013 1.363 . S
C2009 H1980 0.950 . S
C2009 C2008 1.397 . S
C2009 C2010 1.334 . S
C2010 H1981 0.950 . S
C2010 C2009 1.334 . S
C2010 C2011 1.287 . S
C2011 C2010 1.287 . S
C2011 C2012 1.524 . S
C2011 H2014 0.999 . S
C2012 H1982 0.950 . S
C2012 C2011 1.524 . S
C2012 C2013 1.415 . S
C2013 H1983 0.950 . S
C2013 C2008 1.363 . S
C2013 C2012 1.415 . S
H2014 C2011 0.999 . S
H2015 C1996 0.913 . S
H2016 C2034 0.951 1_565 S
H2017 C2036 0.950 . S
H2018 C2038 0.950 . S
H2019 C2039 0.950 . S
H2020 C2041 0.950 . S
H2021 C2044 0.950 . S
H2022 C2045 0.950 . S
H2023 C2047 0.950 . S
H2024 C2048 0.950 1_565 S
H2025 C2049 0.951 . S
H2026 C2051 0.951 . S
H2027 C2053 0.950 . S
H2028 C2054 0.950 . S
H2029 C2056 0.950 . S
H2030 C2059 0.950 . S
H2031 C2060 0.950 . S
H2032 C2062 0.950 . S
H2033 C2063 0.950 . S
C2034 H2016 0.951 1_545 S
C2034 C2035 1.366 . S
C2034 C2036 1.387 1_545 S
C2035 C2034 1.366 . S
C2035 C2039 1.385 . S
C2036 H2017 0.950 . S
C2036 C2034 1.387 1_565 S
C2036 C2037 1.367 1_565 S
C2037 C2036 1.367 1_545 S
C2037 C2038 1.414 . S
C2037 C2040 1.499 . S
C2038 H2018 0.950 . S
C2038 C2037 1.414 . S
C2038 C2039 1.374 . S
C2039 H2019 0.950 . S
C2039 C2035 1.385 . S
C2039 C2038 1.374 . S
C2040 C2037 1.499 . S
C2040 C2041 1.373 . S
C2040 C2042 1.389 . S
C2041 H2020 0.950 . S
C2041 C2040 1.373 . S
C2041 C2057 1.377 . S
C2042 C2040 1.389 . S
C2042 C2043 1.524 . S
C2042 C2056 1.377 . S
C2043 C2042 1.524 . S
C2043 C2044 1.397 . S
C2043 C2048 1.363 . S
C2044 H2021 0.950 . S
C2044 C2043 1.397 . S
C2044 C2045 1.334 . S
C2045 H2022 0.950 . S
C2045 C2044 1.334 . S
C2045 C2046 1.287 . S
C2046 C2045 1.287 . S
C2046 C2047 1.524 . S
C2046 H2065 0.913 . S
C2047 H2023 0.950 . S
C2047 C2046 1.524 . S
C2047 C2048 1.415 . S
C2048 H2024 0.950 1_545 S
C2048 C2043 1.363 . S
C2048 C2047 1.415 . S
C2049 H2025 0.951 . S
C2049 C2050 1.364 1_545 S
C2049 C2051 1.388 . S
C2050 C2049 1.364 1_565 S
C2050 C2054 1.389 . S
C2051 H2026 0.951 . S
C2051 C2049 1.388 . S
C2051 C2052 1.366 . S
C2052 C2051 1.366 . S
C2052 C2053 1.414 1_545 S
C2052 C2055 1.499 . S
C2053 H2027 0.950 . S
C2053 C2052 1.414 1_565 S
C2053 C2054 1.374 . S
C2054 H2028 0.950 . S
C2054 C2050 1.389 . S
C2054 C2053 1.374 . S
C2055 C2052 1.499 . S
C2055 C2056 1.373 . S
C2055 C2057 1.389 . S
C2056 H2029 0.950 . S
C2056 C2042 1.377 . S
C2056 C2055 1.373 . S
C2057 C2041 1.377 . S
C2057 C2055 1.389 . S
C2057 C2058 1.498 1_545 S
C2058 C2057 1.498 1_565 S
C2058 C2059 1.432 . S
C2058 C2063 1.360 1_565 S
C2059 H2030 0.950 . S
C2059 C2058 1.432 . S
C2059 C2060 1.334 . S
C2060 H2031 0.950 . S
C2060 C2059 1.334 . S
C2060 C2061 1.287 . S
C2061 C2060 1.287 . S
C2061 C2062 1.524 1_565 S
C2061 H2064 0.999 . S
C2062 H2032 0.950 . S
C2062 C2061 1.524 1_545 S
C2062 C2063 1.415 . S
C2063 H2033 0.950 . S
C2063 C2058 1.360 1_545 S
C2063 C2062 1.415 . S
H2064 C2061 0.999 . S
H2065 C2046 0.913 . S
H2066 C2084 0.951 . S
H2067 C2086 0.951 . S
H2068 C2088 0.942 . S
H2069 C2089 0.950 1_455 S
H2070 C2091 0.950 . S
H2071 C2094 0.950 . S
H2072 C2095 0.950 . S
H2073 C2097 0.950 . S
H2074 C2098 0.950 1_655 S
H2075 C2099 0.951 . S
H2076 C2101 0.951 . S
H2077 C2103 0.950 . S
H2078 C2104 0.950 . S
H2079 C2106 0.958 . S
H2080 C2109 0.950 . S
H2081 C2110 0.950 . S
H2082 C2112 0.950 . S
H2083 C2113 0.950 . S
C2084 H2066 0.951 . S
C2084 C2085 1.366 . S
C2084 C2086 1.388 . S
C2085 C2084 1.366 . S
C2085 C2089 1.385 . S
C2086 H2067 0.951 . S
C2086 C2084 1.388 . S
C2086 C2087 1.366 . S
C2087 C2086 1.366 . S
C2087 C2088 1.418 1_655 S
C2087 C2090 1.499 . S
C2088 H2068 0.942 . S
C2088 C2087 1.418 1_455 S
C2088 C2089 1.378 1_455 S
C2089 H2069 0.950 1_655 S
C2089 C2085 1.385 . S
C2089 C2088 1.378 1_655 S
C2090 C2087 1.499 . S
C2090 C2091 1.373 . S
C2090 C2092 1.382 1_655 S
C2091 H2070 0.950 . S
C2091 C2090 1.373 . S
C2091 C2107 1.377 . S
C2092 C2090 1.382 1_455 S
C2092 C2093 1.516 . S
C2092 C2106 1.385 . S
C2093 C2092 1.516 . S
C2093 C2094 1.397 . S
C2093 C2098 1.363 . S
C2094 H2071 0.950 . S
C2094 C2093 1.397 . S
C2094 C2095 1.334 . S
C2095 H2072 0.950 . S
C2095 C2094 1.334 . S
C2095 C2096 1.287 . S
C2096 C2095 1.287 . S
C2096 C2097 1.524 . S
C2096 H2115 0.913 . S
C2097 H2073 0.950 . S
C2097 C2096 1.524 . S
C2097 C2098 1.415 . S
C2098 H2074 0.950 1_455 S
C2098 C2093 1.363 . S
C2098 C2097 1.415 . S
C2099 H2075 0.951 . S
C2099 C2100 1.332 1_455 S
C2099 C2101 1.388 . S
C2100 C2099 1.332 1_655 S
C2100 C2104 1.453 . S
C2101 H2076 0.951 . S
C2101 C2099 1.388 . S
C2101 C2102 1.366 1_455 S
C2102 C2101 1.366 1_655 S
C2102 C2103 1.414 . S
C2102 C2105 1.499 . S
C2103 H2077 0.950 . S
C2103 C2102 1.414 . S
C2103 C2104 1.374 . S
C2104 H2078 0.950 . S
C2104 C2100 1.453 . S
C2104 C2103 1.374 . S
C2105 C2102 1.499 . S
C2105 C2106 1.388 1_655 S
C2105 C2107 1.389 . S
C2106 H2079 0.958 . S
C2106 C2092 1.385 . S
C2106 C2105 1.388 1_455 S
C2107 C2091 1.377 . S
C2107 C2105 1.389 . S
C2107 C2108 1.524 . S
C2108 C2107 1.524 . S
C2108 C2109 1.397 . S
C2108 C2113 1.363 . S
C2109 H2080 0.950 . S
C2109 C2108 1.397 . S
C2109 C2110 1.334 . S
C2110 H2081 0.950 . S
C2110 C2109 1.334 . S
C2110 C2111 1.287 . S
C2111 C2110 1.287 . S
C2111 C2112 1.524 . S
C2111 H2114 0.999 . S
C2112 H2082 0.950 . S
C2112 C2111 1.524 . S
C2112 C2113 1.415 . S
C2113 H2083 0.950 . S
C2113 C2108 1.363 . S
C2113 C2112 1.415 . S
H2114 C2111 0.999 . S
H2115 C2096 0.913 . S
H2116 C2134 0.951 . S
H2117 C2136 0.951 . S
H2118 C2138 0.950 . S
H2119 C2139 0.950 . S
H2120 C2141 0.950 . S
H2121 C2144 0.950 . S
H2122 C2145 0.950 . S
H2123 C2147 0.950 . S
H2124 C2148 0.950 . S
H2125 C2149 0.951 . S
H2126 C2151 0.951 . S
H2127 C2153 0.950 . S
H2128 C2154 0.950 . S
H2129 C2156 0.950 . S
H2130 C2159 0.950 . S
H2131 C2160 0.950 . S
H2132 C2162 0.950 . S
H2133 C2163 0.950 . S
C2134 H2116 0.951 . S
C2134 C2135 1.366 . S
C2134 C2136 1.388 . S
C2135 C2134 1.366 . S
C2135 C2139 1.385 . S
C2136 H2117 0.951 . S
C2136 C2134 1.388 . S
C2136 C2137 1.366 . S
C2137 C2136 1.366 . S
C2137 C2138 1.414 . S
C2137 C2140 1.499 . S
C2138 H2118 0.950 . S
C2138 C2137 1.414 . S
C2138 C2139 1.374 . S
C2139 H2119 0.950 . S
C2139 C2135 1.385 . S
C2139 C2138 1.374 . S
C2140 C2137 1.499 . S
C2140 C2141 1.373 . S
C2140 C2142 1.389 . S
C2141 H2120 0.950 . S
C2141 C2140 1.373 . S
C2141 C2157 1.377 . S
C2142 C2140 1.389 . S
C2142 C2143 1.524 . S
C2142 C2156 1.377 . S
C2143 C2142 1.524 . S
C2143 C2144 1.397 . S
C2143 C2148 1.363 . S
C2144 H2121 0.950 . S
C2144 C2143 1.397 . S
C2144 C2145 1.334 . S
C2145 H2122 0.950 . S
C2145 C2144 1.334 . S
C2145 C2146 1.287 . S
C2146 C2145 1.287 . S
C2146 C2147 1.524 . S
C2146 H2165 0.913 . S
C2147 H2123 0.950 . S
C2147 C2146 1.524 . S
C2147 C2148 1.415 . S
C2148 H2124 0.950 . S
C2148 C2143 1.363 . S
C2148 C2147 1.415 . S
C2149 H2125 0.951 . S
C2149 C2150 1.366 . S
C2149 C2151 1.388 . S
C2150 C2149 1.366 . S
C2150 C2154 1.385 . S
C2151 H2126 0.951 . S
C2151 C2149 1.388 . S
C2151 C2152 1.366 . S
C2152 C2151 1.366 . S
C2152 C2153 1.414 . S
C2152 C2155 1.499 . S
C2153 H2127 0.950 . S
C2153 C2152 1.414 . S
C2153 C2154 1.374 . S
C2154 H2128 0.950 . S
C2154 C2150 1.385 . S
C2154 C2153 1.374 . S
C2155 C2152 1.499 . S
C2155 C2156 1.373 . S
C2155 C2157 1.389 . S
C2156 H2129 0.950 . S
C2156 C2142 1.377 . S
C2156 C2155 1.373 . S
C2157 C2141 1.377 . S
C2157 C2155 1.389 . S
C2157 C2158 1.524 . S
C2158 C2157 1.524 . S
C2158 C2159 1.397 . S
C2158 C2163 1.363 . S
C2159 H2130 0.950 . S
C2159 C2158 1.397 . S
C2159 C2160 1.334 . S
C2160 H2131 0.950 . S
C2160 C2159 1.334 . S
C2160 C2161 1.287 . S
C2161 C2160 1.287 . S
C2161 C2162 1.524 . S
C2161 H2164 0.999 . S
C2162 H2132 0.950 . S
C2162 C2161 1.524 . S
C2162 C2163 1.415 . S
C2163 H2133 0.950 . S
C2163 C2158 1.363 . S
C2163 C2162 1.415 . S
H2164 C2161 0.999 . S
H2165 C2146 0.913 . S
H2166 C2184 0.951 . S
H2167 C2186 0.951 . S
H2168 C2188 0.950 . S
H2169 C2189 0.950 . S
H2170 C2191 0.950 . S
H2171 C2194 0.950 . S
H2172 C2195 0.950 . S
H2173 C2197 0.950 . S
H2174 C2198 0.950 . S
H2175 C2199 0.951 . S
H2176 C2201 0.951 . S
H2177 C2203 0.950 . S
H2178 C2204 0.950 . S
H2179 C2206 0.950 . S
H2180 C2209 0.950 . S
H2181 C2210 0.950 . S
H2182 C2212 0.950 . S
H2183 C2213 0.950 . S
C2184 H2166 0.951 . S
C2184 C2185 1.366 . S
C2184 C2186 1.388 . S
C2185 C2184 1.366 . S
C2185 C2189 1.385 . S
C2186 H2167 0.951 . S
C2186 C2184 1.388 . S
C2186 C2187 1.366 . S
C2187 C2186 1.366 . S
C2187 C2188 1.414 . S
C2187 C2190 1.499 . S
C2188 H2168 0.950 . S
C2188 C2187 1.414 . S
C2188 C2189 1.374 . S
C2189 H2169 0.950 . S
C2189 C2185 1.385 . S
C2189 C2188 1.374 . S
C2190 C2187 1.499 . S
C2190 C2191 1.373 . S
C2190 C2192 1.389 . S
C2191 H2170 0.950 . S
C2191 C2190 1.373 . S
C2191 C2207 1.377 . S
C2192 C2190 1.389 . S
C2192 C2193 1.524 . S
C2192 C2206 1.377 . S
C2193 C2192 1.524 . S
C2193 C2194 1.397 . S
C2193 C2198 1.363 . S
C2194 H2171 0.950 . S
C2194 C2193 1.397 . S
C2194 C2195 1.334 . S
C2195 H2172 0.950 . S
C2195 C2194 1.334 . S
C2195 C2196 1.287 . S
C2196 C2195 1.287 . S
C2196 C2197 1.524 . S
C2196 H2215 0.913 . S
C2197 H2173 0.950 . S
C2197 C2196 1.524 . S
C2197 C2198 1.415 . S
C2198 H2174 0.950 . S
C2198 C2193 1.363 . S
C2198 C2197 1.415 . S
C2199 H2175 0.951 . S
C2199 C2200 1.366 . S
C2199 C2201 1.388 . S
C2200 C2199 1.366 . S
C2200 C2204 1.385 . S
C2201 H2176 0.951 . S
C2201 C2199 1.388 . S
C2201 C2202 1.366 . S
C2202 C2201 1.366 . S
C2202 C2203 1.414 . S
C2202 C2205 1.499 . S
C2203 H2177 0.950 . S
C2203 C2202 1.414 . S
C2203 C2204 1.374 . S
C2204 H2178 0.950 . S
C2204 C2200 1.385 . S
C2204 C2203 1.374 . S
C2205 C2202 1.499 . S
C2205 C2206 1.373 . S
C2205 C2207 1.389 . S
C2206 H2179 0.950 . S
C2206 C2192 1.377 . S
C2206 C2205 1.373 . S
C2207 C2191 1.377 . S
C2207 C2205 1.389 . S
C2207 C2208 1.524 . S
C2208 C2207 1.524 . S
C2208 C2209 1.397 . S
C2208 C2213 1.363 . S
C2209 H2180 0.950 . S
C2209 C2208 1.397 . S
C2209 C2210 1.334 . S
C2210 H2181 0.950 . S
C2210 C2209 1.334 . S
C2210 C2211 1.287 . S
C2211 C2210 1.287 . S
C2211 C2212 1.524 . S
C2211 H2214 0.999 . S
C2212 H2182 0.950 . S
C2212 C2211 1.524 . S
C2212 C2213 1.415 . S
C2213 H2183 0.950 . S
C2213 C2208 1.363 . S
C2213 C2212 1.415 . S
H2214 C2211 0.999 . S
H2215 C2196 0.913 . S
H2216 C2234 0.951 . S
H2217 C2236 0.951 . S
H2218 C2238 0.950 . S
H2219 C2239 0.950 . S
H2220 C2241 0.950 . S
H2221 C2244 0.950 . S
H2222 C2245 0.950 . S
H2223 C2247 0.950 . S
H2224 C2248 0.950 . S
H2225 C2249 0.951 . S
H2226 C2251 0.951 . S
H2227 C2253 0.950 . S
H2228 C2254 0.950 . S
H2229 C2256 0.950 . S
H2230 C2259 0.950 . S
H2231 C2260 0.950 . S
H2232 C2262 0.950 . S
H2233 C2263 0.950 . S
C2234 H2216 0.951 . S
C2234 C2235 1.366 . S
C2234 C2236 1.388 . S
C2235 C2234 1.366 . S
C2235 C2239 1.385 . S
C2236 H2217 0.951 . S
C2236 C2234 1.388 . S
C2236 C2237 1.366 . S
C2237 C2236 1.366 . S
C2237 C2238 1.414 . S
C2237 C2240 1.499 . S
C2238 H2218 0.950 . S
C2238 C2237 1.414 . S
C2238 C2239 1.374 . S
C2239 H2219 0.950 . S
C2239 C2235 1.385 . S
C2239 C2238 1.374 . S
C2240 C2237 1.499 . S
C2240 C2241 1.373 . S
C2240 C2242 1.389 . S
C2241 H2220 0.950 . S
C2241 C2240 1.373 . S
C2241 C2257 1.377 . S
C2242 C2240 1.389 . S
C2242 C2243 1.524 . S
C2242 C2256 1.377 . S
C2243 C2242 1.524 . S
C2243 C2244 1.397 . S
C2243 C2248 1.363 . S
C2244 H2221 0.950 . S
C2244 C2243 1.397 . S
C2244 C2245 1.334 . S
C2245 H2222 0.950 . S
C2245 C2244 1.334 . S
C2245 C2246 1.287 . S
C2246 C2245 1.287 . S
C2246 C2247 1.524 . S
C2246 H2265 0.913 . S
C2247 H2223 0.950 . S
C2247 C2246 1.524 . S
C2247 C2248 1.415 . S
C2248 H2224 0.950 . S
C2248 C2243 1.363 . S
C2248 C2247 1.415 . S
C2249 H2225 0.951 . S
C2249 C2250 1.366 . S
C2249 C2251 1.388 . S
C2250 C2249 1.366 . S
C2250 C2254 1.385 . S
C2251 H2226 0.951 . S
C2251 C2249 1.388 . S
C2251 C2252 1.366 . S
C2252 C2251 1.366 . S
C2252 C2253 1.414 . S
C2252 C2255 1.499 . S
C2253 H2227 0.950 . S
C2253 C2252 1.414 . S
C2253 C2254 1.374 . S
C2254 H2228 0.950 . S
C2254 C2250 1.385 . S
C2254 C2253 1.374 . S
C2255 C2252 1.499 . S
C2255 C2256 1.373 . S
C2255 C2257 1.389 . S
C2256 H2229 0.950 . S
C2256 C2242 1.377 . S
C2256 C2255 1.373 . S
C2257 C2241 1.377 . S
C2257 C2255 1.389 . S
C2257 C2258 1.524 . S
C2258 C2257 1.524 . S
C2258 C2259 1.397 . S
C2258 C2263 1.363 . S
C2259 H2230 0.950 . S
C2259 C2258 1.397 . S
C2259 C2260 1.334 . S
C2260 H2231 0.950 . S
C2260 C2259 1.334 . S
C2260 C2261 1.287 . S
C2261 C2260 1.287 . S
C2261 C2262 1.524 . S
C2261 H2264 0.999 . S
C2262 H2232 0.950 . S
C2262 C2261 1.524 . S
C2262 C2263 1.415 . S
C2263 H2233 0.950 . S
C2263 C2258 1.363 . S
C2263 C2262 1.415 . S
H2264 C2261 0.999 . S
H2265 C2246 0.913 . S
H2266 C2284 0.951 . S
H2267 C2286 0.951 . S
H2268 C2288 0.950 . S
H2269 C2289 0.950 . S
H2270 C2291 0.950 . S
H2271 C2294 0.950 . S
H2272 C2295 0.950 . S
H2273 C2297 0.950 . S
H2274 C2298 0.950 . S
H2275 C2299 0.951 . S
H2276 C2301 0.951 . S
H2277 C2303 0.950 . S
H2278 C2304 0.950 . S
H2279 C2306 0.950 . S
H2280 C2309 0.950 . S
H2281 C2310 0.950 . S
H2282 C2312 0.950 . S
H2283 C2313 0.950 . S
C2284 H2266 0.951 . S
C2284 C2285 1.366 . S
C2284 C2286 1.388 . S
C2285 C2284 1.366 . S
C2285 C2289 1.385 . S
C2286 H2267 0.951 . S
C2286 C2284 1.388 . S
C2286 C2287 1.366 . S
C2287 C2286 1.366 . S
C2287 C2288 1.414 . S
C2287 C2290 1.499 . S
C2288 H2268 0.950 . S
C2288 C2287 1.414 . S
C2288 C2289 1.374 . S
C2289 H2269 0.950 . S
C2289 C2285 1.385 . S
C2289 C2288 1.374 . S
C2290 C2287 1.499 . S
C2290 C2291 1.373 . S
C2290 C2292 1.389 . S
C2291 H2270 0.950 . S
C2291 C2290 1.373 . S
C2291 C2307 1.377 . S
C2292 C2290 1.389 . S
C2292 C2293 1.524 . S
C2292 C2306 1.377 . S
C2293 C2292 1.524 . S
C2293 C2294 1.397 . S
C2293 C2298 1.363 . S
C2294 H2271 0.950 . S
C2294 C2293 1.397 . S
C2294 C2295 1.334 . S
C2295 H2272 0.950 . S
C2295 C2294 1.334 . S
C2295 C2296 1.287 . S
C2296 C2295 1.287 . S
C2296 C2297 1.524 . S
C2296 H2315 0.913 . S
C2297 H2273 0.950 . S
C2297 C2296 1.524 . S
C2297 C2298 1.415 . S
C2298 H2274 0.950 . S
C2298 C2293 1.363 . S
C2298 C2297 1.415 . S
C2299 H2275 0.951 . S
C2299 C2300 1.366 . S
C2299 C2301 1.388 . S
C2300 C2299 1.366 . S
C2300 C2304 1.385 . S
C2301 H2276 0.951 . S
C2301 C2299 1.388 . S
C2301 C2302 1.366 . S
C2302 C2301 1.366 . S
C2302 C2303 1.414 . S
C2302 C2305 1.499 . S
C2303 H2277 0.950 . S
C2303 C2302 1.414 . S
C2303 C2304 1.374 . S
C2304 H2278 0.950 . S
C2304 C2300 1.385 . S
C2304 C2303 1.374 . S
C2305 C2302 1.499 . S
C2305 C2306 1.373 . S
C2305 C2307 1.389 . S
C2306 H2279 0.950 . S
C2306 C2292 1.377 . S
C2306 C2305 1.373 . S
C2307 C2291 1.377 . S
C2307 C2305 1.389 . S
C2307 C2308 1.524 . S
C2308 C2307 1.524 . S
C2308 C2309 1.397 . S
C2308 C2313 1.363 . S
C2309 H2280 0.950 . S
C2309 C2308 1.397 . S
C2309 C2310 1.334 . S
C2310 H2281 0.950 . S
C2310 C2309 1.334 . S
C2310 C2311 1.287 . S
C2311 C2310 1.287 . S
C2311 C2312 1.524 . S
C2311 H2314 0.999 . S
C2312 H2282 0.950 . S
C2312 C2311 1.524 . S
C2312 C2313 1.415 . S
C2313 H2283 0.950 . S
C2313 C2308 1.363 . S
C2313 C2312 1.415 . S
H2314 C2311 0.999 . S
H2315 C2296 0.913 . S
H2316 C2334 0.951 . S
H2317 C2336 0.951 . S
H2318 C2338 0.950 . S
H2319 C2339 0.950 . S
H2320 C2341 0.950 . S
H2321 C2344 0.950 . S
H2322 C2345 0.950 . S
H2323 C2347 0.950 . S
H2324 C2348 0.950 . S
H2325 C2349 0.951 . S
H2326 C2351 0.951 . S
H2327 C2353 0.950 . S
H2328 C2354 0.950 . S
H2329 C2356 0.950 . S
H2330 C2359 0.950 . S
H2331 C2360 0.950 . S
H2332 C2362 0.950 . S
H2333 C2363 0.950 . S
C2334 H2316 0.951 . S
C2334 C2335 1.366 . S
C2334 C2336 1.388 . S
C2335 C2334 1.366 . S
C2335 C2339 1.385 . S
C2336 H2317 0.951 . S
C2336 C2334 1.388 . S
C2336 C2337 1.366 . S
C2337 C2336 1.366 . S
C2337 C2338 1.414 . S
C2337 C2340 1.499 . S
C2338 H2318 0.950 . S
C2338 C2337 1.414 . S
C2338 C2339 1.374 . S
C2339 H2319 0.950 . S
C2339 C2335 1.385 . S
C2339 C2338 1.374 . S
C2340 C2337 1.499 . S
C2340 C2341 1.373 . S
C2340 C2342 1.389 . S
C2341 H2320 0.950 . S
C2341 C2340 1.373 . S
C2341 C2357 1.377 . S
C2342 C2340 1.389 . S
C2342 C2343 1.524 . S
C2342 C2356 1.377 . S
C2343 C2342 1.524 . S
C2343 C2344 1.397 . S
C2343 C2348 1.363 . S
C2344 H2321 0.950 . S
C2344 C2343 1.397 . S
C2344 C2345 1.334 . S
C2345 H2322 0.950 . S
C2345 C2344 1.334 . S
C2345 C2346 1.287 . S
C2346 C2345 1.287 . S
C2346 C2347 1.524 . S
C2346 H2365 0.913 . S
C2347 H2323 0.950 . S
C2347 C2346 1.524 . S
C2347 C2348 1.415 . S
C2348 H2324 0.950 . S
C2348 C2343 1.363 . S
C2348 C2347 1.415 . S
C2349 H2325 0.951 . S
C2349 C2350 1.366 . S
C2349 C2351 1.388 . S
C2350 C2349 1.366 . S
C2350 C2354 1.385 . S
C2351 H2326 0.951 . S
C2351 C2349 1.388 . S
C2351 C2352 1.366 . S
C2352 C2351 1.366 . S
C2352 C2353 1.414 . S
C2352 C2355 1.499 . S
C2353 H2327 0.950 . S
C2353 C2352 1.414 . S
C2353 C2354 1.374 . S
C2354 H2328 0.950 . S
C2354 C2350 1.385 . S
C2354 C2353 1.374 . S
C2355 C2352 1.499 . S
C2355 C2356 1.373 . S
C2355 C2357 1.389 . S
C2356 H2329 0.950 . S
C2356 C2342 1.377 . S
C2356 C2355 1.373 . S
C2357 C2341 1.377 . S
C2357 C2355 1.389 . S
C2357 C2358 1.524 . S
C2358 C2357 1.524 . S
C2358 C2359 1.397 . S
C2358 C2363 1.363 . S
C2359 H2330 0.950 . S
C2359 C2358 1.397 . S
C2359 C2360 1.334 . S
C2360 H2331 0.950 . S
C2360 C2359 1.334 . S
C2360 C2361 1.287 . S
C2361 C2360 1.287 . S
C2361 C2362 1.524 . S
C2361 H2364 0.999 . S
C2362 H2332 0.950 . S
C2362 C2361 1.524 . S
C2362 C2363 1.415 . S
C2363 H2333 0.950 . S
C2363 C2358 1.363 . S
C2363 C2362 1.415 . S
H2364 C2361 0.999 . S
H2365 C2346 0.913 . S
H2366 C2384 0.951 . S
H2367 C2386 0.951 . S
H2368 C2388 0.950 . S
H2369 C2389 0.950 . S
H2370 C2391 0.950 . S
H2371 C2394 0.950 . S
H2372 C2395 0.950 . S
H2373 C2397 0.950 . S
H2374 C2398 0.950 . S
H2375 C2399 0.951 . S
H2376 C2401 0.951 . S
H2377 C2403 0.950 . S
H2378 C2404 0.950 . S
H2379 C2406 0.950 . S
H2380 C2409 0.950 . S
H2381 C2410 0.950 . S
H2382 C2412 0.950 . S
H2383 C2413 0.950 . S
C2384 H2366 0.951 . S
C2384 C2385 1.366 . S
C2384 C2386 1.388 . S
C2385 C2384 1.366 . S
C2385 C2389 1.385 . S
C2386 H2367 0.951 . S
C2386 C2384 1.388 . S
C2386 C2387 1.366 . S
C2387 C2386 1.366 . S
C2387 C2388 1.414 . S
C2387 C2390 1.499 . S
C2388 H2368 0.950 . S
C2388 C2387 1.414 . S
C2388 C2389 1.374 . S
C2389 H2369 0.950 . S
C2389 C2385 1.385 . S
C2389 C2388 1.374 . S
C2390 C2387 1.499 . S
C2390 C2391 1.373 . S
C2390 C2392 1.389 . S
C2391 H2370 0.950 . S
C2391 C2390 1.373 . S
C2391 C2407 1.377 . S
C2392 C2390 1.389 . S
C2392 C2393 1.524 . S
C2392 C2406 1.377 . S
C2393 C2392 1.524 . S
C2393 C2394 1.397 . S
C2393 C2398 1.363 . S
C2394 H2371 0.950 . S
C2394 C2393 1.397 . S
C2394 C2395 1.334 . S
C2395 H2372 0.950 . S
C2395 C2394 1.334 . S
C2395 C2396 1.287 . S
C2396 C2395 1.287 . S
C2396 C2397 1.524 . S
C2396 H2415 0.913 . S
C2397 H2373 0.950 . S
C2397 C2396 1.524 . S
C2397 C2398 1.415 . S
C2398 H2374 0.950 . S
C2398 C2393 1.363 . S
C2398 C2397 1.415 . S
C2399 H2375 0.951 . S
C2399 C2400 1.366 . S
C2399 C2401 1.388 . S
C2400 C2399 1.366 . S
C2400 C2404 1.385 . S
C2401 H2376 0.951 . S
C2401 C2399 1.388 . S
C2401 C2402 1.366 . S
C2402 C2401 1.366 . S
C2402 C2403 1.414 . S
C2402 C2405 1.499 . S
C2403 H2377 0.950 . S
C2403 C2402 1.414 . S
C2403 C2404 1.374 . S
C2404 H2378 0.950 . S
C2404 C2400 1.385 . S
C2404 C2403 1.374 . S
C2405 C2402 1.499 . S
C2405 C2406 1.373 . S
C2405 C2407 1.389 . S
C2406 H2379 0.950 . S
C2406 C2392 1.377 . S
C2406 C2405 1.373 . S
C2407 C2391 1.377 . S
C2407 C2405 1.389 . S
C2407 C2408 1.524 . S
C2408 C2407 1.524 . S
C2408 C2409 1.397 . S
C2408 C2413 1.363 . S
C2409 H2380 0.950 . S
C2409 C2408 1.397 . S
C2409 C2410 1.334 . S
C2410 H2381 0.950 . S
C2410 C2409 1.334 . S
C2410 C2411 1.287 . S
C2411 C2410 1.287 . S
C2411 C2412 1.524 . S
C2411 H2414 0.999 . S
C2412 H2382 0.950 . S
C2412 C2411 1.524 . S
C2412 C2413 1.415 . S
C2413 H2383 0.950 . S
C2413 C2408 1.363 . S
C2413 C2412 1.415 . S
H2414 C2411 0.999 . S
H2415 C2396 0.913 . S
H2416 C2434 0.951 . S
H2417 C2436 0.951 . S
H2418 C2438 0.950 . S
H2419 C2439 0.950 . S
H2420 C2441 0.950 . S
H2421 C2444 0.950 . S
H2422 C2445 0.950 . S
H2423 C2447 0.950 . S
H2424 C2448 0.950 . S
H2425 C2449 0.951 . S
H2426 C2451 0.951 . S
H2427 C2453 0.950 . S
H2428 C2454 0.950 . S
H2429 C2456 0.950 . S
H2430 C2459 0.950 . S
H2431 C2460 0.950 . S
H2432 C2462 0.950 . S
H2433 C2463 0.950 . S
C2434 H2416 0.951 . S
C2434 C2435 1.366 . S
C2434 C2436 1.388 . S
C2435 C2434 1.366 . S
C2435 C2439 1.385 . S
C2436 H2417 0.951 . S
C2436 C2434 1.388 . S
C2436 C2437 1.366 . S
C2437 C2436 1.366 . S
C2437 C2438 1.414 . S
C2437 C2440 1.499 . S
C2438 H2418 0.950 . S
C2438 C2437 1.414 . S
C2438 C2439 1.374 . S
C2439 H2419 0.950 . S
C2439 C2435 1.385 . S
C2439 C2438 1.374 . S
C2440 C2437 1.499 . S
C2440 C2441 1.373 . S
C2440 C2442 1.389 . S
C2441 H2420 0.950 . S
C2441 C2440 1.373 . S
C2441 C2457 1.377 . S
C2442 C2440 1.389 . S
C2442 C2443 1.524 . S
C2442 C2456 1.377 . S
C2443 C2442 1.524 . S
C2443 C2444 1.397 . S
C2443 C2448 1.363 . S
C2444 H2421 0.950 . S
C2444 C2443 1.397 . S
C2444 C2445 1.334 . S
C2445 H2422 0.950 . S
C2445 C2444 1.334 . S
C2445 C2446 1.287 . S
C2446 C2445 1.287 . S
C2446 C2447 1.524 . S
C2446 H2465 0.913 . S
C2447 H2423 0.950 . S
C2447 C2446 1.524 . S
C2447 C2448 1.415 . S
C2448 H2424 0.950 . S
C2448 C2443 1.363 . S
C2448 C2447 1.415 . S
C2449 H2425 0.951 . S
C2449 C2450 1.366 . S
C2449 C2451 1.388 . S
C2450 C2449 1.366 . S
C2450 C2454 1.385 . S
C2451 H2426 0.951 . S
C2451 C2449 1.388 . S
C2451 C2452 1.366 . S
C2452 C2451 1.366 . S
C2452 C2453 1.414 . S
C2452 C2455 1.499 . S
C2453 H2427 0.950 . S
C2453 C2452 1.414 . S
C2453 C2454 1.374 . S
C2454 H2428 0.950 . S
C2454 C2450 1.385 . S
C2454 C2453 1.374 . S
C2455 C2452 1.499 . S
C2455 C2456 1.373 . S
C2455 C2457 1.389 . S
C2456 H2429 0.950 . S
C2456 C2442 1.377 . S
C2456 C2455 1.373 . S
C2457 C2441 1.377 . S
C2457 C2455 1.389 . S
C2457 C2458 1.524 . S
C2458 C2457 1.524 . S
C2458 C2459 1.397 . S
C2458 C2463 1.363 . S
C2459 H2430 0.950 . S
C2459 C2458 1.397 . S
C2459 C2460 1.334 . S
C2460 H2431 0.950 . S
C2460 C2459 1.334 . S
C2460 C2461 1.287 . S
C2461 C2460 1.287 . S
C2461 C2462 1.524 . S
C2461 H2464 0.999 . S
C2462 H2432 0.950 . S
C2462 C2461 1.524 . S
C2462 C2463 1.415 . S
C2463 H2433 0.950 . S
C2463 C2458 1.363 . S
C2463 C2462 1.415 . S
H2464 C2461 0.999 . S
H2465 C2446 0.913 . S
H2466 C2484 0.951 . S
H2467 C2486 0.951 . S
H2468 C2488 0.950 . S
H2469 C2489 0.950 . S
H2470 C2491 0.950 . S
H2471 C2494 0.950 . S
H2472 C2495 0.950 . S
H2473 C2497 0.950 . S
H2474 C2498 0.950 . S
H2475 C2499 0.951 . S
H2476 C2501 0.951 . S
H2477 C2503 0.950 . S
H2478 C2504 0.950 . S
H2479 C2506 0.950 . S
H2480 C2509 0.950 . S
H2481 C2510 0.950 . S
H2482 C2512 0.950 . S
H2483 C2513 0.950 . S
C2484 H2466 0.951 . S
C2484 C2485 1.366 . S
C2484 C2486 1.388 . S
C2485 C2484 1.366 . S
C2485 C2489 1.385 . S
C2486 H2467 0.951 . S
C2486 C2484 1.388 . S
C2486 C2487 1.366 . S
C2487 C2486 1.366 . S
C2487 C2488 1.414 . S
C2487 C2490 1.499 . S
C2488 H2468 0.950 . S
C2488 C2487 1.414 . S
C2488 C2489 1.374 . S
C2489 H2469 0.950 . S
C2489 C2485 1.385 . S
C2489 C2488 1.374 . S
C2490 C2487 1.499 . S
C2490 C2491 1.373 . S
C2490 C2492 1.389 . S
C2491 H2470 0.950 . S
C2491 C2490 1.373 . S
C2491 C2507 1.377 . S
C2492 C2490 1.389 . S
C2492 C2493 1.524 . S
C2492 C2506 1.377 . S
C2493 C2492 1.524 . S
C2493 C2494 1.397 . S
C2493 C2498 1.363 . S
C2494 H2471 0.950 . S
C2494 C2493 1.397 . S
C2494 C2495 1.334 . S
C2495 H2472 0.950 . S
C2495 C2494 1.334 . S
C2495 C2496 1.287 . S
C2496 C2495 1.287 . S
C2496 C2497 1.524 . S
C2496 H2515 0.913 . S
C2497 H2473 0.950 . S
C2497 C2496 1.524 . S
C2497 C2498 1.415 . S
C2498 H2474 0.950 . S
C2498 C2493 1.363 . S
C2498 C2497 1.415 . S
C2499 H2475 0.951 . S
C2499 C2500 1.366 . S
C2499 C2501 1.388 . S
C2500 C2499 1.366 . S
C2500 C2504 1.385 . S
C2501 H2476 0.951 . S
C2501 C2499 1.388 . S
C2501 C2502 1.366 . S
C2502 C2501 1.366 . S
C2502 C2503 1.414 . S
C2502 C2505 1.499 . S
C2503 H2477 0.950 . S
C2503 C2502 1.414 . S
C2503 C2504 1.374 . S
C2504 H2478 0.950 . S
C2504 C2500 1.385 . S
C2504 C2503 1.374 . S
C2505 C2502 1.499 . S
C2505 C2506 1.373 . S
C2505 C2507 1.389 . S
C2506 H2479 0.950 . S
C2506 C2492 1.377 . S
C2506 C2505 1.373 . S
C2507 C2491 1.377 . S
C2507 C2505 1.389 . S
C2507 C2508 1.524 . S
C2508 C2507 1.524 . S
C2508 C2509 1.397 . S
C2508 C2513 1.363 . S
C2509 H2480 0.950 . S
C2509 C2508 1.397 . S
C2509 C2510 1.334 . S
C2510 H2481 0.950 . S
C2510 C2509 1.334 . S
C2510 C2511 1.287 . S
C2511 C2510 1.287 . S
C2511 C2512 1.524 . S
C2511 H2514 0.999 . S
C2512 H2482 0.950 . S
C2512 C2511 1.524 . S
C2512 C2513 1.415 . S
C2513 H2483 0.950 . S
C2513 C2508 1.363 . S
C2513 C2512 1.415 . S
H2514 C2511 0.999 . S
H2515 C2496 0.913 . S
H2516 C2534 0.951 . S
H2517 C2536 0.951 . S
H2518 C2538 0.950 . S
H2519 C2539 0.950 . S
H2520 C2541 0.950 . S
H2521 C2544 0.950 . S
H2522 C2545 0.950 . S
H2523 C2547 0.950 . S
H2524 C2548 0.950 . S
H2525 C2549 0.951 . S
H2526 C2551 0.951 . S
H2527 C2553 0.950 . S
H2528 C2554 0.950 . S
H2529 C2556 0.950 . S
H2530 C2559 0.950 . S
H2531 C2560 0.950 . S
H2532 C2562 0.950 . S
H2533 C2563 0.950 . S
C2534 H2516 0.951 . S
C2534 C2535 1.366 . S
C2534 C2536 1.388 . S
C2535 C2534 1.366 . S
C2535 C2539 1.385 . S
C2536 H2517 0.951 . S
C2536 C2534 1.388 . S
C2536 C2537 1.366 . S
C2537 C2536 1.366 . S
C2537 C2538 1.414 . S
C2537 C2540 1.499 . S
C2538 H2518 0.950 . S
C2538 C2537 1.414 . S
C2538 C2539 1.374 . S
C2539 H2519 0.950 . S
C2539 C2535 1.385 . S
C2539 C2538 1.374 . S
C2540 C2537 1.499 . S
C2540 C2541 1.373 . S
C2540 C2542 1.389 . S
C2541 H2520 0.950 . S
C2541 C2540 1.373 . S
C2541 C2557 1.377 . S
C2542 C2540 1.389 . S
C2542 C2543 1.524 . S
C2542 C2556 1.377 . S
C2543 C2542 1.524 . S
C2543 C2544 1.397 . S
C2543 C2548 1.363 . S
C2544 H2521 0.950 . S
C2544 C2543 1.397 . S
C2544 C2545 1.334 . S
C2545 H2522 0.950 . S
C2545 C2544 1.334 . S
C2545 C2546 1.287 . S
C2546 C2545 1.287 . S
C2546 C2547 1.524 . S
C2546 H2565 0.913 . S
C2547 H2523 0.950 . S
C2547 C2546 1.524 . S
C2547 C2548 1.415 . S
C2548 H2524 0.950 . S
C2548 C2543 1.363 . S
C2548 C2547 1.415 . S
C2549 H2525 0.951 . S
C2549 C2550 1.366 . S
C2549 C2551 1.388 . S
C2550 C2549 1.366 . S
C2550 C2554 1.385 . S
C2551 H2526 0.951 . S
C2551 C2549 1.388 . S
C2551 C2552 1.366 . S
C2552 C2551 1.366 . S
C2552 C2553 1.414 . S
C2552 C2555 1.499 . S
C2553 H2527 0.950 . S
C2553 C2552 1.414 . S
C2553 C2554 1.374 . S
C2554 H2528 0.950 . S
C2554 C2550 1.385 . S
C2554 C2553 1.374 . S
C2555 C2552 1.499 . S
C2555 C2556 1.373 . S
C2555 C2557 1.389 . S
C2556 H2529 0.950 . S
C2556 C2542 1.377 . S
C2556 C2555 1.373 . S
C2557 C2541 1.377 . S
C2557 C2555 1.389 . S
C2557 C2558 1.524 . S
C2558 C2557 1.524 . S
C2558 C2559 1.397 . S
C2558 C2563 1.363 . S
C2559 H2530 0.950 . S
C2559 C2558 1.397 . S
C2559 C2560 1.334 . S
C2560 H2531 0.950 . S
C2560 C2559 1.334 . S
C2560 C2561 1.287 . S
C2561 C2560 1.287 . S
C2561 C2562 1.524 . S
C2561 H2564 0.999 . S
C2562 H2532 0.950 . S
C2562 C2561 1.524 . S
C2562 C2563 1.415 . S
C2563 H2533 0.950 . S
C2563 C2558 1.363 . S
C2563 C2562 1.415 . S
H2564 C2561 0.999 . S
H2565 C2546 0.913 . S
H2566 C2584 0.951 . S
H2567 C2586 0.951 . S
H2568 C2588 0.950 . S
H2569 C2589 0.950 . S
H2570 C2591 0.950 . S
H2571 C2594 0.950 . S
H2572 C2595 0.950 . S
H2573 C2597 0.950 . S
H2574 C2598 0.950 . S
H2575 C2599 0.951 . S
H2576 C2601 0.951 . S
H2577 C2603 0.950 . S
H2578 C2604 0.950 . S
H2579 C2606 0.950 . S
H2580 C2609 0.950 . S
H2581 C2610 0.950 . S
H2582 C2612 0.950 . S
H2583 C2613 0.950 . S
C2584 H2566 0.951 . S
C2584 C2585 1.366 . S
C2584 C2586 1.388 . S
C2585 C2584 1.366 . S
C2585 C2589 1.385 . S
C2586 H2567 0.951 . S
C2586 C2584 1.388 . S
C2586 C2587 1.366 . S
C2587 C2586 1.366 . S
C2587 C2588 1.414 . S
C2587 C2590 1.499 . S
C2588 H2568 0.950 . S
C2588 C2587 1.414 . S
C2588 C2589 1.374 . S
C2589 H2569 0.950 . S
C2589 C2585 1.385 . S
C2589 C2588 1.374 . S
C2590 C2587 1.499 . S
C2590 C2591 1.373 . S
C2590 C2592 1.389 . S
C2591 H2570 0.950 . S
C2591 C2590 1.373 . S
C2591 C2607 1.377 . S
C2592 C2590 1.389 . S
C2592 C2593 1.524 . S
C2592 C2606 1.377 . S
C2593 C2592 1.524 . S
C2593 C2594 1.397 . S
C2593 C2598 1.363 . S
C2594 H2571 0.950 . S
C2594 C2593 1.397 . S
C2594 C2595 1.334 . S
C2595 H2572 0.950 . S
C2595 C2594 1.334 . S
C2595 C2596 1.287 . S
C2596 C2595 1.287 . S
C2596 C2597 1.524 . S
C2596 H2615 0.913 . S
C2597 H2573 0.950 . S
C2597 C2596 1.524 . S
C2597 C2598 1.415 . S
C2598 H2574 0.950 . S
C2598 C2593 1.363 . S
C2598 C2597 1.415 . S
C2599 H2575 0.951 . S
C2599 C2600 1.366 . S
C2599 C2601 1.388 . S
C2600 C2599 1.366 . S
C2600 C2604 1.385 . S
C2601 H2576 0.951 . S
C2601 C2599 1.388 . S
C2601 C2602 1.366 . S
C2602 C2601 1.366 . S
C2602 C2603 1.414 . S
C2602 C2605 1.499 . S
C2603 H2577 0.950 . S
C2603 C2602 1.414 . S
C2603 C2604 1.374 . S
C2604 H2578 0.950 . S
C2604 C2600 1.385 . S
C2604 C2603 1.374 . S
C2605 C2602 1.499 . S
C2605 C2606 1.373 . S
C2605 C2607 1.389 . S
C2606 H2579 0.950 . S
C2606 C2592 1.377 . S
C2606 C2605 1.373 . S
C2607 C2591 1.377 . S
C2607 C2605 1.389 . S
C2607 C2608 1.524 . S
C2608 C2607 1.524 . S
C2608 C2609 1.397 . S
C2608 C2613 1.363 . S
C2609 H2580 0.950 . S
C2609 C2608 1.397 . S
C2609 C2610 1.334 . S
C2610 H2581 0.950 . S
C2610 C2609 1.334 . S
C2610 C2611 1.287 . S
C2611 C2610 1.287 . S
C2611 C2612 1.524 . S
C2611 H2614 0.999 . S
C2612 H2582 0.950 . S
C2612 C2611 1.524 . S
C2612 C2613 1.415 . S
C2613 H2583 0.950 . S
C2613 C2608 1.363 . S
C2613 C2612 1.415 . S
H2614 C2611 0.999 . S
H2615 C2596 0.913 . S
H2616 C2634 0.951 . S
H2617 C2636 0.951 . S
H2618 C2638 0.950 . S
H2619 C2639 0.950 . S
H2620 C2641 0.950 . S
H2621 C2644 0.950 . S
H2622 C2645 0.950 . S
H2623 C2647 0.950 . S
H2624 C2648 0.950 . S
H2625 C2649 0.951 . S
H2626 C2651 0.951 . S
H2627 C2653 0.950 . S
H2628 C2654 0.950 . S
H2629 C2656 0.950 . S
H2630 C2659 0.950 . S
H2631 C2660 0.950 . S
H2632 C2662 0.950 . S
H2633 C2663 0.950 . S
C2634 H2616 0.951 . S
C2634 C2635 1.366 . S
C2634 C2636 1.388 . S
C2635 C2634 1.366 . S
C2635 C2639 1.385 . S
C2636 H2617 0.951 . S
C2636 C2634 1.388 . S
C2636 C2637 1.366 . S
C2637 C2636 1.366 . S
C2637 C2638 1.414 . S
C2637 C2640 1.499 . S
C2638 H2618 0.950 . S
C2638 C2637 1.414 . S
C2638 C2639 1.374 . S
C2639 H2619 0.950 . S
C2639 C2635 1.385 . S
C2639 C2638 1.374 . S
C2640 C2637 1.499 . S
C2640 C2641 1.373 . S
C2640 C2642 1.389 . S
C2641 H2620 0.950 . S
C2641 C2640 1.373 . S
C2641 C2657 1.377 . S
C2642 C2640 1.389 . S
C2642 C2643 1.524 . S
C2642 C2656 1.377 . S
C2643 C2642 1.524 . S
C2643 C2644 1.397 . S
C2643 C2648 1.363 . S
C2644 H2621 0.950 . S
C2644 C2643 1.397 . S
C2644 C2645 1.334 . S
C2645 H2622 0.950 . S
C2645 C2644 1.334 . S
C2645 C2646 1.287 . S
C2646 C2645 1.287 . S
C2646 C2647 1.524 . S
C2646 H2665 0.913 . S
C2647 H2623 0.950 . S
C2647 C2646 1.524 . S
C2647 C2648 1.415 . S
C2648 H2624 0.950 . S
C2648 C2643 1.363 . S
C2648 C2647 1.415 . S
C2649 H2625 0.951 . S
C2649 C2650 1.366 . S
C2649 C2651 1.388 . S
C2650 C2649 1.366 . S
C2650 C2654 1.385 . S
C2651 H2626 0.951 . S
C2651 C2649 1.388 . S
C2651 C2652 1.366 . S
C2652 C2651 1.366 . S
C2652 C2653 1.414 . S
C2652 C2655 1.499 . S
C2653 H2627 0.950 . S
C2653 C2652 1.414 . S
C2653 C2654 1.374 . S
C2654 H2628 0.950 . S
C2654 C2650 1.385 . S
C2654 C2653 1.374 . S
C2655 C2652 1.499 . S
C2655 C2656 1.373 . S
C2655 C2657 1.389 . S
C2656 H2629 0.950 . S
C2656 C2642 1.377 . S
C2656 C2655 1.373 . S
C2657 C2641 1.377 . S
C2657 C2655 1.389 . S
C2657 C2658 1.524 . S
C2658 C2657 1.524 . S
C2658 C2659 1.397 . S
C2658 C2663 1.363 . S
C2659 H2630 0.950 . S
C2659 C2658 1.397 . S
C2659 C2660 1.334 . S
C2660 H2631 0.950 . S
C2660 C2659 1.334 . S
C2660 C2661 1.287 . S
C2661 C2660 1.287 . S
C2661 C2662 1.524 . S
C2661 H2664 0.999 . S
C2662 H2632 0.950 . S
C2662 C2661 1.524 . S
C2662 C2663 1.415 . S
C2663 H2633 0.950 . S
C2663 C2658 1.363 . S
C2663 C2662 1.415 . S
H2664 C2661 0.999 . S
H2665 C2646 0.913 . S
H2666 C2684 0.951 . S
H2667 C2686 0.951 . S
H2668 C2688 0.950 . S
H2669 C2689 0.950 . S
H2670 C2691 0.950 . S
H2671 C2694 0.950 . S
H2672 C2695 0.950 . S
H2673 C2697 0.950 . S
H2674 C2698 0.950 . S
H2675 C2699 0.951 . S
H2676 C2701 0.951 . S
H2677 C2703 0.950 . S
H2678 C2704 0.950 . S
H2679 C2706 0.950 . S
H2680 C2709 0.950 . S
H2681 C2710 0.950 . S
H2682 C2712 0.950 . S
H2683 C2713 0.950 . S
C2684 H2666 0.951 . S
C2684 C2685 1.366 . S
C2684 C2686 1.388 . S
C2685 C2684 1.366 . S
C2685 C2689 1.385 . S
C2686 H2667 0.951 . S
C2686 C2684 1.388 . S
C2686 C2687 1.366 . S
C2687 C2686 1.366 . S
C2687 C2688 1.414 . S
C2687 C2690 1.499 . S
C2688 H2668 0.950 . S
C2688 C2687 1.414 . S
C2688 C2689 1.374 . S
C2689 H2669 0.950 . S
C2689 C2685 1.385 . S
C2689 C2688 1.374 . S
C2690 C2687 1.499 . S
C2690 C2691 1.373 . S
C2690 C2692 1.389 . S
C2691 H2670 0.950 . S
C2691 C2690 1.373 . S
C2691 C2707 1.377 . S
C2692 C2690 1.389 . S
C2692 C2693 1.524 . S
C2692 C2706 1.377 . S
C2693 C2692 1.524 . S
C2693 C2694 1.397 . S
C2693 C2698 1.363 . S
C2694 H2671 0.950 . S
C2694 C2693 1.397 . S
C2694 C2695 1.334 . S
C2695 H2672 0.950 . S
C2695 C2694 1.334 . S
C2695 C2696 1.287 . S
C2696 C2695 1.287 . S
C2696 C2697 1.524 . S
C2696 H2715 0.913 . S
C2697 H2673 0.950 . S
C2697 C2696 1.524 . S
C2697 C2698 1.415 . S
C2698 H2674 0.950 . S
C2698 C2693 1.363 . S
C2698 C2697 1.415 . S
C2699 H2675 0.951 . S
C2699 C2700 1.366 . S
C2699 C2701 1.388 . S
C2700 C2699 1.366 . S
C2700 C2704 1.385 . S
C2701 H2676 0.951 . S
C2701 C2699 1.388 . S
C2701 C2702 1.366 . S
C2702 C2701 1.366 . S
C2702 C2703 1.414 . S
C2702 C2705 1.499 . S
C2703 H2677 0.950 . S
C2703 C2702 1.414 . S
C2703 C2704 1.374 . S
C2704 H2678 0.950 . S
C2704 C2700 1.385 . S
C2704 C2703 1.374 . S
C2705 C2702 1.499 . S
C2705 C2706 1.373 . S
C2705 C2707 1.389 . S
C2706 H2679 0.950 . S
C2706 C2692 1.377 . S
C2706 C2705 1.373 . S
C2707 C2691 1.377 . S
C2707 C2705 1.389 . S
C2707 C2708 1.524 . S
C2708 C2707 1.524 . S
C2708 C2709 1.397 . S
C2708 C2713 1.363 . S
C2709 H2680 0.950 . S
C2709 C2708 1.397 . S
C2709 C2710 1.334 . S
C2710 H2681 0.950 . S
C2710 C2709 1.334 . S
C2710 C2711 1.287 . S
C2711 C2710 1.287 . S
C2711 C2712 1.524 . S
C2711 H2714 0.999 . S
C2712 H2682 0.950 . S
C2712 C2711 1.524 . S
C2712 C2713 1.415 . S
C2713 H2683 0.950 . S
C2713 C2708 1.363 . S
C2713 C2712 1.415 . S
H2714 C2711 0.999 . S
H2715 C2696 0.913 . S
H2716 C2734 0.951 . S
H2717 C2736 0.951 . S
H2718 C2738 0.950 . S
H2719 C2739 0.950 . S
H2720 C2741 0.950 . S
H2721 C2744 0.950 . S
H2722 C2745 0.950 . S
H2723 C2747 0.950 . S
H2724 C2748 0.950 . S
H2725 C2749 0.951 . S
H2726 C2751 0.951 . S
H2727 C2753 0.950 . S
H2728 C2754 0.950 . S
H2729 C2756 0.950 . S
H2730 C2759 0.950 . S
H2731 C2760 0.950 . S
H2732 C2762 0.950 . S
H2733 C2763 0.950 . S
C2734 H2716 0.951 . S
C2734 C2735 1.366 . S
C2734 C2736 1.388 . S
C2735 C2734 1.366 . S
C2735 C2739 1.385 . S
C2736 H2717 0.951 . S
C2736 C2734 1.388 . S
C2736 C2737 1.366 . S
C2737 C2736 1.366 . S
C2737 C2738 1.414 . S
C2737 C2740 1.499 . S
C2738 H2718 0.950 . S
C2738 C2737 1.414 . S
C2738 C2739 1.374 . S
C2739 H2719 0.950 . S
C2739 C2735 1.385 . S
C2739 C2738 1.374 . S
C2740 C2737 1.499 . S
C2740 C2741 1.373 . S
C2740 C2742 1.389 . S
C2741 H2720 0.950 . S
C2741 C2740 1.373 . S
C2741 C2757 1.377 . S
C2742 C2740 1.389 . S
C2742 C2743 1.524 . S
C2742 C2756 1.377 . S
C2743 C2742 1.524 . S
C2743 C2744 1.397 . S
C2743 C2748 1.363 . S
C2744 H2721 0.950 . S
C2744 C2743 1.397 . S
C2744 C2745 1.334 . S
C2745 H2722 0.950 . S
C2745 C2744 1.334 . S
C2745 C2746 1.287 . S
C2746 C2745 1.287 . S
C2746 C2747 1.524 . S
C2746 H2765 0.913 . S
C2747 H2723 0.950 . S
C2747 C2746 1.524 . S
C2747 C2748 1.415 . S
C2748 H2724 0.950 . S
C2748 C2743 1.363 . S
C2748 C2747 1.415 . S
C2749 H2725 0.951 . S
C2749 C2750 1.366 . S
C2749 C2751 1.388 . S
C2750 C2749 1.366 . S
C2750 C2754 1.385 . S
C2751 H2726 0.951 . S
C2751 C2749 1.388 . S
C2751 C2752 1.366 . S
C2752 C2751 1.366 . S
C2752 C2753 1.414 . S
C2752 C2755 1.499 . S
C2753 H2727 0.950 . S
C2753 C2752 1.414 . S
C2753 C2754 1.374 . S
C2754 H2728 0.950 . S
C2754 C2750 1.385 . S
C2754 C2753 1.374 . S
C2755 C2752 1.499 . S
C2755 C2756 1.373 . S
C2755 C2757 1.389 . S
C2756 H2729 0.950 . S
C2756 C2742 1.377 . S
C2756 C2755 1.373 . S
C2757 C2741 1.377 . S
C2757 C2755 1.389 . S
C2757 C2758 1.524 . S
C2758 C2757 1.524 . S
C2758 C2759 1.397 . S
C2758 C2763 1.363 . S
C2759 H2730 0.950 . S
C2759 C2758 1.397 . S
C2759 C2760 1.334 . S
C2760 H2731 0.950 . S
C2760 C2759 1.334 . S
C2760 C2761 1.287 . S
C2761 C2760 1.287 . S
C2761 C2762 1.524 . S
C2761 H2764 0.999 . S
C2762 H2732 0.950 . S
C2762 C2761 1.524 . S
C2762 C2763 1.415 . S
C2763 H2733 0.950 . S
C2763 C2758 1.363 . S
C2763 C2762 1.415 . S
H2764 C2761 0.999 . S
H2765 C2746 0.913 . S
H2766 C2784 0.951 . S
H2767 C2786 0.951 . S
H2768 C2788 0.950 . S
H2769 C2789 0.950 . S
H2770 C2791 0.950 . S
H2771 C2794 0.950 . S
H2772 C2795 0.950 . S
H2773 C2797 0.950 . S
H2774 C2798 0.950 . S
H2775 C2799 0.951 . S
H2776 C2801 0.951 . S
H2777 C2803 0.950 . S
H2778 C2804 0.950 . S
H2779 C2806 0.950 . S
H2780 C2809 0.950 . S
H2781 C2810 0.950 . S
H2782 C2812 0.950 . S
H2783 C2813 0.950 . S
C2784 H2766 0.951 . S
C2784 C2785 1.366 . S
C2784 C2786 1.388 . S
C2785 C2784 1.366 . S
C2785 C2789 1.385 . S
C2786 H2767 0.951 . S
C2786 C2784 1.388 . S
C2786 C2787 1.366 . S
C2787 C2786 1.366 . S
C2787 C2788 1.414 . S
C2787 C2790 1.499 . S
C2788 H2768 0.950 . S
C2788 C2787 1.414 . S
C2788 C2789 1.374 . S
C2789 H2769 0.950 . S
C2789 C2785 1.385 . S
C2789 C2788 1.374 . S
C2790 C2787 1.499 . S
C2790 C2791 1.373 . S
C2790 C2792 1.389 . S
C2791 H2770 0.950 . S
C2791 C2790 1.373 . S
C2791 C2807 1.377 . S
C2792 C2790 1.389 . S
C2792 C2793 1.524 . S
C2792 C2806 1.377 . S
C2793 C2792 1.524 . S
C2793 C2794 1.397 . S
C2793 C2798 1.363 . S
C2794 H2771 0.950 . S
C2794 C2793 1.397 . S
C2794 C2795 1.334 . S
C2795 H2772 0.950 . S
C2795 C2794 1.334 . S
C2795 C2796 1.287 . S
C2796 C2795 1.287 . S
C2796 C2797 1.524 . S
C2796 H2815 0.913 . S
C2797 H2773 0.950 . S
C2797 C2796 1.524 . S
C2797 C2798 1.415 . S
C2798 H2774 0.950 . S
C2798 C2793 1.363 . S
C2798 C2797 1.415 . S
C2799 H2775 0.951 . S
C2799 C2800 1.366 . S
C2799 C2801 1.388 . S
C2800 C2799 1.366 . S
C2800 C2804 1.385 . S
C2801 H2776 0.951 . S
C2801 C2799 1.388 . S
C2801 C2802 1.366 . S
C2802 C2801 1.366 . S
C2802 C2803 1.414 . S
C2802 C2805 1.499 . S
C2803 H2777 0.950 . S
C2803 C2802 1.414 . S
C2803 C2804 1.374 . S
C2804 H2778 0.950 . S
C2804 C2800 1.385 . S
C2804 C2803 1.374 . S
C2805 C2802 1.499 . S
C2805 C2806 1.373 . S
C2805 C2807 1.389 . S
C2806 H2779 0.950 . S
C2806 C2792 1.377 . S
C2806 C2805 1.373 . S
C2807 C2791 1.377 . S
C2807 C2805 1.389 . S
C2807 C2808 1.524 . S
C2808 C2807 1.524 . S
C2808 C2809 1.397 . S
C2808 C2813 1.363 . S
C2809 H2780 0.950 . S
C2809 C2808 1.397 . S
C2809 C2810 1.334 . S
C2810 H2781 0.950 . S
C2810 C2809 1.334 . S
C2810 C2811 1.287 . S
C2811 C2810 1.287 . S
C2811 C2812 1.524 . S
C2811 H2814 0.999 . S
C2812 H2782 0.950 . S
C2812 C2811 1.524 . S
C2812 C2813 1.415 . S
C2813 H2783 0.950 . S
C2813 C2808 1.363 . S
C2813 C2812 1.415 . S
H2814 C2811 0.999 . S
H2815 C2796 0.913 . S
H2816 C2834 0.951 . S
H2817 C2836 0.951 . S
H2818 C2838 0.950 . S
H2819 C2839 0.950 . S
H2820 C2841 0.950 . S
H2821 C2844 0.950 . S
H2822 C2845 0.950 . S
H2823 C2847 0.950 . S
H2824 C2848 0.950 . S
H2825 C2849 0.951 . S
H2826 C2851 0.951 . S
H2827 C2853 0.950 . S
H2828 C2854 0.950 . S
H2829 C2856 0.950 . S
H2830 C2859 0.950 . S
H2831 C2860 0.950 . S
H2832 C2862 0.950 . S
H2833 C2863 0.950 . S
C2834 H2816 0.951 . S
C2834 C2835 1.366 . S
C2834 C2836 1.388 . S
C2835 C2834 1.366 . S
C2835 C2839 1.385 . S
C2836 H2817 0.951 . S
C2836 C2834 1.388 . S
C2836 C2837 1.366 . S
C2837 C2836 1.366 . S
C2837 C2838 1.414 . S
C2837 C2840 1.499 . S
C2838 H2818 0.950 . S
C2838 C2837 1.414 . S
C2838 C2839 1.374 . S
C2839 H2819 0.950 . S
C2839 C2835 1.385 . S
C2839 C2838 1.374 . S
C2840 C2837 1.499 . S
C2840 C2841 1.373 . S
C2840 C2842 1.389 . S
C2841 H2820 0.950 . S
C2841 C2840 1.373 . S
C2841 C2857 1.377 . S
C2842 C2840 1.389 . S
C2842 C2843 1.524 . S
C2842 C2856 1.377 . S
C2843 C2842 1.524 . S
C2843 C2844 1.397 . S
C2843 C2848 1.363 . S
C2844 H2821 0.950 . S
C2844 C2843 1.397 . S
C2844 C2845 1.334 . S
C2845 H2822 0.950 . S
C2845 C2844 1.334 . S
C2845 C2846 1.287 . S
C2846 C2845 1.287 . S
C2846 C2847 1.524 . S
C2846 H2865 0.913 . S
C2847 H2823 0.950 . S
C2847 C2846 1.524 . S
C2847 C2848 1.415 . S
C2848 H2824 0.950 . S
C2848 C2843 1.363 . S
C2848 C2847 1.415 . S
C2849 H2825 0.951 . S
C2849 C2850 1.366 . S
C2849 C2851 1.388 . S
C2850 C2849 1.366 . S
C2850 C2854 1.385 . S
C2851 H2826 0.951 . S
C2851 C2849 1.388 . S
C2851 C2852 1.366 . S
C2852 C2851 1.366 . S
C2852 C2853 1.414 . S
C2852 C2855 1.499 . S
C2853 H2827 0.950 . S
C2853 C2852 1.414 . S
C2853 C2854 1.374 . S
C2854 H2828 0.950 . S
C2854 C2850 1.385 . S
C2854 C2853 1.374 . S
C2855 C2852 1.499 . S
C2855 C2856 1.373 . S
C2855 C2857 1.389 . S
C2856 H2829 0.950 . S
C2856 C2842 1.377 . S
C2856 C2855 1.373 . S
C2857 C2841 1.377 . S
C2857 C2855 1.389 . S
C2857 C2858 1.524 . S
C2858 C2857 1.524 . S
C2858 C2859 1.397 . S
C2858 C2863 1.363 . S
C2859 H2830 0.950 . S
C2859 C2858 1.397 . S
C2859 C2860 1.334 . S
C2860 H2831 0.950 . S
C2860 C2859 1.334 . S
C2860 C2861 1.287 . S
C2861 C2860 1.287 . S
C2861 C2862 1.524 . S
C2861 H2864 0.999 . S
C2862 H2832 0.950 . S
C2862 C2861 1.524 . S
C2862 C2863 1.415 . S
C2863 H2833 0.950 . S
C2863 C2858 1.363 . S
C2863 C2862 1.415 . S
H2864 C2861 0.999 . S
H2865 C2846 0.913 . S
H2866 C2884 0.951 . S
H2867 C2886 0.951 . S
H2868 C2888 0.950 . S
H2869 C2889 0.950 . S
H2870 C2891 0.950 . S
H2871 C2894 0.950 . S
H2872 C2895 0.950 . S
H2873 C2897 0.950 . S
H2874 C2898 0.950 . S
H2875 C2899 0.951 . S
H2876 C2901 0.951 . S
H2877 C2903 0.950 . S
H2878 C2904 0.950 . S
H2879 C2906 0.950 . S
H2880 C2909 0.950 . S
H2881 C2910 0.950 . S
H2882 C2912 0.950 . S
H2883 C2913 0.950 . S
C2884 H2866 0.951 . S
C2884 C2885 1.366 . S
C2884 C2886 1.388 . S
C2885 C2884 1.366 . S
C2885 C2889 1.385 . S
C2886 H2867 0.951 . S
C2886 C2884 1.388 . S
C2886 C2887 1.366 . S
C2887 C2886 1.366 . S
C2887 C2888 1.414 . S
C2887 C2890 1.499 . S
C2888 H2868 0.950 . S
C2888 C2887 1.414 . S
C2888 C2889 1.374 . S
C2889 H2869 0.950 . S
C2889 C2885 1.385 . S
C2889 C2888 1.374 . S
C2890 C2887 1.499 . S
C2890 C2891 1.373 . S
C2890 C2892 1.389 . S
C2891 H2870 0.950 . S
C2891 C2890 1.373 . S
C2891 C2907 1.377 . S
C2892 C2890 1.389 . S
C2892 C2893 1.524 . S
C2892 C2906 1.377 . S
C2893 C2892 1.524 . S
C2893 C2894 1.397 . S
C2893 C2898 1.363 . S
C2894 H2871 0.950 . S
C2894 C2893 1.397 . S
C2894 C2895 1.334 . S
C2895 H2872 0.950 . S
C2895 C2894 1.334 . S
C2895 C2896 1.287 . S
C2896 C2895 1.287 . S
C2896 C2897 1.524 . S
C2896 H2915 0.913 . S
C2897 H2873 0.950 . S
C2897 C2896 1.524 . S
C2897 C2898 1.415 . S
C2898 H2874 0.950 . S
C2898 C2893 1.363 . S
C2898 C2897 1.415 . S
C2899 H2875 0.951 . S
C2899 C2900 1.366 . S
C2899 C2901 1.388 . S
C2900 C2899 1.366 . S
C2900 C2904 1.385 . S
C2901 H2876 0.951 . S
C2901 C2899 1.388 . S
C2901 C2902 1.366 . S
C2902 C2901 1.366 . S
C2902 C2903 1.414 . S
C2902 C2905 1.499 . S
C2903 H2877 0.950 . S
C2903 C2902 1.414 . S
C2903 C2904 1.374 . S
C2904 H2878 0.950 . S
C2904 C2900 1.385 . S
C2904 C2903 1.374 . S
C2905 C2902 1.499 . S
C2905 C2906 1.373 . S
C2905 C2907 1.389 . S
C2906 H2879 0.950 . S
C2906 C2892 1.377 . S
C2906 C2905 1.373 . S
C2907 C2891 1.377 . S
C2907 C2905 1.389 . S
C2907 C2908 1.524 . S
C2908 C2907 1.524 . S
C2908 C2909 1.397 . S
C2908 C2913 1.363 . S
C2909 H2880 0.950 . S
C2909 C2908 1.397 . S
C2909 C2910 1.334 . S
C2910 H2881 0.950 . S
C2910 C2909 1.334 . S
C2910 C2911 1.287 . S
C2911 C2910 1.287 . S
C2911 C2912 1.524 . S
C2911 H2914 0.999 . S
C2912 H2882 0.950 . S
C2912 C2911 1.524 . S
C2912 C2913 1.415 . S
C2913 H2883 0.950 . S
C2913 C2908 1.363 . S
C2913 C2912 1.415 . S
H2914 C2911 0.999 . S
H2915 C2896 0.913 . S
H2916 C2934 0.951 . S
H2917 C2936 0.951 . S
H2918 C2938 0.950 . S
H2919 C2939 0.950 . S
H2920 C2941 0.950 . S
H2921 C2944 0.950 . S
H2922 C2945 0.950 . S
H2923 C2947 0.950 . S
H2924 C2948 0.950 . S
H2925 C2949 0.951 . S
H2926 C2951 0.951 . S
H2927 C2953 0.950 . S
H2928 C2954 0.950 . S
H2929 C2956 0.950 . S
H2930 C2959 0.950 . S
H2931 C2960 0.950 . S
H2932 C2962 0.950 . S
H2933 C2963 0.950 . S
C2934 H2916 0.951 . S
C2934 C2935 1.366 . S
C2934 C2936 1.388 . S
C2935 C2934 1.366 . S
C2935 C2939 1.385 . S
C2936 H2917 0.951 . S
C2936 C2934 1.388 . S
C2936 C2937 1.366 . S
C2937 C2936 1.366 . S
C2937 C2938 1.414 . S
C2937 C2940 1.499 . S
C2938 H2918 0.950 . S
C2938 C2937 1.414 . S
C2938 C2939 1.374 . S
C2939 H2919 0.950 . S
C2939 C2935 1.385 . S
C2939 C2938 1.374 . S
C2940 C2937 1.499 . S
C2940 C2941 1.373 . S
C2940 C2942 1.389 . S
C2941 H2920 0.950 . S
C2941 C2940 1.373 . S
C2941 C2957 1.377 . S
C2942 C2940 1.389 . S
C2942 C2943 1.524 . S
C2942 C2956 1.377 . S
C2943 C2942 1.524 . S
C2943 C2944 1.397 . S
C2943 C2948 1.363 . S
C2944 H2921 0.950 . S
C2944 C2943 1.397 . S
C2944 C2945 1.334 . S
C2945 H2922 0.950 . S
C2945 C2944 1.334 . S
C2945 C2946 1.287 . S
C2946 C2945 1.287 . S
C2946 C2947 1.524 . S
C2946 H2965 0.913 . S
C2947 H2923 0.950 . S
C2947 C2946 1.524 . S
C2947 C2948 1.415 . S
C2948 H2924 0.950 . S
C2948 C2943 1.363 . S
C2948 C2947 1.415 . S
C2949 H2925 0.951 . S
C2949 C2950 1.366 . S
C2949 C2951 1.388 . S
C2950 C2949 1.366 . S
C2950 C2954 1.385 . S
C2951 H2926 0.951 . S
C2951 C2949 1.388 . S
C2951 C2952 1.366 . S
C2952 C2951 1.366 . S
C2952 C2953 1.414 . S
C2952 C2955 1.499 . S
C2953 H2927 0.950 . S
C2953 C2952 1.414 . S
C2953 C2954 1.374 . S
C2954 H2928 0.950 . S
C2954 C2950 1.385 . S
C2954 C2953 1.374 . S
C2955 C2952 1.499 . S
C2955 C2956 1.373 . S
C2955 C2957 1.389 . S
C2956 H2929 0.950 . S
C2956 C2942 1.377 . S
C2956 C2955 1.373 . S
C2957 C2941 1.377 . S
C2957 C2955 1.389 . S
C2957 C2958 1.524 . S
C2958 C2957 1.524 . S
C2958 C2959 1.397 . S
C2958 C2963 1.363 . S
C2959 H2930 0.950 . S
C2959 C2958 1.397 . S
C2959 C2960 1.334 . S
C2960 H2931 0.950 . S
C2960 C2959 1.334 . S
C2960 C2961 1.287 . S
C2961 C2960 1.287 . S
C2961 C2962 1.524 . S
C2961 H2964 0.999 . S
C2962 H2932 0.950 . S
C2962 C2961 1.524 . S
C2962 C2963 1.415 . S
C2963 H2933 0.950 . S
C2963 C2958 1.363 . S
C2963 C2962 1.415 . S
H2964 C2961 0.999 . S
H2965 C2946 0.913 . S
H2966 C2984 0.951 . S
H2967 C2986 0.951 . S
H2968 C2988 0.950 . S
H2969 C2989 0.950 . S
H2970 C2991 0.950 . S
H2971 C2994 0.950 . S
H2972 C2995 0.950 . S
H2973 C2997 0.950 . S
H2974 C2998 0.950 . S
H2975 C2999 0.951 . S
H2976 C3001 0.951 . S
H2977 C3003 0.950 . S
H2978 C3004 0.950 . S
H2979 C3006 0.950 . S
H2980 C3009 0.950 . S
H2981 C3010 0.950 . S
H2982 C3012 0.950 . S
H2983 C3013 0.950 . S
C2984 H2966 0.951 . S
C2984 C2985 1.366 . S
C2984 C2986 1.388 . S
C2985 C2984 1.366 . S
C2985 C2989 1.385 . S
C2986 H2967 0.951 . S
C2986 C2984 1.388 . S
C2986 C2987 1.366 . S
C2987 C2986 1.366 . S
C2987 C2988 1.414 . S
C2987 C2990 1.499 . S
C2988 H2968 0.950 . S
C2988 C2987 1.414 . S
C2988 C2989 1.374 . S
C2989 H2969 0.950 . S
C2989 C2985 1.385 . S
C2989 C2988 1.374 . S
C2990 C2987 1.499 . S
C2990 C2991 1.373 . S
C2990 C2992 1.389 . S
C2991 H2970 0.950 . S
C2991 C2990 1.373 . S
C2991 C3007 1.377 . S
C2992 C2990 1.389 . S
C2992 C2993 1.524 . S
C2992 C3006 1.377 . S
C2993 C2992 1.524 . S
C2993 C2994 1.397 . S
C2993 C2998 1.363 . S
C2994 H2971 0.950 . S
C2994 C2993 1.397 . S
C2994 C2995 1.334 . S
C2995 H2972 0.950 . S
C2995 C2994 1.334 . S
C2995 C2996 1.287 . S
C2996 C2995 1.287 . S
C2996 C2997 1.524 . S
C2996 H3015 0.913 . S
C2997 H2973 0.950 . S
C2997 C2996 1.524 . S
C2997 C2998 1.415 . S
C2998 H2974 0.950 . S
C2998 C2993 1.363 . S
C2998 C2997 1.415 . S
C2999 H2975 0.951 . S
C2999 C3000 1.366 . S
C2999 C3001 1.388 . S
C3000 C2999 1.366 . S
C3000 C3004 1.385 . S
C3001 H2976 0.951 . S
C3001 C2999 1.388 . S
C3001 C3002 1.366 . S
C3002 C3001 1.366 . S
C3002 C3003 1.414 . S
C3002 C3005 1.499 . S
C3003 H2977 0.950 . S
C3003 C3002 1.414 . S
C3003 C3004 1.374 . S
C3004 H2978 0.950 . S
C3004 C3000 1.385 . S
C3004 C3003 1.374 . S
C3005 C3002 1.499 . S
C3005 C3006 1.373 . S
C3005 C3007 1.389 . S
C3006 H2979 0.950 . S
C3006 C2992 1.377 . S
C3006 C3005 1.373 . S
C3007 C2991 1.377 . S
C3007 C3005 1.389 . S
C3007 C3008 1.524 . S
C3008 C3007 1.524 . S
C3008 C3009 1.397 . S
C3008 C3013 1.363 . S
C3009 H2980 0.950 . S
C3009 C3008 1.397 . S
C3009 C3010 1.334 . S
C3010 H2981 0.950 . S
C3010 C3009 1.334 . S
C3010 C3011 1.287 . S
C3011 C3010 1.287 . S
C3011 C3012 1.524 . S
C3011 H3014 0.999 . S
C3012 H2982 0.950 . S
C3012 C3011 1.524 . S
C3012 C3013 1.415 . S
C3013 H2983 0.950 . S
C3013 C3008 1.363 . S
C3013 C3012 1.415 . S
H3014 C3011 0.999 . S
H3015 C2996 0.913 . S
H3016 C3034 0.951 . S
H3017 C3036 0.951 . S
H3018 C3038 0.950 . S
H3019 C3039 0.950 . S
H3020 C3041 0.950 . S
H3021 C3044 0.950 . S
H3022 C3045 0.950 . S
H3023 C3047 0.950 . S
H3024 C3048 0.950 . S
H3025 C3049 0.951 . S
H3026 C3051 0.951 . S
H3027 C3053 0.950 . S
H3028 C3054 0.950 . S
H3029 C3056 0.950 . S
H3030 C3059 0.950 . S
H3031 C3060 0.950 . S
H3032 C3062 0.950 . S
H3033 C3063 0.950 . S
C3034 H3016 0.951 . S
C3034 C3035 1.366 . S
C3034 C3036 1.388 . S
C3035 C3034 1.366 . S
C3035 C3039 1.385 . S
C3036 H3017 0.951 . S
C3036 C3034 1.388 . S
C3036 C3037 1.366 . S
C3037 C3036 1.366 . S
C3037 C3038 1.414 . S
C3037 C3040 1.499 . S
C3038 H3018 0.950 . S
C3038 C3037 1.414 . S
C3038 C3039 1.374 . S
C3039 H3019 0.950 . S
C3039 C3035 1.385 . S
C3039 C3038 1.374 . S
C3040 C3037 1.499 . S
C3040 C3041 1.373 . S
C3040 C3042 1.389 . S
C3041 H3020 0.950 . S
C3041 C3040 1.373 . S
C3041 C3057 1.377 . S
C3042 C3040 1.389 . S
C3042 C3043 1.524 . S
C3042 C3056 1.377 . S
C3043 C3042 1.524 . S
C3043 C3044 1.397 . S
C3043 C3048 1.363 . S
C3044 H3021 0.950 . S
C3044 C3043 1.397 . S
C3044 C3045 1.334 . S
C3045 H3022 0.950 . S
C3045 C3044 1.334 . S
C3045 C3046 1.287 . S
C3046 C3045 1.287 . S
C3046 C3047 1.524 . S
C3046 H3065 0.913 . S
C3047 H3023 0.950 . S
C3047 C3046 1.524 . S
C3047 C3048 1.415 . S
C3048 H3024 0.950 . S
C3048 C3043 1.363 . S
C3048 C3047 1.415 . S
C3049 H3025 0.951 . S
C3049 C3050 1.366 . S
C3049 C3051 1.388 . S
C3050 C3049 1.366 . S
C3050 C3054 1.385 . S
C3051 H3026 0.951 . S
C3051 C3049 1.388 . S
C3051 C3052 1.366 . S
C3052 C3051 1.366 . S
C3052 C3053 1.414 . S
C3052 C3055 1.499 . S
C3053 H3027 0.950 . S
C3053 C3052 1.414 . S
C3053 C3054 1.374 . S
C3054 H3028 0.950 . S
C3054 C3050 1.385 . S
C3054 C3053 1.374 . S
C3055 C3052 1.499 . S
C3055 C3056 1.373 . S
C3055 C3057 1.389 . S
C3056 H3029 0.950 . S
C3056 C3042 1.377 . S
C3056 C3055 1.373 . S
C3057 C3041 1.377 . S
C3057 C3055 1.389 . S
C3057 C3058 1.524 . S
C3058 C3057 1.524 . S
C3058 C3059 1.397 . S
C3058 C3063 1.363 . S
C3059 H3030 0.950 . S
C3059 C3058 1.397 . S
C3059 C3060 1.334 . S
C3060 H3031 0.950 . S
C3060 C3059 1.334 . S
C3060 C3061 1.287 . S
C3061 C3060 1.287 . S
C3061 C3062 1.524 . S
C3061 H3064 0.999 . S
C3062 H3032 0.950 . S
C3062 C3061 1.524 . S
C3062 C3063 1.415 . S
C3063 H3033 0.950 . S
C3063 C3058 1.363 . S
C3063 C3062 1.415 . S
H3064 C3061 0.999 . S
H3065 C3046 0.913 . S
H3066 C3084 0.951 . S
H3067 C3086 0.951 . S
H3068 C3088 0.950 . S
H3069 C3089 0.950 . S
H3070 C3091 0.950 . S
H3071 C3094 0.950 . S
H3072 C3095 0.950 . S
H3073 C3097 0.950 . S
H3074 C3098 0.950 . S
H3075 C3099 0.951 . S
H3076 C3101 0.951 . S
H3077 C3103 0.950 . S
H3078 C3104 0.950 . S
H3079 C3106 0.950 . S
H3080 C3109 0.950 . S
H3081 C3110 0.950 . S
H3082 C3112 0.950 . S
H3083 C3113 0.950 . S
C3084 H3066 0.951 . S
C3084 C3085 1.366 . S
C3084 C3086 1.388 . S
C3085 C3084 1.366 . S
C3085 C3089 1.385 . S
C3086 H3067 0.951 . S
C3086 C3084 1.388 . S
C3086 C3087 1.366 . S
C3087 C3086 1.366 . S
C3087 C3088 1.414 . S
C3087 C3090 1.499 . S
C3088 H3068 0.950 . S
C3088 C3087 1.414 . S
C3088 C3089 1.374 . S
C3089 H3069 0.950 . S
C3089 C3085 1.385 . S
C3089 C3088 1.374 . S
C3090 C3087 1.499 . S
C3090 C3091 1.373 . S
C3090 C3092 1.389 . S
C3091 H3070 0.950 . S
C3091 C3090 1.373 . S
C3091 C3107 1.377 . S
C3092 C3090 1.389 . S
C3092 C3093 1.524 . S
C3092 C3106 1.377 . S
C3093 C3092 1.524 . S
C3093 C3094 1.397 . S
C3093 C3098 1.363 . S
C3094 H3071 0.950 . S
C3094 C3093 1.397 . S
C3094 C3095 1.334 . S
C3095 H3072 0.950 . S
C3095 C3094 1.334 . S
C3095 C3096 1.287 . S
C3096 C3095 1.287 . S
C3096 C3097 1.524 . S
C3096 H3115 0.913 . S
C3097 H3073 0.950 . S
C3097 C3096 1.524 . S
C3097 C3098 1.415 . S
C3098 H3074 0.950 . S
C3098 C3093 1.363 . S
C3098 C3097 1.415 . S
C3099 H3075 0.951 . S
C3099 C3100 1.366 . S
C3099 C3101 1.388 . S
C3100 C3099 1.366 . S
C3100 C3104 1.385 . S
C3101 H3076 0.951 . S
C3101 C3099 1.388 . S
C3101 C3102 1.366 . S
C3102 C3101 1.366 . S
C3102 C3103 1.414 . S
C3102 C3105 1.499 . S
C3103 H3077 0.950 . S
C3103 C3102 1.414 . S
C3103 C3104 1.374 . S
C3104 H3078 0.950 . S
C3104 C3100 1.385 . S
C3104 C3103 1.374 . S
C3105 C3102 1.499 . S
C3105 C3106 1.373 . S
C3105 C3107 1.389 . S
C3106 H3079 0.950 . S
C3106 C3092 1.377 . S
C3106 C3105 1.373 . S
C3107 C3091 1.377 . S
C3107 C3105 1.389 . S
C3107 C3108 1.524 . S
C3108 C3107 1.524 . S
C3108 C3109 1.397 . S
C3108 C3113 1.363 . S
C3109 H3080 0.950 . S
C3109 C3108 1.397 . S
C3109 C3110 1.334 . S
C3110 H3081 0.950 . S
C3110 C3109 1.334 . S
C3110 C3111 1.287 . S
C3111 C3110 1.287 . S
C3111 C3112 1.524 . S
C3111 H3114 0.999 . S
C3112 H3082 0.950 . S
C3112 C3111 1.524 . S
C3112 C3113 1.415 . S
C3113 H3083 0.950 . S
C3113 C3108 1.363 . S
C3113 C3112 1.415 . S
H3114 C3111 0.999 . S
H3115 C3096 0.913 . S
H3116 C3134 0.951 . S
H3117 C3136 0.951 . S
H3118 C3138 0.950 . S
H3119 C3139 0.950 . S
H3120 C3141 0.950 . S
H3121 C3144 0.950 . S
H3122 C3145 0.950 . S
H3123 C3147 0.950 . S
H3124 C3148 0.950 . S
H3125 C3149 0.951 . S
H3126 C3151 0.951 . S
H3127 C3153 0.950 . S
H3128 C3154 0.950 . S
H3129 C3156 0.950 . S
H3130 C3159 0.950 . S
H3131 C3160 0.950 . S
H3132 C3162 0.950 . S
H3133 C3163 0.950 . S
C3134 H3116 0.951 . S
C3134 C3135 1.366 . S
C3134 C3136 1.388 . S
C3135 C3134 1.366 . S
C3135 C3139 1.385 . S
C3136 H3117 0.951 . S
C3136 C3134 1.388 . S
C3136 C3137 1.366 . S
C3137 C3136 1.366 . S
C3137 C3138 1.414 . S
C3137 C3140 1.499 . S
C3138 H3118 0.950 . S
C3138 C3137 1.414 . S
C3138 C3139 1.374 . S
C3139 H3119 0.950 . S
C3139 C3135 1.385 . S
C3139 C3138 1.374 . S
C3140 C3137 1.499 . S
C3140 C3141 1.373 . S
C3140 C3142 1.389 . S
C3141 H3120 0.950 . S
C3141 C3140 1.373 . S
C3141 C3157 1.377 . S
C3142 C3140 1.389 . S
C3142 C3143 1.524 . S
C3142 C3156 1.377 . S
C3143 C3142 1.524 . S
C3143 C3144 1.397 . S
C3143 C3148 1.363 . S
C3144 H3121 0.950 . S
C3144 C3143 1.397 . S
C3144 C3145 1.334 . S
C3145 H3122 0.950 . S
C3145 C3144 1.334 . S
C3145 C3146 1.287 . S
C3146 C3145 1.287 . S
C3146 C3147 1.524 . S
C3146 H3165 0.913 . S
C3147 H3123 0.950 . S
C3147 C3146 1.524 . S
C3147 C3148 1.415 . S
C3148 H3124 0.950 . S
C3148 C3143 1.363 . S
C3148 C3147 1.415 . S
C3149 H3125 0.951 . S
C3149 C3150 1.366 . S
C3149 C3151 1.388 . S
C3150 C3149 1.366 . S
C3150 C3154 1.385 . S
C3151 H3126 0.951 . S
C3151 C3149 1.388 . S
C3151 C3152 1.366 . S
C3152 C3151 1.366 . S
C3152 C3153 1.414 . S
C3152 C3155 1.499 . S
C3153 H3127 0.950 . S
C3153 C3152 1.414 . S
C3153 C3154 1.374 . S
C3154 H3128 0.950 . S
C3154 C3150 1.385 . S
C3154 C3153 1.374 . S
C3155 C3152 1.499 . S
C3155 C3156 1.373 . S
C3155 C3157 1.389 . S
C3156 H3129 0.950 . S
C3156 C3142 1.377 . S
C3156 C3155 1.373 . S
C3157 C3141 1.377 . S
C3157 C3155 1.389 . S
C3157 C3158 1.524 . S
C3158 C3157 1.524 . S
C3158 C3159 1.397 . S
C3158 C3163 1.363 . S
C3159 H3130 0.950 . S
C3159 C3158 1.397 . S
C3159 C3160 1.334 . S
C3160 H3131 0.950 . S
C3160 C3159 1.334 . S
C3160 C3161 1.287 . S
C3161 C3160 1.287 . S
C3161 C3162 1.524 . S
C3161 H3164 0.999 . S
C3162 H3132 0.950 . S
C3162 C3161 1.524 . S
C3162 C3163 1.415 . S
C3163 H3133 0.950 . S
C3163 C3158 1.363 . S
C3163 C3162 1.415 . S
H3164 C3161 0.999 . S
H3165 C3146 0.913 . S
H3166 C3184 0.951 . S
H3167 C3186 0.951 . S
H3168 C3188 0.950 . S
H3169 C3189 0.950 . S
H3170 C3191 0.950 . S
H3171 C3194 0.950 . S
H3172 C3195 0.950 . S
H3173 C3197 0.950 . S
H3174 C3198 0.950 . S
H3175 C3199 0.951 . S
H3176 C3201 0.951 . S
H3177 C3203 0.950 . S
H3178 C3204 0.950 . S
H3179 C3206 0.950 . S
H3180 C3209 0.950 . S
H3181 C3210 0.950 . S
H3182 C3212 0.950 . S
H3183 C3213 0.950 . S
C3184 H3166 0.951 . S
C3184 C3185 1.366 . S
C3184 C3186 1.388 . S
C3185 C3184 1.366 . S
C3185 C3189 1.385 . S
C3186 H3167 0.951 . S
C3186 C3184 1.388 . S
C3186 C3187 1.366 . S
C3187 C3186 1.366 . S
C3187 C3188 1.414 . S
C3187 C3190 1.499 . S
C3188 H3168 0.950 . S
C3188 C3187 1.414 . S
C3188 C3189 1.374 . S
C3189 H3169 0.950 . S
C3189 C3185 1.385 . S
C3189 C3188 1.374 . S
C3190 C3187 1.499 . S
C3190 C3191 1.373 . S
C3190 C3192 1.389 . S
C3191 H3170 0.950 . S
C3191 C3190 1.373 . S
C3191 C3207 1.377 . S
C3192 C3190 1.389 . S
C3192 C3193 1.524 . S
C3192 C3206 1.377 . S
C3193 C3192 1.524 . S
C3193 C3194 1.397 . S
C3193 C3198 1.363 . S
C3194 H3171 0.950 . S
C3194 C3193 1.397 . S
C3194 C3195 1.334 . S
C3195 H3172 0.950 . S
C3195 C3194 1.334 . S
C3195 C3196 1.287 . S
C3196 C3195 1.287 . S
C3196 C3197 1.524 . S
C3196 H3215 0.913 . S
C3197 H3173 0.950 . S
C3197 C3196 1.524 . S
C3197 C3198 1.415 . S
C3198 H3174 0.950 . S
C3198 C3193 1.363 . S
C3198 C3197 1.415 . S
C3199 H3175 0.951 . S
C3199 C3200 1.366 . S
C3199 C3201 1.388 . S
C3200 C3199 1.366 . S
C3200 C3204 1.385 . S
C3201 H3176 0.951 . S
C3201 C3199 1.388 . S
C3201 C3202 1.366 . S
C3202 C3201 1.366 . S
C3202 C3203 1.414 . S
C3202 C3205 1.499 . S
C3203 H3177 0.950 . S
C3203 C3202 1.414 . S
C3203 C3204 1.374 . S
C3204 H3178 0.950 . S
C3204 C3200 1.385 . S
C3204 C3203 1.374 . S
C3205 C3202 1.499 . S
C3205 C3206 1.373 . S
C3205 C3207 1.389 . S
C3206 H3179 0.950 . S
C3206 C3192 1.377 . S
C3206 C3205 1.373 . S
C3207 C3191 1.377 . S
C3207 C3205 1.389 . S
C3207 C3208 1.524 . S
C3208 C3207 1.524 . S
C3208 C3209 1.397 . S
C3208 C3213 1.363 . S
C3209 H3180 0.950 . S
C3209 C3208 1.397 . S
C3209 C3210 1.334 . S
C3210 H3181 0.950 . S
C3210 C3209 1.334 . S
C3210 C3211 1.287 . S
C3211 C3210 1.287 . S
C3211 C3212 1.524 . S
C3211 H3214 0.999 . S
C3212 H3182 0.950 . S
C3212 C3211 1.524 . S
C3212 C3213 1.415 . S
C3213 H3183 0.950 . S
C3213 C3208 1.363 . S
C3213 C3212 1.415 . S
H3214 C3211 0.999 . S
H3215 C3196 0.913 . S
H3216 C3234 0.951 . S
H3217 C3236 0.951 . S
H3218 C3238 0.950 . S
H3219 C3239 0.950 . S
H3220 C3241 0.950 . S
H3221 C3244 0.950 . S
H3222 C3245 0.950 . S
H3223 C3247 0.950 . S
H3224 C3248 0.950 . S
H3225 C3249 0.951 . S
H3226 C3251 0.951 . S
H3227 C3253 0.950 . S
H3228 C3254 0.950 . S
H3229 C3256 0.950 . S
H3230 C3259 0.950 . S
H3231 C3260 0.950 . S
H3232 C3262 0.950 . S
H3233 C3263 0.950 . S
C3234 H3216 0.951 . S
C3234 C3235 1.366 . S
C3234 C3236 1.388 . S
C3235 C3234 1.366 . S
C3235 C3239 1.385 . S
C3236 H3217 0.951 . S
C3236 C3234 1.388 . S
C3236 C3237 1.366 . S
C3237 C3236 1.366 . S
C3237 C3238 1.414 . S
C3237 C3240 1.499 . S
C3238 H3218 0.950 . S
C3238 C3237 1.414 . S
C3238 C3239 1.374 . S
C3239 H3219 0.950 . S
C3239 C3235 1.385 . S
C3239 C3238 1.374 . S
C3240 C3237 1.499 . S
C3240 C3241 1.373 . S
C3240 C3242 1.389 . S
C3241 H3220 0.950 . S
C3241 C3240 1.373 . S
C3241 C3257 1.377 . S
C3242 C3240 1.389 . S
C3242 C3243 1.524 . S
C3242 C3256 1.377 . S
C3243 C3242 1.524 . S
C3243 C3244 1.397 . S
C3243 C3248 1.363 . S
C3244 H3221 0.950 . S
C3244 C3243 1.397 . S
C3244 C3245 1.334 . S
C3245 H3222 0.950 . S
C3245 C3244 1.334 . S
C3245 C3246 1.287 . S
C3246 C3245 1.287 . S
C3246 C3247 1.524 . S
C3246 H3265 0.913 . S
C3247 H3223 0.950 . S
C3247 C3246 1.524 . S
C3247 C3248 1.415 . S
C3248 H3224 0.950 . S
C3248 C3243 1.363 . S
C3248 C3247 1.415 . S
C3249 H3225 0.951 . S
C3249 C3250 1.366 . S
C3249 C3251 1.388 . S
C3250 C3249 1.366 . S
C3250 C3254 1.385 . S
C3251 H3226 0.951 . S
C3251 C3249 1.388 . S
C3251 C3252 1.366 . S
C3252 C3251 1.366 . S
C3252 C3253 1.414 . S
C3252 C3255 1.499 . S
C3253 H3227 0.950 . S
C3253 C3252 1.414 . S
C3253 C3254 1.374 . S
C3254 H3228 0.950 . S
C3254 C3250 1.385 . S
C3254 C3253 1.374 . S
C3255 C3252 1.499 . S
C3255 C3256 1.373 . S
C3255 C3257 1.389 . S
C3256 H3229 0.950 . S
C3256 C3242 1.377 . S
C3256 C3255 1.373 . S
C3257 C3241 1.377 . S
C3257 C3255 1.389 . S
C3257 C3258 1.524 . S
C3258 C3257 1.524 . S
C3258 C3259 1.397 . S
C3258 C3263 1.363 . S
C3259 H3230 0.950 . S
C3259 C3258 1.397 . S
C3259 C3260 1.334 . S
C3260 H3231 0.950 . S
C3260 C3259 1.334 . S
C3260 C3261 1.287 . S
C3261 C3260 1.287 . S
C3261 C3262 1.524 . S
C3261 H3264 0.999 . S
C3262 H3232 0.950 . S
C3262 C3261 1.524 . S
C3262 C3263 1.415 . S
C3263 H3233 0.950 . S
C3263 C3258 1.363 . S
C3263 C3262 1.415 . S
H3264 C3261 0.999 . S
H3265 C3246 0.913 . S
H3266 C3284 0.951 . S
H3267 C3286 0.951 . S
H3268 C3288 0.950 . S
H3269 C3289 0.950 . S
H3270 C3291 0.950 . S
H3271 C3294 0.950 . S
H3272 C3295 0.950 . S
H3273 C3297 0.950 . S
H3274 C3298 0.950 . S
H3275 C3299 0.951 . S
H3276 C3301 0.951 . S
H3277 C3303 0.950 . S
H3278 C3304 0.950 . S
H3279 C3306 0.950 . S
H3280 C3309 0.950 . S
H3281 C3310 0.950 . S
H3282 C3312 0.950 . S
H3283 C3313 0.950 . S
C3284 H3266 0.951 . S
C3284 C3285 1.366 . S
C3284 C3286 1.388 . S
C3285 C3284 1.366 . S
C3285 C3289 1.385 . S
C3286 H3267 0.951 . S
C3286 C3284 1.388 . S
C3286 C3287 1.366 . S
C3287 C3286 1.366 . S
C3287 C3288 1.414 . S
C3287 C3290 1.499 . S
C3288 H3268 0.950 . S
C3288 C3287 1.414 . S
C3288 C3289 1.374 . S
C3289 H3269 0.950 . S
C3289 C3285 1.385 . S
C3289 C3288 1.374 . S
C3290 C3287 1.499 . S
C3290 C3291 1.373 . S
C3290 C3292 1.389 . S
C3291 H3270 0.950 . S
C3291 C3290 1.373 . S
C3291 C3307 1.377 . S
C3292 C3290 1.389 . S
C3292 C3293 1.524 . S
C3292 C3306 1.377 . S
C3293 C3292 1.524 . S
C3293 C3294 1.397 . S
C3293 C3298 1.363 . S
C3294 H3271 0.950 . S
C3294 C3293 1.397 . S
C3294 C3295 1.334 . S
C3295 H3272 0.950 . S
C3295 C3294 1.334 . S
C3295 C3296 1.287 . S
C3296 C3295 1.287 . S
C3296 C3297 1.524 . S
C3296 H3315 0.913 . S
C3297 H3273 0.950 . S
C3297 C3296 1.524 . S
C3297 C3298 1.415 . S
C3298 H3274 0.950 . S
C3298 C3293 1.363 . S
C3298 C3297 1.415 . S
C3299 H3275 0.951 . S
C3299 C3300 1.366 . S
C3299 C3301 1.388 . S
C3300 C3299 1.366 . S
C3300 C3304 1.385 . S
C3301 H3276 0.951 . S
C3301 C3299 1.388 . S
C3301 C3302 1.366 . S
C3302 C3301 1.366 . S
C3302 C3303 1.414 . S
C3302 C3305 1.499 . S
C3303 H3277 0.950 . S
C3303 C3302 1.414 . S
C3303 C3304 1.374 . S
C3304 H3278 0.950 . S
C3304 C3300 1.385 . S
C3304 C3303 1.374 . S
C3305 C3302 1.499 . S
C3305 C3306 1.373 . S
C3305 C3307 1.389 . S
C3306 H3279 0.950 . S
C3306 C3292 1.377 . S
C3306 C3305 1.373 . S
C3307 C3291 1.377 . S
C3307 C3305 1.389 . S
C3307 C3308 1.524 . S
C3308 C3307 1.524 . S
C3308 C3309 1.397 . S
C3308 C3313 1.363 . S
C3309 H3280 0.950 . S
C3309 C3308 1.397 . S
C3309 C3310 1.334 . S
C3310 H3281 0.950 . S
C3310 C3309 1.334 . S
C3310 C3311 1.287 . S
C3311 C3310 1.287 . S
C3311 C3312 1.524 . S
C3311 H3314 0.999 . S
C3312 H3282 0.950 . S
C3312 C3311 1.524 . S
C3312 C3313 1.415 . S
C3313 H3283 0.950 . S
C3313 C3308 1.363 . S
C3313 C3312 1.415 . S
H3314 C3311 0.999 . S
H3315 C3296 0.913 . S
H3316 C3334 0.951 . S
H3317 C3336 0.951 . S
H3318 C3338 0.950 . S
H3319 C3339 0.950 . S
H3320 C3341 0.950 . S
H3321 C3344 0.950 . S
H3322 C3345 0.950 . S
H3323 C3347 0.950 . S
H3324 C3348 0.950 . S
H3325 C3349 0.951 . S
H3326 C3351 0.951 . S
H3327 C3353 0.950 . S
H3328 C3354 0.950 . S
H3329 C3356 0.950 . S
H3330 C3359 0.950 . S
H3331 C3360 0.950 . S
H3332 C3362 0.950 . S
H3333 C3363 0.950 . S
C3334 H3316 0.951 . S
C3334 C3335 1.366 . S
C3334 C3336 1.388 . S
C3335 C3334 1.366 . S
C3335 C3339 1.385 . S
C3336 H3317 0.951 . S
C3336 C3334 1.388 . S
C3336 C3337 1.366 . S
C3337 C3336 1.366 . S
C3337 C3338 1.414 . S
C3337 C3340 1.499 . S
C3338 H3318 0.950 . S
C3338 C3337 1.414 . S
C3338 C3339 1.374 . S
C3339 H3319 0.950 . S
C3339 C3335 1.385 . S
C3339 C3338 1.374 . S
C3340 C3337 1.499 . S
C3340 C3341 1.373 . S
C3340 C3342 1.389 . S
C3341 H3320 0.950 . S
C3341 C3340 1.373 . S
C3341 C3357 1.377 . S
C3342 C3340 1.389 . S
C3342 C3343 1.524 . S
C3342 C3356 1.377 . S
C3343 C3342 1.524 . S
C3343 C3344 1.397 . S
C3343 C3348 1.363 . S
C3344 H3321 0.950 . S
C3344 C3343 1.397 . S
C3344 C3345 1.334 . S
C3345 H3322 0.950 . S
C3345 C3344 1.334 . S
C3345 C3346 1.287 . S
C3346 C3345 1.287 . S
C3346 C3347 1.524 . S
C3346 H3365 0.913 . S
C3347 H3323 0.950 . S
C3347 C3346 1.524 . S
C3347 C3348 1.415 . S
C3348 H3324 0.950 . S
C3348 C3343 1.363 . S
C3348 C3347 1.415 . S
C3349 H3325 0.951 . S
C3349 C3350 1.366 . S
C3349 C3351 1.388 . S
C3350 C3349 1.366 . S
C3350 C3354 1.385 . S
C3351 H3326 0.951 . S
C3351 C3349 1.388 . S
C3351 C3352 1.366 . S
C3352 C3351 1.366 . S
C3352 C3353 1.414 . S
C3352 C3355 1.499 . S
C3353 H3327 0.950 . S
C3353 C3352 1.414 . S
C3353 C3354 1.374 . S
C3354 H3328 0.950 . S
C3354 C3350 1.385 . S
C3354 C3353 1.374 . S
C3355 C3352 1.499 . S
C3355 C3356 1.373 . S
C3355 C3357 1.389 . S
C3356 H3329 0.950 . S
C3356 C3342 1.377 . S
C3356 C3355 1.373 . S
C3357 C3341 1.377 . S
C3357 C3355 1.389 . S
C3357 C3358 1.524 . S
C3358 C3357 1.524 . S
C3358 C3359 1.397 . S
C3358 C3363 1.363 . S
C3359 H3330 0.950 . S
C3359 C3358 1.397 . S
C3359 C3360 1.334 . S
C3360 H3331 0.950 . S
C3360 C3359 1.334 . S
C3360 C3361 1.287 . S
C3361 C3360 1.287 . S
C3361 C3362 1.524 . S
C3361 H3364 0.999 . S
C3362 H3332 0.950 . S
C3362 C3361 1.524 . S
C3362 C3363 1.415 . S
C3363 H3333 0.950 . S
C3363 C3358 1.363 . S
C3363 C3362 1.415 . S
H3364 C3361 0.999 . S
H3365 C3346 0.913 . S
H3366 C3384 0.951 . S
H3367 C3386 0.951 . S
H3368 C3388 0.950 . S
H3369 C3389 0.950 . S
H3370 C3391 0.950 . S
H3371 C3394 0.950 . S
H3372 C3395 0.950 . S
H3373 C3397 0.950 . S
H3374 C3398 0.950 . S
H3375 C3399 0.951 . S
H3376 C3401 0.951 . S
H3377 C3403 0.950 . S
H3378 C3404 0.950 . S
H3379 C3406 0.950 . S
H3380 C3409 0.950 . S
H3381 C3410 0.950 . S
H3382 C3412 0.950 . S
H3383 C3413 0.950 . S
C3384 H3366 0.951 . S
C3384 C3385 1.366 . S
C3384 C3386 1.388 . S
C3385 C3384 1.366 . S
C3385 C3389 1.385 . S
C3386 H3367 0.951 . S
C3386 C3384 1.388 . S
C3386 C3387 1.366 . S
C3387 C3386 1.366 . S
C3387 C3388 1.414 . S
C3387 C3390 1.499 . S
C3388 H3368 0.950 . S
C3388 C3387 1.414 . S
C3388 C3389 1.374 . S
C3389 H3369 0.950 . S
C3389 C3385 1.385 . S
C3389 C3388 1.374 . S
C3390 C3387 1.499 . S
C3390 C3391 1.373 . S
C3390 C3392 1.389 . S
C3391 H3370 0.950 . S
C3391 C3390 1.373 . S
C3391 C3407 1.377 . S
C3392 C3390 1.389 . S
C3392 C3393 1.524 . S
C3392 C3406 1.377 . S
C3393 C3392 1.524 . S
C3393 C3394 1.397 . S
C3393 C3398 1.363 . S
C3394 H3371 0.950 . S
C3394 C3393 1.397 . S
C3394 C3395 1.334 . S
C3395 H3372 0.950 . S
C3395 C3394 1.334 . S
C3395 C3396 1.287 . S
C3396 C3395 1.287 . S
C3396 C3397 1.524 . S
C3396 H3415 0.913 . S
C3397 H3373 0.950 . S
C3397 C3396 1.524 . S
C3397 C3398 1.415 . S
C3398 H3374 0.950 . S
C3398 C3393 1.363 . S
C3398 C3397 1.415 . S
C3399 H3375 0.951 . S
C3399 C3400 1.366 . S
C3399 C3401 1.388 . S
C3400 C3399 1.366 . S
C3400 C3404 1.385 . S
C3401 H3376 0.951 . S
C3401 C3399 1.388 . S
C3401 C3402 1.366 . S
C3402 C3401 1.366 . S
C3402 C3403 1.414 . S
C3402 C3405 1.499 . S
C3403 H3377 0.950 . S
C3403 C3402 1.414 . S
C3403 C3404 1.374 . S
C3404 H3378 0.950 . S
C3404 C3400 1.385 . S
C3404 C3403 1.374 . S
C3405 C3402 1.499 . S
C3405 C3406 1.373 . S
C3405 C3407 1.389 . S
C3406 H3379 0.950 . S
C3406 C3392 1.377 . S
C3406 C3405 1.373 . S
C3407 C3391 1.377 . S
C3407 C3405 1.389 . S
C3407 C3408 1.524 . S
C3408 C3407 1.524 . S
C3408 C3409 1.397 . S
C3408 C3413 1.363 . S
C3409 H3380 0.950 . S
C3409 C3408 1.397 . S
C3409 C3410 1.334 . S
C3410 H3381 0.950 . S
C3410 C3409 1.334 . S
C3410 C3411 1.287 . S
C3411 C3410 1.287 . S
C3411 C3412 1.524 . S
C3411 H3414 0.999 . S
C3412 H3382 0.950 . S
C3412 C3411 1.524 . S
C3412 C3413 1.415 . S
C3413 H3383 0.950 . S
C3413 C3408 1.363 . S
C3413 C3412 1.415 . S
H3414 C3411 0.999 . S
H3415 C3396 0.913 . S
H3416 C3434 0.951 . S
H3417 C3436 0.951 . S
H3418 C3438 0.950 . S
H3419 C3439 0.950 . S
H3420 C3441 0.950 . S
H3421 C3444 0.950 . S
H3422 C3445 0.950 . S
H3423 C3447 0.950 . S
H3424 C3448 0.950 . S
H3425 C3449 0.951 . S
H3426 C3451 0.951 . S
H3427 C3453 0.950 . S
H3428 C3454 0.950 . S
H3429 C3456 0.950 . S
H3430 C3459 0.950 . S
H3431 C3460 0.950 . S
H3432 C3462 0.950 . S
H3433 C3463 0.950 . S
C3434 H3416 0.951 . S
C3434 C3435 1.366 . S
C3434 C3436 1.388 . S
C3435 C3434 1.366 . S
C3435 C3439 1.385 . S
C3436 H3417 0.951 . S
C3436 C3434 1.388 . S
C3436 C3437 1.366 . S
C3437 C3436 1.366 . S
C3437 C3438 1.414 . S
C3437 C3440 1.499 . S
C3438 H3418 0.950 . S
C3438 C3437 1.414 . S
C3438 C3439 1.374 . S
C3439 H3419 0.950 . S
C3439 C3435 1.385 . S
C3439 C3438 1.374 . S
C3440 C3437 1.499 . S
C3440 C3441 1.373 . S
C3440 C3442 1.389 . S
C3441 H3420 0.950 . S
C3441 C3440 1.373 . S
C3441 C3457 1.377 . S
C3442 C3440 1.389 . S
C3442 C3443 1.524 . S
C3442 C3456 1.377 . S
C3443 C3442 1.524 . S
C3443 C3444 1.397 . S
C3443 C3448 1.363 . S
C3444 H3421 0.950 . S
C3444 C3443 1.397 . S
C3444 C3445 1.334 . S
C3445 H3422 0.950 . S
C3445 C3444 1.334 . S
C3445 C3446 1.287 . S
C3446 C3445 1.287 . S
C3446 C3447 1.524 . S
C3446 H3465 0.913 . S
C3447 H3423 0.950 . S
C3447 C3446 1.524 . S
C3447 C3448 1.415 . S
C3448 H3424 0.950 . S
C3448 C3443 1.363 . S
C3448 C3447 1.415 . S
C3449 H3425 0.951 . S
C3449 C3450 1.366 . S
C3449 C3451 1.388 . S
C3450 C3449 1.366 . S
C3450 C3454 1.385 . S
C3451 H3426 0.951 . S
C3451 C3449 1.388 . S
C3451 C3452 1.366 . S
C3452 C3451 1.366 . S
C3452 C3453 1.414 . S
C3452 C3455 1.499 . S
C3453 H3427 0.950 . S
C3453 C3452 1.414 . S
C3453 C3454 1.374 . S
C3454 H3428 0.950 . S
C3454 C3450 1.385 . S
C3454 C3453 1.374 . S
C3455 C3452 1.499 . S
C3455 C3456 1.373 . S
C3455 C3457 1.389 . S
C3456 H3429 0.950 . S
C3456 C3442 1.377 . S
C3456 C3455 1.373 . S
C3457 C3441 1.377 . S
C3457 C3455 1.389 . S
C3457 C3458 1.524 . S
C3458 C3457 1.524 . S
C3458 C3459 1.397 . S
C3458 C3463 1.363 . S
C3459 H3430 0.950 . S
C3459 C3458 1.397 . S
C3459 C3460 1.334 . S
C3460 H3431 0.950 . S
C3460 C3459 1.334 . S
C3460 C3461 1.287 . S
C3461 C3460 1.287 . S
C3461 C3462 1.524 . S
C3461 H3464 0.999 . S
C3462 H3432 0.950 . S
C3462 C3461 1.524 . S
C3462 C3463 1.415 . S
C3463 H3433 0.950 . S
C3463 C3458 1.363 . S
C3463 C3462 1.415 . S
H3464 C3461 0.999 . S
H3465 C3446 0.913 . S
H3466 C3484 0.951 . S
H3467 C3486 0.951 . S
H3468 C3488 0.950 . S
H3469 C3489 0.950 . S
H3470 C3491 0.950 . S
H3471 C3494 0.950 . S
H3472 C3495 0.950 . S
H3473 C3497 0.950 . S
H3474 C3498 0.950 . S
H3475 C3499 0.951 . S
H3476 C3501 0.951 . S
H3477 C3503 0.950 . S
H3478 C3504 0.950 . S
H3479 C3506 0.950 . S
H3480 C3509 0.950 . S
H3481 C3510 0.950 . S
H3482 C3512 0.950 . S
H3483 C3513 0.950 . S
C3484 H3466 0.951 . S
C3484 C3485 1.366 . S
C3484 C3486 1.388 . S
C3485 C3484 1.366 . S
C3485 C3489 1.385 . S
C3486 H3467 0.951 . S
C3486 C3484 1.388 . S
C3486 C3487 1.366 . S
C3487 C3486 1.366 . S
C3487 C3488 1.414 . S
C3487 C3490 1.499 . S
C3488 H3468 0.950 . S
C3488 C3487 1.414 . S
C3488 C3489 1.374 . S
C3489 H3469 0.950 . S
C3489 C3485 1.385 . S
C3489 C3488 1.374 . S
C3490 C3487 1.499 . S
C3490 C3491 1.373 . S
C3490 C3492 1.389 . S
C3491 H3470 0.950 . S
C3491 C3490 1.373 . S
C3491 C3507 1.377 . S
C3492 C3490 1.389 . S
C3492 C3493 1.524 . S
C3492 C3506 1.377 . S
C3493 C3492 1.524 . S
C3493 C3494 1.397 . S
C3493 C3498 1.363 . S
C3494 H3471 0.950 . S
C3494 C3493 1.397 . S
C3494 C3495 1.334 . S
C3495 H3472 0.950 . S
C3495 C3494 1.334 . S
C3495 C3496 1.287 . S
C3496 C3495 1.287 . S
C3496 C3497 1.524 . S
C3496 H3515 0.913 . S
C3497 H3473 0.950 . S
C3497 C3496 1.524 . S
C3497 C3498 1.415 . S
C3498 H3474 0.950 . S
C3498 C3493 1.363 . S
C3498 C3497 1.415 . S
C3499 H3475 0.951 . S
C3499 C3500 1.366 . S
C3499 C3501 1.388 . S
C3500 C3499 1.366 . S
C3500 C3504 1.385 . S
C3501 H3476 0.951 . S
C3501 C3499 1.388 . S
C3501 C3502 1.366 . S
C3502 C3501 1.366 . S
C3502 C3503 1.414 . S
C3502 C3505 1.499 . S
C3503 H3477 0.950 . S
C3503 C3502 1.414 . S
C3503 C3504 1.374 . S
C3504 H3478 0.950 . S
C3504 C3500 1.385 . S
C3504 C3503 1.374 . S
C3505 C3502 1.499 . S
C3505 C3506 1.373 . S
C3505 C3507 1.389 . S
C3506 H3479 0.950 . S
C3506 C3492 1.377 . S
C3506 C3505 1.373 . S
C3507 C3491 1.377 . S
C3507 C3505 1.389 . S
C3507 C3508 1.524 . S
C3508 C3507 1.524 . S
C3508 C3509 1.397 . S
C3508 C3513 1.363 . S
C3509 H3480 0.950 . S
C3509 C3508 1.397 . S
C3509 C3510 1.334 . S
C3510 H3481 0.950 . S
C3510 C3509 1.334 . S
C3510 C3511 1.287 . S
C3511 C3510 1.287 . S
C3511 C3512 1.524 . S
C3511 H3514 0.999 . S
C3512 H3482 0.950 . S
C3512 C3511 1.524 . S
C3512 C3513 1.415 . S
C3513 H3483 0.950 . S
C3513 C3508 1.363 . S
C3513 C3512 1.415 . S
H3514 C3511 0.999 . S
H3515 C3496 0.913 . S
H3516 C3534 0.951 . S
H3517 C3536 0.942 1_556 S
H3518 C3538 0.950 . S
H3519 C3539 0.950 . S
H3520 C3541 0.950 . S
H3521 C3544 0.950 . S
H3522 C3545 0.950 . S
H3523 C3547 0.950 . S
H3524 C3548 0.950 . S
H3525 C3549 0.951 . S
H3526 C3551 0.951 . S
H3527 C3553 0.950 . S
H3528 C3554 0.950 . S
H3529 C3556 0.950 . S
H3530 C3559 0.950 . S
H3531 C3560 0.950 . S
H3532 C3562 0.950 . S
H3533 C3563 0.950 . S
C3534 H3516 0.951 . S
C3534 C3535 1.366 . S
C3534 C3536 1.406 . S
C3535 C3534 1.366 . S
C3535 C3539 1.385 . S
C3536 H3517 0.942 1_554 S
C3536 C3534 1.406 . S
C3536 C3537 1.356 1_554 S
C3537 C3536 1.356 1_556 S
C3537 C3538 1.414 . S
C3537 C3540 1.499 . S
C3538 H3518 0.950 . S
C3538 C3537 1.414 . S
C3538 C3539 1.374 1_556 S
C3539 H3519 0.950 . S
C3539 C3535 1.385 . S
C3539 C3538 1.374 1_554 S
C3540 C3537 1.499 . S
C3540 C3541 1.373 . S
C3540 C3542 1.389 . S
C3541 H3520 0.950 . S
C3541 C3540 1.373 . S
C3541 C3557 1.377 . S
C3542 C3540 1.389 . S
C3542 C3543 1.524 1_556 S
C3542 C3556 1.377 . S
C3543 C3542 1.524 1_554 S
C3543 C3544 1.397 . S
C3543 C3548 1.363 . S
C3544 H3521 0.950 . S
C3544 C3543 1.397 . S
C3544 C3545 1.334 . S
C3545 H3522 0.950 . S
C3545 C3544 1.334 . S
C3545 C3546 1.287 . S
C3546 C3545 1.287 . S
C3546 C3547 1.524 . S
C3546 H3565 0.913 . S
C3547 H3523 0.950 . S
C3547 C3546 1.524 . S
C3547 C3548 1.415 . S
C3548 H3524 0.950 . S
C3548 C3543 1.363 . S
C3548 C3547 1.415 . S
C3549 H3525 0.951 . S
C3549 C3550 1.366 . S
C3549 C3551 1.388 . S
C3550 C3549 1.366 . S
C3550 C3554 1.385 . S
C3551 H3526 0.951 . S
C3551 C3549 1.388 . S
C3551 C3552 1.366 . S
C3552 C3551 1.366 . S
C3552 C3553 1.414 . S
C3552 C3555 1.499 . S
C3553 H3527 0.950 . S
C3553 C3552 1.414 . S
C3553 C3554 1.374 . S
C3554 H3528 0.950 . S
C3554 C3550 1.385 . S
C3554 C3553 1.374 . S
C3555 C3552 1.499 . S
C3555 C3556 1.373 . S
C3555 C3557 1.389 . S
C3556 H3529 0.950 . S
C3556 C3542 1.377 . S
C3556 C3555 1.373 . S
C3557 C3541 1.377 . S
C3557 C3555 1.389 . S
C3557 C3558 1.524 . S
C3558 C3557 1.524 . S
C3558 C3559 1.397 . S
C3558 C3563 1.363 . S
C3559 H3530 0.950 . S
C3559 C3558 1.397 . S
C3559 C3560 1.334 . S
C3560 H3531 0.950 . S
C3560 C3559 1.334 . S
C3560 C3561 1.287 . S
C3561 C3560 1.287 . S
C3561 C3562 1.524 . S
C3561 H3564 0.999 . S
C3562 H3532 0.950 . S
C3562 C3561 1.524 . S
C3562 C3563 1.415 . S
C3563 H3533 0.950 . S
C3563 C3558 1.363 . S
C3563 C3562 1.415 . S
H3564 C3561 0.999 . S
H3565 C3546 0.913 . S
H3566 C3584 0.951 . S
H3567 C3586 0.951 . S
H3568 C3588 0.950 . S
H3569 C3589 0.950 . S
H3570 C3591 0.950 . S
H3571 C3594 0.950 . S
H3572 C3595 0.950 . S
H3573 C3597 0.950 . S
H3574 C3598 0.950 1_556 S
H3575 C3599 0.951 . S
H3576 C3601 0.951 . S
H3577 C3603 0.950 . S
H3578 C3604 0.950 . S
H3579 C3606 0.950 . S
H3580 C3609 0.950 . S
H3581 C3610 0.950 . S
H3582 C3612 0.950 . S
H3583 C3613 0.950 . S
C3584 H3566 0.951 . S
C3584 C3585 1.366 . S
C3584 C3586 1.388 1_554 S
C3585 C3584 1.366 . S
C3585 C3589 1.385 1_554 S
C3586 H3567 0.951 . S
C3586 C3584 1.388 1_556 S
C3586 C3587 1.366 . S
C3587 C3586 1.366 . S
C3587 C3588 1.414 . S
C3587 C3590 1.499 . S
C3588 H3568 0.950 . S
C3588 C3587 1.414 . S
C3588 C3589 1.374 . S
C3589 H3569 0.950 . S
C3589 C3585 1.385 1_556 S
C3589 C3588 1.374 . S
C3590 C3587 1.499 . S
C3590 C3591 1.373 . S
C3590 C3592 1.389 . S
C3591 H3570 0.950 . S
C3591 C3590 1.373 . S
C3591 C3607 1.377 . S
C3592 C3590 1.389 . S
C3592 C3593 1.551 . S
C3592 C3606 1.377 . S
C3593 C3592 1.551 . S
C3593 C3594 1.377 1_556 S
C3593 C3598 1.357 1_556 S
C3594 H3571 0.950 . S
C3594 C3593 1.377 1_554 S
C3594 C3595 1.334 . S
C3595 H3572 0.950 . S
C3595 C3594 1.334 . S
C3595 C3596 1.287 . S
C3596 C3595 1.287 . S
C3596 C3597 1.524 . S
C3596 H3615 0.913 . S
C3597 H3573 0.950 . S
C3597 C3596 1.524 . S
C3597 C3598 1.415 . S
C3598 H3574 0.950 1_554 S
C3598 C3593 1.357 1_554 S
C3598 C3597 1.415 . S
C3599 H3575 0.951 . S
C3599 C3600 1.366 . S
C3599 C3601 1.388 . S
C3600 C3599 1.366 . S
C3600 C3604 1.385 . S
C3601 H3576 0.951 . S
C3601 C3599 1.388 . S
C3601 C3602 1.366 . S
C3602 C3601 1.366 . S
C3602 C3603 1.414 . S
C3602 C3605 1.499 . S
C3603 H3577 0.950 . S
C3603 C3602 1.414 . S
C3603 C3604 1.374 . S
C3604 H3578 0.950 . S
C3604 C3600 1.385 . S
C3604 C3603 1.374 . S
C3605 C3602 1.499 . S
C3605 C3606 1.373 . S
C3605 C3607 1.389 . S
C3606 H3579 0.950 . S
C3606 C3592 1.377 . S
C3606 C3605 1.373 . S
C3607 C3591 1.377 . S
C3607 C3605 1.389 . S
C3607 C3608 1.524 . S
C3608 C3607 1.524 . S
C3608 C3609 1.397 . S
C3608 C3613 1.363 . S
C3609 H3580 0.950 . S
C3609 C3608 1.397 . S
C3609 C3610 1.334 . S
C3610 H3581 0.950 . S
C3610 C3609 1.334 . S
C3610 C3611 1.287 . S
C3611 C3610 1.287 . S
C3611 C3612 1.524 . S
C3611 H3614 0.999 . S
C3612 H3582 0.950 . S
C3612 C3611 1.524 . S
C3612 C3613 1.415 . S
C3613 H3583 0.950 . S
C3613 C3608 1.363 . S
C3613 C3612 1.415 . S
H3614 C3611 0.999 . S
H3615 C3596 0.913 . S
H3616 C3634 0.951 . S
H3617 C3636 0.951 . S
H3618 C3638 0.950 . S
H3619 C3639 0.950 . S
H3620 C3641 0.950 . S
H3621 C3644 0.950 . S
H3622 C3645 0.950 . S
H3623 C3647 0.950 . S
H3624 C3648 0.950 . S
H3625 C3649 0.951 . S
H3626 C3651 0.968 . S
H3627 C3653 0.950 . S
H3628 C3654 0.950 . S
H3629 C3656 0.950 . S
H3630 C3659 0.950 . S
H3631 C3660 0.950 . S
H3632 C3662 0.950 . S
H3633 C3663 0.950 . S
C3634 H3616 0.951 . S
C3634 C3635 1.366 . S
C3634 C3636 1.388 . S
C3635 C3634 1.366 . S
C3635 C3639 1.385 . S
C3636 H3617 0.951 . S
C3636 C3634 1.388 . S
C3636 C3637 1.366 . S
C3637 C3636 1.366 . S
C3637 C3638 1.414 . S
C3637 C3640 1.499 . S
C3638 H3618 0.950 . S
C3638 C3637 1.414 . S
C3638 C3639 1.374 . S
C3639 H3619 0.950 . S
C3639 C3635 1.385 . S
C3639 C3638 1.374 . S
C3640 C3637 1.499 . S
C3640 C3641 1.373 . S
C3640 C3642 1.389 1_554 S
C3641 H3620 0.950 . S
C3641 C3640 1.373 . S
C3641 C3657 1.377 . S
C3642 C3640 1.389 1_556 S
C3642 C3643 1.524 . S
C3642 C3656 1.377 . S
C3643 C3642 1.524 . S
C3643 C3644 1.397 . S
C3643 C3648 1.363 . S
C3644 H3621 0.950 . S
C3644 C3643 1.397 . S
C3644 C3645 1.334 . S
C3645 H3622 0.950 . S
C3645 C3644 1.334 . S
C3645 C3646 1.287 . S
C3646 C3645 1.287 . S
C3646 C3647 1.524 . S
C3646 H3665 0.913 . S
C3647 H3623 0.950 . S
C3647 C3646 1.524 . S
C3647 C3648 1.415 . S
C3648 H3624 0.950 . S
C3648 C3643 1.363 . S
C3648 C3647 1.415 . S
C3649 H3625 0.951 . S
C3649 C3650 1.366 . S
C3649 C3651 1.388 . S
C3650 C3649 1.366 . S
C3650 C3654 1.385 . S
C3651 H3626 0.968 . S
C3651 C3649 1.388 . S
C3651 C3652 1.366 . S
C3652 C3651 1.366 . S
C3652 C3653 1.414 . S
C3652 C3655 1.499 . S
C3653 H3627 0.950 . S
C3653 C3652 1.414 . S
C3653 C3654 1.374 . S
C3654 H3628 0.950 . S
C3654 C3650 1.385 . S
C3654 C3653 1.374 . S
C3655 C3652 1.499 . S
C3655 C3656 1.373 . S
C3655 C3657 1.389 1_556 S
C3656 H3629 0.950 . S
C3656 C3642 1.377 . S
C3656 C3655 1.373 . S
C3657 C3641 1.377 . S
C3657 C3655 1.389 1_554 S
C3657 C3658 1.524 . S
C3658 C3657 1.524 . S
C3658 C3659 1.397 . S
C3658 C3663 1.363 . S
C3659 H3630 0.950 . S
C3659 C3658 1.397 . S
C3659 C3660 1.334 . S
C3660 H3631 0.950 . S
C3660 C3659 1.334 . S
C3660 C3661 1.287 . S
C3661 C3660 1.287 . S
C3661 C3662 1.524 . S
C3661 H3664 0.999 . S
C3662 H3632 0.950 . S
C3662 C3661 1.524 . S
C3662 C3663 1.415 . S
C3663 H3633 0.950 . S
C3663 C3658 1.363 . S
C3663 C3662 1.415 . S
H3664 C3661 0.999 . S
H3665 C3646 0.913 . S
H3666 C3684 0.951 . S
H3667 C3686 0.951 . S
H3668 C3688 0.950 . S
H3669 C3689 0.950 . S
H3670 C3691 0.950 . S
H3671 C3694 0.950 . S
H3672 C3695 0.950 . S
H3673 C3697 0.944 1_456 S
H3674 C3698 0.950 . S
H3675 C3699 0.951 . S
H3676 C3701 0.951 . S
H3677 C3703 0.950 . S
H3678 C3704 0.950 . S
H3679 C3706 0.950 . S
H3680 C3709 0.950 . S
H3681 C3710 0.950 . S
H3682 C3712 0.950 . S
H3683 C3713 0.950 . S
C3684 H3666 0.951 . S
C3684 C3685 1.366 . S
C3684 C3686 1.388 1_554 S
C3685 C3684 1.366 . S
C3685 C3689 1.385 . S
C3686 H3667 0.951 . S
C3686 C3684 1.388 1_556 S
C3686 C3687 1.366 . S
C3687 C3686 1.366 . S
C3687 C3688 1.414 1_556 S
C3687 C3690 1.499 . S
C3688 H3668 0.950 . S
C3688 C3687 1.414 1_554 S
C3688 C3689 1.374 . S
C3689 H3669 0.950 . S
C3689 C3685 1.385 . S
C3689 C3688 1.374 . S
C3690 C3687 1.499 . S
C3690 C3691 1.373 . S
C3690 C3692 1.389 . S
C3691 H3670 0.950 . S
C3691 C3690 1.373 . S
C3691 C3707 1.377 . S
C3692 C3690 1.389 . S
C3692 C3693 1.535 . S
C3692 C3706 1.377 . S
C3693 C3692 1.535 . S
C3693 C3694 1.375 1_556 S
C3693 C3698 1.373 . S
C3694 H3671 0.950 . S
C3694 C3693 1.375 1_554 S
C3694 C3695 1.334 . S
C3695 H3672 0.950 . S
C3695 C3694 1.334 . S
C3695 C3696 1.287 . S
C3696 C3695 1.287 . S
C3696 C3697 1.524 . S
C3696 H3715 0.913 . S
C3697 H3673 0.944 1_654 S
C3697 C3696 1.524 . S
C3697 C3698 1.415 1_554 S
C3698 H3674 0.950 . S
C3698 C3693 1.373 . S
C3698 C3697 1.415 1_556 S
C3699 H3675 0.951 . S
C3699 C3700 1.366 . S
C3699 C3701 1.388 . S
C3700 C3699 1.366 . S
C3700 C3704 1.385 . S
C3701 H3676 0.951 . S
C3701 C3699 1.388 . S
C3701 C3702 1.366 . S
C3702 C3701 1.366 . S
C3702 C3703 1.414 . S
C3702 C3705 1.499 . S
C3703 H3677 0.950 . S
C3703 C3702 1.414 . S
C3703 C3704 1.374 . S
C3704 H3678 0.950 . S
C3704 C3700 1.385 . S
C3704 C3703 1.374 . S
C3705 C3702 1.499 . S
C3705 C3706 1.373 . S
C3705 C3707 1.389 . S
C3706 H3679 0.950 . S
C3706 C3692 1.377 . S
C3706 C3705 1.373 . S
C3707 C3691 1.377 . S
C3707 C3705 1.389 . S
C3707 C3708 1.524 . S
C3708 C3707 1.524 . S
C3708 C3709 1.397 . S
C3708 C3713 1.363 . S
C3709 H3680 0.950 . S
C3709 C3708 1.397 . S
C3709 C3710 1.334 . S
C3710 H3681 0.950 . S
C3710 C3709 1.334 . S
C3710 C3711 1.287 . S
C3711 C3710 1.287 . S
C3711 C3712 1.524 . S
C3711 H3714 0.999 . S
C3712 H3682 0.950 . S
C3712 C3711 1.524 . S
C3712 C3713 1.415 . S
C3713 H3683 0.950 . S
C3713 C3708 1.363 . S
C3713 C3712 1.415 . S
H3714 C3711 0.999 . S
H3715 C3696 0.913 . S
H3716 C3734 0.951 . S
H3717 C3736 0.951 . S
H3718 C3738 0.950 . S
H3719 C3739 0.950 . S
H3720 C3741 0.950 . S
H3721 C3744 0.950 . S
H3722 C3745 0.950 . S
H3723 C3747 0.950 . S
H3724 C3748 0.950 . S
H3725 C3749 0.951 . S
H3726 C3751 0.951 . S
H3727 C3753 0.950 . S
H3728 C3754 0.950 . S
H3729 C3756 0.950 . S
H3730 C3759 0.950 . S
H3731 C3760 0.950 . S
H3732 C3762 0.950 . S
H3733 C3763 0.950 . S
C3734 H3716 0.951 . S
C3734 C3735 1.366 . S
C3734 C3736 1.388 . S
C3735 C3734 1.366 . S
C3735 C3739 1.385 . S
C3736 H3717 0.951 . S
C3736 C3734 1.388 . S
C3736 C3737 1.366 . S
C3737 C3736 1.366 . S
C3737 C3738 1.414 . S
C3737 C3740 1.499 . S
C3738 H3718 0.950 . S
C3738 C3737 1.414 . S
C3738 C3739 1.374 . S
C3739 H3719 0.950 . S
C3739 C3735 1.385 . S
C3739 C3738 1.374 . S
C3740 C3737 1.499 . S
C3740 C3741 1.373 . S
C3740 C3742 1.389 . S
C3741 H3720 0.950 . S
C3741 C3740 1.373 . S
C3741 C3757 1.377 . S
C3742 C3740 1.389 . S
C3742 C3743 1.524 . S
C3742 C3756 1.377 . S
C3743 C3742 1.524 . S
C3743 C3744 1.397 . S
C3743 C3748 1.363 . S
C3744 H3721 0.950 . S
C3744 C3743 1.397 . S
C3744 C3745 1.334 1_556 S
C3745 H3722 0.950 . S
C3745 C3744 1.334 1_554 S
C3745 C3746 1.287 . S
C3746 C3745 1.287 . S
C3746 C3747 1.524 1_554 S
C3746 H3765 0.913 . S
C3747 H3723 0.950 . S
C3747 C3746 1.524 1_556 S
C3747 C3748 1.415 . S
C3748 H3724 0.950 . S
C3748 C3743 1.363 . S
C3748 C3747 1.415 . S
C3749 H3725 0.951 . S
C3749 C3750 1.366 . S
C3749 C3751 1.388 . S
C3750 C3749 1.366 . S
C3750 C3754 1.385 . S
C3751 H3726 0.951 . S
C3751 C3749 1.388 . S
C3751 C3752 1.366 . S
C3752 C3751 1.366 . S
C3752 C3753 1.414 . S
C3752 C3755 1.499 . S
C3753 H3727 0.950 . S
C3753 C3752 1.414 . S
C3753 C3754 1.374 . S
C3754 H3728 0.950 . S
C3754 C3750 1.385 . S
C3754 C3753 1.374 . S
C3755 C3752 1.499 . S
C3755 C3756 1.373 . S
C3755 C3757 1.389 . S
C3756 H3729 0.950 . S
C3756 C3742 1.377 . S
C3756 C3755 1.373 . S
C3757 C3741 1.377 . S
C3757 C3755 1.389 . S
C3757 C3758 1.524 . S
C3758 C3757 1.524 . S
C3758 C3759 1.397 . S
C3758 C3763 1.363 . S
C3759 H3730 0.950 . S
C3759 C3758 1.397 . S
C3759 C3760 1.334 . S
C3760 H3731 0.950 . S
C3760 C3759 1.334 . S
C3760 C3761 1.287 . S
C3761 C3760 1.287 . S
C3761 C3762 1.524 . S
C3761 H3764 0.999 . S
C3762 H3732 0.950 . S
C3762 C3761 1.524 . S
C3762 C3763 1.415 . S
C3763 H3733 0.950 . S
C3763 C3758 1.363 . S
C3763 C3762 1.415 . S
H3764 C3761 0.999 . S
H3765 C3746 0.913 . S
H3766 C3784 0.951 . S
H3767 C3786 0.951 1_556 S
H3768 C3788 0.950 . S
H3769 C3789 0.950 . S
H3770 C3791 0.946 1_554 S
H3771 C3794 0.950 . S
H3772 C3795 0.950 . S
H3773 C3797 0.950 . S
H3774 C3798 0.950 . S
H3775 C3799 0.951 . S
H3776 C3801 0.951 . S
H3777 C3803 0.950 . S
H3778 C3804 0.950 . S
H3779 C3806 0.950 . S
H3780 C3809 0.950 . S
H3781 C3810 0.950 . S
H3782 C3812 0.950 . S
H3783 C3813 0.950 1_554 S
C3784 H3766 0.951 . S
C3784 C3785 1.366 . S
C3784 C3786 1.388 . S
C3785 C3784 1.366 . S
C3785 C3789 1.385 . S
C3786 H3767 0.951 1_554 S
C3786 C3784 1.388 . S
C3786 C3787 1.366 . S
C3787 C3786 1.366 . S
C3787 C3788 1.414 . S
C3787 C3790 1.499 . S
C3788 H3768 0.950 . S
C3788 C3787 1.414 . S
C3788 C3789 1.374 . S
C3789 H3769 0.950 . S
C3789 C3785 1.385 . S
C3789 C3788 1.374 . S
C3790 C3787 1.499 . S
C3790 C3791 1.373 1_554 S
C3790 C3792 1.389 1_554 S
C3791 H3770 0.946 1_556 S
C3791 C3790 1.373 1_556 S
C3791 C3807 1.377 . S
C3792 C3790 1.389 1_556 S
C3792 C3793 1.524 1_556 S
C3792 C3806 1.377 . S
C3793 C3792 1.524 1_554 S
C3793 C3794 1.397 . S
C3793 C3798 1.363 1_554 S
C3794 H3771 0.950 . S
C3794 C3793 1.397 . S
C3794 C3795 1.334 . S
C3795 H3772 0.950 . S
C3795 C3794 1.334 . S
C3795 C3796 1.221 1_545 S
C3796 C3795 1.221 1_565 S
C3796 C3797 1.523 1_554 S
C3796 H3815 0.991 . S
C3797 H3773 0.950 . S
C3797 C3796 1.523 1_556 S
C3797 C3798 1.415 1_565 S
C3798 H3774 0.950 . S
C3798 C3793 1.363 1_556 S
C3798 C3797 1.415 1_545 S
C3799 H3775 0.951 . S
C3799 C3800 1.366 . S
C3799 C3801 1.388 . S
C3800 C3799 1.366 . S
C3800 C3804 1.385 . S
C3801 H3776 0.951 . S
C3801 C3799 1.388 . S
C3801 C3802 1.366 . S
C3802 C3801 1.366 . S
C3802 C3803 1.414 . S
C3802 C3805 1.499 . S
C3803 H3777 0.950 . S
C3803 C3802 1.414 . S
C3803 C3804 1.374 . S
C3804 H3778 0.950 . S
C3804 C3800 1.385 . S
C3804 C3803 1.374 . S
C3805 C3802 1.499 . S
C3805 C3806 1.373 . S
C3805 C3807 1.389 . S
C3806 H3779 0.950 . S
C3806 C3792 1.377 . S
C3806 C3805 1.373 . S
C3807 C3791 1.377 . S
C3807 C3805 1.389 . S
C3807 C3808 1.524 . S
C3808 C3807 1.524 . S
C3808 C3809 1.397 . S
C3808 C3813 1.363 . S
C3809 H3780 0.950 . S
C3809 C3808 1.397 . S
C3809 C3810 1.334 . S
C3810 H3781 0.950 . S
C3810 C3809 1.334 . S
C3810 C3811 1.287 . S
C3811 C3810 1.287 . S
C3811 C3812 1.524 . S
C3811 H3814 0.999 . S
C3812 H3782 0.950 . S
C3812 C3811 1.524 . S
C3812 C3813 1.415 . S
C3813 H3783 0.950 1_556 S
C3813 C3808 1.363 . S
C3813 C3812 1.415 . S
H3814 C3811 0.999 . S
H3815 C3796 0.991 . S
H3816 C3834 0.951 . S
H3817 C3836 0.951 . S
H3818 C3838 0.950 . S
H3819 C3839 0.950 . S
H3820 C3841 0.950 . S
H3821 C3844 0.950 . S
H3822 C3845 0.950 1_545 S
H3823 C3847 0.950 . S
H3824 C3848 0.950 . S
H3825 C3849 0.951 . S
H3826 C3851 0.951 . S
H3827 C3853 0.950 . S
H3828 C3854 0.950 . S
H3829 C3856 0.950 . S
H3830 C3859 0.950 . S
H3831 C3860 0.950 . S
H3832 C3862 0.950 . S
H3833 C3863 0.950 . S
C3834 H3816 0.951 . S
C3834 C3835 1.366 . S
C3834 C3836 1.388 . S
C3835 C3834 1.366 . S
C3835 C3839 1.385 . S
C3836 H3817 0.951 . S
C3836 C3834 1.388 . S
C3836 C3837 1.366 . S
C3837 C3836 1.366 . S
C3837 C3838 1.414 . S
C3837 C3840 1.499 . S
C3838 H3818 0.950 . S
C3838 C3837 1.414 . S
C3838 C3839 1.374 . S
C3839 H3819 0.950 . S
C3839 C3835 1.385 . S
C3839 C3838 1.374 . S
C3840 C3837 1.499 . S
C3840 C3841 1.373 . S
C3840 C3842 1.389 . S
C3841 H3820 0.950 . S
C3841 C3840 1.373 . S
C3841 C3857 1.377 . S
C3842 C3840 1.389 . S
C3842 C3843 1.524 . S
C3842 C3856 1.377 . S
C3843 C3842 1.524 . S
C3843 C3844 1.397 . S
C3843 C3848 1.363 . S
C3844 H3821 0.950 . S
C3844 C3843 1.397 . S
C3844 C3845 1.334 . S
C3845 H3822 0.950 1_565 S
C3845 C3844 1.334 . S
C3845 C3846 1.284 1_565 S
C3846 C3845 1.284 1_545 S
C3846 C3847 1.514 1_545 S
C3846 H3865 0.929 . S
C3847 H3823 0.950 . S
C3847 C3846 1.514 1_565 S
C3847 C3848 1.415 . S
C3848 H3824 0.950 . S
C3848 C3843 1.363 . S
C3848 C3847 1.415 . S
C3849 H3825 0.951 . S
C3849 C3850 1.366 . S
C3849 C3851 1.388 . S
C3850 C3849 1.366 . S
C3850 C3854 1.385 . S
C3851 H3826 0.951 . S
C3851 C3849 1.388 . S
C3851 C3852 1.366 . S
C3852 C3851 1.366 . S
C3852 C3853 1.414 . S
C3852 C3855 1.499 . S
C3853 H3827 0.950 . S
C3853 C3852 1.414 . S
C3853 C3854 1.374 . S
C3854 H3828 0.950 . S
C3854 C3850 1.385 . S
C3854 C3853 1.374 . S
C3855 C3852 1.499 . S
C3855 C3856 1.373 . S
C3855 C3857 1.389 . S
C3856 H3829 0.950 . S
C3856 C3842 1.377 . S
C3856 C3855 1.373 . S
C3857 C3841 1.377 . S
C3857 C3855 1.389 . S
C3857 C3858 1.524 . S
C3858 C3857 1.524 . S
C3858 C3859 1.397 . S
C3858 C3863 1.363 . S
C3859 H3830 0.950 . S
C3859 C3858 1.397 . S
C3859 C3860 1.334 . S
C3860 H3831 0.950 . S
C3860 C3859 1.334 . S
C3860 C3861 1.287 . S
C3861 C3860 1.287 . S
C3861 C3862 1.524 . S
C3861 H3864 0.999 . S
C3862 H3832 0.950 . S
C3862 C3861 1.524 . S
C3862 C3863 1.415 . S
C3863 H3833 0.950 . S
C3863 C3858 1.363 . S
C3863 C3862 1.415 . S
H3864 C3861 0.999 . S
H3865 C3846 0.929 . S
H3866 C3884 0.951 . S
H3867 C3886 0.951 . S
H3868 C3888 0.950 . S
H3869 C3889 0.950 . S
H3870 C3891 0.950 . S
H3871 C3894 0.950 . S
H3872 C3895 0.950 . S
H3873 C3897 0.950 . S
H3874 C3898 0.950 . S
H3875 C3899 0.951 . S
H3876 C3901 0.951 . S
H3877 C3903 0.950 . S
H3878 C3904 0.950 . S
H3879 C3906 0.950 . S
H3880 C3909 0.950 . S
H3881 C3910 0.950 . S
H3882 C3912 0.950 . S
H3883 C3913 0.950 . S
C3884 H3866 0.951 . S
C3884 C3885 1.366 . S
C3884 C3886 1.388 . S
C3885 C3884 1.366 . S
C3885 C3889 1.385 . S
C3886 H3867 0.951 . S
C3886 C3884 1.388 . S
C3886 C3887 1.366 . S
C3887 C3886 1.366 . S
C3887 C3888 1.414 . S
C3887 C3890 1.499 . S
C3888 H3868 0.950 . S
C3888 C3887 1.414 . S
C3888 C3889 1.374 . S
C3889 H3869 0.950 . S
C3889 C3885 1.385 . S
C3889 C3888 1.374 . S
C3890 C3887 1.499 . S
C3890 C3891 1.373 . S
C3890 C3892 1.389 . S
C3891 H3870 0.950 . S
C3891 C3890 1.373 . S
C3891 C3907 1.377 . S
C3892 C3890 1.389 . S
C3892 C3893 1.524 . S
C3892 C3906 1.377 . S
C3893 C3892 1.524 . S
C3893 C3894 1.397 . S
C3893 C3898 1.363 . S
C3894 H3871 0.950 . S
C3894 C3893 1.397 . S
C3894 C3895 1.334 . S
C3895 H3872 0.950 . S
C3895 C3894 1.334 . S
C3895 C3896 1.287 . S
C3896 C3895 1.287 . S
C3896 C3897 1.524 . S
C3896 H3915 0.913 . S
C3897 H3873 0.950 . S
C3897 C3896 1.524 . S
C3897 C3898 1.415 . S
C3898 H3874 0.950 . S
C3898 C3893 1.363 . S
C3898 C3897 1.415 . S
C3899 H3875 0.951 . S
C3899 C3900 1.366 . S
C3899 C3901 1.388 . S
C3900 C3899 1.366 . S
C3900 C3904 1.385 . S
C3901 H3876 0.951 . S
C3901 C3899 1.388 . S
C3901 C3902 1.366 . S
C3902 C3901 1.366 . S
C3902 C3903 1.414 . S
C3902 C3905 1.499 . S
C3903 H3877 0.950 . S
C3903 C3902 1.414 . S
C3903 C3904 1.374 . S
C3904 H3878 0.950 . S
C3904 C3900 1.385 . S
C3904 C3903 1.374 . S
C3905 C3902 1.499 . S
C3905 C3906 1.373 . S
C3905 C3907 1.389 . S
C3906 H3879 0.950 . S
C3906 C3892 1.377 . S
C3906 C3905 1.373 . S
C3907 C3891 1.377 . S
C3907 C3905 1.389 . S
C3907 C3908 1.524 . S
C3908 C3907 1.524 . S
C3908 C3909 1.397 . S
C3908 C3913 1.363 . S
C3909 H3880 0.950 . S
C3909 C3908 1.397 . S
C3909 C3910 1.334 . S
C3910 H3881 0.950 . S
C3910 C3909 1.334 . S
C3910 C3911 1.287 . S
C3911 C3910 1.287 . S
C3911 C3912 1.524 . S
C3911 H3914 0.999 . S
C3912 H3882 0.950 . S
C3912 C3911 1.524 . S
C3912 C3913 1.415 . S
C3913 H3883 0.950 . S
C3913 C3908 1.363 . S
C3913 C3912 1.415 . S
H3914 C3911 0.999 . S
H3915 C3896 0.913 . S
H3916 C3934 0.951 . S
H3917 C3936 0.951 . S
H3918 C3938 0.950 . S
H3919 C3939 0.950 . S
H3920 C3941 0.950 . S
H3921 C3944 0.950 . S
H3922 C3945 0.950 . S
H3923 C3947 0.950 . S
H3924 C3948 0.950 . S
H3925 C3949 0.951 . S
H3926 C3951 0.951 . S
H3927 C3953 0.950 . S
H3928 C3954 0.950 . S
H3929 C3956 0.950 . S
H3930 C3959 0.950 . S
H3931 C3960 0.950 . S
H3932 C3962 0.950 . S
H3933 C3963 0.950 . S
C3934 H3916 0.951 . S
C3934 C3935 1.366 . S
C3934 C3936 1.388 . S
C3935 C3934 1.366 . S
C3935 C3939 1.385 . S
C3936 H3917 0.951 . S
C3936 C3934 1.388 . S
C3936 C3937 1.366 . S
C3937 C3936 1.366 . S
C3937 C3938 1.414 . S
C3937 C3940 1.499 . S
C3938 H3918 0.950 . S
C3938 C3937 1.414 . S
C3938 C3939 1.374 . S
C3939 H3919 0.950 . S
C3939 C3935 1.385 . S
C3939 C3938 1.374 . S
C3940 C3937 1.499 . S
C3940 C3941 1.373 . S
C3940 C3942 1.389 . S
C3941 H3920 0.950 . S
C3941 C3940 1.373 . S
C3941 C3957 1.377 . S
C3942 C3940 1.389 . S
C3942 C3943 1.524 . S
C3942 C3956 1.377 . S
C3943 C3942 1.524 . S
C3943 C3944 1.397 . S
C3943 C3948 1.363 . S
C3944 H3921 0.950 . S
C3944 C3943 1.397 . S
C3944 C3945 1.334 . S
C3945 H3922 0.950 . S
C3945 C3944 1.334 . S
C3945 C3946 1.287 . S
C3946 C3945 1.287 . S
C3946 C3947 1.524 . S
C3946 H3965 0.913 . S
C3947 H3923 0.950 . S
C3947 C3946 1.524 . S
C3947 C3948 1.415 . S
C3948 H3924 0.950 . S
C3948 C3943 1.363 . S
C3948 C3947 1.415 . S
C3949 H3925 0.951 . S
C3949 C3950 1.366 . S
C3949 C3951 1.388 . S
C3950 C3949 1.366 . S
C3950 C3954 1.385 . S
C3951 H3926 0.951 . S
C3951 C3949 1.388 . S
C3951 C3952 1.366 . S
C3952 C3951 1.366 . S
C3952 C3953 1.414 . S
C3952 C3955 1.499 . S
C3953 H3927 0.950 . S
C3953 C3952 1.414 . S
C3953 C3954 1.374 . S
C3954 H3928 0.950 . S
C3954 C3950 1.385 . S
C3954 C3953 1.374 . S
C3955 C3952 1.499 . S
C3955 C3956 1.373 . S
C3955 C3957 1.389 . S
C3956 H3929 0.950 . S
C3956 C3942 1.377 . S
C3956 C3955 1.373 . S
C3957 C3941 1.377 . S
C3957 C3955 1.389 . S
C3957 C3958 1.524 . S
C3958 C3957 1.524 . S
C3958 C3959 1.397 . S
C3958 C3963 1.363 . S
C3959 H3930 0.950 . S
C3959 C3958 1.397 . S
C3959 C3960 1.334 . S
C3960 H3931 0.950 . S
C3960 C3959 1.334 . S
C3960 C3961 1.287 . S
C3961 C3960 1.287 . S
C3961 C3962 1.524 . S
C3961 H3964 0.999 . S
C3962 H3932 0.950 . S
C3962 C3961 1.524 . S
C3962 C3963 1.415 . S
C3963 H3933 0.950 . S
C3963 C3958 1.363 . S
C3963 C3962 1.415 . S
H3964 C3961 0.999 . S
H3965 C3946 0.913 . S
H3966 C3984 0.951 . S
H3967 C3986 0.951 . S
H3968 C3988 0.950 . S
H3969 C3989 0.950 . S
H3970 C3991 0.950 . S
H3971 C3994 0.950 . S
H3972 C3995 0.950 . S
H3973 C3997 0.950 . S
H3974 C3998 0.950 . S
H3975 C3999 0.951 . S
H3976 C4001 0.951 . S
H3977 C4003 0.950 . S
H3978 C4004 0.950 . S
H3979 C4006 0.950 . S
H3980 C4009 0.950 . S
H3981 C4010 0.950 . S
H3982 C4012 0.950 . S
H3983 C4013 0.950 . S
C3984 H3966 0.951 . S
C3984 C3985 1.366 . S
C3984 C3986 1.388 . S
C3985 C3984 1.366 . S
C3985 C3989 1.385 . S
C3986 H3967 0.951 . S
C3986 C3984 1.388 . S
C3986 C3987 1.366 . S
C3987 C3986 1.366 . S
C3987 C3988 1.414 . S
C3987 C3990 1.499 . S
C3988 H3968 0.950 . S
C3988 C3987 1.414 . S
C3988 C3989 1.374 . S
C3989 H3969 0.950 . S
C3989 C3985 1.385 . S
C3989 C3988 1.374 . S
C3990 C3987 1.499 . S
C3990 C3991 1.373 . S
C3990 C3992 1.389 . S
C3991 H3970 0.950 . S
C3991 C3990 1.373 . S
C3991 C4007 1.377 . S
C3992 C3990 1.389 . S
C3992 C3993 1.524 . S
C3992 C4006 1.377 . S
C3993 C3992 1.524 . S
C3993 C3994 1.397 . S
C3993 C3998 1.363 . S
C3994 H3971 0.950 . S
C3994 C3993 1.397 . S
C3994 C3995 1.334 . S
C3995 H3972 0.950 . S
C3995 C3994 1.334 . S
C3995 C3996 1.287 . S
C3996 C3995 1.287 . S
C3996 C3997 1.524 . S
C3996 H4015 0.913 . S
C3997 H3973 0.950 . S
C3997 C3996 1.524 . S
C3997 C3998 1.415 . S
C3998 H3974 0.950 . S
C3998 C3993 1.363 . S
C3998 C3997 1.415 . S
C3999 H3975 0.951 . S
C3999 C4000 1.366 . S
C3999 C4001 1.388 . S
C4000 C3999 1.366 . S
C4000 C4004 1.385 . S
C4001 H3976 0.951 . S
C4001 C3999 1.388 . S
C4001 C4002 1.366 . S
C4002 C4001 1.366 . S
C4002 C4003 1.414 . S
C4002 C4005 1.499 . S
C4003 H3977 0.950 . S
C4003 C4002 1.414 . S
C4003 C4004 1.374 . S
C4004 H3978 0.950 . S
C4004 C4000 1.385 . S
C4004 C4003 1.374 . S
C4005 C4002 1.499 . S
C4005 C4006 1.373 . S
C4005 C4007 1.389 . S
C4006 H3979 0.950 . S
C4006 C3992 1.377 . S
C4006 C4005 1.373 . S
C4007 C3991 1.377 . S
C4007 C4005 1.389 . S
C4007 C4008 1.524 . S
C4008 C4007 1.524 . S
C4008 C4009 1.397 . S
C4008 C4013 1.363 . S
C4009 H3980 0.950 . S
C4009 C4008 1.397 . S
C4009 C4010 1.334 . S
C4010 H3981 0.950 . S
C4010 C4009 1.334 . S
C4010 C4011 1.287 . S
C4011 C4010 1.287 . S
C4011 C4012 1.524 . S
C4011 H4014 0.999 . S
C4012 H3982 0.950 . S
C4012 C4011 1.524 . S
C4012 C4013 1.415 . S
C4013 H3983 0.950 . S
C4013 C4008 1.363 . S
C4013 C4012 1.415 . S
H4014 C4011 0.999 . S
H4015 C3996 0.913 . S
H4016 C4034 0.951 . S
H4017 C4036 0.951 . S
H4018 C4038 0.950 . S
H4019 C4039 0.950 . S
H4020 C4041 0.950 . S
H4021 C4044 0.950 . S
H4022 C4045 0.950 . S
H4023 C4047 0.950 . S
H4024 C4048 0.950 . S
H4025 C4049 0.951 . S
H4026 C4051 0.951 . S
H4027 C4053 0.950 . S
H4028 C4054 0.950 . S
H4029 C4056 0.950 . S
H4030 C4059 0.950 . S
H4031 C4060 0.950 . S
H4032 C4062 0.950 . S
H4033 C4063 0.950 . S
C4034 H4016 0.951 . S
C4034 C4035 1.366 . S
C4034 C4036 1.388 . S
C4035 C4034 1.366 . S
C4035 C4039 1.385 . S
C4036 H4017 0.951 . S
C4036 C4034 1.388 . S
C4036 C4037 1.366 . S
C4037 C4036 1.366 . S
C4037 C4038 1.414 . S
C4037 C4040 1.499 . S
C4038 H4018 0.950 . S
C4038 C4037 1.414 . S
C4038 C4039 1.374 . S
C4039 H4019 0.950 . S
C4039 C4035 1.385 . S
C4039 C4038 1.374 . S
C4040 C4037 1.499 . S
C4040 C4041 1.373 . S
C4040 C4042 1.389 . S
C4041 H4020 0.950 . S
C4041 C4040 1.373 . S
C4041 C4057 1.377 . S
C4042 C4040 1.389 . S
C4042 C4043 1.524 . S
C4042 C4056 1.377 . S
C4043 C4042 1.524 . S
C4043 C4044 1.397 . S
C4043 C4048 1.363 . S
C4044 H4021 0.950 . S
C4044 C4043 1.397 . S
C4044 C4045 1.334 . S
C4045 H4022 0.950 . S
C4045 C4044 1.334 . S
C4045 C4046 1.287 . S
C4046 C4045 1.287 . S
C4046 C4047 1.524 . S
C4046 H4065 0.913 . S
C4047 H4023 0.950 . S
C4047 C4046 1.524 . S
C4047 C4048 1.415 . S
C4048 H4024 0.950 . S
C4048 C4043 1.363 . S
C4048 C4047 1.415 . S
C4049 H4025 0.951 . S
C4049 C4050 1.366 . S
C4049 C4051 1.388 . S
C4050 C4049 1.366 . S
C4050 C4054 1.385 . S
C4051 H4026 0.951 . S
C4051 C4049 1.388 . S
C4051 C4052 1.366 . S
C4052 C4051 1.366 . S
C4052 C4053 1.414 . S
C4052 C4055 1.499 . S
C4053 H4027 0.950 . S
C4053 C4052 1.414 . S
C4053 C4054 1.374 . S
C4054 H4028 0.950 . S
C4054 C4050 1.385 . S
C4054 C4053 1.374 . S
C4055 C4052 1.499 . S
C4055 C4056 1.373 . S
C4055 C4057 1.389 . S
C4056 H4029 0.950 . S
C4056 C4042 1.377 . S
C4056 C4055 1.373 . S
C4057 C4041 1.377 . S
C4057 C4055 1.389 . S
C4057 C4058 1.524 . S
C4058 C4057 1.524 . S
C4058 C4059 1.397 . S
C4058 C4063 1.363 . S
C4059 H4030 0.950 . S
C4059 C4058 1.397 . S
C4059 C4060 1.334 . S
C4060 H4031 0.950 . S
C4060 C4059 1.334 . S
C4060 C4061 1.287 . S
C4061 C4060 1.287 . S
C4061 C4062 1.524 . S
C4061 H4064 0.999 . S
C4062 H4032 0.950 . S
C4062 C4061 1.524 . S
C4062 C4063 1.415 . S
C4063 H4033 0.950 . S
C4063 C4058 1.363 . S
C4063 C4062 1.415 . S
H4064 C4061 0.999 . S
H4065 C4046 0.913 . S
H4066 C4084 0.951 . S
H4067 C4086 0.951 . S
H4068 C4088 0.950 . S
H4069 C4089 0.939 . S
H4070 C4091 0.950 . S
H4071 C4094 0.950 . S
H4072 C4095 0.950 . S
H4073 C4097 0.950 . S
H4074 C4098 0.950 . S
H4075 C4099 0.951 . S
H4076 C4101 0.951 . S
H4077 C4103 0.950 . S
H4078 C4104 0.950 . S
H4079 C4106 0.950 . S
H4080 C4109 0.950 . S
H4081 C4110 0.950 . S
H4082 C4112 0.950 . S
H4083 C4113 0.950 . S
C4084 H4066 0.951 . S
C4084 C4085 1.366 . S
C4084 C4086 1.388 1_455 S
C4085 C4084 1.366 . S
C4085 C4089 1.433 . S
C4086 H4067 0.951 . S
C4086 C4084 1.388 1_655 S
C4086 C4087 1.366 . S
C4087 C4086 1.366 . S
C4087 C4088 1.414 . S
C4087 C4090 1.499 . S
C4088 H4068 0.950 . S
C4088 C4087 1.414 . S
C4088 C4089 1.338 1_655 S
C4089 H4069 0.939 . S
C4089 C4085 1.433 . S
C4089 C4088 1.338 1_455 S
C4090 C4087 1.499 . S
C4090 C4091 1.373 . S
C4090 C4092 1.389 . S
C4091 H4070 0.950 . S
C4091 C4090 1.373 . S
C4091 C4107 1.377 . S
C4092 C4090 1.389 . S
C4092 C4093 1.524 . S
C4092 C4106 1.377 . S
C4093 C4092 1.524 . S
C4093 C4094 1.397 . S
C4093 C4098 1.363 . S
C4094 H4071 0.950 . S
C4094 C4093 1.397 . S
C4094 C4095 1.334 . S
C4095 H4072 0.950 . S
C4095 C4094 1.334 . S
C4095 C4096 1.287 . S
C4096 C4095 1.287 . S
C4096 C4097 1.524 . S
C4096 H4115 0.913 . S
C4097 H4073 0.950 . S
C4097 C4096 1.524 . S
C4097 C4098 1.415 . S
C4098 H4074 0.950 . S
C4098 C4093 1.363 . S
C4098 C4097 1.415 . S
C4099 H4075 0.951 . S
C4099 C4100 1.366 . S
C4099 C4101 1.388 . S
C4100 C4099 1.366 . S
C4100 C4104 1.385 . S
C4101 H4076 0.951 . S
C4101 C4099 1.388 . S
C4101 C4102 1.366 . S
C4102 C4101 1.366 . S
C4102 C4103 1.414 . S
C4102 C4105 1.499 . S
C4103 H4077 0.950 . S
C4103 C4102 1.414 . S
C4103 C4104 1.374 . S
C4104 H4078 0.950 . S
C4104 C4100 1.385 . S
C4104 C4103 1.374 . S
C4105 C4102 1.499 . S
C4105 C4106 1.373 . S
C4105 C4107 1.389 . S
C4106 H4079 0.950 . S
C4106 C4092 1.377 . S
C4106 C4105 1.373 . S
C4107 C4091 1.377 . S
C4107 C4105 1.389 . S
C4107 C4108 1.524 . S
C4108 C4107 1.524 . S
C4108 C4109 1.397 . S
C4108 C4113 1.363 . S
C4109 H4080 0.950 . S
C4109 C4108 1.397 . S
C4109 C4110 1.334 . S
C4110 H4081 0.950 . S
C4110 C4109 1.334 . S
C4110 C4111 1.287 . S
C4111 C4110 1.287 . S
C4111 C4112 1.524 . S
C4111 H4114 0.999 . S
C4112 H4082 0.950 . S
C4112 C4111 1.524 . S
C4112 C4113 1.415 . S
C4113 H4083 0.950 . S
C4113 C4108 1.363 . S
C4113 C4112 1.415 . S
H4114 C4111 0.999 . S
H4115 C4096 0.913 . S
H4116 C4134 0.951 . S
H4117 C4136 0.951 . S
H4118 C4138 0.950 . S
H4119 C4139 0.950 . S
H4120 C4141 0.950 . S
H4121 C4144 0.950 . S
H4122 C4145 0.950 1_655 S
H4123 C4147 0.950 . S
H4124 C4148 0.950 . S
H4125 C4149 0.951 . S
H4126 C4151 0.951 . S
H4127 C4153 0.950 . S
H4128 C4154 0.950 . S
H4129 C4156 0.950 . S
H4130 C4159 0.950 . S
H4131 C4160 0.950 . S
H4132 C4162 0.950 . S
H4133 C4163 0.950 . S
C4134 H4116 0.951 . S
C4134 C4135 1.366 . S
C4134 C4136 1.388 . S
C4135 C4134 1.366 . S
C4135 C4139 1.385 . S
C4136 H4117 0.951 . S
C4136 C4134 1.388 . S
C4136 C4137 1.366 . S
C4137 C4136 1.366 . S
C4137 C4138 1.414 . S
C4137 C4140 1.499 . S
C4138 H4118 0.950 . S
C4138 C4137 1.414 . S
C4138 C4139 1.374 . S
C4139 H4119 0.950 . S
C4139 C4135 1.385 . S
C4139 C4138 1.374 . S
C4140 C4137 1.499 . S
C4140 C4141 1.373 . S
C4140 C4142 1.389 . S
C4141 H4120 0.950 . S
C4141 C4140 1.373 . S
C4141 C4157 1.377 . S
C4142 C4140 1.389 . S
C4142 C4143 1.524 . S
C4142 C4156 1.377 . S
C4143 C4142 1.524 . S
C4143 C4144 1.397 . S
C4143 C4148 1.363 . S
C4144 H4121 0.950 . S
C4144 C4143 1.397 . S
C4144 C4145 1.334 . S
C4145 H4122 0.950 1_455 S
C4145 C4144 1.334 . S
C4145 C4146 1.287 . S
C4146 C4145 1.287 . S
C4146 C4147 1.524 . S
C4146 H4165 0.905 1_455 S
C4147 H4123 0.950 . S
C4147 C4146 1.524 . S
C4147 C4148 1.415 . S
C4148 H4124 0.950 . S
C4148 C4143 1.363 . S
C4148 C4147 1.415 . S
C4149 H4125 0.951 . S
C4149 C4150 1.366 . S
C4149 C4151 1.388 . S
C4150 C4149 1.366 . S
C4150 C4154 1.385 . S
C4151 H4126 0.951 . S
C4151 C4149 1.388 . S
C4151 C4152 1.366 . S
C4152 C4151 1.366 . S
C4152 C4153 1.414 . S
C4152 C4155 1.499 . S
C4153 H4127 0.950 . S
C4153 C4152 1.414 . S
C4153 C4154 1.374 . S
C4154 H4128 0.950 . S
C4154 C4150 1.385 . S
C4154 C4153 1.374 . S
C4155 C4152 1.499 . S
C4155 C4156 1.373 . S
C4155 C4157 1.389 . S
C4156 H4129 0.950 . S
C4156 C4142 1.377 . S
C4156 C4155 1.373 . S
C4157 C4141 1.377 . S
C4157 C4155 1.389 . S
C4157 C4158 1.524 . S
C4158 C4157 1.524 . S
C4158 C4159 1.397 . S
C4158 C4163 1.363 . S
C4159 H4130 0.950 . S
C4159 C4158 1.397 . S
C4159 C4160 1.334 . S
C4160 H4131 0.950 . S
C4160 C4159 1.334 . S
C4160 C4161 1.287 . S
C4161 C4160 1.287 . S
C4161 C4162 1.524 . S
C4161 H4164 0.999 . S
C4162 H4132 0.950 . S
C4162 C4161 1.524 . S
C4162 C4163 1.415 . S
C4163 H4133 0.950 . S
C4163 C4158 1.363 . S
C4163 C4162 1.415 . S
H4164 C4161 0.999 . S
H4165 C4146 0.905 1_655 S
H4166 C4184 0.951 . S
H4167 C4186 0.951 . S
H4168 C4188 0.950 . S
H4169 C4189 0.950 . S
H4170 C4191 0.950 . S
H4171 C4194 0.950 . S
H4172 C4195 0.950 . S
H4173 C4197 0.950 . S
H4174 C4198 0.950 . S
H4175 C4199 0.951 . S
H4176 C4201 0.951 . S
H4177 C4203 0.950 . S
H4178 C4204 0.950 . S
H4179 C4206 0.950 . S
H4180 C4209 0.950 . S
H4181 C4210 0.950 . S
H4182 C4212 0.950 . S
H4183 C4213 0.950 . S
C4184 H4166 0.951 . S
C4184 C4185 1.366 . S
C4184 C4186 1.388 . S
C4185 C4184 1.366 . S
C4185 C4189 1.385 . S
C4186 H4167 0.951 . S
C4186 C4184 1.388 . S
C4186 C4187 1.366 . S
C4187 C4186 1.366 . S
C4187 C4188 1.414 . S
C4187 C4190 1.499 . S
C4188 H4168 0.950 . S
C4188 C4187 1.414 . S
C4188 C4189 1.374 . S
C4189 H4169 0.950 . S
C4189 C4185 1.385 . S
C4189 C4188 1.374 . S
C4190 C4187 1.499 . S
C4190 C4191 1.373 . S
C4190 C4192 1.389 . S
C4191 H4170 0.950 . S
C4191 C4190 1.373 . S
C4191 C4207 1.377 . S
C4192 C4190 1.389 . S
C4192 C4193 1.524 . S
C4192 C4206 1.377 . S
C4193 C4192 1.524 . S
C4193 C4194 1.397 . S
C4193 C4198 1.363 . S
C4194 H4171 0.950 . S
C4194 C4193 1.397 . S
C4194 C4195 1.334 . S
C4195 H4172 0.950 . S
C4195 C4194 1.334 . S
C4195 C4196 1.287 . S
C4196 C4195 1.287 . S
C4196 C4197 1.524 . S
C4196 H4215 0.913 . S
C4197 H4173 0.950 . S
C4197 C4196 1.524 . S
C4197 C4198 1.415 . S
C4198 H4174 0.950 . S
C4198 C4193 1.363 . S
C4198 C4197 1.415 . S
C4199 H4175 0.951 . S
C4199 C4200 1.366 . S
C4199 C4201 1.388 . S
C4200 C4199 1.366 . S
C4200 C4204 1.385 . S
C4201 H4176 0.951 . S
C4201 C4199 1.388 . S
C4201 C4202 1.366 . S
C4202 C4201 1.366 . S
C4202 C4203 1.414 . S
C4202 C4205 1.499 . S
C4203 H4177 0.950 . S
C4203 C4202 1.414 . S
C4203 C4204 1.374 . S
C4204 H4178 0.950 . S
C4204 C4200 1.385 . S
C4204 C4203 1.374 . S
C4205 C4202 1.499 . S
C4205 C4206 1.373 . S
C4205 C4207 1.389 . S
C4206 H4179 0.950 . S
C4206 C4192 1.377 . S
C4206 C4205 1.373 . S
C4207 C4191 1.377 . S
C4207 C4205 1.389 . S
C4207 C4208 1.524 . S
C4208 C4207 1.524 . S
C4208 C4209 1.397 . S
C4208 C4213 1.363 . S
C4209 H4180 0.950 . S
C4209 C4208 1.397 . S
C4209 C4210 1.334 . S
C4210 H4181 0.950 . S
C4210 C4209 1.334 . S
C4210 C4211 1.287 . S
C4211 C4210 1.287 . S
C4211 C4212 1.524 . S
C4211 H4214 0.999 . S
C4212 H4182 0.950 . S
C4212 C4211 1.524 . S
C4212 C4213 1.415 . S
C4213 H4183 0.950 . S
C4213 C4208 1.363 . S
C4213 C4212 1.415 . S
H4214 C4211 0.999 . S
H4215 C4196 0.913 . S
H4216 C4234 0.951 . S
H4217 C4236 0.951 . S
H4218 C4238 0.950 . S
H4219 C4239 0.950 . S
H4220 C4241 0.950 . S
H4221 C4244 0.950 . S
H4222 C4245 0.950 . S
H4223 C4247 0.950 . S
H4224 C4248 0.950 . S
H4225 C4249 0.951 . S
H4226 C4251 0.951 . S
H4227 C4253 0.950 . S
H4228 C4254 0.950 . S
H4229 C4256 0.950 . S
H4230 C4259 0.950 . S
H4231 C4260 0.950 . S
H4232 C4262 0.950 . S
H4233 C4263 0.950 . S
C4234 H4216 0.951 . S
C4234 C4235 1.366 . S
C4234 C4236 1.388 . S
C4235 C4234 1.366 . S
C4235 C4239 1.385 . S
C4236 H4217 0.951 . S
C4236 C4234 1.388 . S
C4236 C4237 1.366 . S
C4237 C4236 1.366 . S
C4237 C4238 1.414 . S
C4237 C4240 1.499 . S
C4238 H4218 0.950 . S
C4238 C4237 1.414 . S
C4238 C4239 1.374 . S
C4239 H4219 0.950 . S
C4239 C4235 1.385 . S
C4239 C4238 1.374 . S
C4240 C4237 1.499 . S
C4240 C4241 1.373 . S
C4240 C4242 1.389 . S
C4241 H4220 0.950 . S
C4241 C4240 1.373 . S
C4241 C4257 1.377 . S
C4242 C4240 1.389 . S
C4242 C4243 1.524 . S
C4242 C4256 1.377 . S
C4243 C4242 1.524 . S
C4243 C4244 1.397 1_565 S
C4243 C4248 1.363 . S
C4244 H4221 0.950 . S
C4244 C4243 1.397 1_545 S
C4244 C4245 1.334 . S
C4245 H4222 0.950 . S
C4245 C4244 1.334 . S
C4245 C4246 1.287 . S
C4246 C4245 1.287 . S
C4246 C4247 1.524 . S
C4246 H4265 0.913 . S
C4247 H4223 0.950 . S
C4247 C4246 1.524 . S
C4247 C4248 1.415 1_545 S
C4248 H4224 0.950 . S
C4248 C4243 1.363 . S
C4248 C4247 1.415 1_565 S
C4249 H4225 0.951 . S
C4249 C4250 1.366 . S
C4249 C4251 1.388 . S
C4250 C4249 1.366 . S
C4250 C4254 1.385 . S
C4251 H4226 0.951 . S
C4251 C4249 1.388 . S
C4251 C4252 1.366 . S
C4252 C4251 1.366 . S
C4252 C4253 1.414 . S
C4252 C4255 1.499 . S
C4253 H4227 0.950 . S
C4253 C4252 1.414 . S
C4253 C4254 1.374 . S
C4254 H4228 0.950 . S
C4254 C4250 1.385 . S
C4254 C4253 1.374 . S
C4255 C4252 1.499 . S
C4255 C4256 1.373 . S
C4255 C4257 1.389 . S
C4256 H4229 0.950 . S
C4256 C4242 1.377 . S
C4256 C4255 1.373 . S
C4257 C4241 1.377 . S
C4257 C4255 1.389 . S
C4257 C4258 1.524 . S
C4258 C4257 1.524 . S
C4258 C4259 1.397 . S
C4258 C4263 1.363 . S
C4259 H4230 0.950 . S
C4259 C4258 1.397 . S
C4259 C4260 1.334 . S
C4260 H4231 0.950 . S
C4260 C4259 1.334 . S
C4260 C4261 1.287 . S
C4261 C4260 1.287 . S
C4261 C4262 1.524 . S
C4261 H4264 0.999 . S
C4262 H4232 0.950 . S
C4262 C4261 1.524 . S
C4262 C4263 1.415 . S
C4263 H4233 0.950 . S
C4263 C4258 1.363 . S
C4263 C4262 1.415 . S
H4264 C4261 0.999 . S
H4265 C4246 0.913 . S
H4266 C4284 0.951 . S
H4267 C4286 0.951 . S
H4268 C4288 0.950 . S
H4269 C4289 0.950 . S
H4270 C4291 0.950 . S
H4271 C4294 0.950 . S
H4272 C4295 0.950 . S
H4273 C4297 0.950 . S
H4274 C4298 0.950 . S
H4275 C4299 0.951 . S
H4276 C4301 0.951 . S
H4277 C4303 0.960 . S
H4278 C4304 0.950 . S
H4279 C4306 0.950 . S
H4280 C4309 0.950 . S
H4281 C4310 0.950 . S
H4282 C4312 0.950 . S
H4283 C4313 0.950 . S
C4284 H4266 0.951 . S
C4284 C4285 1.366 . S
C4284 C4286 1.388 . S
C4285 C4284 1.366 . S
C4285 C4289 1.385 . S
C4286 H4267 0.951 . S
C4286 C4284 1.388 . S
C4286 C4287 1.366 . S
C4287 C4286 1.366 . S
C4287 C4288 1.414 . S
C4287 C4290 1.499 . S
C4288 H4268 0.950 . S
C4288 C4287 1.414 . S
C4288 C4289 1.374 . S
C4289 H4269 0.950 . S
C4289 C4285 1.385 . S
C4289 C4288 1.374 . S
C4290 C4287 1.499 . S
C4290 C4291 1.373 . S
C4290 C4292 1.389 . S
C4291 H4270 0.950 . S
C4291 C4290 1.373 . S
C4291 C4307 1.377 . S
C4292 C4290 1.389 . S
C4292 C4293 1.524 . S
C4292 C4306 1.377 . S
C4293 C4292 1.524 . S
C4293 C4294 1.397 . S
C4293 C4298 1.363 . S
C4294 H4271 0.950 . S
C4294 C4293 1.397 . S
C4294 C4295 1.334 . S
C4295 H4272 0.950 . S
C4295 C4294 1.334 . S
C4295 C4296 1.287 . S
C4296 C4295 1.287 . S
C4296 C4297 1.524 . S
C4296 H4315 0.913 . S
C4297 H4273 0.950 . S
C4297 C4296 1.524 . S
C4297 C4298 1.415 . S
C4298 H4274 0.950 . S
C4298 C4293 1.363 . S
C4298 C4297 1.415 . S
C4299 H4275 0.951 . S
C4299 C4300 1.406 . S
C4299 C4301 1.388 . S
C4300 C4299 1.406 . S
C4300 C4304 1.377 1_565 S
C4301 H4276 0.951 . S
C4301 C4299 1.388 . S
C4301 C4302 1.366 . S
C4302 C4301 1.366 . S
C4302 C4303 1.376 1_565 S
C4302 C4305 1.499 . S
C4303 H4277 0.960 . S
C4303 C4302 1.376 1_545 S
C4303 C4304 1.405 . S
C4304 H4278 0.950 . S
C4304 C4300 1.377 1_545 S
C4304 C4303 1.405 . S
C4305 C4302 1.499 . S
C4305 C4306 1.373 . S
C4305 C4307 1.389 . S
C4306 H4279 0.950 . S
C4306 C4292 1.377 . S
C4306 C4305 1.373 . S
C4307 C4291 1.377 . S
C4307 C4305 1.389 . S
C4307 C4308 1.524 1_565 S
C4308 C4307 1.524 1_545 S
C4308 C4309 1.397 . S
C4308 C4313 1.363 1_545 S
C4309 H4280 0.950 . S
C4309 C4308 1.397 . S
C4309 C4310 1.334 . S
C4310 H4281 0.950 . S
C4310 C4309 1.334 . S
C4310 C4311 1.287 . S
C4311 C4310 1.287 . S
C4311 C4312 1.524 . S
C4311 H4314 0.999 . S
C4312 H4282 0.950 . S
C4312 C4311 1.524 . S
C4312 C4313 1.415 1_545 S
C4313 H4283 0.950 . S
C4313 C4308 1.363 1_565 S
C4313 C4312 1.415 1_565 S
H4314 C4311 0.999 . S
H4315 C4296 0.913 . S
H4316 C4334 0.951 . S
H4317 C4336 0.951 . S
H4318 C4338 0.950 . S
H4319 C4339 0.950 . S
H4320 C4341 0.950 1_655 S
H4321 C4344 0.950 . S
H4322 C4345 0.950 . S
H4323 C4347 0.950 . S
H4324 C4348 0.950 . S
H4325 C4349 0.951 . S
H4326 C4351 0.951 . S
H4327 C4353 0.950 . S
H4328 C4354 0.950 . S
H4329 C4356 0.950 . S
H4330 C4359 0.950 . S
H4331 C4360 0.950 . S
H4332 C4362 0.950 . S
H4333 C4363 0.950 . S
C4334 H4316 0.951 . S
C4334 C4335 1.366 . S
C4334 C4336 1.388 . S
C4335 C4334 1.366 . S
C4335 C4339 1.385 . S
C4336 H4317 0.951 . S
C4336 C4334 1.388 . S
C4336 C4337 1.366 . S
C4337 C4336 1.366 . S
C4337 C4338 1.414 . S
C4337 C4340 1.499 . S
C4338 H4318 0.950 . S
C4338 C4337 1.414 . S
C4338 C4339 1.374 . S
C4339 H4319 0.950 . S
C4339 C4335 1.385 . S
C4339 C4338 1.374 . S
C4340 C4337 1.499 . S
C4340 C4341 1.373 . S
C4340 C4342 1.389 . S
C4341 H4320 0.950 1_455 S
C4341 C4340 1.373 . S
C4341 C4357 1.377 1_455 S
C4342 C4340 1.389 . S
C4342 C4343 1.524 . S
C4342 C4356 1.377 . S
C4343 C4342 1.524 . S
C4343 C4344 1.397 . S
C4343 C4348 1.363 . S
C4344 H4321 0.950 . S
C4344 C4343 1.397 . S
C4344 C4345 1.334 . S
C4345 H4322 0.950 . S
C4345 C4344 1.334 . S
C4345 C4346 1.287 . S
C4346 C4345 1.287 . S
C4346 C4347 1.524 . S
C4346 H4365 0.913 . S
C4347 H4323 0.950 . S
C4347 C4346 1.524 . S
C4347 C4348 1.415 . S
C4348 H4324 0.950 . S
C4348 C4343 1.363 . S
C4348 C4347 1.415 . S
C4349 H4325 0.951 . S
C4349 C4350 1.366 . S
C4349 C4351 1.388 . S
C4350 C4349 1.366 . S
C4350 C4354 1.385 1_655 S
C4351 H4326 0.951 . S
C4351 C4349 1.388 . S
C4351 C4352 1.366 1_655 S
C4352 C4351 1.366 1_455 S
C4352 C4353 1.414 . S
C4352 C4355 1.499 . S
C4353 H4327 0.950 . S
C4353 C4352 1.414 . S
C4353 C4354 1.374 . S
C4354 H4328 0.950 . S
C4354 C4350 1.385 1_455 S
C4354 C4353 1.374 . S
C4355 C4352 1.499 . S
C4355 C4356 1.373 . S
C4355 C4357 1.389 1_455 S
C4356 H4329 0.950 . S
C4356 C4342 1.377 . S
C4356 C4355 1.373 . S
C4357 C4341 1.377 1_655 S
C4357 C4355 1.389 1_655 S
C4357 C4358 1.524 . S
C4358 C4357 1.524 . S
C4358 C4359 1.397 . S
C4358 C4363 1.363 . S
C4359 H4330 0.950 . S
C4359 C4358 1.397 . S
C4359 C4360 1.334 . S
C4360 H4331 0.950 . S
C4360 C4359 1.334 . S
C4360 C4361 1.287 . S
C4361 C4360 1.287 . S
C4361 C4362 1.524 . S
C4361 H4364 0.999 . S
C4362 H4332 0.950 . S
C4362 C4361 1.524 . S
C4362 C4363 1.415 . S
C4363 H4333 0.950 . S
C4363 C4358 1.363 . S
C4363 C4362 1.415 . S
H4364 C4361 0.999 . S
H4365 C4346 0.913 . S
H4366 C4384 0.951 . S
H4367 C4386 0.951 . S
H4368 C4388 0.950 . S
H4369 C4389 0.950 . S
H4370 C4391 0.950 . S
H4371 C4394 0.950 . S
H4372 C4395 0.950 . S
H4373 C4397 0.950 . S
H4374 C4398 0.950 . S
H4375 C4399 0.951 . S
H4376 C4401 0.951 . S
H4377 C4403 0.950 . S
H4378 C4404 0.950 . S
H4379 C4406 0.950 . S
H4380 C4409 0.950 . S
H4381 C4410 0.950 . S
H4382 C4412 0.950 . S
H4383 C4413 0.950 . S
C4384 H4366 0.951 . S
C4384 C4385 1.366 . S
C4384 C4386 1.388 . S
C4385 C4384 1.366 . S
C4385 C4389 1.385 . S
C4386 H4367 0.951 . S
C4386 C4384 1.388 . S
C4386 C4387 1.366 . S
C4387 C4386 1.366 . S
C4387 C4388 1.414 . S
C4387 C4390 1.499 . S
C4388 H4368 0.950 . S
C4388 C4387 1.414 . S
C4388 C4389 1.374 . S
C4389 H4369 0.950 . S
C4389 C4385 1.385 . S
C4389 C4388 1.374 . S
C4390 C4387 1.499 . S
C4390 C4391 1.373 . S
C4390 C4392 1.389 . S
C4391 H4370 0.950 . S
C4391 C4390 1.373 . S
C4391 C4407 1.377 . S
C4392 C4390 1.389 . S
C4392 C4393 1.524 . S
C4392 C4406 1.377 . S
C4393 C4392 1.524 . S
C4393 C4394 1.397 . S
C4393 C4398 1.363 . S
C4394 H4371 0.950 . S
C4394 C4393 1.397 . S
C4394 C4395 1.334 . S
C4395 H4372 0.950 . S
C4395 C4394 1.334 . S
C4395 C4396 1.287 . S
C4396 C4395 1.287 . S
C4396 C4397 1.524 . S
C4396 H4415 0.913 . S
C4397 H4373 0.950 . S
C4397 C4396 1.524 . S
C4397 C4398 1.415 . S
C4398 H4374 0.950 . S
C4398 C4393 1.363 . S
C4398 C4397 1.415 . S
C4399 H4375 0.951 . S
C4399 C4400 1.366 . S
C4399 C4401 1.388 . S
C4400 C4399 1.366 . S
C4400 C4404 1.385 . S
C4401 H4376 0.951 . S
C4401 C4399 1.388 . S
C4401 C4402 1.366 . S
C4402 C4401 1.366 . S
C4402 C4403 1.414 . S
C4402 C4405 1.499 . S
C4403 H4377 0.950 . S
C4403 C4402 1.414 . S
C4403 C4404 1.374 . S
C4404 H4378 0.950 . S
C4404 C4400 1.385 . S
C4404 C4403 1.374 . S
C4405 C4402 1.499 . S
C4405 C4406 1.373 . S
C4405 C4407 1.389 . S
C4406 H4379 0.950 . S
C4406 C4392 1.377 . S
C4406 C4405 1.373 . S
C4407 C4391 1.377 . S
C4407 C4405 1.389 . S
C4407 C4408 1.524 . S
C4408 C4407 1.524 . S
C4408 C4409 1.397 . S
C4408 C4413 1.363 . S
C4409 H4380 0.950 . S
C4409 C4408 1.397 . S
C4409 C4410 1.334 . S
C4410 H4381 0.950 . S
C4410 C4409 1.334 . S
C4410 C4411 1.287 . S
C4411 C4410 1.287 . S
C4411 C4412 1.524 . S
C4411 H4414 0.999 . S
C4412 H4382 0.950 . S
C4412 C4411 1.524 . S
C4412 C4413 1.415 . S
C4413 H4383 0.950 . S
C4413 C4408 1.363 . S
C4413 C4412 1.415 . S
H4414 C4411 0.999 . S
H4415 C4396 0.913 . S
H4416 C4434 0.951 . S
H4417 C4436 0.951 . S
H4418 C4438 0.950 . S
H4419 C4439 0.950 . S
H4420 C4441 0.950 . S
H4421 C4444 0.950 . S
H4422 C4445 0.950 . S
H4423 C4447 0.950 . S
H4424 C4448 0.950 . S
H4425 C4449 0.951 . S
H4426 C4451 0.951 . S
H4427 C4453 0.950 . S
H4428 C4454 0.950 . S
H4429 C4456 0.950 . S
H4430 C4459 0.950 . S
H4431 C4460 0.950 . S
H4432 C4462 0.950 . S
H4433 C4463 0.950 . S
C4434 H4416 0.951 . S
C4434 C4435 1.366 . S
C4434 C4436 1.388 . S
C4435 C4434 1.366 . S
C4435 C4439 1.385 . S
C4436 H4417 0.951 . S
C4436 C4434 1.388 . S
C4436 C4437 1.366 . S
C4437 C4436 1.366 . S
C4437 C4438 1.414 . S
C4437 C4440 1.499 . S
C4438 H4418 0.950 . S
C4438 C4437 1.414 . S
C4438 C4439 1.374 . S
C4439 H4419 0.950 . S
C4439 C4435 1.385 . S
C4439 C4438 1.374 . S
C4440 C4437 1.499 . S
C4440 C4441 1.373 . S
C4440 C4442 1.389 . S
C4441 H4420 0.950 . S
C4441 C4440 1.373 . S
C4441 C4457 1.377 . S
C4442 C4440 1.389 . S
C4442 C4443 1.524 . S
C4442 C4456 1.377 . S
C4443 C4442 1.524 . S
C4443 C4444 1.397 . S
C4443 C4448 1.363 . S
C4444 H4421 0.950 . S
C4444 C4443 1.397 . S
C4444 C4445 1.334 . S
C4445 H4422 0.950 . S
C4445 C4444 1.334 . S
C4445 C4446 1.287 . S
C4446 C4445 1.287 . S
C4446 C4447 1.524 . S
C4446 H4465 0.913 . S
C4447 H4423 0.950 . S
C4447 C4446 1.524 . S
C4447 C4448 1.415 . S
C4448 H4424 0.950 . S
C4448 C4443 1.363 . S
C4448 C4447 1.415 . S
C4449 H4425 0.951 . S
C4449 C4450 1.366 . S
C4449 C4451 1.388 . S
C4450 C4449 1.366 . S
C4450 C4454 1.385 . S
C4451 H4426 0.951 . S
C4451 C4449 1.388 . S
C4451 C4452 1.366 . S
C4452 C4451 1.366 . S
C4452 C4453 1.414 . S
C4452 C4455 1.499 . S
C4453 H4427 0.950 . S
C4453 C4452 1.414 . S
C4453 C4454 1.374 . S
C4454 H4428 0.950 . S
C4454 C4450 1.385 . S
C4454 C4453 1.374 . S
C4455 C4452 1.499 . S
C4455 C4456 1.373 . S
C4455 C4457 1.389 . S
C4456 H4429 0.950 . S
C4456 C4442 1.377 . S
C4456 C4455 1.373 . S
C4457 C4441 1.377 . S
C4457 C4455 1.389 . S
C4457 C4458 1.524 . S
C4458 C4457 1.524 . S
C4458 C4459 1.397 . S
C4458 C4463 1.363 . S
C4459 H4430 0.950 . S
C4459 C4458 1.397 . S
C4459 C4460 1.334 . S
C4460 H4431 0.950 . S
C4460 C4459 1.334 . S
C4460 C4461 1.287 . S
C4461 C4460 1.287 . S
C4461 C4462 1.524 . S
C4461 H4464 0.999 . S
C4462 H4432 0.950 . S
C4462 C4461 1.524 . S
C4462 C4463 1.415 . S
C4463 H4433 0.950 . S
C4463 C4458 1.363 . S
C4463 C4462 1.415 . S
H4464 C4461 0.999 . S
H4465 C4446 0.913 . S
H4466 C4484 0.951 . S
H4467 C4486 0.951 . S
H4468 C4488 0.950 . S
H4469 C4489 0.950 . S
H4470 C4491 0.950 . S
H4471 C4494 0.950 . S
H4472 C4495 0.950 . S
H4473 C4497 0.950 . S
H4474 C4498 0.950 . S
H4475 C4499 0.951 . S
H4476 C4501 0.951 . S
H4477 C4503 0.950 . S
H4478 C4504 0.950 . S
H4479 C4506 0.950 . S
H4480 C4509 0.950 . S
H4481 C4510 0.950 . S
H4482 C4512 0.950 . S
H4483 C4513 0.950 . S
C4484 H4466 0.951 . S
C4484 C4485 1.366 . S
C4484 C4486 1.388 . S
C4485 C4484 1.366 . S
C4485 C4489 1.385 . S
C4486 H4467 0.951 . S
C4486 C4484 1.388 . S
C4486 C4487 1.366 . S
C4487 C4486 1.366 . S
C4487 C4488 1.414 . S
C4487 C4490 1.499 . S
C4488 H4468 0.950 . S
C4488 C4487 1.414 . S
C4488 C4489 1.374 . S
C4489 H4469 0.950 . S
C4489 C4485 1.385 . S
C4489 C4488 1.374 . S
C4490 C4487 1.499 . S
C4490 C4491 1.373 . S
C4490 C4492 1.389 . S
C4491 H4470 0.950 . S
C4491 C4490 1.373 . S
C4491 C4507 1.377 . S
C4492 C4490 1.389 . S
C4492 C4493 1.524 . S
C4492 C4506 1.377 . S
C4493 C4492 1.524 . S
C4493 C4494 1.397 . S
C4493 C4498 1.363 . S
C4494 H4471 0.950 . S
C4494 C4493 1.397 . S
C4494 C4495 1.334 . S
C4495 H4472 0.950 . S
C4495 C4494 1.334 . S
C4495 C4496 1.287 . S
C4496 C4495 1.287 . S
C4496 C4497 1.524 . S
C4496 H4515 0.913 . S
C4497 H4473 0.950 . S
C4497 C4496 1.524 . S
C4497 C4498 1.415 . S
C4498 H4474 0.950 . S
C4498 C4493 1.363 . S
C4498 C4497 1.415 . S
C4499 H4475 0.951 . S
C4499 C4500 1.366 . S
C4499 C4501 1.388 . S
C4500 C4499 1.366 . S
C4500 C4504 1.385 . S
C4501 H4476 0.951 . S
C4501 C4499 1.388 . S
C4501 C4502 1.366 . S
C4502 C4501 1.366 . S
C4502 C4503 1.414 . S
C4502 C4505 1.499 . S
C4503 H4477 0.950 . S
C4503 C4502 1.414 . S
C4503 C4504 1.374 . S
C4504 H4478 0.950 . S
C4504 C4500 1.385 . S
C4504 C4503 1.374 . S
C4505 C4502 1.499 . S
C4505 C4506 1.373 . S
C4505 C4507 1.389 . S
C4506 H4479 0.950 . S
C4506 C4492 1.377 . S
C4506 C4505 1.373 . S
C4507 C4491 1.377 . S
C4507 C4505 1.389 . S
C4507 C4508 1.524 . S
C4508 C4507 1.524 . S
C4508 C4509 1.397 . S
C4508 C4513 1.363 . S
C4509 H4480 0.950 . S
C4509 C4508 1.397 . S
C4509 C4510 1.334 . S
C4510 H4481 0.950 . S
C4510 C4509 1.334 . S
C4510 C4511 1.287 . S
C4511 C4510 1.287 . S
C4511 C4512 1.524 . S
C4511 H4514 0.999 . S
C4512 H4482 0.950 . S
C4512 C4511 1.524 . S
C4512 C4513 1.415 . S
C4513 H4483 0.950 . S
C4513 C4508 1.363 . S
C4513 C4512 1.415 . S
H4514 C4511 0.999 . S
H4515 C4496 0.913 . S
H4516 C4534 0.951 . S
H4517 C4536 0.951 . S
H4518 C4538 0.950 . S
H4519 C4539 0.950 . S
H4520 C4541 0.950 . S
H4521 C4544 0.950 . S
H4522 C4545 0.950 . S
H4523 C4547 0.950 . S
H4524 C4548 0.950 . S
H4525 C4549 0.951 . S
H4526 C4551 0.951 . S
H4527 C4553 0.950 . S
H4528 C4554 0.950 . S
H4529 C4556 0.950 . S
H4530 C4559 0.950 . S
H4531 C4560 0.950 . S
H4532 C4562 0.950 . S
H4533 C4563 0.950 . S
C4534 H4516 0.951 . S
C4534 C4535 1.366 . S
C4534 C4536 1.388 . S
C4535 C4534 1.366 . S
C4535 C4539 1.385 . S
C4536 H4517 0.951 . S
C4536 C4534 1.388 . S
C4536 C4537 1.366 . S
C4537 C4536 1.366 . S
C4537 C4538 1.414 . S
C4537 C4540 1.499 . S
C4538 H4518 0.950 . S
C4538 C4537 1.414 . S
C4538 C4539 1.374 . S
C4539 H4519 0.950 . S
C4539 C4535 1.385 . S
C4539 C4538 1.374 . S
C4540 C4537 1.499 . S
C4540 C4541 1.373 . S
C4540 C4542 1.389 . S
C4541 H4520 0.950 . S
C4541 C4540 1.373 . S
C4541 C4557 1.377 . S
C4542 C4540 1.389 . S
C4542 C4543 1.524 . S
C4542 C4556 1.377 . S
C4543 C4542 1.524 . S
C4543 C4544 1.397 . S
C4543 C4548 1.363 . S
C4544 H4521 0.950 . S
C4544 C4543 1.397 . S
C4544 C4545 1.334 . S
C4545 H4522 0.950 . S
C4545 C4544 1.334 . S
C4545 C4546 1.287 . S
C4546 C4545 1.287 . S
C4546 C4547 1.524 . S
C4546 H4565 0.913 . S
C4547 H4523 0.950 . S
C4547 C4546 1.524 . S
C4547 C4548 1.415 . S
C4548 H4524 0.950 . S
C4548 C4543 1.363 . S
C4548 C4547 1.415 . S
C4549 H4525 0.951 . S
C4549 C4550 1.366 . S
C4549 C4551 1.388 . S
C4550 C4549 1.366 . S
C4550 C4554 1.385 . S
C4551 H4526 0.951 . S
C4551 C4549 1.388 . S
C4551 C4552 1.366 . S
C4552 C4551 1.366 . S
C4552 C4553 1.414 . S
C4552 C4555 1.499 . S
C4553 H4527 0.950 . S
C4553 C4552 1.414 . S
C4553 C4554 1.374 . S
C4554 H4528 0.950 . S
C4554 C4550 1.385 . S
C4554 C4553 1.374 . S
C4555 C4552 1.499 . S
C4555 C4556 1.373 . S
C4555 C4557 1.389 . S
C4556 H4529 0.950 . S
C4556 C4542 1.377 . S
C4556 C4555 1.373 . S
C4557 C4541 1.377 . S
C4557 C4555 1.389 . S
C4557 C4558 1.524 . S
C4558 C4557 1.524 . S
C4558 C4559 1.397 . S
C4558 C4563 1.363 . S
C4559 H4530 0.950 . S
C4559 C4558 1.397 . S
C4559 C4560 1.334 . S
C4560 H4531 0.950 . S
C4560 C4559 1.334 . S
C4560 C4561 1.287 . S
C4561 C4560 1.287 . S
C4561 C4562 1.524 . S
C4561 H4564 0.999 . S
C4562 H4532 0.950 . S
C4562 C4561 1.524 . S
C4562 C4563 1.415 . S
C4563 H4533 0.950 . S
C4563 C4558 1.363 . S
C4563 C4562 1.415 . S
H4564 C4561 0.999 . S
H4565 C4546 0.913 . S
H4566 C4584 0.951 . S
H4567 C4586 0.951 . S
H4568 C4588 0.950 . S
H4569 C4589 0.950 . S
H4570 C4591 0.950 . S
H4571 C4594 0.950 1_545 S
H4572 C4595 0.950 . S
H4573 C4597 0.950 . S
H4574 C4598 0.950 . S
H4575 C4599 0.951 . S
H4576 C4601 0.951 . S
H4577 C4603 0.950 . S
H4578 C4604 0.950 1_565 S
H4579 C4606 0.950 1_565 S
H4580 C4609 0.950 . S
H4581 C4610 0.950 . S
H4582 C4612 0.950 . S
H4583 C4613 0.950 . S
C4584 H4566 0.951 . S
C4584 C4585 1.366 . S
C4584 C4586 1.388 . S
C4585 C4584 1.366 . S
C4585 C4589 1.385 . S
C4586 H4567 0.951 . S
C4586 C4584 1.388 . S
C4586 C4587 1.366 . S
C4587 C4586 1.366 . S
C4587 C4588 1.414 . S
C4587 C4590 1.499 . S
C4588 H4568 0.950 . S
C4588 C4587 1.414 . S
C4588 C4589 1.374 . S
C4589 H4569 0.950 . S
C4589 C4585 1.385 . S
C4589 C4588 1.374 . S
C4590 C4587 1.499 . S
C4590 C4591 1.373 . S
C4590 C4592 1.389 . S
C4591 H4570 0.950 . S
C4591 C4590 1.373 . S
C4591 C4607 1.377 . S
C4592 C4590 1.389 . S
C4592 C4593 1.524 1_545 S
C4592 C4606 1.377 . S
C4593 C4592 1.524 1_565 S
C4593 C4594 1.397 . S
C4593 C4598 1.363 . S
C4594 H4571 0.950 1_565 S
C4594 C4593 1.397 . S
C4594 C4595 1.334 . S
C4595 H4572 0.950 . S
C4595 C4594 1.334 . S
C4595 C4596 1.287 . S
C4596 C4595 1.287 . S
C4596 C4597 1.524 . S
C4596 H4615 0.913 . S
C4597 H4573 0.950 . S
C4597 C4596 1.524 . S
C4597 C4598 1.415 . S
C4598 H4574 0.950 . S
C4598 C4593 1.363 . S
C4598 C4597 1.415 . S
C4599 H4575 0.951 . S
C4599 C4600 1.366 . S
C4599 C4601 1.388 . S
C4600 C4599 1.366 . S
C4600 C4604 1.385 . S
C4601 H4576 0.951 . S
C4601 C4599 1.388 . S
C4601 C4602 1.366 . S
C4602 C4601 1.366 . S
C4602 C4603 1.414 . S
C4602 C4605 1.499 . S
C4603 H4577 0.950 . S
C4603 C4602 1.414 . S
C4603 C4604 1.374 . S
C4604 H4578 0.950 1_545 S
C4604 C4600 1.385 . S
C4604 C4603 1.374 . S
C4605 C4602 1.499 . S
C4605 C4606 1.373 . S
C4605 C4607 1.389 . S
C4606 H4579 0.950 1_545 S
C4606 C4592 1.377 . S
C4606 C4605 1.373 . S
C4607 C4591 1.377 . S
C4607 C4605 1.389 . S
C4607 C4608 1.524 . S
C4608 C4607 1.524 . S
C4608 C4609 1.397 . S
C4608 C4613 1.363 . S
C4609 H4580 0.950 . S
C4609 C4608 1.397 . S
C4609 C4610 1.334 . S
C4610 H4581 0.950 . S
C4610 C4609 1.334 . S
C4610 C4611 1.287 . S
C4611 C4610 1.287 . S
C4611 C4612 1.524 . S
C4611 H4614 0.999 . S
C4612 H4582 0.950 . S
C4612 C4611 1.524 . S
C4612 C4613 1.415 . S
C4613 H4583 0.950 . S
C4613 C4608 1.363 . S
C4613 C4612 1.415 . S
H4614 C4611 0.999 . S
H4615 C4596 0.913 . S
H4616 C4634 0.951 . S
H4617 C4636 0.951 . S
H4618 C4638 0.950 . S
H4619 C4639 0.950 . S
H4620 C4641 0.950 . S
H4621 C4644 0.950 . S
H4622 C4645 0.950 . S
H4623 C4647 0.950 1_455 S
H4624 C4648 0.950 1_455 S
H4625 C4649 0.951 . S
H4626 C4651 0.951 . S
H4627 C4653 0.891 1_455 S
H4628 C4654 0.950 . S
H4629 C4656 0.950 . S
H4630 C4659 0.950 1_455 S
H4631 C4660 0.950 1_455 S
H4632 C4662 0.950 . S
H4633 C4663 0.950 . S
C4634 H4616 0.951 . S
C4634 C4635 1.366 . S
C4634 C4636 1.388 . S
C4635 C4634 1.366 . S
C4635 C4639 1.385 . S
C4636 H4617 0.951 . S
C4636 C4634 1.388 . S
C4636 C4637 1.366 . S
C4637 C4636 1.366 . S
C4637 C4638 1.414 . S
C4637 C4640 1.499 . S
C4638 H4618 0.950 . S
C4638 C4637 1.414 . S
C4638 C4639 1.374 . S
C4639 H4619 0.950 . S
C4639 C4635 1.385 . S
C4639 C4638 1.374 . S
C4640 C4637 1.499 . S
C4640 C4641 1.373 . S
C4640 C4642 1.389 . S
C4641 H4620 0.950 . S
C4641 C4640 1.373 . S
C4641 C4657 1.377 . S
C4642 C4640 1.389 . S
C4642 C4643 1.524 . S
C4642 C4656 1.377 . S
C4643 C4642 1.524 . S
C4643 C4644 1.397 . S
C4643 C4648 1.363 . S
C4644 H4621 0.950 . S
C4644 C4643 1.397 . S
C4644 C4645 1.334 . S
C4645 H4622 0.950 . S
C4645 C4644 1.334 . S
C4645 C4646 1.287 . S
C4646 C4645 1.287 . S
C4646 C4647 1.524 . S
C4646 H4665 0.913 . S
C4647 H4623 0.950 1_655 S
C4647 C4646 1.524 . S
C4647 C4648 1.415 . S
C4648 H4624 0.950 1_655 S
C4648 C4643 1.363 . S
C4648 C4647 1.415 . S
C4649 H4625 0.951 . S
C4649 C4650 1.366 . S
C4649 C4651 1.388 . S
C4650 C4649 1.366 . S
C4650 C4654 1.385 1_655 S
C4651 H4626 0.951 . S
C4651 C4649 1.388 . S
C4651 C4652 1.366 . S
C4652 C4651 1.366 . S
C4652 C4653 1.450 . S
C4652 C4655 1.499 . S
C4653 H4627 0.891 1_655 S
C4653 C4652 1.450 . S
C4653 C4654 1.399 1_655 S
C4654 H4628 0.950 . S
C4654 C4650 1.385 1_455 S
C4654 C4653 1.399 1_455 S
C4655 C4652 1.499 . S
C4655 C4656 1.373 . S
C4655 C4657 1.389 . S
C4656 H4629 0.950 . S
C4656 C4642 1.377 . S
C4656 C4655 1.373 . S
C4657 C4641 1.377 . S
C4657 C4655 1.389 . S
C4657 C4658 1.524 . S
C4658 C4657 1.524 . S
C4658 C4659 1.397 . S
C4658 C4663 1.363 . S
C4659 H4630 0.950 1_655 S
C4659 C4658 1.397 . S
C4659 C4660 1.334 . S
C4660 H4631 0.950 1_655 S
C4660 C4659 1.334 . S
C4660 C4661 1.287 . S
C4661 C4660 1.287 . S
C4661 C4662 1.524 . S
C4661 H4664 0.999 . S
C4662 H4632 0.950 . S
C4662 C4661 1.524 . S
C4662 C4663 1.415 . S
C4663 H4633 0.950 . S
C4663 C4658 1.363 . S
C4663 C4662 1.415 . S
H4664 C4661 0.999 . S
H4665 C4646 0.913 . S
H4666 C4684 0.951 . S
H4667 C4686 0.951 . S
H4668 C4688 0.950 . S
H4669 C4689 0.950 . S
H4670 C4691 0.950 . S
H4671 C4694 0.950 . S
H4672 C4695 0.950 . S
H4673 C4697 0.950 . S
H4674 C4698 0.950 . S
H4675 C4699 0.951 . S
H4676 C4701 0.951 . S
H4677 C4703 0.950 . S
H4678 C4704 0.950 . S
H4679 C4706 0.950 . S
H4680 C4709 0.950 . S
H4681 C4710 0.950 . S
H4682 C4712 0.950 . S
H4683 C4713 0.950 . S
C4684 H4666 0.951 . S
C4684 C4685 1.366 . S
C4684 C4686 1.388 . S
C4685 C4684 1.366 . S
C4685 C4689 1.385 . S
C4686 H4667 0.951 . S
C4686 C4684 1.388 . S
C4686 C4687 1.366 . S
C4687 C4686 1.366 . S
C4687 C4688 1.414 . S
C4687 C4690 1.499 . S
C4688 H4668 0.950 . S
C4688 C4687 1.414 . S
C4688 C4689 1.374 . S
C4689 H4669 0.950 . S
C4689 C4685 1.385 . S
C4689 C4688 1.374 . S
C4690 C4687 1.499 . S
C4690 C4691 1.373 . S
C4690 C4692 1.389 . S
C4691 H4670 0.950 . S
C4691 C4690 1.373 . S
C4691 C4707 1.377 . S
C4692 C4690 1.389 . S
C4692 C4693 1.524 . S
C4692 C4706 1.377 . S
C4693 C4692 1.524 . S
C4693 C4694 1.397 . S
C4693 C4698 1.363 . S
C4694 H4671 0.950 . S
C4694 C4693 1.397 . S
C4694 C4695 1.334 . S
C4695 H4672 0.950 . S
C4695 C4694 1.334 . S
C4695 C4696 1.287 . S
C4696 C4695 1.287 . S
C4696 C4697 1.524 . S
C4696 H4715 0.913 . S
C4697 H4673 0.950 . S
C4697 C4696 1.524 . S
C4697 C4698 1.415 . S
C4698 H4674 0.950 . S
C4698 C4693 1.363 . S
C4698 C4697 1.415 . S
C4699 H4675 0.951 . S
C4699 C4700 1.366 . S
C4699 C4701 1.388 . S
C4700 C4699 1.366 . S
C4700 C4704 1.385 . S
C4701 H4676 0.951 . S
C4701 C4699 1.388 . S
C4701 C4702 1.366 . S
C4702 C4701 1.366 . S
C4702 C4703 1.414 . S
C4702 C4705 1.499 . S
C4703 H4677 0.950 . S
C4703 C4702 1.414 . S
C4703 C4704 1.374 . S
C4704 H4678 0.950 . S
C4704 C4700 1.385 . S
C4704 C4703 1.374 . S
C4705 C4702 1.499 . S
C4705 C4706 1.373 . S
C4705 C4707 1.389 . S
C4706 H4679 0.950 . S
C4706 C4692 1.377 . S
C4706 C4705 1.373 . S
C4707 C4691 1.377 . S
C4707 C4705 1.389 . S
C4707 C4708 1.524 . S
C4708 C4707 1.524 . S
C4708 C4709 1.397 . S
C4708 C4713 1.363 . S
C4709 H4680 0.950 . S
C4709 C4708 1.397 . S
C4709 C4710 1.334 . S
C4710 H4681 0.950 . S
C4710 C4709 1.334 . S
C4710 C4711 1.287 . S
C4711 C4710 1.287 . S
C4711 C4712 1.524 . S
C4711 H4714 0.999 . S
C4712 H4682 0.950 . S
C4712 C4711 1.524 . S
C4712 C4713 1.415 . S
C4713 H4683 0.950 . S
C4713 C4708 1.363 . S
C4713 C4712 1.415 . S
H4714 C4711 0.999 . S
H4715 C4696 0.913 . S
H4716 C4734 0.951 . S
H4717 C4736 0.951 . S
H4718 C4738 0.950 . S
H4719 C4739 0.950 . S
H4720 C4741 0.950 . S
H4721 C4744 0.950 . S
H4722 C4745 0.950 . S
H4723 C4747 0.950 . S
H4724 C4748 0.950 . S
H4725 C4749 0.951 . S
H4726 C4751 0.951 . S
H4727 C4753 0.950 . S
H4728 C4754 0.950 . S
H4729 C4756 0.950 . S
H4730 C4759 0.950 . S
H4731 C4760 0.950 . S
H4732 C4762 0.950 . S
H4733 C4763 0.950 . S
C4734 H4716 0.951 . S
C4734 C4735 1.366 . S
C4734 C4736 1.388 . S
C4735 C4734 1.366 . S
C4735 C4739 1.385 . S
C4736 H4717 0.951 . S
C4736 C4734 1.388 . S
C4736 C4737 1.366 . S
C4737 C4736 1.366 . S
C4737 C4738 1.414 . S
C4737 C4740 1.499 . S
C4738 H4718 0.950 . S
C4738 C4737 1.414 . S
C4738 C4739 1.374 . S
C4739 H4719 0.950 . S
C4739 C4735 1.385 . S
C4739 C4738 1.374 . S
C4740 C4737 1.499 . S
C4740 C4741 1.373 . S
C4740 C4742 1.389 . S
C4741 H4720 0.950 . S
C4741 C4740 1.373 . S
C4741 C4757 1.377 . S
C4742 C4740 1.389 . S
C4742 C4743 1.524 . S
C4742 C4756 1.377 . S
C4743 C4742 1.524 . S
C4743 C4744 1.397 . S
C4743 C4748 1.363 . S
C4744 H4721 0.950 . S
C4744 C4743 1.397 . S
C4744 C4745 1.334 . S
C4745 H4722 0.950 . S
C4745 C4744 1.334 . S
C4745 C4746 1.287 . S
C4746 C4745 1.287 . S
C4746 C4747 1.524 . S
C4746 H4765 0.913 . S
C4747 H4723 0.950 . S
C4747 C4746 1.524 . S
C4747 C4748 1.415 . S
C4748 H4724 0.950 . S
C4748 C4743 1.363 . S
C4748 C4747 1.415 . S
C4749 H4725 0.951 . S
C4749 C4750 1.366 . S
C4749 C4751 1.388 . S
C4750 C4749 1.366 . S
C4750 C4754 1.385 . S
C4751 H4726 0.951 . S
C4751 C4749 1.388 . S
C4751 C4752 1.366 . S
C4752 C4751 1.366 . S
C4752 C4753 1.414 . S
C4752 C4755 1.499 . S
C4753 H4727 0.950 . S
C4753 C4752 1.414 . S
C4753 C4754 1.374 . S
C4754 H4728 0.950 . S
C4754 C4750 1.385 . S
C4754 C4753 1.374 . S
C4755 C4752 1.499 . S
C4755 C4756 1.373 . S
C4755 C4757 1.389 . S
C4756 H4729 0.950 . S
C4756 C4742 1.377 . S
C4756 C4755 1.373 . S
C4757 C4741 1.377 . S
C4757 C4755 1.389 . S
C4757 C4758 1.524 . S
C4758 C4757 1.524 . S
C4758 C4759 1.397 . S
C4758 C4763 1.363 . S
C4759 H4730 0.950 . S
C4759 C4758 1.397 . S
C4759 C4760 1.334 . S
C4760 H4731 0.950 . S
C4760 C4759 1.334 . S
C4760 C4761 1.287 . S
C4761 C4760 1.287 . S
C4761 C4762 1.524 . S
C4761 H4764 0.999 . S
C4762 H4732 0.950 . S
C4762 C4761 1.524 . S
C4762 C4763 1.415 . S
C4763 H4733 0.950 . S
C4763 C4758 1.363 . S
C4763 C4762 1.415 . S
H4764 C4761 0.999 . S
H4765 C4746 0.913 . S
H4766 C4784 0.951 . S
H4767 C4786 0.951 . S
H4768 C4788 0.950 . S
H4769 C4789 0.950 . S
H4770 C4791 0.950 . S
H4771 C4794 0.950 . S
H4772 C4795 0.950 . S
H4773 C4797 0.950 . S
H4774 C4798 0.950 . S
H4775 C4799 0.951 . S
H4776 C4801 0.951 . S
H4777 C4803 0.950 . S
H4778 C4804 0.950 . S
H4779 C4806 0.950 . S
H4780 C4809 0.950 . S
H4781 C4810 0.950 . S
H4782 C4812 0.950 . S
H4783 C4813 0.950 . S
C4784 H4766 0.951 . S
C4784 C4785 1.366 . S
C4784 C4786 1.388 . S
C4785 C4784 1.366 . S
C4785 C4789 1.385 . S
C4786 H4767 0.951 . S
C4786 C4784 1.388 . S
C4786 C4787 1.366 . S
C4787 C4786 1.366 . S
C4787 C4788 1.414 . S
C4787 C4790 1.499 . S
C4788 H4768 0.950 . S
C4788 C4787 1.414 . S
C4788 C4789 1.374 . S
C4789 H4769 0.950 . S
C4789 C4785 1.385 . S
C4789 C4788 1.374 . S
C4790 C4787 1.499 . S
C4790 C4791 1.373 . S
C4790 C4792 1.389 . S
C4791 H4770 0.950 . S
C4791 C4790 1.373 . S
C4791 C4807 1.377 . S
C4792 C4790 1.389 . S
C4792 C4793 1.524 . S
C4792 C4806 1.377 . S
C4793 C4792 1.524 . S
C4793 C4794 1.397 . S
C4793 C4798 1.363 . S
C4794 H4771 0.950 . S
C4794 C4793 1.397 . S
C4794 C4795 1.334 . S
C4795 H4772 0.950 . S
C4795 C4794 1.334 . S
C4795 C4796 1.287 . S
C4796 C4795 1.287 . S
C4796 C4797 1.524 . S
C4796 H4815 0.913 . S
C4797 H4773 0.950 . S
C4797 C4796 1.524 . S
C4797 C4798 1.415 . S
C4798 H4774 0.950 . S
C4798 C4793 1.363 . S
C4798 C4797 1.415 . S
C4799 H4775 0.951 . S
C4799 C4800 1.366 . S
C4799 C4801 1.388 . S
C4800 C4799 1.366 . S
C4800 C4804 1.385 . S
C4801 H4776 0.951 . S
C4801 C4799 1.388 . S
C4801 C4802 1.366 . S
C4802 C4801 1.366 . S
C4802 C4803 1.414 . S
C4802 C4805 1.499 . S
C4803 H4777 0.950 . S
C4803 C4802 1.414 . S
C4803 C4804 1.374 . S
C4804 H4778 0.950 . S
C4804 C4800 1.385 . S
C4804 C4803 1.374 . S
C4805 C4802 1.499 . S
C4805 C4806 1.373 . S
C4805 C4807 1.389 . S
C4806 H4779 0.950 . S
C4806 C4792 1.377 . S
C4806 C4805 1.373 . S
C4807 C4791 1.377 . S
C4807 C4805 1.389 . S
C4807 C4808 1.524 . S
C4808 C4807 1.524 . S
C4808 C4809 1.397 . S
C4808 C4813 1.363 . S
C4809 H4780 0.950 . S
C4809 C4808 1.397 . S
C4809 C4810 1.334 . S
C4810 H4781 0.950 . S
C4810 C4809 1.334 . S
C4810 C4811 1.287 . S
C4811 C4810 1.287 . S
C4811 C4812 1.524 . S
C4811 H4814 0.999 . S
C4812 H4782 0.950 . S
C4812 C4811 1.524 . S
C4812 C4813 1.415 . S
C4813 H4783 0.950 . S
C4813 C4808 1.363 . S
C4813 C4812 1.415 . S
H4814 C4811 0.999 . S
H4815 C4796 0.913 . S
H4816 C4834 0.951 . S
H4817 C4836 0.951 . S
H4818 C4838 0.950 . S
H4819 C4839 0.950 . S
H4820 C4841 0.950 . S
H4821 C4844 0.950 . S
H4822 C4845 0.950 . S
H4823 C4847 0.950 . S
H4824 C4848 0.950 . S
H4825 C4849 0.951 . S
H4826 C4851 0.951 . S
H4827 C4853 0.950 . S
H4828 C4854 0.950 . S
H4829 C4856 0.950 . S
H4830 C4859 0.950 . S
H4831 C4860 0.950 . S
H4832 C4862 0.950 . S
H4833 C4863 0.950 . S
C4834 H4816 0.951 . S
C4834 C4835 1.366 . S
C4834 C4836 1.388 . S
C4835 C4834 1.366 . S
C4835 C4839 1.385 . S
C4836 H4817 0.951 . S
C4836 C4834 1.388 . S
C4836 C4837 1.366 . S
C4837 C4836 1.366 . S
C4837 C4838 1.414 . S
C4837 C4840 1.499 . S
C4838 H4818 0.950 . S
C4838 C4837 1.414 . S
C4838 C4839 1.374 . S
C4839 H4819 0.950 . S
C4839 C4835 1.385 . S
C4839 C4838 1.374 . S
C4840 C4837 1.499 . S
C4840 C4841 1.373 . S
C4840 C4842 1.389 . S
C4841 H4820 0.950 . S
C4841 C4840 1.373 . S
C4841 C4857 1.377 . S
C4842 C4840 1.389 . S
C4842 C4843 1.524 . S
C4842 C4856 1.377 . S
C4843 C4842 1.524 . S
C4843 C4844 1.397 . S
C4843 C4848 1.363 . S
C4844 H4821 0.950 . S
C4844 C4843 1.397 . S
C4844 C4845 1.334 . S
C4845 H4822 0.950 . S
C4845 C4844 1.334 . S
C4845 C4846 1.287 . S
C4846 C4845 1.287 . S
C4846 C4847 1.524 . S
C4846 H4865 0.913 . S
C4847 H4823 0.950 . S
C4847 C4846 1.524 . S
C4847 C4848 1.415 . S
C4848 H4824 0.950 . S
C4848 C4843 1.363 . S
C4848 C4847 1.415 . S
C4849 H4825 0.951 . S
C4849 C4850 1.366 . S
C4849 C4851 1.388 . S
C4850 C4849 1.366 . S
C4850 C4854 1.385 . S
C4851 H4826 0.951 . S
C4851 C4849 1.388 . S
C4851 C4852 1.366 . S
C4852 C4851 1.366 . S
C4852 C4853 1.414 . S
C4852 C4855 1.499 . S
C4853 H4827 0.950 . S
C4853 C4852 1.414 . S
C4853 C4854 1.374 . S
C4854 H4828 0.950 . S
C4854 C4850 1.385 . S
C4854 C4853 1.374 . S
C4855 C4852 1.499 . S
C4855 C4856 1.373 . S
C4855 C4857 1.389 . S
C4856 H4829 0.950 . S
C4856 C4842 1.377 . S
C4856 C4855 1.373 . S
C4857 C4841 1.377 . S
C4857 C4855 1.389 . S
C4857 C4858 1.524 . S
C4858 C4857 1.524 . S
C4858 C4859 1.397 . S
C4858 C4863 1.363 . S
C4859 H4830 0.950 . S
C4859 C4858 1.397 . S
C4859 C4860 1.334 . S
C4860 H4831 0.950 . S
C4860 C4859 1.334 . S
C4860 C4861 1.287 . S
C4861 C4860 1.287 . S
C4861 C4862 1.524 . S
C4861 H4864 0.999 . S
C4862 H4832 0.950 . S
C4862 C4861 1.524 . S
C4862 C4863 1.415 . S
C4863 H4833 0.950 . S
C4863 C4858 1.363 . S
C4863 C4862 1.415 . S
H4864 C4861 0.999 . S
H4865 C4846 0.913 . S
H4866 C4884 0.951 . S
H4867 C4886 0.951 . S
H4868 C4888 0.950 . S
H4869 C4889 0.950 . S
H4870 C4891 0.950 . S
H4871 C4894 0.950 . S
H4872 C4895 0.950 . S
H4873 C4897 0.950 . S
H4874 C4898 0.950 . S
H4875 C4899 0.951 . S
H4876 C4901 0.951 . S
H4877 C4903 0.950 . S
H4878 C4904 0.950 . S
H4879 C4906 0.950 . S
H4880 C4909 0.950 . S
H4881 C4910 0.950 . S
H4882 C4912 0.950 . S
H4883 C4913 0.950 . S
C4884 H4866 0.951 . S
C4884 C4885 1.366 . S
C4884 C4886 1.388 . S
C4885 C4884 1.366 . S
C4885 C4889 1.385 . S
C4886 H4867 0.951 . S
C4886 C4884 1.388 . S
C4886 C4887 1.366 . S
C4887 C4886 1.366 . S
C4887 C4888 1.414 . S
C4887 C4890 1.499 . S
C4888 H4868 0.950 . S
C4888 C4887 1.414 . S
C4888 C4889 1.374 . S
C4889 H4869 0.950 . S
C4889 C4885 1.385 . S
C4889 C4888 1.374 . S
C4890 C4887 1.499 . S
C4890 C4891 1.373 . S
C4890 C4892 1.389 . S
C4891 H4870 0.950 . S
C4891 C4890 1.373 . S
C4891 C4907 1.377 . S
C4892 C4890 1.389 . S
C4892 C4893 1.524 . S
C4892 C4906 1.377 . S
C4893 C4892 1.524 . S
C4893 C4894 1.397 . S
C4893 C4898 1.363 . S
C4894 H4871 0.950 . S
C4894 C4893 1.397 . S
C4894 C4895 1.334 . S
C4895 H4872 0.950 . S
C4895 C4894 1.334 . S
C4895 C4896 1.287 . S
C4896 C4895 1.287 . S
C4896 C4897 1.524 . S
C4896 H4915 0.913 . S
C4897 H4873 0.950 . S
C4897 C4896 1.524 . S
C4897 C4898 1.415 . S
C4898 H4874 0.950 . S
C4898 C4893 1.363 . S
C4898 C4897 1.415 . S
C4899 H4875 0.951 . S
C4899 C4900 1.366 . S
C4899 C4901 1.388 . S
C4900 C4899 1.366 . S
C4900 C4904 1.385 . S
C4901 H4876 0.951 . S
C4901 C4899 1.388 . S
C4901 C4902 1.366 . S
C4902 C4901 1.366 . S
C4902 C4903 1.414 . S
C4902 C4905 1.499 . S
C4903 H4877 0.950 . S
C4903 C4902 1.414 . S
C4903 C4904 1.374 . S
C4904 H4878 0.950 . S
C4904 C4900 1.385 . S
C4904 C4903 1.374 . S
C4905 C4902 1.499 . S
C4905 C4906 1.373 . S
C4905 C4907 1.389 . S
C4906 H4879 0.950 . S
C4906 C4892 1.377 . S
C4906 C4905 1.373 . S
C4907 C4891 1.377 . S
C4907 C4905 1.389 . S
C4907 C4908 1.524 . S
C4908 C4907 1.524 . S
C4908 C4909 1.397 . S
C4908 C4913 1.363 . S
C4909 H4880 0.950 . S
C4909 C4908 1.397 . S
C4909 C4910 1.334 . S
C4910 H4881 0.950 . S
C4910 C4909 1.334 . S
C4910 C4911 1.287 . S
C4911 C4910 1.287 . S
C4911 C4912 1.524 . S
C4911 H4914 0.999 . S
C4912 H4882 0.950 . S
C4912 C4911 1.524 . S
C4912 C4913 1.415 . S
C4913 H4883 0.950 . S
C4913 C4908 1.363 . S
C4913 C4912 1.415 . S
H4914 C4911 0.999 . S
H4915 C4896 0.913 . S
H4916 C4934 0.952 . S
H4917 C4936 0.951 . S
H4918 C4938 0.950 . S
H4919 C4939 0.950 . S
H4920 C4941 0.950 . S
H4921 C4944 0.950 . S
H4922 C4945 0.950 . S
H4923 C4947 0.950 . S
H4924 C4948 0.950 . S
H4925 C4949 0.951 . S
H4926 C4951 0.951 . S
H4927 C4953 0.950 . S
H4928 C4954 0.950 . S
H4929 C4956 0.950 . S
H4930 C4959 0.950 . S
H4931 C4960 0.950 . S
H4932 C4962 0.950 . S
H4933 C4963 0.950 . S
C4934 H4916 0.952 . S
C4934 C4935 1.421 . S
C4934 C4936 1.388 . S
C4935 C4934 1.421 . S
C4935 C4939 1.389 . S
C4936 H4917 0.951 . S
C4936 C4934 1.388 . S
C4936 C4937 1.366 . S
C4937 C4936 1.366 . S
C4937 C4938 1.414 . S
C4937 C4940 1.499 . S
C4938 H4918 0.950 . S
C4938 C4937 1.414 . S
C4938 C4939 1.374 . S
C4939 H4919 0.950 . S
C4939 C4935 1.389 . S
C4939 C4938 1.374 . S
C4940 C4937 1.499 . S
C4940 C4941 1.373 . S
C4940 C4942 1.389 . S
C4941 H4920 0.950 . S
C4941 C4940 1.373 . S
C4941 C4957 1.377 . S
C4942 C4940 1.389 . S
C4942 C4943 1.524 . S
C4942 C4956 1.377 . S
C4943 C4942 1.524 . S
C4943 C4944 1.397 . S
C4943 C4948 1.363 . S
C4944 H4921 0.950 . S
C4944 C4943 1.397 . S
C4944 C4945 1.334 . S
C4945 H4922 0.950 . S
C4945 C4944 1.334 . S
C4945 C4946 1.287 . S
C4946 C4945 1.287 . S
C4946 C4947 1.524 . S
C4946 H4965 0.913 . S
C4947 H4923 0.950 . S
C4947 C4946 1.524 . S
C4947 C4948 1.415 . S
C4948 H4924 0.950 . S
C4948 C4943 1.363 . S
C4948 C4947 1.415 . S
C4949 H4925 0.951 . S
C4949 C4950 1.366 . S
C4949 C4951 1.388 . S
C4950 C4949 1.366 . S
C4950 C4954 1.385 . S
C4951 H4926 0.951 . S
C4951 C4949 1.388 . S
C4951 C4952 1.366 . S
C4952 C4951 1.366 . S
C4952 C4953 1.414 . S
C4952 C4955 1.499 . S
C4953 H4927 0.950 . S
C4953 C4952 1.414 . S
C4953 C4954 1.374 . S
C4954 H4928 0.950 . S
C4954 C4950 1.385 . S
C4954 C4953 1.374 . S
C4955 C4952 1.499 . S
C4955 C4956 1.373 . S
C4955 C4957 1.389 . S
C4956 H4929 0.950 . S
C4956 C4942 1.377 . S
C4956 C4955 1.373 . S
C4957 C4941 1.377 . S
C4957 C4955 1.389 . S
C4957 C4958 1.524 . S
C4958 C4957 1.524 . S
C4958 C4959 1.397 . S
C4958 C4963 1.363 . S
C4959 H4930 0.950 . S
C4959 C4958 1.397 . S
C4959 C4960 1.334 . S
C4960 H4931 0.950 . S
C4960 C4959 1.334 . S
C4960 C4961 1.287 . S
C4961 C4960 1.287 . S
C4961 C4962 1.524 . S
C4961 H4964 0.999 . S
C4962 H4932 0.950 . S
C4962 C4961 1.524 . S
C4962 C4963 1.415 . S
C4963 H4933 0.950 . S
C4963 C4958 1.363 . S
C4963 C4962 1.415 . S
H4964 C4961 0.999 . S
H4965 C4946 0.913 . S
H4966 C4984 0.951 . S
H4967 C4986 0.951 . S
H4968 C4988 0.950 . S
H4969 C4989 0.950 . S
H4970 C4991 0.950 . S
H4971 C4994 0.950 . S
H4972 C4995 0.950 . S
H4973 C4997 0.950 . S
H4974 C4998 0.950 . S
H4975 C4999 0.951 . S
H4976 C5001 0.951 . S
H4977 C5003 0.950 . S
H4978 C5004 0.950 . S
H4979 C5006 0.950 . S
H4980 C5009 0.950 . S
H4981 C5010 0.950 . S
H4982 C5012 0.950 . S
H4983 C5013 0.950 . S
C4984 H4966 0.951 . S
C4984 C4985 1.366 . S
C4984 C4986 1.388 1_655 S
C4985 C4984 1.366 . S
C4985 C4989 1.385 1_655 S
C4986 H4967 0.951 . S
C4986 C4984 1.388 1_455 S
C4986 C4987 1.366 . S
C4987 C4986 1.366 . S
C4987 C4988 1.414 . S
C4987 C4990 1.499 . S
C4988 H4968 0.950 . S
C4988 C4987 1.414 . S
C4988 C4989 1.374 . S
C4989 H4969 0.950 . S
C4989 C4985 1.385 1_455 S
C4989 C4988 1.374 . S
C4990 C4987 1.499 . S
C4990 C4991 1.373 . S
C4990 C4992 1.389 . S
C4991 H4970 0.950 . S
C4991 C4990 1.373 . S
C4991 C5007 1.377 . S
C4992 C4990 1.389 . S
C4992 C4993 1.524 . S
C4992 C5006 1.377 . S
C4993 C4992 1.524 . S
C4993 C4994 1.397 . S
C4993 C4998 1.363 . S
C4994 H4971 0.950 . S
C4994 C4993 1.397 . S
C4994 C4995 1.334 . S
C4995 H4972 0.950 . S
C4995 C4994 1.334 . S
C4995 C4996 1.287 . S
C4996 C4995 1.287 . S
C4996 C4997 1.524 . S
C4996 H5015 0.913 . S
C4997 H4973 0.950 . S
C4997 C4996 1.524 . S
C4997 C4998 1.415 . S
C4998 H4974 0.950 . S
C4998 C4993 1.363 . S
C4998 C4997 1.415 . S
C4999 H4975 0.951 . S
C4999 C5000 1.366 . S
C4999 C5001 1.388 . S
C5000 C4999 1.366 . S
C5000 C5004 1.385 . S
C5001 H4976 0.951 . S
C5001 C4999 1.388 . S
C5001 C5002 1.366 . S
C5002 C5001 1.366 . S
C5002 C5003 1.414 . S
C5002 C5005 1.499 . S
C5003 H4977 0.950 . S
C5003 C5002 1.414 . S
C5003 C5004 1.374 . S
C5004 H4978 0.950 . S
C5004 C5000 1.385 . S
C5004 C5003 1.374 . S
C5005 C5002 1.499 . S
C5005 C5006 1.373 . S
C5005 C5007 1.389 . S
C5006 H4979 0.950 . S
C5006 C4992 1.377 . S
C5006 C5005 1.373 . S
C5007 C4991 1.377 . S
C5007 C5005 1.389 . S
C5007 C5008 1.524 . S
C5008 C5007 1.524 . S
C5008 C5009 1.397 . S
C5008 C5013 1.363 . S
C5009 H4980 0.950 . S
C5009 C5008 1.397 . S
C5009 C5010 1.334 . S
C5010 H4981 0.950 . S
C5010 C5009 1.334 . S
C5010 C5011 1.287 . S
C5011 C5010 1.287 . S
C5011 C5012 1.524 . S
C5011 H5014 0.999 . S
C5012 H4982 0.950 . S
C5012 C5011 1.524 . S
C5012 C5013 1.415 . S
C5013 H4983 0.950 . S
C5013 C5008 1.363 . S
C5013 C5012 1.415 . S
H5014 C5011 0.999 . S
H5015 C4996 0.913 . S
H5016 C5034 0.951 . S
H5017 C5036 0.951 . S
H5018 C5038 0.950 . S
H5019 C5039 0.950 . S
H5020 C5041 0.950 . S
H5021 C5044 0.950 . S
H5022 C5045 0.950 . S
H5023 C5047 0.950 . S
H5024 C5048 0.950 . S
H5025 C5049 0.951 . S
H5026 C5051 0.951 . S
H5027 C5053 0.950 . S
H5028 C5054 0.950 1_455 S
H5029 C5056 0.950 . S
H5030 C5059 0.950 . S
H5031 C5060 0.950 . S
H5032 C5062 0.950 . S
H5033 C5063 0.950 . S
C5034 H5016 0.951 . S
C5034 C5035 1.366 . S
C5034 C5036 1.388 . S
C5035 C5034 1.366 . S
C5035 C5039 1.385 . S
C5036 H5017 0.951 . S
C5036 C5034 1.388 . S
C5036 C5037 1.366 . S
C5037 C5036 1.366 . S
C5037 C5038 1.414 . S
C5037 C5040 1.499 . S
C5038 H5018 0.950 . S
C5038 C5037 1.414 . S
C5038 C5039 1.374 . S
C5039 H5019 0.950 . S
C5039 C5035 1.385 . S
C5039 C5038 1.374 . S
C5040 C5037 1.499 . S
C5040 C5041 1.373 . S
C5040 C5042 1.389 . S
C5041 H5020 0.950 . S
C5041 C5040 1.373 . S
C5041 C5057 1.377 . S
C5042 C5040 1.389 . S
C5042 C5043 1.524 . S
C5042 C5056 1.377 . S
C5043 C5042 1.524 . S
C5043 C5044 1.397 . S
C5043 C5048 1.363 . S
C5044 H5021 0.950 . S
C5044 C5043 1.397 . S
C5044 C5045 1.334 . S
C5045 H5022 0.950 . S
C5045 C5044 1.334 . S
C5045 C5046 1.287 . S
C5046 C5045 1.287 . S
C5046 C5047 1.524 . S
C5046 H5065 0.913 . S
C5047 H5023 0.950 . S
C5047 C5046 1.524 . S
C5047 C5048 1.415 . S
C5048 H5024 0.950 . S
C5048 C5043 1.363 . S
C5048 C5047 1.415 . S
C5049 H5025 0.951 . S
C5049 C5050 1.366 . S
C5049 C5051 1.388 . S
C5050 C5049 1.366 . S
C5050 C5054 1.385 . S
C5051 H5026 0.951 . S
C5051 C5049 1.388 . S
C5051 C5052 1.366 . S
C5052 C5051 1.366 . S
C5052 C5053 1.414 . S
C5052 C5055 1.499 . S
C5053 H5027 0.950 . S
C5053 C5052 1.414 . S
C5053 C5054 1.374 . S
C5054 H5028 0.950 1_655 S
C5054 C5050 1.385 . S
C5054 C5053 1.374 . S
C5055 C5052 1.499 . S
C5055 C5056 1.373 . S
C5055 C5057 1.389 . S
C5056 H5029 0.950 . S
C5056 C5042 1.377 . S
C5056 C5055 1.373 . S
C5057 C5041 1.377 . S
C5057 C5055 1.389 . S
C5057 C5058 1.524 . S
C5058 C5057 1.524 . S
C5058 C5059 1.397 1_655 S
C5058 C5063 1.363 . S
C5059 H5030 0.950 . S
C5059 C5058 1.397 1_455 S
C5059 C5060 1.334 . S
C5060 H5031 0.950 . S
C5060 C5059 1.334 . S
C5060 C5061 1.287 . S
C5061 C5060 1.287 . S
C5061 C5062 1.524 . S
C5061 H5064 0.999 . S
C5062 H5032 0.950 . S
C5062 C5061 1.524 . S
C5062 C5063 1.415 1_455 S
C5063 H5033 0.950 . S
C5063 C5058 1.363 . S
C5063 C5062 1.415 1_655 S
H5064 C5061 0.999 . S
H5065 C5046 0.913 . S
H5066 C5084 0.951 . S
H5067 C5086 0.951 . S
H5068 C5088 0.950 . S
H5069 C5089 0.950 . S
H5070 C5091 0.950 . S
H5071 C5094 0.950 . S
H5072 C5095 0.950 . S
H5073 C5097 0.950 . S
H5074 C5098 0.950 . S
H5075 C5099 0.951 . S
H5076 C5101 0.951 . S
H5077 C5103 0.950 . S
H5078 C5104 0.950 . S
H5079 C5106 0.950 . S
H5080 C5109 0.950 . S
H5081 C5110 0.950 . S
H5082 C5112 0.950 . S
H5083 C5113 0.950 . S
C5084 H5066 0.951 . S
C5084 C5085 1.366 . S
C5084 C5086 1.388 . S
C5085 C5084 1.366 . S
C5085 C5089 1.385 . S
C5086 H5067 0.951 . S
C5086 C5084 1.388 . S
C5086 C5087 1.366 . S
C5087 C5086 1.366 . S
C5087 C5088 1.414 . S
C5087 C5090 1.499 . S
C5088 H5068 0.950 . S
C5088 C5087 1.414 . S
C5088 C5089 1.374 . S
C5089 H5069 0.950 . S
C5089 C5085 1.385 . S
C5089 C5088 1.374 . S
C5090 C5087 1.499 . S
C5090 C5091 1.373 . S
C5090 C5092 1.389 . S
C5091 H5070 0.950 . S
C5091 C5090 1.373 . S
C5091 C5107 1.377 . S
C5092 C5090 1.389 . S
C5092 C5093 1.524 . S
C5092 C5106 1.377 . S
C5093 C5092 1.524 . S
C5093 C5094 1.397 . S
C5093 C5098 1.363 . S
C5094 H5071 0.950 . S
C5094 C5093 1.397 . S
C5094 C5095 1.334 . S
C5095 H5072 0.950 . S
C5095 C5094 1.334 . S
C5095 C5096 1.287 . S
C5096 C5095 1.287 . S
C5096 C5097 1.524 . S
C5096 H5115 0.913 . S
C5097 H5073 0.950 . S
C5097 C5096 1.524 . S
C5097 C5098 1.415 . S
C5098 H5074 0.950 . S
C5098 C5093 1.363 . S
C5098 C5097 1.415 . S
C5099 H5075 0.951 . S
C5099 C5100 1.366 . S
C5099 C5101 1.388 . S
C5100 C5099 1.366 . S
C5100 C5104 1.385 . S
C5101 H5076 0.951 . S
C5101 C5099 1.388 . S
C5101 C5102 1.366 . S
C5102 C5101 1.366 . S
C5102 C5103 1.414 . S
C5102 C5105 1.499 . S
C5103 H5077 0.950 . S
C5103 C5102 1.414 . S
C5103 C5104 1.374 . S
C5104 H5078 0.950 . S
C5104 C5100 1.385 . S
C5104 C5103 1.374 . S
C5105 C5102 1.499 . S
C5105 C5106 1.373 . S
C5105 C5107 1.389 . S
C5106 H5079 0.950 . S
C5106 C5092 1.377 . S
C5106 C5105 1.373 . S
C5107 C5091 1.377 . S
C5107 C5105 1.389 . S
C5107 C5108 1.524 . S
C5108 C5107 1.524 . S
C5108 C5109 1.397 . S
C5108 C5113 1.363 . S
C5109 H5080 0.950 . S
C5109 C5108 1.397 . S
C5109 C5110 1.334 . S
C5110 H5081 0.950 . S
C5110 C5109 1.334 . S
C5110 C5111 1.287 . S
C5111 C5110 1.287 . S
C5111 C5112 1.524 . S
C5111 H5114 0.999 . S
C5112 H5082 0.950 . S
C5112 C5111 1.524 . S
C5112 C5113 1.415 . S
C5113 H5083 0.950 . S
C5113 C5108 1.363 . S
C5113 C5112 1.415 . S
H5114 C5111 0.999 . S
H5115 C5096 0.913 . S
H5116 C5134 0.951 . S
H5117 C5136 0.951 . S
H5118 C5138 0.950 . S
H5119 C5139 0.950 . S
H5120 C5141 0.950 . S
H5121 C5144 0.950 . S
H5122 C5145 0.950 . S
H5123 C5147 0.950 . S
H5124 C5148 0.950 . S
H5125 C5149 0.951 . S
H5126 C5151 0.951 . S
H5127 C5153 0.950 . S
H5128 C5154 0.950 . S
H5129 C5156 0.950 . S
H5130 C5159 0.950 . S
H5131 C5160 0.950 . S
H5132 C5162 0.950 . S
H5133 C5163 0.950 . S
C5134 H5116 0.951 . S
C5134 C5135 1.366 . S
C5134 C5136 1.388 . S
C5135 C5134 1.366 . S
C5135 C5139 1.385 . S
C5136 H5117 0.951 . S
C5136 C5134 1.388 . S
C5136 C5137 1.366 . S
C5137 C5136 1.366 . S
C5137 C5138 1.414 . S
C5137 C5140 1.499 . S
C5138 H5118 0.950 . S
C5138 C5137 1.414 . S
C5138 C5139 1.374 . S
C5139 H5119 0.950 . S
C5139 C5135 1.385 . S
C5139 C5138 1.374 . S
C5140 C5137 1.499 . S
C5140 C5141 1.373 . S
C5140 C5142 1.389 . S
C5141 H5120 0.950 . S
C5141 C5140 1.373 . S
C5141 C5157 1.377 . S
C5142 C5140 1.389 . S
C5142 C5143 1.524 . S
C5142 C5156 1.377 . S
C5143 C5142 1.524 . S
C5143 C5144 1.397 . S
C5143 C5148 1.363 . S
C5144 H5121 0.950 . S
C5144 C5143 1.397 . S
C5144 C5145 1.334 . S
C5145 H5122 0.950 . S
C5145 C5144 1.334 . S
C5145 C5146 1.287 . S
C5146 C5145 1.287 . S
C5146 C5147 1.524 . S
C5146 H5165 0.913 . S
C5147 H5123 0.950 . S
C5147 C5146 1.524 . S
C5147 C5148 1.415 . S
C5148 H5124 0.950 . S
C5148 C5143 1.363 . S
C5148 C5147 1.415 . S
C5149 H5125 0.951 . S
C5149 C5150 1.336 1_565 S
C5149 C5151 1.388 . S
C5150 C5149 1.336 1_545 S
C5150 C5154 1.409 . S
C5151 H5126 0.951 . S
C5151 C5149 1.388 . S
C5151 C5152 1.366 1_565 S
C5152 C5151 1.366 1_545 S
C5152 C5153 1.414 . S
C5152 C5155 1.499 . S
C5153 H5127 0.950 . S
C5153 C5152 1.414 . S
C5153 C5154 1.374 . S
C5154 H5128 0.950 . S
C5154 C5150 1.409 . S
C5154 C5153 1.374 . S
C5155 C5152 1.499 . S
C5155 C5156 1.373 . S
C5155 C5157 1.389 . S
C5156 H5129 0.950 . S
C5156 C5142 1.377 . S
C5156 C5155 1.373 . S
C5157 C5141 1.377 . S
C5157 C5155 1.389 . S
C5157 C5158 1.524 . S
C5158 C5157 1.524 . S
C5158 C5159 1.397 . S
C5158 C5163 1.363 . S
C5159 H5130 0.950 . S
C5159 C5158 1.397 . S
C5159 C5160 1.334 . S
C5160 H5131 0.950 . S
C5160 C5159 1.334 . S
C5160 C5161 1.287 . S
C5161 C5160 1.287 . S
C5161 C5162 1.524 . S
C5161 H5164 0.999 . S
C5162 H5132 0.950 . S
C5162 C5161 1.524 . S
C5162 C5163 1.415 . S
C5163 H5133 0.950 . S
C5163 C5158 1.363 . S
C5163 C5162 1.415 . S
H5164 C5161 0.999 . S
H5165 C5146 0.913 . S
C1585 C8 1.010 . S
C1600 C963 1.006 . S
C1635 C18 1.451 . S
C1650 C1043 1.470 . S
C1700 C1111 1.241 . S
C1685 C31 1.209 . S
C1735 C34 1.694 1_556 S
C1750 C1191 1.707 . S
C1785 C5 1.437 . S
C1800 C1265 1.495 . S
C1835 C21 1.531 . S
C1850 C1333 1.494 . S
C1885 C47 0.937 . S
C1900 C1259 0.939 . S
C1950 C1339 1.392 . S
C1935 C57 1.337 . S
C2000 C1185 1.256 1_545 S
C1985 C70 1.209 . S
C2035 C73 1.608 . S
C2050 C1117 1.674 . S
C2100 C969 1.482 . S
C2085 C44 1.418 . S
C2135 C60 1.381 . S
C2150 C1037 1.390 . S
C2185 C86 1.267 . S
C2200 C1407 1.225 . S
C2235 C96 1.480 . S
C2250 C1487 1.477 . S
C2300 C1555 1.433 . S
C2285 C109 1.472 . S
C2335 C112 1.929 . S
C2350 C303 1.895 . S
C2385 C83 1.690 . S
C2400 C377 1.685 . S
C2435 C99 1.568 . S
C2450 C445 1.517 . S
C2485 C125 0.964 . S
C2500 C371 0.967 . S
C2535 C135 1.400 . S
C2550 C451 1.453 . S
C2600 C297 1.361 . S
C2585 C148 1.329 . S
C2650 C1561 1.902 . S
C2635 C151 1.882 . S
C2700 C1413 1.524 . S
C2685 C122 1.491 . S
C2750 C1481 1.452 . S
C2735 C138 1.447 . S
C2785 C164 1.154 . S
C2800 C519 1.118 . S
C2835 C174 1.516 . S
C2850 C599 1.525 . S
C2885 C187 1.496 . S
C2900 C667 1.468 . S
C2935 C190 2.023 . S
C2950 C747 1.989 . S
C3000 C821 1.647 . S
C2985 C161 1.662 . S
C3050 C889 1.565 . S
C3035 C177 1.617 . S
C3100 C815 1.110 . S
C3085 C203 1.105 . S
C3150 C895 1.404 . S
C3135 C213 1.364 . S
C3185 C226 1.271 . S
C3200 C741 1.292 . S
C3250 C673 1.782 . S
C3235 C229 1.765 . S
C3285 C200 1.547 . S
C3300 C525 1.593 . S
C3350 C593 1.416 . S
C3335 C216 1.411 . S
C3400 C273 1.883 . S
C3385 C0 1.829 . S
C3435 C23 1.320 . S
C3450 C347 1.308 . S
C3500 C433 1.424 . S
C3485 C36 1.435 . S
C3550 C507 1.093 . S
C3535 C26 1.055 . S
C3600 C569 1.501 . S
C3585 C10 1.520 . S
C3650 C655 1.435 . S
C3635 C13 1.381 . S
C3685 C39 1.992 . S
C3700 C643 2.014 . S
C3735 C62 1.504 . S
C3750 C495 1.438 . S
C3785 C75 1.620 . S
C3800 C581 1.575 . S
C3835 C65 1.285 . S
C3850 C359 1.325 . S
C3900 C421 1.623 . S
C3885 C49 1.703 . S
C3935 C52 1.580 . S
C3950 C285 1.621 . S
C4000 C717 1.827 . S
C3985 C78 1.788 . S
C4035 C101 1.489 1_545 S
C4050 C791 1.478 . S
C4085 C114 1.501 . S
C4100 C877 1.487 . S
C4150 C951 0.841 . S
C4135 C104 0.834 . S
C4185 C88 1.404 . S
C4200 C1013 1.391 . S
C4235 C91 1.166 . S
C4250 C1099 1.191 . S
C4285 C117 1.646 . S
C4300 C1087 1.585 1_565 S
C4335 C140 1.197 . S
C4350 C939 1.176 . S
C4400 C1025 1.497 . S
C4385 C153 1.535 . S
C4435 C143 1.252 . S
C4450 C803 1.275 . S
C4485 C127 1.751 1_545 S
C4500 C865 1.679 . S
C4550 C729 1.720 . S
C4535 C130 1.693 1_655 S
C4600 C1161 1.644 . S
C4585 C156 1.630 . S
C4635 C179 1.086 . S
C4650 C1235 1.086 . S
C4685 C192 1.352 . S
C4700 C1321 1.343 . S
C4750 C1395 1.050 . S
C4735 C182 1.024 . S
C4800 C1457 1.567 . S
C4785 C166 1.580 1_565 S
C4835 C169 1.496 . S
C4850 C1543 1.540 . S
C4885 C195 1.951 . S
C4900 C1531 1.954 . S
C4935 C218 1.609 1_565 S
C4950 C1383 1.594 . S
C5000 C1469 1.627 . S
C4985 C231 1.676 . S
C5050 C1247 0.907 . S
C5035 C221 0.893 . S
C5100 C1309 1.526 . S
C5085 C205 1.591 . S
C5135 C208 1.268 . S
C5150 C1173 1.339 1_545 S
