# Generated by pormake.
# Topology pyr, (3,6)-cn, num edge types: 1
# Building blocks:
#     Node 0, Type 0, BuildingBlock: QEWDON_clean_linker_0, # of connection points: 3
#     Node 1, Type 0, BuildingBlock: QEWDON_clean_linker_0, # of connection points: 3
#     Node 2, Type 0, BuildingBlock: QEWDON_clean_linker_0, # of connection points: 3
#     Node 3, Type 0, BuildingBlock: QEWDON_clean_linker_0, # of connection points: 3
#     Node 4, Type 0, BuildingBlock: QEWDON_clean_linker_0, # of connection points: 3
#     Node 5, Type 0, BuildingBlock: QEWDON_clean_linker_0, # of connection points: 3
#     Node 6, Type 0, BuildingBlock: QEWDON_clean_linker_0, # of connection points: 3
#     Node 7, Type 0, BuildingBlock: QEWDON_clean_linker_0, # of connection points: 3
#     Node 8, Type 1, BuildingBlock: MIFKUJ_clean_sbu_0, # of connection points: 6
#     Node 9, Type 1, BuildingBlock: MIFKUJ_clean_sbu_0, # of connection points: 6
#     Node 10, Type 1, BuildingBlock: MIFKUJ_clean_sbu_0, # of connection points: 6
#     Node 11, Type 1, BuildingBlock: MIFKUJ_clean_sbu_0, # of connection points: 6
#     Edge 12, Type (0, 1), BuildingBlock: XUDNAN_clean_linker_2, # of connection points: 2
#     Edge 13, Type (0, 1), BuildingBlock: XUDNAN_clean_linker_2, # of connection points: 2
#     Edge 14, Type (0, 1), BuildingBlock: XUDNAN_clean_linker_2, # of connection points: 2
#     Edge 15, Type (0, 1), BuildingBlock: XUDNAN_clean_linker_2, # of connection points: 2
#     Edge 16, Type (0, 1), BuildingBlock: XUDNAN_clean_linker_2, # of connection points: 2
#     Edge 17, Type (0, 1), BuildingBlock: XUDNAN_clean_linker_2, # of connection points: 2
#     Edge 18, Type (0, 1), BuildingBlock: XUDNAN_clean_linker_2, # of connection points: 2
#     Edge 19, Type (0, 1), BuildingBlock: XUDNAN_clean_linker_2, # of connection points: 2
#     Edge 20, Type (0, 1), BuildingBlock: XUDNAN_clean_linker_2, # of connection points: 2
#     Edge 21, Type (0, 1), BuildingBlock: XUDNAN_clean_linker_2, # of connection points: 2
#     Edge 22, Type (0, 1), BuildingBlock: XUDNAN_clean_linker_2, # of connection points: 2
#     Edge 23, Type (0, 1), BuildingBlock: XUDNAN_clean_linker_2, # of connection points: 2
#     Edge 24, Type (0, 1), BuildingBlock: XUDNAN_clean_linker_2, # of connection points: 2
#     Edge 25, Type (0, 1), BuildingBlock: XUDNAN_clean_linker_2, # of connection points: 2
#     Edge 26, Type (0, 1), BuildingBlock: XUDNAN_clean_linker_2, # of connection points: 2
#     Edge 27, Type (0, 1), BuildingBlock: XUDNAN_clean_linker_2, # of connection points: 2
#     Edge 28, Type (0, 1), BuildingBlock: XUDNAN_clean_linker_2, # of connection points: 2
#     Edge 29, Type (0, 1), BuildingBlock: XUDNAN_clean_linker_2, # of connection points: 2
#     Edge 30, Type (0, 1), BuildingBlock: XUDNAN_clean_linker_2, # of connection points: 2
#     Edge 31, Type (0, 1), BuildingBlock: XUDNAN_clean_linker_2, # of connection points: 2
#     Edge 32, Type (0, 1), BuildingBlock: XUDNAN_clean_linker_2, # of connection points: 2
#     Edge 33, Type (0, 1), BuildingBlock: XUDNAN_clean_linker_2, # of connection points: 2
#     Edge 34, Type (0, 1), BuildingBlock: XUDNAN_clean_linker_2, # of connection points: 2
#     Edge 35, Type (0, 1), BuildingBlock: XUDNAN_clean_linker_2, # of connection points: 2
# Relax obj value: 0.096
# Max RMSD: 0.268
# Mean RMSD: 0.179
data_MOF--net-pyr--node1-MIFKUJ_clean_sbu_0--node2-QEWDON_clean_linker_0--edge1-XUDNAN_clean_linker_2
_symmetry_space_group_name_H-M    P1
_symmetry_Int_Tables_number       1
_symmetry_cell_setting            triclinic
loop_
_symmetry_equiv_pos_as_xyz
'x, y, z'
_cell_length_a     38.874321
_cell_length_b     35.089612
_cell_length_c     40.294279
_cell_angle_alpha  85.518872
_cell_angle_beta   88.699999
_cell_angle_gamma 107.44605
loop_
_atom_site_label
_atom_site_type_symbol
_atom_site_fract_x
_atom_site_fract_y
_atom_site_fract_z
_atom_type_partial_charge
H0 H 0.25077 0.22315 0.17451 0.0
C1 C 0.23502 0.20817 0.19694 0.0
C2 C 0.23724 0.17057 0.20968 0.0
C3 C 0.21443 0.22795 0.21397 0.0
H4 H 0.22032 0.12422 0.25037 0.0
C5 C 0.21845 0.15293 0.23999 0.0
C6 C 0.19773 0.17237 0.2574 0.0
C7 C 0.19522 0.20956 0.24382 0.0
C8 C 0.2182 0.27041 0.20339 0.0
H9 H 0.18067 0.2256 0.25772 0.0
C10 C 0.18859 0.28296 0.19305 0.0
C11 C 0.19372 0.32351 0.18178 0.0
C12 C 0.25251 0.29873 0.20335 0.0
H13 H 0.27553 0.28969 0.21143 0.0
C14 C 0.25743 0.33892 0.1932 0.0
H15 H 0.16215 0.26111 0.19265 0.0
C16 C 0.22837 0.35127 0.18243 0.0
H17 H 0.23301 0.38272 0.17461 0.0
H18 H 0.28394 0.36057 0.1935 0.0
H19 H 0.33861 0.89725 0.75276 0.0
C20 C 0.35979 0.88806 0.74095 0.0
C21 C 0.39169 0.88959 0.75767 0.0
C22 C 0.35436 0.87319 0.7095 0.0
H23 H 0.44292 0.87679 0.75435 0.0
C24 C 0.41861 0.87692 0.74176 0.0
C25 C 0.41381 0.86338 0.70979 0.0
C26 C 0.38182 0.86169 0.69392 0.0
C27 C 0.31902 0.86602 0.69387 0.0
H28 H 0.37789 0.85028 0.66958 0.0
C29 C 0.30221 0.89637 0.6893 0.0
C30 C 0.26935 0.88909 0.67303 0.0
C31 C 0.30219 0.82812 0.68287 0.0
H32 H 0.31433 0.80413 0.68646 0.0
C33 C 0.26944 0.82059 0.66742 0.0
H34 H 0.31523 0.9258 0.69735 0.0
C35 C 0.25314 0.85079 0.66243 0.0
H36 H 0.22754 0.84398 0.65055 0.0
H37 H 0.25664 0.79122 0.65923 0.0
H38 H 0.7148 0.45308 0.8677 0.0
C39 C 0.70585 0.42357 0.88115 0.0
C40 C 0.73038 0.40977 0.90011 0.0
C41 C 0.66928 0.4007 0.88153 0.0
H42 H 0.73701 0.36166 0.9335 0.0
C43 C 0.7182 0.3724 0.91884 0.0
C44 C 0.68192 0.34894 0.91915 0.0
C45 C 0.65776 0.36305 0.90011 0.0
C46 C 0.64233 0.41759 0.86548 0.0
H47 H 0.62954 0.34545 0.9009 0.0
C48 C 0.64878 0.43726 0.83302 0.0
C49 C 0.62287 0.45325 0.81835 0.0
C50 C 0.6099 0.41454 0.8832 0.0
H51 H 0.60446 0.4003 0.90841 0.0
C52 C 0.58427 0.43029 0.86886 0.0
H53 H 0.67377 0.43992 0.81923 0.0
C54 C 0.59055 0.44933 0.83669 0.0
H55 H 0.56969 0.46038 0.82596 0.0
H56 H 0.55933 0.42757 0.8827 0.0
H57 H 0.84492 0.79997 0.25795 0.0
C58 C 0.82162 0.78468 0.27444 0.0
C59 C 0.82057 0.79451 0.30751 0.0
C60 C 0.79232 0.75558 0.26244 0.0
H61 H 0.78975 0.78094 0.35444 0.0
C62 C 0.79039 0.77419 0.32867 0.0
C63 C 0.76137 0.74456 0.3172 0.0
C64 C 0.76224 0.73588 0.28389 0.0
C65 C 0.7936 0.74382 0.22811 0.0
H66 H 0.74026 0.71236 0.27504 0.0
C67 C 0.82313 0.73259 0.21643 0.0
C68 C 0.82314 0.71787 0.18498 0.0
C69 C 0.76426 0.74109 0.20773 0.0
H70 H 0.74119 0.74958 0.21627 0.0
C71 C 0.76443 0.72721 0.17622 0.0
H72 H 0.84538 0.73364 0.23245 0.0
C73 C 0.79357 0.71541 0.16491 0.0
H74 H 0.7931 0.7046 0.14042 0.0
H75 H 0.74177 0.72526 0.16062 0.0
H76 H 0.8389 0.83995 0.87161 0.0
C77 C 0.85066 0.85094 0.84674 0.0
C78 C 0.88593 0.85055 0.83816 0.0
C79 C 0.82981 0.86376 0.82279 0.0
H80 H 0.92688 0.86311 0.79827 0.0
C81 C 0.90011 0.86398 0.80539 0.0
C82 C 0.87964 0.87704 0.78124 0.0
C83 C 0.84458 0.87705 0.79026 0.0
C84 C 0.791 0.85822 0.8299 0.0
H85 H 0.82807 0.88575 0.77156 0.0
C86 C 0.7791 0.88033 0.853 0.0
C87 C 0.74197 0.87641 0.85708 0.0
C88 C 0.76555 0.83135 0.81194 0.0
H89 H 0.77418 0.81402 0.79416 0.0
C90 C 0.72886 0.82661 0.81663 0.0
H91 H 0.79864 0.90151 0.86662 0.0
C92 C 0.71711 0.84908 0.83886 0.0
H93 H 0.68843 0.84499 0.8419 0.0
H94 H 0.70946 0.80572 0.80273 0.0
H95 H 0.7094 0.1645 0.4515 0.0
C96 C 0.69855 0.16402 0.42695 0.0
C97 C 0.71598 0.15216 0.40037 0.0
C98 C 0.66532 0.17195 0.42274 0.0
H99 H 0.71298 0.14106 0.34831 0.0
C100 C 0.69997 0.14962 0.36932 0.0
C101 C 0.6657 0.15437 0.36545 0.0
C102 C 0.64903 0.16704 0.3919 0.0
C103 C 0.6436 0.17547 0.45233 0.0
H104 H 0.62198 0.16935 0.38956 0.0
C105 C 0.63573 0.2113 0.45791 0.0
C106 C 0.61404 0.21283 0.48618 0.0
C107 C 0.62931 0.14128 0.47464 0.0
H108 H 0.63482 0.11346 0.47056 0.0
C109 C 0.60712 0.14229 0.50191 0.0
H110 H 0.64709 0.23782 0.44085 0.0
C111 C 0.59937 0.17755 0.50758 0.0
H112 H 0.58163 0.17704 0.52883 0.0
H113 H 0.59576 0.11555 0.5187 0.0
H114 H 0.39798 0.70837 0.24214 0.0
C115 C 0.37046 0.70178 0.23435 0.0
C116 C 0.35907 0.73229 0.21776 0.0
C117 C 0.3465 0.66257 0.24014 0.0
H118 H 0.31509 0.74723 0.19412 0.0
C119 C 0.32365 0.72374 0.20733 0.0
C120 C 0.29978 0.68477 0.21218 0.0
C121 C 0.31132 0.65426 0.22844 0.0
C122 C 0.35794 0.62991 0.25787 0.0
H123 H 0.29261 0.62422 0.23257 0.0
C124 C 0.37488 0.63517 0.28851 0.0
C125 C 0.38281 0.60288 0.30668 0.0
C126 C 0.35025 0.59246 0.24484 0.0
H127 H 0.33758 0.58768 0.22121 0.0
C128 C 0.35861 0.56072 0.26219 0.0
H129 H 0.38108 0.66417 0.29839 0.0
C130 C 0.37436 0.56564 0.29295 0.0
H131 H 0.379 0.53977 0.30626 0.0
H132 H 0.35224 0.53188 0.25203 0.0
H133 H 0.23134 0.40646 0.79977 0.0
C134 C 0.21587 0.38838 0.78145 0.0
C135 C 0.22797 0.39514 0.74776 0.0
C136 C 0.18444 0.35739 0.79209 0.0
H137 H 0.21599 0.37627 0.69849 0.0
C138 C 0.20777 0.37055 0.72474 0.0
C139 C 0.1767 0.3388 0.73513 0.0
C140 C 0.16515 0.33239 0.76895 0.0
C141 C 0.17197 0.35147 0.82755 0.0
H142 H 0.14127 0.30795 0.77734 0.0
C143 C 0.16683 0.38372 0.8434 0.0
C144 C 0.15549 0.379 0.87727 0.0
C145 C 0.16553 0.31404 0.84569 0.0
H146 H 0.16943 0.28884 0.8339 0.0
C147 C 0.15473 0.30917 0.87943 0.0
H148 H 0.17068 0.41215 0.8289 0.0
C149 C 0.14982 0.34137 0.89521 0.0
H150 H 0.1417 0.33677 0.92146 0.0
H151 H 0.15019 0.28035 0.89344 0.0
Zn152 Zn 0.06443 0.06492 0.55114 0.0
Zn153 Zn 0.97839 0.04477 0.49144 0.0
C154 C 0.09655 0.14265 0.57195 0.0
O155 O 0.12492 0.1377 0.55666 0.0
C156 C 0.97791 0.98294 0.44658 0.0
O157 O 0.01268 0.99229 0.45128 0.0
O158 O 0.10391 0.04454 0.57086 0.0
O159 O 0.01833 0.02411 0.5673 0.0
O160 O 0.96904 0.01517 0.53804 0.0
C161 C 0.11055 0.04736 0.60152 0.0
O162 O 0.09174 0.06392 0.62002 0.0
O163 O 0.06637 0.11562 0.5717 0.0
C164 C 0.93954 0.08477 0.45214 0.0
O165 O 0.96052 0.07538 0.43023 0.0
O166 O 0.94439 0.07852 0.48297 0.0
O167 O 0.02895 0.07153 0.47005 0.0
O168 O 0.07573 0.07735 0.50215 0.0
O169 O 0.95873 1.0002 0.46197 0.0
C170 C 0.98502 0.00753 0.56376 0.0
C171 C 0.06283 0.08109 0.47382 0.0
Zn172 Zn 0.52983 0.0077 0.0177 0.0
Zn173 Zn 0.49565 0.05602 0.10514 0.0
C174 C 0.46642 0.9816 0.97746 0.0
O175 O 0.44922 0.96911 0.0066 0.0
C176 C 0.52918 0.08911 0.16369 0.0
O177 O 0.52232 0.1211 0.14996 0.0
O178 O 0.57714 0.99783 0.00418 0.0
O179 O 0.54034 0.06494 0.03433 0.0
O180 O 0.52826 0.10035 0.07445 0.0
C181 C 0.58839 0.00363 0.97372 0.0
O182 O 0.57056 0.01886 0.95176 0.0
O183 O 0.49992 0.0007 0.97643 0.0
C184 C 0.43017 0.06196 0.13861 0.0
O185 O 0.44498 0.05106 0.16524 0.0
O186 O 0.44601 0.06435 0.11013 0.0
O187 O 0.49753 0.00988 0.08106 0.0
O188 O 0.50417 0.96237 0.05333 0.0
O189 O 0.51965 0.0568 0.14925 0.0
C190 C 0.54451 0.09838 0.04697 0.0
C191 C 0.4925 0.97281 0.07969 0.0
Zn192 Zn 0.53528 0.5297 0.53808 0.0
Zn193 Zn 0.50806 0.60116 0.5928 0.0
C194 C 0.59951 0.57918 0.49867 0.0
O195 O 0.61816 0.57088 0.52351 0.0
C196 C 0.45998 0.56919 0.64747 0.0
O197 O 0.48532 0.59686 0.66064 0.0
O198 O 0.53428 0.47229 0.5321 0.0
O199 O 0.56028 0.54063 0.58117 0.0
O200 O 0.55034 0.58668 0.61148 0.0
C201 C 0.54483 0.45939 0.50622 0.0
O202 O 0.55344 0.48312 0.47848 0.0
O203 O 0.56541 0.56494 0.5004 0.0
C204 C 0.51754 0.68917 0.59223 0.0
O205 O 0.5294 0.69278 0.561 0.0
O206 O 0.50876 0.65494 0.6086 0.0
O207 O 0.50029 0.60304 0.54334 0.0
O208 O 0.4867 0.53909 0.53306 0.0
O209 O 0.46386 0.56315 0.61709 0.0
C210 C 0.56653 0.56104 0.60627 0.0
C211 C 0.48624 0.57483 0.52515 0.0
Zn212 Zn 0.01695 0.61455 0.00516 0.0
Zn213 Zn 0.02411 0.54627 0.06022 0.0
C214 C 0.971 0.57047 0.96019 0.0
O215 O 0.99869 0.59255 0.94098 0.0
C216 C 0.06943 0.59514 0.10411 0.0
O217 O 0.03934 0.58122 0.12262 0.0
O218 O 0.01577 0.66555 0.97797 0.0
O219 O 0.01225 0.62575 0.05296 0.0
O220 O 0.98189 0.56475 0.07446 0.0
C221 C 0.98522 0.67201 0.97956 0.0
O222 O 0.95904 0.6471 0.99882 0.0
O223 O 0.97221 0.57274 0.99154 0.0
C224 C 0.05442 0.48675 0.07802 0.0
O225 O 0.0766 0.51079 0.05492 0.0
O226 O 0.02545 0.49449 0.08596 0.0
O227 O 0.02771 0.53664 0.01198 0.0
O228 O 0.05997 0.59706 0.9917 0.0
O229 O 0.07004 0.5859 0.07423 0.0
C230 C 0.98861 0.6026 0.07369 0.0
C231 C 0.05333 0.55921 0.99281 0.0
H232 H 0.12883 0.16168 0.28364 0.0
H233 H 0.23254 0.1473 0.30838 0.0
H234 H 0.20922 0.12308 0.36608 0.0
H235 H 0.10866 0.19561 0.36149 0.0
H236 H 0.06121 0.16835 0.36303 0.0
H237 H 0.08572 0.18448 0.3234 0.0
H238 H 0.06558 0.11131 0.30718 0.0
H239 H 0.04089 0.095 0.34673 0.0
H240 H 0.07454 0.07237 0.33429 0.0
H241 H 0.17618 0.10342 0.42123 0.0
H242 H 0.13376 0.08412 0.4702 0.0
H243 H 0.0497 0.10786 0.41024 0.0
C244 C 0.14649 0.15329 0.30126 0.0
C245 C 0.18246 0.15616 0.29154 0.0
C246 C 0.20479 0.14482 0.3152 0.0
C247 C 0.19186 0.13127 0.34806 0.0
C248 C 0.15639 0.12888 0.3569 0.0
C249 C 0.13381 0.13909 0.3342 0.0
C250 C 0.09659 0.13291 0.3503 0.0
C251 C 0.08753 0.17271 0.34951 0.0
C252 C 0.06769 0.10099 0.33363 0.0
C253 C 0.10199 0.118 0.38562 0.0
C254 C 0.13681 0.11626 0.3888 0.0
C255 C 0.14876 0.10439 0.41903 0.0
C256 C 0.12441 0.09363 0.44678 0.0
C257 C 0.08829 0.09436 0.44418 0.0
C258 C 0.07704 0.10678 0.41306 0.0
H259 H 0.45343 0.93448 0.78597 0.0
H260 H 0.33954 0.87271 0.80837 0.0
H261 H 0.34573 0.89338 0.86544 0.0
H262 H 0.48331 0.90622 0.86521 0.0
H263 H 0.51815 0.95325 0.86716 0.0
H264 H 0.50447 0.93547 0.82734 0.0
H265 H 0.49088 0.00194 0.80986 0.0
H266 H 0.50433 0.0198 0.84974 0.0
H267 H 0.46024 0.01799 0.83562 0.0
H268 H 0.36425 0.91863 0.92071 0.0
H269 H 0.39445 0.94491 0.97099 0.0
H270 H 0.49672 0.98928 0.91374 0.0
C271 C 0.42978 0.92519 0.80285 0.0
C272 C 0.39585 0.90233 0.79228 0.0
C273 C 0.36564 0.89104 0.81535 0.0
C274 C 0.36891 0.90242 0.848 0.0
C275 C 0.40261 0.92503 0.85748 0.0
C276 C 0.43258 0.93617 0.83569 0.0
C277 C 0.46593 0.95938 0.85266 0.0
C278 C 0.49465 0.93725 0.85312 0.0
C279 C 0.48124 0.00233 0.83597 0.0
C280 C 0.45001 0.95919 0.88744 0.0
C281 C 0.4134 0.93939 0.88958 0.0
C282 C 0.39289 0.93437 0.91931 0.0
C283 C 0.41031 0.94945 0.94776 0.0
C284 C 0.44794 0.96934 0.9464 0.0
C285 C 0.46786 0.97462 0.91561 0.0
H286 H 0.6054 0.52008 0.79448 0.0
H287 H 0.65115 0.42922 0.76339 0.0
H288 H 0.65147 0.4555 0.70466 0.0
H289 H 0.54422 0.51047 0.73383 0.0
H290 H 0.54707 0.56279 0.72775 0.0
H291 H 0.55744 0.54243 0.76721 0.0
H292 H 0.62044 0.59588 0.76318 0.0
H293 H 0.61021 0.61648 0.72355 0.0
H294 H 0.65015 0.60071 0.72704 0.0
H295 H 0.63737 0.48423 0.6493 0.0
H296 H 0.60984 0.51224 0.60257 0.0
H297 H 0.57245 0.5837 0.66996 0.0
C298 C 0.61616 0.50616 0.77539 0.0
C299 C 0.6283 0.47259 0.78361 0.0
C300 C 0.64225 0.45535 0.75783 0.0
C301 C 0.64244 0.47004 0.72435 0.0
C302 C 0.62897 0.50224 0.71707 0.0
C303 C 0.61637 0.5203 0.74195 0.0
C304 C 0.59959 0.55138 0.72762 0.0
C305 C 0.55974 0.54112 0.73982 0.0
C306 C 0.62141 0.59362 0.73584 0.0
C307 C 0.60316 0.54671 0.69079 0.0
C308 C 0.62078 0.51878 0.68513 0.0
C309 C 0.62422 0.50674 0.65337 0.0
C310 C 0.60841 0.5228 0.62696 0.0
C311 C 0.58914 0.55042 0.63247 0.0
C312 C 0.58757 0.56331 0.66469 0.0
H313 H 0.81982 0.64901 0.15571 0.0
H314 H 0.89519 0.75645 0.18819 0.0
H315 H 0.94621 0.7347 0.16809 0.0
H316 H 0.87396 0.58167 0.17642 0.0
H317 H 0.86115 0.55423 0.14036 0.0
H318 H 0.83052 0.5768 0.15937 0.0
H319 H 0.82691 0.61563 0.10275 0.0
H320 H 0.85728 0.59298 0.08359 0.0
H321 H 0.86797 0.64682 0.08102 0.0
H322 H 0.98839 0.70494 0.13989 0.0
H323 H 0.01937 0.66844 0.10581 0.0
H324 H 0.91709 0.57872 0.09352 0.0
C325 C 0.84709 0.66787 0.15865 0.0
C326 C 0.85366 0.70442 0.17346 0.0
C327 C 0.88965 0.72817 0.17717 0.0
C328 C 0.91874 0.71608 0.16584 0.0
C329 C 0.91133 0.67996 0.15124 0.0
C330 C 0.87643 0.65607 0.14776 0.0
C331 C 0.87588 0.61943 0.12997 0.0
C332 C 0.8594 0.58074 0.15291 0.0
C333 C 0.85583 0.6187 0.09741 0.0
C334 C 0.91594 0.62703 0.12316 0.0
C335 C 0.93588 0.66204 0.1358 0.0
C336 C 0.97318 0.67713 0.13039 0.0
C337 C 0.99049 0.6563 0.11101 0.0
C338 C 0.97053 0.62065 0.09759 0.0
C339 C 0.93294 0.60537 0.10432 0.0
H340 H 0.2842 0.13379 0.23797 0.0
H341 H 0.24563 0.16502 0.14253 0.0
H342 H 0.28862 0.13752 0.11385 0.0
H343 H 0.37614 0.15952 0.21233 0.0
H344 H 0.38492 0.11888 0.23735 0.0
H345 H 0.34958 0.13865 0.25036 0.0
H346 H 0.30334 0.06767 0.25274 0.0
H347 H 0.33859 0.04762 0.23983 0.0
H348 H 0.29845 0.03988 0.21645 0.0
H349 H 0.33838 0.10968 0.09545 0.0
H350 H 0.39062 0.08396 0.08899 0.0
H351 H 0.39568 0.07005 0.1966 0.0
C352 C 0.2842 0.13409 0.21108 0.0
C353 C 0.26134 0.15144 0.19253 0.0
C354 C 0.26298 0.15212 0.15729 0.0
C355 C 0.2872 0.13638 0.14078 0.0
C356 C 0.3096 0.11992 0.15982 0.0
C357 C 0.30821 0.11855 0.19422 0.0
C358 C 0.33619 0.10078 0.20883 0.0
C359 C 0.36331 0.13128 0.22836 0.0
C360 C 0.31805 0.06166 0.23075 0.0
C361 C 0.35384 0.09278 0.17729 0.0
C362 C 0.33806 0.10385 0.14926 0.0
C363 C 0.35072 0.1006 0.11725 0.0
C364 C 0.38044 0.08596 0.11382 0.0
C365 C 0.39723 0.07475 0.14224 0.0
C366 C 0.38333 0.07793 0.17433 0.0
H367 H 0.23801 0.907 0.61611 0.0
H368 H 0.25973 0.94235 0.71619 0.0
H369 H 0.22473 0.99046 0.70741 0.0
H370 H 0.24096 0.00601 0.5769 0.0
H371 H 0.20474 0.98523 0.55018 0.0
H372 H 0.2343 0.95663 0.5634 0.0
H373 H 0.17898 0.89803 0.58715 0.0
H374 H 0.14929 0.92646 0.57416 0.0
H375 H 0.14797 0.90731 0.61716 0.0
H376 H 0.18243 0.02983 0.68937 0.0
H377 H 0.13848 0.05935 0.66293 0.0
H378 H 0.14478 0.99808 0.57454 0.0
C379 C 0.23567 0.92508 0.63612 0.0
C380 C 0.25154 0.92087 0.6669 0.0
C381 C 0.24813 0.94538 0.69231 0.0
C382 C 0.22817 0.97263 0.68758 0.0
C383 C 0.21213 0.97526 0.6572 0.0
C384 C 0.21598 0.95238 0.6318 0.0
C385 C 0.19483 0.95948 0.60205 0.0
C386 C 0.22023 0.97794 0.57132 0.0
C387 C 0.16606 0.9205 0.59472 0.0
C388 C 0.17775 0.98929 0.61492 0.0
C389 C 0.18816 0.99816 0.64671 0.0
C390 C 0.17446 0.02345 0.66434 0.0
C391 C 0.14939 0.03997 0.64914 0.0
C392 C 0.13828 0.03118 0.6166 0.0
C393 C 0.15301 0.00577 0.59927 0.0
H394 H 0.76808 0.42725 0.95634 0.0
H395 H 0.77775 0.45017 0.84866 0.0
H396 H 0.84112 0.49214 0.85234 0.0
H397 H 0.82038 0.52591 0.97391 0.0
H398 H 0.84073 0.50861 0.00945 0.0
H399 H 0.79662 0.47969 0.99814 0.0
H400 H 0.81905 0.41752 0.99484 0.0
H401 H 0.86328 0.4463 0.00605 0.0
H402 H 0.85807 0.42121 0.96828 0.0
H403 H 0.90329 0.5308 0.86785 0.0
H404 H 0.95898 0.56705 0.89388 0.0
H405 H 0.90837 0.52009 0.99187 0.0
C406 C 0.78367 0.44083 0.93352 0.0
C407 C 0.76822 0.43527 0.90215 0.0
C408 C 0.78914 0.45418 0.87289 0.0
C409 C 0.82513 0.47785 0.87476 0.0
C410 C 0.8396 0.4825 0.90609 0.0
C411 C 0.81946 0.46478 0.93496 0.0
C412 C 0.84105 0.47554 0.96557 0.0
C413 C 0.82366 0.49883 0.98808 0.0
C414 C 0.84563 0.4379 0.98481 0.0
C415 C 0.87657 0.5021 0.94942 0.0
C416 C 0.8752 0.50547 0.91508 0.0
C417 C 0.90466 0.52842 0.8947 0.0
C418 C 0.93623 0.54885 0.90978 0.0
C419 C 0.93809 0.54646 0.94496 0.0
C420 C 0.90784 0.52249 0.96494 0.0
H421 H 0.7659 0.71222 0.38023 0.0
H422 H 0.6889 0.72358 0.30668 0.0
H423 H 0.63882 0.68296 0.34555 0.0
H424 H 0.72072 0.61124 0.41061 0.0
H425 H 0.73167 0.61862 0.45334 0.0
H426 H 0.76122 0.64929 0.42003 0.0
H427 H 0.75611 0.71342 0.44492 0.0
H428 H 0.72664 0.68296 0.47838 0.0
H429 H 0.71214 0.71911 0.45269 0.0
H430 H 0.59756 0.64076 0.39214 0.0
H431 H 0.56769 0.59932 0.44293 0.0
H432 H 0.67209 0.61602 0.48605 0.0
C433 C 0.73847 0.70665 0.37246 0.0
C434 C 0.73116 0.72118 0.34056 0.0
C435 C 0.695 0.71249 0.33098 0.0
C436 C 0.66645 0.68966 0.35291 0.0
C437 C 0.67465 0.67578 0.38418 0.0
C438 C 0.70976 0.68394 0.39394 0.0
C439 C 0.7114 0.6649 0.42864 0.0
C440 C 0.7325 0.63419 0.4281 0.0
C441 C 0.72752 0.69702 0.45257 0.0
C442 C 0.67166 0.64458 0.43689 0.0
C443 C 0.65092 0.65131 0.41095 0.0
C444 C 0.6135 0.63535 0.41264 0.0
C445 C 0.59682 0.61183 0.44162 0.0
C446 C 0.6176 0.60443 0.46849 0.0
C447 C 0.65549 0.62115 0.46599 0.0
H448 H 0.19613 0.37232 0.12526 0.0
H449 H 0.12424 0.30729 0.20836 0.0
H450 H 0.07753 0.33776 0.18865 0.0
H451 H 0.17558 0.46222 0.1282 0.0
H452 H 0.17901 0.4741 0.0837 0.0
H453 H 0.20454 0.44375 0.10248 0.0
H454 H 0.17574 0.38726 0.06437 0.0
H455 H 0.15063 0.41801 0.0453 0.0
H456 H 0.12726 0.3681 0.06356 0.0
H457 H 0.04117 0.38192 0.16207 0.0
H458 H 0.01879 0.4328 0.13072 0.0
H459 H 0.11556 0.46687 0.06562 0.0
C460 C 0.1704 0.36409 0.13916 0.0
C461 C 0.16383 0.33756 0.16842 0.0
C462 C 0.12972 0.32732 0.18573 0.0
C463 C 0.10313 0.34461 0.17476 0.0
C464 C 0.11099 0.37165 0.14626 0.0
C465 C 0.14378 0.38091 0.12858 0.0
C466 C 0.14676 0.41228 0.09986 0.0
C467 C 0.17833 0.45032 0.10382 0.0
C468 C 0.15028 0.39538 0.06629 0.0
C469 C 0.11078 0.41989 0.10431 0.0
C470 C 0.0903 0.39626 0.13107 0.0
C471 C 0.05685 0.40013 0.14081 0.0
C472 C 0.04434 0.42909 0.12289 0.0
C473 C 0.06531 0.45377 0.09564 0.0
C474 C 0.09864 0.44842 0.08616 0.0
H475 H 0.63607 0.27543 0.90587 0.0
H476 H 0.69668 0.33916 0.98438 0.0
H477 H 0.67135 0.27974 0.02421 0.0
H478 H 0.5567 0.22601 0.95458 0.0
H479 H 0.54698 0.17941 0.93546 0.0
H480 H 0.57212 0.22562 0.9121 0.0
H481 H 0.62418 0.19588 0.90032 0.0
H482 H 0.59913 0.14947 0.92361 0.0
H483 H 0.64421 0.1757 0.93467 0.0
H484 H 0.63495 0.21763 0.05669 0.0
H485 H 0.59199 0.15346 0.07982 0.0
H486 H 0.55648 0.12687 0.98061 0.0
C487 C 0.64429 0.27658 0.93137 0.0
C488 C 0.66856 0.31179 0.94201 0.0
C489 C 0.67863 0.3123 0.97556 0.0
C490 C 0.66428 0.27877 0.9984 0.0
C491 C 0.64016 0.24475 0.98725 0.0
C492 C 0.63049 0.24308 0.9545 0.0
C493 C 0.60303 0.20307 0.9495 0.0
C494 C 0.56761 0.20889 0.93719 0.0
C495 C 0.61858 0.17965 0.9256 0.0
C496 C 0.59806 0.18307 0.98479 0.0
C497 C 0.61982 0.20782 0.00606 0.0
C498 C 0.61826 0.19764 0.04025 0.0
C499 C 0.59369 0.16128 0.05314 0.0
C500 C 0.57131 0.13526 0.0319 0.0
C501 C 0.57386 0.14599 0.99721 0.0
H502 H 0.81695 0.85406 0.34583 0.0
H503 H 0.89283 0.80255 0.30026 0.0
H504 H 0.94261 0.84779 0.32885 0.0
H505 H 0.87797 0.95729 0.34449 0.0
H506 H 0.85997 0.96465 0.38428 0.0
H507 H 0.83152 0.93144 0.35725 0.0
H508 H 0.81677 0.87397 0.40483 0.0
H509 H 0.84543 0.90681 0.43185 0.0
H510 H 0.85315 0.86005 0.42416 0.0
H511 H 0.9829 0.89451 0.36676 0.0
H512 H 0.01085 0.94116 0.40838 0.0
H513 H 0.90757 0.96051 0.4292 0.0
C514 C 0.84413 0.85267 0.34151 0.0
C515 C 0.85113 0.82486 0.32088 0.0
C516 C 0.88702 0.82401 0.31569 0.0
C517 C 0.91538 0.84941 0.33195 0.0
C518 C 0.9073 0.8756 0.353 0.0
C519 C 0.87258 0.87769 0.35747 0.0
C520 C 0.87053 0.90689 0.38258 0.0
C521 C 0.85935 0.94216 0.36616 0.0
C522 C 0.84496 0.88564 0.41263 0.0
C523 C 0.90938 0.92026 0.39219 0.0
C524 C 0.93029 0.90215 0.37477 0.0
C525 C 0.96685 0.90913 0.3803 0.0
C526 C 0.98243 0.93553 0.40408 0.0
C527 C 0.9614 0.95442 0.42209 0.0
C528 C 0.92443 0.94656 0.41591 0.0
H529 H 0.42765 0.79243 0.72444 0.0
H530 H 0.45735 0.89919 0.65544 0.0
H531 H 0.49327 0.86866 0.62038 0.0
H532 H 0.51383 0.76574 0.71448 0.0
H533 H 0.4899 0.71288 0.7167 0.0
H534 H 0.47203 0.74583 0.7391 0.0
H535 H 0.41185 0.72121 0.70956 0.0
H536 H 0.42963 0.6886 0.68686 0.0
H537 H 0.41243 0.7251 0.66465 0.0
H538 H 0.51923 0.82334 0.58942 0.0
H539 H 0.53391 0.7672 0.56522 0.0
H540 H 0.48634 0.68923 0.65405 0.0
C541 C 0.443 0.80983 0.70266 0.0
C542 C 0.44076 0.84849 0.69294 0.0
C543 C 0.45964 0.8699 0.66353 0.0
C544 C 0.47995 0.85274 0.6435 0.0
C545 C 0.48091 0.81405 0.6532 0.0
C546 C 0.46313 0.79293 0.68223 0.0
C547 C 0.46541 0.75042 0.68527 0.0
C548 C 0.48656 0.74332 0.71569 0.0
C549 C 0.42759 0.71953 0.68665 0.0
C550 C 0.4863 0.75058 0.65301 0.0
C551 C 0.49537 0.78767 0.63504 0.0
C552 C 0.51278 0.79434 0.60351 0.0
C553 C 0.52093 0.76222 0.58992 0.0
C554 C 0.51149 0.72381 0.60773 0.0
C555 C 0.49435 0.71829 0.63988 0.0
H556 H 0.87638 0.94133 0.73881 0.0
H557 H 0.9155 0.83753 0.74422 0.0
H558 H 0.94155 0.85654 0.68677 0.0
H559 H 0.85394 0.93891 0.65039 0.0
H560 H 0.86876 0.99278 0.64264 0.0
H561 H 0.85089 0.96965 0.68347 0.0
H562 H 0.90933 0.0107 0.70946 0.0
H563 H 0.92726 0.03404 0.6688 0.0
H564 H 0.95239 0.0081 0.69402 0.0
H565 H 0.96771 0.88936 0.63101 0.0
H566 H 0.99282 0.93473 0.58036 0.0
H567 H 0.9352 0.01604 0.60929 0.0
C568 C 0.88994 0.92229 0.72768 0.0
C569 C 0.89409 0.88806 0.74612 0.0
C570 C 0.91247 0.86423 0.73082 0.0
C571 C 0.92706 0.87456 0.69807 0.0
C572 C 0.92285 0.90866 0.68073 0.0
C573 C 0.90469 0.93218 0.69491 0.0
C574 C 0.90575 0.9685 0.67137 0.0
C575 C 0.86756 0.96737 0.66138 0.0
C576 C 0.92482 0.00764 0.68684 0.0
C577 C 0.92796 0.96212 0.64205 0.0
C578 C 0.9373 0.92722 0.64796 0.0
C579 C 0.95998 0.91631 0.62577 0.0
C580 C 0.97402 0.94209 0.59709 0.0
C581 C 0.96503 0.97803 0.59071 0.0
C582 C 0.94135 0.98794 0.61319 0.0
H583 H 0.62831 0.19066 0.32175 0.0
H584 H 0.65614 0.08087 0.34418 0.0
H585 H 0.62292 0.0519 0.29629 0.0
H586 H 0.53801 0.14355 0.294 0.0
H587 H 0.54089 0.18212 0.26085 0.0
H588 H 0.56587 0.19422 0.29772 0.0
H589 H 0.62516 0.22302 0.26124 0.0
H590 H 0.60036 0.21104 0.22428 0.0
H591 H 0.63784 0.19204 0.23257 0.0
H592 H 0.58751 0.03454 0.2462 0.0
H593 H 0.55336 0.03075 0.19509 0.0
H594 H 0.54899 0.15194 0.20331 0.0
C595 C 0.62718 0.16051 0.31654 0.0
C596 C 0.64505 0.13812 0.33646 0.0
C597 C 0.64309 0.09875 0.32892 0.0
C598 C 0.62411 0.08192 0.3019 0.0
C599 C 0.60715 0.10478 0.28249 0.0
C600 C 0.60852 0.14324 0.28927 0.0
C601 C 0.58872 0.16152 0.26358 0.0
C602 C 0.55645 0.1709 0.28003 0.0
C603 C 0.61457 0.19913 0.24427 0.0
C604 C 0.57626 0.12737 0.24141 0.0
C605 C 0.587 0.09486 0.253 0.0
C606 C 0.57889 0.05978 0.23682 0.0
C607 C 0.55945 0.05791 0.20781 0.0
C608 C 0.54852 0.09101 0.1951 0.0
C609 C 0.55698 0.12611 0.21232 0.0
H610 H 0.42906 0.56486 0.33599 0.0
H611 H 0.37036 0.6493 0.3551 0.0
H612 H 0.39227 0.65287 0.41191 0.0
H613 H 0.40668 0.50913 0.41515 0.0
H614 H 0.44959 0.49963 0.41864 0.0
H615 H 0.43264 0.50673 0.37814 0.0
H616 H 0.49137 0.56432 0.36086 0.0
H617 H 0.50856 0.55721 0.40128 0.0
H618 H 0.50572 0.60584 0.38624 0.0
H619 H 0.41964 0.64654 0.46721 0.0
H620 H 0.44856 0.62865 0.51759 0.0
H621 H 0.48415 0.54318 0.46466 0.0
C622 C 0.42057 0.58408 0.35199 0.0
C623 C 0.39798 0.607 0.34054 0.0
C624 C 0.38826 0.63213 0.36257 0.0
C625 C 0.40033 0.63411 0.39515 0.0
C626 C 0.42186 0.61053 0.40565 0.0
C627 C 0.43181 0.58587 0.38478 0.0
C628 C 0.45366 0.56203 0.40277 0.0
C629 C 0.43448 0.51669 0.40373 0.0
C630 C 0.4921 0.57302 0.38683 0.0
C631 C 0.45398 0.57673 0.43717 0.0
C632 C 0.43599 0.6052 0.4381 0.0
C633 C 0.4336 0.62412 0.46682 0.0
C634 C 0.45008 0.61376 0.49529 0.0
C635 C 0.46812 0.58418 0.49509 0.0
C636 C 0.46992 0.56533 0.46565 0.0
H637 H 0.1011 0.37499 0.92327 0.0
H638 H 0.19288 0.45965 0.86736 0.0
H639 H 0.17726 0.51568 0.89071 0.0
H640 H 0.04071 0.43085 0.91459 0.0
H641 H 0.02067 0.41707 0.95627 0.0
H642 H 0.03996 0.38363 0.93624 0.0
H643 H 0.08173 0.38313 0.98561 0.0
H644 H 0.06217 0.4162 0.00595 0.0
H645 H 0.1103 0.43004 0.99799 0.0
H646 H 0.14939 0.5629 0.91873 0.0
H647 H 0.11333 0.59622 0.95095 0.0
H648 H 0.04194 0.47939 0.98895 0.0
C649 C 0.1185 0.40517 0.9164 0.0
C650 C 0.14814 0.41276 0.8933 0.0
C651 C 0.16963 0.45298 0.88457 0.0
C652 C 0.16113 0.48505 0.89787 0.0
C653 C 0.13135 0.47641 0.92017 0.0
C654 C 0.11067 0.43738 0.92965 0.0
C655 C 0.07983 0.43593 0.95369 0.0
C656 C 0.04314 0.41568 0.93932 0.0
C657 C 0.08375 0.41509 0.98782 0.0
C658 C 0.08586 0.48024 0.95566 0.0
C659 C 0.11574 0.50327 0.93635 0.0
C660 C 0.12605 0.54512 0.93411 0.0
C661 C 0.10538 0.56378 0.95236 0.0
C662 C 0.07482 0.54048 0.97245 0.0
C663 C 0.06512 0.49821 0.97387 0.0
H664 H 0.69549 0.91925 0.84217 0.0
H665 H 0.75695 0.88804 0.9226 0.0
H666 H 0.72764 0.92195 0.96128 0.0
H667 H 0.69615 0.01781 0.86846 0.0
H668 H 0.65086 0.01175 0.85557 0.0
H669 H 0.67942 0.98857 0.83414 0.0
H670 H 0.63064 0.91944 0.84565 0.0
H671 H 0.60208 0.94232 0.86723 0.0
H672 H 0.61437 0.90121 0.88793 0.0
H673 H 0.68561 0.95266 0.99228 0.0
H674 H 0.63811 0.98076 0.01173 0.0
H675 H 0.60625 0.99306 0.90992 0.0
C676 C 0.70319 0.92008 0.86783 0.0
C677 C 0.72841 0.901 0.87948 0.0
C678 C 0.73791 0.9028 0.91316 0.0
C679 C 0.72128 0.92184 0.93527 0.0
C680 C 0.69569 0.93941 0.92312 0.0
C681 C 0.68714 0.93913 0.89001 0.0
C682 C 0.65779 0.95852 0.88322 0.0
C683 C 0.67191 0.99642 0.85891 0.0
C684 C 0.62425 0.92858 0.87026 0.0
C685 C 0.65036 0.9689 0.91784 0.0
C686 C 0.67244 0.95777 0.9406 0.0
C687 C 0.66865 0.96208 0.97453 0.0
C688 C 0.64154 0.97798 0.98537 0.0
C689 C 0.61869 0.98952 0.96234 0.0
C690 C 0.62364 0.98525 0.92814 0.0
H691 H 0.77363 0.17813 0.44199 0.0
H692 H 0.72994 0.08963 0.37189 0.0
H693 H 0.78266 0.06584 0.37688 0.0
H694 H 0.86751 0.2 0.41779 0.0
H695 H 0.88306 0.20229 0.45961 0.0
H696 H 0.84235 0.21452 0.45006 0.0
H697 H 0.80674 0.16113 0.49646 0.0
H698 H 0.84739 0.14886 0.50627 0.0
H699 H 0.80775 0.11013 0.4961 0.0
H700 H 0.84045 0.05316 0.3862 0.0
H701 H 0.89827 0.04657 0.405 0.0
H702 H 0.90379 0.13662 0.47439 0.0
C703 C 0.77505 0.15366 0.42779 0.0
C704 C 0.7479 0.13708 0.40546 0.0
C705 C 0.75088 0.10458 0.38784 0.0
C706 C 0.78065 0.09031 0.39079 0.0
C707 C 0.80713 0.10787 0.4122 0.0
C708 C 0.80449 0.13823 0.43098 0.0
C709 C 0.83648 0.15025 0.45319 0.0
C710 C 0.85866 0.19439 0.44464 0.0
C711 C 0.82383 0.1421 0.4902 0.0
C712 C 0.85745 0.12214 0.44352 0.0
C713 C 0.83999 0.09841 0.41948 0.0
C714 C 0.85428 0.07126 0.40524 0.0
C715 C 0.88727 0.06793 0.41594 0.0
C716 C 0.90547 0.09106 0.4411 0.0
C717 C 0.89026 0.11841 0.45527 0.0
H718 H 0.26858 0.63099 0.16763 0.0
H719 H 0.249 0.72044 0.22752 0.0
H720 H 0.18861 0.70918 0.20449 0.0
H721 H 0.2259 0.65843 0.09483 0.0
H722 H 0.20729 0.60768 0.08398 0.0
H723 H 0.24846 0.62157 0.10595 0.0
H724 H 0.22 0.56506 0.15275 0.0
H725 H 0.17895 0.55075 0.1307 0.0
H726 H 0.17768 0.56294 0.17325 0.0
H727 H 0.1297 0.68614 0.17701 0.0
H728 H 0.07647 0.65423 0.14527 0.0
H729 H 0.1359 0.58385 0.09946 0.0
C730 C 0.25131 0.64782 0.17605 0.0
C731 C 0.26304 0.67627 0.19955 0.0
C732 C 0.24023 0.69841 0.20963 0.0
C733 C 0.20602 0.69225 0.19666 0.0
C734 C 0.19532 0.6643 0.17325 0.0
C735 C 0.21731 0.64256 0.16286 0.0
C736 C 0.19955 0.61506 0.13681 0.0
C737 C 0.22162 0.62638 0.10341 0.0
C738 C 0.19369 0.57084 0.14912 0.0
C739 C 0.16401 0.62442 0.13448 0.0
C740 C 0.16207 0.65272 0.1559 0.0
C741 C 0.13108 0.66442 0.15977 0.0
C742 C 0.10107 0.64628 0.14166 0.0
C743 C 0.10257 0.61743 0.1195 0.0
C744 C 0.13458 0.60679 0.11551 0.0
H745 H 0.27829 0.39357 0.69906 0.0
H746 H 0.25509 0.46941 0.77133 0.0
H747 H 0.31284 0.52093 0.75464 0.0
H748 H 0.37314 0.41922 0.70701 0.0
H749 H 0.38347 0.4197 0.66312 0.0
H750 H 0.34083 0.38796 0.68145 0.0
H751 H 0.30691 0.42076 0.63884 0.0
H752 H 0.34944 0.45241 0.62019 0.0
H753 H 0.31632 0.47449 0.63499 0.0
H754 H 0.37381 0.5632 0.73145 0.0
H755 H 0.43154 0.5962 0.69973 0.0
H756 H 0.41225 0.49555 0.63914 0.0
C757 C 0.28491 0.42119 0.71113 0.0
C758 C 0.26206 0.4271 0.73679 0.0
C759 C 0.27237 0.4636 0.75217 0.0
C760 C 0.30504 0.49322 0.74271 0.0
C761 C 0.32686 0.4862 0.7175 0.0
C762 C 0.31703 0.45136 0.7016 0.0
C763 C 0.34482 0.45176 0.67453 0.0
C764 C 0.36155 0.41763 0.68199 0.0
C765 C 0.32839 0.44975 0.6401 0.0
C766 C 0.37193 0.4923 0.67778 0.0
C767 C 0.36125 0.51144 0.70301 0.0
C768 C 0.38236 0.54868 0.71147 0.0
C769 C 0.41514 0.56705 0.69344 0.0
C770 C 0.42616 0.5484 0.66697 0.0
C771 C 0.40425 0.51056 0.65908 0.0
H772 H 0.86128 0.78302 0.88223 0.0
H773 H 0.95883 0.87764 0.84754 0.0
H774 H 0.99507 0.84347 0.88107 0.0
H775 H 0.8898 0.76762 0.9678 0.0
H776 H 0.86823 0.71423 0.97006 0.0
H777 H 0.85 0.74763 0.94492 0.0
H778 H 0.85407 0.70876 0.89361 0.0
H779 H 0.8727 0.67558 0.91845 0.0
H780 H 0.89686 0.70289 0.88099 0.0
H781 H 0.02128 0.79526 0.91438 0.0
H782 H 0.03442 0.73991 0.94864 0.0
H783 H 0.9195 0.67931 0.96366 0.0
C784 C 0.89013 0.79723 0.88235 0.0
C785 C 0.90712 0.83302 0.86203 0.0
C786 C 0.94515 0.84997 0.86248 0.0
C787 C 0.966 0.83086 0.88158 0.0
C788 C 0.94847 0.79504 0.90052 0.0
C789 C 0.91133 0.77873 0.90147 0.0
C790 C 0.89916 0.7394 0.92317 0.0
C791 C 0.8754 0.74242 0.95328 0.0
C792 C 0.87955 0.70462 0.90283 0.0
C793 C 0.93526 0.7358 0.93381 0.0
C794 C 0.96344 0.76808 0.92044 0.0
C795 C 0.99937 0.77014 0.9254 0.0
C796 C 0.00661 0.73853 0.94475 0.0
C797 C 0.97804 0.70553 0.9591 0.0
C798 C 0.94197 0.70442 0.9535 0.0
H799 H 0.41216 0.75236 0.16909 0.0
H800 H 0.35977 0.80244 0.24271 0.0
H801 H 0.39366 0.8711 0.2187 0.0
H802 H 0.50105 0.83369 0.16088 0.0
H803 H 0.50452 0.83088 0.11651 0.0
H804 H 0.48154 0.78662 0.14345 0.0
H805 H 0.42466 0.77695 0.10882 0.0
H806 H 0.44718 0.82139 0.08212 0.0
H807 H 0.40469 0.81709 0.10333 0.0
H808 H 0.42789 0.93372 0.18245 0.0
H809 H 0.45912 0.9848 0.13702 0.0
H810 H 0.48669 0.89296 0.0857 0.0
C811 C 0.40912 0.77793 0.18092 0.0
C812 C 0.38438 0.77254 0.20825 0.0
C813 C 0.37945 0.80635 0.22226 0.0
C814 C 0.39846 0.84531 0.20872 0.0
C815 C 0.422 0.84975 0.18103 0.0
C816 C 0.42749 0.81692 0.16738 0.0
C817 C 0.45089 0.82943 0.13548 0.0
C818 C 0.48663 0.81958 0.13932 0.0
C819 C 0.43063 0.81007 0.10569 0.0
C820 C 0.45694 0.87424 0.1328 0.0
C821 C 0.44056 0.88554 0.15953 0.0
C822 C 0.44119 0.92524 0.16163 0.0
C823 C 0.45891 0.95406 0.13568 0.0
C824 C 0.47537 0.94291 0.10785 0.0
C825 C 0.4745 0.90249 0.10669 0.0
H826 H 0.20595 0.30706 0.686 0.0
H827 H 0.10337 0.30912 0.72931 0.0
H828 H 0.07128 0.26277 0.68902 0.0
H829 H 0.17963 0.30331 0.59958 0.0
H830 H 0.20537 0.27009 0.59033 0.0
H831 H 0.22 0.30507 0.62136 0.0
H832 H 0.21988 0.24655 0.66489 0.0
H833 H 0.20537 0.21147 0.63402 0.0
H834 H 0.17937 0.20476 0.67281 0.0
H835 H 0.05068 0.21345 0.64587 0.0
H836 H 0.0431 0.16346 0.60456 0.0
H837 H 0.15953 0.19559 0.58904 0.0
C838 C 0.17674 0.29838 0.68664 0.0
C839 C 0.15712 0.31183 0.71064 0.0
C840 C 0.1189 0.29893 0.71124 0.0
C841 C 0.10048 0.27291 0.68831 0.0
C842 C 0.12073 0.26025 0.66496 0.0
C843 C 0.15802 0.27257 0.664 0.0
C844 C 0.17351 0.25316 0.63762 0.0
C845 C 0.19595 0.2848 0.61062 0.0
C846 C 0.19583 0.22746 0.65328 0.0
C847 C 0.13908 0.22745 0.62416 0.0
C848 C 0.10891 0.23212 0.64007 0.0
C849 C 0.0741 0.20986 0.63301 0.0
C850 C 0.07008 0.18155 0.60952 0.0
C851 C 0.10072 0.17579 0.59346 0.0
C852 C 0.13556 0.19964 0.60053 0.0
H853 H 0.60039 0.27259 0.44352 0.0
H854 H 0.61175 0.23929 0.54791 0.0
H855 H 0.59323 0.29667 0.56365 0.0
H856 H 0.63619 0.38135 0.45017 0.0
H857 H 0.60593 0.39335 0.42075 0.0
H858 H 0.62023 0.34944 0.41726 0.0
H859 H 0.55335 0.30558 0.41935 0.0
H860 H 0.53885 0.34928 0.42329 0.0
H861 H 0.52372 0.30687 0.45404 0.0
H862 H 0.5698 0.35431 0.56908 0.0
H863 H 0.55062 0.41517 0.56339 0.0
H864 H 0.55823 0.41594 0.4556 0.0
C865 C 0.59949 0.27769 0.46963 0.0
C866 C 0.60676 0.2506 0.49448 0.0
C867 C 0.60525 0.25864 0.52838 0.0
C868 C 0.59493 0.29137 0.53765 0.0
C869 C 0.58677 0.31657 0.51277 0.0
C870 C 0.58962 0.3108 0.47941 0.0
C871 C 0.57997 0.34331 0.45785 0.0
C872 C 0.61252 0.36835 0.43517 0.0
C873 C 0.54701 0.32516 0.43743 0.0
C874 C 0.57093 0.36779 0.48441 0.0
C875 C 0.57473 0.35142 0.51589 0.0
C876 C 0.56704 0.36769 0.54456 0.0
C877 C 0.5559 0.40218 0.54104 0.0
C878 C 0.55291 0.4205 0.50907 0.0
C879 C 0.56033 0.40275 0.48039 0.0
loop_
_geom_bond_atom_site_label_1
_geom_bond_atom_site_label_2
_geom_bond_distance
_geom_bond_site_symmetry_2
_ccdc_geom_bond_type
H0 C1 0.949 . S
C1 H0 0.949 . S
C1 C2 1.395 . S
C1 C3 1.391 . S
C2 C1 1.395 . S
C2 C5 1.390 . S
C3 C1 1.391 . S
C3 C7 1.387 . S
C3 C8 1.491 . S
H4 C5 0.950 . S
C5 C2 1.390 . S
C5 H4 0.950 . S
C5 C6 1.378 . S
C6 C5 1.378 . S
C6 C7 1.409 . S
C7 C3 1.387 . S
C7 C6 1.409 . S
C7 H9 0.951 . S
C8 C3 1.491 . S
C8 C10 1.382 . S
C8 C12 1.404 . S
H9 C7 0.951 . S
C10 C8 1.382 . S
C10 C11 1.390 . S
C10 H15 0.949 . S
C11 C10 1.390 . S
C11 C16 1.399 . S
C12 C8 1.404 . S
C12 H13 0.950 . S
C12 C14 1.375 . S
H13 C12 0.950 . S
C14 C12 1.375 . S
C14 C16 1.382 . S
C14 H18 0.950 . S
H15 C10 0.949 . S
C16 C11 1.399 . S
C16 C14 1.382 . S
C16 H17 0.952 . S
H17 C16 0.952 . S
H18 C14 0.950 . S
H19 C20 0.949 . S
C20 H19 0.949 . S
C20 C21 1.395 . S
C20 C22 1.391 . S
C21 C20 1.395 . S
C21 C24 1.390 . S
C22 C20 1.391 . S
C22 C26 1.387 . S
C22 C27 1.491 . S
H23 C24 0.950 . S
C24 C21 1.390 . S
C24 H23 0.950 . S
C24 C25 1.378 . S
C25 C24 1.378 . S
C25 C26 1.409 . S
C26 C22 1.387 . S
C26 C25 1.409 . S
C26 H28 0.951 . S
C27 C22 1.491 . S
C27 C29 1.382 . S
C27 C31 1.404 . S
H28 C26 0.951 . S
C29 C27 1.382 . S
C29 C30 1.390 . S
C29 H34 0.949 . S
C30 C29 1.390 . S
C30 C35 1.399 . S
C31 C27 1.404 . S
C31 H32 0.950 . S
C31 C33 1.375 . S
H32 C31 0.950 . S
C33 C31 1.375 . S
C33 C35 1.382 . S
C33 H37 0.950 . S
H34 C29 0.949 . S
C35 C30 1.399 . S
C35 C33 1.382 . S
C35 H36 0.952 . S
H36 C35 0.952 . S
H37 C33 0.950 . S
H38 C39 0.949 . S
C39 H38 0.949 . S
C39 C40 1.395 . S
C39 C41 1.391 . S
C40 C39 1.395 . S
C40 C43 1.390 . S
C41 C39 1.391 . S
C41 C45 1.387 . S
C41 C46 1.491 . S
H42 C43 0.950 . S
C43 C40 1.390 . S
C43 H42 0.950 . S
C43 C44 1.378 . S
C44 C43 1.378 . S
C44 C45 1.409 . S
C45 C41 1.387 . S
C45 C44 1.409 . S
C45 H47 0.951 . S
C46 C41 1.491 . S
C46 C48 1.382 . S
C46 C50 1.404 . S
H47 C45 0.951 . S
C48 C46 1.382 . S
C48 C49 1.390 . S
C48 H53 0.949 . S
C49 C48 1.390 . S
C49 C54 1.399 . S
C50 C46 1.404 . S
C50 H51 0.950 . S
C50 C52 1.375 . S
H51 C50 0.950 . S
C52 C50 1.375 . S
C52 C54 1.382 . S
C52 H56 0.950 . S
H53 C48 0.949 . S
C54 C49 1.399 . S
C54 C52 1.382 . S
C54 H55 0.952 . S
H55 C54 0.952 . S
H56 C52 0.950 . S
H57 C58 0.949 . S
C58 H57 0.949 . S
C58 C59 1.395 . S
C58 C60 1.391 . S
C59 C58 1.395 . S
C59 C62 1.390 . S
C60 C58 1.391 . S
C60 C64 1.387 . S
C60 C65 1.491 . S
H61 C62 0.950 . S
C62 C59 1.390 . S
C62 H61 0.950 . S
C62 C63 1.378 . S
C63 C62 1.378 . S
C63 C64 1.409 . S
C64 C60 1.387 . S
C64 C63 1.409 . S
C64 H66 0.951 . S
C65 C60 1.491 . S
C65 C67 1.382 . S
C65 C69 1.404 . S
H66 C64 0.951 . S
C67 C65 1.382 . S
C67 C68 1.390 . S
C67 H72 0.949 . S
C68 C67 1.390 . S
C68 C73 1.399 . S
C69 C65 1.404 . S
C69 H70 0.950 . S
C69 C71 1.375 . S
H70 C69 0.950 . S
C71 C69 1.375 . S
C71 C73 1.382 . S
C71 H75 0.950 . S
H72 C67 0.949 . S
C73 C68 1.399 . S
C73 C71 1.382 . S
C73 H74 0.952 . S
H74 C73 0.952 . S
H75 C71 0.950 . S
H76 C77 0.949 . S
C77 H76 0.949 . S
C77 C78 1.395 . S
C77 C79 1.391 . S
C78 C77 1.395 . S
C78 C81 1.390 . S
C79 C77 1.391 . S
C79 C83 1.387 . S
C79 C84 1.491 . S
H80 C81 0.950 . S
C81 C78 1.390 . S
C81 H80 0.950 . S
C81 C82 1.378 . S
C82 C81 1.378 . S
C82 C83 1.409 . S
C83 C79 1.387 . S
C83 C82 1.409 . S
C83 H85 0.951 . S
C84 C79 1.491 . S
C84 C86 1.382 . S
C84 C88 1.404 . S
H85 C83 0.951 . S
C86 C84 1.382 . S
C86 C87 1.390 . S
C86 H91 0.949 . S
C87 C86 1.390 . S
C87 C92 1.399 . S
C88 C84 1.404 . S
C88 H89 0.950 . S
C88 C90 1.375 . S
H89 C88 0.950 . S
C90 C88 1.375 . S
C90 C92 1.382 . S
C90 H94 0.950 . S
H91 C86 0.949 . S
C92 C87 1.399 . S
C92 C90 1.382 . S
C92 H93 0.952 . S
H93 C92 0.952 . S
H94 C90 0.950 . S
H95 C96 0.949 . S
C96 H95 0.949 . S
C96 C97 1.395 . S
C96 C98 1.391 . S
C97 C96 1.395 . S
C97 C100 1.390 . S
C98 C96 1.391 . S
C98 C102 1.387 . S
C98 C103 1.491 . S
H99 C100 0.950 . S
C100 C97 1.390 . S
C100 H99 0.950 . S
C100 C101 1.378 . S
C101 C100 1.378 . S
C101 C102 1.409 . S
C102 C98 1.387 . S
C102 C101 1.409 . S
C102 H104 0.951 . S
C103 C98 1.491 . S
C103 C105 1.382 . S
C103 C107 1.404 . S
H104 C102 0.951 . S
C105 C103 1.382 . S
C105 C106 1.390 . S
C105 H110 0.949 . S
C106 C105 1.390 . S
C106 C111 1.399 . S
C107 C103 1.404 . S
C107 H108 0.950 . S
C107 C109 1.375 . S
H108 C107 0.950 . S
C109 C107 1.375 . S
C109 C111 1.382 . S
C109 H113 0.950 . S
H110 C105 0.949 . S
C111 C106 1.399 . S
C111 C109 1.382 . S
C111 H112 0.952 . S
H112 C111 0.952 . S
H113 C109 0.950 . S
H114 C115 0.949 . S
C115 H114 0.949 . S
C115 C116 1.395 . S
C115 C117 1.391 . S
C116 C115 1.395 . S
C116 C119 1.390 . S
C117 C115 1.391 . S
C117 C121 1.387 . S
C117 C122 1.491 . S
H118 C119 0.950 . S
C119 C116 1.390 . S
C119 H118 0.950 . S
C119 C120 1.378 . S
C120 C119 1.378 . S
C120 C121 1.409 . S
C121 C117 1.387 . S
C121 C120 1.409 . S
C121 H123 0.951 . S
C122 C117 1.491 . S
C122 C124 1.382 . S
C122 C126 1.404 . S
H123 C121 0.951 . S
C124 C122 1.382 . S
C124 C125 1.390 . S
C124 H129 0.949 . S
C125 C124 1.390 . S
C125 C130 1.399 . S
C126 C122 1.404 . S
C126 H127 0.950 . S
C126 C128 1.375 . S
H127 C126 0.950 . S
C128 C126 1.375 . S
C128 C130 1.382 . S
C128 H132 0.950 . S
H129 C124 0.949 . S
C130 C125 1.399 . S
C130 C128 1.382 . S
C130 H131 0.952 . S
H131 C130 0.952 . S
H132 C128 0.950 . S
H133 C134 0.949 . S
C134 H133 0.949 . S
C134 C135 1.395 . S
C134 C136 1.391 . S
C135 C134 1.395 . S
C135 C138 1.390 . S
C136 C134 1.391 . S
C136 C140 1.387 . S
C136 C141 1.491 . S
H137 C138 0.950 . S
C138 C135 1.390 . S
C138 H137 0.950 . S
C138 C139 1.378 . S
C139 C138 1.378 . S
C139 C140 1.409 . S
C140 C136 1.387 . S
C140 C139 1.409 . S
C140 H142 0.951 . S
C141 C136 1.491 . S
C141 C143 1.382 . S
C141 C145 1.404 . S
H142 C140 0.951 . S
C143 C141 1.382 . S
C143 C144 1.390 . S
C143 H148 0.949 . S
C144 C143 1.390 . S
C144 C149 1.399 . S
C145 C141 1.404 . S
C145 H146 0.950 . S
C145 C147 1.375 . S
H146 C145 0.950 . S
C147 C145 1.375 . S
C147 C149 1.382 . S
C147 H151 0.950 . S
H148 C143 0.949 . S
C149 C144 1.399 . S
C149 C147 1.382 . S
C149 H150 0.952 . S
H150 C149 0.952 . S
H151 C147 0.950 . S
Zn152 O158 1.969 . S
Zn152 O159 1.957 1_545 S
Zn152 O163 2.024 . S
Zn152 O168 1.969 . S
Zn153 O160 1.969 1_545 S
Zn153 O166 1.969 . S
Zn153 O167 1.965 1_655 S
Zn153 O169 2.024 1_545 S
C154 O155 1.229 . S
C154 O163 1.058 . S
O155 C154 1.229 . S
C156 O157 1.229 . S
C156 O169 1.058 . S
O157 C156 1.229 . S
O158 Zn152 1.969 . S
O158 C161 1.267 1_545 S
O159 Zn152 1.957 1_565 S
O159 C170 1.258 1_455 S
O160 Zn153 1.969 1_565 S
O160 C170 1.258 . S
C161 O158 1.267 1_565 S
C161 O162 1.228 1_565 S
O162 C161 1.228 1_545 S
O163 Zn152 2.024 . S
O163 C154 1.058 . S
C164 O165 1.228 . S
C164 O166 1.267 . S
O165 C164 1.228 . S
O166 Zn153 1.969 . S
O166 C164 1.267 . S
O167 Zn153 1.965 1_455 S
O167 C171 1.260 . S
O168 Zn152 1.969 . S
O168 C171 1.258 . S
O169 Zn153 2.024 1_565 S
O169 C156 1.058 . S
C170 O159 1.258 1_655 S
C170 O160 1.258 . S
C171 O167 1.260 . S
C171 O168 1.258 . S
Zn172 O178 1.969 . S
Zn172 O179 1.965 1_565 S
Zn172 O183 2.024 1_554 S
Zn172 O188 1.969 . S
Zn173 O180 1.969 . S
Zn173 O186 1.969 . S
Zn173 O187 1.965 . S
Zn173 O189 2.024 . S
C174 O175 1.229 . S
C174 O183 1.058 . S
O175 C174 1.229 . S
C176 O177 1.229 . S
C176 O189 1.058 . S
O177 C176 1.229 . S
O178 Zn172 1.969 . S
O178 C181 1.267 . S
O179 Zn172 1.965 1_545 S
O179 C190 1.260 . S
O180 Zn173 1.969 . S
O180 C190 1.258 . S
C181 O178 1.267 . S
C181 O182 1.228 1_554 S
O182 C181 1.228 1_556 S
O183 Zn172 2.024 1_556 S
O183 C174 1.058 . S
C184 O185 1.228 . S
C184 O186 1.267 . S
O185 C184 1.228 . S
O186 Zn173 1.969 . S
O186 C184 1.267 . S
O187 Zn173 1.965 . S
O187 C191 1.260 1_545 S
O188 Zn172 1.969 . S
O188 C191 1.258 . S
O189 Zn173 2.024 . S
O189 C176 1.058 . S
C190 O179 1.260 . S
C190 O180 1.258 . S
C191 O187 1.260 1_565 S
C191 O188 1.258 . S
Zn192 O198 1.969 . S
Zn192 O199 1.965 . S
Zn192 O203 2.024 . S
Zn192 O208 1.969 . S
Zn193 O200 1.969 . S
Zn193 O206 1.969 . S
Zn193 O207 1.965 . S
Zn193 O209 2.024 . S
C194 O195 1.229 . S
C194 O203 1.058 . S
O195 C194 1.229 . S
C196 O197 1.229 . S
C196 O209 1.058 . S
O197 C196 1.229 . S
O198 Zn192 1.969 . S
O198 C201 1.267 . S
O199 Zn192 1.965 . S
O199 C210 1.260 . S
O200 Zn193 1.969 . S
O200 C210 1.258 . S
C201 O198 1.267 . S
C201 O202 1.228 . S
O202 C201 1.228 . S
O203 Zn192 2.024 . S
O203 C194 1.058 . S
C204 O205 1.228 . S
C204 O206 1.267 . S
O205 C204 1.228 . S
O206 Zn193 1.969 . S
O206 C204 1.267 . S
O207 Zn193 1.965 . S
O207 C211 1.260 . S
O208 Zn192 1.969 . S
O208 C211 1.258 . S
O209 Zn193 2.024 . S
O209 C196 1.058 . S
C210 O199 1.260 . S
C210 O200 1.258 . S
C211 O207 1.260 . S
C211 O208 1.258 . S
Zn212 O218 1.969 1_655 S
Zn212 O219 1.965 1_656 S
Zn212 O223 2.024 . S
Zn212 O228 1.969 1_655 S
Zn213 O220 1.969 . S
Zn213 O226 1.969 . S
Zn213 O227 1.962 . S
Zn213 O229 2.024 . S
C214 O215 1.229 . S
C214 O223 1.058 . S
O215 C214 1.229 . S
C216 O217 1.229 . S
C216 O229 1.058 . S
O217 C216 1.229 . S
O218 Zn212 1.969 1_455 S
O218 C221 1.267 1_455 S
O219 Zn212 1.965 1_454 S
O219 C230 1.260 . S
O220 Zn213 1.969 . S
O220 C230 1.258 . S
C221 O218 1.267 1_655 S
C221 O222 1.228 . S
O222 C221 1.228 . S
O223 Zn212 2.024 . S
O223 C214 1.058 . S
C224 O225 1.228 . S
C224 O226 1.267 . S
O225 C224 1.228 . S
O226 Zn213 1.969 . S
O226 C224 1.267 . S
O227 Zn213 1.962 . S
O227 C231 1.263 1_554 S
O228 Zn212 1.969 1_455 S
O228 C231 1.258 . S
O229 Zn213 2.024 . S
O229 C216 1.058 . S
C230 O219 1.260 . S
C230 O220 1.258 . S
C231 O227 1.263 1_556 S
C231 O228 1.258 . S
H232 C244 0.930 . S
H233 C246 0.930 . S
H234 C247 0.930 . S
H235 C251 0.959 . S
H236 C251 0.959 . S
H237 C251 0.961 . S
H238 C252 0.960 . S
H239 C252 0.961 . S
H240 C252 0.959 . S
H241 C255 0.929 . S
H242 C256 0.931 . S
H243 C258 0.930 . S
C244 H232 0.930 . S
C244 C245 1.399 . S
C244 C249 1.399 . S
C245 C244 1.399 . S
C245 C246 1.376 . S
C246 H233 0.930 . S
C246 C245 1.376 . S
C246 C247 1.388 . S
C247 H234 0.930 . S
C247 C246 1.388 . S
C247 C248 1.390 . S
C248 C247 1.390 . S
C248 C249 1.394 . S
C248 C254 1.465 . S
C249 C244 1.399 . S
C249 C248 1.394 . S
C249 C250 1.516 . S
C250 C249 1.516 . S
C250 C251 1.502 . S
C250 C252 1.561 . S
C250 C253 1.526 . S
C251 H235 0.959 . S
C251 H236 0.959 . S
C251 H237 0.961 . S
C251 C250 1.502 . S
C252 H238 0.960 . S
C252 H239 0.961 . S
C252 H240 0.959 . S
C252 C250 1.561 . S
C253 C250 1.526 . S
C253 C254 1.396 . S
C253 C258 1.390 . S
C254 C248 1.465 . S
C254 C253 1.396 . S
C254 C255 1.399 . S
C255 H241 0.929 . S
C255 C254 1.399 . S
C255 C256 1.385 . S
C256 H242 0.931 . S
C256 C255 1.385 . S
C256 C257 1.389 . S
C257 C256 1.389 . S
C257 C258 1.387 . S
C258 H243 0.930 . S
C258 C253 1.390 . S
C258 C257 1.387 . S
H259 C271 0.930 . S
H260 C273 0.930 . S
H261 C274 0.930 . S
H262 C278 0.959 . S
H263 C278 0.959 1_545 S
H264 C278 0.955 1_545 S
H265 C279 0.960 . S
H266 C279 0.961 1_545 S
H267 C279 0.959 . S
H268 C282 0.929 . S
H269 C283 0.931 . S
H270 C285 0.930 . S
C271 H259 0.930 . S
C271 C272 1.399 . S
C271 C276 1.399 . S
C272 C271 1.399 . S
C272 C273 1.376 . S
C273 H260 0.930 . S
C273 C272 1.376 . S
C273 C274 1.388 . S
C274 H261 0.930 . S
C274 C273 1.388 . S
C274 C275 1.390 . S
C275 C274 1.390 . S
C275 C276 1.394 . S
C275 C281 1.465 . S
C276 C271 1.399 . S
C276 C275 1.394 . S
C276 C277 1.516 . S
C277 C276 1.516 . S
C277 C278 1.502 . S
C277 C279 1.561 . S
C277 C280 1.526 . S
C278 H262 0.959 . S
C278 H263 0.959 1_565 S
C278 H264 0.955 1_565 S
C278 C277 1.502 . S
C279 H265 0.960 . S
C279 H266 0.961 1_565 S
C279 H267 0.959 . S
C279 C277 1.561 . S
C280 C277 1.526 . S
C280 C281 1.396 . S
C280 C285 1.390 . S
C281 C275 1.465 . S
C281 C280 1.396 . S
C281 C282 1.399 . S
C282 H268 0.929 . S
C282 C281 1.399 . S
C282 C283 1.385 . S
C283 H269 0.931 . S
C283 C282 1.385 . S
C283 C284 1.389 . S
C284 C283 1.389 . S
C284 C285 1.387 . S
C285 H270 0.930 . S
C285 C280 1.390 . S
C285 C284 1.387 . S
H286 C298 0.930 . S
H287 C300 0.930 . S
H288 C301 0.930 . S
H289 C305 0.959 . S
H290 C305 0.959 . S
H291 C305 0.961 . S
H292 C306 0.960 . S
H293 C306 0.961 . S
H294 C306 0.959 . S
H295 C309 0.929 . S
H296 C310 0.931 . S
H297 C312 0.930 . S
C298 H286 0.930 . S
C298 C299 1.399 . S
C298 C303 1.399 . S
C299 C298 1.399 . S
C299 C300 1.376 . S
C300 H287 0.930 . S
C300 C299 1.376 . S
C300 C301 1.388 . S
C301 H288 0.930 . S
C301 C300 1.388 . S
C301 C302 1.390 . S
C302 C301 1.390 . S
C302 C303 1.394 . S
C302 C308 1.465 . S
C303 C298 1.399 . S
C303 C302 1.394 . S
C303 C304 1.516 . S
C304 C303 1.516 . S
C304 C305 1.502 . S
C304 C306 1.561 . S
C304 C307 1.526 . S
C305 H289 0.959 . S
C305 H290 0.959 . S
C305 H291 0.961 . S
C305 C304 1.502 . S
C306 H292 0.960 . S
C306 H293 0.961 . S
C306 H294 0.959 . S
C306 C304 1.561 . S
C307 C304 1.526 . S
C307 C308 1.396 . S
C307 C312 1.390 . S
C308 C302 1.465 . S
C308 C307 1.396 . S
C308 C309 1.399 . S
C309 H295 0.929 . S
C309 C308 1.399 . S
C309 C310 1.385 . S
C310 H296 0.931 . S
C310 C309 1.385 . S
C310 C311 1.389 . S
C311 C310 1.389 . S
C311 C312 1.387 . S
C312 H297 0.930 . S
C312 C307 1.390 . S
C312 C311 1.387 . S
H313 C325 0.930 . S
H314 C327 0.930 . S
H315 C328 0.930 . S
H316 C332 0.959 . S
H317 C332 0.959 . S
H318 C332 0.961 . S
H319 C333 0.960 . S
H320 C333 0.961 . S
H321 C333 0.959 . S
H322 C336 0.929 . S
H323 C337 0.931 . S
H324 C339 0.930 . S
C325 H313 0.930 . S
C325 C326 1.399 . S
C325 C330 1.399 . S
C326 C325 1.399 . S
C326 C327 1.376 . S
C327 H314 0.930 . S
C327 C326 1.376 . S
C327 C328 1.388 . S
C328 H315 0.930 . S
C328 C327 1.388 . S
C328 C329 1.390 . S
C329 C328 1.390 . S
C329 C330 1.394 . S
C329 C335 1.465 . S
C330 C325 1.399 . S
C330 C329 1.394 . S
C330 C331 1.516 . S
C331 C330 1.516 . S
C331 C332 1.502 . S
C331 C333 1.561 . S
C331 C334 1.526 . S
C332 H316 0.959 . S
C332 H317 0.959 . S
C332 H318 0.961 . S
C332 C331 1.502 . S
C333 H319 0.960 . S
C333 H320 0.961 . S
C333 H321 0.959 . S
C333 C331 1.561 . S
C334 C331 1.526 . S
C334 C335 1.396 . S
C334 C339 1.390 . S
C335 C329 1.465 . S
C335 C334 1.396 . S
C335 C336 1.399 . S
C336 H322 0.929 . S
C336 C335 1.399 . S
C336 C337 1.385 . S
C337 H323 0.931 . S
C337 C336 1.385 . S
C337 C338 1.389 . S
C338 C337 1.389 . S
C338 C339 1.387 . S
C339 H324 0.930 . S
C339 C334 1.390 . S
C339 C338 1.387 . S
H340 C352 0.930 . S
H341 C354 0.930 . S
H342 C355 0.930 . S
H343 C359 0.959 . S
H344 C359 0.959 . S
H345 C359 0.961 . S
H346 C360 0.960 . S
H347 C360 0.961 . S
H348 C360 0.959 . S
H349 C363 0.929 . S
H350 C364 0.931 . S
H351 C366 0.930 . S
C352 H340 0.930 . S
C352 C353 1.399 . S
C352 C357 1.399 . S
C353 C352 1.399 . S
C353 C354 1.376 . S
C354 H341 0.930 . S
C354 C353 1.376 . S
C354 C355 1.388 . S
C355 H342 0.930 . S
C355 C354 1.388 . S
C355 C356 1.390 . S
C356 C355 1.390 . S
C356 C357 1.394 . S
C356 C362 1.465 . S
C357 C352 1.399 . S
C357 C356 1.394 . S
C357 C358 1.516 . S
C358 C357 1.516 . S
C358 C359 1.502 . S
C358 C360 1.561 . S
C358 C361 1.526 . S
C359 H343 0.959 . S
C359 H344 0.959 . S
C359 H345 0.961 . S
C359 C358 1.502 . S
C360 H346 0.960 . S
C360 H347 0.961 . S
C360 H348 0.959 . S
C360 C358 1.561 . S
C361 C358 1.526 . S
C361 C362 1.396 . S
C361 C366 1.390 . S
C362 C356 1.465 . S
C362 C361 1.396 . S
C362 C363 1.399 . S
C363 H349 0.929 . S
C363 C362 1.399 . S
C363 C364 1.385 . S
C364 H350 0.931 . S
C364 C363 1.385 . S
C364 C365 1.389 . S
C365 C364 1.389 . S
C365 C366 1.387 . S
C366 H351 0.930 . S
C366 C361 1.390 . S
C366 C365 1.387 . S
H367 C379 0.930 . S
H368 C381 0.930 . S
H369 C382 0.930 . S
H370 C386 0.959 . S
H371 C386 0.959 . S
H372 C386 0.961 . S
H373 C387 0.960 . S
H374 C387 0.961 1_545 S
H375 C387 0.959 . S
H376 C390 0.929 . S
H377 C391 0.931 . S
H378 C393 0.930 1_545 S
C379 H367 0.930 . S
C379 C380 1.399 . S
C379 C384 1.399 . S
C380 C379 1.399 . S
C380 C381 1.376 . S
C381 H368 0.930 . S
C381 C380 1.376 . S
C381 C382 1.388 . S
C382 H369 0.930 . S
C382 C381 1.388 . S
C382 C383 1.390 . S
C383 C382 1.390 . S
C383 C384 1.394 . S
C383 C389 1.465 . S
C384 C379 1.399 . S
C384 C383 1.394 . S
C384 C385 1.516 . S
C385 C384 1.516 . S
C385 C386 1.502 1_565 S
C385 C387 1.561 . S
C385 C388 1.526 . S
C386 H370 0.959 . S
C386 H371 0.959 . S
C386 H372 0.961 . S
C386 C385 1.502 1_545 S
C387 H373 0.960 . S
C387 H374 0.961 1_565 S
C387 H375 0.959 . S
C387 C385 1.561 . S
C388 C385 1.526 . S
C388 C389 1.396 . S
C388 C393 1.390 . S
C389 C383 1.465 . S
C389 C388 1.396 . S
C389 C390 1.399 . S
C390 H376 0.929 . S
C390 C389 1.399 . S
C390 C391 1.385 . S
C391 H377 0.931 . S
C391 C390 1.385 . S
C391 C392 1.389 . S
C392 C391 1.389 . S
C392 C393 1.387 . S
C393 H378 0.930 1_565 S
C393 C388 1.390 . S
C393 C392 1.387 . S
H394 C406 0.930 . S
H395 C408 0.930 . S
H396 C409 0.930 . S
H397 C413 0.959 . S
H398 C413 0.959 . S
H399 C413 0.961 . S
H400 C414 0.960 . S
H401 C414 0.961 . S
H402 C414 0.959 . S
H403 C417 0.929 . S
H404 C418 0.931 . S
H405 C420 0.930 . S
C406 H394 0.930 . S
C406 C407 1.399 . S
C406 C411 1.399 . S
C407 C406 1.399 . S
C407 C408 1.376 . S
C408 H395 0.930 . S
C408 C407 1.376 . S
C408 C409 1.388 . S
C409 H396 0.930 . S
C409 C408 1.388 . S
C409 C410 1.390 . S
C410 C409 1.390 . S
C410 C411 1.394 . S
C410 C416 1.465 . S
C411 C406 1.399 . S
C411 C410 1.394 . S
C411 C412 1.516 . S
C412 C411 1.516 . S
C412 C413 1.502 . S
C412 C414 1.561 . S
C412 C415 1.526 . S
C413 H397 0.959 . S
C413 H398 0.959 . S
C413 H399 0.961 . S
C413 C412 1.502 . S
C414 H400 0.960 . S
C414 H401 0.961 . S
C414 H402 0.959 . S
C414 C412 1.561 . S
C415 C412 1.526 . S
C415 C416 1.396 . S
C415 C420 1.390 . S
C416 C410 1.465 . S
C416 C415 1.396 . S
C416 C417 1.399 . S
C417 H403 0.929 . S
C417 C416 1.399 . S
C417 C418 1.385 . S
C418 H404 0.931 . S
C418 C417 1.385 . S
C418 C419 1.389 . S
C419 C418 1.389 . S
C419 C420 1.387 . S
C420 H405 0.930 . S
C420 C415 1.390 . S
C420 C419 1.387 . S
H421 C433 0.930 . S
H422 C435 0.930 . S
H423 C436 0.930 . S
H424 C440 0.959 . S
H425 C440 0.959 . S
H426 C440 0.961 . S
H427 C441 0.960 . S
H428 C441 0.961 . S
H429 C441 0.959 . S
H430 C444 0.929 . S
H431 C445 0.931 . S
H432 C447 0.930 . S
C433 H421 0.930 . S
C433 C434 1.399 . S
C433 C438 1.399 . S
C434 C433 1.399 . S
C434 C435 1.376 . S
C435 H422 0.930 . S
C435 C434 1.376 . S
C435 C436 1.388 . S
C436 H423 0.930 . S
C436 C435 1.388 . S
C436 C437 1.390 . S
C437 C436 1.390 . S
C437 C438 1.394 . S
C437 C443 1.465 . S
C438 C433 1.399 . S
C438 C437 1.394 . S
C438 C439 1.516 . S
C439 C438 1.516 . S
C439 C440 1.502 . S
C439 C441 1.561 . S
C439 C442 1.526 . S
C440 H424 0.959 . S
C440 H425 0.959 . S
C440 H426 0.961 . S
C440 C439 1.502 . S
C441 H427 0.960 . S
C441 H428 0.961 . S
C441 H429 0.959 . S
C441 C439 1.561 . S
C442 C439 1.526 . S
C442 C443 1.396 . S
C442 C447 1.390 . S
C443 C437 1.465 . S
C443 C442 1.396 . S
C443 C444 1.399 . S
C444 H430 0.929 . S
C444 C443 1.399 . S
C444 C445 1.385 . S
C445 H431 0.931 . S
C445 C444 1.385 . S
C445 C446 1.389 . S
C446 C445 1.389 . S
C446 C447 1.387 . S
C447 H432 0.930 . S
C447 C442 1.390 . S
C447 C446 1.387 . S
H448 C460 0.930 . S
H449 C462 0.930 . S
H450 C463 0.930 . S
H451 C467 0.959 . S
H452 C467 0.959 . S
H453 C467 0.961 . S
H454 C468 0.960 . S
H455 C468 0.961 . S
H456 C468 0.959 . S
H457 C471 0.929 . S
H458 C472 0.931 . S
H459 C474 0.930 . S
C460 H448 0.930 . S
C460 C461 1.399 . S
C460 C465 1.399 . S
C461 C460 1.399 . S
C461 C462 1.376 . S
C462 H449 0.930 . S
C462 C461 1.376 . S
C462 C463 1.388 . S
C463 H450 0.930 . S
C463 C462 1.388 . S
C463 C464 1.390 . S
C464 C463 1.390 . S
C464 C465 1.394 . S
C464 C470 1.465 . S
C465 C460 1.399 . S
C465 C464 1.394 . S
C465 C466 1.516 . S
C466 C465 1.516 . S
C466 C467 1.502 . S
C466 C468 1.561 . S
C466 C469 1.526 . S
C467 H451 0.959 . S
C467 H452 0.959 . S
C467 H453 0.961 . S
C467 C466 1.502 . S
C468 H454 0.960 . S
C468 H455 0.961 . S
C468 H456 0.959 . S
C468 C466 1.561 . S
C469 C466 1.526 . S
C469 C470 1.396 . S
C469 C474 1.390 . S
C470 C464 1.465 . S
C470 C469 1.396 . S
C470 C471 1.399 . S
C471 H457 0.929 . S
C471 C470 1.399 . S
C471 C472 1.385 . S
C472 H458 0.931 . S
C472 C471 1.385 . S
C472 C473 1.389 . S
C473 C472 1.389 . S
C473 C474 1.387 . S
C474 H459 0.930 . S
C474 C469 1.390 . S
C474 C473 1.387 . S
H475 C487 0.930 . S
H476 C489 0.930 . S
H477 C490 0.930 . S
H478 C494 0.959 . S
H479 C494 0.959 . S
H480 C494 0.961 . S
H481 C495 0.960 . S
H482 C495 0.961 . S
H483 C495 0.959 . S
H484 C498 0.929 . S
H485 C499 0.931 . S
H486 C501 0.930 . S
C487 H475 0.930 . S
C487 C488 1.399 . S
C487 C492 1.399 . S
C488 C487 1.399 . S
C488 C489 1.376 . S
C489 H476 0.930 . S
C489 C488 1.376 . S
C489 C490 1.388 . S
C490 H477 0.930 . S
C490 C489 1.388 . S
C490 C491 1.390 . S
C491 C490 1.390 . S
C491 C492 1.394 . S
C491 C497 1.465 . S
C492 C487 1.399 . S
C492 C491 1.394 . S
C492 C493 1.516 . S
C493 C492 1.516 . S
C493 C494 1.502 . S
C493 C495 1.561 . S
C493 C496 1.526 . S
C494 H478 0.959 . S
C494 H479 0.959 . S
C494 H480 0.961 . S
C494 C493 1.502 . S
C495 H481 0.960 . S
C495 H482 0.961 . S
C495 H483 0.959 . S
C495 C493 1.561 . S
C496 C493 1.526 . S
C496 C497 1.396 . S
C496 C501 1.390 . S
C497 C491 1.465 . S
C497 C496 1.396 . S
C497 C498 1.399 1_556 S
C498 H484 0.929 . S
C498 C497 1.399 1_554 S
C498 C499 1.385 . S
C499 H485 0.931 . S
C499 C498 1.385 . S
C499 C500 1.389 . S
C500 C499 1.389 . S
C500 C501 1.387 1_554 S
C501 H486 0.930 . S
C501 C496 1.390 . S
C501 C500 1.387 1_556 S
H502 C514 0.930 . S
H503 C516 0.930 . S
H504 C517 0.930 . S
H505 C521 0.959 . S
H506 C521 0.959 . S
H507 C521 0.961 . S
H508 C522 0.960 . S
H509 C522 0.961 . S
H510 C522 0.959 . S
H511 C525 0.929 . S
H512 C526 0.931 . S
H513 C528 0.930 . S
C514 H502 0.930 . S
C514 C515 1.399 . S
C514 C519 1.399 . S
C515 C514 1.399 . S
C515 C516 1.376 . S
C516 H503 0.930 . S
C516 C515 1.376 . S
C516 C517 1.388 . S
C517 H504 0.930 . S
C517 C516 1.388 . S
C517 C518 1.390 . S
C518 C517 1.390 . S
C518 C519 1.394 . S
C518 C524 1.465 . S
C519 C514 1.399 . S
C519 C518 1.394 . S
C519 C520 1.516 . S
C520 C519 1.516 . S
C520 C521 1.502 . S
C520 C522 1.561 . S
C520 C523 1.526 . S
C521 H505 0.959 . S
C521 H506 0.959 . S
C521 H507 0.961 . S
C521 C520 1.502 . S
C522 H508 0.960 . S
C522 H509 0.961 . S
C522 H510 0.959 . S
C522 C520 1.561 . S
C523 C520 1.526 . S
C523 C524 1.396 . S
C523 C528 1.390 . S
C524 C518 1.465 . S
C524 C523 1.396 . S
C524 C525 1.399 . S
C525 H511 0.929 . S
C525 C524 1.399 . S
C525 C526 1.385 . S
C526 H512 0.931 . S
C526 C525 1.385 . S
C526 C527 1.389 . S
C527 C526 1.389 . S
C527 C528 1.387 . S
C528 H513 0.930 . S
C528 C523 1.390 . S
C528 C527 1.387 . S
H529 C541 0.930 . S
H530 C543 0.930 . S
H531 C544 0.930 . S
H532 C548 0.959 . S
H533 C548 0.959 . S
H534 C548 0.961 . S
H535 C549 0.960 . S
H536 C549 0.961 . S
H537 C549 0.959 . S
H538 C552 0.929 . S
H539 C553 0.931 . S
H540 C555 0.930 . S
C541 H529 0.930 . S
C541 C542 1.399 . S
C541 C546 1.399 . S
C542 C541 1.399 . S
C542 C543 1.376 . S
C543 H530 0.930 . S
C543 C542 1.376 . S
C543 C544 1.388 . S
C544 H531 0.930 . S
C544 C543 1.388 . S
C544 C545 1.390 . S
C545 C544 1.390 . S
C545 C546 1.394 . S
C545 C551 1.465 . S
C546 C541 1.399 . S
C546 C545 1.394 . S
C546 C547 1.516 . S
C547 C546 1.516 . S
C547 C548 1.502 . S
C547 C549 1.561 . S
C547 C550 1.526 . S
C548 H532 0.959 . S
C548 H533 0.959 . S
C548 H534 0.961 . S
C548 C547 1.502 . S
C549 H535 0.960 . S
C549 H536 0.961 . S
C549 H537 0.959 . S
C549 C547 1.561 . S
C550 C547 1.526 . S
C550 C551 1.396 . S
C550 C555 1.390 . S
C551 C545 1.465 . S
C551 C550 1.396 . S
C551 C552 1.399 . S
C552 H538 0.929 . S
C552 C551 1.399 . S
C552 C553 1.385 . S
C553 H539 0.931 . S
C553 C552 1.385 . S
C553 C554 1.389 . S
C554 C553 1.389 . S
C554 C555 1.387 . S
C555 H540 0.930 . S
C555 C550 1.390 . S
C555 C554 1.387 . S
H556 C568 0.930 . S
H557 C570 0.930 . S
H558 C571 0.930 . S
H559 C575 0.959 . S
H560 C575 0.959 . S
H561 C575 0.961 . S
H562 C576 0.960 . S
H563 C576 0.961 1_545 S
H564 C576 0.959 . S
H565 C579 0.929 . S
H566 C580 0.931 . S
H567 C582 0.930 . S
C568 H556 0.930 . S
C568 C569 1.399 . S
C568 C573 1.399 . S
C569 C568 1.399 . S
C569 C570 1.376 . S
C570 H557 0.930 . S
C570 C569 1.376 . S
C570 C571 1.388 . S
C571 H558 0.930 . S
C571 C570 1.388 . S
C571 C572 1.390 . S
C572 C571 1.390 . S
C572 C573 1.394 . S
C572 C578 1.465 . S
C573 C568 1.399 . S
C573 C572 1.394 . S
C573 C574 1.516 . S
C574 C573 1.516 . S
C574 C575 1.502 . S
C574 C576 1.561 . S
C574 C577 1.526 . S
C575 H559 0.959 . S
C575 H560 0.959 . S
C575 H561 0.961 . S
C575 C574 1.502 . S
C576 H562 0.960 . S
C576 H563 0.961 1_565 S
C576 H564 0.959 . S
C576 C574 1.561 . S
C577 C574 1.526 . S
C577 C578 1.396 . S
C577 C582 1.390 . S
C578 C572 1.465 . S
C578 C577 1.396 . S
C578 C579 1.399 . S
C579 H565 0.929 . S
C579 C578 1.399 . S
C579 C580 1.385 . S
C580 H566 0.931 . S
C580 C579 1.385 . S
C580 C581 1.389 . S
C581 C580 1.389 . S
C581 C582 1.387 . S
C582 H567 0.930 . S
C582 C577 1.390 . S
C582 C581 1.387 . S
H583 C595 0.930 . S
H584 C597 0.930 . S
H585 C598 0.930 . S
H586 C602 0.959 . S
H587 C602 0.959 . S
H588 C602 0.961 . S
H589 C603 0.960 . S
H590 C603 0.961 . S
H591 C603 0.959 . S
H592 C606 0.929 . S
H593 C607 0.931 . S
H594 C609 0.930 . S
C595 H583 0.930 . S
C595 C596 1.399 . S
C595 C600 1.399 . S
C596 C595 1.399 . S
C596 C597 1.376 . S
C597 H584 0.930 . S
C597 C596 1.376 . S
C597 C598 1.388 . S
C598 H585 0.930 . S
C598 C597 1.388 . S
C598 C599 1.390 . S
C599 C598 1.390 . S
C599 C600 1.394 . S
C599 C605 1.465 . S
C600 C595 1.399 . S
C600 C599 1.394 . S
C600 C601 1.516 . S
C601 C600 1.516 . S
C601 C602 1.502 . S
C601 C603 1.561 . S
C601 C604 1.526 . S
C602 H586 0.959 . S
C602 H587 0.959 . S
C602 H588 0.961 . S
C602 C601 1.502 . S
C603 H589 0.960 . S
C603 H590 0.961 . S
C603 H591 0.959 . S
C603 C601 1.561 . S
C604 C601 1.526 . S
C604 C605 1.396 . S
C604 C609 1.390 . S
C605 C599 1.465 . S
C605 C604 1.396 . S
C605 C606 1.399 . S
C606 H592 0.929 . S
C606 C605 1.399 . S
C606 C607 1.385 . S
C607 H593 0.931 . S
C607 C606 1.385 . S
C607 C608 1.389 . S
C608 C607 1.389 . S
C608 C609 1.387 . S
C609 H594 0.930 . S
C609 C604 1.390 . S
C609 C608 1.387 . S
H610 C622 0.930 . S
H611 C624 0.930 . S
H612 C625 0.930 . S
H613 C629 0.959 . S
H614 C629 0.959 . S
H615 C629 0.961 . S
H616 C630 0.960 . S
H617 C630 0.961 . S
H618 C630 0.959 . S
H619 C633 0.929 . S
H620 C634 0.931 . S
H621 C636 0.930 . S
C622 H610 0.930 . S
C622 C623 1.399 . S
C622 C627 1.399 . S
C623 C622 1.399 . S
C623 C624 1.376 . S
C624 H611 0.930 . S
C624 C623 1.376 . S
C624 C625 1.388 . S
C625 H612 0.930 . S
C625 C624 1.388 . S
C625 C626 1.390 . S
C626 C625 1.390 . S
C626 C627 1.394 . S
C626 C632 1.465 . S
C627 C622 1.399 . S
C627 C626 1.394 . S
C627 C628 1.516 . S
C628 C627 1.516 . S
C628 C629 1.502 . S
C628 C630 1.561 . S
C628 C631 1.526 . S
C629 H613 0.959 . S
C629 H614 0.959 . S
C629 H615 0.961 . S
C629 C628 1.502 . S
C630 H616 0.960 . S
C630 H617 0.961 . S
C630 H618 0.959 . S
C630 C628 1.561 . S
C631 C628 1.526 . S
C631 C632 1.396 . S
C631 C636 1.390 . S
C632 C626 1.465 . S
C632 C631 1.396 . S
C632 C633 1.399 . S
C633 H619 0.929 . S
C633 C632 1.399 . S
C633 C634 1.385 . S
C634 H620 0.931 . S
C634 C633 1.385 . S
C634 C635 1.389 . S
C635 C634 1.389 . S
C635 C636 1.387 . S
C636 H621 0.930 . S
C636 C631 1.390 . S
C636 C635 1.387 . S
H637 C649 0.930 . S
H638 C651 0.930 . S
H639 C652 0.930 . S
H640 C656 0.959 . S
H641 C656 0.959 . S
H642 C656 0.961 . S
H643 C657 0.960 . S
H644 C657 0.961 . S
H645 C657 0.959 . S
H646 C660 0.929 . S
H647 C661 0.931 . S
H648 C663 0.930 . S
C649 H637 0.930 . S
C649 C650 1.399 . S
C649 C654 1.399 . S
C650 C649 1.399 . S
C650 C651 1.376 . S
C651 H638 0.930 . S
C651 C650 1.376 . S
C651 C652 1.388 . S
C652 H639 0.930 . S
C652 C651 1.388 . S
C652 C653 1.390 . S
C653 C652 1.390 . S
C653 C654 1.394 . S
C653 C659 1.465 . S
C654 C649 1.399 . S
C654 C653 1.394 . S
C654 C655 1.516 . S
C655 C654 1.516 . S
C655 C656 1.502 . S
C655 C657 1.561 . S
C655 C658 1.526 . S
C656 H640 0.959 . S
C656 H641 0.959 . S
C656 H642 0.961 . S
C656 C655 1.502 . S
C657 H643 0.960 . S
C657 H644 0.961 . S
C657 H645 0.959 . S
C657 C655 1.561 . S
C658 C655 1.526 . S
C658 C659 1.396 . S
C658 C663 1.390 . S
C659 C653 1.465 . S
C659 C658 1.396 . S
C659 C660 1.399 . S
C660 H646 0.929 . S
C660 C659 1.399 . S
C660 C661 1.385 . S
C661 H647 0.931 . S
C661 C660 1.385 . S
C661 C662 1.389 . S
C662 C661 1.389 . S
C662 C663 1.387 . S
C663 H648 0.930 . S
C663 C658 1.390 . S
C663 C662 1.387 . S
H664 C676 0.930 . S
H665 C678 0.930 . S
H666 C679 0.930 . S
H667 C683 0.959 . S
H668 C683 0.959 . S
H669 C683 0.961 . S
H670 C684 0.960 . S
H671 C684 0.961 . S
H672 C684 0.959 . S
H673 C687 0.929 1_554 S
H674 C688 0.931 . S
H675 C690 0.930 . S
C676 H664 0.930 . S
C676 C677 1.399 . S
C676 C681 1.399 . S
C677 C676 1.399 . S
C677 C678 1.376 . S
C678 H665 0.930 . S
C678 C677 1.376 . S
C678 C679 1.388 . S
C679 H666 0.930 . S
C679 C678 1.388 . S
C679 C680 1.390 . S
C680 C679 1.390 . S
C680 C681 1.394 . S
C680 C686 1.465 . S
C681 C676 1.399 . S
C681 C680 1.394 . S
C681 C682 1.516 . S
C682 C681 1.516 . S
C682 C683 1.502 . S
C682 C684 1.561 . S
C682 C685 1.526 . S
C683 H667 0.959 . S
C683 H668 0.959 . S
C683 H669 0.961 . S
C683 C682 1.502 . S
C684 H670 0.960 . S
C684 H671 0.961 . S
C684 H672 0.959 . S
C684 C682 1.561 . S
C685 C682 1.526 . S
C685 C686 1.396 . S
C685 C690 1.390 . S
C686 C680 1.465 . S
C686 C685 1.396 . S
C686 C687 1.399 . S
C687 H673 0.929 1_556 S
C687 C686 1.399 . S
C687 C688 1.385 1_556 S
C688 H674 0.931 . S
C688 C687 1.385 1_554 S
C688 C689 1.389 1_554 S
C689 C688 1.389 1_556 S
C689 C690 1.387 . S
C690 H675 0.930 . S
C690 C685 1.390 . S
C690 C689 1.387 . S
H691 C703 0.930 . S
H692 C705 0.930 . S
H693 C706 0.930 . S
H694 C710 0.959 . S
H695 C710 0.959 . S
H696 C710 0.961 . S
H697 C711 0.960 . S
H698 C711 0.961 . S
H699 C711 0.959 . S
H700 C714 0.929 . S
H701 C715 0.931 . S
H702 C717 0.930 . S
C703 H691 0.930 . S
C703 C704 1.399 . S
C703 C708 1.399 . S
C704 C703 1.399 . S
C704 C705 1.376 . S
C705 H692 0.930 . S
C705 C704 1.376 . S
C705 C706 1.388 . S
C706 H693 0.930 . S
C706 C705 1.388 . S
C706 C707 1.390 . S
C707 C706 1.390 . S
C707 C708 1.394 . S
C707 C713 1.465 . S
C708 C703 1.399 . S
C708 C707 1.394 . S
C708 C709 1.516 . S
C709 C708 1.516 . S
C709 C710 1.502 . S
C709 C711 1.561 . S
C709 C712 1.526 . S
C710 H694 0.959 . S
C710 H695 0.959 . S
C710 H696 0.961 . S
C710 C709 1.502 . S
C711 H697 0.960 . S
C711 H698 0.961 . S
C711 H699 0.959 . S
C711 C709 1.561 . S
C712 C709 1.526 . S
C712 C713 1.396 . S
C712 C717 1.390 . S
C713 C707 1.465 . S
C713 C712 1.396 . S
C713 C714 1.399 . S
C714 H700 0.929 . S
C714 C713 1.399 . S
C714 C715 1.385 . S
C715 H701 0.931 . S
C715 C714 1.385 . S
C715 C716 1.389 . S
C716 C715 1.389 . S
C716 C717 1.387 . S
C717 H702 0.930 . S
C717 C712 1.390 . S
C717 C716 1.387 . S
H718 C730 0.930 . S
H719 C732 0.930 . S
H720 C733 0.930 . S
H721 C737 0.959 . S
H722 C737 0.959 . S
H723 C737 0.961 . S
H724 C738 0.960 . S
H725 C738 0.961 . S
H726 C738 0.959 . S
H727 C741 0.929 . S
H728 C742 0.931 . S
H729 C744 0.930 . S
C730 H718 0.930 . S
C730 C731 1.399 . S
C730 C735 1.399 . S
C731 C730 1.399 . S
C731 C732 1.376 . S
C732 H719 0.930 . S
C732 C731 1.376 . S
C732 C733 1.388 . S
C733 H720 0.930 . S
C733 C732 1.388 . S
C733 C734 1.390 . S
C734 C733 1.390 . S
C734 C735 1.394 . S
C734 C740 1.465 . S
C735 C730 1.399 . S
C735 C734 1.394 . S
C735 C736 1.516 . S
C736 C735 1.516 . S
C736 C737 1.502 . S
C736 C738 1.561 . S
C736 C739 1.526 . S
C737 H721 0.959 . S
C737 H722 0.959 . S
C737 H723 0.961 . S
C737 C736 1.502 . S
C738 H724 0.960 . S
C738 H725 0.961 . S
C738 H726 0.959 . S
C738 C736 1.561 . S
C739 C736 1.526 . S
C739 C740 1.396 . S
C739 C744 1.390 . S
C740 C734 1.465 . S
C740 C739 1.396 . S
C740 C741 1.399 . S
C741 H727 0.929 . S
C741 C740 1.399 . S
C741 C742 1.385 . S
C742 H728 0.931 . S
C742 C741 1.385 . S
C742 C743 1.389 . S
C743 C742 1.389 . S
C743 C744 1.387 . S
C744 H729 0.930 . S
C744 C739 1.390 . S
C744 C743 1.387 . S
H745 C757 0.930 . S
H746 C759 0.930 . S
H747 C760 0.930 . S
H748 C764 0.959 . S
H749 C764 0.959 . S
H750 C764 0.961 . S
H751 C765 0.960 . S
H752 C765 0.961 . S
H753 C765 0.959 . S
H754 C768 0.929 . S
H755 C769 0.931 . S
H756 C771 0.930 . S
C757 H745 0.930 . S
C757 C758 1.399 . S
C757 C762 1.399 . S
C758 C757 1.399 . S
C758 C759 1.376 . S
C759 H746 0.930 . S
C759 C758 1.376 . S
C759 C760 1.388 . S
C760 H747 0.930 . S
C760 C759 1.388 . S
C760 C761 1.390 . S
C761 C760 1.390 . S
C761 C762 1.394 . S
C761 C767 1.465 . S
C762 C757 1.399 . S
C762 C761 1.394 . S
C762 C763 1.516 . S
C763 C762 1.516 . S
C763 C764 1.502 . S
C763 C765 1.561 . S
C763 C766 1.526 . S
C764 H748 0.959 . S
C764 H749 0.959 . S
C764 H750 0.961 . S
C764 C763 1.502 . S
C765 H751 0.960 . S
C765 H752 0.961 . S
C765 H753 0.959 . S
C765 C763 1.561 . S
C766 C763 1.526 . S
C766 C767 1.396 . S
C766 C771 1.390 . S
C767 C761 1.465 . S
C767 C766 1.396 . S
C767 C768 1.399 . S
C768 H754 0.929 . S
C768 C767 1.399 . S
C768 C769 1.385 . S
C769 H755 0.931 . S
C769 C768 1.385 . S
C769 C770 1.389 . S
C770 C769 1.389 . S
C770 C771 1.387 . S
C771 H756 0.930 . S
C771 C766 1.390 . S
C771 C770 1.387 . S
H772 C784 0.930 . S
H773 C786 0.930 . S
H774 C787 0.930 . S
H775 C791 0.959 . S
H776 C791 0.959 . S
H777 C791 0.961 . S
H778 C792 0.960 . S
H779 C792 0.961 . S
H780 C792 0.959 . S
H781 C795 0.929 . S
H782 C796 0.931 1_455 S
H783 C798 0.930 . S
C784 H772 0.930 . S
C784 C785 1.399 . S
C784 C789 1.399 . S
C785 C784 1.399 . S
C785 C786 1.376 . S
C786 H773 0.930 . S
C786 C785 1.376 . S
C786 C787 1.388 . S
C787 H774 0.930 . S
C787 C786 1.388 . S
C787 C788 1.390 . S
C788 C787 1.390 . S
C788 C789 1.394 . S
C788 C794 1.465 . S
C789 C784 1.399 . S
C789 C788 1.394 . S
C789 C790 1.516 . S
C790 C789 1.516 . S
C790 C791 1.502 . S
C790 C792 1.561 . S
C790 C793 1.526 . S
C791 H775 0.959 . S
C791 H776 0.959 . S
C791 H777 0.961 . S
C791 C790 1.502 . S
C792 H778 0.960 . S
C792 H779 0.961 . S
C792 H780 0.959 . S
C792 C790 1.561 . S
C793 C790 1.526 . S
C793 C794 1.396 . S
C793 C798 1.390 . S
C794 C788 1.465 . S
C794 C793 1.396 . S
C794 C795 1.399 . S
C795 H781 0.929 . S
C795 C794 1.399 . S
C795 C796 1.385 . S
C796 H782 0.931 1_655 S
C796 C795 1.385 . S
C796 C797 1.389 . S
C797 C796 1.389 . S
C797 C798 1.387 . S
C798 H783 0.930 . S
C798 C793 1.390 . S
C798 C797 1.387 . S
H799 C811 0.930 . S
H800 C813 0.930 . S
H801 C814 0.930 . S
H802 C818 0.959 . S
H803 C818 0.959 . S
H804 C818 0.961 . S
H805 C819 0.960 . S
H806 C819 0.961 . S
H807 C819 0.959 . S
H808 C822 0.929 . S
H809 C823 0.931 . S
H810 C825 0.930 . S
C811 H799 0.930 . S
C811 C812 1.399 . S
C811 C816 1.399 . S
C812 C811 1.399 . S
C812 C813 1.376 . S
C813 H800 0.930 . S
C813 C812 1.376 . S
C813 C814 1.388 . S
C814 H801 0.930 . S
C814 C813 1.388 . S
C814 C815 1.390 . S
C815 C814 1.390 . S
C815 C816 1.394 . S
C815 C821 1.465 . S
C816 C811 1.399 . S
C816 C815 1.394 . S
C816 C817 1.516 . S
C817 C816 1.516 . S
C817 C818 1.502 . S
C817 C819 1.561 . S
C817 C820 1.526 . S
C818 H802 0.959 . S
C818 H803 0.959 . S
C818 H804 0.961 . S
C818 C817 1.502 . S
C819 H805 0.960 . S
C819 H806 0.961 . S
C819 H807 0.959 . S
C819 C817 1.561 . S
C820 C817 1.526 . S
C820 C821 1.396 . S
C820 C825 1.390 . S
C821 C815 1.465 . S
C821 C820 1.396 . S
C821 C822 1.399 . S
C822 H808 0.929 . S
C822 C821 1.399 . S
C822 C823 1.385 . S
C823 H809 0.931 . S
C823 C822 1.385 . S
C823 C824 1.389 . S
C824 C823 1.389 . S
C824 C825 1.387 . S
C825 H810 0.930 . S
C825 C820 1.390 . S
C825 C824 1.387 . S
H826 C838 0.930 . S
H827 C840 0.930 . S
H828 C841 0.930 . S
H829 C845 0.959 . S
H830 C845 0.959 . S
H831 C845 0.961 . S
H832 C846 0.960 . S
H833 C846 0.961 . S
H834 C846 0.959 . S
H835 C849 0.929 . S
H836 C850 0.931 . S
H837 C852 0.930 . S
C838 H826 0.930 . S
C838 C839 1.399 . S
C838 C843 1.399 . S
C839 C838 1.399 . S
C839 C840 1.376 . S
C840 H827 0.930 . S
C840 C839 1.376 . S
C840 C841 1.388 . S
C841 H828 0.930 . S
C841 C840 1.388 . S
C841 C842 1.390 . S
C842 C841 1.390 . S
C842 C843 1.394 . S
C842 C848 1.465 . S
C843 C838 1.399 . S
C843 C842 1.394 . S
C843 C844 1.516 . S
C844 C843 1.516 . S
C844 C845 1.502 . S
C844 C846 1.561 . S
C844 C847 1.526 . S
C845 H829 0.959 . S
C845 H830 0.959 . S
C845 H831 0.961 . S
C845 C844 1.502 . S
C846 H832 0.960 . S
C846 H833 0.961 . S
C846 H834 0.959 . S
C846 C844 1.561 . S
C847 C844 1.526 . S
C847 C848 1.396 . S
C847 C852 1.390 . S
C848 C842 1.465 . S
C848 C847 1.396 . S
C848 C849 1.399 . S
C849 H835 0.929 . S
C849 C848 1.399 . S
C849 C850 1.385 . S
C850 H836 0.931 . S
C850 C849 1.385 . S
C850 C851 1.389 . S
C851 C850 1.389 . S
C851 C852 1.387 . S
C852 H837 0.930 . S
C852 C847 1.390 . S
C852 C851 1.387 . S
H853 C865 0.930 . S
H854 C867 0.930 . S
H855 C868 0.930 . S
H856 C872 0.959 . S
H857 C872 0.959 . S
H858 C872 0.961 . S
H859 C873 0.960 . S
H860 C873 0.961 . S
H861 C873 0.959 . S
H862 C876 0.929 . S
H863 C877 0.931 . S
H864 C879 0.930 . S
C865 H853 0.930 . S
C865 C866 1.399 . S
C865 C870 1.399 . S
C866 C865 1.399 . S
C866 C867 1.376 . S
C867 H854 0.930 . S
C867 C866 1.376 . S
C867 C868 1.388 . S
C868 H855 0.930 . S
C868 C867 1.388 . S
C868 C869 1.390 . S
C869 C868 1.390 . S
C869 C870 1.394 . S
C869 C875 1.465 . S
C870 C865 1.399 . S
C870 C869 1.394 . S
C870 C871 1.516 . S
C871 C870 1.516 . S
C871 C872 1.502 . S
C871 C873 1.561 . S
C871 C874 1.526 . S
C872 H856 0.959 . S
C872 H857 0.959 . S
C872 H858 0.961 . S
C872 C871 1.502 . S
C873 H859 0.960 . S
C873 H860 0.961 . S
C873 H861 0.959 . S
C873 C871 1.561 . S
C874 C871 1.526 . S
C874 C875 1.396 . S
C874 C879 1.390 . S
C875 C869 1.465 . S
C875 C874 1.396 . S
C875 C876 1.399 . S
C876 H862 0.929 . S
C876 C875 1.399 . S
C876 C877 1.385 . S
C877 H863 0.931 . S
C877 C876 1.385 . S
C877 C878 1.389 . S
C878 C877 1.389 . S
C878 C879 1.387 . S
C879 H864 0.930 . S
C879 C874 1.390 . S
C879 C878 1.387 . S
C245 C6 1.750 . S
C257 C171 1.701 . S
C272 C21 1.740 . S
C284 C174 1.678 . S
C311 C210 1.162 . S
C299 C49 1.149 . S
C326 C68 1.426 . S
C338 C230 1.471 1_655 S
C365 C184 2.375 . S
C353 C2 2.356 . S
C392 C161 1.235 . S
C380 C30 1.100 . S
C419 C214 1.333 . S
C407 C40 1.409 . S
C446 C194 1.152 . S
C434 C63 1.386 . S
C461 C11 1.293 . S
C473 C224 1.400 . S
C500 C190 1.808 . S
C488 C44 1.846 . S
C515 C59 1.320 . S
C527 C156 1.352 . S
C542 C25 1.592 . S
C554 C204 1.528 . S
C581 C170 1.852 . S
C569 C82 1.864 . S
C596 C101 1.492 . S
C608 C176 1.468 . S
C623 C125 1.514 . S
C635 C211 1.599 . S
C650 C144 1.192 . S
C662 C231 1.210 . S
C677 C87 1.447 . S
C689 C181 1.464 1_556 S
C716 C164 2.199 . S
C704 C97 2.180 . S
C743 C216 1.322 . S
C731 C120 1.519 . S
C770 C196 1.203 . S
C758 C135 1.284 . S
C785 C78 1.716 . S
C797 C221 1.677 . S
C824 C191 1.352 . S
C812 C116 1.346 . S
C851 C154 1.817 . S
C839 C139 1.844 . S
C866 C106 1.111 . S
C878 C201 1.319 . S
