# Generated by pormake.
# Topology zzz, (3,6)-cn, num edge types: 1
# Building blocks:
#     Node 0, Type 0, BuildingBlock: BETDAH_clean_linker_0, # of connection points: 3
#     Node 1, Type 0, BuildingBlock: BETDAH_clean_linker_0, # of connection points: 3
#     Node 2, Type 0, BuildingBlock: BETDAH_clean_linker_0, # of connection points: 3
#     Node 3, Type 0, BuildingBlock: BETDAH_clean_linker_0, # of connection points: 3
#     Node 4, Type 0, BuildingBlock: BETDAH_clean_linker_0, # of connection points: 3
#     Node 5, Type 0, BuildingBlock: BETDAH_clean_linker_0, # of connection points: 3
#     Node 6, Type 0, BuildingBlock: BETDAH_clean_linker_0, # of connection points: 3
#     Node 7, Type 0, BuildingBlock: BETDAH_clean_linker_0, # of connection points: 3
#     Node 8, Type 1, BuildingBlock: GEDQOX_clean_sbu_0, # of connection points: 6
#     Node 9, Type 1, BuildingBlock: GEDQOX_clean_sbu_0, # of connection points: 6
#     Node 10, Type 1, BuildingBlock: GEDQOX_clean_sbu_0, # of connection points: 6
#     Node 11, Type 1, BuildingBlock: GEDQOX_clean_sbu_0, # of connection points: 6
#     Edge 12, Type (0, 1), BuildingBlock: MIFKUJ_clean_linker_0, # of connection points: 2
#     Edge 13, Type (0, 1), BuildingBlock: MIFKUJ_clean_linker_0, # of connection points: 2
#     Edge 14, Type (0, 1), BuildingBlock: MIFKUJ_clean_linker_0, # of connection points: 2
#     Edge 15, Type (0, 1), BuildingBlock: MIFKUJ_clean_linker_0, # of connection points: 2
#     Edge 16, Type (0, 1), BuildingBlock: MIFKUJ_clean_linker_0, # of connection points: 2
#     Edge 17, Type (0, 1), BuildingBlock: MIFKUJ_clean_linker_0, # of connection points: 2
#     Edge 18, Type (0, 1), BuildingBlock: MIFKUJ_clean_linker_0, # of connection points: 2
#     Edge 19, Type (0, 1), BuildingBlock: MIFKUJ_clean_linker_0, # of connection points: 2
#     Edge 20, Type (0, 1), BuildingBlock: MIFKUJ_clean_linker_0, # of connection points: 2
#     Edge 21, Type (0, 1), BuildingBlock: MIFKUJ_clean_linker_0, # of connection points: 2
#     Edge 22, Type (0, 1), BuildingBlock: MIFKUJ_clean_linker_0, # of connection points: 2
#     Edge 23, Type (0, 1), BuildingBlock: MIFKUJ_clean_linker_0, # of connection points: 2
#     Edge 24, Type (0, 1), BuildingBlock: MIFKUJ_clean_linker_0, # of connection points: 2
#     Edge 25, Type (0, 1), BuildingBlock: MIFKUJ_clean_linker_0, # of connection points: 2
#     Edge 26, Type (0, 1), BuildingBlock: MIFKUJ_clean_linker_0, # of connection points: 2
#     Edge 27, Type (0, 1), BuildingBlock: MIFKUJ_clean_linker_0, # of connection points: 2
#     Edge 28, Type (0, 1), BuildingBlock: MIFKUJ_clean_linker_0, # of connection points: 2
#     Edge 29, Type (0, 1), BuildingBlock: MIFKUJ_clean_linker_0, # of connection points: 2
#     Edge 30, Type (0, 1), BuildingBlock: MIFKUJ_clean_linker_0, # of connection points: 2
#     Edge 31, Type (0, 1), BuildingBlock: MIFKUJ_clean_linker_0, # of connection points: 2
#     Edge 32, Type (0, 1), BuildingBlock: MIFKUJ_clean_linker_0, # of connection points: 2
#     Edge 33, Type (0, 1), BuildingBlock: MIFKUJ_clean_linker_0, # of connection points: 2
#     Edge 34, Type (0, 1), BuildingBlock: MIFKUJ_clean_linker_0, # of connection points: 2
#     Edge 35, Type (0, 1), BuildingBlock: MIFKUJ_clean_linker_0, # of connection points: 2
# Relax obj value: 0.124
# Max RMSD: 0.173
# Mean RMSD: 0.093
data_MOF--net-zzz--node1-GEDQOX_clean_sbu_0--node2-BETDAH_clean_linker_0--edge1-MIFKUJ_clean_linker_0
_symmetry_space_group_name_H-M    P1
_symmetry_Int_Tables_number       1
_symmetry_cell_setting            triclinic
loop_
_symmetry_equiv_pos_as_xyz
'x, y, z'
_cell_length_a     69.836007
_cell_length_b     69.833445
_cell_length_c     21.3659
_cell_angle_alpha  80.987981
_cell_angle_beta   89.037444
_cell_angle_gamma 98.102225
loop_
_atom_site_label
_atom_site_type_symbol
_atom_site_fract_x
_atom_site_fract_y
_atom_site_fract_z
_atom_type_partial_charge
H0 H 0.82108 0.55933 0.10676 0.0
H1 H 0.76474 0.54202 0.03994 0.0
H2 H 0.77149 0.55023 0.23473 0.0
C3 C 0.80562 0.55612 0.1156 0.0
C4 C 0.7979 0.55544 0.1769 0.0
C5 C 0.79392 0.55108 0.06635 0.0
C6 C 0.7738 0.54621 0.07764 0.0
C7 C 0.76564 0.54643 0.13841 0.0
C8 C 0.7778 0.55067 0.18774 0.0
N9 N 0.74544 0.54184 0.153 0.0
C10 C 0.73102 0.53934 0.10967 0.0
H11 H 0.00705 0.80616 0.22974 0.0
H12 H 0.01391 0.75531 0.14645 0.0
H13 H 1.00125 0.74992 0.34809 0.0
C14 C 0.00712 0.79046 0.23509 0.0
C15 C 0.00365 0.77918 0.295 0.0
C16 C 0.01102 0.78209 0.18193 0.0
C17 C 0.01097 0.76174 0.1879 0.0
C18 C 0.00727 0.74991 0.24813 0.0
C19 C 0.00393 0.75885 0.30169 0.0
N20 N 0.00692 0.72917 0.25719 0.0
C21 C 0.00783 0.71755 0.20973 0.0
H22 H 0.68891 0.95971 0.16291 0.0
H23 H 0.74452 0.97136 0.06329 0.0
H24 H 0.74049 0.95919 0.26775 0.0
C25 C 0.70454 0.96062 0.16301 0.0
C26 C 0.71334 0.9581 0.22131 0.0
C27 C 0.71549 0.96526 0.10551 0.0
C28 C 0.73585 0.96765 0.10715 0.0
C29 C 0.74489 0.96538 0.16603 0.0
C30 C 0.73353 0.96079 0.22263 0.0
N31 N 0.76528 0.96791 0.1711 0.0
C32 C 0.77891 0.97007 0.12143 0.0
H33 H 0.47003 0.71966 0.39193 0.0
H34 H 0.4715 0.77955 0.305 0.0
H35 H 0.48072 0.76538 0.5054 0.0
C36 C 0.47146 0.73506 0.39626 0.0
C37 C 0.47524 0.74081 0.45511 0.0
C38 C 0.47021 0.74893 0.34232 0.0
C39 C 0.47252 0.76891 0.34707 0.0
C40 C 0.47619 0.77491 0.40639 0.0
C41 C 0.47766 0.76078 0.46 0.0
N42 N 0.47857 0.79493 0.41396 0.0
C43 C 0.47984 0.81043 0.3639 0.0
H44 H 0.19894 0.48466 0.60129 0.0
H45 H 0.25106 0.47426 0.69731 0.0
H46 H 0.24324 0.46155 0.50736 0.0
C47 C 0.2132 0.48015 0.60097 0.0
C48 C 0.21995 0.47357 0.5474 0.0
C49 C 0.22411 0.4801 0.65541 0.0
C50 C 0.24262 0.47438 0.6552 0.0
C51 C 0.24961 0.46775 0.60122 0.0
C52 C 0.23801 0.46698 0.5483 0.0
N53 N 0.2677 0.46077 0.59925 0.0
C54 C 0.28363 0.4665 0.63369 0.0
H55 H 0.99551 0.22622 0.49678 0.0
H56 H 0.00468 0.27666 0.5905 0.0
H57 H 0.01973 0.28198 0.39081 0.0
C58 C 0.99977 0.24188 0.49418 0.0
C59 C 0.00746 0.25298 0.43695 0.0
C60 C 0.99893 0.25016 0.54955 0.0
C61 C 0.0051 0.27033 0.54744 0.0
C62 C 0.01213 0.28208 0.48946 0.0
C63 C 0.01372 0.27316 0.43487 0.0
N64 N 0.01822 0.30269 0.48408 0.0
C65 C 0.01647 0.31439 0.53083 0.0
H66 H 0.32438 0.05688 0.58583 0.0
H67 H 0.26857 0.0617 0.66415 0.0
H68 H 0.2783 0.06867 0.46126 0.0
C69 C 0.30942 0.05901 0.5787 0.0
C70 C 0.3028 0.06247 0.51708 0.0
C71 C 0.29723 0.05877 0.63155 0.0
C72 C 0.27795 0.06186 0.62312 0.0
C73 C 0.27109 0.06542 0.56119 0.0
C74 C 0.28364 0.06593 0.50869 0.0
N75 N 0.25181 0.06876 0.54927 0.0
C76 C 0.23683 0.06605 0.59487 0.0
H77 H 0.52305 0.31248 0.34468 0.0
H78 H 0.54505 0.26024 0.42581 0.0
H79 H 0.54627 0.27726 0.22266 0.0
C80 C 0.52912 0.29944 0.33838 0.0
C81 C 0.53401 0.29648 0.27712 0.0
C82 C 0.53331 0.28665 0.39201 0.0
C83 C 0.54165 0.27001 0.38426 0.0
C84 C 0.54589 0.26633 0.32283 0.0
C85 C 0.54251 0.27987 0.26972 0.0
N86 N 0.55383 0.24936 0.313 0.0
C87 C 0.55292 0.23279 0.35905 0.0
Nd88 Nd 1.00175 0.01084 0.80525 0.0
Nd89 Nd 0.01599 0.02296 0.92663 0.0
C90 C 0.98608 0.9917 0.716 0.0
C91 C 0.98847 0.97404 0.68732 0.0
C92 C 0.97208 0.96074 0.6785 0.0
C93 C 0.97383 0.94434 0.64961 0.0
C94 C 0.99204 0.9408 0.62834 0.0
C95 C 0.00849 0.95404 0.63813 0.0
C96 C 0.00673 0.97043 0.66731 0.0
C97 C 0.04074 0.02443 0.802 0.0
C98 C 0.01528 0.97812 0.91832 0.0
C99 C 0.03161 0.04245 0.01511 0.0
C100 C 0.02979 0.06091 0.04049 0.0
C101 C 0.04044 0.07897 0.01265 0.0
C102 C 0.0392 0.09611 0.03825 0.0
C103 C 0.02733 0.0957 0.0926 0.0
C104 C 0.01661 0.07763 0.1201 0.0
C105 C 0.01788 0.0605 0.09461 0.0
C106 C 0.97707 0.00908 0.92999 0.0
C107 C 0.00195 0.05562 0.81492 0.0
O108 O 0.97908 0.9888 0.77442 0.0
O109 O 0.99988 0.00667 0.70456 0.0
O110 O 0.02954 0.02849 0.75558 0.0
O111 O 0.03155 0.01298 0.84751 0.0
O112 O 0.00345 0.98178 0.87185 0.0
O113 O 0.02535 0.99248 0.94242 0.0
O114 O 0.03938 0.04402 0.95803 0.0
O115 O 0.0171 0.02819 0.02658 0.0
O116 O 0.98837 0.00498 0.97615 0.0
O117 O 0.98614 0.02071 0.88461 0.0
O118 O 0.01404 0.05199 0.86058 0.0
O119 O 0.99198 0.04119 0.79081 0.0
H120 H 0.95785 0.96309 0.69379 0.0
H121 H 0.96084 0.93431 0.64455 0.0
H122 H 0.02275 0.95198 0.62224 0.0
H123 H 0.01968 0.98035 0.67366 0.0
H124 H 0.04993 0.07986 0.97136 0.0
H125 H 0.04791 0.10961 0.01611 0.0
H126 H 0.00708 0.07667 0.16131 0.0
H127 H 0.00956 0.04687 0.11765 0.0
Nd128 Nd 0.50643 0.00774 0.81098 0.0
Nd129 Nd 0.51498 0.03449 0.90444 0.0
C130 C 0.50685 0.9797 0.74157 0.0
C131 C 0.52196 0.97643 0.69747 0.0
C132 C 0.52355 0.9575 0.68604 0.0
C133 C 0.53905 0.95432 0.64843 0.0
C134 C 0.55319 0.97006 0.62188 0.0
C135 C 0.55123 0.98906 0.63263 0.0
C136 C 0.53585 0.99219 0.67036 0.0
C137 C 0.51161 0.04665 0.75809 0.0
C138 C 0.55192 0.02077 0.84833 0.0
C139 C 0.51321 0.06177 0.97589 0.0
C140 C 0.49696 0.06391 0.01761 0.0
C141 C 0.49427 0.08227 0.03213 0.0
C142 C 0.47807 0.08408 0.06921 0.0
C143 C 0.46445 0.06752 0.09238 0.0
C144 C 0.46719 0.04923 0.07714 0.0
C145 C 0.4832 0.04746 0.03988 0.0
C146 C 0.51021 0.9956 0.9562 0.0
C147 C 0.46977 0.02212 0.86602 0.0
O148 O 0.51135 0.97764 0.80118 0.0
O149 O 0.49858 0.99527 0.72418 0.0
O150 O 0.49852 0.03361 0.741 0.0
O151 O 0.52194 0.03898 0.79995 0.0
O152 O 0.53918 0.00762 0.82731 0.0
O153 O 0.54638 0.03535 0.87301 0.0
O154 O 0.50993 0.06451 0.91532 0.0
O155 O 0.52162 0.0463 0.99323 0.0
O156 O 0.52356 0.00856 0.97213 0.0
O157 O 0.49947 1.00324 0.91562 0.0
O158 O 0.48279 0.0356 0.88377 0.0
O159 O 0.4751 0.00691 0.84457 0.0
H160 H 0.51309 0.94514 0.70733 0.0
H161 H 0.54027 0.93948 0.64176 0.0
H162 H 0.56165 1.00156 0.6122 0.0
H163 H 0.53499 0.00691 0.67925 0.0
H164 H 0.5046 0.09515 0.0145 0.0
H165 H 0.47629 0.09835 0.08037 0.0
H166 H 0.45676 0.03629 0.09333 0.0
H167 H 0.48477 0.03322 0.02797 0.0
Nd168 Nd 0.49632 0.52086 0.9222 0.0
Nd169 Nd 0.52016 0.51763 0.80863 0.0
C170 C 0.47052 0.52972 0.00073 0.0
C171 C 0.46719 0.54812 0.02261 0.0
C172 C 0.45146 0.55745 0.00069 0.0
C173 C 0.44908 0.57565 0.01679 0.0
C174 C 0.46236 0.58486 0.05541 0.0
C175 C 0.47774 0.57521 0.07891 0.0
C176 C 0.48015 0.55707 0.0627 0.0
C177 C 0.53548 0.52862 0.93736 0.0
C178 C 0.50765 0.55903 0.80787 0.0
C179 C 0.54423 0.50586 0.73177 0.0
C180 C 0.54341 0.48558 0.7205 0.0
C181 C 0.55829 0.47953 0.68715 0.0
C182 C 0.55693 0.45995 0.67782 0.0
C183 C 0.54068 0.44626 0.70195 0.0
C184 C 0.5261 0.45241 0.73673 0.0
C185 C 0.52741 0.47186 0.74559 0.0
C186 C 0.48081 0.50911 0.79552 0.0
C187 C 0.51037 0.4798 0.92216 0.0
O188 O 0.46732 0.52873 0.94109 0.0
O189 O 0.48608 0.52241 0.01968 0.0
O190 O 0.52324 0.51927 0.98176 0.0
O191 O 0.52692 0.53457 0.8882 0.0
O192 O 0.49474 0.5494 0.85178 0.0
O193 O 0.52217 0.55083 0.78919 0.0
O194 O 0.54857 0.5085 0.78937 0.0
O195 O 0.52948 0.51441 0.71157 0.0
O196 O 0.49272 0.5188 0.75078 0.0
O197 O 0.48976 0.50343 0.84402 0.0
O198 O 0.52326 0.49009 0.87989 0.0
O199 O 0.49541 0.48749 0.94043 0.0
H200 H 0.44123 0.55087 0.96983 0.0
H201 H 0.43716 0.58274 0.99751 0.0
H202 H 0.48801 0.58173 0.10972 0.0
H203 H 0.49237 0.55026 0.08083 0.0
H204 H 0.5708 0.48991 0.66796 0.0
H205 H 0.56832 0.45565 0.65042 0.0
H206 H 0.51359 0.44218 0.75687 0.0
H207 H 0.51581 0.47624 0.77183 0.0
Nd208 Nd 0.01261 0.53183 0.78829 0.0
Nd209 Nd 0.01001 0.50349 0.91976 0.0
C210 C 0.00671 0.55852 0.69135 0.0
C211 C 0.9892 0.56418 0.66053 0.0
C212 C 0.97194 0.56354 0.69603 0.0
C213 C 0.95467 0.5659 0.66546 0.0
C214 C 0.95441 0.56903 0.59888 0.0
C215 C 0.97191 0.57048 0.56363 0.0
C216 C 0.98912 0.56804 0.59422 0.0
C217 C 0.01608 0.4934 0.78231 0.0
C218 C 0.96959 0.51298 0.85867 0.0
C219 C 0.01491 0.47291 0.00368 0.0
C220 C 0.0297 0.47014 0.05147 0.0
C221 C 0.03962 0.45391 0.05514 0.0
C222 C 0.05559 0.45258 0.09347 0.0
C223 C 0.06202 0.46754 0.12865 0.0
C224 C 0.0515 0.48339 0.12667 0.0
C225 C 0.03563 0.48475 0.08821 0.0
C226 C 0.01338 0.54199 0.94135 0.0
C227 C 0.05263 0.52547 0.85385 0.0
O228 O 0.00953 0.56252 0.7487 0.0
O229 O 0.0103 0.54103 0.68511 0.0
O230 O 0.02624 0.50832 0.74688 0.0
O231 O 0.0042 0.49902 0.81865 0.0
O232 O 0.97993 0.52554 0.81363 0.0
O233 O 0.97756 0.5015 0.9029 0.0
O234 O 0.0215 0.47544 0.94473 0.0
O235 O 0.00249 0.48476 0.01304 0.0
O236 O 0.01127 0.527 0.98652 0.0
O237 O 0.01322 0.53588 0.88897 0.0
O238 O 0.04271 0.51099 0.89402 0.0
O239 O 0.04432 0.53744 0.81238 0.0
H240 H 0.97164 0.56056 0.74735 0.0
H241 H 0.94147 0.5649 0.6939 0.0
H242 H 0.97218 0.57262 0.51229 0.0
H243 H 0.00225 0.5684 0.56602 0.0
H244 H 0.03545 0.44259 0.02656 0.0
H245 H 0.06329 0.44017 0.09356 0.0
H246 H 0.05567 0.49496 0.15425 0.0
H247 H 0.02837 0.49756 0.0859 0.0
H248 H 0.20643 0.08473 0.56839 0.0
H249 H 0.17498 0.07849 0.62548 0.0
H250 H 0.19601 0.03532 0.76443 0.0
H251 H 0.22754 0.04136 0.70581 0.0
H252 H 0.16197 0.02111 0.72756 0.0
H253 H 0.18628 0.07973 0.80276 0.0
H254 H 0.20206 0.11386 0.79736 0.0
H255 H 0.15721 0.13422 0.68087 0.0
H256 H 0.14129 0.10019 0.68475 0.0
H257 H 0.06775 0.01028 0.88131 0.0
H258 H 0.10315 0.01818 0.86722 0.0
H259 H 0.09671 0.05897 0.69776 0.0
H260 H 0.06152 0.05111 0.71141 0.0
H261 H 0.12533 0.07347 0.77435 0.0
H262 H 0.10501 0.01393 0.68597 0.0
H263 H 0.08925 0.97973 0.69268 0.0
H264 H 0.12722 0.96127 0.83898 0.0
H265 H 0.14303 0.99545 0.83369 0.0
C266 C 0.20438 0.07416 0.61175 0.0
C267 C 0.21924 0.06361 0.63335 0.0
C268 C 0.18646 0.07066 0.64456 0.0
C269 C 0.18316 0.05664 0.69997 0.0
C270 C 0.19824 0.04628 0.72209 0.0
C271 C 0.21621 0.04976 0.68892 0.0
C272 C 0.16351 0.05196 0.73136 0.0
C273 C 0.15415 0.03252 0.73932 0.0
C274 C 0.15315 0.06682 0.74623 0.0
C275 C 0.16264 0.08736 0.74381 0.0
C276 C 0.17984 0.09147 0.77562 0.0
C277 C 0.18881 0.1108 0.77288 0.0
C278 C 0.18066 0.12619 0.73873 0.0
C279 C 0.16351 0.12228 0.70732 0.0
C280 C 0.15449 0.10297 0.70987 0.0
C281 C 0.07394 0.02105 0.84143 0.0
C282 C 0.06195 0.02997 0.7971 0.0
C283 C 0.09412 0.02552 0.83341 0.0
C284 C 0.10254 0.03907 0.78122 0.0
C285 C 0.09052 0.0485 0.73839 0.0
C286 C 0.07043 0.04392 0.74605 0.0
C287 C 0.1238 0.04282 0.76854 0.0
C288 C 0.13339 0.06207 0.76403 0.0
C289 C 0.1344 0.02779 0.75727 0.0
C290 C 0.12503 0.00725 0.75999 0.0
C291 C 0.10989 1.0026 0.7199 0.0
C292 C 0.10097 0.98322 0.72339 0.0
C293 C 0.10719 0.96834 0.76638 0.0
C294 C 0.12239 0.97281 0.80581 0.0
C295 C 0.13134 0.99218 0.80257 0.0
H296 H 0.10026 0.95335 0.76902 0.0
H297 H 0.18763 0.14115 0.73666 0.0
H298 H 0.52554 0.22176 0.45265 0.0
H299 H 0.52069 0.1908 0.52729 0.0
H300 H 0.57094 0.17348 0.44349 0.0
H301 H 0.57555 0.20437 0.36828 0.0
H302 H 0.54169 0.1446 0.45593 0.0
H303 H 0.57217 0.1871 0.59065 0.0
H304 H 0.57724 0.21638 0.64297 0.0
H305 H 0.52103 0.19999 0.73607 0.0
H306 H 0.51549 0.17075 0.68359 0.0
H307 H 0.54194 0.07431 0.77562 0.0
H308 H 0.55079 0.10703 0.71284 0.0
H309 H 0.50037 0.09733 0.60164 0.0
H310 H 0.49161 0.06459 0.66355 0.0
H311 H 0.53336 0.13961 0.68935 0.0
H312 H 0.51228 0.11631 0.44818 0.0
H313 H 0.50992 0.0868 0.39696 0.0
H314 H 0.5529 0.06466 0.51837 0.0
H315 H 0.55571 0.09416 0.56964 0.0
C316 C 0.5356 0.21136 0.45088 0.0
C317 C 0.55092 0.21524 0.40543 0.0
C318 C 0.5329 0.19376 0.49352 0.0
C319 C 0.54555 0.17988 0.49136 0.0
C320 C 0.56102 0.18397 0.44606 0.0
C321 C 0.56369 0.20157 0.40339 0.0
C322 C 0.54207 0.16072 0.53418 0.0
C323 C 0.53992 0.14354 0.50697 0.0
C324 C 0.54007 0.15928 0.60089 0.0
C325 C 0.54335 0.17682 0.63273 0.0
C326 C 0.56082 0.18982 0.62189 0.0
C327 C 0.56379 0.20639 0.65165 0.0
C328 C 0.54945 0.21007 0.6927 0.0
C329 C 0.53212 0.19714 0.70421 0.0
C330 C 0.52907 0.18055 0.67452 0.0
C331 C 0.53271 0.07923 0.73797 0.0
C332 C 0.51624 0.06687 0.7238 0.0
C333 C 0.53774 0.09792 0.70234 0.0
C334 C 0.5264 0.10448 0.65198 0.0
C335 C 0.50951 0.09242 0.63956 0.0
C336 C 0.50451 0.07375 0.67501 0.0
C337 C 0.53255 0.12362 0.61083 0.0
C338 C 0.53518 0.14073 0.63832 0.0
C339 C 0.53539 0.12502 0.54443 0.0
C340 C 0.53406 0.10737 0.5131 0.0
C341 C 0.52129 0.10519 0.46372 0.0
C342 C 0.51986 0.08846 0.43472 0.0
C343 C 0.53121 0.07384 0.45453 0.0
C344 C 0.54407 0.07596 0.50321 0.0
C345 C 0.54557 0.09268 0.5323 0.0
H346 H 0.53007 0.06089 0.43208 0.0
H347 H 0.55177 0.22291 0.71569 0.0
H348 H 0.29267 0.46677 0.75714 0.0
H349 H 0.3255 0.47292 0.79743 0.0
H350 H 0.34949 0.48295 0.60561 0.0
H351 H 0.31689 0.47672 0.56589 0.0
H352 H 0.36861 0.45848 0.68215 0.0
H353 H 0.34634 0.52072 0.68699 0.0
H354 H 0.32436 0.54252 0.7187 0.0
H355 H 0.33495 0.52398 0.91472 0.0
H356 H 0.35681 0.50185 0.88416 0.0
H357 H 0.46158 0.51262 0.68589 0.0
H358 H 0.42695 0.5036 0.67203 0.0
H359 H 0.41786 0.48512 0.87381 0.0
H360 H 0.45277 0.49368 0.88791 0.0
H361 H 0.39049 0.51072 0.8088 0.0
H362 H 0.41523 0.45071 0.80254 0.0
H363 H 0.43787 0.42976 0.7695 0.0
H364 H 0.42282 0.44447 0.57562 0.0
H365 H 0.4003 0.46579 0.60739 0.0
C366 C 0.30502 0.4705 0.72393 0.0
C367 C 0.30246 0.47143 0.65862 0.0
C368 C 0.32371 0.474 0.7468 0.0
C369 C 0.33998 0.47843 0.70449 0.0
C370 C 0.33721 0.47949 0.63916 0.0
C371 C 0.31862 0.47606 0.61648 0.0
C372 C 0.36001 0.4816 0.72746 0.0
C373 C 0.37337 0.46997 0.70961 0.0
C374 C 0.36615 0.49618 0.76494 0.0
C375 C 0.353 0.50944 0.78334 0.0
C376 C 0.34384 0.52115 0.73688 0.0
C377 C 0.33143 0.5336 0.75464 0.0
C378 C 0.32821 0.53458 0.8187 0.0
C379 C 0.33743 0.52316 0.86513 0.0
C380 C 0.34983 0.51067 0.84762 0.0
C381 C 0.45223 0.50662 0.72733 0.0
C382 C 0.45984 0.50378 0.78794 0.0
C383 C 0.43247 0.50148 0.71935 0.0
C384 C 0.41989 0.49368 0.77188 0.0
C385 C 0.42736 0.49115 0.83273 0.0
C386 C 0.44725 0.49596 0.84065 0.0
C387 C 0.39903 0.48792 0.76209 0.0
C388 C 0.38557 0.49903 0.78229 0.0
C389 C 0.39276 0.47287 0.72673 0.0
C390 C 0.4062 0.46 0.70731 0.0
C391 C 0.41687 0.44963 0.75278 0.0
C392 C 0.42966 0.43766 0.7343 0.0
C393 C 0.43181 0.43582 0.67048 0.0
C394 C 0.42115 0.44592 0.62503 0.0
C395 C 0.40835 0.45794 0.64327 0.0
H396 H 0.44172 0.42654 0.65625 0.0
H397 H 0.31861 0.54424 0.83235 0.0
H398 H 0.98766 0.31923 0.61226 0.0
H399 H 0.98668 0.34711 0.66936 0.0
H400 H 0.04363 0.37252 0.59107 0.0
H401 H 0.0447 0.34451 0.53548 0.0
H402 H 0.04125 0.3784 0.7088 0.0
H403 H 1.00071 0.38773 0.52959 0.0
H404 H 0.97376 0.3789 0.46151 0.0
H405 H 0.93307 0.37489 0.61761 0.0
H406 H 0.95982 0.38347 0.68685 0.0
H407 H 0.04269 0.47974 0.71356 0.0
H408 H 0.04171 0.44706 0.68537 0.0
H409 H 0.98795 0.42789 0.79395 0.0
H410 H 0.98893 0.46083 0.82271 0.0
H411 H 0.98677 0.41688 0.67384 0.0
H412 H 0.02821 0.41208 0.84902 0.0
H413 H 0.0557 0.42319 0.91181 0.0
H414 H 0.09539 0.42018 0.75921 0.0
H415 H 0.06812 0.40939 0.69499 0.0
C416 C 1.00004 0.33067 0.60816 0.0
C417 C 0.01629 0.32973 0.56981 0.0
C418 C 0.99944 0.34669 0.64037 0.0
C419 C 0.01499 0.36223 0.63411 0.0
C420 C 0.03144 0.36085 0.59705 0.0
C421 C 0.03205 0.34483 0.56517 0.0
C422 C 0.01402 0.38021 0.66396 0.0
C423 C 0.02937 0.38683 0.70075 0.0
C424 C 0.99836 0.39118 0.65503 0.0
C425 C 0.98227 0.386 0.61356 0.0
C426 C 0.98602 0.38481 0.54951 0.0
C427 C 0.97078 0.37988 0.5107 0.0
C428 C 0.95172 0.37627 0.53528 0.0
C429 C 0.94785 0.37764 0.59868 0.0
C430 C 0.96304 0.38255 0.63772 0.0
C431 C 0.03073 0.46854 0.73203 0.0
C432 C 0.01589 0.47291 0.77043 0.0
C433 C 0.03021 0.4498 0.71595 0.0
C434 C 0.01481 0.43487 0.73767 0.0
C435 C 1.0 0.43912 0.77657 0.0
C436 C 1.00062 0.45791 0.79328 0.0
C437 C 0.01409 0.41513 0.71778 0.0
C438 C 0.99848 0.40825 0.68271 0.0
C439 C 0.02958 0.40402 0.72788 0.0
C440 C 0.04608 0.41004 0.76698 0.0
C441 C 0.04279 0.41388 0.82868 0.0
C442 C 0.05834 0.42013 0.86455 0.0
C443 C 0.07728 0.42243 0.83947 0.0
C444 C 0.08071 0.41841 0.77856 0.0
C445 C 0.06521 0.4122 0.74242 0.0
H446 H 0.08929 0.42729 0.86726 0.0
H447 H 0.93994 0.37246 0.50515 0.0
H448 H 0.80553 0.94601 0.13444 0.0
H449 H 0.83803 0.95223 0.08383 0.0
H450 H 0.82405 0.00483 0.97065 0.0
H451 H 0.7914 0.99867 0.0221 0.0
H452 H 0.84981 0.97913 0.90855 0.0
H453 H 0.84428 0.0144 0.08531 0.0
H454 H 0.83412 0.01684 0.19453 0.0
H455 H 0.86845 0.97262 0.26789 0.0
H456 H 0.87856 0.9697 0.15894 0.0
H457 H 0.94968 0.02419 0.85424 0.0
H458 H 0.91438 0.01693 0.87171 0.0
H459 H 0.92157 0.97421 0.03567 0.0
H460 H 0.95665 0.9818 0.01944 0.0
H461 H 0.89805 0.99724 0.06506 0.0
H462 H 0.90438 0.96156 0.89314 0.0
H463 H 0.91445 0.95718 0.78575 0.0
H464 H 0.87918 0.99955 0.70424 0.0
H465 H 0.86914 0.00443 0.81123 0.0
C466 C 0.80923 0.95856 0.09735 0.0
C467 C 0.79614 0.97184 0.08165 0.0
C468 C 0.82775 0.9621 0.06855 0.0
C469 C 0.83341 0.97899 0.02366 0.0
C470 C 0.81986 0.99164 0.00482 0.0
C471 C 0.8013 0.98815 0.03415 0.0
C472 C 0.85412 0.98463 0.00398 0.0
C473 C 0.8604 0.9834 0.94221 0.0
C474 C 0.86788 0.9898 0.04847 0.0
C475 C 0.86201 0.9917 0.114 0.0
C476 C 0.84952 0.00508 0.12472 0.0
C477 C 0.8438 0.00657 0.18657 0.0
C478 C 0.85059 0.99486 0.23812 0.0
C479 C 0.86318 0.98167 0.22791 0.0
C480 C 0.86892 0.9801 0.16613 0.0
C481 C 0.94365 0.01312 0.89358 0.0
C482 C 0.95585 1.00366 0.93586 0.0
C483 C 0.9235 0.00892 0.90338 0.0
C484 C 0.91528 0.99499 0.95502 0.0
C485 C 0.92754 0.9851 0.99579 0.0
C486 C 0.94759 0.98943 0.98643 0.0
C487 C 0.89405 0.99145 0.96956 0.0
C488 C 0.88759 0.99312 0.03077 0.0
C489 C 0.88026 0.98652 0.92456 0.0
C490 C 0.88618 0.98353 0.86021 0.0
C491 C 0.8989 0.97007 0.85232 0.0
C492 C 0.90458 0.96748 0.79152 0.0
C493 C 0.8975 0.97813 0.73821 0.0
C494 C 0.88468 0.99134 0.74559 0.0
C495 C 0.87898 0.99402 0.8063 0.0
H496 H 0.90192 0.9761 0.69117 0.0
H497 H 0.84615 0.99603 0.28598 0.0
H498 H 0.4515 0.8292 0.31023 0.0
H499 H 0.45583 0.85958 0.23246 0.0
H500 H 0.51769 0.85978 0.23035 0.0
H501 H 0.5133 0.82956 0.30836 0.0
H502 H 0.50785 0.89469 0.24859 0.0
H503 H 0.49103 0.84845 0.10523 0.0
H504 H 0.47036 0.82151 0.06631 0.0
H505 H 0.42378 0.85583 0.04548 0.0
H506 H 0.44409 0.88289 0.08513 0.0
H507 H 0.53673 0.97386 0.008 0.0
H508 H 0.53095 0.94077 0.06868 0.0
H509 H 0.46956 0.93877 0.04211 0.0
H510 H 0.47559 0.97147 0.97735 0.0
H511 H 0.47797 0.90454 0.03914 0.0
H512 H 0.49288 0.95003 0.18385 0.0
H513 H 0.51194 0.97716 0.22693 0.0
H514 H 0.55984 0.94466 0.25134 0.0
H515 H 0.54114 0.91743 0.20769 0.0
C516 C 0.46595 0.83569 0.29231 0.0
C517 C 0.4821 0.82726 0.31459 0.0
C518 C 0.46842 0.85294 0.24791 0.0
C519 C 0.48709 0.86187 0.22533 0.0
C520 C 0.50318 0.85312 0.24709 0.0
C521 C 0.50069 0.8359 0.29136 0.0
C522 C 0.49004 0.88095 0.18215 0.0
C523 C 0.50155 0.89678 0.20237 0.0
C524 C 0.48119 0.88385 0.12299 0.0
C525 C 0.46903 0.86763 0.09872 0.0
C526 C 0.47633 0.8502 0.09282 0.0
C527 C 0.46469 0.83492 0.07053 0.0
C528 C 0.44575 0.83694 0.05358 0.0
C529 C 0.43844 0.85428 0.0587 0.0
C530 C 0.45002 0.8696 0.08101 0.0
C531 C 0.52204 0.96624 0.0147 0.0
C532 C 0.50657 0.97519 0.98882 0.0
C533 C 0.5187 0.9474 0.04977 0.0
C534 C 0.49974 0.93746 0.06193 0.0
C535 C 0.48431 0.94615 0.03392 0.0
C536 C 0.48773 0.96483 0.99709 0.0
C537 C 0.49604 0.9183 0.10519 0.0
C538 C 0.48431 0.90248 0.08528 0.0
C539 C 0.50443 0.91545 0.16532 0.0
C540 C 0.51566 0.93176 0.19201 0.0
C541 C 0.50751 0.94872 0.19809 0.0
C542 C 0.51825 0.96411 0.22264 0.0
C543 C 0.5371 0.96265 0.24174 0.0
C544 C 0.54524 0.94577 0.23649 0.0
C545 C 0.53457 0.93035 0.21191 0.0
H546 H 0.54539 0.97458 0.26071 0.0
H547 H 0.43676 0.82509 0.03635 0.0
H548 H 0.72384 0.55655 0.99079 0.0
H549 H 0.69227 0.55416 0.9406 0.0
H550 H 0.66692 0.51415 0.10537 0.0
H551 H 0.69841 0.5162 0.1542 0.0
H552 H 0.65206 0.50271 0.00305 0.0
H553 H 0.66454 0.5648 0.08207 0.0
H554 H 0.68281 0.59733 0.08813 0.0
H555 H 0.67635 0.61524 0.88891 0.0
H556 H 0.65822 0.58271 0.8816 0.0
H557 H 0.555 0.51383 0.03787 0.0
H558 H 0.58994 0.51558 0.04729 0.0
H559 H 0.59902 0.54928 0.8593 0.0
H560 H 0.56377 0.54759 0.84957 0.0
H561 H 0.62364 0.56417 0.94869 0.0
H562 H 0.60496 0.50328 0.8775 0.0
H563 H 0.5846 0.47142 0.87771 0.0
H564 H 0.60162 0.45122 0.06595 0.0
H565 H 0.62176 0.48312 0.06749 0.0
C566 C 0.71153 0.547 0.01538 0.0
C567 C 0.71337 0.53648 0.07596 0.0
C568 C 0.69351 0.54572 0.98704 0.0
C569 C 0.6771 0.53415 0.01951 0.0
C570 C 0.67929 0.52312 0.07919 0.0
C571 C 0.69726 0.52431 0.10714 0.0
C572 C 0.65737 0.5342 0.994 0.0
C573 C 0.64587 0.51616 0.99117 0.0
C574 C 0.64935 0.55176 0.97672 0.0
C575 C 0.66026 0.57127 0.98113 0.0
C576 C 0.66715 0.57563 0.03948 0.0
C577 C 0.67745 0.59407 0.04317 0.0
C578 C 0.6808 0.60832 0.98889 0.0
C579 C 0.67379 0.60417 0.93087 0.0
C580 C 0.6635 0.58575 0.92693 0.0
C581 C 0.56441 0.52168 0.99854 0.0
C582 C 0.55669 0.53056 0.94296 0.0
C583 C 0.58438 0.52259 0.00389 0.0
C584 C 0.59707 0.53233 0.95368 0.0
C585 C 0.58945 0.54162 0.89847 0.0
C586 C 0.56937 0.54064 0.89296 0.0
C587 C 0.61826 0.53269 0.95991 0.0
C588 C 0.62999 0.55077 0.95906 0.0
C589 C 0.62644 0.51516 0.97419 0.0
C590 C 0.61484 0.49568 0.97271 0.0
C591 C 0.60431 0.49209 0.9191 0.0
C592 C 0.59278 0.47402 0.9189 0.0
C593 C 0.5918 0.45932 0.97183 0.0
C594 C 0.6024 0.46263 0.02497 0.0
C595 C 0.61389 0.48071 0.02551 0.0
H596 H 0.58285 0.44535 0.97166 0.0
H597 H 0.68877 0.62259 0.99184 0.0
H598 H 0.03912 0.70688 0.15446 0.0
H599 H 0.03957 0.67881 0.09816 0.0
H600 H 0.97734 0.66583 0.12037 0.0
H601 H 0.977 0.69374 0.17725 0.0
H602 H 0.99257 0.63348 0.15268 0.0
H603 H 1.00109 0.68486 0.97377 0.0
H604 H 0.01616 0.71591 0.90934 0.0
H605 H 0.07007 0.6933 0.90111 0.0
H606 H 0.05538 0.66218 0.96627 0.0
H607 H 0.98122 0.55728 0.96865 0.0
H608 H 0.97958 0.58892 0.00315 0.0
H609 H 0.04167 0.60333 0.97823 0.0
H610 H 0.04312 0.57186 0.94157 0.0
H611 H 0.02604 0.63542 0.94473 0.0
H612 H 0.01755 0.5844 0.12677 0.0
H613 H 0.00235 0.55347 0.19173 0.0
H614 H 0.94816 0.57577 0.19499 0.0
H615 H 0.96295 0.60671 0.1291 0.0
C616 C 0.02554 0.69822 0.14615 0.0
C617 C 0.00801 0.70256 0.16942 0.0
C618 C 0.02578 0.68216 0.11392 0.0
C619 C 0.00846 0.67013 0.1043 0.0
C620 C 0.99091 0.67478 0.12691 0.0
C621 C 0.99069 0.69083 0.15904 0.0
C622 C 0.00868 0.65215 0.07391 0.0
C623 C 0.99963 0.63401 0.10669 0.0
C624 C 0.01829 0.65257 0.01459 0.0
C625 C 0.02718 0.67126 0.97545 0.0
C626 C 0.0162 0.68656 0.95868 0.0
C627 C 0.02467 0.70416 0.92194 0.0
C628 C 0.04408 0.70659 0.90129 0.0
C629 C 0.05505 0.6914 0.91722 0.0
C630 C 0.04665 0.67377 0.95401 0.0
C631 C 0.99444 0.56744 0.9692 0.0
C632 C 0.01226 0.56228 0.95181 0.0
C633 C 0.99354 0.58545 0.98964 0.0
C634 C 0.01055 0.59851 0.99487 0.0
C635 C 0.02832 0.59362 0.97495 0.0
C636 C 0.02917 0.57566 0.95379 0.0
C637 C 0.00988 0.61677 0.02348 0.0
C638 C 0.0189 0.63493 0.99056 0.0
C639 C 1.00023 0.6164 0.08279 0.0
C640 C 0.99132 0.59779 0.12243 0.0
C641 C 0.00235 0.58265 0.14091 0.0
C642 C 0.99381 0.56512 0.17792 0.0
C643 C 0.97428 0.56263 0.19727 0.0
C644 C 0.96326 0.57769 0.17978 0.0
C645 C 0.97172 0.59523 0.14262 0.0
H646 H 0.9677 0.54905 0.22597 0.0
H647 H 0.05061 0.72023 0.87283 0.0
H648 H 0.02336 0.24059 0.6423 0.0
H649 H 0.02085 0.20798 0.70614 0.0
H650 H 0.96217 0.19446 0.64943 0.0
H651 H 0.96466 0.22711 0.58579 0.0
H652 H 0.96891 0.17345 0.77021 0.0
H653 H 0.99454 0.1848 0.55488 0.0
H654 H 0.01562 0.20152 0.46292 0.0
H655 H 0.06596 0.19119 0.56837 0.0
H656 H 0.04515 0.17426 0.66086 0.0
H657 H 0.97115 0.07031 0.75579 0.0
H658 H 0.96758 0.10508 0.72486 0.0
H659 H 0.02424 0.1221 0.79286 0.0
H660 H 0.02778 0.08773 0.82463 0.0
H661 H 0.01696 0.14106 0.66724 0.0
H662 H 0.9889 0.1264 0.88118 0.0
H663 H 0.96609 0.1078 0.9658 0.0
H664 H 0.91809 0.12325 0.85547 0.0
H665 H 0.94066 0.14173 0.76974 0.0
C666 C 0.00954 0.23113 0.64678 0.0
C667 C 0.99421 0.2363 0.60921 0.0
C668 C 0.0082 0.21238 0.68252 0.0
C669 C 0.99149 0.19866 0.68107 0.0
C670 C 0.97521 0.20479 0.65094 0.0
C671 C 0.97658 0.22352 0.61507 0.0
C672 C 0.99228 0.17744 0.70019 0.0
C673 C 0.97933 0.16632 0.74755 0.0
C674 C 0.00573 0.16809 0.67006 0.0
C675 C 0.01831 0.17847 0.61496 0.0
C676 C 0.0101 0.18623 0.5586 0.0
C677 C 0.02199 0.19569 0.50633 0.0
C678 C 0.0421 0.19754 0.50994 0.0
C679 C 0.05037 0.1898 0.5657 0.0
C680 C 0.03855 0.18021 0.61798 0.0
C681 C 0.98284 0.0815 0.76377 0.0
C682 C 0.99973 0.07631 0.79258 0.0
C683 C 0.98074 0.1013 0.74652 0.0
C684 C 0.99562 0.1161 0.75699 0.0
C685 C 0.01259 0.1109 0.78457 0.0
C686 C 0.01455 0.09123 0.80272 0.0
C687 C 0.9939 0.13711 0.73824 0.0
C688 C 0.00661 0.14818 0.69031 0.0
C689 C 0.98002 0.14623 0.76713 0.0
C690 C 0.96646 0.13525 0.81876 0.0
C691 C 0.97348 0.12568 0.87471 0.0
C692 C 0.9606 0.11519 0.92293 0.0
C693 C 0.94065 0.1143 0.91594 0.0
C694 C 0.93355 0.12394 0.86078 0.0
C695 C 0.94638 0.13443 0.81238 0.0
H696 H 0.93069 0.10617 0.95332 0.0
H697 H 0.05127 0.20489 0.46944 0.0
H698 H 0.30085 0.02419 0.70415 0.0
H699 H 0.3265 0.01933 0.77898 0.0
H700 H 0.34038 0.08194 0.76937 0.0
H701 H 0.31471 0.08672 0.69425 0.0
H702 H 0.36956 0.06658 0.72506 0.0
H703 H 0.33025 0.05322 0.91329 0.0
H704 H 0.30255 0.03845 0.98635 0.0
H705 H 0.31806 0.98124 0.98333 0.0
H706 H 0.34573 0.99563 0.9096 0.0
H707 H 0.45503 0.05439 0.89094 0.0
H708 H 0.42183 0.06116 0.87937 0.0
H709 H 0.40453 1.0036 0.83219 0.0
H710 H 0.43794 0.99672 0.84244 0.0
H711 H 0.37705 0.01952 0.91955 0.0
H712 H 0.41268 0.03386 0.71495 0.0
H713 H 0.4405 0.04934 0.64318 0.0
H714 H 0.43118 0.10609 0.68 0.0
H715 H 0.40346 0.09088 0.75283 0.0
C716 C 0.30862 0.03681 0.72113 0.0
C717 C 0.30576 0.05579 0.69427 0.0
C718 C 0.32335 0.03405 0.7637 0.0
C719 C 0.33546 0.05028 0.77954 0.0
C720 C 0.33119 0.06921 0.7579 0.0
C721 C 0.31642 0.07195 0.71551 0.0
C722 C 0.35462 0.04763 0.80592 0.0
C723 C 0.37114 0.05667 0.76855 0.0
C724 C 0.35675 0.03432 0.86171 0.0
C725 C 0.33998 0.02551 0.90541 0.0
C726 C 0.32764 0.03746 0.92765 0.0
C727 C 0.31198 0.02916 0.96936 0.0
C728 C 0.30852 0.00891 0.98935 0.0
C729 C 0.32075 0.99692 0.96777 0.0
C730 C 0.33645 0.00515 0.9261 0.0
C731 C 0.44416 0.04301 0.87892 0.0
C732 C 0.44919 0.02507 0.86675 0.0
C733 C 0.42518 0.04692 0.87262 0.0
C734 C 0.41082 0.0329 0.85484 0.0
C735 C 0.41547 0.01455 0.84628 0.0
C736 C 0.43456 0.0107 0.85173 0.0
C737 C 0.3916 0.03826 0.83807 0.0
C738 C 0.37527 0.02968 0.87688 0.0
C739 C 0.38954 0.05207 0.78368 0.0
C740 C 0.40621 0.06122 0.74005 0.0
C741 C 0.41671 0.04962 0.70833 0.0
C742 C 0.43243 0.05835 0.66734 0.0
C743 C 0.43766 0.07868 0.65726 0.0
C744 C 0.42715 0.09034 0.68802 0.0
C745 C 0.41144 0.08167 0.72916 0.0
H746 H 0.44983 0.08541 0.62548 0.0
H747 H 0.29638 1.00251 0.02165 0.0
H748 H 0.50028 0.29378 0.44731 0.0
H749 H 0.49877 0.31473 0.52835 0.0
H750 H 0.5599 0.31538 0.55549 0.0
H751 H 0.56135 0.29407 0.47517 0.0
H752 H 0.5381 0.32104 0.66706 0.0
H753 H 0.54835 0.34642 0.44159 0.0
H754 H 0.53987 0.34789 0.32959 0.0
H755 H 0.48476 0.36422 0.3729 0.0
H756 H 0.49267 0.36227 0.48571 0.0
H757 H 0.56794 0.42139 0.70555 0.0
H758 H 0.56393 0.38847 0.67638 0.0
H759 H 0.50397 0.39234 0.63912 0.0
H760 H 0.50791 0.42519 0.6669 0.0
H761 H 0.52353 0.38283 0.5403 0.0
H762 H 0.51434 0.36177 0.7628 0.0
H763 H 0.52219 0.36036 0.87532 0.0
H764 H 0.57427 0.33697 0.83997 0.0
H765 H 0.56688 0.3385 0.72692 0.0
C766 C 0.51316 0.29759 0.47294 0.0
C767 C 0.53096 0.29253 0.45483 0.0
C768 C 0.5123 0.30957 0.5191 0.0
C769 C 0.52931 0.31693 0.54679 0.0
C770 C 0.54662 0.30987 0.53459 0.0
C771 C 0.54744 0.29769 0.48875 0.0
C772 C 0.52988 0.33485 0.57614 0.0
C773 C 0.53501 0.33459 0.63951 0.0
C774 C 0.52563 0.35246 0.54017 0.0
C775 C 0.52102 0.35399 0.47217 0.0
C776 C 0.53438 0.35022 0.42731 0.0
C777 C 0.52971 0.35123 0.36364 0.0
C778 C 0.51183 0.35623 0.34406 0.0
C779 C 0.4986 0.36032 0.38814 0.0
C780 C 0.50315 0.35925 0.45196 0.0
C781 C 0.5539 0.41516 0.69133 0.0
C782 C 0.53827 0.4259 0.68827 0.0
C783 C 0.55158 0.3963 0.67541 0.0
C784 C 0.53362 0.38796 0.65601 0.0
C785 C 0.51792 0.39849 0.65428 0.0
C786 C 0.52019 0.41723 0.67041 0.0
C787 C 0.5316 0.36912 0.63155 0.0
C788 C 0.52638 0.36926 0.56849 0.0
C789 C 0.53571 0.35154 0.66803 0.0
C790 C 0.54015 0.35042 0.73614 0.0
C791 C 0.52756 0.35648 0.77883 0.0
C792 C 0.53191 0.35563 0.84276 0.0
C793 C 0.54875 0.34864 0.86473 0.0
C794 C 0.56124 0.34241 0.82285 0.0
C795 C 0.55697 0.34324 0.75884 0.0
H796 H 0.55209 0.348 0.91424 0.0
H797 H 0.50823 0.35693 0.29476 0.0
H798 H 0.19511 0.45728 0.72709 0.0
H799 H 0.17122 0.46886 0.79056 0.0
H800 H 0.20726 0.52512 0.77433 0.0
H801 H 0.23087 0.51362 0.70774 0.0
H802 H 0.16341 0.48382 0.88779 0.0
H803 H 0.17965 0.56069 0.73811 0.0
H804 H 0.19658 0.57695 0.63722 0.0
H805 H 0.18636 0.52298 0.56226 0.0
H806 H 0.16917 0.50652 0.66227 0.0
H807 H 0.07767 0.52273 0.95081 0.0
H808 H 0.11224 0.52006 0.94272 0.0
H809 H 0.10875 0.5246 0.73918 0.0
H810 H 0.07497 0.52921 0.74722 0.0
H811 H 0.14075 0.5404 0.75484 0.0
H812 H 0.10582 0.47807 0.86062 0.0
H813 H 0.0861 0.45534 0.94542 0.0
H814 H 0.12741 0.47089 0.08222 0.0
H815 H 0.14727 0.49386 0.99832 0.0
C816 C 0.1983 0.47183 0.73949 0.0
C817 C 0.2147 0.48462 0.71253 0.0
C818 C 0.18462 0.47849 0.77578 0.0
C819 C 0.18714 0.49806 0.78587 0.0
C820 C 0.2048 0.51008 0.766 0.0
C821 C 0.21841 0.50347 0.72865 0.0
C822 C 0.17 0.50639 0.80638 0.0
C823 C 0.15855 0.49637 0.85929 0.0
C824 C 0.16336 0.52248 0.76849 0.0
C825 C 0.1734 0.53236 0.70789 0.0
C826 C 0.181 0.55234 0.69999 0.0
C827 C 0.19062 0.56158 0.64298 0.0
C828 C 0.19261 0.55099 0.59346 0.0
C829 C 0.18487 0.53116 0.60068 0.0
C830 C 0.17518 0.52188 0.65748 0.0
C831 C 0.08455 0.52365 0.9044 0.0
C832 C 0.07381 0.52633 0.84955 0.0
C833 C 0.10424 0.52184 0.89976 0.0
C834 C 0.11322 0.5216 0.84043 0.0
C835 C 0.10243 0.52484 0.78564 0.0
C836 C 0.08305 0.52747 0.79011 0.0
C837 C 0.13344 0.51714 0.83436 0.0
C838 C 0.14565 0.52809 0.78449 0.0
C839 C 0.14016 0.50111 0.87273 0.0
C840 C 0.1279 0.48783 0.9234 0.0
C841 C 0.11059 0.47677 0.9089 0.0
C842 C 0.09942 0.46383 0.95674 0.0
C843 C 0.10553 0.46168 0.01908 0.0
C844 C 0.12272 0.47259 0.03388 0.0
C845 C 0.13393 0.48557 0.98624 0.0
H846 H 0.09705 0.45145 0.05586 0.0
H847 H 0.20011 0.55816 0.54945 0.0
H848 H 0.04602 0.80162 0.13858 0.0
H849 H 0.0507 0.83463 0.07651 0.0
H850 H 0.99004 0.8281 0.0359 0.0
H851 H 0.98546 0.79508 0.09764 0.0
H852 H 0.01127 0.85206 0.94013 0.0
H853 H 0.00342 0.84707 0.16615 0.0
H854 H 0.0103 0.8373 0.2786 0.0
H855 H 0.06858 0.86688 0.24436 0.0
H856 H 0.06198 0.87698 0.13167 0.0
H857 H 0.98719 0.94695 0.92334 0.0
H858 H 0.98974 0.91241 0.95584 0.0
H859 H 0.04976 0.92767 0.9968 0.0
H860 H 0.04692 0.96261 0.96719 0.0
H861 H 0.03261 0.89936 0.08471 0.0
H862 H 0.03307 0.9103 0.85417 0.0
H863 H 0.0191 0.92165 0.75209 0.0
H864 H 0.96777 0.87999 0.80295 0.0
H865 H 0.98115 0.86878 0.90599 0.0
C866 C 0.03399 0.8068 0.11298 0.0
C867 C 0.01544 0.79579 0.12207 0.0
C868 C 0.03658 0.82579 0.07858 0.0
C869 C 0.02061 0.834 0.05307 0.0
C870 C 0.00256 0.82209 0.05542 0.0
C871 C 0.99997 0.80311 0.08993 0.0
C872 C 0.02201 0.85547 0.03204 0.0
C873 C 0.016 0.86244 0.97154 0.0
C874 C 0.02807 0.86901 0.07325 0.0
C875 C 0.03229 0.86254 0.14041 0.0
C876 C 0.01775 0.85135 0.18252 0.0
C877 C 0.02157 0.84583 0.24633 0.0
C878 C 0.03989 0.85135 0.26854 0.0
C879 C 0.05441 0.86254 0.22704 0.0
C880 C 0.05063 0.86823 0.16324 0.0
C881 C 1.00092 0.94296 0.93953 0.0
C882 C 0.01692 0.95742 0.94227 0.0
C883 C 0.00241 0.92317 0.95761 0.0
C884 C 0.02013 0.91732 0.9767 0.0
C885 C 0.036 0.9318 0.98144 0.0
C886 C 0.03438 0.95173 0.96471 0.0
C887 C 0.02189 0.89611 0.99246 0.0
C888 C 0.02842 0.88913 0.05234 0.0
C889 C 0.01568 0.88254 0.95131 0.0
C890 C 0.0081 0.88875 0.88798 0.0
C891 C 0.01879 0.90358 0.84362 0.0
C892 C 0.01095 0.91001 0.78562 0.0
C893 C 0.99256 0.90152 0.77113 0.0
C894 C 0.98201 0.88653 0.81432 0.0
C895 C 0.98971 0.88015 0.87251 0.0
H896 H 0.98639 0.90652 0.72659 0.0
H897 H 0.04281 0.84702 0.31796 0.0
H898 H 0.68197 0.94444 0.07493 0.0
H899 H 0.65961 0.95573 0.99814 0.0
H900 H 0.70306 1.00401 0.91715 0.0
H901 H 0.72477 0.99412 0.0012 0.0
H902 H 0.67419 0.01856 0.92585 0.0
H903 H 0.6805 0.96373 0.83079 0.0
H904 H 0.68414 0.9295 0.82408 0.0
H905 H 0.6278 0.90985 0.91378 0.0
H906 H 0.62386 0.94394 0.9215 0.0
H907 H 0.57162 1.00368 0.76551 0.0
H908 H 0.6051 0.99695 0.77173 0.0
H909 H 0.61116 0.02328 0.94171 0.0
H910 H 0.57844 0.03123 0.93264 0.0
H911 H 0.6214 0.97481 0.84525 0.0
H912 H 0.65425 0.03938 0.97649 0.0
H913 H 0.65323 0.0748 0.96882 0.0
H914 H 0.63628 0.07759 0.77576 0.0
H915 H 0.63747 0.04223 0.78185 0.0
C916 C 0.68691 0.95741 0.04053 0.0
C917 C 0.70497 0.96871 0.04564 0.0
C918 C 0.67414 0.96366 0.99515 0.0
C919 C 0.6795 0.9807 0.95046 0.0
C920 C 0.69839 0.9909 0.95118 0.0
C921 C 0.71096 0.98507 0.99874 0.0
C922 C 0.66442 0.98905 0.9101 0.0
C923 C 0.66285 0.00901 0.90725 0.0
C924 C 0.64991 0.97699 0.8827 0.0
C925 C 0.65188 0.95645 0.87659 0.0
C926 C 0.6689 0.95211 0.84919 0.0
C927 C 0.67102 0.93272 0.84525 0.0
C928 C 0.65622 0.91751 0.86858 0.0
C929 C 0.63924 0.92165 0.8957 0.0
C930 C 0.63701 0.94103 0.89958 0.0
C931 C 0.58034 0.00842 0.80325 0.0
C932 C 0.57254 0.01817 0.84824 0.0
C933 C 0.59946 0.0045 0.80698 0.0
C934 C 0.61099 0.00988 0.85657 0.0
C935 C 0.60304 0.01962 0.90143 0.0
C936 C 0.58419 0.02405 0.8966 0.0
C937 C 0.63063 1.00395 0.8653 0.0
C938 C 0.63305 0.98449 0.86192 0.0
C939 C 0.64637 0.01671 0.88389 0.0
C940 C 0.64591 0.03809 0.87972 0.0
C941 C 0.65047 0.04756 0.9322 0.0
C942 C 0.64981 0.06763 0.92818 0.0
C943 C 0.64467 0.07843 0.87187 0.0
C944 C 0.64022 0.06919 0.8194 0.0
C945 C 0.64086 0.04913 0.82313 0.0
H946 H 0.64415 0.09396 0.86889 0.0
H947 H 0.6579 0.90251 0.86551 0.0
H948 H 0.43583 0.73773 0.29269 0.0
H949 H 0.43059 0.71456 0.21737 0.0
H950 H 0.49235 0.71876 0.1864 0.0
H951 H 0.49752 0.74211 0.26101 0.0
H952 H 0.47198 0.71068 0.07917 0.0
H953 H 0.47214 0.68606 0.30463 0.0
H954 H 0.46132 0.68341 0.41661 0.0
H955 H 0.40295 0.66434 0.36962 0.0
H956 H 0.41343 0.6669 0.25725 0.0
H957 H 0.49132 0.6154 0.05775 0.0
H958 H 0.48859 0.64784 0.08248 0.0
H959 H 0.42669 0.63199 0.10884 0.0
H960 H 0.42934 0.59922 0.08523 0.0
H961 H 0.44261 0.64746 0.20714 0.0
H962 H 0.44415 0.66841 0.98094 0.0
H963 H 0.4561 0.67143 0.86997 0.0
H964 H 0.51256 0.69593 0.91983 0.0
H965 H 0.50078 0.69366 0.03075 0.0
C966 C 0.44819 0.73449 0.26704 0.0
C967 C 0.46705 0.74173 0.28176 0.0
C968 C 0.44522 0.72115 0.22454 0.0
C969 C 0.46111 0.71472 0.19724 0.0
C970 C 0.47991 0.72358 0.20683 0.0
C971 C 0.48287 0.73696 0.24918 0.0
C972 C 0.45841 0.69652 0.16896 0.0
C973 C 0.46552 0.69686 0.10694 0.0
C974 C 0.44984 0.6785 0.20511 0.0
C975 C 0.44352 0.67687 0.27257 0.0
C976 C 0.45698 0.6814 0.31818 0.0
C977 C 0.45093 0.67988 0.38169 0.0
C978 C 0.43146 0.67381 0.40016 0.0
C979 C 0.41802 0.6691 0.35521 0.0
C980 C 0.42401 0.67053 0.29164 0.0
C981 C 0.47711 0.61876 0.06902 0.0
C982 C 0.46055 0.60468 0.06978 0.0
C983 C 0.47554 0.63745 0.08203 0.0
C984 C 0.4574 0.64245 0.09638 0.0
C985 C 0.4408 0.62848 0.0971 0.0
C986 C 0.44235 0.60978 0.08366 0.0
C987 C 0.45614 0.66153 0.11713 0.0
C988 C 0.44853 0.66133 0.17839 0.0
C989 C 0.46439 0.67956 0.08042 0.0
C990 C 0.47162 0.68076 0.01411 0.0
C991 C 0.45913 0.67438 0.96824 0.0
C992 C 0.46585 0.67603 0.90534 0.0
C993 C 0.48511 0.68367 0.88797 0.0
C994 C 0.49764 0.68997 0.93336 0.0
C995 C 0.49092 0.68867 0.99613 0.0
H996 H 0.4903 0.68477 0.83933 0.0
H997 H 0.42681 0.6727 0.44934 0.0
H998 H 0.79557 0.51707 0.02175 0.0
H999 H 0.82266 0.51088 0.95727 0.0
H1000 H 0.8432 0.57289 0.91754 0.0
H1001 H 0.81632 0.57905 0.98298 0.0
H1002 H 0.84376 0.52296 0.83717 0.0
H1003 H 0.8897 0.57863 0.95506 0.0
H1004 H 0.88869 0.59753 0.04325 0.0
H1005 H 0.85049 0.5499 0.15161 0.0
H1006 H 0.85114 0.53083 0.06399 0.0
H1007 H 0.94716 0.52883 0.76612 0.0
H1008 H 0.91371 0.53466 0.77797 0.0
H1009 H 0.91039 0.50328 0.96944 0.0
H1010 H 0.944 0.49783 0.9585 0.0
H1011 H 0.90104 0.53999 0.96276 0.0
H1012 H 0.88516 0.48503 0.84735 0.0
H1013 H 0.88752 0.46826 0.75472 0.0
H1014 H 0.86786 0.51638 0.63507 0.0
H1015 H 0.86581 0.53362 0.72676 0.0
C1016 C 0.80524 0.52944 0.99628 0.0
C1017 C 0.80392 0.54852 0.00731 0.0
C1018 C 0.8208 0.52589 0.95974 0.0
C1019 C 0.83518 0.54139 0.93385 0.0
C1020 C 0.83239 0.5607 0.93773 0.0
C1021 C 0.81693 0.56423 0.9746 0.0
C1022 C 0.85448 0.53709 0.91489 0.0
C1023 C 0.85634 0.52678 0.86424 0.0
C1024 C 0.87096 0.54218 0.94983 0.0
C1025 C 0.87029 0.55345 0.0028 0.0
C1026 C 0.88103 0.57225 0.99771 0.0
C1027 C 0.88047 0.58301 0.04747 0.0
C1028 C 0.86932 0.57503 0.1027 0.0
C1029 C 0.85885 0.55621 0.10841 0.0
C1030 C 0.85928 0.54542 0.05872 0.0
C1031 C 0.93926 0.52299 0.81057 0.0
C1032 C 0.94839 0.51317 0.8618 0.0
C1033 C 0.92005 0.52618 0.81701 0.0
C1034 C 0.90955 0.51945 0.87465 0.0
C1035 C 0.91826 0.50864 0.92455 0.0
C1036 C 0.93747 0.50546 0.91816 0.0
C1037 C 0.89036 0.52542 0.88588 0.0
C1038 C 0.88856 0.53622 0.93514 0.0
C1039 C 0.87419 0.5211 0.84868 0.0
C1040 C 0.87543 0.51066 0.79382 0.0
C1041 C 0.8815 0.4921 0.80119 0.0
C1042 C 0.88279 0.48251 0.74885 0.0
C1043 C 0.87792 0.49128 0.689 0.0
C1044 C 0.87171 0.50964 0.68137 0.0
C1045 C 0.87046 0.51931 0.73351 0.0
H1046 H 0.87891 0.48382 0.64856 0.0
H1047 H 0.86898 0.58332 0.14133 0.0
H1048 H 0.04057 0.25265 0.36627 0.0
H1049 H 0.04574 0.22953 0.29406 0.0
H1050 H 0.98532 0.20503 0.31771 0.0
H1051 H 0.9801 0.22832 0.38803 0.0
H1052 H 0.04273 0.19143 0.32047 0.0
H1053 H 0.96946 0.18385 0.19456 0.0
H1054 H 0.94548 0.20476 0.15214 0.0
H1055 H 0.98924 0.25538 0.12835 0.0
H1056 H 0.01355 0.23475 0.1698 0.0
H1057 H 0.02451 0.09929 0.21888 0.0
H1058 H 0.02253 0.12876 0.26513 0.0
H1059 H 0.0268 0.16326 0.07816 0.0
H1060 H 0.02784 0.13363 0.03125 0.0
H1061 H 1.00093 0.17517 0.14517 0.0
H1062 H 0.06566 0.16336 0.1805 0.0
H1063 H 0.09183 0.14447 0.21647 0.0
H1064 H 0.06927 0.13642 0.40847 0.0
H1065 H 0.0428 0.15503 0.37355 0.0
C1066 C 0.02829 0.24281 0.35406 0.0
C1067 C 0.00989 0.24246 0.38234 0.0
C1068 C 0.03129 0.2294 0.31347 0.0
C1069 C 0.01592 0.21547 0.29992 0.0
C1070 C 0.99739 0.21575 0.32612 0.0
C1071 C 0.99441 0.2291 0.36648 0.0
C1072 C 0.01936 0.19972 0.26261 0.0
C1073 C 0.03365 0.18798 0.28189 0.0
C1074 C 0.00777 0.19525 0.21147 0.0
C1075 C 0.99329 0.20775 0.18577 0.0
C1076 C 0.97399 0.19943 0.17998 0.0
C1077 C 0.96033 0.21123 0.15617 0.0
C1078 C 0.96582 0.23139 0.13772 0.0
C1079 C 0.98499 0.23977 0.14287 0.0
C1080 C 0.99871 0.22803 0.1666 0.0
C1081 C 0.02482 0.11307 0.18732 0.0
C1082 C 0.02635 0.11392 0.12104 0.0
C1083 C 0.02394 0.13004 0.21404 0.0
C1084 C 0.02482 0.14843 0.17542 0.0
C1085 C 0.02619 0.14933 0.10924 0.0
C1086 C 0.02697 0.13233 0.08241 0.0
C1087 C 0.02398 0.16659 0.20408 0.0
C1088 C 0.01013 0.17873 0.18336 0.0
C1089 C 0.03624 0.17166 0.25304 0.0
C1090 C 0.05214 0.16045 0.27428 0.0
C1091 C 0.06619 0.15744 0.23032 0.0
C1092 C 0.08109 0.14679 0.25054 0.0
C1093 C 0.08218 0.13921 0.31469 0.0
C1094 C 0.06839 0.14228 0.35878 0.0
C1095 C 0.05344 0.15289 0.33881 0.0
H1096 H 0.09374 0.13098 0.33024 0.0
H1097 H 0.95522 0.2405 0.11934 0.0
H1098 H 0.32727 0.03622 0.50345 0.0
H1099 H 0.35318 0.03927 0.42285 0.0
H1100 H 0.33503 0.09233 0.32653 0.0
H1101 H 0.30902 0.08947 0.40789 0.0
H1102 H 0.34706 0.06658 0.2437 0.0
H1103 H 0.36993 0.09773 0.41919 0.0
H1104 H 0.37455 0.09956 0.53238 0.0
H1105 H 0.40696 0.05128 0.54836 0.0
H1106 H 0.40223 0.0489 0.43549 0.0
H1107 H 0.4392 0.09439 0.07296 0.0
H1108 H 0.41017 0.09557 0.13804 0.0
H1109 H 0.42231 0.04505 0.26682 0.0
H1110 H 0.45127 0.04394 0.20261 0.0
H1111 H 0.41289 0.07355 0.32923 0.0
H1112 H 0.38851 0.04012 0.16033 0.0
H1113 H 0.38301 0.0359 0.04926 0.0
H1114 H 0.35329 0.08618 0.02203 0.0
H1115 H 0.3589 0.09091 0.13273 0.0
C1116 C 0.32867 0.04845 0.4648 0.0
C1117 C 0.31633 0.06279 0.46248 0.0
C1118 C 0.34343 0.05013 0.41873 0.0
C1119 C 0.34619 0.06619 0.36946 0.0
C1120 C 0.33313 0.07986 0.36441 0.0
C1121 C 0.31829 0.07819 0.41075 0.0
C1122 C 0.36364 0.0693 0.32671 0.0
C1123 C 0.36149 0.06849 0.26195 0.0
C1124 C 0.3824 0.07142 0.35113 0.0
C1125 C 0.38557 0.07304 0.41888 0.0
C1126 C 0.37792 0.08741 0.44691 0.0
C1127 C 0.38057 0.08855 0.51103 0.0
C1128 C 0.391 0.07552 0.54757 0.0
C1129 C 0.39887 0.06135 0.52 0.0
C1130 C 0.39621 0.06011 0.45593 0.0
C1131 C 0.43573 0.08368 0.11551 0.0
C1132 C 0.44743 0.06904 0.1327 0.0
C1133 C 0.41909 0.08426 0.15227 0.0
C1134 C 0.41402 0.07029 0.20692 0.0
C1135 C 0.42593 0.05594 0.22475 0.0
C1136 C 0.44241 0.05526 0.1879 0.0
C1137 C 0.39638 0.07048 0.24621 0.0
C1138 C 0.3985 0.07194 0.31055 0.0
C1139 C 0.37763 0.06877 0.2214 0.0
C1140 C 0.37437 0.06604 0.15464 0.0
C1141 C 0.38099 0.05042 0.13049 0.0
C1142 C 0.37782 0.0479 0.06764 0.0
C1143 C 0.36788 0.06081 0.02855 0.0
C1144 C 0.36104 0.07623 0.05232 0.0
C1145 C 0.36422 0.07884 0.11511 0.0
H1146 H 0.36544 0.05884 0.97992 0.0
H1147 H 0.393 0.0764 0.59721 0.0
H1148 H 0.5598 0.3129 0.17882 0.0
H1149 H 0.55711 0.34165 0.09901 0.0
H1150 H 0.49982 0.3436 0.17411 0.0
H1151 H 0.50225 0.31472 0.25273 0.0
H1152 H 0.50235 0.35265 0.04336 0.0
H1153 H 0.54012 0.37231 0.22376 0.0
H1154 H 0.56813 0.37201 0.29313 0.0
H1155 H 0.60706 0.38802 0.12984 0.0
H1156 H 0.57933 0.3885 0.05974 0.0
H1157 H 0.48504 0.45121 0.99663 0.0
H1158 H 0.49029 0.41758 0.03742 0.0
H1159 H 0.54704 0.42887 0.94487 0.0
H1160 H 0.542 0.46227 0.90413 0.0
H1161 H 0.54833 0.41195 0.06602 0.0
H1162 H 0.51415 0.39912 0.88695 0.0
H1163 H 0.48863 0.40068 0.80885 0.0
H1164 H 0.44608 0.37161 0.9528 0.0
H1165 H 0.47135 0.37006 0.03206 0.0
C1166 C 0.54644 0.31915 0.17713 0.0
C1167 C 0.53128 0.31165 0.22229 0.0
C1168 C 0.545 0.33567 0.13193 0.0
C1169 C 0.52838 0.34494 0.13128 0.0
C1170 C 0.51279 0.33673 0.17381 0.0
C1171 C 0.51424 0.32028 0.21892 0.0
C1172 C 0.52758 0.36398 0.09014 0.0
C1173 C 0.51234 0.36565 0.04846 0.0
C1174 C 0.54113 0.38078 0.0945 0.0
C1175 C 0.5577 0.38016 0.13668 0.0
C1176 C 0.55467 0.37557 0.20281 0.0
C1177 C 0.57047 0.37542 0.24218 0.0
C1178 C 0.58933 0.37983 0.21588 0.0
C1179 C 0.59245 0.38453 0.15015 0.0
C1180 C 0.57671 0.38479 0.11062 0.0
C1181 C 0.4986 0.4465 0.98495 0.0
C1182 C 0.5131 0.45944 0.94743 0.0
C1183 C 0.50154 0.42726 0.00781 0.0
C1184 C 0.51902 0.42071 0.99373 0.0
C1185 C 0.53346 0.43361 0.9562 0.0
C1186 C 0.5305 0.45272 0.933 0.0
C1187 C 0.52264 0.40077 0.02123 0.0
C1188 C 0.53846 0.39895 0.06012 0.0
C1189 C 0.50995 0.3838 0.01285 0.0
C1190 C 0.49462 0.38465 0.96563 0.0
C1191 C 0.49932 0.39322 0.90214 0.0
C1192 C 0.48491 0.39406 0.85759 0.0
C1193 C 0.46573 0.38631 0.8759 0.0
C1194 C 0.46095 0.37763 0.93873 0.0
C1195 C 0.47532 0.37673 0.98348 0.0
H1196 H 0.45458 0.38699 0.84137 0.0
H1197 H 0.60153 0.3797 0.24644 0.0
H1198 H 0.20663 0.44187 0.49195 0.0
H1199 H 0.18165 0.43995 0.41295 0.0
H1200 H 0.18021 0.50206 0.40033 0.0
H1201 H 0.20452 0.50373 0.48108 0.0
H1202 H 0.14567 0.48445 0.41478 0.0
H1203 H 0.19917 0.48 0.27722 0.0
H1204 H 0.22788 0.46693 0.24254 0.0
H1205 H 0.19368 0.4107 0.24396 0.0
H1206 H 0.1648 0.42337 0.27948 0.0
H1207 H 0.08956 0.49845 0.14292 0.0
H1208 H 0.11792 0.49816 0.20796 0.0
H1209 H 0.10449 0.43546 0.25977 0.0
H1210 H 0.07544 0.43562 0.19705 0.0
H1211 H 0.14606 0.45202 0.22418 0.0
H1212 H 0.09259 0.45784 0.36319 0.0
H1213 H 0.06433 0.47236 0.39385 0.0
H1214 H 0.09991 0.52822 0.3845 0.0
H1215 H 0.12834 0.51409 0.3528 0.0
C1216 C 0.20123 0.45514 0.47112 0.0
C1217 C 0.20745 0.47295 0.49231 0.0
C1218 C 0.18698 0.45407 0.42593 0.0
C1219 C 0.17904 0.47089 0.40023 0.0
C1220 C 0.18598 0.48885 0.41954 0.0
C1221 C 0.19993 0.48984 0.46539 0.0
C1222 C 0.1625 0.46963 0.35723 0.0
C1223 C 0.14597 0.4776 0.37263 0.0
C1224 C 0.16253 0.46024 0.30299 0.0
C1225 C 0.17987 0.45258 0.28165 0.0
C1226 C 0.1978 0.4648 0.27065 0.0
C1227 C 0.2141 0.45747 0.25074 0.0
C1228 C 0.21262 0.43798 0.24123 0.0
C1229 C 0.19482 0.42579 0.25144 0.0
C1230 C 0.17847 0.43304 0.2714 0.0
C1231 C 0.09241 0.48458 0.16874 0.0
C1232 C 0.07992 0.46709 0.16562 0.0
C1233 C 0.10878 0.48444 0.20528 0.0
C1234 C 0.1132 0.46681 0.23882 0.0
C1235 C 0.10131 0.44921 0.23398 0.0
C1236 C 0.08473 0.44935 0.19805 0.0
C1237 C 0.12963 0.46706 0.28172 0.0
C1238 C 0.14597 0.45886 0.26639 0.0
C1239 C 0.1296 0.47645 0.33566 0.0
C1240 C 0.11254 0.48495 0.35496 0.0
C1241 C 0.09435 0.47327 0.36707 0.0
C1242 C 0.07831 0.48142 0.38476 0.0
C1243 C 0.08031 0.50122 0.39094 0.0
C1244 C 0.09837 0.5129 0.3796 0.0
C1245 C 0.11445 0.50482 0.36181 0.0
H1246 H 0.06788 0.5075 0.40467 0.0
H1247 H 0.22525 0.43234 0.2258 0.0
H1248 H 0.02769 0.78744 0.38999 0.0
H1249 H 0.02562 0.81308 0.45569 0.0
H1250 H 0.97004 0.82183 0.38039 0.0
H1251 H 0.9722 0.79638 0.31482 0.0
H1252 H 0.99498 0.8557 0.36527 0.0
H1253 H 0.9741 0.80268 0.53552 0.0
H1254 H 0.97657 0.77193 0.60739 0.0
H1255 H 0.02974 0.79835 0.67593 0.0
H1256 H 0.02773 0.8292 0.60377 0.0
H1257 H 0.96699 0.92429 0.54673 0.0
H1258 H 0.9691 0.89519 0.4985 0.0
H1259 H 0.02321 0.88855 0.5876 0.0
H1260 H 0.02099 0.9174 0.63753 0.0
H1261 H 1.0008 0.85356 0.59716 0.0
H1262 H 0.02204 0.90628 0.42972 0.0
H1263 H 0.02084 0.93704 0.35637 0.0
H1264 H 0.96863 0.91126 0.2804 0.0
H1265 H 0.96935 0.88041 0.35399 0.0
C1266 C 0.01468 0.79425 0.38976 0.0
C1267 C 0.99992 0.78964 0.34839 0.0
C1268 C 0.01357 0.80904 0.42683 0.0
C1269 C 0.99767 0.81948 0.423 0.0
C1270 C 0.98245 0.81405 0.38426 0.0
C1271 C 0.98356 0.79933 0.3474 0.0
C1272 C 0.99758 0.83718 0.45435 0.0
C1273 C 0.99595 0.85513 0.41613 0.0
C1274 C 0.99963 0.83671 0.52039 0.0
C1275 C 1.00087 0.81818 0.56372 0.0
C1276 C 0.98641 0.80188 0.56548 0.0
C1277 C 0.98771 0.78444 0.60637 0.0
C1278 C 0.00333 0.78317 0.64607 0.0
C1279 C 0.01767 0.79935 0.64507 0.0
C1280 C 0.01645 0.81682 0.60422 0.0
C1281 C 0.9793 0.91662 0.55671 0.0
C1282 C 0.99377 0.92333 0.59659 0.0
C1283 C 0.98058 0.90001 0.52843 0.0
C1284 C 0.99641 0.88966 0.53881 0.0
C1285 C 0.01086 0.89624 0.57864 0.0
C1286 C 0.00964 0.91292 0.60677 0.0
C1287 C 0.99777 0.872 0.50816 0.0
C1288 C 0.99978 0.85411 0.54633 0.0
C1289 C 0.99622 0.87252 0.44188 0.0
C1290 C 0.99564 0.8911 0.3979 0.0
C1291 C 0.01019 0.90723 0.39782 0.0
C1292 C 0.00962 0.92467 0.3561 0.0
C1293 C 0.99464 0.92612 0.31388 0.0
C1294 C 0.98021 0.91012 0.31321 0.0
C1295 C 0.9807 0.89265 0.3549 0.0
H1296 H 0.99423 0.93963 0.28158 0.0
H1297 H 0.0043 0.76966 0.67771 0.0
H1298 H 0.6834 0.92863 0.25163 0.0
H1299 H 0.65759 0.92674 0.33208 0.0
H1300 H 0.68879 0.97645 0.40166 0.0
H1301 H 0.71478 0.97835 0.32105 0.0
H1302 H 0.66674 0.9476 0.49837 0.0
H1303 H 0.65941 0.98533 0.292 0.0
H1304 H 0.65877 0.98964 0.17533 0.0
H1305 H 0.61092 0.9431 0.18778 0.0
H1306 H 0.61159 0.93819 0.30461 0.0
H1307 H 0.59069 0.98747 0.62502 0.0
H1308 H 0.61869 0.98254 0.56328 0.0
H1309 H 0.58287 0.93948 0.47557 0.0
H1310 H 0.55444 0.9451 0.53496 0.0
H1311 H 0.60713 0.96302 0.38971 0.0
H1312 H 0.61326 0.92503 0.5924 0.0
H1313 H 0.61266 0.92006 0.70928 0.0
H1314 H 0.6613 0.96542 0.70417 0.0
H1315 H 0.66208 0.97082 0.58704 0.0
C1316 C 0.68501 0.93875 0.28545 0.0
C1317 C 0.70089 0.95379 0.27989 0.0
C1318 C 0.67029 0.93766 0.33125 0.0
C1319 C 0.67116 0.95169 0.37181 0.0
C1320 C 0.68789 0.96553 0.37056 0.0
C1321 C 0.70271 0.96659 0.32469 0.0
C1322 C 0.65358 0.95366 0.40839 0.0
C1323 C 0.65376 0.95111 0.47474 0.0
C1324 C 0.63652 0.95786 0.37733 0.0
C1325 C 0.6357 0.96124 0.30709 0.0
C1326 C 0.64884 0.97592 0.26988 0.0
C1327 C 0.64848 0.97847 0.2037 0.0
C1328 C 0.63485 0.96661 0.17414 0.0
C1329 C 0.6215 0.95224 0.21073 0.0
C1330 C 0.62187 0.94956 0.27694 0.0
C1331 C 0.58866 0.97713 0.59199 0.0
C1332 C 0.57027 0.96671 0.58483 0.0
C1333 C 0.60476 0.97415 0.55729 0.0
C1334 C 0.60294 0.96042 0.51552 0.0
C1335 C 0.58461 0.95008 0.50779 0.0
C1336 C 0.56842 0.95317 0.5422 0.0
C1337 C 0.62023 0.95697 0.47991 0.0
C1338 C 0.62003 0.95933 0.41355 0.0
C1339 C 0.63717 0.95242 0.51094 0.0
C1340 C 0.63763 0.94843 0.58106 0.0
C1341 C 0.62384 0.93393 0.61621 0.0
C1342 C 0.62345 0.93106 0.68241 0.0
C1343 C 0.63686 0.94249 0.71394 0.0
C1344 C 0.65091 0.95662 0.6795 0.0
C1345 C 0.65136 0.95956 0.6132 0.0
H1346 H 0.63629 0.94042 0.76504 0.0
H1347 H 0.63462 0.96859 0.1229 0.0
H1348 H 0.50718 0.73774 0.52497 0.0
H1349 H 0.51362 0.70882 0.59859 0.0
H1350 H 0.45549 0.68057 0.57903 0.0
H1351 H 0.44916 0.70924 0.50462 0.0
H1352 H 0.47072 0.67439 0.70811 0.0
H1353 H 0.48528 0.66949 0.48909 0.0
H1354 H 0.50086 0.68211 0.38335 0.0
H1355 H 0.55681 0.68516 0.46473 0.0
H1356 H 0.54147 0.67291 0.57117 0.0
H1357 H 0.47389 0.57348 0.78753 0.0
H1358 H 0.46933 0.60621 0.73698 0.0
H1359 H 0.5313 0.62283 0.71401 0.0
H1360 H 0.53582 0.58946 0.76078 0.0
H1361 H 0.51623 0.63728 0.61349 0.0
H1362 H 0.50078 0.63772 0.83387 0.0
H1363 H 0.48404 0.62441 0.93704 0.0
H1364 H 0.42906 0.62932 0.85374 0.0
H1365 H 0.4455 0.64239 0.7496 0.0
C1366 C 0.49563 0.72558 0.53809 0.0
C1367 C 0.47768 0.72563 0.50959 0.0
C1368 C 0.49933 0.70909 0.57974 0.0
C1369 C 0.48503 0.6926 0.59391 0.0
C1370 C 0.46665 0.69321 0.56893 0.0
C1371 C 0.46306 0.70954 0.52654 0.0
C1372 C 0.48981 0.67394 0.62851 0.0
C1373 C 0.48065 0.66621 0.68765 0.0
C1374 C 0.50295 0.6635 0.60193 0.0
C1375 C 0.51223 0.67056 0.53804 0.0
C1376 C 0.50089 0.67305 0.48442 0.0
C1377 C 0.50967 0.6801 0.4244 0.0
C1378 C 0.52981 0.6845 0.41735 0.0
C1379 C 0.5412 0.68179 0.4703 0.0
C1380 C 0.53248 0.6748 0.53048 0.0
C1381 C 0.48654 0.58416 0.77187 0.0
C1382 C 0.50521 0.57903 0.77839 0.0
C1383 C 0.48393 0.60295 0.74344 0.0
C1384 C 0.49997 0.61729 0.72329 0.0
C1385 C 0.51868 0.61212 0.72952 0.0
C1386 C 0.52127 0.59308 0.75629 0.0
C1387 C 0.49713 0.63744 0.69383 0.0
C1388 C 0.50661 0.6455 0.63514 0.0
C1389 C 0.48424 0.64816 0.72096 0.0
C1390 C 0.47437 0.64095 0.78394 0.0
C1391 C 0.48512 0.63591 0.83754 0.0
C1392 C 0.47567 0.62839 0.89621 0.0
C1393 C 0.45547 0.626 0.90199 0.0
C1394 C 0.44469 0.63115 0.84913 0.0
C1395 C 0.45407 0.63867 0.79031 0.0
H1396 H 0.44814 0.62027 0.94735 0.0
H1397 H 0.53659 0.68995 0.37084 0.0
H1398 H 0.83006 0.58288 0.17597 0.0
H1399 H 0.85483 0.58395 0.25525 0.0
H1400 H 0.82093 0.53544 0.37659 0.0
H1401 H 0.79628 0.53384 0.29638 0.0
H1402 H 0.83681 0.56435 0.44319 0.0
H1403 H 0.85845 0.5249 0.30599 0.0
H1404 H 0.86921 0.51184 0.21276 0.0
H1405 H 0.9133 0.56181 0.16647 0.0
H1406 H 0.90277 0.57524 0.25935 0.0
H1407 H 0.91982 0.54522 0.63039 0.0
H1408 H 0.8907 0.5434 0.56823 0.0
H1409 H 0.91808 0.59168 0.43022 0.0
H1410 H 0.94719 0.59367 0.4921 0.0
H1411 H 0.90421 0.55944 0.37806 0.0
H1412 H 0.8804 0.59656 0.53047 0.0
H1413 H 0.87255 0.60131 0.63947 0.0
H1414 H 0.83306 0.54743 0.66782 0.0
H1415 H 0.84087 0.54222 0.55928 0.0
C1416 C 0.82782 0.57245 0.21957 0.0
C1417 C 0.81127 0.55813 0.22947 0.0
C1418 C 0.84202 0.57305 0.26474 0.0
C1419 C 0.8399 0.55953 0.32123 0.0
C1420 C 0.82291 0.54592 0.33306 0.0
C1421 C 0.80876 0.54515 0.28742 0.0
C1422 C 0.85555 0.55977 0.36737 0.0
C1423 C 0.85152 0.56309 0.42913 0.0
C1424 C 0.87473 0.55794 0.34935 0.0
C1425 C 0.87964 0.5512 0.28928 0.0
C1426 C 0.87021 0.53329 0.27533 0.0
C1427 C 0.87644 0.52569 0.22299 0.0
C1428 C 0.89204 0.5359 0.18406 0.0
C1429 C 0.90132 0.55384 0.19698 0.0
C1430 C 0.8952 0.56147 0.2494 0.0
C1431 C 0.91948 0.55576 0.58759 0.0
C1432 C 0.93588 0.56951 0.56587 0.0
C1433 C 0.90281 0.55467 0.55212 0.0
C1434 C 0.90221 0.56742 0.49468 0.0
C1435 C 0.91827 0.58166 0.47433 0.0
C1436 C 0.93492 0.58273 0.50959 0.0
C1437 C 0.88567 0.5649 0.45262 0.0
C1438 C 0.88953 0.56095 0.39173 0.0
C1439 C 0.86635 0.56553 0.47224 0.0
C1440 C 0.86131 0.56895 0.53688 0.0
C1441 C 0.8701 0.58568 0.56005 0.0
C1442 C 0.86566 0.58846 0.62175 0.0
C1443 C 0.85233 0.57467 0.66058 0.0
C1444 C 0.84335 0.55812 0.63766 0.0
C1445 C 0.84777 0.55525 0.57605 0.0
H1446 H 0.84896 0.57681 0.7084 0.0
H1447 H 0.8968 0.53002 0.14347 0.0
loop_
_geom_bond_atom_site_label_1
_geom_bond_atom_site_label_2
_geom_bond_distance
_geom_bond_site_symmetry_2
_ccdc_geom_bond_type
H0 C3 0.929 . S
H1 C6 0.929 . S
H2 C8 0.930 . S
C3 H0 0.929 . S
C3 C4 1.398 . S
C3 C5 1.396 1_554 S
C4 C3 1.398 . S
C4 C8 1.407 . S
C5 C3 1.396 1_556 S
C5 C6 1.394 . S
C6 H1 0.929 . S
C6 C5 1.394 . S
C6 C7 1.382 1_556 S
C7 C6 1.382 1_554 S
C7 C8 1.392 . S
C7 N9 1.420 . S
C8 H2 0.930 . S
C8 C4 1.407 . S
C8 C7 1.392 . S
N9 C7 1.420 . S
N9 C10 1.244 1_554 S
C10 N9 1.244 1_556 S
H11 C14 0.929 . S
H12 C17 0.929 . S
H13 C19 0.930 . S
C14 H11 0.929 . S
C14 C15 1.398 . S
C14 C16 1.396 . S
C15 C14 1.398 . S
C15 C19 1.407 1_655 S
C16 C14 1.396 . S
C16 C17 1.394 1_655 S
C17 H12 0.929 . S
C17 C16 1.394 1_455 S
C17 C18 1.382 . S
C18 C17 1.382 . S
C18 C19 1.392 . S
C18 N20 1.420 . S
C19 H13 0.930 . S
C19 C15 1.407 1_455 S
C19 C18 1.392 . S
N20 C18 1.420 . S
N20 C21 1.244 1_455 S
C21 N20 1.244 1_655 S
H22 C25 0.929 . S
H23 C28 0.929 . S
H24 C30 0.930 . S
C25 H22 0.929 . S
C25 C26 1.398 . S
C25 C27 1.396 . S
C26 C25 1.398 . S
C26 C30 1.407 . S
C27 C25 1.396 . S
C27 C28 1.394 . S
C28 H23 0.929 . S
C28 C27 1.394 . S
C28 C29 1.382 . S
C29 C28 1.382 . S
C29 C30 1.392 . S
C29 N31 1.420 . S
C30 H24 0.930 . S
C30 C26 1.407 . S
C30 C29 1.392 . S
N31 C29 1.420 . S
N31 C32 1.244 . S
C32 N31 1.244 . S
H33 C36 0.929 . S
H34 C39 0.929 . S
H35 C41 0.930 . S
C36 H33 0.929 . S
C36 C37 1.398 . S
C36 C38 1.396 . S
C37 C36 1.398 . S
C37 C41 1.407 . S
C38 C36 1.396 . S
C38 C39 1.394 . S
C39 H34 0.929 . S
C39 C38 1.394 . S
C39 C40 1.382 . S
C40 C39 1.382 . S
C40 C41 1.392 . S
C40 N42 1.420 . S
C41 H35 0.930 . S
C41 C37 1.407 . S
C41 C40 1.392 . S
N42 C40 1.420 . S
N42 C43 1.244 . S
C43 N42 1.244 . S
H44 C47 0.929 . S
H45 C50 0.929 . S
H46 C52 0.930 . S
C47 H44 0.929 . S
C47 C48 1.398 . S
C47 C49 1.396 . S
C48 C47 1.398 . S
C48 C52 1.407 . S
C49 C47 1.396 . S
C49 C50 1.394 . S
C50 H45 0.929 . S
C50 C49 1.394 . S
C50 C51 1.382 . S
C51 C50 1.382 . S
C51 C52 1.392 . S
C51 N53 1.420 . S
C52 H46 0.930 . S
C52 C48 1.407 . S
C52 C51 1.392 . S
N53 C51 1.420 . S
N53 C54 1.244 . S
C54 N53 1.244 . S
H55 C58 0.929 . S
H56 C61 0.929 . S
H57 C63 0.930 . S
C58 H55 0.929 . S
C58 C59 1.398 . S
C58 C60 1.396 . S
C59 C58 1.398 . S
C59 C63 1.407 . S
C60 C58 1.396 . S
C60 C61 1.394 . S
C61 H56 0.929 . S
C61 C60 1.394 . S
C61 C62 1.382 . S
C62 C61 1.382 . S
C62 C63 1.392 . S
C62 N64 1.420 . S
C63 H57 0.930 . S
C63 C59 1.407 . S
C63 C62 1.392 . S
N64 C62 1.420 . S
N64 C65 1.244 . S
C65 N64 1.244 . S
H66 C69 0.929 . S
H67 C72 0.929 . S
H68 C74 0.930 . S
C69 H66 0.929 . S
C69 C70 1.398 . S
C69 C71 1.396 . S
C70 C69 1.398 . S
C70 C74 1.407 . S
C71 C69 1.396 . S
C71 C72 1.394 . S
C72 H67 0.929 . S
C72 C71 1.394 . S
C72 C73 1.382 . S
C73 C72 1.382 . S
C73 C74 1.392 . S
C73 N75 1.420 . S
C74 H68 0.930 . S
C74 C70 1.407 . S
C74 C73 1.392 . S
N75 C73 1.420 . S
N75 C76 1.244 . S
C76 N75 1.244 . S
H77 C80 0.929 . S
H78 C83 0.929 . S
H79 C85 0.930 . S
C80 H77 0.929 . S
C80 C81 1.398 . S
C80 C82 1.396 . S
C81 C80 1.398 . S
C81 C85 1.407 . S
C82 C80 1.396 . S
C82 C83 1.394 . S
C83 H78 0.929 . S
C83 C82 1.394 . S
C83 C84 1.382 . S
C84 C83 1.382 . S
C84 C85 1.392 . S
C84 N86 1.420 . S
C85 H79 0.930 . S
C85 C81 1.407 . S
C85 C84 1.392 . S
N86 C84 1.420 . S
N86 C87 1.244 . S
C87 N86 1.244 . S
Nd88 C90 2.836 1_545 S
Nd88 O108 2.500 1_445 S
Nd88 O109 2.492 1_545 S
Nd88 O110 2.487 . S
Nd88 O111 2.682 . S
Nd88 O112 2.410 1_545 S
Nd88 O117 2.414 1_455 S
Nd88 O119 2.424 . S
Nd89 C99 2.836 1_556 S
Nd89 O111 2.414 . S
Nd89 O113 2.424 1_545 S
Nd89 O114 2.500 . S
Nd89 O115 2.492 1_456 S
Nd89 O116 2.487 1_455 S
Nd89 O117 2.682 1_455 S
Nd89 O118 2.388 1_455 S
C90 Nd88 2.836 1_565 S
C90 C91 1.498 1_455 S
C90 O108 1.258 1_455 S
C90 O109 1.239 . S
C91 C90 1.498 1_655 S
C91 C92 1.377 . S
C91 C96 1.396 1_655 S
C92 C91 1.377 . S
C92 C93 1.392 . S
C92 H120 0.930 . S
C93 C92 1.392 . S
C93 C94 1.398 . S
C93 H121 0.929 . S
C94 C93 1.398 . S
C94 C95 1.352 1_655 S
C95 C94 1.352 1_455 S
C95 C96 1.384 . S
C95 H122 0.930 . S
C96 C91 1.396 1_455 S
C96 C95 1.384 . S
C96 H123 0.929 . S
C97 O110 1.241 . S
C97 O111 1.273 . S
C98 O112 1.251 . S
C98 O113 1.268 . S
C99 Nd89 2.836 1_554 S
C99 C100 1.498 . S
C99 O114 1.258 1_554 S
C99 O115 1.239 1_455 S
C100 C99 1.498 . S
C100 C101 1.366 . S
C100 C105 1.404 1_455 S
C101 C100 1.366 . S
C101 C102 1.392 . S
C101 H124 0.930 1_554 S
C102 C101 1.392 . S
C102 C103 1.398 . S
C102 H125 0.929 . S
C103 C102 1.398 . S
C103 C104 1.352 . S
C104 C103 1.352 . S
C104 C105 1.384 1_455 S
C104 H126 0.930 1_455 S
C105 C100 1.404 1_655 S
C105 C104 1.384 1_655 S
C105 H127 0.932 . S
C106 O116 1.241 . S
C106 O117 1.273 . S
C107 O118 1.242 1_455 S
C107 O119 1.268 . S
O108 Nd88 2.500 1_665 S
O108 C90 1.258 1_655 S
O109 Nd88 2.492 1_565 S
O109 C90 1.239 . S
O110 Nd88 2.487 . S
O110 C97 1.241 . S
O111 Nd88 2.682 . S
O111 Nd89 2.414 . S
O111 C97 1.273 . S
O112 Nd88 2.410 1_565 S
O112 C98 1.251 . S
O113 Nd89 2.424 1_565 S
O113 C98 1.268 . S
O114 Nd89 2.500 . S
O114 C99 1.258 1_556 S
O115 Nd89 2.492 1_654 S
O115 C99 1.239 1_655 S
O116 Nd89 2.487 1_655 S
O116 C106 1.241 . S
O117 Nd88 2.414 1_655 S
O117 Nd89 2.682 1_655 S
O117 C106 1.273 . S
O118 Nd89 2.388 1_655 S
O118 C107 1.242 1_655 S
O119 Nd88 2.424 . S
O119 C107 1.268 . S
H120 C92 0.930 . S
H121 C93 0.929 . S
H122 C95 0.930 . S
H123 C96 0.929 . S
H124 C101 0.930 1_556 S
H125 C102 0.929 . S
H126 C104 0.930 1_655 S
H127 C105 0.932 . S
Nd128 C130 2.836 1_545 S
Nd128 O148 2.500 1_545 S
Nd128 O149 2.492 . S
Nd128 O150 2.487 . S
Nd128 O151 2.682 . S
Nd128 O152 2.410 . S
Nd128 O157 2.414 1_545 S
Nd128 O159 2.424 . S
Nd129 C139 2.836 1_556 S
Nd129 O151 2.414 . S
Nd129 O153 2.424 . S
Nd129 O154 2.500 . S
Nd129 O155 2.492 1_556 S
Nd129 O156 2.487 1_545 S
Nd129 O157 2.682 1_545 S
Nd129 O158 2.410 . S
C130 Nd128 2.836 1_565 S
C130 C131 1.498 . S
C130 O148 1.258 . S
C130 O149 1.239 1_565 S
C131 C130 1.498 . S
C131 C132 1.366 . S
C131 C136 1.407 . S
C132 C131 1.366 . S
C132 C133 1.392 . S
C132 H160 0.930 . S
C133 C132 1.392 . S
C133 C134 1.398 . S
C133 H161 0.929 . S
C134 C133 1.398 . S
C134 C135 1.352 . S
C135 C134 1.352 . S
C135 C136 1.384 . S
C135 H162 0.930 . S
C136 C131 1.407 . S
C136 C135 1.384 . S
C136 H163 0.929 1_565 S
C137 O150 1.241 . S
C137 O151 1.273 . S
C138 O152 1.251 . S
C138 O153 1.268 . S
C139 Nd129 2.836 1_554 S
C139 C140 1.498 . S
C139 O154 1.258 1_554 S
C139 O155 1.239 . S
C140 C139 1.498 . S
C140 C141 1.366 . S
C140 C145 1.407 . S
C141 C140 1.366 . S
C141 C142 1.392 . S
C141 H164 0.930 1_554 S
C142 C141 1.392 . S
C142 C143 1.398 . S
C142 H165 0.929 . S
C143 C142 1.398 . S
C143 C144 1.352 . S
C144 C143 1.352 . S
C144 C145 1.384 . S
C144 H166 0.930 . S
C145 C140 1.407 . S
C145 C144 1.384 . S
C145 H167 0.929 . S
C146 O156 1.241 . S
C146 O157 1.273 . S
C147 O158 1.251 . S
C147 O159 1.268 . S
O148 Nd128 2.500 1_565 S
O148 C130 1.258 . S
O149 Nd128 2.492 . S
O149 C130 1.239 1_545 S
O150 Nd128 2.487 . S
O150 C137 1.241 . S
O151 Nd128 2.682 . S
O151 Nd129 2.414 . S
O151 C137 1.273 . S
O152 Nd128 2.410 . S
O152 C138 1.251 . S
O153 Nd129 2.424 . S
O153 C138 1.268 . S
O154 Nd129 2.500 . S
O154 C139 1.258 1_556 S
O155 Nd129 2.492 1_554 S
O155 C139 1.239 . S
O156 Nd129 2.487 1_565 S
O156 C146 1.241 . S
O157 Nd128 2.414 1_565 S
O157 Nd129 2.682 1_565 S
O157 C146 1.273 . S
O158 Nd129 2.410 . S
O158 C147 1.251 . S
O159 Nd128 2.424 . S
O159 C147 1.268 . S
H160 C132 0.930 . S
H161 C133 0.929 . S
H162 C135 0.930 . S
H163 C136 0.929 1_545 S
H164 C141 0.930 1_556 S
H165 C142 0.929 . S
H166 C144 0.930 . S
H167 C145 0.929 . S
Nd168 C170 2.836 . S
Nd168 O188 2.500 . S
Nd168 O189 2.492 . S
Nd168 O190 2.487 . S
Nd168 O191 2.682 . S
Nd168 O192 2.410 . S
Nd168 O197 2.414 . S
Nd168 O199 2.424 . S
Nd169 C179 2.836 . S
Nd169 O191 2.414 . S
Nd169 O193 2.424 . S
Nd169 O194 2.500 . S
Nd169 O195 2.492 . S
Nd169 O196 2.487 . S
Nd169 O197 2.682 . S
Nd169 O198 2.410 . S
C170 Nd168 2.836 . S
C170 C171 1.497 . S
C170 O188 1.258 . S
C170 O189 1.239 . S
C171 C170 1.497 . S
C171 C172 1.366 . S
C171 C176 1.408 1_556 S
C172 C171 1.366 . S
C172 C173 1.392 1_556 S
C172 H200 0.930 . S
C173 C172 1.392 1_554 S
C173 C174 1.398 . S
C173 H201 0.929 1_554 S
C174 C173 1.398 . S
C174 C175 1.352 . S
C175 C174 1.352 . S
C175 C176 1.384 . S
C175 H202 0.930 . S
C176 C171 1.408 1_554 S
C176 C175 1.384 . S
C176 H203 0.929 . S
C177 O190 1.241 . S
C177 O191 1.273 . S
C178 O192 1.251 . S
C178 O193 1.268 . S
C179 Nd169 2.836 . S
C179 C180 1.498 . S
C179 O194 1.258 . S
C179 O195 1.239 . S
C180 C179 1.498 . S
C180 C181 1.366 . S
C180 C185 1.407 . S
C181 C180 1.366 . S
C181 C182 1.392 . S
C181 H204 0.930 . S
C182 C181 1.392 . S
C182 C183 1.398 . S
C182 H205 0.929 . S
C183 C182 1.398 . S
C183 C184 1.352 . S
C184 C183 1.352 . S
C184 C185 1.384 . S
C184 H206 0.930 . S
C185 C180 1.407 . S
C185 C184 1.384 . S
C185 H207 0.929 . S
C186 O196 1.241 . S
C186 O197 1.273 . S
C187 O198 1.251 . S
C187 O199 1.268 . S
O188 Nd168 2.500 . S
O188 C170 1.258 . S
O189 Nd168 2.492 . S
O189 C170 1.239 . S
O190 Nd168 2.487 . S
O190 C177 1.241 . S
O191 Nd168 2.682 . S
O191 Nd169 2.414 . S
O191 C177 1.273 . S
O192 Nd168 2.410 . S
O192 C178 1.251 . S
O193 Nd169 2.424 . S
O193 C178 1.268 . S
O194 Nd169 2.500 . S
O194 C179 1.258 . S
O195 Nd169 2.492 . S
O195 C179 1.239 . S
O196 Nd169 2.487 . S
O196 C186 1.241 . S
O197 Nd168 2.414 . S
O197 Nd169 2.682 . S
O197 C186 1.273 . S
O198 Nd169 2.410 . S
O198 C187 1.251 . S
O199 Nd168 2.424 . S
O199 C187 1.268 . S
H200 C172 0.930 . S
H201 C173 0.929 1_556 S
H202 C175 0.930 . S
H203 C176 0.929 . S
H204 C181 0.930 . S
H205 C182 0.929 . S
H206 C184 0.930 . S
H207 C185 0.929 . S
Nd208 C210 2.836 1_455 S
Nd208 O228 2.500 1_455 S
Nd208 O229 2.492 1_455 S
Nd208 O230 2.487 1_455 S
Nd208 O231 2.682 . S
Nd208 O232 2.410 1_455 S
Nd208 O237 2.414 . S
Nd208 O239 2.424 . S
Nd209 C219 2.836 1_556 S
Nd209 O231 2.414 . S
Nd209 O233 2.424 1_455 S
Nd209 O234 2.500 1_556 S
Nd209 O235 2.492 1_556 S
Nd209 O236 2.487 . S
Nd209 O237 2.682 . S
Nd209 O238 2.410 . S
C210 Nd208 2.836 1_655 S
C210 C211 1.498 . S
C210 O228 1.258 . S
C210 O229 1.239 . S
C211 C210 1.498 . S
C211 C212 1.366 . S
C211 C216 1.407 . S
C212 C211 1.366 . S
C212 C213 1.392 . S
C212 H240 0.930 . S
C213 C212 1.392 . S
C213 C214 1.398 . S
C213 H241 0.929 . S
C214 C213 1.398 . S
C214 C215 1.352 . S
C215 C214 1.352 . S
C215 C216 1.384 . S
C215 H242 0.930 . S
C216 C211 1.407 . S
C216 C215 1.384 . S
C216 H243 0.929 . S
C217 O230 1.241 1_455 S
C217 O231 1.273 . S
C218 O232 1.251 . S
C218 O233 1.268 . S
C219 Nd209 2.836 1_554 S
C219 C220 1.498 . S
C219 O234 1.258 . S
C219 O235 1.239 . S
C220 C219 1.498 . S
C220 C221 1.366 . S
C220 C225 1.407 . S
C221 C220 1.366 . S
C221 C222 1.392 . S
C221 H244 0.930 . S
C222 C221 1.392 . S
C222 C223 1.398 . S
C222 H245 0.929 . S
C223 C222 1.398 . S
C223 C224 1.352 . S
C224 C223 1.352 . S
C224 C225 1.384 . S
C224 H246 0.930 . S
C225 C220 1.407 . S
C225 C224 1.384 . S
C225 H247 0.929 . S
C226 O236 1.241 . S
C226 O237 1.273 . S
C227 O238 1.251 . S
C227 O239 1.268 . S
O228 Nd208 2.500 1_655 S
O228 C210 1.258 . S
O229 Nd208 2.492 1_655 S
O229 C210 1.239 . S
O230 Nd208 2.487 1_655 S
O230 C217 1.241 1_655 S
O231 Nd208 2.682 . S
O231 Nd209 2.414 . S
O231 C217 1.273 . S
O232 Nd208 2.410 1_655 S
O232 C218 1.251 . S
O233 Nd209 2.424 1_655 S
O233 C218 1.268 . S
O234 Nd209 2.500 1_554 S
O234 C219 1.258 . S
O235 Nd209 2.492 1_554 S
O235 C219 1.239 . S
O236 Nd209 2.487 . S
O236 C226 1.241 . S
O237 Nd208 2.414 . S
O237 Nd209 2.682 . S
O237 C226 1.273 . S
O238 Nd209 2.410 . S
O238 C227 1.251 . S
O239 Nd208 2.424 . S
O239 C227 1.268 . S
H240 C212 0.930 . S
H241 C213 0.929 . S
H242 C215 0.930 . S
H243 C216 0.929 . S
H244 C221 0.930 . S
H245 C222 0.929 . S
H246 C224 0.930 . S
H247 C225 0.929 . S
H248 C266 0.951 . S
H249 C268 0.951 . S
H250 C270 0.950 . S
H251 C271 0.950 . S
H252 C273 0.950 . S
H253 C276 0.950 . S
H254 C277 0.950 . S
H255 C279 0.950 . S
H256 C280 0.950 . S
H257 C281 0.951 . S
H258 C283 0.951 . S
H259 C285 0.950 . S
H260 C286 0.950 . S
H261 C288 0.950 . S
H262 C291 0.950 . S
H263 C292 0.950 . S
H264 C294 0.950 . S
H265 C295 0.950 . S
C266 H248 0.951 . S
C266 C267 1.366 . S
C266 C268 1.388 . S
C267 C266 1.366 . S
C267 C271 1.385 . S
C268 H249 0.951 . S
C268 C266 1.388 . S
C268 C269 1.366 . S
C269 C268 1.366 . S
C269 C270 1.414 . S
C269 C272 1.499 . S
C270 H250 0.950 . S
C270 C269 1.414 . S
C270 C271 1.374 . S
C271 H251 0.950 . S
C271 C267 1.385 . S
C271 C270 1.374 . S
C272 C269 1.499 . S
C272 C273 1.373 . S
C272 C274 1.389 . S
C273 H252 0.950 . S
C273 C272 1.373 . S
C273 C289 1.377 . S
C274 C272 1.389 . S
C274 C275 1.524 . S
C274 C288 1.377 . S
C275 C274 1.524 . S
C275 C276 1.397 . S
C275 C280 1.363 . S
C276 H253 0.950 . S
C276 C275 1.397 . S
C276 C277 1.334 . S
C277 H254 0.950 . S
C277 C276 1.334 . S
C277 C278 1.287 . S
C278 C277 1.287 . S
C278 C279 1.524 . S
C278 H297 0.913 . S
C279 H255 0.950 . S
C279 C278 1.524 . S
C279 C280 1.415 . S
C280 H256 0.950 . S
C280 C275 1.363 . S
C280 C279 1.415 . S
C281 H257 0.951 . S
C281 C282 1.366 . S
C281 C283 1.388 . S
C282 C281 1.366 . S
C282 C286 1.385 . S
C283 H258 0.951 . S
C283 C281 1.388 . S
C283 C284 1.366 . S
C284 C283 1.366 . S
C284 C285 1.414 . S
C284 C287 1.499 . S
C285 H259 0.950 . S
C285 C284 1.414 . S
C285 C286 1.374 . S
C286 H260 0.950 . S
C286 C282 1.385 . S
C286 C285 1.374 . S
C287 C284 1.499 . S
C287 C288 1.373 . S
C287 C289 1.389 . S
C288 H261 0.950 . S
C288 C274 1.377 . S
C288 C287 1.373 . S
C289 C273 1.377 . S
C289 C287 1.389 . S
C289 C290 1.524 . S
C290 C289 1.524 . S
C290 C291 1.397 . S
C290 C295 1.363 . S
C291 H262 0.950 . S
C291 C290 1.397 . S
C291 C292 1.334 1_545 S
C292 H263 0.950 . S
C292 C291 1.334 1_565 S
C292 C293 1.287 . S
C293 C292 1.287 . S
C293 C294 1.524 . S
C293 H296 0.999 . S
C294 H264 0.950 . S
C294 C293 1.524 . S
C294 C295 1.415 1_565 S
C295 H265 0.950 . S
C295 C290 1.363 . S
C295 C294 1.415 1_545 S
H296 C293 0.999 . S
H297 C278 0.913 . S
H298 C316 0.951 . S
H299 C318 0.951 . S
H300 C320 0.950 . S
H301 C321 0.950 . S
H302 C323 0.950 . S
H303 C326 0.950 . S
H304 C327 0.950 . S
H305 C329 0.950 . S
H306 C330 0.950 . S
H307 C331 0.951 . S
H308 C333 0.951 . S
H309 C335 0.950 . S
H310 C336 0.950 . S
H311 C338 0.950 . S
H312 C341 0.950 . S
H313 C342 0.950 . S
H314 C344 0.950 . S
H315 C345 0.950 . S
C316 H298 0.951 . S
C316 C317 1.366 . S
C316 C318 1.388 . S
C317 C316 1.366 . S
C317 C321 1.385 . S
C318 H299 0.951 . S
C318 C316 1.388 . S
C318 C319 1.366 . S
C319 C318 1.366 . S
C319 C320 1.414 . S
C319 C322 1.499 . S
C320 H300 0.950 . S
C320 C319 1.414 . S
C320 C321 1.374 . S
C321 H301 0.950 . S
C321 C317 1.385 . S
C321 C320 1.374 . S
C322 C319 1.499 . S
C322 C323 1.373 . S
C322 C324 1.389 . S
C323 H302 0.950 . S
C323 C322 1.373 . S
C323 C339 1.377 . S
C324 C322 1.389 . S
C324 C325 1.524 . S
C324 C338 1.377 . S
C325 C324 1.524 . S
C325 C326 1.397 . S
C325 C330 1.363 . S
C326 H303 0.950 . S
C326 C325 1.397 . S
C326 C327 1.334 . S
C327 H304 0.950 . S
C327 C326 1.334 . S
C327 C328 1.287 . S
C328 C327 1.287 . S
C328 C329 1.524 . S
C328 H347 0.913 . S
C329 H305 0.950 . S
C329 C328 1.524 . S
C329 C330 1.415 . S
C330 H306 0.950 . S
C330 C325 1.363 . S
C330 C329 1.415 . S
C331 H307 0.951 . S
C331 C332 1.366 . S
C331 C333 1.388 . S
C332 C331 1.366 . S
C332 C336 1.385 . S
C333 H308 0.951 . S
C333 C331 1.388 . S
C333 C334 1.366 . S
C334 C333 1.366 . S
C334 C335 1.414 . S
C334 C337 1.499 . S
C335 H309 0.950 . S
C335 C334 1.414 . S
C335 C336 1.374 . S
C336 H310 0.950 . S
C336 C332 1.385 . S
C336 C335 1.374 . S
C337 C334 1.499 . S
C337 C338 1.373 . S
C337 C339 1.389 . S
C338 H311 0.950 . S
C338 C324 1.377 . S
C338 C337 1.373 . S
C339 C323 1.377 . S
C339 C337 1.389 . S
C339 C340 1.524 . S
C340 C339 1.524 . S
C340 C341 1.397 . S
C340 C345 1.363 . S
C341 H312 0.950 . S
C341 C340 1.397 . S
C341 C342 1.334 . S
C342 H313 0.950 . S
C342 C341 1.334 . S
C342 C343 1.287 . S
C343 C342 1.287 . S
C343 C344 1.524 . S
C343 H346 0.999 . S
C344 H314 0.950 . S
C344 C343 1.524 . S
C344 C345 1.415 . S
C345 H315 0.950 . S
C345 C340 1.363 . S
C345 C344 1.415 . S
H346 C343 0.999 . S
H347 C328 0.913 . S
H348 C366 0.951 . S
H349 C368 0.951 . S
H350 C370 0.950 . S
H351 C371 0.950 . S
H352 C373 0.950 . S
H353 C376 0.950 . S
H354 C377 0.950 . S
H355 C379 0.950 . S
H356 C380 0.950 . S
H357 C381 0.951 . S
H358 C383 0.951 . S
H359 C385 0.950 . S
H360 C386 0.950 . S
H361 C388 0.950 . S
H362 C391 0.950 . S
H363 C392 0.950 . S
H364 C394 0.950 . S
H365 C395 0.950 . S
C366 H348 0.951 . S
C366 C367 1.366 . S
C366 C368 1.388 . S
C367 C366 1.366 . S
C367 C371 1.385 . S
C368 H349 0.951 . S
C368 C366 1.388 . S
C368 C369 1.366 . S
C369 C368 1.366 . S
C369 C370 1.414 . S
C369 C372 1.499 . S
C370 H350 0.950 . S
C370 C369 1.414 . S
C370 C371 1.374 . S
C371 H351 0.950 . S
C371 C367 1.385 . S
C371 C370 1.374 . S
C372 C369 1.499 . S
C372 C373 1.373 . S
C372 C374 1.389 . S
C373 H352 0.950 . S
C373 C372 1.373 . S
C373 C389 1.377 . S
C374 C372 1.389 . S
C374 C375 1.524 . S
C374 C388 1.377 . S
C375 C374 1.524 . S
C375 C376 1.397 . S
C375 C380 1.363 . S
C376 H353 0.950 . S
C376 C375 1.397 . S
C376 C377 1.334 . S
C377 H354 0.950 . S
C377 C376 1.334 . S
C377 C378 1.287 . S
C378 C377 1.287 . S
C378 C379 1.524 . S
C378 H397 0.913 . S
C379 H355 0.950 . S
C379 C378 1.524 . S
C379 C380 1.415 . S
C380 H356 0.950 . S
C380 C375 1.363 . S
C380 C379 1.415 . S
C381 H357 0.951 . S
C381 C382 1.366 . S
C381 C383 1.388 . S
C382 C381 1.366 . S
C382 C386 1.385 . S
C383 H358 0.951 . S
C383 C381 1.388 . S
C383 C384 1.366 . S
C384 C383 1.366 . S
C384 C385 1.414 . S
C384 C387 1.499 . S
C385 H359 0.950 . S
C385 C384 1.414 . S
C385 C386 1.374 . S
C386 H360 0.950 . S
C386 C382 1.385 . S
C386 C385 1.374 . S
C387 C384 1.499 . S
C387 C388 1.373 . S
C387 C389 1.389 . S
C388 H361 0.950 . S
C388 C374 1.377 . S
C388 C387 1.373 . S
C389 C373 1.377 . S
C389 C387 1.389 . S
C389 C390 1.524 . S
C390 C389 1.524 . S
C390 C391 1.397 . S
C390 C395 1.363 . S
C391 H362 0.950 . S
C391 C390 1.397 . S
C391 C392 1.334 . S
C392 H363 0.950 . S
C392 C391 1.334 . S
C392 C393 1.287 . S
C393 C392 1.287 . S
C393 C394 1.524 . S
C393 H396 0.999 . S
C394 H364 0.950 . S
C394 C393 1.524 . S
C394 C395 1.415 . S
C395 H365 0.950 . S
C395 C390 1.363 . S
C395 C394 1.415 . S
H396 C393 0.999 . S
H397 C378 0.913 . S
H398 C416 0.951 . S
H399 C418 0.951 . S
H400 C420 0.950 . S
H401 C421 0.950 . S
H402 C423 0.950 . S
H403 C426 0.950 1_455 S
H404 C427 0.950 . S
H405 C429 0.950 . S
H406 C430 0.950 . S
H407 C431 0.951 . S
H408 C433 0.951 . S
H409 C435 0.950 . S
H410 C436 0.950 . S
H411 C438 0.950 . S
H412 C441 0.950 . S
H413 C442 0.950 . S
H414 C444 0.950 . S
H415 C445 0.950 . S
C416 H398 0.951 . S
C416 C417 1.366 1_655 S
C416 C418 1.388 . S
C417 C416 1.366 1_455 S
C417 C421 1.385 . S
C418 H399 0.951 . S
C418 C416 1.388 . S
C418 C419 1.366 1_655 S
C419 C418 1.366 1_455 S
C419 C420 1.414 . S
C419 C422 1.499 . S
C420 H400 0.950 . S
C420 C419 1.414 . S
C420 C421 1.374 . S
C421 H401 0.950 . S
C421 C417 1.385 . S
C421 C420 1.374 . S
C422 C419 1.499 . S
C422 C423 1.373 . S
C422 C424 1.389 1_455 S
C423 H402 0.950 . S
C423 C422 1.373 . S
C423 C439 1.377 . S
C424 C422 1.389 1_655 S
C424 C425 1.524 . S
C424 C438 1.377 . S
C425 C424 1.524 . S
C425 C426 1.397 . S
C425 C430 1.363 . S
C426 H403 0.950 1_655 S
C426 C425 1.397 . S
C426 C427 1.334 . S
C427 H404 0.950 . S
C427 C426 1.334 . S
C427 C428 1.287 . S
C428 C427 1.287 . S
C428 C429 1.524 . S
C428 H447 0.913 . S
C429 H405 0.950 . S
C429 C428 1.524 . S
C429 C430 1.415 . S
C430 H406 0.950 . S
C430 C425 1.363 . S
C430 C429 1.415 . S
C431 H407 0.951 . S
C431 C432 1.366 . S
C431 C433 1.388 . S
C432 C431 1.366 . S
C432 C436 1.385 1_455 S
C433 H408 0.951 . S
C433 C431 1.388 . S
C433 C434 1.366 . S
C434 C433 1.366 . S
C434 C435 1.414 1_455 S
C434 C437 1.499 . S
C435 H409 0.950 . S
C435 C434 1.414 1_655 S
C435 C436 1.374 . S
C436 H410 0.950 . S
C436 C432 1.385 1_655 S
C436 C435 1.374 . S
C437 C434 1.499 . S
C437 C438 1.373 1_455 S
C437 C439 1.389 . S
C438 H411 0.950 . S
C438 C424 1.377 . S
C438 C437 1.373 1_655 S
C439 C423 1.377 . S
C439 C437 1.389 . S
C439 C440 1.524 . S
C440 C439 1.524 . S
C440 C441 1.397 . S
C440 C445 1.363 . S
C441 H412 0.950 . S
C441 C440 1.397 . S
C441 C442 1.334 . S
C442 H413 0.950 . S
C442 C441 1.334 . S
C442 C443 1.287 . S
C443 C442 1.287 . S
C443 C444 1.524 . S
C443 H446 0.999 . S
C444 H414 0.950 . S
C444 C443 1.524 . S
C444 C445 1.415 . S
C445 H415 0.950 . S
C445 C440 1.363 . S
C445 C444 1.415 . S
H446 C443 0.999 . S
H447 C428 0.913 . S
H448 C466 0.951 . S
H449 C468 0.951 . S
H450 C470 0.950 . S
H451 C471 0.950 . S
H452 C473 0.950 . S
H453 C476 0.950 . S
H454 C477 0.950 . S
H455 C479 0.950 . S
H456 C480 0.950 . S
H457 C481 0.951 1_545 S
H458 C483 0.951 . S
H459 C485 0.950 1_554 S
H460 C486 0.950 . S
H461 C488 0.950 . S
H462 C491 0.950 . S
H463 C492 0.950 . S
H464 C494 0.950 . S
H465 C495 0.950 . S
C466 H448 0.951 . S
C466 C467 1.366 . S
C466 C468 1.388 . S
C467 C466 1.366 . S
C467 C471 1.385 1_554 S
C468 H449 0.951 . S
C468 C466 1.388 . S
C468 C469 1.366 . S
C469 C468 1.366 . S
C469 C470 1.414 1_554 S
C469 C472 1.499 1_554 S
C470 H450 0.950 . S
C470 C469 1.414 1_556 S
C470 C471 1.374 . S
C471 H451 0.950 . S
C471 C467 1.385 1_556 S
C471 C470 1.374 . S
C472 C469 1.499 1_556 S
C472 C473 1.373 . S
C472 C474 1.389 1_556 S
C473 H452 0.950 . S
C473 C472 1.373 . S
C473 C489 1.377 . S
C474 C472 1.389 1_554 S
C474 C475 1.524 . S
C474 C488 1.377 . S
C475 C474 1.524 . S
C475 C476 1.397 . S
C475 C480 1.363 . S
C476 H453 0.950 . S
C476 C475 1.397 . S
C476 C477 1.334 . S
C477 H454 0.950 . S
C477 C476 1.334 . S
C477 C478 1.287 . S
C478 C477 1.287 . S
C478 C479 1.524 . S
C478 H497 0.913 . S
C479 H455 0.950 . S
C479 C478 1.524 . S
C479 C480 1.415 . S
C480 H456 0.950 . S
C480 C475 1.363 . S
C480 C479 1.415 . S
C481 H457 0.951 1_565 S
C481 C482 1.366 . S
C481 C483 1.388 . S
C482 C481 1.366 . S
C482 C486 1.385 . S
C483 H458 0.951 . S
C483 C481 1.388 . S
C483 C484 1.366 . S
C484 C483 1.366 . S
C484 C485 1.414 . S
C484 C487 1.499 . S
C485 H459 0.950 1_556 S
C485 C484 1.414 . S
C485 C486 1.374 . S
C486 H460 0.950 . S
C486 C482 1.385 . S
C486 C485 1.374 . S
C487 C484 1.499 . S
C487 C488 1.373 1_556 S
C487 C489 1.389 . S
C488 H461 0.950 . S
C488 C474 1.377 . S
C488 C487 1.373 1_554 S
C489 C473 1.377 . S
C489 C487 1.389 . S
C489 C490 1.524 . S
C490 C489 1.524 . S
C490 C491 1.397 . S
C490 C495 1.363 . S
C491 H462 0.950 . S
C491 C490 1.397 . S
C491 C492 1.334 . S
C492 H463 0.950 . S
C492 C491 1.334 . S
C492 C493 1.287 . S
C493 C492 1.287 . S
C493 C494 1.524 . S
C493 H496 0.999 . S
C494 H464 0.950 . S
C494 C493 1.524 . S
C494 C495 1.415 . S
C495 H465 0.950 . S
C495 C490 1.363 . S
C495 C494 1.415 . S
H496 C493 0.999 . S
H497 C478 0.913 . S
H498 C516 0.951 . S
H499 C518 0.951 . S
H500 C520 0.950 . S
H501 C521 0.950 . S
H502 C523 0.950 . S
H503 C526 0.950 . S
H504 C527 0.950 . S
H505 C529 0.950 . S
H506 C530 0.950 . S
H507 C531 0.951 . S
H508 C533 0.951 . S
H509 C535 0.950 . S
H510 C536 0.950 . S
H511 C538 0.950 . S
H512 C541 0.950 . S
H513 C542 0.950 . S
H514 C544 0.950 . S
H515 C545 0.950 . S
C516 H498 0.951 . S
C516 C517 1.366 . S
C516 C518 1.388 . S
C517 C516 1.366 . S
C517 C521 1.385 . S
C518 H499 0.951 . S
C518 C516 1.388 . S
C518 C519 1.366 . S
C519 C518 1.366 . S
C519 C520 1.414 . S
C519 C522 1.499 . S
C520 H500 0.950 . S
C520 C519 1.414 . S
C520 C521 1.374 . S
C521 H501 0.950 . S
C521 C517 1.385 . S
C521 C520 1.374 . S
C522 C519 1.499 . S
C522 C523 1.373 . S
C522 C524 1.389 . S
C523 H502 0.950 . S
C523 C522 1.373 . S
C523 C539 1.377 . S
C524 C522 1.389 . S
C524 C525 1.524 . S
C524 C538 1.377 . S
C525 C524 1.524 . S
C525 C526 1.397 . S
C525 C530 1.363 . S
C526 H503 0.950 . S
C526 C525 1.397 . S
C526 C527 1.334 . S
C527 H504 0.950 . S
C527 C526 1.334 . S
C527 C528 1.287 . S
C528 C527 1.287 . S
C528 C529 1.524 . S
C528 H547 0.913 . S
C529 H505 0.950 . S
C529 C528 1.524 . S
C529 C530 1.415 . S
C530 H506 0.950 . S
C530 C525 1.363 . S
C530 C529 1.415 . S
C531 H507 0.951 . S
C531 C532 1.366 . S
C531 C533 1.388 1_556 S
C532 C531 1.366 . S
C532 C536 1.385 . S
C533 H508 0.951 . S
C533 C531 1.388 1_554 S
C533 C534 1.366 . S
C534 C533 1.366 . S
C534 C535 1.414 . S
C534 C537 1.499 . S
C535 H509 0.950 . S
C535 C534 1.414 . S
C535 C536 1.374 1_554 S
C536 H510 0.950 . S
C536 C532 1.385 . S
C536 C535 1.374 1_556 S
C537 C534 1.499 . S
C537 C538 1.373 . S
C537 C539 1.389 . S
C538 H511 0.950 . S
C538 C524 1.377 . S
C538 C537 1.373 . S
C539 C523 1.377 . S
C539 C537 1.389 . S
C539 C540 1.524 . S
C540 C539 1.524 . S
C540 C541 1.397 . S
C540 C545 1.363 . S
C541 H512 0.950 . S
C541 C540 1.397 . S
C541 C542 1.334 . S
C542 H513 0.950 . S
C542 C541 1.334 . S
C542 C543 1.287 . S
C543 C542 1.287 . S
C543 C544 1.524 . S
C543 H546 0.999 . S
C544 H514 0.950 . S
C544 C543 1.524 . S
C544 C545 1.415 . S
C545 H515 0.950 . S
C545 C540 1.363 . S
C545 C544 1.415 . S
H546 C543 0.999 . S
H547 C528 0.913 . S
H548 C566 0.951 . S
H549 C568 0.951 . S
H550 C570 0.950 1_554 S
H551 C571 0.950 . S
H552 C573 0.950 . S
H553 C576 0.950 . S
H554 C577 0.950 . S
H555 C579 0.950 . S
H556 C580 0.950 . S
H557 C581 0.951 . S
H558 C583 0.951 . S
H559 C585 0.950 . S
H560 C586 0.950 . S
H561 C588 0.950 . S
H562 C591 0.950 . S
H563 C592 0.950 . S
H564 C594 0.950 . S
H565 C595 0.950 . S
C566 H548 0.951 . S
C566 C567 1.366 . S
C566 C568 1.388 . S
C567 C566 1.366 . S
C567 C571 1.385 1_556 S
C568 H549 0.951 . S
C568 C566 1.388 . S
C568 C569 1.366 . S
C569 C568 1.366 . S
C569 C570 1.414 . S
C569 C572 1.499 . S
C570 H550 0.950 1_556 S
C570 C569 1.414 . S
C570 C571 1.374 1_556 S
C571 H551 0.950 . S
C571 C567 1.385 1_554 S
C571 C570 1.374 1_554 S
C572 C569 1.499 . S
C572 C573 1.373 . S
C572 C574 1.389 . S
C573 H552 0.950 . S
C573 C572 1.373 . S
C573 C589 1.377 . S
C574 C572 1.389 . S
C574 C575 1.524 . S
C574 C588 1.377 . S
C575 C574 1.524 . S
C575 C576 1.397 . S
C575 C580 1.363 . S
C576 H553 0.950 . S
C576 C575 1.397 . S
C576 C577 1.334 . S
C577 H554 0.950 . S
C577 C576 1.334 . S
C577 C578 1.287 . S
C578 C577 1.287 . S
C578 C579 1.524 . S
C578 H597 0.913 . S
C579 H555 0.950 . S
C579 C578 1.524 . S
C579 C580 1.415 . S
C580 H556 0.950 . S
C580 C575 1.363 . S
C580 C579 1.415 . S
C581 H557 0.951 . S
C581 C582 1.366 . S
C581 C583 1.388 . S
C582 C581 1.366 . S
C582 C586 1.385 . S
C583 H558 0.951 . S
C583 C581 1.388 . S
C583 C584 1.366 . S
C584 C583 1.366 . S
C584 C585 1.414 . S
C584 C587 1.499 . S
C585 H559 0.950 . S
C585 C584 1.414 . S
C585 C586 1.374 . S
C586 H560 0.950 . S
C586 C582 1.385 . S
C586 C585 1.374 . S
C587 C584 1.499 . S
C587 C588 1.373 . S
C587 C589 1.389 . S
C588 H561 0.950 . S
C588 C574 1.377 . S
C588 C587 1.373 . S
C589 C573 1.377 . S
C589 C587 1.389 . S
C589 C590 1.524 . S
C590 C589 1.524 . S
C590 C591 1.397 . S
C590 C595 1.363 1_556 S
C591 H562 0.950 . S
C591 C590 1.397 . S
C591 C592 1.334 . S
C592 H563 0.950 . S
C592 C591 1.334 . S
C592 C593 1.288 . S
C593 C592 1.288 . S
C593 C594 1.523 1_556 S
C593 H596 0.999 1_556 S
C594 H564 0.950 . S
C594 C593 1.523 1_554 S
C594 C595 1.415 . S
C595 H565 0.950 . S
C595 C590 1.363 1_554 S
C595 C594 1.415 . S
H596 C593 0.999 1_554 S
H597 C578 0.913 . S
H598 C616 0.951 . S
H599 C618 0.951 . S
H600 C620 0.950 . S
H601 C621 0.950 . S
H602 C623 0.950 . S
H603 C626 0.950 1_655 S
H604 C627 0.950 1_655 S
H605 C629 0.950 . S
H606 C630 0.950 . S
H607 C631 0.951 . S
H608 C633 0.951 . S
H609 C635 0.950 . S
H610 C636 0.950 . S
H611 C638 0.950 . S
H612 C641 0.950 . S
H613 C642 0.950 . S
H614 C644 0.950 . S
H615 C645 0.950 . S
C616 H598 0.951 . S
C616 C617 1.366 1_455 S
C616 C618 1.388 . S
C617 C616 1.366 1_655 S
C617 C621 1.385 . S
C618 H599 0.951 . S
C618 C616 1.388 . S
C618 C619 1.398 . S
C619 C618 1.398 . S
C619 C620 1.374 1_455 S
C619 C622 1.510 . S
C620 H600 0.950 . S
C620 C619 1.374 1_655 S
C620 C621 1.374 . S
C621 H601 0.950 . S
C621 C617 1.385 . S
C621 C620 1.374 . S
C622 C619 1.510 . S
C622 C623 1.376 1_455 S
C622 C624 1.384 1_554 S
C623 H602 0.950 . S
C623 C622 1.376 1_655 S
C623 C639 1.377 . S
C624 C622 1.384 1_556 S
C624 C625 1.524 . S
C624 C638 1.377 . S
C625 C624 1.524 . S
C625 C626 1.397 . S
C625 C630 1.363 . S
C626 H603 0.950 1_455 S
C626 C625 1.397 . S
C626 C627 1.334 . S
C627 H604 0.950 1_455 S
C627 C626 1.334 . S
C627 C628 1.287 . S
C628 C627 1.287 . S
C628 C629 1.524 . S
C628 H647 0.913 . S
C629 H605 0.950 . S
C629 C628 1.524 . S
C629 C630 1.415 . S
C630 H606 0.950 . S
C630 C625 1.363 . S
C630 C629 1.415 . S
C631 H607 0.951 . S
C631 C632 1.366 1_655 S
C631 C633 1.388 . S
C632 C631 1.366 1_455 S
C632 C636 1.385 . S
C633 H608 0.951 . S
C633 C631 1.388 . S
C633 C634 1.366 1_655 S
C634 C633 1.366 1_455 S
C634 C635 1.414 . S
C634 C637 1.499 . S
C635 H609 0.950 . S
C635 C634 1.414 . S
C635 C636 1.374 . S
C636 H610 0.950 . S
C636 C632 1.385 . S
C636 C635 1.374 . S
C637 C634 1.499 . S
C637 C638 1.373 . S
C637 C639 1.389 1_456 S
C638 H611 0.950 . S
C638 C624 1.377 . S
C638 C637 1.373 . S
C639 C623 1.377 . S
C639 C637 1.389 1_654 S
C639 C640 1.524 . S
C640 C639 1.524 . S
C640 C641 1.397 1_655 S
C640 C645 1.363 . S
C641 H612 0.950 . S
C641 C640 1.397 1_455 S
C641 C642 1.334 . S
C642 H613 0.950 . S
C642 C641 1.334 . S
C642 C643 1.287 1_455 S
C643 C642 1.287 1_655 S
C643 C644 1.524 . S
C643 H646 0.999 . S
C644 H614 0.950 . S
C644 C643 1.524 . S
C644 C645 1.415 . S
C645 H615 0.950 . S
C645 C640 1.363 . S
C645 C644 1.415 . S
H646 C643 0.999 . S
H647 C628 0.913 . S
H648 C666 0.951 . S
H649 C668 0.951 . S
H650 C670 0.950 1_655 S
H651 C671 0.950 1_655 S
H652 C673 0.950 . S
H653 C676 0.950 . S
H654 C677 0.950 . S
H655 C679 0.950 . S
H656 C680 0.950 . S
H657 C681 0.951 . S
H658 C683 0.951 . S
H659 C685 0.950 . S
H660 C686 0.950 . S
H661 C688 0.950 . S
H662 C691 0.950 . S
H663 C692 0.950 . S
H664 C694 0.950 . S
H665 C695 0.950 . S
C666 H648 0.951 . S
C666 C667 1.366 . S
C666 C668 1.388 . S
C667 C666 1.366 . S
C667 C671 1.385 . S
C668 H649 0.951 . S
C668 C666 1.388 . S
C668 C669 1.366 . S
C669 C668 1.366 . S
C669 C670 1.414 . S
C669 C672 1.499 . S
C670 H650 0.950 1_455 S
C670 C669 1.414 . S
C670 C671 1.374 . S
C671 H651 0.950 1_455 S
C671 C667 1.385 . S
C671 C670 1.374 . S
C672 C669 1.499 . S
C672 C673 1.373 1_455 S
C672 C674 1.389 . S
C673 H652 0.950 . S
C673 C672 1.373 1_655 S
C673 C689 1.377 . S
C674 C672 1.389 . S
C674 C675 1.524 . S
C674 C688 1.377 . S
C675 C674 1.524 . S
C675 C676 1.397 . S
C675 C680 1.363 . S
C676 H653 0.950 . S
C676 C675 1.397 . S
C676 C677 1.334 . S
C677 H654 0.950 . S
C677 C676 1.334 . S
C677 C678 1.287 . S
C678 C677 1.287 . S
C678 C679 1.524 . S
C678 H697 0.913 . S
C679 H655 0.950 . S
C679 C678 1.524 . S
C679 C680 1.415 . S
C680 H656 0.950 . S
C680 C675 1.363 . S
C680 C679 1.415 . S
C681 H657 0.951 . S
C681 C682 1.366 1_655 S
C681 C683 1.388 . S
C682 C681 1.366 1_455 S
C682 C686 1.385 . S
C683 H658 0.951 . S
C683 C681 1.388 . S
C683 C684 1.366 1_655 S
C684 C683 1.366 1_455 S
C684 C685 1.414 . S
C684 C687 1.499 . S
C685 H659 0.950 . S
C685 C684 1.414 . S
C685 C686 1.374 . S
C686 H660 0.950 . S
C686 C682 1.385 . S
C686 C685 1.374 . S
C687 C684 1.499 . S
C687 C688 1.373 . S
C687 C689 1.389 1_455 S
C688 H661 0.950 . S
C688 C674 1.377 . S
C688 C687 1.373 . S
C689 C673 1.377 . S
C689 C687 1.389 1_655 S
C689 C690 1.524 . S
C690 C689 1.524 . S
C690 C691 1.397 . S
C690 C695 1.363 . S
C691 H662 0.950 . S
C691 C690 1.397 . S
C691 C692 1.334 . S
C692 H663 0.950 . S
C692 C691 1.334 . S
C692 C693 1.287 . S
C693 C692 1.287 . S
C693 C694 1.524 . S
C693 H696 0.999 . S
C694 H664 0.950 . S
C694 C693 1.524 . S
C694 C695 1.415 . S
C695 H665 0.950 . S
C695 C690 1.363 . S
C695 C694 1.415 . S
H696 C693 0.999 . S
H697 C678 0.913 . S
H698 C716 0.951 . S
H699 C718 0.951 . S
H700 C720 0.950 . S
H701 C721 0.950 . S
H702 C723 0.950 . S
H703 C726 0.950 . S
H704 C727 0.950 . S
H705 C729 0.950 1_565 S
H706 C730 0.950 . S
H707 C731 0.951 . S
H708 C733 0.951 . S
H709 C735 0.950 . S
H710 C736 0.950 . S
H711 C738 0.950 . S
H712 C741 0.950 . S
H713 C742 0.950 . S
H714 C744 0.950 . S
H715 C745 0.950 . S
C716 H698 0.951 . S
C716 C717 1.366 . S
C716 C718 1.388 . S
C717 C716 1.366 . S
C717 C721 1.385 . S
C718 H699 0.951 . S
C718 C716 1.388 . S
C718 C719 1.366 . S
C719 C718 1.366 . S
C719 C720 1.414 . S
C719 C722 1.499 . S
C720 H700 0.950 . S
C720 C719 1.414 . S
C720 C721 1.374 . S
C721 H701 0.950 . S
C721 C717 1.385 . S
C721 C720 1.374 . S
C722 C719 1.499 . S
C722 C723 1.373 . S
C722 C724 1.389 . S
C723 H702 0.950 . S
C723 C722 1.373 . S
C723 C739 1.377 . S
C724 C722 1.389 . S
C724 C725 1.524 . S
C724 C738 1.377 . S
C725 C724 1.524 . S
C725 C726 1.397 . S
C725 C730 1.363 . S
C726 H703 0.950 . S
C726 C725 1.397 . S
C726 C727 1.334 . S
C727 H704 0.950 . S
C727 C726 1.334 . S
C727 C728 1.287 . S
C728 C727 1.287 . S
C728 C729 1.524 . S
C728 H747 0.913 . S
C729 H705 0.950 1_545 S
C729 C728 1.524 . S
C729 C730 1.415 . S
C730 H706 0.950 . S
C730 C725 1.363 . S
C730 C729 1.415 . S
C731 H707 0.951 . S
C731 C732 1.366 . S
C731 C733 1.388 . S
C732 C731 1.366 . S
C732 C736 1.385 . S
C733 H708 0.951 . S
C733 C731 1.388 . S
C733 C734 1.366 . S
C734 C733 1.366 . S
C734 C735 1.414 . S
C734 C737 1.499 . S
C735 H709 0.950 . S
C735 C734 1.414 . S
C735 C736 1.374 . S
C736 H710 0.950 . S
C736 C732 1.385 . S
C736 C735 1.374 . S
C737 C734 1.499 . S
C737 C738 1.373 . S
C737 C739 1.389 . S
C738 H711 0.950 . S
C738 C724 1.377 . S
C738 C737 1.373 . S
C739 C723 1.377 . S
C739 C737 1.389 . S
C739 C740 1.524 . S
C740 C739 1.524 . S
C740 C741 1.397 . S
C740 C745 1.363 . S
C741 H712 0.950 . S
C741 C740 1.397 . S
C741 C742 1.334 . S
C742 H713 0.950 . S
C742 C741 1.334 . S
C742 C743 1.287 . S
C743 C742 1.287 . S
C743 C744 1.524 . S
C743 H746 0.999 . S
C744 H714 0.950 . S
C744 C743 1.524 . S
C744 C745 1.415 . S
C745 H715 0.950 . S
C745 C740 1.363 . S
C745 C744 1.415 . S
H746 C743 0.999 . S
H747 C728 0.913 . S
H748 C766 0.951 . S
H749 C768 0.951 . S
H750 C770 0.950 . S
H751 C771 0.950 . S
H752 C773 0.950 . S
H753 C776 0.950 . S
H754 C777 0.950 . S
H755 C779 0.950 . S
H756 C780 0.950 . S
H757 C781 0.951 . S
H758 C783 0.951 . S
H759 C785 0.950 . S
H760 C786 0.950 . S
H761 C788 0.950 . S
H762 C791 0.950 . S
H763 C792 0.950 . S
H764 C794 0.950 . S
H765 C795 0.950 . S
C766 H748 0.951 . S
C766 C767 1.366 . S
C766 C768 1.388 . S
C767 C766 1.366 . S
C767 C771 1.385 . S
C768 H749 0.951 . S
C768 C766 1.388 . S
C768 C769 1.366 . S
C769 C768 1.366 . S
C769 C770 1.414 . S
C769 C772 1.499 . S
C770 H750 0.950 . S
C770 C769 1.414 . S
C770 C771 1.374 . S
C771 H751 0.950 . S
C771 C767 1.385 . S
C771 C770 1.374 . S
C772 C769 1.499 . S
C772 C773 1.373 . S
C772 C774 1.389 . S
C773 H752 0.950 . S
C773 C772 1.373 . S
C773 C789 1.377 . S
C774 C772 1.389 . S
C774 C775 1.524 . S
C774 C788 1.377 . S
C775 C774 1.524 . S
C775 C776 1.397 . S
C775 C780 1.363 . S
C776 H753 0.950 . S
C776 C775 1.397 . S
C776 C777 1.334 . S
C777 H754 0.950 . S
C777 C776 1.334 . S
C777 C778 1.287 . S
C778 C777 1.287 . S
C778 C779 1.524 . S
C778 H797 0.913 . S
C779 H755 0.950 . S
C779 C778 1.524 . S
C779 C780 1.415 . S
C780 H756 0.950 . S
C780 C775 1.363 . S
C780 C779 1.415 . S
C781 H757 0.951 . S
C781 C782 1.366 . S
C781 C783 1.388 . S
C782 C781 1.366 . S
C782 C786 1.385 . S
C783 H758 0.951 . S
C783 C781 1.388 . S
C783 C784 1.366 . S
C784 C783 1.366 . S
C784 C785 1.414 . S
C784 C787 1.499 . S
C785 H759 0.950 . S
C785 C784 1.414 . S
C785 C786 1.374 . S
C786 H760 0.950 . S
C786 C782 1.385 . S
C786 C785 1.374 . S
C787 C784 1.499 . S
C787 C788 1.373 . S
C787 C789 1.389 . S
C788 H761 0.950 . S
C788 C774 1.377 . S
C788 C787 1.373 . S
C789 C773 1.377 . S
C789 C787 1.389 . S
C789 C790 1.524 . S
C790 C789 1.524 . S
C790 C791 1.397 . S
C790 C795 1.363 . S
C791 H762 0.950 . S
C791 C790 1.397 . S
C791 C792 1.334 . S
C792 H763 0.950 . S
C792 C791 1.334 . S
C792 C793 1.287 . S
C793 C792 1.287 . S
C793 C794 1.524 . S
C793 H796 0.999 . S
C794 H764 0.950 . S
C794 C793 1.524 . S
C794 C795 1.415 . S
C795 H765 0.950 . S
C795 C790 1.363 . S
C795 C794 1.415 . S
H796 C793 0.999 . S
H797 C778 0.913 . S
H798 C816 0.951 . S
H799 C818 0.951 . S
H800 C820 0.950 . S
H801 C821 0.950 . S
H802 C823 0.950 . S
H803 C826 0.950 . S
H804 C827 0.950 . S
H805 C829 0.950 . S
H806 C830 0.950 . S
H807 C831 0.951 . S
H808 C833 0.951 . S
H809 C835 0.950 . S
H810 C836 0.950 . S
H811 C838 0.950 . S
H812 C841 0.950 . S
H813 C842 0.950 . S
H814 C844 0.950 . S
H815 C845 0.950 . S
C816 H798 0.951 . S
C816 C817 1.366 . S
C816 C818 1.388 . S
C817 C816 1.366 . S
C817 C821 1.385 . S
C818 H799 0.951 . S
C818 C816 1.388 . S
C818 C819 1.366 . S
C819 C818 1.366 . S
C819 C820 1.414 . S
C819 C822 1.499 . S
C820 H800 0.950 . S
C820 C819 1.414 . S
C820 C821 1.374 . S
C821 H801 0.950 . S
C821 C817 1.385 . S
C821 C820 1.374 . S
C822 C819 1.499 . S
C822 C823 1.373 . S
C822 C824 1.389 . S
C823 H802 0.950 . S
C823 C822 1.373 . S
C823 C839 1.377 . S
C824 C822 1.389 . S
C824 C825 1.524 . S
C824 C838 1.377 . S
C825 C824 1.524 . S
C825 C826 1.397 . S
C825 C830 1.363 . S
C826 H803 0.950 . S
C826 C825 1.397 . S
C826 C827 1.334 . S
C827 H804 0.950 . S
C827 C826 1.334 . S
C827 C828 1.287 . S
C828 C827 1.287 . S
C828 C829 1.524 . S
C828 H847 0.913 . S
C829 H805 0.950 . S
C829 C828 1.524 . S
C829 C830 1.415 . S
C830 H806 0.950 . S
C830 C825 1.363 . S
C830 C829 1.415 . S
C831 H807 0.951 . S
C831 C832 1.366 . S
C831 C833 1.388 . S
C832 C831 1.366 . S
C832 C836 1.385 . S
C833 H808 0.951 . S
C833 C831 1.388 . S
C833 C834 1.366 . S
C834 C833 1.366 . S
C834 C835 1.414 . S
C834 C837 1.499 . S
C835 H809 0.950 . S
C835 C834 1.414 . S
C835 C836 1.374 . S
C836 H810 0.950 . S
C836 C832 1.385 . S
C836 C835 1.374 . S
C837 C834 1.499 . S
C837 C838 1.373 . S
C837 C839 1.389 . S
C838 H811 0.950 . S
C838 C824 1.377 . S
C838 C837 1.373 . S
C839 C823 1.377 . S
C839 C837 1.389 . S
C839 C840 1.524 . S
C840 C839 1.524 . S
C840 C841 1.397 . S
C840 C845 1.363 . S
C841 H812 0.950 . S
C841 C840 1.397 . S
C841 C842 1.334 1_556 S
C842 H813 0.950 . S
C842 C841 1.334 1_554 S
C842 C843 1.287 . S
C843 C842 1.287 . S
C843 C844 1.524 . S
C843 H846 0.999 . S
C844 H814 0.950 . S
C844 C843 1.524 . S
C844 C845 1.415 1_554 S
C845 H815 0.950 . S
C845 C840 1.363 . S
C845 C844 1.415 1_556 S
H846 C843 0.999 . S
H847 C828 0.913 . S
H848 C866 0.951 . S
H849 C868 0.951 . S
H850 C870 0.950 . S
H851 C871 0.950 . S
H852 C873 0.950 . S
H853 C876 0.950 1_655 S
H854 C877 0.950 . S
H855 C879 0.950 . S
H856 C880 0.950 . S
H857 C881 0.951 . S
H858 C883 0.951 . S
H859 C885 0.950 . S
H860 C886 0.950 . S
H861 C888 0.950 . S
H862 C891 0.950 1_455 S
H863 C892 0.950 . S
H864 C894 0.950 . S
H865 C895 0.950 . S
C866 H848 0.951 . S
C866 C867 1.366 1_455 S
C866 C868 1.388 . S
C867 C866 1.366 1_655 S
C867 C871 1.385 . S
C868 H849 0.951 . S
C868 C866 1.388 . S
C868 C869 1.370 1_455 S
C869 C868 1.370 1_655 S
C869 C870 1.410 . S
C869 C872 1.504 1_654 S
C870 H850 0.950 . S
C870 C869 1.410 . S
C870 C871 1.374 . S
C871 H851 0.950 . S
C871 C867 1.385 . S
C871 C870 1.374 . S
C872 C869 1.504 1_456 S
C872 C873 1.346 1_455 S
C872 C874 1.415 1_556 S
C873 H852 0.950 . S
C873 C872 1.346 1_655 S
C873 C889 1.377 . S
C874 C872 1.415 1_554 S
C874 C875 1.524 . S
C874 C888 1.377 . S
C875 C874 1.524 . S
C875 C876 1.397 . S
C875 C880 1.363 . S
C876 H853 0.950 1_455 S
C876 C875 1.397 . S
C876 C877 1.334 . S
C877 H854 0.950 . S
C877 C876 1.334 . S
C877 C878 1.287 . S
C878 C877 1.287 . S
C878 C879 1.524 . S
C878 H897 0.913 . S
C879 H855 0.950 . S
C879 C878 1.524 . S
C879 C880 1.415 . S
C880 H856 0.950 . S
C880 C875 1.363 . S
C880 C879 1.415 . S
C881 H857 0.951 . S
C881 C882 1.366 1_655 S
C881 C883 1.388 . S
C882 C881 1.366 1_455 S
C882 C886 1.385 . S
C883 H858 0.951 . S
C883 C881 1.388 . S
C883 C884 1.366 1_655 S
C884 C883 1.366 1_455 S
C884 C885 1.414 . S
C884 C887 1.499 . S
C885 H859 0.950 . S
C885 C884 1.414 . S
C885 C886 1.374 . S
C886 H860 0.950 . S
C886 C882 1.385 . S
C886 C885 1.374 . S
C887 C884 1.499 . S
C887 C888 1.373 1_556 S
C887 C889 1.389 1_455 S
C888 H861 0.950 . S
C888 C874 1.377 . S
C888 C887 1.373 1_554 S
C889 C873 1.377 . S
C889 C887 1.389 1_655 S
C889 C890 1.524 . S
C890 C889 1.524 . S
C890 C891 1.397 . S
C890 C895 1.363 . S
C891 H862 0.950 1_655 S
C891 C890 1.397 . S
C891 C892 1.334 . S
C892 H863 0.950 . S
C892 C891 1.334 . S
C892 C893 1.287 . S
C893 C892 1.287 . S
C893 C894 1.524 . S
C893 H896 0.999 . S
C894 H864 0.950 . S
C894 C893 1.524 . S
C894 C895 1.415 . S
C895 H865 0.950 . S
C895 C890 1.363 . S
C895 C894 1.415 . S
H896 C893 0.999 . S
H897 C878 0.913 . S
H898 C916 0.951 . S
H899 C918 0.951 . S
H900 C920 0.950 . S
H901 C921 0.950 . S
H902 C923 0.950 . S
H903 C926 0.950 . S
H904 C927 0.950 . S
H905 C929 0.950 . S
H906 C930 0.950 . S
H907 C931 0.951 . S
H908 C933 0.951 . S
H909 C935 0.950 1_554 S
H910 C936 0.950 . S
H911 C938 0.950 . S
H912 C941 0.950 . S
H913 C942 0.950 . S
H914 C944 0.950 . S
H915 C945 0.950 . S
C916 H898 0.951 . S
C916 C917 1.366 . S
C916 C918 1.388 . S
C917 C916 1.366 . S
C917 C921 1.385 1_554 S
C918 H899 0.951 . S
C918 C916 1.388 . S
C918 C919 1.366 1_554 S
C919 C918 1.366 1_556 S
C919 C920 1.414 . S
C919 C922 1.499 . S
C920 H900 0.950 . S
C920 C919 1.414 . S
C920 C921 1.374 . S
C921 H901 0.950 . S
C921 C917 1.385 1_556 S
C921 C920 1.374 . S
C922 C919 1.499 . S
C922 C923 1.373 . S
C922 C924 1.389 . S
C923 H902 0.950 . S
C923 C922 1.373 . S
C923 C939 1.377 . S
C924 C922 1.389 . S
C924 C925 1.524 . S
C924 C938 1.377 . S
C925 C924 1.524 . S
C925 C926 1.397 . S
C925 C930 1.363 1_556 S
C926 H903 0.950 . S
C926 C925 1.397 . S
C926 C927 1.334 . S
C927 H904 0.950 . S
C927 C926 1.334 . S
C927 C928 1.287 1_556 S
C928 C927 1.287 1_554 S
C928 C929 1.524 . S
C928 H947 0.913 . S
C929 H905 0.950 . S
C929 C928 1.524 . S
C929 C930 1.415 . S
C930 H906 0.950 . S
C930 C925 1.363 1_554 S
C930 C929 1.415 . S
C931 H907 0.951 . S
C931 C932 1.366 1_545 S
C931 C933 1.388 1_545 S
C932 C931 1.366 1_565 S
C932 C936 1.385 . S
C933 H908 0.951 . S
C933 C931 1.388 1_565 S
C933 C934 1.366 . S
C934 C933 1.366 . S
C934 C935 1.414 . S
C934 C937 1.499 . S
C935 H909 0.950 1_556 S
C935 C934 1.414 . S
C935 C936 1.374 . S
C936 H910 0.950 . S
C936 C932 1.385 . S
C936 C935 1.374 . S
C937 C934 1.499 . S
C937 C938 1.373 . S
C937 C939 1.389 . S
C938 H911 0.950 . S
C938 C924 1.377 . S
C938 C937 1.373 . S
C939 C923 1.377 . S
C939 C937 1.389 . S
C939 C940 1.524 1_565 S
C940 C939 1.524 1_545 S
C940 C941 1.397 . S
C940 C945 1.363 . S
C941 H912 0.950 . S
C941 C940 1.397 . S
C941 C942 1.334 . S
C942 H913 0.950 . S
C942 C941 1.334 . S
C942 C943 1.287 . S
C943 C942 1.287 . S
C943 C944 1.524 . S
C943 H946 0.999 . S
C944 H914 0.950 . S
C944 C943 1.524 . S
C944 C945 1.415 . S
C945 H915 0.950 . S
C945 C940 1.363 . S
C945 C944 1.415 . S
H946 C943 0.999 . S
H947 C928 0.913 . S
H948 C966 0.951 . S
H949 C968 0.951 . S
H950 C970 0.950 . S
H951 C971 0.950 . S
H952 C973 0.950 . S
H953 C976 0.950 . S
H954 C977 0.950 . S
H955 C979 0.950 . S
H956 C980 0.950 . S
H957 C981 0.951 . S
H958 C983 0.951 . S
H959 C985 0.950 . S
H960 C986 0.950 . S
H961 C988 0.950 . S
H962 C991 0.950 . S
H963 C992 0.950 . S
H964 C994 0.950 . S
H965 C995 0.950 . S
C966 H948 0.951 . S
C966 C967 1.366 . S
C966 C968 1.388 . S
C967 C966 1.366 . S
C967 C971 1.385 . S
C968 H949 0.951 . S
C968 C966 1.388 . S
C968 C969 1.366 . S
C969 C968 1.366 . S
C969 C970 1.414 . S
C969 C972 1.499 . S
C970 H950 0.950 . S
C970 C969 1.414 . S
C970 C971 1.374 . S
C971 H951 0.950 . S
C971 C967 1.385 . S
C971 C970 1.374 . S
C972 C969 1.499 . S
C972 C973 1.373 . S
C972 C974 1.389 . S
C973 H952 0.950 . S
C973 C972 1.373 . S
C973 C989 1.377 . S
C974 C972 1.389 . S
C974 C975 1.524 . S
C974 C988 1.377 . S
C975 C974 1.524 . S
C975 C976 1.397 . S
C975 C980 1.363 . S
C976 H953 0.950 . S
C976 C975 1.397 . S
C976 C977 1.334 . S
C977 H954 0.950 . S
C977 C976 1.334 . S
C977 C978 1.287 . S
C978 C977 1.287 . S
C978 C979 1.524 . S
C978 H997 0.913 . S
C979 H955 0.950 . S
C979 C978 1.524 . S
C979 C980 1.415 . S
C980 H956 0.950 . S
C980 C975 1.363 . S
C980 C979 1.415 . S
C981 H957 0.951 . S
C981 C982 1.366 . S
C981 C983 1.388 . S
C982 C981 1.366 . S
C982 C986 1.385 . S
C983 H958 0.951 . S
C983 C981 1.388 . S
C983 C984 1.366 . S
C984 C983 1.366 . S
C984 C985 1.414 . S
C984 C987 1.499 . S
C985 H959 0.950 . S
C985 C984 1.414 . S
C985 C986 1.374 . S
C986 H960 0.950 . S
C986 C982 1.385 . S
C986 C985 1.374 . S
C987 C984 1.499 . S
C987 C988 1.373 . S
C987 C989 1.389 . S
C988 H961 0.950 . S
C988 C974 1.377 . S
C988 C987 1.373 . S
C989 C973 1.377 . S
C989 C987 1.389 . S
C989 C990 1.524 . S
C990 C989 1.524 . S
C990 C991 1.397 . S
C990 C995 1.363 . S
C991 H962 0.950 . S
C991 C990 1.397 . S
C991 C992 1.334 1_554 S
C992 H963 0.950 . S
C992 C991 1.334 1_556 S
C992 C993 1.287 1_556 S
C993 C992 1.287 1_554 S
C993 C994 1.524 . S
C993 H996 0.999 1_554 S
C994 H964 0.950 . S
C994 C993 1.524 . S
C994 C995 1.415 . S
C995 H965 0.950 . S
C995 C990 1.363 . S
C995 C994 1.415 . S
H996 C993 0.999 1_556 S
H997 C978 0.913 . S
H998 C1016 0.951 1_554 S
H999 C1018 0.951 1_554 S
H1000 C1020 0.950 . S
H1001 C1021 0.950 . S
H1002 C1023 0.950 . S
H1003 C1026 0.950 . S
H1004 C1027 0.950 . S
H1005 C1029 0.950 . S
H1006 C1030 0.950 . S
H1007 C1031 0.951 . S
H1008 C1033 0.951 . S
H1009 C1035 0.950 . S
H1010 C1036 0.950 . S
H1011 C1038 0.950 . S
H1012 C1041 0.950 . S
H1013 C1042 0.950 . S
H1014 C1044 0.950 . S
H1015 C1045 0.950 . S
C1016 H998 0.951 1_556 S
C1016 C1017 1.366 . S
C1016 C1018 1.388 . S
C1017 C1016 1.366 . S
C1017 C1021 1.385 . S
C1018 H999 0.951 1_556 S
C1018 C1016 1.388 . S
C1018 C1019 1.366 . S
C1019 C1018 1.366 . S
C1019 C1020 1.414 . S
C1019 C1022 1.499 . S
C1020 H1000 0.950 . S
C1020 C1019 1.414 . S
C1020 C1021 1.374 . S
C1021 H1001 0.950 . S
C1021 C1017 1.385 . S
C1021 C1020 1.374 . S
C1022 C1019 1.499 . S
C1022 C1023 1.373 . S
C1022 C1024 1.389 . S
C1023 H1002 0.950 . S
C1023 C1022 1.373 . S
C1023 C1039 1.377 . S
C1024 C1022 1.389 . S
C1024 C1025 1.524 1_556 S
C1024 C1038 1.377 . S
C1025 C1024 1.524 1_554 S
C1025 C1026 1.397 1_554 S
C1025 C1030 1.363 . S
C1026 H1003 0.950 . S
C1026 C1025 1.397 1_556 S
C1026 C1027 1.334 1_556 S
C1027 H1004 0.950 . S
C1027 C1026 1.334 1_554 S
C1027 C1028 1.287 . S
C1028 C1027 1.287 . S
C1028 C1029 1.524 . S
C1028 H1047 0.913 . S
C1029 H1005 0.950 . S
C1029 C1028 1.524 . S
C1029 C1030 1.415 . S
C1030 H1006 0.950 . S
C1030 C1025 1.363 . S
C1030 C1029 1.415 . S
C1031 H1007 0.951 . S
C1031 C1032 1.366 . S
C1031 C1033 1.388 . S
C1032 C1031 1.366 . S
C1032 C1036 1.385 . S
C1033 H1008 0.951 . S
C1033 C1031 1.388 . S
C1033 C1034 1.366 . S
C1034 C1033 1.366 . S
C1034 C1035 1.414 . S
C1034 C1037 1.499 . S
C1035 H1009 0.950 . S
C1035 C1034 1.414 . S
C1035 C1036 1.374 . S
C1036 H1010 0.950 . S
C1036 C1032 1.385 . S
C1036 C1035 1.374 . S
C1037 C1034 1.499 . S
C1037 C1038 1.373 . S
C1037 C1039 1.389 . S
C1038 H1011 0.950 . S
C1038 C1024 1.377 . S
C1038 C1037 1.373 . S
C1039 C1023 1.377 . S
C1039 C1037 1.389 . S
C1039 C1040 1.524 . S
C1040 C1039 1.524 . S
C1040 C1041 1.397 . S
C1040 C1045 1.363 . S
C1041 H1012 0.950 . S
C1041 C1040 1.397 . S
C1041 C1042 1.334 . S
C1042 H1013 0.950 . S
C1042 C1041 1.334 . S
C1042 C1043 1.287 . S
C1043 C1042 1.287 . S
C1043 C1044 1.524 . S
C1043 H1046 0.999 . S
C1044 H1014 0.950 . S
C1044 C1043 1.524 . S
C1044 C1045 1.415 . S
C1045 H1015 0.950 . S
C1045 C1040 1.363 . S
C1045 C1044 1.415 . S
H1046 C1043 0.999 . S
H1047 C1028 0.913 . S
H1048 C1066 0.951 . S
H1049 C1068 0.951 . S
H1050 C1070 0.950 . S
H1051 C1071 0.950 . S
H1052 C1073 0.950 . S
H1053 C1076 0.950 . S
H1054 C1077 0.950 . S
H1055 C1079 0.950 . S
H1056 C1080 0.950 . S
H1057 C1081 0.951 . S
H1058 C1083 0.951 . S
H1059 C1085 0.950 . S
H1060 C1086 0.950 . S
H1061 C1088 0.950 1_655 S
H1062 C1091 0.950 . S
H1063 C1092 0.950 . S
H1064 C1094 0.950 . S
H1065 C1095 0.950 . S
C1066 H1048 0.951 . S
C1066 C1067 1.366 . S
C1066 C1068 1.388 . S
C1067 C1066 1.366 . S
C1067 C1071 1.385 . S
C1068 H1049 0.951 . S
C1068 C1066 1.388 . S
C1068 C1069 1.366 . S
C1069 C1068 1.366 . S
C1069 C1070 1.414 . S
C1069 C1072 1.499 . S
C1070 H1050 0.950 . S
C1070 C1069 1.414 . S
C1070 C1071 1.374 . S
C1071 H1051 0.950 . S
C1071 C1067 1.385 . S
C1071 C1070 1.374 . S
C1072 C1069 1.499 . S
C1072 C1073 1.373 . S
C1072 C1074 1.389 . S
C1073 H1052 0.950 . S
C1073 C1072 1.373 . S
C1073 C1089 1.377 . S
C1074 C1072 1.389 . S
C1074 C1075 1.524 1_455 S
C1074 C1088 1.377 . S
C1075 C1074 1.524 1_655 S
C1075 C1076 1.397 . S
C1075 C1080 1.363 . S
C1076 H1053 0.950 . S
C1076 C1075 1.397 . S
C1076 C1077 1.334 . S
C1077 H1054 0.950 . S
C1077 C1076 1.334 . S
C1077 C1078 1.287 . S
C1078 C1077 1.287 . S
C1078 C1079 1.524 . S
C1078 H1097 0.913 . S
C1079 H1055 0.950 . S
C1079 C1078 1.524 . S
C1079 C1080 1.415 . S
C1080 H1056 0.950 . S
C1080 C1075 1.363 . S
C1080 C1079 1.415 . S
C1081 H1057 0.951 . S
C1081 C1082 1.366 . S
C1081 C1083 1.388 . S
C1082 C1081 1.366 . S
C1082 C1086 1.385 . S
C1083 H1058 0.951 . S
C1083 C1081 1.388 . S
C1083 C1084 1.366 . S
C1084 C1083 1.366 . S
C1084 C1085 1.414 . S
C1084 C1087 1.499 . S
C1085 H1059 0.950 . S
C1085 C1084 1.414 . S
C1085 C1086 1.374 . S
C1086 H1060 0.950 . S
C1086 C1082 1.385 . S
C1086 C1085 1.374 . S
C1087 C1084 1.499 . S
C1087 C1088 1.373 . S
C1087 C1089 1.389 . S
C1088 H1061 0.950 1_455 S
C1088 C1074 1.377 . S
C1088 C1087 1.373 . S
C1089 C1073 1.377 . S
C1089 C1087 1.389 . S
C1089 C1090 1.524 . S
C1090 C1089 1.524 . S
C1090 C1091 1.397 . S
C1090 C1095 1.363 . S
C1091 H1062 0.950 . S
C1091 C1090 1.397 . S
C1091 C1092 1.334 . S
C1092 H1063 0.950 . S
C1092 C1091 1.334 . S
C1092 C1093 1.287 . S
C1093 C1092 1.287 . S
C1093 C1094 1.524 . S
C1093 H1096 0.999 . S
C1094 H1064 0.950 . S
C1094 C1093 1.524 . S
C1094 C1095 1.415 . S
C1095 H1065 0.950 . S
C1095 C1090 1.363 . S
C1095 C1094 1.415 . S
H1096 C1093 0.999 . S
H1097 C1078 0.913 . S
H1098 C1116 0.951 . S
H1099 C1118 0.951 . S
H1100 C1120 0.950 . S
H1101 C1121 0.950 . S
H1102 C1123 0.950 . S
H1103 C1126 0.950 . S
H1104 C1127 0.950 . S
H1105 C1129 0.950 . S
H1106 C1130 0.950 . S
H1107 C1131 0.951 . S
H1108 C1133 0.951 . S
H1109 C1135 0.950 . S
H1110 C1136 0.950 . S
H1111 C1138 0.950 . S
H1112 C1141 0.950 . S
H1113 C1142 0.950 . S
H1114 C1144 0.950 . S
H1115 C1145 0.950 . S
C1116 H1098 0.951 . S
C1116 C1117 1.366 . S
C1116 C1118 1.388 . S
C1117 C1116 1.366 . S
C1117 C1121 1.385 . S
C1118 H1099 0.951 . S
C1118 C1116 1.388 . S
C1118 C1119 1.366 . S
C1119 C1118 1.366 . S
C1119 C1120 1.414 . S
C1119 C1122 1.499 . S
C1120 H1100 0.950 . S
C1120 C1119 1.414 . S
C1120 C1121 1.374 . S
C1121 H1101 0.950 . S
C1121 C1117 1.385 . S
C1121 C1120 1.374 . S
C1122 C1119 1.499 . S
C1122 C1123 1.373 . S
C1122 C1124 1.389 . S
C1123 H1102 0.950 . S
C1123 C1122 1.373 . S
C1123 C1139 1.377 . S
C1124 C1122 1.389 . S
C1124 C1125 1.524 . S
C1124 C1138 1.377 . S
C1125 C1124 1.524 . S
C1125 C1126 1.397 . S
C1125 C1130 1.363 . S
C1126 H1103 0.950 . S
C1126 C1125 1.397 . S
C1126 C1127 1.334 . S
C1127 H1104 0.950 . S
C1127 C1126 1.334 . S
C1127 C1128 1.287 . S
C1128 C1127 1.287 . S
C1128 C1129 1.524 . S
C1128 H1147 0.913 . S
C1129 H1105 0.950 . S
C1129 C1128 1.524 . S
C1129 C1130 1.415 . S
C1130 H1106 0.950 . S
C1130 C1125 1.363 . S
C1130 C1129 1.415 . S
C1131 H1107 0.951 . S
C1131 C1132 1.366 . S
C1131 C1133 1.388 . S
C1132 C1131 1.366 . S
C1132 C1136 1.385 . S
C1133 H1108 0.951 . S
C1133 C1131 1.388 . S
C1133 C1134 1.366 . S
C1134 C1133 1.366 . S
C1134 C1135 1.414 . S
C1134 C1137 1.499 . S
C1135 H1109 0.950 . S
C1135 C1134 1.414 . S
C1135 C1136 1.374 . S
C1136 H1110 0.950 . S
C1136 C1132 1.385 . S
C1136 C1135 1.374 . S
C1137 C1134 1.499 . S
C1137 C1138 1.373 . S
C1137 C1139 1.389 . S
C1138 H1111 0.950 . S
C1138 C1124 1.377 . S
C1138 C1137 1.373 . S
C1139 C1123 1.377 . S
C1139 C1137 1.389 . S
C1139 C1140 1.524 . S
C1140 C1139 1.524 . S
C1140 C1141 1.397 . S
C1140 C1145 1.363 . S
C1141 H1112 0.950 . S
C1141 C1140 1.397 . S
C1141 C1142 1.334 . S
C1142 H1113 0.950 . S
C1142 C1141 1.334 . S
C1142 C1143 1.287 . S
C1143 C1142 1.287 . S
C1143 C1144 1.524 . S
C1143 H1146 0.999 . S
C1144 H1114 0.950 . S
C1144 C1143 1.524 . S
C1144 C1145 1.415 . S
C1145 H1115 0.950 . S
C1145 C1140 1.363 . S
C1145 C1144 1.415 . S
H1146 C1143 0.999 . S
H1147 C1128 0.913 . S
H1148 C1166 0.951 . S
H1149 C1168 0.951 . S
H1150 C1170 0.950 . S
H1151 C1171 0.950 . S
H1152 C1173 0.950 . S
H1153 C1176 0.950 . S
H1154 C1177 0.950 . S
H1155 C1179 0.950 . S
H1156 C1180 0.950 . S
H1157 C1181 0.950 1_554 S
H1158 C1183 0.951 . S
H1159 C1185 0.950 . S
H1160 C1186 0.950 . S
H1161 C1188 0.950 . S
H1162 C1191 0.950 . S
H1163 C1192 0.950 . S
H1164 C1194 0.950 . S
H1165 C1195 0.950 . S
C1166 H1148 0.951 . S
C1166 C1167 1.366 . S
C1166 C1168 1.388 . S
C1167 C1166 1.366 . S
C1167 C1171 1.385 . S
C1168 H1149 0.951 . S
C1168 C1166 1.388 . S
C1168 C1169 1.366 . S
C1169 C1168 1.366 . S
C1169 C1170 1.414 . S
C1169 C1172 1.499 . S
C1170 H1150 0.950 . S
C1170 C1169 1.414 . S
C1170 C1171 1.374 . S
C1171 H1151 0.950 . S
C1171 C1167 1.385 . S
C1171 C1170 1.374 . S
C1172 C1169 1.499 . S
C1172 C1173 1.373 . S
C1172 C1174 1.389 . S
C1173 H1152 0.950 . S
C1173 C1172 1.373 . S
C1173 C1189 1.377 . S
C1174 C1172 1.389 . S
C1174 C1175 1.524 . S
C1174 C1188 1.377 . S
C1175 C1174 1.524 . S
C1175 C1176 1.397 . S
C1175 C1180 1.363 . S
C1176 H1153 0.950 . S
C1176 C1175 1.397 . S
C1176 C1177 1.334 . S
C1177 H1154 0.950 . S
C1177 C1176 1.334 . S
C1177 C1178 1.287 . S
C1178 C1177 1.287 . S
C1178 C1179 1.524 . S
C1178 H1197 0.913 . S
C1179 H1155 0.950 . S
C1179 C1178 1.524 . S
C1179 C1180 1.415 . S
C1180 H1156 0.950 . S
C1180 C1175 1.363 . S
C1180 C1179 1.415 . S
C1181 H1157 0.950 1_556 S
C1181 C1182 1.370 . S
C1181 C1183 1.385 1_556 S
C1182 C1181 1.370 . S
C1182 C1186 1.385 . S
C1183 H1158 0.951 . S
C1183 C1181 1.385 1_554 S
C1183 C1184 1.366 . S
C1184 C1183 1.366 . S
C1184 C1185 1.414 1_554 S
C1184 C1187 1.499 . S
C1185 H1159 0.950 . S
C1185 C1184 1.414 1_556 S
C1185 C1186 1.374 . S
C1186 H1160 0.950 . S
C1186 C1182 1.385 . S
C1186 C1185 1.374 . S
C1187 C1184 1.499 . S
C1187 C1188 1.373 . S
C1187 C1189 1.389 . S
C1188 H1161 0.950 . S
C1188 C1174 1.377 . S
C1188 C1187 1.373 . S
C1189 C1173 1.377 . S
C1189 C1187 1.389 . S
C1189 C1190 1.524 . S
C1190 C1189 1.524 . S
C1190 C1191 1.397 1_554 S
C1190 C1195 1.363 . S
C1191 H1162 0.950 . S
C1191 C1190 1.397 1_556 S
C1191 C1192 1.334 . S
C1192 H1163 0.950 . S
C1192 C1191 1.334 . S
C1192 C1193 1.287 . S
C1193 C1192 1.287 . S
C1193 C1194 1.524 . S
C1193 H1196 0.999 . S
C1194 H1164 0.950 . S
C1194 C1193 1.524 . S
C1194 C1195 1.415 1_556 S
C1195 H1165 0.950 . S
C1195 C1190 1.363 . S
C1195 C1194 1.415 1_554 S
H1196 C1193 0.999 . S
H1197 C1178 0.913 . S
H1198 C1216 0.951 . S
H1199 C1218 0.951 . S
H1200 C1220 0.950 . S
H1201 C1221 0.950 . S
H1202 C1223 0.950 . S
H1203 C1226 0.950 . S
H1204 C1227 0.950 . S
H1205 C1229 0.950 . S
H1206 C1230 0.950 . S
H1207 C1231 0.951 . S
H1208 C1233 0.951 . S
H1209 C1235 0.950 . S
H1210 C1236 0.950 . S
H1211 C1238 0.950 . S
H1212 C1241 0.950 . S
H1213 C1242 0.950 . S
H1214 C1244 0.950 . S
H1215 C1245 0.950 . S
C1216 H1198 0.951 . S
C1216 C1217 1.366 . S
C1216 C1218 1.388 . S
C1217 C1216 1.366 . S
C1217 C1221 1.385 . S
C1218 H1199 0.951 . S
C1218 C1216 1.388 . S
C1218 C1219 1.366 . S
C1219 C1218 1.366 . S
C1219 C1220 1.414 . S
C1219 C1222 1.499 . S
C1220 H1200 0.950 . S
C1220 C1219 1.414 . S
C1220 C1221 1.374 . S
C1221 H1201 0.950 . S
C1221 C1217 1.385 . S
C1221 C1220 1.374 . S
C1222 C1219 1.499 . S
C1222 C1223 1.373 . S
C1222 C1224 1.389 . S
C1223 H1202 0.950 . S
C1223 C1222 1.373 . S
C1223 C1239 1.377 . S
C1224 C1222 1.389 . S
C1224 C1225 1.524 . S
C1224 C1238 1.377 . S
C1225 C1224 1.524 . S
C1225 C1226 1.397 . S
C1225 C1230 1.363 . S
C1226 H1203 0.950 . S
C1226 C1225 1.397 . S
C1226 C1227 1.334 . S
C1227 H1204 0.950 . S
C1227 C1226 1.334 . S
C1227 C1228 1.287 . S
C1228 C1227 1.287 . S
C1228 C1229 1.524 . S
C1228 H1247 0.913 . S
C1229 H1205 0.950 . S
C1229 C1228 1.524 . S
C1229 C1230 1.415 . S
C1230 H1206 0.950 . S
C1230 C1225 1.363 . S
C1230 C1229 1.415 . S
C1231 H1207 0.951 . S
C1231 C1232 1.366 . S
C1231 C1233 1.388 . S
C1232 C1231 1.366 . S
C1232 C1236 1.385 . S
C1233 H1208 0.951 . S
C1233 C1231 1.388 . S
C1233 C1234 1.366 . S
C1234 C1233 1.366 . S
C1234 C1235 1.414 . S
C1234 C1237 1.499 . S
C1235 H1209 0.950 . S
C1235 C1234 1.414 . S
C1235 C1236 1.374 . S
C1236 H1210 0.950 . S
C1236 C1232 1.385 . S
C1236 C1235 1.374 . S
C1237 C1234 1.499 . S
C1237 C1238 1.373 . S
C1237 C1239 1.389 . S
C1238 H1211 0.950 . S
C1238 C1224 1.377 . S
C1238 C1237 1.373 . S
C1239 C1223 1.377 . S
C1239 C1237 1.389 . S
C1239 C1240 1.524 . S
C1240 C1239 1.524 . S
C1240 C1241 1.397 . S
C1240 C1245 1.363 . S
C1241 H1212 0.950 . S
C1241 C1240 1.397 . S
C1241 C1242 1.334 . S
C1242 H1213 0.950 . S
C1242 C1241 1.334 . S
C1242 C1243 1.287 . S
C1243 C1242 1.287 . S
C1243 C1244 1.524 . S
C1243 H1246 0.999 . S
C1244 H1214 0.950 . S
C1244 C1243 1.524 . S
C1244 C1245 1.415 . S
C1245 H1215 0.950 . S
C1245 C1240 1.363 . S
C1245 C1244 1.415 . S
H1246 C1243 0.999 . S
H1247 C1228 0.913 . S
H1248 C1266 0.951 . S
H1249 C1268 0.951 . S
H1250 C1270 0.950 . S
H1251 C1271 0.950 . S
H1252 C1273 0.950 . S
H1253 C1276 0.950 . S
H1254 C1277 0.950 . S
H1255 C1279 0.950 . S
H1256 C1280 0.950 . S
H1257 C1281 0.951 . S
H1258 C1283 0.951 . S
H1259 C1285 0.950 . S
H1260 C1286 0.950 . S
H1261 C1288 0.950 . S
H1262 C1291 0.950 . S
H1263 C1292 0.950 . S
H1264 C1294 0.950 . S
H1265 C1295 0.950 . S
C1266 H1248 0.951 . S
C1266 C1267 1.366 1_455 S
C1266 C1268 1.388 . S
C1267 C1266 1.366 1_655 S
C1267 C1271 1.385 . S
C1268 H1249 0.951 . S
C1268 C1266 1.388 . S
C1268 C1269 1.366 1_455 S
C1269 C1268 1.366 1_655 S
C1269 C1270 1.414 . S
C1269 C1272 1.499 . S
C1270 H1250 0.950 . S
C1270 C1269 1.414 . S
C1270 C1271 1.374 . S
C1271 H1251 0.950 . S
C1271 C1267 1.385 . S
C1271 C1270 1.374 . S
C1272 C1269 1.499 . S
C1272 C1273 1.373 . S
C1272 C1274 1.389 . S
C1273 H1252 0.950 . S
C1273 C1272 1.373 . S
C1273 C1289 1.377 . S
C1274 C1272 1.389 . S
C1274 C1275 1.524 . S
C1274 C1288 1.377 . S
C1275 C1274 1.524 . S
C1275 C1276 1.397 . S
C1275 C1280 1.363 1_655 S
C1276 H1253 0.950 . S
C1276 C1275 1.397 . S
C1276 C1277 1.334 . S
C1277 H1254 0.950 . S
C1277 C1276 1.334 . S
C1277 C1278 1.287 . S
C1278 C1277 1.287 . S
C1278 C1279 1.524 1_655 S
C1278 H1297 0.913 . S
C1279 H1255 0.950 . S
C1279 C1278 1.524 1_455 S
C1279 C1280 1.415 . S
C1280 H1256 0.950 . S
C1280 C1275 1.363 1_455 S
C1280 C1279 1.415 . S
C1281 H1257 0.951 . S
C1281 C1282 1.366 . S
C1281 C1283 1.388 . S
C1282 C1281 1.366 . S
C1282 C1286 1.385 1_655 S
C1283 H1258 0.951 . S
C1283 C1281 1.388 . S
C1283 C1284 1.366 . S
C1284 C1283 1.366 . S
C1284 C1285 1.414 1_655 S
C1284 C1287 1.499 . S
C1285 H1259 0.950 . S
C1285 C1284 1.414 1_455 S
C1285 C1286 1.374 . S
C1286 H1260 0.950 . S
C1286 C1282 1.385 1_455 S
C1286 C1285 1.374 . S
C1287 C1284 1.499 . S
C1287 C1288 1.373 . S
C1287 C1289 1.389 . S
C1288 H1261 0.950 . S
C1288 C1274 1.377 . S
C1288 C1287 1.373 . S
C1289 C1273 1.377 . S
C1289 C1287 1.389 . S
C1289 C1290 1.524 . S
C1290 C1289 1.524 . S
C1290 C1291 1.397 1_655 S
C1290 C1295 1.363 . S
C1291 H1262 0.950 . S
C1291 C1290 1.397 1_455 S
C1291 C1292 1.334 . S
C1292 H1263 0.950 . S
C1292 C1291 1.334 . S
C1292 C1293 1.287 . S
C1293 C1292 1.287 . S
C1293 C1294 1.524 1_455 S
C1293 H1296 0.999 . S
C1294 H1264 0.950 . S
C1294 C1293 1.524 1_655 S
C1294 C1295 1.415 . S
C1295 H1265 0.950 . S
C1295 C1290 1.363 . S
C1295 C1294 1.415 . S
H1296 C1293 0.999 . S
H1297 C1278 0.913 . S
H1298 C1316 0.951 . S
H1299 C1318 0.951 . S
H1300 C1320 0.950 . S
H1301 C1321 0.950 . S
H1302 C1323 0.950 . S
H1303 C1326 0.950 . S
H1304 C1327 0.950 . S
H1305 C1329 0.950 . S
H1306 C1330 0.950 . S
H1307 C1331 0.951 . S
H1308 C1333 0.951 . S
H1309 C1335 0.950 . S
H1310 C1336 0.950 . S
H1311 C1338 0.950 . S
H1312 C1341 0.950 . S
H1313 C1342 0.950 . S
H1314 C1344 0.950 . S
H1315 C1345 0.950 . S
C1316 H1298 0.951 . S
C1316 C1317 1.366 . S
C1316 C1318 1.388 . S
C1317 C1316 1.366 . S
C1317 C1321 1.385 . S
C1318 H1299 0.951 . S
C1318 C1316 1.388 . S
C1318 C1319 1.366 . S
C1319 C1318 1.366 . S
C1319 C1320 1.414 . S
C1319 C1322 1.499 . S
C1320 H1300 0.950 . S
C1320 C1319 1.414 . S
C1320 C1321 1.374 . S
C1321 H1301 0.950 . S
C1321 C1317 1.385 . S
C1321 C1320 1.374 . S
C1322 C1319 1.499 . S
C1322 C1323 1.373 . S
C1322 C1324 1.389 . S
C1323 H1302 0.950 . S
C1323 C1322 1.373 . S
C1323 C1339 1.377 . S
C1324 C1322 1.389 . S
C1324 C1325 1.524 . S
C1324 C1338 1.377 . S
C1325 C1324 1.524 . S
C1325 C1326 1.397 . S
C1325 C1330 1.363 . S
C1326 H1303 0.950 . S
C1326 C1325 1.397 . S
C1326 C1327 1.334 . S
C1327 H1304 0.950 . S
C1327 C1326 1.334 . S
C1327 C1328 1.287 . S
C1328 C1327 1.287 . S
C1328 C1329 1.524 . S
C1328 H1347 0.913 . S
C1329 H1305 0.950 . S
C1329 C1328 1.524 . S
C1329 C1330 1.415 . S
C1330 H1306 0.950 . S
C1330 C1325 1.363 . S
C1330 C1329 1.415 . S
C1331 H1307 0.951 . S
C1331 C1332 1.366 . S
C1331 C1333 1.388 . S
C1332 C1331 1.366 . S
C1332 C1336 1.385 . S
C1333 H1308 0.951 . S
C1333 C1331 1.388 . S
C1333 C1334 1.366 . S
C1334 C1333 1.366 . S
C1334 C1335 1.414 . S
C1334 C1337 1.499 . S
C1335 H1309 0.950 . S
C1335 C1334 1.414 . S
C1335 C1336 1.374 . S
C1336 H1310 0.950 . S
C1336 C1332 1.385 . S
C1336 C1335 1.374 . S
C1337 C1334 1.499 . S
C1337 C1338 1.373 . S
C1337 C1339 1.389 . S
C1338 H1311 0.950 . S
C1338 C1324 1.377 . S
C1338 C1337 1.373 . S
C1339 C1323 1.377 . S
C1339 C1337 1.389 . S
C1339 C1340 1.524 . S
C1340 C1339 1.524 . S
C1340 C1341 1.397 . S
C1340 C1345 1.363 . S
C1341 H1312 0.950 . S
C1341 C1340 1.397 . S
C1341 C1342 1.334 . S
C1342 H1313 0.950 . S
C1342 C1341 1.334 . S
C1342 C1343 1.287 . S
C1343 C1342 1.287 . S
C1343 C1344 1.524 . S
C1343 H1346 0.999 . S
C1344 H1314 0.950 . S
C1344 C1343 1.524 . S
C1344 C1345 1.415 . S
C1345 H1315 0.950 . S
C1345 C1340 1.363 . S
C1345 C1344 1.415 . S
H1346 C1343 0.999 . S
H1347 C1328 0.913 . S
H1348 C1366 0.951 . S
H1349 C1368 0.951 . S
H1350 C1370 0.950 . S
H1351 C1371 0.950 . S
H1352 C1373 0.950 . S
H1353 C1376 0.950 . S
H1354 C1377 0.950 . S
H1355 C1379 0.950 . S
H1356 C1380 0.950 . S
H1357 C1381 0.951 . S
H1358 C1383 0.951 . S
H1359 C1385 0.950 . S
H1360 C1386 0.950 . S
H1361 C1388 0.950 . S
H1362 C1391 0.950 . S
H1363 C1392 0.950 . S
H1364 C1394 0.950 . S
H1365 C1395 0.950 . S
C1366 H1348 0.951 . S
C1366 C1367 1.366 . S
C1366 C1368 1.388 . S
C1367 C1366 1.366 . S
C1367 C1371 1.385 . S
C1368 H1349 0.951 . S
C1368 C1366 1.388 . S
C1368 C1369 1.366 . S
C1369 C1368 1.366 . S
C1369 C1370 1.414 . S
C1369 C1372 1.499 . S
C1370 H1350 0.950 . S
C1370 C1369 1.414 . S
C1370 C1371 1.374 . S
C1371 H1351 0.950 . S
C1371 C1367 1.385 . S
C1371 C1370 1.374 . S
C1372 C1369 1.499 . S
C1372 C1373 1.373 . S
C1372 C1374 1.389 . S
C1373 H1352 0.950 . S
C1373 C1372 1.373 . S
C1373 C1389 1.377 . S
C1374 C1372 1.389 . S
C1374 C1375 1.524 . S
C1374 C1388 1.377 . S
C1375 C1374 1.524 . S
C1375 C1376 1.397 . S
C1375 C1380 1.363 . S
C1376 H1353 0.950 . S
C1376 C1375 1.397 . S
C1376 C1377 1.334 . S
C1377 H1354 0.950 . S
C1377 C1376 1.334 . S
C1377 C1378 1.287 . S
C1378 C1377 1.287 . S
C1378 C1379 1.524 . S
C1378 H1397 0.913 . S
C1379 H1355 0.950 . S
C1379 C1378 1.524 . S
C1379 C1380 1.415 . S
C1380 H1356 0.950 . S
C1380 C1375 1.363 . S
C1380 C1379 1.415 . S
C1381 H1357 0.951 . S
C1381 C1382 1.366 . S
C1381 C1383 1.388 . S
C1382 C1381 1.366 . S
C1382 C1386 1.385 . S
C1383 H1358 0.951 . S
C1383 C1381 1.388 . S
C1383 C1384 1.366 . S
C1384 C1383 1.366 . S
C1384 C1385 1.414 . S
C1384 C1387 1.499 . S
C1385 H1359 0.950 . S
C1385 C1384 1.414 . S
C1385 C1386 1.374 . S
C1386 H1360 0.950 . S
C1386 C1382 1.385 . S
C1386 C1385 1.374 . S
C1387 C1384 1.499 . S
C1387 C1388 1.373 . S
C1387 C1389 1.389 . S
C1388 H1361 0.950 . S
C1388 C1374 1.377 . S
C1388 C1387 1.373 . S
C1389 C1373 1.377 . S
C1389 C1387 1.389 . S
C1389 C1390 1.524 . S
C1390 C1389 1.524 . S
C1390 C1391 1.397 . S
C1390 C1395 1.363 . S
C1391 H1362 0.950 . S
C1391 C1390 1.397 . S
C1391 C1392 1.334 . S
C1392 H1363 0.950 . S
C1392 C1391 1.334 . S
C1392 C1393 1.287 . S
C1393 C1392 1.287 . S
C1393 C1394 1.524 . S
C1393 H1396 0.999 . S
C1394 H1364 0.950 . S
C1394 C1393 1.524 . S
C1394 C1395 1.415 . S
C1395 H1365 0.950 . S
C1395 C1390 1.363 . S
C1395 C1394 1.415 . S
H1396 C1393 0.999 . S
H1397 C1378 0.913 . S
H1398 C1416 0.951 . S
H1399 C1418 0.951 . S
H1400 C1420 0.950 . S
H1401 C1421 0.950 . S
H1402 C1423 0.950 . S
H1403 C1426 0.950 . S
H1404 C1427 0.950 . S
H1405 C1429 0.950 . S
H1406 C1430 0.950 . S
H1407 C1431 0.951 . S
H1408 C1433 0.951 . S
H1409 C1435 0.950 . S
H1410 C1436 0.950 . S
H1411 C1438 0.950 . S
H1412 C1441 0.950 . S
H1413 C1442 0.950 . S
H1414 C1444 0.950 . S
H1415 C1445 0.950 . S
C1416 H1398 0.951 . S
C1416 C1417 1.366 . S
C1416 C1418 1.388 . S
C1417 C1416 1.366 . S
C1417 C1421 1.385 . S
C1418 H1399 0.951 . S
C1418 C1416 1.388 . S
C1418 C1419 1.366 . S
C1419 C1418 1.366 . S
C1419 C1420 1.414 . S
C1419 C1422 1.499 . S
C1420 H1400 0.950 . S
C1420 C1419 1.414 . S
C1420 C1421 1.374 . S
C1421 H1401 0.950 . S
C1421 C1417 1.385 . S
C1421 C1420 1.374 . S
C1422 C1419 1.499 . S
C1422 C1423 1.373 . S
C1422 C1424 1.389 . S
C1423 H1402 0.950 . S
C1423 C1422 1.373 . S
C1423 C1439 1.377 . S
C1424 C1422 1.389 . S
C1424 C1425 1.524 . S
C1424 C1438 1.377 . S
C1425 C1424 1.524 . S
C1425 C1426 1.397 . S
C1425 C1430 1.363 . S
C1426 H1403 0.950 . S
C1426 C1425 1.397 . S
C1426 C1427 1.334 . S
C1427 H1404 0.950 . S
C1427 C1426 1.334 . S
C1427 C1428 1.287 . S
C1428 C1427 1.287 . S
C1428 C1429 1.524 . S
C1428 H1447 0.913 . S
C1429 H1405 0.950 . S
C1429 C1428 1.524 . S
C1429 C1430 1.415 . S
C1430 H1406 0.950 . S
C1430 C1425 1.363 . S
C1430 C1429 1.415 . S
C1431 H1407 0.951 . S
C1431 C1432 1.366 . S
C1431 C1433 1.388 . S
C1432 C1431 1.366 . S
C1432 C1436 1.385 . S
C1433 H1408 0.951 . S
C1433 C1431 1.388 . S
C1433 C1434 1.366 . S
C1434 C1433 1.366 . S
C1434 C1435 1.414 . S
C1434 C1437 1.499 . S
C1435 H1409 0.950 . S
C1435 C1434 1.414 . S
C1435 C1436 1.374 . S
C1436 H1410 0.950 . S
C1436 C1432 1.385 . S
C1436 C1435 1.374 . S
C1437 C1434 1.499 . S
C1437 C1438 1.373 . S
C1437 C1439 1.389 . S
C1438 H1411 0.950 . S
C1438 C1424 1.377 . S
C1438 C1437 1.373 . S
C1439 C1423 1.377 . S
C1439 C1437 1.389 . S
C1439 C1440 1.524 . S
C1440 C1439 1.524 . S
C1440 C1441 1.397 . S
C1440 C1445 1.363 . S
C1441 H1412 0.950 . S
C1441 C1440 1.397 . S
C1441 C1442 1.334 . S
C1442 H1413 0.950 . S
C1442 C1441 1.334 . S
C1442 C1443 1.287 . S
C1443 C1442 1.287 . S
C1443 C1444 1.524 . S
C1443 H1446 0.999 . S
C1444 H1414 0.950 . S
C1444 C1443 1.524 . S
C1444 C1445 1.415 . S
C1445 H1415 0.950 . S
C1445 C1440 1.363 . S
C1445 C1444 1.415 . S
H1446 C1443 0.999 . S
H1447 C1428 0.913 . S
C267 C76 1.734 . S
C282 C97 1.716 . S
C332 C137 1.322 . S
C317 C87 1.355 . S
C382 C186 1.301 . S
C367 C54 1.341 . S
C432 C217 1.534 . S
C417 C65 1.607 . S
C482 C106 1.716 1_565 S
C467 C32 1.749 . S
C517 C43 1.348 . S
C532 C146 1.322 . S
C567 C10 1.346 . S
C582 C177 1.300 . S
C617 C21 1.609 . S
C632 C226 1.535 . S
C682 C107 0.699 . S
C667 C60 0.714 . S
C732 C147 1.308 . S
C717 C71 1.194 . S
C782 C183 0.600 . S
C767 C82 0.611 . S
C817 C49 0.860 . S
C832 C227 0.900 . S
C867 C16 0.715 . S
C882 C98 0.698 . S
C932 C138 1.308 1_565 S
C917 C27 1.183 . S
C982 C174 0.600 . S
C967 C38 0.610 . S
C1017 C5 0.857 . S
C1032 C218 0.900 . S
C1067 C59 1.617 . S
C1082 C103 1.659 . S
C1117 C70 1.398 . S
C1132 C143 1.414 . S
C1182 C187 1.933 . S
C1167 C81 1.795 . S
C1232 C223 1.431 . S
C1217 C48 1.420 . S
C1267 C15 1.618 . S
C1282 C94 1.660 . S
C1332 C134 1.413 . S
C1317 C26 1.390 . S
C1382 C178 1.933 . S
C1367 C37 1.808 . S
C1417 C4 1.417 . S
C1432 C214 1.429 . S
