# Generated by pormake.
# Topology hwx, (6,3)-cn, num edge types: 1
# Building blocks:
#     Node 0, Type 0, BuildingBlock: OJICUG_clean_sbu_0, # of connection points: 6
#     Node 1, Type 0, BuildingBlock: OJICUG_clean_sbu_0, # of connection points: 6
#     Node 2, Type 0, BuildingBlock: OJICUG_clean_sbu_0, # of connection points: 6
#     Node 3, Type 0, BuildingBlock: OJICUG_clean_sbu_0, # of connection points: 6
#     Node 4, Type 1, BuildingBlock: KAKCAD_clean_linker_0, # of connection points: 3
#     Node 5, Type 1, BuildingBlock: KAKCAD_clean_linker_0, # of connection points: 3
#     Node 6, Type 1, BuildingBlock: KAKCAD_clean_linker_0, # of connection points: 3
#     Node 7, Type 1, BuildingBlock: KAKCAD_clean_linker_0, # of connection points: 3
#     Node 8, Type 1, BuildingBlock: KAKCAD_clean_linker_0, # of connection points: 3
#     Node 9, Type 1, BuildingBlock: KAKCAD_clean_linker_0, # of connection points: 3
#     Node 10, Type 1, BuildingBlock: KAKCAD_clean_linker_0, # of connection points: 3
#     Node 11, Type 1, BuildingBlock: KAKCAD_clean_linker_0, # of connection points: 3
#     Edge 12, Type (0, 1), BuildingBlock: KIFKEQ_clean_linker_1, # of connection points: 2
#     Edge 13, Type (0, 1), BuildingBlock: KIFKEQ_clean_linker_1, # of connection points: 2
#     Edge 14, Type (0, 1), BuildingBlock: KIFKEQ_clean_linker_1, # of connection points: 2
#     Edge 15, Type (0, 1), BuildingBlock: KIFKEQ_clean_linker_1, # of connection points: 2
#     Edge 16, Type (0, 1), BuildingBlock: KIFKEQ_clean_linker_1, # of connection points: 2
#     Edge 17, Type (0, 1), BuildingBlock: KIFKEQ_clean_linker_1, # of connection points: 2
#     Edge 18, Type (0, 1), BuildingBlock: KIFKEQ_clean_linker_1, # of connection points: 2
#     Edge 19, Type (0, 1), BuildingBlock: KIFKEQ_clean_linker_1, # of connection points: 2
#     Edge 20, Type (0, 1), BuildingBlock: KIFKEQ_clean_linker_1, # of connection points: 2
#     Edge 21, Type (0, 1), BuildingBlock: KIFKEQ_clean_linker_1, # of connection points: 2
#     Edge 22, Type (0, 1), BuildingBlock: KIFKEQ_clean_linker_1, # of connection points: 2
#     Edge 23, Type (0, 1), BuildingBlock: KIFKEQ_clean_linker_1, # of connection points: 2
#     Edge 24, Type (0, 1), BuildingBlock: KIFKEQ_clean_linker_1, # of connection points: 2
#     Edge 25, Type (0, 1), BuildingBlock: KIFKEQ_clean_linker_1, # of connection points: 2
#     Edge 26, Type (0, 1), BuildingBlock: KIFKEQ_clean_linker_1, # of connection points: 2
#     Edge 27, Type (0, 1), BuildingBlock: KIFKEQ_clean_linker_1, # of connection points: 2
#     Edge 28, Type (0, 1), BuildingBlock: KIFKEQ_clean_linker_1, # of connection points: 2
#     Edge 29, Type (0, 1), BuildingBlock: KIFKEQ_clean_linker_1, # of connection points: 2
#     Edge 30, Type (0, 1), BuildingBlock: KIFKEQ_clean_linker_1, # of connection points: 2
#     Edge 31, Type (0, 1), BuildingBlock: KIFKEQ_clean_linker_1, # of connection points: 2
#     Edge 32, Type (0, 1), BuildingBlock: KIFKEQ_clean_linker_1, # of connection points: 2
#     Edge 33, Type (0, 1), BuildingBlock: KIFKEQ_clean_linker_1, # of connection points: 2
#     Edge 34, Type (0, 1), BuildingBlock: KIFKEQ_clean_linker_1, # of connection points: 2
#     Edge 35, Type (0, 1), BuildingBlock: KIFKEQ_clean_linker_1, # of connection points: 2
# Relax obj value: 0.076
# Max RMSD: 0.101
# Mean RMSD: 0.093
data_MOF--net-hwx--node1-OJICUG_clean_sbu_0--node2-KAKCAD_clean_linker_0--edge1-KIFKEQ_clean_linker_1
_symmetry_space_group_name_H-M    P1
_symmetry_Int_Tables_number       1
_symmetry_cell_setting            triclinic
loop_
_symmetry_equiv_pos_as_xyz
'x, y, z'
_cell_length_a     62.287895
_cell_length_b     62.302566
_cell_length_c     28.06665
_cell_angle_alpha  89.920263
_cell_angle_beta   90.090843
_cell_angle_gamma 90.001804
loop_
_atom_site_label
_atom_site_type_symbol
_atom_site_fract_x
_atom_site_fract_y
_atom_site_fract_z
_atom_type_partial_charge
Sc0 Sc 0.21719 0.21886 0.06616 0.0
Sc1 Sc 0.18189 0.18306 0.00785 0.0
Sc2 Sc 0.21742 0.21573 0.94157 0.0
O3 O 0.20546 0.20583 0.00519 0.0
C4 C 0.21471 0.25985 -0.00104 0.0
C5 C 0.16725 0.21518 0.09014 0.0
C6 C 0.16722 0.2123 0.91989 0.0
C7 C 0.21273 0.1694 0.09405 0.0
C8 C 0.25983 0.21369 0.00431 0.0
C9 C 0.21164 0.16544 0.92397 0.0
O10 O 0.21422 0.25113 0.03987 0.0
O11 O 0.16307 0.20073 0.05952 0.0
O12 O 0.18588 0.21978 0.91226 0.0
O13 O 0.22104 0.18792 0.09867 0.0
O14 O 0.2502 0.21249 0.96449 0.0
O15 O 0.19775 0.16254 0.95655 0.0
O16 O 0.25006 0.21666 0.04342 0.0
O17 O 0.19821 0.16523 0.0634 0.0
O18 O 0.21971 0.18368 0.91484 0.0
O19 O 0.18596 0.22273 0.09623 0.0
O20 O 0.21659 0.24917 0.96067 0.0
O21 O 0.16327 0.19865 0.95256 0.0
Sc22 Sc 0.2736 0.71766 0.43367 0.0
Sc23 Sc 0.31214 0.6862 0.49436 0.0
Sc24 Sc 0.27286 0.71487 0.55837 0.0
O25 O 0.28626 0.70623 0.4954 0.0
C26 C 0.27324 0.75891 0.5016 0.0
C27 C 0.3239 0.71958 0.41183 0.0
C28 C 0.32287 0.71437 0.58515 0.0
C29 C 0.28398 0.66893 0.40748 0.0
C30 C 0.23103 0.71015 0.49312 0.0
C31 C 0.28173 0.66536 0.57413 0.0
O32 O 0.27173 0.74995 0.46097 0.0
O33 O 0.32899 0.70523 0.44211 0.0
O34 O 0.30326 0.71828 0.59384 0.0
O35 O 0.27409 0.68654 0.40109 0.0
O36 O 0.24035 0.7125 0.53298 0.0
O37 O 0.29809 0.66486 0.54695 0.0
O38 O 0.24104 0.71074 0.45383 0.0
O39 O 0.29824 0.66624 0.43945 0.0
O40 O 0.27026 0.68201 0.58017 0.0
O41 O 0.30466 0.72575 0.40542 0.0
O42 O 0.27457 0.74841 0.54043 0.0
O43 O 0.329 0.70404 0.54862 0.0
Sc44 Sc 0.77502 0.77329 0.93525 0.0
Sc45 Sc 0.80787 0.80937 -0.00073 0.0
Sc46 Sc 0.77441 0.77266 0.06027 0.0
O47 O 0.7858 0.78513 -0.00172 0.0
C48 C 0.73198 0.77452 0.99624 0.0
C49 C 0.77764 0.82363 0.91317 0.0
C50 C 0.77626 0.82273 0.08383 0.0
C51 C 0.82491 0.77951 0.91482 0.0
C52 C 0.77935 0.73053 0.9975 0.0
C53 C 0.82416 0.7795 0.0845 0.0
O54 O 0.74192 0.77502 0.95674 0.0
O55 O 0.79086 0.82788 0.9464 0.0
O56 O 0.769 0.80387 0.08984 0.0
O57 O 0.80698 0.77032 0.90784 0.0
O58 O 0.7785 0.74002 0.03745 0.0
O59 O 0.82736 0.79357 0.0524 0.0
O60 O 0.77792 0.74039 0.95797 0.0
O61 O 0.82764 0.79436 0.94535 0.0
O62 O 0.80594 0.77083 0.09145 0.0
O63 O 0.77097 0.80473 0.90474 0.0
O64 O 0.74154 0.77314 0.03618 0.0
O65 O 0.7906 0.82721 0.05313 0.0
Sc66 Sc 0.71712 0.27508 0.55798 0.0
Sc67 Sc 0.68303 0.30894 0.49077 0.0
Sc68 Sc 0.71729 0.27204 0.43323 0.0
O69 O 0.7058 0.2854 0.49399 0.0
C70 C 0.7598 0.27622 0.49629 0.0
C71 C 0.71278 0.32559 0.57565 0.0
C72 C 0.71426 0.32161 0.40488 0.0
C73 C 0.66696 0.27995 0.57784 0.0
C74 C 0.71384 0.23107 0.50029 0.0
C75 C 0.66749 0.27707 0.40871 0.0
O76 O 0.75005 0.27762 0.5359 0.0
O77 O 0.69937 0.32898 0.54225 0.0
O78 O 0.72199 0.30283 0.40039 0.0
O79 O 0.68526 0.27169 0.5861 0.0
O80 O 0.71357 0.23985 0.45945 0.0
O81 O 0.66383 0.29177 0.43904 0.0
O82 O 0.71576 0.24166 0.5387 0.0
O83 O 0.66381 0.29394 0.54547 0.0
O84 O 0.68595 0.2689 0.40275 0.0
O85 O 0.72004 0.30705 0.58529 0.0
O86 O 0.75012 0.27351 0.45687 0.0
O87 O 0.69994 0.32624 0.4355 0.0
C88 C 0.225 0.54388 0.82415 0.0
C89 C 0.24541 0.55234 0.81412 0.0
C90 C 0.22139 0.5327 0.86662 0.0
C91 C 0.23801 0.53032 0.90002 0.0
C92 C 0.25849 0.53844 0.8896 0.0
C93 C 0.26221 0.5492 0.84677 0.0
C94 C 0.2339 0.52017 0.9466 0.0
C95 C 0.22629 0.49902 0.94928 0.0
C96 C 0.22366 0.48899 0.99376 0.0
C97 C 0.22758 0.5007 0.03562 0.0
C98 C 0.23498 0.52189 0.03315 0.0
C99 C 0.23839 0.53146 0.98862 0.0
C100 C 0.23971 0.53395 0.07704 0.0
C101 C 0.22339 0.53807 0.11019 0.0
C102 C 0.26045 0.54194 0.08523 0.0
C103 C 0.26479 0.55408 0.12588 0.0
C104 C 0.24833 0.55877 0.15831 0.0
C105 C 0.21921 0.46573 0.99633 0.0
C106 C 0.20277 0.4564 0.96898 0.0
C107 C 0.23258 0.45249 0.02395 0.0
C108 C 0.23006 0.43028 0.02305 0.0
C109 C 0.21395 0.4209 0.99497 0.0
C110 C 0.20002 0.43411 0.96868 0.0
C111 C 0.22762 0.55063 0.15032 0.0
H112 H 0.21183 0.54616 0.79941 0.0
H113 H 0.20547 0.52656 0.87413 0.0
H114 H 0.27153 0.53666 0.91488 0.0
H115 H 0.27801 0.55578 0.83997 0.0
H116 H 0.22361 0.49003 0.91675 0.0
H117 H 0.2443 0.54782 0.98666 0.0
H118 H 0.2255 0.49311 0.07011 0.0
H119 H 0.20728 0.53207 0.10432 0.0
H120 H 0.27324 0.53885 0.06003 0.0
H121 H 0.28083 0.56036 0.13127 0.0
H122 H 0.19226 0.46632 0.94745 0.0
H123 H 0.24553 0.45926 0.04492 0.0
H124 H 0.21472 0.55412 0.17498 0.0
H125 H 0.18752 0.42715 0.9467 0.0
H126 H 0.24089 0.42037 0.04382 0.0
C127 C 0.94984 0.725 0.33091 0.0
C128 C 0.93708 0.74359 0.32846 0.0
C129 C 0.96139 0.72014 0.37233 0.0
C130 C 0.96031 0.73374 0.41218 0.0
C131 C 0.94808 0.75264 0.40917 0.0
C132 C 0.93659 0.7575 0.36783 0.0
C133 C 0.97114 0.72783 0.45748 0.0
C134 C 0.99222 0.71982 0.45762 0.0
C135 C 0.00249 0.71426 0.50068 0.0
C136 C 0.99109 0.71637 0.54371 0.0
C137 C 0.97029 0.72487 0.54399 0.0
C138 C 0.96039 0.73048 0.50097 0.0
C139 C 0.95911 0.72897 0.58931 0.0
C140 C 0.95333 0.71196 0.61948 0.0
C141 C 0.95347 0.75004 0.60159 0.0
C142 C 0.94191 0.75407 0.64316 0.0
C143 C 0.93545 0.73704 0.6726 0.0
C144 C 0.02554 0.70791 0.50096 0.0
C145 C 0.03436 0.69576 0.46351 0.0
C146 C 0.03924 0.7151 0.53754 0.0
C147 C 0.06118 0.71069 0.53618 0.0
C148 C 0.07003 0.69926 0.49792 0.0
C149 C 0.05642 0.69164 0.46181 0.0
C150 C 0.94134 0.71595 0.66063 0.0
H151 H 0.95072 0.71407 0.301 0.0
H152 H 0.97062 0.70542 0.37367 0.0
H153 H 0.94718 0.76359 0.43904 0.0
H154 H 0.92676 0.77183 0.36736 0.0
H155 H 0.00089 0.71883 0.42426 0.0
H156 H 0.94413 0.73671 0.50149 0.0
H157 H -0.00146 0.71199 0.57727 0.0
H158 H 0.95753 0.69559 0.61044 0.0
H159 H 0.95785 0.76336 0.57871 0.0
H160 H 0.93737 0.77043 0.65145 0.0
H161 H 0.02427 0.68963 0.43517 0.0
H162 H 0.03323 0.72489 0.56642 0.0
H163 H 0.93649 0.70259 0.68289 0.0
H164 H 0.06287 0.68264 0.43209 0.0
H165 H 0.07138 0.71703 0.56412 0.0
C166 C 0.7556 0.45039 0.15612 0.0
C167 C 0.76341 0.42931 0.16027 0.0
C168 C 0.76007 0.46263 0.11561 0.0
C169 C 0.77239 0.45403 0.0783 0.0
C170 C 0.78072 0.43318 0.08306 0.0
C171 C 0.77632 0.42096 0.12365 0.0
C172 C 0.77538 0.46631 0.03347 0.0
C173 C 0.77988 0.48838 0.03468 0.0
C174 C 0.78081 0.5005 0.99243 0.0
C175 C 0.77753 0.49012 0.94853 0.0
C176 C 0.77348 0.46798 0.94667 0.0
C177 C 0.77246 0.4562 0.98927 0.0
C178 C 0.7694 0.45718 0.9005 0.0
C179 C 0.75525 0.46622 0.86694 0.0
C180 C 0.779 0.43731 0.89054 0.0
C181 C 0.77423 0.42646 0.84837 0.0
C182 C 0.75966 0.43519 0.81532 0.0
C183 C 0.78428 0.52411 0.99424 0.0
C184 C 0.77492 0.53644 0.03068 0.0
C185 C 0.79635 0.53462 0.95885 0.0
C186 C 0.79852 0.55694 0.95923 0.0
C187 C 0.78895 0.56916 0.9954 0.0
C188 C 0.77736 0.5587 0.03142 0.0
C189 C 0.75036 0.45528 0.82483 0.0
H190 H 0.74578 0.45733 0.18396 0.0
H191 H 0.75326 0.47858 0.11281 0.0
H192 H 0.79042 0.4262 0.05507 0.0
H193 H 0.78242 0.40471 0.1256 0.0
H194 H 0.78267 0.49607 0.06872 0.0
H195 H 0.76842 0.43929 0.98808 0.0
H196 H 0.77782 0.49928 0.9157 0.0
H197 H 0.74748 0.48145 0.87387 0.0
H198 H 0.79009 0.43005 0.91562 0.0
H199 H 0.78147 0.41089 0.84235 0.0
H200 H 0.76516 0.52901 0.058 0.0
H201 H 0.80412 0.52563 0.93076 0.0
H202 H 0.73917 0.46245 0.79988 0.0
H203 H 0.76959 0.56781 0.05935 0.0
H204 H 0.80769 0.56467 0.93129 0.0
C205 C 0.03767 0.25122 0.67112 0.0
C206 C 0.05781 0.26065 0.67946 0.0
C207 C 0.02615 0.25603 0.62973 0.0
C208 C 0.03457 0.27033 0.59576 0.0
C209 C 0.05445 0.2802 0.60471 0.0
C210 C 0.06593 0.27543 0.64614 0.0
C211 C 0.02317 0.27407 0.55008 0.0
C212 C 0.0008 0.27661 0.54915 0.0
C213 C 0.98982 0.27873 0.50572 0.0
C214 C 0.00135 0.27838 0.46284 0.0
C215 C 0.02371 0.27571 0.46314 0.0
C216 C 0.03452 0.27381 0.5069 0.0
C217 C 0.03571 0.27313 0.41802 0.0
C218 C 0.02842 0.25876 0.38301 0.0
C219 C 0.05533 0.28376 0.41127 0.0
C220 C 0.06785 0.27945 0.37123 0.0
C221 C 0.06113 0.26424 0.33733 0.0
C222 C 0.96615 0.27997 0.50507 0.0
C223 C 0.95401 0.26485 0.53053 0.0
C224 C 0.95558 0.29583 0.47826 0.0
C225 C 0.93316 0.29652 0.47695 0.0
C226 C 0.92105 0.28114 0.50175 0.0
C227 C 0.93165 0.26535 0.52864 0.0
C228 C 0.04103 0.25432 0.34309 0.0
H229 H 0.03092 0.23992 0.69634 0.0
H230 H 0.01096 0.24802 0.62363 0.0
H231 H 0.06124 0.29142 0.57938 0.0
H232 H 0.08151 0.28279 0.65128 0.0
H233 H 0.99187 0.27691 0.58228 0.0
H234 H 0.05169 0.27097 0.5072 0.0
H235 H 0.99286 0.27957 0.42918 0.0
H236 H 0.01343 0.25019 0.38759 0.0
H237 H 0.06117 0.29513 0.43744 0.0
H238 H 0.08303 0.28776 0.3673 0.0
H239 H 0.96182 0.25237 0.55114 0.0
H240 H 0.96466 0.30769 0.45848 0.0
H241 H 0.03546 0.24238 0.31792 0.0
H242 H 0.92262 0.25341 0.54831 0.0
H243 H 0.9253 0.30878 0.4558 0.0
C244 C 0.71646 0.94664 0.66729 0.0
C245 C 0.73414 0.93261 0.66807 0.0
C246 C 0.71142 0.95817 0.62589 0.0
C247 C 0.7238 0.95559 0.58449 0.0
C248 C 0.74151 0.94164 0.58548 0.0
C249 C 0.74663 0.93031 0.62678 0.0
C250 C 0.7186 0.96739 0.5401 0.0
C251 C 0.71508 0.98963 0.54083 0.0
C252 C 0.71291 0.00115 0.49803 0.0
C253 C 0.71379 0.99022 0.45434 0.0
C254 C 0.71656 0.96789 0.45327 0.0
C255 C 0.71889 0.95662 0.49625 0.0
C256 C 0.71844 0.95625 0.40756 0.0
C257 C 0.70722 0.93697 0.40068 0.0
C258 C 0.73286 0.96327 0.3724 0.0
C259 C 0.73693 0.95056 0.33238 0.0
C260 C 0.72655 0.93067 0.32678 0.0
C261 C 0.71128 0.0248 0.49894 0.0
C262 C 0.69598 0.03502 0.52776 0.0
C263 C 0.72557 0.03728 0.47198 0.0
C264 C 0.72484 0.05962 0.47442 0.0
C265 C 0.70959 0.06987 0.50328 0.0
C266 C 0.695 0.05742 0.52954 0.0
C267 C 0.71114 0.92438 0.3606 0.0
H268 H 0.70661 0.94876 0.69871 0.0
H269 H 0.69768 0.96883 0.626 0.0
H270 H 0.75151 0.93956 0.55428 0.0
H271 H 0.76019 0.91942 0.6261 0.0
H272 H 0.71527 -0.00185 0.57449 0.0
H273 H 0.72164 0.93943 0.49551 0.0
H274 H 0.71226 -0.00093 0.42122 0.0
H275 H 0.69578 0.93138 0.42697 0.0
H276 H 0.74182 0.97803 0.37707 0.0
H277 H 0.74898 0.95581 0.30715 0.0
H278 H 0.68478 0.02568 0.54878 0.0
H279 H 0.73762 0.02973 0.44981 0.0
H280 H 0.70249 0.9094 0.35674 0.0
H281 H 0.68315 0.06503 0.55215 0.0
H282 H 0.73616 0.06893 0.45363 0.0
C283 C 0.54439 0.2212 0.15911 0.0
C284 C 0.55891 0.23846 0.15901 0.0
C285 C 0.53216 0.21665 0.11841 0.0
C286 C 0.53426 0.22937 0.07724 0.0
C287 C 0.54803 0.24723 0.07831 0.0
C288 C 0.56027 0.25165 0.11861 0.0
C289 C 0.5226 0.2241 0.03263 0.0
C290 C 0.50078 0.2185 0.03326 0.0
C291 C 0.48938 0.21599 0.99037 0.0
C292 C 0.50005 0.2186 0.9467 0.0
C293 C 0.52187 0.22402 0.94564 0.0
C294 C 0.53308 0.22631 0.98865 0.0
C295 C 0.53265 0.22912 0.90005 0.0
C296 C 0.53058 0.21563 0.86023 0.0
C297 C 0.54524 0.24774 0.89642 0.0
C298 C 0.55593 0.25259 0.85425 0.0
C299 C 0.55429 0.23894 0.81463 0.0
C300 C 0.46585 0.21311 0.99119 0.0
C301 C 0.45633 0.1972 0.01966 0.0
C302 C 0.45273 0.2271 0.96485 0.0
C303 C 0.43047 0.22555 0.96771 0.0
C304 C 0.42091 0.20982 0.99652 0.0
C305 C 0.43397 0.19543 0.02194 0.0
C306 C 0.54143 0.22044 0.8179 0.0
H307 H 0.54312 0.21078 0.18991 0.0
H308 H 0.52163 0.20282 0.11862 0.0
H309 H 0.54952 0.25775 0.04773 0.0
H310 H 0.57106 0.2653 0.118 0.0
H311 H 0.49234 0.21744 0.06694 0.0
H312 H 0.55003 0.23026 0.98782 0.0
H313 H 0.49116 0.21726 0.91359 0.0
H314 H 0.52095 0.20118 0.86216 0.0
H315 H 0.54686 0.2586 0.92634 0.0
H316 H 0.56594 0.2668 0.85311 0.0
H317 H 0.46617 0.18623 0.04023 0.0
H318 H 0.4597 0.23966 0.94305 0.0
H319 H 0.53982 0.20969 0.78782 0.0
H320 H 0.42688 0.18323 0.04451 0.0
H321 H 0.42068 0.23674 0.94758 0.0
C322 C 0.25153 0.03966 0.34253 0.0
C323 C 0.25989 0.06051 0.33803 0.0
C324 C 0.25572 0.02745 0.38326 0.0
C325 C 0.26831 0.03586 0.42044 0.0
C326 C 0.2772 0.05646 0.41532 0.0
C327 C 0.27308 0.06864 0.37449 0.0
C328 C 0.271 0.02366 0.46549 0.0
C329 C 0.27477 0.00146 0.46461 0.0
C330 C 0.27527 0.98942 0.50702 0.0
C331 C 0.27231 1e-05 0.55072 0.0
C332 C 0.26894 0.02226 0.55227 0.0
C333 C 0.26837 0.03397 0.50953 0.0
C334 C 0.26498 0.03321 0.59826 0.0
C335 C 0.25044 0.02457 0.63142 0.0
C336 C 0.27513 0.05279 0.60852 0.0
C337 C 0.27057 0.06372 0.65069 0.0
C338 C 0.25565 0.05535 0.68337 0.0
C339 C 0.2778 0.96571 0.50554 0.0
C340 C 0.26775 0.95366 0.4695 0.0
C341 C 0.28961 0.95486 0.54093 0.0
C342 C 0.29091 0.93247 0.54085 0.0
C343 C 0.28067 0.92053 0.50505 0.0
C344 C 0.26929 0.93133 0.46911 0.0
C345 C 0.24576 0.03559 0.67349 0.0
H346 H 0.24149 0.03289 0.31482 0.0
H347 H 0.24848 0.01171 0.38634 0.0
H348 H 0.28711 0.06328 0.4432 0.0
H349 H 0.27961 0.08472 0.37226 0.0
H350 H 0.2773 0.99356 0.43071 0.0
H351 H 0.26485 0.05101 0.51048 0.0
H352 H 0.27226 0.99091 0.58365 0.0
H353 H 0.24225 0.00959 0.62423 0.0
H354 H 0.2865 0.05974 0.58373 0.0
H355 H 0.27826 0.07904 0.65704 0.0
H356 H 0.25816 0.9614 0.44223 0.0
H357 H 0.29785 0.96365 0.56874 0.0
H358 H 0.23429 0.02872 0.69815 0.0
H359 H 0.26102 0.92245 0.44145 0.0
H360 H 0.29996 0.92449 0.5687 0.0
C361 C 0.44521 0.75275 0.84714 0.0
C362 C 0.42845 0.76661 0.83324 0.0
C363 C 0.45808 0.75759 0.88649 0.0
C364 C 0.45422 0.77614 0.91334 0.0
C365 C 0.43785 0.79023 0.8993 0.0
C366 C 0.42527 0.78567 0.8593 0.0
C367 C 0.46654 0.78012 0.9574 0.0
C368 C 0.48899 0.78109 0.95624 0.0
C369 C 0.5008 0.7837 -0.00153 0.0
C370 C 0.48991 0.78503 0.04218 0.0
C371 C 0.4674 0.78348 0.04401 0.0
C372 C 0.45583 0.78146 0.00119 0.0
C373 C 0.45605 0.78177 0.09043 0.0
C374 C 0.4645 0.76888 0.1271 0.0
C375 C 0.43586 0.79141 0.09698 0.0
C376 C 0.42393 0.78737 0.13817 0.0
C377 C 0.43195 0.77362 0.17378 0.0
C378 C 0.52456 0.78392 0.99713 0.0
C379 C 0.5357 0.76822 0.97122 0.0
C380 C 0.53624 0.79954 0.02215 0.0
C381 C 0.55868 0.79951 0.02112 0.0
C382 C 0.56989 0.78369 0.99547 0.0
C383 C 0.5581 0.76803 0.97059 0.0
C384 C 0.4526 0.76489 0.16831 0.0
H385 H 0.44798 0.73775 0.82877 0.0
H386 H 0.47053 0.7464 0.89707 0.0
H387 H 0.43475 0.80473 0.91942 0.0
H388 H 0.41294 0.79704 0.84918 0.0
H389 H 0.49725 0.77988 0.92236 0.0
H390 H 0.43852 0.77966 0.00196 0.0
H391 H 0.49904 0.78658 0.07491 0.0
H392 H 0.4799 0.76103 0.12312 0.0
H393 H 0.42902 0.80163 0.06966 0.0
H394 H 0.40803 0.79427 0.14107 0.0
H395 H 0.52707 0.75578 0.9522 0.0
H396 H 0.528 0.81193 0.04207 0.0
H397 H 0.45938 0.75449 0.1954 0.0
H398 H 0.56614 0.75533 0.9513 0.0
H399 H 0.5672 0.81202 0.04006 0.0
H400 H 0.16915 0.25001 0.14838 0.0
H401 H 0.12618 0.19958 0.10219 0.0
H402 H 0.14242 0.26245 0.20453 0.0
H403 H 0.09929 0.21214 0.15942 0.0
H404 H 0.05089 0.2553 0.24396 0.0
H405 H 0.07529 0.2438 0.18054 0.0
H406 H 0.12848 0.24675 0.2792 0.0
H407 H 0.10432 0.25784 0.34227 0.0
C408 C 0.15398 0.24155 0.15009 0.0
C409 C 0.14997 0.22354 0.12121 0.0
C410 C 0.13867 0.2487 0.18242 0.0
C411 C 0.11892 0.23807 0.18686 0.0
C412 C 0.1144 0.22065 0.15664 0.0
C413 C 0.12982 0.21343 0.12405 0.0
C414 C 0.06778 0.25339 0.25206 0.0
C415 C 0.07569 0.25775 0.29806 0.0
C416 C 0.08171 0.2468 0.2158 0.0
C417 C 0.10379 0.24459 0.22486 0.0
C418 C 0.11161 0.24876 0.27088 0.0
C419 C 0.09775 0.25521 0.30701 0.0
H420 H 0.30856 0.63587 0.61435 0.0
H421 H 0.2416 0.65128 0.59469 0.0
H422 H 0.29874 0.60648 0.66739 0.0
H423 H 0.23153 0.62108 0.64491 0.0
H424 H 0.22267 0.58748 0.78801 0.0
H425 H 0.23093 0.61281 0.72482 0.0
H426 H 0.28405 0.57277 0.68045 0.0
H427 H 0.27632 0.54812 0.74599 0.0
C428 C 0.29172 0.63258 0.62054 0.0
C429 C 0.27584 0.64594 0.60108 0.0
C430 C 0.28602 0.61564 0.65071 0.0
C431 C 0.26428 0.61144 0.66111 0.0
C432 C 0.24843 0.62415 0.63907 0.0
C433 C 0.25416 0.64138 0.60996 0.0
C434 C 0.2359 0.584 0.76422 0.0
C435 C 0.24889 0.56595 0.77173 0.0
C436 C 0.24063 0.59846 0.72772 0.0
C437 C 0.25824 0.59497 0.69726 0.0
C438 C 0.27066 0.57629 0.70369 0.0
C439 C 0.26616 0.56205 0.74091 0.0
H440 H 0.86552 0.79478 0.08405 0.0
H441 H 0.8239 0.74967 0.1561 0.0
H442 H 0.89479 0.78501 0.13771 0.0
H443 H 0.85296 0.74031 0.21 0.0
H444 H 0.91298 0.71492 0.2777 0.0
H445 H 0.88759 0.72256 0.21374 0.0
H446 H 0.90373 0.78991 0.22167 0.0
H447 H 0.92976 0.78214 0.28431 0.0
C448 C 0.86259 0.78277 0.11117 0.0
C449 C 0.84228 0.77311 0.11581 0.0
C450 C 0.87935 0.77724 0.14205 0.0
C451 C 0.87621 0.76189 0.17812 0.0
C452 C 0.85603 0.75196 0.18217 0.0
C453 C 0.83929 0.75749 0.15141 0.0
C454 C 0.91148 0.73129 0.26506 0.0
C455 C 0.9233 0.74795 0.28632 0.0
C456 C 0.89674 0.7357 0.22879 0.0
C457 C 0.89347 0.75688 0.21296 0.0
C458 C 0.90594 0.77341 0.23283 0.0
C459 C 0.92069 0.769 0.2691 0.0
H460 H 0.74532 0.32529 0.64064 0.0
H461 H 0.69763 0.36711 0.57764 0.0
H462 H 0.75702 0.35417 0.69215 0.0
H463 H 0.70976 0.39636 0.62927 0.0
H464 H 0.71933 0.4291 0.77923 0.0
H465 H 0.70863 0.40479 0.71538 0.0
H466 H 0.77518 0.38873 0.69101 0.0
H467 H 0.78585 0.41293 0.75504 0.0
C468 C 0.73739 0.34071 0.63747 0.0
C469 C 0.7204 0.3438 0.60513 0.0
C470 C 0.74429 0.35737 0.66679 0.0
C471 C 0.7344 0.3776 0.66466 0.0
C472 C 0.71761 0.38089 0.63189 0.0
C473 C 0.71073 0.36417 0.60223 0.0
C474 C 0.7317 0.42073 0.75953 0.0
C475 C 0.75342 0.42271 0.77251 0.0
C476 C 0.72556 0.40681 0.72291 0.0
C477 C 0.74104 0.39464 0.69854 0.0
C478 C 0.76285 0.39756 0.7098 0.0
C479 C 0.76896 0.41141 0.74643 0.0
H480 H 0.66868 0.24356 0.34647 0.0
H481 H 0.62621 0.2926 0.40126 0.0
H482 H 0.64112 0.23236 0.29066 0.0
H483 H 0.59853 0.28126 0.34456 0.0
H484 H 0.54926 0.24153 0.25416 0.0
H485 H 0.57433 0.24931 0.31975 0.0
H486 H 0.6267 0.25156 0.21915 0.0
H487 H 0.60192 0.24373 0.15442 0.0
C488 C 0.65344 0.25193 0.34685 0.0
C489 C 0.64982 0.26926 0.37788 0.0
C490 C 0.63765 0.24546 0.3148 0.0
C491 C 0.61783 0.25611 0.31294 0.0
C492 C 0.61369 0.27274 0.34543 0.0
C493 C 0.62958 0.27929 0.37764 0.0
C494 C 0.56617 0.24353 0.24644 0.0
C495 C 0.57371 0.24216 0.19938 0.0
C496 C 0.58043 0.24811 0.28373 0.0
C497 C 0.60242 0.25096 0.27444 0.0
C498 C 0.60988 0.2492 0.22743 0.0
C499 C 0.59568 0.2449 0.19034 0.0
H500 H 0.24474 0.16467 0.86072 0.0
H501 H 0.19498 0.1245 0.92067 0.0
H502 H 0.25567 0.13562 0.80904 0.0
H503 H 0.20635 0.09502 0.86892 0.0
H504 H 0.28242 0.07636 0.74474 0.0
H505 H 0.27241 0.1005 0.80934 0.0
H506 H 0.2054 0.08706 0.78281 0.0
H507 H 0.21545 0.06276 0.7185 0.0
C508 C 0.2362 0.14957 0.86322 0.0
C509 C 0.21883 0.14701 0.8947 0.0
C510 C 0.24265 0.1328 0.8338 0.0
C511 C 0.23195 0.11297 0.83499 0.0
C512 C 0.21482 0.11018 0.86701 0.0
C513 C 0.20837 0.12703 0.89675 0.0
C514 C 0.26557 0.07844 0.75301 0.0
C515 C 0.24972 0.06788 0.72625 0.0
C516 C 0.25983 0.09225 0.78997 0.0
C517 C 0.2381 0.09589 0.8008 0.0
C518 C 0.22228 0.08446 0.77565 0.0
C519 C 0.22804 0.07057 0.73875 0.0
H520 H 0.36689 0.7099 0.41113 0.0
H521 H 0.3197 0.75111 0.34439 0.0
H522 H 0.39448 0.72448 0.35879 0.0
H523 H 0.3472 0.76531 0.29171 0.0
H524 H 0.40472 0.79872 0.22672 0.0
H525 H 0.37984 0.78704 0.28875 0.0
H526 H 0.40295 0.72201 0.27417 0.0
H527 H 0.42766 0.7336 0.21235 0.0
C528 C 0.36238 0.7221 0.38548 0.0
C529 C 0.34099 0.72918 0.38182 0.0
C530 C 0.3782 0.7304 0.35535 0.0
C531 C 0.37303 0.746 0.32097 0.0
C532 C 0.35179 0.7535 0.31817 0.0
C533 C 0.33597 0.7452 0.3482 0.0
C534 C 0.40452 0.78195 0.23691 0.0
C535 C 0.41817 0.7671 0.21451 0.0
C536 C 0.39027 0.77526 0.27242 0.0
C537 C 0.38937 0.75358 0.28631 0.0
C538 C 0.40346 0.73888 0.26487 0.0
C539 C 0.41766 0.74555 0.2294 0.0
H540 H 0.7461 0.822 0.84538 0.0
H541 H 0.79134 0.86548 0.91139 0.0
H542 H 0.73448 0.8505 0.79198 0.0
H543 H 0.77942 0.8941 0.85811 0.0
H544 H 0.77355 0.92606 0.708 0.0
H545 H 0.78284 0.90125 0.77203 0.0
H546 H 0.71578 0.88541 0.78956 0.0
H547 H 0.70655 0.9099 0.72454 0.0
C548 C 0.75348 0.83767 0.84879 0.0
C549 C 0.76981 0.84136 0.88246 0.0
C550 C 0.74665 0.85407 0.81843 0.0
C551 C 0.75603 0.87454 0.82085 0.0
C552 C 0.77203 0.87841 0.85515 0.0
C553 C 0.7788 0.86203 0.88575 0.0
C554 C 0.76079 0.91738 0.72578 0.0
C555 C 0.73935 0.91973 0.71099 0.0
C556 C 0.76608 0.90333 0.76275 0.0
C557 C 0.75005 0.89128 0.78562 0.0
C558 C 0.7285 0.89431 0.77219 0.0
C559 C 0.72319 0.90846 0.73531 0.0
H560 H 0.83333 0.7391 0.88444 0.0
H561 H 0.85775 0.80388 0.87972 0.0
H562 H 0.86211 0.72732 0.83226 0.0
H563 H 0.88583 0.79254 0.82477 0.0
H564 H 0.9422 0.765 0.74584 0.0
H565 H 0.91746 0.77399 0.81024 0.0
H566 H 0.87141 0.72875 0.75307 0.0
H567 H 0.89672 0.71905 0.69093 0.0
C568 C 0.84487 0.75084 0.87192 0.0
C569 C 0.84327 0.77242 0.88572 0.0
C570 C 0.8613 0.74414 0.84168 0.0
C571 C 0.87622 0.75898 0.82343 0.0
C572 C 0.87489 0.78053 0.83843 0.0
C573 C 0.85871 0.78712 0.8697 0.0
C574 C 0.92687 0.75683 0.74777 0.0
C575 C 0.92133 0.74129 0.71376 0.0
C576 C 0.91259 0.76208 0.78434 0.0
C577 C 0.89227 0.75222 0.78701 0.0
C578 C 0.88701 0.7364 0.75311 0.0
C579 C 0.90146 0.73086 0.71722 0.0
H580 H 0.7441 0.31766 0.33412 0.0
H581 H 0.70276 0.36418 0.40218 0.0
H582 H 0.75657 0.34504 0.27926 0.0
H583 H 0.71571 0.39179 0.34755 0.0
H584 H 0.72375 0.42542 0.20069 0.0
H585 H 0.71268 0.4007 0.26333 0.0
H586 H 0.77783 0.37744 0.27507 0.0
H587 H 0.78887 0.40209 0.21205 0.0
C588 C 0.73776 0.33378 0.33771 0.0
C589 C 0.7223 0.33865 0.37255 0.0
C590 C 0.74508 0.34954 0.30638 0.0
C591 C 0.7372 0.37063 0.30908 0.0
C592 C 0.72194 0.37563 0.34424 0.0
C593 C 0.71457 0.35982 0.37567 0.0
C594 C 0.73579 0.4153 0.21723 0.0
C595 C 0.75717 0.41562 0.20127 0.0
C596 C 0.72944 0.40113 0.25318 0.0
C597 C 0.74434 0.387 0.274 0.0
C598 C 0.76588 0.38785 0.25913 0.0
C599 C 0.77221 0.40197 0.22309 0.0
H600 H 0.16876 0.24418 0.85327 0.0
H601 H 0.12544 0.19803 0.91667 0.0
H602 H 0.14034 0.25631 0.80068 0.0
H603 H 0.09673 0.21057 0.86401 0.0
H604 H 0.064 0.22023 0.71478 0.0
H605 H 0.0886 0.20917 0.77782 0.0
H606 H 0.1061 0.27542 0.8013 0.0
H607 H 0.08149 0.28649 0.73818 0.0
C608 C 0.15313 0.23667 0.85627 0.0
C609 C 0.14946 0.22 0.88912 0.0
C610 C 0.13676 0.24381 0.82632 0.0
C611 C 0.11627 0.23448 0.82833 0.0
C612 C 0.11243 0.21797 0.86146 0.0
C613 C 0.12885 0.21084 0.8917 0.0
C614 C 0.07275 0.23247 0.73408 0.0
C615 C 0.07095 0.25422 0.72124 0.0
C616 C 0.08684 0.22613 0.77021 0.0
C617 C 0.09942 0.2414 0.79422 0.0
C618 C 0.0969 0.26324 0.78282 0.0
C619 C 0.08283 0.26958 0.74669 0.0
H620 H 0.24444 0.65843 0.37487 0.0
H621 H 0.31083 0.63886 0.36968 0.0
H622 H 0.23491 0.6299 0.3198 0.0
H623 H 0.30174 0.61116 0.31171 0.0
H624 H 0.2779 0.5538 0.22911 0.0
H625 H 0.2857 0.57858 0.29428 0.0
H626 H 0.23697 0.62187 0.24026 0.0
H627 H 0.22846 0.59635 0.17758 0.0
C628 C 0.25701 0.64803 0.36153 0.0
C629 C 0.27837 0.65086 0.37613 0.0
C630 C 0.25161 0.63176 0.32962 0.0
C631 C 0.26756 0.61831 0.31042 0.0
C632 C 0.28892 0.62093 0.32604 0.0
C633 C 0.29422 0.63689 0.35904 0.0
C634 C 0.26878 0.56855 0.23187 0.0
C635 C 0.25254 0.57322 0.19881 0.0
C636 C 0.27332 0.58286 0.26887 0.0
C637 C 0.26202 0.60236 0.27281 0.0
C638 C 0.24571 0.60685 0.23941 0.0
C639 C 0.24087 0.59233 0.20318 0.0
H640 H 0.31731 0.72071 0.67991 0.0
H641 H 0.36482 0.72532 0.56853 0.0
H642 H 0.34325 0.73363 0.73755 0.0
H643 H 0.3907 0.73955 0.62585 0.0
H644 H 0.43778 0.74439 0.7509 0.0
H645 H 0.41282 0.73154 0.69083 0.0
H646 H 0.36091 0.76408 0.76297 0.0
H647 H 0.38533 0.77505 0.82528 0.0
C648 C 0.33329 0.72476 0.66767 0.0
C649 C 0.33902 0.72207 0.61971 0.0
C650 C 0.34818 0.73237 0.70069 0.0
C651 C 0.3691 0.73798 0.68648 0.0
C652 C 0.37486 0.73519 0.63835 0.0
C653 C 0.36002 0.72712 0.60539 0.0
C654 C 0.42099 0.74857 0.75439 0.0
C655 C 0.41366 0.76061 0.79354 0.0
C656 C 0.40668 0.74147 0.71934 0.0
C657 C 0.3847 0.74653 0.72206 0.0
C658 C 0.37758 0.75935 0.76012 0.0
C659 C 0.39177 0.76606 0.79559 0.0
H660 H 0.74187 0.82041 0.14353 0.0
H661 H 0.79106 0.86409 0.09425 0.0
H662 H 0.72896 0.84747 0.19849 0.0
H663 H 0.77817 0.89121 0.15033 0.0
H664 H 0.73567 0.94002 0.23304 0.0
H665 H 0.74702 0.91495 0.17077 0.0
H666 H 0.74356 0.86271 0.27183 0.0
H667 H 0.73249 0.88752 0.33359 0.0
C668 C 0.74997 0.83579 0.14435 0.0
C669 C 0.76772 0.83995 0.11485 0.0
C670 C 0.74256 0.8513 0.17601 0.0
C671 C 0.75273 0.87135 0.17919 0.0
C672 C 0.76996 0.87591 0.14851 0.0
C673 C 0.7774 0.86034 0.11659 0.0
C674 C 0.73739 0.92318 0.24185 0.0
C675 C 0.73291 0.91573 0.28812 0.0
C676 C 0.74389 0.90886 0.20626 0.0
C677 C 0.74597 0.88685 0.21632 0.0
C678 C 0.74163 0.8795 0.26264 0.0
C679 C 0.73522 0.89374 0.29806 0.0
H680 H 0.66702 0.24956 0.64813 0.0
H681 H 0.62517 0.29392 0.57408 0.0
H682 H 0.63732 0.23849 0.69827 0.0
H683 H 0.59526 0.28243 0.62405 0.0
H684 H 0.55964 0.27762 0.77033 0.0
H685 H 0.58524 0.28641 0.70776 0.0
H686 H 0.60307 0.21954 0.69775 0.0
H687 H 0.57798 0.21087 0.76165 0.0
C688 C 0.65145 0.25687 0.64223 0.0
C689 C 0.64857 0.27279 0.60724 0.0
C690 C 0.63435 0.25032 0.67074 0.0
C691 C 0.61391 0.25952 0.665 0.0
C692 C 0.61088 0.27518 0.62953 0.0
C693 C 0.62801 0.28173 0.60087 0.0
C694 C 0.56891 0.26478 0.75445 0.0
C695 C 0.56704 0.24361 0.77132 0.0
C696 C 0.58341 0.26978 0.71827 0.0
C697 C 0.59635 0.2537 0.69819 0.0
C698 C 0.59355 0.23232 0.7131 0.0
C699 C 0.57902 0.22732 0.74931 0.0
H700 H 0.24292 0.1724 0.16441 0.0
H701 H 0.20001 0.12713 0.09661 0.0
H702 H 0.25491 0.14463 0.21884 0.0
H703 H 0.21249 0.0991 0.15086 0.0
H704 H 0.22024 0.06532 0.29789 0.0
H705 H 0.2096 0.09021 0.23515 0.0
H706 H 0.27532 0.11168 0.22246 0.0
H707 H 0.28591 0.08686 0.28561 0.0
C708 C 0.23613 0.15648 0.16079 0.0
C709 C 0.22038 0.15208 0.12616 0.0
C710 C 0.24318 0.14048 0.19185 0.0
C711 C 0.23473 0.11962 0.18911 0.0
C712 C 0.21917 0.11508 0.15417 0.0
C713 C 0.21208 0.13114 0.123 0.0
C714 C 0.23248 0.07508 0.2811 0.0
C715 C 0.2539 0.07423 0.29687 0.0
C716 C 0.22638 0.08933 0.2451 0.0
C717 C 0.24158 0.10303 0.22402 0.0
C718 C 0.26315 0.10162 0.23861 0.0
C719 C 0.26923 0.0874 0.27472 0.0
H720 H 0.19858 0.28739 0.06559 0.0
H721 H 0.22678 0.28565 0.92496 0.0
H722 H 0.19662 0.32651 0.06099 0.0
H723 H 0.22495 0.32477 0.9208 0.0
H724 H 0.24591 0.39339 0.97184 0.0
H725 H 0.24451 0.35421 0.9698 0.0
H726 H 0.17755 0.3561 0.0092 0.0
H727 H 0.17892 0.39552 0.01073 0.0
C728 C 0.20433 0.29534 0.03372 0.0
C729 C 0.21298 0.28345 0.99576 0.0
C730 C 0.20303 0.31768 0.03097 0.0
C731 C 0.21064 0.32855 0.99056 0.0
C732 C 0.21906 0.3167 0.95241 0.0
C733 C 0.22006 0.29435 0.9548 0.0
C734 C 0.23088 0.3854 0.97982 0.0
C735 C 0.21254 0.39732 0.99166 0.0
C736 C 0.23005 0.36306 0.97835 0.0
C737 C 0.21093 0.35224 0.98936 0.0
C738 C 0.19249 0.36415 0.00077 0.0
C739 C 0.19323 0.38658 0.00143 0.0
H740 H 0.20276 0.71657 0.5659 0.0
H741 H 0.20614 0.69538 0.41952 0.0
H742 H 0.16416 0.71131 0.56527 0.0
H743 H 0.16746 0.68933 0.41941 0.0
H744 H 0.09553 0.70808 0.42169 0.0
H745 H 0.13465 0.7088 0.41947 0.0
H746 H 0.13672 0.6851 0.56431 0.0
H747 H 0.09757 0.68516 0.56678 0.0
C748 C 0.19529 0.71056 0.53369 0.0
C749 C 0.20754 0.70651 0.49269 0.0
C750 C 0.17312 0.70736 0.53344 0.0
C751 C 0.16264 0.69978 0.49235 0.0
C752 C 0.17494 0.69546 0.45148 0.0
C753 C 0.19713 0.69887 0.45157 0.0
C754 C 0.10441 0.70268 0.45269 0.0
C755 C 0.0936 0.69671 0.49451 0.0
C756 C 0.12683 0.70305 0.45146 0.0
C757 C 0.13889 0.69725 0.49191 0.0
C758 C 0.12797 0.69019 0.5329 0.0
C759 C 0.10557 0.69008 0.53429 0.0
H760 H 0.7942 0.70565 0.92457 0.0
H761 H 0.77102 0.70222 0.0694 0.0
H762 H 0.79895 0.66686 0.92388 0.0
H763 H 0.77485 0.6634 0.06812 0.0
H764 H 0.80009 0.59584 0.06823 0.0
H765 H 0.79976 0.635 0.06835 0.0
H766 H 0.77894 0.6348 0.92122 0.0
H767 H 0.78017 0.59572 0.92092 0.0
C768 C 0.78994 0.69657 0.95612 0.0
C769 C 0.78218 0.70698 0.997 0.0
C770 C 0.79259 0.67431 0.9557 0.0
C771 C 0.78726 0.66192 0.99591 0.0
C772 C 0.77953 0.67241 0.0368 0.0
C773 C 0.77717 0.69468 0.03745 0.0
C774 C 0.79562 0.60427 0.03591 0.0
C775 C 0.79014 0.59285 0.9946 0.0
C776 C 0.79529 0.62667 0.03598 0.0
C777 C 0.78914 0.63813 0.9949 0.0
C778 C 0.78407 0.6266 0.9533 0.0
C779 C 0.7847 0.6042 0.95308 0.0
H780 H 0.7872 0.26291 0.42654 0.0
H781 H 0.78585 0.29315 0.56511 0.0
H782 H 0.82632 0.26499 0.42643 0.0
H783 H 0.82503 0.2953 0.5646 0.0
H784 H 0.89398 0.31484 0.51699 0.0
H785 H 0.85462 0.31445 0.51461 0.0
H786 H 0.85577 0.24718 0.47785 0.0
H787 H 0.895 0.24755 0.48043 0.0
C788 C 0.79523 0.27008 0.45685 0.0
C789 C 0.78345 0.27778 0.49594 0.0
C790 C 0.81759 0.27119 0.45681 0.0
C791 C 0.82858 0.28029 0.4955 0.0
C792 C 0.81686 0.28834 0.53422 0.0
C793 C 0.79449 0.28696 0.53461 0.0
C794 C 0.88575 0.30005 0.50816 0.0
C795 C 0.89739 0.28121 0.49902 0.0
C796 C 0.86333 0.29979 0.50709 0.0
C797 C 0.85227 0.28078 0.49605 0.0
C798 C 0.86396 0.26205 0.48615 0.0
C799 C 0.88633 0.26223 0.48793 0.0
H800 H 0.72677 0.20487 0.573 0.0
H801 H 0.69663 0.20395 0.43414 0.0
H802 H 0.72471 0.1657 0.57641 0.0
H803 H 0.69439 0.16483 0.43805 0.0
H804 H 0.67534 0.09647 0.48991 0.0
H805 H 0.67527 0.13585 0.49145 0.0
H806 H 0.74291 0.13564 0.52533 0.0
H807 H 0.74303 0.09637 0.52326 0.0
C808 C 0.71957 0.19633 0.54341 0.0
C809 C 0.71197 0.20747 0.50318 0.0
C810 C 0.71847 0.17396 0.54534 0.0
C811 C 0.70939 0.16236 0.5075 0.0
C812 C 0.70133 0.17347 0.4678 0.0
C813 C 0.70276 0.19581 0.46547 0.0
C814 C 0.69011 0.10491 0.49799 0.0
C815 C 0.70921 0.09352 0.50629 0.0
C816 C 0.6901 0.12734 0.49864 0.0
C817 C 0.70909 0.13866 0.50852 0.0
C818 C 0.72805 0.12724 0.51795 0.0
C819 C 0.72815 0.10485 0.51646 0.0
H820 H 0.2872 0.22643 0.07482 0.0
H821 H 0.28585 0.19627 0.93615 0.0
H822 H 0.32631 0.22405 0.07551 0.0
H823 H 0.32502 0.19382 0.93726 0.0
H824 H 0.3945 0.17533 0.98374 0.0
H825 H 0.35511 0.17492 0.98754 0.0
H826 H 0.35524 0.24231 0.02334 0.0
H827 H 0.39441 0.24274 0.01918 0.0
C828 C 0.29522 0.21917 0.04465 0.0
C829 C 0.28345 0.21166 0.00528 0.0
C830 C 0.31758 0.21788 0.04505 0.0
C831 C 0.32857 0.20877 0.00645 0.0
C832 C 0.31685 0.20077 0.96759 0.0
C833 C 0.29448 0.20235 0.96683 0.0
C834 C 0.38602 0.18995 0.99274 0.0
C835 C 0.39733 0.20908 0.001 0.0
C836 C 0.3636 0.18975 0.99464 0.0
C837 C 0.35226 0.20859 0.00573 0.0
C838 C 0.36365 0.22756 0.01505 0.0
C839 C 0.38598 0.22784 0.01239 0.0
H840 H 0.26117 0.78731 0.43242 0.0
H841 H 0.28758 0.78409 0.57476 0.0
H842 H 0.26355 0.82623 0.43442 0.0
H843 H 0.29076 0.82303 0.57609 0.0
H844 H 0.27214 0.89419 0.58016 0.0
H845 H 0.27029 0.85509 0.58019 0.0
H846 H 0.28899 0.85444 0.43184 0.0
H847 H 0.29007 0.89356 0.4317 0.0
C848 C 0.2676 0.79491 0.46406 0.0
C849 C 0.27416 0.7826 0.50345 0.0
C850 C 0.26913 0.81725 0.46508 0.0
C851 C 0.2775 0.82781 0.50528 0.0
C852 C 0.28397 0.81547 0.54479 0.0
C853 C 0.28221 0.79313 0.54398 0.0
C854 C 0.27604 0.88561 0.54777 0.0
C855 C 0.28116 0.89682 0.50589 0.0
C856 C 0.27503 0.86322 0.54774 0.0
C857 C 0.27936 0.85158 0.50592 0.0
C858 C 0.28507 0.86288 0.46439 0.0
C859 C 0.28583 0.88526 0.46431 0.0
H860 H 0.70612 0.78813 0.92344 0.0
H861 H 0.70418 0.76442 0.06816 0.0
H862 H 0.66721 0.79146 0.92337 0.0
H863 H 0.6652 0.76692 0.06748 0.0
H864 H 0.59749 0.79292 0.06892 0.0
H865 H 0.6365 0.79179 0.06844 0.0
H866 H 0.6354 0.77087 0.92166 0.0
H867 H 0.5965 0.77348 0.92113 0.0
C868 C 0.69737 0.78341 0.95509 0.0
C869 C 0.70827 0.77599 0.99579 0.0
C870 C 0.67502 0.78523 0.95499 0.0
C871 C 0.663 0.77945 0.99541 0.0
C872 C 0.67393 0.7719 0.03601 0.0
C873 C 0.69629 0.77032 0.0363 0.0
C874 C 0.60556 0.78846 0.03626 0.0
C875 C 0.59378 0.78327 0.99508 0.0
C876 C 0.62797 0.78748 0.03621 0.0
C877 C 0.63916 0.7811 0.99511 0.0
C878 C 0.62738 0.77608 0.95383 0.0
C879 C 0.60499 0.77726 0.95374 0.0
loop_
_geom_bond_atom_site_label_1
_geom_bond_atom_site_label_2
_geom_bond_distance
_geom_bond_site_symmetry_2
_ccdc_geom_bond_type
Sc0 O3 2.031 . S
Sc0 O10 2.105 . S
Sc0 O13 2.105 . S
Sc0 O16 2.105 . S
Sc0 O19 2.105 . S
Sc1 O3 2.025 . S
Sc1 O11 2.110 . S
Sc1 O15 2.100 1_554 S
Sc1 O17 2.110 . S
Sc1 O21 2.100 1_554 S
Sc2 O3 2.019 1_556 S
Sc2 O12 2.105 . S
Sc2 O14 2.105 . S
Sc2 O18 2.105 . S
Sc2 O20 2.105 . S
O3 Sc0 2.031 . S
O3 Sc1 2.025 . S
O3 Sc2 2.019 1_554 S
C4 O10 1.272 . S
C4 O20 1.264 1_554 S
C5 O11 1.268 . S
C5 O19 1.268 . S
C6 O12 1.268 . S
C6 O21 1.268 . S
C7 O13 1.268 . S
C7 O17 1.268 . S
C8 O14 1.260 1_554 S
C8 O16 1.276 . S
C9 O15 1.268 . S
C9 O18 1.268 . S
O10 Sc0 2.105 . S
O10 C4 1.272 . S
O11 Sc1 2.110 . S
O11 C5 1.268 . S
O12 Sc2 2.105 . S
O12 C6 1.268 . S
O13 Sc0 2.105 . S
O13 C7 1.268 . S
O14 Sc2 2.105 . S
O14 C8 1.260 1_556 S
O15 Sc1 2.100 1_556 S
O15 C9 1.268 . S
O16 Sc0 2.105 . S
O16 C8 1.276 . S
O17 Sc1 2.110 . S
O17 C7 1.268 . S
O18 Sc2 2.105 . S
O18 C9 1.268 . S
O19 Sc0 2.105 . S
O19 C5 1.268 . S
O20 Sc2 2.105 . S
O20 C4 1.264 1_556 S
O21 Sc1 2.100 1_556 S
O21 C6 1.268 . S
Sc22 O25 2.025 . S
Sc22 O32 2.105 . S
Sc22 O35 2.105 . S
Sc22 O38 2.105 . S
Sc22 O41 2.105 . S
Sc23 O25 2.025 . S
Sc23 O33 2.105 . S
Sc23 O37 2.105 . S
Sc23 O39 2.105 . S
Sc23 O43 2.105 . S
Sc24 O25 2.025 . S
Sc24 O34 2.105 . S
Sc24 O36 2.105 . S
Sc24 O40 2.105 . S
Sc24 O42 2.105 . S
O25 Sc22 2.025 . S
O25 Sc23 2.025 . S
O25 Sc24 2.025 . S
C26 O32 1.268 . S
C26 O42 1.268 . S
C27 O33 1.268 . S
C27 O41 1.268 . S
C28 O34 1.268 . S
C28 O43 1.268 . S
C29 O35 1.268 . S
C29 O39 1.268 . S
C30 O36 1.268 . S
C30 O38 1.268 . S
C31 O37 1.268 . S
C31 O40 1.268 . S
O32 Sc22 2.105 . S
O32 C26 1.268 . S
O33 Sc23 2.105 . S
O33 C27 1.268 . S
O34 Sc24 2.105 . S
O34 C28 1.268 . S
O35 Sc22 2.105 . S
O35 C29 1.268 . S
O36 Sc24 2.105 . S
O36 C30 1.268 . S
O37 Sc23 2.105 . S
O37 C31 1.268 . S
O38 Sc22 2.105 . S
O38 C30 1.268 . S
O39 Sc23 2.105 . S
O39 C29 1.268 . S
O40 Sc24 2.105 . S
O40 C31 1.268 . S
O41 Sc22 2.105 . S
O41 C27 1.268 . S
O42 Sc24 2.105 . S
O42 C26 1.268 . S
O43 Sc23 2.105 . S
O43 C28 1.268 . S
Sc44 O47 2.019 1_556 S
Sc44 O54 2.105 . S
Sc44 O57 2.105 . S
Sc44 O60 2.105 . S
Sc44 O63 2.105 . S
Sc45 O47 2.025 . S
Sc45 O55 2.100 1_554 S
Sc45 O59 2.110 . S
Sc45 O61 2.100 1_554 S
Sc45 O65 2.110 . S
Sc46 O47 2.031 . S
Sc46 O56 2.105 . S
Sc46 O58 2.105 . S
Sc46 O62 2.105 . S
Sc46 O64 2.105 . S
O47 Sc44 2.019 1_554 S
O47 Sc45 2.025 . S
O47 Sc46 2.031 . S
C48 O54 1.264 1_554 S
C48 O64 1.272 . S
C49 O55 1.268 . S
C49 O63 1.268 . S
C50 O56 1.268 . S
C50 O65 1.268 . S
C51 O57 1.268 . S
C51 O61 1.268 . S
C52 O58 1.276 . S
C52 O60 1.260 1_554 S
C53 O59 1.268 . S
C53 O62 1.268 . S
O54 Sc44 2.105 . S
O54 C48 1.264 1_556 S
O55 Sc45 2.100 1_556 S
O55 C49 1.268 . S
O56 Sc46 2.105 . S
O56 C50 1.268 . S
O57 Sc44 2.105 . S
O57 C51 1.268 . S
O58 Sc46 2.105 . S
O58 C52 1.276 . S
O59 Sc45 2.110 . S
O59 C53 1.268 . S
O60 Sc44 2.105 . S
O60 C52 1.260 1_556 S
O61 Sc45 2.100 1_556 S
O61 C51 1.268 . S
O62 Sc46 2.105 . S
O62 C53 1.268 . S
O63 Sc44 2.105 . S
O63 C49 1.268 . S
O64 Sc46 2.105 . S
O64 C48 1.272 . S
O65 Sc45 2.110 . S
O65 C50 1.268 . S
Sc66 O69 2.025 . S
Sc66 O76 2.105 . S
Sc66 O79 2.105 . S
Sc66 O82 2.105 . S
Sc66 O85 2.105 . S
Sc67 O69 2.025 . S
Sc67 O77 2.105 . S
Sc67 O81 2.105 . S
Sc67 O83 2.105 . S
Sc67 O87 2.105 . S
Sc68 O69 2.025 . S
Sc68 O78 2.105 . S
Sc68 O80 2.105 . S
Sc68 O84 2.105 . S
Sc68 O86 2.105 . S
O69 Sc66 2.025 . S
O69 Sc67 2.025 . S
O69 Sc68 2.025 . S
C70 O76 1.268 . S
C70 O86 1.268 . S
C71 O77 1.268 . S
C71 O85 1.268 . S
C72 O78 1.268 . S
C72 O87 1.268 . S
C73 O79 1.268 . S
C73 O83 1.268 . S
C74 O80 1.268 . S
C74 O82 1.268 . S
C75 O81 1.268 . S
C75 O84 1.268 . S
O76 Sc66 2.105 . S
O76 C70 1.268 . S
O77 Sc67 2.105 . S
O77 C71 1.268 . S
O78 Sc68 2.105 . S
O78 C72 1.268 . S
O79 Sc66 2.105 . S
O79 C73 1.268 . S
O80 Sc68 2.105 . S
O80 C74 1.268 . S
O81 Sc67 2.105 . S
O81 C75 1.268 . S
O82 Sc66 2.105 . S
O82 C74 1.268 . S
O83 Sc67 2.105 . S
O83 C73 1.268 . S
O84 Sc68 2.105 . S
O84 C75 1.268 . S
O85 Sc66 2.105 . S
O85 C71 1.268 . S
O86 Sc68 2.105 . S
O86 C70 1.268 . S
O87 Sc67 2.105 . S
O87 C72 1.268 . S
C88 C89 1.386 . S
C88 C90 1.397 . S
C88 H112 0.931 . S
C89 C88 1.386 . S
C89 C93 1.397 . S
C90 C88 1.397 . S
C90 C91 1.384 . S
C90 H113 0.930 . S
C91 C90 1.384 . S
C91 C92 1.377 . S
C91 C94 1.481 . S
C92 C91 1.377 . S
C92 C93 1.389 . S
C92 H114 0.929 . S
C93 C89 1.397 . S
C93 C92 1.389 . S
C93 H115 0.931 . S
C94 C91 1.481 . S
C94 C95 1.387 . S
C94 C99 1.390 1_556 S
C95 C94 1.387 . S
C95 C96 1.401 1_556 S
C95 H116 0.930 . S
C96 C95 1.401 1_554 S
C96 C97 1.376 . S
C96 C105 1.511 . S
C97 C96 1.376 . S
C97 C98 1.392 . S
C97 H118 0.931 . S
C98 C97 1.392 . S
C98 C99 1.361 . S
C98 C100 1.500 . S
C99 C94 1.390 1_554 S
C99 C98 1.361 . S
C99 H117 0.931 . S
C100 C98 1.500 . S
C100 C101 1.371 . S
C100 C102 1.365 . S
C101 C100 1.371 . S
C101 C111 1.386 . S
C101 H119 0.931 . S
C102 C100 1.365 . S
C102 C103 1.409 . S
C102 H120 0.929 . S
C103 C102 1.409 . S
C103 C104 1.380 . S
C103 H121 0.930 . S
C104 C103 1.380 . S
C104 C111 1.357 . S
C105 C96 1.511 . S
C105 C106 1.341 1_554 S
C105 C107 1.371 . S
C106 C105 1.341 1_556 S
C106 C110 1.394 . S
C106 H122 0.930 . S
C107 C105 1.371 . S
C107 C108 1.392 . S
C107 H123 0.931 . S
C108 C107 1.392 . S
C108 C109 1.347 . S
C108 H126 0.932 . S
C109 C108 1.347 . S
C109 C110 1.320 1_554 S
C110 C106 1.394 . S
C110 C109 1.320 1_556 S
C110 H125 0.929 . S
C111 C101 1.386 . S
C111 C104 1.357 . S
C111 H124 0.928 . S
H112 C88 0.931 . S
H113 C90 0.930 . S
H114 C92 0.929 . S
H115 C93 0.931 . S
H116 C95 0.930 . S
H117 C99 0.931 . S
H118 C97 0.931 . S
H119 C101 0.931 . S
H120 C102 0.929 . S
H121 C103 0.930 . S
H122 C106 0.930 . S
H123 C107 0.931 . S
H124 C111 0.928 . S
H125 C110 0.929 . S
H126 C108 0.932 . S
C127 C128 1.386 . S
C127 C129 1.397 . S
C127 H151 0.931 . S
C128 C127 1.386 . S
C128 C132 1.397 . S
C129 C127 1.397 . S
C129 C130 1.384 . S
C129 H152 0.930 . S
C130 C129 1.384 . S
C130 C131 1.377 . S
C130 C133 1.481 . S
C131 C130 1.377 . S
C131 C132 1.389 . S
C131 H153 0.929 . S
C132 C128 1.397 . S
C132 C131 1.389 . S
C132 H154 0.931 . S
C133 C130 1.481 . S
C133 C134 1.387 . S
C133 C138 1.390 . S
C134 C133 1.387 . S
C134 C135 1.401 1_655 S
C134 H155 0.956 . S
C135 C134 1.401 1_455 S
C135 C136 1.376 1_455 S
C135 C144 1.511 . S
C136 C135 1.376 1_655 S
C136 C137 1.392 . S
C136 H157 0.931 . S
C137 C136 1.392 . S
C137 C138 1.361 . S
C137 C139 1.500 . S
C138 C133 1.390 . S
C138 C137 1.361 . S
C138 H156 0.931 . S
C139 C137 1.500 . S
C139 C140 1.371 . S
C139 C141 1.365 . S
C140 C139 1.371 . S
C140 C150 1.386 . S
C140 H158 0.931 . S
C141 C139 1.365 . S
C141 C142 1.409 . S
C141 H159 0.929 . S
C142 C141 1.409 . S
C142 C143 1.380 . S
C142 H160 0.930 . S
C143 C142 1.380 . S
C143 C150 1.357 . S
C144 C135 1.511 . S
C144 C145 1.341 . S
C144 C146 1.371 . S
C145 C144 1.341 . S
C145 C149 1.394 . S
C145 H161 0.930 . S
C146 C144 1.371 . S
C146 C147 1.392 . S
C146 H162 0.931 . S
C147 C146 1.392 . S
C147 C148 1.331 . S
C147 H165 0.932 . S
C148 C147 1.331 . S
C148 C149 1.336 . S
C149 C145 1.394 . S
C149 C148 1.336 . S
C149 H164 0.929 . S
C150 C140 1.386 . S
C150 C143 1.357 . S
C150 H163 0.928 . S
H151 C127 0.931 . S
H152 C129 0.930 . S
H153 C131 0.929 . S
H154 C132 0.931 . S
H155 C134 0.956 . S
H156 C138 0.931 . S
H157 C136 0.931 . S
H158 C140 0.931 . S
H159 C141 0.929 . S
H160 C142 0.930 . S
H161 C145 0.930 . S
H162 C146 0.931 . S
H163 C150 0.928 . S
H164 C149 0.929 . S
H165 C147 0.932 . S
C166 C167 1.386 . S
C166 C168 1.397 . S
C166 H190 0.931 . S
C167 C166 1.386 . S
C167 C171 1.397 . S
C168 C166 1.397 . S
C168 C169 1.384 . S
C168 H191 0.930 . S
C169 C168 1.384 . S
C169 C170 1.377 . S
C169 C172 1.481 . S
C170 C169 1.377 . S
C170 C171 1.389 . S
C170 H192 0.929 . S
C171 C167 1.397 . S
C171 C170 1.389 . S
C171 H193 0.931 . S
C172 C169 1.481 . S
C172 C173 1.387 . S
C172 C177 1.381 1_554 S
C173 C172 1.387 . S
C173 C174 1.401 1_554 S
C173 H194 0.930 . S
C174 C173 1.401 1_556 S
C174 C175 1.376 . S
C174 C183 1.511 . S
C175 C174 1.376 . S
C175 C176 1.392 . S
C175 H196 0.931 . S
C176 C175 1.392 . S
C176 C177 1.370 . S
C176 C178 1.500 . S
C177 C172 1.381 1_556 S
C177 C176 1.370 . S
C177 H195 0.931 . S
C178 C176 1.500 . S
C178 C179 1.371 . S
C178 C180 1.365 . S
C179 C178 1.371 . S
C179 C189 1.386 . S
C179 H197 0.931 . S
C180 C178 1.365 . S
C180 C181 1.409 . S
C180 H198 0.929 . S
C181 C180 1.409 . S
C181 C182 1.380 . S
C181 H199 0.930 . S
C182 C181 1.380 . S
C182 C189 1.357 . S
C183 C174 1.511 . S
C183 C184 1.341 1_556 S
C183 C185 1.371 . S
C184 C183 1.341 1_554 S
C184 C188 1.394 . S
C184 H200 0.930 . S
C185 C183 1.371 . S
C185 C186 1.392 . S
C185 H201 0.931 . S
C186 C185 1.392 . S
C186 C187 1.333 . S
C186 H204 0.932 . S
C187 C186 1.333 . S
C187 C188 1.334 1_556 S
C188 C184 1.394 . S
C188 C187 1.334 1_554 S
C188 H203 0.929 . S
C189 C179 1.386 . S
C189 C182 1.357 . S
C189 H202 0.928 . S
H190 C166 0.931 . S
H191 C168 0.930 . S
H192 C170 0.929 . S
H193 C171 0.931 . S
H194 C173 0.930 . S
H195 C177 0.931 . S
H196 C175 0.931 . S
H197 C179 0.931 . S
H198 C180 0.929 . S
H199 C181 0.930 . S
H200 C184 0.930 . S
H201 C185 0.931 . S
H202 C189 0.928 . S
H203 C188 0.929 . S
H204 C186 0.932 . S
C205 C206 1.386 . S
C205 C207 1.397 . S
C205 H229 0.931 . S
C206 C205 1.386 . S
C206 C210 1.397 . S
C207 C205 1.397 . S
C207 C208 1.384 . S
C207 H230 0.930 . S
C208 C207 1.384 . S
C208 C209 1.377 . S
C208 C211 1.481 . S
C209 C208 1.377 . S
C209 C210 1.389 . S
C209 H231 0.929 . S
C210 C206 1.397 . S
C210 C209 1.389 . S
C210 H232 0.931 . S
C211 C208 1.481 . S
C211 C212 1.387 . S
C211 C216 1.390 . S
C212 C211 1.387 . S
C212 C213 1.401 1_455 S
C212 H233 0.936 . S
C213 C212 1.401 1_655 S
C213 C214 1.376 1_655 S
C213 C222 1.511 . S
C214 C213 1.376 1_455 S
C214 C215 1.392 . S
C214 H235 0.931 . S
C215 C214 1.392 . S
C215 C216 1.361 . S
C215 C217 1.500 . S
C216 C211 1.390 . S
C216 C215 1.361 . S
C216 H234 0.931 . S
C217 C215 1.500 . S
C217 C218 1.371 . S
C217 C219 1.365 . S
C218 C217 1.371 . S
C218 C228 1.386 . S
C218 H236 0.931 . S
C219 C217 1.365 . S
C219 C220 1.409 . S
C219 H237 0.929 . S
C220 C219 1.409 . S
C220 C221 1.380 . S
C220 H238 0.930 . S
C221 C220 1.380 . S
C221 C228 1.357 . S
C222 C213 1.511 . S
C222 C223 1.341 . S
C222 C224 1.371 . S
C223 C222 1.341 . S
C223 C227 1.394 . S
C223 H239 0.930 . S
C224 C222 1.371 . S
C224 C225 1.392 . S
C224 H240 0.931 . S
C225 C224 1.392 . S
C225 C226 1.331 . S
C225 H243 0.932 . S
C226 C225 1.331 . S
C226 C227 1.336 . S
C227 C223 1.394 . S
C227 C226 1.336 . S
C227 H242 0.929 . S
C228 C218 1.386 . S
C228 C221 1.357 . S
C228 H241 0.928 . S
H229 C205 0.931 . S
H230 C207 0.930 . S
H231 C209 0.929 . S
H232 C210 0.931 . S
H233 C212 0.936 . S
H234 C216 0.931 . S
H235 C214 0.931 . S
H236 C218 0.931 . S
H237 C219 0.929 . S
H238 C220 0.930 . S
H239 C223 0.930 . S
H240 C224 0.931 . S
H241 C228 0.928 . S
H242 C227 0.929 . S
H243 C225 0.932 . S
C244 C245 1.386 . S
C244 C246 1.397 . S
C244 H268 0.931 . S
C245 C244 1.386 . S
C245 C249 1.397 . S
C246 C244 1.397 . S
C246 C247 1.384 . S
C246 H269 0.930 . S
C247 C246 1.384 . S
C247 C248 1.377 . S
C247 C250 1.481 . S
C248 C247 1.377 . S
C248 C249 1.389 . S
C248 H270 0.929 . S
C249 C245 1.397 . S
C249 C248 1.389 . S
C249 H271 0.931 . S
C250 C247 1.481 . S
C250 C251 1.387 . S
C250 C255 1.390 . S
C251 C250 1.387 . S
C251 C252 1.401 1_565 S
C251 H272 0.956 . S
C252 C251 1.401 1_545 S
C252 C253 1.376 1_545 S
C252 C261 1.511 . S
C253 C252 1.376 1_565 S
C253 C254 1.392 . S
C253 H274 0.931 . S
C254 C253 1.392 . S
C254 C255 1.361 . S
C254 C256 1.500 . S
C255 C250 1.390 . S
C255 C254 1.361 . S
C255 H273 0.931 . S
C256 C254 1.500 . S
C256 C257 1.371 . S
C256 C258 1.365 . S
C257 C256 1.371 . S
C257 C267 1.386 . S
C257 H275 0.931 . S
C258 C256 1.365 . S
C258 C259 1.409 . S
C258 H276 0.929 . S
C259 C258 1.409 . S
C259 C260 1.380 . S
C259 H277 0.930 . S
C260 C259 1.380 . S
C260 C267 1.357 . S
C261 C252 1.511 . S
C261 C262 1.341 . S
C261 C263 1.371 . S
C262 C261 1.341 . S
C262 C266 1.394 . S
C262 H278 0.930 . S
C263 C261 1.371 . S
C263 C264 1.392 . S
C263 H279 0.931 . S
C264 C263 1.392 . S
C264 C265 1.331 . S
C264 H282 0.932 . S
C265 C264 1.331 . S
C265 C266 1.336 . S
C266 C262 1.394 . S
C266 C265 1.336 . S
C266 H281 0.929 . S
C267 C257 1.386 . S
C267 C260 1.357 . S
C267 H280 0.928 . S
H268 C244 0.931 . S
H269 C246 0.930 . S
H270 C248 0.929 . S
H271 C249 0.931 . S
H272 C251 0.956 . S
H273 C255 0.931 . S
H274 C253 0.931 . S
H275 C257 0.931 . S
H276 C258 0.929 . S
H277 C259 0.930 . S
H278 C262 0.930 . S
H279 C263 0.931 . S
H280 C267 0.928 . S
H281 C266 0.929 . S
H282 C264 0.932 . S
C283 C284 1.386 . S
C283 C285 1.397 . S
C283 H307 0.931 . S
C284 C283 1.386 . S
C284 C288 1.397 . S
C285 C283 1.397 . S
C285 C286 1.384 . S
C285 H308 0.930 . S
C286 C285 1.384 . S
C286 C287 1.377 . S
C286 C289 1.481 . S
C287 C286 1.377 . S
C287 C288 1.389 . S
C287 H309 0.929 . S
C288 C284 1.397 . S
C288 C287 1.389 . S
C288 H310 0.931 . S
C289 C286 1.481 . S
C289 C290 1.387 . S
C289 C294 1.381 1_554 S
C290 C289 1.387 . S
C290 C291 1.401 1_554 S
C290 H311 0.930 . S
C291 C290 1.401 1_556 S
C291 C292 1.376 . S
C291 C300 1.511 . S
C292 C291 1.376 . S
C292 C293 1.392 . S
C292 H313 0.931 . S
C293 C292 1.392 . S
C293 C294 1.370 . S
C293 C295 1.500 . S
C294 C289 1.381 1_556 S
C294 C293 1.370 . S
C294 H312 0.931 . S
C295 C293 1.500 . S
C295 C296 1.371 . S
C295 C297 1.365 . S
C296 C295 1.371 . S
C296 C306 1.386 . S
C296 H314 0.931 . S
C297 C295 1.365 . S
C297 C298 1.409 . S
C297 H315 0.929 . S
C298 C297 1.409 . S
C298 C299 1.380 . S
C298 H316 0.930 . S
C299 C298 1.380 . S
C299 C306 1.357 . S
C300 C291 1.511 . S
C300 C301 1.341 1_556 S
C300 C302 1.371 . S
C301 C300 1.341 1_554 S
C301 C305 1.394 . S
C301 H317 0.930 . S
C302 C300 1.371 . S
C302 C303 1.392 . S
C302 H318 0.931 . S
C303 C302 1.392 . S
C303 C304 1.332 . S
C303 H321 0.932 . S
C304 C303 1.332 . S
C304 C305 1.334 1_556 S
C305 C301 1.394 . S
C305 C304 1.334 1_554 S
C305 H320 0.929 . S
C306 C296 1.386 . S
C306 C299 1.357 . S
C306 H319 0.928 . S
H307 C283 0.931 . S
H308 C285 0.930 . S
H309 C287 0.929 . S
H310 C288 0.931 . S
H311 C290 0.930 . S
H312 C294 0.931 . S
H313 C292 0.931 . S
H314 C296 0.931 . S
H315 C297 0.929 . S
H316 C298 0.930 . S
H317 C301 0.930 . S
H318 C302 0.931 . S
H319 C306 0.928 . S
H320 C305 0.929 . S
H321 C303 0.932 . S
C322 C323 1.386 . S
C322 C324 1.397 . S
C322 H346 0.931 . S
C323 C322 1.386 . S
C323 C327 1.397 . S
C324 C322 1.397 . S
C324 C325 1.384 . S
C324 H347 0.930 . S
C325 C324 1.384 . S
C325 C326 1.377 . S
C325 C328 1.481 . S
C326 C325 1.377 . S
C326 C327 1.389 . S
C326 H348 0.929 . S
C327 C323 1.397 . S
C327 C326 1.389 . S
C327 H349 0.931 . S
C328 C325 1.481 . S
C328 C329 1.387 . S
C328 C333 1.390 . S
C329 C328 1.387 . S
C329 C330 1.401 1_545 S
C329 H350 0.936 . S
C330 C329 1.401 1_565 S
C330 C331 1.376 1_565 S
C330 C339 1.511 . S
C331 C330 1.376 1_545 S
C331 C332 1.392 . S
C331 H352 0.931 . S
C332 C331 1.392 . S
C332 C333 1.361 . S
C332 C334 1.500 . S
C333 C328 1.390 . S
C333 C332 1.361 . S
C333 H351 0.931 . S
C334 C332 1.500 . S
C334 C335 1.371 . S
C334 C336 1.365 . S
C335 C334 1.371 . S
C335 C345 1.386 . S
C335 H353 0.931 . S
C336 C334 1.365 . S
C336 C337 1.409 . S
C336 H354 0.929 . S
C337 C336 1.409 . S
C337 C338 1.380 . S
C337 H355 0.930 . S
C338 C337 1.380 . S
C338 C345 1.357 . S
C339 C330 1.511 . S
C339 C340 1.341 . S
C339 C341 1.371 . S
C340 C339 1.341 . S
C340 C344 1.394 . S
C340 H356 0.930 . S
C341 C339 1.371 . S
C341 C342 1.392 . S
C341 H357 0.931 . S
C342 C341 1.392 . S
C342 C343 1.331 . S
C342 H360 0.932 . S
C343 C342 1.331 . S
C343 C344 1.336 . S
C344 C340 1.394 . S
C344 C343 1.336 . S
C344 H359 0.929 . S
C345 C335 1.386 . S
C345 C338 1.357 . S
C345 H358 0.928 . S
H346 C322 0.931 . S
H347 C324 0.930 . S
H348 C326 0.929 . S
H349 C327 0.931 . S
H350 C329 0.936 . S
H351 C333 0.931 . S
H352 C331 0.931 . S
H353 C335 0.931 . S
H354 C336 0.929 . S
H355 C337 0.930 . S
H356 C340 0.930 . S
H357 C341 0.931 . S
H358 C345 0.928 . S
H359 C344 0.929 . S
H360 C342 0.932 . S
C361 C362 1.386 . S
C361 C363 1.397 . S
C361 H385 0.931 . S
C362 C361 1.386 . S
C362 C366 1.397 . S
C363 C361 1.397 . S
C363 C364 1.384 . S
C363 H386 0.930 . S
C364 C363 1.384 . S
C364 C365 1.377 . S
C364 C367 1.481 . S
C365 C364 1.377 . S
C365 C366 1.389 . S
C365 H387 0.929 . S
C366 C362 1.397 . S
C366 C365 1.389 . S
C366 H388 0.931 . S
C367 C364 1.481 . S
C367 C368 1.387 . S
C367 C372 1.390 1_556 S
C368 C367 1.387 . S
C368 C369 1.401 1_556 S
C368 H389 0.930 . S
C369 C368 1.401 1_554 S
C369 C370 1.376 . S
C369 C378 1.511 . S
C370 C369 1.376 . S
C370 C371 1.392 . S
C370 H391 0.931 . S
C371 C370 1.392 . S
C371 C372 1.361 . S
C371 C373 1.500 . S
C372 C367 1.390 1_554 S
C372 C371 1.361 . S
C372 H390 0.931 . S
C373 C371 1.500 . S
C373 C374 1.371 . S
C373 C375 1.365 . S
C374 C373 1.371 . S
C374 C384 1.386 . S
C374 H392 0.931 . S
C375 C373 1.365 . S
C375 C376 1.409 . S
C375 H393 0.929 . S
C376 C375 1.409 . S
C376 C377 1.380 . S
C376 H394 0.930 . S
C377 C376 1.380 . S
C377 C384 1.357 . S
C378 C369 1.511 . S
C378 C379 1.341 1_554 S
C378 C380 1.371 . S
C379 C378 1.341 1_556 S
C379 C383 1.394 . S
C379 H395 0.930 . S
C380 C378 1.371 . S
C380 C381 1.392 . S
C380 H396 0.931 . S
C381 C380 1.392 . S
C381 C382 1.347 . S
C381 H399 0.932 . S
C382 C381 1.347 . S
C382 C383 1.320 1_554 S
C383 C379 1.394 . S
C383 C382 1.320 1_556 S
C383 H398 0.929 . S
C384 C374 1.386 . S
C384 C377 1.357 . S
C384 H397 0.928 . S
H385 C361 0.931 . S
H386 C363 0.930 . S
H387 C365 0.929 . S
H388 C366 0.931 . S
H389 C368 0.930 . S
H390 C372 0.931 . S
H391 C370 0.931 . S
H392 C374 0.931 . S
H393 C375 0.929 . S
H394 C376 0.930 . S
H395 C379 0.930 . S
H396 C380 0.931 . S
H397 C384 0.928 . S
H398 C383 0.929 . S
H399 C381 0.932 . S
H400 C408 0.950 . S
H401 C413 0.950 . S
H402 C410 0.950 . S
H403 C412 0.950 . S
H404 C414 0.950 . S
H405 C416 0.950 . S
H406 C418 0.950 . S
H407 C419 0.950 . S
C408 H400 0.950 . S
C408 C409 1.386 . S
C408 C410 1.391 . S
C409 C408 1.386 . S
C409 C413 1.393 . S
C410 H402 0.950 . S
C410 C408 1.391 . S
C410 C411 1.400 . S
C411 C410 1.400 . S
C411 C412 1.398 . S
C411 C417 1.491 . S
C412 H403 0.950 . S
C412 C411 1.398 . S
C412 C413 1.391 . S
C413 H401 0.950 . S
C413 C409 1.393 . S
C413 C412 1.391 . S
C414 H404 0.950 . S
C414 C415 1.386 . S
C414 C416 1.391 . S
C415 C414 1.386 . S
C415 C419 1.393 . S
C416 H405 0.950 . S
C416 C414 1.391 . S
C416 C417 1.400 . S
C417 C411 1.491 . S
C417 C416 1.400 . S
C417 C418 1.398 . S
C418 H406 0.950 . S
C418 C417 1.398 . S
C418 C419 1.391 . S
C419 H407 0.950 . S
C419 C415 1.393 . S
C419 C418 1.391 . S
H420 C428 0.950 . S
H421 C433 0.950 . S
H422 C430 0.950 . S
H423 C432 0.950 . S
H424 C434 0.950 . S
H425 C436 0.950 . S
H426 C438 0.950 . S
H427 C439 0.950 . S
C428 H420 0.950 . S
C428 C429 1.386 . S
C428 C430 1.391 . S
C429 C428 1.386 . S
C429 C433 1.393 . S
C430 H422 0.950 . S
C430 C428 1.391 . S
C430 C431 1.400 . S
C431 C430 1.400 . S
C431 C432 1.398 . S
C431 C437 1.491 . S
C432 H423 0.950 . S
C432 C431 1.398 . S
C432 C433 1.391 . S
C433 H421 0.950 . S
C433 C429 1.393 . S
C433 C432 1.391 . S
C434 H424 0.950 . S
C434 C435 1.386 . S
C434 C436 1.391 . S
C435 C434 1.386 . S
C435 C439 1.393 . S
C436 H425 0.950 . S
C436 C434 1.391 . S
C436 C437 1.400 . S
C437 C431 1.491 . S
C437 C436 1.400 . S
C437 C438 1.398 . S
C438 H426 0.950 . S
C438 C437 1.398 . S
C438 C439 1.391 . S
C439 H427 0.950 . S
C439 C435 1.393 . S
C439 C438 1.391 . S
H440 C448 0.950 . S
H441 C453 0.950 . S
H442 C450 0.950 . S
H443 C452 0.950 . S
H444 C454 0.950 . S
H445 C456 0.950 . S
H446 C458 0.950 . S
H447 C459 0.950 . S
C448 H440 0.950 . S
C448 C449 1.386 . S
C448 C450 1.391 . S
C449 C448 1.386 . S
C449 C453 1.393 . S
C450 H442 0.950 . S
C450 C448 1.391 . S
C450 C451 1.400 . S
C451 C450 1.400 . S
C451 C452 1.398 . S
C451 C457 1.491 . S
C452 H443 0.950 . S
C452 C451 1.398 . S
C452 C453 1.391 . S
C453 H441 0.950 . S
C453 C449 1.393 . S
C453 C452 1.391 . S
C454 H444 0.950 . S
C454 C455 1.386 . S
C454 C456 1.391 . S
C455 C454 1.386 . S
C455 C459 1.393 . S
C456 H445 0.950 . S
C456 C454 1.391 . S
C456 C457 1.400 . S
C457 C451 1.491 . S
C457 C456 1.400 . S
C457 C458 1.398 . S
C458 H446 0.950 . S
C458 C457 1.398 . S
C458 C459 1.391 . S
C459 H447 0.950 . S
C459 C455 1.393 . S
C459 C458 1.391 . S
H460 C468 0.950 . S
H461 C473 0.950 . S
H462 C470 0.950 . S
H463 C472 0.950 . S
H464 C474 0.950 . S
H465 C476 0.950 . S
H466 C478 0.950 . S
H467 C479 0.950 . S
C468 H460 0.950 . S
C468 C469 1.386 . S
C468 C470 1.391 . S
C469 C468 1.386 . S
C469 C473 1.393 . S
C470 H462 0.950 . S
C470 C468 1.391 . S
C470 C471 1.400 . S
C471 C470 1.400 . S
C471 C472 1.398 . S
C471 C477 1.491 . S
C472 H463 0.950 . S
C472 C471 1.398 . S
C472 C473 1.391 . S
C473 H461 0.950 . S
C473 C469 1.393 . S
C473 C472 1.391 . S
C474 H464 0.950 . S
C474 C475 1.386 . S
C474 C476 1.391 . S
C475 C474 1.386 . S
C475 C479 1.393 . S
C476 H465 0.950 . S
C476 C474 1.391 . S
C476 C477 1.400 . S
C477 C471 1.491 . S
C477 C476 1.400 . S
C477 C478 1.398 . S
C478 H466 0.950 . S
C478 C477 1.398 . S
C478 C479 1.391 . S
C479 H467 0.950 . S
C479 C475 1.393 . S
C479 C478 1.391 . S
H480 C488 0.950 . S
H481 C493 0.950 . S
H482 C490 0.950 . S
H483 C492 0.950 . S
H484 C494 0.950 . S
H485 C496 0.950 . S
H486 C498 0.950 . S
H487 C499 0.950 . S
C488 H480 0.950 . S
C488 C489 1.386 . S
C488 C490 1.391 . S
C489 C488 1.386 . S
C489 C493 1.393 . S
C490 H482 0.950 . S
C490 C488 1.391 . S
C490 C491 1.400 . S
C491 C490 1.400 . S
C491 C492 1.398 . S
C491 C497 1.491 . S
C492 H483 0.950 . S
C492 C491 1.398 . S
C492 C493 1.391 . S
C493 H481 0.950 . S
C493 C489 1.393 . S
C493 C492 1.391 . S
C494 H484 0.950 . S
C494 C495 1.386 . S
C494 C496 1.391 . S
C495 C494 1.386 . S
C495 C499 1.393 . S
C496 H485 0.950 . S
C496 C494 1.391 . S
C496 C497 1.400 . S
C497 C491 1.491 . S
C497 C496 1.400 . S
C497 C498 1.398 . S
C498 H486 0.950 . S
C498 C497 1.398 . S
C498 C499 1.391 . S
C499 H487 0.950 . S
C499 C495 1.393 . S
C499 C498 1.391 . S
H500 C508 0.950 . S
H501 C513 0.950 . S
H502 C510 0.950 . S
H503 C512 0.950 . S
H504 C514 0.950 . S
H505 C516 0.950 . S
H506 C518 0.950 . S
H507 C519 0.950 . S
C508 H500 0.950 . S
C508 C509 1.386 . S
C508 C510 1.391 . S
C509 C508 1.386 . S
C509 C513 1.393 . S
C510 H502 0.950 . S
C510 C508 1.391 . S
C510 C511 1.400 . S
C511 C510 1.400 . S
C511 C512 1.398 . S
C511 C517 1.491 . S
C512 H503 0.950 . S
C512 C511 1.398 . S
C512 C513 1.391 . S
C513 H501 0.950 . S
C513 C509 1.393 . S
C513 C512 1.391 . S
C514 H504 0.950 . S
C514 C515 1.386 . S
C514 C516 1.391 . S
C515 C514 1.386 . S
C515 C519 1.393 . S
C516 H505 0.950 . S
C516 C514 1.391 . S
C516 C517 1.400 . S
C517 C511 1.491 . S
C517 C516 1.400 . S
C517 C518 1.398 . S
C518 H506 0.950 . S
C518 C517 1.398 . S
C518 C519 1.391 . S
C519 H507 0.950 . S
C519 C515 1.393 . S
C519 C518 1.391 . S
H520 C528 0.950 . S
H521 C533 0.950 . S
H522 C530 0.950 . S
H523 C532 0.950 . S
H524 C534 0.950 . S
H525 C536 0.950 . S
H526 C538 0.950 . S
H527 C539 0.950 . S
C528 H520 0.950 . S
C528 C529 1.386 . S
C528 C530 1.391 . S
C529 C528 1.386 . S
C529 C533 1.393 . S
C530 H522 0.950 . S
C530 C528 1.391 . S
C530 C531 1.400 . S
C531 C530 1.400 . S
C531 C532 1.398 . S
C531 C537 1.491 . S
C532 H523 0.950 . S
C532 C531 1.398 . S
C532 C533 1.391 . S
C533 H521 0.950 . S
C533 C529 1.393 . S
C533 C532 1.391 . S
C534 H524 0.950 . S
C534 C535 1.386 . S
C534 C536 1.391 . S
C535 C534 1.386 . S
C535 C539 1.393 . S
C536 H525 0.950 . S
C536 C534 1.391 . S
C536 C537 1.400 . S
C537 C531 1.491 . S
C537 C536 1.400 . S
C537 C538 1.398 . S
C538 H526 0.950 . S
C538 C537 1.398 . S
C538 C539 1.391 . S
C539 H527 0.950 . S
C539 C535 1.393 . S
C539 C538 1.391 . S
H540 C548 0.950 . S
H541 C553 0.950 . S
H542 C550 0.950 . S
H543 C552 0.950 . S
H544 C554 0.950 . S
H545 C556 0.950 . S
H546 C558 0.950 . S
H547 C559 0.950 . S
C548 H540 0.950 . S
C548 C549 1.386 . S
C548 C550 1.391 . S
C549 C548 1.386 . S
C549 C553 1.393 . S
C550 H542 0.950 . S
C550 C548 1.391 . S
C550 C551 1.400 . S
C551 C550 1.400 . S
C551 C552 1.398 . S
C551 C557 1.491 . S
C552 H543 0.950 . S
C552 C551 1.398 . S
C552 C553 1.391 . S
C553 H541 0.950 . S
C553 C549 1.393 . S
C553 C552 1.391 . S
C554 H544 0.950 . S
C554 C555 1.386 . S
C554 C556 1.391 . S
C555 C554 1.386 . S
C555 C559 1.393 . S
C556 H545 0.950 . S
C556 C554 1.391 . S
C556 C557 1.400 . S
C557 C551 1.491 . S
C557 C556 1.400 . S
C557 C558 1.398 . S
C558 H546 0.950 . S
C558 C557 1.398 . S
C558 C559 1.391 . S
C559 H547 0.950 . S
C559 C555 1.393 . S
C559 C558 1.391 . S
H560 C568 0.950 . S
H561 C573 0.950 . S
H562 C570 0.950 . S
H563 C572 0.950 . S
H564 C574 0.950 . S
H565 C576 0.950 . S
H566 C578 0.950 . S
H567 C579 0.950 . S
C568 H560 0.950 . S
C568 C569 1.386 . S
C568 C570 1.391 . S
C569 C568 1.386 . S
C569 C573 1.393 . S
C570 H562 0.950 . S
C570 C568 1.391 . S
C570 C571 1.400 . S
C571 C570 1.400 . S
C571 C572 1.398 . S
C571 C577 1.491 . S
C572 H563 0.950 . S
C572 C571 1.398 . S
C572 C573 1.391 . S
C573 H561 0.950 . S
C573 C569 1.393 . S
C573 C572 1.391 . S
C574 H564 0.950 . S
C574 C575 1.386 . S
C574 C576 1.391 . S
C575 C574 1.386 . S
C575 C579 1.393 . S
C576 H565 0.950 . S
C576 C574 1.391 . S
C576 C577 1.400 . S
C577 C571 1.491 . S
C577 C576 1.400 . S
C577 C578 1.398 . S
C578 H566 0.950 . S
C578 C577 1.398 . S
C578 C579 1.391 . S
C579 H567 0.950 . S
C579 C575 1.393 . S
C579 C578 1.391 . S
H580 C588 0.950 . S
H581 C593 0.950 . S
H582 C590 0.950 . S
H583 C592 0.950 . S
H584 C594 0.950 . S
H585 C596 0.950 . S
H586 C598 0.950 . S
H587 C599 0.950 . S
C588 H580 0.950 . S
C588 C589 1.386 . S
C588 C590 1.391 . S
C589 C588 1.386 . S
C589 C593 1.393 . S
C590 H582 0.950 . S
C590 C588 1.391 . S
C590 C591 1.400 . S
C591 C590 1.400 . S
C591 C592 1.398 . S
C591 C597 1.491 . S
C592 H583 0.950 . S
C592 C591 1.398 . S
C592 C593 1.391 . S
C593 H581 0.950 . S
C593 C589 1.393 . S
C593 C592 1.391 . S
C594 H584 0.950 . S
C594 C595 1.386 . S
C594 C596 1.391 . S
C595 C594 1.386 . S
C595 C599 1.393 . S
C596 H585 0.950 . S
C596 C594 1.391 . S
C596 C597 1.400 . S
C597 C591 1.491 . S
C597 C596 1.400 . S
C597 C598 1.398 . S
C598 H586 0.950 . S
C598 C597 1.398 . S
C598 C599 1.391 . S
C599 H587 0.950 . S
C599 C595 1.393 . S
C599 C598 1.391 . S
H600 C608 0.950 . S
H601 C613 0.950 . S
H602 C610 0.950 . S
H603 C612 0.950 . S
H604 C614 0.950 . S
H605 C616 0.950 . S
H606 C618 0.950 . S
H607 C619 0.950 . S
C608 H600 0.950 . S
C608 C609 1.386 . S
C608 C610 1.391 . S
C609 C608 1.386 . S
C609 C613 1.393 . S
C610 H602 0.950 . S
C610 C608 1.391 . S
C610 C611 1.400 . S
C611 C610 1.400 . S
C611 C612 1.398 . S
C611 C617 1.491 . S
C612 H603 0.950 . S
C612 C611 1.398 . S
C612 C613 1.391 . S
C613 H601 0.950 . S
C613 C609 1.393 . S
C613 C612 1.391 . S
C614 H604 0.950 . S
C614 C615 1.386 . S
C614 C616 1.391 . S
C615 C614 1.386 . S
C615 C619 1.393 . S
C616 H605 0.950 . S
C616 C614 1.391 . S
C616 C617 1.400 . S
C617 C611 1.491 . S
C617 C616 1.400 . S
C617 C618 1.398 . S
C618 H606 0.950 . S
C618 C617 1.398 . S
C618 C619 1.391 . S
C619 H607 0.950 . S
C619 C615 1.393 . S
C619 C618 1.391 . S
H620 C628 0.950 . S
H621 C633 0.950 . S
H622 C630 0.950 . S
H623 C632 0.950 . S
H624 C634 0.950 . S
H625 C636 0.950 . S
H626 C638 0.950 . S
H627 C639 0.950 . S
C628 H620 0.950 . S
C628 C629 1.386 . S
C628 C630 1.391 . S
C629 C628 1.386 . S
C629 C633 1.393 . S
C630 H622 0.950 . S
C630 C628 1.391 . S
C630 C631 1.400 . S
C631 C630 1.400 . S
C631 C632 1.398 . S
C631 C637 1.491 . S
C632 H623 0.950 . S
C632 C631 1.398 . S
C632 C633 1.391 . S
C633 H621 0.950 . S
C633 C629 1.393 . S
C633 C632 1.391 . S
C634 H624 0.950 . S
C634 C635 1.386 . S
C634 C636 1.391 . S
C635 C634 1.386 . S
C635 C639 1.393 . S
C636 H625 0.950 . S
C636 C634 1.391 . S
C636 C637 1.400 . S
C637 C631 1.491 . S
C637 C636 1.400 . S
C637 C638 1.398 . S
C638 H626 0.950 . S
C638 C637 1.398 . S
C638 C639 1.391 . S
C639 H627 0.950 . S
C639 C635 1.393 . S
C639 C638 1.391 . S
H640 C648 0.950 . S
H641 C653 0.950 . S
H642 C650 0.950 . S
H643 C652 0.950 . S
H644 C654 0.950 . S
H645 C656 0.950 . S
H646 C658 0.950 . S
H647 C659 0.950 . S
C648 H640 0.950 . S
C648 C649 1.386 . S
C648 C650 1.391 . S
C649 C648 1.386 . S
C649 C653 1.393 . S
C650 H642 0.950 . S
C650 C648 1.391 . S
C650 C651 1.400 . S
C651 C650 1.400 . S
C651 C652 1.398 . S
C651 C657 1.491 . S
C652 H643 0.950 . S
C652 C651 1.398 . S
C652 C653 1.391 . S
C653 H641 0.950 . S
C653 C649 1.393 . S
C653 C652 1.391 . S
C654 H644 0.950 . S
C654 C655 1.386 . S
C654 C656 1.391 . S
C655 C654 1.386 . S
C655 C659 1.393 . S
C656 H645 0.950 . S
C656 C654 1.391 . S
C656 C657 1.400 . S
C657 C651 1.491 . S
C657 C656 1.400 . S
C657 C658 1.398 . S
C658 H646 0.950 . S
C658 C657 1.398 . S
C658 C659 1.391 . S
C659 H647 0.950 . S
C659 C655 1.393 . S
C659 C658 1.391 . S
H660 C668 0.950 . S
H661 C673 0.950 . S
H662 C670 0.950 . S
H663 C672 0.950 . S
H664 C674 0.950 . S
H665 C676 0.950 . S
H666 C678 0.950 . S
H667 C679 0.950 . S
C668 H660 0.950 . S
C668 C669 1.386 . S
C668 C670 1.391 . S
C669 C668 1.386 . S
C669 C673 1.393 . S
C670 H662 0.950 . S
C670 C668 1.391 . S
C670 C671 1.400 . S
C671 C670 1.400 . S
C671 C672 1.398 . S
C671 C677 1.491 . S
C672 H663 0.950 . S
C672 C671 1.398 . S
C672 C673 1.391 . S
C673 H661 0.950 . S
C673 C669 1.393 . S
C673 C672 1.391 . S
C674 H664 0.950 . S
C674 C675 1.386 . S
C674 C676 1.391 . S
C675 C674 1.386 . S
C675 C679 1.393 . S
C676 H665 0.950 . S
C676 C674 1.391 . S
C676 C677 1.400 . S
C677 C671 1.491 . S
C677 C676 1.400 . S
C677 C678 1.398 . S
C678 H666 0.950 . S
C678 C677 1.398 . S
C678 C679 1.391 . S
C679 H667 0.950 . S
C679 C675 1.393 . S
C679 C678 1.391 . S
H680 C688 0.950 . S
H681 C693 0.950 . S
H682 C690 0.950 . S
H683 C692 0.950 . S
H684 C694 0.950 . S
H685 C696 0.950 . S
H686 C698 0.950 . S
H687 C699 0.950 . S
C688 H680 0.950 . S
C688 C689 1.386 . S
C688 C690 1.391 . S
C689 C688 1.386 . S
C689 C693 1.393 . S
C690 H682 0.950 . S
C690 C688 1.391 . S
C690 C691 1.400 . S
C691 C690 1.400 . S
C691 C692 1.398 . S
C691 C697 1.491 . S
C692 H683 0.950 . S
C692 C691 1.398 . S
C692 C693 1.391 . S
C693 H681 0.950 . S
C693 C689 1.393 . S
C693 C692 1.391 . S
C694 H684 0.950 . S
C694 C695 1.386 . S
C694 C696 1.391 . S
C695 C694 1.386 . S
C695 C699 1.393 . S
C696 H685 0.950 . S
C696 C694 1.391 . S
C696 C697 1.400 . S
C697 C691 1.491 . S
C697 C696 1.400 . S
C697 C698 1.398 . S
C698 H686 0.950 . S
C698 C697 1.398 . S
C698 C699 1.391 . S
C699 H687 0.950 . S
C699 C695 1.393 . S
C699 C698 1.391 . S
H700 C708 0.950 . S
H701 C713 0.950 . S
H702 C710 0.950 . S
H703 C712 0.950 . S
H704 C714 0.950 . S
H705 C716 0.950 . S
H706 C718 0.950 . S
H707 C719 0.950 . S
C708 H700 0.950 . S
C708 C709 1.386 . S
C708 C710 1.391 . S
C709 C708 1.386 . S
C709 C713 1.393 . S
C710 H702 0.950 . S
C710 C708 1.391 . S
C710 C711 1.400 . S
C711 C710 1.400 . S
C711 C712 1.398 . S
C711 C717 1.491 . S
C712 H703 0.950 . S
C712 C711 1.398 . S
C712 C713 1.391 . S
C713 H701 0.950 . S
C713 C709 1.393 . S
C713 C712 1.391 . S
C714 H704 0.950 . S
C714 C715 1.386 . S
C714 C716 1.391 . S
C715 C714 1.386 . S
C715 C719 1.393 . S
C716 H705 0.950 . S
C716 C714 1.391 . S
C716 C717 1.400 . S
C717 C711 1.491 . S
C717 C716 1.400 . S
C717 C718 1.398 . S
C718 H706 0.950 . S
C718 C717 1.398 . S
C718 C719 1.391 . S
C719 H707 0.950 . S
C719 C715 1.393 . S
C719 C718 1.391 . S
H720 C728 0.950 . S
H721 C733 0.950 . S
H722 C730 0.950 . S
H723 C732 0.950 . S
H724 C734 0.950 . S
H725 C736 0.950 . S
H726 C738 0.950 . S
H727 C739 0.950 . S
C728 H720 0.950 . S
C728 C729 1.386 . S
C728 C730 1.391 . S
C729 C728 1.386 . S
C729 C733 1.393 1_554 S
C730 H722 0.950 . S
C730 C728 1.391 . S
C730 C731 1.408 . S
C731 C730 1.408 . S
C731 C732 1.392 1_554 S
C731 C737 1.490 1_554 S
C732 H723 0.950 . S
C732 C731 1.392 1_556 S
C732 C733 1.391 . S
C733 H721 0.950 . S
C733 C729 1.393 1_556 S
C733 C732 1.391 . S
C734 H724 0.950 . S
C734 C735 1.386 . S
C734 C736 1.391 . S
C735 C734 1.386 . S
C735 C739 1.393 1_556 S
C736 H725 0.950 . S
C736 C734 1.391 . S
C736 C737 1.406 . S
C737 C731 1.490 1_556 S
C737 C736 1.406 . S
C737 C738 1.393 1_556 S
C738 H726 0.950 . S
C738 C737 1.393 1_554 S
C738 C739 1.391 . S
C739 H727 0.950 . S
C739 C735 1.393 1_554 S
C739 C738 1.391 . S
H740 C748 0.950 . S
H741 C753 0.950 . S
H742 C750 0.950 . S
H743 C752 0.950 . S
H744 C754 0.950 . S
H745 C756 0.950 . S
H746 C758 0.950 . S
H747 C759 0.950 . S
C748 H740 0.950 . S
C748 C749 1.386 . S
C748 C750 1.391 . S
C749 C748 1.386 . S
C749 C753 1.393 . S
C750 H742 0.950 . S
C750 C748 1.391 . S
C750 C751 1.400 . S
C751 C750 1.400 . S
C751 C752 1.398 . S
C751 C757 1.491 . S
C752 H743 0.950 . S
C752 C751 1.398 . S
C752 C753 1.391 . S
C753 H741 0.950 . S
C753 C749 1.393 . S
C753 C752 1.391 . S
C754 H744 0.950 . S
C754 C755 1.386 . S
C754 C756 1.391 . S
C755 C754 1.386 . S
C755 C759 1.393 . S
C756 H745 0.950 . S
C756 C754 1.391 . S
C756 C757 1.400 . S
C757 C751 1.491 . S
C757 C756 1.400 . S
C757 C758 1.398 . S
C758 H746 0.950 . S
C758 C757 1.398 . S
C758 C759 1.391 . S
C759 H747 0.950 . S
C759 C755 1.393 . S
C759 C758 1.391 . S
H760 C768 0.950 . S
H761 C773 0.950 . S
H762 C770 0.950 . S
H763 C772 0.950 . S
H764 C774 0.950 . S
H765 C776 0.950 . S
H766 C778 0.950 . S
H767 C779 0.950 . S
C768 H760 0.950 . S
C768 C769 1.373 1_556 S
C768 C770 1.391 . S
C769 C768 1.373 1_554 S
C769 C773 1.405 . S
C770 H762 0.950 . S
C770 C768 1.391 . S
C770 C771 1.389 1_556 S
C771 C770 1.389 1_554 S
C771 C772 1.410 . S
C771 C777 1.491 . S
C772 H763 0.950 . S
C772 C771 1.410 . S
C772 C773 1.391 . S
C773 H761 0.950 . S
C773 C769 1.405 . S
C773 C772 1.391 . S
C774 H764 0.950 . S
C774 C775 1.395 . S
C774 C776 1.391 . S
C775 C774 1.395 . S
C775 C779 1.384 1_554 S
C776 H765 0.950 . S
C776 C774 1.391 . S
C776 C777 1.410 . S
C777 C771 1.491 . S
C777 C776 1.410 . S
C777 C778 1.388 1_554 S
C778 H766 0.950 . S
C778 C777 1.388 1_556 S
C778 C779 1.391 . S
C779 H767 0.950 . S
C779 C775 1.384 1_556 S
C779 C778 1.391 . S
H780 C788 0.950 . S
H781 C793 0.950 . S
H782 C790 0.950 . S
H783 C792 0.950 . S
H784 C794 0.950 . S
H785 C796 0.950 . S
H786 C798 0.950 . S
H787 C799 0.950 . S
C788 H780 0.950 . S
C788 C789 1.386 . S
C788 C790 1.391 . S
C789 C788 1.386 . S
C789 C793 1.393 . S
C790 H782 0.950 . S
C790 C788 1.391 . S
C790 C791 1.400 . S
C791 C790 1.400 . S
C791 C792 1.398 . S
C791 C797 1.491 . S
C792 H783 0.950 . S
C792 C791 1.398 . S
C792 C793 1.391 . S
C793 H781 0.950 . S
C793 C789 1.393 . S
C793 C792 1.391 . S
C794 H784 0.950 . S
C794 C795 1.386 . S
C794 C796 1.391 . S
C795 C794 1.386 . S
C795 C799 1.393 . S
C796 H785 0.950 . S
C796 C794 1.391 . S
C796 C797 1.400 . S
C797 C791 1.491 . S
C797 C796 1.400 . S
C797 C798 1.398 . S
C798 H786 0.950 . S
C798 C797 1.398 . S
C798 C799 1.391 . S
C799 H787 0.950 . S
C799 C795 1.393 . S
C799 C798 1.391 . S
H800 C808 0.950 . S
H801 C813 0.950 . S
H802 C810 0.950 . S
H803 C812 0.950 . S
H804 C814 0.950 . S
H805 C816 0.950 . S
H806 C818 0.950 . S
H807 C819 0.950 . S
C808 H800 0.950 . S
C808 C809 1.386 . S
C808 C810 1.391 . S
C809 C808 1.386 . S
C809 C813 1.393 . S
C810 H802 0.950 . S
C810 C808 1.391 . S
C810 C811 1.400 . S
C811 C810 1.400 . S
C811 C812 1.398 . S
C811 C817 1.491 . S
C812 H803 0.950 . S
C812 C811 1.398 . S
C812 C813 1.391 . S
C813 H801 0.950 . S
C813 C809 1.393 . S
C813 C812 1.391 . S
C814 H804 0.950 . S
C814 C815 1.386 . S
C814 C816 1.391 . S
C815 C814 1.386 . S
C815 C819 1.393 . S
C816 H805 0.950 . S
C816 C814 1.391 . S
C816 C817 1.400 . S
C817 C811 1.491 . S
C817 C816 1.400 . S
C817 C818 1.398 . S
C818 H806 0.950 . S
C818 C817 1.398 . S
C818 C819 1.391 . S
C819 H807 0.950 . S
C819 C815 1.393 . S
C819 C818 1.391 . S
H820 C828 0.950 . S
H821 C833 0.950 . S
H822 C830 0.950 . S
H823 C832 0.950 . S
H824 C834 0.950 . S
H825 C836 0.950 . S
H826 C838 0.950 . S
H827 C839 0.950 . S
C828 H820 0.950 . S
C828 C829 1.386 . S
C828 C830 1.391 . S
C829 C828 1.386 . S
C829 C833 1.393 1_554 S
C830 H822 0.950 . S
C830 C828 1.391 . S
C830 C831 1.400 . S
C831 C830 1.400 . S
C831 C832 1.398 1_554 S
C831 C837 1.491 . S
C832 H823 0.950 . S
C832 C831 1.398 1_556 S
C832 C833 1.391 . S
C833 H821 0.950 . S
C833 C829 1.393 1_556 S
C833 C832 1.391 . S
C834 H824 0.950 . S
C834 C835 1.391 . S
C834 C836 1.391 . S
C835 C834 1.391 . S
C835 C839 1.387 1_556 S
C836 H825 0.950 . S
C836 C834 1.391 . S
C836 C837 1.402 1_556 S
C837 C831 1.491 . S
C837 C836 1.402 1_554 S
C837 C838 1.397 . S
C838 H826 0.950 . S
C838 C837 1.397 . S
C838 C839 1.391 . S
C839 H827 0.950 . S
C839 C835 1.387 1_554 S
C839 C838 1.391 . S
H840 C848 0.950 . S
H841 C853 0.950 . S
H842 C850 0.950 . S
H843 C852 0.950 . S
H844 C854 0.950 . S
H845 C856 0.950 . S
H846 C858 0.950 . S
H847 C859 0.950 . S
C848 H840 0.950 . S
C848 C849 1.386 . S
C848 C850 1.391 . S
C849 C848 1.386 . S
C849 C853 1.393 . S
C850 H842 0.950 . S
C850 C848 1.391 . S
C850 C851 1.400 . S
C851 C850 1.400 . S
C851 C852 1.398 . S
C851 C857 1.491 . S
C852 H843 0.950 . S
C852 C851 1.398 . S
C852 C853 1.391 . S
C853 H841 0.950 . S
C853 C849 1.393 . S
C853 C852 1.391 . S
C854 H844 0.950 . S
C854 C855 1.386 . S
C854 C856 1.391 . S
C855 C854 1.386 . S
C855 C859 1.393 . S
C856 H845 0.950 . S
C856 C854 1.391 . S
C856 C857 1.400 . S
C857 C851 1.491 . S
C857 C856 1.400 . S
C857 C858 1.398 . S
C858 H846 0.950 . S
C858 C857 1.398 . S
C858 C859 1.391 . S
C859 H847 0.950 . S
C859 C855 1.393 . S
C859 C858 1.391 . S
H860 C868 0.950 . S
H861 C873 0.950 . S
H862 C870 0.950 . S
H863 C872 0.950 . S
H864 C874 0.950 . S
H865 C876 0.950 . S
H866 C878 0.950 . S
H867 C879 0.950 . S
C868 H860 0.950 . S
C868 C869 1.400 . S
C868 C870 1.391 . S
C869 C868 1.400 . S
C869 C873 1.379 1_556 S
C870 H862 0.950 . S
C870 C868 1.391 . S
C870 C871 1.406 . S
C871 C870 1.406 . S
C871 C872 1.392 1_556 S
C871 C877 1.490 1_556 S
C872 H863 0.950 . S
C872 C871 1.392 1_554 S
C872 C873 1.391 . S
C873 H861 0.950 . S
C873 C869 1.379 1_554 S
C873 C872 1.391 . S
C874 H864 0.950 . S
C874 C875 1.386 . S
C874 C876 1.391 . S
C875 C874 1.386 . S
C875 C879 1.393 1_554 S
C876 H865 0.950 . S
C876 C874 1.391 . S
C876 C877 1.410 . S
C877 C871 1.490 1_554 S
C877 C876 1.410 . S
C877 C878 1.389 1_554 S
C878 H866 0.950 . S
C878 C877 1.389 1_556 S
C878 C879 1.391 . S
C879 H867 0.950 . S
C879 C875 1.393 1_556 S
C879 C878 1.391 . S
C409 C5 1.481 . S
C415 C221 1.468 . S
C429 C31 1.474 . S
C435 C89 1.481 . S
C455 C128 1.483 . S
C449 C53 1.474 . S
C469 C71 1.483 . S
C475 C182 1.465 . S
C495 C284 1.470 . S
C489 C75 1.486 . S
C515 C338 1.475 . S
C509 C9 1.473 . S
C535 C377 1.479 . S
C529 C27 1.469 . S
C555 C245 1.470 . S
C549 C49 1.486 . S
C569 C51 1.470 . S
C575 C143 1.479 . S
C589 C72 1.472 . S
C595 C167 1.483 . S
C609 C6 1.473 . S
C615 C206 1.478 . S
C635 C104 1.476 . S
C629 C29 1.469 . S
C649 C28 1.481 . S
C655 C362 1.475 . S
C675 C260 1.479 . S
C669 C50 1.470 . S
C695 C299 1.477 . S
C689 C73 1.473 . S
C709 C7 1.471 . S
C715 C323 1.482 . S
C735 C109 1.505 1_556 S
C729 C4 1.499 . S
C755 C148 1.507 . S
C749 C30 1.498 . S
C769 C52 1.507 . S
C775 C187 1.490 1_554 S
C789 C70 1.503 . S
C795 C226 1.495 . S
C815 C265 1.501 . S
C809 C74 1.503 . S
C829 C8 1.506 . S
C835 C304 1.499 . S
C849 C26 1.497 . S
C855 C343 1.503 . S
C869 C48 1.498 1_556 S
C875 C382 1.501 . S
