# Generated by pormake.
# Topology anh, (6,3)-cn, num edge types: 1
# Building blocks:
#     Node 0, Type 0, BuildingBlock: PAMTUU_clean_sbu_0, # of connection points: 6
#     Node 1, Type 0, BuildingBlock: PAMTUU_clean_sbu_0, # of connection points: 6
#     Node 2, Type 0, BuildingBlock: PAMTUU_clean_sbu_0, # of connection points: 6
#     Node 3, Type 1, BuildingBlock: VETTIZ_charged_linker_0, # of connection points: 3
#     Node 4, Type 1, BuildingBlock: VETTIZ_charged_linker_0, # of connection points: 3
#     Node 5, Type 1, BuildingBlock: VETTIZ_charged_linker_0, # of connection points: 3
#     Node 6, Type 1, BuildingBlock: VETTIZ_charged_linker_0, # of connection points: 3
#     Node 7, Type 1, BuildingBlock: VETTIZ_charged_linker_0, # of connection points: 3
#     Node 8, Type 1, BuildingBlock: VETTIZ_charged_linker_0, # of connection points: 3
#     Edge 9, Type (0, 1), None
#     Edge 10, Type (0, 1), None
#     Edge 11, Type (0, 1), None
#     Edge 12, Type (0, 1), None
#     Edge 13, Type (0, 1), None
#     Edge 14, Type (0, 1), None
#     Edge 15, Type (0, 1), None
#     Edge 16, Type (0, 1), None
#     Edge 17, Type (0, 1), None
#     Edge 18, Type (0, 1), None
#     Edge 19, Type (0, 1), None
#     Edge 20, Type (0, 1), None
#     Edge 21, Type (0, 1), None
#     Edge 22, Type (0, 1), None
#     Edge 23, Type (0, 1), None
#     Edge 24, Type (0, 1), None
#     Edge 25, Type (0, 1), None
#     Edge 26, Type (0, 1), None
# Relax obj value: 0.467
# Max RMSD: 0.227
# Mean RMSD: 0.184
data_MOF--net-anh--node1-PAMTUU_clean_sbu_0--node2-VETTIZ_charged_linker_0--edge1-none
_symmetry_space_group_name_H-M    P1
_symmetry_Int_Tables_number       1
_symmetry_cell_setting            triclinic
loop_
_symmetry_equiv_pos_as_xyz
'x, y, z'
_cell_length_a     18.426808
_cell_length_b     18.565563
_cell_length_c     37.751164
_cell_angle_alpha  92.829958
_cell_angle_beta   89.880398
_cell_angle_gamma 119.95929
loop_
_atom_site_label
_atom_site_type_symbol
_atom_site_fract_x
_atom_site_fract_y
_atom_site_fract_z
_atom_type_partial_charge
Tb0 Tb 0.2881 0.88135 0.16095 0.0
Tb1 Tb 0.39966 0.79442 0.17151 0.0
C2 C 0.33658 0.80772 0.09605 0.0
C3 C 1.10279 0.88913 0.16878 0.0
C4 C 0.95495 0.73618 0.16144 0.0
C5 C 0.9659 0.80224 0.14121 0.0
C6 C 1.03996 0.87882 0.14484 0.0
C7 C 1.08384 0.82843 0.19373 0.0
C8 C 1.0108 0.75119 0.18952 0.0
C9 C 1.19012 0.93739 0.15798 0.0
O10 O 1.19132 0.746 0.1632 0.0
O11 O 0.2749 0.70127 0.1871 0.0
O12 O 0.41268 0.86918 0.22022 0.0
O13 O 0.28113 0.84846 0.21492 0.0
O14 O 0.48264 0.75544 0.15297 0.0
O15 O 0.43055 0.72669 0.20519 0.0
O16 O 0.49586 0.92237 0.16212 0.0
O17 O 0.41815 0.98793 0.17027 0.0
O18 O 0.33247 0.87229 0.10881 0.0
O19 O 0.34644 0.75911 0.11727 0.0
C20 C 1.19988 0.6881 0.17883 0.0
O21 O 1.24732 0.96109 0.18312 0.0
O22 O 1.20619 0.90243 0.13056 0.0
C23 C 0.34796 0.87008 0.23407 0.0
C24 C 0.43288 0.61996 0.17106 0.0
C25 C 0.37864 0.45552 0.14581 0.0
C26 C 0.33523 0.49584 0.13563 0.0
C27 C 0.3624 0.57764 0.14809 0.0
C28 C 0.46917 0.57673 0.18493 0.0
C29 C 0.44146 0.49465 0.17285 0.0
C30 C 0.46841 0.70912 0.17998 0.0
C31 C 0.49136 0.99096 0.16671 0.0
H32 H 0.92295 0.79111 0.11931 0.0
H33 H 1.05315 0.9245 0.12536 0.0
H34 H 1.13085 0.83518 0.21283 0.0
H35 H 1.00323 0.70071 0.20525 0.0
H36 H 0.28534 0.46705 0.11563 0.0
H37 H 0.33144 0.60944 0.13817 0.0
H38 H 0.52193 0.60776 0.20355 0.0
H39 H 0.47623 0.46596 0.18192 0.0
Tb40 Tb 0.83645 0.17103 0.48893 0.0
Tb41 Tb 1.03492 0.25653 0.49724 0.0
C42 C 0.94171 0.21408 0.42341 0.0
C43 C 0.62789 1.14529 0.49956 0.0
C44 C 0.5048 0.19042 0.51003 0.0
C45 C 0.49827 1.12007 0.52588 0.0
C46 C 0.55852 1.0968 0.51991 0.0
C47 C 0.64314 0.22388 0.4901 0.0
C48 C 0.58231 0.24692 0.49583 0.0
C49 C 0.681 1.11122 0.48733 0.0
O50 O 0.85822 1.06985 0.50425 0.0
O51 O 0.99712 1.12241 0.49165 0.0
O52 O 0.97925 0.20709 0.54782 0.0
O53 O 0.87635 0.23649 0.54017 0.0
O54 O 1.15316 0.2905 0.47643 0.0
O55 O 1.14097 0.32459 0.53061 0.0
O56 O 1.00776 0.35969 0.50732 0.0
O57 O 0.87865 0.30241 0.47992 0.0
O58 O 0.88217 1.15081 0.43898 0.0
O59 O 1.0037 0.27322 0.44295 0.0
C60 C 0.92382 1.05935 0.50021 0.0
O61 O 0.72804 1.14506 0.46025 0.0
O62 O 0.72058 1.09745 0.51223 0.0
C63 C 0.92138 0.22043 0.56133 0.0
C64 C 1.23847 0.43145 0.49671 0.0
C65 C 1.24332 0.5774 0.47748 0.0
C66 C 1.24492 0.56281 0.51343 0.0
C67 C 1.24357 0.4905 0.52306 0.0
C68 C 1.25255 0.45426 0.46135 0.0
C69 C 0.25415 0.52649 0.45177 0.0
C70 C 1.19099 0.34202 0.5039 0.0
C71 C 0.94614 0.368 0.49391 0.0
H72 H 0.44142 1.07587 0.53836 0.0
H73 H 0.54742 1.03757 0.52877 0.0
H74 H 0.69881 0.26467 0.47594 0.0
H75 H 0.59117 0.3034 0.48474 0.0
H76 H 1.23858 0.60239 0.53378 0.0
H77 H 1.23531 0.47588 0.55073 0.0
H78 H 1.25158 0.41154 0.44049 0.0
H79 H 0.2564 0.53866 0.42388 0.0
Tb80 Tb 0.72329 0.55296 0.82702 0.0
Tb81 Tb 0.80075 0.74742 0.82544 0.0
C82 C 0.75916 0.6342 0.75419 0.0
C83 C 0.69297 0.35795 0.85872 0.0
C84 C 0.72039 0.22716 0.86382 0.0
C85 C 0.78858 0.30515 0.85595 0.0
C86 C 0.77261 0.36986 0.85096 0.0
C87 C 0.64083 0.29317 0.88021 0.0
C88 C 0.6596 0.23011 0.88556 0.0
C89 C 0.65971 0.40319 0.84035 0.0
O90 O 0.8588 0.59866 0.81931 0.0
O91 O 0.91203 0.73647 0.8381 0.0
O92 O 0.76234 0.70894 0.87951 0.0
O93 O 0.79724 0.60967 0.87467 0.0
O94 O 0.87554 0.86231 0.80224 0.0
O95 O 0.79903 0.85388 0.84673 0.0
O96 O 0.66765 0.69328 0.81006 0.0
O97 O 0.62451 0.58225 0.8425 0.0
O98 O 0.70849 0.56751 0.771 0.0
O99 O 0.80764 0.70583 0.77134 0.0
C100 C 0.92342 0.67268 0.8292 0.0
O101 O 0.6495 0.45656 0.86013 0.0
O102 O 0.69264 0.43201 0.80987 0.0
C103 C 0.77893 0.65668 0.89462 0.0
C104 C 0.76644 0.89096 0.79251 0.0
C105 C 0.62703 0.81766 0.74369 0.0
C106 C 0.61598 0.82466 0.78047 0.0
C107 C 0.68449 0.86269 0.80426 0.0
C108 C 0.77846 0.88997 0.75575 0.0
C109 C 0.7101 0.85447 0.7318 0.0
C110 C 0.82868 0.88927 0.81693 0.0
C111 C 0.60849 0.63643 0.82859 0.0
H112 H 0.84537 0.31073 0.84505 0.0
H113 H 0.81783 0.42366 0.83733 0.0
H114 H 0.5817 0.28604 0.88902 0.0
H115 H 0.6123 0.17405 0.89721 0.0
H116 H 0.55452 0.79902 0.79159 0.0
H117 H 0.672 0.86197 0.83235 0.0
H118 H 0.84053 0.91148 0.74551 0.0
H119 H 0.7233 0.85575 0.70391 0.0
C120 C 1.04975 0.55328 0.17954 0.0
C121 C 1.12773 0.61463 0.19609 0.0
C122 C 1.14354 0.60208 0.23116 0.0
C123 C 1.01266 0.47092 0.23244 0.0
C124 C 0.99302 0.48138 0.19836 0.0
C125 C 0.90764 0.40697 0.18633 0.0
H126 H 0.58057 1.01561 0.226 0.0
C127 C 0.94624 0.38937 0.24473 0.0
C128 C 0.88316 0.34995 0.21773 0.0
H129 H 0.58652 1.14316 0.13292 0.0
H130 H 0.72341 0.26235 0.15305 0.0
H131 H 0.76296 1.05635 0.22532 0.0
H132 H 0.63638 0.16826 0.27926 0.0
H133 H 0.7081 0.1723 0.31072 0.0
H134 H 0.62861 1.07272 0.29164 0.0
H135 H 0.70481 1.01525 0.26455 0.0
H136 H 0.81531 1.09163 0.26665 0.0
C137 C 0.91761 0.3643 0.15218 0.0
C138 C 0.8456 0.43819 0.18136 0.0
C139 C 0.97777 0.29802 0.36785 0.0
C140 C 0.92894 0.22317 0.38515 0.0
C141 C 0.86021 1.15677 0.36633 0.0
C142 C 0.8378 0.16507 0.33212 0.0
C143 C 0.88435 0.24063 0.31565 0.0
C144 C 0.95442 0.30496 0.33297 0.0
C145 C 0.99808 0.37878 0.30994 0.0
C146 C 0.94069 0.3485 0.27663 0.0
C147 C 0.87373 0.26811 0.28068 0.0
C148 C 1.08661 0.39223 0.30207 0.0
C149 C 0.99829 0.45422 0.32955 0.0
C150 C 0.61047 1.06912 0.20982 0.0
C151 C 0.57185 1.06928 0.17799 0.0
C152 C 0.61404 1.14108 0.15788 0.0
C153 C 0.69357 0.21014 0.16957 0.0
C154 C 0.73125 0.2082 0.20194 0.0
C155 C 0.68781 1.13776 0.22122 0.0
C156 C 0.73186 1.14313 0.25517 0.0
C157 C 0.80907 0.22852 0.25417 0.0
C158 C 0.81139 0.26821 0.22278 0.0
C159 C 0.75463 1.07287 0.25319 0.0
C160 C 0.67363 1.13834 0.28597 0.0
H161 H 1.10569 0.52858 0.2756 0.0
H162 H 1.03494 0.55938 0.15255 0.0
H163 H 0.84864 0.47907 0.20454 0.0
H164 H 0.78043 0.38643 0.17869 0.0
H165 H 0.86084 0.47429 0.15737 0.0
H166 H 0.96689 0.34736 0.15615 0.0
H167 H 0.93597 0.40646 0.12988 0.0
H168 H 0.85885 0.3065 0.14433 0.0
H169 H 1.03133 0.35037 0.38132 0.0
H170 H 0.82154 1.09818 0.37845 0.0
H171 H 0.78345 1.11216 0.32022 0.0
H172 H 1.08882 0.33373 0.30401 0.0
H173 H 1.13462 0.43958 0.32107 0.0
H174 H 1.10579 0.41065 0.27467 0.0
H175 H 0.93718 0.43449 0.34231 0.0
H176 H 1.00639 0.50282 0.31163 0.0
H177 H 1.04803 0.48275 0.3507 0.0
H178 H 1.2017 0.64621 0.24483 0.0
C179 C 1.08743 0.5324 0.24917 0.0
C180 C 0.93043 0.92023 0.49966 0.0
C181 C 0.91929 0.98446 0.51701 0.0
C182 C 0.89904 0.97667 0.55303 0.0
C183 C 0.89538 0.84392 0.55411 0.0
C184 C 0.91775 0.84986 0.51892 0.0
C185 C 0.92671 0.77428 0.50675 0.0
H186 H 0.90098 0.40377 0.55679 0.0
C187 C 0.88466 0.76497 0.56741 0.0
C188 C 0.90364 0.72251 0.54008 0.0
H189 H 0.97273 0.5033 0.45385 0.0
H190 H 0.95536 0.62285 0.47312 0.0
H191 H 0.99827 0.57406 0.60457 0.0
H192 H 0.74871 0.42866 0.56007 0.0
H193 H 0.73735 0.47197 0.60056 0.0
H194 H 0.77914 0.40214 0.60026 0.0
H195 H 0.92278 0.47305 0.61865 0.0
H196 H 0.92887 0.56633 0.63812 0.0
C197 C 1.0181 0.80567 0.49673 0.0
C198 C 0.86494 0.72586 0.47563 0.0
C199 C 0.79048 0.69761 0.69492 0.0
C200 C 0.77 0.62871 0.7153 0.0
C201 C 0.77021 0.55896 0.69898 0.0
C202 C 0.79453 0.55959 0.66358 0.0
C203 C 0.81788 0.63028 0.64385 0.0
C204 C 0.81283 0.69641 0.65933 0.0
C205 C 0.83469 0.76385 0.63389 0.0
C206 C 0.85773 0.72951 0.60097 0.0
C207 C 0.84854 0.65169 0.60709 0.0
C208 C 0.91038 0.84556 0.65 0.0
C209 C 0.75423 0.76832 0.62722 0.0
C210 C 0.91442 0.45165 0.53838 0.0
C211 C 0.94058 0.44471 0.5042 0.0
C212 C 0.95438 0.50771 0.48076 0.0
C213 C 0.94389 0.57677 0.49188 0.0
C214 C 0.91733 0.58229 0.52661 0.0
C215 C 0.90252 0.51885 0.54872 0.0
C216 C 0.86991 0.52851 0.58379 0.0
C217 C 0.8706 0.60978 0.5805 0.0
C218 C 0.89825 0.64342 0.54692 0.0
C219 C 0.93248 0.53539 0.61303 0.0
C220 C 0.77939 0.45399 0.58668 0.0
H221 H 0.8726 0.90868 0.59874 0.0
H222 H 0.94694 0.92395 0.47202 0.0
H223 H 0.80013 0.70898 0.48305 0.0
H224 H 0.86467 0.66749 0.468 0.0
H225 H 0.88152 0.76414 0.45205 0.0
H226 H 1.0604 0.84831 0.51851 0.0
H227 H 1.03337 0.84066 0.47218 0.0
H228 H 1.0316 0.75425 0.49255 0.0
H229 H 0.79042 0.75204 0.70661 0.0
H230 H 0.75553 0.50547 0.71413 0.0
H231 H 0.79624 0.5056 0.65328 0.0
H232 H 0.94831 0.83262 0.66883 0.0
H233 H 0.88938 0.88488 0.66477 0.0
H234 H 0.95533 0.88255 0.6297 0.0
H235 H 0.69787 0.70497 0.6254 0.0
H236 H 0.7536 0.79538 0.60194 0.0
H237 H 0.74523 0.80413 0.64934 0.0
H238 H 0.89213 1.02464 0.56743 0.0
C239 C 0.88761 0.90838 0.57139 0.0
C240 C 0.46888 0.64224 0.83062 0.0
C241 C 0.54494 0.65436 0.84652 0.0
C242 C 0.56184 0.68371 0.88227 0.0
C243 C 0.4296 0.68244 0.88715 0.0
C244 C 0.41216 0.6575 0.85156 0.0
C245 C 0.32849 0.65052 0.84063 0.0
H246 H 1.01034 0.73156 0.89131 0.0
C247 C 0.36111 0.69375 0.90239 0.0
C248 C 0.30162 0.67806 0.87508 0.0
H249 H 1.02098 0.62106 0.78985 0.0
H250 H 1.15152 0.62643 0.80892 0.0
H251 H 1.0382 0.60959 0.93121 0.0
H252 H 1.20489 0.86171 0.90566 0.0
H253 H 1.23031 0.85432 0.94963 0.0
H254 H 1.12595 0.83295 0.93851 0.0
H255 H 1.04316 0.69593 0.95673 0.0
H256 H 1.10827 0.65245 0.96757 0.0
C257 C 0.2658 0.55912 0.82931 0.0
C258 C 0.34345 0.70951 0.81082 0.0
C259 C 0.36785 0.76212 0.03625 0.0
C260 C 0.31886 0.78504 0.05753 0.0
C261 C 1.25289 0.7901 0.04138 0.0
C262 C 1.23492 0.77184 0.00496 0.0
C263 C 0.28406 0.74918 0.98381 0.0
C264 C 0.35011 0.74589 -0.00064 0.0
C265 C 0.40019 0.72884 0.9719 0.0
C266 C 0.34934 0.71621 0.93778 0.0
C267 C 0.2815 0.72817 0.94514 0.0
C268 C 0.39986 0.64835 0.98113 0.0
C269 C 0.48897 0.8072 0.97152 0.0
C270 C 1.04142 0.71035 0.87266 0.0
C271 C 1.00609 0.67863 0.83864 0.0
C272 C 1.04725 0.64753 0.81608 0.0
C273 C 1.12295 0.65056 0.82716 0.0
C274 C 1.15708 0.68251 0.86168 0.0
C275 C 1.11408 0.70968 0.88372 0.0
C276 C 1.14974 0.73148 0.92076 0.0
C277 C 1.22348 0.71681 0.91766 0.0
C278 C 1.23069 0.68969 0.88278 0.0
C279 C 1.08173 0.67 0.94558 0.0
C280 C 1.17888 0.82471 0.92946 0.0
H281 H 0.52294 0.71694 0.92963 0.0
H282 H 0.4539 0.62114 0.80298 0.0
H283 H 0.39623 0.77293 0.8183 0.0
H284 H 0.28786 0.7154 0.80535 0.0
H285 H 0.35912 0.68633 0.78597 0.0
H286 H 0.26214 0.51748 0.85028 0.0
H287 H 0.28548 0.53988 0.80445 0.0
H288 H 1.20195 0.54866 0.82496 0.0
H289 H 0.42047 0.75999 0.04779 0.0
H290 H 1.2145 0.80789 0.05714 0.0
H291 H 1.18361 0.77699 -0.00528 0.0
H292 H 0.33535 0.59885 0.98715 0.0
H293 H 0.44067 0.65987 0.00482 0.0
H294 H 0.42055 0.62196 0.95918 0.0
H295 H 0.49099 0.86317 0.98468 0.0
H296 H 0.50976 0.82541 0.94418 0.0
H297 H 0.53614 0.79746 0.98548 0.0
H298 H 0.6201 0.69729 0.895 0.0
C299 C 0.50522 0.69655 0.90247 0.0
C300 C 0.25823 0.71977 0.48085 0.0
C301 C 1.21906 0.63742 0.46615 0.0
C302 C 1.1555 0.61167 0.4397 0.0
C303 C 1.18912 0.75317 0.43576 0.0
C304 C 1.24037 0.77659 0.4655 0.0
C305 C 0.27753 0.86807 0.4749 0.0
H306 H 0.47615 0.22953 0.44404 0.0
C307 C 1.20085 0.82737 0.41944 0.0
C308 C 1.23637 0.89232 0.4458 0.0
H309 H 0.34795 1.13476 0.54143 0.0
H310 H 1.23324 1.0157 0.50699 0.0
H311 H 0.47813 1.08738 0.41906 0.0
H312 H 0.28516 1.14136 0.389 0.0
H313 H 0.31318 1.10252 0.35104 0.0
H314 H 0.39053 0.19855 0.37376 0.0
H315 H 0.49635 0.16471 0.38805 0.0
H316 H 0.45355 1.05688 0.37415 0.0
C317 C 0.37356 0.91215 0.47102 0.0
C318 C 0.25527 0.8806 0.51317 0.0
C319 C 0.28967 0.82763 0.29258 0.0
C320 C 0.34534 0.89088 0.27154 0.0
C321 C 0.38124 0.97444 0.28413 0.0
C322 C 0.3611 0.9944 0.31771 0.0
C323 C 0.30609 0.92985 0.33893 0.0
C324 C 0.27197 0.848 0.32631 0.0
C325 C 1.21581 0.78693 0.35229 0.0
C326 C 1.22347 0.8462 0.38353 0.0
C327 C 0.2753 0.92974 0.37504 0.0
C328 C 1.25034 0.72797 0.36011 0.0
C329 C 1.12571 0.73927 0.33644 0.0
C330 C 0.42243 0.18578 0.45838 0.0
C331 C 0.42627 0.18414 0.49575 0.0
C332 C 0.35045 1.1322 0.51275 0.0
C333 C 0.28698 1.06225 0.49363 0.0
C334 C 0.30077 1.05004 0.45806 0.0
C335 C 0.36063 1.11432 0.43971 0.0
C336 C 0.36325 1.08668 0.40164 0.0
C337 C 0.29691 0.99472 0.40149 0.0
C338 C 0.26595 0.97412 0.43557 0.0
C339 C 0.45223 1.09978 0.39498 0.0
C340 C 0.33727 1.13493 0.37732 0.0
H341 H 1.09169 0.64942 0.40421 0.0
H342 H 0.30441 0.74011 0.50227 0.0
H343 H 0.26304 0.83919 0.53117 0.0
H344 H 1.18965 0.8665 0.51443 0.0
H345 H 0.29763 0.94465 0.52427 0.0
H346 H 0.38998 0.89954 0.44394 0.0
H347 H 0.40254 0.89069 0.49063 0.0
H348 H 0.4019 0.98052 0.47553 0.0
H349 H 0.25896 0.76335 0.2826 0.0
H350 H 0.42161 1.02411 0.26737 0.0
H351 H 0.38898 1.05912 0.32589 0.0
H352 H 0.28316 0.71846 0.33724 0.0
H353 H 1.19949 0.66436 0.36508 0.0
H354 H 0.2962 0.75325 0.38279 0.0
H355 H 1.10723 0.7832 0.32627 0.0
H356 H 1.07962 0.70318 0.35645 0.0
H357 H 1.12052 0.69547 0.31411 0.0
H358 H 1.12074 0.5473 0.42963 0.0
C359 C 1.13898 0.66957 0.42492 0.0
C360 C 0.48722 0.79816 0.72621 0.0
C361 C 0.5545 0.78572 0.71756 0.0
C362 C 0.56652 0.77821 0.68106 0.0
C363 C 0.51359 0.87054 0.67241 0.0
C364 C 0.47274 0.85065 0.70491 0.0
C365 C 0.47164 0.92589 0.72158 0.0
H366 H 0.81164 0.19056 0.81585 0.0
C367 C 0.57307 0.96147 0.67673 0.0
C368 C 0.55679 0.99212 0.70888 0.0
H369 H 0.55798 1.13674 0.83687 0.0
H370 H 0.51997 1.0875 0.77614 0.0
H371 H 0.80248 1.0511 0.74936 0.0
H372 H 0.79166 0.27575 0.75832 0.0
H373 H 0.79938 0.25992 0.71236 0.0
H374 H 0.88306 0.27624 0.7424 0.0
H375 H 0.87993 1.15183 0.76802 0.0
H376 H 0.87238 1.12979 0.72098 0.0
C377 C 0.45529 0.91908 0.76193 0.0
C378 C 0.40211 0.93581 0.7035 0.0
C379 C 0.80703 1.10758 0.5917 0.0
C380 C 0.88226 0.18368 0.59434 0.0
C381 C 0.91091 0.22724 0.62748 0.0
C382 C 0.86258 0.19568 0.65769 0.0
C383 C 0.78528 1.12102 0.65412 0.0
C384 C 0.75922 1.07767 0.62165 0.0
C385 C 0.67876 0.9963 0.62348 0.0
C386 C 0.65206 1.00739 0.66065 0.0
C387 C 0.71655 1.07818 0.67863 0.0
C388 C 0.70173 0.92655 0.61938 0.0
C389 C 0.61458 0.98717 0.59494 0.0
C390 C 0.74532 1.15952 0.80935 0.0
C391 C 0.68823 1.16375 0.83322 0.0
C392 C 0.60352 1.12967 0.82126 0.0
C393 C 0.57858 1.09686 0.78662 0.0
C394 C 0.63446 1.08777 0.76484 0.0
C395 C 0.71806 1.12659 0.77468 0.0
C396 C 0.77175 1.14939 0.7424 0.0
C397 C 0.70521 1.1003 0.71351 0.0
C398 C 0.6247 1.06164 0.72743 0.0
C399 C 0.8354 1.1189 0.74529 0.0
C400 C 0.81392 0.24503 0.73861 0.0
H401 H 0.54427 0.81022 0.62956 0.0
H402 H 0.46497 0.78821 0.75276 0.0
H403 H 0.40791 0.93773 0.67418 0.0
H404 H 0.40538 0.99471 0.71352 0.0
H405 H 0.33923 0.88302 0.70927 0.0
H406 H 0.40068 0.85726 0.76692 0.0
H407 H 0.43325 0.96114 0.77234 0.0
H408 H 0.51021 0.92709 0.77745 0.0
H409 H 0.7852 1.07241 0.56655 0.0
H410 H 0.96875 0.28649 0.62972 0.0
H411 H 0.88641 0.23017 0.68257 0.0
H412 H 0.76321 0.94775 0.60687 0.0
H413 H 0.65715 0.87357 0.60152 0.0
H414 H 0.70669 0.90487 0.6456 0.0
H415 H 0.6049 1.04175 0.5967 0.0
H416 H 0.55324 0.93026 0.59843 0.0
H417 H 0.63609 0.98204 0.56791 0.0
H418 H 0.60468 0.75263 0.67135 0.0
C419 C 0.53804 0.81557 0.65771 0.0
C420 C 0.81777 0.60509 0.15213 0.0
C421 C 0.90366 0.65156 0.14578 0.0
C422 C 0.93856 0.62454 0.11856 0.0
C423 C 0.80002 0.52422 0.09756 0.0
C424 C 0.76693 0.53891 0.12791 0.0
C425 C 0.67333 0.48586 0.12732 0.0
H426 H 0.36468 0.44046 0.07309 0.0
C427 C 0.73239 0.4772 0.07142 0.0
C428 C 0.65743 0.44173 0.09015 0.0
H429 H 0.3955 0.31983 0.16229 0.0
H430 H 0.49969 0.29921 0.129 0.0
H431 H 0.53202 0.55879 0.05914 0.0
H432 H 0.403 0.31173 0.0093 0.0
H433 H 0.48325 0.37319 0.98055 0.0
H434 H 0.40099 0.39695 0.98995 0.0
H435 H 0.44583 0.52126 0.02764 0.0
H436 H 0.55041 0.56308 0.01316 0.0
C437 C 0.63492 0.54329 0.13062 0.0
C438 C 0.6475 0.42664 0.15807 0.0
C439 C 0.79578 0.61782 0.95429 0.0
C440 C 0.74445 0.62427 0.92889 0.0
C441 C 0.65693 0.58016 0.93256 0.0
C442 C 0.62106 0.53121 0.96152 0.0
C443 C 0.67333 0.52771 0.98745 0.0
C444 C 0.75912 0.57026 0.98363 0.0
C445 C 0.80471 0.55746 0.0134 0.0
C446 C 0.73108 0.49966 0.03597 0.0
C447 C 0.65454 0.48271 0.02021 0.0
C448 C 0.86542 0.64405 0.03189 0.0
C449 C 0.85075 0.51308 -0.0019 0.0
C450 C 0.39012 0.40591 0.08516 0.0
C451 C 0.37937 0.39 0.12166 0.0
C452 C 0.408 0.33868 0.13523 0.0
C453 C 0.46921 0.32918 0.11701 0.0
C454 C 0.49772 0.36977 0.0856 0.0
C455 C 0.45208 0.39658 0.0674 0.0
C456 C 0.49508 0.43564 0.03357 0.0
C457 C 0.5786 0.43786 0.03847 0.0
C458 C 0.58056 0.40546 0.07085 0.0
C459 C 0.50653 0.52429 0.03308 0.0
C460 C 0.44302 0.37696 0.00155 0.0
H461 H 0.91341 0.54143 0.07292 0.0
H462 H 0.79071 0.62372 0.17367 0.0
H463 H 0.68886 0.45758 0.18192 0.0
H464 H 0.6509 0.3699 0.15032 0.0
H465 H 0.5837 0.40848 0.16706 0.0
H466 H 0.65893 0.58957 0.10981 0.0
H467 H 0.64988 0.57724 0.15704 0.0
H468 H 0.56605 0.50747 0.12762 0.0
H469 H 0.86289 0.64746 0.95085 0.0
H470 H 0.61576 0.57874 0.91192 0.0
H471 H 0.55404 0.49752 0.96264 0.0
H472 H 0.8852 0.69574 0.01381 0.0
H473 H 0.92507 0.64887 0.04061 0.0
H474 H 0.83575 0.6584 0.05473 0.0
H475 H 0.80817 0.45858 0.98019 0.0
H476 H 0.87308 0.48914 0.01921 0.0
H477 H 0.90552 0.55611 0.98265 0.0
H478 H 1.00536 0.6586 0.11415 0.0
C479 C 0.88637 0.55913 0.09453 0.0
loop_
_geom_bond_atom_site_label_1
_geom_bond_atom_site_label_2
_geom_bond_distance
_geom_bond_site_symmetry_2
_ccdc_geom_bond_type
Tb0 C9 2.764 . S
Tb0 O10 2.325 . S
Tb0 O13 2.303 1_655 S
Tb0 O17 2.322 1_655 S
Tb0 O18 2.349 1_655 S
Tb0 O21 2.415 . S
Tb0 O22 2.399 . S
Tb1 O11 2.322 1_455 S
Tb1 O12 2.349 . S
Tb1 O14 2.415 . S
Tb1 O15 2.399 . S
Tb1 O16 2.325 . S
Tb1 O19 2.303 . S
Tb1 C30 2.764 . S
C2 O18 1.261 . S
C2 O19 1.257 . S
C3 C6 1.358 . S
C3 C7 1.332 . S
C3 C9 1.504 . S
C4 C5 1.373 . S
C4 C8 1.308 . S
C5 C4 1.373 . S
C5 C6 1.429 . S
C5 H32 0.932 . S
C6 C3 1.358 . S
C6 C5 1.429 . S
C6 H33 0.930 . S
C7 C3 1.332 . S
C7 C8 1.394 . S
C7 H34 0.932 . S
C8 C4 1.308 . S
C8 C7 1.394 . S
C8 H35 0.929 . S
C9 Tb0 2.764 . S
C9 C3 1.504 . S
C9 O21 1.239 . S
C9 O22 1.263 . S
O10 Tb0 2.325 . S
O10 C20 1.236 . S
O11 Tb1 2.322 1_655 S
O11 C20 1.257 . S
O12 Tb1 2.349 . S
O12 C23 1.261 . S
O13 Tb0 2.303 1_455 S
O13 C23 1.257 . S
O14 Tb1 2.415 . S
O14 C30 1.239 . S
O15 Tb1 2.399 . S
O15 C30 1.263 . S
O16 Tb1 2.325 . S
O16 C31 1.236 . S
O17 Tb0 2.322 1_455 S
O17 C31 1.257 . S
O18 Tb0 2.349 1_455 S
O18 C2 1.261 . S
O19 Tb1 2.303 . S
O19 C2 1.257 . S
C20 O10 1.236 . S
C20 O11 1.257 . S
O21 Tb0 2.415 . S
O21 C9 1.239 . S
O22 Tb0 2.399 . S
O22 C9 1.263 . S
C23 O12 1.261 . S
C23 O13 1.257 . S
C24 C27 1.358 . S
C24 C28 1.332 . S
C24 C30 1.504 . S
C25 C26 1.373 . S
C25 C29 1.308 . S
C26 C25 1.373 . S
C26 C27 1.429 . S
C26 H36 0.932 . S
C27 C24 1.358 . S
C27 C26 1.429 . S
C27 H37 0.930 . S
C28 C24 1.332 . S
C28 C29 1.394 . S
C28 H38 0.932 . S
C29 C25 1.308 . S
C29 C28 1.394 . S
C29 H39 0.929 . S
C30 Tb1 2.764 . S
C30 O14 1.239 . S
C30 O15 1.263 . S
C30 C24 1.504 . S
C31 O16 1.236 . S
C31 O17 1.257 . S
H32 C5 0.932 . S
H33 C6 0.930 . S
H34 C7 0.932 . S
H35 C8 0.929 . S
H36 C26 0.932 . S
H37 C27 0.930 . S
H38 C28 0.932 . S
H39 C29 0.929 . S
Tb40 C49 2.764 . S
Tb40 O50 2.325 . S
Tb40 O53 2.303 1_565 S
Tb40 O57 2.322 1_565 S
Tb40 O58 2.349 1_565 S
Tb40 O61 2.415 . S
Tb40 O62 2.399 . S
Tb41 O51 2.322 1_545 S
Tb41 O52 2.349 . S
Tb41 O54 2.415 . S
Tb41 O55 2.399 . S
Tb41 O56 2.325 . S
Tb41 O59 2.303 . S
Tb41 C70 2.764 . S
C42 O58 1.261 . S
C42 O59 1.257 . S
C43 C46 1.358 . S
C43 C47 1.332 . S
C43 C49 1.504 . S
C44 C45 1.373 . S
C44 C48 1.308 . S
C45 C44 1.373 . S
C45 C46 1.429 . S
C45 H72 0.932 . S
C46 C43 1.358 . S
C46 C45 1.429 . S
C46 H73 0.930 . S
C47 C43 1.332 . S
C47 C48 1.394 . S
C47 H74 0.932 . S
C48 C44 1.308 . S
C48 C47 1.394 . S
C48 H75 0.929 . S
C49 Tb40 2.764 . S
C49 C43 1.504 . S
C49 O61 1.239 . S
C49 O62 1.263 . S
O50 Tb40 2.325 . S
O50 C60 1.236 . S
O51 Tb41 2.322 1_565 S
O51 C60 1.257 . S
O52 Tb41 2.349 . S
O52 C63 1.261 . S
O53 Tb40 2.303 1_545 S
O53 C63 1.257 . S
O54 Tb41 2.415 . S
O54 C70 1.239 . S
O55 Tb41 2.399 . S
O55 C70 1.263 . S
O56 Tb41 2.325 . S
O56 C71 1.236 . S
O57 Tb40 2.322 1_545 S
O57 C71 1.257 . S
O58 Tb40 2.349 1_545 S
O58 C42 1.261 . S
O59 Tb41 2.303 . S
O59 C42 1.257 . S
C60 O50 1.236 . S
C60 O51 1.257 . S
O61 Tb40 2.415 . S
O61 C49 1.239 . S
O62 Tb40 2.399 . S
O62 C49 1.263 . S
C63 O52 1.261 . S
C63 O53 1.257 . S
C64 C67 1.358 . S
C64 C68 1.332 . S
C64 C70 1.504 . S
C65 C66 1.373 . S
C65 C69 1.308 . S
C66 C65 1.373 . S
C66 C67 1.429 . S
C66 H76 0.932 . S
C67 C64 1.358 . S
C67 C66 1.429 . S
C67 H77 0.930 . S
C68 C64 1.332 . S
C68 C69 1.394 . S
C68 H78 0.932 . S
C69 C65 1.308 . S
C69 C68 1.394 . S
C69 H79 0.929 . S
C70 Tb41 2.764 . S
C70 O54 1.239 . S
C70 O55 1.263 . S
C70 C64 1.504 . S
C71 O56 1.236 . S
C71 O57 1.257 . S
H72 C45 0.932 . S
H73 C46 0.930 . S
H74 C47 0.932 . S
H75 C48 0.929 . S
H76 C66 0.932 . S
H77 C67 0.930 . S
H78 C68 0.932 . S
H79 C69 0.929 . S
Tb80 C89 2.764 . S
Tb80 O90 2.325 . S
Tb80 O93 2.303 . S
Tb80 O97 2.322 . S
Tb80 O98 2.349 . S
Tb80 O101 2.415 . S
Tb80 O102 2.399 . S
Tb81 O91 2.322 . S
Tb81 O92 2.349 . S
Tb81 O94 2.415 . S
Tb81 O95 2.399 . S
Tb81 O96 2.325 . S
Tb81 O99 2.303 . S
Tb81 C110 2.764 . S
C82 O98 1.261 . S
C82 O99 1.257 . S
C83 C86 1.358 . S
C83 C87 1.332 . S
C83 C89 1.504 . S
C84 C85 1.373 . S
C84 C88 1.308 . S
C85 C84 1.373 . S
C85 C86 1.429 . S
C85 H112 0.932 . S
C86 C83 1.358 . S
C86 C85 1.429 . S
C86 H113 0.930 . S
C87 C83 1.332 . S
C87 C88 1.394 . S
C87 H114 0.932 . S
C88 C84 1.308 . S
C88 C87 1.394 . S
C88 H115 0.929 . S
C89 Tb80 2.764 . S
C89 C83 1.504 . S
C89 O101 1.239 . S
C89 O102 1.263 . S
O90 Tb80 2.325 . S
O90 C100 1.236 . S
O91 Tb81 2.322 . S
O91 C100 1.257 . S
O92 Tb81 2.349 . S
O92 C103 1.261 . S
O93 Tb80 2.303 . S
O93 C103 1.257 . S
O94 Tb81 2.415 . S
O94 C110 1.239 . S
O95 Tb81 2.399 . S
O95 C110 1.263 . S
O96 Tb81 2.325 . S
O96 C111 1.236 . S
O97 Tb80 2.322 . S
O97 C111 1.257 . S
O98 Tb80 2.349 . S
O98 C82 1.261 . S
O99 Tb81 2.303 . S
O99 C82 1.257 . S
C100 O90 1.236 . S
C100 O91 1.257 . S
O101 Tb80 2.415 . S
O101 C89 1.239 . S
O102 Tb80 2.399 . S
O102 C89 1.263 . S
C103 O92 1.261 . S
C103 O93 1.257 . S
C104 C107 1.358 . S
C104 C108 1.332 . S
C104 C110 1.504 . S
C105 C106 1.373 . S
C105 C109 1.308 . S
C106 C105 1.373 . S
C106 C107 1.429 . S
C106 H116 0.932 . S
C107 C104 1.358 . S
C107 C106 1.429 . S
C107 H117 0.930 . S
C108 C104 1.332 . S
C108 C109 1.394 . S
C108 H118 0.932 . S
C109 C105 1.308 . S
C109 C108 1.394 . S
C109 H119 0.929 . S
C110 Tb81 2.764 . S
C110 O94 1.239 . S
C110 O95 1.263 . S
C110 C104 1.504 . S
C111 O96 1.236 . S
C111 O97 1.257 . S
H112 C85 0.932 . S
H113 C86 0.930 . S
H114 C87 0.932 . S
H115 C88 0.929 . S
H116 C106 0.932 . S
H117 C107 0.930 . S
H118 C108 0.932 . S
H119 C109 0.929 . S
C120 C121 1.391 . S
C120 C124 1.391 . S
C120 H162 0.948 . S
C121 C120 1.391 . S
C121 C122 1.391 . S
C122 C121 1.391 . S
C122 H178 0.947 . S
C122 C179 1.392 . S
C123 C124 1.391 . S
C123 C127 1.397 . S
C123 C179 1.419 . S
C124 C120 1.391 . S
C124 C123 1.391 . S
C124 C125 1.399 . S
C125 C124 1.399 . S
C125 C128 1.396 . S
C125 C137 1.453 . S
C125 C138 1.684 . S
H126 C150 0.948 . S
C127 C123 1.397 . S
C127 C128 1.394 . S
C127 C146 1.723 . S
C128 C125 1.396 . S
C128 C127 1.394 . S
C128 C158 1.723 1_545 S
H129 C152 0.947 . S
H130 C153 0.948 . S
H131 C159 0.982 . S
H132 C160 0.979 . S
H133 C160 0.980 . S
H134 C160 0.983 . S
H135 C159 0.979 . S
H136 C159 0.977 . S
C137 C125 1.453 . S
C137 H166 0.982 . S
C137 H167 0.979 . S
C137 H168 0.977 . S
C138 C125 1.684 . S
C138 H163 0.979 . S
C138 H164 0.980 . S
C138 H165 0.983 . S
C139 C140 1.391 . S
C139 C144 1.391 . S
C139 H169 0.948 . S
C140 C139 1.391 . S
C140 C141 1.391 . S
C141 C140 1.391 . S
C141 C142 1.392 1_545 S
C141 H170 0.947 1_545 S
C142 C141 1.392 1_565 S
C142 C143 1.419 1_565 S
C142 H171 0.948 . S
C143 C142 1.419 1_545 S
C143 C144 1.391 . S
C143 C147 1.397 . S
C144 C139 1.391 . S
C144 C143 1.391 . S
C144 C145 1.399 . S
C145 C144 1.399 . S
C145 C146 1.396 . S
C145 C148 1.453 . S
C145 C149 1.684 . S
C146 C127 1.723 . S
C146 C145 1.396 . S
C146 C147 1.394 . S
C147 C143 1.397 . S
C147 C146 1.394 . S
C147 C157 1.723 1_545 S
C148 C145 1.453 . S
C148 H172 0.982 . S
C148 H173 0.979 . S
C148 H174 0.977 . S
C149 C145 1.684 . S
C149 H175 0.979 . S
C149 H176 0.980 . S
C149 H177 0.983 . S
C150 H126 0.948 . S
C150 C151 1.391 . S
C150 C155 1.391 . S
C151 C150 1.391 . S
C151 C152 1.391 . S
C152 H129 0.947 . S
C152 C151 1.391 . S
C152 C153 1.392 . S
C153 H130 0.948 . S
C153 C152 1.392 . S
C153 C154 1.419 . S
C154 C153 1.419 . S
C154 C155 1.391 . S
C154 C158 1.397 . S
C155 C150 1.391 . S
C155 C154 1.391 . S
C155 C156 1.399 . S
C156 C155 1.399 . S
C156 C157 1.396 . S
C156 C159 1.453 . S
C156 C160 1.684 . S
C157 C147 1.723 1_565 S
C157 C156 1.396 . S
C157 C158 1.394 . S
C158 C128 1.723 1_565 S
C158 C154 1.397 . S
C158 C157 1.394 . S
C159 H131 0.982 . S
C159 H135 0.979 . S
C159 H136 0.977 . S
C159 C156 1.453 . S
C160 H132 0.979 . S
C160 H133 0.980 . S
C160 H134 0.983 . S
C160 C156 1.684 . S
H161 C179 0.948 . S
H162 C120 0.948 . S
H163 C138 0.979 . S
H164 C138 0.980 . S
H165 C138 0.983 . S
H166 C137 0.982 . S
H167 C137 0.979 . S
H168 C137 0.977 . S
H169 C139 0.948 . S
H170 C141 0.947 1_565 S
H171 C142 0.948 . S
H172 C148 0.982 . S
H173 C148 0.979 . S
H174 C148 0.977 . S
H175 C149 0.979 . S
H176 C149 0.980 . S
H177 C149 0.983 . S
H178 C122 0.947 . S
C179 C122 1.392 . S
C179 C123 1.419 . S
C179 H161 0.948 . S
C180 C181 1.391 . S
C180 C184 1.391 . S
C180 H222 0.948 . S
C181 C180 1.391 . S
C181 C182 1.391 . S
C182 C181 1.391 . S
C182 H238 0.947 . S
C182 C239 1.392 . S
C183 C184 1.391 . S
C183 C187 1.397 . S
C183 C239 1.419 . S
C184 C180 1.391 . S
C184 C183 1.391 . S
C184 C185 1.399 . S
C185 C184 1.399 . S
C185 C188 1.396 . S
C185 C197 1.453 . S
C185 C198 1.684 . S
H186 C210 0.948 . S
C187 C183 1.397 . S
C187 C188 1.394 . S
C187 C206 1.723 . S
C188 C185 1.396 . S
C188 C187 1.394 . S
C188 C218 1.723 . S
H189 C212 0.947 . S
H190 C213 0.948 . S
H191 C219 0.982 . S
H192 C220 0.979 . S
H193 C220 0.980 . S
H194 C220 0.983 . S
H195 C219 0.979 . S
H196 C219 0.977 . S
C197 C185 1.453 . S
C197 H226 0.982 . S
C197 H227 0.979 . S
C197 H228 0.977 . S
C198 C185 1.684 . S
C198 H223 0.979 . S
C198 H224 0.980 . S
C198 H225 0.983 . S
C199 C200 1.391 . S
C199 C204 1.391 . S
C199 H229 0.948 . S
C200 C199 1.391 . S
C200 C201 1.391 . S
C201 C200 1.391 . S
C201 C202 1.392 . S
C201 H230 0.947 . S
C202 C201 1.392 . S
C202 C203 1.419 . S
C202 H231 0.948 . S
C203 C202 1.419 . S
C203 C204 1.391 . S
C203 C207 1.397 . S
C204 C199 1.391 . S
C204 C203 1.391 . S
C204 C205 1.399 . S
C205 C204 1.399 . S
C205 C206 1.396 . S
C205 C208 1.453 . S
C205 C209 1.684 . S
C206 C187 1.723 . S
C206 C205 1.396 . S
C206 C207 1.394 . S
C207 C203 1.397 . S
C207 C206 1.394 . S
C207 C217 1.723 . S
C208 C205 1.453 . S
C208 H232 0.982 . S
C208 H233 0.979 . S
C208 H234 0.977 . S
C209 C205 1.684 . S
C209 H235 0.979 . S
C209 H236 0.980 . S
C209 H237 0.983 . S
C210 H186 0.948 . S
C210 C211 1.391 . S
C210 C215 1.391 . S
C211 C210 1.391 . S
C211 C212 1.391 . S
C212 H189 0.947 . S
C212 C211 1.391 . S
C212 C213 1.392 . S
C213 H190 0.948 . S
C213 C212 1.392 . S
C213 C214 1.419 . S
C214 C213 1.419 . S
C214 C215 1.391 . S
C214 C218 1.397 . S
C215 C210 1.391 . S
C215 C214 1.391 . S
C215 C216 1.399 . S
C216 C215 1.399 . S
C216 C217 1.396 . S
C216 C219 1.453 . S
C216 C220 1.684 . S
C217 C207 1.723 . S
C217 C216 1.396 . S
C217 C218 1.394 . S
C218 C188 1.723 . S
C218 C214 1.397 . S
C218 C217 1.394 . S
C219 H191 0.982 . S
C219 H195 0.979 . S
C219 H196 0.977 . S
C219 C216 1.453 . S
C220 H192 0.979 . S
C220 H193 0.980 . S
C220 H194 0.983 . S
C220 C216 1.684 . S
H221 C239 0.948 . S
H222 C180 0.948 . S
H223 C198 0.979 . S
H224 C198 0.980 . S
H225 C198 0.983 . S
H226 C197 0.982 . S
H227 C197 0.979 . S
H228 C197 0.977 . S
H229 C199 0.948 . S
H230 C201 0.947 . S
H231 C202 0.948 . S
H232 C208 0.982 . S
H233 C208 0.979 . S
H234 C208 0.977 . S
H235 C209 0.979 . S
H236 C209 0.980 . S
H237 C209 0.983 . S
H238 C182 0.947 . S
C239 C182 1.392 . S
C239 C183 1.419 . S
C239 H221 0.948 . S
C240 C241 1.391 . S
C240 C244 1.391 . S
C240 H282 0.948 . S
C241 C240 1.391 . S
C241 C242 1.391 . S
C242 C241 1.391 . S
C242 H298 0.947 . S
C242 C299 1.392 . S
C243 C244 1.391 . S
C243 C247 1.397 . S
C243 C299 1.419 . S
C244 C240 1.391 . S
C244 C243 1.391 . S
C244 C245 1.399 . S
C245 C244 1.399 . S
C245 C248 1.396 . S
C245 C257 1.453 . S
C245 C258 1.684 . S
H246 C270 0.948 . S
C247 C243 1.397 . S
C247 C248 1.394 . S
C247 C266 1.723 . S
C248 C245 1.396 . S
C248 C247 1.394 . S
C248 C278 1.723 . S
H249 C272 0.947 . S
H250 C273 0.948 1_455 S
H251 C279 0.982 . S
H252 C280 0.979 . S
H253 C280 0.980 . S
H254 C280 0.983 . S
H255 C279 0.979 . S
H256 C279 0.977 . S
C257 C245 1.453 . S
C257 H286 0.982 . S
C257 H287 0.979 . S
C257 H288 0.977 . S
C258 C245 1.684 . S
C258 H283 0.979 . S
C258 H284 0.980 . S
C258 H285 0.983 . S
C259 C260 1.391 . S
C259 C264 1.391 . S
C259 H289 0.948 . S
C260 C259 1.391 . S
C260 C261 1.391 . S
C261 C260 1.391 . S
C261 C262 1.392 . S
C261 H290 0.947 1_455 S
C262 C261 1.392 . S
C262 C263 1.419 1_554 S
C262 H291 0.948 1_454 S
C263 C262 1.419 1_556 S
C263 C264 1.391 1_556 S
C263 C267 1.397 . S
C264 C259 1.391 . S
C264 C263 1.391 1_554 S
C264 C265 1.399 1_554 S
C265 C264 1.399 1_556 S
C265 C266 1.396 . S
C265 C268 1.453 . S
C265 C269 1.684 . S
C266 C247 1.723 . S
C266 C265 1.396 . S
C266 C267 1.394 . S
C267 C263 1.397 . S
C267 C266 1.394 . S
C267 C277 1.723 . S
C268 C265 1.453 . S
C268 H292 0.982 . S
C268 H293 0.979 . S
C268 H294 0.977 . S
C269 C265 1.684 . S
C269 H295 0.979 . S
C269 H296 0.980 . S
C269 H297 0.983 1_556 S
C270 H246 0.948 . S
C270 C271 1.391 . S
C270 C275 1.391 . S
C271 C270 1.391 . S
C271 C272 1.391 . S
C272 H249 0.947 . S
C272 C271 1.391 . S
C272 C273 1.392 . S
C273 H250 0.948 1_655 S
C273 C272 1.392 . S
C273 C274 1.419 . S
C274 C273 1.419 . S
C274 C275 1.391 . S
C274 C278 1.397 1_655 S
C275 C270 1.391 . S
C275 C274 1.391 . S
C275 C276 1.399 . S
C276 C275 1.399 . S
C276 C277 1.396 1_655 S
C276 C279 1.453 . S
C276 C280 1.684 . S
C277 C267 1.723 . S
C277 C276 1.396 1_455 S
C277 C278 1.394 . S
C278 C248 1.723 . S
C278 C274 1.397 1_455 S
C278 C277 1.394 . S
C279 H251 0.982 . S
C279 H255 0.979 . S
C279 H256 0.977 . S
C279 C276 1.453 . S
C280 H252 0.979 . S
C280 H253 0.980 . S
C280 H254 0.983 . S
C280 C276 1.684 . S
H281 C299 0.948 . S
H282 C240 0.948 . S
H283 C258 0.979 . S
H284 C258 0.980 . S
H285 C258 0.983 . S
H286 C257 0.982 . S
H287 C257 0.979 . S
H288 C257 0.977 . S
H289 C259 0.948 . S
H290 C261 0.947 1_655 S
H291 C262 0.948 1_656 S
H292 C268 0.982 . S
H293 C268 0.979 . S
H294 C268 0.977 . S
H295 C269 0.979 . S
H296 C269 0.980 . S
H297 C269 0.983 1_554 S
H298 C242 0.947 . S
C299 C242 1.392 . S
C299 C243 1.419 . S
C299 H281 0.948 . S
C300 C301 1.391 . S
C300 C304 1.391 . S
C300 H342 0.948 . S
C301 C300 1.391 . S
C301 C302 1.391 . S
C302 C301 1.391 . S
C302 H358 0.947 . S
C302 C359 1.392 . S
C303 C304 1.391 . S
C303 C307 1.397 . S
C303 C359 1.419 . S
C304 C300 1.391 . S
C304 C303 1.391 . S
C304 C305 1.399 . S
C305 C304 1.399 . S
C305 C308 1.396 . S
C305 C317 1.453 . S
C305 C318 1.684 . S
H306 C330 0.948 . S
C307 C303 1.397 . S
C307 C308 1.394 . S
C307 C326 1.723 . S
C308 C305 1.396 . S
C308 C307 1.394 . S
C308 C338 1.723 1_655 S
H309 C332 0.947 . S
H310 C333 0.948 . S
H311 C339 0.982 . S
H312 C340 0.979 . S
H313 C340 0.980 . S
H314 C340 0.983 . S
H315 C339 0.979 . S
H316 C339 0.977 . S
C317 C305 1.453 . S
C317 H346 0.982 1_655 S
C317 H347 0.979 . S
C317 H348 0.977 1_655 S
C318 C305 1.684 . S
C318 H343 0.979 . S
C318 H344 0.980 . S
C318 H345 0.983 . S
C319 C320 1.391 1_655 S
C319 C324 1.391 . S
C319 H349 0.948 . S
C320 C319 1.391 1_455 S
C320 C321 1.391 . S
C321 C320 1.391 . S
C321 C322 1.392 . S
C321 H350 0.947 . S
C322 C321 1.392 . S
C322 C323 1.419 . S
C322 H351 0.948 . S
C323 C322 1.419 . S
C323 C324 1.391 1_455 S
C323 C327 1.397 . S
C324 C319 1.391 . S
C324 C323 1.391 1_655 S
C324 C325 1.399 . S
C325 C324 1.399 . S
C325 C326 1.396 . S
C325 C328 1.453 . S
C325 C329 1.684 . S
C326 C307 1.723 . S
C326 C325 1.396 . S
C326 C327 1.394 1_655 S
C327 C323 1.397 . S
C327 C326 1.394 1_455 S
C327 C337 1.723 . S
C328 C325 1.453 . S
C328 H352 0.982 . S
C328 H353 0.979 . S
C328 H354 0.977 . S
C329 C325 1.684 . S
C329 H355 0.979 . S
C329 H356 0.980 . S
C329 H357 0.983 . S
C330 H306 0.948 . S
C330 C331 1.391 . S
C330 C335 1.391 . S
C331 C330 1.391 . S
C331 C332 1.391 . S
C332 H309 0.947 . S
C332 C331 1.391 . S
C332 C333 1.392 . S
C333 H310 0.948 . S
C333 C332 1.392 . S
C333 C334 1.419 . S
C334 C333 1.419 . S
C334 C335 1.391 . S
C334 C338 1.397 . S
C335 C330 1.391 . S
C335 C334 1.391 . S
C335 C336 1.399 . S
C336 C335 1.399 . S
C336 C337 1.396 . S
C336 C339 1.453 . S
C336 C340 1.684 . S
C337 C327 1.723 . S
C337 C336 1.396 . S
C337 C338 1.394 . S
C338 C308 1.723 1_455 S
C338 C334 1.397 . S
C338 C337 1.394 . S
C339 H311 0.982 . S
C339 H315 0.979 . S
C339 H316 0.977 . S
C339 C336 1.453 . S
C340 H312 0.979 . S
C340 H313 0.980 . S
C340 H314 0.983 . S
C340 C336 1.684 . S
H341 C359 0.948 . S
H342 C300 0.948 . S
H343 C318 0.979 . S
H344 C318 0.980 . S
H345 C318 0.983 . S
H346 C317 0.982 1_455 S
H347 C317 0.979 . S
H348 C317 0.977 1_455 S
H349 C319 0.948 . S
H350 C321 0.947 . S
H351 C322 0.948 . S
H352 C328 0.982 . S
H353 C328 0.979 . S
H354 C328 0.977 . S
H355 C329 0.979 . S
H356 C329 0.980 . S
H357 C329 0.983 . S
H358 C302 0.947 . S
C359 C302 1.392 . S
C359 C303 1.419 . S
C359 H341 0.948 . S
C360 C361 1.391 . S
C360 C364 1.391 . S
C360 H402 0.948 . S
C361 C360 1.391 . S
C361 C362 1.391 . S
C362 C361 1.391 . S
C362 H418 0.947 . S
C362 C419 1.392 . S
C363 C364 1.391 . S
C363 C367 1.397 . S
C363 C419 1.419 . S
C364 C360 1.391 . S
C364 C363 1.391 . S
C364 C365 1.399 . S
C365 C364 1.399 . S
C365 C368 1.396 . S
C365 C377 1.453 1_565 S
C365 C378 1.684 . S
H366 C390 0.948 . S
C367 C363 1.397 . S
C367 C368 1.394 . S
C367 C386 1.723 . S
C368 C365 1.396 . S
C368 C367 1.394 . S
C368 C398 1.723 1_565 S
H369 C392 0.947 . S
H370 C393 0.948 . S
H371 C399 0.982 . S
H372 C400 0.979 . S
H373 C400 0.980 . S
H374 C400 0.983 . S
H375 C399 0.979 . S
H376 C399 0.977 . S
C377 C365 1.453 1_545 S
C377 H406 0.982 . S
C377 H407 0.979 1_545 S
C377 H408 0.977 . S
C378 C365 1.684 . S
C378 H403 0.979 . S
C378 H404 0.980 . S
C378 H405 0.983 . S
C379 C380 1.391 . S
C379 C384 1.391 . S
C379 H409 0.948 . S
C380 C379 1.391 . S
C380 C381 1.391 1_565 S
C381 C380 1.391 1_545 S
C381 C382 1.392 . S
C381 H410 0.947 . S
C382 C381 1.392 . S
C382 C383 1.419 . S
C382 H411 0.948 . S
C383 C382 1.419 . S
C383 C384 1.391 1_545 S
C383 C387 1.397 . S
C384 C379 1.391 . S
C384 C383 1.391 1_565 S
C384 C385 1.399 . S
C385 C384 1.399 . S
C385 C386 1.396 . S
C385 C388 1.453 . S
C385 C389 1.684 . S
C386 C367 1.723 . S
C386 C385 1.396 . S
C386 C387 1.394 1_565 S
C387 C383 1.397 . S
C387 C386 1.394 1_545 S
C387 C397 1.723 . S
C388 C385 1.453 . S
C388 H412 0.982 . S
C388 H413 0.979 . S
C388 H414 0.977 . S
C389 C385 1.684 . S
C389 H415 0.979 . S
C389 H416 0.980 . S
C389 H417 0.983 . S
C390 H366 0.948 . S
C390 C391 1.391 . S
C390 C395 1.391 . S
C391 C390 1.391 . S
C391 C392 1.391 . S
C392 H369 0.947 . S
C392 C391 1.391 . S
C392 C393 1.392 . S
C393 H370 0.948 . S
C393 C392 1.392 . S
C393 C394 1.419 . S
C394 C393 1.419 . S
C394 C395 1.391 . S
C394 C398 1.397 . S
C395 C390 1.391 . S
C395 C394 1.391 . S
C395 C396 1.399 . S
C396 C395 1.399 . S
C396 C397 1.396 . S
C396 C399 1.453 . S
C396 C400 1.684 . S
C397 C387 1.723 . S
C397 C396 1.396 . S
C397 C398 1.394 . S
C398 C368 1.723 1_545 S
C398 C394 1.397 . S
C398 C397 1.394 . S
C399 H371 0.982 . S
C399 H375 0.979 . S
C399 H376 0.977 . S
C399 C396 1.453 . S
C400 H372 0.979 . S
C400 H373 0.980 . S
C400 H374 0.983 . S
C400 C396 1.684 . S
H401 C419 0.948 . S
H402 C360 0.948 . S
H403 C378 0.979 . S
H404 C378 0.980 . S
H405 C378 0.983 . S
H406 C377 0.982 . S
H407 C377 0.979 1_565 S
H408 C377 0.977 . S
H409 C379 0.948 . S
H410 C381 0.947 . S
H411 C382 0.948 . S
H412 C388 0.982 . S
H413 C388 0.979 . S
H414 C388 0.977 . S
H415 C389 0.979 . S
H416 C389 0.980 . S
H417 C389 0.983 . S
H418 C362 0.947 . S
C419 C362 1.392 . S
C419 C363 1.419 . S
C419 H401 0.948 . S
C420 C421 1.391 . S
C420 C424 1.391 . S
C420 H462 0.948 . S
C421 C420 1.391 . S
C421 C422 1.391 . S
C422 C421 1.391 . S
C422 H478 0.947 . S
C422 C479 1.392 . S
C423 C424 1.391 . S
C423 C427 1.397 . S
C423 C479 1.419 . S
C424 C420 1.391 . S
C424 C423 1.391 . S
C424 C425 1.399 . S
C425 C424 1.399 . S
C425 C428 1.396 . S
C425 C437 1.453 . S
C425 C438 1.684 . S
H426 C450 0.948 . S
C427 C423 1.397 . S
C427 C428 1.394 . S
C427 C446 1.723 . S
C428 C425 1.396 . S
C428 C427 1.394 . S
C428 C458 1.723 . S
H429 C452 0.947 . S
H430 C453 0.948 . S
H431 C459 0.982 . S
H432 C460 0.979 . S
H433 C460 0.980 1_556 S
H434 C460 0.983 . S
H435 C459 0.979 . S
H436 C459 0.977 . S
C437 C425 1.453 . S
C437 H466 0.982 . S
C437 H467 0.979 . S
C437 H468 0.977 . S
C438 C425 1.684 . S
C438 H463 0.979 . S
C438 H464 0.980 . S
C438 H465 0.983 . S
C439 C440 1.391 . S
C439 C444 1.391 . S
C439 H469 0.948 . S
C440 C439 1.391 . S
C440 C441 1.391 . S
C441 C440 1.391 . S
C441 C442 1.392 . S
C441 H470 0.947 . S
C442 C441 1.392 . S
C442 C443 1.419 . S
C442 H471 0.948 . S
C443 C442 1.419 . S
C443 C444 1.391 . S
C443 C447 1.397 1_556 S
C444 C439 1.391 . S
C444 C443 1.391 . S
C444 C445 1.399 . S
C445 C444 1.399 . S
C445 C446 1.396 1_556 S
C445 C448 1.453 1_556 S
C445 C449 1.684 . S
C446 C427 1.723 . S
C446 C445 1.396 1_554 S
C446 C447 1.394 . S
C447 C443 1.397 1_554 S
C447 C446 1.394 . S
C447 C457 1.723 . S
C448 C445 1.453 1_554 S
C448 H472 0.982 . S
C448 H473 0.979 1_554 S
C448 H474 0.977 . S
C449 C445 1.684 . S
C449 H475 0.979 . S
C449 H476 0.980 1_556 S
C449 H477 0.983 . S
C450 H426 0.948 . S
C450 C451 1.391 . S
C450 C455 1.391 . S
C451 C450 1.391 . S
C451 C452 1.391 . S
C452 H429 0.947 . S
C452 C451 1.391 . S
C452 C453 1.392 . S
C453 H430 0.948 . S
C453 C452 1.392 . S
C453 C454 1.419 . S
C454 C453 1.419 . S
C454 C455 1.391 . S
C454 C458 1.397 . S
C455 C450 1.391 . S
C455 C454 1.391 . S
C455 C456 1.399 . S
C456 C455 1.399 . S
C456 C457 1.396 . S
C456 C459 1.453 . S
C456 C460 1.684 . S
C457 C447 1.723 . S
C457 C456 1.396 . S
C457 C458 1.394 . S
C458 C428 1.723 . S
C458 C454 1.397 . S
C458 C457 1.394 . S
C459 H431 0.982 . S
C459 H435 0.979 . S
C459 H436 0.977 . S
C459 C456 1.453 . S
C460 H432 0.979 . S
C460 H433 0.980 1_554 S
C460 H434 0.983 . S
C460 C456 1.684 . S
H461 C479 0.948 . S
H462 C420 0.948 . S
H463 C438 0.979 . S
H464 C438 0.980 . S
H465 C438 0.983 . S
H466 C437 0.982 . S
H467 C437 0.979 . S
H468 C437 0.977 . S
H469 C439 0.948 . S
H470 C441 0.947 . S
H471 C442 0.948 . S
H472 C448 0.982 . S
H473 C448 0.979 1_556 S
H474 C448 0.977 . S
H475 C449 0.979 . S
H476 C449 0.980 1_554 S
H477 C449 0.983 . S
H478 C422 0.947 . S
C479 C422 1.392 . S
C479 C423 1.419 . S
C479 H461 0.948 . S
C25 C451 2.260 . S
C65 C301 2.712 . S
C105 C361 3.065 . S
C4 C421 2.982 . S
C331 C44 1.833 . S
C391 C84 2.074 . S
C60 C181 4.573 . S
C100 C271 5.125 . S
C31 C151 5.183 . S
C211 C71 5.183 . S
C241 C111 4.653 . S
C20 C121 4.591 . S
C260 C2 2.052 . S
C42 C140 2.051 . S
C82 C200 2.033 . S
C380 C63 1.687 1_565 S
C440 C103 2.015 . S
C23 C320 1.361 . S
