# Generated by pormake.
# Topology tsx, (6,3)-cn, num edge types: 1
# Building blocks:
#     Node 0, Type 0, BuildingBlock: CIFDUS_clean_sbu_1, # of connection points: 6
#     Node 1, Type 0, BuildingBlock: CIFDUS_clean_sbu_1, # of connection points: 6
#     Node 2, Type 1, BuildingBlock: ESEHIV_clean_linker_0, # of connection points: 3
#     Node 3, Type 1, BuildingBlock: ESEHIV_clean_linker_0, # of connection points: 3
#     Node 4, Type 1, BuildingBlock: ESEHIV_clean_linker_0, # of connection points: 3
#     Node 5, Type 1, BuildingBlock: ESEHIV_clean_linker_0, # of connection points: 3
#     Edge 6, Type (0, 1), BuildingBlock: FUNLAD_clean_linker_1, # of connection points: 2
#     Edge 7, Type (0, 1), BuildingBlock: FUNLAD_clean_linker_1, # of connection points: 2
#     Edge 8, Type (0, 1), BuildingBlock: FUNLAD_clean_linker_1, # of connection points: 2
#     Edge 9, Type (0, 1), BuildingBlock: FUNLAD_clean_linker_1, # of connection points: 2
#     Edge 10, Type (0, 1), BuildingBlock: FUNLAD_clean_linker_1, # of connection points: 2
#     Edge 11, Type (0, 1), BuildingBlock: FUNLAD_clean_linker_1, # of connection points: 2
#     Edge 12, Type (0, 1), BuildingBlock: FUNLAD_clean_linker_1, # of connection points: 2
#     Edge 13, Type (0, 1), BuildingBlock: FUNLAD_clean_linker_1, # of connection points: 2
#     Edge 14, Type (0, 1), BuildingBlock: FUNLAD_clean_linker_1, # of connection points: 2
#     Edge 15, Type (0, 1), BuildingBlock: FUNLAD_clean_linker_1, # of connection points: 2
#     Edge 16, Type (0, 1), BuildingBlock: FUNLAD_clean_linker_1, # of connection points: 2
#     Edge 17, Type (0, 1), BuildingBlock: FUNLAD_clean_linker_1, # of connection points: 2
# Relax obj value: 0.128
# Max RMSD: 0.156
# Mean RMSD: 0.118
data_MOF--net-tsx--node1-CIFDUS_clean_sbu_1--node2-ESEHIV_clean_linker_0--edge1-FUNLAD_clean_linker_1
_symmetry_space_group_name_H-M    P1
_symmetry_Int_Tables_number       1
_symmetry_cell_setting            triclinic
loop_
_symmetry_equiv_pos_as_xyz
'x, y, z'
_cell_length_a     17.608574
_cell_length_b     21.606079
_cell_length_c     36.186894
_cell_angle_alpha  97.03531
_cell_angle_beta   92.040357
_cell_angle_gamma 91.250618
loop_
_atom_site_label
_atom_site_type_symbol
_atom_site_fract_x
_atom_site_fract_y
_atom_site_fract_z
_atom_type_partial_charge
O0 O 1.00728 0.13213 0.01527 0.0
Mn1 Mn 0.06168 0.0453 0.00913 0.0
O2 O 0.88507 0.11223 0.99584 0.0
Mn3 Mn 0.89738 0.03147 0.97411 0.0
O4 O 0.11332 0.95791 1.00146 0.0
O5 O 0.16329 0.09185 0.01466 0.0
Mn6 Mn 0.22602 0.05071 0.04143 0.0
O7 O 0.06085 0.04253 0.06704 0.0
O8 O 0.23775 0.97267 0.01593 0.0
O9 O 0.06312 0.04633 0.951 0.0
O10 O 0.94311 0.02361 0.92865 0.0
O11 O 0.28094 0.11867 0.03044 0.0
O12 O 0.18351 0.05209 0.08764 0.0
C13 C 0.91047 0.95689 0.00784 0.0
C14 C 0.93855 0.14966 0.00977 0.0
C15 C 0.18137 0.93782 0.00315 0.0
C16 C 0.21779 0.13314 0.01451 0.0
C17 C 0.11281 0.04623 0.09329 0.0
C18 C 0.01337 0.03402 0.9239 0.0
O19 O 0.96142 0.99907 0.0041 0.0
O20 O 0.84709 0.96394 0.98976 0.0
O21 O 0.44922 0.63335 0.51203 0.0
Mn22 Mn 0.51365 0.55155 0.50578 0.0
O23 O 0.33933 0.60947 0.4785 0.0
Mn24 Mn 0.36857 0.53502 0.45302 0.0
O25 O 0.57566 0.46932 0.49732 0.0
O26 O 0.6078 0.60401 0.52633 0.0
Mn27 Mn 0.65356 0.55731 0.55731 0.0
O28 O 0.48453 0.53218 0.55905 0.0
O29 O 0.68529 0.48484 0.53068 0.0
O30 O 0.54037 0.56856 0.45191 0.0
O31 O 0.43529 0.542 0.41533 0.0
O32 O 0.71328 0.62714 0.56014 0.0
O33 O 0.59041 0.54613 0.59555 0.0
C34 C 0.37223 0.45487 0.48296 0.0
C35 C 0.38199 0.64683 0.50051 0.0
C36 C 0.64153 0.45142 0.50725 0.0
C37 C 0.66396 0.64391 0.53605 0.0
C38 C 0.51985 0.53254 0.59073 0.0
C39 C 0.50505 0.55971 0.41985 0.0
O40 O 0.42177 0.50007 0.48615 0.0
O41 O 0.31802 0.46078 0.45865 0.0
H42 H 0.92505 0.07966 0.37314 0.0
H43 H 0.1084 0.95173 0.36923 0.0
H44 H 0.05851 0.06136 0.47285 0.0
C45 C 0.96927 0.05682 0.38757 0.0
C46 C 0.98454 0.07424 0.42584 0.0
C47 C 0.01405 0.0136 0.36677 0.0
C48 C 0.07363 0.98532 0.38504 0.0
C49 C 0.08921 1.00166 0.42364 0.0
C50 C 0.04557 0.04732 0.44345 0.0
H51 H 1.00875 0.96695 0.64506 0.0
H52 H 0.1751 0.11344 0.64036 0.0
H53 H 0.03625 0.04628 0.5427 0.0
C54 C 0.03621 1.00062 0.62974 0.0
C55 C 0.01391 0.00261 0.59217 0.0
C56 C 0.094 0.04093 0.64734 0.0
C57 C 0.13161 0.08172 0.62649 0.0
C58 C 0.11151 0.08385 0.5887 0.0
C59 C 0.05148 0.04497 0.57185 0.0
H60 H 0.44009 0.56685 0.87187 0.0
H61 H 0.59616 0.41664 0.8616 0.0
H62 H 0.55425 0.51521 0.96976 0.0
C63 C 0.47827 0.53653 0.88491 0.0
C64 C 0.49097 0.54495 0.92364 0.0
C65 C 0.51512 0.49016 0.86257 0.0
C66 C 0.56642 0.45186 0.87906 0.0
C67 C 0.58319 0.46183 0.91774 0.0
C68 C 0.54457 0.50841 0.93991 0.0
H69 H 0.45866 0.5043 0.1233 0.0
H70 H 0.65197 0.62997 0.14166 0.0
H71 H 0.58108 0.55466 0.03012 0.0
C72 C 0.50424 0.53034 0.11233 0.0
C73 C 0.51276 0.5259 0.07362 0.0
C74 C 0.55611 0.56572 0.1371 0.0
C75 C 0.61543 0.59885 0.12281 0.0
C76 C 0.6255 0.59462 0.08427 0.0
C77 C 0.57378 0.55799 0.05981 0.0
H78 H 0.15193 0.21637 0.00397 0.0
C79 C 0.20836 0.19712 0.00469 0.0
H80 H 0.32673 0.21367 0.00503 0.0
H81 H 0.39034 0.4811 0.97903 0.0
H82 H 0.39096 0.43568 0.91395 0.0
H83 H 0.33875 0.32964 0.89426 0.0
H84 H 0.28323 0.26846 0.93928 0.0
C85 C 0.27101 0.23444 0.00542 0.0
C86 C 0.27293 0.30379 0.01351 0.0
C87 C 0.30517 0.33908 0.98727 0.0
C88 C 0.33717 0.39973 0.99887 0.0
C89 C 0.36765 0.4341 0.97178 0.0
C90 C 0.36798 0.40878 0.93444 0.0
C91 C 0.33833 0.34899 0.92329 0.0
C92 C 0.30717 0.3143 0.94931 0.0
H93 H 0.48901 0.44709 0.02941 0.0
C94 C 0.46236 0.48247 0.04827 0.0
H95 H 0.36105 0.51757 0.07004 0.0
H96 H 0.20152 0.2544 0.07008 0.0
H97 H 0.1935 0.30159 0.13364 0.0
H98 H 0.25089 0.40569 0.15422 0.0
H99 H 0.31658 0.46284 0.11135 0.0
C100 C 0.38636 0.48091 0.05162 0.0
C101 C 0.33842 0.42448 0.03706 0.0
C102 C 0.29771 0.3924 0.0625 0.0
C103 C 0.26476 0.33204 0.05067 0.0
C104 C 0.2277 0.30004 0.07715 0.0
C105 C 0.22247 0.32672 0.11394 0.0
C106 C 0.25469 0.38532 0.1255 0.0
C107 C 0.29226 0.41778 0.10035 0.0
H108 H 0.14855 0.84196 0.97732 0.0
C109 C 0.19538 0.87164 0.99007 0.0
H110 H 0.31167 0.8771 0.00718 0.0
H111 H 0.37943 0.59689 0.01145 0.0
H112 H 0.37697 0.63313 0.07757 0.0
H113 H 0.33 0.73733 0.0996 0.0
H114 H 0.28571 0.80622 0.05568 0.0
C115 C 0.26533 0.84824 0.9932 0.0
C116 C 0.28347 0.78265 0.97962 0.0
C117 C 0.3088 0.74271 0.00561 0.0
C118 C 0.33664 0.68283 0.99291 0.0
C119 C 0.36003 0.64354 0.01955 0.0
C120 C 0.35815 0.66348 0.05759 0.0
C121 C 0.33175 0.7222 0.07001 0.0
C122 C 0.30689 0.76141 0.04448 0.0
H123 H 0.48393 0.62629 0.96688 0.0
C124 C 0.45088 0.59461 0.94646 0.0
H125 H 0.34386 0.5709 0.92018 0.0
H126 H 0.24192 0.84832 0.92196 0.0
H127 H 0.24438 0.81227 0.85619 0.0
H128 H 0.28889 0.70727 0.83408 0.0
H129 H 0.33248 0.63843 0.87766 0.0
C130 C 0.37641 0.60386 0.94009 0.0
C131 C 0.34011 0.66335 0.95416 0.0
C132 C 0.3115 0.70214 0.92813 0.0
C133 C 0.28413 0.76221 0.94085 0.0
C134 C 0.26089 0.80151 0.91414 0.0
C135 C 0.2624 0.78154 0.87612 0.0
C136 C 0.28764 0.72254 0.86368 0.0
C137 C 0.31239 0.68332 0.88918 0.0
H138 H 0.97167 0.90162 0.04724 0.0
C139 C 0.92133 0.90356 0.02922 0.0
H140 H 0.81859 0.85991 0.00698 0.0
H141 H 0.81583 0.59024 0.03077 0.0
H142 H 0.87155 0.57833 0.96978 0.0
H143 H 0.9264 0.66945 0.9441 0.0
H144 H 0.92595 0.77312 0.97939 0.0
C145 C 0.86691 0.8583 0.02637 0.0
C146 C 0.86651 0.80354 0.0474 0.0
C147 C 0.86846 0.74341 0.02698 0.0
C148 C 0.83641 0.69112 0.04162 0.0
C149 C 0.83823 0.63164 0.02045 0.0
C150 C 0.87039 0.62419 0.98559 0.0
C151 C 0.90127 0.6755 0.97113 0.0
C152 C 0.90034 0.73462 0.99145 0.0
H153 H 0.67473 0.64872 0.04242 0.0
C154 C 0.68617 0.6322 0.06923 0.0
H155 H 0.76556 0.63231 0.11462 0.0
H156 H 0.86903 0.91009 0.09698 0.0
H157 H 0.82351 0.92043 0.15982 0.0
H158 H 0.76891 0.82955 0.18568 0.0
H159 H 0.75892 0.72801 0.14872 0.0
C160 C 0.752 0.6496 0.08831 0.0
C161 C 0.80235 0.69937 0.07665 0.0
C162 C 0.8105 0.75775 0.09935 0.0
C163 C 0.84234 0.81015 0.08456 0.0
C164 C 0.84561 0.8688 0.10685 0.0
C165 C 0.8197 0.87535 0.14301 0.0
C166 C 0.78909 0.82416 0.15758 0.0
C167 C 0.78384 0.76605 0.13606 0.0
H168 H 0.96695 0.25154 0.02094 0.0
C169 C 0.92084 0.21707 0.0153 0.0
H170 H 0.80318 0.20067 0.00359 0.0
H171 H 0.63755 0.44192 0.03157 0.0
H172 H 0.61889 0.40528 0.09144 0.0
H173 H 0.69617 0.32059 0.11164 0.0
H174 H 0.79268 0.27218 0.07188 0.0
C175 C 0.8494 0.23524 0.00806 0.0
C176 C 0.82707 0.29989 0.00293 0.0
C177 C 0.77292 0.32927 0.02679 0.0
C178 C 0.72908 0.37862 0.01536 0.0
C179 C 0.67304 0.40497 0.03913 0.0
C180 C 0.66168 0.38422 0.07353 0.0
C181 C 0.70511 0.3365 0.08487 0.0
C182 C 0.75995 0.30897 0.0618 0.0
H183 H 0.64982 0.37651 0.91911 0.0
C184 C 0.64071 0.42244 0.93401 0.0
H185 H 0.67789 0.48752 0.9801 0.0
H186 H 0.93324 0.25997 0.95197 0.0
H187 H 0.96012 0.30405 0.8954 0.0
H188 H 0.88971 0.39421 0.87787 0.0
H189 H 0.79046 0.4398 0.91662 0.0
C190 C 0.68424 0.4415 0.96493 0.0
C191 C 0.7399 0.39884 0.98008 0.0
C192 C 0.80081 0.37509 0.95843 0.0
C193 C 0.84355 0.32471 0.96943 0.0
C194 C 0.90008 0.29902 0.94568 0.0
C195 C 0.91619 0.32396 0.91301 0.0
C196 C 0.87644 0.37463 0.90308 0.0
C197 C 0.81933 0.40006 0.92541 0.0
H198 H 0.6427 0.71524 0.49696 0.0
C199 C 0.67539 0.70457 0.52129 0.0
H200 H 0.76245 0.73229 0.56196 0.0
H201 H 0.99203 0.89184 0.49961 0.0
H202 H 0.03908 0.79254 0.47129 0.0
H203 H 0.958 0.69682 0.46607 0.0
H204 H 0.82934 0.70001 0.48904 0.0
C205 C 0.7307 0.74423 0.53762 0.0
C206 C 0.76054 0.80157 0.52358 0.0
C207 C 0.83407 0.79963 0.50888 0.0
C208 C 0.88106 0.85453 0.51221 0.0
C209 C 0.95504 0.85094 0.49829 0.0
C210 C 0.98229 0.79446 0.48183 0.0
C211 C 0.93661 0.74058 0.47888 0.0
C212 C 0.86328 0.74287 0.49226 0.0
H213 H 0.94781 0.914 0.58813 0.0
C214 C 0.95539 0.95609 0.57478 0.0
H215 H 0.91179 0.00498 0.53142 0.0
H216 H 0.61674 0.8237 0.54564 0.0
H217 H 0.56682 0.92456 0.56984 0.0
H218 H 0.64823 0.02008 0.57552 0.0
H219 H 0.78012 0.01548 0.5572 0.0
C220 C 0.91017 0.9626 0.54471 0.0
C221 C 0.85452 0.91123 0.53041 0.0
C222 C 0.77723 0.91511 0.53984 0.0
C223 C 0.73016 0.86002 0.53648 0.0
C224 C 0.65437 0.86439 0.54783 0.0
C225 C 0.62526 0.92182 0.56158 0.0
C226 C 0.67113 0.97565 0.56477 0.0
C227 C 0.74651 0.97252 0.55426 0.0
H228 H 0.63136 0.36195 0.46997 0.0
C229 C 0.66786 0.38993 0.49076 0.0
H230 H 0.77217 0.39553 0.52195 0.0
H231 H 0.84808 0.11211 0.50511 0.0
H232 H 0.81525 0.12931 0.57005 0.0
H233 H 0.75801 0.22764 0.59598 0.0
H234 H 0.73378 0.30966 0.55725 0.0
C235 C 0.73636 0.36879 0.50034 0.0
C236 C 0.76541 0.30785 0.4836 0.0
C237 C 0.77926 0.26028 0.50662 0.0
C238 C 0.81251 0.20359 0.49171 0.0
C239 C 0.82439 0.15652 0.51517 0.0
C240 C 0.80528 0.16558 0.55243 0.0
C241 C 0.77313 0.22099 0.56705 0.0
C242 C 0.75983 0.26782 0.54453 0.0
H243 H 0.97088 0.15359 0.46992 0.0
C244 C 0.94142 0.12442 0.44697 0.0
H245 H 0.83773 0.10734 0.4156 0.0
H246 H 0.75321 0.39142 0.43232 0.0
H247 H 0.78641 0.37421 0.3677 0.0
H248 H 0.83996 0.27459 0.34134 0.0
H249 H 0.8616 0.19197 0.37975 0.0
C250 C 0.8689 0.13657 0.43786 0.0
C251 C 0.8323 0.19475 0.45384 0.0
C252 C 0.81744 0.24187 0.43065 0.0
C253 C 0.78495 0.29883 0.44563 0.0
C254 C 0.77511 0.34639 0.42228 0.0
C255 C 0.79448 0.33733 0.38507 0.0
C256 C 0.82477 0.28131 0.37026 0.0
C257 C 0.83664 0.23415 0.39266 0.0
H258 H 0.42337 0.39407 0.52217 0.0
C259 C 0.37318 0.40191 0.5052 0.0
H260 H 0.2619 0.37251 0.48666 0.0
H261 H 0.23593 0.09649 0.50682 0.0
H262 H 0.24892 0.0894 0.43983 0.0
H263 H 0.28842 0.1814 0.41049 0.0
H264 H 0.31604 0.28098 0.44788 0.0
C265 C 0.31097 0.36417 0.50431 0.0
C266 C 0.30515 0.30706 0.52337 0.0
C267 C 0.28958 0.24896 0.50123 0.0
C268 C 0.26576 0.19607 0.51807 0.0
C269 C 0.25188 0.13854 0.49528 0.0
C270 C 0.25969 0.13369 0.45686 0.0
C271 C 0.28205 0.1855 0.44033 0.0
C272 C 0.29722 0.24248 0.4621 0.0
H273 H 0.11765 0.1471 0.54498 0.0
C274 C 0.15023 0.12893 0.56718 0.0
H275 H 0.25724 0.12994 0.5959 0.0
H276 H 0.33489 0.41025 0.57467 0.0
H277 H 0.32892 0.41541 0.64168 0.0
H278 H 0.29056 0.32303 0.67093 0.0
H279 H 0.25703 0.22504 0.6333 0.0
C280 C 0.22298 0.1489 0.57465 0.0
C281 C 0.2568 0.20146 0.55707 0.0
C282 C 0.27858 0.25804 0.5796 0.0
C283 C 0.30201 0.3112 0.56273 0.0
C284 C 0.31883 0.36799 0.58584 0.0
C285 C 0.31526 0.37175 0.62444 0.0
C286 C 0.29355 0.31974 0.64092 0.0
C287 C 0.27469 0.26364 0.61893 0.0
H288 H 0.28964 0.71108 0.51004 0.0
C289 C 0.35133 0.7095 0.50949 0.0
H290 H 0.45094 0.75917 0.50006 0.0
H291 H 0.27096 0.90574 0.38548 0.0
H292 H 0.37812 0.86473 0.35089 0.0
H293 H 0.47199 0.8 0.37937 0.0
H294 H 0.45987 0.77628 0.44237 0.0
C295 C 0.39 0.76138 0.50341 0.0
C296 C 0.34674 0.81403 0.49003 0.0
C297 C 0.35542 0.82804 0.45304 0.0
C298 C 0.30047 0.8645 0.43631 0.0
C299 C 0.31019 0.87736 0.39928 0.0
C300 C 0.37158 0.85432 0.37914 0.0
C301 C 0.42443 0.81791 0.39517 0.0
C302 C 0.41663 0.80459 0.43155 0.0
H303 H 0.17972 1.00188 0.4679 0.0
C304 C 0.15225 0.97375 0.444 0.0
H305 H 0.14529 0.88494 0.41245 0.0
H306 H 0.32636 0.81129 0.56399 0.0
H307 H 0.21977 0.85301 0.59925 0.0
H308 H 0.11834 0.90796 0.56904 0.0
H309 H 0.12375 0.92406 0.50419 0.0
C310 C 0.17286 0.91421 0.43586 0.0
C311 C 0.23657 0.88655 0.4563 0.0
C312 C 0.23146 0.87706 0.49434 0.0
C313 C 0.28788 0.84232 0.51138 0.0
C314 C 0.28319 0.83522 0.54958 0.0
C315 C 0.22276 0.8592 0.5701 0.0
C316 C 0.1658 0.89048 0.55312 0.0
C317 C 0.16977 0.89947 0.51575 0.0
H318 H 0.13788 0.05774 0.15345 0.0
C319 C 0.09316 0.04358 0.13237 0.0
H320 H 0.98327 1.00192 0.12288 0.0
H321 H 0.03047 0.87687 0.27335 0.0
H322 H 0.01467 0.78612 0.22657 0.0
H323 H 1.00188 0.79831 0.15972 0.0
H324 H 1.0047 0.9011 0.13917 0.0
C325 C 0.02739 0.02033 0.14328 0.0
C326 C 0.01937 0.01294 0.18354 0.0
C327 C 0.01796 0.95254 0.19509 0.0
C328 C 0.02613 0.94547 0.23368 0.0
C329 C 0.02493 0.88467 0.24441 0.0
C330 C 0.01591 0.83231 0.21787 0.0
C331 C 1.00876 0.83916 0.18022 0.0
C332 C 1.01036 0.89843 0.16878 0.0
H333 H 0.9413 0.0128 0.31558 0.0
C334 C 0.99797 0.00254 0.32578 0.0
H335 H 0.11028 0.98399 0.30945 0.0
H336 H 1.0064 0.13462 0.17147 0.0
H337 H 0.01812 0.22556 0.21815 0.0
H338 H 0.04035 0.21382 0.2846 0.0
H339 H 0.04994 0.11143 0.30487 0.0
C340 C 0.05201 0.99162 0.30066 0.0
C341 C 0.03599 0.99874 0.26061 0.0
C342 C 0.03263 0.05925 0.24919 0.0
C343 C 0.02264 0.06622 0.21073 0.0
C344 C 0.01666 0.12696 0.20021 0.0
C345 C 0.02274 0.17947 0.22672 0.0
C346 C 0.03505 0.17284 0.26413 0.0
C347 C 0.04015 0.11363 0.2754 0.0
H348 H 0.99016 0.01643 0.86377 0.0
C349 C 0.03514 0.03038 0.88476 0.0
H350 H 0.15083 0.0598 0.8929 0.0
H351 H 0.08934 0.91135 0.71969 0.0
H352 H 0.10097 0.81773 0.75024 0.0
H353 H 0.12064 0.82479 0.81849 0.0
H354 H 0.12942 0.92574 0.85668 0.0
C355 C 0.10456 0.04349 0.87322 0.0
C356 C 0.11533 0.03964 0.83231 0.0
C357 C 0.11263 0.98066 0.81028 0.0
C358 C 0.10142 0.97666 0.77094 0.0
C359 C 0.09731 0.91701 0.74972 0.0
C360 C 0.10414 0.86296 0.76689 0.0
C361 C 0.11527 0.86693 0.80533 0.0
C362 C 0.11966 0.92499 0.82692 0.0
H363 H 0.17386 0.06013 0.69646 0.0
C364 C 0.11726 0.04193 0.6874 0.0
H365 H 1.01249 0.00942 0.70566 0.0
H366 H 0.1315 0.15933 0.86605 0.0
H367 H 0.12313 0.25357 0.83581 0.0
H368 H 0.10009 0.24732 0.76778 0.0
H369 H 0.08563 0.14727 0.72956 0.0
C370 C 0.06993 0.02662 0.71338 0.0
C371 C 0.09371 0.03171 0.75363 0.0
C372 C 0.10244 0.09095 0.77545 0.0
C373 C 0.11431 0.09474 0.81482 0.0
C374 C 0.12173 0.15415 0.83611 0.0
C375 C 0.11717 0.20848 0.81912 0.0
C376 C 0.10433 0.20494 0.7808 0.0
C377 C 0.09655 0.14706 0.75912 0.0
H378 H 0.42204 0.4918 0.61755 0.0
C379 C 0.47965 0.51079 0.62221 0.0
H380 H 0.5752 0.52638 0.65925 0.0
H381 H 0.35571 0.49386 0.7949 0.0
H382 H 0.27477 0.57391 0.77418 0.0
H383 H 0.29194 0.611 0.71307 0.0
H384 H 0.38873 0.56761 0.67207 0.0
C385 C 0.51663 0.50922 0.65529 0.0
C386 C 0.48791 0.47639 0.68595 0.0
C387 C 0.43126 0.50273 0.70935 0.0
C388 C 0.42334 0.48316 0.74517 0.0
C389 C 0.36553 0.50896 0.76799 0.0
C390 C 0.31858 0.55448 0.75632 0.0
C391 C 0.32818 0.57527 0.72188 0.0
C392 C 0.38398 0.55 0.69859 0.0
H393 H 0.50783 0.53259 0.81063 0.0
C394 C 0.50475 0.48814 0.82183 0.0
H395 H 0.48119 0.39148 0.80952 0.0
H396 H 0.58526 0.40452 0.64341 0.0
H397 H 0.66081 0.32038 0.66291 0.0
H398 H 0.65166 0.29016 0.72625 0.0
H399 H 0.56655 0.34325 0.7703 0.0
C400 C 0.48571 0.43615 0.79879 0.0
C401 C 0.47456 0.43987 0.75802 0.0
C402 C 0.52322 0.40724 0.7326 0.0
C403 C 0.52944 0.42535 0.69636 0.0
C404 C 0.57961 0.39311 0.67152 0.0
C405 C 0.62289 0.34469 0.6823 0.0
C406 C 0.61767 0.32763 0.71796 0.0
C407 C 0.56872 0.35855 0.743 0.0
H408 H 0.60563 0.58607 0.38918 0.0
C409 C 0.54636 0.57053 0.3863 0.0
H410 H 0.45123 0.54735 0.34945 0.0
H411 H 0.53721 0.68628 0.2168 0.0
H412 H 0.45619 0.76342 0.24868 0.0
H413 H 0.41636 0.75437 0.31249 0.0
H414 H 0.45855 0.66874 0.34515 0.0
C415 C 0.51105 0.5612 0.35241 0.0
C416 C 0.54783 0.573 0.31768 0.0
C417 C 0.52327 0.62358 0.29923 0.0
C418 C 0.54503 0.62818 0.26225 0.0
C419 C 0.52059 0.67965 0.24458 0.0
C420 C 0.47454 0.72449 0.26265 0.0
C421 C 0.45225 0.71946 0.29862 0.0
C422 C 0.47643 0.66988 0.31692 0.0
H423 H 0.48984 0.55761 0.1872 0.0
C424 C 0.5461 0.56832 0.1778 0.0
H425 H 0.66166 0.587 0.19507 0.0
H426 H 0.60929 0.47256 0.34627 0.0
H427 H 0.69252 0.39694 0.31484 0.0
H428 H 0.73101 0.4054 0.25073 0.0
H429 H 0.68579 0.48927 0.21751 0.0
C430 C 0.60362 0.58089 0.20335 0.0
C431 C 0.5902 0.58153 0.24367 0.0
C432 C 0.61941 0.53353 0.26307 0.0
C433 C 0.5978 0.52899 0.30015 0.0
C434 C 0.62465 0.47878 0.31828 0.0
C435 C 0.67243 0.43496 0.30054 0.0
C436 C 0.69404 0.43969 0.26442 0.0
C437 C 0.66776 0.48812 0.2457 0.0
loop_
_geom_bond_atom_site_label_1
_geom_bond_atom_site_label_2
_geom_bond_distance
_geom_bond_site_symmetry_2
_ccdc_geom_bond_type
O0 Mn1 2.163 1_654 S
O0 C14 1.244 1_554 S
Mn1 O0 2.163 1_456 S
Mn1 O4 2.160 1_545 S
Mn1 O5 2.221 1_556 S
Mn1 O7 2.163 1_556 S
Mn1 O9 2.160 . S
Mn1 O19 2.221 1_445 S
O2 Mn3 2.087 . S
O2 C14 1.256 . S
Mn3 O2 2.087 . S
Mn3 O10 2.089 . S
Mn3 O19 2.290 1_545 S
Mn3 O20 2.251 1_545 S
O4 Mn1 2.160 1_565 S
O4 C15 1.239 1_556 S
O5 Mn1 2.221 1_554 S
O5 Mn6 2.290 . S
O5 C16 1.278 . S
Mn6 O5 2.290 . S
Mn6 O8 2.089 1_545 S
Mn6 O11 2.251 . S
Mn6 O12 2.087 . S
O7 Mn1 2.163 1_554 S
O7 C17 1.244 . S
O8 Mn6 2.089 1_565 S
O8 C15 1.256 . S
O9 Mn1 2.160 . S
O9 C18 1.239 . S
O10 Mn3 2.089 . S
O10 C18 1.256 1_655 S
O11 Mn6 2.251 . S
O11 C16 1.241 . S
O12 Mn6 2.087 . S
O12 C17 1.256 . S
C13 O19 1.263 1_554 S
C13 O20 1.234 1_554 S
C14 O0 1.244 1_556 S
C14 O2 1.256 . S
C15 O4 1.239 1_554 S
C15 O8 1.256 . S
C16 O5 1.278 . S
C16 O11 1.241 . S
C17 O7 1.244 . S
C17 O12 1.256 . S
C18 O9 1.239 . S
C18 O10 1.256 1_455 S
O19 Mn1 2.221 1_665 S
O19 Mn3 2.290 1_565 S
O19 C13 1.263 1_556 S
O20 Mn3 2.251 1_565 S
O20 C13 1.234 1_556 S
O21 Mn22 2.163 . S
O21 C35 1.244 . S
Mn22 O21 2.163 . S
Mn22 O25 2.160 . S
Mn22 O26 2.221 . S
Mn22 O28 2.163 . S
Mn22 O30 2.160 . S
Mn22 O40 2.221 . S
O23 Mn24 2.087 . S
O23 C35 1.256 . S
Mn24 O23 2.087 . S
Mn24 O31 2.089 . S
Mn24 O40 2.290 . S
Mn24 O41 2.251 . S
O25 Mn22 2.160 . S
O25 C36 1.239 . S
O26 Mn22 2.221 . S
O26 Mn27 2.290 . S
O26 C37 1.278 . S
Mn27 O26 2.290 . S
Mn27 O29 2.089 . S
Mn27 O32 2.251 . S
Mn27 O33 2.087 . S
O28 Mn22 2.163 . S
O28 C38 1.244 . S
O29 Mn27 2.089 . S
O29 C36 1.256 . S
O30 Mn22 2.160 . S
O30 C39 1.239 . S
O31 Mn24 2.089 . S
O31 C39 1.256 . S
O32 Mn27 2.251 . S
O32 C37 1.241 . S
O33 Mn27 2.087 . S
O33 C38 1.256 . S
C34 O40 1.278 . S
C34 O41 1.241 . S
C35 O21 1.244 . S
C35 O23 1.256 . S
C36 O25 1.239 . S
C36 O29 1.256 . S
C37 O26 1.278 . S
C37 O32 1.241 . S
C38 O28 1.244 . S
C38 O33 1.256 . S
C39 O30 1.239 . S
C39 O31 1.256 . S
O40 Mn22 2.221 . S
O40 Mn24 2.290 . S
O40 C34 1.278 . S
O41 Mn24 2.251 . S
O41 C34 1.241 . S
H42 C45 0.931 1_655 S
H43 C48 0.928 . S
H44 C50 0.930 . S
C45 H42 0.931 1_455 S
C45 C46 1.413 . S
C45 C47 1.358 1_545 S
C46 C45 1.413 . S
C46 C50 1.428 . S
C47 C45 1.358 1_565 S
C47 C48 1.374 . S
C48 H43 0.928 . S
C48 C47 1.374 . S
C48 C49 1.404 . S
C49 C48 1.404 . S
C49 C50 1.391 1_565 S
C50 H44 0.930 . S
C50 C46 1.428 . S
C50 C49 1.391 1_545 S
H51 C54 0.931 . S
H52 C57 0.928 . S
H53 C59 0.930 . S
C54 H51 0.931 . S
C54 C55 1.413 . S
C54 C56 1.360 1_655 S
C55 C54 1.413 . S
C55 C59 1.438 . S
C56 C54 1.360 1_455 S
C56 C57 1.372 . S
C57 H52 0.928 . S
C57 C56 1.372 . S
C57 C58 1.404 . S
C58 C57 1.404 . S
C58 C59 1.382 1_455 S
C59 H53 0.930 . S
C59 C55 1.438 . S
C59 C58 1.382 1_655 S
H60 C63 0.931 . S
H61 C66 0.928 . S
H62 C68 0.930 . S
C63 H60 0.931 . S
C63 C64 1.413 . S
C63 C65 1.360 . S
C64 C63 1.413 . S
C64 C68 1.429 . S
C65 C63 1.360 . S
C65 C66 1.372 . S
C66 H61 0.928 . S
C66 C65 1.372 . S
C66 C67 1.404 . S
C67 C66 1.404 . S
C67 C68 1.391 . S
C68 H62 0.930 . S
C68 C64 1.429 . S
C68 C67 1.391 . S
H69 C72 0.931 . S
H70 C75 0.928 . S
H71 C77 0.930 . S
C72 H69 0.931 . S
C72 C73 1.413 . S
C72 C74 1.360 . S
C73 C72 1.413 . S
C73 C77 1.429 . S
C74 C72 1.360 . S
C74 C75 1.372 . S
C75 H70 0.928 . S
C75 C74 1.372 . S
C75 C76 1.404 . S
C76 C75 1.404 . S
C76 C77 1.391 . S
C77 H71 0.930 . S
C77 C73 1.429 . S
C77 C76 1.391 . S
H78 C79 0.951 . S
C79 H78 0.951 . S
C79 C85 1.265 . S
H80 C85 0.950 . S
H81 C89 0.949 . S
H82 C90 0.950 . S
H83 C91 0.951 . S
H84 C92 0.951 . S
C85 C79 1.265 . S
C85 H80 0.950 . S
C85 C86 1.478 . S
C86 C85 1.478 . S
C86 C87 1.397 . S
C86 C103 1.394 . S
C87 C86 1.397 . S
C87 C88 1.438 . S
C87 C92 1.429 1_554 S
C88 C87 1.438 . S
C88 C89 1.428 1_554 S
C88 C101 1.394 . S
C89 H81 0.949 . S
C89 C88 1.428 1_556 S
C89 C90 1.345 . S
C90 H82 0.950 . S
C90 C89 1.345 . S
C90 C91 1.424 . S
C91 H83 0.951 . S
C91 C90 1.424 . S
C91 C92 1.347 . S
C92 H84 0.951 . S
C92 C87 1.429 1_556 S
C92 C91 1.347 . S
H93 C94 0.951 . S
C94 H93 0.951 . S
C94 C100 1.265 . S
H95 C100 0.950 . S
H96 C104 0.949 . S
H97 C105 0.950 . S
H98 C106 0.951 . S
H99 C107 0.951 . S
C100 C94 1.265 . S
C100 H95 0.950 . S
C100 C101 1.478 . S
C101 C88 1.394 . S
C101 C100 1.478 . S
C101 C102 1.397 . S
C102 C101 1.397 . S
C102 C103 1.438 . S
C102 C107 1.429 . S
C103 C86 1.394 . S
C103 C102 1.438 . S
C103 C104 1.428 . S
C104 H96 0.949 . S
C104 C103 1.428 . S
C104 C105 1.345 . S
C105 H97 0.950 . S
C105 C104 1.345 . S
C105 C106 1.424 . S
C106 H98 0.951 . S
C106 C105 1.424 . S
C106 C107 1.347 . S
C107 H99 0.951 . S
C107 C102 1.429 . S
C107 C106 1.347 . S
H108 C109 0.951 . S
C109 H108 0.951 . S
C109 C115 1.261 1_556 S
H110 C115 0.963 . S
H111 C119 0.949 . S
H112 C120 0.950 . S
H113 C121 0.951 . S
H114 C122 0.951 . S
C115 C109 1.261 1_554 S
C115 H110 0.963 . S
C115 C116 1.471 1_554 S
C116 C115 1.471 1_556 S
C116 C117 1.397 1_556 S
C116 C133 1.394 . S
C117 C116 1.397 1_554 S
C117 C118 1.438 1_554 S
C117 C122 1.429 . S
C118 C117 1.438 1_556 S
C118 C119 1.428 1_556 S
C118 C131 1.394 . S
C119 H111 0.949 . S
C119 C118 1.428 1_554 S
C119 C120 1.345 . S
C120 H112 0.950 . S
C120 C119 1.345 . S
C120 C121 1.424 . S
C121 H113 0.951 . S
C121 C120 1.424 . S
C121 C122 1.347 . S
C122 H114 0.951 . S
C122 C117 1.429 . S
C122 C121 1.347 . S
H123 C124 0.951 . S
C124 H123 0.951 . S
C124 C130 1.265 . S
H125 C130 0.950 . S
H126 C134 0.949 . S
H127 C135 0.950 . S
H128 C136 0.951 . S
H129 C137 0.951 . S
C130 C124 1.265 . S
C130 H125 0.950 . S
C130 C131 1.478 . S
C131 C118 1.394 . S
C131 C130 1.478 . S
C131 C132 1.397 . S
C132 C131 1.397 . S
C132 C133 1.438 . S
C132 C137 1.429 . S
C133 C116 1.394 . S
C133 C132 1.438 . S
C133 C134 1.428 . S
C134 H126 0.949 . S
C134 C133 1.428 . S
C134 C135 1.345 . S
C135 H127 0.950 . S
C135 C134 1.345 . S
C135 C136 1.424 . S
C136 H128 0.951 . S
C136 C135 1.424 . S
C136 C137 1.347 . S
C137 H129 0.951 . S
C137 C132 1.429 . S
C137 C136 1.347 . S
H138 C139 0.951 . S
C139 H138 0.951 . S
C139 C145 1.265 . S
H140 C145 0.950 1_556 S
H141 C149 0.949 . S
H142 C150 0.950 . S
H143 C151 0.951 . S
H144 C152 0.951 . S
C145 C139 1.265 . S
C145 H140 0.950 1_554 S
C145 C146 1.478 . S
C146 C145 1.478 . S
C146 C147 1.397 . S
C146 C163 1.394 . S
C147 C146 1.397 . S
C147 C148 1.438 . S
C147 C152 1.429 . S
C148 C147 1.438 . S
C148 C149 1.428 . S
C148 C161 1.394 . S
C149 H141 0.949 . S
C149 C148 1.428 . S
C149 C150 1.345 . S
C150 H142 0.950 . S
C150 C149 1.345 . S
C150 C151 1.424 . S
C151 H143 0.951 . S
C151 C150 1.424 . S
C151 C152 1.347 . S
C152 H144 0.951 . S
C152 C147 1.429 . S
C152 C151 1.347 . S
H153 C154 0.951 . S
C154 H153 0.951 . S
C154 C160 1.265 . S
H155 C160 0.950 . S
H156 C164 0.955 . S
H157 C165 0.950 . S
H158 C166 0.951 . S
H159 C167 0.951 . S
C160 C154 1.265 . S
C160 H155 0.950 . S
C160 C161 1.478 . S
C161 C148 1.394 . S
C161 C160 1.478 . S
C161 C162 1.397 . S
C162 C161 1.397 . S
C162 C163 1.438 . S
C162 C167 1.429 . S
C163 C146 1.394 . S
C163 C162 1.438 . S
C163 C164 1.420 1_554 S
C164 H156 0.955 . S
C164 C163 1.420 1_556 S
C164 C165 1.347 . S
C165 H157 0.950 . S
C165 C164 1.347 . S
C165 C166 1.424 1_556 S
C166 H158 0.951 . S
C166 C165 1.424 1_554 S
C166 C167 1.347 . S
C167 H159 0.951 . S
C167 C162 1.429 . S
C167 C166 1.347 . S
H168 C169 0.953 1_554 S
C169 H168 0.953 1_556 S
C169 C175 1.262 . S
H170 C175 0.950 . S
H171 C179 0.949 . S
H172 C180 0.950 . S
H173 C181 0.951 . S
H174 C182 0.951 . S
C175 C169 1.262 . S
C175 H170 0.950 . S
C175 C176 1.478 . S
C176 C175 1.478 . S
C176 C177 1.397 . S
C176 C193 1.394 . S
C177 C176 1.397 . S
C177 C178 1.438 . S
C177 C182 1.429 . S
C178 C177 1.438 . S
C178 C179 1.428 . S
C178 C191 1.394 . S
C179 H171 0.949 . S
C179 C178 1.428 . S
C179 C180 1.345 . S
C180 H172 0.950 . S
C180 C179 1.345 . S
C180 C181 1.424 . S
C181 H173 0.951 . S
C181 C180 1.424 . S
C181 C182 1.347 . S
C182 H174 0.951 . S
C182 C177 1.429 . S
C182 C181 1.347 . S
H183 C184 0.951 . S
C184 H183 0.951 . S
C184 C190 1.265 . S
H185 C190 0.950 . S
H186 C194 0.949 . S
H187 C195 0.950 . S
H188 C196 0.951 . S
H189 C197 0.951 . S
C190 C184 1.265 . S
C190 H185 0.950 . S
C190 C191 1.478 . S
C191 C178 1.394 . S
C191 C190 1.478 . S
C191 C192 1.397 . S
C192 C191 1.397 . S
C192 C193 1.438 . S
C192 C197 1.429 . S
C193 C176 1.394 . S
C193 C192 1.438 . S
C193 C194 1.428 . S
C194 H186 0.949 . S
C194 C193 1.428 . S
C194 C195 1.345 . S
C195 H187 0.950 . S
C195 C194 1.345 . S
C195 C196 1.424 . S
C196 H188 0.951 . S
C196 C195 1.424 . S
C196 C197 1.347 . S
C197 H189 0.951 . S
C197 C192 1.429 . S
C197 C196 1.347 . S
H198 C199 0.951 . S
C199 H198 0.951 . S
C199 C205 1.265 . S
H200 C205 0.950 . S
H201 C209 0.949 . S
H202 C210 0.950 . S
H203 C211 0.951 . S
H204 C212 0.951 . S
C205 C199 1.265 . S
C205 H200 0.950 . S
C205 C206 1.478 . S
C206 C205 1.478 . S
C206 C207 1.397 . S
C206 C223 1.394 . S
C207 C206 1.397 . S
C207 C208 1.438 . S
C207 C212 1.429 . S
C208 C207 1.438 . S
C208 C209 1.428 . S
C208 C221 1.394 . S
C209 H201 0.949 . S
C209 C208 1.428 . S
C209 C210 1.345 . S
C210 H202 0.950 . S
C210 C209 1.345 . S
C210 C211 1.424 . S
C211 H203 0.951 . S
C211 C210 1.424 . S
C211 C212 1.347 . S
C212 H204 0.951 . S
C212 C207 1.429 . S
C212 C211 1.347 . S
H213 C214 0.951 1_545 S
C214 H213 0.951 1_565 S
C214 C220 1.265 . S
H215 C220 0.950 . S
H216 C224 0.949 . S
H217 C225 0.950 . S
H218 C226 0.951 . S
H219 C227 0.951 . S
C220 C214 1.265 . S
C220 H215 0.950 . S
C220 C221 1.478 . S
C221 C208 1.394 . S
C221 C220 1.478 . S
C221 C222 1.397 . S
C222 C221 1.397 . S
C222 C223 1.438 . S
C222 C227 1.429 . S
C223 C206 1.394 . S
C223 C222 1.438 . S
C223 C224 1.428 . S
C224 H216 0.949 . S
C224 C223 1.428 . S
C224 C225 1.345 . S
C225 H217 0.950 . S
C225 C224 1.345 . S
C225 C226 1.424 . S
C226 H218 0.951 . S
C226 C225 1.424 . S
C226 C227 1.347 . S
C227 H219 0.951 . S
C227 C222 1.429 . S
C227 C226 1.347 . S
H228 C229 0.951 . S
C229 H228 0.951 . S
C229 C235 1.265 . S
H230 C235 0.950 . S
H231 C239 0.949 . S
H232 C240 0.950 . S
H233 C241 0.951 . S
H234 C242 0.951 . S
C235 C229 1.265 . S
C235 H230 0.950 . S
C235 C236 1.478 . S
C236 C235 1.478 . S
C236 C237 1.397 . S
C236 C253 1.394 . S
C237 C236 1.397 . S
C237 C238 1.438 . S
C237 C242 1.429 . S
C238 C237 1.438 . S
C238 C239 1.428 . S
C238 C251 1.394 . S
C239 H231 0.949 . S
C239 C238 1.428 . S
C239 C240 1.345 . S
C240 H232 0.950 . S
C240 C239 1.345 . S
C240 C241 1.424 . S
C241 H233 0.951 . S
C241 C240 1.424 . S
C241 C242 1.347 . S
C242 H234 0.951 . S
C242 C237 1.429 . S
C242 C241 1.347 . S
H243 C244 0.951 . S
C244 H243 0.951 . S
C244 C250 1.265 . S
H245 C250 0.950 . S
H246 C254 0.949 . S
H247 C255 0.950 . S
H248 C256 0.951 . S
H249 C257 0.951 . S
C250 C244 1.265 . S
C250 H245 0.950 . S
C250 C251 1.478 . S
C251 C238 1.394 . S
C251 C250 1.478 . S
C251 C252 1.397 . S
C252 C251 1.397 . S
C252 C253 1.438 . S
C252 C257 1.429 . S
C253 C236 1.394 . S
C253 C252 1.438 . S
C253 C254 1.428 . S
C254 H246 0.949 . S
C254 C253 1.428 . S
C254 C255 1.345 . S
C255 H247 0.950 . S
C255 C254 1.345 . S
C255 C256 1.424 . S
C256 H248 0.951 . S
C256 C255 1.424 . S
C256 C257 1.347 . S
C257 H249 0.951 . S
C257 C252 1.429 . S
C257 C256 1.347 . S
H258 C259 0.951 . S
C259 H258 0.951 . S
C259 C265 1.265 . S
H260 C265 0.950 . S
H261 C269 0.949 . S
H262 C270 0.950 . S
H263 C271 0.951 . S
H264 C272 0.951 . S
C265 C259 1.265 . S
C265 H260 0.950 . S
C265 C266 1.478 . S
C266 C265 1.478 . S
C266 C267 1.397 . S
C266 C283 1.394 . S
C267 C266 1.397 . S
C267 C268 1.438 . S
C267 C272 1.429 . S
C268 C267 1.438 . S
C268 C269 1.428 . S
C268 C281 1.394 . S
C269 H261 0.949 . S
C269 C268 1.428 . S
C269 C270 1.345 . S
C270 H262 0.950 . S
C270 C269 1.345 . S
C270 C271 1.424 . S
C271 H263 0.951 . S
C271 C270 1.424 . S
C271 C272 1.347 . S
C272 H264 0.951 . S
C272 C267 1.429 . S
C272 C271 1.347 . S
H273 C274 0.951 . S
C274 H273 0.951 . S
C274 C280 1.265 . S
H275 C280 0.950 . S
H276 C284 0.949 . S
H277 C285 0.950 . S
H278 C286 0.951 . S
H279 C287 0.951 . S
C280 C274 1.265 . S
C280 H275 0.950 . S
C280 C281 1.478 . S
C281 C268 1.394 . S
C281 C280 1.478 . S
C281 C282 1.397 . S
C282 C281 1.397 . S
C282 C283 1.438 . S
C282 C287 1.429 . S
C283 C266 1.394 . S
C283 C282 1.438 . S
C283 C284 1.428 . S
C284 H276 0.949 . S
C284 C283 1.428 . S
C284 C285 1.345 . S
C285 H277 0.950 . S
C285 C284 1.345 . S
C285 C286 1.424 . S
C286 H278 0.951 . S
C286 C285 1.424 . S
C286 C287 1.347 . S
C287 H279 0.951 . S
C287 C282 1.429 . S
C287 C286 1.347 . S
H288 C289 0.951 . S
C289 H288 0.951 . S
C289 C295 1.265 . S
H290 C295 0.950 . S
H291 C299 0.949 . S
H292 C300 0.950 . S
H293 C301 0.951 . S
H294 C302 0.951 . S
C295 C289 1.265 . S
C295 H290 0.950 . S
C295 C296 1.478 . S
C296 C295 1.478 . S
C296 C297 1.397 . S
C296 C313 1.394 . S
C297 C296 1.397 . S
C297 C298 1.438 . S
C297 C302 1.429 . S
C298 C297 1.438 . S
C298 C299 1.428 . S
C298 C311 1.394 . S
C299 H291 0.949 . S
C299 C298 1.428 . S
C299 C300 1.345 . S
C300 H292 0.950 . S
C300 C299 1.345 . S
C300 C301 1.424 . S
C301 H293 0.951 . S
C301 C300 1.424 . S
C301 C302 1.347 . S
C302 H294 0.951 . S
C302 C297 1.429 . S
C302 C301 1.347 . S
H303 C304 0.951 . S
C304 H303 0.951 . S
C304 C310 1.265 . S
H305 C310 0.950 . S
H306 C314 0.949 . S
H307 C315 0.950 . S
H308 C316 0.951 . S
H309 C317 0.951 . S
C310 C304 1.265 . S
C310 H305 0.950 . S
C310 C311 1.478 . S
C311 C298 1.394 . S
C311 C310 1.478 . S
C311 C312 1.397 . S
C312 C311 1.397 . S
C312 C313 1.438 . S
C312 C317 1.429 . S
C313 C296 1.394 . S
C313 C312 1.438 . S
C313 C314 1.428 . S
C314 H306 0.949 . S
C314 C313 1.428 . S
C314 C315 1.345 . S
C315 H307 0.950 . S
C315 C314 1.345 . S
C315 C316 1.424 . S
C316 H308 0.951 . S
C316 C315 1.424 . S
C316 C317 1.347 . S
C317 H309 0.951 . S
C317 C312 1.429 . S
C317 C316 1.347 . S
H318 C319 0.951 . S
C319 H318 0.951 . S
C319 C325 1.265 . S
H320 C325 0.950 1_655 S
H321 C329 0.949 . S
H322 C330 0.950 . S
H323 C331 0.951 . S
H324 C332 0.951 . S
C325 C319 1.265 . S
C325 H320 0.950 1_455 S
C325 C326 1.478 . S
C326 C325 1.478 . S
C326 C327 1.397 1_545 S
C326 C343 1.394 . S
C327 C326 1.397 1_565 S
C327 C328 1.438 . S
C327 C332 1.429 1_455 S
C328 C327 1.438 . S
C328 C329 1.428 . S
C328 C341 1.394 1_565 S
C329 H321 0.949 . S
C329 C328 1.428 . S
C329 C330 1.345 1_455 S
C330 H322 0.950 . S
C330 C329 1.345 1_655 S
C330 C331 1.424 . S
C331 H323 0.951 . S
C331 C330 1.424 . S
C331 C332 1.347 . S
C332 H324 0.951 . S
C332 C327 1.429 1_655 S
C332 C331 1.347 . S
H333 C334 0.951 1_665 S
C334 H333 0.951 1_445 S
C334 C340 1.267 . S
H335 C340 0.950 . S
H336 C344 0.949 . S
H337 C345 0.950 . S
H338 C346 0.951 . S
H339 C347 0.951 . S
C340 C334 1.267 . S
C340 H335 0.950 . S
C340 C341 1.478 . S
C341 C328 1.394 1_545 S
C341 C340 1.478 . S
C341 C342 1.397 . S
C342 C341 1.397 . S
C342 C343 1.438 . S
C342 C347 1.429 . S
C343 C326 1.394 . S
C343 C342 1.438 . S
C343 C344 1.428 . S
C344 H336 0.949 . S
C344 C343 1.428 . S
C344 C345 1.345 . S
C345 H337 0.950 . S
C345 C344 1.345 . S
C345 C346 1.424 . S
C346 H338 0.951 . S
C346 C345 1.424 . S
C346 C347 1.347 . S
C347 H339 0.951 . S
C347 C342 1.429 . S
C347 C346 1.347 . S
H348 C349 0.951 1_655 S
C349 H348 0.951 1_455 S
C349 C355 1.265 . S
H350 C355 0.950 . S
H351 C359 0.949 . S
H352 C360 0.950 . S
H353 C361 0.951 . S
H354 C362 0.951 . S
C355 C349 1.265 . S
C355 H350 0.950 . S
C355 C356 1.478 . S
C356 C355 1.478 . S
C356 C357 1.397 . S
C356 C373 1.394 . S
C357 C356 1.397 . S
C357 C358 1.438 . S
C357 C362 1.429 1_545 S
C358 C357 1.438 . S
C358 C359 1.428 1_545 S
C358 C371 1.394 . S
C359 H351 0.949 . S
C359 C358 1.428 1_565 S
C359 C360 1.345 . S
C360 H352 0.950 . S
C360 C359 1.345 . S
C360 C361 1.424 . S
C361 H353 0.951 . S
C361 C360 1.424 . S
C361 C362 1.347 . S
C362 H354 0.951 . S
C362 C357 1.429 1_565 S
C362 C361 1.347 . S
H363 C364 0.951 . S
C364 H363 0.951 . S
C364 C370 1.265 1_455 S
H365 C370 0.950 . S
H366 C374 0.949 . S
H367 C375 0.950 . S
H368 C376 0.951 . S
H369 C377 0.951 . S
C370 C364 1.265 1_655 S
C370 H365 0.950 . S
C370 C371 1.478 1_655 S
C371 C358 1.394 . S
C371 C370 1.478 1_455 S
C371 C372 1.397 1_455 S
C372 C371 1.397 1_655 S
C372 C373 1.438 1_655 S
C372 C377 1.429 . S
C373 C356 1.394 . S
C373 C372 1.438 1_455 S
C373 C374 1.428 . S
C374 H366 0.949 . S
C374 C373 1.428 . S
C374 C375 1.345 1_455 S
C375 H367 0.950 . S
C375 C374 1.345 1_655 S
C375 C376 1.424 . S
C376 H368 0.951 . S
C376 C375 1.424 . S
C376 C377 1.347 . S
C377 H369 0.951 . S
C377 C372 1.429 . S
C377 C376 1.347 . S
H378 C379 0.951 . S
C379 H378 0.951 . S
C379 C385 1.265 . S
H380 C385 0.950 . S
H381 C389 0.949 . S
H382 C390 0.950 . S
H383 C391 0.951 . S
H384 C392 0.951 . S
C385 C379 1.265 . S
C385 H380 0.950 . S
C385 C386 1.478 . S
C386 C385 1.478 . S
C386 C387 1.397 . S
C386 C403 1.394 . S
C387 C386 1.397 . S
C387 C388 1.438 . S
C387 C392 1.429 . S
C388 C387 1.438 . S
C388 C389 1.428 . S
C388 C401 1.394 . S
C389 H381 0.949 . S
C389 C388 1.428 . S
C389 C390 1.345 . S
C390 H382 0.950 . S
C390 C389 1.345 . S
C390 C391 1.424 . S
C391 H383 0.951 . S
C391 C390 1.424 . S
C391 C392 1.347 . S
C392 H384 0.951 . S
C392 C387 1.429 . S
C392 C391 1.347 . S
H393 C394 0.951 . S
C394 H393 0.951 . S
C394 C400 1.265 . S
H395 C400 0.950 . S
H396 C404 0.949 . S
H397 C405 0.950 . S
H398 C406 0.951 . S
H399 C407 0.951 . S
C400 C394 1.265 . S
C400 H395 0.950 . S
C400 C401 1.478 . S
C401 C388 1.394 . S
C401 C400 1.478 . S
C401 C402 1.397 . S
C402 C401 1.397 . S
C402 C403 1.438 . S
C402 C407 1.429 . S
C403 C386 1.394 . S
C403 C402 1.438 . S
C403 C404 1.428 . S
C404 H396 0.949 . S
C404 C403 1.428 . S
C404 C405 1.345 . S
C405 H397 0.950 . S
C405 C404 1.345 . S
C405 C406 1.424 . S
C406 H398 0.951 . S
C406 C405 1.424 . S
C406 C407 1.347 . S
C407 H399 0.951 . S
C407 C402 1.429 . S
C407 C406 1.347 . S
H408 C409 0.951 . S
C409 H408 0.951 . S
C409 C415 1.265 . S
H410 C415 0.950 . S
H411 C419 0.949 . S
H412 C420 0.950 . S
H413 C421 0.951 . S
H414 C422 0.951 . S
C415 C409 1.265 . S
C415 H410 0.950 . S
C415 C416 1.478 . S
C416 C415 1.478 . S
C416 C417 1.397 . S
C416 C433 1.394 . S
C417 C416 1.397 . S
C417 C418 1.438 . S
C417 C422 1.429 . S
C418 C417 1.438 . S
C418 C419 1.428 . S
C418 C431 1.394 . S
C419 H411 0.949 . S
C419 C418 1.428 . S
C419 C420 1.345 . S
C420 H412 0.950 . S
C420 C419 1.345 . S
C420 C421 1.424 . S
C421 H413 0.951 . S
C421 C420 1.424 . S
C421 C422 1.347 . S
C422 H414 0.951 . S
C422 C417 1.429 . S
C422 C421 1.347 . S
H423 C424 0.951 . S
C424 H423 0.951 . S
C424 C430 1.265 . S
H425 C430 0.950 . S
H426 C434 0.949 . S
H427 C435 0.950 . S
H428 C436 0.951 . S
H429 C437 0.951 . S
C430 C424 1.265 . S
C430 H425 0.950 . S
C430 C431 1.478 . S
C431 C418 1.394 . S
C431 C430 1.478 . S
C431 C432 1.397 . S
C432 C431 1.397 . S
C432 C433 1.438 . S
C432 C437 1.429 . S
C433 C416 1.394 . S
C433 C432 1.438 . S
C433 C434 1.428 . S
C434 H426 0.949 . S
C434 C433 1.428 . S
C434 C435 1.345 . S
C435 H427 0.950 . S
C435 C434 1.345 . S
C435 C436 1.424 . S
C436 H428 0.951 . S
C436 C435 1.424 . S
C436 C437 1.347 . S
C437 H429 0.951 . S
C437 C432 1.429 . S
C437 C436 1.347 . S
C94 C73 1.348 . S
C79 C16 1.220 . S
C109 C15 1.444 1_556 S
C124 C64 1.423 . S
C139 C13 1.255 . S
C154 C76 1.410 . S
C169 C14 1.330 . S
C184 C67 1.315 . S
C199 C37 1.115 . S
C214 C55 1.363 1_565 S
C229 C36 1.441 . S
C244 C46 1.430 1_655 S
C274 C58 1.413 . S
C259 C34 1.330 . S
C304 C49 1.337 . S
C289 C35 1.227 . S
C319 C17 1.460 . S
C334 C47 1.536 1_545 S
C349 C18 1.314 . S
C364 C56 1.410 . S
C394 C65 1.538 . S
C379 C38 1.466 . S
C409 C39 1.413 . S
C424 C74 1.419 . S
