# Generated by pormake.
# Topology sit, (3,6)-cn, num edge types: 1
# Building blocks:
#     Node 0, Type 0, BuildingBlock: VETTIZ_charged_linker_0, # of connection points: 3
#     Node 1, Type 0, BuildingBlock: VETTIZ_charged_linker_0, # of connection points: 3
#     Node 2, Type 0, BuildingBlock: VETTIZ_charged_linker_0, # of connection points: 3
#     Node 3, Type 0, BuildingBlock: VETTIZ_charged_linker_0, # of connection points: 3
#     Node 4, Type 1, BuildingBlock: MIDCAF_clean_sbu_0, # of connection points: 6
#     Node 5, Type 1, BuildingBlock: MIDCAF_clean_sbu_0, # of connection points: 6
#     Edge 6, Type (0, 1), BuildingBlock: AJUNOK_clean_linker_0, # of connection points: 2
#     Edge 7, Type (0, 1), BuildingBlock: AJUNOK_clean_linker_0, # of connection points: 2
#     Edge 8, Type (0, 1), BuildingBlock: AJUNOK_clean_linker_0, # of connection points: 2
#     Edge 9, Type (0, 1), BuildingBlock: AJUNOK_clean_linker_0, # of connection points: 2
#     Edge 10, Type (0, 1), BuildingBlock: AJUNOK_clean_linker_0, # of connection points: 2
#     Edge 11, Type (0, 1), BuildingBlock: AJUNOK_clean_linker_0, # of connection points: 2
#     Edge 12, Type (0, 1), BuildingBlock: AJUNOK_clean_linker_0, # of connection points: 2
#     Edge 13, Type (0, 1), BuildingBlock: AJUNOK_clean_linker_0, # of connection points: 2
#     Edge 14, Type (0, 1), BuildingBlock: AJUNOK_clean_linker_0, # of connection points: 2
#     Edge 15, Type (0, 1), BuildingBlock: AJUNOK_clean_linker_0, # of connection points: 2
#     Edge 16, Type (0, 1), BuildingBlock: AJUNOK_clean_linker_0, # of connection points: 2
#     Edge 17, Type (0, 1), BuildingBlock: AJUNOK_clean_linker_0, # of connection points: 2
# Relax obj value: 0.113
# Max RMSD: 0.194
# Mean RMSD: 0.109
data_MOF--net-sit--node1-MIDCAF_clean_sbu_0--node2-VETTIZ_charged_linker_0--edge1-AJUNOK_clean_linker_0
_symmetry_space_group_name_H-M    P1
_symmetry_Int_Tables_number       1
_symmetry_cell_setting            triclinic
loop_
_symmetry_equiv_pos_as_xyz
'x, y, z'
_cell_length_a     22.618542
_cell_length_b     29.50183
_cell_length_c     33.352369
_cell_angle_alpha  91.008113
_cell_angle_beta   90.07577
_cell_angle_gamma 84.714596
loop_
_atom_site_label
_atom_site_type_symbol
_atom_site_fract_x
_atom_site_fract_y
_atom_site_fract_z
_atom_type_partial_charge
C0 C 0.03562 0.2039 0.11341 0.0
C1 C 0.08394 0.17122 0.12035 0.0
C2 C 0.13704 0.17419 0.09878 0.0
C3 C 0.09701 0.24557 0.07032 0.0
C4 C 0.04294 0.24044 0.08811 0.0
C5 C -0.00361 0.27826 0.0774 0.0
H6 H 0.93198 0.47856 0.98254 0.0
C7 C 0.09249 0.29007 0.05042 0.0
C8 C 0.03352 0.30946 0.05444 0.0
H9 H 0.80896 0.38617 0.0236 0.0
H10 H 0.88974 0.33947 0.05497 0.0
H11 H 0.02154 0.4744 0.05818 0.0
H12 H 0.01565 0.40466 0.945 0.0
H13 H 0.0886 0.41916 0.95176 0.0
H14 H 0.02895 0.46342 0.95179 0.0
H15 H 0.05568 0.49484 0.01444 0.0
H16 H 0.0965 0.45642 0.04807 0.0
C17 C 0.97054 0.30153 0.11625 0.0
C18 C 0.94917 0.258 0.05032 0.0
C19 C 0.27322 0.35001 0.98533 0.0
C20 C 0.28227 0.39296 0.96977 0.0
C21 C 0.23762 0.4291 0.97458 0.0
C22 C 0.18334 0.42212 0.99201 0.0
C23 C 0.17324 0.37843 0.00466 0.0
C24 C 0.21855 0.34379 0.00328 0.0
C25 C 0.20085 0.30127 0.02274 0.0
C26 C 0.13611 0.31543 0.03305 0.0
C27 C 0.12036 0.36028 0.02136 0.0
C28 C 0.23973 0.29304 0.06064 0.0
C29 C 0.20707 0.26173 0.99147 0.0
C30 C 0.92245 0.44897 -0.00066 0.0
C31 C 0.86472 0.43558 0.00029 0.0
C32 C 0.8534 0.39701 0.02245 0.0
C33 C 0.90034 0.36946 0.03979 0.0
C34 C 0.95894 0.38039 0.03427 0.0
C35 C 0.96894 0.4203 0.01525 0.0
C36 C 0.0336 0.42412 0.00776 0.0
C37 C 0.06055 0.37897 0.02338 0.0
C38 C 0.0171 0.35375 0.03962 0.0
C39 C 0.05302 0.4646 0.03323 0.0
C40 C 0.04268 0.4283 0.96181 0.0
H41 H 0.18599 0.21231 0.05942 0.0
H42 H -0.00627 0.20229 0.12873 0.0
H43 H 0.96612 0.22468 0.0366 0.0
H44 H 0.93646 0.27992 0.0245 0.0
H45 H 0.90863 0.25233 0.06761 0.0
H46 H 0.00691 0.31 0.13674 0.0
H47 H 0.94244 0.27881 0.13234 0.0
H48 H 0.94333 0.33377 0.1104 0.0
H49 H 0.307 0.32164 0.9826 0.0
H50 H 0.2445 0.46274 0.9641 0.0
H51 H 0.15075 0.45076 0.99392 0.0
H52 H 0.24776 0.32587 0.07571 0.0
H53 H 0.28368 0.27514 0.05282 0.0
H54 H 0.21861 0.27371 0.08376 0.0
H55 H 0.19198 0.27387 0.96143 0.0
H56 H 0.1792 0.2341 -0.0015 0.0
H57 H 0.254 0.24725 0.98864 0.0
H58 H 0.17394 0.14837 0.10179 0.0
C59 C 0.14399 0.21133 0.07414 0.0
C60 C 0.22462 0.62668 0.99257 0.0
C61 C 0.22406 0.58312 0.97485 0.0
C62 C 0.17242 0.56032 0.97646 0.0
C63 C 0.1204 0.62638 0.00884 0.0
C64 C 0.17212 0.64779 0.00933 0.0
C65 C 0.1625 0.6957 0.02615 0.0
H66 H 0.97732 0.85441 0.12197 0.0
C67 C 0.07174 0.6595 0.02276 0.0
C68 C 0.09572 0.70023 0.03317 0.0
H69 H 0.16479 0.8577 0.0977 0.0
H70 H 0.16386 0.79051 0.05582 0.0
H71 H 0.94841 0.83639 0.02945 0.0
H72 H 0.96313 0.74705 0.12963 0.0
H73 H 0.8969 0.74211 0.10128 0.0
H74 H 0.91027 0.79591 0.12337 0.0
H75 H 0.88387 0.82186 0.05538 0.0
H76 H 0.91425 0.78782 0.01347 0.0
C77 C 0.18074 0.7291 0.99402 0.0
C78 C 0.19795 0.69723 0.06578 0.0
C79 C 0.8623 0.61887 0.00363 0.0
C80 C 0.80907 0.64644 -0.00101 0.0
C81 C 0.80508 0.69158 0.0143 0.0
C82 C 0.85534 0.70993 0.03057 0.0
C83 C 0.91005 0.68317 0.03054 0.0
C84 C 0.91258 0.63841 0.01722 0.0
C85 C 0.97489 0.61731 0.01204 0.0
C86 C 0.00961 0.65701 0.02366 0.0
C87 C 0.9717 0.69499 0.03597 0.0
C88 C -0.01595 0.6023 0.96723 0.0
C89 C -0.01517 0.57832 0.04238 0.0
C90 C 0.01785 0.8415 0.10686 0.0
C91 C 0.07175 0.86071 0.11452 0.0
C92 C 0.12315 0.84277 0.09361 0.0
C93 C 0.12273 0.80349 0.06953 0.0
C94 C 0.07009 0.78219 0.0655 0.0
C95 C 0.01789 0.80271 0.08174 0.0
C96 C 0.96512 0.77746 0.07006 0.0
C97 C -0.00409 0.73541 0.04926 0.0
C98 C 0.0575 0.73832 0.04699 0.0
C99 C 0.92562 0.80728 0.04074 0.0
C100 C 0.93182 0.76493 0.10813 0.0
H101 H 0.08241 0.56304 0.9934 0.0
H102 H 0.26389 0.64501 0.99094 0.0
H103 H 0.19277 0.66635 0.08368 0.0
H104 H 0.18273 0.72619 0.08562 0.0
H105 H 0.24606 0.69839 0.0597 0.0
H106 H 0.17095 0.71648 0.96331 0.0
H107 H 0.229 0.73327 0.99557 0.0
H108 H 0.15556 0.76296 0.99648 0.0
H109 H 0.86645 0.58378 0.99302 0.0
H110 H 0.76418 0.71346 0.01151 0.0
H111 H 0.85067 0.74476 0.04079 0.0
H112 H 0.94999 0.61964 0.94726 0.0
H113 H 0.98175 0.56505 0.96312 0.0
H114 H 0.02642 0.61174 0.95476 0.0
H115 H 0.96502 0.58884 0.07201 0.0
H116 H 0.03233 0.56876 0.04847 0.0
H117 H 0.96354 0.54786 0.03172 0.0
H118 H 0.17105 0.52721 0.96217 0.0
C119 C 0.12082 0.58151 0.99399 0.0
C120 C 0.51833 0.70428 0.60341 0.0
C121 C 0.56616 0.67666 0.61998 0.0
C122 C 0.62455 0.68626 0.6105 0.0
C123 C 0.58646 0.7531 0.57389 0.0
C124 C 0.52931 0.74303 0.58201 0.0
C125 C 0.48356 0.78086 0.57026 0.0
H126 H 0.42337 0.98614 0.48374 0.0
C127 C 0.58301 0.79886 0.55626 0.0
C128 C 0.52286 0.81597 0.55524 0.0
H129 H 0.29829 0.89492 0.52388 0.0
H130 H 0.37817 0.84558 0.55274 0.0
H131 H 0.50528 0.9848 0.55876 0.0
H132 H 0.51248 0.91047 0.44788 0.0
H133 H 0.58359 0.92786 0.45709 0.0
H134 H 0.52171 0.97 0.45442 0.0
H135 H 0.54733 1.00253 0.51734 0.0
H136 H 0.58112 0.9652 0.55467 0.0
C137 C 0.44805 0.79809 0.60813 0.0
C138 C 0.44515 0.76248 0.53632 0.0
C139 C 0.7648 0.86062 0.49489 0.0
C140 C 0.77214 0.90286 0.47735 0.0
C141 C 0.72768 0.93905 0.48233 0.0
C142 C 0.67408 0.9322 0.50067 0.0
C143 C 0.66456 0.88862 0.51387 0.0
C144 C 0.71045 0.85438 0.51338 0.0
C145 C 0.69319 0.81226 0.53389 0.0
C146 C 0.62749 0.8256 0.54207 0.0
C147 C 0.61133 0.87006 0.52945 0.0
C148 C 0.72964 0.80601 0.5732 0.0
C149 C 0.70246 0.7712 0.50444 0.0
C150 C 0.41331 0.95637 0.5001 0.0
C151 C 0.35501 0.94436 0.50189 0.0
C152 C 0.34309 0.90504 0.52271 0.0
C153 C 0.38963 0.87607 0.53875 0.0
C154 C 0.44853 0.88661 0.53375 0.0
C155 C 0.45923 0.92705 0.5159 0.0
C156 C 0.52415 0.93185 0.51092 0.0
C157 C 0.55086 0.88723 0.52794 0.0
C158 C 0.50667 0.86061 0.54107 0.0
C159 C 0.54042 0.97327 0.53657 0.0
C160 C 0.53662 0.93545 0.46534 0.0
H161 H 0.68005 0.73019 0.58179 0.0
H162 H 0.47285 0.69809 0.60977 0.0
H163 H 0.47329 0.74109 0.51462 0.0
H164 H 0.42209 0.78968 0.51831 0.0
H165 H 0.41177 0.74109 0.54861 0.0
H166 H 0.4771 0.79664 0.63512 0.0
H167 H 0.41087 0.77697 0.61389 0.0
H168 H 0.43027 0.83413 0.60634 0.0
H169 H 0.79951 0.83284 0.4929 0.0
H170 H 0.73386 0.97242 0.47089 0.0
H171 H 0.6413 0.9607 0.50245 0.0
H172 H 0.75079 0.83728 0.58205 0.0
H173 H 0.76576 0.77799 0.57008 0.0
H174 H 0.70131 0.79907 0.59909 0.0
H175 H 0.68023 0.77937 0.47535 0.0
H176 H 0.68381 0.74063 0.51583 0.0
H177 H 0.75047 0.76221 0.49851 0.0
H178 H 0.66253 0.66679 0.62342 0.0
C179 C 0.63483 0.72392 0.58714 0.0
C180 C 0.70812 0.13336 0.4839 0.0
C181 C 0.70704 0.08988 0.46619 0.0
C182 C 0.65497 0.06752 0.4677 0.0
C183 C 0.60379 0.13399 0.50029 0.0
C184 C 0.65593 0.15488 0.50067 0.0
C185 C 0.64745 0.20273 0.51766 0.0
H186 H 0.46992 0.36148 0.61872 0.0
C187 C 0.55593 0.16749 0.51502 0.0
C188 C 0.58088 0.20785 0.52541 0.0
H189 H 0.65538 0.36435 0.58798 0.0
H190 H 0.65091 0.29768 0.54597 0.0
H191 H 0.43447 0.34523 0.52712 0.0
H192 H 0.45472 0.25349 0.62543 0.0
H193 H 0.38649 0.25002 0.59895 0.0
H194 H 0.40239 0.30304 0.62148 0.0
H195 H 0.37144 0.33028 0.55451 0.0
H196 H 0.39912 0.29713 0.51136 0.0
C197 C 0.66554 0.23609 0.48542 0.0
C198 C 0.68387 0.20371 0.55691 0.0
C199 C 0.34486 0.12839 0.50102 0.0
C200 C 0.29106 0.15594 0.49898 0.0
C201 C 0.28878 0.20105 0.51437 0.0
C202 C 0.34036 0.21896 0.52906 0.0
C203 C 0.39484 0.192 0.52715 0.0
C204 C 0.39619 0.1475 0.51325 0.0
C205 C 0.45807 0.12619 0.50628 0.0
C206 C 0.49378 0.16548 0.51731 0.0
C207 C 0.45693 0.20346 0.53101 0.0
C208 C 0.46468 0.11181 0.4612 0.0
C209 C 0.46967 0.08672 0.536 0.0
C210 C 0.50921 0.34853 0.60223 0.0
C211 C 0.56383 0.36741 0.6082 0.0
C212 C 0.6134 0.3496 0.58534 0.0
C213 C 0.61094 0.31062 0.56114 0.0
C214 C 0.55798 0.28949 0.55888 0.0
C215 C 0.50712 0.31006 0.57686 0.0
C216 C 0.45333 0.28532 0.56636 0.0
C217 C 0.48234 0.24347 0.54418 0.0
C218 C 0.54382 0.24601 0.54037 0.0
C219 C 0.41223 0.31593 0.53857 0.0
C220 C 0.42233 0.27223 0.60516 0.0
H221 H 0.56469 0.07092 0.48481 0.0
H222 H 0.74774 0.15131 0.48241 0.0
H223 H 0.67701 0.17357 0.57537 0.0
H224 H 0.67106 0.23354 0.57634 0.0
H225 H 0.7321 0.20289 0.55029 0.0
H226 H 0.65731 0.22287 0.45465 0.0
H227 H 0.71343 0.24137 0.48764 0.0
H228 H 0.63902 0.26948 0.48715 0.0
H229 H 0.34828 0.09361 0.4896 0.0
H230 H 0.24819 0.22344 0.51275 0.0
H231 H 0.33673 0.25369 0.53953 0.0
H232 H 0.4303 0.13031 0.44219 0.0
H233 H 0.46061 0.07481 0.45674 0.0
H234 H 0.50704 0.1203 0.44803 0.0
H235 H 0.45041 0.09638 0.56597 0.0
H236 H 0.51749 0.07788 0.54147 0.0
H237 H 0.44906 0.05603 0.52518 0.0
H238 H 0.65343 0.03425 0.45368 0.0
C239 C 0.60346 0.08916 0.48523 0.0
Zn240 Zn 0.00832 0.10575 0.34413 0.0
Zn241 Zn 0.08799 0.93198 0.34982 0.0
Zn242 Zn 0.04811 0.01811 0.34405 0.0
C243 C 0.07805 0.95144 0.26783 0.0
C244 C 0.97765 0.94067 0.38543 0.0
O245 O 0.10679 0.05698 0.38141 0.0
O246 O 0.06089 0.1264 0.38773 0.0
C247 C 0.04591 0.07994 0.26582 0.0
O248 O 0.06304 0.99215 0.28124 0.0
O249 O 0.08973 0.91926 0.29184 0.0
O250 O 0.02223 0.9118 0.38244 0.0
O251 O 0.97907 0.98099 0.37142 0.0
O252 O 0.0294 0.11436 0.28738 0.0
O253 O 0.05318 0.03995 0.28101 0.0
O254 O 0.95749 0.02741 0.36985 0.0
O255 O 0.92503 0.09896 0.3577 0.0
C256 C 0.91611 0.06047 0.37108 0.0
O257 O 0.12935 1.01126 0.38186 0.0
O258 O 0.16387 0.93873 0.37666 0.0
C259 C 0.10323 0.09753 0.39683 0.0
C260 C 0.16888 0.97843 0.38993 0.0
Zn261 Zn 0.52122 0.59865 0.85141 0.0
Zn262 Zn 0.59811 0.42779 0.84321 0.0
Zn263 Zn 0.55852 0.51455 0.8422 0.0
C264 C 0.58368 0.45389 0.76229 0.0
C265 C 0.48986 0.43408 0.88113 0.0
O266 O 0.62173 0.55047 0.87945 0.0
O267 O 0.57632 0.61881 0.89259 0.0
C268 C 0.5453 0.58358 0.7693 0.0
O269 O 0.5685 0.49367 0.77771 0.0
O270 O 0.59773 0.4205 0.78462 0.0
O271 O 0.53327 0.40484 0.87485 0.0
O272 O 0.49147 0.47545 0.86966 0.0
O273 O 0.53289 0.61439 0.79547 0.0
O274 O 0.55573 0.54177 0.77993 0.0
O275 O 0.46958 0.5214 0.8713 0.0
O276 O 0.43921 0.59467 0.86798 0.0
C277 C 0.4296 0.55484 0.87726 0.0
O278 O 0.6419 0.50408 0.87795 0.0
O279 O 0.67448 0.43135 0.87022 0.0
C280 C 0.62003 0.58973 0.89737 0.0
C281 C 0.68066 0.47028 0.88485 0.0
C282 C 0.02732 0.1169 0.15933 0.0
C283 C 0.0804 0.13737 0.15286 0.0
C284 C 0.01824 0.09332 0.19469 0.0
C285 C 0.06246 0.08835 0.22424 0.0
H286 H -0.00886 0.12147 0.13805 0.0
H287 H 0.97489 0.08185 0.20021 0.0
S288 S 0.21068 0.13169 0.22133 0.0
N289 N 0.17889 0.14862 0.17891 0.0
N290 N 0.16208 0.10259 0.24415 0.0
C291 C 0.11717 0.10528 0.21691 0.0
C292 C 0.12623 0.13006 0.18142 0.0
C293 C 0.12601 0.88474 0.17524 0.0
C294 C 0.07749 0.89302 0.14903 0.0
C295 C 0.12822 0.90761 0.21209 0.0
C296 C 0.08204 0.93976 0.22464 0.0
H297 H 0.16086 0.85793 0.16877 0.0
H298 H 0.16469 0.89774 0.23218 0.0
S299 S 0.94955 0.9797 0.1652 0.0
N300 N -0.01422 0.94055 0.13615 0.0
N301 N -0.0106 0.98265 0.20658 0.0
C302 C 0.03557 0.95137 0.19772 0.0
C303 C 0.03327 0.92804 0.15974 0.0
C304 C 0.51085 0.65941 0.68166 0.0
C305 C 0.55494 0.64511 0.65326 0.0
C306 C 0.50546 0.63635 0.71734 0.0
C307 C 0.5445 0.59827 0.72704 0.0
H308 H 0.48238 0.69061 0.67792 0.0
H309 H 0.47229 0.65034 0.73871 0.0
S310 S 0.66121 0.54169 0.66074 0.0
N311 N 0.6328 0.58572 0.6348 0.0
N312 N 0.62453 0.5438 0.70365 0.0
C313 C 0.58595 0.58116 0.69799 0.0
C314 C 0.59095 0.6044 0.66085 0.0
C315 C 0.62355 0.39018 0.66686 0.0
C316 C 0.57273 0.39907 0.64277 0.0
C317 C 0.62921 0.41228 0.70378 0.0
C318 C 0.58429 0.44414 0.71866 0.0
H319 H 0.65764 0.3634 0.65875 0.0
H320 H 0.66738 0.40181 0.72223 0.0
S321 S 0.44767 0.48662 0.66466 0.0
N322 N 0.48068 0.44761 0.63394 0.0
N323 N 0.49095 0.48834 0.70452 0.0
C324 C 0.53573 0.4567 0.69367 0.0
C325 C 0.52989 0.43416 0.65558 0.0
C326 C 0.33082 0.42475 0.91078 0.0
C327 C 0.3364 0.40063 0.94691 0.0
C328 C 0.3808 0.43503 0.8894 0.0
C329 C 0.43805 0.42117 0.90315 0.0
H330 H 0.28738 0.43605 0.899 0.0
H331 H 0.37461 0.45399 0.86194 0.0
S332 S 0.4774 0.358 0.99594 0.0
N333 N 0.40407 0.36392 0.9957 0.0
N334 N 0.49828 0.38228 0.95468 0.0
C335 C 0.44456 0.39631 0.93865 0.0
C336 C 0.39362 0.38625 0.96076 0.0
C337 C 0.70148 0.63747 0.98543 0.0
C338 C 0.76124 0.62983 0.97363 0.0
C339 C 0.65595 0.62362 0.96079 0.0
C340 C 0.66874 0.60125 0.92378 0.0
H341 H 0.68983 0.65439 0.01379 0.0
H342 H 0.61037 0.63049 0.97072 0.0
S343 S 0.81693 0.57648 0.87733 0.0
N344 N 0.83011 0.60097 0.92088 0.0
N345 N 0.74437 0.57402 0.87549 0.0
C346 C 0.72799 0.59335 0.91157 0.0
C347 C 0.7743 0.60788 0.93627 0.0
C348 C 0.76275 0.47104 0.98276 0.0
C349 C 0.82054 0.45469 0.97086 0.0
C350 C 0.7181 0.48127 0.95408 0.0
C351 C 0.72993 0.47442 0.91292 0.0
H352 H 0.75145 0.47393 0.01431 0.0
H353 H 0.67319 0.49112 0.96424 0.0
S354 S 0.87451 0.43574 0.86629 0.0
N355 N 0.8879 0.43559 0.91495 0.0
N356 N 0.80352 0.45354 0.86157 0.0
C357 C 0.78803 0.46062 0.9007 0.0
C358 C 0.83354 0.45108 0.92959 0.0
C359 C 0.3264 0.5453 0.96383 0.0
C360 C 0.27298 0.56581 0.94824 0.0
C361 C 0.37657 0.53671 0.93914 0.0
C362 C 0.37436 0.54911 0.89861 0.0
H363 H 0.33017 0.53809 0.99551 0.0
H364 H 0.41829 0.52368 0.95248 0.0
S365 S 0.24314 0.5995 0.84326 0.0
N366 N 0.2191 0.59434 0.88955 0.0
N367 N 0.31371 0.57926 0.84343 0.0
C368 C 0.32012 0.56681 0.88236 0.0
C369 C 0.26919 0.57495 0.9072 0.0
C370 C 0.88209 0.89859 0.46714 0.0
C371 C 0.82444 0.90955 0.45243 0.0
C372 C 0.93177 0.90794 0.44474 0.0
C373 C 0.92512 0.92869 0.40716 0.0
H374 H 0.88874 0.88391 0.49653 0.0
H375 H 0.9756 0.90008 0.45737 0.0
S376 S 0.78423 0.95779 0.35294 0.0
N377 N 0.76378 0.93786 0.39623 0.0
N378 N 0.85744 0.95554 0.3544 0.0
C379 C 0.868 0.938 0.39141 0.0
C380 C 0.81752 0.9284 0.41402 0.0
C381 C 0.25438 0.11579 0.43844 0.0
C382 C 0.24143 0.13949 0.47501 0.0
C383 C 0.20937 0.10138 0.4139 0.0
C384 C 0.14958 0.11084 0.42446 0.0
H385 H 0.29972 0.10919 0.428 0.0
H386 H 0.22143 0.08382 0.38586 0.0
S387 S 0.09112 0.16826 0.51784 0.0
N388 N 0.16391 0.1687 0.52164 0.0
N389 N 0.07898 0.1431 0.47434 0.0
C390 C 0.13557 0.13388 0.46092 0.0
C391 C 0.18155 0.14789 0.48644 0.0
C392 C 0.32144 0.96066 0.43267 0.0
C393 C 0.3103 0.96557 0.47406 0.0
C394 C 0.27591 0.9696 0.40479 0.0
C395 C 0.21821 0.98471 0.41736 0.0
H396 H 0.36442 0.94622 0.42189 0.0
H397 H 0.28489 0.96158 0.37342 0.0
S398 S 0.16875 1.01064 0.52172 0.0
N399 N 0.23953 0.99168 0.52604 0.0
N400 N 0.15372 1.00965 0.47321 0.0
C401 C 0.20779 0.99408 0.45829 0.0
C402 C 0.254 0.98411 0.48684 0.0
C403 C 0.80988 0.05243 0.4567 0.0
C404 C 0.75661 0.07213 0.44022 0.0
C405 C 0.86098 0.04422 0.43284 0.0
C406 C 0.86007 0.05643 0.39224 0.0
H407 H 0.81273 0.04551 0.48847 0.0
H408 H 0.90229 0.03147 0.44687 0.0
S409 S 0.72978 0.10454 0.33461 0.0
N410 N 0.70432 0.09952 0.38056 0.0
N411 N 0.80072 0.08543 0.33601 0.0
C412 C 0.80615 0.07359 0.37513 0.0
C413 C 0.75417 0.08109 0.39911 0.0
loop_
_geom_bond_atom_site_label_1
_geom_bond_atom_site_label_2
_geom_bond_distance
_geom_bond_site_symmetry_2
_ccdc_geom_bond_type
C0 C1 1.391 . S
C0 C4 1.391 . S
C0 H42 0.948 . S
C1 C0 1.391 . S
C1 C2 1.391 . S
C2 C1 1.391 . S
C2 H58 0.947 . S
C2 C59 1.392 . S
C3 C4 1.391 . S
C3 C7 1.397 . S
C3 C59 1.419 . S
C4 C0 1.391 . S
C4 C3 1.391 . S
C4 C5 1.399 . S
C5 C4 1.399 . S
C5 C8 1.396 . S
C5 C17 1.461 . S
C5 C18 1.684 1_455 S
H6 C30 0.948 . S
C7 C3 1.397 . S
C7 C8 1.394 . S
C7 C26 1.723 . S
C8 C5 1.396 . S
C8 C7 1.394 . S
C8 C38 1.723 . S
H9 C32 0.947 . S
H10 C33 0.948 . S
H11 C39 0.982 . S
H12 C40 0.979 . S
H13 C40 0.980 . S
H14 C40 0.983 . S
H15 C39 0.979 . S
H16 C39 0.977 . S
C17 C5 1.461 . S
C17 H46 0.988 . S
C17 H47 0.972 1_455 S
C17 H48 0.969 1_455 S
C18 C5 1.684 1_655 S
C18 H43 0.979 1_655 S
C18 H44 0.980 . S
C18 H45 0.983 . S
C19 C20 1.391 . S
C19 C24 1.391 . S
C19 H49 0.948 . S
C20 C19 1.391 . S
C20 C21 1.391 . S
C21 C20 1.391 . S
C21 C22 1.392 . S
C21 H50 0.947 . S
C22 C21 1.392 . S
C22 C23 1.419 . S
C22 H51 0.948 . S
C23 C22 1.419 . S
C23 C24 1.391 . S
C23 C27 1.397 1_556 S
C24 C19 1.391 . S
C24 C23 1.391 . S
C24 C25 1.399 1_556 S
C25 C24 1.399 1_554 S
C25 C26 1.396 . S
C25 C28 1.453 . S
C25 C29 1.684 . S
C26 C7 1.723 . S
C26 C25 1.396 . S
C26 C27 1.394 . S
C27 C23 1.397 1_554 S
C27 C26 1.394 . S
C27 C37 1.723 1_554 S
C28 C25 1.453 . S
C28 H52 0.982 . S
C28 H53 0.979 . S
C28 H54 0.977 . S
C29 C25 1.684 . S
C29 H55 0.979 . S
C29 H56 0.980 . S
C29 H57 0.983 . S
C30 H6 0.948 . S
C30 C31 1.391 . S
C30 C35 1.391 1_655 S
C31 C30 1.391 . S
C31 C32 1.391 . S
C32 H9 0.947 . S
C32 C31 1.391 . S
C32 C33 1.392 1_556 S
C33 H10 0.948 . S
C33 C32 1.392 1_554 S
C33 C34 1.419 1_654 S
C34 C33 1.419 1_456 S
C34 C35 1.391 . S
C34 C38 1.397 1_556 S
C35 C30 1.391 1_455 S
C35 C34 1.391 . S
C35 C36 1.399 . S
C36 C35 1.399 . S
C36 C37 1.396 . S
C36 C39 1.453 . S
C36 C40 1.684 . S
C37 C27 1.723 1_556 S
C37 C36 1.396 . S
C37 C38 1.394 1_556 S
C38 C8 1.723 . S
C38 C34 1.397 1_554 S
C38 C37 1.394 1_554 S
C39 H11 0.982 . S
C39 H15 0.979 . S
C39 H16 0.977 . S
C39 C36 1.453 . S
C40 H12 0.979 . S
C40 H13 0.980 . S
C40 H14 0.983 . S
C40 C36 1.684 . S
H41 C59 0.948 . S
H42 C0 0.948 . S
H43 C18 0.979 1_455 S
H44 C18 0.980 . S
H45 C18 0.983 . S
H46 C17 0.988 . S
H47 C17 0.972 1_655 S
H48 C17 0.969 1_655 S
H49 C19 0.948 . S
H50 C21 0.947 . S
H51 C22 0.948 . S
H52 C28 0.982 . S
H53 C28 0.979 . S
H54 C28 0.977 . S
H55 C29 0.979 . S
H56 C29 0.980 . S
H57 C29 0.983 . S
H58 C2 0.947 . S
C59 C2 1.392 . S
C59 C3 1.419 . S
C59 H41 0.948 . S
C60 C61 1.391 . S
C60 C64 1.391 1_556 S
C60 H102 0.956 . S
C61 C60 1.391 . S
C61 C62 1.391 . S
C62 C61 1.391 . S
C62 H118 0.947 . S
C62 C119 1.392 . S
C63 C64 1.391 1_556 S
C63 C67 1.397 1_556 S
C63 C119 1.419 . S
C64 C60 1.391 1_554 S
C64 C63 1.391 1_554 S
C64 C65 1.399 . S
C65 C64 1.399 . S
C65 C68 1.396 . S
C65 C77 1.453 . S
C65 C78 1.684 . S
H66 C90 0.948 . S
C67 C63 1.397 1_554 S
C67 C68 1.394 . S
C67 C86 1.723 1_454 S
C68 C65 1.396 . S
C68 C67 1.394 . S
C68 C98 1.723 . S
H69 C92 0.947 . S
H70 C93 0.948 . S
H71 C99 0.982 . S
H72 C100 0.979 . S
H73 C100 0.980 . S
H74 C100 0.983 . S
H75 C99 0.979 . S
H76 C99 0.977 . S
C77 C65 1.453 . S
C77 H106 0.982 . S
C77 H107 0.979 . S
C77 H108 0.977 . S
C78 C65 1.684 . S
C78 H103 0.979 . S
C78 H104 0.980 . S
C78 H105 0.983 . S
C79 C80 1.391 . S
C79 C84 1.391 . S
C79 H109 0.948 . S
C80 C79 1.391 . S
C80 C81 1.391 1_556 S
C81 C80 1.391 1_554 S
C81 C82 1.392 . S
C81 H110 0.947 . S
C82 C81 1.392 . S
C82 C83 1.419 . S
C82 H111 0.948 . S
C83 C82 1.419 . S
C83 C84 1.391 1_554 S
C83 C87 1.397 . S
C84 C79 1.391 . S
C84 C83 1.391 1_556 S
C84 C85 1.399 . S
C85 C84 1.399 . S
C85 C86 1.396 . S
C85 C88 1.453 . S
C85 C89 1.684 . S
C86 C67 1.723 1_656 S
C86 C85 1.396 . S
C86 C87 1.394 1_556 S
C87 C83 1.397 . S
C87 C86 1.394 1_554 S
C87 C97 1.723 . S
C88 C85 1.453 . S
C88 H112 0.982 . S
C88 H113 0.979 . S
C88 H114 0.977 1_655 S
C89 C85 1.684 . S
C89 H115 0.979 . S
C89 H116 0.980 1_655 S
C89 H117 0.983 . S
C90 H66 0.948 . S
C90 C91 1.391 1_655 S
C90 C95 1.391 . S
C91 C90 1.391 1_455 S
C91 C92 1.391 . S
C92 H69 0.947 . S
C92 C91 1.391 . S
C92 C93 1.392 . S
C93 H70 0.948 . S
C93 C92 1.392 . S
C93 C94 1.419 . S
C94 C93 1.419 . S
C94 C95 1.391 1_455 S
C94 C98 1.397 . S
C95 C90 1.391 . S
C95 C94 1.391 1_655 S
C95 C96 1.399 . S
C96 C95 1.399 . S
C96 C97 1.396 . S
C96 C99 1.453 . S
C96 C100 1.684 . S
C97 C87 1.723 . S
C97 C96 1.396 . S
C97 C98 1.394 1_655 S
C98 C68 1.723 . S
C98 C94 1.397 . S
C98 C97 1.394 1_455 S
C99 H71 0.982 . S
C99 H75 0.979 . S
C99 H76 0.977 . S
C99 C96 1.453 . S
C100 H72 0.979 . S
C100 H73 0.980 . S
C100 H74 0.983 . S
C100 C96 1.684 . S
H101 C119 0.948 . S
H102 C60 0.956 . S
H103 C78 0.979 . S
H104 C78 0.980 . S
H105 C78 0.983 . S
H106 C77 0.982 . S
H107 C77 0.979 . S
H108 C77 0.977 . S
H109 C79 0.948 . S
H110 C81 0.947 . S
H111 C82 0.948 . S
H112 C88 0.982 . S
H113 C88 0.979 . S
H114 C88 0.977 1_455 S
H115 C89 0.979 . S
H116 C89 0.980 1_455 S
H117 C89 0.983 . S
H118 C62 0.947 . S
C119 C62 1.392 . S
C119 C63 1.419 . S
C119 H101 0.948 . S
C120 C121 1.391 . S
C120 C124 1.391 . S
C120 H162 0.948 . S
C121 C120 1.391 . S
C121 C122 1.391 . S
C122 C121 1.391 . S
C122 H178 0.947 . S
C122 C179 1.392 . S
C123 C124 1.391 . S
C123 C127 1.397 . S
C123 C179 1.419 . S
C124 C120 1.391 . S
C124 C123 1.391 . S
C124 C125 1.399 . S
C125 C124 1.399 . S
C125 C128 1.396 . S
C125 C137 1.453 . S
C125 C138 1.684 . S
H126 C150 0.948 . S
C127 C123 1.397 . S
C127 C128 1.394 . S
C127 C146 1.723 . S
C128 C125 1.396 . S
C128 C127 1.394 . S
C128 C158 1.723 . S
H129 C152 0.947 . S
H130 C153 0.948 . S
H131 C159 0.982 . S
H132 C160 0.979 . S
H133 C160 0.980 . S
H134 C160 0.983 . S
H135 C159 0.979 . S
H136 C159 0.977 . S
C137 C125 1.453 . S
C137 H166 0.982 . S
C137 H167 0.979 . S
C137 H168 0.977 . S
C138 C125 1.684 . S
C138 H163 0.979 . S
C138 H164 0.980 . S
C138 H165 0.983 . S
C139 C140 1.391 . S
C139 C144 1.391 . S
C139 H169 0.948 . S
C140 C139 1.391 . S
C140 C141 1.391 . S
C141 C140 1.391 . S
C141 C142 1.392 . S
C141 H170 0.947 . S
C142 C141 1.392 . S
C142 C143 1.419 . S
C142 H171 0.948 . S
C143 C142 1.419 . S
C143 C144 1.391 . S
C143 C147 1.397 . S
C144 C139 1.391 . S
C144 C143 1.391 . S
C144 C145 1.399 . S
C145 C144 1.399 . S
C145 C146 1.396 . S
C145 C148 1.453 . S
C145 C149 1.684 . S
C146 C127 1.723 . S
C146 C145 1.396 . S
C146 C147 1.394 . S
C147 C143 1.397 . S
C147 C146 1.394 . S
C147 C157 1.723 . S
C148 C145 1.453 . S
C148 H172 0.982 . S
C148 H173 0.979 . S
C148 H174 0.977 . S
C149 C145 1.684 . S
C149 H175 0.979 . S
C149 H176 0.980 . S
C149 H177 0.983 . S
C150 H126 0.948 . S
C150 C151 1.391 . S
C150 C155 1.391 . S
C151 C150 1.391 . S
C151 C152 1.391 . S
C152 H129 0.947 . S
C152 C151 1.391 . S
C152 C153 1.392 . S
C153 H130 0.948 . S
C153 C152 1.392 . S
C153 C154 1.419 . S
C154 C153 1.419 . S
C154 C155 1.391 . S
C154 C158 1.397 . S
C155 C150 1.391 . S
C155 C154 1.391 . S
C155 C156 1.399 . S
C156 C155 1.399 . S
C156 C157 1.396 . S
C156 C159 1.453 . S
C156 C160 1.684 . S
C157 C147 1.723 . S
C157 C156 1.396 . S
C157 C158 1.394 . S
C158 C128 1.723 . S
C158 C154 1.397 . S
C158 C157 1.394 . S
C159 H131 0.982 . S
C159 H135 0.979 . S
C159 H136 0.977 . S
C159 C156 1.453 . S
C160 H132 0.979 . S
C160 H133 0.980 . S
C160 H134 0.983 . S
C160 C156 1.684 . S
H161 C179 0.948 . S
H162 C120 0.948 . S
H163 C138 0.979 . S
H164 C138 0.980 . S
H165 C138 0.983 . S
H166 C137 0.982 . S
H167 C137 0.979 . S
H168 C137 0.977 . S
H169 C139 0.948 . S
H170 C141 0.947 . S
H171 C142 0.948 . S
H172 C148 0.982 . S
H173 C148 0.979 . S
H174 C148 0.977 . S
H175 C149 0.979 . S
H176 C149 0.980 . S
H177 C149 0.983 . S
H178 C122 0.947 . S
C179 C122 1.392 . S
C179 C123 1.419 . S
C179 H161 0.948 . S
C180 C181 1.391 . S
C180 C184 1.391 . S
C180 H222 0.948 . S
C181 C180 1.391 . S
C181 C182 1.391 . S
C182 C181 1.391 . S
C182 H238 0.947 . S
C182 C239 1.392 . S
C183 C184 1.391 . S
C183 C187 1.397 . S
C183 C239 1.419 . S
C184 C180 1.391 . S
C184 C183 1.391 . S
C184 C185 1.399 . S
C185 C184 1.399 . S
C185 C188 1.396 . S
C185 C197 1.453 . S
C185 C198 1.684 . S
H186 C210 0.948 . S
C187 C183 1.397 . S
C187 C188 1.394 . S
C187 C206 1.723 . S
C188 C185 1.396 . S
C188 C187 1.394 . S
C188 C218 1.723 . S
H189 C212 0.947 . S
H190 C213 0.948 . S
H191 C219 0.982 . S
H192 C220 0.979 . S
H193 C220 0.980 . S
H194 C220 0.983 . S
H195 C219 0.979 . S
H196 C219 0.977 . S
C197 C185 1.453 . S
C197 H226 0.982 . S
C197 H227 0.979 . S
C197 H228 0.977 . S
C198 C185 1.684 . S
C198 H223 0.979 . S
C198 H224 0.980 . S
C198 H225 0.983 . S
C199 C200 1.391 . S
C199 C204 1.391 . S
C199 H229 0.948 . S
C200 C199 1.391 . S
C200 C201 1.391 . S
C201 C200 1.391 . S
C201 C202 1.392 . S
C201 H230 0.947 . S
C202 C201 1.392 . S
C202 C203 1.419 . S
C202 H231 0.948 . S
C203 C202 1.419 . S
C203 C204 1.391 . S
C203 C207 1.397 . S
C204 C199 1.391 . S
C204 C203 1.391 . S
C204 C205 1.399 . S
C205 C204 1.399 . S
C205 C206 1.396 . S
C205 C208 1.453 . S
C205 C209 1.684 . S
C206 C187 1.723 . S
C206 C205 1.396 . S
C206 C207 1.394 . S
C207 C203 1.397 . S
C207 C206 1.394 . S
C207 C217 1.723 . S
C208 C205 1.453 . S
C208 H232 0.982 . S
C208 H233 0.979 . S
C208 H234 0.977 . S
C209 C205 1.684 . S
C209 H235 0.979 . S
C209 H236 0.980 . S
C209 H237 0.983 . S
C210 H186 0.948 . S
C210 C211 1.391 . S
C210 C215 1.391 . S
C211 C210 1.391 . S
C211 C212 1.391 . S
C212 H189 0.947 . S
C212 C211 1.391 . S
C212 C213 1.392 . S
C213 H190 0.948 . S
C213 C212 1.392 . S
C213 C214 1.419 . S
C214 C213 1.419 . S
C214 C215 1.391 . S
C214 C218 1.397 . S
C215 C210 1.391 . S
C215 C214 1.391 . S
C215 C216 1.399 . S
C216 C215 1.399 . S
C216 C217 1.396 . S
C216 C219 1.453 . S
C216 C220 1.684 . S
C217 C207 1.723 . S
C217 C216 1.396 . S
C217 C218 1.394 . S
C218 C188 1.723 . S
C218 C214 1.397 . S
C218 C217 1.394 . S
C219 H191 0.982 . S
C219 H195 0.979 . S
C219 H196 0.977 . S
C219 C216 1.453 . S
C220 H192 0.979 . S
C220 H193 0.980 . S
C220 H194 0.983 . S
C220 C216 1.684 . S
H221 C239 0.948 . S
H222 C180 0.948 . S
H223 C198 0.979 . S
H224 C198 0.980 . S
H225 C198 0.983 . S
H226 C197 0.982 . S
H227 C197 0.979 . S
H228 C197 0.977 . S
H229 C199 0.948 . S
H230 C201 0.947 . S
H231 C202 0.948 . S
H232 C208 0.982 . S
H233 C208 0.979 . S
H234 C208 0.977 . S
H235 C209 0.979 . S
H236 C209 0.980 . S
H237 C209 0.983 . S
H238 C182 0.947 . S
C239 C182 1.392 . S
C239 C183 1.419 . S
C239 H221 0.948 . S
Zn240 O246 1.920 . S
Zn240 O252 1.898 . S
Zn240 O255 1.905 1_455 S
Zn241 O249 1.905 . S
Zn241 O250 1.898 . S
Zn241 O258 1.920 . S
Zn242 O245 2.080 . S
Zn242 O248 2.114 1_545 S
Zn242 O251 2.120 1_545 S
Zn242 O253 2.120 . S
Zn242 O254 2.114 1_455 S
Zn242 O257 2.080 1_545 S
C243 O248 1.166 . S
C243 O249 1.182 . S
C244 O250 1.167 . S
C244 O251 1.299 . S
O245 Zn242 2.080 . S
O245 C259 1.305 . S
O246 Zn240 1.920 . S
O246 C259 1.234 . S
C247 O252 1.167 . S
C247 O253 1.299 . S
O248 Zn242 2.114 1_565 S
O248 C243 1.166 . S
O249 Zn241 1.905 . S
O249 C243 1.182 . S
O250 Zn241 1.898 . S
O250 C244 1.167 . S
O251 Zn242 2.120 1_565 S
O251 C244 1.299 . S
O252 Zn240 1.898 . S
O252 C247 1.167 . S
O253 Zn242 2.120 . S
O253 C247 1.299 . S
O254 Zn242 2.114 1_655 S
O254 C256 1.166 . S
O255 Zn240 1.905 1_655 S
O255 C256 1.182 . S
C256 O254 1.166 . S
C256 O255 1.182 . S
O257 Zn242 2.080 1_565 S
O257 C260 1.305 . S
O258 Zn241 1.920 . S
O258 C260 1.234 . S
C259 O245 1.305 . S
C259 O246 1.234 . S
C260 O257 1.305 . S
C260 O258 1.234 . S
Zn261 O267 1.920 . S
Zn261 O273 1.898 . S
Zn261 O276 1.905 . S
Zn262 O270 1.905 . S
Zn262 O271 1.898 . S
Zn262 O279 1.920 . S
Zn263 O266 2.080 . S
Zn263 O269 2.114 . S
Zn263 O272 2.120 . S
Zn263 O274 2.120 . S
Zn263 O275 2.114 . S
Zn263 O278 2.080 . S
C264 O269 1.166 . S
C264 O270 1.182 . S
C265 O271 1.167 . S
C265 O272 1.299 . S
O266 Zn263 2.080 . S
O266 C280 1.305 . S
O267 Zn261 1.920 . S
O267 C280 1.234 . S
C268 O273 1.167 . S
C268 O274 1.299 . S
O269 Zn263 2.114 . S
O269 C264 1.166 . S
O270 Zn262 1.905 . S
O270 C264 1.182 . S
O271 Zn262 1.898 . S
O271 C265 1.167 . S
O272 Zn263 2.120 . S
O272 C265 1.299 . S
O273 Zn261 1.898 . S
O273 C268 1.167 . S
O274 Zn263 2.120 . S
O274 C268 1.299 . S
O275 Zn263 2.114 . S
O275 C277 1.166 . S
O276 Zn261 1.905 . S
O276 C277 1.182 . S
C277 O275 1.166 . S
C277 O276 1.182 . S
O278 Zn263 2.080 . S
O278 C281 1.305 . S
O279 Zn262 1.920 . S
O279 C281 1.234 . S
C280 O266 1.305 . S
C280 O267 1.234 . S
C281 O278 1.305 . S
C281 O279 1.234 . S
C282 C283 1.369 . S
C282 C284 1.419 . S
C282 H286 0.930 . S
C283 C282 1.369 . S
C283 C292 1.429 . S
C284 C282 1.419 . S
C284 C285 1.363 . S
C284 H287 0.929 . S
C285 C284 1.363 . S
C285 C291 1.428 . S
H286 C282 0.930 . S
H287 C284 0.929 . S
S288 N289 1.613 . S
S288 N290 1.610 . S
N289 S288 1.613 . S
N289 C292 1.350 . S
N290 S288 1.610 . S
N290 C291 1.351 . S
C291 C285 1.428 . S
C291 N290 1.351 . S
C291 C292 1.434 . S
C292 C283 1.429 . S
C292 N289 1.350 . S
C292 C291 1.434 . S
C293 C294 1.369 . S
C293 C295 1.419 . S
C293 H297 0.930 . S
C294 C293 1.369 . S
C294 C303 1.429 1_455 S
C295 C293 1.419 . S
C295 C296 1.363 . S
C295 H298 0.929 . S
C296 C295 1.363 . S
C296 C302 1.428 1_455 S
H297 C293 0.930 . S
H298 C295 0.929 . S
S299 N300 1.613 . S
S299 N301 1.610 . S
N300 S299 1.613 . S
N300 C303 1.350 . S
N301 S299 1.610 . S
N301 C302 1.351 . S
C302 C296 1.428 1_655 S
C302 N301 1.351 . S
C302 C303 1.434 . S
C303 C294 1.429 1_655 S
C303 N300 1.350 . S
C303 C302 1.434 . S
C304 C305 1.369 . S
C304 C306 1.419 . S
C304 H308 0.930 . S
C305 C304 1.369 . S
C305 C314 1.429 . S
C306 C304 1.419 . S
C306 C307 1.363 . S
C306 H309 0.929 . S
C307 C306 1.363 . S
C307 C313 1.428 . S
H308 C304 0.930 . S
H309 C306 0.929 . S
S310 N311 1.613 . S
S310 N312 1.610 . S
N311 S310 1.613 . S
N311 C314 1.350 . S
N312 S310 1.610 . S
N312 C313 1.351 . S
C313 C307 1.428 . S
C313 N312 1.351 . S
C313 C314 1.434 . S
C314 C305 1.429 . S
C314 N311 1.350 . S
C314 C313 1.434 . S
C315 C316 1.369 . S
C315 C317 1.419 . S
C315 H319 0.930 . S
C316 C315 1.369 . S
C316 C325 1.429 . S
C317 C315 1.419 . S
C317 C318 1.363 . S
C317 H320 0.929 . S
C318 C317 1.363 . S
C318 C324 1.428 . S
H319 C315 0.930 . S
H320 C317 0.929 . S
S321 N322 1.613 . S
S321 N323 1.610 . S
N322 S321 1.613 . S
N322 C325 1.350 . S
N323 S321 1.610 . S
N323 C324 1.351 . S
C324 C318 1.428 . S
C324 N323 1.351 . S
C324 C325 1.434 . S
C325 C316 1.429 . S
C325 N322 1.350 . S
C325 C324 1.434 . S
C326 C327 1.369 . S
C326 C328 1.419 . S
C326 H330 0.930 . S
C327 C326 1.369 . S
C327 C336 1.429 . S
C328 C326 1.419 . S
C328 C329 1.363 . S
C328 H331 0.929 . S
C329 C328 1.363 . S
C329 C335 1.428 . S
H330 C326 0.930 . S
H331 C328 0.929 . S
S332 N333 1.613 . S
S332 N334 1.610 . S
N333 S332 1.613 . S
N333 C336 1.350 1_554 S
N334 S332 1.610 . S
N334 C335 1.351 1_554 S
C335 C329 1.428 . S
C335 N334 1.351 1_556 S
C335 C336 1.434 . S
C336 C327 1.429 . S
C336 N333 1.350 1_556 S
C336 C335 1.434 . S
C337 C338 1.369 . S
C337 C339 1.419 . S
C337 H341 0.930 1_556 S
C338 C337 1.369 . S
C338 C347 1.429 . S
C339 C337 1.419 . S
C339 C340 1.363 . S
C339 H342 0.921 1_556 S
C340 C339 1.363 . S
C340 C346 1.428 . S
H341 C337 0.930 1_554 S
H342 C339 0.921 1_554 S
S343 N344 1.613 . S
S343 N345 1.610 . S
N344 S343 1.613 . S
N344 C347 1.350 . S
N345 S343 1.610 . S
N345 C346 1.351 . S
C346 C340 1.428 . S
C346 N345 1.351 . S
C346 C347 1.434 . S
C347 C338 1.429 . S
C347 N344 1.350 . S
C347 C346 1.434 . S
C348 C349 1.369 . S
C348 C350 1.419 . S
C348 H352 0.930 . S
C349 C348 1.369 . S
C349 C358 1.429 . S
C350 C348 1.419 . S
C350 C351 1.363 . S
C350 H353 0.929 . S
C351 C350 1.363 . S
C351 C357 1.428 . S
H352 C348 0.930 . S
H353 C350 0.929 . S
S354 N355 1.613 . S
S354 N356 1.610 . S
N355 S354 1.613 . S
N355 C358 1.350 . S
N356 S354 1.610 . S
N356 C357 1.351 . S
C357 C351 1.428 . S
C357 N356 1.351 . S
C357 C358 1.434 . S
C358 C349 1.429 . S
C358 N355 1.350 . S
C358 C357 1.434 . S
C359 C360 1.369 . S
C359 C361 1.419 . S
C359 H363 0.930 . S
C360 C359 1.369 . S
C360 C369 1.429 . S
C361 C359 1.419 . S
C361 C362 1.363 . S
C361 H364 0.929 . S
C362 C361 1.363 . S
C362 C368 1.428 . S
H363 C359 0.930 . S
H364 C361 0.929 . S
S365 N366 1.613 . S
S365 N367 1.610 . S
N366 S365 1.613 . S
N366 C369 1.350 . S
N367 S365 1.610 . S
N367 C368 1.351 . S
C368 C362 1.428 . S
C368 N367 1.351 . S
C368 C369 1.434 . S
C369 C360 1.429 . S
C369 N366 1.350 . S
C369 C368 1.434 . S
C370 C371 1.369 . S
C370 C372 1.419 . S
C370 H374 0.930 . S
C371 C370 1.369 . S
C371 C380 1.429 . S
C372 C370 1.419 . S
C372 C373 1.363 . S
C372 H375 0.929 . S
C373 C372 1.363 . S
C373 C379 1.428 . S
H374 C370 0.930 . S
H375 C372 0.929 . S
S376 N377 1.613 . S
S376 N378 1.610 . S
N377 S376 1.613 . S
N377 C380 1.350 . S
N378 S376 1.610 . S
N378 C379 1.351 . S
C379 C373 1.428 . S
C379 N378 1.351 . S
C379 C380 1.434 . S
C380 C371 1.429 . S
C380 N377 1.350 . S
C380 C379 1.434 . S
C381 C382 1.369 . S
C381 C383 1.419 . S
C381 H385 0.930 . S
C382 C381 1.369 . S
C382 C391 1.429 . S
C383 C381 1.419 . S
C383 C384 1.363 . S
C383 H386 0.929 . S
C384 C383 1.363 . S
C384 C390 1.428 . S
H385 C381 0.930 . S
H386 C383 0.929 . S
S387 N388 1.613 . S
S387 N389 1.610 . S
N388 S387 1.613 . S
N388 C391 1.350 . S
N389 S387 1.610 . S
N389 C390 1.351 . S
C390 C384 1.428 . S
C390 N389 1.351 . S
C390 C391 1.434 . S
C391 C382 1.429 . S
C391 N388 1.350 . S
C391 C390 1.434 . S
C392 C393 1.369 . S
C392 C394 1.419 . S
C392 H396 0.930 . S
C393 C392 1.369 . S
C393 C402 1.429 . S
C394 C392 1.419 . S
C394 C395 1.363 . S
C394 H397 0.929 . S
C395 C394 1.363 . S
C395 C401 1.428 . S
H396 C392 0.930 . S
H397 C394 0.929 . S
S398 N399 1.613 . S
S398 N400 1.610 . S
N399 S398 1.613 . S
N399 C402 1.350 . S
N400 S398 1.610 . S
N400 C401 1.351 . S
C401 C395 1.428 . S
C401 N400 1.351 . S
C401 C402 1.434 . S
C402 C393 1.429 . S
C402 N399 1.350 . S
C402 C401 1.434 . S
C403 C404 1.369 . S
C403 C405 1.419 . S
C403 H407 0.930 . S
C404 C403 1.369 . S
C404 C413 1.429 . S
C405 C403 1.419 . S
C405 C406 1.363 . S
C405 H408 0.929 . S
C406 C405 1.363 . S
C406 C412 1.428 . S
H407 C403 0.930 . S
H408 C405 0.929 . S
S409 N410 1.613 . S
S409 N411 1.610 . S
N410 S409 1.613 . S
N410 C413 1.350 . S
N411 S409 1.610 . S
N411 C412 1.351 . S
C412 C406 1.428 . S
C412 N411 1.351 . S
C412 C413 1.434 . S
C413 C404 1.429 . S
C413 N410 1.350 . S
C413 C412 1.434 . S
C285 C247 1.495 . S
C283 C1 1.567 . S
C296 C243 1.503 . S
C294 C91 1.479 . S
C307 C268 1.498 . S
C305 C121 1.569 . S
C316 C211 1.479 . S
C318 C264 1.503 . S
C327 C20 1.343 . S
C329 C265 1.156 . S
C340 C280 1.167 . S
C338 C80 1.360 . S
C349 C31 1.698 . S
C351 C281 1.517 . S
C362 C277 1.533 . S
C360 C61 1.621 . S
C373 C244 1.144 1_655 S
C371 C140 1.344 . S
C382 C200 1.351 . S
C384 C259 1.175 . S
C395 C260 1.523 . S
C393 C151 1.698 . S
C406 C256 1.532 . S
C404 C181 1.622 . S
