# Generated by pormake.
# Topology rtl, (3,6)-cn, num edge types: 1
# Building blocks:
#     Node 0, Type 0, BuildingBlock: BELTOD_clean_linker_0, # of connection points: 3
#     Node 1, Type 0, BuildingBlock: BELTOD_clean_linker_0, # of connection points: 3
#     Node 2, Type 0, BuildingBlock: BELTOD_clean_linker_0, # of connection points: 3
#     Node 3, Type 0, BuildingBlock: BELTOD_clean_linker_0, # of connection points: 3
#     Node 4, Type 1, BuildingBlock: KUMBOL_clean_sbu_1, # of connection points: 6
#     Node 5, Type 1, BuildingBlock: KUMBOL_clean_sbu_1, # of connection points: 6
#     Edge 6, Type (0, 1), BuildingBlock: UVAHIK_clean_linker_0, # of connection points: 2
#     Edge 7, Type (0, 1), BuildingBlock: UVAHIK_clean_linker_0, # of connection points: 2
#     Edge 8, Type (0, 1), BuildingBlock: UVAHIK_clean_linker_0, # of connection points: 2
#     Edge 9, Type (0, 1), BuildingBlock: UVAHIK_clean_linker_0, # of connection points: 2
#     Edge 10, Type (0, 1), BuildingBlock: UVAHIK_clean_linker_0, # of connection points: 2
#     Edge 11, Type (0, 1), BuildingBlock: UVAHIK_clean_linker_0, # of connection points: 2
#     Edge 12, Type (0, 1), BuildingBlock: UVAHIK_clean_linker_0, # of connection points: 2
#     Edge 13, Type (0, 1), BuildingBlock: UVAHIK_clean_linker_0, # of connection points: 2
#     Edge 14, Type (0, 1), BuildingBlock: UVAHIK_clean_linker_0, # of connection points: 2
#     Edge 15, Type (0, 1), BuildingBlock: UVAHIK_clean_linker_0, # of connection points: 2
#     Edge 16, Type (0, 1), BuildingBlock: UVAHIK_clean_linker_0, # of connection points: 2
#     Edge 17, Type (0, 1), BuildingBlock: UVAHIK_clean_linker_0, # of connection points: 2
# Relax obj value: 0.018
# Max RMSD: 0.086
# Mean RMSD: 0.057
data_MOF--net-rtl--node1-KUMBOL_clean_sbu_1--node2-BELTOD_clean_linker_0--edge1-UVAHIK_clean_linker_0
_symmetry_space_group_name_H-M    P1
_symmetry_Int_Tables_number       1
_symmetry_cell_setting            triclinic
loop_
_symmetry_equiv_pos_as_xyz
'x, y, z'
_cell_length_a     46.800025
_cell_length_b     47.187336
_cell_length_c     40.288616
_cell_angle_alpha  81.076587
_cell_angle_beta   99.790882
_cell_angle_gamma 90.23273
loop_
_atom_site_label
_atom_site_type_symbol
_atom_site_fract_x
_atom_site_fract_y
_atom_site_fract_z
_atom_type_partial_charge
P0 P 0.26581 0.89502 0.0214 0.0
H1 H 0.28578 0.90699 0.09008 0.0
H2 H 0.26051 0.91338 0.13684 0.0
H3 H 0.17967 0.89229 0.07733 0.0
H4 H 0.20514 0.88611 0.03054 0.0
H5 H 0.31958 0.87928 0.00111 0.0
H6 H 0.34435 0.83332 0.00389 0.0
H7 H 0.27739 0.78989 0.05265 0.0
H8 H 0.25285 0.83619 0.05014 0.0
H9 H 0.23048 0.9451 0.98769 0.0
H10 H 0.24634 0.85999 0.9674 0.0
O11 O 0.29015 0.92096 0.02109 0.0
H12 H 0.19752 0.9557 0.93315 0.0
H13 H 0.21438 0.87065 0.91247 0.0
C14 C 0.24722 0.89674 0.05664 0.0
C15 C 0.26265 0.90358 0.0872 0.0
C16 C 0.2482 0.90704 0.11398 0.0
C17 C 0.21803 0.90362 0.11065 0.0
C18 C 0.20283 0.89558 0.08041 0.0
C19 C 0.21737 0.89199 0.05369 0.0
C20 C 0.28474 0.86116 0.02605 0.0
C21 C 0.31041 0.85992 0.01279 0.0
C22 C 0.3244 0.8336 0.0141 0.0
C23 C 0.31281 0.80796 0.02847 0.0
C24 C 0.28705 0.8093 0.04184 0.0
C25 C 0.27301 0.83572 0.04043 0.0
C26 C 0.24098 0.90188 0.98153 0.0
C27 C 0.22691 0.92873 0.97141 0.0
C28 C 0.20822 0.9348 0.9401 0.0
C29 C 0.20335 0.91409 0.9182 0.0
C30 C 0.21727 0.88701 0.92878 0.0
C31 C 0.23582 0.88094 0.96019 0.0
P32 P 0.67676 0.69799 0.59386 0.0
H33 H 0.69482 0.68516 0.53233 0.0
H34 H 0.66777 0.67661 0.47722 0.0
H35 H 0.58748 0.69598 0.50886 0.0
H36 H 0.61462 0.70516 0.56389 0.0
H37 H 0.73263 0.71177 0.6304 0.0
H38 H 0.76125 0.75486 0.62768 0.0
H39 H 0.69078 0.80114 0.55693 0.0
H40 H 0.66239 0.75718 0.55912 0.0
H41 H 0.6418 0.64979 0.61258 0.0
H42 H 0.66241 0.73122 0.64585 0.0
O43 O 0.70167 0.67145 0.60313 0.0
H44 H 0.61674 0.63605 0.66095 0.0
H45 H 0.63697 0.71746 0.69441 0.0
C46 C 0.65669 0.69536 0.55229 0.0
C47 C 0.67144 0.68794 0.52728 0.0
C48 C 0.65605 0.68307 0.49591 0.0
C49 C 0.62569 0.6855 0.4892 0.0
C50 C 0.61092 0.69381 0.51379 0.0
C51 C 0.6264 0.69903 0.54509 0.0
C52 C 0.69573 0.73116 0.59433 0.0
C53 C 0.72323 0.7312 0.61442 0.0
C54 C 0.73948 0.75604 0.61312 0.0
C55 C 0.7284 0.78153 0.59196 0.0
C56 C 0.70013 0.78176 0.57306 0.0
C57 C 0.68386 0.75672 0.57434 0.0
C58 C 0.65402 0.69139 0.62578 0.0
C59 C 0.64038 0.66494 0.6299 0.0
C60 C 0.6261 0.65712 0.65744 0.0
C61 C 0.62512 0.67572 0.68121 0.0
C62 C 0.63737 0.70293 0.67614 0.0
C63 C 0.65195 0.7107 0.64855 0.0
P64 P 0.79099 0.16263 0.02112 0.0
H65 H 0.79743 0.18238 0.95099 0.0
H66 H 0.8056 0.15659 0.90495 0.0
H67 H 0.7919 0.0762 0.96677 0.0
H68 H 0.78329 0.10201 0.01275 0.0
H69 H 0.77976 0.20975 0.05493 0.0
H70 H 0.73638 0.23824 0.0547 0.0
H71 H 0.68653 0.18812 0.98526 0.0
H72 H 0.73045 0.15923 0.98576 0.0
H73 H 0.84467 0.13327 0.05433 0.0
H74 H 0.75754 0.1388 0.07471 0.0
O75 O 0.81763 0.18618 0.01969 0.0
H76 H 0.86002 0.10529 0.11038 0.0
H77 H 0.7724 0.10971 0.13079 0.0
C78 C 0.79021 0.14404 0.98535 0.0
C79 C 0.79538 0.15928 0.9543 0.0
C80 C 0.79993 0.14462 0.92804 0.0
C81 C 0.79925 0.11458 0.93257 0.0
C82 C 0.79235 0.09943 0.96287 0.0
C83 C 0.78756 0.11414 0.98908 0.0
C84 C 0.75832 0.18276 0.02 0.0
C85 C 0.75952 0.20482 0.03967 0.0
C86 C 0.73471 0.22092 0.03972 0.0
C87 C 0.70816 0.21523 0.02009 0.0
C88 C 0.70683 0.19293 0.00047 0.0
C89 C 0.73182 0.17652 0.00071 0.0
C90 C 0.80022 0.1386 0.06073 0.0
C91 C 0.82873 0.12803 0.0708 0.0
C92 C 0.83737 0.1117 0.10284 0.0
C93 C 0.81751 0.10524 0.12542 0.0
C94 C 0.78843 0.11469 0.11441 0.0
C95 C 0.77985 0.13125 0.08226 0.0
P96 P 0.3821 0.2525 0.47116 0.0
H97 H 0.4051 0.23487 0.54328 0.0
H98 H 0.41504 0.26113 0.59162 0.0
H99 H 0.38051 0.33891 0.52595 0.0
H100 H 0.37048 0.3124 0.47764 0.0
H101 H 0.36274 0.19667 0.45474 0.0
H102 H 0.31626 0.17283 0.45299 0.0
H103 H 0.27759 0.24877 0.47634 0.0
H104 H 0.32448 0.27234 0.47864 0.0
H105 H 0.4319 0.28342 0.45235 0.0
H106 H 0.34329 0.2729 0.40579 0.0
O107 O 0.40761 0.2266 0.4785 0.0
H108 H 0.44052 0.31382 0.40033 0.0
H109 H 0.35153 0.3038 0.35377 0.0
C110 C 0.38769 0.27184 0.50679 0.0
C111 C 0.39971 0.25758 0.53927 0.0
C112 C 0.40546 0.27262 0.56684 0.0
C113 C 0.39891 0.30216 0.56247 0.0
C114 C 0.38578 0.31616 0.53009 0.0
C115 C 0.3802 0.30109 0.50245 0.0
C116 C 0.34717 0.23602 0.46756 0.0
C117 C 0.34427 0.20822 0.45943 0.0
C118 C 0.31758 0.19469 0.45815 0.0
C119 C 0.29324 0.20882 0.46477 0.0
C120 C 0.29605 0.23713 0.47172 0.0
C121 C 0.3228 0.25065 0.47297 0.0
C122 C 0.38706 0.27584 0.43287 0.0
C123 C 0.41424 0.28786 0.43095 0.0
C124 C 0.41906 0.30539 0.40125 0.0
C125 C 0.3967 0.31131 0.37283 0.0
C126 C 0.36931 0.29941 0.37503 0.0
C127 C 0.36452 0.28184 0.40485 0.0
C128 C 0.95625 0.09109 0.49639 0.0
C129 C 0.90591 0.08116 0.47614 0.0
C130 C 0.9335 0.072 0.49473 0.0
C131 C 0.9016 0.10952 0.45911 0.0
C132 C 0.95198 0.11958 0.4793 0.0
C133 C 0.92455 0.12867 0.46069 0.0
N134 N 0.98262 0.08171 0.51443 0.0
C135 C 0.00549 0.09973 0.51685 0.0
C136 C 0.97543 0.13812 0.48145 0.0
C137 C 0.00229 0.12814 0.50035 0.0
Gd138 Gd 0.02047 0.97101 0.50432 0.0
Gd139 Gd 0.98529 0.03432 0.54279 0.0
N140 N 0.93838 0.04453 0.51127 0.0
C141 C 0.88333 0.06163 0.47558 0.0
C142 C 0.91602 0.026 0.51231 0.0
C143 C 0.88836 0.03402 0.49402 0.0
H144 H 0.91897 0.00541 0.52807 0.0
H145 H 0.87079 0.01907 0.49471 0.0
H146 H 0.08729 0.99811 0.52227 0.0
H147 H 0.02598 0.09245 0.53236 0.0
H148 H 0.13483 0.98241 0.55622 0.0
H149 H 0.86181 0.06785 0.46166 0.0
H150 H 0.88053 0.1169 0.44476 0.0
H151 H 0.97716 0.9146 0.51357 0.0
H152 H 0.97299 0.16019 0.46878 0.0
H153 H 0.02047 0.14239 0.50248 0.0
H154 H 0.12139 0.88449 0.60327 0.0
H155 H 0.92085 0.1505 0.44748 0.0
H156 H 0.02731 0.84485 0.57718 0.0
H157 H 0.98063 0.86453 0.5431 0.0
N158 N 0.02112 0.92347 0.53181 0.0
C159 C 0.04706 0.91304 0.5501 0.0
C160 C 0.99745 0.90646 0.52905 0.0
C161 C 0.02585 0.86693 0.56455 0.0
C162 C 0.99943 0.87799 0.54543 0.0
C163 C 0.05008 0.88447 0.5671 0.0
H164 H 0.07978 0.85245 0.59934 0.0
N165 N 0.0668 0.95891 0.53632 0.0
C166 C 0.07057 0.93122 0.55238 0.0
C167 C 0.12084 0.93993 0.57332 0.0
C168 C 0.09764 0.92111 0.57161 0.0
C169 C 0.08963 0.97695 0.53683 0.0
C170 C 0.11685 0.9679 0.55566 0.0
O171 O 0.98104 0.03943 0.48512 0.0
O172 O 0.9784 0.99254 0.47763 0.0
O173 O 0.04338 0.97558 0.4602 0.0
O174 O 0.01462 0.93975 0.47036 0.0
O175 O 0.96987 0.98876 0.55593 0.0
O176 O 0.97315 0.96817 0.50841 0.0
O177 O 0.02578 0.96658 0.56201 0.0
O178 O 0.02739 0.01341 0.57109 0.0
O179 O 0.9614 0.03056 0.58581 0.0
O180 O 0.9908 0.066 0.57639 0.0
O181 O 0.03738 0.01604 0.4925 0.0
O182 O 0.03257 0.03853 0.53847 0.0
C183 C 0.97459 0.01984 0.46541 0.0
C184 C 0.96254 0.96903 0.53643 0.0
C185 C 0.03674 0.94024 0.42039 0.0
C186 C 0.06115 0.93927 0.37163 0.0
C187 C 0.02318 0.90559 0.38194 0.0
C188 C 0.01965 0.91731 0.41065 0.0
C189 C 0.04374 0.9165 0.36249 0.0
C190 C 0.05773 0.95123 0.40071 0.0
C191 C 0.03179 0.95227 0.45077 0.0
C192 C 0.10074 0.89262 0.58843 0.0
C193 C 0.07705 0.87436 0.58617 0.0
H194 H 0.14198 0.93297 0.58781 0.0
C195 C 0.0325 0.98596 0.582 0.0
C196 C 0.04446 0.03615 0.51161 0.0
C197 C 0.96629 0.06658 0.62445 0.0
C198 C 0.9428 0.06566 0.67416 0.0
C199 C 0.97362 0.10518 0.65838 0.0
C200 C 0.97893 0.09274 0.63082 0.0
C201 C 0.95576 0.09171 0.68001 0.0
C202 C 0.9479 0.05308 0.64618 0.0
C203 C 0.97263 0.05407 0.59503 0.0
H204 H 0.00989 0.88797 0.37471 0.0
H205 H 0.00334 0.90842 0.42516 0.0
H206 H 0.04621 0.90705 0.34024 0.0
H207 H 0.07115 0.96883 0.4078 0.0
H208 H 0.98345 0.12531 0.66304 0.0
H209 H 0.99298 0.10371 0.61446 0.0
H210 H 0.95193 0.10169 0.70139 0.0
H211 H 0.93793 0.03294 0.64167 0.0
C212 C 0.59301 0.54093 0.03401 0.0
C213 C 0.58571 0.59165 0.0112 0.0
C214 C 0.57521 0.56558 0.02631 0.0
C215 C 0.61422 0.59278 0.00448 0.0
C216 C 0.62157 0.54202 0.02709 0.0
C217 C 0.63211 0.56809 0.01249 0.0
N218 N 0.58204 0.51571 0.04721 0.0
C219 C 0.59868 0.49115 0.05527 0.0
C220 C 0.63867 0.5168 0.03484 0.0
C221 C 0.62718 0.49129 0.04906 0.0
Gd222 Gd 0.47112 0.49126 0.98764 0.0
Gd223 Gd 0.53492 0.5185 0.05868 0.0
N224 N 0.54745 0.56384 0.03264 0.0
C225 C 0.56719 0.61585 0.00312 0.0
C226 C 0.52965 0.58758 0.02571 0.0
C227 C 0.5391 0.6138 0.0105 0.0
H228 H 0.50835 0.58666 0.03229 0.0
H229 H 0.52478 0.63252 0.00477 0.0
H230 H 0.48999 0.42222 0.99877 0.0
H231 H 0.59019 0.47153 0.06703 0.0
H232 H 0.46883 0.37496 0.01452 0.0
H233 H 0.57442 0.63624 0.9914 0.0
H234 H 0.62263 0.61267 0.99299 0.0
H235 H 0.41641 0.54022 0.97576 0.0
H236 H 0.66075 0.5168 0.03001 0.0
H237 H 0.64034 0.47175 0.05541 0.0
H238 H 0.37147 0.39802 0.02618 0.0
H239 H 0.65401 0.56933 0.00706 0.0
H240 H 0.34135 0.49714 0.00311 0.0
H241 H 0.36561 0.54191 0.98398 0.0
N242 N 0.42212 0.49535 0.99341 0.0
C243 C 0.40872 0.47038 0.00222 0.0
C244 C 0.40668 0.52071 0.98573 0.0
C245 C 0.36395 0.49635 0.00034 0.0
C246 C 0.3776 0.52167 0.98966 0.0
C247 C 0.37935 0.4702 0.00619 0.0
H248 H 0.34369 0.44343 0.01863 0.0
N249 N 0.45231 0.4458 0.0019 0.0
C250 C 0.42418 0.4448 0.00614 0.0
C251 C 0.42739 0.393 0.018 0.0
C252 C 0.41096 0.41836 0.01454 0.0
C253 C 0.46809 0.42118 0.00379 0.0
C254 C 0.45605 0.39443 0.01239 0.0
O255 O 0.54082 0.52132 0.00354 0.0
O256 O 0.49444 0.53253 0.97897 0.0
O257 O 0.47981 0.47243 0.94369 0.0
O258 O 0.44668 0.50538 0.93754 0.0
O259 O 0.49041 0.5387 0.05478 0.0
O260 O 0.46717 0.5361 0.99982 0.0
O261 O 0.47429 0.46756 0.04198 0.0
O262 O 0.49509 0.49924 0.07731 0.0
O263 O 0.5447 0.5458 0.09795 0.0
O264 O 0.56158 0.50135 0.10734 0.0
O265 O 0.51674 0.47264 0.9971 0.0
O266 O 0.53558 0.47131 0.05438 0.0
C267 C 0.52193 0.53276 0.97717 0.0
C268 C 0.46896 0.54576 0.02906 0.0
C269 C 0.43876 0.47214 0.8991 0.0
C270 C 0.4298 0.44755 0.84942 0.0
C271 C 0.38944 0.46175 0.8743 0.0
C272 C 0.40866 0.47304 0.89904 0.0
C273 C 0.39991 0.44908 0.84962 0.0
C274 C 0.44928 0.45927 0.87407 0.0
C275 C 0.45871 0.48708 0.92291 0.0
C276 C 0.38195 0.4181 0.01942 0.0
C277 C 0.36618 0.44397 0.01523 0.0
H278 H 0.41811 0.37226 0.02468 0.0
C279 C 0.48034 0.47604 0.07207 0.0
C280 C 0.53211 0.45993 0.02604 0.0
C281 C 0.5741 0.52941 0.15357 0.0
C282 C 0.57592 0.55126 0.20502 0.0
C283 C 0.61115 0.51414 0.20307 0.0
C284 C 0.59825 0.51197 0.16977 0.0
C285 C 0.59994 0.53343 0.22071 0.0
C286 C 0.56326 0.54958 0.1711 0.0
C287 C 0.55985 0.52545 0.11908 0.0
H288 H 0.36633 0.46297 0.87413 0.0
H289 H 0.39982 0.48297 0.91771 0.0
H290 H 0.38465 0.44045 0.83055 0.0
H291 H 0.47235 0.45862 0.87356 0.0
H292 H 0.62976 0.50061 0.21539 0.0
H293 H 0.6071 0.49656 0.1567 0.0
H294 H 0.61015 0.53458 0.2467 0.0
H295 H 0.54457 0.56313 0.15894 0.0
C296 C 0.25528 0.17557 0.44192 0.0
C297 C 0.26549 0.19354 0.46594 0.0
C298 C 0.23013 0.15984 0.44442 0.0
C299 C 0.16481 0.15466 0.4863 0.0
H300 H 0.16455 0.07621 0.46846 0.0
C301 C 0.08171 0.07199 0.52859 0.0
C302 C 0.06884 0.05503 0.50456 0.0
C303 C 0.10477 0.08967 0.5221 0.0
C304 C 0.16419 0.09818 0.47318 0.0
H305 H 0.25718 0.20908 0.51138 0.0
H306 H 0.21359 0.18153 0.51596 0.0
H307 H 0.20623 0.10598 0.46006 0.0
H308 H 0.07063 0.04297 0.4551 0.0
H309 H 0.11127 0.07357 0.44406 0.0
H310 H 0.12302 0.14647 0.50027 0.0
C311 C 0.22463 0.17997 0.49475 0.0
C312 C 0.18803 0.1153 0.46827 0.0
C313 C 0.24968 0.19579 0.49215 0.0
C314 C 0.07994 0.05582 0.47412 0.0
C315 C 0.10326 0.07327 0.46781 0.0
C316 C 0.1411 0.13744 0.49148 0.0
C317 C 0.21465 0.16159 0.47111 0.0
C318 C 0.18873 0.14373 0.47495 0.0
C319 C 0.11582 0.09048 0.49167 0.0
C320 C 0.14061 0.10899 0.48514 0.0
H321 H 0.26675 0.17367 0.42115 0.0
H322 H 0.22282 0.14632 0.42539 0.0
H323 H 0.16432 0.17659 0.4911 0.0
H324 H 0.0742 0.07144 0.55266 0.0
H325 H 0.11434 0.10233 0.54121 0.0
C326 C 0.33092 0.75887 0.05809 0.0
C327 C 0.32741 0.77998 0.0289 0.0
C328 C 0.34549 0.73292 0.05867 0.0
C329 C 0.39727 0.70019 0.01453 0.0
H330 H 0.3721 0.62853 0.06075 0.0
C331 C 0.442 0.59054 0.99959 0.0
C332 C 0.45099 0.57116 0.02973 0.0
C333 C 0.42644 0.61551 0.0002 0.0
C334 C 0.37948 0.64845 0.04801 0.0
H335 H 0.33548 0.78998 0.97698 0.0
H336 H 0.36043 0.74469 0.97774 0.0
H337 H 0.34535 0.67308 0.05989 0.0
H338 H 0.45057 0.56238 0.08401 0.0
H339 H 0.42273 0.60611 0.08501 0.0
H340 H 0.43106 0.6754 0.00213 0.0
C341 C 0.35267 0.74839 0.00057 0.0
C342 C 0.36423 0.67398 0.04755 0.0
C343 C 0.3383 0.77436 9e-05 0.0
C344 C 0.4438 0.577 0.06045 0.0
C345 C 0.42783 0.60188 0.06098 0.0
C346 C 0.41231 0.67466 0.01473 0.0
C347 C 0.35671 0.72743 0.02997 0.0
C348 C 0.37291 0.70018 0.03073 0.0
C349 C 0.4193 0.62152 0.03089 0.0
C350 C 0.40353 0.64855 0.03138 0.0
H351 H 0.323 0.76269 0.08079 0.0
H352 H 0.3485 0.71745 0.08189 0.0
H353 H 0.40499 0.71999 0.00196 0.0
H354 H 0.44759 0.58677 0.97559 0.0
H355 H 0.41996 0.63017 0.9766 0.0
C356 C 0.74815 0.82249 0.55545 0.0
C357 C 0.74738 0.80677 0.58793 0.0
C358 C 0.76937 0.843 0.5508 0.0
C359 C 0.84346 0.85784 0.58993 0.0
H360 H 0.83232 0.92923 0.52654 0.0
C361 C 0.93419 0.9401 0.57628 0.0
C362 C 0.93791 0.95067 0.54284 0.0
C363 C 0.91025 0.92347 0.58222 0.0
C364 C 0.83572 0.90924 0.54415 0.0
H365 H 0.76666 0.80222 0.64146 0.0
H366 H 0.8037 0.83782 0.63331 0.0
H367 H 0.79036 0.90011 0.53687 0.0
H368 H 0.91955 0.95273 0.48934 0.0
H369 H 0.87731 0.92417 0.49974 0.0
H370 H 0.88877 0.86688 0.59712 0.0
C371 C 0.78833 0.83381 0.61131 0.0
C372 C 0.81174 0.89261 0.55008 0.0
C373 C 0.76708 0.81342 0.61597 0.0
C374 C 0.91728 0.94452 0.51539 0.0
C375 C 0.89301 0.92845 0.52133 0.0
C376 C 0.86736 0.87449 0.58412 0.0
C377 C 0.7903 0.84816 0.57853 0.0
C378 C 0.81536 0.86669 0.57303 0.0
C379 C 0.88929 0.91771 0.5548 0.0
C380 C 0.86376 0.90031 0.56113 0.0
H381 H 0.73344 0.81782 0.53325 0.0
H382 H 0.77033 0.85365 0.5252 0.0
H383 H 0.84711 0.83766 0.60714 0.0
H384 H 0.94988 0.94457 0.5978 0.0
H385 H 0.90785 0.91551 0.60828 0.0
C386 C 0.67551 0.23897 0.05071 0.0
C387 C 0.68256 0.23356 0.01976 0.0
C388 C 0.65547 0.26063 0.0511 0.0
C389 C 0.59946 0.31146 0.99828 0.0
H390 H 0.62876 0.36058 0.06468 0.0
C391 C 0.55122 0.42467 0.99433 0.0
C392 C 0.54838 0.43321 0.02557 0.0
C393 C 0.566 0.39922 0.99357 0.0
C394 C 0.62 0.34692 0.04632 0.0
H395 H 0.67283 0.24498 0.96482 0.0
H396 H 0.63778 0.28326 0.96539 0.0
H397 H 0.65536 0.31681 0.06327 0.0
H398 H 0.55879 0.42164 0.08053 0.0
H399 H 0.58445 0.37702 0.07925 0.0
H400 H 0.56416 0.34188 0.98118 0.0
C401 C 0.64762 0.27062 0.98937 0.0
C402 C 0.63524 0.32177 0.04552 0.0
C403 C 0.66763 0.24873 0.98899 0.0
C404 C 0.56077 0.41577 0.05606 0.0
C405 C 0.57553 0.39024 0.0553 0.0
C406 C 0.58411 0.33667 0.99913 0.0
C407 C 0.64222 0.27751 0.02054 0.0
C408 C 0.62514 0.30371 0.02158 0.0
C409 C 0.57828 0.38165 0.02404 0.0
C410 C 0.59424 0.35468 0.0232 0.0
H411 H 0.68649 0.22725 0.07474 0.0
H412 H 0.65118 0.26491 0.07546 0.0
H413 H 0.59108 0.29793 0.97962 0.0
H414 H 0.54208 0.4377 0.97032 0.0
H415 H 0.56814 0.39352 0.96907 0.0
C416 C 0.17645 0.92613 0.12979 0.0
C417 C 0.20243 0.90978 0.13801 0.0
C418 C 0.1627 0.93361 0.1555 0.0
C419 C 0.17633 0.94003 0.2477 0.0
H420 H 0.09244 0.93999 0.23632 0.0
C421 C 0.11067 0.93677 0.35765 0.0
C422 C 0.08278 0.94941 0.35008 0.0
C423 C 0.12787 0.93797 0.33225 0.0
C424 C 0.11588 0.9407 0.2397 0.0
H425 H 0.23381 0.8876 0.17966 0.0
H426 H 0.20955 0.90015 0.22457 0.0
H427 H 0.11624 0.92795 0.19115 0.0
H428 H 0.05171 0.975 0.31128 0.0
H429 H 0.08201 0.97797 0.2671 0.0
H430 H 0.17581 0.95199 0.29682 0.0
C431 C 0.20018 0.9079 0.19826 0.0
C432 C 0.12956 0.93368 0.21375 0.0
C433 C 0.21403 0.90057 0.17253 0.0
C434 C 0.07333 0.96541 0.31772 0.0
C435 C 0.09051 0.9667 0.29236 0.0
C436 C 0.16261 0.94694 0.27378 0.0
C437 C 0.17449 0.92476 0.19009 0.0
C438 C 0.15998 0.93302 0.21748 0.0
C439 C 0.11731 0.95172 0.29884 0.0
C440 C 0.1322 0.94718 0.27017 0.0
H441 H 0.16718 0.93391 0.10345 0.0
H442 H 0.14316 0.94691 0.1482 0.0
H443 H 0.19979 0.94025 0.25121 0.0
H444 H 0.11811 0.92387 0.38229 0.0
H445 H 0.14833 0.92611 0.33811 0.0
C446 C 0.58975 0.67709 0.72136 0.0
C447 C 0.61438 0.66494 0.71303 0.0
C448 C 0.57846 0.66447 0.7501 0.0
C449 C 0.5801 0.5946 0.80721 0.0
H450 H 0.54893 0.63814 0.8675 0.0
C451 C 0.55931 0.54372 0.93985 0.0
C452 C 0.53185 0.54928 0.94729 0.0
C453 C 0.56825 0.55889 0.91092 0.0
C454 C 0.55741 0.62578 0.85068 0.0
H455 H 0.64759 0.6315 0.7286 0.0
H456 H 0.62873 0.61012 0.77915 0.0
H457 H 0.56667 0.66346 0.81743 0.0
H458 H 0.49256 0.57561 0.93112 0.0
H459 H 0.5085 0.60249 0.88086 0.0
H460 H 0.5715 0.55701 0.84083 0.0
C461 C 0.61733 0.6286 0.76315 0.0
C462 C 0.56745 0.64023 0.82199 0.0
C463 C 0.62831 0.64094 0.73441 0.0
C464 C 0.51376 0.57071 0.92579 0.0
C465 C 0.52291 0.58623 0.8972 0.0
C466 C 0.5704 0.58025 0.83598 0.0
C467 C 0.59187 0.6397 0.77092 0.0
C468 C 0.57935 0.62477 0.80023 0.0
C469 C 0.55009 0.58022 0.88931 0.0
C470 C 0.55932 0.59568 0.85821 0.0
H471 H 0.57873 0.69564 0.70505 0.0
H472 H 0.55878 0.67352 0.75535 0.0
H473 H 0.58831 0.58197 0.79046 0.0
H474 H 0.57367 0.52734 0.95605 0.0
H475 H 0.58942 0.55404 0.90548 0.0
C476 C 0.85088 0.0704 0.16791 0.0
C477 C 0.82795 0.09075 0.16098 0.0
C478 C 0.86438 0.06071 0.20135 0.0
C479 C 0.87263 0.08175 0.28819 0.0
H480 H 0.91768 0.01069 0.31218 0.0
C481 C 0.9532 0.05678 0.41547 0.0
C482 C 0.95755 0.02796 0.43081 0.0
C483 C 0.93671 0.06386 0.38278 0.0
C484 C 0.90485 0.03042 0.30638 0.0
H485 H 0.79956 0.11483 0.18437 0.0
H486 H 0.82142 0.09617 0.24261 0.0
H487 H 0.88679 0.02092 0.25729 0.0
H488 H 0.94797 0.98398 0.42384 0.0
H489 H 0.91846 0.99616 0.36833 0.0
H490 H 0.88907 0.09016 0.33839 0.0
C491 C 0.83022 0.08891 0.22215 0.0
C492 C 0.88744 0.03662 0.2743 0.0
C493 C 0.81719 0.0992 0.18857 0.0
C494 C 0.94514 0.00644 0.41283 0.0
C495 C 0.92836 0.01348 0.38058 0.0
C496 C 0.88934 0.07511 0.32072 0.0
C497 C 0.85478 0.0704 0.22902 0.0
C498 C 0.87137 0.06259 0.26443 0.0
C499 C 0.92393 0.04227 0.36491 0.0
C500 C 0.90594 0.04945 0.33023 0.0
H501 H 0.85923 0.06269 0.1474 0.0
H502 H 0.88321 0.04663 0.2051 0.0
H503 H 0.86117 0.10225 0.28165 0.0
H504 H 0.96267 0.07385 0.42855 0.0
H505 H 0.93435 0.08625 0.37149 0.0
C506 C 0.43364 0.31409 0.61271 0.0
C507 C 0.4064 0.31831 0.59149 0.0
C508 C 0.44086 0.32915 0.64011 0.0
C509 C 0.41844 0.39253 0.67528 0.0
H510 H 0.46343 0.35324 0.75948 0.0
C511 C 0.44469 0.44969 0.7925 0.0
C512 C 0.4397 0.43341 0.82308 0.0
C513 C 0.44658 0.4363 0.76422 0.0
C514 C 0.45081 0.36455 0.7362 0.0
H515 H 0.36526 0.34149 0.58249 0.0
H516 H 0.37746 0.36728 0.63081 0.0
H517 H 0.45268 0.32854 0.71031 0.0
H518 H 0.43416 0.39064 0.84903 0.0
H519 H 0.43741 0.36714 0.80001 0.0
H520 H 0.41514 0.42794 0.70176 0.0
C521 C 0.39363 0.35288 0.62585 0.0
C522 C 0.4449 0.35047 0.70778 0.0
C523 C 0.38653 0.338 0.59821 0.0
C524 C 0.43842 0.40349 0.82574 0.0
C525 C 0.4403 0.3901 0.79758 0.0
C526 C 0.42414 0.40652 0.70379 0.0
C527 C 0.42091 0.34865 0.6472 0.0
C528 C 0.42833 0.36414 0.67703 0.0
C529 C 0.44332 0.40642 0.76606 0.0
C530 C 0.4401 0.3926 0.73478 0.0
H531 H 0.44958 0.29938 0.60783 0.0
H532 H 0.46225 0.32569 0.65549 0.0
H533 H 0.40605 0.40397 0.65193 0.0
H534 H 0.44538 0.47287 0.78986 0.0
H535 H 0.44945 0.44949 0.74056 0.0
C536 C 0.59504 0.65227 0.45673 0.0
C537 C 0.60971 0.67821 0.45696 0.0
C538 C 0.58308 0.64352 0.42579 0.0
C539 C 0.59297 0.65486 0.33576 0.0
H540 H 0.52581 0.60672 0.32429 0.0
C541 C 0.56792 0.60082 0.21713 0.0
C542 C 0.56468 0.5711 0.2251 0.0
C543 C 0.5649 0.61869 0.24111 0.0
C544 C 0.54455 0.62024 0.32703 0.0
H545 H 0.62245 0.71605 0.42583 0.0
H546 H 0.60061 0.7015 0.37166 0.0
H547 H 0.5374 0.629 0.37565 0.0
H548 H 0.55308 0.53702 0.26254 0.0
H549 H 0.54775 0.56794 0.3043 0.0
H550 H 0.60081 0.64543 0.28795 0.0
C551 C 0.59891 0.68742 0.39514 0.0
C552 C 0.55127 0.63292 0.35655 0.0
C553 C 0.61122 0.69592 0.42605 0.0
C554 C 0.55573 0.55991 0.25593 0.0
C555 C 0.55257 0.57771 0.27979 0.0
C556 C 0.58623 0.64229 0.30632 0.0
C557 C 0.58536 0.66075 0.39453 0.0
C558 C 0.57597 0.64989 0.36162 0.0
C559 C 0.55855 0.60709 0.27339 0.0
C560 C 0.56235 0.62425 0.30189 0.0
H561 H 0.59397 0.6382 0.48043 0.0
H562 H 0.57324 0.62268 0.42641 0.0
H563 H 0.61245 0.66732 0.33893 0.0
H564 H 0.57488 0.6099 0.1935 0.0
H565 H 0.5691 0.64134 0.23512 0.0
C566 C 0.79306 0.09717 0.87624 0.0
C567 C 0.81005 0.09924 0.90793 0.0
C568 C 0.80506 0.08558 0.85157 0.0
C569 C 0.87628 0.07799 0.82721 0.0
H570 H 0.83749 0.02974 0.76448 0.0
C571 C 0.93731 0.04222 0.73193 0.0
C572 C 0.9243 0.05244 0.69823 0.0
C573 C 0.9209 0.03948 0.75803 0.0
C574 C 0.84851 0.04314 0.78195 0.0
H575 H 0.85225 0.09055 0.93947 0.0
H576 H 0.87331 0.07031 0.89666 0.0
H577 H 0.81334 0.04224 0.81014 0.0
H578 H 0.88378 0.06521 0.6646 0.0
H579 H 0.85479 0.06027 0.71048 0.0
H580 H 0.91117 0.07933 0.7992 0.0
C581 C 0.85082 0.07755 0.89058 0.0
C582 C 0.8347 0.0504 0.80791 0.0
C583 C 0.83879 0.08889 0.91518 0.0
C584 C 0.89411 0.05695 0.69044 0.0
C585 C 0.8776 0.05421 0.71666 0.0
C586 C 0.89004 0.07061 0.80165 0.0
C587 C 0.83434 0.07638 0.8582 0.0
C588 C 0.84856 0.06786 0.83086 0.0
C589 C 0.89125 0.04713 0.75085 0.0
C590 C 0.87643 0.05305 0.77883 0.0
H591 H 0.77084 0.10522 0.87029 0.0
H592 H 0.79187 0.0851 0.82684 0.0
H593 H 0.88722 0.09219 0.84372 0.0
H594 H 0.96061 0.03885 0.73845 0.0
H595 H 0.93185 0.03365 0.78416 0.0
C596 C 0.39131 0.32177 0.30884 0.0
C597 C 0.40228 0.32935 0.34092 0.0
C598 C 0.39785 0.33791 0.27899 0.0
C599 C 0.42412 0.40888 0.24454 0.0
H600 H 0.4453 0.36867 0.17502 0.0
C601 C 0.4775 0.46678 0.13462 0.0
C602 C 0.46975 0.45911 0.10191 0.0
C603 C 0.468 0.451 0.1629 0.0
C604 C 0.43905 0.3803 0.19391 0.0
H605 H 0.42799 0.36045 0.36659 0.0
H606 H 0.43976 0.38828 0.31469 0.0
H607 H 0.43067 0.34148 0.22576 0.0
H608 H 0.44635 0.42805 0.07409 0.0
H609 H 0.42879 0.40121 0.12298 0.0
H610 H 0.43255 0.44767 0.21288 0.0
C611 C 0.42595 0.36995 0.31253 0.0
C612 C 0.43066 0.36468 0.22305 0.0
C613 C 0.41947 0.35379 0.34235 0.0
C614 C 0.45235 0.435 0.09851 0.0
C615 C 0.44258 0.41933 0.12678 0.0
C616 C 0.43243 0.42449 0.2154 0.0
C617 C 0.41544 0.36209 0.28048 0.0
C618 C 0.42329 0.37876 0.24886 0.0
C619 C 0.45028 0.42714 0.1594 0.0
C620 C 0.44026 0.41043 0.1898 0.0
H621 H 0.37821 0.30294 0.30682 0.0
H622 H 0.38911 0.33145 0.25471 0.0
H623 H 0.41813 0.42046 0.26362 0.0
H624 H 0.49121 0.48492 0.13861 0.0
H625 H 0.47496 0.45732 0.18768 0.0
C626 C 0.18459 0.94828 0.86457 0.0
C627 C 0.18441 0.92091 0.88417 0.0
C628 C 0.16748 0.95451 0.83226 0.0
C629 C 0.10499 0.92831 0.7754 0.0
H630 H 0.13666 0.9782 0.70535 0.0
C631 C 0.05217 0.94814 0.63174 0.0
C632 C 0.04957 0.97713 0.61651 0.0
C633 C 0.06826 0.9402 0.66453 0.0
C634 C 0.12749 0.96433 0.7247 0.0
H635 H 0.16541 0.87882 0.88519 0.0
H636 H 0.13655 0.88929 0.82832 0.0
H637 H 0.16524 0.96648 0.76223 0.0
H638 H 0.06189 0.02046 0.62377 0.0
H639 H 0.09 0.00654 0.68054 0.0
H640 H 0.0674 0.92587 0.73722 0.0
C641 C 0.14954 0.90616 0.83816 0.0
C642 C 0.14378 0.95773 0.75742 0.0
C643 C 0.16646 0.90001 0.87066 0.0
C644 C 0.06342 0.99794 0.63468 0.0
C645 C 0.07967 0.98998 0.66717 0.0
C646 C 0.08882 0.93468 0.74247 0.0
C647 C 0.14997 0.93345 0.81842 0.0
C648 C 0.13267 0.93987 0.78335 0.0
C649 C 0.08228 0.96107 0.68245 0.0
C650 C 0.09982 0.95299 0.71692 0.0
H651 H 0.19836 0.96485 0.87389 0.0
H652 H 0.16802 0.97593 0.81815 0.0
H653 H 0.09553 0.9148 0.79476 0.0
H654 H 0.04165 0.93161 0.61849 0.0
H655 H 0.07006 0.91773 0.67567 0.0
loop_
_geom_bond_atom_site_label_1
_geom_bond_atom_site_label_2
_geom_bond_distance
_geom_bond_site_symmetry_2
_ccdc_geom_bond_type
P0 O11 1.490 . S
P0 C14 1.812 . S
P0 C20 1.803 . S
P0 C26 1.819 1_554 S
H1 C15 0.941 . S
H2 C16 0.939 . S
H3 C18 0.940 . S
H4 C19 0.940 . S
H5 C21 0.939 . S
H6 C22 0.942 . S
H7 C24 0.940 . S
H8 C25 0.939 . S
H9 C27 0.941 . S
H10 C31 0.939 . S
O11 P0 1.490 . S
H12 C28 0.939 . S
H13 C30 0.940 . S
C14 P0 1.812 . S
C14 C15 1.389 . S
C14 C19 1.391 . S
C15 H1 0.941 . S
C15 C14 1.389 . S
C15 C16 1.397 . S
C16 H2 0.939 . S
C16 C15 1.397 . S
C16 C17 1.378 . S
C17 C16 1.378 . S
C17 C18 1.378 . S
C18 H3 0.940 . S
C18 C17 1.378 . S
C18 C19 1.396 . S
C19 H4 0.940 . S
C19 C14 1.391 . S
C19 C18 1.396 . S
C20 P0 1.803 . S
C20 C21 1.378 . S
C20 C25 1.400 . S
C21 H5 0.939 . S
C21 C20 1.378 . S
C21 C22 1.361 . S
C22 H6 0.942 . S
C22 C21 1.361 . S
C22 C23 1.369 . S
C23 C22 1.369 . S
C23 C24 1.404 . S
C24 H7 0.940 . S
C24 C23 1.404 . S
C24 C25 1.389 . S
C25 H8 0.939 . S
C25 C20 1.400 . S
C25 C24 1.389 . S
C26 P0 1.819 1_556 S
C26 C27 1.391 . S
C26 C31 1.391 . S
C27 H9 0.941 . S
C27 C26 1.391 . S
C27 C28 1.396 . S
C28 H12 0.939 . S
C28 C27 1.396 . S
C28 C29 1.397 . S
C29 C28 1.397 . S
C29 C30 1.385 . S
C30 H13 0.940 . S
C30 C29 1.385 . S
C30 C31 1.388 . S
C31 H10 0.939 . S
C31 C26 1.391 . S
C31 C30 1.388 . S
P32 O43 1.490 . S
P32 C46 1.812 . S
P32 C52 1.803 . S
P32 C58 1.819 . S
H33 C47 0.941 . S
H34 C48 0.939 . S
H35 C50 0.940 . S
H36 C51 0.940 . S
H37 C53 0.939 . S
H38 C54 0.942 . S
H39 C56 0.940 . S
H40 C57 0.939 . S
H41 C59 0.941 . S
H42 C63 0.939 . S
O43 P32 1.490 . S
H44 C60 0.939 . S
H45 C62 0.940 . S
C46 P32 1.812 . S
C46 C47 1.389 . S
C46 C51 1.391 . S
C47 H33 0.941 . S
C47 C46 1.389 . S
C47 C48 1.397 . S
C48 H34 0.939 . S
C48 C47 1.397 . S
C48 C49 1.378 . S
C49 C48 1.378 . S
C49 C50 1.378 . S
C50 H35 0.940 . S
C50 C49 1.378 . S
C50 C51 1.396 . S
C51 H36 0.940 . S
C51 C46 1.391 . S
C51 C50 1.396 . S
C52 P32 1.803 . S
C52 C53 1.378 . S
C52 C57 1.400 . S
C53 H37 0.939 . S
C53 C52 1.378 . S
C53 C54 1.361 . S
C54 H38 0.942 . S
C54 C53 1.361 . S
C54 C55 1.369 . S
C55 C54 1.369 . S
C55 C56 1.404 . S
C56 H39 0.940 . S
C56 C55 1.404 . S
C56 C57 1.389 . S
C57 H40 0.939 . S
C57 C52 1.400 . S
C57 C56 1.389 . S
C58 P32 1.819 . S
C58 C59 1.391 . S
C58 C63 1.391 . S
C59 H41 0.941 . S
C59 C58 1.391 . S
C59 C60 1.396 . S
C60 H44 0.939 . S
C60 C59 1.396 . S
C60 C61 1.397 . S
C61 C60 1.397 . S
C61 C62 1.385 . S
C62 H45 0.940 . S
C62 C61 1.385 . S
C62 C63 1.388 . S
C63 H42 0.939 . S
C63 C58 1.391 . S
C63 C62 1.388 . S
P64 O75 1.490 . S
P64 C78 1.812 1_554 S
P64 C84 1.803 . S
P64 C90 1.819 . S
H65 C79 0.941 . S
H66 C80 0.939 . S
H67 C82 0.940 . S
H68 C83 0.940 1_554 S
H69 C85 0.939 . S
H70 C86 0.942 . S
H71 C88 0.940 1_556 S
H72 C89 0.946 . S
H73 C91 0.941 . S
H74 C95 0.939 . S
O75 P64 1.490 . S
H76 C92 0.939 . S
H77 C94 0.940 . S
C78 P64 1.812 1_556 S
C78 C79 1.389 . S
C78 C83 1.391 . S
C79 H65 0.941 . S
C79 C78 1.389 . S
C79 C80 1.397 . S
C80 H66 0.939 . S
C80 C79 1.397 . S
C80 C81 1.378 . S
C81 C80 1.378 . S
C81 C82 1.378 . S
C82 H67 0.940 . S
C82 C81 1.378 . S
C82 C83 1.396 . S
C83 H68 0.940 1_556 S
C83 C78 1.391 . S
C83 C82 1.396 . S
C84 P64 1.803 . S
C84 C85 1.378 . S
C84 C89 1.400 . S
C85 H69 0.939 . S
C85 C84 1.378 . S
C85 C86 1.361 . S
C86 H70 0.942 . S
C86 C85 1.361 . S
C86 C87 1.369 . S
C87 C86 1.369 . S
C87 C88 1.404 . S
C88 H71 0.940 1_554 S
C88 C87 1.404 . S
C88 C89 1.389 . S
C89 H72 0.946 . S
C89 C84 1.400 . S
C89 C88 1.389 . S
C90 P64 1.819 . S
C90 C91 1.391 . S
C90 C95 1.391 . S
C91 H73 0.941 . S
C91 C90 1.391 . S
C91 C92 1.396 . S
C92 H76 0.939 . S
C92 C91 1.396 . S
C92 C93 1.397 . S
C93 C92 1.397 . S
C93 C94 1.385 . S
C94 H77 0.940 . S
C94 C93 1.385 . S
C94 C95 1.388 . S
C95 H74 0.939 . S
C95 C90 1.391 . S
C95 C94 1.388 . S
P96 O107 1.490 . S
P96 C110 1.812 . S
P96 C116 1.803 . S
P96 C122 1.819 . S
H97 C111 0.941 . S
H98 C112 0.939 . S
H99 C114 0.940 . S
H100 C115 0.940 . S
H101 C117 0.939 . S
H102 C118 0.942 . S
H103 C120 0.940 . S
H104 C121 0.939 . S
H105 C123 0.941 . S
H106 C127 0.939 . S
O107 P96 1.490 . S
H108 C124 0.939 . S
H109 C126 0.940 . S
C110 P96 1.812 . S
C110 C111 1.389 . S
C110 C115 1.391 . S
C111 H97 0.941 . S
C111 C110 1.389 . S
C111 C112 1.397 . S
C112 H98 0.939 . S
C112 C111 1.397 . S
C112 C113 1.378 . S
C113 C112 1.378 . S
C113 C114 1.378 . S
C114 H99 0.940 . S
C114 C113 1.378 . S
C114 C115 1.396 . S
C115 H100 0.940 . S
C115 C110 1.391 . S
C115 C114 1.396 . S
C116 P96 1.803 . S
C116 C117 1.378 . S
C116 C121 1.400 . S
C117 H101 0.939 . S
C117 C116 1.378 . S
C117 C118 1.361 . S
C118 H102 0.942 . S
C118 C117 1.361 . S
C118 C119 1.369 . S
C119 C118 1.369 . S
C119 C120 1.404 . S
C120 H103 0.940 . S
C120 C119 1.404 . S
C120 C121 1.389 . S
C121 H104 0.939 . S
C121 C116 1.400 . S
C121 C120 1.389 . S
C122 P96 1.819 . S
C122 C123 1.391 . S
C122 C127 1.391 . S
C123 H105 0.941 . S
C123 C122 1.391 . S
C123 C124 1.396 . S
C124 H108 0.939 . S
C124 C123 1.396 . S
C124 C125 1.397 . S
C125 C124 1.397 . S
C125 C126 1.385 . S
C126 H109 0.940 . S
C126 C125 1.385 . S
C126 C127 1.388 . S
C127 H106 0.939 . S
C127 C122 1.391 . S
C127 C126 1.388 . S
C128 C130 1.422 . S
C128 C132 1.415 . S
C128 N134 1.369 . S
C129 C130 1.421 . S
C129 C131 1.417 . S
C129 C141 1.422 . S
C130 C128 1.422 . S
C130 C129 1.421 . S
C130 N140 1.359 . S
C131 C129 1.417 . S
C131 C133 1.329 . S
C131 H150 0.930 . S
C132 C128 1.415 . S
C132 C133 1.437 . S
C132 C136 1.413 . S
C133 C131 1.329 . S
C133 C132 1.437 . S
C133 H155 0.929 . S
N134 C128 1.369 . S
N134 C135 1.338 1_655 S
N134 Gd139 2.622 . S
C135 N134 1.338 1_455 S
C135 C137 1.378 1_455 S
C135 H147 0.929 . S
C136 C132 1.413 . S
C136 C137 1.362 . S
C136 H152 0.931 . S
C137 C135 1.378 1_655 S
C137 C136 1.362 . S
C137 H153 0.915 1_655 S
Gd138 N158 2.622 . S
Gd138 N165 2.570 . S
Gd138 O172 2.352 1_465 S
Gd138 O173 2.468 . S
Gd138 O174 2.427 . S
Gd138 O176 2.388 1_455 S
Gd138 O177 2.386 . S
Gd138 O181 2.307 1_565 S
Gd138 C191 2.805 . S
Gd139 N134 2.622 . S
Gd139 N140 2.570 . S
Gd139 O171 2.386 . S
Gd139 O175 2.307 1_545 S
Gd139 O178 2.353 1_655 S
Gd139 O179 2.468 . S
Gd139 O180 2.427 . S
Gd139 O182 2.388 1_655 S
Gd139 C203 2.805 . S
N140 C130 1.359 . S
N140 Gd139 2.570 . S
N140 C142 1.343 . S
C141 C129 1.422 . S
C141 C143 1.321 . S
C141 H149 0.931 . S
C142 N140 1.343 . S
C142 C143 1.390 . S
C142 H144 0.931 . S
C143 C141 1.321 . S
C143 C142 1.390 . S
C143 H145 0.930 . S
H144 C142 0.931 . S
H145 C143 0.930 . S
H146 C169 0.931 . S
H147 C135 0.929 . S
H148 C170 0.930 . S
H149 C141 0.931 . S
H150 C131 0.930 . S
H151 C160 0.929 1_655 S
H152 C136 0.931 . S
H153 C137 0.915 1_455 S
H154 C192 0.930 . S
H155 C133 0.929 . S
H156 C161 0.931 . S
H157 C162 0.930 1_655 S
N158 Gd138 2.622 . S
N158 C159 1.369 . S
N158 C160 1.338 . S
C159 N158 1.369 . S
C159 C163 1.415 . S
C159 C166 1.422 . S
C160 H151 0.929 1_455 S
C160 N158 1.338 . S
C160 C162 1.378 . S
C161 H156 0.931 . S
C161 C162 1.348 . S
C161 C163 1.413 . S
C162 H157 0.930 1_455 S
C162 C160 1.378 . S
C162 C161 1.348 . S
C163 C159 1.415 . S
C163 C161 1.413 . S
C163 C193 1.437 . S
H164 C193 0.929 . S
N165 Gd138 2.570 . S
N165 C166 1.359 . S
N165 C169 1.343 . S
C166 C159 1.422 . S
C166 N165 1.359 . S
C166 C168 1.421 . S
C167 C168 1.422 . S
C167 C170 1.321 . S
C167 H194 0.931 . S
C168 C166 1.421 . S
C168 C167 1.422 . S
C168 C192 1.417 . S
C169 H146 0.931 . S
C169 N165 1.343 . S
C169 C170 1.390 . S
C170 H148 0.930 . S
C170 C167 1.321 . S
C170 C169 1.390 . S
O171 Gd139 2.386 . S
O171 C183 1.265 . S
O172 Gd138 2.352 1_645 S
O172 C183 1.244 . S
O173 Gd138 2.468 . S
O173 C191 1.263 . S
O174 Gd138 2.427 . S
O174 C191 1.252 . S
O175 Gd139 2.307 1_565 S
O175 C184 1.261 . S
O176 Gd138 2.388 1_655 S
O176 C184 1.252 . S
O177 Gd138 2.386 . S
O177 C195 1.265 . S
O178 Gd139 2.353 1_455 S
O178 C195 1.242 1_545 S
O179 Gd139 2.468 . S
O179 C203 1.263 . S
O180 Gd139 2.427 . S
O180 C203 1.252 . S
O181 Gd138 2.307 1_545 S
O181 C196 1.261 . S
O182 Gd139 2.388 1_455 S
O182 C196 1.252 . S
C183 O171 1.265 . S
C183 O172 1.244 . S
C184 O175 1.261 . S
C184 O176 1.252 . S
C185 C188 1.394 . S
C185 C190 1.370 . S
C185 C191 1.500 . S
C186 C189 1.383 . S
C186 C190 1.395 . S
C187 C188 1.396 . S
C187 C189 1.365 . S
C187 H204 0.929 . S
C188 C185 1.394 . S
C188 C187 1.396 . S
C188 H205 0.930 . S
C189 C186 1.383 . S
C189 C187 1.365 . S
C189 H206 0.931 . S
C190 C185 1.370 . S
C190 C186 1.395 . S
C190 H207 0.930 . S
C191 Gd138 2.805 . S
C191 O173 1.263 . S
C191 O174 1.252 . S
C191 C185 1.500 . S
C192 H154 0.930 . S
C192 C168 1.417 . S
C192 C193 1.329 . S
C193 C163 1.437 . S
C193 H164 0.929 . S
C193 C192 1.329 . S
H194 C167 0.931 . S
C195 O177 1.265 . S
C195 O178 1.242 1_565 S
C196 O181 1.261 . S
C196 O182 1.252 . S
C197 C200 1.394 . S
C197 C202 1.370 . S
C197 C203 1.500 . S
C198 C201 1.383 . S
C198 C202 1.395 . S
C199 C200 1.396 . S
C199 C201 1.365 . S
C199 H208 0.929 . S
C200 C197 1.394 . S
C200 C199 1.396 . S
C200 H209 0.930 . S
C201 C198 1.383 . S
C201 C199 1.365 . S
C201 H210 0.931 . S
C202 C197 1.370 . S
C202 C198 1.395 . S
C202 H211 0.930 . S
C203 Gd139 2.805 . S
C203 O179 1.263 . S
C203 O180 1.252 . S
C203 C197 1.500 . S
H204 C187 0.929 . S
H205 C188 0.930 . S
H206 C189 0.931 . S
H207 C190 0.930 . S
H208 C199 0.929 . S
H209 C200 0.930 . S
H210 C201 0.931 . S
H211 C202 0.930 . S
C212 C214 1.422 . S
C212 C216 1.415 . S
C212 N218 1.369 . S
C213 C214 1.421 . S
C213 C215 1.417 . S
C213 C225 1.422 . S
C214 C212 1.422 . S
C214 C213 1.421 . S
C214 N224 1.359 . S
C215 C213 1.417 . S
C215 C217 1.329 . S
C215 H234 0.930 . S
C216 C212 1.415 . S
C216 C217 1.437 . S
C216 C220 1.413 . S
C217 C215 1.329 . S
C217 C216 1.437 . S
C217 H239 0.929 . S
N218 C212 1.369 . S
N218 C219 1.338 . S
N218 Gd223 2.622 . S
C219 N218 1.338 . S
C219 C221 1.378 . S
C219 H231 0.929 . S
C220 C216 1.413 . S
C220 C221 1.348 . S
C220 H236 0.931 . S
C221 C219 1.378 . S
C221 C220 1.348 . S
C221 H237 0.930 . S
Gd222 N242 2.622 . S
Gd222 N249 2.570 1_556 S
Gd222 O256 2.353 . S
Gd222 O257 2.468 . S
Gd222 O258 2.427 . S
Gd222 O260 2.388 . S
Gd222 O261 2.386 1_556 S
Gd222 O265 2.307 1_556 S
Gd222 C275 2.805 . S
Gd223 N218 2.622 . S
Gd223 N224 2.570 . S
Gd223 O255 2.386 1_554 S
Gd223 O259 2.307 . S
Gd223 O262 2.353 . S
Gd223 O263 2.468 . S
Gd223 O264 2.427 . S
Gd223 O266 2.388 . S
Gd223 C287 2.805 . S
N224 C214 1.359 . S
N224 Gd223 2.570 . S
N224 C226 1.343 . S
C225 C213 1.422 . S
C225 C227 1.321 . S
C225 H233 0.931 . S
C226 N224 1.343 . S
C226 C227 1.390 . S
C226 H228 0.931 . S
C227 C225 1.321 . S
C227 C226 1.390 . S
C227 H229 0.930 . S
H228 C226 0.931 . S
H229 C227 0.930 . S
H230 C253 0.931 . S
H231 C219 0.929 . S
H232 C254 0.930 . S
H233 C225 0.931 . S
H234 C215 0.930 . S
H235 C244 0.929 . S
H236 C220 0.931 . S
H237 C221 0.930 . S
H238 C276 0.930 . S
H239 C217 0.929 . S
H240 C245 0.931 . S
H241 C246 0.930 . S
N242 Gd222 2.622 . S
N242 C243 1.369 1_556 S
N242 C244 1.338 . S
C243 N242 1.369 1_554 S
C243 C247 1.415 . S
C243 C250 1.422 . S
C244 H235 0.929 . S
C244 N242 1.338 . S
C244 C246 1.378 . S
C245 H240 0.931 . S
C245 C246 1.348 1_554 S
C245 C247 1.413 . S
C246 H241 0.930 . S
C246 C244 1.378 . S
C246 C245 1.348 1_556 S
C247 C243 1.415 . S
C247 C245 1.413 . S
C247 C277 1.437 . S
H248 C277 0.929 . S
N249 Gd222 2.570 1_554 S
N249 C250 1.359 . S
N249 C253 1.343 . S
C250 C243 1.422 . S
C250 N249 1.359 . S
C250 C252 1.421 . S
C251 C252 1.422 . S
C251 C254 1.321 . S
C251 H278 0.931 . S
C252 C250 1.421 . S
C252 C251 1.422 . S
C252 C276 1.417 . S
C253 H230 0.931 . S
C253 N249 1.343 . S
C253 C254 1.390 . S
C254 H232 0.930 . S
C254 C251 1.321 . S
C254 C253 1.390 . S
O255 Gd223 2.386 1_556 S
O255 C267 1.265 . S
O256 Gd222 2.353 . S
O256 C267 1.242 . S
O257 Gd222 2.468 . S
O257 C275 1.263 . S
O258 Gd222 2.427 . S
O258 C275 1.252 . S
O259 Gd223 2.307 . S
O259 C268 1.261 . S
O260 Gd222 2.388 . S
O260 C268 1.252 1_556 S
O261 Gd222 2.386 1_554 S
O261 C279 1.265 . S
O262 Gd223 2.353 . S
O262 C279 1.242 . S
O263 Gd223 2.468 . S
O263 C287 1.263 . S
O264 Gd223 2.427 . S
O264 C287 1.252 . S
O265 Gd222 2.307 1_554 S
O265 C280 1.261 . S
O266 Gd223 2.388 . S
O266 C280 1.252 . S
C267 O255 1.265 . S
C267 O256 1.242 . S
C268 O259 1.261 . S
C268 O260 1.252 1_554 S
C269 C272 1.394 . S
C269 C274 1.370 . S
C269 C275 1.500 . S
C270 C273 1.383 . S
C270 C274 1.395 . S
C271 C272 1.396 . S
C271 C273 1.365 . S
C271 H288 0.929 . S
C272 C269 1.394 . S
C272 C271 1.396 . S
C272 H289 0.930 . S
C273 C270 1.383 . S
C273 C271 1.365 . S
C273 H290 0.931 . S
C274 C269 1.370 . S
C274 C270 1.395 . S
C274 H291 0.930 . S
C275 Gd222 2.805 . S
C275 O257 1.263 . S
C275 O258 1.252 . S
C275 C269 1.500 . S
C276 H238 0.930 . S
C276 C252 1.417 . S
C276 C277 1.329 . S
C277 C247 1.437 . S
C277 H248 0.929 . S
C277 C276 1.329 . S
H278 C251 0.931 . S
C279 O261 1.265 . S
C279 O262 1.242 . S
C280 O265 1.261 . S
C280 O266 1.252 . S
C281 C284 1.394 . S
C281 C286 1.370 . S
C281 C287 1.500 . S
C282 C285 1.383 . S
C282 C286 1.395 . S
C283 C284 1.396 . S
C283 C285 1.365 . S
C283 H292 0.929 . S
C284 C281 1.394 . S
C284 C283 1.396 . S
C284 H293 0.930 . S
C285 C282 1.383 . S
C285 C283 1.365 . S
C285 H294 0.931 . S
C286 C281 1.370 . S
C286 C282 1.395 . S
C286 H295 0.930 . S
C287 Gd223 2.805 . S
C287 O263 1.263 . S
C287 O264 1.252 . S
C287 C281 1.500 . S
H288 C271 0.929 . S
H289 C272 0.930 . S
H290 C273 0.931 . S
H291 C274 0.930 . S
H292 C283 0.929 . S
H293 C284 0.930 . S
H294 C285 0.931 . S
H295 C286 0.930 . S
C296 C297 1.349 . S
C296 C298 1.327 . S
C296 H321 0.950 . S
C297 C296 1.349 . S
C297 C313 1.349 . S
C298 C296 1.327 . S
C298 C317 1.429 . S
C298 H322 0.950 . S
C299 C316 1.574 . S
C299 C318 1.368 . S
C299 H323 0.949 . S
H300 C304 0.949 . S
C301 C302 1.349 . S
C301 C303 1.327 . S
C301 H324 0.950 . S
C302 C301 1.349 . S
C302 C314 1.349 . S
C303 C301 1.327 . S
C303 C319 1.429 . S
C303 H325 0.950 . S
C304 H300 0.949 . S
C304 C312 1.574 . S
C304 C320 1.368 . S
H305 C313 0.950 . S
H306 C311 0.950 . S
H307 C312 0.949 . S
H308 C314 0.950 . S
H309 C315 0.950 . S
H310 C316 0.949 . S
C311 H306 0.950 . S
C311 C313 1.327 . S
C311 C317 1.429 . S
C312 C304 1.574 . S
C312 H307 0.949 . S
C312 C318 1.368 . S
C313 C297 1.349 . S
C313 H305 0.950 . S
C313 C311 1.327 . S
C314 C302 1.349 . S
C314 H308 0.950 . S
C314 C315 1.327 . S
C315 H309 0.950 . S
C315 C314 1.327 . S
C315 C319 1.429 . S
C316 C299 1.574 . S
C316 H310 0.949 . S
C316 C320 1.368 . S
C317 C298 1.429 . S
C317 C311 1.429 . S
C317 C318 1.523 . S
C318 C299 1.368 . S
C318 C312 1.368 . S
C318 C317 1.523 . S
C319 C303 1.429 . S
C319 C315 1.429 . S
C319 C320 1.523 . S
C320 C304 1.368 . S
C320 C316 1.368 . S
C320 C319 1.523 . S
H321 C296 0.950 . S
H322 C298 0.950 . S
H323 C299 0.949 . S
H324 C301 0.950 . S
H325 C303 0.950 . S
C326 C327 1.349 . S
C326 C328 1.327 . S
C326 H351 0.950 . S
C327 C326 1.349 . S
C327 C343 1.349 . S
C328 C326 1.327 . S
C328 C347 1.429 . S
C328 H352 0.950 . S
C329 C346 1.574 . S
C329 C348 1.368 . S
C329 H353 0.949 1_554 S
H330 C334 0.949 . S
C331 C332 1.349 . S
C331 C333 1.327 . S
C331 H354 0.950 1_554 S
C332 C331 1.349 . S
C332 C344 1.349 . S
C333 C331 1.327 . S
C333 C349 1.429 . S
C333 H355 0.950 1_554 S
C334 H330 0.949 . S
C334 C342 1.574 . S
C334 C350 1.368 . S
H335 C343 0.950 1_556 S
H336 C341 0.950 1_556 S
H337 C342 0.949 . S
H338 C344 0.950 . S
H339 C345 0.950 . S
H340 C346 0.949 1_556 S
C341 H336 0.950 1_554 S
C341 C343 1.327 . S
C341 C347 1.429 . S
C342 C334 1.574 . S
C342 H337 0.949 . S
C342 C348 1.368 . S
C343 C327 1.349 . S
C343 H335 0.950 1_554 S
C343 C341 1.327 . S
C344 C332 1.349 . S
C344 H338 0.950 . S
C344 C345 1.327 . S
C345 H339 0.950 . S
C345 C344 1.327 . S
C345 C349 1.429 . S
C346 C329 1.574 . S
C346 H340 0.949 1_554 S
C346 C350 1.368 . S
C347 C328 1.429 . S
C347 C341 1.429 . S
C347 C348 1.523 . S
C348 C329 1.368 . S
C348 C342 1.368 . S
C348 C347 1.523 . S
C349 C333 1.429 . S
C349 C345 1.429 . S
C349 C350 1.523 . S
C350 C334 1.368 . S
C350 C346 1.368 . S
C350 C349 1.523 . S
H351 C326 0.950 . S
H352 C328 0.950 . S
H353 C329 0.949 1_556 S
H354 C331 0.950 1_556 S
H355 C333 0.950 1_556 S
C356 C357 1.349 . S
C356 C358 1.327 . S
C356 H381 0.950 . S
C357 C356 1.349 . S
C357 C373 1.349 . S
C358 C356 1.327 . S
C358 C377 1.429 . S
C358 H382 0.950 . S
C359 C376 1.574 . S
C359 C378 1.368 . S
C359 H383 0.949 . S
H360 C364 0.949 . S
C361 C362 1.349 . S
C361 C363 1.327 . S
C361 H384 0.950 . S
C362 C361 1.349 . S
C362 C374 1.349 . S
C363 C361 1.327 . S
C363 C379 1.429 . S
C363 H385 0.950 . S
C364 H360 0.949 . S
C364 C372 1.574 . S
C364 C380 1.368 . S
H365 C373 0.950 . S
H366 C371 0.950 . S
H367 C372 0.949 . S
H368 C374 0.950 . S
H369 C375 0.950 . S
H370 C376 0.949 . S
C371 H366 0.950 . S
C371 C373 1.327 . S
C371 C377 1.429 . S
C372 C364 1.574 . S
C372 H367 0.949 . S
C372 C378 1.368 . S
C373 C357 1.349 . S
C373 H365 0.950 . S
C373 C371 1.327 . S
C374 C362 1.349 . S
C374 H368 0.950 . S
C374 C375 1.327 . S
C375 H369 0.950 . S
C375 C374 1.327 . S
C375 C379 1.429 . S
C376 C359 1.574 . S
C376 H370 0.949 . S
C376 C380 1.368 . S
C377 C358 1.429 . S
C377 C371 1.429 . S
C377 C378 1.523 . S
C378 C359 1.368 . S
C378 C372 1.368 . S
C378 C377 1.523 . S
C379 C363 1.429 . S
C379 C375 1.429 . S
C379 C380 1.523 . S
C380 C364 1.368 . S
C380 C376 1.368 . S
C380 C379 1.523 . S
H381 C356 0.950 . S
H382 C358 0.950 . S
H383 C359 0.949 . S
H384 C361 0.950 . S
H385 C363 0.950 . S
C386 C387 1.349 . S
C386 C388 1.327 . S
C386 H411 0.950 . S
C387 C386 1.349 . S
C387 C403 1.349 1_554 S
C388 C386 1.327 . S
C388 C407 1.429 . S
C388 H412 0.950 . S
C389 C406 1.574 . S
C389 C408 1.368 1_556 S
C389 H413 0.949 . S
H390 C394 0.949 . S
C391 C392 1.349 1_556 S
C391 C393 1.327 . S
C391 H414 0.950 . S
C392 C391 1.349 1_554 S
C392 C404 1.349 . S
C393 C391 1.327 . S
C393 C409 1.429 1_556 S
C393 H415 0.950 . S
C394 H390 0.949 . S
C394 C402 1.574 . S
C394 C410 1.368 . S
H395 C403 0.950 . S
H396 C401 0.950 . S
H397 C402 0.949 . S
H398 C404 0.950 . S
H399 C405 0.950 . S
H400 C406 0.949 . S
C401 H396 0.950 . S
C401 C403 1.327 . S
C401 C407 1.429 1_556 S
C402 C394 1.574 . S
C402 H397 0.949 . S
C402 C408 1.368 . S
C403 C387 1.349 1_556 S
C403 H395 0.950 . S
C403 C401 1.327 . S
C404 C392 1.349 . S
C404 H398 0.950 . S
C404 C405 1.327 . S
C405 H399 0.950 . S
C405 C404 1.327 . S
C405 C409 1.429 . S
C406 C389 1.574 . S
C406 H400 0.949 . S
C406 C410 1.368 1_556 S
C407 C388 1.429 . S
C407 C401 1.429 1_554 S
C407 C408 1.523 . S
C408 C389 1.368 1_554 S
C408 C402 1.368 . S
C408 C407 1.523 . S
C409 C393 1.429 1_554 S
C409 C405 1.429 . S
C409 C410 1.523 . S
C410 C394 1.368 . S
C410 C406 1.368 1_554 S
C410 C409 1.523 . S
H411 C386 0.950 . S
H412 C388 0.950 . S
H413 C389 0.949 . S
H414 C391 0.950 . S
H415 C393 0.950 . S
C416 C417 1.349 . S
C416 C418 1.327 . S
C416 H441 0.950 . S
C417 C416 1.349 . S
C417 C433 1.349 . S
C418 C416 1.327 . S
C418 C437 1.429 . S
C418 H442 0.950 . S
C419 C436 1.574 . S
C419 C438 1.368 . S
C419 H443 0.949 . S
H420 C424 0.949 . S
C421 C422 1.349 . S
C421 C423 1.327 . S
C421 H444 0.950 . S
C422 C421 1.349 . S
C422 C434 1.349 . S
C423 C421 1.327 . S
C423 C439 1.429 . S
C423 H445 0.950 . S
C424 H420 0.949 . S
C424 C432 1.574 . S
C424 C440 1.368 . S
H425 C433 0.950 . S
H426 C431 0.950 . S
H427 C432 0.949 . S
H428 C434 0.950 . S
H429 C435 0.950 . S
H430 C436 0.949 . S
C431 H426 0.950 . S
C431 C433 1.327 . S
C431 C437 1.429 . S
C432 C424 1.574 . S
C432 H427 0.949 . S
C432 C438 1.368 . S
C433 C417 1.349 . S
C433 H425 0.950 . S
C433 C431 1.327 . S
C434 C422 1.349 . S
C434 H428 0.950 . S
C434 C435 1.327 . S
C435 H429 0.950 . S
C435 C434 1.327 . S
C435 C439 1.429 . S
C436 C419 1.574 . S
C436 H430 0.949 . S
C436 C440 1.368 . S
C437 C418 1.429 . S
C437 C431 1.429 . S
C437 C438 1.523 . S
C438 C419 1.368 . S
C438 C432 1.368 . S
C438 C437 1.523 . S
C439 C423 1.429 . S
C439 C435 1.429 . S
C439 C440 1.523 . S
C440 C424 1.368 . S
C440 C436 1.368 . S
C440 C439 1.523 . S
H441 C416 0.950 . S
H442 C418 0.950 . S
H443 C419 0.949 . S
H444 C421 0.950 . S
H445 C423 0.950 . S
C446 C447 1.349 . S
C446 C448 1.327 . S
C446 H471 0.950 . S
C447 C446 1.349 . S
C447 C463 1.349 . S
C448 C446 1.327 . S
C448 C467 1.429 . S
C448 H472 0.950 . S
C449 C466 1.574 . S
C449 C468 1.368 . S
C449 H473 0.949 . S
H450 C454 0.949 . S
C451 C452 1.349 . S
C451 C453 1.327 . S
C451 H474 0.950 . S
C452 C451 1.349 . S
C452 C464 1.349 . S
C453 C451 1.327 . S
C453 C469 1.429 . S
C453 H475 0.950 . S
C454 H450 0.949 . S
C454 C462 1.574 . S
C454 C470 1.368 . S
H455 C463 0.950 . S
H456 C461 0.950 . S
H457 C462 0.949 . S
H458 C464 0.950 . S
H459 C465 0.950 . S
H460 C466 0.949 . S
C461 H456 0.950 . S
C461 C463 1.327 . S
C461 C467 1.429 . S
C462 C454 1.574 . S
C462 H457 0.949 . S
C462 C468 1.368 . S
C463 C447 1.349 . S
C463 H455 0.950 . S
C463 C461 1.327 . S
C464 C452 1.349 . S
C464 H458 0.950 . S
C464 C465 1.327 . S
C465 H459 0.950 . S
C465 C464 1.327 . S
C465 C469 1.429 . S
C466 C449 1.574 . S
C466 H460 0.949 . S
C466 C470 1.368 . S
C467 C448 1.429 . S
C467 C461 1.429 . S
C467 C468 1.523 . S
C468 C449 1.368 . S
C468 C462 1.368 . S
C468 C467 1.523 . S
C469 C453 1.429 . S
C469 C465 1.429 . S
C469 C470 1.523 . S
C470 C454 1.368 . S
C470 C466 1.368 . S
C470 C469 1.523 . S
H471 C446 0.950 . S
H472 C448 0.950 . S
H473 C449 0.949 . S
H474 C451 0.950 . S
H475 C453 0.950 . S
C476 C477 1.349 . S
C476 C478 1.327 . S
C476 H501 0.950 . S
C477 C476 1.349 . S
C477 C493 1.349 . S
C478 C476 1.327 . S
C478 C497 1.429 . S
C478 H502 0.950 . S
C479 C496 1.574 . S
C479 C498 1.368 . S
C479 H503 0.949 . S
H480 C484 0.949 . S
C481 C482 1.349 . S
C481 C483 1.327 . S
C481 H504 0.950 . S
C482 C481 1.349 . S
C482 C494 1.349 . S
C483 C481 1.327 . S
C483 C499 1.429 . S
C483 H505 0.950 . S
C484 H480 0.949 . S
C484 C492 1.574 . S
C484 C500 1.368 . S
H485 C493 0.950 . S
H486 C491 0.950 . S
H487 C492 0.949 . S
H488 C494 0.950 1_565 S
H489 C495 0.950 . S
H490 C496 0.949 . S
C491 H486 0.950 . S
C491 C493 1.327 . S
C491 C497 1.429 . S
C492 C484 1.574 . S
C492 H487 0.949 . S
C492 C498 1.368 . S
C493 C477 1.349 . S
C493 H485 0.950 . S
C493 C491 1.327 . S
C494 C482 1.349 . S
C494 H488 0.950 1_545 S
C494 C495 1.327 . S
C495 H489 0.950 . S
C495 C494 1.327 . S
C495 C499 1.429 . S
C496 C479 1.574 . S
C496 H490 0.949 . S
C496 C500 1.368 . S
C497 C478 1.429 . S
C497 C491 1.429 . S
C497 C498 1.523 . S
C498 C479 1.368 . S
C498 C492 1.368 . S
C498 C497 1.523 . S
C499 C483 1.429 . S
C499 C495 1.429 . S
C499 C500 1.523 . S
C500 C484 1.368 . S
C500 C496 1.368 . S
C500 C499 1.523 . S
H501 C476 0.950 . S
H502 C478 0.950 . S
H503 C479 0.949 . S
H504 C481 0.950 . S
H505 C483 0.950 . S
C506 C507 1.349 . S
C506 C508 1.327 . S
C506 H531 0.950 . S
C507 C506 1.349 . S
C507 C523 1.349 . S
C508 C506 1.327 . S
C508 C527 1.429 . S
C508 H532 0.950 . S
C509 C526 1.574 . S
C509 C528 1.368 . S
C509 H533 0.949 . S
H510 C514 0.949 . S
C511 C512 1.349 . S
C511 C513 1.327 . S
C511 H534 0.950 . S
C512 C511 1.349 . S
C512 C524 1.349 . S
C513 C511 1.327 . S
C513 C529 1.429 . S
C513 H535 0.950 . S
C514 H510 0.949 . S
C514 C522 1.574 . S
C514 C530 1.368 . S
H515 C523 0.950 . S
H516 C521 0.950 . S
H517 C522 0.949 . S
H518 C524 0.950 . S
H519 C525 0.950 . S
H520 C526 0.949 . S
C521 H516 0.950 . S
C521 C523 1.327 . S
C521 C527 1.429 . S
C522 C514 1.574 . S
C522 H517 0.949 . S
C522 C528 1.368 . S
C523 C507 1.349 . S
C523 H515 0.950 . S
C523 C521 1.327 . S
C524 C512 1.349 . S
C524 H518 0.950 . S
C524 C525 1.327 . S
C525 H519 0.950 . S
C525 C524 1.327 . S
C525 C529 1.429 . S
C526 C509 1.574 . S
C526 H520 0.949 . S
C526 C530 1.368 . S
C527 C508 1.429 . S
C527 C521 1.429 . S
C527 C528 1.523 . S
C528 C509 1.368 . S
C528 C522 1.368 . S
C528 C527 1.523 . S
C529 C513 1.429 . S
C529 C525 1.429 . S
C529 C530 1.523 . S
C530 C514 1.368 . S
C530 C526 1.368 . S
C530 C529 1.523 . S
H531 C506 0.950 . S
H532 C508 0.950 . S
H533 C509 0.949 . S
H534 C511 0.950 . S
H535 C513 0.950 . S
C536 C537 1.349 . S
C536 C538 1.327 . S
C536 H561 0.950 . S
C537 C536 1.349 . S
C537 C553 1.349 . S
C538 C536 1.327 . S
C538 C557 1.429 . S
C538 H562 0.950 . S
C539 C556 1.574 . S
C539 C558 1.368 . S
C539 H563 0.949 . S
H540 C544 0.949 . S
C541 C542 1.349 . S
C541 C543 1.327 . S
C541 H564 0.950 . S
C542 C541 1.349 . S
C542 C554 1.349 . S
C543 C541 1.327 . S
C543 C559 1.429 . S
C543 H565 0.950 . S
C544 H540 0.949 . S
C544 C552 1.574 . S
C544 C560 1.368 . S
H545 C553 0.950 . S
H546 C551 0.950 . S
H547 C552 0.949 . S
H548 C554 0.950 . S
H549 C555 0.950 . S
H550 C556 0.949 . S
C551 H546 0.950 . S
C551 C553 1.327 . S
C551 C557 1.429 . S
C552 C544 1.574 . S
C552 H547 0.949 . S
C552 C558 1.368 . S
C553 C537 1.349 . S
C553 H545 0.950 . S
C553 C551 1.327 . S
C554 C542 1.349 . S
C554 H548 0.950 . S
C554 C555 1.327 . S
C555 H549 0.950 . S
C555 C554 1.327 . S
C555 C559 1.429 . S
C556 C539 1.574 . S
C556 H550 0.949 . S
C556 C560 1.368 . S
C557 C538 1.429 . S
C557 C551 1.429 . S
C557 C558 1.523 . S
C558 C539 1.368 . S
C558 C552 1.368 . S
C558 C557 1.523 . S
C559 C543 1.429 . S
C559 C555 1.429 . S
C559 C560 1.523 . S
C560 C544 1.368 . S
C560 C556 1.368 . S
C560 C559 1.523 . S
H561 C536 0.950 . S
H562 C538 0.950 . S
H563 C539 0.949 . S
H564 C541 0.950 . S
H565 C543 0.950 . S
C566 C567 1.349 . S
C566 C568 1.327 . S
C566 H591 0.950 . S
C567 C566 1.349 . S
C567 C583 1.349 . S
C568 C566 1.327 . S
C568 C587 1.429 . S
C568 H592 0.950 . S
C569 C586 1.574 . S
C569 C588 1.368 . S
C569 H593 0.949 . S
H570 C574 0.949 . S
C571 C572 1.349 . S
C571 C573 1.327 . S
C571 H594 0.950 . S
C572 C571 1.349 . S
C572 C584 1.349 . S
C573 C571 1.327 . S
C573 C589 1.429 . S
C573 H595 0.950 . S
C574 H570 0.949 . S
C574 C582 1.574 . S
C574 C590 1.368 . S
H575 C583 0.950 . S
H576 C581 0.950 . S
H577 C582 0.949 . S
H578 C584 0.950 . S
H579 C585 0.950 . S
H580 C586 0.949 . S
C581 H576 0.950 . S
C581 C583 1.327 . S
C581 C587 1.429 . S
C582 C574 1.574 . S
C582 H577 0.949 . S
C582 C588 1.368 . S
C583 C567 1.349 . S
C583 H575 0.950 . S
C583 C581 1.327 . S
C584 C572 1.349 . S
C584 H578 0.950 . S
C584 C585 1.327 . S
C585 H579 0.950 . S
C585 C584 1.327 . S
C585 C589 1.429 . S
C586 C569 1.574 . S
C586 H580 0.949 . S
C586 C590 1.368 . S
C587 C568 1.429 . S
C587 C581 1.429 . S
C587 C588 1.523 . S
C588 C569 1.368 . S
C588 C582 1.368 . S
C588 C587 1.523 . S
C589 C573 1.429 . S
C589 C585 1.429 . S
C589 C590 1.523 . S
C590 C574 1.368 . S
C590 C586 1.368 . S
C590 C589 1.523 . S
H591 C566 0.950 . S
H592 C568 0.950 . S
H593 C569 0.949 . S
H594 C571 0.950 . S
H595 C573 0.950 . S
C596 C597 1.349 . S
C596 C598 1.327 . S
C596 H621 0.950 . S
C597 C596 1.349 . S
C597 C613 1.349 . S
C598 C596 1.327 . S
C598 C617 1.429 . S
C598 H622 0.950 . S
C599 C616 1.574 . S
C599 C618 1.368 . S
C599 H623 0.949 . S
H600 C604 0.949 . S
C601 C602 1.349 . S
C601 C603 1.327 . S
C601 H624 0.950 . S
C602 C601 1.349 . S
C602 C614 1.349 . S
C603 C601 1.327 . S
C603 C619 1.429 . S
C603 H625 0.950 . S
C604 H600 0.949 . S
C604 C612 1.574 . S
C604 C620 1.368 . S
H605 C613 0.950 . S
H606 C611 0.950 . S
H607 C612 0.949 . S
H608 C614 0.950 . S
H609 C615 0.950 . S
H610 C616 0.949 . S
C611 H606 0.950 . S
C611 C613 1.327 . S
C611 C617 1.429 . S
C612 C604 1.574 . S
C612 H607 0.949 . S
C612 C618 1.368 . S
C613 C597 1.349 . S
C613 H605 0.950 . S
C613 C611 1.327 . S
C614 C602 1.349 . S
C614 H608 0.950 . S
C614 C615 1.327 . S
C615 H609 0.950 . S
C615 C614 1.327 . S
C615 C619 1.429 . S
C616 C599 1.574 . S
C616 H610 0.949 . S
C616 C620 1.368 . S
C617 C598 1.429 . S
C617 C611 1.429 . S
C617 C618 1.523 . S
C618 C599 1.368 . S
C618 C612 1.368 . S
C618 C617 1.523 . S
C619 C603 1.429 . S
C619 C615 1.429 . S
C619 C620 1.523 . S
C620 C604 1.368 . S
C620 C616 1.368 . S
C620 C619 1.523 . S
H621 C596 0.950 . S
H622 C598 0.950 . S
H623 C599 0.949 . S
H624 C601 0.950 . S
H625 C603 0.950 . S
C626 C627 1.349 . S
C626 C628 1.327 . S
C626 H651 0.950 . S
C627 C626 1.349 . S
C627 C643 1.349 . S
C628 C626 1.327 . S
C628 C647 1.429 . S
C628 H652 0.950 . S
C629 C646 1.574 . S
C629 C648 1.368 . S
C629 H653 0.949 . S
H630 C634 0.949 . S
C631 C632 1.349 . S
C631 C633 1.327 . S
C631 H654 0.950 . S
C632 C631 1.349 . S
C632 C644 1.349 . S
C633 C631 1.327 . S
C633 C649 1.429 . S
C633 H655 0.950 . S
C634 H630 0.949 . S
C634 C642 1.574 . S
C634 C650 1.368 . S
H635 C643 0.950 . S
H636 C641 0.950 . S
H637 C642 0.949 . S
H638 C644 0.950 1_545 S
H639 C645 0.951 1_545 S
H640 C646 0.949 . S
C641 H636 0.950 . S
C641 C643 1.327 . S
C641 C647 1.429 . S
C642 C634 1.574 . S
C642 H637 0.949 . S
C642 C648 1.368 . S
C643 C627 1.349 . S
C643 H635 0.950 . S
C643 C641 1.327 . S
C644 C632 1.349 . S
C644 H638 0.950 1_565 S
C644 C645 1.327 . S
C645 H639 0.951 1_565 S
C645 C644 1.327 . S
C645 C649 1.429 . S
C646 C629 1.574 . S
C646 H640 0.949 . S
C646 C650 1.368 . S
C647 C628 1.429 . S
C647 C641 1.429 . S
C647 C648 1.523 . S
C648 C629 1.368 . S
C648 C642 1.368 . S
C648 C647 1.523 . S
C649 C633 1.429 . S
C649 C645 1.429 . S
C649 C650 1.523 . S
C650 C634 1.368 . S
C650 C646 1.368 . S
C650 C649 1.523 . S
H651 C626 0.950 . S
H652 C628 0.950 . S
H653 C629 0.949 . S
H654 C631 0.950 . S
H655 C633 0.950 . S
C302 C196 1.613 . S
C297 C119 1.614 . S
C327 C23 1.604 . S
C332 C268 1.586 . S
C357 C55 1.567 . S
C362 C184 1.613 . S
C387 C87 1.537 . S
C392 C280 1.586 . S
C422 C186 1.396 . S
C417 C17 1.548 . S
C452 C267 1.604 . S
C447 C61 1.542 . S
C477 C93 1.501 . S
C482 C183 1.586 . S
C507 C113 1.529 . S
C512 C270 1.396 . S
C542 C282 1.396 . S
C537 C49 1.500 . S
C572 C198 1.396 . S
C567 C81 1.508 . S
C602 C279 1.604 . S
C597 C125 1.593 . S
C627 C29 1.577 . S
C632 C195 1.586 . S
