# Generated by pormake.
# Topology eea, (3,6)-cn, num edge types: 1
# Building blocks:
#     Node 0, Type 0, BuildingBlock: BETDIP_clean_linker_0, # of connection points: 3
#     Node 1, Type 0, BuildingBlock: BETDIP_clean_linker_0, # of connection points: 3
#     Node 2, Type 0, BuildingBlock: BETDIP_clean_linker_0, # of connection points: 3
#     Node 3, Type 0, BuildingBlock: BETDIP_clean_linker_0, # of connection points: 3
#     Node 4, Type 0, BuildingBlock: BETDIP_clean_linker_0, # of connection points: 3
#     Node 5, Type 0, BuildingBlock: BETDIP_clean_linker_0, # of connection points: 3
#     Node 6, Type 0, BuildingBlock: BETDIP_clean_linker_0, # of connection points: 3
#     Node 7, Type 0, BuildingBlock: BETDIP_clean_linker_0, # of connection points: 3
#     Node 8, Type 0, BuildingBlock: BETDIP_clean_linker_0, # of connection points: 3
#     Node 9, Type 0, BuildingBlock: BETDIP_clean_linker_0, # of connection points: 3
#     Node 10, Type 0, BuildingBlock: BETDIP_clean_linker_0, # of connection points: 3
#     Node 11, Type 0, BuildingBlock: BETDIP_clean_linker_0, # of connection points: 3
#     Node 12, Type 0, BuildingBlock: BETDIP_clean_linker_0, # of connection points: 3
#     Node 13, Type 0, BuildingBlock: BETDIP_clean_linker_0, # of connection points: 3
#     Node 14, Type 0, BuildingBlock: BETDIP_clean_linker_0, # of connection points: 3
#     Node 15, Type 0, BuildingBlock: BETDIP_clean_linker_0, # of connection points: 3
#     Node 16, Type 0, BuildingBlock: BETDIP_clean_linker_0, # of connection points: 3
#     Node 17, Type 0, BuildingBlock: BETDIP_clean_linker_0, # of connection points: 3
#     Node 18, Type 1, BuildingBlock: CUKXOW_clean_sbu_0, # of connection points: 6
#     Node 19, Type 1, BuildingBlock: CUKXOW_clean_sbu_0, # of connection points: 6
#     Node 20, Type 1, BuildingBlock: CUKXOW_clean_sbu_0, # of connection points: 6
#     Node 21, Type 1, BuildingBlock: CUKXOW_clean_sbu_0, # of connection points: 6
#     Node 22, Type 1, BuildingBlock: CUKXOW_clean_sbu_0, # of connection points: 6
#     Node 23, Type 1, BuildingBlock: CUKXOW_clean_sbu_0, # of connection points: 6
#     Node 24, Type 1, BuildingBlock: CUKXOW_clean_sbu_0, # of connection points: 6
#     Node 25, Type 1, BuildingBlock: CUKXOW_clean_sbu_0, # of connection points: 6
#     Node 26, Type 1, BuildingBlock: CUKXOW_clean_sbu_0, # of connection points: 6
#     Edge 27, Type (0, 1), BuildingBlock: TEMPAE_clean_linker_10, # of connection points: 2
#     Edge 28, Type (0, 1), BuildingBlock: TEMPAE_clean_linker_10, # of connection points: 2
#     Edge 29, Type (0, 1), BuildingBlock: TEMPAE_clean_linker_10, # of connection points: 2
#     Edge 30, Type (0, 1), BuildingBlock: TEMPAE_clean_linker_10, # of connection points: 2
#     Edge 31, Type (0, 1), BuildingBlock: TEMPAE_clean_linker_10, # of connection points: 2
#     Edge 32, Type (0, 1), BuildingBlock: TEMPAE_clean_linker_10, # of connection points: 2
#     Edge 33, Type (0, 1), BuildingBlock: TEMPAE_clean_linker_10, # of connection points: 2
#     Edge 34, Type (0, 1), BuildingBlock: TEMPAE_clean_linker_10, # of connection points: 2
#     Edge 35, Type (0, 1), BuildingBlock: TEMPAE_clean_linker_10, # of connection points: 2
#     Edge 36, Type (0, 1), BuildingBlock: TEMPAE_clean_linker_10, # of connection points: 2
#     Edge 37, Type (0, 1), BuildingBlock: TEMPAE_clean_linker_10, # of connection points: 2
#     Edge 38, Type (0, 1), BuildingBlock: TEMPAE_clean_linker_10, # of connection points: 2
#     Edge 39, Type (0, 1), BuildingBlock: TEMPAE_clean_linker_10, # of connection points: 2
#     Edge 40, Type (0, 1), BuildingBlock: TEMPAE_clean_linker_10, # of connection points: 2
#     Edge 41, Type (0, 1), BuildingBlock: TEMPAE_clean_linker_10, # of connection points: 2
#     Edge 42, Type (0, 1), BuildingBlock: TEMPAE_clean_linker_10, # of connection points: 2
#     Edge 43, Type (0, 1), BuildingBlock: TEMPAE_clean_linker_10, # of connection points: 2
#     Edge 44, Type (0, 1), BuildingBlock: TEMPAE_clean_linker_10, # of connection points: 2
#     Edge 45, Type (0, 1), BuildingBlock: TEMPAE_clean_linker_10, # of connection points: 2
#     Edge 46, Type (0, 1), BuildingBlock: TEMPAE_clean_linker_10, # of connection points: 2
#     Edge 47, Type (0, 1), BuildingBlock: TEMPAE_clean_linker_10, # of connection points: 2
#     Edge 48, Type (0, 1), BuildingBlock: TEMPAE_clean_linker_10, # of connection points: 2
#     Edge 49, Type (0, 1), BuildingBlock: TEMPAE_clean_linker_10, # of connection points: 2
#     Edge 50, Type (0, 1), BuildingBlock: TEMPAE_clean_linker_10, # of connection points: 2
#     Edge 51, Type (0, 1), BuildingBlock: TEMPAE_clean_linker_10, # of connection points: 2
#     Edge 52, Type (0, 1), BuildingBlock: TEMPAE_clean_linker_10, # of connection points: 2
#     Edge 53, Type (0, 1), BuildingBlock: TEMPAE_clean_linker_10, # of connection points: 2
#     Edge 54, Type (0, 1), BuildingBlock: TEMPAE_clean_linker_10, # of connection points: 2
#     Edge 55, Type (0, 1), BuildingBlock: TEMPAE_clean_linker_10, # of connection points: 2
#     Edge 56, Type (0, 1), BuildingBlock: TEMPAE_clean_linker_10, # of connection points: 2
#     Edge 57, Type (0, 1), BuildingBlock: TEMPAE_clean_linker_10, # of connection points: 2
#     Edge 58, Type (0, 1), BuildingBlock: TEMPAE_clean_linker_10, # of connection points: 2
#     Edge 59, Type (0, 1), BuildingBlock: TEMPAE_clean_linker_10, # of connection points: 2
#     Edge 60, Type (0, 1), BuildingBlock: TEMPAE_clean_linker_10, # of connection points: 2
#     Edge 61, Type (0, 1), BuildingBlock: TEMPAE_clean_linker_10, # of connection points: 2
#     Edge 62, Type (0, 1), BuildingBlock: TEMPAE_clean_linker_10, # of connection points: 2
#     Edge 63, Type (0, 1), BuildingBlock: TEMPAE_clean_linker_10, # of connection points: 2
#     Edge 64, Type (0, 1), BuildingBlock: TEMPAE_clean_linker_10, # of connection points: 2
#     Edge 65, Type (0, 1), BuildingBlock: TEMPAE_clean_linker_10, # of connection points: 2
#     Edge 66, Type (0, 1), BuildingBlock: TEMPAE_clean_linker_10, # of connection points: 2
#     Edge 67, Type (0, 1), BuildingBlock: TEMPAE_clean_linker_10, # of connection points: 2
#     Edge 68, Type (0, 1), BuildingBlock: TEMPAE_clean_linker_10, # of connection points: 2
#     Edge 69, Type (0, 1), BuildingBlock: TEMPAE_clean_linker_10, # of connection points: 2
#     Edge 70, Type (0, 1), BuildingBlock: TEMPAE_clean_linker_10, # of connection points: 2
#     Edge 71, Type (0, 1), BuildingBlock: TEMPAE_clean_linker_10, # of connection points: 2
#     Edge 72, Type (0, 1), BuildingBlock: TEMPAE_clean_linker_10, # of connection points: 2
#     Edge 73, Type (0, 1), BuildingBlock: TEMPAE_clean_linker_10, # of connection points: 2
#     Edge 74, Type (0, 1), BuildingBlock: TEMPAE_clean_linker_10, # of connection points: 2
#     Edge 75, Type (0, 1), BuildingBlock: TEMPAE_clean_linker_10, # of connection points: 2
#     Edge 76, Type (0, 1), BuildingBlock: TEMPAE_clean_linker_10, # of connection points: 2
#     Edge 77, Type (0, 1), BuildingBlock: TEMPAE_clean_linker_10, # of connection points: 2
#     Edge 78, Type (0, 1), BuildingBlock: TEMPAE_clean_linker_10, # of connection points: 2
#     Edge 79, Type (0, 1), BuildingBlock: TEMPAE_clean_linker_10, # of connection points: 2
#     Edge 80, Type (0, 1), BuildingBlock: TEMPAE_clean_linker_10, # of connection points: 2
# Relax obj value: 0.035
# Max RMSD: 0.161
# Mean RMSD: 0.094
data_MOF--net-eea--node1-CUKXOW_clean_sbu_0--node2-BETDIP_clean_linker_0--edge1-TEMPAE_clean_linker_10
_symmetry_space_group_name_H-M    P1
_symmetry_Int_Tables_number       1
_symmetry_cell_setting            triclinic
loop_
_symmetry_equiv_pos_as_xyz
'x, y, z'
_cell_length_a     60.894033
_cell_length_b     57.367144
_cell_length_c     51.095548
_cell_angle_alpha  93.272555
_cell_angle_beta   93.356232
_cell_angle_gamma 119.95379
loop_
_atom_site_label
_atom_site_type_symbol
_atom_site_fract_x
_atom_site_fract_y
_atom_site_fract_z
_atom_type_partial_charge
H0 H 0.21682 0.09762 0.38317 0.0
H1 H 0.25271 0.15778 0.44937 0.0
H2 H 0.25114 0.08231 0.45115 0.0
H3 H 0.21921 0.16365 0.43924 0.0
C4 C 0.21815 0.16272 0.41787 0.0
C5 C 0.22696 0.10388 0.40272 0.0
C6 C 0.23432 0.08719 0.41512 0.0
C7 C 0.23232 0.12866 0.41559 0.0
C8 C 0.24679 0.13776 0.44032 0.0
C9 C 0.25407 0.12135 0.45321 0.0
C10 C 0.24705 0.09582 0.44069 0.0
N11 N 0.22294 0.14408 0.40338 0.0
H12 H 0.91294 0.10882 0.40183 0.0
H13 H 0.86533 0.0975 0.46444 0.0
H14 H 0.93638 0.17155 0.46569 0.0
H15 H 0.85473 0.05402 0.45542 0.0
C16 C 0.85261 0.05176 0.43401 0.0
C17 C 0.90957 0.1162 0.42029 0.0
C18 C 0.92741 0.14218 0.43236 0.0
C19 C 0.8876 0.09944 0.43224 0.0
C20 C 0.88287 0.10946 0.45567 0.0
C21 C 0.90048 0.13527 0.46782 0.0
C22 C 0.92297 0.1514 0.45644 0.0
N23 N 0.8702 0.07297 0.42004 0.0
H24 H 0.88694 0.77612 0.40143 0.0
H25 H 0.8978 0.72616 0.45418 0.0
H26 H 0.8312 0.73377 0.45475 0.0
H27 H 0.93817 0.75473 0.45333 0.0
C28 C 0.94074 0.76222 0.43407 0.0
C29 C 0.88035 0.76255 0.41676 0.0
C30 C 0.85683 0.75521 0.4263 0.0
C31 C 0.89592 0.75334 0.42771 0.0
C32 C 0.88694 0.7351 0.44704 0.0
C33 C 0.86377 0.7281 0.45727 0.0
C34 C 0.84894 0.73851 0.44685 0.0
N35 N 0.92067 0.7632 0.41939 0.0
H36 H 0.09991 0.23588 0.62177 0.0
H37 H 0.15589 0.27334 0.56758 0.0
H38 H 0.08489 0.27309 0.55783 0.0
H39 H 0.15104 0.22696 0.57198 0.0
C40 C 0.15618 0.2319 0.59313 0.0
C41 C 0.106 0.2471 0.6047 0.0
C42 C 0.08996 0.25428 0.59101 0.0
C43 C 0.12921 0.25291 0.5955 0.0
C44 C 0.13727 0.26774 0.57362 0.0
C45 C 0.12168 0.27562 0.55992 0.0
C46 C 0.0977 0.26819 0.56855 0.0
N47 N 0.14403 0.24311 0.60795 0.0
H48 H 0.7852 0.88053 0.63825 0.0
H49 H 0.76369 0.90157 0.56567 0.0
H50 H 0.75552 0.82336 0.56852 0.0
H51 H 0.75527 0.92699 0.59421 0.0
C52 C 0.7723 0.93599 0.60807 0.0
C53 C 0.77794 0.87509 0.61764 0.0
C54 C 0.77081 0.84927 0.60538 0.0
C55 C 0.77514 0.89394 0.60364 0.0
C56 C 0.76553 0.88711 0.57694 0.0
C57 C 0.75788 0.86147 0.56454 0.0
C58 C 0.76071 0.84277 0.5787 0.0
N59 N 0.78239 0.91974 0.61663 0.0
H60 H 0.12919 0.9055 0.63293 0.0
H61 H 0.10319 0.84757 0.56445 0.0
H62 H 0.1776 0.91786 0.57058 0.0
H63 H 0.08266 0.81864 0.59643 0.0
C64 C 0.07493 0.82992 0.60614 0.0
C65 C 0.13267 0.89888 0.61414 0.0
C66 C 0.15587 0.91499 0.60349 0.0
C67 C 0.11376 0.8742 0.60055 0.0
C68 C 0.11785 0.86599 0.57569 0.0
C69 C 0.14081 0.88185 0.56496 0.0
C70 C 0.15976 0.90601 0.57896 0.0
N71 N 0.09051 0.85846 0.61183 0.0
H72 H 0.8736 0.4318 0.71742 0.0
H73 H 0.90762 0.48945 0.78626 0.0
H74 H 0.91151 0.41703 0.78287 0.0
H75 H 0.91068 0.51883 0.75879 0.0
C76 C 0.89458 0.50839 0.74384 0.0
C77 C 0.88424 0.438 0.73672 0.0
C78 C 0.89124 0.42082 0.74869 0.0
C79 C 0.89073 0.46324 0.74961 0.0
C80 C 0.90344 0.47079 0.77528 0.0
C81 C 0.91097 0.45413 0.78708 0.0
C82 C 0.90521 0.42953 0.77363 0.0
N83 N 0.88381 0.48023 0.73646 0.0
H84 H 0.55676 0.46081 0.70797 0.0
H85 H 0.50497 0.44648 0.76685 0.0
H86 H 0.57795 0.51941 0.77485 0.0
H87 H 0.47585 0.41993 0.73449 0.0
C88 C 0.48485 0.41012 0.72463 0.0
C89 C 0.55223 0.46734 0.72617 0.0
C90 C 0.5698 0.49247 0.74001 0.0
C91 C 0.52855 0.45079 0.73542 0.0
C92 C 0.52292 0.45927 0.75925 0.0
C93 C 0.54054 0.48398 0.77377 0.0
C94 C 0.56386 0.50056 0.76374 0.0
N95 N 0.51125 0.42525 0.72115 0.0
H96 H 0.54382 0.10014 0.72828 0.0
H97 H 0.56292 0.05717 0.78284 0.0
H98 H 0.49304 0.05826 0.78587 0.0
H99 H 0.58605 0.05574 0.75021 0.0
C100 C 0.59444 0.07627 0.74471 0.0
C101 C 0.53906 0.08765 0.74452 0.0
C102 C 0.51593 0.07931 0.75541 0.0
C103 C 0.55594 0.07946 0.75404 0.0
C104 C 0.54982 0.06321 0.77512 0.0
C105 C 0.52707 0.05524 0.78675 0.0
C106 C 0.51027 0.06341 0.77664 0.0
N107 N 0.57941 0.08883 0.74286 0.0
H108 H 0.77685 0.57478 0.9597 0.0
H109 H 0.83255 0.62027 0.90781 0.0
H110 H 0.75656 0.60804 0.89585 0.0
H111 H 0.79676 0.54845 0.95351 0.0
C112 C 0.81678 0.56392 0.95495 0.0
C113 C 0.78205 0.58628 0.94276 0.0
C114 C 0.7643 0.59117 0.92918 0.0
C115 C 0.8064 0.59613 0.93435 0.0
C116 C 0.81333 0.61203 0.91327 0.0
C117 C 0.79548 0.61623 0.8987 0.0
C118 C 0.77084 0.60547 0.90683 0.0
N119 N 0.82404 0.58951 0.94596 0.0
H120 H 0.45546 0.20991 0.98106 0.0
H121 H 0.42848 0.22983 0.91141 0.0
H122 H 0.40975 0.14784 0.91766 0.0
H123 H 0.46749 0.26835 0.92077 0.0
C124 C 0.46654 0.27228 0.94161 0.0
C125 C 0.44488 0.20347 0.96173 0.0
C126 C 0.43303 0.17621 0.95117 0.0
C127 C 0.44391 0.22293 0.94719 0.0
C128 C 0.42958 0.21486 0.92248 0.0
C129 C 0.41674 0.1877 0.91185 0.0
C130 C 0.4189 0.16861 0.9262 0.0
N131 N 0.45734 0.25054 0.95776 0.0
H132 H 0.79743 0.23706 0.96423 0.0
H133 H 0.77003 0.1819 0.89367 0.0
H134 H 0.84366 0.25306 0.89928 0.0
H135 H 0.75034 0.15181 0.92528 0.0
C136 C 0.74276 0.16291 0.93562 0.0
C137 C 0.80037 0.23163 0.94463 0.0
C138 C 0.8233 0.24826 0.9338 0.0
C139 C 0.78127 0.20747 0.93056 0.0
C140 C 0.78483 0.2001 0.90511 0.0
C141 C 0.80753 0.21639 0.89419 0.0
C142 C 0.82655 0.24031 0.90845 0.0
N143 N 0.7584 0.19129 0.94211 0.0
H144 H 0.55202 0.76608 0.04302 0.0
H145 H 0.57859 0.81862 0.11543 0.0
H146 H 0.58524 0.74783 0.11004 0.0
H147 H 0.5491 0.82841 0.10109 0.0
C148 C 0.55031 0.82888 0.07999 0.0
C149 C 0.5605 0.77076 0.06324 0.0
C150 C 0.56831 0.75387 0.07451 0.0
C151 C 0.56348 0.79377 0.07795 0.0
C152 C 0.57507 0.80039 0.10403 0.0
C153 C 0.58321 0.78401 0.11534 0.0
C154 C 0.57963 0.7608 0.10067 0.0
N155 N 0.55529 0.81024 0.06579 0.0
H156 H 0.23831 0.78343 0.06267 0.0
H157 H 0.1936 0.76867 0.1283 0.0
H158 H 0.26302 0.84409 0.12897 0.0
H159 H 0.18251 0.72573 0.11674 0.0
C160 C 0.18081 0.72393 0.09535 0.0
C161 C 0.23575 0.79015 0.08191 0.0
C162 C 0.25345 0.8162 0.09404 0.0
C163 C 0.21461 0.77248 0.09443 0.0
C164 C 0.21044 0.78143 0.11882 0.0
C165 C 0.22787 0.8072 0.13111 0.0
C166 C 0.24945 0.82438 0.11896 0.0
N167 N 0.19765 0.74607 0.08185 0.0
H168 H 0.22117 0.44523 0.0641 0.0
H169 H 0.2453 0.41589 0.12921 0.0
H170 H 0.17423 0.41446 0.12771 0.0
H171 H 0.2629 0.40399 0.09641 0.0
C172 C 0.27103 0.42195 0.08589 0.0
C173 C 0.21792 0.43668 0.08284 0.0
C174 C 0.19551 0.4305 0.09444 0.0
C175 C 0.23564 0.43069 0.09475 0.0
C176 C 0.23148 0.41981 0.1192 0.0
C177 C 0.2094 0.41407 0.13099 0.0
C178 C 0.1914 0.41916 0.11851 0.0
N179 N 0.25744 0.43585 0.08183 0.0
H180 H 0.42825 0.88442 0.27632 0.0
H181 H 0.47737 0.91752 0.21493 0.0
H182 H 0.41301 0.92887 0.22003 0.0
H183 H 0.47586 0.87424 0.21903 0.0
C184 C 0.48172 0.87896 0.24007 0.0
C185 C 0.43324 0.89579 0.25926 0.0
C186 C 0.41809 0.90604 0.24945 0.0
C187 C 0.45422 0.89921 0.24645 0.0
C188 C 0.46064 0.91398 0.22437 0.0
C189 C 0.44613 0.92516 0.21503 0.0
C190 C 0.42468 0.92085 0.2275 0.0
N191 N 0.46904 0.88829 0.25643 0.0
H192 H 0.12938 0.54628 0.30344 0.0
H193 H 0.09974 0.56463 0.23408 0.0
H194 H 0.09277 0.48692 0.23572 0.0
H195 H 0.13164 0.60619 0.24619 0.0
C196 C 0.13223 0.60835 0.26751 0.0
C197 C 0.11999 0.54022 0.28355 0.0
C198 C 0.11111 0.51381 0.27166 0.0
C199 C 0.11693 0.55912 0.26985 0.0
C200 C 0.10364 0.55101 0.24454 0.0
C201 C 0.095 0.52506 0.23242 0.0
C202 C 0.09906 0.50671 0.24573 0.0
N203 N 0.12704 0.58594 0.28198 0.0
H204 H 0.46297 0.569 0.29239 0.0
H205 H 0.43498 0.51516 0.22072 0.0
H206 H 0.50802 0.58701 0.22638 0.0
H207 H 0.41409 0.48435 0.24942 0.0
C208 C 0.40783 0.49492 0.26258 0.0
C209 C 0.46556 0.56403 0.27245 0.0
C210 C 0.48817 0.58116 0.26137 0.0
C211 C 0.44644 0.53992 0.25824 0.0
C212 C 0.44968 0.53327 0.23233 0.0
C213 C 0.47209 0.55013 0.22121 0.0
C214 C 0.49107 0.57392 0.23561 0.0
N215 N 0.42408 0.52303 0.27033 0.0
Tb216 Tb 0.52008 0.02274 0.00722 0.0
C217 C 0.50561 0.96107 0.00978 0.0
Tb218 Tb 0.46359 0.97772 0.00765 0.0
O219 O 0.5212 0.03962 0.04719 0.0
O220 O 0.49637 0.99883 0.03471 0.0
O221 O 0.52294 0.98596 0.00505 0.0
C222 C 0.41787 0.94416 0.02257 0.0
O223 O 0.48175 0.95394 0.01339 0.0
C224 C 0.48207 0.98505 0.96187 0.0
C225 C 0.47802 0.0391 0.00545 0.0
O226 O 0.4395 0.95296 0.03644 0.0
O227 O 0.42186 0.95437 7e-05 0.0
O228 O 0.46355 0.96191 0.96726 0.0
O229 O 0.487 0.00244 0.98067 0.0
O230 O 0.46144 0.01493 0.0126 0.0
O231 O 0.50119 0.04556 0.99934 0.0
C232 C 0.56641 0.05414 0.99238 0.0
O233 O 0.56116 0.04979 0.0165 0.0
O234 O 0.54558 0.04084 0.97662 0.0
C235 C 0.50179 0.01724 0.05278 0.0
Tb236 Tb 0.98498 0.49912 0.00724 0.0
C237 C 0.04316 0.54057 0.01515 0.0
Tb238 Tb 0.02115 0.47649 0.0112 0.0
O239 O 0.99696 0.51651 0.04816 0.0
O240 O 0.9965 0.48089 0.03568 0.0
O241 O 0.02051 0.53677 0.00646 0.0
C242 C 0.05692 0.46497 0.02686 0.0
O243 O 0.04704 0.52024 0.01981 0.0
C244 C 0.00375 0.47762 0.96364 0.0
C245 C 0.96317 0.43545 0.00243 0.0
O246 O 0.04288 0.46938 0.04218 0.0
O247 O 0.05067 0.46678 0.00267 0.0
O248 O 0.00939 0.45949 0.97002 0.0
O249 O 0.00985 0.49496 0.98299 0.0
O250 O 0.98531 0.43924 0.01294 0.0
O251 O 0.95977 0.45568 0.99616 0.0
C252 C 0.9491 0.51122 0.99427 0.0
O253 O 0.95332 0.50454 0.01702 0.0
O254 O 0.96514 0.51115 0.97864 0.0
C255 C 0.00271 0.49857 0.05479 0.0
Tb256 Tb 0.48844 0.50423 0.00312 0.0
C257 C 0.5075 0.46223 0.99603 0.0
Tb258 Tb 0.54618 0.52591 0.00117 0.0
O259 O 0.48563 0.51828 0.96451 0.0
O260 O 0.51322 0.50832 0.97419 0.0
O261 O 0.48847 0.4662 0.00164 0.0
C262 C 0.59224 0.53918 0.98767 0.0
O263 O 0.53086 0.48233 0.99327 0.0
C264 C 0.53131 0.527 0.0481 0.0
C265 C 0.52661 0.56668 0.00784 0.0
O266 O 0.58055 0.52277 0.00511 0.0
O267 O 0.57809 0.54827 0.97801 0.0
O268 O 0.55406 0.54376 0.04228 0.0
O269 O 0.51937 0.50967 0.02881 0.0
O270 O 0.54339 0.56204 0.9967 0.0
O271 O 0.50526 0.54707 0.01543 0.0
C272 C 0.4423 0.48467 0.01941 0.0
O273 O 0.44704 0.47719 0.99693 0.0
O274 O 0.46346 0.50306 0.03249 0.0
C275 C 0.50582 0.51848 0.95716 0.0
Tb276 Tb 0.1883 0.35432 0.34164 0.0
C277 C 0.17041 0.29293 0.34724 0.0
Tb278 Tb 0.13017 0.31313 0.3417 0.0
O279 O 0.18986 0.37289 0.38137 0.0
O280 O 0.16268 0.33331 0.36911 0.0
O281 O 0.18899 0.3167 0.34141 0.0
C282 C 0.08428 0.27698 0.35422 0.0
O283 O 0.14688 0.28795 0.3502 0.0
C284 C 0.14608 0.32688 0.29548 0.0
C285 C 0.14881 0.37409 0.33656 0.0
O286 O 0.09726 0.27208 0.3377 0.0
O287 O 0.09696 0.30233 0.36333 0.0
O288 O 0.12279 0.31848 0.30054 0.0
O289 O 0.15802 0.32451 0.31502 0.0
O290 O 0.13197 0.3522 0.34695 0.0
O291 O 0.17069 0.37733 0.3296 0.0
C292 C 0.23493 0.3842 0.32693 0.0
O293 O 0.21397 0.37995 0.31426 0.0
O294 O 0.22971 0.37161 0.3481 0.0
C295 C 0.16928 0.35182 0.38724 0.0
Tb296 Tb 0.65079 0.83059 0.33653 0.0
C297 C 0.7081 0.87144 0.35377 0.0
Tb298 Tb 0.68743 0.80833 0.34311 0.0
O299 O 0.65616 0.84431 0.37849 0.0
O300 O 0.66127 0.81227 0.3658 0.0
O301 O 0.68688 0.86853 0.34156 0.0
C302 C 0.72379 0.79726 0.35775 0.0
O303 O 0.71067 0.85054 0.35941 0.0
C304 C 0.6732 0.81103 0.29447 0.0
C305 C 0.62988 0.76731 0.32996 0.0
O306 O 0.72691 0.81734 0.34488 0.0
O307 O 0.70009 0.78314 0.3622 0.0
O308 O 0.67974 0.7937 0.30111 0.0
O309 O 0.67731 0.82713 0.31428 0.0
O310 O 0.65118 0.77107 0.34274 0.0
O311 O 0.62723 0.78763 0.32245 0.0
C312 C 0.61644 0.8425 0.31697 0.0
O313 O 0.61331 0.82705 0.33567 0.0
O314 O 0.63909 0.85159 0.3095 0.0
C315 C 0.66416 0.82817 0.3855 0.0
Tb316 Tb 0.15562 0.83471 0.34951 0.0
C317 C 0.17491 0.79474 0.3392 0.0
Tb318 Tb 0.21274 0.85809 0.34411 0.0
O319 O 0.14574 0.82106 0.30726 0.0
O320 O 0.18094 0.85401 0.32112 0.0
O321 O 0.15884 0.79889 0.35241 0.0
C322 C 0.25742 0.8706 0.32684 0.0
O323 O 0.19545 0.81499 0.33081 0.0
C324 C 0.19988 0.85574 0.39231 0.0
C325 C 0.19323 0.89876 0.35392 0.0
O326 O 0.2479 0.85635 0.34634 0.0
O327 O 0.24197 0.87808 0.31731 0.0
O328 O 0.22206 0.87359 0.38585 0.0
O329 O 0.1874 0.83892 0.3727 0.0
O330 O 0.21195 0.89565 0.34554 0.0
O331 O 0.17062 0.87819 0.35797 0.0
C332 C 0.11087 0.82105 0.36724 0.0
O333 O 0.13283 0.83989 0.37839 0.0
O334 O 0.11407 0.80995 0.34611 0.0
C335 C 0.1682 0.8382 0.30109 0.0
Tb336 Tb 0.84987 0.69091 0.67494 0.0
C337 C 0.83155 0.62857 0.67851 0.0
Tb338 Tb 0.79258 0.64927 0.67537 0.0
O339 O 0.85162 0.70712 0.7154 0.0
O340 O 0.82566 0.66684 0.70225 0.0
O341 O 0.84911 0.65208 0.67098 0.0
C342 C 0.74462 0.61908 0.68714 0.0
O343 O 0.80902 0.62431 0.68479 0.0
C344 C 0.81081 0.65589 0.62952 0.0
C345 C 0.81102 0.71196 0.67185 0.0
O346 O 0.75261 0.61821 0.66432 0.0
O347 O 0.76356 0.63721 0.70324 0.0
O348 O 0.7917 0.63324 0.63489 0.0
O349 O 0.81672 0.67343 0.64847 0.0
O350 O 0.7926 0.68787 0.67739 0.0
O351 O 0.83425 0.71695 0.66769 0.0
C352 C 0.89706 0.72008 0.66068 0.0
O353 O 0.89124 0.71602 0.68469 0.0
O354 O 0.87631 0.70756 0.64471 0.0
C355 C 0.83231 0.68474 0.72117 0.0
Tb356 Tb 0.31105 0.16146 0.68362 0.0
C357 C 0.36928 0.2089 0.68628 0.0
Tb358 Tb 0.35356 0.14757 0.68335 0.0
O359 O 0.30565 0.1526 0.72488 0.0
O360 O 0.34069 0.16587 0.71052 0.0
O361 O 0.3448 0.20138 0.68129 0.0
C362 C 0.38693 0.13209 0.69725 0.0
O363 O 0.377 0.19143 0.69096 0.0
C364 C 0.33702 0.15442 0.63767 0.0
C365 C 0.29512 0.10013 0.67863 0.0
O366 O 0.38088 0.13502 0.67336 0.0
O367 O 0.374 0.13762 0.71325 0.0
O368 O 0.36028 0.15976 0.64331 0.0
O369 O 0.32412 0.14353 0.65625 0.0
O370 O 0.31942 0.10732 0.68494 0.0
O371 O 0.28819 0.1181 0.67344 0.0
C372 C 0.27923 0.17867 0.66888 0.0
O373 O 0.27673 0.16408 0.68823 0.0
O374 O 0.29963 0.18362 0.65798 0.0
C375 C 0.32845 0.15645 0.72984 0.0
Tb376 Tb 0.81809 0.17262 0.67497 0.0
C377 C 0.83676 0.1318 0.66559 0.0
Tb378 Tb 0.87548 0.19536 0.67033 0.0
O379 O 0.80963 0.15607 0.63355 0.0
O380 O 0.84392 0.19096 0.64672 0.0
O381 O 0.82002 0.13606 0.67733 0.0
C382 C 0.92007 0.20738 0.65307 0.0
O383 O 0.85803 0.15188 0.65806 0.0
C384 C 0.8623 0.19381 0.71814 0.0
C385 C 0.85632 0.23665 0.67944 0.0
O386 O 0.9104 0.19317 0.67256 0.0
O387 O 0.90481 0.21514 0.64354 0.0
O388 O 0.88476 0.21121 0.71194 0.0
O389 O 0.84975 0.17694 0.69859 0.0
O390 O 0.8753 0.23325 0.67238 0.0
O391 O 0.83329 0.21621 0.68259 0.0
C392 C 0.77242 0.15822 0.69084 0.0
O393 O 0.79319 0.16675 0.70627 0.0
O394 O 0.77741 0.15798 0.66653 0.0
C395 C 0.83175 0.17403 0.62715 0.0
C396 C 0.28952 0.82474 0.06711 0.0
C397 C 0.27622 0.83474 0.08096 0.0
C398 C 0.31164 0.84217 0.05568 0.0
C399 C 0.32094 0.87034 0.05854 0.0
C400 C 0.3074 0.88055 0.07204 0.0
C401 C 0.28509 0.86261 0.08287 0.0
C402 C 0.32546 0.83052 0.04121 0.0
C403 C 0.31686 0.9105 0.07569 0.0
C404 C 0.39189 0.91649 0.05646 0.0
C405 C 0.39296 0.9253 0.03132 0.0
C406 C 0.36855 0.89883 0.06562 0.0
C407 C 0.34573 0.88928 0.04896 0.0
C408 C 0.3467 0.8978 0.02335 0.0
C409 C 0.37038 0.91593 0.01487 0.0
C410 C 0.36833 0.89053 0.09318 0.0
C411 C 0.32278 0.88767 0.00493 0.0
H412 H 0.28305 0.80331 0.06577 0.0
H413 H 0.27468 0.8705 0.09302 0.0
H414 H 0.32907 0.83795 0.02145 0.0
H415 H 0.34424 0.83732 0.0522 0.0
H416 H 0.31458 0.80806 0.03876 0.0
H417 H 0.3036 0.91508 0.08582 0.0
H418 H 0.33571 0.92114 0.0875 0.0
H419 H 0.31949 0.91885 0.05633 0.0
H420 H 0.40939 0.92346 0.06905 0.0
H421 H 0.37125 0.92263 0.99535 0.0
H422 H 0.35917 0.86822 0.09251 0.0
H423 H 0.35694 0.89666 0.1049 0.0
H424 H 0.3878 0.89974 0.10357 0.0
H425 H 0.3126 0.86527 0.00166 0.0
H426 H 0.32683 0.89597 0.98554 0.0
H427 H 0.30971 0.8933 0.0139 0.0
C428 C 0.18238 0.46109 0.07462 0.0
C429 C 0.17597 0.43534 0.08156 0.0
C430 C 0.16344 0.46639 0.06481 0.0
C431 C 0.13765 0.44528 0.06152 0.0
C432 C 0.13127 0.419 0.06762 0.0
C433 C 0.1505 0.41441 0.07775 0.0
C434 C 0.17091 0.49471 0.05877 0.0
C435 C 0.10405 0.39589 0.06402 0.0
C436 C 0.0849 0.46224 0.06258 0.0
C437 C 0.07742 0.45982 0.03566 0.0
C438 C 0.10473 0.45791 0.07127 0.0
C439 C 0.11716 0.45076 0.05253 0.0
C440 C 0.10955 0.44816 0.0253 0.0
C441 C 0.08983 0.45289 0.01717 0.0
C442 C 0.11248 0.46116 0.10046 0.0
C443 C 0.12207 0.44011 0.0048 0.0
H444 H 0.20208 0.47729 0.07778 0.0
H445 H 0.14563 0.39444 0.08296 0.0
H446 H 0.16386 0.4945 0.0382 0.0
H447 H 0.16191 0.50289 0.07187 0.0
H448 H 0.19187 0.5086 0.06148 0.0
H449 H 0.10249 0.37638 0.06831 0.0
H450 H 0.09246 0.40021 0.0773 0.0
H451 H 0.09565 0.39367 0.04353 0.0
H452 H 0.07535 0.46773 0.07686 0.0
H453 H 0.084 0.45099 0.99634 0.0
H454 H 0.13239 0.47807 0.10502 0.0
H455 H 0.1119 0.44261 0.10651 0.0
H456 H 0.09998 0.46535 0.11247 0.0
H457 H 0.14282 0.45481 0.00661 0.0
H458 H 0.11397 0.43908 0.98442 0.0
H459 H 0.11969 0.42006 0.00808 0.0
C460 C 0.58166 0.7198 0.06344 0.0
C461 C 0.56392 0.72847 0.0597 0.0
C462 C 0.5763 0.69422 0.05275 0.0
C463 C 0.55292 0.67711 0.03724 0.0
C464 C 0.53568 0.68641 0.03185 0.0
C465 C 0.54126 0.71186 0.04335 0.0
C466 C 0.59508 0.68497 0.05927 0.0
C467 C 0.5108 0.66897 0.01493 0.0
C468 C 0.54676 0.61511 0.9983 0.0
C469 C 0.53281 0.59481 0.01445 0.0
C470 C 0.55286 0.64195 0.00503 0.0
C471 C 0.54554 0.64864 0.02886 0.0
C472 C 0.53167 0.62815 0.04531 0.0
C473 C 0.52516 0.60145 0.0377 0.0
C474 C 0.56711 0.66312 0.9867 0.0
C475 C 0.52415 0.63447 0.07127 0.0
H476 H 0.59955 0.73274 0.0754 0.0
H477 H 0.52731 0.71818 0.04039 0.0
H478 H 0.5864 0.6677 0.07143 0.0
H479 H 0.59977 0.67774 0.04102 0.0
H480 H 0.61304 0.70128 0.07029 0.0
H481 H 0.50113 0.68041 0.00976 0.0
H482 H 0.514 0.66042 0.99648 0.0
H483 H 0.49785 0.65175 0.02562 0.0
H484 H 0.5526 0.60993 0.98028 0.0
H485 H 0.51467 0.58582 0.0504 0.0
H486 H 0.58588 0.6788 0.99673 0.0
H487 H 0.55637 0.67339 0.98139 0.0
H488 H 0.57028 0.65438 0.96832 0.0
H489 H 0.54138 0.64975 0.08405 0.0
H490 H 0.51387 0.61627 0.082 0.0
H491 H 0.51174 0.64327 0.06791 0.0
C492 C 0.83758 0.29085 0.96369 0.0
C493 C 0.8437 0.2742 0.94832 0.0
C494 C 0.85666 0.31642 0.97537 0.0
C495 C 0.88238 0.32587 0.97101 0.0
C496 C 0.88879 0.30886 0.9563 0.0
C497 C 0.86946 0.28311 0.94557 0.0
C498 C 0.84917 0.33372 0.99155 0.0
C499 C 0.91595 0.31833 0.95081 0.0
C500 C 0.92635 0.40154 0.97181 0.0
C501 C 0.94192 0.40764 0.99539 0.0
C502 C 0.90691 0.375 0.96368 0.0
C503 C 0.90238 0.35422 0.98003 0.0
C504 C 0.91759 0.36046 0.00431 0.0
C505 C 0.93757 0.38709 0.01148 0.0
C506 C 0.89176 0.3691 0.93723 0.0
C507 C 0.91282 0.33901 0.0226 0.0
H508 H 0.81781 0.28438 0.96588 0.0
H509 H 0.87457 0.27015 0.93447 0.0
H510 H 0.86151 0.34211 0.01046 0.0
H511 H 0.85188 0.35106 0.98075 0.0
H512 H 0.82896 0.32223 0.99584 0.0
H513 H 0.91785 0.30233 0.93967 0.0
H514 H 0.92289 0.33604 0.9392 0.0
H515 H 0.92856 0.32497 0.96951 0.0
H516 H 0.92994 0.41742 0.95922 0.0
H517 H 0.94959 0.39192 0.02979 0.0
H518 H 0.8712 0.35993 0.93974 0.0
H519 H 0.89403 0.35425 0.92452 0.0
H520 H 0.89781 0.38756 0.92686 0.0
H521 H 0.89259 0.32853 0.02682 0.0
H522 H 0.92516 0.34753 0.04154 0.0
H523 H 0.91639 0.32354 0.01304 0.0
C524 C 0.71685 0.5647 0.92149 0.0
C525 C 0.73892 0.58156 0.93841 0.0
C526 C 0.69266 0.55644 0.92971 0.0
C527 C 0.69067 0.56588 0.95519 0.0
C528 C 0.71298 0.5828 0.97238 0.0
C529 C 0.73688 0.59019 0.96386 0.0
C530 C 0.66928 0.53788 0.91106 0.0
C531 C 0.71163 0.59372 -0.00053 0.0
C532 C 0.63057 0.56827 0.96531 0.0
C533 C 0.61738 0.54599 0.97956 0.0
C534 C 0.65459 0.57512 0.95748 0.0
C535 C 0.66529 0.55886 0.96352 0.0
C536 C 0.65182 0.53608 0.9776 0.0
C537 C 0.62809 0.53009 0.98575 0.0
C538 C 0.66861 0.59988 0.94295 0.0
C539 C 0.66236 0.51792 0.98384 0.0
H540 H 0.71856 0.55796 0.90185 0.0
H541 H 0.75406 0.60343 0.97679 0.0
H542 H 0.6562 0.51986 0.92075 0.0
H543 H 0.6588 0.54844 0.90584 0.0
H544 H 0.67409 0.53103 0.89261 0.0
H545 H 0.73076 0.60634 0.01053 0.0
H546 H 0.70243 0.60615 0.99771 0.0
H547 H 0.69975 0.57684 0.01108 0.0
H548 H 0.62225 0.58057 0.96057 0.0
H549 H 0.61773 0.51271 0.9966 0.0
H550 H 0.67204 0.59403 0.9232 0.0
H551 H 0.6875 0.61401 0.95382 0.0
H552 H 0.65792 0.61076 0.94041 0.0
H553 H 0.6661 0.50995 0.96537 0.0
H554 H 0.64917 0.50059 0.99432 0.0
H555 H 0.6808 0.52964 0.99627 0.0
C556 C 0.46008 0.16388 0.97983 0.0
C557 C 0.43679 0.15603 0.96514 0.0
C558 C 0.46509 0.1447 0.99026 0.0
C559 C 0.44681 0.11687 0.98505 0.0
C560 C 0.42283 0.10881 0.97143 0.0
C561 C 0.41792 0.12849 0.96215 0.0
C562 C 0.49061 0.15421 0.00546 0.0
C563 C 0.403 0.0793 0.96494 0.0
C564 C 0.47505 0.07143 0.97757 0.0
C565 C 0.4695 0.05854 0.00073 0.0
C566 C 0.4671 0.08982 0.97201 0.0
C567 C 0.45413 0.09633 0.99059 0.0
C568 C 0.44869 0.08355 0.01423 0.0
C569 C 0.45603 0.0643 0.0188 0.0
C570 C 0.47258 0.10226 0.94617 0.0
C571 C 0.43576 0.09072 0.03491 0.0
H572 H 0.47502 0.18491 0.98223 0.0
H573 H 0.39951 0.1221 0.95172 0.0
H574 H 0.48828 0.1431 0.02313 0.0
H575 H 0.50277 0.15009 0.99288 0.0
H576 H 0.50072 0.17623 0.01183 0.0
H577 H 0.38446 0.07642 0.95655 0.0
H578 H 0.40986 0.06995 0.95035 0.0
H579 H 0.3999 0.06828 0.98273 0.0
H580 H 0.48525 0.06671 0.96349 0.0
H581 H 0.4519 0.05436 0.03677 0.0
H582 H 0.48582 0.12438 0.9499 0.0
H583 H 0.45473 0.09912 0.93557 0.0
H584 H 0.48122 0.09356 0.93313 0.0
H585 H 0.44762 0.11251 0.04203 0.0
H586 H 0.43257 0.07869 0.05202 0.0
H587 H 0.41715 0.0874 0.02633 0.0
C588 C 0.70475 0.1612 0.95406 0.0
C589 C 0.71692 0.14777 0.94425 0.0
C590 C 0.67997 0.14661 0.96168 0.0
C591 C 0.66732 0.118 0.95974 0.0
C592 C 0.67964 0.10441 0.94995 0.0
C593 C 0.70424 0.11949 0.94212 0.0
C594 C 0.66728 0.16177 0.97166 0.0
C595 C 0.6669 0.07396 0.9479 0.0
C596 C 0.61355 0.0809 0.00243 0.0
C597 C 0.59208 0.07098 0.98414 0.0
C598 C 0.63818 0.09632 0.99476 0.0
C599 C 0.6413 0.10224 0.96824 0.0
C600 C 0.6196 0.09262 0.94978 0.0
C601 C 0.5952 0.07687 0.95792 0.0
C602 C 0.66085 0.10592 0.01493 0.0
C603 C 0.62214 0.09874 0.9214 0.0
H604 H 0.71441 0.18308 0.95551 0.0
H605 H 0.71368 0.10913 0.93449 0.0
H606 H 0.64912 0.15494 0.95933 0.0
H607 H 0.66255 0.15732 0.99209 0.0
H608 H 0.67952 0.18399 0.97147 0.0
H609 H 0.67921 0.06653 0.94015 0.0
H610 H 0.66195 0.06675 0.96758 0.0
H611 H 0.64887 0.06478 0.93476 0.0
H612 H 0.61112 0.07626 0.0227 0.0
H613 H 0.57856 0.06922 0.94377 0.0
H614 H 0.67274 0.12828 0.01645 0.0
H615 H 0.67295 0.09765 0.00862 0.0
H616 H 0.65514 0.0997 0.03477 0.0
H617 H 0.6034 0.09167 0.91011 0.0
H618 H 0.63156 0.08876 0.91172 0.0
H619 H 0.63431 0.12081 0.92034 0.0
C620 C 0.86207 0.57566 0.96505 0.0
C621 C 0.83614 0.55609 0.96074 0.0
C622 C 0.88051 0.56817 0.9698 0.0
C623 C 0.8728 0.54045 0.96992 0.0
C624 C 0.84662 0.52061 0.96542 0.0
C625 C 0.82856 0.52872 0.9611 0.0
C626 C 0.90822 0.58991 0.97495 0.0
C627 C 0.83772 0.49086 0.96515 0.0
C628 C 0.92325 0.5208 0.96159 0.0
C629 C 0.92943 0.51826 0.98769 0.0
C630 C 0.90449 0.52757 0.95538 0.0
C631 C 0.89206 0.53233 0.97586 0.0
C632 C 0.89832 0.52977 0.00225 0.0
C633 C 0.91681 0.52255 0.00781 0.0
C634 C 0.898 0.52967 0.92696 0.0
C635 C 0.88571 0.53498 0.02466 0.0
H636 H 0.86799 0.59688 0.9649 0.0
H637 H 0.80849 0.51361 0.95761 0.0
H638 H 0.91601 0.58886 0.99476 0.0
H639 H 0.91945 0.58662 0.96037 0.0
H640 H 0.91107 0.61052 0.97394 0.0
H641 H 0.81678 0.47796 0.96033 0.0
H642 H 0.84733 0.48506 0.9505 0.0
H643 H 0.84297 0.48655 0.9847 0.0
H644 H 0.93297 0.51732 0.94604 0.0
H645 H 0.92165 0.52062 0.02802 0.0
H646 H 0.90239 0.55059 0.92443 0.0
H647 H 0.87729 0.5161 0.92127 0.0
H648 H 0.90868 0.52428 0.91331 0.0
H649 H 0.88923 0.55594 0.0253 0.0
H650 H 0.8928 0.53216 0.04407 0.0
H651 H 0.86479 0.52115 0.02149 0.0
C652 C 0.47532 0.30729 0.97896 0.0
C653 C 0.4739 0.30007 0.95198 0.0
C654 C 0.48164 0.33366 0.98827 0.0
C655 C 0.4863 0.353 0.9701 0.0
C656 C 0.48507 0.34577 0.94287 0.0
C657 C 0.47903 0.31944 0.93419 0.0
C658 C 0.48311 0.34076 0.01747 0.0
C659 C 0.48965 0.3657 0.92282 0.0
C660 C 0.47691 0.41252 0.98693 0.0
C661 C 0.50213 0.43404 0.99147 0.0
C662 C 0.47148 0.38592 0.98068 0.0
C663 C 0.49176 0.38064 0.97925 0.0
C664 C 0.51724 0.4021 0.98478 0.0
C665 C 0.52213 0.42858 0.99064 0.0
C666 C 0.44406 0.36364 0.97459 0.0
C667 C 0.53936 0.39719 0.9838 0.0
H668 H 0.47147 0.29238 0.9928 0.0
H669 H 0.4779 0.31382 0.91332 0.0
H670 H 0.50198 0.35862 0.02443 0.0
H671 H 0.46851 0.34631 0.02148 0.0
H672 H 0.48008 0.32379 0.02909 0.0
H673 H 0.48817 0.35691 0.90241 0.0
H674 H 0.47558 0.37256 0.92368 0.0
H675 H 0.50885 0.38384 0.92741 0.0
H676 H 0.46131 0.41652 0.98745 0.0
H677 H 0.54168 0.44504 0.99435 0.0
H678 H 0.43986 0.3469 0.98696 0.0
H679 H 0.44072 0.35519 0.95371 0.0
H680 H 0.43048 0.37085 0.97793 0.0
H681 H 0.53665 0.38078 0.99607 0.0
H682 H 0.55787 0.4156 0.99079 0.0
H683 H 0.54026 0.39052 0.96329 0.0
C684 C 0.14469 0.67714 0.09535 0.0
C685 C 0.16149 0.69776 0.08102 0.0
C686 C 0.12594 0.65205 0.08261 0.0
C687 C 0.12407 0.64746 0.05484 0.0
C688 C 0.14107 0.66818 0.04023 0.0
C689 C 0.15959 0.6932 0.05351 0.0
C690 C 0.10808 0.63049 0.09889 0.0
C691 C 0.13973 0.66388 0.01062 0.0
C692 C 0.08928 0.57338 0.0287 0.0
C693 C 0.06461 0.56856 0.02184 0.0
C694 C 0.10917 0.5993 0.03829 0.0
C695 C 0.1042 0.62087 0.0413 0.0
C696 C 0.07963 0.6164 0.03334 0.0
C697 C 0.06014 0.59031 0.0236 0.0
C698 C 0.13519 0.60333 0.04632 0.0
C699 C 0.07358 0.63888 0.03639 0.0
H700 H 0.14617 0.68071 0.11662 0.0
H701 H 0.17258 0.70908 0.04235 0.0
H702 H 0.08806 0.62437 0.09241 0.0
H703 H 0.10987 0.61222 0.09591 0.0
H704 H 0.11193 0.63741 0.12028 0.0
H705 H 0.15446 0.68197 0.00218 0.0
H706 H 0.14226 0.64647 0.00498 0.0
H707 H 0.12068 0.65891 0.00161 0.0
H708 H 0.09298 0.55674 0.02725 0.0
H709 H 0.04115 0.58681 0.01841 0.0
H710 H 0.13937 0.60766 0.06805 0.0
H711 H 0.15008 0.62096 0.03753 0.0
H712 H 0.13659 0.58525 0.04024 0.0
H713 H 0.07482 0.64511 0.05764 0.0
H714 H 0.0542 0.63267 0.02724 0.0
H715 H 0.08769 0.65685 0.02737 0.0
C716 C 0.30789 0.41577 0.07896 0.0
C717 C 0.29565 0.43064 0.07509 0.0
C718 C 0.33155 0.4237 0.06952 0.0
C719 C 0.3432 0.4471 0.05591 0.0
C720 C 0.33081 0.46211 0.05176 0.0
C721 C 0.30713 0.45369 0.06141 0.0
C722 C 0.34422 0.40724 0.0744 0.0
C723 C 0.3427 0.48721 0.03737 0.0
C724 C 0.41486 0.48336 0.05408 0.0
C725 C 0.41696 0.47447 0.02874 0.0
C726 C 0.39095 0.4744 0.06327 0.0
C727 C 0.36866 0.45627 0.04659 0.0
C728 C 0.37071 0.44706 0.02103 0.0
C729 C 0.39491 0.45625 0.01241 0.0
C730 C 0.38957 0.48457 0.0907 0.0
C731 C 0.34734 0.42766 0.00276 0.0
H732 H 0.299 0.39796 0.08957 0.0
H733 H 0.29775 0.46529 0.05839 0.0
H734 H 0.34818 0.40038 0.05542 0.0
H735 H 0.3628 0.41994 0.0864 0.0
H736 H 0.33236 0.38923 0.0848 0.0
H737 H 0.33032 0.49622 0.03522 0.0
H738 H 0.36121 0.50257 0.04816 0.0
H739 H 0.34664 0.48235 0.01748 0.0
H740 H 0.43195 0.49742 0.06674 0.0
H741 H 0.39658 0.44937 0.99281 0.0
H742 H 0.37777 0.46734 0.10199 0.0
H743 H 0.3803 0.49697 0.08951 0.0
H744 H 0.40868 0.49703 0.10181 0.0
H745 H 0.33573 0.40887 0.01217 0.0
H746 H 0.35222 0.42221 0.98362 0.0
H747 H 0.33528 0.43679 0.9989 0.0
C748 C 0.54033 0.86586 0.08181 0.0
C749 C 0.54527 0.8482 0.06664 0.0
C750 C 0.53513 0.8843 0.07007 0.0
C751 C 0.53484 0.88509 0.04241 0.0
C752 C 0.54012 0.86751 0.02696 0.0
C753 C 0.54531 0.84923 0.03928 0.0
C754 C 0.52958 0.90268 0.08728 0.0
C755 C 0.5399 0.86774 0.99742 0.0
C756 C 0.49507 0.9137 0.01514 0.0
C757 C 0.51357 0.94088 0.01387 0.0
C758 C 0.50189 0.89496 0.02298 0.0
C759 C 0.52786 0.90357 0.02982 0.0
C760 C 0.54676 0.93058 0.02711 0.0
C761 C 0.5394 0.94893 0.01908 0.0
C762 C 0.48114 0.8663 0.02541 0.0
C763 C 0.57465 0.94051 0.03418 0.0
H764 H 0.54039 0.86512 0.10298 0.0
H765 H 0.54919 0.83565 0.02745 0.0
H766 H 0.5428 0.92411 0.08426 0.0
H767 H 0.50994 0.89841 0.0817 0.0
H768 H 0.53144 0.90017 0.10855 0.0
H769 H 0.54544 0.85361 0.98836 0.0
H770 H 0.52057 0.86198 0.98859 0.0
H771 H 0.55313 0.88842 0.9923 0.0
H772 H 0.47508 0.90718 0.01085 0.0
H773 H 0.55383 0.96987 0.01815 0.0
H774 H 0.47989 0.8627 0.04652 0.0
H775 H 0.48565 0.85167 0.01556 0.0
H776 H 0.46222 0.86209 0.0167 0.0
H777 H 0.57839 0.94129 0.05582 0.0
H778 H 0.58709 0.961 0.02804 0.0
H779 H 0.58001 0.92637 0.02484 0.0
C780 C 0.94768 0.16592 0.39352 0.0
C781 C 0.95025 0.1602 0.41944 0.0
C782 C 0.96897 0.18447 0.38164 0.0
C783 C 0.99341 0.19713 0.3959 0.0
C784 C 0.99615 0.19084 0.42186 0.0
C785 C 0.97446 0.17264 0.43343 0.0
C786 C 0.96523 0.19109 0.35414 0.0
C787 C 0.02195 0.20353 0.43749 0.0
C788 C 0.05196 0.22897 0.35832 0.0
C789 C 0.06023 0.25652 0.36337 0.0
C790 C 0.03013 0.20935 0.36869 0.0
C791 C 0.01606 0.21754 0.38398 0.0
C792 C 0.02401 0.24535 0.38851 0.0
C793 C 0.0462 0.26455 0.37837 0.0
C794 C 0.02254 0.17994 0.36388 0.0
C795 C 0.00925 0.25484 0.40432 0.0
H796 H 0.92888 0.15649 0.38285 0.0
H797 H 0.9764 0.16806 0.45344 0.0
H798 H 0.97152 0.2129 0.35449 0.0
H799 H 0.97713 0.18715 0.341 0.0
H800 H 0.94504 0.17913 0.34558 0.0
H801 H 0.02095 0.19545 0.45691 0.0
H802 H 0.03519 0.1999 0.42624 0.0
H803 H 0.03024 0.22574 0.44086 0.0
H804 H 0.06297 0.22279 0.34689 0.0
H805 H 0.05263 0.28588 0.38228 0.0
H806 H 0.00274 0.16794 0.35432 0.0
H807 H 0.02299 0.1718 0.38297 0.0
H808 H 0.03532 0.1769 0.35125 0.0
H809 H 0.98901 0.24433 0.39596 0.0
H810 H 0.01713 0.27701 0.40472 0.0
H811 H 0.00958 0.2497 0.42489 0.0
C812 C 0.83101 0.77757 0.43181 0.0
C813 C 0.84024 0.76491 0.41513 0.0
C814 C 0.81318 0.78437 0.42198 0.0
C815 C 0.80409 0.77791 0.39491 0.0
C816 C 0.81389 0.76577 0.37785 0.0
C817 C 0.83206 0.7596 0.38816 0.0
C818 C 0.80356 0.79779 0.44069 0.0
C819 C 0.80442 0.7583 0.34894 0.0
C820 C 0.7383 0.76777 0.37709 0.0
C821 C 0.74421 0.79207 0.36674 0.0
C822 C 0.75764 0.76272 0.38591 0.0
C823 C 0.78346 0.78269 0.38476 0.0
C824 C 0.78949 0.80735 0.37444 0.0
C825 C 0.76974 0.81165 0.36533 0.0
C826 C 0.75045 0.73606 0.39654 0.0
C827 C 0.81679 0.82931 0.37337 0.0
H828 H 0.83754 0.78182 0.45265 0.0
H829 H 0.83908 0.74959 0.37536 0.0
H830 H 0.80558 0.8164 0.43302 0.0
H831 H 0.78299 0.78402 0.44229 0.0
H832 H 0.81391 0.80321 0.46073 0.0
H833 H 0.81481 0.75012 0.33812 0.0
H834 H 0.78384 0.74284 0.34666 0.0
H835 H 0.80646 0.77621 0.33966 0.0
H836 H 0.71852 0.75264 0.37816 0.0
H837 H 0.7743 0.83055 0.35747 0.0
H838 H 0.75821 0.73958 0.41749 0.0
H839 H 0.75895 0.7258 0.38552 0.0
H840 H 0.72949 0.72229 0.39516 0.0
H841 H 0.82689 0.83578 0.39353 0.0
H842 H 0.81824 0.84729 0.36468 0.0
H843 H 0.82684 0.82146 0.36154 0.0
C844 C 0.20544 0.04374 0.38629 0.0
C845 C 0.22847 0.06049 0.40206 0.0
C846 C 0.19916 0.01774 0.3757 0.0
C847 C 0.21596 0.008 0.38163 0.0
C848 C 0.23948 0.02502 0.39691 0.0
C849 C 0.24564 0.05116 0.40645 0.0
C850 C 0.17423 1.00043 0.35881 0.0
C851 C 0.25777 0.01527 0.40407 0.0
C852 C 0.18895 0.93248 0.3824 0.0
C853 C 0.19787 0.92634 0.35989 0.0
C854 C 0.19447 0.95895 0.38954 0.0
C855 C 0.20849 0.97954 0.37323 0.0
C856 C 0.2167 0.97317 0.34989 0.0
C857 C 0.21171 0.94667 0.34376 0.0
C858 C 0.18611 0.96504 0.41503 0.0
C859 C 0.231 0.99438 0.3316 0.0
H860 H 0.19192 0.05055 0.38282 0.0
H861 H 0.26384 0.06417 0.41787 0.0
H862 H 0.17738 0.99173 0.34043 0.0
H863 H 0.16116 0.9833 0.36952 0.0
H864 H 0.16474 0.01201 0.35352 0.0
H865 H 0.27535 0.0311 0.41605 0.0
H866 H 0.24832 0.99746 0.41543 0.0
H867 H 0.26328 0.00872 0.386 0.0
H868 H 0.17848 0.91673 0.39501 0.0
H869 H 0.21842 0.94178 0.32623 0.0
H870 H 0.17405 0.97416 0.4112 0.0
H871 H 0.20304 0.98 0.42837 0.0
H872 H 0.17522 0.94667 0.42536 0.0
H873 H 0.2205 0.00499 0.32657 0.0
H874 H 0.23388 0.9856 0.31308 0.0
H875 H 0.24991 0.00979 0.34155 0.0
C876 C 0.53443 0.61532 0.27307 0.0
C877 C 0.50879 0.60676 0.2761 0.0
C878 C 0.55403 0.64093 0.28376 0.0
C879 C 0.548 0.65817 0.29863 0.0
C880 C 0.52238 0.64904 0.30329 0.0
C881 C 0.50302 0.62353 0.29174 0.0
C882 C 0.58105 0.65001 0.27804 0.0
C883 C 0.51531 0.66663 0.31961 0.0
C884 C 0.6039 0.71893 0.33877 0.0
C885 C 0.6086 0.73954 0.32262 0.0
C886 C 0.58361 0.69245 0.33171 0.0
C887 C 0.56831 0.68642 0.30755 0.0
C888 C 0.57315 0.70722 0.29114 0.0
C889 C 0.59299 0.73361 0.29909 0.0
C890 C 0.5786 0.67095 0.35002 0.0
C891 C 0.55782 0.70151 0.26483 0.0
H892 H 0.5392 0.60221 0.26172 0.0
H893 H 0.48333 0.61722 0.29417 0.0
H894 H 0.58807 0.66766 0.26633 0.0
H895 H 0.5938 0.65662 0.29665 0.0
H896 H 0.58265 0.6338 0.26691 0.0
H897 H 0.49513 0.6554 0.32403 0.0
H898 H 0.52778 0.67489 0.33845 0.0
H899 H 0.51822 0.68405 0.30885 0.0
H900 H 0.61587 0.7236 0.35709 0.0
H901 H 0.59675 0.74952 0.28648 0.0
H902 H 0.58167 0.65516 0.34035 0.0
H903 H 0.55845 0.66091 0.35449 0.0
H904 H 0.59114 0.67933 0.36884 0.0
H905 H 0.55991 0.68664 0.25194 0.0
H906 H 0.5639 0.72003 0.25457 0.0
H907 H 0.5373 0.69244 0.26751 0.0
C908 C 0.37094 0.88224 0.24816 0.0
C909 C 0.39481 0.90054 0.26149 0.0
C910 C 0.34849 0.87703 0.25904 0.0
C911 C 0.35013 0.89098 0.28352 0.0
C912 C 0.37431 0.90966 0.29694 0.0
C913 C 0.39644 0.91401 0.28584 0.0
C914 C 0.32307 0.85658 0.24441 0.0
C915 C 0.37677 0.92529 0.32279 0.0
C916 C 0.29203 0.89565 0.2984 0.0
C917 C 0.28136 0.87623 0.31627 0.0
C918 C 0.31469 0.90101 0.28792 0.0
C919 C 0.32651 0.88606 0.29502 0.0
C920 C 0.31559 0.86619 0.31285 0.0
C921 C 0.29325 0.86173 0.32352 0.0
C922 C 0.32599 0.92266 0.26929 0.0
C923 C 0.32727 0.84936 0.32034 0.0
H924 H 0.36991 0.87189 0.22929 0.0
H925 H 0.41505 0.92829 0.29591 0.0
H926 H 0.31183 0.84056 0.25719 0.0
H927 H 0.31192 0.86646 0.23931 0.0
H928 H 0.32515 0.84691 0.22599 0.0
H929 H 0.39697 0.93936 0.33048 0.0
H930 H 0.36705 0.93714 0.32029 0.0
H931 H 0.36729 0.91114 0.33774 0.0
H932 H 0.28275 0.90682 0.29278 0.0
H933 H 0.28481 0.8465 0.33716 0.0
H934 H 0.3266 0.91363 0.24977 0.0
H935 H 0.3459 0.9379 0.27687 0.0
H936 H 0.31495 0.93313 0.26658 0.0
H937 H 0.32837 0.83828 0.30239 0.0
H938 H 0.31621 0.83447 0.33418 0.0
H939 H 0.34702 0.86264 0.32966 0.0
C940 C 0.1373 0.50178 0.30201 0.0
C941 C 0.11482 0.49372 0.2857 0.0
C942 C 0.14188 0.48264 0.31329 0.0
C943 C 0.12386 0.45475 0.30765 0.0
C944 C 0.10073 0.44652 0.29209 0.0
C945 C 0.09634 0.46609 0.28167 0.0
C946 C 0.16655 0.49224 0.33027 0.0
C947 C 0.08118 0.41697 0.28525 0.0
C948 C 0.14997 0.40704 0.30659 0.0
C949 C 0.14223 0.39465 0.32982 0.0
C950 C 0.14383 0.42635 0.29909 0.0
C951 C 0.13029 0.43414 0.31566 0.0
C952 C 0.12268 0.42195 0.33938 0.0
C953 C 0.12838 0.40192 0.34597 0.0
C954 C 0.15162 0.43815 0.27322 0.0
C955 C 0.10877 0.43024 0.35783 0.0
H956 H 0.15182 0.52297 0.30519 0.0
H957 H 0.07856 0.45961 0.2698 0.0
H958 H 0.16288 0.48191 0.34857 0.0
H959 H 0.1791 0.48709 0.3195 0.0
H960 H 0.17688 0.51445 0.3357 0.0
H961 H 0.0635 0.41396 0.2743 0.0
H962 H 0.08934 0.40722 0.2729 0.0
H963 H 0.0761 0.4064 0.30335 0.0
H964 H 0.16042 0.40117 0.29389 0.0
H965 H 0.1225 0.39239 0.36399 0.0
H966 H 0.1646 0.46033 0.27677 0.0
H967 H 0.13458 0.43459 0.26055 0.0
H968 H 0.16138 0.42926 0.26228 0.0
H969 H 0.12023 0.45231 0.36379 0.0
H970 H 0.10484 0.41938 0.37584 0.0
H971 H 0.09043 0.42617 0.34766 0.0
C972 C 0.37355 0.49166 0.28988 0.0
C973 C 0.3829 0.47918 0.27309 0.0
C974 C 0.34962 0.47656 0.29931 0.0
C975 C 0.3348 0.44838 0.29178 0.0
C976 C 0.34427 0.43571 0.27497 0.0
C977 C 0.3682 0.4513 0.26581 0.0
C978 C 0.3401 0.49077 0.31713 0.0
C979 C 0.32905 0.40573 0.26651 0.0
C980 C 0.28215 0.40423 0.3332 0.0
C981 C 0.2605 0.4007 0.31826 0.0
C982 C 0.30652 0.41985 0.3249 0.0
C983 C 0.30918 0.43216 0.30112 0.0
C984 C 0.28729 0.42864 0.28601 0.0
C985 C 0.26321 0.41295 0.29479 0.0
C986 C 0.32939 0.42305 0.34147 0.0
C987 C 0.28929 0.44135 0.26052 0.0
H988 H 0.38481 0.51323 0.29554 0.0
H989 H 0.37542 0.44166 0.2528 0.0
H990 H 0.32205 0.48832 0.30782 0.0
H991 H 0.33591 0.48151 0.33602 0.0
H992 H 0.35409 0.51271 0.32145 0.0
H993 H 0.33931 0.39893 0.25368 0.0
H994 H 0.32463 0.39424 0.28408 0.0
H995 H 0.31062 0.40054 0.25564 0.0
H996 H 0.28004 0.39473 0.35135 0.0
H997 H 0.24645 0.41022 0.28322 0.0
H998 H 0.34311 0.44479 0.34732 0.0
H999 H 0.33937 0.41499 0.32978 0.0
H1000 H 0.32411 0.41239 0.35956 0.0
H1001 H 0.30179 0.46362 0.26416 0.0
H1002 H 0.27044 0.43679 0.25122 0.0
H1003 H 0.29812 0.43394 0.24638 0.0
C1004 C 0.5075 0.85646 0.23689 0.0
C1005 C 0.50141 0.87354 0.25141 0.0
C1006 C 0.52621 0.85103 0.24712 0.0
C1007 C 0.53956 0.86362 0.27215 0.0
C1008 C 0.53374 0.88128 0.2867 0.0
C1009 C 0.51449 0.88578 0.27627 0.0
C1010 C 0.53148 0.83162 0.23129 0.0
C1011 C 0.54797 0.89554 0.31319 0.0
C1012 C 0.57165 0.83253 0.31114 0.0
C1013 C 0.59693 0.84794 0.30542 0.0
C1014 C 0.55269 0.83712 0.30007 0.0
C1015 C 0.55935 0.85803 0.28335 0.0
C1016 C 0.58493 0.87372 0.27758 0.0
C1017 C 0.60341 0.86826 0.28848 0.0
C1018 C 0.52553 0.81955 0.30618 0.0
C1019 C 0.59283 0.89645 0.26017 0.0
H1020 H 0.49734 0.84703 0.21765 0.0
H1021 H 0.51003 0.89929 0.28738 0.0
H1022 H 0.5517 0.84192 0.22709 0.0
H1023 H 0.52829 0.81458 0.24285 0.0
H1024 H 0.5192 0.82327 0.2123 0.0
H1025 H 0.54176 0.90937 0.32154 0.0
H1026 H 0.54502 0.88048 0.3273 0.0
H1027 H 0.56873 0.90743 0.31134 0.0
H1028 H 0.56661 0.81662 0.32407 0.0
H1029 H 0.62298 0.88013 0.28402 0.0
H1030 H 0.51285 0.80982 0.28761 0.0
H1031 H 0.51891 0.83213 0.31643 0.0
H1032 H 0.52337 0.80351 0.31876 0.0
H1033 H 0.58216 0.88852 0.24035 0.0
H1034 H 0.61355 0.90695 0.25791 0.0
H1035 H 0.58807 0.91146 0.26858 0.0
C1036 C 0.13842 0.6542 0.26485 0.0
C1037 C 0.13852 0.63497 0.28046 0.0
C1038 C 0.14426 0.67976 0.27608 0.0
C1039 C 0.15084 0.68641 0.3036 0.0
C1040 C 0.15113 0.6671 0.31951 0.0
C1041 C 0.14473 0.64143 0.30775 0.0
C1042 C 0.14337 0.69962 0.25847 0.0
C1043 C 0.15846 0.67367 0.34885 0.0
C1044 C 0.18836 0.76187 0.32441 0.0
C1045 C 0.1693 0.76673 0.33258 0.0
C1046 C 0.18285 0.7356 0.3161 0.0
C1047 C 0.15758 0.71374 0.31548 0.0
C1048 C 0.13838 0.71844 0.3243 0.0
C1049 C 0.14452 0.74487 0.33296 0.0
C1050 C 0.20394 0.73137 0.3072 0.0
C1051 C 0.11111 0.69576 0.32348 0.0
H1052 H 0.13353 0.64914 0.24374 0.0
H1053 H 0.14496 0.62663 0.31985 0.0
H1054 H 0.1301 0.70608 0.26536 0.0
H1055 H 0.16247 0.71801 0.25943 0.0
H1056 H 0.13712 0.69096 0.23757 0.0
H1057 H 0.15783 0.65647 0.35843 0.0
H1058 H 0.178 0.69141 0.35281 0.0
H1059 H 0.14546 0.67922 0.35811 0.0
H1060 H 0.2076 0.77866 0.32422 0.0
H1061 H 0.12965 0.7485 0.33908 0.0
H1062 H 0.20042 0.72522 0.2857 0.0
H1063 H 0.20428 0.71484 0.31715 0.0
H1064 H 0.22295 0.74995 0.31133 0.0
H1065 H 0.10327 0.68772 0.30271 0.0
H1066 H 0.09879 0.70245 0.33258 0.0
H1067 H 0.11015 0.67886 0.33386 0.0
C1068 C 0.82872 0.02086 0.39285 0.0
C1069 C 0.83153 0.02621 0.42033 0.0
C1070 C 0.80864 0.99633 0.38026 0.0
C1071 C 0.79097 0.97694 0.39554 0.0
C1072 C 0.79362 0.98246 0.42326 0.0
C1073 C 0.81393 0.007 0.4353 0.0
C1074 C 0.80653 0.99099 0.35069 0.0
C1075 C 0.77514 0.96233 0.44024 0.0
C1076 C 0.72607 0.92127 0.36423 0.0
C1077 C 0.7296 0.89889 0.36263 0.0
C1078 C 0.74607 0.94701 0.37437 0.0
C1079 C 0.77017 0.95042 0.3828 0.0
C1080 C 0.77402 0.92806 0.38045 0.0
C1081 C 0.75368 0.90257 0.37053 0.0
C1082 C 0.74119 0.97034 0.37687 0.0
C1083 C 0.79948 0.9309 0.38903 0.0
H1084 H 0.8423 0.03568 0.3812 0.0
H1085 H 0.81608 0.01121 0.45655 0.0
H1086 H 0.80821 0.97293 0.34552 0.0
H1087 H 0.78757 0.98652 0.34192 0.0
H1088 H 0.82147 0.00838 0.3416 0.0
H1089 H 0.7793 0.97019 0.4614 0.0
H1090 H 0.75538 0.95701 0.43355 0.0
H1091 H 0.7759 0.94339 0.4383 0.0
H1092 H 0.7075 0.91857 0.35826 0.0
H1093 H 0.75665 0.88544 0.36917 0.0
H1094 H 0.75546 0.98754 0.36706 0.0
H1095 H 0.74326 0.97754 0.39798 0.0
H1096 H 0.72183 0.96468 0.36813 0.0
H1097 H 0.81483 0.94747 0.37953 0.0
H1098 H 0.79985 0.91199 0.3841 0.0
H1099 H 0.8039 0.93629 0.41064 0.0
C1100 C 0.97307 0.78821 0.40324 0.0
C1101 C 0.9658 0.77194 0.42412 0.0
C1102 C 0.99713 0.79757 0.39421 0.0
C1103 C 0.01393 0.78996 0.40602 0.0
C1104 C 0.00661 0.77353 0.42712 0.0
C1105 C 0.98269 0.76495 0.43609 0.0
C1106 C 0.00457 0.81556 0.37204 0.0
C1107 C 0.02383 0.76459 0.43988 0.0
C1108 C 0.06417 0.78999 0.36565 0.0
C1109 C 0.08618 0.81336 0.37704 0.0
C1110 C 0.0405 0.78215 0.37493 0.0
C1111 C 0.03885 0.79838 0.39578 0.0
C1112 C 0.06105 0.82222 0.40715 0.0
C1113 C 0.08456 0.8293 0.39776 0.0
C1114 C 0.01732 0.75632 0.36267 0.0
C1115 C 0.05997 0.84017 0.42922 0.0
H1116 H 0.96011 0.79388 0.39415 0.0
H1117 H 0.97699 0.75236 0.45226 0.0
H1118 H 0.02276 0.83462 0.37821 0.0
H1119 H 0.00775 0.8054 0.35476 0.0
H1120 H 0.9898 0.82064 0.36583 0.0
H1121 H 0.0153 0.75194 0.45619 0.0
H1122 H 0.02789 0.75279 0.42495 0.0
H1123 H 0.04233 0.78246 0.44779 0.0
H1124 H 0.06551 0.77763 0.34967 0.0
H1125 H 0.10165 0.84744 0.40648 0.0
H1126 H 0.00268 0.76072 0.35436 0.0
H1127 H 0.00876 0.74229 0.37797 0.0
H1128 H 0.02191 0.74593 0.34673 0.0
H1129 H 0.0456 0.84591 0.42342 0.0
H1130 H 0.07866 0.85889 0.43467 0.0
H1131 H 0.05397 0.82903 0.44691 0.0
C1132 C 0.20638 0.17854 0.37727 0.0
C1133 C 0.21055 0.18029 0.40477 0.0
C1134 C 0.1992 0.19551 0.36527 0.0
C1135 C 0.19636 0.21469 0.3812 0.0
C1136 C 0.20054 0.21643 0.40896 0.0
C1137 C 0.2075 0.19913 0.42039 0.0
C1138 C 0.19469 0.19298 0.33562 0.0
C1139 C 0.19785 0.23671 0.42664 0.0
C1140 C 0.20217 0.27786 0.35506 0.0
C1141 C 0.17672 0.27173 0.35272 0.0
C1142 C 0.20875 0.25903 0.36326 0.0
C1143 C 0.1894 0.23336 0.36907 0.0
C1144 C 0.16357 0.22654 0.36547 0.0
C1145 C 0.15754 0.24584 0.35743 0.0
C1146 C 0.23653 0.26712 0.36701 0.0
C1147 C 0.14237 0.19927 0.37122 0.0
H1148 H 0.20865 0.16392 0.36513 0.0
H1149 H 0.21074 0.20046 0.44166 0.0
H1150 H 0.17512 0.18873 0.32964 0.0
H1151 H 0.2081 0.21236 0.32807 0.0
H1152 H 0.19717 0.17667 0.32608 0.0
H1153 H 0.20177 0.23543 0.44786 0.0
H1154 H 0.2112 0.25751 0.42189 0.0
H1155 H 0.17829 0.23338 0.42322 0.0
H1156 H 0.21716 0.29778 0.35144 0.0
H1157 H 0.13779 0.2408 0.35549 0.0
H1158 H 0.23958 0.25157 0.35674 0.0
H1159 H 0.24243 0.26855 0.38827 0.0
H1160 H 0.24906 0.28691 0.35955 0.0
H1161 H 0.14437 0.18285 0.36121 0.0
H1162 H 0.12324 0.1961 0.36483 0.0
H1163 H 0.14355 0.1975 0.3927 0.0
C1164 C 0.60223 0.53747 0.7273 0.0
C1165 C 0.59466 0.51039 0.73013 0.0
C1166 C 0.62625 0.55523 0.71939 0.0
C1167 C 0.64333 0.5458 0.71473 0.0
C1168 C 0.63568 0.51838 0.71738 0.0
C1169 C 0.61129 0.50091 0.7248 0.0
C1170 C 0.63345 0.58413 0.71626 0.0
C1171 C 0.65349 0.50769 0.71304 0.0
C1172 C 0.69869 0.58543 0.67438 0.0
C1173 C 0.71864 0.60096 0.69413 0.0
C1174 C 0.674 0.56757 0.68078 0.0
C1175 C 0.66936 0.5648 0.70759 0.0
C1176 C 0.68956 0.58038 0.72761 0.0
C1177 C 0.71392 0.5985 0.72062 0.0
C1178 C 0.65289 0.55175 0.65888 0.0
C1179 C 0.68552 0.57769 0.75641 0.0
H1180 H 0.58927 0.54473 0.7313 0.0
H1181 H 0.6055 0.48003 0.72725 0.0
H1182 H 0.64997 0.59805 0.73058 0.0
H1183 H 0.63932 0.58922 0.69625 0.0
H1184 H 0.61754 0.5879 0.71938 0.0
H1185 H 0.64457 0.48582 0.71567 0.0
H1186 H 0.6596 0.5108 0.69289 0.0
H1187 H 0.6709 0.51903 0.72709 0.0
H1188 H 0.70235 0.58736 0.65387 0.0
H1189 H 0.7294 0.61039 0.73592 0.0
H1190 H 0.63719 0.55604 0.66111 0.0
H1191 H 0.64486 0.52975 0.66002 0.0
H1192 H 0.65953 0.55666 0.63907 0.0
H1193 H 0.67122 0.58336 0.76146 0.0
H1194 H 0.70339 0.59063 0.76951 0.0
H1195 H 0.67789 0.55634 0.76048 0.0
C1196 C 0.47156 0.06792 0.74043 0.0
C1197 C 0.49757 0.08726 0.74506 0.0
C1198 C 0.45366 0.07517 0.73195 0.0
C1199 C 0.46194 0.10248 0.72816 0.0
C1200 C 0.48824 0.12205 0.73242 0.0
C1201 C 0.50578 0.11418 0.74071 0.0
C1202 C 0.42584 0.05364 0.72734 0.0
C1203 C 0.49776 0.15139 0.72873 0.0
C1204 C 0.41774 0.11736 0.68594 0.0
C1205 C 0.40605 0.12452 0.7051 0.0
C1206 C 0.43608 0.11026 0.69315 0.0
C1207 C 0.44297 0.11055 0.72018 0.0
C1208 C 0.43131 0.11798 0.73961 0.0
C1209 C 0.4129 0.12479 0.73181 0.0
C1210 C 0.44793 0.10224 0.67188 0.0
C1211 C 0.43823 0.11867 0.76862 0.0
H1212 H 0.4652 0.04703 0.74348 0.0
H1213 H 0.52584 0.12921 0.7445 0.0
H1214 H 0.41475 0.05845 0.74089 0.0
H1215 H 0.4182 0.05316 0.70693 0.0
H1216 H 0.42263 0.0332 0.73044 0.0
H1217 H 0.51884 0.16398 0.73228 0.0
H1218 H 0.49172 0.1533 0.70844 0.0
H1219 H 0.48926 0.15959 0.74249 0.0
H1220 H 0.41245 0.11716 0.66526 0.0
H1221 H 0.40394 0.13046 0.74666 0.0
H1222 H 0.44394 0.08132 0.67356 0.0
H1223 H 0.46892 0.11568 0.67436 0.0
H1224 H 0.44064 0.10328 0.65178 0.0
H1225 H 0.43376 0.09823 0.7734 0.0
H1226 H 0.42788 0.12555 0.78123 0.0
H1227 H 0.45901 0.13241 0.77367 0.0
C1228 C 0.87674 0.37177 0.75073 0.0
C1229 C 0.88408 0.39374 0.73564 0.0
C1230 C 0.8719 0.3466 0.73948 0.0
C1231 C 0.87383 0.343 0.71227 0.0
C1232 C 0.88023 0.36471 0.69663 0.0
C1233 C 0.88545 0.3899 0.70853 0.0
C1234 C 0.86524 0.32402 0.75691 0.0
C1235 C 0.88205 0.36145 0.66745 0.0
C1236 C 0.88594 0.28597 0.69234 0.0
C1237 C 0.86113 0.26449 0.68495 0.0
C1238 C 0.89047 0.31194 0.70038 0.0
C1239 C 0.86973 0.31661 0.70058 0.0
C1240 C 0.84479 0.2953 0.69187 0.0
C1241 C 0.84075 0.26942 0.68441 0.0
C1242 C 0.91729 0.33401 0.70994 0.0
C1243 C 0.82225 0.29959 0.69134 0.0
H1244 H 0.87497 0.37429 0.77154 0.0
H1245 H 0.89124 0.40676 0.69673 0.0
H1246 H 0.84642 0.30629 0.74957 0.0
H1247 H 0.87949 0.31737 0.75632 0.0
H1248 H 0.8646 0.33017 0.77774 0.0
H1249 H 0.88549 0.37966 0.65774 0.0
H1250 H 0.89783 0.35756 0.66415 0.0
H1251 H 0.86424 0.34374 0.6578 0.0
H1252 H 0.90175 0.28226 0.69295 0.0
H1253 H 0.82154 0.25295 0.67848 0.0
H1254 H 0.91847 0.33977 0.73131 0.0
H1255 H 0.92247 0.35233 0.69968 0.0
H1256 H 0.93151 0.32765 0.7068 0.0
H1257 H 0.81868 0.30326 0.71179 0.0
H1258 H 0.80464 0.28187 0.68128 0.0
H1259 H 0.82627 0.3177 0.68119 0.0
C1260 C 0.18274 0.94403 0.64471 0.0
C1261 C 0.17607 0.94132 0.61748 0.0
C1262 C 0.20249 0.96865 0.65767 0.0
C1263 C 0.21586 0.99106 0.64307 0.0
C1264 C 0.20911 0.98844 0.61562 0.0
C1265 C 0.18929 0.96372 0.60324 0.0
C1266 C 0.20905 0.9707 0.68697 0.0
C1267 C 0.22272 0.01186 0.5993 0.0
C1268 C 0.24946 0.06376 0.67347 0.0
C1269 C 0.2752 0.07116 0.67373 0.0
C1270 C 0.22993 0.03731 0.66502 0.0
C1271 C 0.23623 0.01771 0.65636 0.0
C1272 C 0.26216 0.02463 0.65793 0.0
C1273 C 0.28138 0.05129 0.66674 0.0
C1274 C 0.20259 0.0308 0.66395 0.0
C1275 C 0.26966 0.00432 0.64883 0.0
H1276 H 0.17281 0.92677 0.65581 0.0
H1277 H 0.18399 0.96199 0.58229 0.0
H1278 H 0.22935 0.97661 0.69117 0.0
H1279 H 0.20656 0.98672 0.69713 0.0
H1280 H 0.19704 0.95138 0.69546 0.0
H1281 H 0.2157 0.00625 0.57804 0.0
H1282 H 0.22007 0.02884 0.60641 0.0
H1283 H 0.24348 0.01934 0.60147 0.0
H1284 H 0.24451 0.07893 0.67915 0.0
H1285 H 0.30121 0.05686 0.66682 0.0
H1286 H 0.19084 0.01192 0.67315 0.0
H1287 H 0.1946 0.02743 0.6431 0.0
H1288 H 0.20076 0.04733 0.67407 0.0
H1289 H 0.25831 0.98503 0.65756 0.0
H1290 H 0.29022 0.01183 0.65409 0.0
H1291 H 0.26556 0.99984 0.6271 0.0
C1292 C 0.04253 0.22896 0.58339 0.0
C1293 C 0.06476 0.24668 0.59975 0.0
C1294 C 0.01843 0.22159 0.59143 0.0
C1295 C 0.0167 0.23284 0.6161 0.0
C1296 C 0.03921 0.251 0.63254 0.0
C1297 C 0.06301 0.25742 0.62429 0.0
C1298 C 0.99486 0.20161 0.57369 0.0
C1299 C 0.03816 0.26386 0.6587 0.0
C1300 C 0.95599 0.23403 0.62655 0.0
C1301 C 0.94437 0.21343 0.64308 0.0
C1302 C 0.97957 0.24059 0.61759 0.0
C1303 C 0.99137 0.22564 0.62479 0.0
C1304 C 0.97924 0.20422 0.64082 0.0
C1305 C 0.95601 0.19861 0.65008 0.0
C1306 C 0.99211 0.26386 0.60092 0.0
C1307 C 0.99084 0.1873 0.64825 0.0
H1308 H 0.04404 0.2206 0.56446 0.0
H1309 H 0.08032 0.27126 0.63677 0.0
H1310 H 0.98286 0.18383 0.58427 0.0
H1311 H 0.98325 0.21092 0.56835 0.0
H1312 H 0.9995 0.19449 0.55529 0.0
H1313 H 0.05743 0.27815 0.66876 0.0
H1314 H 0.02776 0.27496 0.65574 0.0
H1315 H 0.02754 0.24802 0.67186 0.0
H1316 H 0.94689 0.24542 0.62108 0.0
H1317 H 0.94684 0.18244 0.66262 0.0
H1318 H 0.99547 0.25678 0.58173 0.0
H1319 H 0.01097 0.27941 0.61092 0.0
H1320 H 0.98044 0.27348 0.59714 0.0
H1321 H 0.99467 0.17871 0.63025 0.0
H1322 H 0.9783 0.17045 0.65962 0.0
H1323 H 0.00936 0.20014 0.66029 0.0
C1324 C 0.79502 0.83779 0.63914 0.0
C1325 C 0.77428 0.82924 0.61997 0.0
C1326 C 0.79969 0.81905 0.65117 0.0
C1327 C 0.78383 0.79109 0.64322 0.0
C1328 C 0.76233 0.78222 0.62472 0.0
C1329 C 0.75753 0.80132 0.61379 0.0
C1330 C 0.82236 0.82929 0.67147 0.0
C1331 C 0.74524 0.75264 0.61521 0.0
C1332 C 0.81522 0.74835 0.64498 0.0
C1333 C 0.80457 0.73283 0.66585 0.0
C1334 C 0.8085 0.76722 0.63744 0.0
C1335 C 0.79137 0.77145 0.65175 0.0
C1336 C 0.7811 0.75641 0.67341 0.0
C1337 C 0.78743 0.7368 0.67989 0.0
C1338 C 0.81925 0.78209 0.61368 0.0
C1339 C 0.76352 0.76108 0.68972 0.0
H1340 H 0.80829 0.85917 0.64411 0.0
H1341 H 0.74089 0.79426 0.59982 0.0
H1342 H 0.81707 0.8171 0.68855 0.0
H1343 H 0.83764 0.82726 0.66273 0.0
H1344 H 0.83016 0.85088 0.67867 0.0
H1345 H 0.72848 0.7489 0.60189 0.0
H1346 H 0.75622 0.74523 0.60443 0.0
H1347 H 0.73835 0.74049 0.63214 0.0
H1348 H 0.82827 0.74511 0.63389 0.0
H1349 H 0.77928 0.72486 0.6961 0.0
H1350 H 0.83013 0.80421 0.61935 0.0
H1351 H 0.80347 0.77796 0.59868 0.0
H1352 H 0.83204 0.77613 0.60449 0.0
H1353 H 0.77258 0.78284 0.69683 0.0
H1354 H 0.7586 0.7491 0.70697 0.0
H1355 H 0.74566 0.75555 0.67745 0.0
C1356 C 0.03646 0.7864 0.61284 0.0
C1357 C 0.04899 0.8147 0.61476 0.0
C1358 C 0.01176 0.77114 0.62044 0.0
C1359 C 0.99909 0.78449 0.62987 0.0
C1360 C 0.01161 0.81312 0.6317 0.0
C1361 C 0.03651 0.82792 0.62427 0.0
C1362 C 0.99925 0.74071 0.61847 0.0
C1363 C 0.99862 0.82808 0.64131 0.0
C1364 C 0.92672 0.74268 0.62669 0.0
C1365 C 0.92306 0.73665 0.65283 0.0
C1366 C 0.95133 0.75864 0.61902 0.0
C1367 C 0.97279 0.76843 0.63789 0.0
C1368 C 0.96913 0.76229 0.66431 0.0
C1369 C 0.94429 0.74662 0.6715 0.0
C1370 C 0.95436 0.76489 0.59071 0.0
C1371 C 0.99147 0.77202 0.68494 0.0
H1372 H 0.04609 0.77616 0.60546 0.0
H1373 H 0.04603 0.84979 0.62561 0.0
H1374 H 0.99395 0.73347 0.63807 0.0
H1375 H 0.98144 0.73139 0.60496 0.0
H1376 H 0.01184 0.73347 0.61116 0.0
H1377 H 0.01082 0.85033 0.6413 0.0
H1378 H 0.98065 0.82123 0.62862 0.0
H1379 H 0.9935 0.82346 0.66161 0.0
H1380 H 0.91032 0.73505 0.61223 0.0
H1381 H 0.94149 0.74194 0.69172 0.0
H1382 H 0.96435 0.75535 0.58143 0.0
H1383 H 0.96623 0.78702 0.58979 0.0
H1384 H 0.93576 0.75746 0.57897 0.0
H1385 H 0.00387 0.764 0.679 0.0
H1386 H 0.98539 0.76562 0.70463 0.0
H1387 H 0.00317 0.7944 0.6866 0.0
C1388 C 0.18615 0.23569 0.63112 0.0
C1389 C 0.17348 0.22398 0.606 0.0
C1390 C 0.20351 0.22894 0.64264 0.0
C1391 C 0.20773 0.20958 0.62892 0.0
C1392 C 0.1945 0.19731 0.60378 0.0
C1393 C 0.1778 0.20496 0.59248 0.0
C1394 C 0.21776 0.24296 0.66918 0.0
C1395 C 0.19806 0.17617 0.58875 0.0
C1396 C 0.26892 0.20823 0.64339 0.0
C1397 C 0.2613 0.1874 0.65987 0.0
C1398 C 0.25189 0.21626 0.63388 0.0
C1399 C 0.22645 0.20258 0.64047 0.0
C1400 C 0.2187 0.18155 0.6572 0.0
C1401 C 0.23636 0.17443 0.66701 0.0
C1402 C 0.26104 0.23916 0.61654 0.0
C1403 C 0.19158 0.16603 0.66411 0.0
H1404 H 0.18301 0.25062 0.64149 0.0
H1405 H 0.16793 0.1959 0.57305 0.0
H1406 H 0.21416 0.22784 0.68341 0.0
H1407 H 0.23856 0.25409 0.66743 0.0
H1408 H 0.21223 0.25745 0.67731 0.0
H1409 H 0.18525 0.16749 0.57011 0.0
H1410 H 0.21804 0.18517 0.58393 0.0
H1411 H 0.19434 0.15952 0.6011 0.0
H1412 H 0.28828 0.21832 0.63797 0.0
H1413 H 0.23045 0.15818 0.67963 0.0
H1414 H 0.25668 0.25466 0.62444 0.0
H1415 H 0.25089 0.23145 0.59647 0.0
H1416 H 0.28185 0.249 0.61492 0.0
H1417 H 0.18611 0.18007 0.67343 0.0
H1418 H 0.18874 0.15054 0.67771 0.0
H1419 H 0.17848 0.1558 0.64587 0.0
C1420 C 0.80512 0.97775 0.63662 0.0
C1421 C 0.78409 0.96497 0.61751 0.0
C1422 C 0.8159 0.00531 0.64538 0.0
C1423 C 0.80543 0.0203 0.63464 0.0
C1424 C 0.78442 0.00749 0.61508 0.0
C1425 C 0.77398 0.97997 0.60684 0.0
C1426 C 0.83826 0.01831 0.6663 0.0
C1427 C 0.77275 0.02277 0.60304 0.0
C1428 C 0.81219 0.08278 0.67236 0.0
C1429 C 0.83072 0.10358 0.65944 0.0
C1430 C 0.80461 0.05565 0.66523 0.0
C1431 C 0.81561 0.04912 0.64446 0.0
C1432 C 0.83487 0.07009 0.63183 0.0
C1433 C 0.84231 0.09711 0.63958 0.0
C1434 C 0.78413 0.03391 0.67929 0.0
C1435 C 0.84685 0.06395 0.60938 0.0
H1436 H 0.81305 0.96623 0.64489 0.0
H1437 H 0.75779 0.97011 0.59196 0.0
H1438 H 0.85449 0.03611 0.65913 0.0
H1439 H 0.83303 0.02572 0.68407 0.0
H1440 H 0.84465 0.0041 0.67209 0.0
H1441 H 0.75707 0.01006 0.58736 0.0
H1442 H 0.76509 0.03023 0.61852 0.0
H1443 H 0.78751 0.0407 0.59449 0.0
H1444 H 0.8033 0.08766 0.68786 0.0
H1445 H 0.85652 0.11307 0.62937 0.0
H1446 H 0.7905 0.02012 0.6864 0.0
H1447 H 0.76677 0.02155 0.66538 0.0
H1448 H 0.77896 0.04242 0.69635 0.0
H1449 H 0.85367 0.05009 0.61504 0.0
H1450 H 0.86309 0.08254 0.60324 0.0
H1451 H 0.83238 0.05357 0.59216 0.0
C1452 C 0.44687 0.36564 0.72896 0.0
C1453 C 0.46941 0.38061 0.71723 0.0
C1454 C 0.43175 0.33756 0.72302 0.0
C1455 C 0.439 0.32416 0.70429 0.0
C1456 C 0.46164 0.33926 0.69207 0.0
C1457 C 0.4768 0.36734 0.69895 0.0
C1458 C 0.4081 0.3222 0.73697 0.0
C1459 C 0.46965 0.32579 0.67155 0.0
C1460 C 0.41001 0.24844 0.70724 0.0
C1461 C 0.38832 0.2381 0.68913 0.0
C1462 C 0.42707 0.27641 0.71192 0.0
C1463 C 0.42267 0.29438 0.69762 0.0
C1464 C 0.40141 0.28388 0.6784 0.0
C1465 C 0.38427 0.25589 0.67468 0.0
C1466 C 0.4491 0.28678 0.73305 0.0
C1467 C 0.39637 0.30228 0.66229 0.0
H1468 H 0.44124 0.37592 0.7432 0.0
H1469 H 0.49417 0.37892 0.68972 0.0
H1470 H 0.39099 0.31227 0.72243 0.0
H1471 H 0.40895 0.30601 0.74709 0.0
H1472 H 0.40569 0.3355 0.75176 0.0
H1473 H 0.48751 0.34043 0.66355 0.0
H1474 H 0.47255 0.31009 0.68014 0.0
H1475 H 0.45434 0.31545 0.65503 0.0
H1476 H 0.41307 0.23474 0.71861 0.0
H1477 H 0.36762 0.2479 0.66048 0.0
H1478 H 0.44669 0.29882 0.74922 0.0
H1479 H 0.46727 0.30037 0.72501 0.0
H1480 H 0.45061 0.27013 0.74146 0.0
H1481 H 0.3912 0.31462 0.67522 0.0
H1482 H 0.38066 0.29082 0.64629 0.0
H1483 H 0.41381 0.31647 0.65341 0.0
C1484 C 0.63396 0.07556 0.73682 0.0
C1485 C 0.62098 0.08994 0.73777 0.0
C1486 C 0.65908 0.08772 0.7301 0.0
C1487 C 0.67156 0.11503 0.72444 0.0
C1488 C 0.65869 0.12984 0.72586 0.0
C1489 C 0.63346 0.11707 0.73241 0.0
C1490 C 0.67209 0.0712 0.72862 0.0
C1491 C 0.67148 0.15907 0.72018 0.0
C1492 C 0.74372 0.15074 0.72626 0.0
C1493 C 0.74688 0.14863 0.69946 0.0
C1494 C 0.71932 0.14052 0.7347 0.0
C1495 C 0.69766 0.12762 0.71587 0.0
C1496 C 0.70087 0.12578 0.68875 0.0
C1497 C 0.72548 0.13645 0.68087 0.0
C1498 C 0.71669 0.14316 0.76376 0.0
C1499 C 0.67827 0.11193 0.66809 0.0
H1500 H 0.62432 0.05461 0.74108 0.0
H1501 H 0.62357 0.12836 0.73336 0.0
H1502 H 0.67708 0.06976 0.70828 0.0
H1503 H 0.69013 0.08126 0.74182 0.0
H1504 H 0.65994 0.05041 0.73422 0.0
H1505 H 0.6593 0.1681 0.72336 0.0
H1506 H 0.68967 0.17112 0.73297 0.0
H1507 H 0.67617 0.1607 0.69947 0.0
H1508 H 0.76032 0.16017 0.74063 0.0
H1509 H 0.72793 0.13476 0.66013 0.0
H1510 H 0.706 0.12279 0.77073 0.0
H1511 H 0.70563 0.15341 0.76732 0.0
H1512 H 0.73546 0.15473 0.77573 0.0
H1513 H 0.66619 0.09041 0.6716 0.0
H1514 H 0.68406 0.11278 0.64779 0.0
H1515 H 0.66634 0.12147 0.66945 0.0
C1516 C 0.86707 0.51389 0.70889 0.0
C1517 C 0.88453 0.52434 0.73151 0.0
C1518 C 0.85772 0.5294 0.69754 0.0
C1519 C 0.86572 0.5557 0.70938 0.0
C1520 C 0.88338 0.56627 0.73221 0.0
C1521 C 0.89271 0.55053 0.74283 0.0
C1522 C 0.83922 0.51764 0.67297 0.0
C1523 C 0.89212 0.59405 0.74569 0.0
C1524 C 0.86009 0.60908 0.67365 0.0
C1525 C 0.83858 0.60784 0.68358 0.0
C1526 C 0.86841 0.59124 0.68078 0.0
C1527 C 0.85515 0.57206 0.69862 0.0
C1528 C 0.83291 0.57009 0.70794 0.0
C1529 C 0.82479 0.58784 0.70015 0.0
C1530 C 0.89195 0.59365 0.67005 0.0
C1531 C 0.81843 0.55019 0.72728 0.0
H1532 H 0.86083 0.4937 0.69996 0.0
H1533 H 0.9062 0.55859 0.76034 0.0
H1534 H 0.82075 0.51579 0.67707 0.0
H1535 H 0.84659 0.53138 0.65722 0.0
H1536 H 0.83576 0.4974 0.66553 0.0
H1537 H 0.90597 0.59928 0.76325 0.0
H1538 H 0.90116 0.60955 0.73174 0.0
H1539 H 0.87548 0.59512 0.75198 0.0
H1540 H 0.87073 0.62434 0.66068 0.0
H1541 H 0.80821 0.58678 0.70805 0.0
H1542 H 0.88832 0.57348 0.66213 0.0
H1543 H 0.90765 0.60151 0.68618 0.0
H1544 H 0.89839 0.60744 0.65423 0.0
H1545 H 0.81362 0.52949 0.71977 0.0
H1546 H 0.80055 0.54991 0.73122 0.0
H1547 H 0.83058 0.55559 0.74621 0.0
C1548 C 0.45649 0.96732 0.19407 0.0
C1549 C 0.45351 0.9414 0.19231 0.0
C1550 C 0.46444 0.98331 0.17295 0.0
C1551 C 0.46911 0.97287 0.14951 0.0
C1552 C 0.46563 0.94647 0.14752 0.0
C1553 C 0.45806 0.93114 0.16905 0.0
C1554 C 0.46835 0.0115 0.17591 0.0
C1555 C 0.46987 0.93439 0.1226 0.0
C1556 C 0.4681 0.9982 0.08303 0.0
C1557 C 0.49397 0.01144 0.07931 0.0
C1558 C 0.45971 0.987 0.10666 0.0
C1559 C 0.4778 0.98931 0.1269 0.0
C1560 C 0.50416 0.00469 0.12394 0.0
C1561 C 0.51197 0.01564 0.10004 0.0
C1562 C 0.4315 0.97141 0.10941 0.0
C1563 C 0.52403 0.00785 0.14517 0.0
H1564 H 0.45316 0.97529 0.21221 0.0
H1565 H 0.45549 0.91097 0.16767 0.0
H1566 H 0.48863 0.02651 0.17433 0.0
H1567 H 0.4569 0.014 0.15981 0.0
H1568 H 0.46302 0.01623 0.1951 0.0
H1569 H 0.46606 0.91348 0.1242 0.0
H1570 H 0.45725 0.93397 0.10577 0.0
H1571 H 0.48981 0.94709 0.11799 0.0
H1572 H 0.45439 0.99587 0.0671 0.0
H1573 H 0.53202 0.02596 0.09699 0.0
H1574 H 0.4272 0.98035 0.12678 0.0
H1575 H 0.42551 0.95021 0.11281 0.0
H1576 H 0.41994 0.97132 0.09171 0.0
H1577 H 0.52002 0.01345 0.16472 0.0
H1578 H 0.54355 0.02341 0.1414 0.0
H1579 H 0.52346 0.98828 0.14611 0.0
C1580 C 0.0559 0.5103 0.20244 0.0
C1581 C 0.08146 0.51724 0.20579 0.0
C1582 C 0.04325 0.50523 0.17716 0.0
C1583 C 0.0567 0.50757 0.15482 0.0
C1584 C 0.0824 0.51384 0.15819 0.0
C1585 C 0.09451 0.51859 0.18377 0.0
C1586 C 0.01576 0.49829 0.17436 0.0
C1587 C 0.09752 0.51692 0.13495 0.0
C1588 C 0.01693 0.47802 0.08874 0.0
C1589 C 0.01727 0.50076 0.07971 0.0
C1590 C 0.03029 0.48001 0.11289 0.0
C1591 C 0.04427 0.50536 0.12818 0.0
C1592 C 0.04524 0.52853 0.11866 0.0
C1593 C 0.03153 0.52589 0.09461 0.0
C1594 C 0.0291 0.45497 0.12229 0.0
C1595 C 0.06043 0.55605 0.13407 0.0
H1596 H 0.046 0.50938 0.21967 0.0
H1597 H 0.1144 0.52421 0.1866 0.0
H1598 H 0.01428 0.51478 0.16562 0.0
H1599 H 0.00411 0.47958 0.16083 0.0
H1600 H 0.00755 0.49532 0.19358 0.0
H1601 H 0.11513 0.5163 0.14043 0.0
H1602 H 0.08597 0.50089 0.11869 0.0
H1603 H 0.10307 0.53665 0.12731 0.0
H1604 H 0.00584 0.45859 0.07713 0.0
H1605 H 0.03204 0.54355 0.08741 0.0
H1606 H 0.02015 0.4506 0.14106 0.0
H1607 H 0.04863 0.45834 0.1263 0.0
H1608 H 0.01805 0.43698 0.10768 0.0
H1609 H 0.05231 0.55587 0.15299 0.0
H1610 H 0.06051 0.57227 0.1231 0.0
H1611 H 0.08041 0.56108 0.13886 0.0
C1612 C 0.46503 0.54672 0.17225 0.0
C1613 C 0.47654 0.54282 0.19478 0.0
C1614 C 0.47185 0.54316 0.14717 0.0
C1615 C 0.49047 0.53544 0.14483 0.0
C1616 C 0.50136 0.53051 0.16759 0.0
C1617 C 0.49438 0.53449 0.19235 0.0
C1618 C 0.46011 0.54905 0.12347 0.0
C1619 C 0.52103 0.52192 0.16588 0.0
C1620 C 0.49849 0.50705 0.07956 0.0
C1621 C 0.52037 0.52937 0.07232 0.0
C1622 C 0.48793 0.50896 0.10269 0.0
C1623 C 0.4997 0.53377 0.11891 0.0
C1624 C 0.52142 0.55658 0.11124 0.0
C1625 C 0.53164 0.55403 0.08807 0.0
C1626 C 0.46454 0.48434 0.11004 0.0
C1627 C 0.53412 0.58355 0.12769 0.0
H1628 H 0.45146 0.55354 0.17438 0.0
H1629 H 0.50329 0.53168 0.20996 0.0
H1630 H 0.4739 0.5693 0.11781 0.0
H1631 H 0.4557 0.53414 0.10632 0.0
H1632 H 0.44239 0.54901 0.12764 0.0
H1633 H 0.52645 0.51733 0.18523 0.0
H1634 H 0.51365 0.50372 0.15158 0.0
H1635 H 0.53841 0.53825 0.15862 0.0
H1636 H 0.48982 0.48796 0.0673 0.0
H1637 H 0.54837 0.57138 0.08221 0.0
H1638 H 0.44963 0.48936 0.11427 0.0
H1639 H 0.46947 0.47757 0.12825 0.0
H1640 H 0.45647 0.4673 0.09421 0.0
H1641 H 0.51993 0.5898 0.13141 0.0
H1642 H 0.54979 0.59969 0.11806 0.0
H1643 H 0.54202 0.58178 0.14711 0.0
C1644 C 0.91273 0.46275 0.83577 0.0
C1645 C 0.92493 0.4621 0.81359 0.0
C1646 C 0.92485 0.46693 0.86127 0.0
C1647 C 0.94982 0.47094 0.8644 0.0
C1648 C 0.96258 0.47157 0.84191 0.0
C1649 C 0.94983 0.46681 0.81674 0.0
C1650 C 0.91049 0.4657 0.88476 0.0
C1651 C 0.98939 0.47635 0.84443 0.0
C1652 C 0.99056 0.49923 0.93005 0.0
C1653 C 0.98916 0.47593 0.93895 0.0
C1654 C 0.97737 0.4979 0.90602 0.0
C1655 C 0.96208 0.47258 0.89098 0.0
C1656 C 0.95982 0.44885 0.90054 0.0
C1657 C 0.97373 0.4509 0.92426 0.0
C1658 C 0.98044 0.52365 0.89635 0.0
C1659 C 0.94308 0.42136 0.88552 0.0
H1660 H 0.89335 0.45884 0.83314 0.0
H1661 H 0.95914 0.46629 0.79944 0.0
H1662 H 0.90634 0.44744 0.89472 0.0
H1663 H 0.92221 0.48349 0.89934 0.0
H1664 H 0.89221 0.46487 0.87907 0.0
H1665 H 0.99739 0.47869 0.82513 0.0
H1666 H 0.00205 0.49479 0.85798 0.0
H1667 H 0.98953 0.45908 0.85299 0.0
H1668 H 0.00253 0.51858 0.94154 0.0
H1669 H 0.97238 0.43283 0.93142 0.0
H1670 H 0.96154 0.52178 0.89199 0.0
H1671 H 0.98963 0.52726 0.87772 0.0
H1672 H 0.99218 0.54151 0.91092 0.0
H1673 H 0.92363 0.41792 0.88059 0.0
H1674 H 0.94162 0.40474 0.89684 0.0
H1675 H 0.9509 0.42036 0.86668 0.0
C1676 C 0.54354 0.51909 0.80819 0.0
C1677 C 0.53497 0.49187 0.79984 0.0
C1678 C 0.53943 0.52672 0.83324 0.0
C1679 C 0.52581 0.5066 0.85009 0.0
C1680 C 0.51643 0.47908 0.84152 0.0
C1681 C 0.52149 0.47212 0.81679 0.0
C1682 C 0.55028 0.55633 0.84199 0.0
C1683 C 0.5015 0.45693 0.85875 0.0
C1684 C 0.53444 0.51871 0.9244 0.0
C1685 C 0.51266 0.51975 0.92984 0.0
C1686 C 0.53996 0.51657 0.89846 0.0
C1687 C 0.52261 0.51413 0.87735 0.0
C1688 C 0.50091 0.51598 0.88268 0.0
C1689 C 0.49638 0.51919 0.90896 0.0
C1690 C 0.56369 0.51543 0.89376 0.0
C1691 C 0.48162 0.51277 0.86072 0.0
H1692 H 0.5536 0.53454 0.79521 0.0
H1693 H 0.5153 0.45112 0.81104 0.0
H1694 H 0.53503 0.56002 0.84812 0.0
H1695 H 0.56447 0.56242 0.85938 0.0
H1696 H 0.55969 0.56943 0.82623 0.0
H1697 H 0.49345 0.43643 0.8482 0.0
H1698 H 0.51404 0.45866 0.87629 0.0
H1699 H 0.48564 0.459 0.86593 0.0
H1700 H 0.54675 0.51854 0.94041 0.0
H1701 H 0.47938 0.51973 0.91311 0.0
H1702 H 0.57382 0.5286 0.87834 0.0
H1703 H 0.55835 0.49446 0.88665 0.0
H1704 H 0.57703 0.5218 0.91197 0.0
H1705 H 0.49119 0.52604 0.84519 0.0
H1706 H 0.46729 0.51751 0.86791 0.0
H1707 H 0.47153 0.49161 0.85144 0.0
C1708 C 0.49604 0.02072 0.81398 0.0
C1709 C 0.52131 0.03966 0.81027 0.0
C1710 C 0.48985 0.00883 0.83768 0.0
C1711 C 0.5095 0.01529 0.85786 0.0
C1712 C 0.53521 0.03262 0.85349 0.0
C1713 C 0.54079 0.04494 0.82993 0.0
C1714 C 0.46214 0.99095 0.84181 0.0
C1715 C 0.55674 0.03943 0.87432 0.0
C1716 C 0.49433 0.01751 0.92831 0.0
C1717 C 0.48936 0.99222 0.93533 0.0
C1718 C 0.50063 0.02503 0.90308 0.0
C1719 C 0.50295 0.00717 0.88468 0.0
C1720 C 0.49859 0.98181 0.89188 0.0
C1721 C 0.49132 0.97436 0.91711 0.0
C1722 C 0.50438 0.05194 0.89604 0.0
C1723 C 0.50186 0.96276 0.87307 0.0
H1724 H 0.48088 0.01582 0.79867 0.0
H1725 H 0.56038 0.05965 0.82755 0.0
H1726 H 0.45889 0.97185 0.84935 0.0
H1727 H 0.45675 0.00142 0.85684 0.0
H1728 H 0.44934 0.98595 0.8234 0.0
H1729 H 0.57561 0.04977 0.86646 0.0
H1730 H 0.55679 0.05295 0.89077 0.0
H1731 H 0.55412 0.02084 0.88261 0.0
H1732 H 0.49266 0.03124 0.94241 0.0
H1733 H 0.48766 0.9549 0.92276 0.0
H1734 H 0.49141 0.04887 0.87835 0.0
H1735 H 0.52415 0.06501 0.89117 0.0
H1736 H 0.50071 0.06284 0.91233 0.0
H1737 H 0.48837 0.95669 0.85509 0.0
H1738 H 0.49863 0.94424 0.88203 0.0
H1739 H 0.52138 0.97316 0.86676 0.0
C1740 C 0.1233 0.31033 0.53074 0.0
C1741 C 0.13013 0.29094 0.53635 0.0
C1742 C 0.12995 0.32372 0.50782 0.0
C1743 C 0.14439 0.31819 0.49045 0.0
C1744 C 0.1523 0.29957 0.49652 0.0
C1745 C 0.14474 0.28588 0.5191 0.0
C1746 C 0.12062 0.34293 0.50166 0.0
C1747 C 0.16803 0.29334 0.47866 0.0
C1748 C 0.13904 0.3221 0.41714 0.0
C1749 C 0.16137 0.34619 0.41399 0.0
C1750 C 0.13231 0.31392 0.44209 0.0
C1751 C 0.14909 0.32955 0.46458 0.0
C1752 C 0.17144 0.35436 0.46172 0.0
C1753 C 0.17713 0.36264 0.43636 0.0
C1754 C 0.10792 0.28769 0.44416 0.0
C1755 C 0.19014 0.37119 0.48518 0.0
H1756 H 0.11251 0.31491 0.54412 0.0
H1757 H 0.14979 0.27065 0.52278 0.0
H1758 H 0.13667 0.36261 0.49738 0.0
H1759 H 0.10682 0.33446 0.48373 0.0
H1760 H 0.11114 0.34653 0.51806 0.0
H1761 H 0.17521 0.28098 0.48776 0.0
H1762 H 0.15631 0.28207 0.45994 0.0
H1763 H 0.18453 0.31234 0.47367 0.0
H1764 H 0.12729 0.30892 0.39999 0.0
H1765 H 0.19463 0.38111 0.43398 0.0
H1766 H 0.09729 0.29026 0.4599 0.0
H1767 H 0.11249 0.27198 0.44944 0.0
H1768 H 0.0953 0.28019 0.42535 0.0
H1769 H 0.18017 0.37407 0.50143 0.0
H1770 H 0.20491 0.39134 0.48014 0.0
H1771 H 0.19976 0.36043 0.49264 0.0
C1772 C 0.75752 0.87043 0.51722 0.0
C1773 C 0.7457 0.85391 0.53711 0.0
C1774 C 0.74501 0.86486 0.49174 0.0
C1775 C 0.71988 0.84262 0.48632 0.0
C1776 C 0.70814 0.82549 0.5062 0.0
C1777 C 0.72132 0.83122 0.53132 0.0
C1778 C 0.75836 0.88324 0.47089 0.0
C1779 C 0.6812 0.80191 0.50132 0.0
C1780 C 0.67802 0.84832 0.43208 0.0
C1781 C 0.67751 0.83082 0.4115 0.0
C1782 C 0.69145 0.85202 0.45665 0.0
C1783 C 0.70522 0.83839 0.46047 0.0
C1784 C 0.70485 0.82076 0.43967 0.0
C1785 C 0.69057 0.81683 0.41558 0.0
C1786 C 0.69094 0.87057 0.47851 0.0
C1787 C 0.71983 0.80641 0.4427 0.0
H1788 H 0.77646 0.8879 0.52172 0.0
H1789 H 0.71211 0.81863 0.54682 0.0
H1790 H 0.75732 0.87115 0.45262 0.0
H1791 H 0.74872 0.89469 0.46579 0.0
H1792 H 0.77869 0.89795 0.4775 0.0
H1793 H 0.6753 0.7898 0.51844 0.0
H1794 H 0.66789 0.80947 0.49715 0.0
H1795 H 0.67925 0.78846 0.48379 0.0
H1796 H 0.66784 0.85912 0.42899 0.0
H1797 H 0.68996 0.80317 0.39979 0.0
H1798 H 0.71046 0.88779 0.4843 0.0
H1799 H 0.68412 0.85956 0.49616 0.0
H1800 H 0.67842 0.87872 0.47266 0.0
H1801 H 0.74031 0.82145 0.44797 0.0
H1802 H 0.71791 0.79382 0.42441 0.0
H1803 H 0.71332 0.79325 0.45897 0.0
C1804 C 0.13713 0.88078 0.51611 0.0
C1805 C 0.14527 0.87365 0.53889 0.0
C1806 C 0.144 0.8761 0.49142 0.0
C1807 C 0.15932 0.86401 0.48969 0.0
C1808 C 0.16668 0.85582 0.51264 0.0
C1809 C 0.15968 0.86092 0.53705 0.0
C1810 C 0.13585 0.8852 0.46745 0.0
C1811 C 0.18282 0.84268 0.51156 0.0
C1812 C 0.16611 0.83634 0.42311 0.0
C1813 C 0.18956 0.85752 0.41726 0.0
C1814 C 0.15573 0.8383 0.44641 0.0
C1815 C 0.16936 0.86184 0.46437 0.0
C1816 C 0.19307 0.88327 0.45848 0.0
C1817 C 0.20289 0.88082 0.43499 0.0
C1818 C 0.13021 0.81522 0.45178 0.0
C1819 C 0.2081 0.90881 0.47701 0.0
H1820 H 0.12614 0.89085 0.51778 0.0
H1821 H 0.166 0.8556 0.55485 0.0
H1822 H 0.15276 0.90245 0.4605 0.0
H1823 H 0.12729 0.86871 0.45112 0.0
H1824 H 0.12186 0.89164 0.47162 0.0
H1825 H 0.18528 0.83567 0.53076 0.0
H1826 H 0.17408 0.82513 0.4963 0.0
H1827 H 0.20192 0.85731 0.50595 0.0
H1828 H 0.15583 0.81827 0.4094 0.0
H1829 H 0.22096 0.89729 0.4304 0.0
H1830 H 0.11662 0.82254 0.45429 0.0
H1831 H 0.13223 0.80715 0.47043 0.0
H1832 H 0.12192 0.79848 0.43563 0.0
H1833 H 0.19643 0.91842 0.4803 0.0
H1834 H 0.22605 0.92371 0.46935 0.0
H1835 H 0.21288 0.90388 0.49643 0.0
C1836 C 0.62073 0.79575 0.14681 0.0
C1837 C 0.59594 0.79117 0.14245 0.0
C1838 C 0.63271 0.80093 0.17243 0.0
C1839 C 0.61929 0.80084 0.19419 0.0
C1840 C 0.59436 0.79675 0.18984 0.0
C1841 C 0.58303 0.79222 0.16389 0.0
C1842 C 0.65954 0.80584 0.17621 0.0
C1843 C 0.57927 0.79599 0.21254 0.0
C1844 C 0.64305 0.78301 0.25566 0.0
C1845 C 0.65833 0.80846 0.26968 0.0
C1846 C 0.62894 0.78007 0.2318 0.0
C1847 C 0.63097 0.80333 0.22131 0.0
C1848 C 0.64598 0.82905 0.23576 0.0
C1849 C 0.65928 0.83125 0.26003 0.0
C1850 C 0.61237 0.75216 0.21753 0.0
C1851 C 0.64888 0.85433 0.22509 0.0
H1852 H 0.63066 0.79509 0.1301 0.0
H1853 H 0.56377 0.78851 0.16035 0.0
H1854 H 0.67186 0.82465 0.18941 0.0
H1855 H 0.6595 0.78893 0.18575 0.0
H1856 H 0.66806 0.80758 0.15727 0.0
H1857 H 0.56103 0.79483 0.20587 0.0
H1858 H 0.57497 0.7781 0.22321 0.0
H1859 H 0.59052 0.81415 0.22684 0.0
H1860 H 0.64199 0.76532 0.26347 0.0
H1861 H 0.67112 0.85091 0.27103 0.0
H1862 H 0.62065 0.7504 0.19927 0.0
H1863 H 0.59304 0.74866 0.21166 0.0
H1864 H 0.61053 0.73602 0.22981 0.0
H1865 H 0.65912 0.85801 0.20715 0.0
H1866 H 0.65961 0.87242 0.23965 0.0
H1867 H 0.62994 0.85185 0.21926 0.0
C1868 C 0.20487 0.82427 0.15723 0.0
C1869 C 0.22298 0.81614 0.15656 0.0
C1870 C 0.19797 0.83024 0.18131 0.0
C1871 C 0.2092 0.82751 0.20515 0.0
C1872 C 0.2282 0.82015 0.20451 0.0
C1873 C 0.23494 0.8146 0.18009 0.0
C1874 C 0.17797 0.83848 0.18119 0.0
C1875 C 0.2405 0.8169 0.2295 0.0
C1876 C 0.20017 0.85799 0.26871 0.0
C1877 C 0.17874 0.83567 0.27664 0.0
C1878 C 0.21069 0.85561 0.24569 0.0
C1879 C 0.19948 0.83025 0.23045 0.0
C1880 C 0.17805 0.80755 0.23872 0.0
C1881 C 0.16779 0.81062 0.26163 0.0
C1882 C 0.2335 0.88026 0.23747 0.0
C1883 C 0.16588 0.78003 0.22331 0.0
H1884 H 0.19573 0.82538 0.13886 0.0
H1885 H 0.24888 0.80814 0.17931 0.0
H1886 H 0.16051 0.82241 0.1886 0.0
H1887 H 0.18485 0.85722 0.19457 0.0
H1888 H 0.17281 0.84198 0.16118 0.0
H1889 H 0.2565 0.81346 0.22574 0.0
H1890 H 0.24779 0.83507 0.2438 0.0
H1891 H 0.22608 0.79945 0.23892 0.0
H1892 H 0.20845 0.8774 0.28032 0.0
H1893 H 0.15139 0.79329 0.26801 0.0
H1894 H 0.22854 0.88494 0.21798 0.0
H1895 H 0.24938 0.87626 0.23532 0.0
H1896 H 0.24032 0.8983 0.25189 0.0
H1897 H 0.15798 0.7808 0.20346 0.0
H1898 H 0.15028 0.76417 0.23326 0.0
H1899 H 0.18038 0.77404 0.22051 0.0
C1900 C 0.21287 0.41839 0.17992 0.0
C1901 C 0.20442 0.40192 0.15604 0.0
C1902 C 0.20565 0.40709 0.20378 0.0
C1903 C 0.18953 0.37876 0.20345 0.0
C1904 C 0.18177 0.36205 0.17933 0.0
C1905 C 0.18928 0.3739 0.15582 0.0
C1906 C 0.21426 0.42556 0.22909 0.0
C1907 C 0.16467 0.33177 0.17823 0.0
C1908 C 0.18083 0.34373 0.26592 0.0
C1909 C 0.15743 0.34037 0.27223 0.0
C1910 C 0.19199 0.35697 0.24398 0.0
C1911 C 0.17917 0.36667 0.22792 0.0
C1912 C 0.15566 0.36362 0.2345 0.0
C1913 C 0.14499 0.35034 0.25655 0.0
C1914 C 0.21726 0.36021 0.23777 0.0
C1915 C 0.14163 0.37409 0.21809 0.0
H1916 H 0.22446 0.44013 0.17979 0.0
H1917 H 0.18275 0.36138 0.13715 0.0
H1918 H 0.19802 0.42725 0.23567 0.0
H1919 H 0.22061 0.4172 0.24497 0.0
H1920 H 0.23004 0.44617 0.22662 0.0
H1921 H 0.16178 0.32154 0.15816 0.0
H1922 H 0.17288 0.3233 0.19214 0.0
H1923 H 0.14581 0.32697 0.18441 0.0
H1924 H 0.19032 0.33582 0.27805 0.0
H1925 H 0.12699 0.34795 0.26166 0.0
H1926 H 0.23084 0.38157 0.23482 0.0
H1927 H 0.21456 0.34777 0.21913 0.0
H1928 H 0.2259 0.35397 0.25365 0.0
H1929 H 0.15426 0.39593 0.21618 0.0
H1930 H 0.12424 0.37132 0.2267 0.0
H1931 H 0.136 0.36339 0.19794 0.0
C1932 C 0.8188 0.62782 0.85813 0.0
C1933 C 0.80213 0.63046 0.8743 0.0
C1934 C 0.82437 0.6399 0.83452 0.0
C1935 C 0.81218 0.65408 0.82618 0.0
C1936 C 0.79557 0.65717 0.84237 0.0
C1937 C 0.79112 0.64577 0.86647 0.0
C1938 C 0.84265 0.63662 0.81803 0.0
C1939 C 0.78167 0.6715 0.83374 0.0
C1940 C 0.83932 0.69723 0.76986 0.0
C1941 C 0.82538 0.67841 0.74808 0.0
C1942 C 0.83477 0.68994 0.79563 0.0
C1943 C 0.81529 0.66354 0.79949 0.0
C1944 C 0.80026 0.64503 0.7775 0.0
C1945 C 0.80598 0.65247 0.7521 0.0
C1946 C 0.85176 0.70988 0.81859 0.0
C1947 C 0.77883 0.61693 0.78071 0.0
H1948 H 0.82703 0.6156 0.8634 0.0
H1949 H 0.77867 0.64855 0.87895 0.0
H1950 H 0.83205 0.62292 0.79993 0.0
H1951 H 0.85688 0.65639 0.81179 0.0
H1952 H 0.85293 0.62806 0.82881 0.0
H1953 H 0.77054 0.67356 0.84926 0.0
H1954 H 0.79531 0.69192 0.82836 0.0
H1955 H 0.76842 0.66003 0.81588 0.0
H1956 H 0.85455 0.71722 0.76679 0.0
H1957 H 0.79574 0.63757 0.73542 0.0
H1958 H 0.86383 0.70257 0.82791 0.0
H1959 H 0.84023 0.71153 0.83381 0.0
H1960 H 0.86441 0.73032 0.81246 0.0
H1961 H 0.78678 0.60466 0.78832 0.0
H1962 H 0.76699 0.60638 0.76181 0.0
H1963 H 0.76635 0.61783 0.79523 0.0
C1964 C 0.38778 0.19215 0.87803 0.0
C1965 C 0.40164 0.17964 0.88552 0.0
C1966 C 0.37512 0.18654 0.85268 0.0
C1967 C 0.37548 0.16719 0.83455 0.0
C1968 C 0.38839 0.15352 0.84225 0.0
C1969 C 0.40161 0.16016 0.86752 0.0
C1970 C 0.36205 0.20202 0.84504 0.0
C1971 C 0.38869 0.13229 0.82362 0.0
C1972 C 0.32583 0.14219 0.77535 0.0
C1973 C 0.34044 0.15764 0.75612 0.0
C1974 C 0.33721 0.1441 0.80072 0.0
C1975 C 0.36359 0.16257 0.80708 0.0
C1976 C 0.37842 0.17797 0.78753 0.0
C1977 C 0.36671 0.17499 0.76216 0.0
C1978 C 0.32097 0.12669 0.82081 0.0
C1979 C 0.40646 0.19839 0.79363 0.0
H1980 H 0.38704 0.20668 0.89193 0.0
H1981 H 0.41244 0.15054 0.87285 0.0
H1982 H 0.37067 0.21354 0.82812 0.0
H1983 H 0.3416 0.18783 0.83864 0.0
H1984 H 0.36352 0.21643 0.86148 0.0
H1985 H 0.39779 0.12195 0.83332 0.0
H1986 H 0.36895 0.1169 0.81565 0.0
H1987 H 0.39921 0.14171 0.80663 0.0
H1988 H 0.30554 0.12859 0.77052 0.0
H1989 H 0.37803 0.18702 0.74728 0.0
H1990 H 0.31956 0.13958 0.83687 0.0
H1991 H 0.32992 0.11593 0.82988 0.0
H1992 H 0.30141 0.11154 0.81203 0.0
H1993 H 0.40913 0.21399 0.80938 0.0
H1994 H 0.41526 0.20863 0.77611 0.0
H1995 H 0.41681 0.18839 0.80107 0.0
C1996 C 0.83034 0.20147 0.86515 0.0
C1997 C 0.81174 0.20871 0.86779 0.0
C1998 C 0.83657 0.19676 0.84019 0.0
C1999 C 0.82427 0.20002 0.81748 0.0
C2000 C 0.80489 0.20658 0.82008 0.0
C2001 C 0.79872 0.2107 0.84533 0.0
C2002 C 0.85693 0.18922 0.83819 0.0
C2003 C 0.79165 0.21068 0.79638 0.0
C2004 C 0.86334 0.21987 0.75913 0.0
C2005 C 0.85225 0.1953 0.74325 0.0
C2006 C 0.85387 0.22183 0.783 0.0
C2007 C 0.83311 0.1985 0.7913 0.0
C2008 C 0.82172 0.17365 0.77516 0.0
C2009 C 0.83144 0.17237 0.75123 0.0
C2010 C 0.8662 0.24882 0.79941 0.0
C2011 C 0.79957 0.14839 0.78337 0.0
H2012 H 0.84031 0.19998 0.88269 0.0
H2013 H 0.78449 0.21655 0.8476 0.0
H2014 H 0.84994 0.17099 0.82403 0.0
H2015 H 0.87386 0.2059 0.83063 0.0
H2016 H 0.86299 0.18516 0.85751 0.0
H2017 H 0.77471 0.2119 0.80135 0.0
H2018 H 0.80515 0.22976 0.7884 0.0
H2019 H 0.78558 0.19405 0.78052 0.0
H2020 H 0.8793 0.23765 0.75276 0.0
H2021 H 0.82296 0.15334 0.73889 0.0
H2022 H 0.87496 0.24752 0.81852 0.0
H2023 H 0.85161 0.25429 0.8038 0.0
H2024 H 0.88117 0.26529 0.78941 0.0
H2025 H 0.80543 0.14311 0.80206 0.0
H2026 H 0.79243 0.13087 0.76821 0.0
H2027 H 0.78367 0.15195 0.7871 0.0
C2028 C 0.26398 0.146 0.49865 0.0
C2029 C 0.26855 0.13042 0.47989 0.0
C2030 C 0.27653 0.15326 0.52425 0.0
C2031 C 0.29338 0.14395 0.53156 0.0
C2032 C 0.29852 0.12877 0.51266 0.0
C2033 C 0.28646 0.12268 0.48697 0.0
C2034 C 0.27115 0.17017 0.54369 0.0
C2035 C 0.31592 0.11792 0.51984 0.0
C2036 C 0.33962 0.17182 0.59368 0.0
C2037 C 0.32564 0.15309 0.61109 0.0
C2038 C 0.3289 0.16992 0.56798 0.0
C2039 C 0.3041 0.14814 0.55941 0.0
C2040 C 0.28994 0.12928 0.57712 0.0
C2041 C 0.30072 0.13232 0.60292 0.0
C2042 C 0.34414 0.19099 0.54995 0.0
C2043 C 0.26378 0.10529 0.56855 0.0
H2044 H 0.25006 0.15194 0.49364 0.0
H2045 H 0.29081 0.11139 0.47253 0.0
H2046 H 0.25973 0.15755 0.55883 0.0
H2047 H 0.28921 0.1869 0.55408 0.0
H2048 H 0.26047 0.1789 0.534 0.0
H2049 H 0.31817 0.10673 0.50271 0.0
H2050 H 0.33502 0.1347 0.52788 0.0
H2051 H 0.30816 0.10409 0.53546 0.0
H2052 H 0.35881 0.18802 0.60022 0.0
H2053 H 0.28999 0.11774 0.61643 0.0
H2054 H 0.33259 0.19917 0.54119 0.0
H2055 H 0.34914 0.18166 0.53347 0.0
H2056 H 0.36201 0.20801 0.56041 0.0
H2057 H 0.25068 0.11223 0.56138 0.0
H2058 H 0.25541 0.09239 0.58475 0.0
H2059 H 0.2649 0.0927 0.55194 0.0
C2060 C 0.87348 0.14956 0.49006 0.0
C2061 C 0.89435 0.14558 0.49168 0.0
C2062 C 0.86539 0.15652 0.51276 0.0
C2063 C 0.87822 0.15896 0.53768 0.0
C2064 C 0.8999 0.15582 0.53934 0.0
C2065 C 0.90785 0.14932 0.51615 0.0
C2066 C 0.84256 0.16031 0.51013 0.0
C2067 C 0.91388 0.15801 0.56561 0.0
C2068 C 0.86372 0.19265 0.59478 0.0
C2069 C 0.84367 0.17026 0.60437 0.0
C2070 C 0.87573 0.18932 0.57345 0.0
C2071 C 0.86765 0.16292 0.56188 0.0
C2072 C 0.84789 0.1402 0.57216 0.0
C2073 C 0.83585 0.14419 0.59306 0.0
C2074 C 0.89656 0.21402 0.56289 0.0
C2075 C 0.83929 0.11169 0.56093 0.0
H2076 H 0.86319 0.1467 0.47099 0.0
H2077 H 0.92393 0.14604 0.51721 0.0
H2078 H 0.82649 0.1439 0.51902 0.0
H2079 H 0.84706 0.17976 0.52096 0.0
H2080 H 0.8362 0.16009 0.48925 0.0
H2081 H 0.93144 0.15702 0.56337 0.0
H2082 H 0.91915 0.17721 0.57743 0.0
H2083 H 0.90119 0.14127 0.57698 0.0
H2084 H 0.86973 0.2128 0.60371 0.0
H2085 H 0.82063 0.12687 0.60091 0.0
H2086 H 0.89049 0.21512 0.54232 0.0
H2087 H 0.91406 0.21264 0.56249 0.0
H2088 H 0.90132 0.23303 0.57486 0.0
H2089 H 0.8304 0.10817 0.54044 0.0
H2090 H 0.82529 0.09629 0.57267 0.0
H2091 H 0.8559 0.10869 0.5602 0.0
C2092 C 0.82995 0.69372 0.48236 0.0
C2093 C 0.85584 0.71144 0.47991 0.0
C2094 C 0.82206 0.68109 0.50545 0.0
C2095 C 0.84056 0.68562 0.52625 0.0
C2096 C 0.86676 0.70161 0.52307 0.0
C2097 C 0.87409 0.71467 0.50014 0.0
C2098 C 0.79391 0.66464 0.50833 0.0
C2099 C 0.88706 0.70641 0.54464 0.0
C2100 C 0.82447 0.68845 0.59612 0.0
C2101 C 0.8182 0.66275 0.60302 0.0
C2102 C 0.83123 0.69581 0.57098 0.0
C2103 C 0.8326 0.67729 0.55259 0.0
C2104 C 0.82665 0.65137 0.55959 0.0
C2105 C 0.81902 0.64418 0.58474 0.0
C2106 C 0.83678 0.72341 0.56413 0.0
C2107 C 0.82881 0.63154 0.54074 0.0
H2108 H 0.81572 0.69042 0.46658 0.0
H2109 H 0.89413 0.72847 0.49874 0.0
H2110 H 0.78909 0.64509 0.51593 0.0
H2111 H 0.78878 0.67581 0.52286 0.0
H2112 H 0.78207 0.66055 0.4894 0.0
H2113 H 0.90627 0.71554 0.53753 0.0
H2114 H 0.88762 0.72031 0.56102 0.0
H2115 H 0.88265 0.68718 0.55276 0.0
H2116 H 0.82359 0.70269 0.61027 0.0
H2117 H 0.81429 0.62437 0.59033 0.0
H2118 H 0.82482 0.72141 0.54596 0.0
H2119 H 0.85698 0.73567 0.56018 0.0
H2120 H 0.83318 0.73461 0.58017 0.0
H2121 H 0.81645 0.62718 0.52218 0.0
H2122 H 0.8234 0.61219 0.54919 0.0
H2123 H 0.84868 0.64054 0.53554 0.0
loop_
_geom_bond_atom_site_label_1
_geom_bond_atom_site_label_2
_geom_bond_distance
_geom_bond_site_symmetry_2
_ccdc_geom_bond_type
H0 C5 0.930 . S
H1 C8 0.930 . S
H2 C10 0.930 . S
H3 C4 1.016 . S
C4 H3 1.016 . S
C4 N11 1.286 . S
C5 H0 0.930 . S
C5 C6 1.397 . S
C5 C7 1.361 . S
C6 C5 1.397 . S
C6 C10 1.390 . S
C7 C5 1.361 . S
C7 C8 1.393 . S
C7 N11 1.413 . S
C8 H1 0.930 . S
C8 C7 1.393 . S
C8 C9 1.399 . S
C9 C8 1.399 . S
C9 C10 1.381 . S
C10 H2 0.930 . S
C10 C6 1.390 . S
C10 C9 1.381 . S
N11 C4 1.286 . S
N11 C7 1.413 . S
H12 C17 0.930 . S
H13 C20 0.930 . S
H14 C22 0.930 . S
H15 C16 1.016 . S
C16 H15 1.016 . S
C16 N23 1.286 . S
C17 H12 0.930 . S
C17 C18 1.397 . S
C17 C19 1.361 . S
C18 C17 1.397 . S
C18 C22 1.390 . S
C19 C17 1.361 . S
C19 C20 1.393 . S
C19 N23 1.413 . S
C20 H13 0.930 . S
C20 C19 1.393 . S
C20 C21 1.399 . S
C21 C20 1.399 . S
C21 C22 1.381 . S
C22 H14 0.930 . S
C22 C18 1.390 . S
C22 C21 1.381 . S
N23 C16 1.286 . S
N23 C19 1.413 . S
H24 C29 0.930 . S
H25 C32 0.930 . S
H26 C34 0.930 . S
H27 C28 1.016 . S
C28 H27 1.016 . S
C28 N35 1.286 . S
C29 H24 0.930 . S
C29 C30 1.397 . S
C29 C31 1.361 . S
C30 C29 1.397 . S
C30 C34 1.390 . S
C31 C29 1.361 . S
C31 C32 1.393 . S
C31 N35 1.413 . S
C32 H25 0.930 . S
C32 C31 1.393 . S
C32 C33 1.399 . S
C33 C32 1.399 . S
C33 C34 1.381 . S
C34 H26 0.930 . S
C34 C30 1.390 . S
C34 C33 1.381 . S
N35 C28 1.286 . S
N35 C31 1.413 . S
H36 C41 0.930 . S
H37 C44 0.930 . S
H38 C46 0.930 . S
H39 C40 1.016 . S
C40 H39 1.016 . S
C40 N47 1.286 . S
C41 H36 0.930 . S
C41 C42 1.397 . S
C41 C43 1.361 . S
C42 C41 1.397 . S
C42 C46 1.390 . S
C43 C41 1.361 . S
C43 C44 1.393 . S
C43 N47 1.413 . S
C44 H37 0.930 . S
C44 C43 1.393 . S
C44 C45 1.399 . S
C45 C44 1.399 . S
C45 C46 1.381 . S
C46 H38 0.930 . S
C46 C42 1.390 . S
C46 C45 1.381 . S
N47 C40 1.286 . S
N47 C43 1.413 . S
H48 C53 0.930 . S
H49 C56 0.930 . S
H50 C58 0.930 . S
H51 C52 1.016 . S
C52 H51 1.016 . S
C52 N59 1.286 . S
C53 H48 0.930 . S
C53 C54 1.397 . S
C53 C55 1.361 . S
C54 C53 1.397 . S
C54 C58 1.390 . S
C55 C53 1.361 . S
C55 C56 1.393 . S
C55 N59 1.413 . S
C56 H49 0.930 . S
C56 C55 1.393 . S
C56 C57 1.399 . S
C57 C56 1.399 . S
C57 C58 1.381 . S
C58 H50 0.930 . S
C58 C54 1.390 . S
C58 C57 1.381 . S
N59 C52 1.286 . S
N59 C55 1.413 . S
H60 C65 0.930 . S
H61 C68 0.930 . S
H62 C70 0.930 . S
H63 C64 1.016 . S
C64 H63 1.016 . S
C64 N71 1.286 . S
C65 H60 0.930 . S
C65 C66 1.397 . S
C65 C67 1.361 . S
C66 C65 1.397 . S
C66 C70 1.390 . S
C67 C65 1.361 . S
C67 C68 1.393 . S
C67 N71 1.413 . S
C68 H61 0.930 . S
C68 C67 1.393 . S
C68 C69 1.399 . S
C69 C68 1.399 . S
C69 C70 1.381 . S
C70 H62 0.930 . S
C70 C66 1.390 . S
C70 C69 1.381 . S
N71 C64 1.286 . S
N71 C67 1.413 . S
H72 C77 0.930 . S
H73 C80 0.930 . S
H74 C82 0.930 . S
H75 C76 1.016 . S
C76 H75 1.016 . S
C76 N83 1.286 . S
C77 H72 0.930 . S
C77 C78 1.397 . S
C77 C79 1.361 . S
C78 C77 1.397 . S
C78 C82 1.390 . S
C79 C77 1.361 . S
C79 C80 1.393 . S
C79 N83 1.413 . S
C80 H73 0.930 . S
C80 C79 1.393 . S
C80 C81 1.399 . S
C81 C80 1.399 . S
C81 C82 1.381 . S
C82 H74 0.930 . S
C82 C78 1.390 . S
C82 C81 1.381 . S
N83 C76 1.286 . S
N83 C79 1.413 . S
H84 C89 0.930 . S
H85 C92 0.930 . S
H86 C94 0.930 . S
H87 C88 1.016 . S
C88 H87 1.016 . S
C88 N95 1.286 . S
C89 H84 0.930 . S
C89 C90 1.397 . S
C89 C91 1.361 . S
C90 C89 1.397 . S
C90 C94 1.390 . S
C91 C89 1.361 . S
C91 C92 1.393 . S
C91 N95 1.413 . S
C92 H85 0.930 . S
C92 C91 1.393 . S
C92 C93 1.399 . S
C93 C92 1.399 . S
C93 C94 1.381 . S
C94 H86 0.930 . S
C94 C90 1.390 . S
C94 C93 1.381 . S
N95 C88 1.286 . S
N95 C91 1.413 . S
H96 C101 0.930 . S
H97 C104 0.930 . S
H98 C106 0.930 . S
H99 C100 1.016 . S
C100 H99 1.016 . S
C100 N107 1.286 . S
C101 H96 0.930 . S
C101 C102 1.397 . S
C101 C103 1.361 . S
C102 C101 1.397 . S
C102 C106 1.390 . S
C103 C101 1.361 . S
C103 C104 1.393 . S
C103 N107 1.413 . S
C104 H97 0.930 . S
C104 C103 1.393 . S
C104 C105 1.399 . S
C105 C104 1.399 . S
C105 C106 1.381 . S
C106 H98 0.930 . S
C106 C102 1.390 . S
C106 C105 1.381 . S
N107 C100 1.286 . S
N107 C103 1.413 . S
H108 C113 0.930 . S
H109 C116 0.930 . S
H110 C118 0.930 . S
H111 C112 1.016 . S
C112 H111 1.016 . S
C112 N119 1.286 . S
C113 H108 0.930 . S
C113 C114 1.397 . S
C113 C115 1.361 . S
C114 C113 1.397 . S
C114 C118 1.390 . S
C115 C113 1.361 . S
C115 C116 1.393 . S
C115 N119 1.413 . S
C116 H109 0.930 . S
C116 C115 1.393 . S
C116 C117 1.399 . S
C117 C116 1.399 . S
C117 C118 1.381 . S
C118 H110 0.930 . S
C118 C114 1.390 . S
C118 C117 1.381 . S
N119 C112 1.286 . S
N119 C115 1.413 . S
H120 C125 0.930 . S
H121 C128 0.930 . S
H122 C130 0.930 . S
H123 C124 1.016 . S
C124 H123 1.016 . S
C124 N131 1.286 . S
C125 H120 0.930 . S
C125 C126 1.397 . S
C125 C127 1.361 . S
C126 C125 1.397 . S
C126 C130 1.390 . S
C127 C125 1.361 . S
C127 C128 1.393 . S
C127 N131 1.413 . S
C128 H121 0.930 . S
C128 C127 1.393 . S
C128 C129 1.399 . S
C129 C128 1.399 . S
C129 C130 1.381 . S
C130 H122 0.930 . S
C130 C126 1.390 . S
C130 C129 1.381 . S
N131 C124 1.286 . S
N131 C127 1.413 . S
H132 C137 0.930 . S
H133 C140 0.930 . S
H134 C142 0.930 . S
H135 C136 1.016 . S
C136 H135 1.016 . S
C136 N143 1.286 . S
C137 H132 0.930 . S
C137 C138 1.397 . S
C137 C139 1.361 . S
C138 C137 1.397 . S
C138 C142 1.390 . S
C139 C137 1.361 . S
C139 C140 1.393 . S
C139 N143 1.413 . S
C140 H133 0.930 . S
C140 C139 1.393 . S
C140 C141 1.399 . S
C141 C140 1.399 . S
C141 C142 1.381 . S
C142 H134 0.930 . S
C142 C138 1.390 . S
C142 C141 1.381 . S
N143 C136 1.286 . S
N143 C139 1.413 . S
H144 C149 0.930 . S
H145 C152 0.930 . S
H146 C154 0.930 . S
H147 C148 1.016 . S
C148 H147 1.016 . S
C148 N155 1.286 . S
C149 H144 0.930 . S
C149 C150 1.397 . S
C149 C151 1.361 . S
C150 C149 1.397 . S
C150 C154 1.390 . S
C151 C149 1.361 . S
C151 C152 1.393 . S
C151 N155 1.413 . S
C152 H145 0.930 . S
C152 C151 1.393 . S
C152 C153 1.399 . S
C153 C152 1.399 . S
C153 C154 1.381 . S
C154 H146 0.930 . S
C154 C150 1.390 . S
C154 C153 1.381 . S
N155 C148 1.286 . S
N155 C151 1.413 . S
H156 C161 0.930 . S
H157 C164 0.930 . S
H158 C166 0.930 . S
H159 C160 1.016 . S
C160 H159 1.016 . S
C160 N167 1.286 . S
C161 H156 0.930 . S
C161 C162 1.397 . S
C161 C163 1.361 . S
C162 C161 1.397 . S
C162 C166 1.390 . S
C163 C161 1.361 . S
C163 C164 1.393 . S
C163 N167 1.413 . S
C164 H157 0.930 . S
C164 C163 1.393 . S
C164 C165 1.399 . S
C165 C164 1.399 . S
C165 C166 1.381 . S
C166 H158 0.930 . S
C166 C162 1.390 . S
C166 C165 1.381 . S
N167 C160 1.286 . S
N167 C163 1.413 . S
H168 C173 0.930 . S
H169 C176 0.930 . S
H170 C178 0.930 . S
H171 C172 1.016 . S
C172 H171 1.016 . S
C172 N179 1.286 . S
C173 H168 0.930 . S
C173 C174 1.397 . S
C173 C175 1.361 . S
C174 C173 1.397 . S
C174 C178 1.390 . S
C175 C173 1.361 . S
C175 C176 1.393 . S
C175 N179 1.413 . S
C176 H169 0.930 . S
C176 C175 1.393 . S
C176 C177 1.399 . S
C177 C176 1.399 . S
C177 C178 1.381 . S
C178 H170 0.930 . S
C178 C174 1.390 . S
C178 C177 1.381 . S
N179 C172 1.286 . S
N179 C175 1.413 . S
H180 C185 0.930 . S
H181 C188 0.930 . S
H182 C190 0.930 . S
H183 C184 1.016 . S
C184 H183 1.016 . S
C184 N191 1.286 . S
C185 H180 0.930 . S
C185 C186 1.397 . S
C185 C187 1.361 . S
C186 C185 1.397 . S
C186 C190 1.390 . S
C187 C185 1.361 . S
C187 C188 1.393 . S
C187 N191 1.413 . S
C188 H181 0.930 . S
C188 C187 1.393 . S
C188 C189 1.399 . S
C189 C188 1.399 . S
C189 C190 1.381 . S
C190 H182 0.930 . S
C190 C186 1.390 . S
C190 C189 1.381 . S
N191 C184 1.286 . S
N191 C187 1.413 . S
H192 C197 0.930 . S
H193 C200 0.930 . S
H194 C202 0.930 . S
H195 C196 1.016 . S
C196 H195 1.016 . S
C196 N203 1.286 . S
C197 H192 0.930 . S
C197 C198 1.397 . S
C197 C199 1.361 . S
C198 C197 1.397 . S
C198 C202 1.390 . S
C199 C197 1.361 . S
C199 C200 1.393 . S
C199 N203 1.413 . S
C200 H193 0.930 . S
C200 C199 1.393 . S
C200 C201 1.399 . S
C201 C200 1.399 . S
C201 C202 1.381 . S
C202 H194 0.930 . S
C202 C198 1.390 . S
C202 C201 1.381 . S
N203 C196 1.286 . S
N203 C199 1.413 . S
H204 C209 0.930 . S
H205 C212 0.930 . S
H206 C214 0.930 . S
H207 C208 1.016 . S
C208 H207 1.016 . S
C208 N215 1.286 . S
C209 H204 0.930 . S
C209 C210 1.397 . S
C209 C211 1.361 . S
C210 C209 1.397 . S
C210 C214 1.390 . S
C211 C209 1.361 . S
C211 C212 1.393 . S
C211 N215 1.413 . S
C212 H205 0.930 . S
C212 C211 1.393 . S
C212 C213 1.399 . S
C213 C212 1.399 . S
C213 C214 1.381 . S
C214 H206 0.930 . S
C214 C210 1.390 . S
C214 C213 1.381 . S
N215 C208 1.286 . S
N215 C211 1.413 . S
Tb216 O219 2.453 . S
Tb216 O220 2.596 1_545 S
Tb216 O221 2.374 1_545 S
Tb216 O229 2.343 1_554 S
Tb216 O231 2.353 . S
Tb216 O233 2.427 . S
Tb216 O234 2.513 1_554 S
C217 O221 1.251 . S
C217 O223 1.263 1_554 S
Tb218 O220 2.343 1_556 S
Tb218 O223 2.353 . S
Tb218 O226 2.427 1_556 S
Tb218 O227 2.513 1_556 S
Tb218 O228 2.453 . S
Tb218 O229 2.596 1_565 S
Tb218 O230 2.374 1_565 S
O219 Tb216 2.453 . S
O219 C235 1.245 1_545 S
O220 Tb216 2.596 1_565 S
O220 Tb218 2.343 1_554 S
O220 C235 1.259 . S
O221 Tb216 2.374 1_565 S
O221 C217 1.251 . S
C222 O226 1.275 . S
C222 O227 1.246 . S
O223 C217 1.263 1_556 S
O223 Tb218 2.353 . S
C224 O228 1.245 1_545 S
C224 O229 1.259 . S
C225 O230 1.250 1_554 S
C225 O231 1.263 . S
O226 Tb218 2.427 1_554 S
O226 C222 1.275 . S
O227 Tb218 2.513 1_554 S
O227 C222 1.246 . S
O228 Tb218 2.453 . S
O228 C224 1.245 1_565 S
O229 Tb216 2.343 1_556 S
O229 Tb218 2.596 1_545 S
O229 C224 1.259 . S
O230 Tb218 2.374 1_545 S
O230 C225 1.250 1_556 S
O231 Tb216 2.353 . S
O231 C225 1.263 . S
C232 O233 1.275 1_556 S
C232 O234 1.246 . S
O233 Tb216 2.427 . S
O233 C232 1.275 1_554 S
O234 Tb216 2.513 1_556 S
O234 C232 1.246 . S
C235 O219 1.245 1_565 S
C235 O220 1.259 . S
Tb236 O239 2.453 . S
Tb236 O240 2.596 1_655 S
Tb236 O241 2.374 1_655 S
Tb236 O249 2.343 1_554 S
Tb236 O251 2.353 . S
Tb236 O253 2.427 1_554 S
Tb236 O254 2.513 1_554 S
C237 O241 1.251 . S
C237 O243 1.263 . S
Tb238 O240 2.343 1_556 S
Tb238 O243 2.353 1_556 S
Tb238 O246 2.427 1_556 S
Tb238 O247 2.513 1_556 S
Tb238 O248 2.453 . S
Tb238 O249 2.596 1_455 S
Tb238 O250 2.374 1_455 S
O239 Tb236 2.453 . S
O239 C255 1.245 1_655 S
O240 Tb236 2.596 1_455 S
O240 Tb238 2.343 1_554 S
O240 C255 1.259 . S
O241 Tb236 2.374 1_455 S
O241 C237 1.251 . S
C242 O246 1.275 . S
C242 O247 1.246 . S
O243 C237 1.263 . S
O243 Tb238 2.353 1_554 S
C244 O248 1.245 1_655 S
C244 O249 1.259 . S
C245 O250 1.250 1_554 S
C245 O251 1.265 . S
O246 Tb238 2.427 1_554 S
O246 C242 1.275 . S
O247 Tb238 2.513 1_554 S
O247 C242 1.246 . S
O248 Tb238 2.453 . S
O248 C244 1.245 1_455 S
O249 Tb236 2.343 1_556 S
O249 Tb238 2.596 1_655 S
O249 C244 1.259 . S
O250 Tb238 2.374 1_655 S
O250 C245 1.250 1_556 S
O251 Tb236 2.353 . S
O251 C245 1.265 . S
C252 O253 1.275 . S
C252 O254 1.246 . S
O253 Tb236 2.427 1_556 S
O253 C252 1.275 . S
O254 Tb236 2.513 1_556 S
O254 C252 1.246 . S
C255 O239 1.245 1_455 S
C255 O240 1.259 . S
Tb256 O259 2.453 . S
Tb256 O260 2.596 . S
Tb256 O261 2.374 1_556 S
Tb256 O269 2.343 1_556 S
Tb256 O271 2.353 1_556 S
Tb256 O273 2.427 1_556 S
Tb256 O274 2.513 1_556 S
C257 O261 1.251 . S
C257 O263 1.263 . S
Tb258 O260 2.343 1_554 S
Tb258 O263 2.353 . S
Tb258 O266 2.427 . S
Tb258 O267 2.513 1_554 S
Tb258 O268 2.453 . S
Tb258 O269 2.596 . S
Tb258 O270 2.374 . S
O259 Tb256 2.453 . S
O259 C275 1.245 . S
O260 Tb256 2.596 . S
O260 Tb258 2.343 1_556 S
O260 C275 1.259 . S
O261 Tb256 2.374 1_554 S
O261 C257 1.251 . S
C262 O266 1.275 1_556 S
C262 O267 1.246 . S
O263 C257 1.263 . S
O263 Tb258 2.353 . S
C264 O268 1.245 . S
C264 O269 1.259 . S
C265 O270 1.250 . S
C265 O271 1.263 . S
O266 Tb258 2.427 . S
O266 C262 1.275 1_554 S
O267 Tb258 2.513 1_556 S
O267 C262 1.246 . S
O268 Tb258 2.453 . S
O268 C264 1.245 . S
O269 Tb256 2.343 1_554 S
O269 Tb258 2.596 . S
O269 C264 1.259 . S
O270 Tb258 2.374 . S
O270 C265 1.250 . S
O271 Tb256 2.353 1_554 S
O271 C265 1.263 . S
C272 O273 1.275 . S
C272 O274 1.246 . S
O273 Tb256 2.427 1_554 S
O273 C272 1.275 . S
O274 Tb256 2.513 1_554 S
O274 C272 1.246 . S
C275 O259 1.245 . S
C275 O260 1.259 . S
Tb276 O279 2.453 . S
Tb276 O280 2.596 . S
Tb276 O281 2.374 . S
Tb276 O289 2.343 . S
Tb276 O291 2.353 . S
Tb276 O293 2.427 . S
Tb276 O294 2.513 . S
C277 O281 1.251 . S
C277 O283 1.263 . S
Tb278 O280 2.343 . S
Tb278 O283 2.353 . S
Tb278 O286 2.427 . S
Tb278 O287 2.513 . S
Tb278 O288 2.453 . S
Tb278 O289 2.596 . S
Tb278 O290 2.374 . S
O279 Tb276 2.453 . S
O279 C295 1.245 . S
O280 Tb276 2.596 . S
O280 Tb278 2.343 . S
O280 C295 1.259 . S
O281 Tb276 2.374 . S
O281 C277 1.251 . S
C282 O286 1.275 . S
C282 O287 1.246 . S
O283 C277 1.263 . S
O283 Tb278 2.353 . S
C284 O288 1.245 . S
C284 O289 1.259 . S
C285 O290 1.250 . S
C285 O291 1.263 . S
O286 Tb278 2.427 . S
O286 C282 1.275 . S
O287 Tb278 2.513 . S
O287 C282 1.246 . S
O288 Tb278 2.453 . S
O288 C284 1.245 . S
O289 Tb276 2.343 . S
O289 Tb278 2.596 . S
O289 C284 1.259 . S
O290 Tb278 2.374 . S
O290 C285 1.250 . S
O291 Tb276 2.353 . S
O291 C285 1.263 . S
C292 O293 1.275 . S
C292 O294 1.246 . S
O293 Tb276 2.427 . S
O293 C292 1.275 . S
O294 Tb276 2.513 . S
O294 C292 1.246 . S
C295 O279 1.245 . S
C295 O280 1.259 . S
Tb296 O299 2.453 . S
Tb296 O300 2.596 . S
Tb296 O301 2.374 . S
Tb296 O309 2.343 . S
Tb296 O311 2.353 . S
Tb296 O313 2.427 . S
Tb296 O314 2.513 . S
C297 O301 1.251 . S
C297 O303 1.263 . S
Tb298 O300 2.343 . S
Tb298 O303 2.353 . S
Tb298 O306 2.427 . S
Tb298 O307 2.513 . S
Tb298 O308 2.453 . S
Tb298 O309 2.596 . S
Tb298 O310 2.374 . S
O299 Tb296 2.453 . S
O299 C315 1.245 . S
O300 Tb296 2.596 . S
O300 Tb298 2.343 . S
O300 C315 1.259 . S
O301 Tb296 2.374 . S
O301 C297 1.251 . S
C302 O306 1.275 . S
C302 O307 1.246 . S
O303 C297 1.263 . S
O303 Tb298 2.353 . S
C304 O308 1.245 . S
C304 O309 1.259 . S
C305 O310 1.250 . S
C305 O311 1.263 . S
O306 Tb298 2.427 . S
O306 C302 1.275 . S
O307 Tb298 2.513 . S
O307 C302 1.246 . S
O308 Tb298 2.453 . S
O308 C304 1.245 . S
O309 Tb296 2.343 . S
O309 Tb298 2.596 . S
O309 C304 1.259 . S
O310 Tb298 2.374 . S
O310 C305 1.250 . S
O311 Tb296 2.353 . S
O311 C305 1.263 . S
C312 O313 1.275 . S
C312 O314 1.246 . S
O313 Tb296 2.427 . S
O313 C312 1.275 . S
O314 Tb296 2.513 . S
O314 C312 1.246 . S
C315 O299 1.245 . S
C315 O300 1.259 . S
Tb316 O319 2.453 . S
Tb316 O320 2.596 . S
Tb316 O321 2.374 . S
Tb316 O329 2.343 . S
Tb316 O331 2.353 . S
Tb316 O333 2.427 . S
Tb316 O334 2.513 . S
C317 O321 1.251 . S
C317 O323 1.263 . S
Tb318 O320 2.343 . S
Tb318 O323 2.353 . S
Tb318 O326 2.427 . S
Tb318 O327 2.513 . S
Tb318 O328 2.453 . S
Tb318 O329 2.596 . S
Tb318 O330 2.374 . S
O319 Tb316 2.453 . S
O319 C335 1.245 . S
O320 Tb316 2.596 . S
O320 Tb318 2.343 . S
O320 C335 1.259 . S
O321 Tb316 2.374 . S
O321 C317 1.251 . S
C322 O326 1.275 . S
C322 O327 1.246 . S
O323 C317 1.263 . S
O323 Tb318 2.353 . S
C324 O328 1.245 . S
C324 O329 1.259 . S
C325 O330 1.250 . S
C325 O331 1.263 . S
O326 Tb318 2.427 . S
O326 C322 1.275 . S
O327 Tb318 2.513 . S
O327 C322 1.246 . S
O328 Tb318 2.453 . S
O328 C324 1.245 . S
O329 Tb316 2.343 . S
O329 Tb318 2.596 . S
O329 C324 1.259 . S
O330 Tb318 2.374 . S
O330 C325 1.250 . S
O331 Tb316 2.353 . S
O331 C325 1.263 . S
C332 O333 1.275 . S
C332 O334 1.246 . S
O333 Tb316 2.427 . S
O333 C332 1.275 . S
O334 Tb316 2.513 . S
O334 C332 1.246 . S
C335 O319 1.245 . S
C335 O320 1.259 . S
Tb336 O339 2.453 . S
Tb336 O340 2.596 . S
Tb336 O341 2.374 . S
Tb336 O349 2.343 . S
Tb336 O351 2.353 . S
Tb336 O353 2.427 . S
Tb336 O354 2.513 . S
C337 O341 1.251 . S
C337 O343 1.263 . S
Tb338 O340 2.343 . S
Tb338 O343 2.353 . S
Tb338 O346 2.427 . S
Tb338 O347 2.513 . S
Tb338 O348 2.453 . S
Tb338 O349 2.596 . S
Tb338 O350 2.374 . S
O339 Tb336 2.453 . S
O339 C355 1.245 . S
O340 Tb336 2.596 . S
O340 Tb338 2.343 . S
O340 C355 1.259 . S
O341 Tb336 2.374 . S
O341 C337 1.251 . S
C342 O346 1.275 . S
C342 O347 1.246 . S
O343 C337 1.263 . S
O343 Tb338 2.353 . S
C344 O348 1.245 . S
C344 O349 1.259 . S
C345 O350 1.250 . S
C345 O351 1.263 . S
O346 Tb338 2.427 . S
O346 C342 1.275 . S
O347 Tb338 2.513 . S
O347 C342 1.246 . S
O348 Tb338 2.453 . S
O348 C344 1.245 . S
O349 Tb336 2.343 . S
O349 Tb338 2.596 . S
O349 C344 1.259 . S
O350 Tb338 2.374 . S
O350 C345 1.250 . S
O351 Tb336 2.353 . S
O351 C345 1.263 . S
C352 O353 1.275 . S
C352 O354 1.246 . S
O353 Tb336 2.427 . S
O353 C352 1.275 . S
O354 Tb336 2.513 . S
O354 C352 1.246 . S
C355 O339 1.245 . S
C355 O340 1.259 . S
Tb356 O359 2.453 . S
Tb356 O360 2.596 . S
Tb356 O361 2.374 . S
Tb356 O369 2.343 . S
Tb356 O371 2.353 . S
Tb356 O373 2.427 . S
Tb356 O374 2.513 . S
C357 O361 1.251 . S
C357 O363 1.263 . S
Tb358 O360 2.343 . S
Tb358 O363 2.353 . S
Tb358 O366 2.427 . S
Tb358 O367 2.513 . S
Tb358 O368 2.453 . S
Tb358 O369 2.596 . S
Tb358 O370 2.374 . S
O359 Tb356 2.453 . S
O359 C375 1.245 . S
O360 Tb356 2.596 . S
O360 Tb358 2.343 . S
O360 C375 1.259 . S
O361 Tb356 2.374 . S
O361 C357 1.251 . S
C362 O366 1.275 . S
C362 O367 1.246 . S
O363 C357 1.263 . S
O363 Tb358 2.353 . S
C364 O368 1.245 . S
C364 O369 1.259 . S
C365 O370 1.250 . S
C365 O371 1.263 . S
O366 Tb358 2.427 . S
O366 C362 1.275 . S
O367 Tb358 2.513 . S
O367 C362 1.246 . S
O368 Tb358 2.453 . S
O368 C364 1.245 . S
O369 Tb356 2.343 . S
O369 Tb358 2.596 . S
O369 C364 1.259 . S
O370 Tb358 2.374 . S
O370 C365 1.250 . S
O371 Tb356 2.353 . S
O371 C365 1.263 . S
C372 O373 1.275 . S
C372 O374 1.246 . S
O373 Tb356 2.427 . S
O373 C372 1.275 . S
O374 Tb356 2.513 . S
O374 C372 1.246 . S
C375 O359 1.245 . S
C375 O360 1.259 . S
Tb376 O379 2.453 . S
Tb376 O380 2.596 . S
Tb376 O381 2.374 . S
Tb376 O389 2.343 . S
Tb376 O391 2.353 . S
Tb376 O393 2.427 . S
Tb376 O394 2.513 . S
C377 O381 1.251 . S
C377 O383 1.263 . S
Tb378 O380 2.343 . S
Tb378 O383 2.353 . S
Tb378 O386 2.427 . S
Tb378 O387 2.513 . S
Tb378 O388 2.453 . S
Tb378 O389 2.596 . S
Tb378 O390 2.374 . S
O379 Tb376 2.453 . S
O379 C395 1.245 . S
O380 Tb376 2.596 . S
O380 Tb378 2.343 . S
O380 C395 1.259 . S
O381 Tb376 2.374 . S
O381 C377 1.251 . S
C382 O386 1.275 . S
C382 O387 1.246 . S
O383 C377 1.263 . S
O383 Tb378 2.353 . S
C384 O388 1.245 . S
C384 O389 1.259 . S
C385 O390 1.250 . S
C385 O391 1.263 . S
O386 Tb378 2.427 . S
O386 C382 1.275 . S
O387 Tb378 2.513 . S
O387 C382 1.246 . S
O388 Tb378 2.453 . S
O388 C384 1.245 . S
O389 Tb376 2.343 . S
O389 Tb378 2.596 . S
O389 C384 1.259 . S
O390 Tb378 2.374 . S
O390 C385 1.250 . S
O391 Tb376 2.353 . S
O391 C385 1.263 . S
C392 O393 1.275 . S
C392 O394 1.246 . S
O393 Tb376 2.427 . S
O393 C392 1.275 . S
O394 Tb376 2.513 . S
O394 C392 1.246 . S
C395 O379 1.245 . S
C395 O380 1.259 . S
C396 C397 1.391 . S
C396 C398 1.394 . S
C396 H412 0.931 . S
C397 C396 1.391 . S
C397 C401 1.376 . S
C398 C396 1.394 . S
C398 C399 1.369 . S
C398 C402 1.531 . S
C399 C398 1.369 . S
C399 C400 1.410 . S
C399 C407 1.503 . S
C400 C399 1.410 . S
C400 C401 1.392 . S
C400 C403 1.511 . S
C401 C397 1.376 . S
C401 C400 1.392 . S
C401 H413 0.929 . S
C402 C398 1.531 . S
C402 H414 0.957 1_554 S
C402 H415 0.962 . S
C402 H416 0.960 1_554 S
C403 C400 1.511 . S
C403 H417 0.961 . S
C403 H418 0.961 . S
C403 H419 0.961 . S
C404 C405 1.370 . S
C404 C406 1.363 . S
C404 H420 0.931 . S
C405 C404 1.370 . S
C405 C409 1.408 . S
C406 C404 1.363 . S
C406 C407 1.370 . S
C406 C410 1.524 . S
C407 C399 1.503 . S
C407 C406 1.370 . S
C407 C408 1.403 . S
C408 C407 1.403 . S
C408 C409 1.404 . S
C408 C411 1.539 . S
C409 C405 1.408 . S
C409 C408 1.404 . S
C409 H421 0.930 . S
C410 C406 1.524 . S
C410 H422 0.956 . S
C410 H423 0.961 . S
C410 H424 0.961 . S
C411 C408 1.539 . S
C411 H425 0.958 . S
C411 H426 0.961 . S
C411 H427 0.960 . S
H412 C396 0.931 . S
H413 C401 0.929 . S
H414 C402 0.957 1_556 S
H415 C402 0.962 . S
H416 C402 0.960 1_556 S
H417 C403 0.961 . S
H418 C403 0.961 . S
H419 C403 0.961 . S
H420 C404 0.931 . S
H421 C409 0.930 . S
H422 C410 0.956 . S
H423 C410 0.961 . S
H424 C410 0.961 . S
H425 C411 0.958 . S
H426 C411 0.961 . S
H427 C411 0.960 . S
C428 C429 1.391 . S
C428 C430 1.394 . S
C428 H444 0.931 . S
C429 C428 1.391 . S
C429 C433 1.376 . S
C430 C428 1.394 . S
C430 C431 1.369 . S
C430 C434 1.531 . S
C431 C430 1.369 . S
C431 C432 1.410 . S
C431 C439 1.503 . S
C432 C431 1.410 . S
C432 C433 1.392 . S
C432 C435 1.511 . S
C433 C429 1.376 . S
C433 C432 1.392 . S
C433 H445 0.929 . S
C434 C430 1.531 . S
C434 H446 0.960 . S
C434 H447 0.962 . S
C434 H448 0.960 . S
C435 C432 1.511 . S
C435 H449 0.961 . S
C435 H450 0.961 . S
C435 H451 0.961 . S
C436 C437 1.370 . S
C436 C438 1.363 . S
C436 H452 0.931 . S
C437 C436 1.370 . S
C437 C441 1.408 . S
C438 C436 1.363 . S
C438 C439 1.370 . S
C438 C442 1.524 . S
C439 C431 1.503 . S
C439 C438 1.370 . S
C439 C440 1.403 . S
C440 C439 1.403 . S
C440 C441 1.404 . S
C440 C443 1.539 . S
C441 C437 1.408 . S
C441 C440 1.404 . S
C441 H453 0.930 . S
C442 C438 1.524 . S
C442 H454 0.956 . S
C442 H455 0.961 . S
C442 H456 0.961 . S
C443 C440 1.539 . S
C443 H457 0.958 . S
C443 H458 0.961 . S
C443 H459 0.960 . S
H444 C428 0.931 . S
H445 C433 0.929 . S
H446 C434 0.960 . S
H447 C434 0.962 . S
H448 C434 0.960 . S
H449 C435 0.961 . S
H450 C435 0.961 . S
H451 C435 0.961 . S
H452 C436 0.931 . S
H453 C441 0.930 . S
H454 C442 0.956 . S
H455 C442 0.961 . S
H456 C442 0.961 . S
H457 C443 0.958 . S
H458 C443 0.961 . S
H459 C443 0.960 . S
C460 C461 1.391 . S
C460 C462 1.394 . S
C460 H476 0.931 . S
C461 C460 1.391 . S
C461 C465 1.376 . S
C462 C460 1.394 . S
C462 C463 1.369 . S
C462 C466 1.531 . S
C463 C462 1.369 . S
C463 C464 1.410 . S
C463 C471 1.503 . S
C464 C463 1.410 . S
C464 C465 1.392 . S
C464 C467 1.511 . S
C465 C461 1.376 . S
C465 C464 1.392 . S
C465 H477 0.929 . S
C466 C462 1.531 . S
C466 H478 0.960 . S
C466 H479 0.962 . S
C466 H480 0.960 . S
C467 C464 1.511 . S
C467 H481 0.961 . S
C467 H482 0.961 . S
C467 H483 0.961 . S
C468 C469 1.370 . S
C468 C470 1.363 . S
C468 H484 0.931 1_554 S
C469 C468 1.370 . S
C469 C473 1.408 . S
C470 C468 1.363 . S
C470 C471 1.370 . S
C470 C474 1.501 1_554 S
C471 C463 1.503 . S
C471 C470 1.370 . S
C471 C472 1.403 . S
C472 C471 1.403 . S
C472 C473 1.404 . S
C472 C475 1.539 . S
C473 C469 1.408 . S
C473 C472 1.404 . S
C473 H485 0.930 . S
C474 C470 1.501 1_556 S
C474 H486 0.944 1_556 S
C474 H487 0.970 . S
C474 H488 0.989 . S
C475 C472 1.539 . S
C475 H489 0.958 . S
C475 H490 0.961 . S
C475 H491 0.960 . S
H476 C460 0.931 . S
H477 C465 0.929 . S
H478 C466 0.960 . S
H479 C466 0.962 . S
H480 C466 0.960 . S
H481 C467 0.961 . S
H482 C467 0.961 . S
H483 C467 0.961 . S
H484 C468 0.931 1_556 S
H485 C473 0.930 . S
H486 C474 0.944 1_554 S
H487 C474 0.970 . S
H488 C474 0.989 . S
H489 C475 0.958 . S
H490 C475 0.961 . S
H491 C475 0.960 . S
C492 C493 1.391 . S
C492 C494 1.394 . S
C492 H508 0.931 . S
C493 C492 1.391 . S
C493 C497 1.376 . S
C494 C492 1.394 . S
C494 C495 1.369 . S
C494 C498 1.531 1_556 S
C495 C494 1.369 . S
C495 C496 1.410 . S
C495 C503 1.503 . S
C496 C495 1.410 . S
C496 C497 1.392 . S
C496 C499 1.511 . S
C497 C493 1.376 . S
C497 C496 1.392 . S
C497 H509 0.929 . S
C498 C494 1.531 1_554 S
C498 H510 0.960 . S
C498 H511 0.962 1_554 S
C498 H512 0.960 . S
C499 C496 1.511 . S
C499 H513 0.961 . S
C499 H514 0.961 . S
C499 H515 0.961 . S
C500 C501 1.370 . S
C500 C502 1.363 . S
C500 H516 0.931 . S
C501 C500 1.370 . S
C501 C505 1.408 1_556 S
C502 C500 1.363 . S
C502 C503 1.370 . S
C502 C506 1.524 . S
C503 C495 1.503 . S
C503 C502 1.370 . S
C503 C504 1.403 1_556 S
C504 C503 1.403 1_554 S
C504 C505 1.404 . S
C504 C507 1.539 . S
C505 C501 1.408 1_554 S
C505 C504 1.404 . S
C505 H517 0.930 . S
C506 C502 1.524 . S
C506 H518 0.956 . S
C506 H519 0.961 . S
C506 H520 0.961 . S
C507 C504 1.539 . S
C507 H521 0.958 . S
C507 H522 0.961 . S
C507 H523 0.960 . S
H508 C492 0.931 . S
H509 C497 0.929 . S
H510 C498 0.960 . S
H511 C498 0.962 1_556 S
H512 C498 0.960 . S
H513 C499 0.961 . S
H514 C499 0.961 . S
H515 C499 0.961 . S
H516 C500 0.931 . S
H517 C505 0.930 . S
H518 C506 0.956 . S
H519 C506 0.961 . S
H520 C506 0.961 . S
H521 C507 0.958 . S
H522 C507 0.961 . S
H523 C507 0.960 . S
C524 C525 1.391 . S
C524 C526 1.394 . S
C524 H540 0.931 . S
C525 C524 1.391 . S
C525 C529 1.376 . S
C526 C524 1.394 . S
C526 C527 1.369 . S
C526 C530 1.531 . S
C527 C526 1.369 . S
C527 C528 1.410 . S
C527 C535 1.503 . S
C528 C527 1.410 . S
C528 C529 1.392 . S
C528 C531 1.511 . S
C529 C525 1.376 . S
C529 C528 1.392 . S
C529 H541 0.929 . S
C530 C526 1.531 . S
C530 H542 0.960 . S
C530 H543 0.962 . S
C530 H544 0.960 . S
C531 C528 1.511 . S
C531 H545 0.961 . S
C531 H546 0.961 . S
C531 H547 0.961 1_556 S
C532 C533 1.370 . S
C532 C534 1.363 . S
C532 H548 0.931 . S
C533 C532 1.370 . S
C533 C537 1.408 . S
C534 C532 1.363 . S
C534 C535 1.370 . S
C534 C538 1.524 . S
C535 C527 1.503 . S
C535 C534 1.370 . S
C535 C536 1.403 . S
C536 C535 1.403 . S
C536 C537 1.404 . S
C536 C539 1.539 . S
C537 C533 1.408 . S
C537 C536 1.404 . S
C537 H549 0.930 1_556 S
C538 C534 1.524 . S
C538 H550 0.956 . S
C538 H551 0.961 . S
C538 H552 0.961 . S
C539 C536 1.539 . S
C539 H553 0.958 . S
C539 H554 0.961 1_556 S
C539 H555 0.960 . S
H540 C524 0.931 . S
H541 C529 0.929 . S
H542 C530 0.960 . S
H543 C530 0.962 . S
H544 C530 0.960 . S
H545 C531 0.961 . S
H546 C531 0.961 . S
H547 C531 0.961 1_554 S
H548 C532 0.931 . S
H549 C537 0.930 1_554 S
H550 C538 0.956 . S
H551 C538 0.961 . S
H552 C538 0.961 . S
H553 C539 0.958 . S
H554 C539 0.961 1_554 S
H555 C539 0.960 . S
C556 C557 1.391 . S
C556 C558 1.394 . S
C556 H572 0.931 . S
C557 C556 1.391 . S
C557 C561 1.376 . S
C558 C556 1.394 . S
C558 C559 1.369 . S
C558 C562 1.531 . S
C559 C558 1.369 . S
C559 C560 1.410 . S
C559 C567 1.503 . S
C560 C559 1.410 . S
C560 C561 1.392 . S
C560 C563 1.511 . S
C561 C557 1.376 . S
C561 C560 1.392 . S
C561 H573 0.929 . S
C562 C558 1.531 . S
C562 H574 0.960 1_556 S
C562 H575 0.962 . S
C562 H576 0.954 1_556 S
C563 C560 1.511 . S
C563 H577 0.961 . S
C563 H578 0.961 . S
C563 H579 0.961 . S
C564 C565 1.370 . S
C564 C566 1.363 . S
C564 H580 0.931 . S
C565 C564 1.370 . S
C565 C569 1.408 1_556 S
C566 C564 1.363 . S
C566 C567 1.370 . S
C566 C570 1.524 . S
C567 C559 1.503 . S
C567 C566 1.370 . S
C567 C568 1.403 1_556 S
C568 C567 1.403 1_554 S
C568 C569 1.404 . S
C568 C571 1.539 . S
C569 C565 1.408 1_554 S
C569 C568 1.404 . S
C569 H581 0.930 . S
C570 C566 1.524 . S
C570 H582 0.956 . S
C570 H583 0.961 . S
C570 H584 0.961 . S
C571 C568 1.539 . S
C571 H585 0.958 . S
C571 H586 0.961 . S
C571 H587 0.960 . S
H572 C556 0.931 . S
H573 C561 0.929 . S
H574 C562 0.960 1_554 S
H575 C562 0.962 . S
H576 C562 0.954 1_554 S
H577 C563 0.961 . S
H578 C563 0.961 . S
H579 C563 0.961 . S
H580 C564 0.931 . S
H581 C569 0.930 . S
H582 C570 0.956 . S
H583 C570 0.961 . S
H584 C570 0.961 . S
H585 C571 0.958 . S
H586 C571 0.961 . S
H587 C571 0.960 . S
C588 C589 1.391 . S
C588 C590 1.394 . S
C588 H604 0.931 . S
C589 C588 1.391 . S
C589 C593 1.376 . S
C590 C588 1.394 . S
C590 C591 1.369 . S
C590 C594 1.531 . S
C591 C590 1.369 . S
C591 C592 1.410 . S
C591 C599 1.503 . S
C592 C591 1.410 . S
C592 C593 1.392 . S
C592 C595 1.511 . S
C593 C589 1.376 . S
C593 C592 1.392 . S
C593 H605 0.929 . S
C594 C590 1.531 . S
C594 H606 0.960 . S
C594 H607 0.962 . S
C594 H608 0.960 . S
C595 C592 1.511 . S
C595 H609 0.961 . S
C595 H610 0.961 . S
C595 H611 0.961 . S
C596 C597 1.370 1_554 S
C596 C598 1.363 1_554 S
C596 H612 0.931 . S
C597 C596 1.370 1_556 S
C597 C601 1.408 . S
C598 C596 1.363 1_556 S
C598 C599 1.370 . S
C598 C602 1.524 1_556 S
C599 C591 1.503 . S
C599 C598 1.370 . S
C599 C600 1.403 . S
C600 C599 1.403 . S
C600 C601 1.404 . S
C600 C603 1.539 . S
C601 C597 1.408 . S
C601 C600 1.404 . S
C601 H613 0.930 . S
C602 C598 1.524 1_554 S
C602 H614 0.956 . S
C602 H615 0.961 . S
C602 H616 0.961 . S
C603 C600 1.539 . S
C603 H617 0.958 . S
C603 H618 0.961 . S
C603 H619 0.960 . S
H604 C588 0.931 . S
H605 C593 0.929 . S
H606 C594 0.960 . S
H607 C594 0.962 . S
H608 C594 0.960 . S
H609 C595 0.961 . S
H610 C595 0.961 . S
H611 C595 0.961 . S
H612 C596 0.931 . S
H613 C601 0.930 . S
H614 C602 0.956 . S
H615 C602 0.961 . S
H616 C602 0.961 . S
H617 C603 0.958 . S
H618 C603 0.961 . S
H619 C603 0.960 . S
C620 C621 1.391 . S
C620 C622 1.394 . S
C620 H636 0.931 . S
C621 C620 1.391 . S
C621 C625 1.376 . S
C622 C620 1.394 . S
C622 C623 1.369 . S
C622 C626 1.531 . S
C623 C622 1.369 . S
C623 C624 1.410 . S
C623 C631 1.503 . S
C624 C623 1.410 . S
C624 C625 1.392 . S
C624 C627 1.511 . S
C625 C621 1.376 . S
C625 C624 1.392 . S
C625 H637 0.929 . S
C626 C622 1.531 . S
C626 H638 0.960 . S
C626 H639 0.962 . S
C626 H640 0.960 . S
C627 C624 1.511 . S
C627 H641 0.961 . S
C627 H642 0.961 . S
C627 H643 0.961 . S
C628 C629 1.370 . S
C628 C630 1.363 . S
C628 H644 0.931 . S
C629 C628 1.370 . S
C629 C633 1.408 . S
C630 C628 1.363 . S
C630 C631 1.370 . S
C630 C634 1.524 . S
C631 C623 1.503 . S
C631 C630 1.370 . S
C631 C632 1.403 . S
C632 C631 1.403 . S
C632 C633 1.404 . S
C632 C635 1.539 1_556 S
C633 C629 1.408 . S
C633 C632 1.404 . S
C633 H645 0.930 1_556 S
C634 C630 1.524 . S
C634 H646 0.956 . S
C634 H647 0.961 . S
C634 H648 0.961 . S
C635 C632 1.539 1_554 S
C635 H649 0.958 . S
C635 H650 0.961 . S
C635 H651 0.960 . S
H636 C620 0.931 . S
H637 C625 0.929 . S
H638 C626 0.960 . S
H639 C626 0.962 . S
H640 C626 0.960 . S
H641 C627 0.961 . S
H642 C627 0.961 . S
H643 C627 0.961 . S
H644 C628 0.931 . S
H645 C633 0.930 1_554 S
H646 C634 0.956 . S
H647 C634 0.961 . S
H648 C634 0.961 . S
H649 C635 0.958 . S
H650 C635 0.961 . S
H651 C635 0.960 . S
C652 C653 1.391 . S
C652 C654 1.394 . S
C652 H668 0.931 . S
C653 C652 1.391 . S
C653 C657 1.376 . S
C654 C652 1.394 . S
C654 C655 1.369 . S
C654 C658 1.531 . S
C655 C654 1.369 . S
C655 C656 1.410 . S
C655 C663 1.503 . S
C656 C655 1.410 . S
C656 C657 1.392 . S
C656 C659 1.511 . S
C657 C653 1.376 . S
C657 C656 1.392 . S
C657 H669 0.929 . S
C658 C654 1.531 . S
C658 H670 0.960 1_556 S
C658 H671 0.962 . S
C658 H672 0.960 1_556 S
C659 C656 1.511 . S
C659 H673 0.961 . S
C659 H674 0.961 . S
C659 H675 0.961 1_556 S
C660 C661 1.381 . S
C660 C662 1.363 . S
C660 H676 0.931 . S
C661 C660 1.381 . S
C661 C665 1.397 1_556 S
C662 C660 1.363 . S
C662 C663 1.370 . S
C662 C666 1.524 . S
C663 C655 1.503 . S
C663 C662 1.370 . S
C663 C664 1.403 1_556 S
C664 C663 1.403 1_554 S
C664 C665 1.404 . S
C664 C667 1.539 . S
C665 C661 1.397 1_554 S
C665 C664 1.404 . S
C665 H677 0.930 . S
C666 C662 1.524 . S
C666 H678 0.956 . S
C666 H679 0.961 . S
C666 H680 0.961 . S
C667 C664 1.539 . S
C667 H681 0.958 . S
C667 H682 0.961 . S
C667 H683 0.960 . S
H668 C652 0.931 . S
H669 C657 0.929 . S
H670 C658 0.960 1_554 S
H671 C658 0.962 . S
H672 C658 0.960 1_554 S
H673 C659 0.961 . S
H674 C659 0.961 . S
H675 C659 0.961 1_554 S
H676 C660 0.931 . S
H677 C665 0.930 . S
H678 C666 0.956 . S
H679 C666 0.961 . S
H680 C666 0.961 . S
H681 C667 0.958 . S
H682 C667 0.961 . S
H683 C667 0.960 . S
C684 C685 1.391 . S
C684 C686 1.394 . S
C684 H700 0.931 . S
C685 C684 1.391 . S
C685 C689 1.376 . S
C686 C684 1.394 . S
C686 C687 1.369 . S
C686 C690 1.531 . S
C687 C686 1.369 . S
C687 C688 1.410 . S
C687 C695 1.503 . S
C688 C687 1.410 . S
C688 C689 1.392 . S
C688 C691 1.511 . S
C689 C685 1.376 . S
C689 C688 1.392 . S
C689 H701 0.929 . S
C690 C686 1.531 . S
C690 H702 0.960 . S
C690 H703 0.962 . S
C690 H704 0.960 . S
C691 C688 1.511 . S
C691 H705 0.961 . S
C691 H706 0.961 . S
C691 H707 0.961 . S
C692 C693 1.370 . S
C692 C694 1.363 . S
C692 H708 0.931 1_554 S
C693 C692 1.370 . S
C693 C697 1.408 . S
C694 C692 1.363 . S
C694 C695 1.370 . S
C694 C698 1.524 1_554 S
C695 C687 1.503 . S
C695 C694 1.370 . S
C695 C696 1.403 . S
C696 C695 1.403 . S
C696 C697 1.404 . S
C696 C699 1.539 . S
C697 C693 1.408 . S
C697 C696 1.404 . S
C697 H709 0.930 . S
C698 C694 1.524 1_556 S
C698 H710 0.956 1_556 S
C698 H711 0.961 . S
C698 H712 0.961 . S
C699 C696 1.539 . S
C699 H713 0.958 . S
C699 H714 0.961 . S
C699 H715 0.960 . S
H700 C684 0.931 . S
H701 C689 0.929 . S
H702 C690 0.960 . S
H703 C690 0.962 . S
H704 C690 0.960 . S
H705 C691 0.961 . S
H706 C691 0.961 . S
H707 C691 0.961 . S
H708 C692 0.931 1_556 S
H709 C697 0.930 . S
H710 C698 0.956 1_554 S
H711 C698 0.961 . S
H712 C698 0.961 . S
H713 C699 0.958 . S
H714 C699 0.961 . S
H715 C699 0.960 . S
C716 C717 1.391 . S
C716 C718 1.394 . S
C716 H732 0.931 . S
C717 C716 1.391 . S
C717 C721 1.376 . S
C718 C716 1.394 . S
C718 C719 1.369 . S
C718 C722 1.531 . S
C719 C718 1.369 . S
C719 C720 1.410 . S
C719 C727 1.503 . S
C720 C719 1.410 . S
C720 C721 1.392 . S
C720 C723 1.511 . S
C721 C717 1.376 . S
C721 C720 1.392 . S
C721 H733 0.929 . S
C722 C718 1.531 . S
C722 H734 0.960 . S
C722 H735 0.962 . S
C722 H736 0.960 . S
C723 C720 1.511 . S
C723 H737 0.961 . S
C723 H738 0.961 . S
C723 H739 0.961 . S
C724 C725 1.370 . S
C724 C726 1.363 . S
C724 H740 0.931 . S
C725 C724 1.370 . S
C725 C729 1.408 . S
C726 C724 1.363 . S
C726 C727 1.370 . S
C726 C730 1.524 . S
C727 C719 1.503 . S
C727 C726 1.370 . S
C727 C728 1.403 . S
C728 C727 1.403 . S
C728 C729 1.404 . S
C728 C731 1.539 . S
C729 C725 1.408 . S
C729 C728 1.404 . S
C729 H741 0.930 . S
C730 C726 1.524 . S
C730 H742 0.956 . S
C730 H743 0.961 . S
C730 H744 0.961 . S
C731 C728 1.539 . S
C731 H745 0.958 . S
C731 H746 0.961 1_554 S
C731 H747 0.960 . S
H732 C716 0.931 . S
H733 C721 0.929 . S
H734 C722 0.960 . S
H735 C722 0.962 . S
H736 C722 0.960 . S
H737 C723 0.961 . S
H738 C723 0.961 . S
H739 C723 0.961 . S
H740 C724 0.931 . S
H741 C729 0.930 . S
H742 C730 0.956 . S
H743 C730 0.961 . S
H744 C730 0.961 . S
H745 C731 0.958 . S
H746 C731 0.961 1_556 S
H747 C731 0.960 . S
C748 C749 1.391 . S
C748 C750 1.394 . S
C748 H764 0.931 . S
C749 C748 1.391 . S
C749 C753 1.376 . S
C750 C748 1.394 . S
C750 C751 1.369 . S
C750 C754 1.531 . S
C751 C750 1.369 . S
C751 C752 1.410 . S
C751 C759 1.503 . S
C752 C751 1.410 . S
C752 C753 1.392 . S
C752 C755 1.511 1_554 S
C753 C749 1.376 . S
C753 C752 1.392 . S
C753 H765 0.929 . S
C754 C750 1.531 . S
C754 H766 0.960 . S
C754 H767 0.962 . S
C754 H768 0.960 . S
C755 C752 1.511 1_556 S
C755 H769 0.961 . S
C755 H770 0.961 . S
C755 H771 0.961 1_556 S
C756 C757 1.370 . S
C756 C758 1.363 . S
C756 H772 0.946 . S
C757 C756 1.370 . S
C757 C761 1.408 . S
C758 C756 1.363 . S
C758 C759 1.370 . S
C758 C762 1.524 . S
C759 C751 1.503 . S
C759 C758 1.370 . S
C759 C760 1.403 . S
C760 C759 1.403 . S
C760 C761 1.404 . S
C760 C763 1.539 . S
C761 C757 1.408 . S
C761 C760 1.404 . S
C761 H773 0.930 . S
C762 C758 1.524 . S
C762 H774 0.956 . S
C762 H775 0.961 1_554 S
C762 H776 0.961 1_554 S
C763 C760 1.539 . S
C763 H777 0.958 . S
C763 H778 0.961 . S
C763 H779 0.960 . S
H764 C748 0.931 . S
H765 C753 0.929 . S
H766 C754 0.960 . S
H767 C754 0.962 . S
H768 C754 0.960 . S
H769 C755 0.961 . S
H770 C755 0.961 . S
H771 C755 0.961 1_554 S
H772 C756 0.946 . S
H773 C761 0.930 . S
H774 C762 0.956 . S
H775 C762 0.961 1_556 S
H776 C762 0.961 1_556 S
H777 C763 0.958 . S
H778 C763 0.961 . S
H779 C763 0.960 . S
C780 C781 1.391 . S
C780 C782 1.394 . S
C780 H796 0.931 . S
C781 C780 1.391 . S
C781 C785 1.376 . S
C782 C780 1.394 . S
C782 C783 1.369 . S
C782 C786 1.531 . S
C783 C782 1.369 . S
C783 C784 1.410 . S
C783 C791 1.503 1_655 S
C784 C783 1.410 . S
C784 C785 1.392 . S
C784 C787 1.511 . S
C785 C781 1.376 . S
C785 C784 1.392 . S
C785 H797 0.929 . S
C786 C782 1.531 . S
C786 H798 0.960 . S
C786 H799 0.962 . S
C786 H800 0.960 . S
C787 C784 1.511 . S
C787 H801 0.961 . S
C787 H802 0.961 1_655 S
C787 H803 0.961 . S
C788 C789 1.370 . S
C788 C790 1.363 . S
C788 H804 0.931 . S
C789 C788 1.370 . S
C789 C793 1.408 . S
C790 C788 1.363 . S
C790 C791 1.370 . S
C790 C794 1.524 . S
C791 C783 1.503 1_455 S
C791 C790 1.370 . S
C791 C792 1.403 . S
C792 C791 1.403 . S
C792 C793 1.404 . S
C792 C795 1.535 1_455 S
C793 C789 1.408 . S
C793 C792 1.404 . S
C793 H805 0.930 . S
C794 C790 1.524 . S
C794 H806 0.956 1_455 S
C794 H807 0.960 1_455 S
C794 H808 0.961 . S
C795 C792 1.535 1_655 S
C795 H809 0.962 . S
C795 H810 0.960 1_655 S
C795 H811 0.962 . S
H796 C780 0.931 . S
H797 C785 0.929 . S
H798 C786 0.960 . S
H799 C786 0.962 . S
H800 C786 0.960 . S
H801 C787 0.961 . S
H802 C787 0.961 1_455 S
H803 C787 0.961 . S
H804 C788 0.931 . S
H805 C793 0.930 . S
H806 C794 0.956 1_655 S
H807 C794 0.960 1_655 S
H808 C794 0.961 . S
H809 C795 0.962 . S
H810 C795 0.960 1_455 S
H811 C795 0.962 . S
C812 C813 1.391 . S
C812 C814 1.394 . S
C812 H828 0.931 . S
C813 C812 1.391 . S
C813 C817 1.376 . S
C814 C812 1.394 . S
C814 C815 1.369 . S
C814 C818 1.531 . S
C815 C814 1.369 . S
C815 C816 1.410 . S
C815 C823 1.503 . S
C816 C815 1.410 . S
C816 C817 1.392 . S
C816 C819 1.511 . S
C817 C813 1.376 . S
C817 C816 1.392 . S
C817 H829 0.929 . S
C818 C814 1.531 . S
C818 H830 0.960 . S
C818 H831 0.962 . S
C818 H832 0.960 . S
C819 C816 1.511 . S
C819 H833 0.961 . S
C819 H834 0.961 . S
C819 H835 0.961 . S
C820 C821 1.370 . S
C820 C822 1.363 . S
C820 H836 0.931 . S
C821 C820 1.370 . S
C821 C825 1.408 . S
C822 C820 1.363 . S
C822 C823 1.370 . S
C822 C826 1.524 . S
C823 C815 1.503 . S
C823 C822 1.370 . S
C823 C824 1.403 . S
C824 C823 1.403 . S
C824 C825 1.404 . S
C824 C827 1.539 . S
C825 C821 1.408 . S
C825 C824 1.404 . S
C825 H837 0.930 . S
C826 C822 1.524 . S
C826 H838 0.956 . S
C826 H839 0.961 . S
C826 H840 0.961 . S
C827 C824 1.539 . S
C827 H841 0.958 . S
C827 H842 0.961 . S
C827 H843 0.960 . S
H828 C812 0.931 . S
H829 C817 0.929 . S
H830 C818 0.960 . S
H831 C818 0.962 . S
H832 C818 0.960 . S
H833 C819 0.961 . S
H834 C819 0.961 . S
H835 C819 0.961 . S
H836 C820 0.931 . S
H837 C825 0.930 . S
H838 C826 0.956 . S
H839 C826 0.961 . S
H840 C826 0.961 . S
H841 C827 0.958 . S
H842 C827 0.961 . S
H843 C827 0.960 . S
C844 C845 1.391 . S
C844 C846 1.394 . S
C844 H860 0.931 . S
C845 C844 1.391 . S
C845 C849 1.376 . S
C846 C844 1.394 . S
C846 C847 1.369 . S
C846 C850 1.531 . S
C847 C846 1.369 . S
C847 C848 1.410 . S
C847 C855 1.503 1_545 S
C848 C847 1.410 . S
C848 C849 1.392 . S
C848 C851 1.511 . S
C849 C845 1.376 . S
C849 C848 1.392 . S
C849 H861 0.929 . S
C850 C846 1.531 . S
C850 H862 0.960 1_545 S
C850 H863 0.962 1_545 S
C850 H864 0.960 . S
C851 C848 1.511 . S
C851 H865 0.961 . S
C851 H866 0.961 . S
C851 H867 0.961 . S
C852 C853 1.370 . S
C852 C854 1.363 . S
C852 H868 0.931 . S
C853 C852 1.370 . S
C853 C857 1.408 . S
C854 C852 1.363 . S
C854 C855 1.370 . S
C854 C858 1.524 . S
C855 C847 1.503 1_565 S
C855 C854 1.370 . S
C855 C856 1.403 . S
C856 C855 1.403 . S
C856 C857 1.404 . S
C856 C859 1.539 1_565 S
C857 C853 1.408 . S
C857 C856 1.404 . S
C857 H869 0.930 . S
C858 C854 1.524 . S
C858 H870 0.956 . S
C858 H871 0.961 . S
C858 H872 0.961 . S
C859 C856 1.539 1_545 S
C859 H873 0.958 . S
C859 H874 0.961 1_545 S
C859 H875 0.960 . S
H860 C844 0.931 . S
H861 C849 0.929 . S
H862 C850 0.960 1_565 S
H863 C850 0.962 1_565 S
H864 C850 0.960 . S
H865 C851 0.961 . S
H866 C851 0.961 . S
H867 C851 0.961 . S
H868 C852 0.931 . S
H869 C857 0.930 . S
H870 C858 0.956 . S
H871 C858 0.961 . S
H872 C858 0.961 . S
H873 C859 0.958 . S
H874 C859 0.961 1_565 S
H875 C859 0.960 . S
C876 C877 1.391 . S
C876 C878 1.394 . S
C876 H892 0.931 . S
C877 C876 1.391 . S
C877 C881 1.376 . S
C878 C876 1.394 . S
C878 C879 1.369 . S
C878 C882 1.531 . S
C879 C878 1.369 . S
C879 C880 1.410 . S
C879 C887 1.503 . S
C880 C879 1.410 . S
C880 C881 1.392 . S
C880 C883 1.511 . S
C881 C877 1.376 . S
C881 C880 1.392 . S
C881 H893 0.929 . S
C882 C878 1.531 . S
C882 H894 0.960 . S
C882 H895 0.962 . S
C882 H896 0.960 . S
C883 C880 1.511 . S
C883 H897 0.961 . S
C883 H898 0.961 . S
C883 H899 0.961 . S
C884 C885 1.370 . S
C884 C886 1.363 . S
C884 H900 0.931 . S
C885 C884 1.370 . S
C885 C889 1.408 . S
C886 C884 1.363 . S
C886 C887 1.370 . S
C886 C890 1.524 . S
C887 C879 1.503 . S
C887 C886 1.370 . S
C887 C888 1.403 . S
C888 C887 1.403 . S
C888 C889 1.404 . S
C888 C891 1.539 . S
C889 C885 1.408 . S
C889 C888 1.404 . S
C889 H901 0.930 . S
C890 C886 1.524 . S
C890 H902 0.956 . S
C890 H903 0.961 . S
C890 H904 0.961 . S
C891 C888 1.539 . S
C891 H905 0.958 . S
C891 H906 0.961 . S
C891 H907 0.960 . S
H892 C876 0.931 . S
H893 C881 0.929 . S
H894 C882 0.960 . S
H895 C882 0.962 . S
H896 C882 0.960 . S
H897 C883 0.961 . S
H898 C883 0.961 . S
H899 C883 0.961 . S
H900 C884 0.931 . S
H901 C889 0.930 . S
H902 C890 0.956 . S
H903 C890 0.961 . S
H904 C890 0.961 . S
H905 C891 0.958 . S
H906 C891 0.961 . S
H907 C891 0.960 . S
C908 C909 1.391 . S
C908 C910 1.394 . S
C908 H924 0.931 . S
C909 C908 1.391 . S
C909 C913 1.376 . S
C910 C908 1.394 . S
C910 C911 1.369 . S
C910 C914 1.531 . S
C911 C910 1.369 . S
C911 C912 1.410 . S
C911 C919 1.503 . S
C912 C911 1.410 . S
C912 C913 1.392 . S
C912 C915 1.511 . S
C913 C909 1.376 . S
C913 C912 1.392 . S
C913 H925 0.929 . S
C914 C910 1.531 . S
C914 H926 0.960 . S
C914 H927 0.962 . S
C914 H928 0.960 . S
C915 C912 1.511 . S
C915 H929 0.961 . S
C915 H930 0.961 . S
C915 H931 0.961 . S
C916 C917 1.370 . S
C916 C918 1.363 . S
C916 H932 0.931 . S
C917 C916 1.370 . S
C917 C921 1.408 . S
C918 C916 1.363 . S
C918 C919 1.370 . S
C918 C922 1.524 . S
C919 C911 1.503 . S
C919 C918 1.370 . S
C919 C920 1.403 . S
C920 C919 1.403 . S
C920 C921 1.404 . S
C920 C923 1.539 . S
C921 C917 1.408 . S
C921 C920 1.404 . S
C921 H933 0.930 . S
C922 C918 1.524 . S
C922 H934 0.956 . S
C922 H935 0.961 . S
C922 H936 0.961 . S
C923 C920 1.539 . S
C923 H937 0.958 . S
C923 H938 0.961 . S
C923 H939 0.960 . S
H924 C908 0.931 . S
H925 C913 0.929 . S
H926 C914 0.960 . S
H927 C914 0.962 . S
H928 C914 0.960 . S
H929 C915 0.961 . S
H930 C915 0.961 . S
H931 C915 0.961 . S
H932 C916 0.931 . S
H933 C921 0.930 . S
H934 C922 0.956 . S
H935 C922 0.961 . S
H936 C922 0.961 . S
H937 C923 0.958 . S
H938 C923 0.961 . S
H939 C923 0.960 . S
C940 C941 1.391 . S
C940 C942 1.394 . S
C940 H956 0.931 . S
C941 C940 1.391 . S
C941 C945 1.376 . S
C942 C940 1.394 . S
C942 C943 1.369 . S
C942 C946 1.531 . S
C943 C942 1.369 . S
C943 C944 1.410 . S
C943 C951 1.503 . S
C944 C943 1.410 . S
C944 C945 1.392 . S
C944 C947 1.511 . S
C945 C941 1.376 . S
C945 C944 1.392 . S
C945 H957 0.929 . S
C946 C942 1.531 . S
C946 H958 0.960 . S
C946 H959 0.962 . S
C946 H960 0.960 . S
C947 C944 1.511 . S
C947 H961 0.961 . S
C947 H962 0.961 . S
C947 H963 0.961 . S
C948 C949 1.370 . S
C948 C950 1.363 . S
C948 H964 0.931 . S
C949 C948 1.370 . S
C949 C953 1.408 . S
C950 C948 1.363 . S
C950 C951 1.370 . S
C950 C954 1.524 . S
C951 C943 1.503 . S
C951 C950 1.370 . S
C951 C952 1.403 . S
C952 C951 1.403 . S
C952 C953 1.404 . S
C952 C955 1.539 . S
C953 C949 1.408 . S
C953 C952 1.404 . S
C953 H965 0.930 . S
C954 C950 1.524 . S
C954 H966 0.956 . S
C954 H967 0.961 . S
C954 H968 0.961 . S
C955 C952 1.539 . S
C955 H969 0.958 . S
C955 H970 0.961 . S
C955 H971 0.960 . S
H956 C940 0.931 . S
H957 C945 0.929 . S
H958 C946 0.960 . S
H959 C946 0.962 . S
H960 C946 0.960 . S
H961 C947 0.961 . S
H962 C947 0.961 . S
H963 C947 0.961 . S
H964 C948 0.931 . S
H965 C953 0.930 . S
H966 C954 0.956 . S
H967 C954 0.961 . S
H968 C954 0.961 . S
H969 C955 0.958 . S
H970 C955 0.961 . S
H971 C955 0.960 . S
C972 C973 1.391 . S
C972 C974 1.394 . S
C972 H988 0.931 . S
C973 C972 1.391 . S
C973 C977 1.376 . S
C974 C972 1.394 . S
C974 C975 1.369 . S
C974 C978 1.531 . S
C975 C974 1.369 . S
C975 C976 1.410 . S
C975 C983 1.503 . S
C976 C975 1.410 . S
C976 C977 1.392 . S
C976 C979 1.511 . S
C977 C973 1.376 . S
C977 C976 1.392 . S
C977 H989 0.929 . S
C978 C974 1.531 . S
C978 H990 0.960 . S
C978 H991 0.962 . S
C978 H992 0.960 . S
C979 C976 1.511 . S
C979 H993 0.961 . S
C979 H994 0.961 . S
C979 H995 0.961 . S
C980 C981 1.370 . S
C980 C982 1.363 . S
C980 H996 0.931 . S
C981 C980 1.370 . S
C981 C985 1.408 . S
C982 C980 1.363 . S
C982 C983 1.370 . S
C982 C986 1.524 . S
C983 C975 1.503 . S
C983 C982 1.370 . S
C983 C984 1.403 . S
C984 C983 1.403 . S
C984 C985 1.404 . S
C984 C987 1.539 . S
C985 C981 1.408 . S
C985 C984 1.404 . S
C985 H997 0.930 . S
C986 C982 1.524 . S
C986 H998 0.956 . S
C986 H999 0.961 . S
C986 H1000 0.961 . S
C987 C984 1.539 . S
C987 H1001 0.958 . S
C987 H1002 0.961 . S
C987 H1003 0.960 . S
H988 C972 0.931 . S
H989 C977 0.929 . S
H990 C978 0.960 . S
H991 C978 0.962 . S
H992 C978 0.960 . S
H993 C979 0.961 . S
H994 C979 0.961 . S
H995 C979 0.961 . S
H996 C980 0.931 . S
H997 C985 0.930 . S
H998 C986 0.956 . S
H999 C986 0.961 . S
H1000 C986 0.961 . S
H1001 C987 0.958 . S
H1002 C987 0.961 . S
H1003 C987 0.960 . S
C1004 C1005 1.391 . S
C1004 C1006 1.394 . S
C1004 H1020 0.931 . S
C1005 C1004 1.391 . S
C1005 C1009 1.376 . S
C1006 C1004 1.394 . S
C1006 C1007 1.369 . S
C1006 C1010 1.531 . S
C1007 C1006 1.369 . S
C1007 C1008 1.410 . S
C1007 C1015 1.503 . S
C1008 C1007 1.410 . S
C1008 C1009 1.392 . S
C1008 C1011 1.511 . S
C1009 C1005 1.376 . S
C1009 C1008 1.392 . S
C1009 H1021 0.929 . S
C1010 C1006 1.531 . S
C1010 H1022 0.960 . S
C1010 H1023 0.962 . S
C1010 H1024 0.960 . S
C1011 C1008 1.511 . S
C1011 H1025 0.961 . S
C1011 H1026 0.961 . S
C1011 H1027 0.961 . S
C1012 C1013 1.370 . S
C1012 C1014 1.363 . S
C1012 H1028 0.931 . S
C1013 C1012 1.370 . S
C1013 C1017 1.408 . S
C1014 C1012 1.363 . S
C1014 C1015 1.370 . S
C1014 C1018 1.524 . S
C1015 C1007 1.503 . S
C1015 C1014 1.370 . S
C1015 C1016 1.403 . S
C1016 C1015 1.403 . S
C1016 C1017 1.404 . S
C1016 C1019 1.539 . S
C1017 C1013 1.408 . S
C1017 C1016 1.404 . S
C1017 H1029 0.930 . S
C1018 C1014 1.524 . S
C1018 H1030 0.956 . S
C1018 H1031 0.961 . S
C1018 H1032 0.961 . S
C1019 C1016 1.539 . S
C1019 H1033 0.958 . S
C1019 H1034 0.961 . S
C1019 H1035 0.960 . S
H1020 C1004 0.931 . S
H1021 C1009 0.929 . S
H1022 C1010 0.960 . S
H1023 C1010 0.962 . S
H1024 C1010 0.960 . S
H1025 C1011 0.961 . S
H1026 C1011 0.961 . S
H1027 C1011 0.961 . S
H1028 C1012 0.931 . S
H1029 C1017 0.930 . S
H1030 C1018 0.956 . S
H1031 C1018 0.961 . S
H1032 C1018 0.961 . S
H1033 C1019 0.958 . S
H1034 C1019 0.961 . S
H1035 C1019 0.960 . S
C1036 C1037 1.391 . S
C1036 C1038 1.394 . S
C1036 H1052 0.931 . S
C1037 C1036 1.391 . S
C1037 C1041 1.376 . S
C1038 C1036 1.394 . S
C1038 C1039 1.369 . S
C1038 C1042 1.531 . S
C1039 C1038 1.369 . S
C1039 C1040 1.410 . S
C1039 C1047 1.503 . S
C1040 C1039 1.410 . S
C1040 C1041 1.392 . S
C1040 C1043 1.511 . S
C1041 C1037 1.376 . S
C1041 C1040 1.392 . S
C1041 H1053 0.929 . S
C1042 C1038 1.531 . S
C1042 H1054 0.960 . S
C1042 H1055 0.962 . S
C1042 H1056 0.960 . S
C1043 C1040 1.511 . S
C1043 H1057 0.961 . S
C1043 H1058 0.961 . S
C1043 H1059 0.961 . S
C1044 C1045 1.370 . S
C1044 C1046 1.363 . S
C1044 H1060 0.931 . S
C1045 C1044 1.370 . S
C1045 C1049 1.408 . S
C1046 C1044 1.363 . S
C1046 C1047 1.370 . S
C1046 C1050 1.524 . S
C1047 C1039 1.503 . S
C1047 C1046 1.370 . S
C1047 C1048 1.403 . S
C1048 C1047 1.403 . S
C1048 C1049 1.404 . S
C1048 C1051 1.539 . S
C1049 C1045 1.408 . S
C1049 C1048 1.404 . S
C1049 H1061 0.930 . S
C1050 C1046 1.524 . S
C1050 H1062 0.956 . S
C1050 H1063 0.961 . S
C1050 H1064 0.961 . S
C1051 C1048 1.539 . S
C1051 H1065 0.958 . S
C1051 H1066 0.961 . S
C1051 H1067 0.960 . S
H1052 C1036 0.931 . S
H1053 C1041 0.929 . S
H1054 C1042 0.960 . S
H1055 C1042 0.962 . S
H1056 C1042 0.960 . S
H1057 C1043 0.961 . S
H1058 C1043 0.961 . S
H1059 C1043 0.961 . S
H1060 C1044 0.931 . S
H1061 C1049 0.930 . S
H1062 C1050 0.956 . S
H1063 C1050 0.961 . S
H1064 C1050 0.961 . S
H1065 C1051 0.958 . S
H1066 C1051 0.961 . S
H1067 C1051 0.960 . S
C1068 C1069 1.391 . S
C1068 C1070 1.394 1_545 S
C1068 H1084 0.931 . S
C1069 C1068 1.391 . S
C1069 C1073 1.376 . S
C1070 C1068 1.394 1_565 S
C1070 C1071 1.369 . S
C1070 C1074 1.531 . S
C1071 C1070 1.369 . S
C1071 C1072 1.410 . S
C1071 C1079 1.503 . S
C1072 C1071 1.410 . S
C1072 C1073 1.392 1_565 S
C1072 C1075 1.511 . S
C1073 C1069 1.376 . S
C1073 C1072 1.392 1_545 S
C1073 H1085 0.929 . S
C1074 C1070 1.531 . S
C1074 H1086 0.960 . S
C1074 H1087 0.962 . S
C1074 H1088 0.960 . S
C1075 C1072 1.511 . S
C1075 H1089 0.961 . S
C1075 H1090 0.961 . S
C1075 H1091 0.961 . S
C1076 C1077 1.370 . S
C1076 C1078 1.363 . S
C1076 H1092 0.931 . S
C1077 C1076 1.370 . S
C1077 C1081 1.408 . S
C1078 C1076 1.363 . S
C1078 C1079 1.370 . S
C1078 C1082 1.524 . S
C1079 C1071 1.503 . S
C1079 C1078 1.370 . S
C1079 C1080 1.403 . S
C1080 C1079 1.403 . S
C1080 C1081 1.404 . S
C1080 C1083 1.539 . S
C1081 C1077 1.408 . S
C1081 C1080 1.404 . S
C1081 H1093 0.930 . S
C1082 C1078 1.524 . S
C1082 H1094 0.956 . S
C1082 H1095 0.961 . S
C1082 H1096 0.961 . S
C1083 C1080 1.539 . S
C1083 H1097 0.958 . S
C1083 H1098 0.961 . S
C1083 H1099 0.960 . S
H1084 C1068 0.931 . S
H1085 C1073 0.929 . S
H1086 C1074 0.960 . S
H1087 C1074 0.962 . S
H1088 C1074 0.960 . S
H1089 C1075 0.961 . S
H1090 C1075 0.961 . S
H1091 C1075 0.961 . S
H1092 C1076 0.931 . S
H1093 C1081 0.930 . S
H1094 C1082 0.956 . S
H1095 C1082 0.961 . S
H1096 C1082 0.961 . S
H1097 C1083 0.958 . S
H1098 C1083 0.961 . S
H1099 C1083 0.960 . S
C1100 C1101 1.391 . S
C1100 C1102 1.394 1_655 S
C1100 H1116 0.931 . S
C1101 C1100 1.391 . S
C1101 C1105 1.376 . S
C1102 C1100 1.394 1_455 S
C1102 C1103 1.369 . S
C1102 C1106 1.531 . S
C1103 C1102 1.369 . S
C1103 C1104 1.410 . S
C1103 C1111 1.503 . S
C1104 C1103 1.410 . S
C1104 C1105 1.392 1_455 S
C1104 C1107 1.511 . S
C1105 C1101 1.376 . S
C1105 C1104 1.392 1_655 S
C1105 H1117 0.929 . S
C1106 C1102 1.531 . S
C1106 H1118 0.960 . S
C1106 H1119 0.962 . S
C1106 H1120 0.960 . S
C1107 C1104 1.511 . S
C1107 H1121 0.961 . S
C1107 H1122 0.961 . S
C1107 H1123 0.961 . S
C1108 C1109 1.370 . S
C1108 C1110 1.363 . S
C1108 H1124 0.931 . S
C1109 C1108 1.370 . S
C1109 C1113 1.408 . S
C1110 C1108 1.363 . S
C1110 C1111 1.370 . S
C1110 C1114 1.524 . S
C1111 C1103 1.503 . S
C1111 C1110 1.370 . S
C1111 C1112 1.403 . S
C1112 C1111 1.403 . S
C1112 C1113 1.404 . S
C1112 C1115 1.539 . S
C1113 C1109 1.408 . S
C1113 C1112 1.404 . S
C1113 H1125 0.930 . S
C1114 C1110 1.524 . S
C1114 H1126 0.956 . S
C1114 H1127 0.961 . S
C1114 H1128 0.961 . S
C1115 C1112 1.539 . S
C1115 H1129 0.958 . S
C1115 H1130 0.961 . S
C1115 H1131 0.960 . S
H1116 C1100 0.931 . S
H1117 C1105 0.929 . S
H1118 C1106 0.960 . S
H1119 C1106 0.962 . S
H1120 C1106 0.960 . S
H1121 C1107 0.961 . S
H1122 C1107 0.961 . S
H1123 C1107 0.961 . S
H1124 C1108 0.931 . S
H1125 C1113 0.930 . S
H1126 C1114 0.956 . S
H1127 C1114 0.961 . S
H1128 C1114 0.961 . S
H1129 C1115 0.958 . S
H1130 C1115 0.961 . S
H1131 C1115 0.960 . S
C1132 C1133 1.391 . S
C1132 C1134 1.394 . S
C1132 H1148 0.931 . S
C1133 C1132 1.391 . S
C1133 C1137 1.376 . S
C1134 C1132 1.394 . S
C1134 C1135 1.369 . S
C1134 C1138 1.531 . S
C1135 C1134 1.369 . S
C1135 C1136 1.410 . S
C1135 C1143 1.503 . S
C1136 C1135 1.410 . S
C1136 C1137 1.392 . S
C1136 C1139 1.511 . S
C1137 C1133 1.376 . S
C1137 C1136 1.392 . S
C1137 H1149 0.929 . S
C1138 C1134 1.531 . S
C1138 H1150 0.960 . S
C1138 H1151 0.962 . S
C1138 H1152 0.960 . S
C1139 C1136 1.511 . S
C1139 H1153 0.961 . S
C1139 H1154 0.961 . S
C1139 H1155 0.961 . S
C1140 C1141 1.370 . S
C1140 C1142 1.363 . S
C1140 H1156 0.931 . S
C1141 C1140 1.370 . S
C1141 C1145 1.408 . S
C1142 C1140 1.363 . S
C1142 C1143 1.370 . S
C1142 C1146 1.524 . S
C1143 C1135 1.503 . S
C1143 C1142 1.370 . S
C1143 C1144 1.403 . S
C1144 C1143 1.403 . S
C1144 C1145 1.404 . S
C1144 C1147 1.539 . S
C1145 C1141 1.408 . S
C1145 C1144 1.404 . S
C1145 H1157 0.930 . S
C1146 C1142 1.524 . S
C1146 H1158 0.956 . S
C1146 H1159 0.961 . S
C1146 H1160 0.961 . S
C1147 C1144 1.539 . S
C1147 H1161 0.958 . S
C1147 H1162 0.961 . S
C1147 H1163 0.960 . S
H1148 C1132 0.931 . S
H1149 C1137 0.929 . S
H1150 C1138 0.960 . S
H1151 C1138 0.962 . S
H1152 C1138 0.960 . S
H1153 C1139 0.961 . S
H1154 C1139 0.961 . S
H1155 C1139 0.961 . S
H1156 C1140 0.931 . S
H1157 C1145 0.930 . S
H1158 C1146 0.956 . S
H1159 C1146 0.961 . S
H1160 C1146 0.961 . S
H1161 C1147 0.958 . S
H1162 C1147 0.961 . S
H1163 C1147 0.960 . S
C1164 C1165 1.391 . S
C1164 C1166 1.394 . S
C1164 H1180 0.931 . S
C1165 C1164 1.391 . S
C1165 C1169 1.376 . S
C1166 C1164 1.394 . S
C1166 C1167 1.369 . S
C1166 C1170 1.531 . S
C1167 C1166 1.369 . S
C1167 C1168 1.410 . S
C1167 C1175 1.503 . S
C1168 C1167 1.410 . S
C1168 C1169 1.392 . S
C1168 C1171 1.511 . S
C1169 C1165 1.376 . S
C1169 C1168 1.392 . S
C1169 H1181 0.929 . S
C1170 C1166 1.531 . S
C1170 H1182 0.960 . S
C1170 H1183 0.962 . S
C1170 H1184 0.960 . S
C1171 C1168 1.511 . S
C1171 H1185 0.961 . S
C1171 H1186 0.961 . S
C1171 H1187 0.961 . S
C1172 C1173 1.370 . S
C1172 C1174 1.363 . S
C1172 H1188 0.931 . S
C1173 C1172 1.370 . S
C1173 C1177 1.408 . S
C1174 C1172 1.363 . S
C1174 C1175 1.370 . S
C1174 C1178 1.524 . S
C1175 C1167 1.503 . S
C1175 C1174 1.370 . S
C1175 C1176 1.403 . S
C1176 C1175 1.403 . S
C1176 C1177 1.404 . S
C1176 C1179 1.539 . S
C1177 C1173 1.408 . S
C1177 C1176 1.404 . S
C1177 H1189 0.930 . S
C1178 C1174 1.524 . S
C1178 H1190 0.956 . S
C1178 H1191 0.961 . S
C1178 H1192 0.961 . S
C1179 C1176 1.539 . S
C1179 H1193 0.958 . S
C1179 H1194 0.961 . S
C1179 H1195 0.960 . S
H1180 C1164 0.931 . S
H1181 C1169 0.929 . S
H1182 C1170 0.960 . S
H1183 C1170 0.962 . S
H1184 C1170 0.960 . S
H1185 C1171 0.961 . S
H1186 C1171 0.961 . S
H1187 C1171 0.961 . S
H1188 C1172 0.931 . S
H1189 C1177 0.930 . S
H1190 C1178 0.956 . S
H1191 C1178 0.961 . S
H1192 C1178 0.961 . S
H1193 C1179 0.958 . S
H1194 C1179 0.961 . S
H1195 C1179 0.960 . S
C1196 C1197 1.391 . S
C1196 C1198 1.394 . S
C1196 H1212 0.931 . S
C1197 C1196 1.391 . S
C1197 C1201 1.376 . S
C1198 C1196 1.394 . S
C1198 C1199 1.369 . S
C1198 C1202 1.531 . S
C1199 C1198 1.369 . S
C1199 C1200 1.410 . S
C1199 C1207 1.503 . S
C1200 C1199 1.410 . S
C1200 C1201 1.392 . S
C1200 C1203 1.511 . S
C1201 C1197 1.376 . S
C1201 C1200 1.392 . S
C1201 H1213 0.929 . S
C1202 C1198 1.531 . S
C1202 H1214 0.960 . S
C1202 H1215 0.962 . S
C1202 H1216 0.960 . S
C1203 C1200 1.511 . S
C1203 H1217 0.961 . S
C1203 H1218 0.961 . S
C1203 H1219 0.961 . S
C1204 C1205 1.370 . S
C1204 C1206 1.363 . S
C1204 H1220 0.931 . S
C1205 C1204 1.370 . S
C1205 C1209 1.408 . S
C1206 C1204 1.363 . S
C1206 C1207 1.370 . S
C1206 C1210 1.524 . S
C1207 C1199 1.503 . S
C1207 C1206 1.370 . S
C1207 C1208 1.403 . S
C1208 C1207 1.403 . S
C1208 C1209 1.404 . S
C1208 C1211 1.539 . S
C1209 C1205 1.408 . S
C1209 C1208 1.404 . S
C1209 H1221 0.930 . S
C1210 C1206 1.524 . S
C1210 H1222 0.956 . S
C1210 H1223 0.961 . S
C1210 H1224 0.961 . S
C1211 C1208 1.539 . S
C1211 H1225 0.958 . S
C1211 H1226 0.961 . S
C1211 H1227 0.960 . S
H1212 C1196 0.931 . S
H1213 C1201 0.929 . S
H1214 C1202 0.960 . S
H1215 C1202 0.962 . S
H1216 C1202 0.960 . S
H1217 C1203 0.961 . S
H1218 C1203 0.961 . S
H1219 C1203 0.961 . S
H1220 C1204 0.931 . S
H1221 C1209 0.930 . S
H1222 C1210 0.956 . S
H1223 C1210 0.961 . S
H1224 C1210 0.961 . S
H1225 C1211 0.958 . S
H1226 C1211 0.961 . S
H1227 C1211 0.960 . S
C1228 C1229 1.391 . S
C1228 C1230 1.394 . S
C1228 H1244 0.931 . S
C1229 C1228 1.391 . S
C1229 C1233 1.376 . S
C1230 C1228 1.394 . S
C1230 C1231 1.369 . S
C1230 C1234 1.531 . S
C1231 C1230 1.369 . S
C1231 C1232 1.410 . S
C1231 C1239 1.503 . S
C1232 C1231 1.410 . S
C1232 C1233 1.392 . S
C1232 C1235 1.511 . S
C1233 C1229 1.376 . S
C1233 C1232 1.392 . S
C1233 H1245 0.929 . S
C1234 C1230 1.531 . S
C1234 H1246 0.960 . S
C1234 H1247 0.962 . S
C1234 H1248 0.960 . S
C1235 C1232 1.511 . S
C1235 H1249 0.961 . S
C1235 H1250 0.961 . S
C1235 H1251 0.961 . S
C1236 C1237 1.370 . S
C1236 C1238 1.363 . S
C1236 H1252 0.931 . S
C1237 C1236 1.370 . S
C1237 C1241 1.408 . S
C1238 C1236 1.363 . S
C1238 C1239 1.370 . S
C1238 C1242 1.524 . S
C1239 C1231 1.503 . S
C1239 C1238 1.370 . S
C1239 C1240 1.403 . S
C1240 C1239 1.403 . S
C1240 C1241 1.404 . S
C1240 C1243 1.539 . S
C1241 C1237 1.408 . S
C1241 C1240 1.404 . S
C1241 H1253 0.930 . S
C1242 C1238 1.524 . S
C1242 H1254 0.956 . S
C1242 H1255 0.961 . S
C1242 H1256 0.961 . S
C1243 C1240 1.539 . S
C1243 H1257 0.958 . S
C1243 H1258 0.961 . S
C1243 H1259 0.960 . S
H1244 C1228 0.931 . S
H1245 C1233 0.929 . S
H1246 C1234 0.960 . S
H1247 C1234 0.962 . S
H1248 C1234 0.960 . S
H1249 C1235 0.961 . S
H1250 C1235 0.961 . S
H1251 C1235 0.961 . S
H1252 C1236 0.931 . S
H1253 C1241 0.930 . S
H1254 C1242 0.956 . S
H1255 C1242 0.961 . S
H1256 C1242 0.961 . S
H1257 C1243 0.958 . S
H1258 C1243 0.961 . S
H1259 C1243 0.960 . S
C1260 C1261 1.391 . S
C1260 C1262 1.394 . S
C1260 H1276 0.931 . S
C1261 C1260 1.391 . S
C1261 C1265 1.376 . S
C1262 C1260 1.394 . S
C1262 C1263 1.369 . S
C1262 C1266 1.531 . S
C1263 C1262 1.369 . S
C1263 C1264 1.410 . S
C1263 C1271 1.503 1_565 S
C1264 C1263 1.410 . S
C1264 C1265 1.392 . S
C1264 C1267 1.511 . S
C1265 C1261 1.376 . S
C1265 C1264 1.392 . S
C1265 H1277 0.929 . S
C1266 C1262 1.531 . S
C1266 H1278 0.960 . S
C1266 H1279 0.962 . S
C1266 H1280 0.960 . S
C1267 C1264 1.511 . S
C1267 H1281 0.961 . S
C1267 H1282 0.961 1_565 S
C1267 H1283 0.961 . S
C1268 C1269 1.370 . S
C1268 C1270 1.363 . S
C1268 H1284 0.931 . S
C1269 C1268 1.370 . S
C1269 C1273 1.408 . S
C1270 C1268 1.363 . S
C1270 C1271 1.370 . S
C1270 C1274 1.524 . S
C1271 C1263 1.503 1_545 S
C1271 C1270 1.370 . S
C1271 C1272 1.403 . S
C1272 C1271 1.403 . S
C1272 C1273 1.404 . S
C1272 C1275 1.539 1_545 S
C1273 C1269 1.408 . S
C1273 C1272 1.404 . S
C1273 H1285 0.930 . S
C1274 C1270 1.524 . S
C1274 H1286 0.956 . S
C1274 H1287 0.961 . S
C1274 H1288 0.961 . S
C1275 C1272 1.539 1_565 S
C1275 H1289 0.958 . S
C1275 H1290 0.961 1_565 S
C1275 H1291 0.960 . S
H1276 C1260 0.931 . S
H1277 C1265 0.929 . S
H1278 C1266 0.960 . S
H1279 C1266 0.962 . S
H1280 C1266 0.960 . S
H1281 C1267 0.961 . S
H1282 C1267 0.961 1_545 S
H1283 C1267 0.961 . S
H1284 C1268 0.931 . S
H1285 C1273 0.930 . S
H1286 C1274 0.956 . S
H1287 C1274 0.961 . S
H1288 C1274 0.961 . S
H1289 C1275 0.958 . S
H1290 C1275 0.961 1_545 S
H1291 C1275 0.960 . S
C1292 C1293 1.391 . S
C1292 C1294 1.394 . S
C1292 H1308 0.931 . S
C1293 C1292 1.391 . S
C1293 C1297 1.376 . S
C1294 C1292 1.394 . S
C1294 C1295 1.369 . S
C1294 C1298 1.531 . S
C1295 C1294 1.369 . S
C1295 C1296 1.410 . S
C1295 C1303 1.503 1_455 S
C1296 C1295 1.410 . S
C1296 C1297 1.392 . S
C1296 C1299 1.511 . S
C1297 C1293 1.376 . S
C1297 C1296 1.392 . S
C1297 H1309 0.929 . S
C1298 C1294 1.531 . S
C1298 H1310 0.960 1_455 S
C1298 H1311 0.962 . S
C1298 H1312 0.960 . S
C1299 C1296 1.511 . S
C1299 H1313 0.961 . S
C1299 H1314 0.961 . S
C1299 H1315 0.961 . S
C1300 C1301 1.370 . S
C1300 C1302 1.363 . S
C1300 H1316 0.931 . S
C1301 C1300 1.370 . S
C1301 C1305 1.408 . S
C1302 C1300 1.363 . S
C1302 C1303 1.370 . S
C1302 C1306 1.524 1_655 S
C1303 C1295 1.503 1_655 S
C1303 C1302 1.370 . S
C1303 C1304 1.403 . S
C1304 C1303 1.403 . S
C1304 C1305 1.404 . S
C1304 C1307 1.539 . S
C1305 C1301 1.408 . S
C1305 C1304 1.404 . S
C1305 H1317 0.930 . S
C1306 C1302 1.524 1_455 S
C1306 H1318 0.956 . S
C1306 H1319 0.961 . S
C1306 H1320 0.961 . S
C1307 C1304 1.539 . S
C1307 H1321 0.958 . S
C1307 H1322 0.961 . S
C1307 H1323 0.960 . S
H1308 C1292 0.931 . S
H1309 C1297 0.929 . S
H1310 C1298 0.960 1_655 S
H1311 C1298 0.962 . S
H1312 C1298 0.960 . S
H1313 C1299 0.961 . S
H1314 C1299 0.961 . S
H1315 C1299 0.961 . S
H1316 C1300 0.931 . S
H1317 C1305 0.930 . S
H1318 C1306 0.956 . S
H1319 C1306 0.961 . S
H1320 C1306 0.961 . S
H1321 C1307 0.958 . S
H1322 C1307 0.961 . S
H1323 C1307 0.960 . S
C1324 C1325 1.391 . S
C1324 C1326 1.394 . S
C1324 H1340 0.931 . S
C1325 C1324 1.391 . S
C1325 C1329 1.376 . S
C1326 C1324 1.394 . S
C1326 C1327 1.369 . S
C1326 C1330 1.531 . S
C1327 C1326 1.369 . S
C1327 C1328 1.410 . S
C1327 C1335 1.503 . S
C1328 C1327 1.410 . S
C1328 C1329 1.392 . S
C1328 C1331 1.511 . S
C1329 C1325 1.376 . S
C1329 C1328 1.392 . S
C1329 H1341 0.929 . S
C1330 C1326 1.531 . S
C1330 H1342 0.960 . S
C1330 H1343 0.962 . S
C1330 H1344 0.960 . S
C1331 C1328 1.511 . S
C1331 H1345 0.961 . S
C1331 H1346 0.961 . S
C1331 H1347 0.961 . S
C1332 C1333 1.370 . S
C1332 C1334 1.363 . S
C1332 H1348 0.931 . S
C1333 C1332 1.370 . S
C1333 C1337 1.408 . S
C1334 C1332 1.363 . S
C1334 C1335 1.370 . S
C1334 C1338 1.524 . S
C1335 C1327 1.503 . S
C1335 C1334 1.370 . S
C1335 C1336 1.403 . S
C1336 C1335 1.403 . S
C1336 C1337 1.404 . S
C1336 C1339 1.539 . S
C1337 C1333 1.408 . S
C1337 C1336 1.404 . S
C1337 H1349 0.930 . S
C1338 C1334 1.524 . S
C1338 H1350 0.956 . S
C1338 H1351 0.961 . S
C1338 H1352 0.961 . S
C1339 C1336 1.539 . S
C1339 H1353 0.958 . S
C1339 H1354 0.961 . S
C1339 H1355 0.960 . S
H1340 C1324 0.931 . S
H1341 C1329 0.929 . S
H1342 C1330 0.960 . S
H1343 C1330 0.962 . S
H1344 C1330 0.960 . S
H1345 C1331 0.961 . S
H1346 C1331 0.961 . S
H1347 C1331 0.961 . S
H1348 C1332 0.931 . S
H1349 C1337 0.930 . S
H1350 C1338 0.956 . S
H1351 C1338 0.961 . S
H1352 C1338 0.961 . S
H1353 C1339 0.958 . S
H1354 C1339 0.961 . S
H1355 C1339 0.960 . S
C1356 C1357 1.391 . S
C1356 C1358 1.394 . S
C1356 H1372 0.931 . S
C1357 C1356 1.391 . S
C1357 C1361 1.376 . S
C1358 C1356 1.394 . S
C1358 C1359 1.369 1_455 S
C1358 C1362 1.531 1_455 S
C1359 C1358 1.369 1_655 S
C1359 C1360 1.410 1_655 S
C1359 C1367 1.503 . S
C1360 C1359 1.410 1_455 S
C1360 C1361 1.392 . S
C1360 C1363 1.511 1_455 S
C1361 C1357 1.376 . S
C1361 C1360 1.392 . S
C1361 H1373 0.929 . S
C1362 C1358 1.531 1_655 S
C1362 H1374 0.960 . S
C1362 H1375 0.962 . S
C1362 H1376 0.960 1_655 S
C1363 C1360 1.511 1_655 S
C1363 H1377 0.961 . S
C1363 H1378 0.961 . S
C1363 H1379 0.961 . S
C1364 C1365 1.370 . S
C1364 C1366 1.363 . S
C1364 H1380 0.931 . S
C1365 C1364 1.370 . S
C1365 C1369 1.408 . S
C1366 C1364 1.363 . S
C1366 C1367 1.370 . S
C1366 C1370 1.524 . S
C1367 C1359 1.503 . S
C1367 C1366 1.370 . S
C1367 C1368 1.403 . S
C1368 C1367 1.403 . S
C1368 C1369 1.404 . S
C1368 C1371 1.539 . S
C1369 C1365 1.408 . S
C1369 C1368 1.404 . S
C1369 H1381 0.930 . S
C1370 C1366 1.524 . S
C1370 H1382 0.956 . S
C1370 H1383 0.961 . S
C1370 H1384 0.961 . S
C1371 C1368 1.539 . S
C1371 H1385 0.958 . S
C1371 H1386 0.961 . S
C1371 H1387 0.960 . S
H1372 C1356 0.931 . S
H1373 C1361 0.929 . S
H1374 C1362 0.960 . S
H1375 C1362 0.962 . S
H1376 C1362 0.960 1_455 S
H1377 C1363 0.961 . S
H1378 C1363 0.961 . S
H1379 C1363 0.961 . S
H1380 C1364 0.931 . S
H1381 C1369 0.930 . S
H1382 C1370 0.956 . S
H1383 C1370 0.961 . S
H1384 C1370 0.961 . S
H1385 C1371 0.958 . S
H1386 C1371 0.961 . S
H1387 C1371 0.960 . S
C1388 C1389 1.391 . S
C1388 C1390 1.394 . S
C1388 H1404 0.931 . S
C1389 C1388 1.391 . S
C1389 C1393 1.376 . S
C1390 C1388 1.394 . S
C1390 C1391 1.369 . S
C1390 C1394 1.531 . S
C1391 C1390 1.369 . S
C1391 C1392 1.410 . S
C1391 C1399 1.503 . S
C1392 C1391 1.410 . S
C1392 C1393 1.392 . S
C1392 C1395 1.511 . S
C1393 C1389 1.376 . S
C1393 C1392 1.392 . S
C1393 H1405 0.929 . S
C1394 C1390 1.531 . S
C1394 H1406 0.960 . S
C1394 H1407 0.962 . S
C1394 H1408 0.960 . S
C1395 C1392 1.511 . S
C1395 H1409 0.961 . S
C1395 H1410 0.961 . S
C1395 H1411 0.961 . S
C1396 C1397 1.370 . S
C1396 C1398 1.363 . S
C1396 H1412 0.931 . S
C1397 C1396 1.370 . S
C1397 C1401 1.408 . S
C1398 C1396 1.363 . S
C1398 C1399 1.370 . S
C1398 C1402 1.524 . S
C1399 C1391 1.503 . S
C1399 C1398 1.370 . S
C1399 C1400 1.403 . S
C1400 C1399 1.403 . S
C1400 C1401 1.404 . S
C1400 C1403 1.539 . S
C1401 C1397 1.408 . S
C1401 C1400 1.404 . S
C1401 H1413 0.930 . S
C1402 C1398 1.524 . S
C1402 H1414 0.956 . S
C1402 H1415 0.961 . S
C1402 H1416 0.961 . S
C1403 C1400 1.539 . S
C1403 H1417 0.958 . S
C1403 H1418 0.961 . S
C1403 H1419 0.960 . S
H1404 C1388 0.931 . S
H1405 C1393 0.929 . S
H1406 C1394 0.960 . S
H1407 C1394 0.962 . S
H1408 C1394 0.960 . S
H1409 C1395 0.961 . S
H1410 C1395 0.961 . S
H1411 C1395 0.961 . S
H1412 C1396 0.931 . S
H1413 C1401 0.930 . S
H1414 C1402 0.956 . S
H1415 C1402 0.961 . S
H1416 C1402 0.961 . S
H1417 C1403 0.958 . S
H1418 C1403 0.961 . S
H1419 C1403 0.960 . S
C1420 C1421 1.391 . S
C1420 C1422 1.394 1_565 S
C1420 H1436 0.931 . S
C1421 C1420 1.391 . S
C1421 C1425 1.376 . S
C1422 C1420 1.394 1_545 S
C1422 C1423 1.369 . S
C1422 C1426 1.531 . S
C1423 C1422 1.369 . S
C1423 C1424 1.410 . S
C1423 C1431 1.503 . S
C1424 C1423 1.410 . S
C1424 C1425 1.392 1_545 S
C1424 C1427 1.511 . S
C1425 C1421 1.376 . S
C1425 C1424 1.392 1_565 S
C1425 H1437 0.929 . S
C1426 C1422 1.531 . S
C1426 H1438 0.960 . S
C1426 H1439 0.962 . S
C1426 H1440 0.960 . S
C1427 C1424 1.511 . S
C1427 H1441 0.961 . S
C1427 H1442 0.961 . S
C1427 H1443 0.961 . S
C1428 C1429 1.370 . S
C1428 C1430 1.363 . S
C1428 H1444 0.931 . S
C1429 C1428 1.370 . S
C1429 C1433 1.408 . S
C1430 C1428 1.363 . S
C1430 C1431 1.370 . S
C1430 C1434 1.524 . S
C1431 C1423 1.503 . S
C1431 C1430 1.370 . S
C1431 C1432 1.403 . S
C1432 C1431 1.403 . S
C1432 C1433 1.404 . S
C1432 C1435 1.539 . S
C1433 C1429 1.408 . S
C1433 C1432 1.404 . S
C1433 H1445 0.930 . S
C1434 C1430 1.524 . S
C1434 H1446 0.956 . S
C1434 H1447 0.961 . S
C1434 H1448 0.961 . S
C1435 C1432 1.539 . S
C1435 H1449 0.958 . S
C1435 H1450 0.961 . S
C1435 H1451 0.960 . S
H1436 C1420 0.931 . S
H1437 C1425 0.929 . S
H1438 C1426 0.960 . S
H1439 C1426 0.962 . S
H1440 C1426 0.960 . S
H1441 C1427 0.961 . S
H1442 C1427 0.961 . S
H1443 C1427 0.961 . S
H1444 C1428 0.931 . S
H1445 C1433 0.930 . S
H1446 C1434 0.956 . S
H1447 C1434 0.961 . S
H1448 C1434 0.961 . S
H1449 C1435 0.958 . S
H1450 C1435 0.961 . S
H1451 C1435 0.960 . S
C1452 C1453 1.391 . S
C1452 C1454 1.394 . S
C1452 H1468 0.931 . S
C1453 C1452 1.391 . S
C1453 C1457 1.376 . S
C1454 C1452 1.394 . S
C1454 C1455 1.369 . S
C1454 C1458 1.531 . S
C1455 C1454 1.369 . S
C1455 C1456 1.410 . S
C1455 C1463 1.503 . S
C1456 C1455 1.410 . S
C1456 C1457 1.392 . S
C1456 C1459 1.511 . S
C1457 C1453 1.376 . S
C1457 C1456 1.392 . S
C1457 H1469 0.929 . S
C1458 C1454 1.531 . S
C1458 H1470 0.960 . S
C1458 H1471 0.962 . S
C1458 H1472 0.960 . S
C1459 C1456 1.511 . S
C1459 H1473 0.961 . S
C1459 H1474 0.961 . S
C1459 H1475 0.961 . S
C1460 C1461 1.370 . S
C1460 C1462 1.363 . S
C1460 H1476 0.931 . S
C1461 C1460 1.370 . S
C1461 C1465 1.408 . S
C1462 C1460 1.363 . S
C1462 C1463 1.370 . S
C1462 C1466 1.524 . S
C1463 C1455 1.503 . S
C1463 C1462 1.370 . S
C1463 C1464 1.403 . S
C1464 C1463 1.403 . S
C1464 C1465 1.404 . S
C1464 C1467 1.539 . S
C1465 C1461 1.408 . S
C1465 C1464 1.404 . S
C1465 H1477 0.930 . S
C1466 C1462 1.524 . S
C1466 H1478 0.956 . S
C1466 H1479 0.961 . S
C1466 H1480 0.961 . S
C1467 C1464 1.539 . S
C1467 H1481 0.958 . S
C1467 H1482 0.961 . S
C1467 H1483 0.960 . S
H1468 C1452 0.931 . S
H1469 C1457 0.929 . S
H1470 C1458 0.960 . S
H1471 C1458 0.962 . S
H1472 C1458 0.960 . S
H1473 C1459 0.961 . S
H1474 C1459 0.961 . S
H1475 C1459 0.961 . S
H1476 C1460 0.931 . S
H1477 C1465 0.930 . S
H1478 C1466 0.956 . S
H1479 C1466 0.961 . S
H1480 C1466 0.961 . S
H1481 C1467 0.958 . S
H1482 C1467 0.961 . S
H1483 C1467 0.960 . S
C1484 C1485 1.391 . S
C1484 C1486 1.394 . S
C1484 H1500 0.931 . S
C1485 C1484 1.391 . S
C1485 C1489 1.376 . S
C1486 C1484 1.394 . S
C1486 C1487 1.369 . S
C1486 C1490 1.531 . S
C1487 C1486 1.369 . S
C1487 C1488 1.410 . S
C1487 C1495 1.503 . S
C1488 C1487 1.410 . S
C1488 C1489 1.392 . S
C1488 C1491 1.511 . S
C1489 C1485 1.376 . S
C1489 C1488 1.392 . S
C1489 H1501 0.929 . S
C1490 C1486 1.531 . S
C1490 H1502 0.960 . S
C1490 H1503 0.962 . S
C1490 H1504 0.960 . S
C1491 C1488 1.511 . S
C1491 H1505 0.961 . S
C1491 H1506 0.961 . S
C1491 H1507 0.961 . S
C1492 C1493 1.370 . S
C1492 C1494 1.363 . S
C1492 H1508 0.931 . S
C1493 C1492 1.370 . S
C1493 C1497 1.408 . S
C1494 C1492 1.363 . S
C1494 C1495 1.370 . S
C1494 C1498 1.524 . S
C1495 C1487 1.503 . S
C1495 C1494 1.370 . S
C1495 C1496 1.403 . S
C1496 C1495 1.403 . S
C1496 C1497 1.404 . S
C1496 C1499 1.539 . S
C1497 C1493 1.408 . S
C1497 C1496 1.404 . S
C1497 H1509 0.930 . S
C1498 C1494 1.524 . S
C1498 H1510 0.956 . S
C1498 H1511 0.961 . S
C1498 H1512 0.961 . S
C1499 C1496 1.539 . S
C1499 H1513 0.958 . S
C1499 H1514 0.961 . S
C1499 H1515 0.960 . S
H1500 C1484 0.931 . S
H1501 C1489 0.929 . S
H1502 C1490 0.960 . S
H1503 C1490 0.962 . S
H1504 C1490 0.960 . S
H1505 C1491 0.961 . S
H1506 C1491 0.961 . S
H1507 C1491 0.961 . S
H1508 C1492 0.931 . S
H1509 C1497 0.930 . S
H1510 C1498 0.956 . S
H1511 C1498 0.961 . S
H1512 C1498 0.961 . S
H1513 C1499 0.958 . S
H1514 C1499 0.961 . S
H1515 C1499 0.960 . S
C1516 C1517 1.391 . S
C1516 C1518 1.394 . S
C1516 H1532 0.931 . S
C1517 C1516 1.391 . S
C1517 C1521 1.376 . S
C1518 C1516 1.394 . S
C1518 C1519 1.369 . S
C1518 C1522 1.531 . S
C1519 C1518 1.369 . S
C1519 C1520 1.410 . S
C1519 C1527 1.503 . S
C1520 C1519 1.410 . S
C1520 C1521 1.392 . S
C1520 C1523 1.511 . S
C1521 C1517 1.376 . S
C1521 C1520 1.392 . S
C1521 H1533 0.929 . S
C1522 C1518 1.531 . S
C1522 H1534 0.960 . S
C1522 H1535 0.962 . S
C1522 H1536 0.960 . S
C1523 C1520 1.511 . S
C1523 H1537 0.961 . S
C1523 H1538 0.961 . S
C1523 H1539 0.961 . S
C1524 C1525 1.370 . S
C1524 C1526 1.363 . S
C1524 H1540 0.931 . S
C1525 C1524 1.370 . S
C1525 C1529 1.408 . S
C1526 C1524 1.363 . S
C1526 C1527 1.370 . S
C1526 C1530 1.524 . S
C1527 C1519 1.503 . S
C1527 C1526 1.370 . S
C1527 C1528 1.403 . S
C1528 C1527 1.403 . S
C1528 C1529 1.404 . S
C1528 C1531 1.539 . S
C1529 C1525 1.408 . S
C1529 C1528 1.404 . S
C1529 H1541 0.930 . S
C1530 C1526 1.524 . S
C1530 H1542 0.956 . S
C1530 H1543 0.961 . S
C1530 H1544 0.961 . S
C1531 C1528 1.539 . S
C1531 H1545 0.958 . S
C1531 H1546 0.961 . S
C1531 H1547 0.960 . S
H1532 C1516 0.931 . S
H1533 C1521 0.929 . S
H1534 C1522 0.960 . S
H1535 C1522 0.962 . S
H1536 C1522 0.960 . S
H1537 C1523 0.961 . S
H1538 C1523 0.961 . S
H1539 C1523 0.961 . S
H1540 C1524 0.931 . S
H1541 C1529 0.930 . S
H1542 C1530 0.956 . S
H1543 C1530 0.961 . S
H1544 C1530 0.961 . S
H1545 C1531 0.958 . S
H1546 C1531 0.961 . S
H1547 C1531 0.960 . S
C1548 C1549 1.391 . S
C1548 C1550 1.394 . S
C1548 H1564 0.931 . S
C1549 C1548 1.391 . S
C1549 C1553 1.376 . S
C1550 C1548 1.394 . S
C1550 C1551 1.369 . S
C1550 C1554 1.531 . S
C1551 C1550 1.369 . S
C1551 C1552 1.410 . S
C1551 C1559 1.503 . S
C1552 C1551 1.410 . S
C1552 C1553 1.392 . S
C1552 C1555 1.511 . S
C1553 C1549 1.376 . S
C1553 C1552 1.392 . S
C1553 H1565 0.929 . S
C1554 C1550 1.531 . S
C1554 H1566 0.957 1_565 S
C1554 H1567 0.962 . S
C1554 H1568 0.943 1_565 S
C1555 C1552 1.511 . S
C1555 H1569 0.961 . S
C1555 H1570 0.961 . S
C1555 H1571 0.961 . S
C1556 C1557 1.370 . S
C1556 C1558 1.363 . S
C1556 H1572 0.931 . S
C1557 C1556 1.370 . S
C1557 C1561 1.408 . S
C1558 C1556 1.363 . S
C1558 C1559 1.370 . S
C1558 C1562 1.524 . S
C1559 C1551 1.503 . S
C1559 C1558 1.370 . S
C1559 C1560 1.403 . S
C1560 C1559 1.403 . S
C1560 C1561 1.404 . S
C1560 C1563 1.539 . S
C1561 C1557 1.408 . S
C1561 C1560 1.404 . S
C1561 H1573 0.930 1_565 S
C1562 C1558 1.524 . S
C1562 H1574 0.956 . S
C1562 H1575 0.961 . S
C1562 H1576 0.961 . S
C1563 C1560 1.539 . S
C1563 H1577 0.958 1_565 S
C1563 H1578 0.961 . S
C1563 H1579 0.960 . S
H1564 C1548 0.931 . S
H1565 C1553 0.929 . S
H1566 C1554 0.957 1_545 S
H1567 C1554 0.962 . S
H1568 C1554 0.943 1_545 S
H1569 C1555 0.961 . S
H1570 C1555 0.961 . S
H1571 C1555 0.961 . S
H1572 C1556 0.931 . S
H1573 C1561 0.930 1_545 S
H1574 C1562 0.956 . S
H1575 C1562 0.961 . S
H1576 C1562 0.961 . S
H1577 C1563 0.958 1_545 S
H1578 C1563 0.961 . S
H1579 C1563 0.960 . S
C1580 C1581 1.391 . S
C1580 C1582 1.394 . S
C1580 H1596 0.931 . S
C1581 C1580 1.391 . S
C1581 C1585 1.376 . S
C1582 C1580 1.394 . S
C1582 C1583 1.369 . S
C1582 C1586 1.531 . S
C1583 C1582 1.369 . S
C1583 C1584 1.410 . S
C1583 C1591 1.503 . S
C1584 C1583 1.410 . S
C1584 C1585 1.392 . S
C1584 C1587 1.511 . S
C1585 C1581 1.376 . S
C1585 C1584 1.392 . S
C1585 H1597 0.929 . S
C1586 C1582 1.531 . S
C1586 H1598 0.960 . S
C1586 H1599 0.962 . S
C1586 H1600 0.960 . S
C1587 C1584 1.511 . S
C1587 H1601 0.961 . S
C1587 H1602 0.961 . S
C1587 H1603 0.961 . S
C1588 C1589 1.370 . S
C1588 C1590 1.363 . S
C1588 H1604 0.931 . S
C1589 C1588 1.370 . S
C1589 C1593 1.408 . S
C1590 C1588 1.363 . S
C1590 C1591 1.370 . S
C1590 C1594 1.524 . S
C1591 C1583 1.503 . S
C1591 C1590 1.370 . S
C1591 C1592 1.403 . S
C1592 C1591 1.403 . S
C1592 C1593 1.404 . S
C1592 C1595 1.539 . S
C1593 C1589 1.408 . S
C1593 C1592 1.404 . S
C1593 H1605 0.930 . S
C1594 C1590 1.524 . S
C1594 H1606 0.956 . S
C1594 H1607 0.961 . S
C1594 H1608 0.961 . S
C1595 C1592 1.539 . S
C1595 H1609 0.958 . S
C1595 H1610 0.961 . S
C1595 H1611 0.960 . S
H1596 C1580 0.931 . S
H1597 C1585 0.929 . S
H1598 C1586 0.960 . S
H1599 C1586 0.962 . S
H1600 C1586 0.960 . S
H1601 C1587 0.961 . S
H1602 C1587 0.961 . S
H1603 C1587 0.961 . S
H1604 C1588 0.931 . S
H1605 C1593 0.930 . S
H1606 C1594 0.956 . S
H1607 C1594 0.961 . S
H1608 C1594 0.961 . S
H1609 C1595 0.958 . S
H1610 C1595 0.961 . S
H1611 C1595 0.960 . S
C1612 C1613 1.391 . S
C1612 C1614 1.394 . S
C1612 H1628 0.931 . S
C1613 C1612 1.391 . S
C1613 C1617 1.376 . S
C1614 C1612 1.394 . S
C1614 C1615 1.369 . S
C1614 C1618 1.531 . S
C1615 C1614 1.369 . S
C1615 C1616 1.410 . S
C1615 C1623 1.503 . S
C1616 C1615 1.410 . S
C1616 C1617 1.392 . S
C1616 C1619 1.511 . S
C1617 C1613 1.376 . S
C1617 C1616 1.392 . S
C1617 H1629 0.929 . S
C1618 C1614 1.531 . S
C1618 H1630 0.960 . S
C1618 H1631 0.962 . S
C1618 H1632 0.960 . S
C1619 C1616 1.511 . S
C1619 H1633 0.961 . S
C1619 H1634 0.961 . S
C1619 H1635 0.961 . S
C1620 C1621 1.370 . S
C1620 C1622 1.363 . S
C1620 H1636 0.931 . S
C1621 C1620 1.370 . S
C1621 C1625 1.408 . S
C1622 C1620 1.363 . S
C1622 C1623 1.370 . S
C1622 C1626 1.524 . S
C1623 C1615 1.503 . S
C1623 C1622 1.370 . S
C1623 C1624 1.403 . S
C1624 C1623 1.403 . S
C1624 C1625 1.404 . S
C1624 C1627 1.539 . S
C1625 C1621 1.408 . S
C1625 C1624 1.404 . S
C1625 H1637 0.930 . S
C1626 C1622 1.524 . S
C1626 H1638 0.956 . S
C1626 H1639 0.961 . S
C1626 H1640 0.961 . S
C1627 C1624 1.539 . S
C1627 H1641 0.958 . S
C1627 H1642 0.961 . S
C1627 H1643 0.960 . S
H1628 C1612 0.931 . S
H1629 C1617 0.929 . S
H1630 C1618 0.960 . S
H1631 C1618 0.962 . S
H1632 C1618 0.960 . S
H1633 C1619 0.961 . S
H1634 C1619 0.961 . S
H1635 C1619 0.961 . S
H1636 C1620 0.931 . S
H1637 C1625 0.930 . S
H1638 C1626 0.956 . S
H1639 C1626 0.961 . S
H1640 C1626 0.961 . S
H1641 C1627 0.958 . S
H1642 C1627 0.961 . S
H1643 C1627 0.960 . S
C1644 C1645 1.391 . S
C1644 C1646 1.394 . S
C1644 H1660 0.931 . S
C1645 C1644 1.391 . S
C1645 C1649 1.376 . S
C1646 C1644 1.394 . S
C1646 C1647 1.369 . S
C1646 C1650 1.531 . S
C1647 C1646 1.369 . S
C1647 C1648 1.410 . S
C1647 C1655 1.503 . S
C1648 C1647 1.410 . S
C1648 C1649 1.392 . S
C1648 C1651 1.511 . S
C1649 C1645 1.376 . S
C1649 C1648 1.392 . S
C1649 H1661 0.929 . S
C1650 C1646 1.531 . S
C1650 H1662 0.960 . S
C1650 H1663 0.962 . S
C1650 H1664 0.960 . S
C1651 C1648 1.511 . S
C1651 H1665 0.961 1_655 S
C1651 H1666 0.962 1_655 S
C1651 H1667 0.970 . S
C1652 C1653 1.370 . S
C1652 C1654 1.363 . S
C1652 H1668 0.931 . S
C1653 C1652 1.370 . S
C1653 C1657 1.408 . S
C1654 C1652 1.363 . S
C1654 C1655 1.370 . S
C1654 C1658 1.524 . S
C1655 C1647 1.503 . S
C1655 C1654 1.370 . S
C1655 C1656 1.403 . S
C1656 C1655 1.403 . S
C1656 C1657 1.404 . S
C1656 C1659 1.539 . S
C1657 C1653 1.408 . S
C1657 C1656 1.404 . S
C1657 H1669 0.930 . S
C1658 C1654 1.524 . S
C1658 H1670 0.956 . S
C1658 H1671 0.961 . S
C1658 H1672 0.961 . S
C1659 C1656 1.539 . S
C1659 H1673 0.958 . S
C1659 H1674 0.961 . S
C1659 H1675 0.960 . S
H1660 C1644 0.931 . S
H1661 C1649 0.929 . S
H1662 C1650 0.960 . S
H1663 C1650 0.962 . S
H1664 C1650 0.960 . S
H1665 C1651 0.961 1_455 S
H1666 C1651 0.962 1_455 S
H1667 C1651 0.970 . S
H1668 C1652 0.931 . S
H1669 C1657 0.930 . S
H1670 C1658 0.956 . S
H1671 C1658 0.961 . S
H1672 C1658 0.961 . S
H1673 C1659 0.958 . S
H1674 C1659 0.961 . S
H1675 C1659 0.960 . S
C1676 C1677 1.391 . S
C1676 C1678 1.394 . S
C1676 H1692 0.931 . S
C1677 C1676 1.391 . S
C1677 C1681 1.376 . S
C1678 C1676 1.394 . S
C1678 C1679 1.369 . S
C1678 C1682 1.531 . S
C1679 C1678 1.369 . S
C1679 C1680 1.410 . S
C1679 C1687 1.503 . S
C1680 C1679 1.410 . S
C1680 C1681 1.392 . S
C1680 C1683 1.511 . S
C1681 C1677 1.376 . S
C1681 C1680 1.392 . S
C1681 H1693 0.929 . S
C1682 C1678 1.531 . S
C1682 H1694 0.960 . S
C1682 H1695 0.962 . S
C1682 H1696 0.960 . S
C1683 C1680 1.511 . S
C1683 H1697 0.961 . S
C1683 H1698 0.961 . S
C1683 H1699 0.961 . S
C1684 C1685 1.370 . S
C1684 C1686 1.363 . S
C1684 H1700 0.931 . S
C1685 C1684 1.370 . S
C1685 C1689 1.408 . S
C1686 C1684 1.363 . S
C1686 C1687 1.370 . S
C1686 C1690 1.524 . S
C1687 C1679 1.503 . S
C1687 C1686 1.370 . S
C1687 C1688 1.403 . S
C1688 C1687 1.403 . S
C1688 C1689 1.404 . S
C1688 C1691 1.539 . S
C1689 C1685 1.408 . S
C1689 C1688 1.404 . S
C1689 H1701 0.930 . S
C1690 C1686 1.524 . S
C1690 H1702 0.956 . S
C1690 H1703 0.961 . S
C1690 H1704 0.961 . S
C1691 C1688 1.539 . S
C1691 H1705 0.958 . S
C1691 H1706 0.961 . S
C1691 H1707 0.960 . S
H1692 C1676 0.931 . S
H1693 C1681 0.929 . S
H1694 C1682 0.960 . S
H1695 C1682 0.962 . S
H1696 C1682 0.960 . S
H1697 C1683 0.961 . S
H1698 C1683 0.961 . S
H1699 C1683 0.961 . S
H1700 C1684 0.931 . S
H1701 C1689 0.930 . S
H1702 C1690 0.956 . S
H1703 C1690 0.961 . S
H1704 C1690 0.961 . S
H1705 C1691 0.958 . S
H1706 C1691 0.961 . S
H1707 C1691 0.960 . S
C1708 C1709 1.391 . S
C1708 C1710 1.394 . S
C1708 H1724 0.931 . S
C1709 C1708 1.391 . S
C1709 C1713 1.376 . S
C1710 C1708 1.394 . S
C1710 C1711 1.369 . S
C1710 C1714 1.531 . S
C1711 C1710 1.369 . S
C1711 C1712 1.410 . S
C1711 C1719 1.503 . S
C1712 C1711 1.410 . S
C1712 C1713 1.392 . S
C1712 C1715 1.511 . S
C1713 C1709 1.376 . S
C1713 C1712 1.392 . S
C1713 H1725 0.929 . S
C1714 C1710 1.531 . S
C1714 H1726 0.960 . S
C1714 H1727 0.962 . S
C1714 H1728 0.960 . S
C1715 C1712 1.511 . S
C1715 H1729 0.961 . S
C1715 H1730 0.961 . S
C1715 H1731 0.961 . S
C1716 C1717 1.370 . S
C1716 C1718 1.363 . S
C1716 H1732 0.931 . S
C1717 C1716 1.370 . S
C1717 C1721 1.408 . S
C1718 C1716 1.363 . S
C1718 C1719 1.370 . S
C1718 C1722 1.524 . S
C1719 C1711 1.503 . S
C1719 C1718 1.370 . S
C1719 C1720 1.403 . S
C1720 C1719 1.403 . S
C1720 C1721 1.404 . S
C1720 C1723 1.539 1_545 S
C1721 C1717 1.408 . S
C1721 C1720 1.404 . S
C1721 H1733 0.930 1_545 S
C1722 C1718 1.524 . S
C1722 H1734 0.956 . S
C1722 H1735 0.961 . S
C1722 H1736 0.961 . S
C1723 C1720 1.539 1_565 S
C1723 H1737 0.958 . S
C1723 H1738 0.961 . S
C1723 H1739 0.961 . S
H1724 C1708 0.931 . S
H1725 C1713 0.929 . S
H1726 C1714 0.960 . S
H1727 C1714 0.962 . S
H1728 C1714 0.960 . S
H1729 C1715 0.961 . S
H1730 C1715 0.961 . S
H1731 C1715 0.961 . S
H1732 C1716 0.931 . S
H1733 C1721 0.930 1_565 S
H1734 C1722 0.956 . S
H1735 C1722 0.961 . S
H1736 C1722 0.961 . S
H1737 C1723 0.958 . S
H1738 C1723 0.961 . S
H1739 C1723 0.961 . S
C1740 C1741 1.391 . S
C1740 C1742 1.394 . S
C1740 H1756 0.931 . S
C1741 C1740 1.391 . S
C1741 C1745 1.376 . S
C1742 C1740 1.394 . S
C1742 C1743 1.369 . S
C1742 C1746 1.531 . S
C1743 C1742 1.369 . S
C1743 C1744 1.410 . S
C1743 C1751 1.503 . S
C1744 C1743 1.410 . S
C1744 C1745 1.392 . S
C1744 C1747 1.511 . S
C1745 C1741 1.376 . S
C1745 C1744 1.392 . S
C1745 H1757 0.929 . S
C1746 C1742 1.531 . S
C1746 H1758 0.960 . S
C1746 H1759 0.962 . S
C1746 H1760 0.960 . S
C1747 C1744 1.511 . S
C1747 H1761 0.961 . S
C1747 H1762 0.961 . S
C1747 H1763 0.961 . S
C1748 C1749 1.370 . S
C1748 C1750 1.363 . S
C1748 H1764 0.931 . S
C1749 C1748 1.370 . S
C1749 C1753 1.408 . S
C1750 C1748 1.363 . S
C1750 C1751 1.370 . S
C1750 C1754 1.524 . S
C1751 C1743 1.503 . S
C1751 C1750 1.370 . S
C1751 C1752 1.403 . S
C1752 C1751 1.403 . S
C1752 C1753 1.404 . S
C1752 C1755 1.539 . S
C1753 C1749 1.408 . S
C1753 C1752 1.404 . S
C1753 H1765 0.930 . S
C1754 C1750 1.524 . S
C1754 H1766 0.956 . S
C1754 H1767 0.961 . S
C1754 H1768 0.961 . S
C1755 C1752 1.539 . S
C1755 H1769 0.958 . S
C1755 H1770 0.961 . S
C1755 H1771 0.960 . S
H1756 C1740 0.931 . S
H1757 C1745 0.929 . S
H1758 C1746 0.960 . S
H1759 C1746 0.962 . S
H1760 C1746 0.960 . S
H1761 C1747 0.961 . S
H1762 C1747 0.961 . S
H1763 C1747 0.961 . S
H1764 C1748 0.931 . S
H1765 C1753 0.930 . S
H1766 C1754 0.956 . S
H1767 C1754 0.961 . S
H1768 C1754 0.961 . S
H1769 C1755 0.958 . S
H1770 C1755 0.961 . S
H1771 C1755 0.960 . S
C1772 C1773 1.391 . S
C1772 C1774 1.394 . S
C1772 H1788 0.931 . S
C1773 C1772 1.391 . S
C1773 C1777 1.376 . S
C1774 C1772 1.394 . S
C1774 C1775 1.369 . S
C1774 C1778 1.531 . S
C1775 C1774 1.369 . S
C1775 C1776 1.410 . S
C1775 C1783 1.503 . S
C1776 C1775 1.410 . S
C1776 C1777 1.392 . S
C1776 C1779 1.511 . S
C1777 C1773 1.376 . S
C1777 C1776 1.392 . S
C1777 H1789 0.929 . S
C1778 C1774 1.531 . S
C1778 H1790 0.960 . S
C1778 H1791 0.962 . S
C1778 H1792 0.960 . S
C1779 C1776 1.511 . S
C1779 H1793 0.961 . S
C1779 H1794 0.961 . S
C1779 H1795 0.961 . S
C1780 C1781 1.370 . S
C1780 C1782 1.363 . S
C1780 H1796 0.931 . S
C1781 C1780 1.370 . S
C1781 C1785 1.408 . S
C1782 C1780 1.363 . S
C1782 C1783 1.370 . S
C1782 C1786 1.524 . S
C1783 C1775 1.503 . S
C1783 C1782 1.370 . S
C1783 C1784 1.403 . S
C1784 C1783 1.403 . S
C1784 C1785 1.404 . S
C1784 C1787 1.539 . S
C1785 C1781 1.408 . S
C1785 C1784 1.404 . S
C1785 H1797 0.930 . S
C1786 C1782 1.524 . S
C1786 H1798 0.956 . S
C1786 H1799 0.961 . S
C1786 H1800 0.961 . S
C1787 C1784 1.539 . S
C1787 H1801 0.958 . S
C1787 H1802 0.961 . S
C1787 H1803 0.960 . S
H1788 C1772 0.931 . S
H1789 C1777 0.929 . S
H1790 C1778 0.960 . S
H1791 C1778 0.962 . S
H1792 C1778 0.960 . S
H1793 C1779 0.961 . S
H1794 C1779 0.961 . S
H1795 C1779 0.961 . S
H1796 C1780 0.931 . S
H1797 C1785 0.930 . S
H1798 C1786 0.956 . S
H1799 C1786 0.961 . S
H1800 C1786 0.961 . S
H1801 C1787 0.958 . S
H1802 C1787 0.961 . S
H1803 C1787 0.960 . S
C1804 C1805 1.391 . S
C1804 C1806 1.394 . S
C1804 H1820 0.931 . S
C1805 C1804 1.391 . S
C1805 C1809 1.376 . S
C1806 C1804 1.394 . S
C1806 C1807 1.369 . S
C1806 C1810 1.531 . S
C1807 C1806 1.369 . S
C1807 C1808 1.410 . S
C1807 C1815 1.503 . S
C1808 C1807 1.410 . S
C1808 C1809 1.392 . S
C1808 C1811 1.511 . S
C1809 C1805 1.376 . S
C1809 C1808 1.392 . S
C1809 H1821 0.929 . S
C1810 C1806 1.531 . S
C1810 H1822 0.960 . S
C1810 H1823 0.962 . S
C1810 H1824 0.960 . S
C1811 C1808 1.511 . S
C1811 H1825 0.961 . S
C1811 H1826 0.961 . S
C1811 H1827 0.961 . S
C1812 C1813 1.370 . S
C1812 C1814 1.363 . S
C1812 H1828 0.931 . S
C1813 C1812 1.370 . S
C1813 C1817 1.408 . S
C1814 C1812 1.363 . S
C1814 C1815 1.370 . S
C1814 C1818 1.524 . S
C1815 C1807 1.503 . S
C1815 C1814 1.370 . S
C1815 C1816 1.403 . S
C1816 C1815 1.403 . S
C1816 C1817 1.404 . S
C1816 C1819 1.539 . S
C1817 C1813 1.408 . S
C1817 C1816 1.404 . S
C1817 H1829 0.930 . S
C1818 C1814 1.524 . S
C1818 H1830 0.956 . S
C1818 H1831 0.961 . S
C1818 H1832 0.961 . S
C1819 C1816 1.539 . S
C1819 H1833 0.958 . S
C1819 H1834 0.961 . S
C1819 H1835 0.960 . S
H1820 C1804 0.931 . S
H1821 C1809 0.929 . S
H1822 C1810 0.960 . S
H1823 C1810 0.962 . S
H1824 C1810 0.960 . S
H1825 C1811 0.961 . S
H1826 C1811 0.961 . S
H1827 C1811 0.961 . S
H1828 C1812 0.931 . S
H1829 C1817 0.930 . S
H1830 C1818 0.956 . S
H1831 C1818 0.961 . S
H1832 C1818 0.961 . S
H1833 C1819 0.958 . S
H1834 C1819 0.961 . S
H1835 C1819 0.960 . S
C1836 C1837 1.391 . S
C1836 C1838 1.394 . S
C1836 H1852 0.931 . S
C1837 C1836 1.391 . S
C1837 C1841 1.376 . S
C1838 C1836 1.394 . S
C1838 C1839 1.369 . S
C1838 C1842 1.531 . S
C1839 C1838 1.369 . S
C1839 C1840 1.410 . S
C1839 C1847 1.503 . S
C1840 C1839 1.410 . S
C1840 C1841 1.392 . S
C1840 C1843 1.511 . S
C1841 C1837 1.376 . S
C1841 C1840 1.392 . S
C1841 H1853 0.929 . S
C1842 C1838 1.531 . S
C1842 H1854 0.960 . S
C1842 H1855 0.962 . S
C1842 H1856 0.960 . S
C1843 C1840 1.511 . S
C1843 H1857 0.961 . S
C1843 H1858 0.961 . S
C1843 H1859 0.961 . S
C1844 C1845 1.370 . S
C1844 C1846 1.363 . S
C1844 H1860 0.931 . S
C1845 C1844 1.370 . S
C1845 C1849 1.408 . S
C1846 C1844 1.363 . S
C1846 C1847 1.370 . S
C1846 C1850 1.524 . S
C1847 C1839 1.503 . S
C1847 C1846 1.370 . S
C1847 C1848 1.403 . S
C1848 C1847 1.403 . S
C1848 C1849 1.404 . S
C1848 C1851 1.539 . S
C1849 C1845 1.408 . S
C1849 C1848 1.404 . S
C1849 H1861 0.930 . S
C1850 C1846 1.524 . S
C1850 H1862 0.956 . S
C1850 H1863 0.961 . S
C1850 H1864 0.961 . S
C1851 C1848 1.539 . S
C1851 H1865 0.958 . S
C1851 H1866 0.961 . S
C1851 H1867 0.960 . S
H1852 C1836 0.931 . S
H1853 C1841 0.929 . S
H1854 C1842 0.960 . S
H1855 C1842 0.962 . S
H1856 C1842 0.960 . S
H1857 C1843 0.961 . S
H1858 C1843 0.961 . S
H1859 C1843 0.961 . S
H1860 C1844 0.931 . S
H1861 C1849 0.930 . S
H1862 C1850 0.956 . S
H1863 C1850 0.961 . S
H1864 C1850 0.961 . S
H1865 C1851 0.958 . S
H1866 C1851 0.961 . S
H1867 C1851 0.960 . S
C1868 C1869 1.391 . S
C1868 C1870 1.394 . S
C1868 H1884 0.931 . S
C1869 C1868 1.391 . S
C1869 C1873 1.376 . S
C1870 C1868 1.394 . S
C1870 C1871 1.369 . S
C1870 C1874 1.531 . S
C1871 C1870 1.369 . S
C1871 C1872 1.410 . S
C1871 C1879 1.503 . S
C1872 C1871 1.410 . S
C1872 C1873 1.392 . S
C1872 C1875 1.511 . S
C1873 C1869 1.376 . S
C1873 C1872 1.392 . S
C1873 H1885 0.929 . S
C1874 C1870 1.531 . S
C1874 H1886 0.960 . S
C1874 H1887 0.962 . S
C1874 H1888 0.960 . S
C1875 C1872 1.511 . S
C1875 H1889 0.961 . S
C1875 H1890 0.961 . S
C1875 H1891 0.961 . S
C1876 C1877 1.370 . S
C1876 C1878 1.363 . S
C1876 H1892 0.931 . S
C1877 C1876 1.370 . S
C1877 C1881 1.408 . S
C1878 C1876 1.363 . S
C1878 C1879 1.370 . S
C1878 C1882 1.524 . S
C1879 C1871 1.503 . S
C1879 C1878 1.370 . S
C1879 C1880 1.403 . S
C1880 C1879 1.403 . S
C1880 C1881 1.404 . S
C1880 C1883 1.539 . S
C1881 C1877 1.408 . S
C1881 C1880 1.404 . S
C1881 H1893 0.930 . S
C1882 C1878 1.524 . S
C1882 H1894 0.956 . S
C1882 H1895 0.961 . S
C1882 H1896 0.961 . S
C1883 C1880 1.539 . S
C1883 H1897 0.958 . S
C1883 H1898 0.961 . S
C1883 H1899 0.960 . S
H1884 C1868 0.931 . S
H1885 C1873 0.929 . S
H1886 C1874 0.960 . S
H1887 C1874 0.962 . S
H1888 C1874 0.960 . S
H1889 C1875 0.961 . S
H1890 C1875 0.961 . S
H1891 C1875 0.961 . S
H1892 C1876 0.931 . S
H1893 C1881 0.930 . S
H1894 C1882 0.956 . S
H1895 C1882 0.961 . S
H1896 C1882 0.961 . S
H1897 C1883 0.958 . S
H1898 C1883 0.961 . S
H1899 C1883 0.960 . S
C1900 C1901 1.391 . S
C1900 C1902 1.394 . S
C1900 H1916 0.931 . S
C1901 C1900 1.391 . S
C1901 C1905 1.376 . S
C1902 C1900 1.394 . S
C1902 C1903 1.369 . S
C1902 C1906 1.531 . S
C1903 C1902 1.369 . S
C1903 C1904 1.410 . S
C1903 C1911 1.503 . S
C1904 C1903 1.410 . S
C1904 C1905 1.392 . S
C1904 C1907 1.511 . S
C1905 C1901 1.376 . S
C1905 C1904 1.392 . S
C1905 H1917 0.929 . S
C1906 C1902 1.531 . S
C1906 H1918 0.960 . S
C1906 H1919 0.962 . S
C1906 H1920 0.960 . S
C1907 C1904 1.511 . S
C1907 H1921 0.961 . S
C1907 H1922 0.961 . S
C1907 H1923 0.961 . S
C1908 C1909 1.370 . S
C1908 C1910 1.363 . S
C1908 H1924 0.931 . S
C1909 C1908 1.370 . S
C1909 C1913 1.408 . S
C1910 C1908 1.363 . S
C1910 C1911 1.370 . S
C1910 C1914 1.524 . S
C1911 C1903 1.503 . S
C1911 C1910 1.370 . S
C1911 C1912 1.403 . S
C1912 C1911 1.403 . S
C1912 C1913 1.404 . S
C1912 C1915 1.539 . S
C1913 C1909 1.408 . S
C1913 C1912 1.404 . S
C1913 H1925 0.930 . S
C1914 C1910 1.524 . S
C1914 H1926 0.956 . S
C1914 H1927 0.961 . S
C1914 H1928 0.961 . S
C1915 C1912 1.539 . S
C1915 H1929 0.958 . S
C1915 H1930 0.961 . S
C1915 H1931 0.960 . S
H1916 C1900 0.931 . S
H1917 C1905 0.929 . S
H1918 C1906 0.960 . S
H1919 C1906 0.962 . S
H1920 C1906 0.960 . S
H1921 C1907 0.961 . S
H1922 C1907 0.961 . S
H1923 C1907 0.961 . S
H1924 C1908 0.931 . S
H1925 C1913 0.930 . S
H1926 C1914 0.956 . S
H1927 C1914 0.961 . S
H1928 C1914 0.961 . S
H1929 C1915 0.958 . S
H1930 C1915 0.961 . S
H1931 C1915 0.960 . S
C1932 C1933 1.391 . S
C1932 C1934 1.394 . S
C1932 H1948 0.931 . S
C1933 C1932 1.391 . S
C1933 C1937 1.376 . S
C1934 C1932 1.394 . S
C1934 C1935 1.369 . S
C1934 C1938 1.531 . S
C1935 C1934 1.369 . S
C1935 C1936 1.410 . S
C1935 C1943 1.503 . S
C1936 C1935 1.410 . S
C1936 C1937 1.392 . S
C1936 C1939 1.511 . S
C1937 C1933 1.376 . S
C1937 C1936 1.392 . S
C1937 H1949 0.929 . S
C1938 C1934 1.531 . S
C1938 H1950 0.960 . S
C1938 H1951 0.962 . S
C1938 H1952 0.960 . S
C1939 C1936 1.511 . S
C1939 H1953 0.961 . S
C1939 H1954 0.961 . S
C1939 H1955 0.961 . S
C1940 C1941 1.370 . S
C1940 C1942 1.363 . S
C1940 H1956 0.931 . S
C1941 C1940 1.370 . S
C1941 C1945 1.408 . S
C1942 C1940 1.363 . S
C1942 C1943 1.370 . S
C1942 C1946 1.524 . S
C1943 C1935 1.503 . S
C1943 C1942 1.370 . S
C1943 C1944 1.403 . S
C1944 C1943 1.403 . S
C1944 C1945 1.404 . S
C1944 C1947 1.539 . S
C1945 C1941 1.408 . S
C1945 C1944 1.404 . S
C1945 H1957 0.930 . S
C1946 C1942 1.524 . S
C1946 H1958 0.956 . S
C1946 H1959 0.961 . S
C1946 H1960 0.961 . S
C1947 C1944 1.539 . S
C1947 H1961 0.958 . S
C1947 H1962 0.961 . S
C1947 H1963 0.960 . S
H1948 C1932 0.931 . S
H1949 C1937 0.929 . S
H1950 C1938 0.960 . S
H1951 C1938 0.962 . S
H1952 C1938 0.960 . S
H1953 C1939 0.961 . S
H1954 C1939 0.961 . S
H1955 C1939 0.961 . S
H1956 C1940 0.931 . S
H1957 C1945 0.930 . S
H1958 C1946 0.956 . S
H1959 C1946 0.961 . S
H1960 C1946 0.961 . S
H1961 C1947 0.958 . S
H1962 C1947 0.961 . S
H1963 C1947 0.960 . S
C1964 C1965 1.391 . S
C1964 C1966 1.394 . S
C1964 H1980 0.931 . S
C1965 C1964 1.391 . S
C1965 C1969 1.376 . S
C1966 C1964 1.394 . S
C1966 C1967 1.369 . S
C1966 C1970 1.531 . S
C1967 C1966 1.369 . S
C1967 C1968 1.410 . S
C1967 C1975 1.503 . S
C1968 C1967 1.410 . S
C1968 C1969 1.392 . S
C1968 C1971 1.511 . S
C1969 C1965 1.376 . S
C1969 C1968 1.392 . S
C1969 H1981 0.929 . S
C1970 C1966 1.531 . S
C1970 H1982 0.960 . S
C1970 H1983 0.962 . S
C1970 H1984 0.960 . S
C1971 C1968 1.511 . S
C1971 H1985 0.961 . S
C1971 H1986 0.961 . S
C1971 H1987 0.961 . S
C1972 C1973 1.370 . S
C1972 C1974 1.363 . S
C1972 H1988 0.931 . S
C1973 C1972 1.370 . S
C1973 C1977 1.408 . S
C1974 C1972 1.363 . S
C1974 C1975 1.370 . S
C1974 C1978 1.524 . S
C1975 C1967 1.503 . S
C1975 C1974 1.370 . S
C1975 C1976 1.403 . S
C1976 C1975 1.403 . S
C1976 C1977 1.404 . S
C1976 C1979 1.539 . S
C1977 C1973 1.408 . S
C1977 C1976 1.404 . S
C1977 H1989 0.930 . S
C1978 C1974 1.524 . S
C1978 H1990 0.956 . S
C1978 H1991 0.961 . S
C1978 H1992 0.961 . S
C1979 C1976 1.539 . S
C1979 H1993 0.958 . S
C1979 H1994 0.961 . S
C1979 H1995 0.960 . S
H1980 C1964 0.931 . S
H1981 C1969 0.929 . S
H1982 C1970 0.960 . S
H1983 C1970 0.962 . S
H1984 C1970 0.960 . S
H1985 C1971 0.961 . S
H1986 C1971 0.961 . S
H1987 C1971 0.961 . S
H1988 C1972 0.931 . S
H1989 C1977 0.930 . S
H1990 C1978 0.956 . S
H1991 C1978 0.961 . S
H1992 C1978 0.961 . S
H1993 C1979 0.958 . S
H1994 C1979 0.961 . S
H1995 C1979 0.960 . S
C1996 C1997 1.391 . S
C1996 C1998 1.394 . S
C1996 H2012 0.931 . S
C1997 C1996 1.391 . S
C1997 C2001 1.376 . S
C1998 C1996 1.394 . S
C1998 C1999 1.369 . S
C1998 C2002 1.531 . S
C1999 C1998 1.369 . S
C1999 C2000 1.410 . S
C1999 C2007 1.503 . S
C2000 C1999 1.410 . S
C2000 C2001 1.392 . S
C2000 C2003 1.511 . S
C2001 C1997 1.376 . S
C2001 C2000 1.392 . S
C2001 H2013 0.929 . S
C2002 C1998 1.531 . S
C2002 H2014 0.960 . S
C2002 H2015 0.962 . S
C2002 H2016 0.960 . S
C2003 C2000 1.511 . S
C2003 H2017 0.961 . S
C2003 H2018 0.961 . S
C2003 H2019 0.961 . S
C2004 C2005 1.370 . S
C2004 C2006 1.363 . S
C2004 H2020 0.931 . S
C2005 C2004 1.370 . S
C2005 C2009 1.408 . S
C2006 C2004 1.363 . S
C2006 C2007 1.370 . S
C2006 C2010 1.524 . S
C2007 C1999 1.503 . S
C2007 C2006 1.370 . S
C2007 C2008 1.403 . S
C2008 C2007 1.403 . S
C2008 C2009 1.404 . S
C2008 C2011 1.539 . S
C2009 C2005 1.408 . S
C2009 C2008 1.404 . S
C2009 H2021 0.930 . S
C2010 C2006 1.524 . S
C2010 H2022 0.956 . S
C2010 H2023 0.961 . S
C2010 H2024 0.961 . S
C2011 C2008 1.539 . S
C2011 H2025 0.958 . S
C2011 H2026 0.961 . S
C2011 H2027 0.960 . S
H2012 C1996 0.931 . S
H2013 C2001 0.929 . S
H2014 C2002 0.960 . S
H2015 C2002 0.962 . S
H2016 C2002 0.960 . S
H2017 C2003 0.961 . S
H2018 C2003 0.961 . S
H2019 C2003 0.961 . S
H2020 C2004 0.931 . S
H2021 C2009 0.930 . S
H2022 C2010 0.956 . S
H2023 C2010 0.961 . S
H2024 C2010 0.961 . S
H2025 C2011 0.958 . S
H2026 C2011 0.961 . S
H2027 C2011 0.960 . S
C2028 C2029 1.391 . S
C2028 C2030 1.394 . S
C2028 H2044 0.931 . S
C2029 C2028 1.391 . S
C2029 C2033 1.376 . S
C2030 C2028 1.394 . S
C2030 C2031 1.369 . S
C2030 C2034 1.531 . S
C2031 C2030 1.369 . S
C2031 C2032 1.410 . S
C2031 C2039 1.503 . S
C2032 C2031 1.410 . S
C2032 C2033 1.392 . S
C2032 C2035 1.511 . S
C2033 C2029 1.376 . S
C2033 C2032 1.392 . S
C2033 H2045 0.929 . S
C2034 C2030 1.531 . S
C2034 H2046 0.960 . S
C2034 H2047 0.962 . S
C2034 H2048 0.960 . S
C2035 C2032 1.511 . S
C2035 H2049 0.961 . S
C2035 H2050 0.961 . S
C2035 H2051 0.961 . S
C2036 C2037 1.370 . S
C2036 C2038 1.363 . S
C2036 H2052 0.931 . S
C2037 C2036 1.370 . S
C2037 C2041 1.408 . S
C2038 C2036 1.363 . S
C2038 C2039 1.370 . S
C2038 C2042 1.524 . S
C2039 C2031 1.503 . S
C2039 C2038 1.370 . S
C2039 C2040 1.403 . S
C2040 C2039 1.403 . S
C2040 C2041 1.404 . S
C2040 C2043 1.539 . S
C2041 C2037 1.408 . S
C2041 C2040 1.404 . S
C2041 H2053 0.930 . S
C2042 C2038 1.524 . S
C2042 H2054 0.956 . S
C2042 H2055 0.961 . S
C2042 H2056 0.961 . S
C2043 C2040 1.539 . S
C2043 H2057 0.958 . S
C2043 H2058 0.961 . S
C2043 H2059 0.960 . S
H2044 C2028 0.931 . S
H2045 C2033 0.929 . S
H2046 C2034 0.960 . S
H2047 C2034 0.962 . S
H2048 C2034 0.960 . S
H2049 C2035 0.961 . S
H2050 C2035 0.961 . S
H2051 C2035 0.961 . S
H2052 C2036 0.931 . S
H2053 C2041 0.930 . S
H2054 C2042 0.956 . S
H2055 C2042 0.961 . S
H2056 C2042 0.961 . S
H2057 C2043 0.958 . S
H2058 C2043 0.961 . S
H2059 C2043 0.960 . S
C2060 C2061 1.391 . S
C2060 C2062 1.394 . S
C2060 H2076 0.931 . S
C2061 C2060 1.391 . S
C2061 C2065 1.376 . S
C2062 C2060 1.394 . S
C2062 C2063 1.369 . S
C2062 C2066 1.531 . S
C2063 C2062 1.369 . S
C2063 C2064 1.410 . S
C2063 C2071 1.503 . S
C2064 C2063 1.410 . S
C2064 C2065 1.392 . S
C2064 C2067 1.511 . S
C2065 C2061 1.376 . S
C2065 C2064 1.392 . S
C2065 H2077 0.929 . S
C2066 C2062 1.531 . S
C2066 H2078 0.960 . S
C2066 H2079 0.962 . S
C2066 H2080 0.960 . S
C2067 C2064 1.511 . S
C2067 H2081 0.961 . S
C2067 H2082 0.961 . S
C2067 H2083 0.961 . S
C2068 C2069 1.370 . S
C2068 C2070 1.363 . S
C2068 H2084 0.931 . S
C2069 C2068 1.370 . S
C2069 C2073 1.408 . S
C2070 C2068 1.363 . S
C2070 C2071 1.370 . S
C2070 C2074 1.524 . S
C2071 C2063 1.503 . S
C2071 C2070 1.370 . S
C2071 C2072 1.403 . S
C2072 C2071 1.403 . S
C2072 C2073 1.404 . S
C2072 C2075 1.539 . S
C2073 C2069 1.408 . S
C2073 C2072 1.404 . S
C2073 H2085 0.930 . S
C2074 C2070 1.524 . S
C2074 H2086 0.956 . S
C2074 H2087 0.961 . S
C2074 H2088 0.961 . S
C2075 C2072 1.539 . S
C2075 H2089 0.958 . S
C2075 H2090 0.961 . S
C2075 H2091 0.960 . S
H2076 C2060 0.931 . S
H2077 C2065 0.929 . S
H2078 C2066 0.960 . S
H2079 C2066 0.962 . S
H2080 C2066 0.960 . S
H2081 C2067 0.961 . S
H2082 C2067 0.961 . S
H2083 C2067 0.961 . S
H2084 C2068 0.931 . S
H2085 C2073 0.930 . S
H2086 C2074 0.956 . S
H2087 C2074 0.961 . S
H2088 C2074 0.961 . S
H2089 C2075 0.958 . S
H2090 C2075 0.961 . S
H2091 C2075 0.960 . S
C2092 C2093 1.391 . S
C2092 C2094 1.394 . S
C2092 H2108 0.931 . S
C2093 C2092 1.391 . S
C2093 C2097 1.376 . S
C2094 C2092 1.394 . S
C2094 C2095 1.369 . S
C2094 C2098 1.531 . S
C2095 C2094 1.369 . S
C2095 C2096 1.410 . S
C2095 C2103 1.503 . S
C2096 C2095 1.410 . S
C2096 C2097 1.392 . S
C2096 C2099 1.511 . S
C2097 C2093 1.376 . S
C2097 C2096 1.392 . S
C2097 H2109 0.929 . S
C2098 C2094 1.531 . S
C2098 H2110 0.960 . S
C2098 H2111 0.962 . S
C2098 H2112 0.960 . S
C2099 C2096 1.511 . S
C2099 H2113 0.961 . S
C2099 H2114 0.961 . S
C2099 H2115 0.961 . S
C2100 C2101 1.370 . S
C2100 C2102 1.363 . S
C2100 H2116 0.931 . S
C2101 C2100 1.370 . S
C2101 C2105 1.408 . S
C2102 C2100 1.363 . S
C2102 C2103 1.370 . S
C2102 C2106 1.524 . S
C2103 C2095 1.503 . S
C2103 C2102 1.370 . S
C2103 C2104 1.403 . S
C2104 C2103 1.403 . S
C2104 C2105 1.404 . S
C2104 C2107 1.539 . S
C2105 C2101 1.408 . S
C2105 C2104 1.404 . S
C2105 H2117 0.930 . S
C2106 C2102 1.524 . S
C2106 H2118 0.956 . S
C2106 H2119 0.961 . S
C2106 H2120 0.961 . S
C2107 C2104 1.539 . S
C2107 H2121 0.958 . S
C2107 H2122 0.961 . S
C2107 H2123 0.960 . S
H2108 C2092 0.931 . S
H2109 C2097 0.929 . S
H2110 C2098 0.960 . S
H2111 C2098 0.962 . S
H2112 C2098 0.960 . S
H2113 C2099 0.961 . S
H2114 C2099 0.961 . S
H2115 C2099 0.961 . S
H2116 C2100 0.931 . S
H2117 C2105 0.930 . S
H2118 C2106 0.956 . S
H2119 C2106 0.961 . S
H2120 C2106 0.961 . S
H2121 C2107 0.958 . S
H2122 C2107 0.961 . S
H2123 C2107 0.960 . S
C397 C162 1.558 . S
C405 C222 1.535 . S
C429 C174 1.512 . S
C437 C242 1.493 . S
C461 C150 1.498 . S
C469 C265 1.521 . S
C493 C138 1.429 . S
C501 C245 1.422 1_556 S
C533 C262 1.425 . S
C525 C114 1.447 . S
C557 C126 1.473 . S
C565 C225 1.464 1_556 S
C597 C232 1.554 . S
C589 C136 1.537 . S
C629 C252 1.425 . S
C621 C112 1.470 . S
C653 C124 1.560 . S
C661 C257 1.555 1_556 S
C685 C160 1.415 . S
C693 C237 1.463 . S
C717 C172 1.457 . S
C725 C272 1.413 . S
C757 C217 1.536 . S
C749 C148 1.515 . S
C789 C282 1.541 . S
C781 C18 1.553 . S
C813 C30 1.518 . S
C821 C302 1.494 . S
C845 C6 1.520 . S
C853 C325 1.512 . S
C877 C210 1.411 . S
C885 C305 1.431 . S
C909 C186 1.447 . S
C917 C322 1.428 . S
C941 C198 1.470 . S
C949 C285 1.464 . S
C973 C208 1.547 . S
C981 C292 1.554 . S
C1005 C184 1.425 . S
C1013 C312 1.445 . S
C1045 C317 1.559 . S
C1037 C196 1.517 . S
C1069 C16 1.463 . S
C1077 C297 1.459 . S
C1109 C332 1.435 . S
C1101 C28 1.424 . S
C1133 C4 1.540 . S
C1141 C277 1.543 . S
C1173 C342 1.546 . S
C1165 C90 1.549 . S
C1197 C102 1.506 . S
C1205 C362 1.503 . S
C1237 C385 1.516 . S
C1229 C78 1.513 . S
C1269 C365 1.428 . S
C1261 C66 1.415 . S
C1301 C382 1.432 . S
C1293 C42 1.447 . S
C1325 C54 1.472 . S
C1333 C345 1.464 . S
C1357 C64 1.577 . S
C1365 C352 1.538 . S
C1389 C40 1.460 . S
C1397 C372 1.434 . S
C1429 C377 1.569 . S
C1421 C52 1.512 . S
C1453 C88 1.466 . S
C1461 C357 1.455 . S
C1485 C100 1.455 . S
C1493 C392 1.413 . S
C1517 C76 1.508 . S
C1525 C337 1.548 . S
C1549 C189 1.367 . S
C1557 C235 1.297 . S
C1589 C255 1.644 . S
C1581 C201 1.720 . S
C1613 C213 1.504 . S
C1621 C264 1.484 . S
C1645 C81 1.667 . S
C1653 C244 1.630 . S
C1677 C93 1.594 . S
C1685 C275 1.514 . S
C1717 C224 1.304 . S
C1709 C105 1.339 . S
C1741 C45 1.367 . S
C1749 C295 1.297 . S
C1773 C57 1.710 . S
C1781 C315 1.651 . S
C1805 C69 1.504 . S
C1813 C324 1.483 . S
C1837 C153 1.694 . S
C1845 C304 1.636 . S
C1877 C335 1.518 . S
C1869 C165 1.592 . S
C1901 C177 1.321 . S
C1909 C284 1.318 . S
C1933 C117 1.358 . S
C1941 C355 1.326 . S
C1965 C129 1.721 . S
C1973 C375 1.642 . S
C2005 C384 1.490 . S
C1997 C141 1.534 . S
C2029 C9 1.670 . S
C2037 C364 1.644 . S
C2061 C21 1.588 . S
C2069 C395 1.526 . S
C2093 C33 1.340 . S
C2101 C344 1.304 . S
