# Generated by pormake.
# Topology rtl, (3,6)-cn, num edge types: 1
# Building blocks:
#     Node 0, Type 0, BuildingBlock: INOVEN_clean_linker_0, # of connection points: 3
#     Node 1, Type 0, BuildingBlock: INOVEN_clean_linker_0, # of connection points: 3
#     Node 2, Type 0, BuildingBlock: INOVEN_clean_linker_0, # of connection points: 3
#     Node 3, Type 0, BuildingBlock: INOVEN_clean_linker_0, # of connection points: 3
#     Node 4, Type 1, BuildingBlock: KUMBOL_clean_sbu_1, # of connection points: 6
#     Node 5, Type 1, BuildingBlock: KUMBOL_clean_sbu_1, # of connection points: 6
#     Edge 6, Type (0, 1), BuildingBlock: OJICUG_clean_linker_0, # of connection points: 2
#     Edge 7, Type (0, 1), BuildingBlock: OJICUG_clean_linker_0, # of connection points: 2
#     Edge 8, Type (0, 1), BuildingBlock: OJICUG_clean_linker_0, # of connection points: 2
#     Edge 9, Type (0, 1), BuildingBlock: OJICUG_clean_linker_0, # of connection points: 2
#     Edge 10, Type (0, 1), BuildingBlock: OJICUG_clean_linker_0, # of connection points: 2
#     Edge 11, Type (0, 1), BuildingBlock: OJICUG_clean_linker_0, # of connection points: 2
#     Edge 12, Type (0, 1), BuildingBlock: OJICUG_clean_linker_0, # of connection points: 2
#     Edge 13, Type (0, 1), BuildingBlock: OJICUG_clean_linker_0, # of connection points: 2
#     Edge 14, Type (0, 1), BuildingBlock: OJICUG_clean_linker_0, # of connection points: 2
#     Edge 15, Type (0, 1), BuildingBlock: OJICUG_clean_linker_0, # of connection points: 2
#     Edge 16, Type (0, 1), BuildingBlock: OJICUG_clean_linker_0, # of connection points: 2
#     Edge 17, Type (0, 1), BuildingBlock: OJICUG_clean_linker_0, # of connection points: 2
# Relax obj value: 0.048
# Max RMSD: 0.240
# Mean RMSD: 0.166
data_MOF--net-rtl--node1-KUMBOL_clean_sbu_1--node2-INOVEN_clean_linker_0--edge1-OJICUG_clean_linker_0
_symmetry_space_group_name_H-M    P1
_symmetry_Int_Tables_number       1
_symmetry_cell_setting            triclinic
loop_
_symmetry_equiv_pos_as_xyz
'x, y, z'
_cell_length_a     25.677537
_cell_length_b     26.141296
_cell_length_c     20.712726
_cell_angle_alpha  74.313539
_cell_angle_beta   99.208708
_cell_angle_gamma 92.14316
loop_
_atom_site_label
_atom_site_type_symbol
_atom_site_fract_x
_atom_site_fract_y
_atom_site_fract_z
_atom_type_partial_charge
H0 H 0.22539 0.82842 0.89839 0.0
H1 H 0.1497 0.93282 0.98284 0.0
H2 H 0.26128 0.81544 0.11273 0.0
N3 N 0.28394 0.77658 0.00954 0.0
N4 N 0.31368 0.75392 0.06252 0.0
C5 C 0.2197 0.84189 0.94194 0.0
C6 C 0.1849 0.88382 0.93356 0.0
C7 C 0.24798 0.81754 0.00578 0.0
C8 C 0.24021 0.83455 0.06281 0.0
C9 C 0.20506 0.87686 0.05458 0.0
C10 C 0.17803 0.9013 0.9896 0.0
H11 H 0.73589 0.72662 0.79391 0.0
H12 H 0.64259 0.60822 0.72013 0.0
H13 H 0.73117 0.71954 0.58729 0.0
N14 N 0.77552 0.77047 0.67969 0.0
N15 N 0.79309 0.7866 0.62484 0.0
C16 C 0.72155 0.70859 0.75313 0.0
C17 C 0.68709 0.66497 0.7643 0.0
C18 C 0.73858 0.72798 0.68958 0.0
C19 C 0.7193 0.70432 0.63679 0.0
C20 C 0.68416 0.6615 0.64723 0.0
C21 C 0.66895 0.64193 0.71124 0.0
H22 H 0.77577 0.21252 0.99325 0.0
H23 H 0.88747 0.10014 0.13214 0.0
H24 H 0.80217 0.2038 0.20688 0.0
N25 N 0.74567 0.25365 0.08517 0.0
N26 N 0.72957 0.26667 0.13226 0.0
C27 C 0.79548 0.19453 0.04434 0.0
C28 C 0.83231 0.15324 0.05625 0.0
C29 C 0.7836 0.21242 0.09848 0.0
C30 C 0.81003 0.18972 0.16471 0.0
C31 C 0.84698 0.14885 0.17669 0.0
C32 C 0.85751 0.13059 0.12266 0.0
H33 H 0.33211 0.30588 0.36192 0.0
H34 H 0.41666 0.42292 0.44881 0.0
H35 H 0.3051 0.32106 0.55582 0.0
N36 N 0.27724 0.26576 0.46269 0.0
N37 N 0.25471 0.24878 0.51346 0.0
C38 C 0.34098 0.32454 0.40318 0.0
C39 C 0.37826 0.36565 0.39947 0.0
C40 C 0.31494 0.3075 0.45991 0.0
C41 C 0.32563 0.33311 0.51235 0.0
C42 C 0.36209 0.37487 0.50884 0.0
C43 C 0.38912 0.39015 0.45277 0.0
C44 C 0.92962 0.17727 0.48163 0.0
C45 C 0.84375 0.15512 0.42816 0.0
C46 C 0.89058 0.13988 0.47475 0.0
C47 C 0.83701 0.20794 0.38837 0.0
C48 C 0.92295 0.23034 0.44176 0.0
C49 C 0.87647 0.24543 0.39516 0.0
N50 N 0.97493 0.16127 0.52555 0.0
C51 C 0.01434 0.19644 0.53381 0.0
C52 C 0.96359 0.26653 0.44921 0.0
C53 C 1.00939 0.24952 0.49563 0.0
Gd54 Gd 0.06017 0.96986 0.52141 0.0
Gd55 Gd 0.97997 0.07164 0.5865 0.0
N56 N 0.89892 0.08852 0.51238 0.0
C57 C 0.80509 0.11674 0.42271 0.0
C58 C 0.85988 0.05187 0.51011 0.0
C59 C 0.81294 0.06509 0.46451 0.0
H60 H 0.86368 0.01277 0.54433 0.0
H61 H 0.78251 0.03555 0.46228 0.0
H62 H 0.17752 0.02861 0.55908 0.0
H63 H 0.04923 0.18375 0.57068 0.0
H64 H 0.25831 1.00777 0.64222 0.0
H65 H 0.76868 0.12682 0.38739 0.0
H66 H 0.80145 0.22019 0.35203 0.0
H67 H 0.99259 0.85666 0.53845 0.0
H68 H 0.95997 0.30764 0.41947 0.0
H69 H 0.04083 0.2773 0.50218 0.0
H70 H 0.23888 0.82485 0.76002 0.0
H71 H 0.87076 0.28597 0.36389 0.0
H72 H 0.08166 0.73506 0.69354 0.0
H73 H 1.00131 0.76379 0.60922 0.0
N74 N 0.06628 0.8804 0.58371 0.0
C75 C 0.11138 0.86519 0.62839 0.0
C76 C 0.02732 0.84467 0.57588 0.0
C77 C 0.07794 0.77586 0.66272 0.0
C78 C 0.03243 0.79197 0.61538 0.0
C79 C 0.11818 0.81255 0.66967 0.0
H80 H 0.17012 0.75825 0.74957 0.0
N81 N 0.14155 0.95392 0.59529 0.0
C82 C 0.14998 0.90305 0.63461 0.0
C83 C 0.2353 0.92736 0.6857 0.0
C84 C 0.19667 0.88871 0.68176 0.0
C85 C 0.18088 0.99049 0.59552 0.0
C86 C 0.22771 0.97821 0.64157 0.0
O87 O 0.98845 0.09079 0.47556 0.0
O88 O 0.98724 0.00941 0.4535 0.0
O89 O 0.11415 0.98378 0.44803 0.0
O90 O 0.06103 0.91725 0.45623 0.0
O91 O 0.95272 0.98582 0.60662 0.0
O92 O 0.97247 0.95502 0.51832 0.0
O93 O 0.0511 0.94974 0.63195 0.0
O94 O 0.05254 0.03089 0.65456 0.0
O95 O 0.92557 0.05734 0.65932 0.0
O96 O 0.9791 0.1236 0.65242 0.0
O97 O 0.08766 0.05619 0.50251 0.0
O98 O 0.06764 0.08432 0.59253 0.0
C99 C 0.97566 0.06026 0.4348 0.0
C100 C 0.94592 0.95201 0.56882 0.0
C101 C 0.08467 0.95742 0.34895 0.0
C102 C 0.10821 0.95178 0.24176 0.0
C103 C 0.03325 1.00572 0.24259 0.0
C104 C 0.04269 0.99163 0.31336 0.0
C105 C 0.06594 0.9862 0.20687 0.0
C106 C 0.11708 0.93705 0.3131 0.0
C107 C 0.09633 0.94466 0.4232 0.0
C108 C 0.20346 0.83639 0.72319 0.0
C109 C 0.16434 0.79842 0.71714 0.0
H110 H 0.27165 0.91797 0.72129 0.0
C111 C 0.0627 0.97973 0.6735 0.0
C112 C 0.09495 0.08835 0.54268 0.0
C113 C 0.95654 0.08125 0.75961 0.0
C114 C 0.93404 0.08271 0.86879 0.0
C115 C 1.01027 0.03229 0.86381 0.0
C116 C 0.99972 0.04804 0.79312 0.0
C117 C 0.97753 0.04931 0.9016 0.0
C118 C 0.92396 0.09892 0.79751 0.0
C119 C 0.94397 0.09569 0.68536 0.0
H120 H 1.00076 0.03213 0.21538 0.0
H121 H 0.0176 1.00777 0.34023 0.0
H122 H 0.058 0.99769 0.15188 0.0
H123 H 0.14982 0.91094 0.34052 0.0
H124 H 0.04373 1.00666 0.88931 0.0
H125 H 0.02494 0.03403 0.76465 0.0
H126 H 0.98649 0.03682 0.95651 0.0
H127 H 0.89026 0.12423 0.77167 0.0
C128 C 0.68744 0.58023 0.08772 0.0
C129 C 0.68356 0.67581 0.03877 0.0
C130 C 0.66031 0.62804 0.07121 0.0
C131 C 0.73382 0.67449 0.02069 0.0
C132 C 0.73879 0.57907 0.07206 0.0
C133 C 0.7613 0.62621 0.03711 0.0
N134 N 0.66468 0.5354 0.12199 0.0
C135 C 0.69357 0.48965 0.14867 0.0
C136 C 0.76661 0.53088 0.09389 0.0
C137 C 0.74426 0.48622 0.13351 0.0
Gd138 Gd 0.47448 0.49238 0.00338 0.0
Gd139 Gd 0.57781 0.5452 0.14062 0.0
N140 N 0.61102 0.6278 0.08713 0.0
C141 C 0.65558 0.72345 0.02575 0.0
C142 C 0.5845 0.67422 0.07762 0.0
C143 C 0.6061 0.72269 0.04601 0.0
H144 H 0.54625 0.67348 0.09337 0.0
H145 H 0.58457 0.75938 0.03718 0.0
H146 H 0.53126 0.38162 0.9899 0.0
H147 H 0.67828 0.45595 0.18301 0.0
H148 H 0.52016 0.28466 0.02789 0.0
H149 H 0.67209 0.761 1.00091 0.0
H150 H 0.75208 0.71068 0.99488 0.0
H151 H 0.36057 0.54624 0.00811 0.0
H152 H 0.80612 0.52829 0.08284 0.0
H153 H 0.76642 0.4494 0.15347 0.0
H154 H 0.35699 0.26357 0.11717 0.0
H155 H 0.80048 0.62595 0.02404 0.0
H156 H 0.25781 0.42155 0.09223 0.0
H157 H 0.27464 0.51731 0.04533 0.0
N158 N 0.39185 0.46794 0.03568 0.0
C159 C 0.38242 0.41517 0.05763 0.0
C160 C 0.35337 0.50451 0.02879 0.0
C161 C 0.29543 0.4341 0.07603 0.0
C162 C 0.30477 0.4882 0.04958 0.0
C163 C 0.33424 0.39674 0.07953 0.0
H164 H 0.28942 0.32685 0.12036 0.0
N165 N 0.46495 0.39929 0.03014 0.0
C166 C 0.42055 0.37974 0.05582 0.0
C167 C 0.44869 0.29004 0.06785 0.0
C168 C 0.41137 0.32458 0.07589 0.0
C169 C 0.4991 0.36597 0.01696 0.0
C170 C 0.49226 0.31091 0.03709 0.0
O171 O 0.56271 0.58717 0.02801 0.0
O172 O 0.5552 0.51881 0.97939 0.0
O173 O 0.4453 0.46627 0.912 0.0
O174 O 0.44315 0.55037 0.90985 0.0
O175 O 0.49487 0.57622 0.12317 0.0
O176 O 0.4601 0.5754 0.01273 0.0
O177 O 0.45354 0.4842 0.10833 0.0
O178 O 0.53291 0.46967 0.18001 0.0
O179 O 0.55908 0.58338 0.21476 0.0
O180 O 0.63298 0.54131 0.2332 0.0
O181 O 0.5576 0.45798 0.03128 0.0
O182 O 0.58466 0.45834 0.14311 0.0
C183 C 0.57436 0.56536 0.98223 0.0
C184 C 0.46152 0.5937 0.06663 0.0
C185 C 0.40917 0.52877 0.8038 0.0
C186 C 0.38286 0.50609 0.69608 0.0
C187 C 0.36334 0.59368 0.70571 0.0
C188 C 0.38727 0.57973 0.77347 0.0
C189 C 0.36082 0.55708 0.66731 0.0
C190 C 0.40734 0.49204 0.76448 0.0
C191 C 0.43314 0.51464 0.87631 0.0
C192 C 0.36449 0.30582 0.1009 0.0
C193 C 0.32596 0.34184 0.10261 0.0
H194 H 0.44314 0.2474 0.08265 0.0
C195 C 0.4816 0.4625 0.16787 0.0
C196 C 0.58492 0.43747 0.09188 0.0
C197 C 0.59464 0.54426 0.32799 0.0
C198 C 0.60527 0.55191 0.4438 0.0
C199 C 0.55634 0.47808 0.4136 0.0
C200 C 0.56571 0.49759 0.34679 0.0
C201 C 0.57578 0.50519 0.46196 0.0
C202 C 0.61467 0.5711 0.37654 0.0
C203 C 0.60188 0.56704 0.2573 0.0
H204 H 0.34641 0.63296 0.68296 0.0
H205 H 0.38818 0.60879 0.8023 0.0
H206 H 0.34185 0.56866 0.61483 0.0
H207 H 0.42406 0.45258 0.78704 0.0
H208 H 0.53372 0.44212 0.42783 0.0
H209 H 0.5501 0.47686 0.3095 0.0
H210 H 0.56813 0.48949 0.51357 0.0
H211 H 0.63637 0.60769 0.36151 0.0
C212 C 0.19456 0.19176 0.57893 0.0
C213 C 0.21624 0.20787 0.51885 0.0
H214 H 0.14003 0.14131 0.63407 0.0
C215 C 0.19874 0.18377 0.4662 0.0
H216 H 0.20772 0.20979 0.62001 0.0
C217 C 0.15959 0.14451 0.47389 0.0
C218 C 0.13727 0.12894 0.53407 0.0
H219 H 0.21487 0.19544 0.41919 0.0
H220 H 0.14639 0.12685 0.43248 0.0
C221 C 0.1557 0.15273 0.58668 0.0
C222 C 0.35257 0.69771 0.00355 0.0
C223 C 0.34962 0.71379 0.06259 0.0
H224 H 0.39024 0.64745 0.95844 0.0
C225 C 0.38348 0.69024 0.12243 0.0
H226 H 0.32696 0.71522 0.95636 0.0
C227 C 0.41987 0.65139 0.12365 0.0
C228 C 0.42303 0.63519 0.06477 0.0
H229 H 0.38181 0.70216 0.16825 0.0
H230 H 0.44541 0.63402 0.17097 0.0
C231 C 0.3889 0.65883 0.0047 0.0
C232 C 0.85014 0.85565 0.66098 0.0
C233 C 0.83042 0.82833 0.61243 0.0
H234 H 0.9022 0.91615 0.68506 0.0
C235 C 0.84838 0.84224 0.54956 0.0
H236 H 0.83697 0.84579 0.70996 0.0
C237 C 0.88568 0.88244 0.53512 0.0
C238 C 0.90592 0.90962 0.58358 0.0
H239 H 0.83346 0.82166 0.51154 0.0
H240 H 0.89853 0.89228 0.48592 0.0
C241 C 0.88744 0.89601 0.64654 0.0
C242 C 0.67531 0.3412 0.05483 0.0
C243 C 0.69242 0.30833 0.1203 0.0
H244 H 0.62823 0.40834 0.99478 0.0
C245 C 0.6732 0.31743 0.17578 0.0
H246 H 0.68976 0.33522 0.01108 0.0
C247 C 0.63752 0.35881 0.16648 0.0
C248 C 0.62081 0.39221 0.10131 0.0
H249 H 0.68609 0.29244 0.22649 0.0
H250 H 0.62332 0.36492 0.21037 0.0
C251 C 0.63992 0.38289 0.04553 0.0
C252 C 0.17563 0.85875 0.16853 0.0
C253 C 0.19283 0.89493 0.11251 0.0
H254 H 0.13496 0.84869 0.2541 0.0
C255 C 0.18899 0.94968 0.10583 0.0
H256 H 0.17779 0.81637 0.17459 0.0
C257 C 0.16386 0.968 0.1502 0.0
C258 C 0.14272 0.93197 0.20284 0.0
H259 H 0.20253 0.97844 0.06356 0.0
H260 H 0.15892 0.01042 0.14163 0.0
C261 C 0.15085 0.87721 0.21364 0.0
C262 C 0.63717 0.67294 0.85584 0.0
C263 C 0.66802 0.6423 0.82998 0.0
H264 H 0.58214 0.67218 0.92412 0.0
C265 C 0.67188 0.58715 0.85951 0.0
H266 H 0.63302 0.71539 0.83333 0.0
C267 C 0.64257 0.56256 0.91047 0.0
C268 C 0.60914 0.59263 0.93345 0.0
H269 H 0.69544 0.56267 0.84042 0.0
H270 H 0.64496 0.51975 0.93066 0.0
C271 C 0.60778 0.6482 0.90721 0.0
C272 C 0.9085 0.15977 0.27789 0.0
C273 C 0.87727 0.12655 0.2447 0.0
H274 H 0.96631 0.16438 0.3627 0.0
C275 C 0.8789 0.07141 0.27379 0.0
H276 H 0.90853 0.20234 0.25556 0.0
C277 C 0.91114 0.04975 0.33551 0.0
C278 C 0.94278 0.08289 0.36863 0.0
H279 H 0.85532 0.04513 0.24855 0.0
H280 H 0.91112 1.00713 0.35735 0.0
C281 C 0.94153 0.13803 0.33895 0.0
C282 C 0.41866 0.41845 0.59028 0.0
C283 C 0.36844 0.40518 0.56096 0.0
H284 H 0.46265 0.45992 0.6579 0.0
C285 C 0.32352 0.42278 0.57985 0.0
H286 H 0.45395 0.40534 0.57675 0.0
C287 C 0.32853 0.45415 0.62539 0.0
C288 C 0.37855 0.46798 0.65399 0.0
H289 H 0.28432 0.41376 0.55761 0.0
H290 H 0.2932 0.46849 0.63745 0.0
C291 C 0.42367 0.44921 0.63697 0.0
C292 C 0.69662 0.62631 0.5491 0.0
C293 C 0.66344 0.63619 0.59223 0.0
H294 H 0.70423 0.59134 0.46862 0.0
C295 C 0.61062 0.61942 0.58465 0.0
H296 H 0.73763 0.63812 0.55414 0.0
C297 C 0.59185 0.59197 0.53661 0.0
C298 C 0.62526 0.58132 0.49441 0.0
H299 H 0.58368 0.62741 0.61605 0.0
H300 H 0.55104 0.57945 0.53206 0.0
C301 C 0.67763 0.59929 0.50046 0.0
C302 C 0.86248 0.17191 0.94283 0.0
C303 C 0.84805 0.1351 1.00028 0.0
H304 H 0.9015 0.18393 0.85572 0.0
C305 C 0.85601 0.08061 0.00884 0.0
H306 H 0.8571 0.21414 0.93524 0.0
C307 C 0.88191 0.06352 0.96419 0.0
C308 C 0.8998 0.10051 0.90959 0.0
H309 H 0.84443 0.0513 0.05206 0.0
H310 H 0.88954 0.02144 0.97364 0.0
C311 C 0.88809 0.15468 0.89762 0.0
C312 C 0.45743 0.37668 0.34041 0.0
C313 C 0.4036 0.38583 0.33814 0.0
H314 H 0.52389 0.3919 0.28722 0.0
C315 C 0.37481 0.41768 0.27838 0.0
H316 H 0.48035 0.35222 0.38611 0.0
C317 C 0.39993 0.44175 0.22263 0.0
C318 C 0.45417 0.43373 0.22508 0.0
H319 H 0.3333 0.42557 0.27578 0.0
H320 H 0.3772 0.46814 0.17859 0.0
C321 C 0.48229 0.39973 0.28403 0.0
C322 C 0.15512 0.96374 0.83896 0.0
C323 C 0.15413 0.9085 0.8667 0.0
H324 H 0.12728 0.02975 0.75503 0.0
C325 C 0.12204 0.87707 0.83162 0.0
H326 H 0.17965 0.98861 0.86552 0.0
C327 C 0.09112 0.9006 0.76965 0.0
C328 C 0.09284 0.95574 0.74099 0.0
H329 H 0.12021 0.83445 0.85273 0.0
H330 H 0.06589 0.87558 0.74412 0.0
C331 C 0.125 0.98718 0.77621 0.0
loop_
_geom_bond_atom_site_label_1
_geom_bond_atom_site_label_2
_geom_bond_distance
_geom_bond_site_symmetry_2
_ccdc_geom_bond_type
H0 C5 0.929 . S
H1 C10 0.931 . S
H2 C8 0.930 . S
N3 N4 1.234 . S
N3 C7 1.453 . S
N4 N3 1.234 . S
C5 H0 0.929 . S
C5 C6 1.373 . S
C5 C7 1.368 1_556 S
C6 C5 1.373 . S
C6 C10 1.397 1_556 S
C7 N3 1.453 . S
C7 C5 1.368 1_554 S
C7 C8 1.373 . S
C8 H2 0.930 . S
C8 C7 1.373 . S
C8 C9 1.371 . S
C9 C8 1.371 . S
C9 C10 1.383 . S
C10 H1 0.931 . S
C10 C6 1.397 1_554 S
C10 C9 1.383 . S
H11 C16 0.929 . S
H12 C21 0.931 . S
H13 C19 0.930 . S
N14 N15 1.234 . S
N14 C18 1.453 . S
N15 N14 1.234 . S
C16 H11 0.929 . S
C16 C17 1.373 . S
C16 C18 1.368 . S
C17 C16 1.373 . S
C17 C21 1.397 . S
C18 N14 1.453 . S
C18 C16 1.368 . S
C18 C19 1.373 . S
C19 H13 0.930 . S
C19 C18 1.373 . S
C19 C20 1.371 . S
C20 C19 1.371 . S
C20 C21 1.383 . S
C21 H12 0.931 . S
C21 C17 1.397 . S
C21 C20 1.383 . S
H22 C27 0.929 1_556 S
H23 C32 0.931 . S
H24 C30 0.930 . S
N25 N26 1.234 . S
N25 C29 1.453 . S
N26 N25 1.234 . S
C27 H22 0.929 1_554 S
C27 C28 1.373 . S
C27 C29 1.368 . S
C28 C27 1.373 . S
C28 C32 1.397 . S
C29 N25 1.453 . S
C29 C27 1.368 . S
C29 C30 1.373 . S
C30 H24 0.930 . S
C30 C29 1.373 . S
C30 C31 1.371 . S
C31 C30 1.371 . S
C31 C32 1.383 . S
C32 H23 0.931 . S
C32 C28 1.397 . S
C32 C31 1.383 . S
H33 C38 0.929 . S
H34 C43 0.931 . S
H35 C41 0.930 . S
N36 N37 1.234 . S
N36 C40 1.453 . S
N37 N36 1.234 . S
C38 H33 0.929 . S
C38 C39 1.373 . S
C38 C40 1.368 . S
C39 C38 1.373 . S
C39 C43 1.397 . S
C40 N36 1.453 . S
C40 C38 1.368 . S
C40 C41 1.373 . S
C41 H35 0.930 . S
C41 C40 1.373 . S
C41 C42 1.371 . S
C42 C41 1.371 . S
C42 C43 1.383 . S
C43 H34 0.931 . S
C43 C39 1.397 . S
C43 C42 1.383 . S
C44 C46 1.422 . S
C44 C48 1.415 . S
C44 N50 1.369 . S
C45 C46 1.421 . S
C45 C47 1.417 . S
C45 C57 1.422 . S
C46 C44 1.422 . S
C46 C45 1.421 . S
C46 N56 1.359 . S
C47 C45 1.417 . S
C47 C49 1.329 . S
C47 H66 0.930 . S
C48 C44 1.415 . S
C48 C49 1.437 . S
C48 C52 1.413 . S
C49 C47 1.329 . S
C49 C48 1.437 . S
C49 H71 0.929 . S
N50 C44 1.369 . S
N50 C51 1.338 1_655 S
N50 Gd55 2.622 . S
C51 N50 1.338 1_455 S
C51 C53 1.378 . S
C51 H63 0.929 . S
C52 C48 1.413 . S
C52 C53 1.348 1_655 S
C52 H68 0.931 . S
C53 C51 1.378 . S
C53 C52 1.348 1_455 S
C53 H69 0.930 . S
Gd54 N74 2.622 . S
Gd54 N81 2.570 . S
Gd54 O88 2.353 1_465 S
Gd54 O89 2.468 . S
Gd54 O90 2.427 . S
Gd54 O92 2.388 1_455 S
Gd54 O93 2.386 . S
Gd54 O97 2.307 1_565 S
Gd54 C107 2.805 . S
Gd55 N50 2.622 . S
Gd55 N56 2.570 . S
Gd55 O87 2.386 . S
Gd55 O91 2.307 1_545 S
Gd55 O94 2.353 1_655 S
Gd55 O95 2.468 . S
Gd55 O96 2.427 . S
Gd55 O98 2.388 1_655 S
Gd55 C119 2.805 . S
N56 C46 1.359 . S
N56 Gd55 2.570 . S
N56 C58 1.343 . S
C57 C45 1.422 . S
C57 C59 1.321 . S
C57 H65 0.931 . S
C58 N56 1.343 . S
C58 C59 1.390 . S
C58 H60 0.931 . S
C59 C57 1.321 . S
C59 C58 1.390 . S
C59 H61 0.930 . S
H60 C58 0.931 . S
H61 C59 0.930 . S
H62 C85 0.931 . S
H63 C51 0.929 . S
H64 C86 0.930 . S
H65 C57 0.931 . S
H66 C47 0.930 . S
H67 C76 0.929 1_655 S
H68 C52 0.931 . S
H69 C53 0.930 . S
H70 C108 0.930 . S
H71 C49 0.929 . S
H72 C77 0.931 . S
H73 C78 0.930 1_655 S
N74 Gd54 2.622 . S
N74 C75 1.369 . S
N74 C76 1.338 . S
C75 N74 1.369 . S
C75 C79 1.415 . S
C75 C82 1.422 . S
C76 H67 0.929 1_455 S
C76 N74 1.338 . S
C76 C78 1.378 . S
C77 H72 0.931 . S
C77 C78 1.348 . S
C77 C79 1.413 . S
C78 H73 0.930 1_455 S
C78 C76 1.378 . S
C78 C77 1.348 . S
C79 C75 1.415 . S
C79 C77 1.413 . S
C79 C109 1.437 . S
H80 C109 0.929 . S
N81 Gd54 2.570 . S
N81 C82 1.359 . S
N81 C85 1.343 . S
C82 C75 1.422 . S
C82 N81 1.359 . S
C82 C84 1.421 . S
C83 C84 1.422 . S
C83 C86 1.321 . S
C83 H110 0.931 . S
C84 C82 1.421 . S
C84 C83 1.422 . S
C84 C108 1.417 . S
C85 H62 0.931 . S
C85 N81 1.343 . S
C85 C86 1.390 . S
C86 H64 0.930 . S
C86 C83 1.321 . S
C86 C85 1.390 . S
O87 Gd55 2.386 . S
O87 C99 1.265 . S
O88 Gd54 2.353 1_645 S
O88 C99 1.242 . S
O89 Gd54 2.468 . S
O89 C107 1.263 . S
O90 Gd54 2.427 . S
O90 C107 1.252 . S
O91 Gd55 2.307 1_565 S
O91 C100 1.261 . S
O92 Gd54 2.388 1_655 S
O92 C100 1.252 . S
O93 Gd54 2.386 . S
O93 C111 1.265 . S
O94 Gd55 2.353 1_455 S
O94 C111 1.242 1_545 S
O95 Gd55 2.468 . S
O95 C119 1.263 . S
O96 Gd55 2.427 . S
O96 C119 1.252 . S
O97 Gd54 2.307 1_545 S
O97 C112 1.261 . S
O98 Gd55 2.388 1_455 S
O98 C112 1.252 . S
C99 O87 1.265 . S
C99 O88 1.242 . S
C100 O91 1.261 . S
C100 O92 1.252 . S
C101 C104 1.394 . S
C101 C106 1.370 . S
C101 C107 1.500 . S
C102 C105 1.383 . S
C102 C106 1.395 . S
C103 C104 1.396 . S
C103 C105 1.365 . S
C103 H120 0.929 . S
C104 C101 1.394 . S
C104 C103 1.396 . S
C104 H121 0.930 . S
C105 C102 1.383 . S
C105 C103 1.365 . S
C105 H122 0.931 . S
C106 C101 1.370 . S
C106 C102 1.395 . S
C106 H123 0.930 . S
C107 Gd54 2.805 . S
C107 O89 1.263 . S
C107 O90 1.252 . S
C107 C101 1.500 . S
C108 H70 0.930 . S
C108 C84 1.417 . S
C108 C109 1.329 . S
C109 C79 1.437 . S
C109 H80 0.929 . S
C109 C108 1.329 . S
H110 C83 0.931 . S
C111 O93 1.265 . S
C111 O94 1.242 1_565 S
C112 O97 1.261 . S
C112 O98 1.252 . S
C113 C116 1.394 . S
C113 C118 1.370 . S
C113 C119 1.500 . S
C114 C117 1.383 . S
C114 C118 1.395 . S
C115 C116 1.396 . S
C115 C117 1.365 . S
C115 H124 0.929 . S
C116 C113 1.394 . S
C116 C115 1.396 . S
C116 H125 0.930 . S
C117 C114 1.383 . S
C117 C115 1.365 . S
C117 H126 0.931 . S
C118 C113 1.370 . S
C118 C114 1.395 . S
C118 H127 0.930 . S
C119 Gd55 2.805 . S
C119 O95 1.263 . S
C119 O96 1.252 . S
C119 C113 1.500 . S
H120 C103 0.929 . S
H121 C104 0.930 . S
H122 C105 0.931 . S
H123 C106 0.930 . S
H124 C115 0.929 . S
H125 C116 0.930 . S
H126 C117 0.931 . S
H127 C118 0.930 . S
C128 C130 1.422 . S
C128 C132 1.415 . S
C128 N134 1.369 . S
C129 C130 1.421 . S
C129 C131 1.417 . S
C129 C141 1.422 . S
C130 C128 1.422 . S
C130 C129 1.421 . S
C130 N140 1.359 . S
C131 C129 1.417 . S
C131 C133 1.329 . S
C131 H150 0.930 . S
C132 C128 1.415 . S
C132 C133 1.437 . S
C132 C136 1.413 . S
C133 C131 1.329 . S
C133 C132 1.437 . S
C133 H155 0.929 . S
N134 C128 1.369 . S
N134 C135 1.338 . S
N134 Gd139 2.622 . S
C135 N134 1.338 . S
C135 C137 1.378 . S
C135 H147 0.929 . S
C136 C132 1.413 . S
C136 C137 1.348 . S
C136 H152 0.931 . S
C137 C135 1.378 . S
C137 C136 1.348 . S
C137 H153 0.930 . S
Gd138 N158 2.622 . S
Gd138 N165 2.570 . S
Gd138 O172 2.353 1_554 S
Gd138 O173 2.468 1_554 S
Gd138 O174 2.427 1_554 S
Gd138 O176 2.388 . S
Gd138 O177 2.386 . S
Gd138 O181 2.307 . S
Gd138 C191 2.805 1_554 S
Gd139 N134 2.622 . S
Gd139 N140 2.570 . S
Gd139 O171 2.386 . S
Gd139 O175 2.307 . S
Gd139 O178 2.353 . S
Gd139 O179 2.468 . S
Gd139 O180 2.427 . S
Gd139 O182 2.388 . S
Gd139 C203 2.805 . S
N140 C130 1.359 . S
N140 Gd139 2.570 . S
N140 C142 1.343 . S
C141 C129 1.422 . S
C141 C143 1.321 . S
C141 H149 0.931 . S
C142 N140 1.343 . S
C142 C143 1.390 . S
C142 H144 0.931 . S
C143 C141 1.321 . S
C143 C142 1.390 . S
C143 H145 0.930 . S
H144 C142 0.931 . S
H145 C143 0.930 . S
H146 C169 0.931 . S
H147 C135 0.929 . S
H148 C170 0.930 . S
H149 C141 0.931 . S
H150 C131 0.930 . S
H151 C160 0.929 . S
H152 C136 0.931 . S
H153 C137 0.930 . S
H154 C192 0.930 . S
H155 C133 0.929 . S
H156 C161 0.931 . S
H157 C162 0.930 . S
N158 Gd138 2.622 . S
N158 C159 1.369 . S
N158 C160 1.338 1_554 S
C159 N158 1.369 . S
C159 C163 1.415 . S
C159 C166 1.422 . S
C160 H151 0.929 . S
C160 N158 1.338 1_556 S
C160 C162 1.378 . S
C161 H156 0.931 . S
C161 C162 1.348 1_554 S
C161 C163 1.413 . S
C162 H157 0.930 . S
C162 C160 1.378 . S
C162 C161 1.348 1_556 S
C163 C159 1.415 . S
C163 C161 1.413 . S
C163 C193 1.437 . S
H164 C193 0.929 . S
N165 Gd138 2.570 . S
N165 C166 1.359 . S
N165 C169 1.343 . S
C166 C159 1.422 . S
C166 N165 1.359 . S
C166 C168 1.421 . S
C167 C168 1.422 . S
C167 C170 1.321 . S
C167 H194 0.931 . S
C168 C166 1.421 . S
C168 C167 1.422 . S
C168 C192 1.417 . S
C169 H146 0.931 . S
C169 N165 1.343 . S
C169 C170 1.390 . S
C170 H148 0.930 . S
C170 C167 1.321 . S
C170 C169 1.390 . S
O171 Gd139 2.386 . S
O171 C183 1.265 1_554 S
O172 Gd138 2.353 1_556 S
O172 C183 1.242 . S
O173 Gd138 2.468 1_556 S
O173 C191 1.263 . S
O174 Gd138 2.427 1_556 S
O174 C191 1.252 . S
O175 Gd139 2.307 . S
O175 C184 1.261 . S
O176 Gd138 2.388 . S
O176 C184 1.252 . S
O177 Gd138 2.386 . S
O177 C195 1.265 . S
O178 Gd139 2.353 . S
O178 C195 1.242 . S
O179 Gd139 2.468 . S
O179 C203 1.263 . S
O180 Gd139 2.427 . S
O180 C203 1.252 . S
O181 Gd138 2.307 . S
O181 C196 1.261 . S
O182 Gd139 2.388 . S
O182 C196 1.252 . S
C183 O171 1.265 1_556 S
C183 O172 1.242 . S
C184 O175 1.261 . S
C184 O176 1.252 . S
C185 C188 1.394 . S
C185 C190 1.370 . S
C185 C191 1.500 . S
C186 C189 1.383 . S
C186 C190 1.395 . S
C187 C188 1.396 . S
C187 C189 1.365 . S
C187 H204 0.929 . S
C188 C185 1.394 . S
C188 C187 1.396 . S
C188 H205 0.930 . S
C189 C186 1.383 . S
C189 C187 1.365 . S
C189 H206 0.931 . S
C190 C185 1.370 . S
C190 C186 1.395 . S
C190 H207 0.930 . S
C191 Gd138 2.805 1_556 S
C191 O173 1.263 . S
C191 O174 1.252 . S
C191 C185 1.500 . S
C192 H154 0.930 . S
C192 C168 1.417 . S
C192 C193 1.329 . S
C193 C163 1.437 . S
C193 H164 0.929 . S
C193 C192 1.329 . S
H194 C167 0.931 . S
C195 O177 1.265 . S
C195 O178 1.242 . S
C196 O181 1.261 . S
C196 O182 1.252 . S
C197 C200 1.394 . S
C197 C202 1.370 . S
C197 C203 1.500 . S
C198 C201 1.383 . S
C198 C202 1.395 . S
C199 C200 1.396 . S
C199 C201 1.365 . S
C199 H208 0.929 . S
C200 C197 1.394 . S
C200 C199 1.396 . S
C200 H209 0.930 . S
C201 C198 1.383 . S
C201 C199 1.365 . S
C201 H210 0.931 . S
C202 C197 1.370 . S
C202 C198 1.395 . S
C202 H211 0.930 . S
C203 Gd139 2.805 . S
C203 O179 1.263 . S
C203 O180 1.252 . S
C203 C197 1.500 . S
H204 C187 0.929 . S
H205 C188 0.930 . S
H206 C189 0.931 . S
H207 C190 0.930 . S
H208 C199 0.929 . S
H209 C200 0.930 . S
H210 C201 0.931 . S
H211 C202 0.930 . S
C212 C213 1.387 . S
C212 H216 0.950 . S
C212 C221 1.390 . S
C213 C212 1.387 . S
C213 C215 1.387 . S
H214 C221 0.950 . S
C215 C213 1.387 . S
C215 C217 1.390 . S
C215 H219 0.950 . S
H216 C212 0.950 . S
C217 C215 1.390 . S
C217 C218 1.387 . S
C217 H220 0.950 . S
C218 C217 1.387 . S
C218 C221 1.387 . S
H219 C215 0.950 . S
H220 C217 0.950 . S
C221 C212 1.390 . S
C221 H214 0.950 . S
C221 C218 1.387 . S
C222 C223 1.387 . S
C222 H226 0.950 1_554 S
C222 C231 1.390 . S
C223 C222 1.387 . S
C223 C225 1.387 . S
H224 C231 0.950 1_556 S
C225 C223 1.387 . S
C225 C227 1.390 . S
C225 H229 0.950 . S
H226 C222 0.950 1_556 S
C227 C225 1.390 . S
C227 C228 1.387 . S
C227 H230 0.950 . S
C228 C227 1.387 . S
C228 C231 1.387 . S
H229 C225 0.950 . S
H230 C227 0.950 . S
C231 C222 1.390 . S
C231 H224 0.950 1_554 S
C231 C228 1.387 . S
C232 C233 1.387 . S
C232 H236 0.950 . S
C232 C241 1.390 . S
C233 C232 1.387 . S
C233 C235 1.387 . S
H234 C241 0.950 . S
C235 C233 1.387 . S
C235 C237 1.390 . S
C235 H239 0.950 . S
H236 C232 0.950 . S
C237 C235 1.390 . S
C237 C238 1.387 . S
C237 H240 0.950 . S
C238 C237 1.387 . S
C238 C241 1.387 . S
H239 C235 0.950 . S
H240 C237 0.950 . S
C241 C232 1.390 . S
C241 H234 0.950 . S
C241 C238 1.387 . S
C242 C243 1.387 . S
C242 H246 0.950 1_554 S
C242 C251 1.390 . S
C243 C242 1.387 . S
C243 C245 1.387 . S
H244 C251 0.950 1_556 S
C245 C243 1.387 . S
C245 C247 1.390 . S
C245 H249 0.950 . S
H246 C242 0.950 1_556 S
C247 C245 1.390 . S
C247 C248 1.387 . S
C247 H250 0.950 . S
C248 C247 1.387 . S
C248 C251 1.387 . S
H249 C245 0.950 . S
H250 C247 0.950 . S
C251 C242 1.390 . S
C251 H244 0.950 1_554 S
C251 C248 1.387 . S
C252 C253 1.387 . S
C252 H256 0.950 . S
C252 C261 1.390 . S
C253 C252 1.387 . S
C253 C255 1.387 . S
H254 C261 0.950 . S
C255 C253 1.387 . S
C255 C257 1.390 . S
C255 H259 0.950 . S
H256 C252 0.950 . S
C257 C255 1.390 . S
C257 C258 1.387 . S
C257 H260 0.950 1_565 S
C258 C257 1.387 . S
C258 C261 1.387 . S
H259 C255 0.950 . S
H260 C257 0.950 1_545 S
C261 C252 1.390 . S
C261 H254 0.950 . S
C261 C258 1.387 . S
C262 C263 1.387 . S
C262 H266 0.950 . S
C262 C271 1.390 . S
C263 C262 1.387 . S
C263 C265 1.387 . S
H264 C271 0.950 . S
C265 C263 1.387 . S
C265 C267 1.390 . S
C265 H269 0.950 . S
H266 C262 0.950 . S
C267 C265 1.390 . S
C267 C268 1.387 . S
C267 H270 0.950 . S
C268 C267 1.387 . S
C268 C271 1.387 . S
H269 C265 0.950 . S
H270 C267 0.950 . S
C271 C262 1.390 . S
C271 H264 0.950 . S
C271 C268 1.387 . S
C272 C273 1.387 . S
C272 H276 0.950 . S
C272 C281 1.390 . S
C273 C272 1.387 . S
C273 C275 1.387 . S
H274 C281 0.950 . S
C275 C273 1.387 . S
C275 C277 1.390 . S
C275 H279 0.950 . S
H276 C272 0.950 . S
C277 C275 1.390 . S
C277 C278 1.387 . S
C277 H280 0.953 . S
C278 C277 1.387 . S
C278 C281 1.387 . S
H279 C275 0.950 . S
H280 C277 0.953 . S
C281 C272 1.390 . S
C281 H274 0.950 . S
C281 C278 1.387 . S
C282 C283 1.387 . S
C282 H286 0.950 . S
C282 C291 1.390 . S
C283 C282 1.387 . S
C283 C285 1.387 . S
H284 C291 0.950 . S
C285 C283 1.387 . S
C285 C287 1.390 . S
C285 H289 0.950 . S
H286 C282 0.950 . S
C287 C285 1.390 . S
C287 C288 1.387 . S
C287 H290 0.950 . S
C288 C287 1.387 . S
C288 C291 1.387 . S
H289 C285 0.950 . S
H290 C287 0.950 . S
C291 C282 1.390 . S
C291 H284 0.950 . S
C291 C288 1.387 . S
C292 C293 1.387 . S
C292 H296 0.950 . S
C292 C301 1.390 . S
C293 C292 1.387 . S
C293 C295 1.387 . S
H294 C301 0.950 . S
C295 C293 1.387 . S
C295 C297 1.390 . S
C295 H299 0.950 . S
H296 C292 0.950 . S
C297 C295 1.390 . S
C297 C298 1.387 . S
C297 H300 0.950 . S
C298 C297 1.387 . S
C298 C301 1.387 . S
H299 C295 0.950 . S
H300 C297 0.950 . S
C301 C292 1.390 . S
C301 H294 0.950 . S
C301 C298 1.387 . S
C302 C303 1.387 . S
C302 H306 0.950 . S
C302 C311 1.390 . S
C303 C302 1.387 . S
C303 C305 1.387 . S
H304 C311 0.950 . S
C305 C303 1.387 . S
C305 C307 1.390 . S
C305 H309 0.950 . S
H306 C302 0.950 . S
C307 C305 1.390 . S
C307 C308 1.387 . S
C307 H310 0.950 . S
C308 C307 1.387 . S
C308 C311 1.387 . S
H309 C305 0.950 . S
H310 C307 0.950 . S
C311 C302 1.390 . S
C311 H304 0.950 . S
C311 C308 1.387 . S
C312 C313 1.387 . S
C312 H316 0.950 . S
C312 C321 1.390 . S
C313 C312 1.387 . S
C313 C315 1.387 . S
H314 C321 0.950 . S
C315 C313 1.387 . S
C315 C317 1.390 . S
C315 H319 0.950 . S
H316 C312 0.950 . S
C317 C315 1.390 . S
C317 C318 1.387 . S
C317 H320 0.950 . S
C318 C317 1.387 . S
C318 C321 1.387 . S
H319 C315 0.950 . S
H320 C317 0.950 . S
C321 C312 1.390 . S
C321 H314 0.950 . S
C321 C318 1.387 . S
C322 C323 1.387 . S
C322 H326 0.950 . S
C322 C331 1.390 . S
C323 C322 1.387 . S
C323 C325 1.387 . S
H324 C331 0.950 1_545 S
C325 C323 1.387 . S
C325 C327 1.390 . S
C325 H329 0.950 . S
H326 C322 0.950 . S
C327 C325 1.390 . S
C327 C328 1.387 . S
C327 H330 0.950 . S
C328 C327 1.387 . S
C328 C331 1.387 . S
H329 C325 0.950 . S
H330 C327 0.950 . S
C331 C322 1.390 . S
C331 H324 0.950 1_565 S
C331 C328 1.387 . S
C218 C112 1.620 . S
C213 N37 1.628 . S
C223 N4 1.637 . S
C228 C184 1.632 . S
C233 N15 1.622 . S
C238 C100 1.645 . S
C243 N26 1.593 . S
C248 C196 1.600 . S
C258 C102 1.410 . S
C253 C9 1.583 . S
C268 C183 1.688 . S
C263 C17 1.685 . S
C273 C31 1.621 . S
C278 C99 1.650 . S
C283 C42 1.586 . S
C288 C186 1.420 . S
C298 C198 1.380 . S
C293 C20 1.548 . S
C308 C114 1.350 . S
C303 C28 1.536 1_556 S
C318 C195 1.609 . S
C313 C39 1.596 . S
C323 C6 1.556 . S
C328 C111 1.583 . S
