# Generated by pormake.
# Topology zzz, (3,6)-cn, num edge types: 1
# Building blocks:
#     Node 0, Type 0, BuildingBlock: MIDCAF_clean_linker_0, # of connection points: 3
#     Node 1, Type 0, BuildingBlock: MIDCAF_clean_linker_0, # of connection points: 3
#     Node 2, Type 0, BuildingBlock: MIDCAF_clean_linker_0, # of connection points: 3
#     Node 3, Type 0, BuildingBlock: MIDCAF_clean_linker_0, # of connection points: 3
#     Node 4, Type 0, BuildingBlock: MIDCAF_clean_linker_0, # of connection points: 3
#     Node 5, Type 0, BuildingBlock: MIDCAF_clean_linker_0, # of connection points: 3
#     Node 6, Type 0, BuildingBlock: MIDCAF_clean_linker_0, # of connection points: 3
#     Node 7, Type 0, BuildingBlock: MIDCAF_clean_linker_0, # of connection points: 3
#     Node 8, Type 1, BuildingBlock: HISSIN_clean_sbu_0, # of connection points: 6
#     Node 9, Type 1, BuildingBlock: HISSIN_clean_sbu_0, # of connection points: 6
#     Node 10, Type 1, BuildingBlock: HISSIN_clean_sbu_0, # of connection points: 6
#     Node 11, Type 1, BuildingBlock: HISSIN_clean_sbu_0, # of connection points: 6
#     Edge 12, Type (0, 1), BuildingBlock: TEMPAE_clean_linker_10, # of connection points: 2
#     Edge 13, Type (0, 1), BuildingBlock: TEMPAE_clean_linker_10, # of connection points: 2
#     Edge 14, Type (0, 1), BuildingBlock: TEMPAE_clean_linker_10, # of connection points: 2
#     Edge 15, Type (0, 1), BuildingBlock: TEMPAE_clean_linker_10, # of connection points: 2
#     Edge 16, Type (0, 1), BuildingBlock: TEMPAE_clean_linker_10, # of connection points: 2
#     Edge 17, Type (0, 1), BuildingBlock: TEMPAE_clean_linker_10, # of connection points: 2
#     Edge 18, Type (0, 1), BuildingBlock: TEMPAE_clean_linker_10, # of connection points: 2
#     Edge 19, Type (0, 1), BuildingBlock: TEMPAE_clean_linker_10, # of connection points: 2
#     Edge 20, Type (0, 1), BuildingBlock: TEMPAE_clean_linker_10, # of connection points: 2
#     Edge 21, Type (0, 1), BuildingBlock: TEMPAE_clean_linker_10, # of connection points: 2
#     Edge 22, Type (0, 1), BuildingBlock: TEMPAE_clean_linker_10, # of connection points: 2
#     Edge 23, Type (0, 1), BuildingBlock: TEMPAE_clean_linker_10, # of connection points: 2
#     Edge 24, Type (0, 1), BuildingBlock: TEMPAE_clean_linker_10, # of connection points: 2
#     Edge 25, Type (0, 1), BuildingBlock: TEMPAE_clean_linker_10, # of connection points: 2
#     Edge 26, Type (0, 1), BuildingBlock: TEMPAE_clean_linker_10, # of connection points: 2
#     Edge 27, Type (0, 1), BuildingBlock: TEMPAE_clean_linker_10, # of connection points: 2
#     Edge 28, Type (0, 1), BuildingBlock: TEMPAE_clean_linker_10, # of connection points: 2
#     Edge 29, Type (0, 1), BuildingBlock: TEMPAE_clean_linker_10, # of connection points: 2
#     Edge 30, Type (0, 1), BuildingBlock: TEMPAE_clean_linker_10, # of connection points: 2
#     Edge 31, Type (0, 1), BuildingBlock: TEMPAE_clean_linker_10, # of connection points: 2
#     Edge 32, Type (0, 1), BuildingBlock: TEMPAE_clean_linker_10, # of connection points: 2
#     Edge 33, Type (0, 1), BuildingBlock: TEMPAE_clean_linker_10, # of connection points: 2
#     Edge 34, Type (0, 1), BuildingBlock: TEMPAE_clean_linker_10, # of connection points: 2
#     Edge 35, Type (0, 1), BuildingBlock: TEMPAE_clean_linker_10, # of connection points: 2
# Relax obj value: 0.395
# Max RMSD: 0.223
# Mean RMSD: 0.192
data_MOF--net-zzz--node1-HISSIN_clean_sbu_0--node2-MIDCAF_clean_linker_0--edge1-TEMPAE_clean_linker_10
_symmetry_space_group_name_H-M    P1
_symmetry_Int_Tables_number       1
_symmetry_cell_setting            triclinic
loop_
_symmetry_equiv_pos_as_xyz
'x, y, z'
_cell_length_a     56.498616
_cell_length_b     56.799529
_cell_length_c     21.784427
_cell_angle_alpha  89.794519
_cell_angle_beta   91.972698
_cell_angle_gamma 91.712669
loop_
_atom_site_label
_atom_site_type_symbol
_atom_site_fract_x
_atom_site_fract_y
_atom_site_fract_z
_atom_type_partial_charge
C0 C 0.79805 0.56218 0.44437 0.0
C1 C 0.80686 0.53929 0.44238 0.0
C2 C 0.79544 0.52285 0.40205 0.0
C3 C 0.77711 0.52972 0.36117 0.0
H4 H 0.70209 0.52406 0.22941 0.0
H5 H 0.66611 0.51422 0.1666 0.0
H6 H 0.66676 0.58514 0.09418 0.0
H7 H 0.70187 0.59484 0.15686 0.0
H8 H 0.76442 0.58374 0.08739 0.0
H9 H 0.79903 0.5832 0.0248 0.0
H10 H 0.843 0.60728 0.17956 0.0
H11 H 0.80835 0.60705 0.2431 0.0
H12 H 0.77514 0.58737 0.40205 0.0
H13 H 0.80644 0.57541 0.47417 0.0
H14 H 0.80155 0.505 0.39975 0.0
H15 H 0.77016 0.51729 0.327 0.0
N16 N 0.73674 0.55672 0.28066 0.0
N17 N 0.74377 0.57931 0.19173 0.0
N18 N 0.77337 0.57673 0.26833 0.0
C19 C 0.72884 0.56568 0.22538 0.0
C20 C 0.76603 0.58486 0.21273 0.0
C21 C 0.75907 0.56285 0.30266 0.0
C22 C 0.70485 0.5602 0.19806 0.0
C23 C 0.69407 0.53763 0.2013 0.0
C24 C 0.67364 0.53196 0.16474 0.0
C25 C 0.66349 0.54886 0.12495 0.0
C26 C 0.67373 0.57171 0.12459 0.0
C27 C 0.69405 0.57725 0.16044 0.0
C28 C 0.78387 0.59449 0.17078 0.0
C29 C 0.78126 0.58994 0.10752 0.0
C30 C 0.80118 0.58971 0.0714 0.0
C31 C 0.82386 0.59432 0.09801 0.0
C32 C 0.82579 0.60291 0.15845 0.0
C33 C 0.80594 0.60285 0.19477 0.0
C34 C 0.76988 0.55316 0.35973 0.0
C35 C 0.77992 0.56903 0.40329 0.0
C36 C 0.97013 0.79757 0.40999 0.0
C37 C 0.99383 0.80435 0.42425 0.0
C38 C 0.0118 0.7918 0.39619 0.0
C39 C 1.0061 0.77394 0.35276 0.0
H40 H 0.95552 0.68154 0.20021 0.0
H41 H 0.96485 0.64901 0.13317 0.0
H42 H 0.03165 0.68367 0.09353 0.0
H43 H 0.02222 0.71624 0.16172 0.0
H44 H 0.95379 0.75304 0.06492 0.0
H45 H 0.94191 0.78449 0.99752 0.0
H46 H 0.90213 0.81444 0.14306 0.0
H47 H 0.91595 0.78359 0.21228 0.0
H48 H 0.946 0.77617 0.35518 0.0
H49 H 0.95567 0.80682 0.42932 0.0
H50 H 0.03028 0.79623 0.4064 0.0
H51 H 0.02024 0.76562 0.32939 0.0
N52 N 0.98609 0.73448 0.26265 0.0
N53 N 0.96165 0.73329 0.17252 0.0
N54 N 0.95816 0.76375 0.24273 0.0
C55 C 0.97868 0.72351 0.20898 0.0
C56 C 0.95132 0.75336 0.18904 0.0
C57 C 0.97537 0.75467 0.27993 0.0
C58 C 0.98835 0.70118 0.18728 0.0
C59 C 0.97266 0.68171 0.17927 0.0
C60 C 0.97784 0.66326 0.13995 0.0
C61 C 0.99881 0.66387 0.10688 0.0
C62 C 0.01538 0.68255 0.11838 0.0
C63 C 0.01013 0.70111 0.15795 0.0
C64 C 0.93654 0.76643 0.14437 0.0
C65 C 0.94185 0.76587 0.08202 0.0
C66 C 0.93479 0.78404 0.04298 0.0
C67 C 0.92185 0.80286 0.06534 0.0
C68 C 0.91309 0.80096 0.12498 0.0
C69 C 0.9208 0.78316 0.16461 0.0
C70 C 0.98232 0.76835 0.33631 0.0
C71 C 0.96452 0.77991 0.36698 0.0
C72 C 0.72421 0.98306 0.35499 0.0
C73 C 0.70032 0.984 0.33364 0.0
C74 C 0.69544 0.98075 0.27048 0.0
C75 C 0.71348 0.97601 0.23038 0.0
H76 H 0.80767 0.01031 0.13918 0.0
H77 H 0.84265 0.02113 0.08054 0.0
H78 H 0.86593 0.94947 0.09614 0.0
H79 H 0.8319 0.93938 0.15648 0.0
H80 H 0.785 0.92327 0.02619 0.0
H81 H 0.76893 0.92066 0.92137 0.0
H82 H 0.69856 0.92956 0.98765 0.0
H83 H 0.71442 0.93191 0.09178 0.0
H84 H 0.7605 0.97711 0.33232 0.0
H85 H 0.72875 0.98566 0.40323 0.0
H86 H 0.67741 0.98097 0.25196 0.0
H87 H 0.70864 0.973 0.18243 0.0
N88 N 0.77809 0.97359 0.20736 0.0
N89 N 0.78402 0.94897 0.1228 0.0
N90 N 0.7468 0.94973 0.16499 0.0
C91 C 0.79277 0.9649 0.16435 0.0
C92 C 0.76118 0.94133 0.12227 0.0
C93 C 0.75492 0.96546 0.2083 0.0
C94 C 0.81719 0.97408 0.15359 0.0
C95 C 0.82102 0.99731 0.13295 0.0
C96 C 0.84083 1.00329 0.09774 0.0
C97 C 0.85717 0.98612 0.08184 0.0
C98 C 0.85419 0.96342 0.10726 0.0
C99 C 0.83461 0.95757 0.14259 0.0
C100 C 0.7511 0.92915 0.06692 0.0
C101 C 0.76596 0.92366 0.01871 0.0
C102 C 0.75678 0.9221 0.95849 0.0
C103 C 0.73266 0.92594 0.94592 0.0
C104 C 0.71732 0.92684 0.9954 0.0
C105 C 0.72648 0.92839 0.05555 0.0
C106 C 0.73722 0.97437 0.25156 0.0
C107 C 0.74249 0.97846 0.31429 0.0
C108 C 0.4231 0.71907 0.10263 0.0
C109 C 0.41894 0.72704 0.04233 0.0
C110 C 0.42653 0.74987 0.02605 0.0
C111 C 0.44021 0.76364 0.06782 0.0
H112 H 0.47293 0.83521 0.15036 0.0
H113 H 0.48592 0.86784 0.0864 0.0
H114 H 0.55531 0.83821 0.0788 0.0
H115 H 0.54187 0.80504 0.14326 0.0
H116 H 0.46635 0.74817 0.33848 0.0
H117 H 0.47542 0.71753 0.41322 0.0
H118 H 0.54744 0.71716 0.35327 0.0
H119 H 0.53826 0.74844 0.27826 0.0
H120 H 0.44068 0.72548 0.18939 0.0
H121 H 0.41731 0.70149 0.11604 0.0
H122 H 0.4236 0.75627 0.97958 0.0
H123 H 0.44723 0.78053 0.05258 0.0
N124 N 0.47641 0.78642 0.14575 0.0
N125 N 0.50496 0.78408 0.227 0.0
N126 N 0.47408 0.75547 0.21594 0.0
C127 C 0.49592 0.79552 0.17631 0.0
C128 C 0.49357 0.76408 0.24744 0.0
C129 C 0.46548 0.76633 0.16487 0.0
C130 C 0.50645 0.81772 0.15223 0.0
C131 C 0.4912 0.83605 0.13671 0.0
C132 C 0.49871 0.85481 0.09995 0.0
C133 C 0.52168 0.85573 0.077 0.0
C134 C 0.53743 0.83798 0.09526 0.0
C135 C 0.5299 0.81917 0.13286 0.0
C136 C 0.50159 0.75071 0.30253 0.0
C137 C 0.48433 0.74206 0.34243 0.0
C138 C 0.48947 0.72431 0.38486 0.0
C139 C 0.51199 0.71447 0.38831 0.0
C140 C 0.52989 0.72435 0.35173 0.0
C141 C 0.52472 0.74236 0.30907 0.0
C142 C 0.44644 0.75469 0.12638 0.0
C143 C 0.43662 0.73281 0.14442 0.0
C144 C 0.24604 0.49662 0.90709 0.0
C145 C 0.2302 0.47935 0.88132 0.0
C146 C 0.23346 0.45569 0.89803 0.0
C147 C 0.25062 0.44969 0.94258 0.0
H148 H 0.35294 0.46046 0.07406 0.0
H149 H 0.38881 0.46836 0.13945 0.0
H150 H 0.34634 0.50234 0.27204 0.0
H151 H 0.31098 0.49453 0.20735 0.0
H152 H 0.28183 0.43557 0.25171 0.0
H153 H 0.2526 0.43368 0.33117 0.0
H154 H 0.19646 0.42925 0.19169 0.0
H155 H 0.22548 0.43063 0.11236 0.0
H156 H 0.27408 0.50438 0.97414 0.0
H157 H 0.24435 0.51499 0.89474 0.0
H158 H 0.22161 0.44183 0.88013 0.0
H159 H 0.25142 0.43147 0.95735 0.0
N160 N 0.29855 0.4708 0.05072 0.0
N161 N 0.29366 0.45318 0.14771 0.0
N162 N 0.26418 0.44801 0.07128 0.0
C163 C 0.30706 0.46625 0.10907 0.0
C164 C 0.27227 0.44392 0.12937 0.0
C165 C 0.27701 0.46122 0.03155 0.0
C166 C 0.32926 0.47706 0.1355 0.0
C167 C 0.35156 0.47048 0.11593 0.0
C168 C 0.372 0.47481 0.15361 0.0
C169 C 0.37028 0.48554 0.21147 0.0
C170 C 0.3482 0.49367 0.22831 0.0
C171 C 0.32799 0.48945 0.1909 0.0
C172 C 0.25595 0.43429 0.17559 0.0
C173 C 0.2633 0.43332 0.23789 0.0
C174 C 0.24657 0.43223 0.28354 0.0
C175 C 0.22226 0.43211 0.2676 0.0
C176 C 0.21507 0.42949 0.20555 0.0
C177 C 0.23179 0.43049 0.15988 0.0
C178 C 0.26514 0.46708 0.97184 0.0
C179 C 0.26339 0.49053 0.95185 0.0
C180 C 0.024 0.21159 1.00288 0.0
C181 C 0.03099 0.21247 0.94135 0.0
C182 C 0.04176 0.23366 0.92047 0.0
C183 C 0.04761 0.25221 0.96131 0.0
H184 H 0.02227 0.31436 0.15145 0.0
H185 H 0.01285 0.34775 0.21687 0.0
H186 H 0.08436 0.34896 0.29355 0.0
H187 H 0.0938 0.31642 0.22845 0.0
H188 H 0.09974 0.25176 0.25962 0.0
H189 H 0.10653 0.2126 0.29998 0.0
H190 H 0.12515 0.18934 0.12003 0.0
H191 H 0.11812 0.22859 0.07937 0.0
H192 H 0.02586 0.22798 0.09143 0.0
H193 H 0.01601 0.19571 0.02171 0.0
H194 H 0.04689 0.23549 0.87325 0.0
H195 H 0.05809 0.26714 0.94525 0.0
N196 N 0.05093 0.28269 0.10043 0.0
N197 N 0.08431 0.27906 0.16764 0.0
N198 N 0.07715 0.25179 0.08904 0.0
C199 C 0.06489 0.2912 0.14876 0.0
C200 C 0.09064 0.25949 0.13764 0.0
C201 C 0.05748 0.263 0.06994 0.0
C202 C 0.05879 0.31251 0.18449 0.0
C203 C 0.03601 0.32196 0.18178 0.0
C204 C 0.03057 0.341 0.21968 0.0
C205 C 0.04785 0.35118 0.26063 0.0
C206 C 0.07065 0.34194 0.26218 0.0
C207 C 0.07601 0.323 0.22488 0.0
C208 C 0.10737 0.24284 0.16587 0.0
C209 C 0.10678 0.23878 0.22941 0.0
C210 C 0.11069 0.21621 0.25262 0.0
C211 C 0.11535 0.19771 0.21241 0.0
C212 C 0.12096 0.20319 0.15161 0.0
C213 C 0.11698 0.2257 0.1284 0.0
C214 C 0.04224 0.25037 0.02361 0.0
C215 C 0.02945 0.2303 0.04319 0.0
C216 C 0.31594 0.0183 1.00446 0.0
C217 C 0.31905 0.03119 0.94961 0.0
C218 C 0.30181 0.04771 0.9329 0.0
C219 C 0.28341 0.05265 0.9721 0.0
H220 H 0.19338 0.04221 0.12471 0.0
H221 H 0.16129 0.03431 0.1961 0.0
H222 H 0.21299 0.03067 0.34635 0.0
H223 H 0.24456 0.03923 0.27546 0.0
H224 H 0.25609 0.10974 0.2481 0.0
H225 H 0.28475 0.12781 0.32075 0.0
H226 H 0.33987 0.1191 0.19057 0.0
H227 H 0.31127 0.10256 0.1175 0.0
H228 H 0.2966 0.01427 0.08748 0.0
H229 H 0.32881 1.00559 0.01957 0.0
H230 H 0.30305 0.05763 0.89055 0.0
H231 H 0.27167 0.06681 0.96002 0.0
N232 N 0.24974 0.04122 0.10752 0.0
N233 N 0.24977 0.07307 0.17663 0.0
N234 N 0.27695 0.07318 0.09851 0.0
C235 C 0.24022 0.05214 0.15665 0.0
C236 C 0.26803 0.0838 0.14781 0.0
C237 C 0.26807 0.05214 0.07776 0.0
C238 C 0.2215 0.04102 0.19437 0.0
C239 C 0.19782 0.03894 0.17269 0.0
C240 C 0.17943 0.03458 0.21384 0.0
C241 C 0.18437 0.03227 0.27758 0.0
C242 C 0.20829 0.03293 0.29813 0.0
C243 C 0.22649 0.03744 0.25729 0.0
C244 C 0.28173 0.10333 0.17859 0.0
C245 C 0.27414 0.11268 0.234 0.0
C246 C 0.29063 0.12303 0.27579 0.0
C247 C 0.31493 0.12344 0.26335 0.0
C248 C 0.32148 0.11856 0.20302 0.0
C249 C 0.30495 0.1087 0.16084 0.0
C250 C 0.28125 0.04085 0.02851 0.0
C251 C 0.29728 0.02308 0.04337 0.0
C252 C 0.61277 0.28859 0.19736 0.0
C253 C 0.61253 0.28748 0.26179 0.0
C254 C 0.59757 0.27063 0.28949 0.0
C255 C 0.58099 0.25746 0.25385 0.0
H256 H 0.49916 0.23583 0.25883 0.0
H257 H 0.48616 0.20328 0.32432 0.0
H258 H 0.49776 0.15434 0.17792 0.0
H259 H 0.51076 0.18718 0.11245 0.0
H260 H 0.4847 0.27477 0.03461 0.0
H261 H 0.47638 0.30739 0.96272 0.0
H262 H 0.55083 0.31462 0.92687 0.0
H263 H 0.5591 0.28224 0.99662 0.0
H264 H 0.59538 0.27835 0.11251 0.0
H265 H 0.62447 0.30107 0.17472 0.0
H266 H 0.59691 0.26933 0.33903 0.0
H267 H 0.56832 0.24619 0.27705 0.0
N268 N 0.5422 0.23699 0.179 0.0
N269 N 0.51401 0.24404 0.09908 0.0
N270 N 0.55067 0.26481 0.10339 0.0
C271 C 0.52081 0.23201 0.15104 0.0
C272 C 0.52922 0.26056 0.07492 0.0
C273 C 0.55733 0.25321 0.15517 0.0
C274 C 0.5055 0.21403 0.18027 0.0
C275 C 0.49784 0.21822 0.23979 0.0
C276 C 0.49052 0.19953 0.27739 0.0
C277 C 0.49115 0.17614 0.25666 0.0
C278 C 0.49727 0.17213 0.19546 0.0
C279 C 0.50436 0.19092 0.15759 0.0
C280 C 0.5226 0.27605 0.02207 0.0
C281 C 0.49914 0.28286 1.00988 0.0
C282 C 0.4944 0.30159 0.96903 0.0
C283 C 0.51306 0.3138 0.94022 0.0
C284 C 0.53616 0.30582 0.94921 0.0
C285 C 0.54084 0.28718 0.9892 0.0
C286 C 0.57903 0.2611 0.19004 0.0
C287 C 0.59606 0.27562 0.16178 0.0
Eu288 Eu 0.99932 0.01898 0.61946 0.0
Eu289 Eu 0.0363 1.00085 0.72525 0.0
C290 C 0.02598 0.05582 0.71454 0.0
C291 C 0.98187 0.05308 0.48196 0.0
C292 C 0.99172 0.07498 0.50107 0.0
C293 C 0.99656 0.06044 0.37972 0.0
C294 C 1.00436 0.08911 0.46047 0.0
C295 C 0.98373 0.04631 0.42037 0.0
C296 C 1.00754 0.08167 0.39993 0.0
C297 C 0.9741 0.03555 0.52784 0.0
O298 O 1.00219 0.00787 0.77219 0.0
O299 O 0.97541 1.00301 0.69179 0.0
C300 C 0.98033 1.00434 0.75126 0.0
O301 O 1.00665 0.98147 0.59456 0.0
O302 O 0.05324 1.0044 0.81658 0.0
O303 O 0.06044 0.9743 0.76071 0.0
O304 O 0.01637 0.96801 0.69039 0.0
C305 C 0.01019 0.96395 0.63266 0.0
O306 O 0.03584 0.02971 0.58681 0.0
O307 O 0.0582 1.00314 0.6404 0.0
O308 O 0.04253 0.04037 0.72539 0.0
O309 O 0.98479 0.0156 0.52572 0.0
O310 O 0.9724 0.04289 0.58417 0.0
O311 O 1.00653 0.05016 0.68242 0.0
C312 C 0.04921 0.96663 0.86156 0.0
C313 C 0.05343 0.94242 0.85888 0.0
C314 C 0.01434 0.95798 0.92113 0.0
C315 C 0.03753 0.9261 0.88425 0.0
C316 C 0.03019 0.97427 0.89583 0.0
C317 C 0.01724 0.93376 0.91303 0.0
C318 C 0.06012 0.98268 0.81635 0.0
C319 C 0.05542 0.01789 0.59428 0.0
H320 H 0.99093 0.08064 0.54837 0.0
H321 H 0.99851 0.05441 0.3331 0.0
H322 H 0.01282 0.10526 0.47765 0.0
H323 H 0.97647 0.02942 0.40467 0.0
H324 H 0.06783 0.93604 0.83252 0.0
H325 H 0.99916 0.96436 0.94444 0.0
H326 H 0.04025 0.90751 0.87743 0.0
H327 H 0.02637 0.99278 0.89913 0.0
Eu328 Eu 0.52699 0.02758 0.69301 0.0
Eu329 Eu 0.49748 0.99109 0.60352 0.0
C330 C 0.52235 0.9724 0.7276 0.0
C331 C 0.58285 0.04725 0.75956 0.0
C332 C 0.58928 0.02689 0.72888 0.0
C333 C 0.62401 0.05421 0.79161 0.0
C334 C 0.61264 0.02022 0.72913 0.0
C335 C 0.60033 0.06117 0.79037 0.0
C336 C 0.63027 0.03353 0.76116 0.0
C337 C 0.5577 0.05296 0.7571 0.0
O338 O 0.46972 0.01057 0.65462 0.0
O339 O 0.49171 0.0235 0.73898 0.0
C340 C 0.47107 0.01839 0.71151 0.0
O341 O 0.5044 0.05149 0.63423 0.0
O342 O 0.46905 0.96484 0.58518 0.0
O343 O 0.49074 0.97712 0.51111 0.0
O344 O 0.49926 0.02597 0.55362 0.0
C345 C 0.4986 0.0473 0.57632 0.0
O346 O 0.54926 0.02048 0.61097 0.0
O347 O 0.53601 0.98332 0.58757 0.0
O348 O 0.50378 0.9702 0.69008 0.0
O349 O 0.54979 0.05919 0.70272 0.0
O350 O 0.54377 0.03709 0.78179 0.0
O351 O 0.53678 0.99092 0.72469 0.0
C352 C 0.44969 0.97906 0.49509 0.0
C353 C 0.45118 0.98625 0.43349 0.0
C354 C 0.4183 0.00677 0.50834 0.0
C355 C 0.43722 1.00443 0.41058 0.0
C356 C 0.43204 0.98852 0.53101 0.0
C357 C 0.42161 0.01564 0.44903 0.0
C358 C 0.47025 0.96797 0.52591 0.0
C359 C 0.55259 1.00001 0.58555 0.0
H360 H 0.57607 0.01572 0.70562 0.0
H361 H 0.63729 0.06465 0.81721 0.0
H362 H 0.61664 1.00386 0.70678 0.0
H363 H 0.59566 0.07699 0.81417 0.0
H364 H 0.46466 0.97937 0.40485 0.0
H365 H 0.40587 0.01473 0.53826 0.0
H366 H 0.43989 0.01084 0.36437 0.0
H367 H 0.43018 0.98335 0.57854 0.0
Eu368 Eu 0.49537 0.52213 0.7008 0.0
Eu369 Eu 0.54218 0.5062 0.62928 0.0
C370 C 0.54616 0.52311 0.76757 0.0
C371 C 0.44303 0.55716 0.75099 0.0
C372 C 0.45345 0.57957 0.74232 0.0
C373 C 0.40518 0.57511 0.7658 0.0
C374 C 0.44014 0.59964 0.74847 0.0
C375 C 0.41866 0.55499 0.76056 0.0
C376 C 0.41598 0.59773 0.7625 0.0
C377 C 0.45769 0.53622 0.75421 0.0
O378 O 0.53152 0.47391 0.684 0.0
O379 O 0.49347 0.4825 0.70849 0.0
C380 C 0.5109 0.46773 0.70635 0.0
O381 O 0.48619 0.52185 0.5992 0.0
O382 O 0.57827 0.49363 0.63715 0.0
O383 O 0.56284 0.502 0.54756 0.0
O384 O 0.51064 0.49291 0.57079 0.0
C385 C 0.49184 0.50559 0.56012 0.0
O386 O 0.51253 0.55657 0.66988 0.0
O387 O 0.53512 0.54268 0.593 0.0
O388 O 0.55432 0.52731 0.71286 0.0
O389 O 0.45677 0.52251 0.70624 0.0
O390 O 0.47924 0.53951 0.77679 0.0
O391 O 0.52417 0.5156 0.77298 0.0
C392 C 0.58917 0.47033 0.55461 0.0
C393 C 0.57416 0.45507 0.5197 0.0
C394 C 0.62057 0.44213 0.5497 0.0
C395 C 0.58234 0.43363 0.4995 0.0
C396 C 0.61241 0.46374 0.56947 0.0
C397 C 0.60559 0.42679 0.51458 0.0
C398 C 0.58057 0.49265 0.57792 0.0
C399 C 0.52493 0.56011 0.6204 0.0
H400 H 0.4722 0.58166 0.73395 0.0
H401 H 0.38655 0.5729 0.77518 0.0
H402 H 0.44934 0.6166 0.74633 0.0
H403 H 0.41025 0.53777 0.76638 0.0
H404 H 0.55608 0.45967 0.50801 0.0
H405 H 0.63849 0.43733 0.56249 0.0
H406 H 0.57047 0.42253 0.47136 0.0
H407 H 0.62418 0.47523 0.59687 0.0
Eu408 Eu 0.02609 0.53123 0.62297 0.0
Eu409 Eu 0.00971 0.49042 0.7191 0.0
C410 C 0.06515 0.50321 0.70354 0.0
C411 C 0.06406 0.55425 0.50394 0.0
C412 C 0.06027 0.54385 0.44578 0.0
C413 C 0.10476 0.54149 0.50541 0.0
C414 C 0.07818 0.53124 0.41943 0.0
C415 C 0.08697 0.5542 0.53155 0.0
C416 C 0.10012 0.52894 0.4508 0.0
C417 C 0.04356 0.55958 0.54148 0.0
O418 O 1.0019 0.52452 0.76666 0.0
O419 O 0.02598 0.55015 0.71419 0.0
C420 C 0.01323 0.54496 0.76201 0.0
O421 O 0.98683 0.53635 0.62884 0.0
O422 O 0.01214 0.47376 0.80927 0.0
O423 O 0.98698 0.45991 0.74084 0.0
O424 O 0.97724 0.49885 0.65991 0.0
C425 C 0.97108 0.51917 0.63607 0.0
O426 O 0.01847 0.49788 0.56778 0.0
O427 O 0.02545 0.47023 0.64204 0.0
O428 O 0.04861 0.49686 0.74162 0.0
O429 O 0.02453 0.54643 0.53068 0.0
O430 O 0.04812 0.56202 0.60029 0.0
O431 O 0.05971 0.51252 0.64983 0.0
C432 C 0.97346 0.46574 0.84126 0.0
C433 C 0.9499 0.46682 0.81834 0.0
C434 C 0.9624 0.48654 0.93271 0.0
C435 C 0.93313 0.47875 0.8509 0.0
C436 C 0.9791 0.4744 0.90052 0.0
C437 C 0.93965 0.48979 0.90673 0.0
C438 C 0.99279 0.46105 0.79931 0.0
C439 C 0.02322 0.47616 0.58385 0.0
H440 H 0.04289 0.54372 0.42314 0.0
H441 H 0.12178 0.54045 0.52956 0.0
H442 H 0.07428 0.52185 0.3769 0.0
H443 H 0.09069 0.56228 0.57593 0.0
H444 H 0.94485 0.46017 0.77308 0.0
H445 H 0.96766 0.49452 0.97637 0.0
H446 H 0.91563 0.48092 0.83008 0.0
H447 H 0.997 0.47361 0.91976 0.0
C448 C 0.16741 0.04243 0.37973 0.0
C449 C 0.16493 0.03053 0.32319 0.0
C450 C 0.14971 0.04091 0.42373 0.0
C451 C 0.12873 0.02721 0.41141 0.0
C452 C 0.12587 0.01545 0.35412 0.0
C453 C 0.14392 0.01725 0.31084 0.0
C454 C 0.15348 0.05406 0.48355 0.0
C455 C 0.10378 1.00078 0.33873 0.0
C456 C 0.09331 1.00509 0.54809 0.0
C457 C 0.07456 0.02081 0.54873 0.0
C458 C 0.11087 0.00689 0.50368 0.0
C459 C 0.10999 0.02503 0.45883 0.0
C460 C 0.09139 0.04123 0.46003 0.0
C461 C 0.07382 0.03878 0.50428 0.0
C462 C 0.13035 0.98926 0.50459 0.0
C463 C 0.08974 0.06094 0.41379 0.0
H464 H 0.18318 0.05328 0.38954 0.0
H465 H 0.14172 0.0079 0.26768 0.0
H466 H 0.13903 0.0666 0.48914 0.0
H467 H 0.15285 0.04152 0.52268 0.0
H468 H 0.17071 0.06401 0.48623 0.0
H469 H 0.10418 0.99269 0.29244 0.0
H470 H 0.10162 0.98656 0.37331 0.0
H471 H 0.08798 0.01187 0.34048 0.0
H472 H 0.09409 0.99104 0.58182 0.0
H473 H 0.05946 0.05104 0.50398 0.0
H474 H 0.14785 0.99852 0.51031 0.0
H475 H 0.1302 0.97977 0.46014 0.0
H476 H 0.12853 0.97613 0.54219 0.0
H477 H 0.10706 0.07045 0.41006 0.0
H478 H 0.0762 0.07382 0.42557 0.0
H479 H 0.08496 0.05332 0.36814 0.0
C480 C 0.47075 0.15599 0.34484 0.0
C481 C 0.48843 0.15619 0.30102 0.0
C482 C 0.46972 0.13845 0.39066 0.0
C483 C 0.48702 0.12087 0.39352 0.0
C484 C 0.50461 0.12074 0.34868 0.0
C485 C 0.50501 0.13826 0.30296 0.0
C486 C 0.45059 0.13926 0.43715 0.0
C487 C 0.52351 0.10247 0.3501 0.0
C488 C 0.50301 0.08963 0.544 0.0
C489 C 0.49307 0.06702 0.53367 0.0
C490 C 0.50051 0.10757 0.49964 0.0
C491 C 0.48739 0.10293 0.44409 0.0
C492 C 0.47618 0.0805 0.4351 0.0
C493 C 0.47931 0.06279 0.47969 0.0
C494 C 0.51289 0.13114 0.51097 0.0
C495 C 0.46128 0.07508 0.37774 0.0
H496 H 0.45783 0.16973 0.34368 0.0
H497 H 0.51899 0.13847 0.2701 0.0
H498 H 0.44359 0.1213 0.44752 0.0
H499 H 0.45814 0.14687 0.48062 0.0
H500 H 0.43568 0.15027 0.421 0.0
H501 H 0.53579 0.10463 0.3116 0.0
H502 H 0.53399 0.1037 0.39407 0.0
H503 H 0.5152 0.08454 0.34769 0.0
H504 H 0.5137 0.09301 0.58548 0.0
H505 H 0.47125 0.04544 0.47187 0.0
H506 H 0.5001 0.14549 0.50562 0.0
H507 H 0.52664 0.13418 0.47639 0.0
H508 H 0.52149 0.13233 0.55754 0.0
H509 H 0.44596 0.08686 0.37516 0.0
H510 H 0.45455 0.05652 0.37648 0.0
H511 H 0.47174 0.07849 0.33628 0.0
C512 C 0.41291 0.49578 0.24222 0.0
C513 C 0.39057 0.48646 0.2572 0.0
C514 C 0.43138 0.49815 0.28732 0.0
C515 C 0.42749 0.49069 0.34853 0.0
C516 C 0.40525 0.48034 0.36296 0.0
C517 C 0.38712 0.47847 0.31738 0.0
C518 C 0.45473 0.50944 0.27006 0.0
C519 C 0.40031 0.47185 0.42719 0.0
C520 C 0.47807 0.48186 0.467 0.0
C521 C 0.47677 0.50217 0.50314 0.0
C522 C 0.46268 0.47815 0.41529 0.0
C523 C 0.44579 0.49527 0.39886 0.0
C524 C 0.44507 0.51617 0.4339 0.0
C525 C 0.46041 0.51929 0.48556 0.0
C526 C 0.46393 0.45555 0.37956 0.0
C527 C 0.42757 0.53503 0.41795 0.0
H528 H 0.41568 0.50196 0.19581 0.0
H529 H 0.37002 0.47084 0.32899 0.0
H530 H 0.45733 0.52658 0.29402 0.0
H531 H 0.46958 0.49821 0.28508 0.0
H532 H 0.45564 0.51256 0.21981 0.0
H533 H 0.38276 0.46262 0.42984 0.0
H534 H 0.41421 0.4597 0.44356 0.0
H535 H 0.40077 0.48706 0.45907 0.0
H536 H 0.49064 0.46855 0.48009 0.0
H537 H 0.4594 0.53519 0.51257 0.0
H538 H 0.4653 0.45937 0.32982 0.0
H539 H 0.4474 0.44483 0.38529 0.0
H540 H 0.47923 0.44491 0.39491 0.0
H541 H 0.4288 0.54014 0.36894 0.0
H542 H 0.43052 0.55104 0.44668 0.0
H543 H 0.40928 0.52807 0.42457 0.0
C544 C 0.05913 0.38929 0.31481 0.0
C545 C 0.04237 0.37091 0.30306 0.0
C546 C 0.05534 0.40685 0.35853 0.0
C547 C 0.03426 0.40615 0.39196 0.0
C548 C 0.01688 0.38815 0.37893 0.0
C549 C 0.02112 0.37079 0.33475 0.0
C550 C 0.07438 0.42567 0.37021 0.0
C551 C 0.99401 0.38691 0.41273 0.0
C552 C 0.03572 0.43626 0.54893 0.0
C553 C 0.02567 0.45805 0.5351 0.0
C554 C 0.03852 0.41925 0.50297 0.0
C555 C 0.03077 0.42387 0.44161 0.0
C556 C 0.02035 0.44572 0.42752 0.0
C557 C 0.01811 0.46255 0.47416 0.0
C558 C 0.05014 0.39644 0.51993 0.0
C559 C 0.01182 0.45144 0.3629 0.0
H560 H 0.07545 0.38986 0.29004 0.0
H561 H 1.0081 0.35666 0.32656 0.0
H562 H 0.08419 0.42174 0.41387 0.0
H563 H 0.08718 0.42654 0.33269 0.0
H564 H 0.06665 0.44327 0.37492 0.0
H565 H 0.98172 0.37268 0.395 0.0
H566 H 0.99783 0.38371 0.46231 0.0
H567 H 0.98497 0.40395 0.40874 0.0
H568 H 0.04177 0.4326 0.59565 0.0
H569 H 0.01026 0.47926 0.46279 0.0
H570 H 0.06651 0.39472 0.49376 0.0
H571 H 0.03815 0.38128 0.50724 0.0
H572 H 0.05485 0.3953 0.56977 0.0
H573 H 0.02697 0.45169 0.33181 0.0
H574 H 1.00322 0.46876 0.35983 0.0
H575 H 0.99898 0.43759 0.34591 0.0
C576 C 0.87164 0.00614 0.9849 0.0
C577 C 0.87589 0.99094 0.03505 0.0
C578 C 0.88818 0.00931 0.93817 0.0
C579 C 0.90939 0.99656 0.94013 0.0
C580 C 0.91396 0.98141 0.99081 0.0
C581 C 0.89745 0.97909 0.03774 0.0
C582 C 0.88284 0.02629 0.88643 0.0
C583 C 0.93636 0.96757 0.996 0.0
C584 C 0.94141 0.98773 0.78933 0.0
C585 C 0.96123 1.00304 0.79696 0.0
C586 C 0.92451 0.9853 0.83553 0.0
C587 C 0.9269 0.99921 0.88968 0.0
C588 C 0.9465 0.01526 0.89635 0.0
C589 C 0.96356 0.01662 0.85072 0.0
C590 C 0.90423 0.96762 0.82647 0.0
C591 C 0.94955 0.03104 0.95185 0.0
H592 H 0.85508 0.01522 0.98107 0.0
H593 H 0.90151 0.96778 0.07657 0.0
H594 H 0.89807 0.03882 0.88074 0.0
H595 H 0.88012 0.01647 0.84273 0.0
H596 H 0.86675 0.03648 0.89431 0.0
H597 H 0.93447 0.95231 0.02769 0.0
H598 H 0.94141 0.96105 0.95054 0.0
H599 H 0.95109 0.97914 0.01422 0.0
H600 H 0.93955 0.97705 0.74822 0.0
H601 H 0.97874 0.02862 0.8569 0.0
H602 H 0.88786 0.977 0.81346 0.0
H603 H 0.9009 0.95778 0.86958 0.0
H604 H 0.90761 0.95481 0.78961 0.0
H605 H 0.93287 0.04021 0.95994 0.0
H606 H 0.96407 0.04446 0.94677 0.0
H607 H 0.95364 0.02028 0.9932 0.0
C608 C 0.51979 0.89698 0.03465 0.0
C609 C 0.52794 0.87395 0.02993 0.0
C610 C 0.52179 0.91317 0.98598 0.0
C611 C 0.53243 0.90636 0.93109 0.0
C612 C 0.54212 0.88369 0.92752 0.0
C613 C 0.5397 0.86775 0.97681 0.0
C614 C 0.51129 0.93715 0.99211 0.0
C615 C 0.55387 0.87578 0.87027 0.0
C616 C 0.50911 0.93633 0.78541 0.0
C617 C 0.5263 0.95426 0.77628 0.0
C618 C 0.51126 0.92036 0.83459 0.0
C619 C 0.5312 0.92209 0.87577 0.0
C620 C 0.54907 0.93958 0.8656 0.0
C621 C 0.54636 0.95552 0.81625 0.0
C622 C 0.49171 0.90207 0.84363 0.0
C623 C 0.57076 0.94187 0.90781 0.0
H624 H 0.51109 0.90215 0.07587 0.0
H625 H 0.54593 0.85 0.97226 0.0
H626 H 0.5244 0.95117 0.97988 0.0
H627 H 0.49582 0.9386 0.95967 0.0
H628 H 0.50538 0.94046 0.03933 0.0
H629 H 0.56325 0.85903 0.87759 0.0
H630 H 0.54028 0.8731 0.83276 0.0
H631 H 0.56674 0.88948 0.85466 0.0
H632 H 0.49352 0.93513 0.75507 0.0
H633 H 0.5598 0.96923 0.80967 0.0
H634 H 0.48326 0.90513 0.88802 0.0
H635 H 0.49912 0.88421 0.84564 0.0
H636 H 0.47782 0.90243 0.8063 0.0
H637 H 0.56553 0.94753 0.95397 0.0
H638 H 0.58404 0.95487 0.89051 0.0
H639 H 0.57921 0.92458 0.91344 0.0
C640 C 0.62578 0.55905 0.06697 0.0
C641 C 0.64345 0.54273 0.08047 0.0
C642 C 0.60885 0.5552 0.01893 0.0
C643 C 0.60931 0.53436 0.98354 0.0
C644 C 0.62629 0.51722 0.9989 0.0
C645 C 0.64317 0.52163 0.04698 0.0
C646 C 0.59108 0.57393 1.00442 0.0
C647 C 0.62729 0.49466 0.96285 0.0
C648 C 0.55502 0.5182 0.88095 0.0
C649 C 0.56209 0.52625 0.82313 0.0
C650 C 0.57023 0.52047 0.93337 0.0
C651 C 0.59302 0.53125 0.9282 0.0
C652 C 0.6002 0.5395 0.87003 0.0
C653 C 0.58474 0.53682 0.81833 0.0
C654 C 0.56194 0.51124 0.99429 0.0
C655 C 0.62423 0.55129 0.86239 0.0
H656 H 0.62551 0.57522 0.09318 0.0
H657 H 0.6568 0.50897 0.05644 0.0
H658 H 0.59427 0.58146 0.95825 0.0
H659 H 0.57283 0.56615 1.00316 0.0
H660 H 0.59212 0.58848 0.03845 0.0
H661 H 0.64001 0.4822 0.98396 0.0
H662 H 0.6095 0.48584 0.95936 0.0
H663 H 0.63272 0.49869 0.91541 0.0
H664 H 0.53765 0.50986 0.88522 0.0
H665 H 0.59042 0.54312 0.77403 0.0
H666 H 0.56188 0.5258 0.02808 0.0
H667 H 0.57437 0.498 0.01278 0.0
H668 H 0.54387 0.50299 0.99057 0.0
H669 H 0.6261 0.5671 0.89215 0.0
H670 H 0.62716 0.55675 0.81415 0.0
H671 H 0.63836 0.53914 0.87711 0.0
C672 C 0.02403 0.6359 0.04861 0.0
C673 C 1.00212 0.64629 0.05687 0.0
C674 C 0.02697 0.61945 1.00115 0.0
C675 C 1.00761 0.61331 0.96048 0.0
C676 C 0.98556 0.62401 0.9682 0.0
C677 C 0.98313 0.64026 0.01599 0.0
C678 C 0.05082 0.60868 0.99446 0.0
C679 C 0.96453 0.619 0.925 0.0
C680 C 0.01741 0.58642 0.80281 0.0
C681 C 0.01195 0.56245 0.81277 0.0
C682 C 0.01642 0.60305 0.85051 0.0
C683 C 0.01019 0.5956 0.91019 0.0
C684 C 1.00515 0.57133 0.92081 0.0
C685 C 1.00588 0.55515 0.87203 0.0
C686 C 0.02185 0.62867 0.83686 0.0
C687 C 0.99952 0.56223 0.98403 0.0
H688 H 0.03882 0.64042 0.07977 0.0
H689 H 0.96629 0.64864 0.02061 0.0
H690 H 0.04923 0.58934 1.00132 0.0
H691 H 0.05712 0.61174 0.94733 0.0
H692 H 0.06436 0.61598 0.02796 0.0
H693 H 0.94758 0.62272 0.94692 0.0
H694 H 0.966 0.63057 0.88408 0.0
H695 H 0.96382 0.60051 0.90881 0.0
H696 H 0.02216 0.59228 0.75734 0.0
H697 H 1.00205 0.53663 0.88068 0.0
H698 H 0.03577 0.63571 0.86957 0.0
H699 H 1.00577 0.63903 0.84302 0.0
H700 H 0.02787 0.63147 0.78931 0.0
H701 H 0.01618 0.56143 0.01227 0.0
H702 H 0.99124 0.54425 0.98241 0.0
H703 H 0.98763 0.57414 1.00774 0.0
C704 C 0.11121 0.1639 0.28602 0.0
C705 C 0.10661 0.17363 0.22782 0.0
C706 C 0.09717 0.145 0.3075 0.0
C707 C 0.0778 0.1362 0.27041 0.0
C708 C 0.07458 0.14444 0.2095 0.0
C709 C 0.08918 0.16293 0.18877 0.0
C710 C 0.10165 0.13597 0.37196 0.0
C711 C 0.05403 0.13581 0.16855 0.0
C712 C 0.04108 0.08394 0.32746 0.0
C713 C 0.02378 0.09533 0.36023 0.0
C714 C 0.05861 0.09695 0.29668 0.0
C715 C 0.05869 0.12183 0.29873 0.0
C716 C 0.04053 0.13336 0.32903 0.0
C717 C 0.02334 0.11996 0.35948 0.0
C718 C 0.07753 0.08414 0.26405 0.0
C719 C 0.03955 0.15991 0.3306 0.0
H720 H 0.12473 0.17207 0.31615 0.0
H721 H 0.08526 0.17053 0.14397 0.0
H722 H 0.08813 0.14285 0.40244 0.0
H723 H 0.10009 0.11646 0.37319 0.0
H724 H 0.11946 0.1416 0.39065 0.0
H725 H 0.05682 0.14019 0.11952 0.0
H726 H 0.05105 0.11651 0.17287 0.0
H727 H 0.03765 0.14435 0.18259 0.0
H728 H 0.0416 0.06488 0.32826 0.0
H729 H 0.00973 0.1288 0.38374 0.0
H730 H 0.09478 0.08686 0.28932 0.0
H731 H 0.0797 0.09131 0.2171 0.0
H732 H 0.07347 0.06492 0.26064 0.0
H733 H 0.05547 0.16732 0.35578 0.0
H734 H 0.02355 0.16605 0.35329 0.0
H735 H 0.03963 0.16715 0.28323 0.0
C736 C 0.35694 0.12694 0.30534 0.0
C737 C 0.33298 0.12095 0.31436 0.0
C738 C 0.37497 0.11508 0.33756 0.0
C739 C 0.36873 0.0972 0.37988 0.0
C740 C 0.34494 0.09438 0.39722 0.0
C741 C 0.32732 0.10638 0.36439 0.0
C742 C 0.40033 0.1196 0.32037 0.0
C743 C 0.33757 0.07604 0.44378 0.0
C744 C 0.39774 0.03827 0.37207 0.0
C745 C 0.40982 0.03737 0.42902 0.0
C746 C 0.3853 0.05828 0.35432 0.0
C747 C 0.38525 0.07796 0.3943 0.0
C748 C 0.39869 0.07768 0.45024 0.0
C749 C 0.41065 0.05725 0.46725 0.0
C750 C 0.37123 0.05785 0.29404 0.0
C751 C 0.39971 0.0984 0.49349 0.0
H752 H 0.3616 0.139 0.26871 0.0
H753 H 0.30901 0.10177 0.37317 0.0
H754 H 0.41277 0.11608 0.35953 0.0
H755 H 0.40454 0.10772 0.28218 0.0
H756 H 0.40322 0.13805 0.30459 0.0
H757 H 0.31927 0.07859 0.45905 0.0
H758 H 0.33828 0.05827 0.42298 0.0
H759 H 0.34982 0.0765 0.48464 0.0
H760 H 0.39727 0.02296 0.34243 0.0
H761 H 0.42058 0.05677 0.51072 0.0
H762 H 0.37637 0.07325 0.26548 0.0
H763 H 0.35206 0.05903 0.30276 0.0
H764 H 0.3739 0.04156 0.26736 0.0
H765 H 0.39844 0.11536 0.46833 0.0
H766 H 0.41634 0.09872 0.5223 0.0
H767 H 0.38465 0.09691 0.52474 0.0
C768 C 0.61864 0.3303 0.28036 0.0
C769 C 0.623 0.30716 0.29925 0.0
C770 C 0.62182 0.34915 0.32115 0.0
C771 C 0.62994 0.34481 0.38221 0.0
C772 C 0.63701 0.32195 0.39952 0.0
C773 C 0.63316 0.30324 0.35795 0.0
C774 C 0.61393 0.37321 0.30062 0.0
C775 C 0.64679 0.31683 0.4633 0.0
C776 C 0.63678 0.40233 0.46836 0.0
C777 C 0.61405 0.404 0.49183 0.0
C778 C 0.64334 0.38192 0.43777 0.0
C779 C 0.62655 0.36314 0.42921 0.0
C780 C 0.60437 0.36398 0.45738 0.0
C781 C 0.59855 0.38427 0.48903 0.0
C782 C 0.66755 0.38123 0.41085 0.0
C783 C 0.58591 0.34431 0.44964 0.0
H784 H 0.61057 0.33351 0.23536 0.0
H785 H 0.63687 0.28542 0.3725 0.0
H786 H 0.59764 0.37766 0.32463 0.0
H787 H 0.6277 0.38687 0.31273 0.0
H788 H 0.61006 0.37405 0.25033 0.0
H789 H 0.6576 0.3008 0.46394 0.0
H790 H 0.65783 0.33189 0.48156 0.0
H791 H 0.63193 0.31375 0.49458 0.0
H792 H 0.64901 0.4174 0.47072 0.0
H793 H 0.58131 0.3851 0.50915 0.0
H794 H 0.6663 0.38629 0.36166 0.0
H795 H 0.67464 0.36323 0.41371 0.0
H796 H 0.68029 0.39369 0.43465 0.0
H797 H 0.57982 0.34317 0.40071 0.0
H798 H 0.57024 0.34701 0.47796 0.0
H799 H 0.59358 0.32717 0.46245 0.0
C800 C 0.21068 0.46063 0.34647 0.0
C801 C 0.20503 0.44026 0.31209 0.0
C802 C 0.19316 0.47268 0.37619 0.0
C803 C 0.16944 0.46403 0.37185 0.0
C804 C 0.16397 0.44233 0.34211 0.0
C805 C 0.18185 0.43072 0.31211 0.0
C806 C 0.19974 0.49581 0.40729 0.0
C807 C 0.13896 0.43228 0.33798 0.0
C808 C 0.12675 0.49543 0.4715 0.0
C809 C 0.11731 0.51187 0.42989 0.0
C810 C 0.14304 0.479 0.4528 0.0
C811 C 0.15024 0.47932 0.39127 0.0
C812 C 0.14039 0.49561 0.34881 0.0
C813 C 0.12387 0.51161 0.36861 0.0
C814 C 0.15282 0.46162 0.499 0.0
C815 C 0.14785 0.49665 0.2829 0.0
H816 H 0.22846 0.46832 0.34601 0.0
H817 H 0.17747 0.41488 0.28602 0.0
H818 H 0.19241 0.51049 0.37954 0.0
H819 H 0.19199 0.49658 0.45329 0.0
H820 H 0.21923 0.49872 0.41262 0.0
H821 H 0.13829 0.41361 0.32281 0.0
H822 H 0.13049 0.43344 0.38302 0.0
H823 H 0.12835 0.44271 0.30446 0.0
H824 H 0.12124 0.49533 0.51871 0.0
H825 H 0.1165 0.5243 0.33654 0.0
H826 H 0.17216 0.4649 0.50633 0.0
H827 H 0.15024 0.4434 0.48124 0.0
H828 H 0.14428 0.46277 0.54405 0.0
H829 H 0.16707 0.50118 0.28145 0.0
H830 H 0.13798 0.50989 0.2554 0.0
H831 H 0.14494 0.47917 0.26092 0.0
C832 C 0.92602 0.82727 0.96941 0.0
C833 C 0.92297 0.82611 0.03312 0.0
C834 C 0.93678 0.8472 0.94267 0.0
C835 C 0.94362 0.86666 0.98023 0.0
C836 C 0.9366 0.86722 0.04178 0.0
C837 C 0.92662 0.84683 0.06781 0.0
C838 C 0.94345 0.84614 0.87628 0.0
C839 C 0.94246 0.88821 0.08246 0.0
C840 C 1.00404 0.89542 0.95896 0.0
C841 C 0.99829 0.91665 0.93025 0.0
C842 C 0.98634 0.87883 0.97394 0.0
C843 C 0.96225 0.88367 0.96017 0.0
C844 C 0.9563 0.90492 0.93034 0.0
C845 C 0.97443 0.92121 0.91576 0.0
C846 C 0.99345 0.85619 1.00525 0.0
C847 C 0.93088 0.91069 0.91474 0.0
H848 H 0.92212 0.81184 0.94132 0.0
H849 H 0.92414 0.84666 0.11685 0.0
H850 H 0.9414 0.86345 0.8533 0.0
H851 H 0.96234 0.8415 0.87411 0.0
H852 H 0.93259 0.83263 0.8504 0.0
H853 H 0.93184 0.88785 0.12445 0.0
H854 H 0.9615 0.88812 0.09681 0.0
H855 H 0.93929 0.90491 0.05736 0.0
H856 H 0.02243 0.89188 0.97034 0.0
H857 H 0.96995 0.9374 0.8922 0.0
H858 H 0.98595 0.84081 0.97912 0.0
H859 H 0.98621 0.85534 0.05194 0.0
H860 H 0.01299 0.8546 1.00954 0.0
H861 H 0.92966 0.92503 0.88011 0.0
H862 H 0.92227 0.91646 0.9569 0.0
H863 H 0.92069 0.89503 0.89694 0.0
C864 C 0.70139 0.93177 0.86386 0.0
C865 C 0.72472 0.93591 0.88589 0.0
C866 C 0.69021 0.94828 0.82571 0.0
C867 C 0.70285 0.96914 0.80914 0.0
C868 C 0.72747 0.97121 0.82204 0.0
C869 C 0.73819 0.95453 0.86056 0.0
C870 C 0.66405 0.94495 0.81059 0.0
C871 C 0.74181 0.99262 0.80263 0.0
C872 C 0.66423 0.01167 0.7211 0.0
C873 C 0.65392 0.02327 0.76992 0.0
C874 C 0.68194 0.99525 0.73222 0.0
C875 C 0.68934 0.99045 0.79348 0.0
C876 C 0.681 1.0042 0.84205 0.0
C877 C 0.66338 0.02052 0.82957 0.0
C878 C 0.69091 0.98165 0.67887 0.0
C879 C 0.68888 1.00005 0.90812 0.0
H880 H 0.69113 0.91701 0.88183 0.0
H881 H 0.75637 0.95782 0.8765 0.0
H882 H 0.65397 0.95654 0.8405 0.0
H883 H 0.65995 0.94997 0.76223 0.0
H884 H 0.6578 0.92646 0.81791 0.0
H885 H 0.76095 0.9888 0.80114 0.0
H886 H 0.73563 0.99908 0.75687 0.0
H887 H 0.73974 0.00698 0.83627 0.0
H888 H 0.65719 0.01409 0.67465 0.0
H889 H 0.65547 0.02941 0.86739 0.0
H890 H 0.67945 0.96565 0.67124 0.0
H891 H 0.70934 0.97597 0.68764 0.0
H892 H 0.6902 0.99233 0.63604 0.0
H893 H 0.68214 0.9825 0.92335 0.0
H894 H 0.68229 0.01358 0.93949 0.0
H895 H 0.70849 1.00014 0.91267 0.0
C896 C 0.42574 0.69061 0.98552 0.0
C897 C 0.4115 0.70993 0.99423 0.0
C898 C 0.42044 0.67441 0.93871 0.0
C899 C 0.39997 0.67728 0.90023 0.0
C900 C 0.38523 0.69666 0.90928 0.0
C901 C 0.39148 0.71312 0.95571 0.0
C902 C 0.43695 0.65426 0.93041 0.0
C903 C 0.36315 0.70028 0.86993 0.0
C904 C 0.40997 0.64139 0.76083 0.0
C905 C 0.4037 0.61897 0.78358 0.0
C906 C 0.40584 0.66171 0.79474 0.0
C907 C 0.39461 0.65947 0.85158 0.0
C908 C 0.38427 0.63753 0.86843 0.0
C909 C 0.38925 0.61739 0.83477 0.0
C910 C 0.41644 0.68497 0.77406 0.0
C911 C 0.37088 0.63472 0.92686 0.0
H912 H 0.44146 0.68848 0.01479 0.0
H913 H 0.38063 0.72827 0.96234 0.0
H914 H 0.42743 0.63724 0.93858 0.0
H915 H 0.44319 0.6541 0.88267 0.0
H916 H 0.45271 0.65538 0.96233 0.0
H917 H 0.35023 0.71093 0.89423 0.0
H918 H 0.36797 0.70995 0.82761 0.0
H919 H 0.35442 0.68327 0.85605 0.0
H920 H 0.42007 0.64293 0.71953 0.0
H921 H 0.38381 0.60033 0.85264 0.0
H922 H 0.43313 0.68879 0.80108 0.0
H923 H 0.40424 0.69947 0.78224 0.0
H924 H 0.42059 0.68476 0.72458 0.0
H925 H 0.38369 0.63334 0.96641 0.0
H926 H 0.3593 0.61856 0.92584 0.0
H927 H 0.35986 0.65023 0.93453 0.0
C928 C 0.84736 0.58593 1.00515 0.0
C929 C 0.84482 0.58467 0.06889 0.0
C930 C 0.86406 0.5723 0.9763 0.0
C931 C 0.8783 0.55703 0.01218 0.0
C932 C 0.87681 0.55678 0.07679 0.0
C933 C 0.86012 0.57062 0.10433 0.0
C934 C 0.86556 0.57329 0.90729 0.0
C935 C 0.89174 0.54074 0.11663 0.0
C936 C 0.89987 0.50094 0.94205 0.0
C937 C 0.9238 0.50679 0.93407 0.0
C938 C 0.8847 0.51734 0.96639 0.0
C939 C 0.89373 0.54012 0.98242 0.0
C940 C 0.91778 0.54622 0.97343 0.0
C941 C 0.93256 0.52945 0.94935 0.0
C942 C 0.85914 0.51018 0.97596 0.0
C943 C 0.92789 0.57039 0.98957 0.0
H944 H 0.83566 0.59685 0.97764 0.0
H945 H 0.85801 0.56913 0.15347 0.0
H946 H 0.88427 0.57554 0.89398 0.0
H947 H 0.8586 0.55644 0.88722 0.0
H948 H 0.85522 0.58789 0.88687 0.0
H949 H 0.88969 0.54398 0.1664 0.0
H950 H 0.88655 0.52211 0.10673 0.0
H951 H 0.91074 0.54312 0.10617 0.0
H952 H 0.89311 0.48344 0.92993 0.0
H953 H 0.95094 0.53417 0.9415 0.0
H954 H 0.84725 0.52258 0.95154 0.0
H955 H 0.85536 0.51108 0.02554 0.0
H956 H 0.85476 0.49204 0.9594 0.0
H957 H 0.91801 0.58403 0.9637 0.0
H958 H 0.94689 0.5723 0.97911 0.0
H959 H 0.92592 0.57389 0.03917 0.0
C960 C 0.04668 0.18625 0.8589 0.0
C961 C 0.02923 0.19072 0.90168 0.0
C962 C 0.04645 0.16512 0.82511 0.0
C963 C 0.0287 0.1475 0.835 0.0
C964 C 0.01086 0.15191 0.87734 0.0
C965 C 0.01116 0.17346 0.90935 0.0
C966 C 0.06555 0.16145 0.7796 0.0
C967 C 0.99172 0.13359 0.88998 0.0
C968 C 0.01548 0.09851 0.71754 0.0
C969 C 0.02825 0.07973 0.7427 0.0
C970 C 0.01597 0.12076 0.74609 0.0
C971 C 0.02906 0.12429 0.80217 0.0
C972 C 0.04215 0.10543 0.82749 0.0
C973 C 0.04181 0.08352 0.79715 0.0
C974 C 1.00223 0.14043 0.71651 0.0
C975 C 0.056 0.10819 0.88767 0.0
H976 H 0.06108 0.19896 0.85288 0.0
H977 H 0.99724 0.17662 0.941 0.0
H978 H 0.07686 0.14683 0.79531 0.0
H979 H 0.05748 0.15636 0.73422 0.0
H980 H 0.077 0.17748 0.77363 0.0
H981 H 0.97917 0.1396 0.92439 0.0
H982 H 0.98157 0.12909 0.84692 0.0
H983 H 0.99987 0.11718 0.90717 0.0
H984 H 1.00502 0.09581 0.67536 0.0
H985 H 0.05152 0.06908 0.81735 0.0
H986 H 0.01405 0.15616 0.71028 0.0
H987 H 0.98794 0.14566 0.74685 0.0
H988 H 0.99413 0.13531 0.67113 0.0
H989 H 0.06923 0.12292 0.88456 0.0
H990 H 0.06538 0.09195 0.90111 0.0
H991 H 0.04385 0.11263 0.92459 0.0
C992 C 0.35188 0.00712 0.90629 0.0
C993 C 0.34095 0.02888 0.91256 0.0
C994 C 0.37289 1.00515 0.87351 0.0
C995 C 0.38339 0.02536 0.84575 0.0
C996 C 0.37239 0.0473 0.85148 0.0
C997 C 0.35154 0.04881 0.88483 0.0
C998 C 0.38395 0.98139 0.86882 0.0
C999 C 0.3828 0.06935 0.82281 0.0
C1000 C 0.44932 0.02589 0.8088 0.0
C1001 C 0.44866 0.02098 0.74556 0.0
C1002 C 0.42833 0.02722 0.84185 0.0
C1003 C 0.40594 0.02369 0.8112 0.0
C1004 C 0.40515 0.01894 0.74727 0.0
C1005 C 0.4264 0.0176 0.71542 0.0
C1006 C 0.43014 0.03228 0.90985 0.0
C1007 C 0.38181 0.01522 0.71234 0.0
H1008 H 0.34395 0.9915 0.92674 0.0
H1009 H 0.34381 0.06587 0.89022 0.0
H1010 H 0.38515 0.9764 0.81986 0.0
H1011 H 0.40228 0.98225 0.88887 0.0
H1012 H 0.37372 0.96736 0.89286 0.0
H1013 H 0.37183 0.08495 0.8299 0.0
H1014 H 0.40084 0.07311 0.84276 0.0
H1015 H 0.38455 0.06675 0.77273 0.0
H1016 H 0.4663 0.02842 0.83289 0.0
H1017 H 0.42552 0.01384 0.66666 0.0
H1018 H 0.42151 0.0177 0.93562 0.0
H1019 H 0.42064 0.04856 0.91998 0.0
H1020 H 0.4488 0.0345 0.92712 0.0
H1021 H 0.37173 1.00017 0.73233 0.0
H1022 H 0.38414 0.0117 0.66281 0.0
H1023 H 0.37091 0.03102 0.71657 0.0
C1024 C 0.49372 0.33678 0.85367 0.0
C1025 C 0.5093 0.33601 0.90508 0.0
C1026 C 0.49192 0.35745 0.81779 0.0
C1027 C 0.5057 0.37789 0.83449 0.0
C1028 C 0.52082 0.37731 0.88769 0.0
C1029 C 0.52256 0.35639 0.92187 0.0
C1030 C 0.47583 0.35721 0.76107 0.0
C1031 C 0.53548 0.39872 0.90812 0.0
C1032 C 0.52338 0.42587 0.72057 0.0
C1033 C 0.50782 0.44382 0.73393 0.0
C1034 C 0.52204 0.40389 0.75055 0.0
C1035 C 0.505 0.39981 0.796 0.0
C1036 C 0.48877 0.4176 0.80833 0.0
C1037 C 0.49025 0.43927 0.77685 0.0
C1038 C 0.53944 0.38533 0.73511 0.0
C1039 C 0.47059 0.41421 0.85701 0.0
H1040 H 0.48355 0.32102 0.84043 0.0
H1041 H 0.53446 0.3559 0.96195 0.0
H1042 H 0.46319 0.37174 0.76291 0.0
H1043 H 0.48652 0.3602 0.7198 0.0
H1044 H 0.46564 0.34028 0.75555 0.0
H1045 H 0.5454 0.39575 0.95225 0.0
H1046 H 0.54839 0.40355 0.8726 0.0
H1047 H 0.52392 0.41398 0.91357 0.0
H1048 H 0.5369 0.4291 0.68717 0.0
H1049 H 0.4782 0.45302 0.78783 0.0
H1050 H 0.52999 0.36823 0.72593 0.0
H1051 H 0.55191 0.38269 0.77483 0.0
H1052 H 0.54988 0.39024 0.69445 0.0
H1053 H 0.46037 0.39743 0.84961 0.0
H1054 H 0.45801 0.42887 0.85761 0.0
H1055 H 0.4797 0.41311 0.90284 0.0
C1056 C 0.19565 0.50549 0.85804 0.0
C1057 C 0.20877 0.48581 0.84293 0.0
C1058 C 0.17345 0.50962 0.82929 0.0
C1059 C 0.16384 0.4936 0.78466 0.0
C1060 C 0.17754 0.47447 0.76664 0.0
C1061 C 0.19982 0.47091 0.79561 0.0
C1062 C 0.15968 0.53048 0.84922 0.0
C1063 C 0.16808 0.45694 0.71927 0.0
C1064 C 0.09645 0.4871 0.7753 0.0
C1065 C 0.09051 0.50004 0.72224 0.0
C1066 C 0.12019 0.48458 0.79518 0.0
C1067 C 0.13863 0.49548 0.76176 0.0
C1068 C 0.13282 0.50836 0.70773 0.0
C1069 C 0.10887 0.51037 0.68841 0.0
C1070 C 0.1255 0.47036 0.85247 0.0
C1071 C 0.15186 0.52034 0.67084 0.0
H1072 H 0.20211 0.51706 0.89475 0.0
H1073 H 0.20992 0.45593 0.78245 0.0
H1074 H 0.15275 0.54026 0.80859 0.0
H1075 H 0.14422 0.52422 0.87549 0.0
H1076 H 0.17064 0.5428 0.87865 0.0
H1077 H 0.18173 0.44443 0.70588 0.0
H1078 H 0.15293 0.44669 0.73808 0.0
H1079 H 0.16139 0.46614 0.67748 0.0
H1080 H 0.0825 0.4789 0.80164 0.0
H1081 H 0.10454 0.52041 0.64735 0.0
H1082 H 0.13442 0.4818 0.88795 0.0
H1083 H 0.1378 0.45614 0.84214 0.0
H1084 H 0.10925 0.46227 0.87197 0.0
H1085 H 0.16251 0.53283 0.70039 0.0
H1086 H 0.14442 0.53012 0.63074 0.0
H1087 H 0.16411 0.50709 0.65402 0.0
C1088 C 0.98453 0.83091 0.51292 0.0
C1089 C 0.99922 0.82557 0.46425 0.0
C1090 C 0.987 0.85244 0.5448 0.0
C1091 C 1.00495 0.86909 0.52894 0.0
C1092 C 0.02077 0.86327 0.48254 0.0
C1093 C 0.01764 0.84175 0.45058 0.0
C1094 C 0.9696 0.85782 0.59355 0.0
C1095 C 0.04046 0.88022 0.46474 0.0
C1096 C 0.99486 0.93456 0.55396 0.0
C1097 C 1.00794 0.93933 0.60872 0.0
C1098 C 0.99349 0.91181 0.52835 0.0
C1099 C 1.00592 0.89325 0.55724 0.0
C1100 C 0.01911 0.89791 0.61273 0.0
C1101 C 0.01976 0.92079 0.63811 0.0
C1102 C 0.97876 0.90769 0.47 0.0
C1103 C 0.033 0.87884 0.64455 0.0
H1104 H 0.9706 0.81845 0.52529 0.0
H1105 H 0.02905 0.83814 0.413 0.0
H1106 H 0.97913 0.86322 0.63682 0.0
H1107 H 0.95864 0.87279 0.57828 0.0
H1108 H 0.95761 0.84251 0.60337 0.0
H1109 H 0.05288 0.87211 0.43312 0.0
H1110 H 0.0328 0.89584 0.44168 0.0
H1111 H 0.05062 0.88658 0.50625 0.0
H1112 H 0.98556 0.94869 0.53095 0.0
H1113 H 0.03011 0.9243 0.68009 0.0
H1114 H 0.96535 0.89335 0.47716 0.0
H1115 H 0.99022 0.90198 0.43284 0.0
H1116 H 0.96947 0.92372 0.45439 0.0
H1117 H 0.0211 0.86362 0.65538 0.0
H1118 H 0.04206 0.88512 0.68779 0.0
H1119 H 0.04652 0.87237 0.61348 0.0
C1120 C 0.66078 1.00101 0.35736 0.0
C1121 C 0.6802 0.98745 0.37612 0.0
C1122 C 0.64064 1.00261 0.39337 0.0
C1123 C 0.63965 0.99054 0.45033 0.0
C1124 C 0.65947 0.97744 0.47066 0.0
C1125 C 0.6794 0.97601 0.43342 0.0
C1126 C 0.62019 0.01703 0.36987 0.0
C1127 C 0.65938 0.9644 0.53111 0.0
C1128 C 0.59442 0.01263 0.56191 0.0
C1129 C 0.57521 0.99651 0.55309 0.0
C1130 C 0.61569 0.01035 0.53082 0.0
C1131 C 0.61788 0.99181 0.48825 0.0
C1132 C 0.59872 0.97524 0.47973 0.0
C1133 C 0.57775 0.97767 0.51252 0.0
C1134 C 0.63568 0.02816 0.54277 0.0
C1135 C 0.60016 0.95522 0.43482 0.0
H1136 H 0.66123 0.01033 0.31391 0.0
H1137 H 0.69406 0.96529 0.44843 0.0
H1138 H 0.60391 0.00567 0.36506 0.0
H1139 H 0.6166 0.03106 0.40331 0.0
H1140 H 0.62363 0.02538 0.32473 0.0
H1141 H 0.67713 0.95775 0.54439 0.0
H1142 H 0.65346 0.97595 0.56821 0.0
H1143 H 0.64665 0.94918 0.52759 0.0
H1144 H 0.59285 0.02724 0.59318 0.0
H1145 H 0.56312 0.9651 0.50518 0.0
H1146 H 0.63818 0.03915 0.50116 0.0
H1147 H 0.65253 0.01911 0.5527 0.0
H1148 H 0.63224 0.03993 0.58191 0.0
H1149 H 0.60218 0.96237 0.38775 0.0
H1150 H 0.58418 0.94334 0.43486 0.0
H1151 H 0.61599 0.94474 0.44603 0.0
C1152 C 0.5361 0.69 0.4636 0.0
C1153 C 0.51575 0.69267 0.4257 0.0
C1154 C 0.53925 0.6694 0.49909 0.0
C1155 C 0.52181 0.65089 0.49595 0.0
C1156 C 0.50138 0.65346 0.45728 0.0
C1157 C 0.49861 0.67423 0.42295 0.0
C1158 C 0.56119 0.66744 0.54004 0.0
C1159 C 0.4825 0.63412 0.45156 0.0
C1160 C 0.53675 0.58744 0.53498 0.0
C1161 C 0.52618 0.58406 0.59194 0.0
C1162 C 0.53621 0.60929 0.50442 0.0
C1163 C 0.52498 0.62846 0.53142 0.0
C1164 C 0.51507 0.62547 0.58998 0.0
C1165 C 0.51569 0.60333 0.61937 0.0
C1166 C 0.5468 0.61153 0.44187 0.0
C1167 C 0.50306 0.64544 0.6207 0.0
H1168 H 0.54939 0.70415 0.46617 0.0
H1169 H 0.48304 0.6759 0.39292 0.0
H1170 H 0.55611 0.6643 0.5882 0.0
H1171 H 0.57146 0.65214 0.52598 0.0
H1172 H 0.57282 0.68354 0.53848 0.0
H1173 H 0.4676 0.63892 0.4198 0.0
H1174 H 0.4903 0.61779 0.43449 0.0
H1175 H 0.47531 0.63004 0.49726 0.0
H1176 H 0.54491 0.57277 0.51311 0.0
H1177 H 0.50752 0.60103 0.66336 0.0
H1178 H 0.55932 0.62693 0.44064 0.0
H1179 H 0.53254 0.61456 0.40668 0.0
H1180 H 0.55632 0.59554 0.42902 0.0
H1181 H 0.51489 0.66139 0.6221 0.0
H1182 H 0.49804 0.64094 0.66828 0.0
H1183 H 0.48681 0.64997 0.59371 0.0
C1184 C 0.84718 0.5215 0.44763 0.0
C1185 C 0.82945 0.5337 0.47675 0.0
C1186 C 0.86963 0.5185 0.47619 0.0
C1187 C 0.87465 0.52786 0.53561 0.0
C1188 C 0.85661 0.53951 0.56615 0.0
C1189 C 0.83431 0.54233 0.53639 0.0
C1190 C 0.88828 0.50599 0.44177 0.0
C1191 C 0.86105 0.54956 0.6297 0.0
C1192 C 0.92859 0.50462 0.62475 0.0
C1193 C 0.94606 0.52211 0.61355 0.0
C1194 C 0.90523 0.50648 0.60087 0.0
C1195 C 0.89904 0.52624 0.56451 0.0
C1196 C 0.91646 0.54417 0.55405 0.0
C1197 C 0.93966 0.54194 0.57875 0.0
C1198 C 0.88725 0.48703 0.61365 0.0
C1199 C 0.91071 0.56555 0.51557 0.0
H1200 H 0.84387 0.5151 0.40123 0.0
H1201 H 0.82073 0.5516 0.55961 0.0
H1202 H 0.9033 0.51842 0.43271 0.0
H1203 H 0.89543 0.49136 0.46999 0.0
H1204 H 0.88129 0.49873 0.39723 0.0
H1205 H 0.84484 0.55688 0.64869 0.0
H1206 H 0.86773 0.53576 0.66144 0.0
H1207 H 0.87492 0.56378 0.62833 0.0
H1208 H 0.93321 0.48928 0.65182 0.0
H1209 H 0.95293 0.55557 0.56966 0.0
H1210 H 0.88139 0.47834 0.56997 0.0
H1211 H 0.87134 0.49443 0.63389 0.0
H1212 H 0.89446 0.47348 0.64545 0.0
H1213 H 0.90536 0.56001 0.46818 0.0
H1214 H 0.92597 0.57827 0.51321 0.0
H1215 H 0.89553 0.57467 0.53469 0.0
loop_
_geom_bond_atom_site_label_1
_geom_bond_atom_site_label_2
_geom_bond_distance
_geom_bond_site_symmetry_2
_ccdc_geom_bond_type
C0 C1 1.384 . S
C0 H13 0.947 . S
C0 C35 1.382 . S
C1 C0 1.384 . S
C1 C2 1.378 . S
C2 C1 1.378 . S
C2 C3 1.378 . S
C2 H14 0.952 . S
C3 C2 1.378 . S
C3 H15 0.950 . S
C3 C34 1.383 . S
H4 C23 0.947 . S
H5 C24 0.946 . S
H6 C26 0.953 . S
H7 C27 0.945 . S
H8 C29 0.952 . S
H9 C30 0.949 1_556 S
H10 C32 0.950 . S
H11 C33 0.948 . S
H12 C35 0.951 . S
H13 C0 0.947 . S
H14 C2 0.952 . S
H15 C3 0.950 . S
N16 C19 1.382 . S
N16 C21 1.363 . S
N17 C19 1.371 . S
N17 C20 1.372 . S
N18 C20 1.361 . S
N18 C21 1.377 . S
C19 N16 1.382 . S
C19 N17 1.371 . S
C19 C22 1.480 . S
C20 N17 1.372 . S
C20 N18 1.361 . S
C20 C28 1.457 . S
C21 N16 1.363 . S
C21 N18 1.377 . S
C21 C34 1.479 . S
C22 C19 1.480 . S
C22 C23 1.383 . S
C22 C27 1.385 . S
C23 H4 0.947 . S
C23 C22 1.383 . S
C23 C24 1.388 . S
C24 H5 0.946 . S
C24 C23 1.388 . S
C24 C25 1.384 . S
C25 C24 1.384 . S
C25 C26 1.377 . S
C26 H6 0.953 . S
C26 C25 1.377 . S
C26 C27 1.369 . S
C27 H7 0.945 . S
C27 C22 1.385 . S
C27 C26 1.369 . S
C28 C20 1.457 . S
C28 C29 1.372 . S
C28 C33 1.364 . S
C29 H8 0.952 . S
C29 C28 1.372 . S
C29 C30 1.389 . S
C30 H9 0.949 1_554 S
C30 C29 1.389 . S
C30 C31 1.387 . S
C31 C30 1.387 . S
C31 C32 1.372 . S
C32 H10 0.950 . S
C32 C31 1.372 . S
C32 C33 1.379 . S
C33 H11 0.948 . S
C33 C28 1.364 . S
C33 C32 1.379 . S
C34 C3 1.383 . S
C34 C21 1.479 . S
C34 C35 1.398 . S
C35 C0 1.382 . S
C35 H12 0.951 . S
C35 C34 1.398 . S
C36 C37 1.384 . S
C36 H49 0.947 . S
C36 C71 1.382 . S
C37 C36 1.384 . S
C37 C38 1.378 . S
C38 C37 1.378 . S
C38 C39 1.378 . S
C38 H50 0.952 . S
C39 C38 1.378 . S
C39 H51 0.950 . S
C39 C70 1.383 . S
H40 C59 0.947 . S
H41 C60 0.946 . S
H42 C62 0.953 . S
H43 C63 0.945 . S
H44 C65 0.952 . S
H45 C66 0.949 . S
H46 C68 0.950 . S
H47 C69 0.948 . S
H48 C71 0.951 . S
H49 C36 0.947 . S
H50 C38 0.952 . S
H51 C39 0.950 . S
N52 C55 1.382 . S
N52 C57 1.363 . S
N53 C55 1.371 . S
N53 C56 1.372 . S
N54 C56 1.361 . S
N54 C57 1.377 . S
C55 N52 1.382 . S
C55 N53 1.371 . S
C55 C58 1.480 . S
C56 N53 1.372 . S
C56 N54 1.361 . S
C56 C64 1.457 . S
C57 N52 1.363 . S
C57 N54 1.377 . S
C57 C70 1.479 . S
C58 C55 1.480 . S
C58 C59 1.383 . S
C58 C63 1.385 . S
C59 H40 0.947 . S
C59 C58 1.383 . S
C59 C60 1.388 . S
C60 H41 0.946 . S
C60 C59 1.388 . S
C60 C61 1.384 . S
C61 C60 1.384 . S
C61 C62 1.377 . S
C62 H42 0.953 . S
C62 C61 1.377 . S
C62 C63 1.369 . S
C63 H43 0.945 . S
C63 C58 1.385 . S
C63 C62 1.369 . S
C64 C56 1.457 . S
C64 C65 1.372 . S
C64 C69 1.364 . S
C65 H44 0.952 . S
C65 C64 1.372 . S
C65 C66 1.389 . S
C66 H45 0.949 . S
C66 C65 1.389 . S
C66 C67 1.387 . S
C67 C66 1.387 . S
C67 C68 1.372 . S
C68 H46 0.950 . S
C68 C67 1.372 . S
C68 C69 1.379 . S
C69 H47 0.948 . S
C69 C64 1.364 . S
C69 C68 1.379 . S
C70 C39 1.383 . S
C70 C57 1.479 . S
C70 C71 1.398 . S
C71 C36 1.382 . S
C71 H48 0.951 . S
C71 C70 1.398 . S
C72 C73 1.384 . S
C72 H85 0.947 . S
C72 C107 1.382 . S
C73 C72 1.384 . S
C73 C74 1.378 . S
C74 C73 1.378 . S
C74 C75 1.378 . S
C74 H86 0.952 . S
C75 C74 1.378 . S
C75 H87 0.950 . S
C75 C106 1.383 . S
H76 C95 0.947 . S
H77 C96 0.946 . S
H78 C98 0.953 . S
H79 C99 0.945 . S
H80 C101 0.952 . S
H81 C102 0.949 . S
H82 C104 0.950 . S
H83 C105 0.948 . S
H84 C107 0.951 . S
H85 C72 0.947 . S
H86 C74 0.952 . S
H87 C75 0.950 . S
N88 C91 1.382 . S
N88 C93 1.363 . S
N89 C91 1.371 . S
N89 C92 1.372 . S
N90 C92 1.361 . S
N90 C93 1.377 . S
C91 N88 1.382 . S
C91 N89 1.371 . S
C91 C94 1.480 . S
C92 N89 1.372 . S
C92 N90 1.361 . S
C92 C100 1.457 . S
C93 N88 1.363 . S
C93 N90 1.377 . S
C93 C106 1.479 . S
C94 C91 1.480 . S
C94 C95 1.383 . S
C94 C99 1.385 . S
C95 H76 0.947 . S
C95 C94 1.383 . S
C95 C96 1.388 . S
C96 H77 0.946 . S
C96 C95 1.388 . S
C96 C97 1.384 . S
C97 C96 1.384 . S
C97 C98 1.377 . S
C98 H78 0.953 . S
C98 C97 1.377 . S
C98 C99 1.369 . S
C99 H79 0.945 . S
C99 C94 1.385 . S
C99 C98 1.369 . S
C100 C92 1.457 . S
C100 C101 1.372 . S
C100 C105 1.364 . S
C101 H80 0.952 . S
C101 C100 1.372 . S
C101 C102 1.389 . S
C102 H81 0.949 . S
C102 C101 1.389 . S
C102 C103 1.387 . S
C103 C102 1.387 . S
C103 C104 1.372 . S
C104 H82 0.950 . S
C104 C103 1.372 . S
C104 C105 1.379 . S
C105 H83 0.948 . S
C105 C100 1.364 . S
C105 C104 1.379 . S
C106 C75 1.383 . S
C106 C93 1.479 . S
C106 C107 1.398 . S
C107 C72 1.382 . S
C107 H84 0.951 . S
C107 C106 1.398 . S
C108 C109 1.384 . S
C108 H121 0.947 . S
C108 C143 1.382 . S
C109 C108 1.384 . S
C109 C110 1.378 . S
C110 C109 1.378 . S
C110 C111 1.378 . S
C110 H122 0.952 1_554 S
C111 C110 1.378 . S
C111 H123 0.950 . S
C111 C142 1.383 . S
H112 C131 0.947 . S
H113 C132 0.946 . S
H114 C134 0.953 . S
H115 C135 0.945 . S
H116 C137 0.952 . S
H117 C138 0.949 . S
H118 C140 0.950 . S
H119 C141 0.948 . S
H120 C143 0.951 . S
H121 C108 0.947 . S
H122 C110 0.952 1_556 S
H123 C111 0.950 . S
N124 C127 1.382 . S
N124 C129 1.363 . S
N125 C127 1.371 . S
N125 C128 1.372 . S
N126 C128 1.361 . S
N126 C129 1.377 . S
C127 N124 1.382 . S
C127 N125 1.371 . S
C127 C130 1.480 . S
C128 N125 1.372 . S
C128 N126 1.361 . S
C128 C136 1.457 . S
C129 N124 1.363 . S
C129 N126 1.377 . S
C129 C142 1.479 . S
C130 C127 1.480 . S
C130 C131 1.383 . S
C130 C135 1.385 . S
C131 H112 0.947 . S
C131 C130 1.383 . S
C131 C132 1.388 . S
C132 H113 0.946 . S
C132 C131 1.388 . S
C132 C133 1.384 . S
C133 C132 1.384 . S
C133 C134 1.377 . S
C134 H114 0.953 . S
C134 C133 1.377 . S
C134 C135 1.369 . S
C135 H115 0.945 . S
C135 C130 1.385 . S
C135 C134 1.369 . S
C136 C128 1.457 . S
C136 C137 1.372 . S
C136 C141 1.364 . S
C137 H116 0.952 . S
C137 C136 1.372 . S
C137 C138 1.389 . S
C138 H117 0.949 . S
C138 C137 1.389 . S
C138 C139 1.387 . S
C139 C138 1.387 . S
C139 C140 1.372 . S
C140 H118 0.950 . S
C140 C139 1.372 . S
C140 C141 1.379 . S
C141 H119 0.948 . S
C141 C136 1.364 . S
C141 C140 1.379 . S
C142 C111 1.383 . S
C142 C129 1.479 . S
C142 C143 1.398 . S
C143 C108 1.382 . S
C143 H120 0.951 . S
C143 C142 1.398 . S
C144 C145 1.384 . S
C144 H157 0.947 . S
C144 C179 1.382 . S
C145 C144 1.384 . S
C145 C146 1.378 . S
C146 C145 1.378 . S
C146 C147 1.378 . S
C146 H158 0.952 . S
C147 C146 1.378 . S
C147 H159 0.950 . S
C147 C178 1.383 . S
H148 C167 0.947 . S
H149 C168 0.946 . S
H150 C170 0.953 . S
H151 C171 0.945 . S
H152 C173 0.952 . S
H153 C174 0.949 . S
H154 C176 0.950 . S
H155 C177 0.948 . S
H156 C179 0.951 . S
H157 C144 0.947 . S
H158 C146 0.952 . S
H159 C147 0.950 . S
N160 C163 1.382 . S
N160 C165 1.363 . S
N161 C163 1.371 . S
N161 C164 1.372 . S
N162 C164 1.361 . S
N162 C165 1.377 . S
C163 N160 1.382 . S
C163 N161 1.371 . S
C163 C166 1.480 . S
C164 N161 1.372 . S
C164 N162 1.361 . S
C164 C172 1.457 . S
C165 N160 1.363 . S
C165 N162 1.377 . S
C165 C178 1.479 1_554 S
C166 C163 1.480 . S
C166 C167 1.383 . S
C166 C171 1.385 . S
C167 H148 0.947 . S
C167 C166 1.383 . S
C167 C168 1.388 . S
C168 H149 0.946 . S
C168 C167 1.388 . S
C168 C169 1.384 . S
C169 C168 1.384 . S
C169 C170 1.377 . S
C170 H150 0.953 . S
C170 C169 1.377 . S
C170 C171 1.369 . S
C171 H151 0.945 . S
C171 C166 1.385 . S
C171 C170 1.369 . S
C172 C164 1.457 . S
C172 C173 1.372 . S
C172 C177 1.364 . S
C173 H152 0.952 . S
C173 C172 1.372 . S
C173 C174 1.389 . S
C174 H153 0.949 . S
C174 C173 1.389 . S
C174 C175 1.387 . S
C175 C174 1.387 . S
C175 C176 1.372 . S
C176 H154 0.950 . S
C176 C175 1.372 . S
C176 C177 1.379 . S
C177 H155 0.948 . S
C177 C172 1.364 . S
C177 C176 1.379 . S
C178 C147 1.383 . S
C178 C165 1.479 1_556 S
C178 C179 1.398 . S
C179 C144 1.382 . S
C179 H156 0.951 . S
C179 C178 1.398 . S
C180 C181 1.384 . S
C180 H193 0.947 . S
C180 C215 1.382 . S
C181 C180 1.384 . S
C181 C182 1.378 . S
C182 C181 1.378 . S
C182 C183 1.378 . S
C182 H194 0.952 . S
C183 C182 1.378 . S
C183 H195 0.950 . S
C183 C214 1.383 . S
H184 C203 0.947 1_556 S
H185 C204 0.946 . S
H186 C206 0.953 . S
H187 C207 0.945 . S
H188 C209 0.952 . S
H189 C210 0.949 . S
H190 C212 0.950 . S
H191 C213 0.948 . S
H192 C215 0.951 . S
H193 C180 0.947 . S
H194 C182 0.952 . S
H195 C183 0.950 . S
N196 C199 1.382 1_556 S
N196 C201 1.363 . S
N197 C199 1.371 . S
N197 C200 1.372 . S
N198 C200 1.361 . S
N198 C201 1.377 1_554 S
C199 N196 1.382 1_554 S
C199 N197 1.371 . S
C199 C202 1.480 . S
C200 N197 1.372 . S
C200 N198 1.361 . S
C200 C208 1.457 . S
C201 N196 1.363 . S
C201 N198 1.377 1_556 S
C201 C214 1.479 . S
C202 C199 1.480 . S
C202 C203 1.383 . S
C202 C207 1.385 . S
C203 H184 0.947 1_554 S
C203 C202 1.383 . S
C203 C204 1.388 . S
C204 H185 0.946 . S
C204 C203 1.388 . S
C204 C205 1.384 . S
C205 C204 1.384 . S
C205 C206 1.377 . S
C206 H186 0.953 . S
C206 C205 1.377 . S
C206 C207 1.369 . S
C207 H187 0.945 . S
C207 C202 1.385 . S
C207 C206 1.369 . S
C208 C200 1.457 . S
C208 C209 1.372 . S
C208 C213 1.364 . S
C209 H188 0.952 . S
C209 C208 1.372 . S
C209 C210 1.389 . S
C210 H189 0.949 . S
C210 C209 1.389 . S
C210 C211 1.387 . S
C211 C210 1.387 . S
C211 C212 1.372 . S
C212 H190 0.950 . S
C212 C211 1.372 . S
C212 C213 1.379 . S
C213 H191 0.948 . S
C213 C208 1.364 . S
C213 C212 1.379 . S
C214 C183 1.383 . S
C214 C201 1.479 . S
C214 C215 1.398 . S
C215 C180 1.382 . S
C215 H192 0.951 . S
C215 C214 1.398 . S
C216 C217 1.384 . S
C216 H229 0.947 . S
C216 C251 1.382 . S
C217 C216 1.384 . S
C217 C218 1.378 . S
C218 C217 1.378 . S
C218 C219 1.378 . S
C218 H230 0.952 . S
C219 C218 1.378 . S
C219 H231 0.950 . S
C219 C250 1.383 . S
H220 C239 0.947 . S
H221 C240 0.946 1_556 S
H222 C242 0.953 . S
H223 C243 0.945 . S
H224 C245 0.952 . S
H225 C246 0.949 . S
H226 C248 0.950 . S
H227 C249 0.948 . S
H228 C251 0.951 . S
H229 C216 0.947 . S
H230 C218 0.952 . S
H231 C219 0.950 . S
N232 C235 1.382 1_556 S
N232 C237 1.363 . S
N233 C235 1.371 . S
N233 C236 1.372 . S
N234 C236 1.361 . S
N234 C237 1.377 1_554 S
C235 N232 1.382 1_554 S
C235 N233 1.371 . S
C235 C238 1.480 . S
C236 N233 1.372 . S
C236 N234 1.361 . S
C236 C244 1.457 . S
C237 N232 1.363 . S
C237 N234 1.377 1_556 S
C237 C250 1.479 . S
C238 C235 1.480 . S
C238 C239 1.383 1_554 S
C238 C243 1.385 . S
C239 H220 0.947 . S
C239 C238 1.383 1_556 S
C239 C240 1.388 1_556 S
C240 H221 0.946 1_554 S
C240 C239 1.388 1_554 S
C240 C241 1.384 . S
C241 C240 1.384 . S
C241 C242 1.377 . S
C242 H222 0.953 . S
C242 C241 1.377 . S
C242 C243 1.369 . S
C243 H223 0.945 . S
C243 C238 1.385 . S
C243 C242 1.369 . S
C244 C236 1.457 . S
C244 C245 1.372 . S
C244 C249 1.364 . S
C245 H224 0.952 . S
C245 C244 1.372 . S
C245 C246 1.389 . S
C246 H225 0.949 . S
C246 C245 1.389 . S
C246 C247 1.387 . S
C247 C246 1.387 . S
C247 C248 1.372 . S
C248 H226 0.950 . S
C248 C247 1.372 . S
C248 C249 1.379 . S
C249 H227 0.948 . S
C249 C244 1.364 . S
C249 C248 1.379 . S
C250 C219 1.383 . S
C250 C237 1.479 . S
C250 C251 1.398 . S
C251 C216 1.382 . S
C251 H228 0.951 . S
C251 C250 1.398 . S
C252 C253 1.384 . S
C252 H265 0.947 . S
C252 C287 1.382 . S
C253 C252 1.384 . S
C253 C254 1.378 . S
C254 C253 1.378 . S
C254 C255 1.378 . S
C254 H266 0.952 . S
C255 C254 1.378 . S
C255 H267 0.950 . S
C255 C286 1.383 . S
H256 C275 0.947 . S
H257 C276 0.946 . S
H258 C278 0.953 . S
H259 C279 0.945 . S
H260 C281 0.952 . S
H261 C282 0.949 . S
H262 C284 0.950 . S
H263 C285 0.948 . S
H264 C287 0.951 . S
H265 C252 0.947 . S
H266 C254 0.952 . S
H267 C255 0.950 . S
N268 C271 1.382 . S
N268 C273 1.363 . S
N269 C271 1.371 . S
N269 C272 1.372 . S
N270 C272 1.361 . S
N270 C273 1.377 . S
C271 N268 1.382 . S
C271 N269 1.371 . S
C271 C274 1.480 . S
C272 N269 1.372 . S
C272 N270 1.361 . S
C272 C280 1.457 1_554 S
C273 N268 1.363 . S
C273 N270 1.377 . S
C273 C286 1.479 . S
C274 C271 1.480 . S
C274 C275 1.383 . S
C274 C279 1.385 . S
C275 H256 0.947 . S
C275 C274 1.383 . S
C275 C276 1.388 . S
C276 H257 0.946 . S
C276 C275 1.388 . S
C276 C277 1.384 . S
C277 C276 1.384 . S
C277 C278 1.377 . S
C278 H258 0.953 . S
C278 C277 1.377 . S
C278 C279 1.369 . S
C279 H259 0.945 . S
C279 C274 1.385 . S
C279 C278 1.369 . S
C280 C272 1.457 1_556 S
C280 C281 1.372 . S
C280 C285 1.364 . S
C281 H260 0.952 . S
C281 C280 1.372 . S
C281 C282 1.389 . S
C282 H261 0.949 . S
C282 C281 1.389 . S
C282 C283 1.387 . S
C283 C282 1.387 . S
C283 C284 1.372 . S
C284 H262 0.950 . S
C284 C283 1.372 . S
C284 C285 1.379 . S
C285 H263 0.948 . S
C285 C280 1.364 . S
C285 C284 1.379 . S
C286 C255 1.383 . S
C286 C273 1.479 . S
C286 C287 1.398 . S
C287 C252 1.382 . S
C287 H264 0.951 . S
C287 C286 1.398 . S
Eu288 C297 2.828 . S
Eu288 O299 2.392 . S
Eu288 O301 2.418 1_545 S
Eu288 O306 2.373 1_655 S
Eu288 O309 2.488 . S
Eu288 O310 2.471 . S
Eu288 O311 2.349 1_655 S
Eu289 O298 2.373 1_455 S
Eu289 O302 2.488 . S
Eu289 O303 2.471 . S
Eu289 O304 2.349 . S
Eu289 O307 2.392 1_565 S
Eu289 O308 2.418 1_565 S
Eu289 C318 2.828 . S
C290 O308 1.244 . S
C290 O311 1.265 . S
C291 C292 1.379 1_655 S
C291 C295 1.373 . S
C291 C297 1.505 . S
C292 C291 1.379 1_455 S
C292 C294 1.369 . S
C292 H320 0.930 . S
C293 C295 1.383 . S
C293 C296 1.357 1_655 S
C293 H321 0.930 . S
C294 C292 1.369 . S
C294 C296 1.411 . S
C294 H322 0.930 . S
C295 C291 1.373 . S
C295 C293 1.383 . S
C295 H323 0.931 . S
C296 C293 1.357 1_455 S
C296 C294 1.411 . S
C297 Eu288 2.828 . S
C297 C291 1.505 . S
C297 O309 1.249 . S
C297 O310 1.244 . S
O298 Eu289 2.373 1_655 S
O298 C300 1.258 . S
O299 Eu288 2.392 . S
O299 C300 1.242 1_545 S
C300 O298 1.258 . S
C300 O299 1.242 1_565 S
O301 Eu288 2.418 1_565 S
O301 C305 1.244 . S
O302 Eu289 2.488 . S
O302 C318 1.249 . S
O303 Eu289 2.471 . S
O303 C318 1.244 . S
O304 Eu289 2.349 . S
O304 C305 1.265 1_455 S
C305 O301 1.244 . S
C305 O304 1.265 1_655 S
O306 Eu288 2.373 1_455 S
O306 C319 1.258 . S
O307 Eu289 2.392 1_545 S
O307 C319 1.242 . S
O308 Eu289 2.418 1_545 S
O308 C290 1.244 . S
O309 Eu288 2.488 . S
O309 C297 1.249 . S
O310 Eu288 2.471 . S
O310 C297 1.244 . S
O311 Eu288 2.349 1_455 S
O311 C290 1.265 . S
C312 C313 1.379 . S
C312 C316 1.373 . S
C312 C318 1.505 . S
C313 C312 1.379 . S
C313 C315 1.369 . S
C313 H324 0.930 1_455 S
C314 C316 1.383 . S
C314 C317 1.382 . S
C314 H325 0.930 . S
C315 C313 1.369 . S
C315 C317 1.392 . S
C315 H326 0.930 1_455 S
C316 C312 1.373 . S
C316 C314 1.383 . S
C316 H327 0.931 . S
C317 C314 1.382 . S
C317 C315 1.392 . S
C318 Eu289 2.828 . S
C318 O302 1.249 . S
C318 O303 1.244 . S
C318 C312 1.505 . S
C319 O306 1.258 . S
C319 O307 1.242 . S
H320 C292 0.930 . S
H321 C293 0.930 . S
H322 C294 0.930 . S
H323 C295 0.931 . S
H324 C313 0.930 1_655 S
H325 C314 0.930 . S
H326 C315 0.930 1_655 S
H327 C316 0.931 . S
Eu328 C337 2.828 . S
Eu328 O339 2.392 . S
Eu328 O341 2.418 . S
Eu328 O346 2.373 . S
Eu328 O349 2.488 . S
Eu328 O350 2.471 . S
Eu328 O351 2.349 1_545 S
Eu329 O338 2.373 1_565 S
Eu329 O342 2.488 . S
Eu329 O343 2.471 1_565 S
Eu329 O344 2.349 1_565 S
Eu329 O347 2.392 . S
Eu329 O348 2.418 . S
Eu329 C358 2.828 . S
C330 O348 1.244 . S
C330 O351 1.265 . S
C331 C332 1.379 1_545 S
C331 C335 1.373 . S
C331 C337 1.505 . S
C332 C331 1.379 1_565 S
C332 C334 1.369 . S
C332 H360 0.930 . S
C333 C335 1.383 . S
C333 C336 1.382 . S
C333 H361 0.930 . S
C334 C332 1.369 . S
C334 C336 1.392 1_565 S
C334 H362 0.930 . S
C335 C331 1.373 . S
C335 C333 1.383 . S
C335 H363 0.931 . S
C336 C333 1.382 . S
C336 C334 1.392 1_545 S
C337 Eu328 2.828 . S
C337 C331 1.505 . S
C337 O349 1.249 . S
C337 O350 1.244 . S
O338 Eu329 2.373 1_545 S
O338 C340 1.258 . S
O339 Eu328 2.392 . S
O339 C340 1.242 . S
C340 O338 1.258 . S
C340 O339 1.242 . S
O341 Eu328 2.418 . S
O341 C345 1.244 . S
O342 Eu329 2.488 . S
O342 C358 1.249 . S
O343 Eu329 2.471 1_545 S
O343 C358 1.244 1_545 S
O344 Eu329 2.349 1_545 S
O344 C345 1.265 . S
C345 O341 1.244 . S
C345 O344 1.265 . S
O346 Eu328 2.373 . S
O346 C359 1.258 1_545 S
O347 Eu329 2.392 . S
O347 C359 1.242 . S
O348 Eu329 2.418 . S
O348 C330 1.244 . S
O349 Eu328 2.488 . S
O349 C337 1.249 . S
O350 Eu328 2.471 . S
O350 C337 1.244 . S
O351 Eu328 2.349 1_565 S
O351 C330 1.265 . S
C352 C353 1.379 1_565 S
C352 C356 1.373 . S
C352 C358 1.505 . S
C353 C352 1.379 1_545 S
C353 C355 1.369 . S
C353 H364 0.930 . S
C354 C356 1.383 . S
C354 C357 1.382 . S
C354 H365 0.930 . S
C355 C353 1.369 . S
C355 C357 1.392 1_545 S
C355 H366 0.930 . S
C356 C352 1.373 . S
C356 C354 1.383 . S
C356 H367 0.931 . S
C357 C354 1.382 . S
C357 C355 1.392 1_565 S
C358 Eu329 2.828 . S
C358 O342 1.249 . S
C358 O343 1.244 1_565 S
C358 C352 1.505 . S
C359 O346 1.258 1_565 S
C359 O347 1.242 . S
H360 C332 0.930 . S
H361 C333 0.930 . S
H362 C334 0.930 . S
H363 C335 0.931 . S
H364 C353 0.930 . S
H365 C354 0.930 . S
H366 C355 0.930 . S
H367 C356 0.931 . S
Eu368 C377 2.828 . S
Eu368 O379 2.392 . S
Eu368 O381 2.418 . S
Eu368 O386 2.373 . S
Eu368 O389 2.488 . S
Eu368 O390 2.471 . S
Eu368 O391 2.349 . S
Eu369 O378 2.373 . S
Eu369 O382 2.488 . S
Eu369 O383 2.471 . S
Eu369 O384 2.349 . S
Eu369 O387 2.392 . S
Eu369 O388 2.418 . S
Eu369 C398 2.828 . S
C370 O388 1.244 . S
C370 O391 1.265 . S
C371 C372 1.379 . S
C371 C375 1.373 . S
C371 C377 1.505 . S
C372 C371 1.379 . S
C372 C374 1.369 . S
C372 H400 0.930 . S
C373 C375 1.383 . S
C373 C376 1.382 . S
C373 H401 0.930 . S
C374 C372 1.369 . S
C374 C376 1.392 . S
C374 H402 0.930 . S
C375 C371 1.373 . S
C375 C373 1.383 . S
C375 H403 0.931 . S
C376 C373 1.382 . S
C376 C374 1.392 . S
C377 Eu368 2.828 . S
C377 C371 1.505 . S
C377 O389 1.249 . S
C377 O390 1.244 . S
O378 Eu369 2.373 . S
O378 C380 1.258 . S
O379 Eu368 2.392 . S
O379 C380 1.242 . S
C380 O378 1.258 . S
C380 O379 1.242 . S
O381 Eu368 2.418 . S
O381 C385 1.244 . S
O382 Eu369 2.488 . S
O382 C398 1.249 . S
O383 Eu369 2.471 . S
O383 C398 1.244 . S
O384 Eu369 2.349 . S
O384 C385 1.265 . S
C385 O381 1.244 . S
C385 O384 1.265 . S
O386 Eu368 2.373 . S
O386 C399 1.258 . S
O387 Eu369 2.392 . S
O387 C399 1.242 . S
O388 Eu369 2.418 . S
O388 C370 1.244 . S
O389 Eu368 2.488 . S
O389 C377 1.249 . S
O390 Eu368 2.471 . S
O390 C377 1.244 . S
O391 Eu368 2.349 . S
O391 C370 1.265 . S
C392 C393 1.379 . S
C392 C396 1.373 . S
C392 C398 1.505 . S
C393 C392 1.379 . S
C393 C395 1.369 . S
C393 H404 0.930 . S
C394 C396 1.383 . S
C394 C397 1.382 . S
C394 H405 0.930 . S
C395 C393 1.369 . S
C395 C397 1.392 . S
C395 H406 0.930 . S
C396 C392 1.373 . S
C396 C394 1.383 . S
C396 H407 0.931 . S
C397 C394 1.382 . S
C397 C395 1.392 . S
C398 Eu369 2.828 . S
C398 O382 1.249 . S
C398 O383 1.244 . S
C398 C392 1.505 . S
C399 O386 1.258 . S
C399 O387 1.242 . S
H400 C372 0.930 . S
H401 C373 0.930 . S
H402 C374 0.930 . S
H403 C375 0.931 . S
H404 C393 0.930 . S
H405 C394 0.930 . S
H406 C395 0.930 . S
H407 C396 0.931 . S
Eu408 C417 2.828 . S
Eu408 O419 2.392 . S
Eu408 O421 2.418 1_455 S
Eu408 O426 2.373 . S
Eu408 O429 2.488 . S
Eu408 O430 2.471 . S
Eu408 O431 2.349 . S
Eu409 O418 2.373 . S
Eu409 O422 2.488 . S
Eu409 O423 2.471 . S
Eu409 O424 2.349 . S
Eu409 O427 2.392 1_655 S
Eu409 O428 2.418 1_655 S
Eu409 C438 2.828 . S
C410 O428 1.244 . S
C410 O431 1.265 . S
C411 C412 1.379 . S
C411 C415 1.373 . S
C411 C417 1.505 . S
C412 C411 1.379 . S
C412 C414 1.369 . S
C412 H440 0.930 . S
C413 C415 1.383 . S
C413 C416 1.382 . S
C413 H441 0.930 . S
C414 C412 1.369 . S
C414 C416 1.392 . S
C414 H442 0.930 . S
C415 C411 1.373 . S
C415 C413 1.383 . S
C415 H443 0.931 . S
C416 C413 1.382 . S
C416 C414 1.392 . S
C417 Eu408 2.828 . S
C417 C411 1.505 . S
C417 O429 1.249 . S
C417 O430 1.244 . S
O418 Eu409 2.373 . S
O418 C420 1.258 1_655 S
O419 Eu408 2.392 . S
O419 C420 1.242 . S
C420 O418 1.258 1_455 S
C420 O419 1.242 . S
O421 Eu408 2.418 1_655 S
O421 C425 1.244 . S
O422 Eu409 2.488 . S
O422 C438 1.249 . S
O423 Eu409 2.471 . S
O423 C438 1.244 . S
O424 Eu409 2.349 . S
O424 C425 1.265 . S
C425 O421 1.244 . S
C425 O424 1.265 . S
O426 Eu408 2.373 . S
O426 C439 1.258 . S
O427 Eu409 2.392 1_455 S
O427 C439 1.242 . S
O428 Eu409 2.418 1_455 S
O428 C410 1.244 . S
O429 Eu408 2.488 . S
O429 C417 1.249 . S
O430 Eu408 2.471 . S
O430 C417 1.244 . S
O431 Eu408 2.349 . S
O431 C410 1.265 . S
C432 C433 1.379 . S
C432 C436 1.373 . S
C432 C438 1.505 . S
C433 C432 1.379 . S
C433 C435 1.369 . S
C433 H444 0.930 . S
C434 C436 1.383 . S
C434 C437 1.382 . S
C434 H445 0.930 . S
C435 C433 1.369 . S
C435 C437 1.392 . S
C435 H446 0.930 . S
C436 C432 1.373 . S
C436 C434 1.383 . S
C436 H447 0.931 . S
C437 C434 1.382 . S
C437 C435 1.392 . S
C438 Eu409 2.828 . S
C438 O422 1.249 . S
C438 O423 1.244 . S
C438 C432 1.505 . S
C439 O426 1.258 . S
C439 O427 1.242 . S
H440 C412 0.930 . S
H441 C413 0.930 . S
H442 C414 0.930 . S
H443 C415 0.931 . S
H444 C433 0.930 . S
H445 C434 0.930 . S
H446 C435 0.930 . S
H447 C436 0.931 . S
C448 C449 1.391 . S
C448 C450 1.394 . S
C448 H464 0.931 . S
C449 C448 1.391 . S
C449 C453 1.376 . S
C450 C448 1.394 . S
C450 C451 1.369 . S
C450 C454 1.531 . S
C451 C450 1.369 . S
C451 C452 1.410 . S
C451 C459 1.503 . S
C452 C451 1.410 . S
C452 C453 1.392 . S
C452 C455 1.511 . S
C453 C449 1.376 . S
C453 C452 1.392 . S
C453 H465 0.929 . S
C454 C450 1.531 . S
C454 H466 0.960 . S
C454 H467 0.962 . S
C454 H468 0.960 . S
C455 C452 1.511 . S
C455 H469 0.961 . S
C455 H470 0.961 . S
C455 H471 0.961 . S
C456 C457 1.370 . S
C456 C458 1.363 . S
C456 H472 0.931 . S
C457 C456 1.370 . S
C457 C461 1.408 . S
C458 C456 1.363 . S
C458 C459 1.370 . S
C458 C462 1.524 . S
C459 C451 1.503 . S
C459 C458 1.370 . S
C459 C460 1.403 . S
C460 C459 1.403 . S
C460 C461 1.404 . S
C460 C463 1.539 . S
C461 C457 1.408 . S
C461 C460 1.404 . S
C461 H473 0.930 . S
C462 C458 1.524 . S
C462 H474 0.956 . S
C462 H475 0.961 . S
C462 H476 0.961 1_545 S
C463 C460 1.539 . S
C463 H477 0.958 . S
C463 H478 0.961 . S
C463 H479 0.960 . S
H464 C448 0.931 . S
H465 C453 0.929 . S
H466 C454 0.960 . S
H467 C454 0.962 . S
H468 C454 0.960 . S
H469 C455 0.961 . S
H470 C455 0.961 . S
H471 C455 0.961 . S
H472 C456 0.931 . S
H473 C461 0.930 . S
H474 C462 0.956 . S
H475 C462 0.961 . S
H476 C462 0.961 1_565 S
H477 C463 0.958 . S
H478 C463 0.961 . S
H479 C463 0.960 . S
C480 C481 1.391 . S
C480 C482 1.394 . S
C480 H496 0.931 . S
C481 C480 1.391 . S
C481 C485 1.376 . S
C482 C480 1.394 . S
C482 C483 1.369 . S
C482 C486 1.531 . S
C483 C482 1.369 . S
C483 C484 1.410 . S
C483 C491 1.503 . S
C484 C483 1.410 . S
C484 C485 1.392 . S
C484 C487 1.511 . S
C485 C481 1.376 . S
C485 C484 1.392 . S
C485 H497 0.929 . S
C486 C482 1.531 . S
C486 H498 0.960 . S
C486 H499 0.962 . S
C486 H500 0.960 . S
C487 C484 1.511 . S
C487 H501 0.961 . S
C487 H502 0.961 . S
C487 H503 0.961 . S
C488 C489 1.370 . S
C488 C490 1.363 . S
C488 H504 0.931 . S
C489 C488 1.370 . S
C489 C493 1.408 . S
C490 C488 1.363 . S
C490 C491 1.370 . S
C490 C494 1.524 . S
C491 C483 1.503 . S
C491 C490 1.370 . S
C491 C492 1.403 . S
C492 C491 1.403 . S
C492 C493 1.404 . S
C492 C495 1.539 . S
C493 C489 1.408 . S
C493 C492 1.404 . S
C493 H505 0.930 . S
C494 C490 1.524 . S
C494 H506 0.956 . S
C494 H507 0.961 . S
C494 H508 0.961 . S
C495 C492 1.539 . S
C495 H509 0.958 . S
C495 H510 0.961 . S
C495 H511 0.960 . S
H496 C480 0.931 . S
H497 C485 0.929 . S
H498 C486 0.960 . S
H499 C486 0.962 . S
H500 C486 0.960 . S
H501 C487 0.961 . S
H502 C487 0.961 . S
H503 C487 0.961 . S
H504 C488 0.931 . S
H505 C493 0.930 . S
H506 C494 0.956 . S
H507 C494 0.961 . S
H508 C494 0.961 . S
H509 C495 0.958 . S
H510 C495 0.961 . S
H511 C495 0.960 . S
C512 C513 1.391 . S
C512 C514 1.394 . S
C512 H528 0.931 . S
C513 C512 1.391 . S
C513 C517 1.376 . S
C514 C512 1.394 . S
C514 C515 1.369 . S
C514 C518 1.531 . S
C515 C514 1.369 . S
C515 C516 1.410 . S
C515 C523 1.503 . S
C516 C515 1.410 . S
C516 C517 1.392 . S
C516 C519 1.511 . S
C517 C513 1.376 . S
C517 C516 1.392 . S
C517 H529 0.929 . S
C518 C514 1.531 . S
C518 H530 0.960 . S
C518 H531 0.962 . S
C518 H532 0.960 . S
C519 C516 1.511 . S
C519 H533 0.961 . S
C519 H534 0.961 . S
C519 H535 0.961 . S
C520 C521 1.370 . S
C520 C522 1.363 . S
C520 H536 0.931 . S
C521 C520 1.370 . S
C521 C525 1.408 . S
C522 C520 1.363 . S
C522 C523 1.370 . S
C522 C526 1.524 . S
C523 C515 1.503 . S
C523 C522 1.370 . S
C523 C524 1.403 . S
C524 C523 1.403 . S
C524 C525 1.404 . S
C524 C527 1.539 . S
C525 C521 1.408 . S
C525 C524 1.404 . S
C525 H537 0.930 . S
C526 C522 1.524 . S
C526 H538 0.956 . S
C526 H539 0.961 . S
C526 H540 0.961 . S
C527 C524 1.539 . S
C527 H541 0.958 . S
C527 H542 0.961 . S
C527 H543 0.960 . S
H528 C512 0.931 . S
H529 C517 0.929 . S
H530 C518 0.960 . S
H531 C518 0.962 . S
H532 C518 0.960 . S
H533 C519 0.961 . S
H534 C519 0.961 . S
H535 C519 0.961 . S
H536 C520 0.931 . S
H537 C525 0.930 . S
H538 C526 0.956 . S
H539 C526 0.961 . S
H540 C526 0.961 . S
H541 C527 0.958 . S
H542 C527 0.961 . S
H543 C527 0.960 . S
C544 C545 1.391 . S
C544 C546 1.394 . S
C544 H560 0.931 . S
C545 C544 1.391 . S
C545 C549 1.376 . S
C546 C544 1.394 . S
C546 C547 1.369 . S
C546 C550 1.531 . S
C547 C546 1.369 . S
C547 C548 1.410 . S
C547 C555 1.503 . S
C548 C547 1.410 . S
C548 C549 1.392 . S
C548 C551 1.511 1_455 S
C549 C545 1.376 . S
C549 C548 1.392 . S
C549 H561 0.929 . S
C550 C546 1.531 . S
C550 H562 0.960 . S
C550 H563 0.962 . S
C550 H564 0.960 . S
C551 C548 1.511 1_655 S
C551 H565 0.961 . S
C551 H566 0.961 . S
C551 H567 0.961 . S
C552 C553 1.370 . S
C552 C554 1.363 . S
C552 H568 0.931 . S
C553 C552 1.370 . S
C553 C557 1.408 . S
C554 C552 1.363 . S
C554 C555 1.370 . S
C554 C558 1.524 . S
C555 C547 1.503 . S
C555 C554 1.370 . S
C555 C556 1.403 . S
C556 C555 1.403 . S
C556 C557 1.404 . S
C556 C559 1.539 . S
C557 C553 1.408 . S
C557 C556 1.404 . S
C557 H569 0.930 . S
C558 C554 1.524 . S
C558 H570 0.956 . S
C558 H571 0.961 . S
C558 H572 0.961 . S
C559 C556 1.539 . S
C559 H573 0.958 . S
C559 H574 0.961 . S
C559 H575 0.960 . S
H560 C544 0.931 . S
H561 C549 0.929 . S
H562 C550 0.960 . S
H563 C550 0.962 . S
H564 C550 0.960 . S
H565 C551 0.961 . S
H566 C551 0.961 . S
H567 C551 0.961 . S
H568 C552 0.931 . S
H569 C557 0.930 . S
H570 C558 0.956 . S
H571 C558 0.961 . S
H572 C558 0.961 . S
H573 C559 0.958 . S
H574 C559 0.961 . S
H575 C559 0.960 . S
C576 C577 1.391 . S
C576 C578 1.394 . S
C576 H592 0.931 . S
C577 C576 1.391 . S
C577 C581 1.376 . S
C578 C576 1.394 . S
C578 C579 1.369 . S
C578 C582 1.531 1_564 S
C579 C578 1.369 . S
C579 C580 1.410 . S
C579 C587 1.503 1_554 S
C580 C579 1.410 . S
C580 C581 1.392 . S
C580 C583 1.511 . S
C581 C577 1.376 . S
C581 C580 1.392 . S
C581 H593 0.929 . S
C582 C578 1.531 1_546 S
C582 H594 0.960 . S
C582 H595 0.962 1_545 S
C582 H596 0.960 1_556 S
C583 C580 1.511 . S
C583 H597 0.961 . S
C583 H598 0.961 1_554 S
C583 H599 0.961 . S
C584 C585 1.370 . S
C584 C586 1.363 . S
C584 H600 0.931 . S
C585 C584 1.370 . S
C585 C589 1.408 1_565 S
C586 C584 1.363 . S
C586 C587 1.370 . S
C586 C590 1.524 . S
C587 C579 1.503 1_556 S
C587 C586 1.370 . S
C587 C588 1.403 . S
C588 C587 1.403 . S
C588 C589 1.404 1_565 S
C588 C591 1.539 1_565 S
C589 C585 1.408 1_545 S
C589 C588 1.404 1_545 S
C589 H601 0.930 . S
C590 C586 1.524 . S
C590 H602 0.956 . S
C590 H603 0.961 . S
C590 H604 0.961 . S
C591 C588 1.539 1_545 S
C591 H605 0.958 . S
C591 H606 0.961 . S
C591 H607 0.960 1_556 S
H592 C576 0.931 . S
H593 C581 0.929 . S
H594 C582 0.960 . S
H595 C582 0.962 1_565 S
H596 C582 0.960 1_554 S
H597 C583 0.961 . S
H598 C583 0.961 1_556 S
H599 C583 0.961 . S
H600 C584 0.931 . S
H601 C589 0.930 . S
H602 C590 0.956 . S
H603 C590 0.961 . S
H604 C590 0.961 . S
H605 C591 0.958 . S
H606 C591 0.961 . S
H607 C591 0.960 1_554 S
C608 C609 1.391 . S
C608 C610 1.394 . S
C608 H624 0.931 . S
C609 C608 1.391 . S
C609 C613 1.376 . S
C610 C608 1.394 . S
C610 C611 1.369 1_554 S
C610 C614 1.531 . S
C611 C610 1.369 1_556 S
C611 C612 1.410 . S
C611 C619 1.503 . S
C612 C611 1.410 . S
C612 C613 1.392 1_556 S
C612 C615 1.511 . S
C613 C609 1.376 . S
C613 C612 1.392 1_554 S
C613 H625 0.929 . S
C614 C610 1.531 . S
C614 H626 0.960 1_554 S
C614 H627 0.962 1_554 S
C614 H628 0.960 . S
C615 C612 1.511 . S
C615 H629 0.961 . S
C615 H630 0.961 . S
C615 H631 0.961 . S
C616 C617 1.370 . S
C616 C618 1.363 . S
C616 H632 0.931 . S
C617 C616 1.370 . S
C617 C621 1.408 . S
C618 C616 1.363 . S
C618 C619 1.370 . S
C618 C622 1.524 . S
C619 C611 1.503 . S
C619 C618 1.370 . S
C619 C620 1.403 . S
C620 C619 1.403 . S
C620 C621 1.404 . S
C620 C623 1.539 . S
C621 C617 1.408 . S
C621 C620 1.404 . S
C621 H633 0.930 . S
C622 C618 1.524 . S
C622 H634 0.956 . S
C622 H635 0.961 . S
C622 H636 0.961 . S
C623 C620 1.539 . S
C623 H637 0.958 . S
C623 H638 0.961 . S
C623 H639 0.960 . S
H624 C608 0.931 . S
H625 C613 0.929 . S
H626 C614 0.960 1_556 S
H627 C614 0.962 1_556 S
H628 C614 0.960 . S
H629 C615 0.961 . S
H630 C615 0.961 . S
H631 C615 0.961 . S
H632 C616 0.931 . S
H633 C621 0.930 . S
H634 C622 0.956 . S
H635 C622 0.961 . S
H636 C622 0.961 . S
H637 C623 0.958 . S
H638 C623 0.961 . S
H639 C623 0.960 . S
C640 C641 1.391 . S
C640 C642 1.394 1_554 S
C640 H656 0.931 . S
C641 C640 1.391 . S
C641 C645 1.376 . S
C642 C640 1.394 1_556 S
C642 C643 1.369 . S
C642 C646 1.531 . S
C643 C642 1.369 . S
C643 C644 1.410 . S
C643 C651 1.503 . S
C644 C643 1.410 . S
C644 C645 1.392 1_556 S
C644 C647 1.511 . S
C645 C641 1.376 . S
C645 C644 1.392 1_554 S
C645 H657 0.929 . S
C646 C642 1.531 . S
C646 H658 0.960 . S
C646 H659 0.962 . S
C646 H660 0.960 . S
C647 C644 1.511 . S
C647 H661 0.961 . S
C647 H662 0.961 . S
C647 H663 0.961 . S
C648 C649 1.370 . S
C648 C650 1.363 . S
C648 H664 0.931 . S
C649 C648 1.370 . S
C649 C653 1.408 . S
C650 C648 1.363 . S
C650 C651 1.370 . S
C650 C654 1.524 . S
C651 C643 1.503 . S
C651 C650 1.370 . S
C651 C652 1.403 . S
C652 C651 1.403 . S
C652 C653 1.404 . S
C652 C655 1.539 . S
C653 C649 1.408 . S
C653 C652 1.404 . S
C653 H665 0.930 . S
C654 C650 1.524 . S
C654 H666 0.956 . S
C654 H667 0.961 . S
C654 H668 0.961 . S
C655 C652 1.539 . S
C655 H669 0.958 . S
C655 H670 0.961 . S
C655 H671 0.960 . S
H656 C640 0.931 . S
H657 C645 0.929 . S
H658 C646 0.960 . S
H659 C646 0.962 . S
H660 C646 0.960 . S
H661 C647 0.961 . S
H662 C647 0.961 . S
H663 C647 0.961 . S
H664 C648 0.931 . S
H665 C653 0.930 . S
H666 C654 0.956 . S
H667 C654 0.961 . S
H668 C654 0.961 . S
H669 C655 0.958 . S
H670 C655 0.961 . S
H671 C655 0.960 . S
C672 C673 1.391 . S
C672 C674 1.394 . S
C672 H688 0.931 . S
C673 C672 1.391 . S
C673 C677 1.376 . S
C674 C672 1.394 . S
C674 C675 1.369 1_554 S
C674 C678 1.531 1_655 S
C675 C674 1.369 1_556 S
C675 C676 1.410 1_556 S
C675 C683 1.503 . S
C676 C675 1.410 1_554 S
C676 C677 1.392 . S
C676 C679 1.511 1_554 S
C677 C673 1.376 . S
C677 C676 1.392 . S
C677 H689 0.929 . S
C678 C674 1.531 1_455 S
C678 H690 0.960 . S
C678 H691 0.962 . S
C678 H692 0.960 . S
C679 C676 1.511 1_556 S
C679 H693 0.961 . S
C679 H694 0.961 . S
C679 H695 0.961 . S
C680 C681 1.370 . S
C680 C682 1.363 . S
C680 H696 0.931 1_655 S
C681 C680 1.370 . S
C681 C685 1.408 . S
C682 C680 1.363 . S
C682 C683 1.370 . S
C682 C686 1.524 1_655 S
C683 C675 1.503 . S
C683 C682 1.370 . S
C683 C684 1.403 . S
C684 C683 1.403 . S
C684 C685 1.404 . S
C684 C687 1.539 . S
C685 C681 1.408 . S
C685 C684 1.404 . S
C685 H697 0.930 . S
C686 C682 1.524 1_455 S
C686 H698 0.956 . S
C686 H699 0.961 1_455 S
C686 H700 0.961 . S
C687 C684 1.539 . S
C687 H701 0.958 . S
C687 H702 0.961 . S
C687 H703 0.960 . S
H688 C672 0.931 . S
H689 C677 0.929 . S
H690 C678 0.960 . S
H691 C678 0.962 . S
H692 C678 0.960 . S
H693 C679 0.961 . S
H694 C679 0.961 . S
H695 C679 0.961 . S
H696 C680 0.931 1_455 S
H697 C685 0.930 . S
H698 C686 0.956 . S
H699 C686 0.961 1_655 S
H700 C686 0.961 . S
H701 C687 0.958 . S
H702 C687 0.961 . S
H703 C687 0.960 . S
C704 C705 1.391 . S
C704 C706 1.394 . S
C704 H720 0.931 . S
C705 C704 1.391 . S
C705 C709 1.376 . S
C706 C704 1.394 . S
C706 C707 1.369 . S
C706 C710 1.531 . S
C707 C706 1.369 . S
C707 C708 1.410 . S
C707 C715 1.503 . S
C708 C707 1.410 . S
C708 C709 1.392 . S
C708 C711 1.511 1_455 S
C709 C705 1.376 . S
C709 C708 1.392 . S
C709 H721 0.929 . S
C710 C706 1.531 . S
C710 H722 0.960 . S
C710 H723 0.962 . S
C710 H724 0.960 . S
C711 C708 1.511 1_655 S
C711 H725 0.961 . S
C711 H726 0.961 . S
C711 H727 0.961 . S
C712 C713 1.370 1_455 S
C712 C714 1.363 . S
C712 H728 0.931 . S
C713 C712 1.370 1_655 S
C713 C717 1.408 1_655 S
C714 C712 1.363 . S
C714 C715 1.370 . S
C714 C718 1.524 . S
C715 C707 1.503 . S
C715 C714 1.370 . S
C715 C716 1.403 . S
C716 C715 1.403 . S
C716 C717 1.404 . S
C716 C719 1.539 . S
C717 C713 1.408 1_455 S
C717 C716 1.404 . S
C717 H729 0.921 1_455 S
C718 C714 1.524 . S
C718 H730 0.956 . S
C718 H731 0.961 . S
C718 H732 0.961 . S
C719 C716 1.539 . S
C719 H733 0.958 . S
C719 H734 0.961 . S
C719 H735 0.960 . S
H720 C704 0.931 . S
H721 C709 0.929 . S
H722 C710 0.960 . S
H723 C710 0.962 . S
H724 C710 0.960 . S
H725 C711 0.961 . S
H726 C711 0.961 . S
H727 C711 0.961 . S
H728 C712 0.931 . S
H729 C717 0.921 1_655 S
H730 C718 0.956 . S
H731 C718 0.961 . S
H732 C718 0.961 . S
H733 C719 0.958 . S
H734 C719 0.961 . S
H735 C719 0.960 . S
C736 C737 1.391 . S
C736 C738 1.394 . S
C736 H752 0.931 . S
C737 C736 1.391 . S
C737 C741 1.376 . S
C738 C736 1.394 . S
C738 C739 1.369 . S
C738 C742 1.531 . S
C739 C738 1.369 . S
C739 C740 1.410 . S
C739 C747 1.503 . S
C740 C739 1.410 . S
C740 C741 1.392 . S
C740 C743 1.511 . S
C741 C737 1.376 . S
C741 C740 1.392 . S
C741 H753 0.929 . S
C742 C738 1.531 . S
C742 H754 0.960 . S
C742 H755 0.962 . S
C742 H756 0.960 . S
C743 C740 1.511 . S
C743 H757 0.961 . S
C743 H758 0.961 . S
C743 H759 0.961 . S
C744 C745 1.370 . S
C744 C746 1.363 1_565 S
C744 H760 0.931 . S
C745 C744 1.370 . S
C745 C749 1.408 1_565 S
C746 C744 1.363 1_545 S
C746 C747 1.370 . S
C746 C750 1.524 1_545 S
C747 C739 1.503 . S
C747 C746 1.370 . S
C747 C748 1.403 . S
C748 C747 1.403 . S
C748 C749 1.404 . S
C748 C751 1.539 . S
C749 C745 1.408 1_545 S
C749 C748 1.404 . S
C749 H761 0.930 . S
C750 C746 1.524 1_565 S
C750 H762 0.956 . S
C750 H763 0.961 . S
C750 H764 0.961 . S
C751 C748 1.539 . S
C751 H765 0.958 . S
C751 H766 0.961 . S
C751 H767 0.960 . S
H752 C736 0.931 . S
H753 C741 0.929 . S
H754 C742 0.960 . S
H755 C742 0.962 . S
H756 C742 0.960 . S
H757 C743 0.961 . S
H758 C743 0.961 . S
H759 C743 0.961 . S
H760 C744 0.931 . S
H761 C749 0.930 . S
H762 C750 0.956 . S
H763 C750 0.961 . S
H764 C750 0.961 . S
H765 C751 0.958 . S
H766 C751 0.961 . S
H767 C751 0.960 . S
C768 C769 1.391 . S
C768 C770 1.394 . S
C768 H784 0.931 . S
C769 C768 1.391 . S
C769 C773 1.376 . S
C770 C768 1.394 . S
C770 C771 1.369 . S
C770 C774 1.531 . S
C771 C770 1.369 . S
C771 C772 1.410 . S
C771 C779 1.503 . S
C772 C771 1.410 . S
C772 C773 1.392 . S
C772 C775 1.511 . S
C773 C769 1.376 . S
C773 C772 1.392 . S
C773 H785 0.929 . S
C774 C770 1.531 . S
C774 H786 0.960 . S
C774 H787 0.962 . S
C774 H788 0.960 . S
C775 C772 1.511 . S
C775 H789 0.961 . S
C775 H790 0.961 . S
C775 H791 0.961 . S
C776 C777 1.370 . S
C776 C778 1.363 . S
C776 H792 0.931 . S
C777 C776 1.370 . S
C777 C781 1.408 . S
C778 C776 1.363 . S
C778 C779 1.370 . S
C778 C782 1.524 . S
C779 C771 1.503 . S
C779 C778 1.370 . S
C779 C780 1.403 . S
C780 C779 1.403 . S
C780 C781 1.404 . S
C780 C783 1.539 . S
C781 C777 1.408 . S
C781 C780 1.404 . S
C781 H793 0.930 . S
C782 C778 1.524 . S
C782 H794 0.956 . S
C782 H795 0.961 . S
C782 H796 0.961 . S
C783 C780 1.539 . S
C783 H797 0.958 . S
C783 H798 0.961 . S
C783 H799 0.960 . S
H784 C768 0.931 . S
H785 C773 0.929 . S
H786 C774 0.960 . S
H787 C774 0.962 . S
H788 C774 0.960 . S
H789 C775 0.961 . S
H790 C775 0.961 . S
H791 C775 0.961 . S
H792 C776 0.931 . S
H793 C781 0.930 . S
H794 C782 0.956 . S
H795 C782 0.961 . S
H796 C782 0.961 . S
H797 C783 0.958 . S
H798 C783 0.961 . S
H799 C783 0.960 . S
C800 C801 1.391 . S
C800 C802 1.394 . S
C800 H816 0.931 . S
C801 C800 1.391 . S
C801 C805 1.376 . S
C802 C800 1.394 . S
C802 C803 1.369 . S
C802 C806 1.531 . S
C803 C802 1.369 . S
C803 C804 1.410 . S
C803 C811 1.503 . S
C804 C803 1.410 . S
C804 C805 1.392 . S
C804 C807 1.511 . S
C805 C801 1.376 . S
C805 C804 1.392 . S
C805 H817 0.929 . S
C806 C802 1.531 . S
C806 H818 0.960 . S
C806 H819 0.962 . S
C806 H820 0.960 . S
C807 C804 1.511 . S
C807 H821 0.961 . S
C807 H822 0.961 . S
C807 H823 0.961 . S
C808 C809 1.370 . S
C808 C810 1.363 . S
C808 H824 0.931 . S
C809 C808 1.370 . S
C809 C813 1.408 . S
C810 C808 1.363 . S
C810 C811 1.370 . S
C810 C814 1.524 . S
C811 C803 1.503 . S
C811 C810 1.370 . S
C811 C812 1.403 . S
C812 C811 1.403 . S
C812 C813 1.404 . S
C812 C815 1.539 . S
C813 C809 1.408 . S
C813 C812 1.404 . S
C813 H825 0.930 . S
C814 C810 1.524 . S
C814 H826 0.956 . S
C814 H827 0.961 . S
C814 H828 0.961 . S
C815 C812 1.539 . S
C815 H829 0.958 . S
C815 H830 0.961 . S
C815 H831 0.960 . S
H816 C800 0.931 . S
H817 C805 0.929 . S
H818 C806 0.960 . S
H819 C806 0.962 . S
H820 C806 0.960 . S
H821 C807 0.961 . S
H822 C807 0.961 . S
H823 C807 0.961 . S
H824 C808 0.931 . S
H825 C813 0.930 . S
H826 C814 0.956 . S
H827 C814 0.961 . S
H828 C814 0.961 . S
H829 C815 0.958 . S
H830 C815 0.961 . S
H831 C815 0.960 . S
C832 C833 1.391 . S
C832 C834 1.394 1_554 S
C832 H848 0.931 1_554 S
C833 C832 1.391 . S
C833 C837 1.376 . S
C834 C832 1.394 1_556 S
C834 C835 1.369 1_556 S
C834 C838 1.531 . S
C835 C834 1.369 1_554 S
C835 C836 1.410 . S
C835 C843 1.503 1_554 S
C836 C835 1.410 . S
C836 C837 1.392 . S
C836 C839 1.542 . S
C837 C833 1.376 . S
C837 C836 1.392 . S
C837 H849 0.929 . S
C838 C834 1.531 . S
C838 H850 0.960 . S
C838 H851 0.962 . S
C838 H852 0.960 . S
C839 C836 1.542 . S
C839 H853 0.941 1_655 S
C839 H854 0.924 1_655 S
C839 H855 0.989 . S
C840 C841 1.370 . S
C840 C842 1.363 . S
C840 H856 0.931 . S
C841 C840 1.370 . S
C841 C845 1.408 1_455 S
C842 C840 1.363 . S
C842 C843 1.370 1_455 S
C842 C846 1.524 . S
C843 C835 1.503 1_556 S
C843 C842 1.370 1_655 S
C843 C844 1.402 1_556 S
C844 C843 1.402 1_554 S
C844 C845 1.402 1_554 S
C844 C847 1.542 . S
C845 C841 1.408 1_655 S
C845 C844 1.402 1_556 S
C845 H857 0.930 . S
C846 C842 1.524 . S
C846 H858 0.956 . S
C846 H859 0.961 1_556 S
C846 H860 0.961 . S
C847 C844 1.542 . S
C847 H861 0.958 . S
C847 H862 0.961 . S
C847 H863 0.960 . S
H848 C832 0.931 1_556 S
H849 C837 0.929 . S
H850 C838 0.960 . S
H851 C838 0.962 . S
H852 C838 0.960 . S
H853 C839 0.941 1_455 S
H854 C839 0.924 1_455 S
H855 C839 0.989 . S
H856 C840 0.931 . S
H857 C845 0.930 . S
H858 C846 0.956 . S
H859 C846 0.961 1_554 S
H860 C846 0.961 . S
H861 C847 0.958 . S
H862 C847 0.961 . S
H863 C847 0.960 . S
C864 C865 1.391 . S
C864 C866 1.394 . S
C864 H880 0.931 . S
C865 C864 1.391 . S
C865 C869 1.376 . S
C866 C864 1.394 . S
C866 C867 1.369 . S
C866 C870 1.531 . S
C867 C866 1.369 . S
C867 C868 1.410 . S
C867 C875 1.503 1_554 S
C868 C867 1.410 . S
C868 C869 1.392 . S
C868 C871 1.511 1_564 S
C869 C865 1.376 . S
C869 C868 1.392 . S
C869 H881 0.929 . S
C870 C866 1.531 . S
C870 H882 0.960 . S
C870 H883 0.962 1_554 S
C870 H884 0.960 . S
C871 C868 1.511 1_546 S
C871 H885 0.961 . S
C871 H886 0.961 . S
C871 H887 0.961 1_556 S
C872 C873 1.370 1_565 S
C872 C874 1.363 . S
C872 H888 0.931 . S
C873 C872 1.370 1_545 S
C873 C877 1.408 . S
C874 C872 1.363 . S
C874 C875 1.370 . S
C874 C878 1.524 . S
C875 C867 1.503 1_556 S
C875 C874 1.370 . S
C875 C876 1.403 1_565 S
C876 C875 1.403 1_545 S
C876 C877 1.404 . S
C876 C879 1.539 1_556 S
C877 C873 1.408 . S
C877 C876 1.404 . S
C877 H889 0.930 . S
C878 C874 1.524 . S
C878 H890 0.956 . S
C878 H891 0.961 . S
C878 H892 0.961 . S
C879 C876 1.539 1_554 S
C879 H893 0.958 . S
C879 H894 0.961 . S
C879 H895 0.960 . S
H880 C864 0.931 . S
H881 C869 0.929 . S
H882 C870 0.960 . S
H883 C870 0.962 1_556 S
H884 C870 0.960 . S
H885 C871 0.961 . S
H886 C871 0.961 . S
H887 C871 0.961 1_554 S
H888 C872 0.931 . S
H889 C877 0.930 . S
H890 C878 0.956 . S
H891 C878 0.961 . S
H892 C878 0.961 . S
H893 C879 0.958 . S
H894 C879 0.961 . S
H895 C879 0.960 . S
C896 C897 1.391 . S
C896 C898 1.394 . S
C896 H912 0.931 . S
C897 C896 1.391 . S
C897 C901 1.376 1_554 S
C898 C896 1.394 . S
C898 C899 1.369 1_554 S
C898 C902 1.531 . S
C899 C898 1.369 1_556 S
C899 C900 1.410 . S
C899 C907 1.503 . S
C900 C899 1.410 . S
C900 C901 1.392 . S
C900 C903 1.511 . S
C901 C897 1.376 1_556 S
C901 C900 1.392 . S
C901 H913 0.929 . S
C902 C898 1.531 . S
C902 H914 0.960 . S
C902 H915 0.962 . S
C902 H916 0.960 . S
C903 C900 1.511 . S
C903 H917 0.961 . S
C903 H918 0.961 . S
C903 H919 0.961 . S
C904 C905 1.370 . S
C904 C906 1.363 . S
C904 H920 0.931 . S
C905 C904 1.370 . S
C905 C909 1.408 . S
C906 C904 1.363 . S
C906 C907 1.370 . S
C906 C910 1.524 . S
C907 C899 1.503 . S
C907 C906 1.370 . S
C907 C908 1.403 . S
C908 C907 1.403 . S
C908 C909 1.404 . S
C908 C911 1.539 . S
C909 C905 1.408 . S
C909 C908 1.404 . S
C909 H921 0.930 . S
C910 C906 1.524 . S
C910 H922 0.956 . S
C910 H923 0.961 . S
C910 H924 0.961 . S
C911 C908 1.539 . S
C911 H925 0.944 1_556 S
C911 H926 0.961 . S
C911 H927 0.960 . S
H912 C896 0.931 . S
H913 C901 0.929 . S
H914 C902 0.960 . S
H915 C902 0.962 . S
H916 C902 0.960 . S
H917 C903 0.961 . S
H918 C903 0.961 . S
H919 C903 0.961 . S
H920 C904 0.931 . S
H921 C909 0.930 . S
H922 C910 0.956 . S
H923 C910 0.961 . S
H924 C910 0.961 . S
H925 C911 0.944 1_554 S
H926 C911 0.961 . S
H927 C911 0.960 . S
C928 C929 1.391 1_556 S
C928 C930 1.394 . S
C928 H944 0.931 . S
C929 C928 1.391 1_554 S
C929 C933 1.376 . S
C930 C928 1.394 . S
C930 C931 1.369 . S
C930 C934 1.531 . S
C931 C930 1.369 . S
C931 C932 1.410 1_556 S
C931 C939 1.503 . S
C932 C931 1.410 1_554 S
C932 C933 1.392 . S
C932 C935 1.511 . S
C933 C929 1.376 . S
C933 C932 1.392 . S
C933 H945 0.929 . S
C934 C930 1.531 . S
C934 H946 0.960 . S
C934 H947 0.962 . S
C934 H948 0.960 . S
C935 C932 1.511 . S
C935 H949 0.961 . S
C935 H950 0.961 . S
C935 H951 0.961 . S
C936 C937 1.370 . S
C936 C938 1.363 . S
C936 H952 0.931 . S
C937 C936 1.370 . S
C937 C941 1.408 . S
C938 C936 1.363 . S
C938 C939 1.370 . S
C938 C942 1.524 . S
C939 C931 1.503 . S
C939 C938 1.370 . S
C939 C940 1.403 . S
C940 C939 1.403 . S
C940 C941 1.404 . S
C940 C943 1.539 1_556 S
C941 C937 1.408 . S
C941 C940 1.404 . S
C941 H953 0.930 . S
C942 C938 1.524 . S
C942 H954 0.956 . S
C942 H955 0.961 . S
C942 H956 0.961 . S
C943 C940 1.539 1_554 S
C943 H957 0.958 1_554 S
C943 H958 0.961 . S
C943 H959 0.960 . S
H944 C928 0.931 . S
H945 C933 0.929 . S
H946 C934 0.960 . S
H947 C934 0.962 . S
H948 C934 0.960 . S
H949 C935 0.961 . S
H950 C935 0.961 . S
H951 C935 0.961 . S
H952 C936 0.931 . S
H953 C941 0.930 . S
H954 C942 0.956 . S
H955 C942 0.961 . S
H956 C942 0.961 . S
H957 C943 0.958 1_556 S
H958 C943 0.961 . S
H959 C943 0.960 . S
C960 C961 1.391 . S
C960 C962 1.394 . S
C960 H976 0.931 . S
C961 C960 1.391 . S
C961 C965 1.376 . S
C962 C960 1.394 . S
C962 C963 1.369 . S
C962 C966 1.531 . S
C963 C962 1.369 . S
C963 C964 1.410 . S
C963 C971 1.503 . S
C964 C963 1.410 . S
C964 C965 1.392 . S
C964 C967 1.511 1_455 S
C965 C961 1.376 . S
C965 C964 1.392 . S
C965 H977 0.929 . S
C966 C962 1.531 . S
C966 H978 0.960 . S
C966 H979 0.962 . S
C966 H980 0.960 . S
C967 C964 1.511 1_655 S
C967 H981 0.961 . S
C967 H982 0.961 . S
C967 H983 0.961 . S
C968 C969 1.370 . S
C968 C970 1.363 . S
C968 H984 0.931 . S
C969 C968 1.370 . S
C969 C973 1.408 . S
C970 C968 1.363 . S
C970 C971 1.370 . S
C970 C974 1.524 . S
C971 C963 1.503 . S
C971 C970 1.370 . S
C971 C972 1.403 . S
C972 C971 1.403 . S
C972 C973 1.404 . S
C972 C975 1.539 . S
C973 C969 1.408 . S
C973 C972 1.404 . S
C973 H985 0.930 . S
C974 C970 1.524 . S
C974 H986 0.956 . S
C974 H987 0.961 . S
C974 H988 0.961 . S
C975 C972 1.539 . S
C975 H989 0.958 . S
C975 H990 0.961 . S
C975 H991 0.960 . S
H976 C960 0.931 . S
H977 C965 0.929 . S
H978 C966 0.960 . S
H979 C966 0.962 . S
H980 C966 0.960 . S
H981 C967 0.961 . S
H982 C967 0.961 . S
H983 C967 0.961 . S
H984 C968 0.931 . S
H985 C973 0.930 . S
H986 C974 0.956 . S
H987 C974 0.961 . S
H988 C974 0.961 . S
H989 C975 0.958 . S
H990 C975 0.961 . S
H991 C975 0.960 . S
C992 C993 1.391 . S
C992 C994 1.394 . S
C992 H1008 0.931 . S
C993 C992 1.391 . S
C993 C997 1.376 . S
C994 C992 1.394 . S
C994 C995 1.369 . S
C994 C998 1.571 . S
C995 C994 1.369 . S
C995 C996 1.410 . S
C995 C1003 1.503 . S
C996 C995 1.410 . S
C996 C997 1.392 . S
C996 C999 1.511 . S
C997 C993 1.376 . S
C997 C996 1.392 . S
C997 H1009 0.929 . S
C998 C994 1.571 . S
C998 H1010 0.952 1_545 S
C998 H1011 0.962 . S
C998 H1012 0.931 1_545 S
C999 C996 1.511 . S
C999 H1013 0.961 . S
C999 H1014 0.961 . S
C999 H1015 0.961 . S
C1000 C1001 1.370 . S
C1000 C1002 1.363 . S
C1000 H1016 0.931 . S
C1001 C1000 1.370 . S
C1001 C1005 1.408 . S
C1002 C1000 1.363 . S
C1002 C1003 1.370 . S
C1002 C1006 1.524 . S
C1003 C995 1.503 . S
C1003 C1002 1.370 . S
C1003 C1004 1.403 . S
C1004 C1003 1.403 . S
C1004 C1005 1.404 . S
C1004 C1007 1.539 . S
C1005 C1001 1.408 . S
C1005 C1004 1.404 . S
C1005 H1017 0.930 . S
C1006 C1002 1.524 . S
C1006 H1018 0.956 . S
C1006 H1019 0.961 . S
C1006 H1020 0.961 . S
C1007 C1004 1.539 . S
C1007 H1021 0.958 . S
C1007 H1022 0.961 . S
C1007 H1023 0.960 . S
H1008 C992 0.931 . S
H1009 C997 0.929 . S
H1010 C998 0.952 1_565 S
H1011 C998 0.962 . S
H1012 C998 0.931 1_565 S
H1013 C999 0.961 . S
H1014 C999 0.961 . S
H1015 C999 0.961 . S
H1016 C1000 0.931 . S
H1017 C1005 0.930 . S
H1018 C1006 0.956 . S
H1019 C1006 0.961 . S
H1020 C1006 0.961 . S
H1021 C1007 0.958 . S
H1022 C1007 0.961 . S
H1023 C1007 0.960 . S
C1024 C1025 1.391 . S
C1024 C1026 1.394 . S
C1024 H1040 0.931 . S
C1025 C1024 1.391 . S
C1025 C1029 1.376 . S
C1026 C1024 1.394 . S
C1026 C1027 1.369 . S
C1026 C1030 1.531 . S
C1027 C1026 1.369 . S
C1027 C1028 1.410 . S
C1027 C1035 1.503 . S
C1028 C1027 1.410 . S
C1028 C1029 1.392 . S
C1028 C1031 1.511 . S
C1029 C1025 1.376 . S
C1029 C1028 1.392 . S
C1029 H1041 0.929 . S
C1030 C1026 1.531 . S
C1030 H1042 0.960 . S
C1030 H1043 0.962 . S
C1030 H1044 0.960 . S
C1031 C1028 1.511 . S
C1031 H1045 0.961 . S
C1031 H1046 0.961 . S
C1031 H1047 0.961 . S
C1032 C1033 1.370 . S
C1032 C1034 1.363 . S
C1032 H1048 0.931 . S
C1033 C1032 1.370 . S
C1033 C1037 1.408 . S
C1034 C1032 1.363 . S
C1034 C1035 1.370 . S
C1034 C1038 1.524 . S
C1035 C1027 1.503 . S
C1035 C1034 1.370 . S
C1035 C1036 1.403 . S
C1036 C1035 1.403 . S
C1036 C1037 1.404 . S
C1036 C1039 1.539 . S
C1037 C1033 1.408 . S
C1037 C1036 1.404 . S
C1037 H1049 0.930 . S
C1038 C1034 1.524 . S
C1038 H1050 0.956 . S
C1038 H1051 0.961 . S
C1038 H1052 0.961 . S
C1039 C1036 1.539 . S
C1039 H1053 0.958 . S
C1039 H1054 0.961 . S
C1039 H1055 0.960 . S
H1040 C1024 0.931 . S
H1041 C1029 0.929 . S
H1042 C1030 0.960 . S
H1043 C1030 0.962 . S
H1044 C1030 0.960 . S
H1045 C1031 0.961 . S
H1046 C1031 0.961 . S
H1047 C1031 0.961 . S
H1048 C1032 0.931 . S
H1049 C1037 0.930 . S
H1050 C1038 0.956 . S
H1051 C1038 0.961 . S
H1052 C1038 0.961 . S
H1053 C1039 0.958 . S
H1054 C1039 0.961 . S
H1055 C1039 0.960 . S
C1056 C1057 1.391 . S
C1056 C1058 1.394 . S
C1056 H1072 0.931 . S
C1057 C1056 1.391 . S
C1057 C1061 1.376 . S
C1058 C1056 1.394 . S
C1058 C1059 1.369 . S
C1058 C1062 1.531 . S
C1059 C1058 1.369 . S
C1059 C1060 1.410 . S
C1059 C1067 1.503 . S
C1060 C1059 1.410 . S
C1060 C1061 1.392 . S
C1060 C1063 1.511 . S
C1061 C1057 1.376 . S
C1061 C1060 1.392 . S
C1061 H1073 0.929 . S
C1062 C1058 1.531 . S
C1062 H1074 0.960 . S
C1062 H1075 0.962 . S
C1062 H1076 0.960 . S
C1063 C1060 1.511 . S
C1063 H1077 0.961 . S
C1063 H1078 0.961 . S
C1063 H1079 0.961 . S
C1064 C1065 1.370 . S
C1064 C1066 1.363 . S
C1064 H1080 0.931 . S
C1065 C1064 1.370 . S
C1065 C1069 1.408 . S
C1066 C1064 1.363 . S
C1066 C1067 1.370 . S
C1066 C1070 1.524 . S
C1067 C1059 1.503 . S
C1067 C1066 1.370 . S
C1067 C1068 1.403 . S
C1068 C1067 1.403 . S
C1068 C1069 1.404 . S
C1068 C1071 1.539 . S
C1069 C1065 1.408 . S
C1069 C1068 1.404 . S
C1069 H1081 0.930 . S
C1070 C1066 1.524 . S
C1070 H1082 0.956 . S
C1070 H1083 0.961 . S
C1070 H1084 0.961 . S
C1071 C1068 1.539 . S
C1071 H1085 0.958 . S
C1071 H1086 0.961 . S
C1071 H1087 0.960 . S
H1072 C1056 0.931 . S
H1073 C1061 0.929 . S
H1074 C1062 0.960 . S
H1075 C1062 0.962 . S
H1076 C1062 0.960 . S
H1077 C1063 0.961 . S
H1078 C1063 0.961 . S
H1079 C1063 0.961 . S
H1080 C1064 0.931 . S
H1081 C1069 0.930 . S
H1082 C1070 0.956 . S
H1083 C1070 0.961 . S
H1084 C1070 0.961 . S
H1085 C1071 0.958 . S
H1086 C1071 0.961 . S
H1087 C1071 0.960 . S
C1088 C1089 1.391 . S
C1088 C1090 1.394 . S
C1088 H1104 0.931 . S
C1089 C1088 1.391 . S
C1089 C1093 1.376 . S
C1090 C1088 1.394 . S
C1090 C1091 1.369 . S
C1090 C1094 1.531 . S
C1091 C1090 1.369 . S
C1091 C1092 1.410 . S
C1091 C1099 1.503 . S
C1092 C1091 1.410 . S
C1092 C1093 1.392 . S
C1092 C1095 1.511 1_655 S
C1093 C1089 1.376 . S
C1093 C1092 1.392 . S
C1093 H1105 0.929 . S
C1094 C1090 1.531 . S
C1094 H1106 0.960 . S
C1094 H1107 0.962 . S
C1094 H1108 0.960 . S
C1095 C1092 1.511 1_455 S
C1095 H1109 0.961 . S
C1095 H1110 0.961 . S
C1095 H1111 0.961 . S
C1096 C1097 1.370 . S
C1096 C1098 1.363 . S
C1096 H1112 0.931 . S
C1097 C1096 1.370 . S
C1097 C1101 1.408 . S
C1098 C1096 1.363 . S
C1098 C1099 1.370 . S
C1098 C1102 1.524 . S
C1099 C1091 1.503 . S
C1099 C1098 1.370 . S
C1099 C1100 1.403 . S
C1100 C1099 1.403 . S
C1100 C1101 1.404 . S
C1100 C1103 1.539 1_655 S
C1101 C1097 1.408 . S
C1101 C1100 1.404 . S
C1101 H1113 0.930 1_655 S
C1102 C1098 1.524 . S
C1102 H1114 0.956 . S
C1102 H1115 0.961 . S
C1102 H1116 0.961 . S
C1103 C1100 1.539 1_455 S
C1103 H1117 0.955 1_455 S
C1103 H1118 0.961 . S
C1103 H1119 0.960 . S
H1104 C1088 0.931 . S
H1105 C1093 0.929 . S
H1106 C1094 0.960 . S
H1107 C1094 0.962 . S
H1108 C1094 0.960 . S
H1109 C1095 0.961 . S
H1110 C1095 0.961 . S
H1111 C1095 0.961 . S
H1112 C1096 0.931 . S
H1113 C1101 0.930 1_455 S
H1114 C1102 0.956 . S
H1115 C1102 0.961 . S
H1116 C1102 0.961 . S
H1117 C1103 0.955 1_655 S
H1118 C1103 0.961 . S
H1119 C1103 0.960 . S
C1120 C1121 1.391 . S
C1120 C1122 1.394 . S
C1120 H1136 0.931 . S
C1121 C1120 1.391 . S
C1121 C1125 1.376 . S
C1122 C1120 1.394 . S
C1122 C1123 1.369 . S
C1122 C1126 1.531 1_565 S
C1123 C1122 1.369 . S
C1123 C1124 1.410 . S
C1123 C1131 1.503 . S
C1124 C1123 1.410 . S
C1124 C1125 1.392 . S
C1124 C1127 1.511 . S
C1125 C1121 1.376 . S
C1125 C1124 1.392 . S
C1125 H1137 0.929 . S
C1126 C1122 1.531 1_545 S
C1126 H1138 0.960 . S
C1126 H1139 0.962 . S
C1126 H1140 0.960 . S
C1127 C1124 1.511 . S
C1127 H1141 0.961 . S
C1127 H1142 0.961 . S
C1127 H1143 0.961 . S
C1128 C1129 1.370 . S
C1128 C1130 1.363 . S
C1128 H1144 0.931 . S
C1129 C1128 1.370 . S
C1129 C1133 1.408 . S
C1130 C1128 1.363 . S
C1130 C1131 1.370 . S
C1130 C1134 1.524 . S
C1131 C1123 1.503 . S
C1131 C1130 1.370 . S
C1131 C1132 1.403 . S
C1132 C1131 1.403 . S
C1132 C1133 1.404 . S
C1132 C1135 1.539 . S
C1133 C1129 1.408 . S
C1133 C1132 1.404 . S
C1133 H1145 0.930 . S
C1134 C1130 1.524 . S
C1134 H1146 0.956 . S
C1134 H1147 0.961 . S
C1134 H1148 0.961 . S
C1135 C1132 1.539 . S
C1135 H1149 0.958 . S
C1135 H1150 0.961 . S
C1135 H1151 0.960 . S
H1136 C1120 0.931 . S
H1137 C1125 0.929 . S
H1138 C1126 0.960 . S
H1139 C1126 0.962 . S
H1140 C1126 0.960 . S
H1141 C1127 0.961 . S
H1142 C1127 0.961 . S
H1143 C1127 0.961 . S
H1144 C1128 0.931 . S
H1145 C1133 0.930 . S
H1146 C1134 0.956 . S
H1147 C1134 0.961 . S
H1148 C1134 0.961 . S
H1149 C1135 0.958 . S
H1150 C1135 0.961 . S
H1151 C1135 0.960 . S
C1152 C1153 1.391 . S
C1152 C1154 1.394 . S
C1152 H1168 0.931 . S
C1153 C1152 1.391 . S
C1153 C1157 1.376 . S
C1154 C1152 1.394 . S
C1154 C1155 1.369 . S
C1154 C1158 1.531 . S
C1155 C1154 1.369 . S
C1155 C1156 1.410 . S
C1155 C1163 1.503 . S
C1156 C1155 1.410 . S
C1156 C1157 1.392 . S
C1156 C1159 1.511 . S
C1157 C1153 1.376 . S
C1157 C1156 1.392 . S
C1157 H1169 0.929 . S
C1158 C1154 1.531 . S
C1158 H1170 0.960 . S
C1158 H1171 0.962 . S
C1158 H1172 0.960 . S
C1159 C1156 1.511 . S
C1159 H1173 0.961 . S
C1159 H1174 0.961 . S
C1159 H1175 0.961 . S
C1160 C1161 1.370 . S
C1160 C1162 1.363 . S
C1160 H1176 0.931 . S
C1161 C1160 1.370 . S
C1161 C1165 1.408 . S
C1162 C1160 1.363 . S
C1162 C1163 1.370 . S
C1162 C1166 1.524 . S
C1163 C1155 1.503 . S
C1163 C1162 1.370 . S
C1163 C1164 1.403 . S
C1164 C1163 1.403 . S
C1164 C1165 1.404 . S
C1164 C1167 1.539 . S
C1165 C1161 1.408 . S
C1165 C1164 1.404 . S
C1165 H1177 0.930 . S
C1166 C1162 1.524 . S
C1166 H1178 0.956 . S
C1166 H1179 0.961 . S
C1166 H1180 0.961 . S
C1167 C1164 1.539 . S
C1167 H1181 0.958 . S
C1167 H1182 0.961 . S
C1167 H1183 0.960 . S
H1168 C1152 0.931 . S
H1169 C1157 0.929 . S
H1170 C1158 0.960 . S
H1171 C1158 0.962 . S
H1172 C1158 0.960 . S
H1173 C1159 0.961 . S
H1174 C1159 0.961 . S
H1175 C1159 0.961 . S
H1176 C1160 0.931 . S
H1177 C1165 0.930 . S
H1178 C1166 0.956 . S
H1179 C1166 0.961 . S
H1180 C1166 0.961 . S
H1181 C1167 0.958 . S
H1182 C1167 0.961 . S
H1183 C1167 0.960 . S
C1184 C1185 1.391 . S
C1184 C1186 1.394 . S
C1184 H1200 0.931 . S
C1185 C1184 1.391 . S
C1185 C1189 1.376 . S
C1186 C1184 1.394 . S
C1186 C1187 1.369 . S
C1186 C1190 1.531 . S
C1187 C1186 1.369 . S
C1187 C1188 1.410 . S
C1187 C1195 1.503 . S
C1188 C1187 1.410 . S
C1188 C1189 1.392 . S
C1188 C1191 1.511 . S
C1189 C1185 1.376 . S
C1189 C1188 1.392 . S
C1189 H1201 0.929 . S
C1190 C1186 1.531 . S
C1190 H1202 0.960 . S
C1190 H1203 0.962 . S
C1190 H1204 0.960 . S
C1191 C1188 1.511 . S
C1191 H1205 0.961 . S
C1191 H1206 0.961 . S
C1191 H1207 0.961 . S
C1192 C1193 1.370 . S
C1192 C1194 1.363 . S
C1192 H1208 0.931 . S
C1193 C1192 1.370 . S
C1193 C1197 1.408 . S
C1194 C1192 1.363 . S
C1194 C1195 1.370 . S
C1194 C1198 1.524 . S
C1195 C1187 1.503 . S
C1195 C1194 1.370 . S
C1195 C1196 1.403 . S
C1196 C1195 1.403 . S
C1196 C1197 1.404 . S
C1196 C1199 1.539 . S
C1197 C1193 1.408 . S
C1197 C1196 1.404 . S
C1197 H1209 0.930 . S
C1198 C1194 1.524 . S
C1198 H1210 0.956 . S
C1198 H1211 0.961 . S
C1198 H1212 0.961 . S
C1199 C1196 1.539 . S
C1199 H1213 0.958 . S
C1199 H1214 0.961 . S
C1199 H1215 0.960 . S
H1200 C1184 0.931 . S
H1201 C1189 0.929 . S
H1202 C1190 0.960 . S
H1203 C1190 0.962 . S
H1204 C1190 0.960 . S
H1205 C1191 0.961 . S
H1206 C1191 0.961 . S
H1207 C1191 0.961 . S
H1208 C1192 0.931 . S
H1209 C1197 0.930 . S
H1210 C1198 0.956 . S
H1211 C1198 0.961 . S
H1212 C1198 0.961 . S
H1213 C1199 0.958 . S
H1214 C1199 0.961 . S
H1215 C1199 0.960 . S
C449 C241 2.694 . S
C457 C319 2.904 . S
C489 C345 2.349 . S
C481 C277 2.203 . S
C521 C385 2.334 . S
C513 C169 2.098 . S
C553 C439 2.843 . S
C545 C205 2.673 . S
C585 C300 2.904 . S
C577 C97 2.650 . S
C609 C133 2.133 . S
C617 C330 2.358 . S
C641 C25 2.052 . S
C649 C370 2.336 . S
C673 C61 2.642 . S
C681 C420 2.844 1_655 S
C713 C296 0.354 1_655 S
C705 C211 0.504 . S
C745 C357 0.636 . S
C737 C247 0.688 . S
C777 C397 0.377 . S
C769 C253 0.376 . S
C801 C175 0.293 . S
C809 C416 0.401 . S
C833 C67 0.568 . S
C841 C317 0.404 . S
C873 C336 0.650 . S
C865 C103 0.593 . S
C905 C376 0.378 . S
C897 C109 0.338 . S
C929 C31 0.574 . S
C937 C437 0.369 . S
C961 C181 2.510 . S
C969 C290 2.866 . S
C993 C217 3.192 . S
C1001 C340 3.476 . S
C1033 C380 3.208 . S
C1025 C283 2.861 . S
C1065 C410 2.570 . S
C1057 C145 2.272 . S
C1089 C37 2.541 . S
C1097 C305 2.864 . S
C1129 C359 3.479 . S
C1121 C73 3.123 . S
C1161 C399 3.202 . S
C1153 C139 2.854 . S
C1185 C1 2.260 . S
C1193 C425 2.565 . S
