# Generated by pormake.
# Topology llk, (3,12)-cn, num edge types: 1
# Building blocks:
#     Node 0, Type 0, BuildingBlock: VETTIZ_charged_linker_0, # of connection points: 3
#     Node 1, Type 0, BuildingBlock: VETTIZ_charged_linker_0, # of connection points: 3
#     Node 2, Type 0, BuildingBlock: VETTIZ_charged_linker_0, # of connection points: 3
#     Node 3, Type 0, BuildingBlock: VETTIZ_charged_linker_0, # of connection points: 3
#     Node 4, Type 0, BuildingBlock: VETTIZ_charged_linker_0, # of connection points: 3
#     Node 5, Type 0, BuildingBlock: VETTIZ_charged_linker_0, # of connection points: 3
#     Node 6, Type 0, BuildingBlock: VETTIZ_charged_linker_0, # of connection points: 3
#     Node 7, Type 0, BuildingBlock: VETTIZ_charged_linker_0, # of connection points: 3
#     Node 8, Type 0, BuildingBlock: VETTIZ_charged_linker_0, # of connection points: 3
#     Node 9, Type 0, BuildingBlock: VETTIZ_charged_linker_0, # of connection points: 3
#     Node 10, Type 0, BuildingBlock: VETTIZ_charged_linker_0, # of connection points: 3
#     Node 11, Type 0, BuildingBlock: VETTIZ_charged_linker_0, # of connection points: 3
#     Node 12, Type 0, BuildingBlock: VETTIZ_charged_linker_0, # of connection points: 3
#     Node 13, Type 0, BuildingBlock: VETTIZ_charged_linker_0, # of connection points: 3
#     Node 14, Type 0, BuildingBlock: VETTIZ_charged_linker_0, # of connection points: 3
#     Node 15, Type 0, BuildingBlock: VETTIZ_charged_linker_0, # of connection points: 3
#     Node 16, Type 0, BuildingBlock: VETTIZ_charged_linker_0, # of connection points: 3
#     Node 17, Type 0, BuildingBlock: VETTIZ_charged_linker_0, # of connection points: 3
#     Node 18, Type 0, BuildingBlock: VETTIZ_charged_linker_0, # of connection points: 3
#     Node 19, Type 0, BuildingBlock: VETTIZ_charged_linker_0, # of connection points: 3
#     Node 20, Type 0, BuildingBlock: VETTIZ_charged_linker_0, # of connection points: 3
#     Node 21, Type 0, BuildingBlock: VETTIZ_charged_linker_0, # of connection points: 3
#     Node 22, Type 0, BuildingBlock: VETTIZ_charged_linker_0, # of connection points: 3
#     Node 23, Type 0, BuildingBlock: VETTIZ_charged_linker_0, # of connection points: 3
#     Node 24, Type 1, BuildingBlock: EZIPEK_clean_sbu_0, # of connection points: 12
#     Node 25, Type 1, BuildingBlock: EZIPEK_clean_sbu_0, # of connection points: 12
#     Node 26, Type 1, BuildingBlock: EZIPEK_clean_sbu_0, # of connection points: 12
#     Node 27, Type 1, BuildingBlock: EZIPEK_clean_sbu_0, # of connection points: 12
#     Node 28, Type 1, BuildingBlock: EZIPEK_clean_sbu_0, # of connection points: 12
#     Node 29, Type 1, BuildingBlock: EZIPEK_clean_sbu_0, # of connection points: 12
#     Edge 30, Type (0, 1), BuildingBlock: OJICUG_clean_linker_0, # of connection points: 2
#     Edge 31, Type (0, 1), BuildingBlock: OJICUG_clean_linker_0, # of connection points: 2
#     Edge 32, Type (0, 1), BuildingBlock: OJICUG_clean_linker_0, # of connection points: 2
#     Edge 33, Type (0, 1), BuildingBlock: OJICUG_clean_linker_0, # of connection points: 2
#     Edge 34, Type (0, 1), BuildingBlock: OJICUG_clean_linker_0, # of connection points: 2
#     Edge 35, Type (0, 1), BuildingBlock: OJICUG_clean_linker_0, # of connection points: 2
#     Edge 36, Type (0, 1), BuildingBlock: OJICUG_clean_linker_0, # of connection points: 2
#     Edge 37, Type (0, 1), BuildingBlock: OJICUG_clean_linker_0, # of connection points: 2
#     Edge 38, Type (0, 1), BuildingBlock: OJICUG_clean_linker_0, # of connection points: 2
#     Edge 39, Type (0, 1), BuildingBlock: OJICUG_clean_linker_0, # of connection points: 2
#     Edge 40, Type (0, 1), BuildingBlock: OJICUG_clean_linker_0, # of connection points: 2
#     Edge 41, Type (0, 1), BuildingBlock: OJICUG_clean_linker_0, # of connection points: 2
#     Edge 42, Type (0, 1), BuildingBlock: OJICUG_clean_linker_0, # of connection points: 2
#     Edge 43, Type (0, 1), BuildingBlock: OJICUG_clean_linker_0, # of connection points: 2
#     Edge 44, Type (0, 1), BuildingBlock: OJICUG_clean_linker_0, # of connection points: 2
#     Edge 45, Type (0, 1), BuildingBlock: OJICUG_clean_linker_0, # of connection points: 2
#     Edge 46, Type (0, 1), BuildingBlock: OJICUG_clean_linker_0, # of connection points: 2
#     Edge 47, Type (0, 1), BuildingBlock: OJICUG_clean_linker_0, # of connection points: 2
#     Edge 48, Type (0, 1), BuildingBlock: OJICUG_clean_linker_0, # of connection points: 2
#     Edge 49, Type (0, 1), BuildingBlock: OJICUG_clean_linker_0, # of connection points: 2
#     Edge 50, Type (0, 1), BuildingBlock: OJICUG_clean_linker_0, # of connection points: 2
#     Edge 51, Type (0, 1), BuildingBlock: OJICUG_clean_linker_0, # of connection points: 2
#     Edge 52, Type (0, 1), BuildingBlock: OJICUG_clean_linker_0, # of connection points: 2
#     Edge 53, Type (0, 1), BuildingBlock: OJICUG_clean_linker_0, # of connection points: 2
#     Edge 54, Type (0, 1), BuildingBlock: OJICUG_clean_linker_0, # of connection points: 2
#     Edge 55, Type (0, 1), BuildingBlock: OJICUG_clean_linker_0, # of connection points: 2
#     Edge 56, Type (0, 1), BuildingBlock: OJICUG_clean_linker_0, # of connection points: 2
#     Edge 57, Type (0, 1), BuildingBlock: OJICUG_clean_linker_0, # of connection points: 2
#     Edge 58, Type (0, 1), BuildingBlock: OJICUG_clean_linker_0, # of connection points: 2
#     Edge 59, Type (0, 1), BuildingBlock: OJICUG_clean_linker_0, # of connection points: 2
#     Edge 60, Type (0, 1), BuildingBlock: OJICUG_clean_linker_0, # of connection points: 2
#     Edge 61, Type (0, 1), BuildingBlock: OJICUG_clean_linker_0, # of connection points: 2
#     Edge 62, Type (0, 1), BuildingBlock: OJICUG_clean_linker_0, # of connection points: 2
#     Edge 63, Type (0, 1), BuildingBlock: OJICUG_clean_linker_0, # of connection points: 2
#     Edge 64, Type (0, 1), BuildingBlock: OJICUG_clean_linker_0, # of connection points: 2
#     Edge 65, Type (0, 1), BuildingBlock: OJICUG_clean_linker_0, # of connection points: 2
#     Edge 66, Type (0, 1), BuildingBlock: OJICUG_clean_linker_0, # of connection points: 2
#     Edge 67, Type (0, 1), BuildingBlock: OJICUG_clean_linker_0, # of connection points: 2
#     Edge 68, Type (0, 1), BuildingBlock: OJICUG_clean_linker_0, # of connection points: 2
#     Edge 69, Type (0, 1), BuildingBlock: OJICUG_clean_linker_0, # of connection points: 2
#     Edge 70, Type (0, 1), BuildingBlock: OJICUG_clean_linker_0, # of connection points: 2
#     Edge 71, Type (0, 1), BuildingBlock: OJICUG_clean_linker_0, # of connection points: 2
#     Edge 72, Type (0, 1), BuildingBlock: OJICUG_clean_linker_0, # of connection points: 2
#     Edge 73, Type (0, 1), BuildingBlock: OJICUG_clean_linker_0, # of connection points: 2
#     Edge 74, Type (0, 1), BuildingBlock: OJICUG_clean_linker_0, # of connection points: 2
#     Edge 75, Type (0, 1), BuildingBlock: OJICUG_clean_linker_0, # of connection points: 2
#     Edge 76, Type (0, 1), BuildingBlock: OJICUG_clean_linker_0, # of connection points: 2
#     Edge 77, Type (0, 1), BuildingBlock: OJICUG_clean_linker_0, # of connection points: 2
#     Edge 78, Type (0, 1), BuildingBlock: OJICUG_clean_linker_0, # of connection points: 2
#     Edge 79, Type (0, 1), BuildingBlock: OJICUG_clean_linker_0, # of connection points: 2
#     Edge 80, Type (0, 1), BuildingBlock: OJICUG_clean_linker_0, # of connection points: 2
#     Edge 81, Type (0, 1), BuildingBlock: OJICUG_clean_linker_0, # of connection points: 2
#     Edge 82, Type (0, 1), BuildingBlock: OJICUG_clean_linker_0, # of connection points: 2
#     Edge 83, Type (0, 1), BuildingBlock: OJICUG_clean_linker_0, # of connection points: 2
#     Edge 84, Type (0, 1), BuildingBlock: OJICUG_clean_linker_0, # of connection points: 2
#     Edge 85, Type (0, 1), BuildingBlock: OJICUG_clean_linker_0, # of connection points: 2
#     Edge 86, Type (0, 1), BuildingBlock: OJICUG_clean_linker_0, # of connection points: 2
#     Edge 87, Type (0, 1), BuildingBlock: OJICUG_clean_linker_0, # of connection points: 2
#     Edge 88, Type (0, 1), BuildingBlock: OJICUG_clean_linker_0, # of connection points: 2
#     Edge 89, Type (0, 1), BuildingBlock: OJICUG_clean_linker_0, # of connection points: 2
#     Edge 90, Type (0, 1), BuildingBlock: OJICUG_clean_linker_0, # of connection points: 2
#     Edge 91, Type (0, 1), BuildingBlock: OJICUG_clean_linker_0, # of connection points: 2
#     Edge 92, Type (0, 1), BuildingBlock: OJICUG_clean_linker_0, # of connection points: 2
#     Edge 93, Type (0, 1), BuildingBlock: OJICUG_clean_linker_0, # of connection points: 2
#     Edge 94, Type (0, 1), BuildingBlock: OJICUG_clean_linker_0, # of connection points: 2
#     Edge 95, Type (0, 1), BuildingBlock: OJICUG_clean_linker_0, # of connection points: 2
#     Edge 96, Type (0, 1), BuildingBlock: OJICUG_clean_linker_0, # of connection points: 2
#     Edge 97, Type (0, 1), BuildingBlock: OJICUG_clean_linker_0, # of connection points: 2
#     Edge 98, Type (0, 1), BuildingBlock: OJICUG_clean_linker_0, # of connection points: 2
#     Edge 99, Type (0, 1), BuildingBlock: OJICUG_clean_linker_0, # of connection points: 2
#     Edge 100, Type (0, 1), BuildingBlock: OJICUG_clean_linker_0, # of connection points: 2
#     Edge 101, Type (0, 1), BuildingBlock: OJICUG_clean_linker_0, # of connection points: 2
# Relax obj value: 0.110
# Max RMSD: 0.165
# Mean RMSD: 0.138
data_MOF--net-llk--node1-EZIPEK_clean_sbu_0--node2-VETTIZ_charged_linker_0--edge1-OJICUG_clean_linker_0
_symmetry_space_group_name_H-M    P1
_symmetry_Int_Tables_number       1
_symmetry_cell_setting            triclinic
loop_
_symmetry_equiv_pos_as_xyz
'x, y, z'
_cell_length_a     44.066507
_cell_length_b     43.942311
_cell_length_c     43.930042
_cell_angle_alpha  90.012215
_cell_angle_beta   90.0163
_cell_angle_gamma 90.000027
loop_
_atom_site_label
_atom_site_type_symbol
_atom_site_fract_x
_atom_site_fract_y
_atom_site_fract_z
_atom_type_partial_charge
C0 C 0.02052 0.3167 0.18982 0.0
C1 C 1.00407 0.33907 0.17265 0.0
C2 C 0.97279 0.34248 0.17811 0.0
C3 C 0.9765 0.30966 0.22166 0.0
C4 C 1.00543 0.30118 0.21412 0.0
C5 C 0.01536 0.27501 0.23539 0.0
H6 H 0.97975 0.20323 0.37326 0.0
C7 C 0.96828 0.29661 0.25081 0.0
C8 C 0.98915 0.27387 0.25891 0.0
H9 H 0.0501 0.17292 0.31227 0.0
H10 H 0.03663 0.2141 0.27628 0.0
H11 H 0.9918 0.26155 0.37698 0.0
H12 H 0.92819 0.21564 0.32516 0.0
H13 H 0.91082 0.24997 0.33669 0.0
H14 H 0.92807 0.22564 0.36486 0.0
H15 H 0.95354 0.27111 0.38347 0.0
H16 H 0.97729 0.29431 0.35905 0.0
C17 C 0.04583 0.28253 0.2506 0.0
C18 C 0.01698 0.24557 0.21652 0.0
C19 C 0.93446 0.37114 0.3277 0.0
C20 C 0.9329 0.36692 0.35941 0.0
C21 C 0.92197 0.33894 0.37064 0.0
C22 C 0.92009 0.31374 0.35131 0.0
C23 C 0.93 0.31689 0.32122 0.0
C24 C 0.93285 0.34549 0.30871 0.0
C25 C 0.94092 0.34376 0.27542 0.0
C26 C 0.94957 0.3101 0.27297 0.0
C27 C 0.94439 0.295 0.30036 0.0
C28 C 0.96768 0.36565 0.2685 0.0
C29 C 0.91228 0.35125 0.25644 0.0
C30 C 0.99256 0.20512 0.35229 0.0
C31 C 0.01619 0.18485 0.34611 0.0
C32 C 0.03169 0.18822 0.3179 0.0
C33 C 0.02385 0.21191 0.29699 0.0
C34 C 0.99998 0.23214 0.3041 0.0
C35 C 0.9851 0.22815 0.33163 0.0
C36 C 0.9612 0.25138 0.33735 0.0
C37 C 0.962 0.26898 0.30771 0.0
C38 C 0.98508 0.25842 0.28779 0.0
C39 C 0.97121 0.27065 0.3655 0.0
C40 C 0.93037 0.23492 0.34145 0.0
H41 H 0.9348 0.3299 0.20559 0.0
H42 H 0.04413 0.31208 0.18489 0.0
H43 H 0.99503 0.24133 0.20478 0.0
H44 H 0.02186 0.22553 0.23083 0.0
H45 H 0.03503 0.24733 0.19894 0.0
H46 H 0.04424 0.3044 0.26324 0.0
H47 H 0.06407 0.28464 0.23326 0.0
H48 H 0.05244 0.26449 0.26692 0.0
H49 H 0.94101 0.39294 0.31845 0.0
H50 H 0.91833 0.33568 0.39481 0.0
H51 H 0.91354 0.29228 0.36087 0.0
H52 H 0.98743 0.36047 0.28337 0.0
H53 H 0.96088 0.38971 0.27202 0.0
H54 H 0.97534 0.36453 0.24465 0.0
H55 H 0.89479 0.36284 0.27035 0.0
H56 H 0.9013 0.33033 0.24743 0.0
H57 H 0.91756 0.36661 0.23708 0.0
H58 H 0.95932 0.3579 0.16437 0.0
C59 C 0.95881 0.32732 0.20216 0.0
C60 C 0.84433 1.00633 0.3184 0.0
C61 C 0.84855 1.00206 0.35061 0.0
C62 C 0.82242 0.99956 0.3689 0.0
C63 C 0.79036 0.01251 0.32661 0.0
C64 C 0.81416 1.01013 0.30662 0.0
C65 C 0.80187 0.01405 0.27387 0.0
H66 H 0.67266 0.0594 0.19236 0.0
C67 C 0.76377 0.02436 0.31078 0.0
C68 C 0.7678 0.02127 0.27924 0.0
H69 H 0.71916 0.9759 0.1708 0.0
H70 H 0.75325 0.98371 0.21507 0.0
H71 H 0.65999 0.04037 0.24832 0.0
H72 H 0.73193 0.10156 0.2249 0.0
H73 H 0.71355 0.11596 0.25757 0.0
H74 H 0.69211 0.11009 0.22302 0.0
H75 H 0.65406 0.08067 0.24801 0.0
H76 H 0.66582 0.06052 0.28176 0.0
C77 C 0.80641 0.98448 0.25582 0.0
C78 C 0.81788 0.04086 0.25813 0.0
C79 C 0.69743 0.0922 0.37436 0.0
C80 C 0.66938 0.10524 0.36694 0.0
C81 C 0.66435 0.1148 0.33673 0.0
C82 C 0.68417 0.10551 0.31354 0.0
C83 C 0.70802 0.08549 0.32088 0.0
C84 C 0.71524 0.08048 0.35103 0.0
C85 C 0.73744 0.05499 0.35526 0.0
C86 C 0.7432 0.04615 0.32234 0.0
C87 C 0.72558 0.06357 0.30249 0.0
C88 C 0.72131 0.02872 0.37275 0.0
C89 C 0.76586 0.06784 0.3718 0.0
C90 C 0.69098 0.04333 0.19595 0.0
C91 C 0.69315 0.01731 0.17764 0.0
C92 C 0.7171 0.99656 0.18407 0.0
C93 C 0.73716 1.00123 0.20924 0.0
C94 C 0.73375 0.02718 0.22784 0.0
C95 C 0.71009 0.04707 0.22126 0.0
C96 C 0.70282 0.06764 0.24745 0.0
C97 C 0.72498 0.05627 0.27116 0.0
C98 C 0.74516 0.03436 0.2593 0.0
C99 C 0.66904 0.06239 0.25691 0.0
C100 C 0.71025 0.10068 0.23786 0.0
H101 H 0.77484 1.0021 0.37224 0.0
H102 H 0.86367 1.00693 0.30324 0.0
H103 H 0.81514 0.06205 0.27168 0.0
H104 H 0.80806 0.0448 0.23516 0.0
H105 H 0.84253 0.03617 0.25552 0.0
H106 H 0.79178 0.96603 0.26499 0.0
H107 H 0.83045 0.97694 0.2572 0.0
H108 H 0.80107 0.98798 0.23142 0.0
H109 H 0.70218 0.08476 0.3974 0.0
H110 H 0.6432 0.12576 0.33058 0.0
H111 H 0.67805 0.11118 0.29061 0.0
H112 H 0.69625 0.02942 0.3697 0.0
H113 H 0.726 0.02995 0.39757 0.0
H114 H 0.72774 1.00595 0.36411 0.0
H115 H 0.76012 0.08762 0.3865 0.0
H116 H 0.78327 0.07566 0.35525 0.0
H117 H 0.77625 0.05118 0.3875 0.0
H118 H 0.82414 0.99555 0.39318 0.0
C119 C 0.79365 1.00421 0.35701 0.0
C120 C 0.02041 0.8349 0.31688 0.0
C121 C 1.00396 0.85209 0.33924 0.0
C122 C 0.97267 0.84667 0.34261 0.0
C123 C 0.97634 0.80311 0.30981 0.0
C124 C 1.00529 0.81061 0.30135 0.0
C125 C 0.01522 0.78932 0.27519 0.0
H126 H 0.97956 0.65148 0.20338 0.0
C127 C 0.9681 0.77397 0.29675 0.0
C128 C 0.98899 0.76583 0.27403 0.0
H129 H 0.05003 0.71239 0.17318 0.0
H130 H 0.03653 0.7484 0.21434 0.0
H131 H 0.99151 0.64779 0.26174 0.0
H132 H 0.92803 0.69961 0.2157 0.0
H133 H 0.9106 0.68812 0.25001 0.0
H134 H 0.92786 0.65993 0.2257 0.0
H135 H 0.95324 0.64135 0.27125 0.0
H136 H 0.977 0.66575 0.29448 0.0
C137 C 0.04567 0.7741 0.28276 0.0
C138 C 0.01689 0.80816 0.24574 0.0
C139 C 0.93416 0.69715 0.37124 0.0
C140 C 0.93262 0.66545 0.367 0.0
C141 C 0.92166 0.65422 0.33902 0.0
C142 C 0.91977 0.67354 0.31382 0.0
C143 C 0.92969 0.70363 0.31697 0.0
C144 C 0.93253 0.71614 0.34559 0.0
C145 C 0.94062 0.74942 0.34387 0.0
C146 C 0.94934 0.75183 0.31021 0.0
C147 C 0.94415 0.72445 0.2951 0.0
C148 C 0.96733 0.75636 0.36583 0.0
C149 C 0.91197 0.76842 0.35126 0.0
C150 C 0.99239 0.67244 0.2053 0.0
C151 C 0.01606 0.67859 0.18506 0.0
C152 C 0.03158 0.70678 0.18845 0.0
C153 C 0.02372 0.7277 0.21213 0.0
C154 C 0.99982 0.72063 0.23233 0.0
C155 C 0.98491 0.69312 0.22831 0.0
C156 C 0.96097 0.68743 0.25151 0.0
C157 C 0.96179 0.71707 0.2691 0.0
C158 C 0.9849 0.73695 0.25858 0.0
C159 C 0.97093 0.65929 0.27081 0.0
C160 C 0.93016 0.68334 0.23499 0.0
H161 H 0.93466 0.81922 0.33001 0.0
H162 H 0.04403 0.83979 0.31228 0.0
H163 H 0.99495 0.81993 0.24148 0.0
H164 H 0.02175 0.79384 0.2257 0.0
H165 H 0.03496 0.82572 0.24751 0.0
H166 H 0.04405 0.76148 0.30463 0.0
H167 H 0.06393 0.79141 0.28488 0.0
H168 H 0.05227 0.75775 0.26473 0.0
H169 H 0.94073 0.7064 0.39305 0.0
H170 H 0.91803 0.63006 0.33575 0.0
H171 H 0.91323 0.66398 0.29234 0.0
H172 H 0.98709 0.74147 0.36071 0.0
H173 H 0.96047 0.75287 0.38988 0.0
H174 H 0.97502 0.78019 0.36472 0.0
H175 H 0.89441 0.75452 0.36274 0.0
H176 H 0.9011 0.77747 0.3303 0.0
H177 H 0.91721 0.78775 0.36667 0.0
H178 H 0.95921 0.86043 0.35802 0.0
C179 C 0.95867 0.82263 0.32744 0.0
C180 C 0.32565 1.01084 0.19071 0.0
C181 C 0.34961 0.02616 0.1747 0.0
C182 C 0.35401 0.05747 0.17989 0.0
C183 C 0.31893 0.0557 0.2214 0.0
C184 C 0.30959 0.02699 0.21394 0.0
C185 C 0.28247 0.01844 0.23457 0.0
H186 H 0.20778 0.06143 0.36874 0.0
C187 C 0.30529 0.06504 0.24968 0.0
C188 C 0.28147 0.04541 0.25736 0.0
H189 H 0.17845 0.98841 0.31022 0.0
H190 H 0.22043 1.0001 0.2746 0.0
H191 H 0.29805 0.05814 0.35796 0.0
H192 H 0.22476 0.11152 0.31854 0.0
H193 H 0.25892 0.12749 0.33249 0.0
H194 H 0.23174 0.112 0.3589 0.0
H195 H 0.26364 0.0494 0.37654 0.0
H196 H 0.2776 0.08667 0.37964 0.0
C197 C 0.28859 0.98812 0.25083 0.0
C198 C 0.25365 0.01716 0.21487 0.0
C199 C 0.37898 0.09209 0.33093 0.0
C200 C 0.37376 0.09871 0.36176 0.0
C201 C 0.34623 0.11261 0.3703 0.0
C202 C 0.32249 0.11491 0.34924 0.0
C203 C 0.32618 0.1015 0.32056 0.0
C204 C 0.35467 0.09342 0.31063 0.0
C205 C 0.35414 0.08117 0.2788 0.0
C206 C 0.31993 0.08207 0.27233 0.0
C207 C 0.30392 0.08987 0.29857 0.0
C208 C 0.36657 0.04818 0.27845 0.0
C209 C 0.37341 0.10208 0.25842 0.0
C210 C 0.21003 0.04773 0.34834 0.0
C211 C 0.18985 0.02385 0.34275 0.0
C212 C 0.19367 1.00707 0.31533 0.0
C213 C 0.21784 0.01382 0.2947 0.0
C214 C 0.2382 0.03771 0.30142 0.0
C215 C 0.23378 0.05386 0.32818 0.0
C216 C 0.25771 0.0771 0.33399 0.0
C217 C 0.27637 0.07439 0.30513 0.0
C218 C 0.26542 0.05106 0.28558 0.0
C219 C 0.27528 0.06755 0.36335 0.0
C220 C 0.24257 0.10879 0.33629 0.0
H221 H 0.34155 0.09652 0.20641 0.0
H222 H 0.3204 0.98727 0.18591 0.0
H223 H 0.2504 0.039 0.20251 0.0
H224 H 0.23315 0.01315 0.22871 0.0
H225 H 0.25543 0.9986 0.19777 0.0
H226 H 0.31005 0.98943 0.26409 0.0
H227 H 0.29066 0.96929 0.23407 0.0
H228 H 0.26995 0.98249 0.26678 0.0
H229 H 0.40029 0.0823 0.3236 0.0
H230 H 0.34228 0.11925 0.39372 0.0
H231 H 0.30142 0.12483 0.35643 0.0
H232 H 0.35314 0.03335 0.29391 0.0
H233 H 0.3907 0.04745 0.28568 0.0
H234 H 0.36577 0.03824 0.25528 0.0
H235 H 0.39431 0.10943 0.27049 0.0
H236 H 0.36028 0.12256 0.25165 0.0
H237 H 0.38183 0.09013 0.23791 0.0
H238 H 0.37066 0.07013 0.16686 0.0
C239 C 0.33819 0.07244 0.2028 0.0
C240 C 0.02068 0.70768 0.83504 0.0
C241 C 1.00421 0.68534 0.85224 0.0
C242 C 0.9729 0.68202 0.84682 0.0
C243 C 0.9766 0.71483 0.80327 0.0
C244 C 1.00557 0.72324 0.81076 0.0
C245 C 0.01551 0.74939 0.78948 0.0
H246 H 0.97972 0.8213 0.65167 0.0
C247 C 0.96835 0.72791 0.77414 0.0
C248 C 0.98926 0.7506 0.766 0.0
H249 H 0.05031 0.85145 0.71253 0.0
H250 H 0.03683 0.81029 0.74854 0.0
H251 H 0.99163 0.76295 0.64793 0.0
H252 H 0.92827 0.80903 0.69987 0.0
H253 H 0.91078 0.77473 0.6884 0.0
H254 H 0.92802 0.79901 0.66018 0.0
H255 H 0.95333 0.75348 0.64152 0.0
H256 H 0.97709 0.73023 0.66588 0.0
C257 C 0.04594 0.7418 0.77421 0.0
C258 C 0.01726 0.77883 0.80834 0.0
C259 C 0.93422 0.65353 0.69726 0.0
C260 C 0.93266 0.65779 0.66555 0.0
C261 C 0.9217 0.68578 0.65437 0.0
C262 C 0.91985 0.71096 0.67372 0.0
C263 C 0.92981 0.70778 0.7038 0.0
C264 C 0.93262 0.67916 0.71629 0.0
C265 C 0.94075 0.68086 0.74957 0.0
C266 C 0.94954 0.71449 0.752 0.0
C267 C 0.94433 0.72962 0.72463 0.0
C268 C 0.96743 0.65885 0.75648 0.0
C269 C 0.91211 0.67351 0.76859 0.0
C270 C 0.99259 0.81937 0.67261 0.0
C271 C 0.01628 0.83959 0.67875 0.0
C272 C 0.03184 0.83619 0.70693 0.0
C273 C 0.024 0.81251 0.72785 0.0
C274 C 1.00007 0.79233 0.7208 0.0
C275 C 0.98513 0.79636 0.6933 0.0
C276 C 0.96115 0.77319 0.68762 0.0
C277 C 0.96199 0.75559 0.71725 0.0
C278 C 0.98515 0.76608 0.73713 0.0
C279 C 0.97105 0.7539 0.65945 0.0
C280 C 0.93036 0.78973 0.68359 0.0
H281 H 0.9349 0.69469 0.8194 0.0
H282 H 0.04431 0.71224 0.83993 0.0
H283 H 0.99534 0.78313 0.82012 0.0
H284 H 0.02216 0.79885 0.79403 0.0
H285 H 0.03534 0.77702 0.8259 0.0
H286 H 0.04426 0.71994 0.76157 0.0
H287 H 0.06421 0.73964 0.79151 0.0
H288 H 0.05255 0.75983 0.75788 0.0
H289 H 0.94078 0.63172 0.70648 0.0
H290 H 0.91804 0.68907 0.6302 0.0
H291 H 0.91332 0.73244 0.66419 0.0
H292 H 0.98718 0.66394 0.74157 0.0
H293 H 0.96051 0.63483 0.75298 0.0
H294 H 0.97515 0.65995 0.78031 0.0
H295 H 0.8945 0.66209 0.75469 0.0
H296 H 0.9013 0.69449 0.77768 0.0
H297 H 0.91734 0.65808 0.78791 0.0
H298 H 0.95943 0.66663 0.86058 0.0
C299 C 0.95892 0.69722 0.8228 0.0
C300 C 0.32547 0.01373 0.83429 0.0
C301 C 0.34945 0.99843 0.8503 0.0
C302 C 0.35392 0.96714 0.84508 0.0
C303 C 0.31886 0.96889 0.80355 0.0
C304 C 0.30945 0.99757 0.81103 0.0
C305 C 0.28233 1.00608 0.79039 0.0
H306 H 0.20778 0.96318 0.65612 0.0
C307 C 0.30526 0.95956 0.77524 0.0
C308 C 0.28141 0.97915 0.76757 0.0
H309 H 0.17834 0.03606 0.71473 0.0
H310 H 0.22032 0.02438 0.75036 0.0
H311 H 0.29803 0.96663 0.66696 0.0
H312 H 0.22486 0.91302 0.70626 0.0
H313 H 0.25905 0.89714 0.69227 0.0
H314 H 0.23182 0.91263 0.66589 0.0
H315 H 0.2636 0.97529 0.64836 0.0
H316 H 0.27767 0.93807 0.64523 0.0
C317 C 0.2884 0.03645 0.77419 0.0
C318 C 0.2535 1.00727 0.81007 0.0
C319 C 0.37904 0.93285 0.694 0.0
C320 C 0.37384 0.92626 0.66316 0.0
C321 C 0.34635 0.91229 0.65458 0.0
C322 C 0.32262 0.9099 0.67562 0.0
C323 C 0.32627 0.92327 0.70433 0.0
C324 C 0.35474 0.93142 0.71429 0.0
C325 C 0.35416 0.94363 0.74614 0.0
C326 C 0.31996 0.94261 0.75258 0.0
C327 C 0.30398 0.93481 0.72631 0.0
C328 C 0.36649 0.97665 0.74654 0.0
C329 C 0.37349 0.92276 0.76653 0.0
C330 C 0.21 0.97684 0.67654 0.0
C331 C 0.1898 1.00069 0.68216 0.0
C332 C 0.19358 0.01744 0.7096 0.0
C333 C 0.21776 1.01068 0.73024 0.0
C334 C 0.23815 0.98684 0.72349 0.0
C335 C 0.23377 0.97072 0.6967 0.0
C336 C 0.25774 0.94753 0.69088 0.0
C337 C 0.27639 0.95023 0.71975 0.0
C338 C 0.26539 0.97351 0.73933 0.0
C339 C 0.27529 0.95716 0.66154 0.0
C340 C 0.24266 0.91582 0.68851 0.0
H341 H 0.34158 0.9281 0.8185 0.0
H342 H 0.32017 0.03728 0.83911 0.0
H343 H 0.2503 0.98541 0.82241 0.0
H344 H 0.23299 1.01124 0.79622 0.0
H345 H 0.25523 0.02582 0.82719 0.0
H346 H 0.30987 0.0352 0.76096 0.0
H347 H 0.29041 0.05526 0.79098 0.0
H348 H 0.26975 0.04206 0.75822 0.0
H349 H 0.40033 0.9427 0.70136 0.0
H350 H 0.34243 0.90567 0.63115 0.0
H351 H 0.30158 0.89993 0.6684 0.0
H352 H 0.35302 0.99146 0.73107 0.0
H353 H 0.39062 0.97747 0.73934 0.0
H354 H 0.36564 0.98657 0.76972 0.0
H355 H 0.39439 0.91542 0.75447 0.0
H356 H 0.36038 0.90227 0.77331 0.0
H357 H 0.38189 0.93474 0.78703 0.0
H358 H 0.3706 0.9545 0.85811 0.0
C359 C 0.33815 0.95216 0.82214 0.0
C360 C 0.02048 0.18951 0.70806 0.0
C361 C 1.00403 0.17237 0.68564 0.0
C362 C 0.97276 0.1779 0.68218 0.0
C363 C 0.9765 0.22143 0.71502 0.0
C364 C 1.00541 0.21383 0.72356 0.0
C365 C 0.01534 0.23508 0.74976 0.0
H366 H 0.97985 0.37296 0.82158 0.0
C367 C 0.96831 0.25058 0.72809 0.0
C368 C 0.98917 0.25864 0.75087 0.0
H369 H 0.05017 0.31191 0.85188 0.0
H370 H 0.03665 0.27593 0.81068 0.0
H371 H 0.99188 0.3767 0.76329 0.0
H372 H 0.92824 0.32492 0.80912 0.0
H373 H 0.91089 0.33648 0.77478 0.0
H374 H 0.92816 0.36461 0.79916 0.0
H375 H 0.95363 0.38319 0.75366 0.0
H376 H 0.97742 0.35877 0.73049 0.0
C377 C 0.04584 0.25023 0.74227 0.0
C378 C 0.0169 0.21622 0.77921 0.0
C379 C 0.93469 0.32757 0.65358 0.0
C380 C 0.93311 0.35927 0.65785 0.0
C381 C 0.92213 0.37046 0.68583 0.0
C382 C 0.9202 0.35111 0.711 0.0
C383 C 0.93012 0.32103 0.70783 0.0
C384 C 0.93302 0.30856 0.6792 0.0
C385 C 0.94105 0.27526 0.6809 0.0
C386 C 0.94964 0.27277 0.71459 0.0
C387 C 0.94446 0.30015 0.72972 0.0
C388 C 0.96784 0.26831 0.65905 0.0
C389 C 0.9124 0.25633 0.67334 0.0
C390 C 0.99264 0.35198 0.81968 0.0
C391 C 0.01627 0.34578 0.83995 0.0
C392 C 0.03175 0.31756 0.83658 0.0
C393 C 0.02388 0.29666 0.81288 0.0
C394 C 1.00002 0.30379 0.79264 0.0
C395 C 0.98516 0.33133 0.79664 0.0
C396 C 0.96126 0.33708 0.7734 0.0
C397 C 0.96206 0.30746 0.75578 0.0
C398 C 0.98511 0.28751 0.76634 0.0
C399 C 0.9713 0.36522 0.75415 0.0
C400 C 0.93044 0.34121 0.78985 0.0
H401 H 0.93481 0.20545 0.69469 0.0
H402 H 0.04407 0.18454 0.71272 0.0
H403 H 0.99493 0.20451 0.78341 0.0
H404 H 0.02177 0.23052 0.79926 0.0
H405 H 0.03494 0.19862 0.77747 0.0
H406 H 0.04429 0.26286 0.7204 0.0
H407 H 0.06406 0.23287 0.74019 0.0
H408 H 0.05245 0.26655 0.76033 0.0
H409 H 0.94128 0.31835 0.63177 0.0
H410 H 0.91846 0.39462 0.68912 0.0
H411 H 0.91361 0.36064 0.73247 0.0
H412 H 0.9876 0.28315 0.66429 0.0
H413 H 0.96108 0.27188 0.63498 0.0
H414 H 0.97546 0.24446 0.66015 0.0
H415 H 0.89494 0.27028 0.66175 0.0
H416 H 0.90139 0.24732 0.69424 0.0
H417 H 0.91767 0.23699 0.65796 0.0
H418 H 0.9593 0.16419 0.66672 0.0
C419 C 0.95881 0.20197 0.69732 0.0
C420 C 0.84384 0.01759 0.70607 0.0
C421 C 0.84819 0.0213 0.6738 0.0
C422 C 0.82216 0.02281 0.65527 0.0
C423 C 0.79003 1.0102 0.69762 0.0
C424 C 0.81366 0.0134 0.71772 0.0
C425 C 0.80125 1.01002 0.75048 0.0
H426 H 0.67226 0.96481 0.83245 0.0
C427 C 0.76345 0.99847 0.71356 0.0
C428 C 0.76732 1.00214 0.74506 0.0
H429 H 0.71893 0.04833 0.85353 0.0
H430 H 0.75279 0.04034 0.80916 0.0
H431 H 0.65947 0.98399 0.77643 0.0
H432 H 0.73099 0.92232 0.79993 0.0
H433 H 0.71245 0.90795 0.76733 0.0
H434 H 0.69111 0.9141 0.80187 0.0
H435 H 0.65323 0.94374 0.77682 0.0
H436 H 0.66509 0.96375 0.74301 0.0
C437 C 0.80527 0.04007 0.76786 0.0
C438 C 0.81757 0.98383 0.76691 0.0
C439 C 0.69646 0.93063 0.65065 0.0
C440 C 0.6681 0.91834 0.65818 0.0
C441 C 0.66291 0.90911 0.68846 0.0
C442 C 0.68289 0.91826 0.71158 0.0
C443 C 0.70708 0.9378 0.70408 0.0
C444 C 0.71443 0.94233 0.67389 0.0
C445 C 0.73691 0.96753 0.66941 0.0
C446 C 0.74272 0.97671 0.70222 0.0
C447 C 0.72486 0.95976 0.72225 0.0
C448 C 0.72108 0.99375 0.65157 0.0
C449 C 0.76523 0.95415 0.65311 0.0
C450 C 0.6906 0.98084 0.82874 0.0
C451 C 0.69287 1.0069 0.84695 0.0
C452 C 0.7168 0.02761 0.84035 0.0
C453 C 0.73675 0.02282 0.81511 0.0
C454 C 0.73326 0.99681 0.79662 0.0
C455 C 0.70958 0.97699 0.80337 0.0
C456 C 0.7021 0.95639 0.77729 0.0
C457 C 0.72425 0.9675 0.75348 0.0
C458 C 0.74453 0.98947 0.76513 0.0
C459 C 0.66834 0.96189 0.76787 0.0
C460 C 0.70929 0.92333 0.78699 0.0
H461 H 0.77471 0.01939 0.65163 0.0
H462 H 0.86308 0.01775 0.72137 0.0
H463 H 0.81525 0.9623 0.75381 0.0
H464 H 0.80766 0.98024 0.7899 0.0
H465 H 0.84212 0.98897 0.76958 0.0
H466 H 0.79017 0.058 0.7584 0.0
H467 H 0.82912 0.04811 0.76614 0.0
H468 H 0.80023 0.03699 0.79236 0.0
H469 H 0.70138 0.93772 0.62755 0.0
H470 H 0.64154 0.89864 0.6947 0.0
H471 H 0.67667 0.91289 0.73455 0.0
H472 H 0.69598 0.99328 0.65444 0.0
H473 H 0.72591 0.99228 0.62679 0.0
H474 H 0.72759 0.01656 0.66006 0.0
H475 H 0.75934 0.93413 0.63879 0.0
H476 H 0.78259 0.94652 0.6698 0.0
H477 H 0.77575 0.97042 0.6371 0.0
H478 H 0.82397 0.02637 0.63094 0.0
C479 C 0.79341 0.01786 0.66706 0.0
C480 C 0.32566 0.19053 0.01398 0.0
C481 C 0.34966 0.17455 0.99867 0.0
C482 C 0.35412 0.1798 0.96737 0.0
C483 C 0.31904 0.2213 0.96916 0.0
C484 C 0.30964 0.21379 0.99784 0.0
C485 C 0.28249 0.2344 1.00637 0.0
H486 H 0.20781 0.36856 0.96342 0.0
C487 C 0.3054 0.24958 0.95985 0.0
C488 C 0.28154 0.25723 0.97944 0.0
H489 H 0.17843 0.31001 0.03636 0.0
H490 H 0.22043 0.27441 0.02468 0.0
H491 H 0.29805 0.35782 0.96684 0.0
H492 H 0.22488 0.31838 0.91328 0.0
H493 H 0.25905 0.33237 0.89737 0.0
H494 H 0.23181 0.35874 0.91285 0.0
H495 H 0.26362 0.37639 0.9755 0.0
H496 H 0.27765 0.37948 0.93826 0.0
C497 C 0.28856 0.25061 0.03675 0.0
C498 C 0.25368 0.21471 1.00755 0.0
C499 C 0.37907 0.33089 0.93303 0.0
C500 C 0.37384 0.3617 0.92635 0.0
C501 C 0.34632 0.37021 0.9124 0.0
C502 C 0.3226 0.34913 0.91007 0.0
C503 C 0.32629 0.32047 0.9235 0.0
C504 C 0.35478 0.31058 0.93166 0.0
C505 C 0.35425 0.27875 0.9439 0.0
C506 C 0.32006 0.27225 0.94288 0.0
C507 C 0.30404 0.29847 0.93507 0.0
C508 C 0.36659 0.27843 0.97693 0.0
C509 C 0.37362 0.25838 0.92305 0.0
C510 C 0.21005 0.34816 0.9771 0.0
C511 C 0.18986 0.34255 1.00096 0.0
C512 C 0.19367 0.31513 0.01773 0.0
C513 C 0.21785 0.29451 1.01098 0.0
C514 C 0.23824 0.30125 0.98712 0.0
C515 C 0.23382 0.32801 0.97098 0.0
C516 C 0.25777 0.33384 0.94777 0.0
C517 C 0.27645 0.305 0.95049 0.0
C518 C 0.26548 0.28543 0.97379 0.0
C519 C 0.2753 0.3632 0.95737 0.0
C520 C 0.24267 0.33614 0.91606 0.0
H521 H 0.34175 0.20639 0.92835 0.0
H522 H 0.32036 0.18568 0.03753 0.0
H523 H 0.25047 0.20238 0.98568 0.0
H524 H 0.23317 0.22854 1.01155 0.0
H525 H 0.25542 0.19759 0.02609 0.0
H526 H 0.31002 0.26386 0.0355 0.0
H527 H 0.2906 0.23382 0.05555 0.0
H528 H 0.2699 0.26655 0.04237 0.0
H529 H 0.40037 0.32358 0.94288 0.0
H530 H 0.34237 0.39361 0.90572 0.0
H531 H 0.30154 0.3563 0.9001 0.0
H532 H 0.35309 0.29388 0.99173 0.0
H533 H 0.3907 0.28567 0.97775 0.0
H534 H 0.36576 0.25526 0.98688 0.0
H535 H 0.39451 0.27046 0.91574 0.0
H536 H 0.36053 0.25157 0.90254 0.0
H537 H 0.38202 0.2379 0.93505 0.0
H538 H 0.3708 0.16679 0.95471 0.0
C539 C 0.33833 0.20274 0.95242 0.0
C540 C 0.32544 0.83411 1.01098 0.0
C541 C 0.34939 0.85017 0.0263 0.0
C542 C 0.35381 0.84502 0.05761 0.0
C543 C 0.31878 0.80347 0.05587 0.0
C544 C 0.30941 0.81089 0.02715 0.0
C545 C 0.28231 0.79021 0.01863 0.0
H546 H 0.20782 0.65601 0.06174 0.0
C547 C 0.30519 0.77518 0.06522 0.0
C548 C 0.28137 0.76745 0.04561 0.0
H549 H 0.17833 0.71442 0.98871 0.0
H550 H 0.22029 0.75008 1.00034 0.0
H551 H 0.29807 0.66691 0.05832 0.0
H552 H 0.22483 0.70625 0.11181 0.0
H553 H 0.25903 0.69235 0.12775 0.0
H554 H 0.23185 0.6659 0.11228 0.0
H555 H 0.26367 0.64828 0.04964 0.0
H556 H 0.27771 0.64522 0.0869 0.0
C557 C 0.28843 0.77395 0.98829 0.0
C558 C 0.25347 0.80986 0.01736 0.0
C559 C 0.37903 0.69407 0.09215 0.0
C560 C 0.37385 0.66324 0.09878 0.0
C561 C 0.34636 0.65467 0.11273 0.0
C562 C 0.32261 0.6757 0.11508 0.0
C563 C 0.32624 0.70437 0.10166 0.0
C564 C 0.35471 0.71434 0.09353 0.0
C565 C 0.35411 0.74616 0.08128 0.0
C566 C 0.3199 0.75257 0.08224 0.0
C567 C 0.30393 0.72631 0.09005 0.0
C568 C 0.36648 0.7465 0.04826 0.0
C569 C 0.37339 0.76658 0.10216 0.0
C570 C 0.21003 0.67639 0.04803 0.0
C571 C 0.18981 0.68193 0.02416 0.0
C572 C 0.19358 0.70934 1.00736 0.0
C573 C 0.21774 0.73 0.01408 0.0
C574 C 0.23814 0.72333 0.03795 0.0
C575 C 0.23378 0.69658 0.05412 0.0
C576 C 0.25774 0.69083 0.07734 0.0
C577 C 0.27636 0.7197 0.07461 0.0
C578 C 0.26536 0.73921 0.05128 0.0
C579 C 0.27533 0.6615 0.06777 0.0
C580 C 0.24265 0.68852 0.10906 0.0
H581 H 0.34143 0.81852 0.09669 0.0
H582 H 0.32017 0.83888 0.9874 0.0
H583 H 0.25022 0.82223 0.0392 0.0
H584 H 0.23298 0.79599 0.01335 0.0
H585 H 0.25521 0.82695 0.99879 0.0
H586 H 0.3099 0.76073 0.9896 0.0
H587 H 0.29046 0.79069 0.96945 0.0
H588 H 0.26979 0.75797 0.98268 0.0
H589 H 0.40031 0.70143 0.08232 0.0
H590 H 0.34245 0.63125 0.11937 0.0
H591 H 0.30156 0.66848 0.12503 0.0
H592 H 0.35304 0.73101 0.03345 0.0
H593 H 0.39062 0.73932 0.04749 0.0
H594 H 0.36562 0.76966 0.03831 0.0
H595 H 0.39431 0.75456 0.10951 0.0
H596 H 0.36027 0.77337 0.12264 0.0
H597 H 0.38177 0.78708 0.09017 0.0
H598 H 0.37046 0.85808 0.07027 0.0
C599 C 0.33803 0.8221 0.0726 0.0
C600 C 0.84442 0.31816 0.01822 0.0
C601 C 0.84864 0.35036 0.02255 0.0
C602 C 0.82252 0.36863 0.02515 0.0
C603 C 0.79043 0.32636 1.01219 0.0
C604 C 0.81424 0.30638 0.01448 0.0
C605 C 0.80194 0.27364 1.01053 0.0
H606 H 0.67258 0.19227 0.96526 0.0
C607 C 0.76381 0.31056 1.00038 0.0
C608 C 0.76784 0.27903 1.0034 0.0
H609 H 0.71932 0.17045 0.04857 0.0
H610 H 0.7534 0.21473 0.04083 0.0
H611 H 0.66 0.24824 0.98454 0.0
H612 H 0.73171 0.22486 0.92304 0.0
H613 H 0.71333 0.25758 0.90878 0.0
H614 H 0.69187 0.22306 0.9146 0.0
H615 H 0.65391 0.2479 0.94425 0.0
H616 H 0.66573 0.28166 0.96436 0.0
C617 C 0.80655 0.25557 0.04007 0.0
C618 C 0.81787 0.25793 0.98366 0.0
C619 C 0.69736 0.37428 0.93275 0.0
C620 C 0.66928 0.36691 0.91973 0.0
C621 C 0.66419 0.33673 0.91015 0.0
C622 C 0.68399 0.3135 0.9194 0.0
C623 C 0.70789 0.32079 0.93938 0.0
C624 C 0.71517 0.35091 0.94442 0.0
C625 C 0.73742 0.35509 0.96988 0.0
C626 C 0.74318 0.32217 0.97866 0.0
C627 C 0.72549 0.30235 0.96125 0.0
C628 C 0.72136 0.37256 0.99621 0.0
C629 C 0.76582 0.37161 0.957 0.0
C630 C 0.69093 0.19582 0.9813 0.0
C631 C 0.69319 0.17742 1.00725 0.0
C632 C 0.7172 0.18378 0.02796 0.0
C633 C 0.73724 0.20897 0.02332 0.0
C634 C 0.73376 0.22764 0.99744 0.0
C635 C 0.71004 0.22112 0.97759 0.0
C636 C 0.70272 0.24735 0.95711 0.0
C637 C 0.72491 0.27102 0.96849 0.0
C638 C 0.74516 0.25912 0.99033 0.0
C639 C 0.66895 0.25681 0.96248 0.0
C640 C 0.71005 0.23784 0.92401 0.0
H641 H 0.77492 0.37197 0.02274 0.0
H642 H 0.86376 0.30301 0.01755 0.0
H643 H 0.81508 0.2715 0.96248 0.0
H644 H 0.80804 0.23497 0.97971 0.0
H645 H 0.84253 0.25531 0.98829 0.0
H646 H 0.79198 0.26473 0.05858 0.0
H647 H 0.83061 0.25692 0.04756 0.0
H648 H 0.80118 0.23119 0.03655 0.0
H649 H 0.70215 0.39729 0.94021 0.0
H650 H 0.64301 0.33062 0.89922 0.0
H651 H 0.67783 0.29059 0.91371 0.0
H652 H 0.69629 0.36955 0.99555 0.0
H653 H 0.72607 0.39737 0.99502 0.0
H654 H 0.72782 0.36388 0.01896 0.0
H655 H 0.76006 0.38632 0.93723 0.0
H656 H 0.78322 0.35507 0.94915 0.0
H657 H 0.77624 0.38731 0.97366 0.0
H658 H 0.82423 0.39289 0.02921 0.0
C659 C 0.79374 0.35675 0.02055 0.0
C660 C 0.84368 0.70572 1.00714 0.0
C661 C 0.84808 0.67344 1.00366 0.0
C662 C 0.82208 0.65485 1.00254 0.0
C663 C 0.78994 0.69724 0.015 0.0
C664 C 0.81352 0.71735 1.01148 0.0
C665 C 0.80106 0.75011 0.01465 0.0
H666 H 0.67221 0.83234 0.05988 0.0
C667 C 0.76339 0.71325 0.02672 0.0
C668 C 0.7672 0.74472 0.02281 0.0
H669 H 0.71879 0.85307 0.97623 0.0
H670 H 0.75261 0.80869 0.98431 0.0
H671 H 0.65936 0.77627 0.04081 0.0
H672 H 0.73088 0.79994 0.10244 0.0
H673 H 0.71234 0.76741 0.11692 0.0
H674 H 0.691 0.80193 0.11064 0.0
H675 H 0.65312 0.77678 0.08107 0.0
H676 H 0.66498 0.74292 0.06115 0.0
C677 C 0.80487 0.76721 0.98442 0.0
C678 C 0.81753 0.7668 0.04061 0.0
C679 C 0.69634 0.65074 0.0948 0.0
C680 C 0.66793 0.65833 0.10692 0.0
C681 C 0.66271 0.68864 0.11601 0.0
C682 C 0.68272 0.71171 0.10682 0.0
C683 C 0.70696 0.70411 0.08737 0.0
C684 C 0.71433 0.67391 0.08302 0.0
C685 C 0.73684 0.66928 0.05787 0.0
C686 C 0.74266 0.70204 0.04853 0.0
C687 C 0.72476 0.72216 0.06533 0.0
C688 C 0.72103 0.65132 0.03171 0.0
C689 C 0.76515 0.65307 0.07137 0.0
C690 C 0.69052 0.82856 0.04384 0.0
C691 C 0.69279 0.84667 0.01772 0.0
C692 C 0.71668 0.83997 0.99699 0.0
C693 C 0.7366 0.81473 1.00183 0.0
C694 C 0.73313 0.79633 0.02792 0.0
C695 C 0.70949 0.80318 0.04774 0.0
C696 C 0.70199 0.77719 0.06843 0.0
C697 C 0.72413 0.75333 0.05741 0.0
C698 C 0.74438 0.76485 0.03535 0.0
C699 C 0.66823 0.76777 0.06295 0.0
C700 C 0.70918 0.78701 0.10147 0.0
H701 H 0.77468 0.65114 1.00631 0.0
H702 H 0.86289 0.72105 1.00669 0.0
H703 H 0.81538 0.75389 0.06227 0.0
H704 H 0.8076 0.78979 0.04407 0.0
H705 H 0.84204 0.76946 0.03529 0.0
H706 H 0.7896 0.75765 0.96668 0.0
H707 H 0.82865 0.76537 0.97619 0.0
H708 H 0.79993 0.79175 0.98733 0.0
H709 H 0.7013 0.6276 0.08783 0.0
H710 H 0.64131 0.69494 0.12637 0.0
H711 H 0.67648 0.7347 0.11208 0.0
H712 H 0.69593 0.65421 0.03213 0.0
H713 H 0.72585 0.62655 0.03332 0.0
H714 H 0.72757 0.65967 1.00885 0.0
H715 H 0.75929 0.63899 0.09156 0.0
H716 H 0.78258 0.66979 0.07879 0.0
H717 H 0.77561 0.63685 0.05525 0.0
H718 H 0.82392 0.6305 0.99916 0.0
C719 C 0.79335 0.66662 1.0076 0.0
C720 C 0.52056 0.817 0.68977 0.0
C721 C 0.5041 0.83935 0.67257 0.0
C722 C 0.4728 0.8427 0.67798 0.0
C723 C 0.47649 0.80989 0.72153 0.0
C724 C 0.50544 0.80146 0.71404 0.0
C725 C 0.51538 0.7753 0.73533 0.0
H726 H 0.47963 0.70341 0.8731 0.0
C727 C 0.46824 0.79681 0.75066 0.0
C728 C 0.48913 0.77411 0.7588 0.0
H729 H 0.55022 0.6733 0.81227 0.0
H730 H 0.53672 0.71445 0.77625 0.0
H731 H 0.49152 0.76174 0.87687 0.0
H732 H 0.42815 0.71569 0.82489 0.0
H733 H 0.41067 0.74998 0.83637 0.0
H734 H 0.42792 0.72568 0.86458 0.0
H735 H 0.45322 0.77122 0.88326 0.0
H736 H 0.47699 0.79447 0.85891 0.0
C737 C 0.54581 0.78289 0.7506 0.0
C738 C 0.5171 0.74587 0.71646 0.0
C739 C 0.43413 0.87119 0.82754 0.0
C740 C 0.43256 0.86692 0.85924 0.0
C741 C 0.4216 0.83893 0.87042 0.0
C742 C 0.41975 0.81376 0.85105 0.0
C743 C 0.42971 0.81694 0.82098 0.0
C744 C 0.43253 0.84557 0.80851 0.0
C745 C 0.44066 0.84387 0.77522 0.0
C746 C 0.44943 0.81024 0.77279 0.0
C747 C 0.44422 0.79511 0.80015 0.0
C748 C 0.46735 0.86587 0.76833 0.0
C749 C 0.41202 0.85124 0.75619 0.0
C750 C 0.49249 0.70534 0.85217 0.0
C751 C 0.51619 0.68514 0.84604 0.0
C752 C 0.53175 0.68855 0.81786 0.0
C753 C 0.52389 0.71222 0.79694 0.0
C754 C 0.49995 0.73239 0.80399 0.0
C755 C 0.48502 0.72835 0.83149 0.0
C756 C 0.46104 0.75152 0.83716 0.0
C757 C 0.46188 0.76912 0.80753 0.0
C758 C 0.48503 0.75864 0.78766 0.0
C759 C 0.47094 0.7708 0.86534 0.0
C760 C 0.43024 0.73497 0.84118 0.0
H761 H 0.43479 0.83007 0.70539 0.0
H762 H 0.54418 0.81242 0.68489 0.0
H763 H 0.49518 0.74159 0.70467 0.0
H764 H 0.52198 0.72584 0.73078 0.0
H765 H 0.53519 0.74766 0.69892 0.0
H766 H 0.54415 0.80475 0.76324 0.0
H767 H 0.56408 0.78503 0.73331 0.0
H768 H 0.55242 0.76485 0.76694 0.0
H769 H 0.4407 0.893 0.81833 0.0
H770 H 0.41794 0.83563 0.89458 0.0
H771 H 0.41321 0.79228 0.86057 0.0
H772 H 0.4871 0.86077 0.78325 0.0
H773 H 0.46044 0.88989 0.77184 0.0
H774 H 0.47506 0.86477 0.74451 0.0
H775 H 0.39442 0.86266 0.77008 0.0
H776 H 0.4012 0.83027 0.74709 0.0
H777 H 0.41725 0.86668 0.73688 0.0
H778 H 0.45933 0.8581 0.66421 0.0
C779 C 0.45881 0.82752 0.702 0.0
C780 C 0.34413 0.50695 0.81859 0.0
C781 C 0.34843 0.50291 0.85082 0.0
C782 C 0.32237 0.50085 0.86924 0.0
C783 C 0.29024 0.51367 0.82695 0.0
C784 C 0.31394 0.51093 0.80689 0.0
C785 C 0.30158 0.51461 0.77414 0.0
H786 H 0.17242 0.55984 0.69247 0.0
C787 C 0.26364 0.52546 0.81109 0.0
C788 C 0.26757 0.52212 0.77956 0.0
H789 H 0.21912 0.47643 0.67104 0.0
H790 H 0.25308 0.48431 0.71538 0.0
H791 H 0.15974 0.5406 0.74847 0.0
H792 H 0.23134 0.60221 0.72509 0.0
H793 H 0.21285 0.61651 0.75774 0.0
H794 H 0.19147 0.61052 0.72318 0.0
H795 H 0.15356 0.58086 0.7481 0.0
H796 H 0.1654 0.56082 0.78189 0.0
C797 C 0.30588 0.48482 0.75639 0.0
C798 C 0.31771 0.54115 0.75808 0.0
C799 C 0.19695 0.59318 0.87444 0.0
C800 C 0.16872 0.6058 0.86699 0.0
C801 C 0.16355 0.6152 0.83676 0.0
C802 C 0.18343 0.60602 0.81358 0.0
C803 C 0.20749 0.58628 0.82097 0.0
C804 C 0.21483 0.5815 0.85112 0.0
C805 C 0.23721 0.55619 0.85545 0.0
C806 C 0.24297 0.5472 0.82257 0.0
C807 C 0.22518 0.56437 0.80265 0.0
C808 C 0.2213 0.52991 0.87312 0.0
C809 C 0.26558 0.56934 0.87184 0.0
C810 C 0.19077 0.54381 0.6961 0.0
C811 C 0.19304 0.5178 0.6778 0.0
C812 C 0.217 0.4971 0.68429 0.0
C813 C 0.23699 0.50182 0.70951 0.0
C814 C 0.23351 0.52777 0.72809 0.0
C815 C 0.20981 0.5476 0.72145 0.0
C816 C 0.2024 0.56813 0.74762 0.0
C817 C 0.22457 0.55689 0.77136 0.0
C818 C 0.24483 0.53499 0.75958 0.0
C819 C 0.16864 0.56268 0.75704 0.0
C820 C 0.20965 0.60121 0.73803 0.0
H821 H 0.27485 0.50379 0.87275 0.0
H822 H 0.36341 0.50721 0.80335 0.0
H823 H 0.31517 0.56249 0.77144 0.0
H824 H 0.30782 0.54493 0.73512 0.0
H825 H 0.34231 0.53626 0.75543 0.0
H826 H 0.29102 0.46661 0.76567 0.0
H827 H 0.32983 0.47703 0.75795 0.0
H828 H 0.3007 0.48814 0.73194 0.0
H829 H 0.20184 0.58591 0.8975 0.0
H830 H 0.14227 0.62588 0.83059 0.0
H831 H 0.17722 0.61154 0.79064 0.0
H832 H 0.1962 0.5305 0.87027 0.0
H833 H 0.22616 0.53121 0.89791 0.0
H834 H 0.22773 0.50713 0.86449 0.0
H835 H 0.25973 0.58915 0.88646 0.0
H836 H 0.28288 0.57721 0.8552 0.0
H837 H 0.27616 0.55285 0.88759 0.0
H838 H 0.32415 0.49702 0.89354 0.0
C839 C 0.2936 0.50564 0.85742 0.0
C840 C 0.5205 0.3352 0.81692 0.0
C841 C 0.50407 0.35235 0.83933 0.0
C842 C 0.4728 0.34684 0.84278 0.0
C843 C 0.4765 0.30331 0.80995 0.0
C844 C 0.5054 0.31088 0.80143 0.0
C845 C 0.51532 0.28962 0.77523 0.0
H846 H 0.47972 0.15178 0.70338 0.0
C847 C 0.46828 0.27416 0.79688 0.0
C848 C 0.48913 0.26608 0.77411 0.0
H849 H 0.55013 0.21275 0.67317 0.0
H850 H 0.53662 0.24874 0.71435 0.0
H851 H 0.49171 0.14802 0.76168 0.0
H852 H 0.42816 0.19987 0.71579 0.0
H853 H 0.41078 0.18834 0.75011 0.0
H854 H 0.42803 0.16019 0.72575 0.0
H855 H 0.45345 0.14158 0.77127 0.0
H856 H 0.47726 0.16596 0.79447 0.0
C857 C 0.54581 0.27445 0.78274 0.0
C858 C 0.51691 0.30847 0.74578 0.0
C859 C 0.43456 0.19719 0.87133 0.0
C860 C 0.43296 0.16549 0.86705 0.0
C861 C 0.42195 0.15432 0.83906 0.0
C862 C 0.42004 0.17368 0.8139 0.0
C863 C 0.42999 0.20375 0.81708 0.0
C864 C 0.4329 0.21621 0.84571 0.0
C865 C 0.44097 0.2495 0.84403 0.0
C866 C 0.44957 0.25199 0.81035 0.0
C867 C 0.44437 0.22462 0.79521 0.0
C868 C 0.46775 0.25642 0.86591 0.0
C869 C 0.41233 0.26846 0.85157 0.0
C870 C 0.49254 0.17274 0.7053 0.0
C871 C 0.51619 0.17891 0.68506 0.0
C872 C 0.5317 0.20712 0.68845 0.0
C873 C 0.52383 0.22802 0.71214 0.0
C874 C 0.49995 0.22092 0.73235 0.0
C875 C 0.48506 0.1934 0.72833 0.0
C876 C 0.46115 0.18768 0.75155 0.0
C877 C 0.46197 0.21729 0.76917 0.0
C878 C 0.48505 0.23722 0.75863 0.0
C879 C 0.47115 0.15952 0.77081 0.0
C880 C 0.43033 0.18358 0.73506 0.0
H881 H 0.43482 0.31931 0.83026 0.0
H882 H 0.54409 0.34016 0.81226 0.0
H883 H 0.49494 0.3202 0.74157 0.0
H884 H 0.52175 0.29416 0.72574 0.0
H885 H 0.53496 0.32605 0.74753 0.0
H886 H 0.54425 0.26182 0.80462 0.0
H887 H 0.56404 0.29179 0.78484 0.0
H888 H 0.55241 0.25811 0.76469 0.0
H889 H 0.44117 0.2064 0.89314 0.0
H890 H 0.41827 0.13017 0.83576 0.0
H891 H 0.41344 0.16417 0.79242 0.0
H892 H 0.4875 0.24156 0.86069 0.0
H893 H 0.46098 0.25286 0.88998 0.0
H894 H 0.4754 0.28026 0.86482 0.0
H895 H 0.39485 0.25453 0.86314 0.0
H896 H 0.40134 0.27749 0.83066 0.0
H897 H 0.41762 0.28779 0.86696 0.0
H898 H 0.45935 0.36056 0.85823 0.0
C899 C 0.45882 0.32277 0.82764 0.0
C900 C 0.82557 0.51097 0.69063 0.0
C901 C 0.84953 0.52628 0.6746 0.0
C902 C 0.85395 0.55758 0.67979 0.0
C903 C 0.8189 0.55583 0.72132 0.0
C904 C 0.80953 0.52713 0.71387 0.0
C905 C 0.78243 0.5186 0.73453 0.0
H906 H 0.70797 0.56164 0.86881 0.0
C907 C 0.80532 0.56517 0.74962 0.0
C908 C 0.78149 0.54556 0.75733 0.0
H909 H 0.67843 0.48872 0.81027 0.0
H910 H 0.7204 0.50034 0.77462 0.0
H911 H 0.79821 0.55817 0.85792 0.0
H912 H 0.72499 0.61173 0.81862 0.0
H913 H 0.7592 0.62762 0.83256 0.0
H914 H 0.732 0.61216 0.85898 0.0
H915 H 0.76381 0.54951 0.87654 0.0
H916 H 0.77787 0.58674 0.87964 0.0
C917 C 0.78854 0.48826 0.75077 0.0
C918 C 0.75359 0.51737 0.71486 0.0
C919 C 0.87918 0.59194 0.8308 0.0
C920 C 0.87401 0.59854 0.86165 0.0
C921 C 0.84653 0.61252 0.87023 0.0
C922 C 0.82278 0.6149 0.8492 0.0
C923 C 0.82639 0.60151 0.8205 0.0
C924 C 0.85486 0.59337 0.81053 0.0
C925 C 0.85425 0.58114 0.77869 0.0
C926 C 0.82004 0.58214 0.77227 0.0
C927 C 0.80408 0.58994 0.79854 0.0
C928 C 0.86659 0.54812 0.7783 0.0
C929 C 0.87354 0.60201 0.75828 0.0
C930 C 0.71016 0.54795 0.8484 0.0
C931 C 0.68994 0.52411 0.84281 0.0
C932 C 0.69369 0.50734 0.81538 0.0
C933 C 0.71786 0.51406 0.79473 0.0
C934 C 0.73827 0.5379 0.80145 0.0
C935 C 0.73391 0.55404 0.82822 0.0
C936 C 0.75789 0.57724 0.83401 0.0
C937 C 0.77651 0.57452 0.80513 0.0
C938 C 0.76549 0.55121 0.78558 0.0
C939 C 0.77548 0.56763 0.86334 0.0
C940 C 0.74281 0.60895 0.83636 0.0
H941 H 0.84156 0.59664 0.70632 0.0
H942 H 0.8203 0.4874 0.68584 0.0
H943 H 0.75034 0.53922 0.70252 0.0
H944 H 0.7331 0.51336 0.72872 0.0
H945 H 0.75533 0.49881 0.69775 0.0
H946 H 0.81001 0.48955 0.764 0.0
H947 H 0.79056 0.46944 0.734 0.0
H948 H 0.7699 0.48265 0.76674 0.0
H949 H 0.90046 0.58209 0.82344 0.0
H950 H 0.84263 0.61914 0.89366 0.0
H951 H 0.80174 0.62487 0.85643 0.0
H952 H 0.85315 0.53331 0.79378 0.0
H953 H 0.89073 0.54732 0.78549 0.0
H954 H 0.86572 0.53819 0.75513 0.0
H955 H 0.89446 0.60935 0.77032 0.0
H956 H 0.86043 0.62249 0.7515 0.0
H957 H 0.88192 0.59002 0.73777 0.0
H958 H 0.8706 0.57023 0.66675 0.0
C959 C 0.83816 0.57256 0.70271 0.0
C960 C 0.52052 0.2081 0.33512 0.0
C961 C 0.50406 0.18571 0.35226 0.0
C962 C 0.47278 0.18231 0.34676 0.0
C963 C 0.47652 0.21515 0.30324 0.0
C964 C 0.50544 0.22363 0.31081 0.0
C965 C 0.51538 0.24982 0.28956 0.0
H966 H 0.47981 0.3216 0.15163 0.0
C967 C 0.46832 0.22821 0.27408 0.0
C968 C 0.48919 0.25096 0.266 0.0
H969 H 0.55008 0.352 0.21272 0.0
H970 H 0.53662 0.31079 0.2487 0.0
H971 H 0.49195 0.26328 0.14795 0.0
H972 H 0.42822 0.30913 0.19966 0.0
H973 H 0.41091 0.27477 0.1881 0.0
H974 H 0.42816 0.29913 0.15996 0.0
H975 H 0.4537 0.2537 0.14139 0.0
H976 H 0.47744 0.23051 0.16584 0.0
C977 C 0.54587 0.24231 0.27439 0.0
C978 C 0.51698 0.27926 0.30843 0.0
C979 C 0.43463 0.15363 0.19713 0.0
C980 C 0.43309 0.15784 0.16542 0.0
C981 C 0.42216 0.18582 0.15417 0.0
C982 C 0.42025 0.21102 0.17349 0.0
C983 C 0.43015 0.20789 0.2036 0.0
C984 C 0.433 0.17929 0.21611 0.0
C985 C 0.44104 0.18103 0.24942 0.0
C986 C 0.44965 0.2147 0.25188 0.0
C987 C 0.44449 0.22979 0.22448 0.0
C988 C 0.46782 0.15917 0.25638 0.0
C989 C 0.4124 0.1735 0.26835 0.0
C990 C 0.4926 0.31972 0.17262 0.0
C991 C 0.5162 0.34003 0.17883 0.0
C992 C 0.53168 0.33668 0.20707 0.0
C993 C 0.52385 0.31297 0.22796 0.0
C994 C 0.50002 0.29271 0.22083 0.0
C995 C 0.48516 0.29669 0.19328 0.0
C996 C 0.46128 0.27343 0.18752 0.0
C997 C 0.46209 0.25583 0.21715 0.0
C998 C 0.48514 0.26641 0.23711 0.0
C999 C 0.47135 0.25417 0.15938 0.0
C1000 C 0.43044 0.28985 0.18337 0.0
H1001 H 0.43481 0.19491 0.31924 0.0
H1002 H 0.54413 0.21271 0.34008 0.0
H1003 H 0.49501 0.2835 0.32014 0.0
H1004 H 0.52188 0.29929 0.29414 0.0
H1005 H 0.53501 0.27749 0.32605 0.0
H1006 H 0.54429 0.22045 0.26173 0.0
H1007 H 0.5641 0.2402 0.29174 0.0
H1008 H 0.55247 0.26037 0.25808 0.0
H1009 H 0.44118 0.13183 0.2064 0.0
H1010 H 0.41853 0.18907 0.13 0.0
H1011 H 0.41371 0.23248 0.16392 0.0
H1012 H 0.48759 0.16438 0.24153 0.0
H1013 H 0.46106 0.1351 0.25284 0.0
H1014 H 0.47547 0.16029 0.28023 0.0
H1015 H 0.39495 0.16185 0.25442 0.0
H1016 H 0.40137 0.19441 0.27732 0.0
H1017 H 0.41768 0.15817 0.28773 0.0
H1018 H 0.45931 0.16688 0.36047 0.0
C1019 C 0.45882 0.19749 0.3227 0.0
C1020 C 0.82555 0.51387 0.33423 0.0
C1021 C 0.84953 0.49857 0.35024 0.0
C1022 C 0.85399 0.46727 0.34502 0.0
C1023 C 0.8189 0.46902 0.30351 0.0
C1024 C 0.80952 0.49771 0.31098 0.0
C1025 C 0.78238 0.50623 0.29036 0.0
H1026 H 0.70766 0.46334 0.15619 0.0
C1027 C 0.80526 0.45968 0.27522 0.0
C1028 C 0.78141 0.47928 0.26756 0.0
H1029 H 0.67839 0.53632 0.21477 0.0
H1030 H 0.72037 0.52459 0.25038 0.0
H1031 H 0.79792 0.46663 0.16695 0.0
H1032 H 0.72469 0.41319 0.20637 0.0
H1033 H 0.75884 0.39724 0.19238 0.0
H1034 H 0.73162 0.41275 0.166 0.0
H1035 H 0.76349 0.47535 0.14838 0.0
H1036 H 0.77748 0.43809 0.14527 0.0
C1037 C 0.78847 0.53658 0.27413 0.0
C1038 C 0.75358 0.50746 0.31007 0.0
C1039 C 0.8789 0.43271 0.19394 0.0
C1040 C 0.87366 0.42608 0.16311 0.0
C1041 C 0.84613 0.41217 0.15457 0.0
C1042 C 0.82241 0.40986 0.17564 0.0
C1043 C 0.82611 0.42327 0.20432 0.0
C1044 C 0.85461 0.43137 0.21424 0.0
C1045 C 0.85409 0.4436 0.24608 0.0
C1046 C 0.8199 0.44267 0.25256 0.0
C1047 C 0.80387 0.43487 0.22632 0.0
C1048 C 0.8665 0.4766 0.24644 0.0
C1049 C 0.8734 0.4227 0.26646 0.0
C1050 C 0.70992 0.47701 0.1766 0.0
C1051 C 0.68976 0.5009 0.18222 0.0
C1052 C 0.6936 0.51766 0.20965 0.0
C1053 C 0.71778 0.51088 0.23027 0.0
C1054 C 0.73812 0.487 0.22353 0.0
C1055 C 0.73369 0.47086 0.19676 0.0
C1056 C 0.75761 0.44763 0.19093 0.0
C1057 C 0.77629 0.45033 0.21978 0.0
C1058 C 0.76535 0.47364 0.23935 0.0
C1059 C 0.77516 0.4572 0.16157 0.0
C1060 C 0.74248 0.41594 0.18861 0.0
H1061 H 0.8416 0.42822 0.31848 0.0
H1062 H 0.82026 0.53742 0.33905 0.0
H1063 H 0.75037 0.48562 0.32243 0.0
H1064 H 0.73305 0.51143 0.29624 0.0
H1065 H 0.75533 0.52603 0.32717 0.0
H1066 H 0.80993 0.53531 0.26089 0.0
H1067 H 0.79051 0.5554 0.29091 0.0
H1068 H 0.76982 0.54221 0.25818 0.0
H1069 H 0.90021 0.44252 0.20127 0.0
H1070 H 0.84217 0.40553 0.13115 0.0
H1071 H 0.80134 0.39993 0.16845 0.0
H1072 H 0.85305 0.49143 0.23099 0.0
H1073 H 0.89062 0.47735 0.23921 0.0
H1074 H 0.8657 0.48653 0.26962 0.0
H1075 H 0.89429 0.41535 0.25438 0.0
H1076 H 0.86028 0.40222 0.27323 0.0
H1077 H 0.88183 0.43466 0.28696 0.0
H1078 H 0.87067 0.45463 0.35805 0.0
C1079 C 0.83819 0.45229 0.3221 0.0
C1080 C 0.52056 0.68989 0.20803 0.0
C1081 C 0.50411 0.67269 0.18567 0.0
C1082 C 0.47281 0.67812 0.18229 0.0
C1083 C 0.4765 0.72168 0.21509 0.0
C1084 C 0.50546 0.71418 0.22355 0.0
C1085 C 0.51539 0.73546 0.24972 0.0
H1086 H 0.47975 0.87329 0.32155 0.0
C1087 C 0.46827 0.75082 0.22816 0.0
C1088 C 0.48916 0.75895 0.25088 0.0
H1089 H 0.55022 0.81238 0.35177 0.0
H1090 H 0.53671 0.77637 0.31059 0.0
H1091 H 0.49169 0.87699 0.26319 0.0
H1092 H 0.42822 0.82516 0.30922 0.0
H1093 H 0.41077 0.83665 0.2749 0.0
H1094 H 0.42804 0.86483 0.29921 0.0
H1095 H 0.4534 0.88343 0.25368 0.0
H1096 H 0.47714 0.85904 0.23045 0.0
C1097 C 0.54584 0.75069 0.24216 0.0
C1098 C 0.51708 0.71662 0.27917 0.0
C1099 C 0.43424 0.82763 0.15368 0.0
C1100 C 0.4327 0.85933 0.15791 0.0
C1101 C 0.42178 0.87056 0.18591 0.0
C1102 C 0.41991 0.85124 0.2111 0.0
C1103 C 0.42983 0.82116 0.20794 0.0
C1104 C 0.43264 0.80864 0.17933 0.0
C1105 C 0.44074 0.77536 0.18105 0.0
C1106 C 0.44949 0.77295 0.2147 0.0
C1107 C 0.4443 0.80034 0.22981 0.0
C1108 C 0.46744 0.76843 0.15908 0.0
C1109 C 0.41209 0.75636 0.17366 0.0
C1110 C 0.49258 0.85234 0.31964 0.0
C1111 C 0.51625 0.84618 0.33988 0.0
C1112 C 0.53177 0.81799 0.33649 0.0
C1113 C 0.52391 0.79707 0.3128 0.0
C1114 C 0.5 0.80415 0.2926 0.0
C1115 C 0.4851 0.83166 0.29661 0.0
C1116 C 0.46114 0.83734 0.27341 0.0
C1117 C 0.46196 0.80771 0.25581 0.0
C1118 C 0.48508 0.78782 0.26634 0.0
C1119 C 0.4711 0.86549 0.25412 0.0
C1120 C 0.43034 0.84143 0.28993 0.0
H1121 H 0.43481 0.70556 0.19489 0.0
H1122 H 0.54419 0.685 0.21262 0.0
H1123 H 0.49514 0.70484 0.28342 0.0
H1124 H 0.52195 0.73093 0.2992 0.0
H1125 H 0.53515 0.69906 0.27739 0.0
H1126 H 0.54421 0.76331 0.22029 0.0
H1127 H 0.5641 0.73338 0.24004 0.0
H1128 H 0.55245 0.76703 0.2602 0.0
H1129 H 0.44079 0.81839 0.13186 0.0
H1130 H 0.41814 0.89472 0.18918 0.0
H1131 H 0.41339 0.8608 0.23258 0.0
H1132 H 0.4872 0.78332 0.16419 0.0
H1133 H 0.46055 0.77192 0.13503 0.0
H1134 H 0.47513 0.7446 0.16019 0.0
H1135 H 0.39452 0.77026 0.16219 0.0
H1136 H 0.40124 0.7473 0.19463 0.0
H1137 H 0.41732 0.73703 0.15824 0.0
H1138 H 0.45935 0.66435 0.16688 0.0
C1139 C 0.45882 0.70215 0.19746 0.0
C1140 C 0.34376 0.51779 0.20601 0.0
C1141 C 0.34816 0.5213 0.17373 0.0
C1142 C 0.32217 0.52246 0.15513 0.0
C1143 C 0.29002 0.50999 0.19751 0.0
C1144 C 0.31359 0.51348 0.21763 0.0
C1145 C 0.30114 0.51028 0.25039 0.0
H1146 H 0.17226 0.46506 0.33255 0.0
C1147 C 0.26345 0.49828 0.21349 0.0
C1148 C 0.26727 0.50216 0.24498 0.0
H1149 H 0.21889 0.54865 0.3534 0.0
H1150 H 0.2527 0.5406 0.30901 0.0
H1151 H 0.15942 0.48416 0.27648 0.0
H1152 H 0.23091 0.42251 0.30011 0.0
H1153 H 0.21237 0.40806 0.26755 0.0
H1154 H 0.19103 0.41431 0.30208 0.0
H1155 H 0.15316 0.44392 0.27697 0.0
H1156 H 0.16502 0.46383 0.24311 0.0
C1157 C 0.30498 0.54049 0.26754 0.0
C1158 C 0.31758 0.48431 0.26706 0.0
C1159 C 0.19637 0.43028 0.15086 0.0
C1160 C 0.16797 0.41812 0.15843 0.0
C1161 C 0.16276 0.40902 0.18874 0.0
C1162 C 0.18276 0.4182 0.21183 0.0
C1163 C 0.20699 0.43766 0.20426 0.0
C1164 C 0.21436 0.44205 0.17406 0.0
C1165 C 0.23688 0.46718 0.16947 0.0
C1166 C 0.2427 0.47649 0.20225 0.0
C1167 C 0.2248 0.45968 0.22234 0.0
C1168 C 0.22108 0.49336 0.15153 0.0
C1169 C 0.26519 0.4537 0.15323 0.0
C1170 C 0.19058 0.48109 0.32879 0.0
C1171 C 0.19286 0.50719 0.34695 0.0
C1172 C 0.21677 0.52791 0.34027 0.0
C1173 C 0.23669 0.52308 0.31502 0.0
C1174 C 0.2332 0.49701 0.29658 0.0
C1175 C 0.20954 0.4772 0.30341 0.0
C1176 C 0.20204 0.45653 0.27738 0.0
C1177 C 0.22418 0.46757 0.25353 0.0
C1178 C 0.24445 0.4896 0.26509 0.0
C1179 C 0.16828 0.46203 0.26797 0.0
C1180 C 0.20922 0.42349 0.28717 0.0
H1181 H 0.27476 0.51872 0.1514 0.0
H1182 H 0.36297 0.51822 0.22135 0.0
H1183 H 0.31541 0.46267 0.25411 0.0
H1184 H 0.30765 0.48083 0.29005 0.0
H1185 H 0.3421 0.48961 0.26973 0.0
H1186 H 0.28973 0.55824 0.25799 0.0
H1187 H 0.32877 0.5487 0.26571 0.0
H1188 H 0.30003 0.53756 0.29208 0.0
H1189 H 0.20132 0.43727 0.12773 0.0
H1190 H 0.14136 0.39863 0.19502 0.0
H1191 H 0.17652 0.41293 0.23482 0.0
H1192 H 0.19599 0.49295 0.15443 0.0
H1193 H 0.22588 0.49175 0.12675 0.0
H1194 H 0.22765 0.5162 0.15991 0.0
H1195 H 0.25932 0.43351 0.13915 0.0
H1196 H 0.28262 0.44629 0.16995 0.0
H1197 H 0.27563 0.46982 0.13702 0.0
H1198 H 0.32401 0.52586 0.13077 0.0
C1199 C 0.29343 0.51741 0.16688 0.0
C1200 C 0.8255 0.69066 0.51398 0.0
C1201 C 0.84944 0.67461 0.49864 0.0
C1202 C 0.85382 0.67977 0.46732 0.0
C1203 C 0.81877 0.7213 0.46909 0.0
C1204 C 0.80944 0.71388 0.49782 0.0
C1205 C 0.78233 0.73454 0.50636 0.0
H1206 H 0.70777 0.86875 0.46333 0.0
C1207 C 0.80516 0.74959 0.45975 0.0
C1208 C 0.78135 0.75731 0.47938 0.0
H1209 H 0.67834 0.81028 0.53632 0.0
H1210 H 0.7203 0.77464 0.52466 0.0
H1211 H 0.79803 0.85786 0.46669 0.0
H1212 H 0.72472 0.81853 0.41323 0.0
H1213 H 0.75891 0.83243 0.39728 0.0
H1214 H 0.73174 0.85887 0.41276 0.0
H1215 H 0.76364 0.87648 0.4754 0.0
H1216 H 0.77762 0.87955 0.43813 0.0
C1217 C 0.78848 0.75081 0.53669 0.0
C1218 C 0.75351 0.71488 0.50764 0.0
C1219 C 0.87895 0.83071 0.43277 0.0
C1220 C 0.87376 0.86154 0.42615 0.0
C1221 C 0.84625 0.87011 0.41222 0.0
C1222 C 0.82249 0.84908 0.4099 0.0
C1223 C 0.82614 0.82041 0.42331 0.0
C1224 C 0.85463 0.81045 0.43141 0.0
C1225 C 0.85405 0.77863 0.44366 0.0
C1226 C 0.81984 0.77221 0.44273 0.0
C1227 C 0.80386 0.79846 0.43493 0.0
C1228 C 0.86646 0.77827 0.47667 0.0
C1229 C 0.87331 0.7582 0.42277 0.0
C1230 C 0.70999 0.84836 0.47703 0.0
C1231 C 0.68979 0.84279 0.50089 0.0
C1232 C 0.69358 0.81538 0.51768 0.0
C1233 C 0.71774 0.79473 0.51094 0.0
C1234 C 0.73812 0.80142 0.48707 0.0
C1235 C 0.73374 0.82817 0.47092 0.0
C1236 C 0.75768 0.83394 0.44768 0.0
C1237 C 0.77631 0.80506 0.4504 0.0
C1238 C 0.76533 0.78554 0.47373 0.0
C1239 C 0.77528 0.86327 0.45725 0.0
C1240 C 0.74255 0.83626 0.41597 0.0
H1241 H 0.84137 0.70627 0.42826 0.0
H1242 H 0.82026 0.68589 0.53756 0.0
H1243 H 0.75024 0.70252 0.48579 0.0
H1244 H 0.73302 0.72874 0.51166 0.0
H1245 H 0.75527 0.69779 0.5262 0.0
H1246 H 0.80994 0.76404 0.53538 0.0
H1247 H 0.79053 0.73406 0.55553 0.0
H1248 H 0.76984 0.76677 0.54232 0.0
H1249 H 0.90025 0.82336 0.44258 0.0
H1250 H 0.84233 0.89353 0.40559 0.0
H1251 H 0.80143 0.85631 0.39997 0.0
H1252 H 0.85304 0.79376 0.4915 0.0
H1253 H 0.8906 0.78547 0.47743 0.0
H1254 H 0.86562 0.75512 0.48662 0.0
H1255 H 0.89422 0.77024 0.4154 0.0
H1256 H 0.86017 0.75142 0.40229 0.0
H1257 H 0.88171 0.73771 0.43474 0.0
H1258 H 0.87045 0.66672 0.45466 0.0
C1259 C 0.838 0.70268 0.45235 0.0
C1260 C 0.82565 0.33423 0.51092 0.0
C1261 C 0.84966 0.35022 0.52623 0.0
C1262 C 0.85415 0.34497 0.55752 0.0
C1263 C 0.81906 0.30347 0.55574 0.0
C1264 C 0.80964 0.31097 0.52706 0.0
C1265 C 0.78249 0.29035 0.51854 0.0
H1266 H 0.70781 0.15623 0.5616 0.0
C1267 C 0.80543 0.27519 0.56507 0.0
C1268 C 0.78156 0.26754 0.54548 0.0
H1269 H 0.67843 0.2147 0.48858 0.0
H1270 H 0.72043 0.25031 0.50024 0.0
H1271 H 0.79806 0.16694 0.55814 0.0
H1272 H 0.72494 0.20644 0.6117 0.0
H1273 H 0.75912 0.19245 0.6276 0.0
H1274 H 0.73186 0.16608 0.61215 0.0
H1275 H 0.76361 0.14838 0.54949 0.0
H1276 H 0.77767 0.1453 0.58673 0.0
C1277 C 0.78855 0.27413 0.48817 0.0
C1278 C 0.75368 0.31004 0.51735 0.0
C1279 C 0.8791 0.19388 0.59188 0.0
C1280 C 0.87386 0.16307 0.59856 0.0
C1281 C 0.84636 0.15457 0.61254 0.0
C1282 C 0.82265 0.17566 0.61488 0.0
C1283 C 0.82634 0.20431 0.60145 0.0
C1284 C 0.85482 0.2142 0.59327 0.0
C1285 C 0.85429 0.24602 0.58101 0.0
C1286 C 0.8201 0.25253 0.58204 0.0
C1287 C 0.80408 0.22631 0.58988 0.0
C1288 C 0.86659 0.24632 0.54797 0.0
C1289 C 0.87368 0.26639 0.60184 0.0
C1290 C 0.71005 0.17662 0.5479 0.0
C1291 C 0.68986 0.18219 0.52402 0.0
C1292 C 0.69366 0.2096 0.50723 0.0
C1293 C 0.71785 0.23022 0.51396 0.0
C1294 C 0.73824 0.22351 0.53783 0.0
C1295 C 0.73383 0.19677 0.554 0.0
C1296 C 0.75779 0.19095 0.5772 0.0
C1297 C 0.77648 0.21979 0.57446 0.0
C1298 C 0.7655 0.23934 0.55115 0.0
C1299 C 0.77531 0.16158 0.56761 0.0
C1300 C 0.74272 0.18867 0.60893 0.0
H1301 H 0.84181 0.31839 0.59655 0.0
H1302 H 0.82033 0.33908 0.48737 0.0
H1303 H 0.75047 0.32237 0.53922 0.0
H1304 H 0.73317 0.2962 0.51335 0.0
H1305 H 0.75541 0.32715 0.49881 0.0
H1306 H 0.81001 0.26088 0.48942 0.0
H1307 H 0.79057 0.29091 0.46936 0.0
H1308 H 0.76989 0.25819 0.48255 0.0
H1309 H 0.90039 0.20117 0.58202 0.0
H1310 H 0.8424 0.13117 0.61921 0.0
H1311 H 0.8016 0.1685 0.62487 0.0
H1312 H 0.85308 0.23086 0.53319 0.0
H1313 H 0.8907 0.23907 0.54715 0.0
H1314 H 0.86576 0.26948 0.53802 0.0
H1315 H 0.89458 0.25431 0.60916 0.0
H1316 H 0.86061 0.27321 0.62235 0.0
H1317 H 0.88208 0.28687 0.58983 0.0
H1318 H 0.87083 0.35798 0.57018 0.0
C1319 C 0.83837 0.32203 0.57248 0.0
C1320 C 0.34425 0.8186 0.51816 0.0
C1321 C 0.34849 0.85083 0.52224 0.0
C1322 C 0.32238 0.86918 0.52442 0.0
C1323 C 0.29032 0.82684 0.51161 0.0
C1324 C 0.31408 0.80684 0.51426 0.0
C1325 C 0.30177 0.77408 0.51053 0.0
H1326 H 0.17261 0.69238 0.46522 0.0
C1327 C 0.26373 0.81096 0.49981 0.0
C1328 C 0.26773 0.77944 0.5031 0.0
H1329 H 0.21913 0.67105 0.54878 0.0
H1330 H 0.25318 0.71532 0.54091 0.0
H1331 H 0.15987 0.74831 0.48423 0.0
H1332 H 0.23172 0.72485 0.42296 0.0
H1333 H 0.2133 0.75748 0.40854 0.0
H1334 H 0.19189 0.72295 0.4145 0.0
H1335 H 0.15389 0.74804 0.44393 0.0
H1336 H 0.16568 0.78176 0.46412 0.0
C1337 C 0.30616 0.75627 0.54026 0.0
C1338 C 0.31787 0.7581 0.48391 0.0
C1339 C 0.19709 0.87422 0.43195 0.0
C1340 C 0.16895 0.86672 0.41915 0.0
C1341 C 0.16391 0.83649 0.40968 0.0
C1342 C 0.18382 0.81336 0.41892 0.0
C1343 C 0.20777 0.82078 0.4388 0.0
C1344 C 0.215 0.85094 0.44366 0.0
C1345 C 0.23728 0.85528 0.46907 0.0
C1346 C 0.2431 0.82241 0.47802 0.0
C1347 C 0.22542 0.80249 0.46074 0.0
C1348 C 0.22124 0.87287 0.49534 0.0
C1349 C 0.26565 0.87177 0.45605 0.0
C1350 C 0.19093 0.69602 0.48129 0.0
C1351 C 0.19312 0.67777 0.50734 0.0
C1352 C 0.21706 0.68426 0.5281 0.0
C1353 C 0.23709 0.70944 0.52338 0.0
C1354 C 0.23367 0.72798 0.49739 0.0
C1355 C 0.21001 0.72133 0.47751 0.0
C1356 C 0.20267 0.74746 0.45691 0.0
C1357 C 0.22483 0.7712 0.4682 0.0
C1358 C 0.24504 0.75944 0.49015 0.0
C1359 C 0.1689 0.75692 0.46221 0.0
C1360 C 0.21004 0.7378 0.42386 0.0
H1361 H 0.27483 0.87258 0.52162 0.0
H1362 H 0.36357 0.80341 0.51781 0.0
H1363 H 0.31524 0.77149 0.46259 0.0
H1364 H 0.30803 0.73513 0.48009 0.0
H1365 H 0.34249 0.75549 0.48873 0.0
H1366 H 0.29142 0.76557 0.55857 0.0
H1367 H 0.33015 0.75774 0.54794 0.0
H1368 H 0.30088 0.73185 0.53692 0.0
H1369 H 0.20187 0.89727 0.4393 0.0
H1370 H 0.14269 0.83028 0.39888 0.0
H1371 H 0.1777 0.79041 0.41333 0.0
H1372 H 0.19617 0.86982 0.49473 0.0
H1373 H 0.22592 0.89768 0.49402 0.0
H1374 H 0.22774 0.86431 0.51813 0.0
H1375 H 0.25985 0.8863 0.43616 0.0
H1376 H 0.28309 0.8552 0.44833 0.0
H1377 H 0.27605 0.88761 0.47258 0.0
H1378 H 0.32411 0.89347 0.52828 0.0
C1379 C 0.29362 0.8573 0.51969 0.0
C1380 C 0.3443 0.20648 0.50658 0.0
C1381 C 0.34852 0.17427 0.5023 0.0
C1382 C 0.32238 0.15599 0.49978 0.0
C1383 C 0.29032 0.19828 0.5127 0.0
C1384 C 0.31412 0.21827 0.51034 0.0
C1385 C 0.30184 0.25101 0.51426 0.0
H1386 H 0.17257 0.33247 0.55956 0.0
C1387 C 0.26372 0.2141 0.52452 0.0
C1388 C 0.26775 0.24564 0.52144 0.0
H1389 H 0.21917 0.35414 0.47615 0.0
H1390 H 0.25325 0.30987 0.48393 0.0
H1391 H 0.15993 0.27651 0.54039 0.0
H1392 H 0.23176 0.29992 0.60176 0.0
H1393 H 0.21339 0.26723 0.61609 0.0
H1394 H 0.19194 0.30176 0.61024 0.0
H1395 H 0.15393 0.27683 0.58069 0.0
H1396 H 0.16571 0.24308 0.56055 0.0
C1397 C 0.30639 0.26903 0.48468 0.0
C1398 C 0.31782 0.26676 0.54108 0.0
C1399 C 0.19731 0.1505 0.59225 0.0
C1400 C 0.16924 0.15791 0.60526 0.0
C1401 C 0.16419 0.1881 0.61482 0.0
C1402 C 0.184 0.2113 0.60555 0.0
C1403 C 0.20788 0.20398 0.58557 0.0
C1404 C 0.21513 0.17385 0.58056 0.0
C1405 C 0.23734 0.16963 0.55509 0.0
C1406 C 0.24312 0.20254 0.54627 0.0
C1407 C 0.22547 0.22238 0.56367 0.0
C1408 C 0.22125 0.15214 0.52878 0.0
C1409 C 0.26575 0.1531 0.56797 0.0
C1410 C 0.1909 0.32889 0.5435 0.0
C1411 C 0.19311 0.34724 0.51752 0.0
C1412 C 0.21708 0.34085 0.49679 0.0
C1413 C 0.23713 0.31567 0.50145 0.0
C1414 C 0.23369 0.29703 0.52736 0.0
C1415 C 0.21 0.30359 0.54723 0.0
C1416 C 0.20271 0.27739 0.56776 0.0
C1417 C 0.22487 0.2537 0.55639 0.0
C1418 C 0.24509 0.26557 0.53451 0.0
C1419 C 0.16893 0.26793 0.56243 0.0
C1420 C 0.21009 0.28695 0.60083 0.0
H1421 H 0.2748 0.15265 0.50225 0.0
H1422 H 0.36364 0.22163 0.5072 0.0
H1423 H 0.31507 0.25322 0.56229 0.0
H1424 H 0.308 0.28972 0.54502 0.0
H1425 H 0.34247 0.26937 0.53642 0.0
H1426 H 0.29178 0.25985 0.46621 0.0
H1427 H 0.33044 0.26767 0.47716 0.0
H1428 H 0.30104 0.29342 0.48817 0.0
H1429 H 0.20208 0.12748 0.58481 0.0
H1430 H 0.14301 0.19424 0.62574 0.0
H1431 H 0.17787 0.23422 0.61122 0.0
H1432 H 0.19618 0.15519 0.52945 0.0
H1433 H 0.22593 0.12733 0.53001 0.0
H1434 H 0.2277 0.16078 0.50602 0.0
H1435 H 0.26001 0.13844 0.58778 0.0
H1436 H 0.28319 0.16964 0.57577 0.0
H1437 H 0.27613 0.13736 0.55133 0.0
H1438 H 0.32409 0.13172 0.49576 0.0
C1439 C 0.29361 0.16788 0.50439 0.0
C1440 C 0.02445 0.93438 0.58474 0.0
C1441 C 0.02323 0.94163 0.43473 0.0
C1442 C 0.02322 0.08281 0.59016 0.0
C1443 C 0.02444 0.09007 0.4401 0.0
C1444 C 0.94996 0.08423 0.52791 0.0
C1445 C 0.94997 0.94022 0.49691 0.0
C1446 C 0.0929 0.08341 0.53336 0.0
C1447 C 0.09285 0.94103 0.4915 0.0
C1448 C 0.09658 0.01636 0.43793 0.0
C1449 C 0.9487 0.0134 0.43691 0.0
C1450 C 0.09655 1.00813 0.58695 0.0
C1451 C 0.94866 1.011 0.58786 0.0
Eu1452 Eu 0.02222 0.9545 0.51053 0.0
O1453 O 0.99665 0.98771 0.48535 0.0
O1454 O 0.05054 0.98278 0.53916 0.0
Eu1455 Eu 0.96445 1.01222 0.51239 0.0
Eu1456 Eu 0.07992 1.01222 0.51243 0.0
O1457 O 0.99392 0.98284 0.53928 0.0
O1458 O 0.04757 0.98791 0.4857 0.0
Eu1459 Eu 0.02235 1.00879 0.5704 0.0
Eu1460 Eu 0.02237 0.01564 0.45446 0.0
O1461 O 0.99667 0.03677 0.53945 0.0
O1462 O 0.99398 0.04165 0.48559 0.0
O1463 O 0.05051 0.04172 0.48575 0.0
O1464 O 0.04752 0.03655 0.53913 0.0
Eu1465 Eu 0.02223 0.07002 0.51434 0.0
O1466 O 0.02386 0.92636 0.55514 0.0
O1467 O 0.02295 0.93113 0.46349 0.0
O1468 O 0.02297 0.09334 0.5614 0.0
O1469 O 0.02386 0.09811 0.4697 0.0
O1470 O 0.9397 0.05621 0.52231 0.0
O1471 O 0.9397 0.96824 0.5025 0.0
O1472 O 0.10316 0.05532 0.52811 0.0
O1473 O 0.10313 0.96911 0.49675 0.0
O1474 O 0.0676 0.01427 0.429 0.0
O1475 O 0.97768 0.0149 0.42799 0.0
O1476 O 0.06757 1.0102 0.59587 0.0
O1477 O 0.97763 1.0095 0.59682 0.0
O1478 O 0.06577 0.09416 0.52551 0.0
O1479 O 0.97819 0.09408 0.52346 0.0
O1480 O 0.06572 0.93029 0.49936 0.0
O1481 O 0.9782 0.93039 0.50136 0.0
O1482 O 0.02287 0.97118 0.42707 0.0
O1483 O 0.02377 0.06134 0.43017 0.0
O1484 O 0.02378 0.9631 0.59469 0.0
O1485 O 0.02283 0.05326 0.5978 0.0
O1486 O 0.93929 1.01122 0.55866 0.0
O1487 O 0.93931 0.0132 0.4661 0.0
O1488 O 0.1056 1.00603 0.55775 0.0
O1489 O 0.10562 0.01843 0.46714 0.0
C1490 C 0.50637 0.93495 0.08008 0.0
C1491 C 0.50659 0.0799 0.08975 0.0
C1492 C 0.50627 0.94459 0.93507 0.0
C1493 C 0.50646 0.08957 0.94477 0.0
C1494 C 0.59491 0.01618 0.93815 0.0
C1495 C 0.59499 1.00816 0.08659 0.0
C1496 C 0.4448 0.01838 0.93862 0.0
C1497 C 0.44491 1.0062 0.0863 0.0
C1498 C 0.44492 0.08612 0.01856 0.0
C1499 C 0.59504 0.08635 0.01639 0.0
C1500 C 0.44477 0.93846 1.00635 0.0
C1501 C 0.59487 0.93793 1.00836 0.0
Eu1502 Eu 0.51984 1.0083 0.07034 0.0
O1503 O 0.54703 0.03782 0.04171 0.0
O1504 O 0.4934 0.98389 0.03714 0.0
Eu1505 Eu 0.57743 1.01216 1.01239 0.0
Eu1506 Eu 0.46222 1.01228 0.01245 0.0
O1507 O 0.54697 0.98284 0.03797 0.0
O1508 O 0.49345 0.03702 0.04075 0.0
Eu1509 Eu 0.51974 0.95424 1.00848 0.0
Eu1510 Eu 0.51987 0.0702 0.01636 0.0
O1511 O 0.5469 0.98659 0.98304 0.0
O1512 O 0.54696 0.04152 0.98679 0.0
O1513 O 0.49345 0.04057 0.98769 0.0
O1514 O 0.4934 0.98753 0.98408 0.0
Eu1515 Eu 0.51977 0.01616 0.95441 0.0
O1516 O 0.51258 0.96223 0.0919 0.0
O1517 O 0.50971 0.05075 0.0976 0.0
O1518 O 0.5095 0.97372 0.9272 0.0
O1519 O 0.51255 0.06228 0.93292 0.0
O1520 O 0.60353 0.01512 0.96739 0.0
O1521 O 0.60358 1.00917 0.05735 0.0
O1522 O 0.43634 0.01618 0.96776 0.0
O1523 O 0.4364 1.00841 0.05718 0.0
O1524 O 0.47395 0.09564 0.01896 0.0
O1525 O 0.56592 0.09581 0.01655 0.0
O1526 O 0.47378 0.92888 1.00592 0.0
O1527 O 0.56572 0.92853 1.00822 0.0
O1528 O 0.47381 0.01877 0.92905 0.0
O1529 O 0.56576 0.01636 0.92873 0.0
O1530 O 0.47395 1.00578 0.09582 0.0
O1531 O 0.56586 1.00804 0.09602 0.0
O1532 O 0.51277 0.09173 0.06248 0.0
O1533 O 0.5097 0.09743 0.97392 0.0
O1534 O 0.50954 0.92706 0.05094 0.0
O1535 O 0.51243 0.93274 0.96235 0.0
O1536 O 0.60351 0.96716 1.0094 0.0
O1537 O 0.60361 0.0571 0.01535 0.0
O1538 O 0.43632 0.96759 1.00857 0.0
O1539 O 0.43641 0.057 0.01635 0.0
C1540 C 0.02325 0.43456 0.08311 0.0
C1541 C 0.02454 0.43983 0.93467 0.0
C1542 C 0.02434 0.58456 0.09031 0.0
C1543 C 0.02332 0.58984 0.94181 0.0
C1544 C 0.94865 0.58761 0.01362 0.0
C1545 C 0.94876 0.43669 1.01122 0.0
C1546 C 0.09657 0.5867 0.01672 0.0
C1547 C 0.09661 0.43774 1.00841 0.0
C1548 C 0.09296 0.53313 0.94138 0.0
C1549 C 0.95006 0.52766 0.94035 0.0
C1550 C 0.09275 0.49132 0.08388 0.0
C1551 C 0.94989 0.4967 0.0844 0.0
Eu1552 Eu 0.02241 0.45431 1.00908 0.0
O1553 O 0.994 0.48536 0.983 0.0
O1554 O 0.04756 0.48555 0.0369 0.0
Eu1555 Eu 0.96447 0.51216 1.0124 0.0
Eu1556 Eu 0.07995 0.51221 0.01259 0.0
O1557 O 0.99664 0.48519 0.03703 0.0
O1558 O 0.05061 0.48554 0.98303 0.0
Eu1559 Eu 0.02217 0.51034 0.07029 0.0
Eu1560 Eu 0.02231 0.51405 0.95467 0.0
O1561 O 0.99394 0.53905 0.04183 0.0
O1562 O 0.9967 0.5392 0.98789 0.0
O1563 O 0.04757 0.53887 0.98819 0.0
O1564 O 0.05047 0.53893 0.04199 0.0
Eu1565 Eu 0.02235 0.57016 0.01587 0.0
O1566 O 0.0229 0.42691 0.05354 0.0
O1567 O 0.02385 0.42995 0.96341 0.0
O1568 O 0.02373 0.59447 0.06157 0.0
O1569 O 0.0229 0.59751 0.97137 0.0
O1570 O 0.93929 0.55841 0.0134 0.0
O1571 O 0.93934 0.46586 1.0114 0.0
O1572 O 0.10562 0.55751 0.01887 0.0
O1573 O 0.10565 0.46693 1.00635 0.0
O1574 O 0.06588 0.52516 0.93058 0.0
O1575 O 0.9783 0.52321 0.93054 0.0
O1576 O 0.06566 0.49935 0.09458 0.0
O1577 O 0.9781 0.50117 0.0943 0.0
O1578 O 0.06759 0.59561 0.01454 0.0
O1579 O 0.97762 0.59656 0.01512 0.0
O1580 O 0.06763 0.42883 1.01048 0.0
O1581 O 0.97775 0.4278 1.00978 0.0
O1582 O 0.02396 0.46941 0.9266 0.0
O1583 O 0.02308 0.56108 0.9313 0.0
O1584 O 0.02294 0.46331 0.09363 0.0
O1585 O 0.02372 0.55498 0.09836 0.0
O1586 O 0.93966 0.50226 0.05635 0.0
O1587 O 0.93977 0.52206 0.96837 0.0
O1588 O 0.10306 0.49642 0.05576 0.0
O1589 O 0.10319 0.52796 0.96951 0.0
C1590 C 0.52446 0.43478 0.0848 0.0
C1591 C 0.52328 0.5832 0.09013 0.0
C1592 C 0.52331 0.44196 0.93476 0.0
C1593 C 0.52444 0.59042 0.94008 0.0
C1594 C 0.59665 0.51674 0.93799 0.0
C1595 C 0.59655 0.50846 0.08699 0.0
C1596 C 0.44875 0.51377 0.93693 0.0
C1597 C 0.4487 0.51136 0.08787 0.0
C1598 C 0.44996 0.58459 0.02793 0.0
C1599 C 0.5928 0.58392 0.03343 0.0
C1600 C 0.45003 0.44057 0.9969 0.0
C1601 C 0.59297 0.44147 0.99158 0.0
Eu1602 Eu 0.52238 0.50919 0.07034 0.0
O1603 O 0.54756 0.53699 0.03913 0.0
O1604 O 0.49397 0.48316 0.03923 0.0
Eu1605 Eu 0.57996 0.51267 0.01249 0.0
Eu1606 Eu 0.4645 0.51259 1.01241 0.0
O1607 O 0.55059 0.48313 0.03913 0.0
O1608 O 0.49666 0.53717 0.03944 0.0
Eu1609 Eu 0.5223 0.45481 1.01057 0.0
Eu1610 Eu 0.52223 0.5704 0.01432 0.0
O1611 O 0.54759 0.48829 0.98578 0.0
O1612 O 0.55054 0.54209 0.98573 0.0
O1613 O 0.494 0.54198 0.98556 0.0
O1614 O 0.49674 0.48805 0.9854 0.0
Eu1615 Eu 0.52243 0.51599 0.95446 0.0
O1616 O 0.52378 0.46352 0.0947 0.0
O1617 O 0.52288 0.55364 0.09776 0.0
O1618 O 0.52293 0.47151 0.9271 0.0
O1619 O 0.52383 0.56168 0.93016 0.0
O1620 O 0.60568 0.51888 0.9672 0.0
O1621 O 0.60562 0.50641 0.05779 0.0
O1622 O 0.43935 0.51358 0.96612 0.0
O1623 O 0.43932 0.51155 0.05867 0.0
O1624 O 0.47818 0.59445 0.02346 0.0
O1625 O 0.56573 0.59465 0.02536 0.0
O1626 O 0.47827 0.43073 1.00136 0.0
O1627 O 0.56586 0.4307 0.99944 0.0
O1628 O 0.47772 0.51525 0.92801 0.0
O1629 O 0.56768 0.51461 0.92905 0.0
O1630 O 0.47768 0.50989 0.09681 0.0
O1631 O 0.56757 0.51055 0.09588 0.0
O1632 O 0.523 0.59372 0.06138 0.0
O1633 O 0.52381 0.59847 0.96967 0.0
O1634 O 0.5239 0.42673 0.05521 0.0
O1635 O 0.52305 0.43146 0.96352 0.0
O1636 O 0.60322 0.46958 0.9968 0.0
O1637 O 0.60308 0.5558 0.02834 0.0
O1638 O 0.43976 0.4686 1.00248 0.0
O1639 O 0.43972 0.55655 0.02235 0.0
C1640 C 1.00653 0.43517 0.58007 0.0
C1641 C 1.00645 0.44484 0.43511 0.0
C1642 C 1.0064 0.58014 0.58979 0.0
C1643 C 1.00637 0.58981 0.44477 0.0
C1644 C 0.94484 0.58631 0.51854 0.0
C1645 C 0.94491 0.43866 0.50633 0.0
C1646 C 0.09497 0.58673 0.51648 0.0
C1647 C 0.09499 0.43833 0.5084 0.0
C1648 C 0.09494 0.51653 0.43818 0.0
C1649 C 0.94485 0.51858 0.4386 0.0
C1650 C 0.09498 0.50853 0.58665 0.0
C1651 C 0.94488 0.50638 0.58627 0.0
Eu1652 Eu 0.01985 0.4546 0.50849 0.0
O1653 O 0.99342 0.4878 0.48407 0.0
O1654 O 0.04702 0.48322 0.53806 0.0
Eu1655 Eu 0.96224 0.51249 0.51244 0.0
Eu1656 Eu 0.07745 0.51252 0.51242 0.0
O1657 O 0.99344 0.48418 0.53719 0.0
O1658 O 0.047 0.48694 0.48306 0.0
Eu1659 Eu 0.01983 0.50856 0.57043 0.0
Eu1660 Eu 0.0198 0.51643 0.45444 0.0
O1661 O 0.99346 0.53724 0.54078 0.0
O1662 O 0.99345 0.54084 0.48772 0.0
O1663 O 0.04695 0.54187 0.48684 0.0
O1664 O 0.04696 0.53812 0.54177 0.0
Eu1665 Eu 0.01981 0.57051 0.51638 0.0
O1666 O 1.00971 0.42733 0.55092 0.0
O1667 O 0.01264 0.43303 0.46239 0.0
O1668 O 0.01255 0.59199 0.56252 0.0
O1669 O 1.00957 0.59769 0.47392 0.0
O1670 O 0.93637 0.55719 0.51633 0.0
O1671 O 0.9364 0.46778 0.50854 0.0
O1672 O 0.10357 0.55749 0.51542 0.0
O1673 O 0.10359 0.46757 0.50944 0.0
O1674 O 0.0658 0.51668 0.42876 0.0
O1675 O 0.97387 0.519 0.42904 0.0
O1676 O 0.06585 0.50837 0.59608 0.0
O1677 O 0.9739 0.50597 0.59583 0.0
O1678 O 0.06583 0.59616 0.51663 0.0
O1679 O 0.97386 0.59588 0.51895 0.0
O1680 O 0.06585 0.42891 0.50826 0.0
O1681 O 0.97394 0.42914 0.50591 0.0
O1682 O 1.00961 0.47398 0.42723 0.0
O1683 O 0.01255 0.56254 0.43293 0.0
O1684 O 0.01266 0.46245 0.59193 0.0
O1685 O 1.00962 0.551 0.59766 0.0
O1686 O 0.93639 0.50859 0.55714 0.0
O1687 O 0.93638 0.51637 0.46773 0.0
O1688 O 0.10358 0.50956 0.5574 0.0
O1689 O 0.10355 0.5155 0.46743 0.0
C1690 C 0.52326 0.93488 0.58308 0.0
C1691 C 0.52448 0.94021 0.43463 0.0
C1692 C 0.52443 0.08489 0.59032 0.0
C1693 C 0.52324 0.0902 0.44182 0.0
C1694 C 0.44869 0.088 0.51363 0.0
C1695 C 0.44871 0.93706 0.51126 0.0
C1696 C 0.59659 0.087 0.51663 0.0
C1697 C 0.59656 0.93803 0.50835 0.0
C1698 C 0.59294 0.03344 0.44135 0.0
C1699 C 0.44997 0.028 0.44044 0.0
C1700 C 0.5928 0.99159 0.5838 0.0
C1701 C 0.44995 0.99707 0.58448 0.0
Eu1702 Eu 0.52237 0.95465 0.50906 0.0
O1703 O 0.49395 0.98573 0.48302 0.0
O1704 O 0.54756 0.98586 0.53687 0.0
Eu1705 Eu 0.46446 0.01253 0.51246 0.0
Eu1706 Eu 0.57994 0.01251 0.51254 0.0
O1707 O 0.49664 0.98553 0.53704 0.0
O1708 O 0.55056 0.98587 0.48299 0.0
Eu1709 Eu 0.52221 1.01066 0.57028 0.0
Eu1710 Eu 0.52225 0.01441 0.45467 0.0
O1711 O 0.49397 0.0394 0.54187 0.0
O1712 O 0.49668 0.03956 0.48792 0.0
O1713 O 0.54755 0.03921 0.48817 0.0
O1714 O 0.5505 0.03925 0.54197 0.0
Eu1715 Eu 0.52237 0.0705 0.51588 0.0
O1716 O 0.52288 0.92724 0.55351 0.0
O1717 O 0.52379 0.93031 0.46337 0.0
O1718 O 0.52379 0.0948 0.56158 0.0
O1719 O 0.52287 0.09786 0.47139 0.0
O1720 O 0.4393 0.05881 0.51343 0.0
O1721 O 0.43931 0.96624 0.51147 0.0
O1722 O 0.60563 0.05781 0.51876 0.0
O1723 O 0.60562 0.96722 0.5063 0.0
O1724 O 0.5658 0.02562 0.43057 0.0
O1725 O 0.47821 0.02358 0.43059 0.0
O1726 O 0.56572 0.99961 0.59453 0.0
O1727 O 0.47817 1.00153 0.59435 0.0
O1728 O 0.56762 0.09593 0.51449 0.0
O1729 O 0.47766 0.09693 0.51513 0.0
O1730 O 0.56757 0.92913 0.51043 0.0
O1731 O 0.4777 0.92816 0.50977 0.0
O1732 O 0.5239 0.96979 0.42657 0.0
O1733 O 0.52298 0.06145 0.43131 0.0
O1734 O 0.52297 0.96362 0.59362 0.0
O1735 O 0.52382 0.0553 0.59837 0.0
O1736 O 0.43969 1.00263 0.55644 0.0
O1737 O 0.43971 0.02239 0.46846 0.0
O1738 O 0.60308 0.99673 0.55569 0.0
O1739 O 0.60319 0.02817 0.46945 0.0
C1740 C 0.12113 0.15171 0.57704 0.0
C1741 C 0.14356 0.13855 0.59568 0.0
H1742 H 0.0885 0.14484 0.54171 0.0
C1743 C 0.14697 0.10678 0.59565 0.0
H1744 H 0.11805 0.17616 0.57619 0.0
C1745 C 0.13119 0.08907 0.57465 0.0
C1746 C 0.11083 0.10262 0.55408 0.0
H1747 H 0.16397 0.096 0.60986 0.0
H1748 H 0.13531 0.06482 0.57429 0.0
C1749 C 0.10488 0.13389 0.55649 0.0
C1750 C 0.92507 0.14416 0.58382 0.0
C1751 C 0.89354 0.14014 0.5841 0.0
H1752 H 0.96741 0.13034 0.56514 0.0
C1753 C 0.88046 0.1176 0.5655 0.0
H1754 H 0.93569 0.16138 0.59792 0.0
C1755 C 0.89857 0.09997 0.54631 0.0
C1756 C 0.93002 0.10469 0.54533 0.0
H1757 H 0.85608 0.11449 0.56475 0.0
H1758 H 0.88795 0.08276 0.53222 0.0
C1759 C 0.9431 0.12675 0.56454 0.0
C1760 C 0.88043 0.90692 0.45932 0.0
C1761 C 0.89348 0.88441 0.44067 0.0
H1762 H 0.88796 0.94169 0.49266 0.0
C1763 C 0.92501 0.88035 0.44095 0.0
H1764 H 0.85605 0.91004 0.46007 0.0
C1765 C 0.94307 0.89772 0.46026 0.0
C1766 C 0.93001 0.91976 0.47951 0.0
H1767 H 0.93561 0.86315 0.42682 0.0
H1768 H 0.96737 0.89412 0.45966 0.0
C1769 C 0.89856 0.9245 0.47853 0.0
C1770 C 0.14662 0.91778 0.42893 0.0
C1771 C 0.14328 0.886 0.42891 0.0
H1772 H 0.135 0.9597 0.45037 0.0
C1773 C 0.12099 0.87278 0.44767 0.0
H1774 H 0.16349 0.9286 0.41462 0.0
C1775 C 0.10482 0.89056 0.46831 0.0
C1776 C 0.11072 0.92184 0.47071 0.0
H1777 H 0.11797 0.84833 0.44853 0.0
H1778 H 0.08854 0.87958 0.48317 0.0
C1779 C 0.13093 0.93544 0.45003 0.0
C1780 C 0.45102 0.1056 0.15007 0.0
C1781 C 0.45037 0.13717 0.14512 0.0
H1782 H 0.47001 0.06277 0.13706 0.0
C1783 C 0.47001 0.14979 0.12321 0.0
H1784 H 0.4363 0.09518 0.16684 0.0
C1785 C 0.48948 0.13136 0.10639 0.0
C1786 C 0.49006 0.09981 0.11116 0.0
H1787 H 0.47098 0.17414 0.11949 0.0
H1788 H 0.50387 0.14187 0.08939 0.0
C1789 C 0.47072 0.08711 0.13331 0.0
C1790 C 0.9249 0.44078 0.14425 0.0
C1791 C 0.89337 0.44054 0.14021 0.0
H1792 H 0.96728 0.45942 0.13048 0.0
C1793 C 0.88033 0.45917 0.11768 0.0
H1794 H 0.9355 0.42664 0.16145 0.0
C1795 C 0.89846 0.47835 0.10009 0.0
C1796 C 0.92992 0.4793 0.10484 0.0
H1797 H 0.85595 0.45995 0.11456 0.0
H1798 H 0.88788 0.49248 0.0829 0.0
C1799 C 0.94297 0.46005 0.12687 0.0
C1800 C 0.4696 0.90158 0.14993 0.0
C1801 C 0.45 0.87965 0.13727 0.0
H1802 H 0.50349 0.9354 0.14207 0.0
C1803 C 0.45071 0.87469 0.10569 0.0
H1804 H 0.47053 0.90532 0.17428 0.0
C1805 C 0.47044 0.89144 0.08724 0.0
C1806 C 0.48977 0.91359 0.09998 0.0
H1807 H 0.43601 0.85792 0.09523 0.0
H1808 H 0.46978 0.88767 0.06289 0.0
C1809 C 0.48911 0.91839 0.13153 0.0
C1810 C 0.12051 0.44748 0.15228 0.0
C1811 C 0.14249 0.42832 0.1391 0.0
H1812 H 0.08855 0.48341 0.14539 0.0
C1813 C 0.14581 0.42821 0.1073 0.0
H1814 H 0.11752 0.44848 0.17673 0.0
C1815 C 0.13039 0.44947 0.08958 0.0
C1816 C 0.11047 0.47046 0.10313 0.0
H1817 H 0.16244 0.4136 0.0965 0.0
H1818 H 0.13442 0.44966 0.06531 0.0
C1819 C 0.10461 0.46829 0.13444 0.0
C1820 C 0.46943 0.87483 0.90156 0.0
C1821 C 0.44986 0.88752 0.87962 0.0
H1822 H 0.50329 0.88262 0.93544 0.0
C1823 C 0.45061 0.9191 0.8747 0.0
H1824 H 0.47032 0.85048 0.90526 0.0
C1825 C 0.47036 0.93751 0.8915 0.0
C1826 C 0.48965 0.92473 0.91367 0.0
H1827 H 0.43595 0.92959 0.85792 0.0
H1828 H 0.46973 0.96186 0.88777 0.0
C1829 C 0.48895 0.89319 0.91843 0.0
C1830 C 0.12093 0.57701 0.87312 0.0
C1831 C 0.14315 0.59588 0.88633 0.0
H1832 H 0.08864 0.54139 0.87992 0.0
C1833 C 0.14654 0.59584 0.91812 0.0
H1834 H 0.11788 0.57615 0.84867 0.0
C1835 C 0.13095 0.57467 0.93578 0.0
C1836 C 0.11079 0.55394 0.92219 0.0
H1837 H 0.16337 0.61022 0.92894 0.0
H1838 H 0.13504 0.57435 0.96005 0.0
C1839 C 0.10487 0.5563 0.8909 0.0
C1840 C 0.46975 0.12314 0.87498 0.0
C1841 C 0.45022 0.14511 0.88766 0.0
H1842 H 0.50354 0.0892 0.88279 0.0
C1843 C 0.45097 0.15003 0.91925 0.0
H1844 H 0.47065 0.11943 0.85062 0.0
C1845 C 0.47066 0.1332 0.93767 0.0
C1846 C 0.48991 0.111 0.92491 0.0
H1847 H 0.43633 0.16683 0.92973 0.0
H1848 H 0.47003 0.13694 0.96203 0.0
C1849 C 0.48922 0.10624 0.89335 0.0
C1850 C 0.8806 0.56536 0.90702 0.0
C1851 C 0.8937 0.58398 0.88451 0.0
H1852 H 0.88806 0.53203 0.9418 0.0
C1853 C 0.92522 0.58363 0.88046 0.0
H1854 H 0.85623 0.56466 0.91015 0.0
C1855 C 0.94324 0.5643 0.89784 0.0
C1856 C 0.93014 0.54509 0.91988 0.0
H1857 H 0.93585 0.59773 0.86326 0.0
H1858 H 0.96754 0.56485 0.89424 0.0
C1859 C 0.89869 0.54612 0.92461 0.0
C1860 C 0.64575 0.60725 0.09671 0.0
C1861 C 0.64245 0.63904 0.09662 0.0
H1862 H 0.63438 0.56529 0.07517 0.0
C1863 C 0.62051 0.65225 0.07742 0.0
H1864 H 0.66234 0.59642 0.11135 0.0
C1865 C 0.60464 0.63444 0.05656 0.0
C1866 C 0.61049 0.60314 0.05436 0.0
H1867 H 0.61753 0.6767 0.07645 0.0
H1868 H 0.58861 0.64541 0.04141 0.0
C1869 C 0.63037 0.58957 0.07538 0.0
C1870 C 0.42507 0.64444 0.08393 0.0
C1871 C 0.39355 0.64037 0.08424 0.0
H1872 H 0.46741 0.63069 0.06518 0.0
C1873 C 0.38047 0.61785 0.06562 0.0
H1874 H 0.43569 0.66164 0.09805 0.0
C1875 C 0.39858 0.60027 0.04638 0.0
C1876 C 0.43003 0.60503 0.04537 0.0
H1877 H 0.3561 0.61471 0.06489 0.0
H1878 H 0.38796 0.58308 0.03227 0.0
C1879 C 0.4431 0.62707 0.0646 0.0
C1880 C 0.42508 0.38058 0.94107 0.0
C1881 C 0.39355 0.38462 0.9408 0.0
H1882 H 0.46744 0.39442 0.95971 0.0
C1883 C 0.38049 0.40718 0.95939 0.0
H1884 H 0.43568 0.36336 0.92697 0.0
C1885 C 0.39862 0.42482 0.97855 0.0
C1886 C 0.43008 0.42009 0.97952 0.0
H1887 H 0.35612 0.4103 0.96014 0.0
H1888 H 0.38802 0.44204 0.99263 0.0
C1889 C 0.44314 0.39802 0.96032 0.0
C1890 C 0.64707 0.41806 0.92935 0.0
C1891 C 0.64362 0.38629 0.92931 0.0
H1892 H 0.63543 0.46003 0.95069 0.0
C1893 C 0.62117 0.37315 0.94792 0.0
H1894 H 0.66408 0.42882 0.91515 0.0
C1895 C 0.60493 0.39098 0.96846 0.0
C1896 C 0.61091 0.42225 0.97088 0.0
H1897 H 0.61806 0.34871 0.94876 0.0
H1898 H 0.58853 0.38005 0.98322 0.0
C1899 C 0.63129 0.43578 0.95034 0.0
C1900 C 0.95073 0.60562 0.65012 0.0
C1901 C 0.94998 0.63719 0.6452 0.0
H1902 H 0.96986 0.56286 0.63708 0.0
C1903 C 0.96955 0.64989 0.62328 0.0
H1904 H 0.93606 0.59513 0.66689 0.0
C1905 C 0.98908 0.63153 0.60644 0.0
C1906 C 0.98978 0.59999 0.6112 0.0
H1907 H 0.97045 0.67424 0.61957 0.0
H1908 H 1.00343 0.6421 0.58943 0.0
C1909 C 0.97048 0.58721 0.63334 0.0
C1910 C 0.38045 0.95942 0.61778 0.0
C1911 C 0.39353 0.9408 0.64029 0.0
H1912 H 0.38794 0.99275 0.583 0.0
C1913 C 0.42506 0.94111 0.64435 0.0
H1914 H 0.35607 0.96015 0.61465 0.0
C1915 C 0.44309 0.96042 0.62698 0.0
C1916 C 0.43001 0.97965 0.60494 0.0
H1917 H 0.43568 0.92699 0.66154 0.0
H1918 H 0.4674 0.95984 0.63058 0.0
C1919 C 0.39855 0.97865 0.60019 0.0
C1920 C 0.96993 0.40159 0.64989 0.0
C1921 C 0.95037 0.37963 0.63722 0.0
H1922 H 1.00371 0.43551 0.64206 0.0
C1923 C 0.95107 0.37471 0.60563 0.0
H1924 H 0.97086 0.4053 0.67425 0.0
C1925 C 0.97074 0.39154 0.58719 0.0
C1926 C 0.99001 0.41373 0.59995 0.0
H1927 H 0.93641 0.35792 0.59516 0.0
H1928 H 0.97007 0.3878 0.56283 0.0
C1929 C 0.98938 0.41848 0.63151 0.0
C1930 C 0.62058 0.9476 0.65209 0.0
C1931 C 0.64259 0.92851 0.63887 0.0
H1932 H 0.58857 0.9835 0.64529 0.0
C1933 C 0.64592 0.92848 0.60708 0.0
H1934 H 0.61758 0.94853 0.67655 0.0
C1935 C 0.63048 0.94977 0.58941 0.0
C1936 C 0.61053 0.9707 0.60301 0.0
H1937 H 0.66258 0.91393 0.59624 0.0
H1938 H 0.63452 0.95003 0.56514 0.0
C1939 C 0.60465 0.96843 0.63431 0.0
C1940 C 0.95085 0.41916 0.37479 0.0
C1941 C 0.95017 0.38759 0.37974 0.0
H1942 H 0.96986 0.46198 0.38779 0.0
C1943 C 0.96978 0.37496 0.40169 0.0
H1944 H 0.93614 0.42959 0.358 0.0
C1945 C 0.98927 0.39339 0.41852 0.0
C1946 C 0.98988 0.42493 0.41372 0.0
H1947 H 0.97073 0.35062 0.40542 0.0
H1948 H 1.00364 0.38287 0.43554 0.0
C1949 C 0.97055 0.43763 0.39155 0.0
C1950 C 0.62123 0.07711 0.37308 0.0
C1951 C 0.64367 0.09571 0.38627 0.0
H1952 H 0.58856 0.04183 0.3799 0.0
C1953 C 0.64707 0.09566 0.41806 0.0
H1954 H 0.61816 0.07627 0.34863 0.0
C1955 C 0.63126 0.07467 0.43574 0.0
C1956 C 0.61089 0.05414 0.42215 0.0
H1957 H 0.66408 0.10984 0.42886 0.0
H1958 H 0.63537 0.0743 0.46 0.0
C1959 C 0.60495 0.05658 0.39088 0.0
C1960 C 0.95069 0.65008 0.41922 0.0
C1961 C 0.94995 0.64513 0.38763 0.0
H1962 H 0.9698 0.63709 0.46201 0.0
C1963 C 0.96955 0.62322 0.37496 0.0
H1964 H 0.936 0.66685 0.42968 0.0
C1965 C 0.98908 0.6064 0.39334 0.0
C1966 C 0.98975 0.61119 0.4249 0.0
H1967 H 0.97045 0.61949 0.3506 0.0
H1968 H 1.00344 0.5894 0.38279 0.0
C1969 C 0.97044 0.63333 0.43765 0.0
C1970 C 0.38042 0.06555 0.40713 0.0
C1971 C 0.39347 0.08423 0.38465 0.0
H1972 H 0.38796 0.03219 0.44186 0.0
C1973 C 0.425 0.08399 0.38062 0.0
H1974 H 0.35604 0.06476 0.41023 0.0
C1975 C 0.44306 0.06469 0.39799 0.0
C1976 C 0.43001 0.04541 0.41998 0.0
H1977 H 0.4356 0.09815 0.36345 0.0
H1978 H 0.46737 0.06533 0.39441 0.0
C1979 C 0.39855 0.04634 0.4247 0.0
C1980 C 0.0257 0.12982 0.36187 0.0
C1981 C 0.02323 0.16075 0.36966 0.0
H1982 H 0.02776 0.08358 0.37746 0.0
C1983 C 0.02338 0.16826 0.40097 0.0
H1984 H 0.02539 0.12301 0.33817 0.0
C1985 C 0.02445 0.14566 0.42368 0.0
C1986 C 0.02544 0.1146 0.41598 0.0
H1987 H 0.02179 0.19183 0.40802 0.0
H1988 H 0.02377 0.15262 0.44731 0.0
C1989 C 0.02671 0.10713 0.38462 0.0
C1990 C 0.88258 0.98044 0.39157 0.0
C1991 C 0.8786 1.00133 0.36739 0.0
H1992 H 0.90645 0.96875 0.43256 0.0
C1993 C 0.89996 0.02512 0.36488 0.0
H1994 H 0.86702 0.96155 0.3943 0.0
C1995 C 0.92328 0.02877 0.38685 0.0
C1996 C 0.92525 1.00931 0.41238 0.0
H1997 H 0.89761 0.04191 0.34699 0.0
H1998 H 0.9389 0.04768 0.38466 0.0
C1999 C 0.90502 0.98471 0.41388 0.0
C2000 C 0.01517 0.90617 0.35497 0.0
C2001 C 0.0175 0.87479 0.36089 0.0
H2002 H 0.0153 0.95159 0.37303 0.0
C2003 C 0.02388 0.86575 0.39101 0.0
H2004 H 1.00912 0.91394 0.33237 0.0
C2005 C 0.02675 0.88728 0.41466 0.0
C2006 C 0.02316 0.91868 0.40905 0.0
H2007 H 0.02471 0.84176 0.39665 0.0
H2008 H 0.03069 0.87913 0.43758 0.0
C2009 C 0.01824 0.92776 0.37857 0.0
C2010 C 0.13499 0.0148 0.35905 0.0
C2011 C 0.16593 0.01741 0.3665 0.0
H2012 H 0.08903 0.01277 0.37529 0.0
C2013 C 0.17376 0.01794 0.39769 0.0
H2014 H 0.12798 0.01458 0.33543 0.0
C2015 C 0.15152 0.01738 0.4206 0.0
C2016 C 0.12047 0.01607 0.41329 0.0
H2017 H 0.19734 0.0196 0.40446 0.0
H2018 H 0.15879 0.01838 0.44412 0.0
C2019 C 0.11261 0.01415 0.38208 0.0
C2020 C 0.02336 0.85618 0.62387 0.0
C2021 C 0.0233 0.86368 0.65519 0.0
H2022 H 0.02366 0.87183 0.57753 0.0
C2023 C 0.02584 0.89461 0.66298 0.0
H2024 H 0.02171 0.83262 0.61682 0.0
C2025 C 0.02684 0.9173 0.64022 0.0
C2026 C 0.02547 0.90984 0.60887 0.0
H2027 H 0.0256 0.90142 0.68667 0.0
H2028 H 0.02794 0.94085 0.64738 0.0
C2029 C 0.02442 0.87878 0.60117 0.0
C2030 C 0.17372 1.00667 0.62723 0.0
C2031 C 0.16587 1.00713 0.65841 0.0
H2032 H 0.15876 1.00626 0.58079 0.0
C2033 C 0.13493 1.00967 0.66584 0.0
H2034 H 0.19731 1.00506 0.62047 0.0
C2035 C 0.11255 1.0103 0.6428 0.0
C2036 C 0.12043 1.00844 0.6116 0.0
H2037 H 0.12792 1.00984 0.68947 0.0
H2038 H 0.08897 1.01163 0.64958 0.0
C2039 C 0.15148 1.00721 0.60431 0.0
C2040 C 0.01513 0.11827 0.66991 0.0
C2041 C 0.01755 0.14965 0.66401 0.0
H2042 H 0.01518 0.07285 0.65184 0.0
C2043 C 0.02399 0.15868 0.63391 0.0
H2044 H 1.00904 0.11051 0.6925 0.0
C2045 C 0.02683 0.13715 0.61026 0.0
C2046 C 0.02316 0.10575 0.61585 0.0
H2047 H 0.02489 0.18266 0.62827 0.0
H2048 H 0.03083 0.1453 0.58734 0.0
C2049 C 0.01819 0.09667 0.64632 0.0
C2050 C 0.9001 0.99916 0.65999 0.0
C2051 C 0.87831 0.02252 0.65721 0.0
H2052 H 0.93947 0.97713 0.64049 0.0
C2053 C 0.88194 0.04325 0.63283 0.0
H2054 H 0.89802 0.9825 0.67803 0.0
C2055 C 0.90448 0.03918 0.61059 0.0
C2056 C 0.92515 0.01497 0.61237 0.0
H2057 H 0.866 0.06179 0.62987 0.0
H2058 H 0.90559 0.05496 0.59174 0.0
C2059 C 0.92352 0.99573 0.63809 0.0
C2060 C 0.40223 1.0083 0.16252 0.0
C2061 C 0.37173 1.01156 0.15328 0.0
H2062 H 0.44899 1.00399 0.14923 0.0
C2063 C 0.36537 1.01013 0.12199 0.0
H2064 H 0.40807 1.01033 0.18639 0.0
C2065 C 0.38893 1.00694 0.10052 0.0
C2066 C 0.41972 1.00546 0.10961 0.0
H2067 H 0.34238 0.01364 0.11398 0.0
H2068 H 0.38296 1.00713 0.07661 0.0
C2069 C 0.42583 1.00515 0.14108 0.0
C2070 C 0.02398 0.39082 0.15899 0.0
C2071 C 0.01759 0.36072 0.14993 0.0
H2072 H 0.03077 0.43739 0.14563 0.0
C2073 C 0.01522 0.35481 0.11854 0.0
H2074 H 0.02483 0.39646 0.18298 0.0
C2075 C 0.01827 0.3784 0.09695 0.0
C2076 C 0.0232 0.40887 0.10605 0.0
H2077 H 1.00917 0.33222 0.11076 0.0
H2078 H 0.01531 0.37287 0.07311 0.0
C2079 C 0.02682 0.41447 0.13746 0.0
C2080 C 0.67446 1.00469 0.12384 0.0
C2081 C 0.66824 1.01143 0.15454 0.0
H2082 H 0.6568 0.99866 0.07857 0.0
C2083 C 0.63747 0.01528 0.16283 0.0
H2084 H 0.69771 1.00172 0.11644 0.0
C2085 C 0.61389 0.0134 0.14121 0.0
C2086 C 0.62008 1.0079 0.11025 0.0
H2087 H 0.63157 0.02025 0.18625 0.0
H2088 H 0.59079 0.01709 0.14875 0.0
C2089 C 0.65082 1.00317 0.10204 0.0
C2090 C 0.02561 0.6628 0.13004 0.0
C2091 C 0.02311 0.65503 0.16098 0.0
H2092 H 0.0277 0.64718 0.08379 0.0
C2093 C 0.02323 0.62374 0.1685 0.0
H2094 H 0.02532 0.68648 0.12322 0.0
C2095 C 0.02431 0.60102 0.14591 0.0
C2096 C 0.02533 0.6087 0.11484 0.0
H2097 H 0.02162 0.61671 0.19208 0.0
H2098 H 0.02361 0.5774 0.15287 0.0
C2099 C 0.02663 0.64004 0.10736 0.0
C2100 C 0.36522 0.01437 0.90302 0.0
C2101 C 0.37154 0.01307 0.87172 0.0
H2102 H 0.38287 0.01725 0.94839 0.0
C2103 C 0.40201 0.01647 0.86246 0.0
H2104 H 0.34226 1.01075 0.91104 0.0
C2105 C 0.42563 0.0196 0.88388 0.0
C2106 C 0.41957 0.01916 0.91535 0.0
H2107 H 0.40782 0.01454 0.83857 0.0
H2108 H 0.44878 0.02086 0.87571 0.0
C2109 C 0.3888 0.01756 0.92448 0.0
C2110 C 0.02576 0.36157 0.89499 0.0
C2111 C 0.02335 0.36933 0.86404 0.0
H2112 H 0.02777 0.37722 0.94123 0.0
C2113 C 0.02356 0.40062 0.8565 0.0
H2114 H 0.02539 0.33789 0.90182 0.0
C2115 C 0.02463 0.42334 0.87908 0.0
C2116 C 0.02555 0.41568 0.91016 0.0
H2117 H 0.02202 0.40764 0.83291 0.0
H2118 H 0.024 0.44697 0.8721 0.0
C2119 C 0.02677 0.38434 0.91766 0.0
C2120 C 0.63724 1.00918 0.86184 0.0
C2121 C 0.66804 0.01288 0.8701 0.0
H2122 H 0.59058 1.00748 0.87596 0.0
C2123 C 0.67434 0.01949 0.90081 0.0
H2124 H 0.63128 1.00429 0.83841 0.0
C2125 C 0.65074 0.02102 0.92265 0.0
C2126 C 0.61996 0.01643 0.91447 0.0
H2127 H 0.69761 0.02234 0.9082 0.0
H2128 H 0.65677 0.02542 0.94613 0.0
C2129 C 0.6137 1.01106 0.88349 0.0
C2130 C 0.01538 0.66959 0.90633 0.0
C2131 C 0.01771 0.66367 0.87494 0.0
H2132 H 0.01548 0.65154 0.95177 0.0
C2133 C 0.02404 0.63355 0.8659 0.0
H2134 H 1.00937 0.69219 0.91411 0.0
C2135 C 0.02687 0.6099 0.88744 0.0
C2136 C 0.02328 0.61552 0.91885 0.0
H2137 H 0.02487 0.6279 0.84191 0.0
H2138 H 0.03078 0.58698 0.87928 0.0
C2139 C 0.01841 0.646 0.92794 0.0
C2140 C 0.13499 0.35886 1.00993 0.0
C2141 C 0.16593 0.36629 1.0074 0.0
H2142 H 0.08902 0.37512 1.01187 0.0
C2143 C 0.17378 0.39746 1.00695 0.0
H2144 H 0.12797 0.33524 1.01009 0.0
C2145 C 0.15154 0.42038 1.00749 0.0
C2146 C 0.12048 0.41309 1.00871 0.0
H2147 H 0.19736 0.40422 1.00535 0.0
H2148 H 0.15882 0.44389 1.00656 0.0
C2149 C 0.11261 0.38189 1.01056 0.0
C2150 C 0.13496 0.66558 0.01511 0.0
C2151 C 0.16589 0.65816 0.01776 0.0
H2152 H 0.089 0.64931 0.01305 0.0
C2153 C 0.17374 0.62699 0.01834 0.0
H2154 H 0.12794 0.6892 0.01484 0.0
C2155 C 0.15151 0.60407 0.01779 0.0
C2156 C 0.12045 0.61136 0.01644 0.0
H2157 H 0.19732 0.62023 0.02002 0.0
H2158 H 0.15879 0.58056 0.01882 0.0
C2159 C 0.11258 0.64254 0.01447 0.0
C2160 C 0.40224 0.16232 0.0166 0.0
C2161 C 0.37174 0.15311 0.01327 0.0
H2162 H 0.449 0.14902 0.02093 0.0
C2163 C 0.36538 0.12182 0.01462 0.0
H2164 H 0.40809 0.18619 0.01462 0.0
C2165 C 0.38894 0.10034 0.0178 0.0
C2166 C 0.41972 0.10942 0.01933 0.0
H2167 H 0.3424 0.11383 1.01106 0.0
H2168 H 0.38297 0.07644 0.01754 0.0
C2169 C 0.42584 0.14088 0.01972 0.0
C2170 C 0.9 0.36469 0.99941 0.0
C2171 C 0.87869 0.36715 0.02325 0.0
H2172 H 0.93889 0.38452 0.97682 0.0
C2173 C 0.88271 0.39128 0.0442 0.0
H2174 H 0.89762 0.34684 0.98258 0.0
C2175 C 0.90514 0.41359 0.03995 0.0
C2176 C 0.92531 0.41215 0.0153 0.0
H2177 H 0.86719 0.39397 0.06314 0.0
H2178 H 0.9066 0.43223 0.05596 0.0
C2179 C 0.92331 0.38667 0.99577 0.0
C2180 C 0.63716 0.8616 0.01542 0.0
C2181 C 0.66796 0.86983 1.0117 0.0
H2182 H 0.59051 0.87577 0.01711 0.0
C2183 C 0.67428 0.90051 1.00505 0.0
H2184 H 0.63119 0.8382 0.02034 0.0
C2185 C 0.6507 0.92237 1.00351 0.0
C2186 C 0.61991 0.91422 1.00813 0.0
H2187 H 0.69756 0.90787 1.0022 0.0
H2188 H 0.65674 0.94584 0.99909 0.0
C2189 C 0.61364 0.88327 0.01352 0.0
C2190 C 0.90018 0.65979 0.02545 0.0
C2191 C 0.87821 0.65689 1.00226 0.0
H2192 H 0.93971 0.64041 0.04729 0.0
C2193 C 0.88169 0.63242 0.98161 0.0
H2194 H 0.89822 0.6779 0.04205 0.0
C2195 C 0.90426 0.6102 0.98563 0.0
C2196 C 0.92512 0.6121 1.00968 0.0
H2197 H 0.8656 0.62935 0.96321 0.0
H2198 H 0.90525 0.59126 0.96993 0.0
C2199 C 0.92363 0.63791 0.02881 0.0
C2200 C 0.40196 0.86232 1.00829 0.0
C2201 C 0.37148 0.87159 1.01167 0.0
H2202 H 0.44873 0.87556 1.0039 0.0
C2203 C 0.36518 0.90288 1.01038 0.0
H2204 H 0.40776 0.83844 1.01023 0.0
C2205 C 0.38876 0.92433 1.00719 0.0
C2206 C 0.41953 0.9152 1.0056 0.0
H2207 H 0.34222 0.91091 0.01399 0.0
H2208 H 0.38283 0.94824 1.0075 0.0
C2209 C 0.42558 0.88373 1.00516 0.0
C2210 C 0.67454 0.12359 0.01975 0.0
C2211 C 0.66829 0.15429 0.01311 0.0
H2212 H 0.65689 0.07831 0.0257 0.0
C2213 C 0.63751 0.16259 1.00935 0.0
H2214 H 0.69779 0.11618 0.02266 0.0
C2215 C 0.61394 0.14097 1.01121 0.0
C2216 C 0.62014 0.11 0.01662 0.0
H2217 H 0.63159 0.18601 1.00445 0.0
H2218 H 0.59083 0.14852 1.0076 0.0
C2219 C 0.65091 0.10179 0.02126 0.0
C2220 C 0.52577 0.63013 0.86183 0.0
C2221 C 0.52324 0.66106 0.8696 0.0
H2222 H 0.52788 0.5839 0.87745 0.0
C2223 C 0.52332 0.66858 0.90091 0.0
H2224 H 0.52551 0.62331 0.83814 0.0
C2225 C 0.5244 0.646 0.92363 0.0
C2226 C 0.52544 0.61494 0.91594 0.0
H2227 H 0.52169 0.69215 0.90795 0.0
H2228 H 0.52367 0.65296 0.94726 0.0
C2229 C 0.52678 0.60746 0.88459 0.0
C2230 C 0.38238 0.48111 0.89173 0.0
C2231 C 0.37853 0.50196 0.86749 0.0
H2232 H 0.40618 0.46938 0.93275 0.0
C2233 C 0.40006 0.52558 0.86488 0.0
H2234 H 0.36666 0.46236 0.89455 0.0
C2235 C 0.42343 0.52912 0.88682 0.0
C2236 C 0.42527 0.50973 0.91241 0.0
H2237 H 0.39781 0.54233 0.84694 0.0
H2238 H 0.43918 0.54791 0.88455 0.0
C2239 C 0.40487 0.48528 0.91401 0.0
C2240 C 0.524 0.36606 0.89107 0.0
C2241 C 0.5176 0.37508 0.86095 0.0
H2242 H 0.53082 0.37947 0.93763 0.0
C2243 C 0.51524 0.40645 0.85502 0.0
H2244 H 0.52485 0.34208 0.89672 0.0
C2245 C 0.51831 0.42807 0.8786 0.0
C2246 C 0.52325 0.419 0.90909 0.0
H2247 H 0.50918 0.41421 0.83242 0.0
H2248 H 0.51535 0.45189 0.87306 0.0
C2249 C 0.52686 0.3876 0.91471 0.0
C2250 C 0.67384 0.51826 0.89775 0.0
C2251 C 0.666 0.51772 0.86657 0.0
H2252 H 0.65887 0.51873 0.94419 0.0
C2253 C 0.63507 0.51512 0.85912 0.0
H2254 H 0.69742 0.5199 0.90453 0.0
C2255 C 0.61268 0.5145 0.88215 0.0
C2256 C 0.62054 0.51643 0.91335 0.0
H2257 H 0.62806 0.51489 0.83549 0.0
H2258 H 0.5891 0.51312 0.87536 0.0
C2259 C 0.6516 0.51773 0.92066 0.0
C2260 C 0.52566 0.39507 0.16307 0.0
C2261 C 0.52323 0.36413 0.15529 0.0
H2262 H 0.5277 0.44131 0.14745 0.0
C2263 C 0.52342 0.35662 0.12397 0.0
H2264 H 0.52532 0.40189 0.18675 0.0
C2265 C 0.5245 0.3792 0.10126 0.0
C2266 C 0.52545 0.41027 0.10895 0.0
H2267 H 0.52186 0.33304 0.11693 0.0
H2268 H 0.52385 0.37223 0.07763 0.0
C2269 C 0.52668 0.41775 0.1403 0.0
C2270 C 0.67371 0.50694 0.1273 0.0
C2271 C 0.66585 0.50738 0.15847 0.0
H2272 H 0.65876 0.50657 0.08085 0.0
C2273 C 0.63491 0.50992 0.1659 0.0
H2274 H 0.69729 0.50532 0.12055 0.0
C2275 C 0.61253 0.51058 0.14285 0.0
C2276 C 0.62042 0.50874 0.11165 0.0
H2277 H 0.62789 0.51007 0.18952 0.0
H2278 H 0.58895 0.5119 0.14962 0.0
C2279 C 0.65148 0.5075 0.10437 0.0
C2280 C 0.51522 0.61861 0.1699 0.0
C2281 C 0.51763 0.64999 0.16402 0.0
H2282 H 0.51526 0.5732 0.15181 0.0
C2283 C 0.52407 0.65904 0.13392 0.0
H2284 H 0.50913 0.61084 0.19249 0.0
C2285 C 0.52691 0.63752 0.11025 0.0
C2286 C 0.52323 0.60613 0.11583 0.0
H2287 H 0.52497 0.68303 0.1283 0.0
H2288 H 0.5309 0.64568 0.08734 0.0
C2289 C 0.51827 0.59703 0.1463 0.0
C2290 C 0.40024 0.49948 0.16005 0.0
C2291 C 0.3783 0.52269 0.15718 0.0
H2292 H 0.43973 0.47763 0.14062 0.0
C2293 C 0.38181 0.54336 0.13275 0.0
H2294 H 0.39825 0.48285 0.17813 0.0
C2295 C 0.40437 0.53936 0.11052 0.0
C2296 C 0.42519 0.51529 0.11238 0.0
H2297 H 0.36574 0.56179 0.12972 0.0
H2298 H 0.40538 0.55508 0.09161 0.0
C2299 C 0.42368 0.49612 0.13816 0.0
C2300 C 0.90212 0.50834 0.66245 0.0
C2301 C 0.87163 0.51166 0.65319 0.0
H2302 H 0.9489 0.50402 0.6492 0.0
C2303 C 0.86531 0.51031 0.62189 0.0
H2304 H 0.90794 0.51033 0.68633 0.0
C2305 C 0.88888 0.50713 0.60044 0.0
C2306 C 0.91966 0.5056 0.60956 0.0
H2307 H 0.84233 0.51386 0.61387 0.0
H2308 H 0.88294 0.50738 0.57652 0.0
C2309 C 0.92574 0.50522 0.64103 0.0
C2310 C 0.524 0.89111 0.65894 0.0
C2311 C 0.51762 0.86101 0.64987 0.0
H2312 H 0.53078 0.93768 0.6456 0.0
C2313 C 0.51526 0.85511 0.61848 0.0
H2314 H 0.52485 0.89673 0.68294 0.0
C2315 C 0.5183 0.87872 0.5969 0.0
C2316 C 0.52321 0.90918 0.60601 0.0
H2317 H 0.50921 0.83252 0.61068 0.0
H2318 H 0.51534 0.8732 0.57306 0.0
C2319 C 0.52684 0.91477 0.63743 0.0
C2320 C 0.13738 0.51558 0.66294 0.0
C2321 C 0.16817 0.51187 0.65466 0.0
H2322 H 0.09071 0.51728 0.64883 0.0
C2323 C 0.17444 0.50523 0.62395 0.0
H2324 H 0.13145 0.52048 0.68636 0.0
C2325 C 0.15083 0.50369 0.60213 0.0
C2326 C 0.12006 0.5083 0.61032 0.0
H2327 H 0.19771 0.50237 0.61656 0.0
H2328 H 0.15684 0.49927 0.57864 0.0
C2329 C 0.11383 0.51369 0.64129 0.0
C2330 C 0.52341 0.12407 0.6685 0.0
C2331 C 0.52325 0.15537 0.66098 0.0
H2332 H 0.52379 0.07773 0.65288 0.0
C2333 C 0.52571 0.16313 0.63003 0.0
H2334 H 0.52183 0.11704 0.69208 0.0
C2335 C 0.52672 0.14037 0.60735 0.0
C2336 C 0.52544 0.10902 0.61484 0.0
H2337 H 0.52539 0.18681 0.62321 0.0
H2338 H 0.52776 0.1475 0.58379 0.0
C2339 C 0.52447 0.10135 0.64591 0.0
C2340 C 0.86529 0.51454 0.40295 0.0
C2341 C 0.87162 0.5132 0.37166 0.0
H2342 H 0.88291 0.51748 0.44833 0.0
C2343 C 0.9021 0.51658 0.36241 0.0
H2344 H 0.84232 0.51095 0.41096 0.0
C2345 C 0.92571 0.51973 0.38384 0.0
C2346 C 0.91963 0.51933 0.41531 0.0
H2347 H 0.90792 0.51461 0.33853 0.0
H2348 H 0.94887 0.52098 0.37569 0.0
C2349 C 0.88886 0.51776 0.42442 0.0
C2350 C 0.52577 0.86197 0.39491 0.0
C2351 C 0.5233 0.86973 0.36397 0.0
H2352 H 0.52783 0.8776 0.44116 0.0
C2353 C 0.52344 0.90103 0.35644 0.0
H2354 H 0.52546 0.83829 0.40173 0.0
C2355 C 0.52452 0.92374 0.37904 0.0
C2356 C 0.52549 0.91607 0.41011 0.0
H2357 H 0.52185 0.90806 0.33286 0.0
H2358 H 0.52382 0.94737 0.37207 0.0
C2359 C 0.52678 0.88473 0.41759 0.0
C2360 C 0.13724 0.5095 0.36185 0.0
C2361 C 0.16804 0.5132 0.3701 0.0
H2362 H 0.09058 0.50782 0.376 0.0
C2363 C 0.17436 0.51982 0.40081 0.0
H2364 H 0.13127 0.5046 0.33843 0.0
C2365 C 0.15077 0.52136 0.42266 0.0
C2366 C 0.11999 0.51677 0.41449 0.0
H2367 H 0.19764 0.52266 0.40818 0.0
H2368 H 0.15681 0.52577 0.44614 0.0
C2369 C 0.11371 0.5114 0.38352 0.0
C2370 C 0.52388 0.13392 0.36593 0.0
C2371 C 0.51756 0.16404 0.37498 0.0
H2372 H 0.53062 0.08735 0.37929 0.0
C2373 C 0.51526 0.16996 0.40637 0.0
H2374 H 0.52468 0.12827 0.34193 0.0
C2375 C 0.51831 0.14637 0.42797 0.0
C2376 C 0.52317 0.11588 0.41887 0.0
H2377 H 0.50926 0.19256 0.41415 0.0
H2378 H 0.5154 0.15191 0.4518 0.0
C2379 C 0.52672 0.11027 0.38745 0.0
C2380 C 0.63493 0.85914 0.5099 0.0
C2381 C 0.66587 0.86656 0.50731 0.0
H2382 H 0.58897 0.87541 0.51191 0.0
C2383 C 0.67372 0.89773 0.50679 0.0
H2384 H 0.62791 0.83552 0.51011 0.0
C2385 C 0.65149 0.92065 0.50734 0.0
C2386 C 0.62043 0.91337 0.50864 0.0
H2387 H 0.69731 0.90448 0.50515 0.0
H2388 H 0.65878 0.94416 0.50637 0.0
C2389 C 0.61256 0.88218 0.51054 0.0
C2390 C 0.67377 0.12727 0.51813 0.0
C2391 C 0.66593 0.15844 0.5176 0.0
H2392 H 0.65881 0.08084 0.51862 0.0
C2393 C 0.63499 0.16587 0.515 0.0
H2394 H 0.69735 0.12051 0.51979 0.0
C2395 C 0.61261 0.14284 0.51438 0.0
C2396 C 0.62048 0.11165 0.51631 0.0
H2397 H 0.62798 0.18949 0.51477 0.0
H2398 H 0.58903 0.14962 0.51301 0.0
C2399 C 0.65153 0.10436 0.51761 0.0
C2400 C 0.86525 0.62191 0.51457 0.0
C2401 C 0.87156 0.65321 0.51325 0.0
H2402 H 0.8829 0.57656 0.51746 0.0
C2403 C 0.90205 0.66246 0.5166 0.0
H2404 H 0.84228 0.61389 0.51099 0.0
C2405 C 0.92567 0.64106 0.51972 0.0
C2406 C 0.9196 0.60959 0.5193 0.0
H2407 H 0.90785 0.68634 0.51465 0.0
H2408 H 0.94882 0.64922 0.52095 0.0
C2409 C 0.88883 0.60046 0.51774 0.0
C2410 C 0.38241 0.89183 0.54397 0.0
C2411 C 0.37856 0.86757 0.52313 0.0
H2412 H 0.40617 0.93286 0.55568 0.0
C2413 C 0.40007 0.86498 0.49948 0.0
H2414 H 0.36672 0.89463 0.56275 0.0
C2415 C 0.42341 0.88694 0.49591 0.0
C2416 C 0.42525 0.91253 0.51531 0.0
H2417 H 0.39782 0.84704 0.48273 0.0
H2418 H 0.43914 0.88467 0.4771 0.0
C2419 C 0.40487 0.91412 0.53977 0.0
C2420 C 0.17445 0.40106 0.50496 0.0
C2421 C 0.16821 0.37037 0.51166 0.0
H2422 H 0.15682 0.44634 0.49898 0.0
C2423 C 0.13743 0.36209 0.51547 0.0
H2424 H 0.19771 0.40846 0.50202 0.0
C2425 C 0.11387 0.38372 0.5136 0.0
C2426 C 0.12007 0.41467 0.50815 0.0
H2427 H 0.13152 0.33868 0.5204 0.0
H2428 H 0.09076 0.37618 0.51726 0.0
C2429 C 0.15083 0.42286 0.50346 0.0
C2430 C 0.38253 0.1333 0.48069 0.0
C2431 C 0.37857 0.15749 0.50158 0.0
H2432 H 0.40639 0.09232 0.46898 0.0
C2433 C 0.39994 0.16001 0.52537 0.0
H2434 H 0.36696 0.13056 0.46179 0.0
C2435 C 0.42326 0.13804 0.52902 0.0
C2436 C 0.42522 0.11251 0.50955 0.0
H2437 H 0.3976 0.1779 0.54216 0.0
H2438 H 0.43889 0.14025 0.54792 0.0
C2439 C 0.40498 0.111 0.48495 0.0
C2440 C 0.90223 0.36245 0.50828 0.0
C2441 C 0.87173 0.37167 0.51162 0.0
H2442 H 0.94898 0.37576 0.50393 0.0
C2443 C 0.86537 0.40295 0.51029 0.0
H2444 H 0.90807 0.33858 0.51024 0.0
C2445 C 0.88892 0.42443 0.50711 0.0
C2446 C 0.91971 0.41535 0.50556 0.0
H2447 H 0.84239 0.41094 0.51386 0.0
H2448 H 0.88295 0.44833 0.50738 0.0
C2449 C 0.92582 0.38389 0.50515 0.0
C2450 C 0.17445 0.62398 0.51995 0.0
C2451 C 0.16822 0.65467 0.51324 0.0
H2452 H 0.1568 0.57871 0.52593 0.0
C2453 C 0.13744 0.66296 0.50942 0.0
H2454 H 0.1977 0.61657 0.52289 0.0
C2455 C 0.11386 0.64134 0.51128 0.0
C2456 C 0.12006 0.61038 0.51674 0.0
H2457 H 0.13153 0.68637 0.50447 0.0
H2458 H 0.09076 0.64889 0.50762 0.0
C2459 C 0.15081 0.60218 0.52145 0.0
loop_
_geom_bond_atom_site_label_1
_geom_bond_atom_site_label_2
_geom_bond_distance
_geom_bond_site_symmetry_2
_ccdc_geom_bond_type
C0 C1 1.391 . S
C0 C4 1.391 . S
C0 H42 0.948 . S
C1 C0 1.391 . S
C1 C2 1.391 . S
C2 C1 1.391 . S
C2 H58 0.947 . S
C2 C59 1.392 . S
C3 C4 1.391 . S
C3 C7 1.396 1_655 S
C3 C59 1.419 . S
C4 C0 1.391 . S
C4 C3 1.391 . S
C4 C5 1.399 . S
C5 C4 1.399 . S
C5 C8 1.396 1_655 S
C5 C17 1.453 1_655 S
C5 C18 1.684 . S
H6 C30 0.948 . S
C7 C3 1.396 1_455 S
C7 C8 1.395 . S
C7 C26 1.723 . S
C8 C5 1.396 1_455 S
C8 C7 1.395 . S
C8 C38 1.723 . S
H9 C32 0.947 . S
H10 C33 0.948 . S
H11 C39 0.982 . S
H12 C40 0.979 . S
H13 C40 0.980 . S
H14 C40 0.983 . S
H15 C39 0.979 . S
H16 C39 0.977 . S
C17 C5 1.453 1_455 S
C17 H46 0.982 . S
C17 H47 0.979 . S
C17 H48 0.977 . S
C18 C5 1.684 . S
C18 H43 0.979 . S
C18 H44 0.980 . S
C18 H45 0.983 . S
C19 C20 1.391 . S
C19 C24 1.391 . S
C19 H49 0.948 . S
C20 C19 1.391 . S
C20 C21 1.391 . S
C21 C20 1.391 . S
C21 C22 1.392 . S
C21 H50 0.947 . S
C22 C21 1.392 . S
C22 C23 1.419 . S
C22 H51 0.948 . S
C23 C22 1.419 . S
C23 C24 1.391 . S
C23 C27 1.396 1_655 S
C24 C19 1.391 . S
C24 C23 1.391 . S
C24 C25 1.399 . S
C25 C24 1.399 . S
C25 C26 1.396 1_655 S
C25 C28 1.453 1_655 S
C25 C29 1.684 . S
C26 C7 1.723 . S
C26 C25 1.396 1_455 S
C26 C27 1.395 . S
C27 C23 1.396 1_455 S
C27 C26 1.395 . S
C27 C37 1.723 . S
C28 C25 1.453 1_455 S
C28 H52 0.982 . S
C28 H53 0.979 . S
C28 H54 0.977 . S
C29 C25 1.684 . S
C29 H55 0.979 . S
C29 H56 0.980 . S
C29 H57 0.983 . S
C30 H6 0.948 . S
C30 C31 1.391 . S
C30 C35 1.391 . S
C31 C30 1.391 . S
C31 C32 1.391 . S
C32 H9 0.947 . S
C32 C31 1.391 . S
C32 C33 1.392 . S
C33 H10 0.948 . S
C33 C32 1.392 . S
C33 C34 1.419 . S
C34 C33 1.419 . S
C34 C35 1.391 . S
C34 C38 1.396 1_655 S
C35 C30 1.391 . S
C35 C34 1.391 . S
C35 C36 1.399 . S
C36 C35 1.399 . S
C36 C37 1.396 1_655 S
C36 C39 1.453 1_655 S
C36 C40 1.684 . S
C37 C27 1.723 . S
C37 C36 1.396 1_455 S
C37 C38 1.395 . S
C38 C8 1.723 . S
C38 C34 1.396 1_455 S
C38 C37 1.395 . S
C39 H11 0.982 . S
C39 H15 0.979 . S
C39 H16 0.977 . S
C39 C36 1.453 1_455 S
C40 H12 0.979 . S
C40 H13 0.980 . S
C40 H14 0.983 . S
C40 C36 1.684 . S
H41 C59 0.948 . S
H42 C0 0.948 . S
H43 C18 0.979 . S
H44 C18 0.980 . S
H45 C18 0.983 . S
H46 C17 0.982 . S
H47 C17 0.979 . S
H48 C17 0.977 . S
H49 C19 0.948 . S
H50 C21 0.947 . S
H51 C22 0.948 . S
H52 C28 0.982 . S
H53 C28 0.979 . S
H54 C28 0.977 . S
H55 C29 0.979 . S
H56 C29 0.980 . S
H57 C29 0.983 . S
H58 C2 0.947 . S
C59 C2 1.392 . S
C59 C3 1.419 . S
C59 H41 0.948 . S
C60 C61 1.391 . S
C60 C64 1.391 . S
C60 H102 0.948 . S
C61 C60 1.391 . S
C61 C62 1.391 . S
C62 C61 1.391 . S
C62 H118 0.947 . S
C62 C119 1.392 . S
C63 C64 1.391 . S
C63 C67 1.397 1_545 S
C63 C119 1.419 . S
C64 C60 1.391 . S
C64 C63 1.391 . S
C64 C65 1.399 . S
C65 C64 1.399 . S
C65 C68 1.396 1_545 S
C65 C77 1.453 1_545 S
C65 C78 1.684 . S
H66 C90 0.948 . S
C67 C63 1.397 1_565 S
C67 C68 1.394 . S
C67 C86 1.723 . S
C68 C65 1.396 1_565 S
C68 C67 1.394 . S
C68 C98 1.723 . S
H69 C92 0.947 . S
H70 C93 0.948 . S
H71 C99 0.982 . S
H72 C100 0.979 . S
H73 C100 0.980 . S
H74 C100 0.983 . S
H75 C99 0.979 . S
H76 C99 0.977 . S
C77 C65 1.453 1_565 S
C77 H106 0.982 . S
C77 H107 0.979 . S
C77 H108 0.977 . S
C78 C65 1.684 . S
C78 H103 0.979 . S
C78 H104 0.980 . S
C78 H105 0.983 . S
C79 C80 1.391 . S
C79 C84 1.391 . S
C79 H109 0.948 . S
C80 C79 1.391 . S
C80 C81 1.391 . S
C81 C80 1.391 . S
C81 C82 1.392 . S
C81 H110 0.947 . S
C82 C81 1.392 . S
C82 C83 1.419 . S
C82 H111 0.948 . S
C83 C82 1.419 . S
C83 C84 1.391 . S
C83 C87 1.397 1_545 S
C84 C79 1.391 . S
C84 C83 1.391 . S
C84 C85 1.399 . S
C85 C84 1.399 . S
C85 C86 1.396 1_545 S
C85 C88 1.453 1_545 S
C85 C89 1.684 . S
C86 C67 1.723 . S
C86 C85 1.396 1_565 S
C86 C87 1.394 . S
C87 C83 1.397 1_565 S
C87 C86 1.394 . S
C87 C97 1.723 . S
C88 C85 1.453 1_565 S
C88 H112 0.982 . S
C88 H113 0.979 . S
C88 H114 0.977 . S
C89 C85 1.684 . S
C89 H115 0.979 . S
C89 H116 0.980 . S
C89 H117 0.983 . S
C90 H66 0.948 . S
C90 C91 1.391 . S
C90 C95 1.391 . S
C91 C90 1.391 . S
C91 C92 1.391 . S
C92 H69 0.947 . S
C92 C91 1.391 . S
C92 C93 1.392 . S
C93 H70 0.948 . S
C93 C92 1.392 . S
C93 C94 1.419 . S
C94 C93 1.419 . S
C94 C95 1.391 . S
C94 C98 1.397 1_545 S
C95 C90 1.391 . S
C95 C94 1.391 . S
C95 C96 1.399 . S
C96 C95 1.399 . S
C96 C97 1.396 1_545 S
C96 C99 1.453 1_545 S
C96 C100 1.684 . S
C97 C87 1.723 . S
C97 C96 1.396 1_565 S
C97 C98 1.394 . S
C98 C68 1.723 . S
C98 C94 1.397 1_565 S
C98 C97 1.394 . S
C99 H71 0.982 . S
C99 H75 0.979 . S
C99 H76 0.977 . S
C99 C96 1.453 1_565 S
C100 H72 0.979 . S
C100 H73 0.980 . S
C100 H74 0.983 . S
C100 C96 1.684 . S
H101 C119 0.948 . S
H102 C60 0.948 . S
H103 C78 0.979 . S
H104 C78 0.980 . S
H105 C78 0.983 . S
H106 C77 0.982 . S
H107 C77 0.979 . S
H108 C77 0.977 . S
H109 C79 0.948 . S
H110 C81 0.947 . S
H111 C82 0.948 . S
H112 C88 0.982 . S
H113 C88 0.979 . S
H114 C88 0.977 . S
H115 C89 0.979 . S
H116 C89 0.980 . S
H117 C89 0.983 . S
H118 C62 0.947 . S
C119 C62 1.392 . S
C119 C63 1.419 . S
C119 H101 0.948 . S
C120 C121 1.391 . S
C120 C124 1.391 . S
C120 H162 0.948 . S
C121 C120 1.391 . S
C121 C122 1.391 . S
C122 C121 1.391 . S
C122 H178 0.947 . S
C122 C179 1.392 . S
C123 C124 1.391 . S
C123 C127 1.396 1_655 S
C123 C179 1.419 . S
C124 C120 1.391 . S
C124 C123 1.391 . S
C124 C125 1.399 . S
C125 C124 1.399 . S
C125 C128 1.396 1_655 S
C125 C137 1.453 1_655 S
C125 C138 1.684 . S
H126 C150 0.948 . S
C127 C123 1.396 1_455 S
C127 C128 1.395 . S
C127 C146 1.723 . S
C128 C125 1.396 1_455 S
C128 C127 1.395 . S
C128 C158 1.723 . S
H129 C152 0.947 . S
H130 C153 0.948 . S
H131 C159 0.982 . S
H132 C160 0.979 . S
H133 C160 0.980 . S
H134 C160 0.983 . S
H135 C159 0.979 . S
H136 C159 0.977 . S
C137 C125 1.453 1_455 S
C137 H166 0.982 . S
C137 H167 0.979 . S
C137 H168 0.977 . S
C138 C125 1.684 . S
C138 H163 0.979 . S
C138 H164 0.980 . S
C138 H165 0.983 . S
C139 C140 1.391 . S
C139 C144 1.391 . S
C139 H169 0.948 . S
C140 C139 1.391 . S
C140 C141 1.391 . S
C141 C140 1.391 . S
C141 C142 1.392 . S
C141 H170 0.947 . S
C142 C141 1.392 . S
C142 C143 1.419 . S
C142 H171 0.948 . S
C143 C142 1.419 . S
C143 C144 1.391 . S
C143 C147 1.396 1_655 S
C144 C139 1.391 . S
C144 C143 1.391 . S
C144 C145 1.399 . S
C145 C144 1.399 . S
C145 C146 1.396 1_655 S
C145 C148 1.453 1_655 S
C145 C149 1.684 . S
C146 C127 1.723 . S
C146 C145 1.396 1_455 S
C146 C147 1.395 . S
C147 C143 1.396 1_455 S
C147 C146 1.395 . S
C147 C157 1.723 . S
C148 C145 1.453 1_455 S
C148 H172 0.982 . S
C148 H173 0.979 . S
C148 H174 0.977 . S
C149 C145 1.684 . S
C149 H175 0.979 . S
C149 H176 0.980 . S
C149 H177 0.983 . S
C150 H126 0.948 . S
C150 C151 1.391 . S
C150 C155 1.391 . S
C151 C150 1.391 . S
C151 C152 1.391 . S
C152 H129 0.947 . S
C152 C151 1.391 . S
C152 C153 1.392 . S
C153 H130 0.948 . S
C153 C152 1.392 . S
C153 C154 1.419 . S
C154 C153 1.419 . S
C154 C155 1.391 . S
C154 C158 1.396 1_655 S
C155 C150 1.391 . S
C155 C154 1.391 . S
C155 C156 1.399 . S
C156 C155 1.399 . S
C156 C157 1.396 1_655 S
C156 C159 1.453 1_655 S
C156 C160 1.684 . S
C157 C147 1.723 . S
C157 C156 1.396 1_455 S
C157 C158 1.395 . S
C158 C128 1.723 . S
C158 C154 1.396 1_455 S
C158 C157 1.395 . S
C159 H131 0.982 . S
C159 H135 0.979 . S
C159 H136 0.977 . S
C159 C156 1.453 1_455 S
C160 H132 0.979 . S
C160 H133 0.980 . S
C160 H134 0.983 . S
C160 C156 1.684 . S
H161 C179 0.948 . S
H162 C120 0.948 . S
H163 C138 0.979 . S
H164 C138 0.980 . S
H165 C138 0.983 . S
H166 C137 0.982 . S
H167 C137 0.979 . S
H168 C137 0.977 . S
H169 C139 0.948 . S
H170 C141 0.947 . S
H171 C142 0.948 . S
H172 C148 0.982 . S
H173 C148 0.979 . S
H174 C148 0.977 . S
H175 C149 0.979 . S
H176 C149 0.980 . S
H177 C149 0.983 . S
H178 C122 0.947 . S
C179 C122 1.392 . S
C179 C123 1.419 . S
C179 H161 0.948 . S
C180 C181 1.391 . S
C180 C184 1.391 . S
C180 H222 0.948 . S
C181 C180 1.391 . S
C181 C182 1.391 . S
C182 C181 1.391 . S
C182 H238 0.947 . S
C182 C239 1.392 . S
C183 C184 1.391 . S
C183 C187 1.397 1_545 S
C183 C239 1.419 . S
C184 C180 1.391 . S
C184 C183 1.391 . S
C184 C185 1.399 . S
C185 C184 1.399 . S
C185 C188 1.396 1_545 S
C185 C197 1.453 1_545 S
C185 C198 1.684 . S
H186 C210 0.948 . S
C187 C183 1.397 1_565 S
C187 C188 1.394 . S
C187 C206 1.723 . S
C188 C185 1.396 1_565 S
C188 C187 1.394 . S
C188 C218 1.723 . S
H189 C212 0.947 . S
H190 C213 0.948 . S
H191 C219 0.982 . S
H192 C220 0.979 . S
H193 C220 0.980 . S
H194 C220 0.983 . S
H195 C219 0.979 . S
H196 C219 0.977 . S
C197 C185 1.453 1_565 S
C197 H226 0.982 . S
C197 H227 0.979 . S
C197 H228 0.977 . S
C198 C185 1.684 . S
C198 H223 0.979 . S
C198 H224 0.980 . S
C198 H225 0.983 . S
C199 C200 1.391 . S
C199 C204 1.391 . S
C199 H229 0.948 . S
C200 C199 1.391 . S
C200 C201 1.391 . S
C201 C200 1.391 . S
C201 C202 1.392 . S
C201 H230 0.947 . S
C202 C201 1.392 . S
C202 C203 1.419 . S
C202 H231 0.948 . S
C203 C202 1.419 . S
C203 C204 1.391 . S
C203 C207 1.397 1_545 S
C204 C199 1.391 . S
C204 C203 1.391 . S
C204 C205 1.399 . S
C205 C204 1.399 . S
C205 C206 1.396 1_545 S
C205 C208 1.453 1_545 S
C205 C209 1.684 . S
C206 C187 1.723 . S
C206 C205 1.396 1_565 S
C206 C207 1.394 . S
C207 C203 1.397 1_565 S
C207 C206 1.394 . S
C207 C217 1.723 . S
C208 C205 1.453 1_565 S
C208 H232 0.982 . S
C208 H233 0.979 . S
C208 H234 0.977 . S
C209 C205 1.684 . S
C209 H235 0.979 . S
C209 H236 0.980 . S
C209 H237 0.983 . S
C210 H186 0.948 . S
C210 C211 1.391 . S
C210 C215 1.391 . S
C211 C210 1.391 . S
C211 C212 1.391 . S
C212 H189 0.947 . S
C212 C211 1.391 . S
C212 C213 1.392 . S
C213 H190 0.948 . S
C213 C212 1.392 . S
C213 C214 1.419 . S
C214 C213 1.419 . S
C214 C215 1.391 . S
C214 C218 1.397 1_545 S
C215 C210 1.391 . S
C215 C214 1.391 . S
C215 C216 1.399 . S
C216 C215 1.399 . S
C216 C217 1.396 1_545 S
C216 C219 1.453 1_545 S
C216 C220 1.684 . S
C217 C207 1.723 . S
C217 C216 1.396 1_565 S
C217 C218 1.394 . S
C218 C188 1.723 . S
C218 C214 1.397 1_565 S
C218 C217 1.394 . S
C219 H191 0.982 . S
C219 H195 0.979 . S
C219 H196 0.977 . S
C219 C216 1.453 1_565 S
C220 H192 0.979 . S
C220 H193 0.980 . S
C220 H194 0.983 . S
C220 C216 1.684 . S
H221 C239 0.948 . S
H222 C180 0.948 . S
H223 C198 0.979 . S
H224 C198 0.980 . S
H225 C198 0.983 . S
H226 C197 0.982 . S
H227 C197 0.979 . S
H228 C197 0.977 . S
H229 C199 0.948 . S
H230 C201 0.947 . S
H231 C202 0.948 . S
H232 C208 0.982 . S
H233 C208 0.979 . S
H234 C208 0.977 . S
H235 C209 0.979 . S
H236 C209 0.980 . S
H237 C209 0.983 . S
H238 C182 0.947 . S
C239 C182 1.392 . S
C239 C183 1.419 . S
C239 H221 0.948 . S
C240 C241 1.391 . S
C240 C244 1.391 . S
C240 H282 0.948 . S
C241 C240 1.391 . S
C241 C242 1.391 . S
C242 C241 1.391 . S
C242 H298 0.947 . S
C242 C299 1.392 . S
C243 C244 1.391 . S
C243 C247 1.396 1_655 S
C243 C299 1.419 . S
C244 C240 1.391 . S
C244 C243 1.391 . S
C244 C245 1.399 . S
C245 C244 1.399 . S
C245 C248 1.396 1_655 S
C245 C257 1.453 1_655 S
C245 C258 1.684 . S
H246 C270 0.948 . S
C247 C243 1.396 1_455 S
C247 C248 1.395 . S
C247 C266 1.723 . S
C248 C245 1.396 1_455 S
C248 C247 1.395 . S
C248 C278 1.723 . S
H249 C272 0.947 . S
H250 C273 0.948 . S
H251 C279 0.982 . S
H252 C280 0.979 . S
H253 C280 0.980 . S
H254 C280 0.983 . S
H255 C279 0.979 . S
H256 C279 0.977 . S
C257 C245 1.453 1_455 S
C257 H286 0.982 . S
C257 H287 0.979 . S
C257 H288 0.977 . S
C258 C245 1.684 . S
C258 H283 0.979 . S
C258 H284 0.980 . S
C258 H285 0.983 . S
C259 C260 1.391 . S
C259 C264 1.391 . S
C259 H289 0.948 . S
C260 C259 1.391 . S
C260 C261 1.391 . S
C261 C260 1.391 . S
C261 C262 1.392 . S
C261 H290 0.947 . S
C262 C261 1.392 . S
C262 C263 1.419 . S
C262 H291 0.948 . S
C263 C262 1.419 . S
C263 C264 1.391 . S
C263 C267 1.396 1_655 S
C264 C259 1.391 . S
C264 C263 1.391 . S
C264 C265 1.399 . S
C265 C264 1.399 . S
C265 C266 1.396 1_655 S
C265 C268 1.453 1_655 S
C265 C269 1.684 . S
C266 C247 1.723 . S
C266 C265 1.396 1_455 S
C266 C267 1.395 . S
C267 C263 1.396 1_455 S
C267 C266 1.395 . S
C267 C277 1.723 . S
C268 C265 1.453 1_455 S
C268 H292 0.982 . S
C268 H293 0.979 . S
C268 H294 0.977 . S
C269 C265 1.684 . S
C269 H295 0.979 . S
C269 H296 0.980 . S
C269 H297 0.983 . S
C270 H246 0.948 . S
C270 C271 1.391 . S
C270 C275 1.391 . S
C271 C270 1.391 . S
C271 C272 1.391 . S
C272 H249 0.947 . S
C272 C271 1.391 . S
C272 C273 1.392 . S
C273 H250 0.948 . S
C273 C272 1.392 . S
C273 C274 1.419 . S
C274 C273 1.419 . S
C274 C275 1.391 . S
C274 C278 1.396 1_655 S
C275 C270 1.391 . S
C275 C274 1.391 . S
C275 C276 1.399 . S
C276 C275 1.399 . S
C276 C277 1.396 1_655 S
C276 C279 1.453 1_655 S
C276 C280 1.684 . S
C277 C267 1.723 . S
C277 C276 1.396 1_455 S
C277 C278 1.395 . S
C278 C248 1.723 . S
C278 C274 1.396 1_455 S
C278 C277 1.395 . S
C279 H251 0.982 . S
C279 H255 0.979 . S
C279 H256 0.977 . S
C279 C276 1.453 1_455 S
C280 H252 0.979 . S
C280 H253 0.980 . S
C280 H254 0.983 . S
C280 C276 1.684 . S
H281 C299 0.948 . S
H282 C240 0.948 . S
H283 C258 0.979 . S
H284 C258 0.980 . S
H285 C258 0.983 . S
H286 C257 0.982 . S
H287 C257 0.979 . S
H288 C257 0.977 . S
H289 C259 0.948 . S
H290 C261 0.947 . S
H291 C262 0.948 . S
H292 C268 0.982 . S
H293 C268 0.979 . S
H294 C268 0.977 . S
H295 C269 0.979 . S
H296 C269 0.980 . S
H297 C269 0.983 . S
H298 C242 0.947 . S
C299 C242 1.392 . S
C299 C243 1.419 . S
C299 H281 0.948 . S
C300 C301 1.391 . S
C300 C304 1.391 . S
C300 H342 0.948 . S
C301 C300 1.391 . S
C301 C302 1.391 . S
C302 C301 1.391 . S
C302 H358 0.947 . S
C302 C359 1.392 . S
C303 C304 1.391 . S
C303 C307 1.396 1_565 S
C303 C359 1.419 . S
C304 C300 1.391 . S
C304 C303 1.391 . S
C304 C305 1.399 . S
C305 C304 1.399 . S
C305 C308 1.396 1_565 S
C305 C317 1.453 1_565 S
C305 C318 1.684 . S
H306 C330 0.948 . S
C307 C303 1.396 1_545 S
C307 C308 1.395 . S
C307 C326 1.723 . S
C308 C305 1.396 1_545 S
C308 C307 1.395 . S
C308 C338 1.723 . S
H309 C332 0.947 . S
H310 C333 0.948 . S
H311 C339 0.982 . S
H312 C340 0.979 . S
H313 C340 0.980 . S
H314 C340 0.983 . S
H315 C339 0.979 . S
H316 C339 0.977 . S
C317 C305 1.453 1_545 S
C317 H346 0.982 . S
C317 H347 0.979 . S
C317 H348 0.977 . S
C318 C305 1.684 . S
C318 H343 0.979 . S
C318 H344 0.980 . S
C318 H345 0.983 . S
C319 C320 1.391 . S
C319 C324 1.391 . S
C319 H349 0.948 . S
C320 C319 1.391 . S
C320 C321 1.391 . S
C321 C320 1.391 . S
C321 C322 1.392 . S
C321 H350 0.947 . S
C322 C321 1.392 . S
C322 C323 1.419 . S
C322 H351 0.948 . S
C323 C322 1.419 . S
C323 C324 1.391 . S
C323 C327 1.396 1_565 S
C324 C319 1.391 . S
C324 C323 1.391 . S
C324 C325 1.399 . S
C325 C324 1.399 . S
C325 C326 1.396 1_565 S
C325 C328 1.453 1_565 S
C325 C329 1.684 . S
C326 C307 1.723 . S
C326 C325 1.396 1_545 S
C326 C327 1.395 . S
C327 C323 1.396 1_545 S
C327 C326 1.395 . S
C327 C337 1.723 . S
C328 C325 1.453 1_545 S
C328 H352 0.982 . S
C328 H353 0.979 . S
C328 H354 0.977 . S
C329 C325 1.684 . S
C329 H355 0.979 . S
C329 H356 0.980 . S
C329 H357 0.983 . S
C330 H306 0.948 . S
C330 C331 1.391 . S
C330 C335 1.391 . S
C331 C330 1.391 . S
C331 C332 1.391 . S
C332 H309 0.947 . S
C332 C331 1.391 . S
C332 C333 1.392 . S
C333 H310 0.948 . S
C333 C332 1.392 . S
C333 C334 1.419 . S
C334 C333 1.419 . S
C334 C335 1.391 . S
C334 C338 1.396 1_565 S
C335 C330 1.391 . S
C335 C334 1.391 . S
C335 C336 1.399 . S
C336 C335 1.399 . S
C336 C337 1.396 1_565 S
C336 C339 1.453 1_565 S
C336 C340 1.684 . S
C337 C327 1.723 . S
C337 C336 1.396 1_545 S
C337 C338 1.395 . S
C338 C308 1.723 . S
C338 C334 1.396 1_545 S
C338 C337 1.395 . S
C339 H311 0.982 . S
C339 H315 0.979 . S
C339 H316 0.977 . S
C339 C336 1.453 1_545 S
C340 H312 0.979 . S
C340 H313 0.980 . S
C340 H314 0.983 . S
C340 C336 1.684 . S
H341 C359 0.948 . S
H342 C300 0.948 . S
H343 C318 0.979 . S
H344 C318 0.980 . S
H345 C318 0.983 . S
H346 C317 0.982 . S
H347 C317 0.979 . S
H348 C317 0.977 . S
H349 C319 0.948 . S
H350 C321 0.947 . S
H351 C322 0.948 . S
H352 C328 0.982 . S
H353 C328 0.979 . S
H354 C328 0.977 . S
H355 C329 0.979 . S
H356 C329 0.980 . S
H357 C329 0.983 . S
H358 C302 0.947 . S
C359 C302 1.392 . S
C359 C303 1.419 . S
C359 H341 0.948 . S
C360 C361 1.391 . S
C360 C364 1.391 . S
C360 H402 0.948 . S
C361 C360 1.391 . S
C361 C362 1.391 . S
C362 C361 1.391 . S
C362 H418 0.947 . S
C362 C419 1.392 . S
C363 C364 1.391 . S
C363 C367 1.396 1_655 S
C363 C419 1.419 . S
C364 C360 1.391 . S
C364 C363 1.391 . S
C364 C365 1.399 . S
C365 C364 1.399 . S
C365 C368 1.396 1_655 S
C365 C377 1.453 1_655 S
C365 C378 1.684 . S
H366 C390 0.948 . S
C367 C363 1.396 1_455 S
C367 C368 1.395 . S
C367 C386 1.723 . S
C368 C365 1.396 1_455 S
C368 C367 1.395 . S
C368 C398 1.723 . S
H369 C392 0.947 . S
H370 C393 0.948 . S
H371 C399 0.982 . S
H372 C400 0.979 . S
H373 C400 0.980 . S
H374 C400 0.983 . S
H375 C399 0.979 . S
H376 C399 0.977 . S
C377 C365 1.453 1_455 S
C377 H406 0.982 . S
C377 H407 0.979 . S
C377 H408 0.977 . S
C378 C365 1.684 . S
C378 H403 0.979 . S
C378 H404 0.980 . S
C378 H405 0.983 . S
C379 C380 1.391 . S
C379 C384 1.391 . S
C379 H409 0.948 . S
C380 C379 1.391 . S
C380 C381 1.391 . S
C381 C380 1.391 . S
C381 C382 1.392 . S
C381 H410 0.947 . S
C382 C381 1.392 . S
C382 C383 1.419 . S
C382 H411 0.948 . S
C383 C382 1.419 . S
C383 C384 1.391 . S
C383 C387 1.396 1_655 S
C384 C379 1.391 . S
C384 C383 1.391 . S
C384 C385 1.399 . S
C385 C384 1.399 . S
C385 C386 1.396 1_655 S
C385 C388 1.453 1_655 S
C385 C389 1.684 . S
C386 C367 1.723 . S
C386 C385 1.396 1_455 S
C386 C387 1.395 . S
C387 C383 1.396 1_455 S
C387 C386 1.395 . S
C387 C397 1.723 . S
C388 C385 1.453 1_455 S
C388 H412 0.982 . S
C388 H413 0.979 . S
C388 H414 0.977 . S
C389 C385 1.684 . S
C389 H415 0.979 . S
C389 H416 0.980 . S
C389 H417 0.983 . S
C390 H366 0.948 . S
C390 C391 1.391 . S
C390 C395 1.391 . S
C391 C390 1.391 . S
C391 C392 1.391 . S
C392 H369 0.947 . S
C392 C391 1.391 . S
C392 C393 1.392 . S
C393 H370 0.948 . S
C393 C392 1.392 . S
C393 C394 1.419 . S
C394 C393 1.419 . S
C394 C395 1.391 . S
C394 C398 1.396 1_655 S
C395 C390 1.391 . S
C395 C394 1.391 . S
C395 C396 1.399 . S
C396 C395 1.399 . S
C396 C397 1.396 1_655 S
C396 C399 1.453 1_655 S
C396 C400 1.684 . S
C397 C387 1.723 . S
C397 C396 1.396 1_455 S
C397 C398 1.395 . S
C398 C368 1.723 . S
C398 C394 1.396 1_455 S
C398 C397 1.395 . S
C399 H371 0.982 . S
C399 H375 0.979 . S
C399 H376 0.977 . S
C399 C396 1.453 1_455 S
C400 H372 0.979 . S
C400 H373 0.980 . S
C400 H374 0.983 . S
C400 C396 1.684 . S
H401 C419 0.948 . S
H402 C360 0.948 . S
H403 C378 0.979 . S
H404 C378 0.980 . S
H405 C378 0.983 . S
H406 C377 0.982 . S
H407 C377 0.979 . S
H408 C377 0.977 . S
H409 C379 0.948 . S
H410 C381 0.947 . S
H411 C382 0.948 . S
H412 C388 0.982 . S
H413 C388 0.979 . S
H414 C388 0.977 . S
H415 C389 0.979 . S
H416 C389 0.980 . S
H417 C389 0.983 . S
H418 C362 0.947 . S
C419 C362 1.392 . S
C419 C363 1.419 . S
C419 H401 0.948 . S
C420 C421 1.391 . S
C420 C424 1.391 . S
C420 H462 0.948 . S
C421 C420 1.391 . S
C421 C422 1.391 . S
C422 C421 1.391 . S
C422 H478 0.947 . S
C422 C479 1.392 . S
C423 C424 1.391 . S
C423 C427 1.396 1_565 S
C423 C479 1.419 . S
C424 C420 1.391 . S
C424 C423 1.391 . S
C424 C425 1.399 . S
C425 C424 1.399 . S
C425 C428 1.396 1_565 S
C425 C437 1.453 1_565 S
C425 C438 1.684 . S
H426 C450 0.948 . S
C427 C423 1.396 1_545 S
C427 C428 1.395 . S
C427 C446 1.723 . S
C428 C425 1.396 1_545 S
C428 C427 1.395 . S
C428 C458 1.723 . S
H429 C452 0.947 . S
H430 C453 0.948 . S
H431 C459 0.982 . S
H432 C460 0.979 . S
H433 C460 0.980 . S
H434 C460 0.983 . S
H435 C459 0.979 . S
H436 C459 0.977 . S
C437 C425 1.453 1_545 S
C437 H466 0.982 . S
C437 H467 0.979 . S
C437 H468 0.977 . S
C438 C425 1.684 . S
C438 H463 0.979 . S
C438 H464 0.980 . S
C438 H465 0.983 . S
C439 C440 1.391 . S
C439 C444 1.391 . S
C439 H469 0.948 . S
C440 C439 1.391 . S
C440 C441 1.391 . S
C441 C440 1.391 . S
C441 C442 1.392 . S
C441 H470 0.947 . S
C442 C441 1.392 . S
C442 C443 1.419 . S
C442 H471 0.948 . S
C443 C442 1.419 . S
C443 C444 1.391 . S
C443 C447 1.396 1_565 S
C444 C439 1.391 . S
C444 C443 1.391 . S
C444 C445 1.399 . S
C445 C444 1.399 . S
C445 C446 1.396 1_565 S
C445 C448 1.453 1_565 S
C445 C449 1.684 . S
C446 C427 1.723 . S
C446 C445 1.396 1_545 S
C446 C447 1.395 . S
C447 C443 1.396 1_545 S
C447 C446 1.395 . S
C447 C457 1.723 . S
C448 C445 1.453 1_545 S
C448 H472 0.982 . S
C448 H473 0.979 . S
C448 H474 0.977 . S
C449 C445 1.684 . S
C449 H475 0.979 . S
C449 H476 0.980 . S
C449 H477 0.983 . S
C450 H426 0.948 . S
C450 C451 1.391 . S
C450 C455 1.391 . S
C451 C450 1.391 . S
C451 C452 1.391 . S
C452 H429 0.947 . S
C452 C451 1.391 . S
C452 C453 1.392 . S
C453 H430 0.948 . S
C453 C452 1.392 . S
C453 C454 1.419 . S
C454 C453 1.419 . S
C454 C455 1.391 . S
C454 C458 1.396 1_565 S
C455 C450 1.391 . S
C455 C454 1.391 . S
C455 C456 1.399 . S
C456 C455 1.399 . S
C456 C457 1.396 1_565 S
C456 C459 1.453 1_565 S
C456 C460 1.684 . S
C457 C447 1.723 . S
C457 C456 1.396 1_545 S
C457 C458 1.395 . S
C458 C428 1.723 . S
C458 C454 1.396 1_545 S
C458 C457 1.395 . S
C459 H431 0.982 . S
C459 H435 0.979 . S
C459 H436 0.977 . S
C459 C456 1.453 1_545 S
C460 H432 0.979 . S
C460 H433 0.980 . S
C460 H434 0.983 . S
C460 C456 1.684 . S
H461 C479 0.948 . S
H462 C420 0.948 . S
H463 C438 0.979 . S
H464 C438 0.980 . S
H465 C438 0.983 . S
H466 C437 0.982 . S
H467 C437 0.979 . S
H468 C437 0.977 . S
H469 C439 0.948 . S
H470 C441 0.947 . S
H471 C442 0.948 . S
H472 C448 0.982 . S
H473 C448 0.979 . S
H474 C448 0.977 . S
H475 C449 0.979 . S
H476 C449 0.980 . S
H477 C449 0.983 . S
H478 C422 0.947 . S
C479 C422 1.392 . S
C479 C423 1.419 . S
C479 H461 0.948 . S
C480 C481 1.391 . S
C480 C484 1.391 . S
C480 H522 0.948 . S
C481 C480 1.391 . S
C481 C482 1.391 . S
C482 C481 1.391 . S
C482 H538 0.947 . S
C482 C539 1.392 . S
C483 C484 1.391 . S
C483 C487 1.396 1_556 S
C483 C539 1.419 . S
C484 C480 1.391 . S
C484 C483 1.391 . S
C484 C485 1.399 . S
C485 C484 1.399 . S
C485 C488 1.396 1_556 S
C485 C497 1.453 1_556 S
C485 C498 1.684 . S
H486 C510 0.948 . S
C487 C483 1.396 1_554 S
C487 C488 1.395 . S
C487 C506 1.723 . S
C488 C485 1.396 1_554 S
C488 C487 1.395 . S
C488 C518 1.723 . S
H489 C512 0.947 . S
H490 C513 0.948 . S
H491 C519 0.982 . S
H492 C520 0.979 . S
H493 C520 0.980 . S
H494 C520 0.983 . S
H495 C519 0.979 . S
H496 C519 0.977 . S
C497 C485 1.453 1_554 S
C497 H526 0.982 . S
C497 H527 0.979 . S
C497 H528 0.977 . S
C498 C485 1.684 . S
C498 H523 0.979 . S
C498 H524 0.980 . S
C498 H525 0.983 . S
C499 C500 1.391 . S
C499 C504 1.391 . S
C499 H529 0.948 . S
C500 C499 1.391 . S
C500 C501 1.391 . S
C501 C500 1.391 . S
C501 C502 1.392 . S
C501 H530 0.947 . S
C502 C501 1.392 . S
C502 C503 1.419 . S
C502 H531 0.948 . S
C503 C502 1.419 . S
C503 C504 1.391 . S
C503 C507 1.396 1_556 S
C504 C499 1.391 . S
C504 C503 1.391 . S
C504 C505 1.399 . S
C505 C504 1.399 . S
C505 C506 1.396 1_556 S
C505 C508 1.453 1_556 S
C505 C509 1.684 . S
C506 C487 1.723 . S
C506 C505 1.396 1_554 S
C506 C507 1.395 . S
C507 C503 1.396 1_554 S
C507 C506 1.395 . S
C507 C517 1.723 . S
C508 C505 1.453 1_554 S
C508 H532 0.982 . S
C508 H533 0.979 . S
C508 H534 0.977 . S
C509 C505 1.684 . S
C509 H535 0.979 . S
C509 H536 0.980 . S
C509 H537 0.983 . S
C510 H486 0.948 . S
C510 C511 1.391 . S
C510 C515 1.391 . S
C511 C510 1.391 . S
C511 C512 1.391 . S
C512 H489 0.947 . S
C512 C511 1.391 . S
C512 C513 1.392 . S
C513 H490 0.948 . S
C513 C512 1.392 . S
C513 C514 1.419 . S
C514 C513 1.419 . S
C514 C515 1.391 . S
C514 C518 1.396 1_556 S
C515 C510 1.391 . S
C515 C514 1.391 . S
C515 C516 1.399 . S
C516 C515 1.399 . S
C516 C517 1.396 1_556 S
C516 C519 1.453 1_556 S
C516 C520 1.684 . S
C517 C507 1.723 . S
C517 C516 1.396 1_554 S
C517 C518 1.395 . S
C518 C488 1.723 . S
C518 C514 1.396 1_554 S
C518 C517 1.395 . S
C519 H491 0.982 . S
C519 H495 0.979 . S
C519 H496 0.977 . S
C519 C516 1.453 1_554 S
C520 H492 0.979 . S
C520 H493 0.980 . S
C520 H494 0.983 . S
C520 C516 1.684 . S
H521 C539 0.948 . S
H522 C480 0.948 . S
H523 C498 0.979 . S
H524 C498 0.980 . S
H525 C498 0.983 . S
H526 C497 0.982 . S
H527 C497 0.979 . S
H528 C497 0.977 . S
H529 C499 0.948 . S
H530 C501 0.947 . S
H531 C502 0.948 . S
H532 C508 0.982 . S
H533 C508 0.979 . S
H534 C508 0.977 . S
H535 C509 0.979 . S
H536 C509 0.980 . S
H537 C509 0.983 . S
H538 C482 0.947 . S
C539 C482 1.392 . S
C539 C483 1.419 . S
C539 H521 0.948 . S
C540 C541 1.391 . S
C540 C544 1.391 . S
C540 H582 0.948 . S
C541 C540 1.391 . S
C541 C542 1.391 . S
C542 C541 1.391 . S
C542 H598 0.947 . S
C542 C599 1.392 . S
C543 C544 1.391 . S
C543 C547 1.397 1_554 S
C543 C599 1.419 . S
C544 C540 1.391 . S
C544 C543 1.391 . S
C544 C545 1.399 . S
C545 C544 1.399 . S
C545 C548 1.396 1_554 S
C545 C557 1.453 1_554 S
C545 C558 1.684 . S
H546 C570 0.948 . S
C547 C543 1.397 1_556 S
C547 C548 1.394 . S
C547 C566 1.723 . S
C548 C545 1.396 1_556 S
C548 C547 1.394 . S
C548 C578 1.723 . S
H549 C572 0.947 . S
H550 C573 0.948 . S
H551 C579 0.982 . S
H552 C580 0.979 . S
H553 C580 0.980 . S
H554 C580 0.983 . S
H555 C579 0.979 . S
H556 C579 0.977 . S
C557 C545 1.453 1_556 S
C557 H586 0.982 . S
C557 H587 0.979 . S
C557 H588 0.977 . S
C558 C545 1.684 . S
C558 H583 0.979 . S
C558 H584 0.980 . S
C558 H585 0.983 . S
C559 C560 1.391 . S
C559 C564 1.391 . S
C559 H589 0.948 . S
C560 C559 1.391 . S
C560 C561 1.391 . S
C561 C560 1.391 . S
C561 C562 1.392 . S
C561 H590 0.947 . S
C562 C561 1.392 . S
C562 C563 1.419 . S
C562 H591 0.948 . S
C563 C562 1.419 . S
C563 C564 1.391 . S
C563 C567 1.397 1_554 S
C564 C559 1.391 . S
C564 C563 1.391 . S
C564 C565 1.399 . S
C565 C564 1.399 . S
C565 C566 1.396 1_554 S
C565 C568 1.453 1_554 S
C565 C569 1.684 . S
C566 C547 1.723 . S
C566 C565 1.396 1_556 S
C566 C567 1.394 . S
C567 C563 1.397 1_556 S
C567 C566 1.394 . S
C567 C577 1.723 . S
C568 C565 1.453 1_556 S
C568 H592 0.982 . S
C568 H593 0.979 . S
C568 H594 0.977 . S
C569 C565 1.684 . S
C569 H595 0.979 . S
C569 H596 0.980 . S
C569 H597 0.983 . S
C570 H546 0.948 . S
C570 C571 1.391 . S
C570 C575 1.391 . S
C571 C570 1.391 . S
C571 C572 1.391 . S
C572 H549 0.947 . S
C572 C571 1.391 . S
C572 C573 1.392 . S
C573 H550 0.948 . S
C573 C572 1.392 . S
C573 C574 1.419 . S
C574 C573 1.419 . S
C574 C575 1.391 . S
C574 C578 1.397 1_554 S
C575 C570 1.391 . S
C575 C574 1.391 . S
C575 C576 1.399 . S
C576 C575 1.399 . S
C576 C577 1.396 1_554 S
C576 C579 1.453 1_554 S
C576 C580 1.684 . S
C577 C567 1.723 . S
C577 C576 1.396 1_556 S
C577 C578 1.394 . S
C578 C548 1.723 . S
C578 C574 1.397 1_556 S
C578 C577 1.394 . S
C579 H551 0.982 . S
C579 H555 0.979 . S
C579 H556 0.977 . S
C579 C576 1.453 1_556 S
C580 H552 0.979 . S
C580 H553 0.980 . S
C580 H554 0.983 . S
C580 C576 1.684 . S
H581 C599 0.948 . S
H582 C540 0.948 . S
H583 C558 0.979 . S
H584 C558 0.980 . S
H585 C558 0.983 . S
H586 C557 0.982 . S
H587 C557 0.979 . S
H588 C557 0.977 . S
H589 C559 0.948 . S
H590 C561 0.947 . S
H591 C562 0.948 . S
H592 C568 0.982 . S
H593 C568 0.979 . S
H594 C568 0.977 . S
H595 C569 0.979 . S
H596 C569 0.980 . S
H597 C569 0.983 . S
H598 C542 0.947 . S
C599 C542 1.392 . S
C599 C543 1.419 . S
C599 H581 0.948 . S
C600 C601 1.391 . S
C600 C604 1.391 . S
C600 H642 0.948 . S
C601 C600 1.391 . S
C601 C602 1.391 . S
C602 C601 1.391 . S
C602 H658 0.947 . S
C602 C659 1.392 . S
C603 C604 1.391 . S
C603 C607 1.396 1_556 S
C603 C659 1.419 . S
C604 C600 1.391 . S
C604 C603 1.391 . S
C604 C605 1.399 . S
C605 C604 1.399 . S
C605 C608 1.396 1_556 S
C605 C617 1.453 1_556 S
C605 C618 1.684 . S
H606 C630 0.948 . S
C607 C603 1.396 1_554 S
C607 C608 1.395 . S
C607 C626 1.723 . S
C608 C605 1.396 1_554 S
C608 C607 1.395 . S
C608 C638 1.723 . S
H609 C632 0.947 . S
H610 C633 0.948 . S
H611 C639 0.982 . S
H612 C640 0.979 . S
H613 C640 0.980 . S
H614 C640 0.983 . S
H615 C639 0.979 . S
H616 C639 0.977 . S
C617 C605 1.453 1_554 S
C617 H646 0.982 . S
C617 H647 0.979 . S
C617 H648 0.977 . S
C618 C605 1.684 . S
C618 H643 0.979 . S
C618 H644 0.980 . S
C618 H645 0.983 . S
C619 C620 1.391 . S
C619 C624 1.391 . S
C619 H649 0.948 . S
C620 C619 1.391 . S
C620 C621 1.391 . S
C621 C620 1.391 . S
C621 C622 1.392 . S
C621 H650 0.947 . S
C622 C621 1.392 . S
C622 C623 1.419 . S
C622 H651 0.948 . S
C623 C622 1.419 . S
C623 C624 1.391 . S
C623 C627 1.396 1_556 S
C624 C619 1.391 . S
C624 C623 1.391 . S
C624 C625 1.399 . S
C625 C624 1.399 . S
C625 C626 1.396 1_556 S
C625 C628 1.453 1_556 S
C625 C629 1.684 . S
C626 C607 1.723 . S
C626 C625 1.396 1_554 S
C626 C627 1.395 . S
C627 C623 1.396 1_554 S
C627 C626 1.395 . S
C627 C637 1.723 . S
C628 C625 1.453 1_554 S
C628 H652 0.982 . S
C628 H653 0.979 . S
C628 H654 0.977 . S
C629 C625 1.684 . S
C629 H655 0.979 . S
C629 H656 0.980 . S
C629 H657 0.983 . S
C630 H606 0.948 . S
C630 C631 1.391 . S
C630 C635 1.391 . S
C631 C630 1.391 . S
C631 C632 1.391 . S
C632 H609 0.947 . S
C632 C631 1.391 . S
C632 C633 1.392 . S
C633 H610 0.948 . S
C633 C632 1.392 . S
C633 C634 1.419 . S
C634 C633 1.419 . S
C634 C635 1.391 . S
C634 C638 1.396 1_556 S
C635 C630 1.391 . S
C635 C634 1.391 . S
C635 C636 1.399 . S
C636 C635 1.399 . S
C636 C637 1.396 1_556 S
C636 C639 1.453 1_556 S
C636 C640 1.684 . S
C637 C627 1.723 . S
C637 C636 1.396 1_554 S
C637 C638 1.395 . S
C638 C608 1.723 . S
C638 C634 1.396 1_554 S
C638 C637 1.395 . S
C639 H611 0.982 . S
C639 H615 0.979 . S
C639 H616 0.977 . S
C639 C636 1.453 1_554 S
C640 H612 0.979 . S
C640 H613 0.980 . S
C640 H614 0.983 . S
C640 C636 1.684 . S
H641 C659 0.948 . S
H642 C600 0.948 . S
H643 C618 0.979 . S
H644 C618 0.980 . S
H645 C618 0.983 . S
H646 C617 0.982 . S
H647 C617 0.979 . S
H648 C617 0.977 . S
H649 C619 0.948 . S
H650 C621 0.947 . S
H651 C622 0.948 . S
H652 C628 0.982 . S
H653 C628 0.979 . S
H654 C628 0.977 . S
H655 C629 0.979 . S
H656 C629 0.980 . S
H657 C629 0.983 . S
H658 C602 0.947 . S
C659 C602 1.392 . S
C659 C603 1.419 . S
C659 H641 0.948 . S
C660 C661 1.391 . S
C660 C664 1.391 . S
C660 H702 0.948 . S
C661 C660 1.391 . S
C661 C662 1.391 . S
C662 C661 1.391 . S
C662 H718 0.947 . S
C662 C719 1.392 . S
C663 C664 1.391 . S
C663 C667 1.397 1_554 S
C663 C719 1.419 . S
C664 C660 1.391 . S
C664 C663 1.391 . S
C664 C665 1.399 . S
C665 C664 1.399 . S
C665 C668 1.396 1_554 S
C665 C677 1.453 1_554 S
C665 C678 1.684 . S
H666 C690 0.948 . S
C667 C663 1.397 1_556 S
C667 C668 1.394 . S
C667 C686 1.723 . S
C668 C665 1.396 1_556 S
C668 C667 1.394 . S
C668 C698 1.723 . S
H669 C692 0.947 . S
H670 C693 0.948 . S
H671 C699 0.982 . S
H672 C700 0.979 . S
H673 C700 0.980 . S
H674 C700 0.983 . S
H675 C699 0.979 . S
H676 C699 0.977 . S
C677 C665 1.453 1_556 S
C677 H706 0.982 . S
C677 H707 0.979 . S
C677 H708 0.977 . S
C678 C665 1.684 . S
C678 H703 0.979 . S
C678 H704 0.980 . S
C678 H705 0.983 . S
C679 C680 1.391 . S
C679 C684 1.391 . S
C679 H709 0.948 . S
C680 C679 1.391 . S
C680 C681 1.391 . S
C681 C680 1.391 . S
C681 C682 1.392 . S
C681 H710 0.947 . S
C682 C681 1.392 . S
C682 C683 1.419 . S
C682 H711 0.948 . S
C683 C682 1.419 . S
C683 C684 1.391 . S
C683 C687 1.397 1_554 S
C684 C679 1.391 . S
C684 C683 1.391 . S
C684 C685 1.399 . S
C685 C684 1.399 . S
C685 C686 1.396 1_554 S
C685 C688 1.453 1_554 S
C685 C689 1.684 . S
C686 C667 1.723 . S
C686 C685 1.396 1_556 S
C686 C687 1.394 . S
C687 C683 1.397 1_556 S
C687 C686 1.394 . S
C687 C697 1.723 . S
C688 C685 1.453 1_556 S
C688 H712 0.982 . S
C688 H713 0.979 . S
C688 H714 0.977 . S
C689 C685 1.684 . S
C689 H715 0.979 . S
C689 H716 0.980 . S
C689 H717 0.983 . S
C690 H666 0.948 . S
C690 C691 1.391 . S
C690 C695 1.391 . S
C691 C690 1.391 . S
C691 C692 1.391 . S
C692 H669 0.947 . S
C692 C691 1.391 . S
C692 C693 1.392 . S
C693 H670 0.948 . S
C693 C692 1.392 . S
C693 C694 1.419 . S
C694 C693 1.419 . S
C694 C695 1.391 . S
C694 C698 1.397 1_554 S
C695 C690 1.391 . S
C695 C694 1.391 . S
C695 C696 1.399 . S
C696 C695 1.399 . S
C696 C697 1.396 1_554 S
C696 C699 1.453 1_554 S
C696 C700 1.684 . S
C697 C687 1.723 . S
C697 C696 1.396 1_556 S
C697 C698 1.394 . S
C698 C668 1.723 . S
C698 C694 1.397 1_556 S
C698 C697 1.394 . S
C699 H671 0.982 . S
C699 H675 0.979 . S
C699 H676 0.977 . S
C699 C696 1.453 1_556 S
C700 H672 0.979 . S
C700 H673 0.980 . S
C700 H674 0.983 . S
C700 C696 1.684 . S
H701 C719 0.948 . S
H702 C660 0.948 . S
H703 C678 0.979 . S
H704 C678 0.980 . S
H705 C678 0.983 . S
H706 C677 0.982 . S
H707 C677 0.979 . S
H708 C677 0.977 . S
H709 C679 0.948 . S
H710 C681 0.947 . S
H711 C682 0.948 . S
H712 C688 0.982 . S
H713 C688 0.979 . S
H714 C688 0.977 . S
H715 C689 0.979 . S
H716 C689 0.980 . S
H717 C689 0.983 . S
H718 C662 0.947 . S
C719 C662 1.392 . S
C719 C663 1.419 . S
C719 H701 0.948 . S
C720 C721 1.391 . S
C720 C724 1.391 . S
C720 H762 0.948 . S
C721 C720 1.391 . S
C721 C722 1.391 . S
C722 C721 1.391 . S
C722 H778 0.947 . S
C722 C779 1.392 . S
C723 C724 1.391 . S
C723 C727 1.397 . S
C723 C779 1.419 . S
C724 C720 1.391 . S
C724 C723 1.391 . S
C724 C725 1.399 . S
C725 C724 1.399 . S
C725 C728 1.396 . S
C725 C737 1.453 . S
C725 C738 1.684 . S
H726 C750 0.948 . S
C727 C723 1.397 . S
C727 C728 1.394 . S
C727 C746 1.723 . S
C728 C725 1.396 . S
C728 C727 1.394 . S
C728 C758 1.723 . S
H729 C752 0.947 . S
H730 C753 0.948 . S
H731 C759 0.982 . S
H732 C760 0.979 . S
H733 C760 0.980 . S
H734 C760 0.983 . S
H735 C759 0.979 . S
H736 C759 0.977 . S
C737 C725 1.453 . S
C737 H766 0.982 . S
C737 H767 0.979 . S
C737 H768 0.977 . S
C738 C725 1.684 . S
C738 H763 0.979 . S
C738 H764 0.980 . S
C738 H765 0.983 . S
C739 C740 1.391 . S
C739 C744 1.391 . S
C739 H769 0.948 . S
C740 C739 1.391 . S
C740 C741 1.391 . S
C741 C740 1.391 . S
C741 C742 1.392 . S
C741 H770 0.947 . S
C742 C741 1.392 . S
C742 C743 1.419 . S
C742 H771 0.948 . S
C743 C742 1.419 . S
C743 C744 1.391 . S
C743 C747 1.397 . S
C744 C739 1.391 . S
C744 C743 1.391 . S
C744 C745 1.399 . S
C745 C744 1.399 . S
C745 C746 1.396 . S
C745 C748 1.453 . S
C745 C749 1.684 . S
C746 C727 1.723 . S
C746 C745 1.396 . S
C746 C747 1.394 . S
C747 C743 1.397 . S
C747 C746 1.394 . S
C747 C757 1.723 . S
C748 C745 1.453 . S
C748 H772 0.982 . S
C748 H773 0.979 . S
C748 H774 0.977 . S
C749 C745 1.684 . S
C749 H775 0.979 . S
C749 H776 0.980 . S
C749 H777 0.983 . S
C750 H726 0.948 . S
C750 C751 1.391 . S
C750 C755 1.391 . S
C751 C750 1.391 . S
C751 C752 1.391 . S
C752 H729 0.947 . S
C752 C751 1.391 . S
C752 C753 1.392 . S
C753 H730 0.948 . S
C753 C752 1.392 . S
C753 C754 1.419 . S
C754 C753 1.419 . S
C754 C755 1.391 . S
C754 C758 1.397 . S
C755 C750 1.391 . S
C755 C754 1.391 . S
C755 C756 1.399 . S
C756 C755 1.399 . S
C756 C757 1.396 . S
C756 C759 1.453 . S
C756 C760 1.684 . S
C757 C747 1.723 . S
C757 C756 1.396 . S
C757 C758 1.394 . S
C758 C728 1.723 . S
C758 C754 1.397 . S
C758 C757 1.394 . S
C759 H731 0.982 . S
C759 H735 0.979 . S
C759 H736 0.977 . S
C759 C756 1.453 . S
C760 H732 0.979 . S
C760 H733 0.980 . S
C760 H734 0.983 . S
C760 C756 1.684 . S
H761 C779 0.948 . S
H762 C720 0.948 . S
H763 C738 0.979 . S
H764 C738 0.980 . S
H765 C738 0.983 . S
H766 C737 0.982 . S
H767 C737 0.979 . S
H768 C737 0.977 . S
H769 C739 0.948 . S
H770 C741 0.947 . S
H771 C742 0.948 . S
H772 C748 0.982 . S
H773 C748 0.979 . S
H774 C748 0.977 . S
H775 C749 0.979 . S
H776 C749 0.980 . S
H777 C749 0.983 . S
H778 C722 0.947 . S
C779 C722 1.392 . S
C779 C723 1.419 . S
C779 H761 0.948 . S
C780 C781 1.391 . S
C780 C784 1.391 . S
C780 H822 0.948 . S
C781 C780 1.391 . S
C781 C782 1.391 . S
C782 C781 1.391 . S
C782 H838 0.947 . S
C782 C839 1.392 . S
C783 C784 1.391 . S
C783 C787 1.397 . S
C783 C839 1.419 . S
C784 C780 1.391 . S
C784 C783 1.391 . S
C784 C785 1.399 . S
C785 C784 1.399 . S
C785 C788 1.396 . S
C785 C797 1.453 . S
C785 C798 1.684 . S
H786 C810 0.948 . S
C787 C783 1.397 . S
C787 C788 1.394 . S
C787 C806 1.723 . S
C788 C785 1.396 . S
C788 C787 1.394 . S
C788 C818 1.723 . S
H789 C812 0.947 . S
H790 C813 0.948 . S
H791 C819 0.982 . S
H792 C820 0.979 . S
H793 C820 0.980 . S
H794 C820 0.983 . S
H795 C819 0.979 . S
H796 C819 0.977 . S
C797 C785 1.453 . S
C797 H826 0.982 . S
C797 H827 0.979 . S
C797 H828 0.977 . S
C798 C785 1.684 . S
C798 H823 0.979 . S
C798 H824 0.980 . S
C798 H825 0.983 . S
C799 C800 1.391 . S
C799 C804 1.391 . S
C799 H829 0.948 . S
C800 C799 1.391 . S
C800 C801 1.391 . S
C801 C800 1.391 . S
C801 C802 1.392 . S
C801 H830 0.947 . S
C802 C801 1.392 . S
C802 C803 1.419 . S
C802 H831 0.948 . S
C803 C802 1.419 . S
C803 C804 1.391 . S
C803 C807 1.397 . S
C804 C799 1.391 . S
C804 C803 1.391 . S
C804 C805 1.399 . S
C805 C804 1.399 . S
C805 C806 1.396 . S
C805 C808 1.453 . S
C805 C809 1.684 . S
C806 C787 1.723 . S
C806 C805 1.396 . S
C806 C807 1.394 . S
C807 C803 1.397 . S
C807 C806 1.394 . S
C807 C817 1.723 . S
C808 C805 1.453 . S
C808 H832 0.982 . S
C808 H833 0.979 . S
C808 H834 0.977 . S
C809 C805 1.684 . S
C809 H835 0.979 . S
C809 H836 0.980 . S
C809 H837 0.983 . S
C810 H786 0.948 . S
C810 C811 1.391 . S
C810 C815 1.391 . S
C811 C810 1.391 . S
C811 C812 1.391 . S
C812 H789 0.947 . S
C812 C811 1.391 . S
C812 C813 1.392 . S
C813 H790 0.948 . S
C813 C812 1.392 . S
C813 C814 1.419 . S
C814 C813 1.419 . S
C814 C815 1.391 . S
C814 C818 1.397 . S
C815 C810 1.391 . S
C815 C814 1.391 . S
C815 C816 1.399 . S
C816 C815 1.399 . S
C816 C817 1.396 . S
C816 C819 1.453 . S
C816 C820 1.684 . S
C817 C807 1.723 . S
C817 C816 1.396 . S
C817 C818 1.394 . S
C818 C788 1.723 . S
C818 C814 1.397 . S
C818 C817 1.394 . S
C819 H791 0.982 . S
C819 H795 0.979 . S
C819 H796 0.977 . S
C819 C816 1.453 . S
C820 H792 0.979 . S
C820 H793 0.980 . S
C820 H794 0.983 . S
C820 C816 1.684 . S
H821 C839 0.948 . S
H822 C780 0.948 . S
H823 C798 0.979 . S
H824 C798 0.980 . S
H825 C798 0.983 . S
H826 C797 0.982 . S
H827 C797 0.979 . S
H828 C797 0.977 . S
H829 C799 0.948 . S
H830 C801 0.947 . S
H831 C802 0.948 . S
H832 C808 0.982 . S
H833 C808 0.979 . S
H834 C808 0.977 . S
H835 C809 0.979 . S
H836 C809 0.980 . S
H837 C809 0.983 . S
H838 C782 0.947 . S
C839 C782 1.392 . S
C839 C783 1.419 . S
C839 H821 0.948 . S
C840 C841 1.391 . S
C840 C844 1.391 . S
C840 H882 0.948 . S
C841 C840 1.391 . S
C841 C842 1.391 . S
C842 C841 1.391 . S
C842 H898 0.947 . S
C842 C899 1.392 . S
C843 C844 1.391 . S
C843 C847 1.397 . S
C843 C899 1.419 . S
C844 C840 1.391 . S
C844 C843 1.391 . S
C844 C845 1.399 . S
C845 C844 1.399 . S
C845 C848 1.396 . S
C845 C857 1.453 . S
C845 C858 1.684 . S
H846 C870 0.948 . S
C847 C843 1.397 . S
C847 C848 1.394 . S
C847 C866 1.723 . S
C848 C845 1.396 . S
C848 C847 1.394 . S
C848 C878 1.723 . S
H849 C872 0.947 . S
H850 C873 0.948 . S
H851 C879 0.982 . S
H852 C880 0.979 . S
H853 C880 0.980 . S
H854 C880 0.983 . S
H855 C879 0.979 . S
H856 C879 0.977 . S
C857 C845 1.453 . S
C857 H886 0.982 . S
C857 H887 0.979 . S
C857 H888 0.977 . S
C858 C845 1.684 . S
C858 H883 0.979 . S
C858 H884 0.980 . S
C858 H885 0.983 . S
C859 C860 1.391 . S
C859 C864 1.391 . S
C859 H889 0.948 . S
C860 C859 1.391 . S
C860 C861 1.391 . S
C861 C860 1.391 . S
C861 C862 1.392 . S
C861 H890 0.947 . S
C862 C861 1.392 . S
C862 C863 1.419 . S
C862 H891 0.948 . S
C863 C862 1.419 . S
C863 C864 1.391 . S
C863 C867 1.397 . S
C864 C859 1.391 . S
C864 C863 1.391 . S
C864 C865 1.399 . S
C865 C864 1.399 . S
C865 C866 1.396 . S
C865 C868 1.453 . S
C865 C869 1.684 . S
C866 C847 1.723 . S
C866 C865 1.396 . S
C866 C867 1.394 . S
C867 C863 1.397 . S
C867 C866 1.394 . S
C867 C877 1.723 . S
C868 C865 1.453 . S
C868 H892 0.982 . S
C868 H893 0.979 . S
C868 H894 0.977 . S
C869 C865 1.684 . S
C869 H895 0.979 . S
C869 H896 0.980 . S
C869 H897 0.983 . S
C870 H846 0.948 . S
C870 C871 1.391 . S
C870 C875 1.391 . S
C871 C870 1.391 . S
C871 C872 1.391 . S
C872 H849 0.947 . S
C872 C871 1.391 . S
C872 C873 1.392 . S
C873 H850 0.948 . S
C873 C872 1.392 . S
C873 C874 1.419 . S
C874 C873 1.419 . S
C874 C875 1.391 . S
C874 C878 1.397 . S
C875 C870 1.391 . S
C875 C874 1.391 . S
C875 C876 1.399 . S
C876 C875 1.399 . S
C876 C877 1.396 . S
C876 C879 1.453 . S
C876 C880 1.684 . S
C877 C867 1.723 . S
C877 C876 1.396 . S
C877 C878 1.394 . S
C878 C848 1.723 . S
C878 C874 1.397 . S
C878 C877 1.394 . S
C879 H851 0.982 . S
C879 H855 0.979 . S
C879 H856 0.977 . S
C879 C876 1.453 . S
C880 H852 0.979 . S
C880 H853 0.980 . S
C880 H854 0.983 . S
C880 C876 1.684 . S
H881 C899 0.948 . S
H882 C840 0.948 . S
H883 C858 0.979 . S
H884 C858 0.980 . S
H885 C858 0.983 . S
H886 C857 0.982 . S
H887 C857 0.979 . S
H888 C857 0.977 . S
H889 C859 0.948 . S
H890 C861 0.947 . S
H891 C862 0.948 . S
H892 C868 0.982 . S
H893 C868 0.979 . S
H894 C868 0.977 . S
H895 C869 0.979 . S
H896 C869 0.980 . S
H897 C869 0.983 . S
H898 C842 0.947 . S
C899 C842 1.392 . S
C899 C843 1.419 . S
C899 H881 0.948 . S
C900 C901 1.391 . S
C900 C904 1.391 . S
C900 H942 0.948 . S
C901 C900 1.391 . S
C901 C902 1.391 . S
C902 C901 1.391 . S
C902 H958 0.947 . S
C902 C959 1.392 . S
C903 C904 1.391 . S
C903 C907 1.397 . S
C903 C959 1.419 . S
C904 C900 1.391 . S
C904 C903 1.391 . S
C904 C905 1.399 . S
C905 C904 1.399 . S
C905 C908 1.396 . S
C905 C917 1.453 . S
C905 C918 1.684 . S
H906 C930 0.948 . S
C907 C903 1.397 . S
C907 C908 1.394 . S
C907 C926 1.723 . S
C908 C905 1.396 . S
C908 C907 1.394 . S
C908 C938 1.723 . S
H909 C932 0.947 . S
H910 C933 0.948 . S
H911 C939 0.982 . S
H912 C940 0.979 . S
H913 C940 0.980 . S
H914 C940 0.983 . S
H915 C939 0.979 . S
H916 C939 0.977 . S
C917 C905 1.453 . S
C917 H946 0.982 . S
C917 H947 0.979 . S
C917 H948 0.977 . S
C918 C905 1.684 . S
C918 H943 0.979 . S
C918 H944 0.980 . S
C918 H945 0.983 . S
C919 C920 1.391 . S
C919 C924 1.391 . S
C919 H949 0.948 . S
C920 C919 1.391 . S
C920 C921 1.391 . S
C921 C920 1.391 . S
C921 C922 1.392 . S
C921 H950 0.947 . S
C922 C921 1.392 . S
C922 C923 1.419 . S
C922 H951 0.948 . S
C923 C922 1.419 . S
C923 C924 1.391 . S
C923 C927 1.397 . S
C924 C919 1.391 . S
C924 C923 1.391 . S
C924 C925 1.399 . S
C925 C924 1.399 . S
C925 C926 1.396 . S
C925 C928 1.453 . S
C925 C929 1.684 . S
C926 C907 1.723 . S
C926 C925 1.396 . S
C926 C927 1.394 . S
C927 C923 1.397 . S
C927 C926 1.394 . S
C927 C937 1.723 . S
C928 C925 1.453 . S
C928 H952 0.982 . S
C928 H953 0.979 . S
C928 H954 0.977 . S
C929 C925 1.684 . S
C929 H955 0.979 . S
C929 H956 0.980 . S
C929 H957 0.983 . S
C930 H906 0.948 . S
C930 C931 1.391 . S
C930 C935 1.391 . S
C931 C930 1.391 . S
C931 C932 1.391 . S
C932 H909 0.947 . S
C932 C931 1.391 . S
C932 C933 1.392 . S
C933 H910 0.948 . S
C933 C932 1.392 . S
C933 C934 1.419 . S
C934 C933 1.419 . S
C934 C935 1.391 . S
C934 C938 1.397 . S
C935 C930 1.391 . S
C935 C934 1.391 . S
C935 C936 1.399 . S
C936 C935 1.399 . S
C936 C937 1.396 . S
C936 C939 1.453 . S
C936 C940 1.684 . S
C937 C927 1.723 . S
C937 C936 1.396 . S
C937 C938 1.394 . S
C938 C908 1.723 . S
C938 C934 1.397 . S
C938 C937 1.394 . S
C939 H911 0.982 . S
C939 H915 0.979 . S
C939 H916 0.977 . S
C939 C936 1.453 . S
C940 H912 0.979 . S
C940 H913 0.980 . S
C940 H914 0.983 . S
C940 C936 1.684 . S
H941 C959 0.948 . S
H942 C900 0.948 . S
H943 C918 0.979 . S
H944 C918 0.980 . S
H945 C918 0.983 . S
H946 C917 0.982 . S
H947 C917 0.979 . S
H948 C917 0.977 . S
H949 C919 0.948 . S
H950 C921 0.947 . S
H951 C922 0.948 . S
H952 C928 0.982 . S
H953 C928 0.979 . S
H954 C928 0.977 . S
H955 C929 0.979 . S
H956 C929 0.980 . S
H957 C929 0.983 . S
H958 C902 0.947 . S
C959 C902 1.392 . S
C959 C903 1.419 . S
C959 H941 0.948 . S
C960 C961 1.391 . S
C960 C964 1.391 . S
C960 H1002 0.948 . S
C961 C960 1.391 . S
C961 C962 1.391 . S
C962 C961 1.391 . S
C962 H1018 0.947 . S
C962 C1019 1.392 . S
C963 C964 1.391 . S
C963 C967 1.397 . S
C963 C1019 1.419 . S
C964 C960 1.391 . S
C964 C963 1.391 . S
C964 C965 1.399 . S
C965 C964 1.399 . S
C965 C968 1.396 . S
C965 C977 1.453 . S
C965 C978 1.684 . S
H966 C990 0.948 . S
C967 C963 1.397 . S
C967 C968 1.394 . S
C967 C986 1.723 . S
C968 C965 1.396 . S
C968 C967 1.394 . S
C968 C998 1.723 . S
H969 C992 0.947 . S
H970 C993 0.948 . S
H971 C999 0.982 . S
H972 C1000 0.979 . S
H973 C1000 0.980 . S
H974 C1000 0.983 . S
H975 C999 0.979 . S
H976 C999 0.977 . S
C977 C965 1.453 . S
C977 H1006 0.982 . S
C977 H1007 0.979 . S
C977 H1008 0.977 . S
C978 C965 1.684 . S
C978 H1003 0.979 . S
C978 H1004 0.980 . S
C978 H1005 0.983 . S
C979 C980 1.391 . S
C979 C984 1.391 . S
C979 H1009 0.948 . S
C980 C979 1.391 . S
C980 C981 1.391 . S
C981 C980 1.391 . S
C981 C982 1.392 . S
C981 H1010 0.947 . S
C982 C981 1.392 . S
C982 C983 1.419 . S
C982 H1011 0.948 . S
C983 C982 1.419 . S
C983 C984 1.391 . S
C983 C987 1.397 . S
C984 C979 1.391 . S
C984 C983 1.391 . S
C984 C985 1.399 . S
C985 C984 1.399 . S
C985 C986 1.396 . S
C985 C988 1.453 . S
C985 C989 1.684 . S
C986 C967 1.723 . S
C986 C985 1.396 . S
C986 C987 1.394 . S
C987 C983 1.397 . S
C987 C986 1.394 . S
C987 C997 1.723 . S
C988 C985 1.453 . S
C988 H1012 0.982 . S
C988 H1013 0.979 . S
C988 H1014 0.977 . S
C989 C985 1.684 . S
C989 H1015 0.979 . S
C989 H1016 0.980 . S
C989 H1017 0.983 . S
C990 H966 0.948 . S
C990 C991 1.391 . S
C990 C995 1.391 . S
C991 C990 1.391 . S
C991 C992 1.391 . S
C992 H969 0.947 . S
C992 C991 1.391 . S
C992 C993 1.392 . S
C993 H970 0.948 . S
C993 C992 1.392 . S
C993 C994 1.419 . S
C994 C993 1.419 . S
C994 C995 1.391 . S
C994 C998 1.397 . S
C995 C990 1.391 . S
C995 C994 1.391 . S
C995 C996 1.399 . S
C996 C995 1.399 . S
C996 C997 1.396 . S
C996 C999 1.453 . S
C996 C1000 1.684 . S
C997 C987 1.723 . S
C997 C996 1.396 . S
C997 C998 1.394 . S
C998 C968 1.723 . S
C998 C994 1.397 . S
C998 C997 1.394 . S
C999 H971 0.982 . S
C999 H975 0.979 . S
C999 H976 0.977 . S
C999 C996 1.453 . S
C1000 H972 0.979 . S
C1000 H973 0.980 . S
C1000 H974 0.983 . S
C1000 C996 1.684 . S
H1001 C1019 0.948 . S
H1002 C960 0.948 . S
H1003 C978 0.979 . S
H1004 C978 0.980 . S
H1005 C978 0.983 . S
H1006 C977 0.982 . S
H1007 C977 0.979 . S
H1008 C977 0.977 . S
H1009 C979 0.948 . S
H1010 C981 0.947 . S
H1011 C982 0.948 . S
H1012 C988 0.982 . S
H1013 C988 0.979 . S
H1014 C988 0.977 . S
H1015 C989 0.979 . S
H1016 C989 0.980 . S
H1017 C989 0.983 . S
H1018 C962 0.947 . S
C1019 C962 1.392 . S
C1019 C963 1.419 . S
C1019 H1001 0.948 . S
C1020 C1021 1.391 . S
C1020 C1024 1.391 . S
C1020 H1062 0.948 . S
C1021 C1020 1.391 . S
C1021 C1022 1.391 . S
C1022 C1021 1.391 . S
C1022 H1078 0.947 . S
C1022 C1079 1.392 . S
C1023 C1024 1.391 . S
C1023 C1027 1.397 . S
C1023 C1079 1.419 . S
C1024 C1020 1.391 . S
C1024 C1023 1.391 . S
C1024 C1025 1.399 . S
C1025 C1024 1.399 . S
C1025 C1028 1.396 . S
C1025 C1037 1.453 . S
C1025 C1038 1.684 . S
H1026 C1050 0.948 . S
C1027 C1023 1.397 . S
C1027 C1028 1.394 . S
C1027 C1046 1.723 . S
C1028 C1025 1.396 . S
C1028 C1027 1.394 . S
C1028 C1058 1.723 . S
H1029 C1052 0.947 . S
H1030 C1053 0.948 . S
H1031 C1059 0.982 . S
H1032 C1060 0.979 . S
H1033 C1060 0.980 . S
H1034 C1060 0.983 . S
H1035 C1059 0.979 . S
H1036 C1059 0.977 . S
C1037 C1025 1.453 . S
C1037 H1066 0.982 . S
C1037 H1067 0.979 . S
C1037 H1068 0.977 . S
C1038 C1025 1.684 . S
C1038 H1063 0.979 . S
C1038 H1064 0.980 . S
C1038 H1065 0.983 . S
C1039 C1040 1.391 . S
C1039 C1044 1.391 . S
C1039 H1069 0.948 . S
C1040 C1039 1.391 . S
C1040 C1041 1.391 . S
C1041 C1040 1.391 . S
C1041 C1042 1.392 . S
C1041 H1070 0.947 . S
C1042 C1041 1.392 . S
C1042 C1043 1.419 . S
C1042 H1071 0.948 . S
C1043 C1042 1.419 . S
C1043 C1044 1.391 . S
C1043 C1047 1.397 . S
C1044 C1039 1.391 . S
C1044 C1043 1.391 . S
C1044 C1045 1.399 . S
C1045 C1044 1.399 . S
C1045 C1046 1.396 . S
C1045 C1048 1.453 . S
C1045 C1049 1.684 . S
C1046 C1027 1.723 . S
C1046 C1045 1.396 . S
C1046 C1047 1.394 . S
C1047 C1043 1.397 . S
C1047 C1046 1.394 . S
C1047 C1057 1.723 . S
C1048 C1045 1.453 . S
C1048 H1072 0.982 . S
C1048 H1073 0.979 . S
C1048 H1074 0.977 . S
C1049 C1045 1.684 . S
C1049 H1075 0.979 . S
C1049 H1076 0.980 . S
C1049 H1077 0.983 . S
C1050 H1026 0.948 . S
C1050 C1051 1.391 . S
C1050 C1055 1.391 . S
C1051 C1050 1.391 . S
C1051 C1052 1.391 . S
C1052 H1029 0.947 . S
C1052 C1051 1.391 . S
C1052 C1053 1.392 . S
C1053 H1030 0.948 . S
C1053 C1052 1.392 . S
C1053 C1054 1.419 . S
C1054 C1053 1.419 . S
C1054 C1055 1.391 . S
C1054 C1058 1.397 . S
C1055 C1050 1.391 . S
C1055 C1054 1.391 . S
C1055 C1056 1.399 . S
C1056 C1055 1.399 . S
C1056 C1057 1.396 . S
C1056 C1059 1.453 . S
C1056 C1060 1.684 . S
C1057 C1047 1.723 . S
C1057 C1056 1.396 . S
C1057 C1058 1.394 . S
C1058 C1028 1.723 . S
C1058 C1054 1.397 . S
C1058 C1057 1.394 . S
C1059 H1031 0.982 . S
C1059 H1035 0.979 . S
C1059 H1036 0.977 . S
C1059 C1056 1.453 . S
C1060 H1032 0.979 . S
C1060 H1033 0.980 . S
C1060 H1034 0.983 . S
C1060 C1056 1.684 . S
H1061 C1079 0.948 . S
H1062 C1020 0.948 . S
H1063 C1038 0.979 . S
H1064 C1038 0.980 . S
H1065 C1038 0.983 . S
H1066 C1037 0.982 . S
H1067 C1037 0.979 . S
H1068 C1037 0.977 . S
H1069 C1039 0.948 . S
H1070 C1041 0.947 . S
H1071 C1042 0.948 . S
H1072 C1048 0.982 . S
H1073 C1048 0.979 . S
H1074 C1048 0.977 . S
H1075 C1049 0.979 . S
H1076 C1049 0.980 . S
H1077 C1049 0.983 . S
H1078 C1022 0.947 . S
C1079 C1022 1.392 . S
C1079 C1023 1.419 . S
C1079 H1061 0.948 . S
C1080 C1081 1.391 . S
C1080 C1084 1.391 . S
C1080 H1122 0.948 . S
C1081 C1080 1.391 . S
C1081 C1082 1.391 . S
C1082 C1081 1.391 . S
C1082 H1138 0.947 . S
C1082 C1139 1.392 . S
C1083 C1084 1.391 . S
C1083 C1087 1.397 . S
C1083 C1139 1.419 . S
C1084 C1080 1.391 . S
C1084 C1083 1.391 . S
C1084 C1085 1.399 . S
C1085 C1084 1.399 . S
C1085 C1088 1.396 . S
C1085 C1097 1.453 . S
C1085 C1098 1.684 . S
H1086 C1110 0.948 . S
C1087 C1083 1.397 . S
C1087 C1088 1.394 . S
C1087 C1106 1.723 . S
C1088 C1085 1.396 . S
C1088 C1087 1.394 . S
C1088 C1118 1.723 . S
H1089 C1112 0.947 . S
H1090 C1113 0.948 . S
H1091 C1119 0.982 . S
H1092 C1120 0.979 . S
H1093 C1120 0.980 . S
H1094 C1120 0.983 . S
H1095 C1119 0.979 . S
H1096 C1119 0.977 . S
C1097 C1085 1.453 . S
C1097 H1126 0.982 . S
C1097 H1127 0.979 . S
C1097 H1128 0.977 . S
C1098 C1085 1.684 . S
C1098 H1123 0.979 . S
C1098 H1124 0.980 . S
C1098 H1125 0.983 . S
C1099 C1100 1.391 . S
C1099 C1104 1.391 . S
C1099 H1129 0.948 . S
C1100 C1099 1.391 . S
C1100 C1101 1.391 . S
C1101 C1100 1.391 . S
C1101 C1102 1.392 . S
C1101 H1130 0.947 . S
C1102 C1101 1.392 . S
C1102 C1103 1.419 . S
C1102 H1131 0.948 . S
C1103 C1102 1.419 . S
C1103 C1104 1.391 . S
C1103 C1107 1.397 . S
C1104 C1099 1.391 . S
C1104 C1103 1.391 . S
C1104 C1105 1.399 . S
C1105 C1104 1.399 . S
C1105 C1106 1.396 . S
C1105 C1108 1.453 . S
C1105 C1109 1.684 . S
C1106 C1087 1.723 . S
C1106 C1105 1.396 . S
C1106 C1107 1.394 . S
C1107 C1103 1.397 . S
C1107 C1106 1.394 . S
C1107 C1117 1.723 . S
C1108 C1105 1.453 . S
C1108 H1132 0.982 . S
C1108 H1133 0.979 . S
C1108 H1134 0.977 . S
C1109 C1105 1.684 . S
C1109 H1135 0.979 . S
C1109 H1136 0.980 . S
C1109 H1137 0.983 . S
C1110 H1086 0.948 . S
C1110 C1111 1.391 . S
C1110 C1115 1.391 . S
C1111 C1110 1.391 . S
C1111 C1112 1.391 . S
C1112 H1089 0.947 . S
C1112 C1111 1.391 . S
C1112 C1113 1.392 . S
C1113 H1090 0.948 . S
C1113 C1112 1.392 . S
C1113 C1114 1.419 . S
C1114 C1113 1.419 . S
C1114 C1115 1.391 . S
C1114 C1118 1.397 . S
C1115 C1110 1.391 . S
C1115 C1114 1.391 . S
C1115 C1116 1.399 . S
C1116 C1115 1.399 . S
C1116 C1117 1.396 . S
C1116 C1119 1.453 . S
C1116 C1120 1.684 . S
C1117 C1107 1.723 . S
C1117 C1116 1.396 . S
C1117 C1118 1.394 . S
C1118 C1088 1.723 . S
C1118 C1114 1.397 . S
C1118 C1117 1.394 . S
C1119 H1091 0.982 . S
C1119 H1095 0.979 . S
C1119 H1096 0.977 . S
C1119 C1116 1.453 . S
C1120 H1092 0.979 . S
C1120 H1093 0.980 . S
C1120 H1094 0.983 . S
C1120 C1116 1.684 . S
H1121 C1139 0.948 . S
H1122 C1080 0.948 . S
H1123 C1098 0.979 . S
H1124 C1098 0.980 . S
H1125 C1098 0.983 . S
H1126 C1097 0.982 . S
H1127 C1097 0.979 . S
H1128 C1097 0.977 . S
H1129 C1099 0.948 . S
H1130 C1101 0.947 . S
H1131 C1102 0.948 . S
H1132 C1108 0.982 . S
H1133 C1108 0.979 . S
H1134 C1108 0.977 . S
H1135 C1109 0.979 . S
H1136 C1109 0.980 . S
H1137 C1109 0.983 . S
H1138 C1082 0.947 . S
C1139 C1082 1.392 . S
C1139 C1083 1.419 . S
C1139 H1121 0.948 . S
C1140 C1141 1.391 . S
C1140 C1144 1.391 . S
C1140 H1182 0.948 . S
C1141 C1140 1.391 . S
C1141 C1142 1.391 . S
C1142 C1141 1.391 . S
C1142 H1198 0.947 . S
C1142 C1199 1.392 . S
C1143 C1144 1.391 . S
C1143 C1147 1.397 . S
C1143 C1199 1.419 . S
C1144 C1140 1.391 . S
C1144 C1143 1.391 . S
C1144 C1145 1.399 . S
C1145 C1144 1.399 . S
C1145 C1148 1.396 . S
C1145 C1157 1.453 . S
C1145 C1158 1.684 . S
H1146 C1170 0.948 . S
C1147 C1143 1.397 . S
C1147 C1148 1.394 . S
C1147 C1166 1.723 . S
C1148 C1145 1.396 . S
C1148 C1147 1.394 . S
C1148 C1178 1.723 . S
H1149 C1172 0.947 . S
H1150 C1173 0.948 . S
H1151 C1179 0.982 . S
H1152 C1180 0.979 . S
H1153 C1180 0.980 . S
H1154 C1180 0.983 . S
H1155 C1179 0.979 . S
H1156 C1179 0.977 . S
C1157 C1145 1.453 . S
C1157 H1186 0.982 . S
C1157 H1187 0.979 . S
C1157 H1188 0.977 . S
C1158 C1145 1.684 . S
C1158 H1183 0.979 . S
C1158 H1184 0.980 . S
C1158 H1185 0.983 . S
C1159 C1160 1.391 . S
C1159 C1164 1.391 . S
C1159 H1189 0.948 . S
C1160 C1159 1.391 . S
C1160 C1161 1.391 . S
C1161 C1160 1.391 . S
C1161 C1162 1.392 . S
C1161 H1190 0.947 . S
C1162 C1161 1.392 . S
C1162 C1163 1.419 . S
C1162 H1191 0.948 . S
C1163 C1162 1.419 . S
C1163 C1164 1.391 . S
C1163 C1167 1.397 . S
C1164 C1159 1.391 . S
C1164 C1163 1.391 . S
C1164 C1165 1.399 . S
C1165 C1164 1.399 . S
C1165 C1166 1.396 . S
C1165 C1168 1.453 . S
C1165 C1169 1.684 . S
C1166 C1147 1.723 . S
C1166 C1165 1.396 . S
C1166 C1167 1.394 . S
C1167 C1163 1.397 . S
C1167 C1166 1.394 . S
C1167 C1177 1.723 . S
C1168 C1165 1.453 . S
C1168 H1192 0.982 . S
C1168 H1193 0.979 . S
C1168 H1194 0.977 . S
C1169 C1165 1.684 . S
C1169 H1195 0.979 . S
C1169 H1196 0.980 . S
C1169 H1197 0.983 . S
C1170 H1146 0.948 . S
C1170 C1171 1.391 . S
C1170 C1175 1.391 . S
C1171 C1170 1.391 . S
C1171 C1172 1.391 . S
C1172 H1149 0.947 . S
C1172 C1171 1.391 . S
C1172 C1173 1.392 . S
C1173 H1150 0.948 . S
C1173 C1172 1.392 . S
C1173 C1174 1.419 . S
C1174 C1173 1.419 . S
C1174 C1175 1.391 . S
C1174 C1178 1.397 . S
C1175 C1170 1.391 . S
C1175 C1174 1.391 . S
C1175 C1176 1.399 . S
C1176 C1175 1.399 . S
C1176 C1177 1.396 . S
C1176 C1179 1.453 . S
C1176 C1180 1.684 . S
C1177 C1167 1.723 . S
C1177 C1176 1.396 . S
C1177 C1178 1.394 . S
C1178 C1148 1.723 . S
C1178 C1174 1.397 . S
C1178 C1177 1.394 . S
C1179 H1151 0.982 . S
C1179 H1155 0.979 . S
C1179 H1156 0.977 . S
C1179 C1176 1.453 . S
C1180 H1152 0.979 . S
C1180 H1153 0.980 . S
C1180 H1154 0.983 . S
C1180 C1176 1.684 . S
H1181 C1199 0.948 . S
H1182 C1140 0.948 . S
H1183 C1158 0.979 . S
H1184 C1158 0.980 . S
H1185 C1158 0.983 . S
H1186 C1157 0.982 . S
H1187 C1157 0.979 . S
H1188 C1157 0.977 . S
H1189 C1159 0.948 . S
H1190 C1161 0.947 . S
H1191 C1162 0.948 . S
H1192 C1168 0.982 . S
H1193 C1168 0.979 . S
H1194 C1168 0.977 . S
H1195 C1169 0.979 . S
H1196 C1169 0.980 . S
H1197 C1169 0.983 . S
H1198 C1142 0.947 . S
C1199 C1142 1.392 . S
C1199 C1143 1.419 . S
C1199 H1181 0.948 . S
C1200 C1201 1.391 . S
C1200 C1204 1.391 . S
C1200 H1242 0.948 . S
C1201 C1200 1.391 . S
C1201 C1202 1.391 . S
C1202 C1201 1.391 . S
C1202 H1258 0.947 . S
C1202 C1259 1.392 . S
C1203 C1204 1.391 . S
C1203 C1207 1.397 . S
C1203 C1259 1.419 . S
C1204 C1200 1.391 . S
C1204 C1203 1.391 . S
C1204 C1205 1.399 . S
C1205 C1204 1.399 . S
C1205 C1208 1.396 . S
C1205 C1217 1.453 . S
C1205 C1218 1.684 . S
H1206 C1230 0.948 . S
C1207 C1203 1.397 . S
C1207 C1208 1.394 . S
C1207 C1226 1.723 . S
C1208 C1205 1.396 . S
C1208 C1207 1.394 . S
C1208 C1238 1.723 . S
H1209 C1232 0.947 . S
H1210 C1233 0.948 . S
H1211 C1239 0.982 . S
H1212 C1240 0.979 . S
H1213 C1240 0.980 . S
H1214 C1240 0.983 . S
H1215 C1239 0.979 . S
H1216 C1239 0.977 . S
C1217 C1205 1.453 . S
C1217 H1246 0.982 . S
C1217 H1247 0.979 . S
C1217 H1248 0.977 . S
C1218 C1205 1.684 . S
C1218 H1243 0.979 . S
C1218 H1244 0.980 . S
C1218 H1245 0.983 . S
C1219 C1220 1.391 . S
C1219 C1224 1.391 . S
C1219 H1249 0.948 . S
C1220 C1219 1.391 . S
C1220 C1221 1.391 . S
C1221 C1220 1.391 . S
C1221 C1222 1.392 . S
C1221 H1250 0.947 . S
C1222 C1221 1.392 . S
C1222 C1223 1.419 . S
C1222 H1251 0.948 . S
C1223 C1222 1.419 . S
C1223 C1224 1.391 . S
C1223 C1227 1.397 . S
C1224 C1219 1.391 . S
C1224 C1223 1.391 . S
C1224 C1225 1.399 . S
C1225 C1224 1.399 . S
C1225 C1226 1.396 . S
C1225 C1228 1.453 . S
C1225 C1229 1.684 . S
C1226 C1207 1.723 . S
C1226 C1225 1.396 . S
C1226 C1227 1.394 . S
C1227 C1223 1.397 . S
C1227 C1226 1.394 . S
C1227 C1237 1.723 . S
C1228 C1225 1.453 . S
C1228 H1252 0.982 . S
C1228 H1253 0.979 . S
C1228 H1254 0.977 . S
C1229 C1225 1.684 . S
C1229 H1255 0.979 . S
C1229 H1256 0.980 . S
C1229 H1257 0.983 . S
C1230 H1206 0.948 . S
C1230 C1231 1.391 . S
C1230 C1235 1.391 . S
C1231 C1230 1.391 . S
C1231 C1232 1.391 . S
C1232 H1209 0.947 . S
C1232 C1231 1.391 . S
C1232 C1233 1.392 . S
C1233 H1210 0.948 . S
C1233 C1232 1.392 . S
C1233 C1234 1.419 . S
C1234 C1233 1.419 . S
C1234 C1235 1.391 . S
C1234 C1238 1.397 . S
C1235 C1230 1.391 . S
C1235 C1234 1.391 . S
C1235 C1236 1.399 . S
C1236 C1235 1.399 . S
C1236 C1237 1.396 . S
C1236 C1239 1.453 . S
C1236 C1240 1.684 . S
C1237 C1227 1.723 . S
C1237 C1236 1.396 . S
C1237 C1238 1.394 . S
C1238 C1208 1.723 . S
C1238 C1234 1.397 . S
C1238 C1237 1.394 . S
C1239 H1211 0.982 . S
C1239 H1215 0.979 . S
C1239 H1216 0.977 . S
C1239 C1236 1.453 . S
C1240 H1212 0.979 . S
C1240 H1213 0.980 . S
C1240 H1214 0.983 . S
C1240 C1236 1.684 . S
H1241 C1259 0.948 . S
H1242 C1200 0.948 . S
H1243 C1218 0.979 . S
H1244 C1218 0.980 . S
H1245 C1218 0.983 . S
H1246 C1217 0.982 . S
H1247 C1217 0.979 . S
H1248 C1217 0.977 . S
H1249 C1219 0.948 . S
H1250 C1221 0.947 . S
H1251 C1222 0.948 . S
H1252 C1228 0.982 . S
H1253 C1228 0.979 . S
H1254 C1228 0.977 . S
H1255 C1229 0.979 . S
H1256 C1229 0.980 . S
H1257 C1229 0.983 . S
H1258 C1202 0.947 . S
C1259 C1202 1.392 . S
C1259 C1203 1.419 . S
C1259 H1241 0.948 . S
C1260 C1261 1.391 . S
C1260 C1264 1.391 . S
C1260 H1302 0.948 . S
C1261 C1260 1.391 . S
C1261 C1262 1.391 . S
C1262 C1261 1.391 . S
C1262 H1318 0.947 . S
C1262 C1319 1.392 . S
C1263 C1264 1.391 . S
C1263 C1267 1.397 . S
C1263 C1319 1.419 . S
C1264 C1260 1.391 . S
C1264 C1263 1.391 . S
C1264 C1265 1.399 . S
C1265 C1264 1.399 . S
C1265 C1268 1.396 . S
C1265 C1277 1.453 . S
C1265 C1278 1.684 . S
H1266 C1290 0.948 . S
C1267 C1263 1.397 . S
C1267 C1268 1.394 . S
C1267 C1286 1.723 . S
C1268 C1265 1.396 . S
C1268 C1267 1.394 . S
C1268 C1298 1.723 . S
H1269 C1292 0.947 . S
H1270 C1293 0.948 . S
H1271 C1299 0.982 . S
H1272 C1300 0.979 . S
H1273 C1300 0.980 . S
H1274 C1300 0.983 . S
H1275 C1299 0.979 . S
H1276 C1299 0.977 . S
C1277 C1265 1.453 . S
C1277 H1306 0.982 . S
C1277 H1307 0.979 . S
C1277 H1308 0.977 . S
C1278 C1265 1.684 . S
C1278 H1303 0.979 . S
C1278 H1304 0.980 . S
C1278 H1305 0.983 . S
C1279 C1280 1.391 . S
C1279 C1284 1.391 . S
C1279 H1309 0.948 . S
C1280 C1279 1.391 . S
C1280 C1281 1.391 . S
C1281 C1280 1.391 . S
C1281 C1282 1.392 . S
C1281 H1310 0.947 . S
C1282 C1281 1.392 . S
C1282 C1283 1.419 . S
C1282 H1311 0.948 . S
C1283 C1282 1.419 . S
C1283 C1284 1.391 . S
C1283 C1287 1.397 . S
C1284 C1279 1.391 . S
C1284 C1283 1.391 . S
C1284 C1285 1.399 . S
C1285 C1284 1.399 . S
C1285 C1286 1.396 . S
C1285 C1288 1.453 . S
C1285 C1289 1.684 . S
C1286 C1267 1.723 . S
C1286 C1285 1.396 . S
C1286 C1287 1.394 . S
C1287 C1283 1.397 . S
C1287 C1286 1.394 . S
C1287 C1297 1.723 . S
C1288 C1285 1.453 . S
C1288 H1312 0.982 . S
C1288 H1313 0.979 . S
C1288 H1314 0.977 . S
C1289 C1285 1.684 . S
C1289 H1315 0.979 . S
C1289 H1316 0.980 . S
C1289 H1317 0.983 . S
C1290 H1266 0.948 . S
C1290 C1291 1.391 . S
C1290 C1295 1.391 . S
C1291 C1290 1.391 . S
C1291 C1292 1.391 . S
C1292 H1269 0.947 . S
C1292 C1291 1.391 . S
C1292 C1293 1.392 . S
C1293 H1270 0.948 . S
C1293 C1292 1.392 . S
C1293 C1294 1.419 . S
C1294 C1293 1.419 . S
C1294 C1295 1.391 . S
C1294 C1298 1.397 . S
C1295 C1290 1.391 . S
C1295 C1294 1.391 . S
C1295 C1296 1.399 . S
C1296 C1295 1.399 . S
C1296 C1297 1.396 . S
C1296 C1299 1.453 . S
C1296 C1300 1.684 . S
C1297 C1287 1.723 . S
C1297 C1296 1.396 . S
C1297 C1298 1.394 . S
C1298 C1268 1.723 . S
C1298 C1294 1.397 . S
C1298 C1297 1.394 . S
C1299 H1271 0.982 . S
C1299 H1275 0.979 . S
C1299 H1276 0.977 . S
C1299 C1296 1.453 . S
C1300 H1272 0.979 . S
C1300 H1273 0.980 . S
C1300 H1274 0.983 . S
C1300 C1296 1.684 . S
H1301 C1319 0.948 . S
H1302 C1260 0.948 . S
H1303 C1278 0.979 . S
H1304 C1278 0.980 . S
H1305 C1278 0.983 . S
H1306 C1277 0.982 . S
H1307 C1277 0.979 . S
H1308 C1277 0.977 . S
H1309 C1279 0.948 . S
H1310 C1281 0.947 . S
H1311 C1282 0.948 . S
H1312 C1288 0.982 . S
H1313 C1288 0.979 . S
H1314 C1288 0.977 . S
H1315 C1289 0.979 . S
H1316 C1289 0.980 . S
H1317 C1289 0.983 . S
H1318 C1262 0.947 . S
C1319 C1262 1.392 . S
C1319 C1263 1.419 . S
C1319 H1301 0.948 . S
C1320 C1321 1.391 . S
C1320 C1324 1.391 . S
C1320 H1362 0.948 . S
C1321 C1320 1.391 . S
C1321 C1322 1.391 . S
C1322 C1321 1.391 . S
C1322 H1378 0.947 . S
C1322 C1379 1.392 . S
C1323 C1324 1.391 . S
C1323 C1327 1.397 . S
C1323 C1379 1.419 . S
C1324 C1320 1.391 . S
C1324 C1323 1.391 . S
C1324 C1325 1.399 . S
C1325 C1324 1.399 . S
C1325 C1328 1.396 . S
C1325 C1337 1.453 . S
C1325 C1338 1.684 . S
H1326 C1350 0.948 . S
C1327 C1323 1.397 . S
C1327 C1328 1.394 . S
C1327 C1346 1.723 . S
C1328 C1325 1.396 . S
C1328 C1327 1.394 . S
C1328 C1358 1.723 . S
H1329 C1352 0.947 . S
H1330 C1353 0.948 . S
H1331 C1359 0.982 . S
H1332 C1360 0.979 . S
H1333 C1360 0.980 . S
H1334 C1360 0.983 . S
H1335 C1359 0.979 . S
H1336 C1359 0.977 . S
C1337 C1325 1.453 . S
C1337 H1366 0.982 . S
C1337 H1367 0.979 . S
C1337 H1368 0.977 . S
C1338 C1325 1.684 . S
C1338 H1363 0.979 . S
C1338 H1364 0.980 . S
C1338 H1365 0.983 . S
C1339 C1340 1.391 . S
C1339 C1344 1.391 . S
C1339 H1369 0.948 . S
C1340 C1339 1.391 . S
C1340 C1341 1.391 . S
C1341 C1340 1.391 . S
C1341 C1342 1.392 . S
C1341 H1370 0.947 . S
C1342 C1341 1.392 . S
C1342 C1343 1.419 . S
C1342 H1371 0.948 . S
C1343 C1342 1.419 . S
C1343 C1344 1.391 . S
C1343 C1347 1.397 . S
C1344 C1339 1.391 . S
C1344 C1343 1.391 . S
C1344 C1345 1.399 . S
C1345 C1344 1.399 . S
C1345 C1346 1.396 . S
C1345 C1348 1.453 . S
C1345 C1349 1.684 . S
C1346 C1327 1.723 . S
C1346 C1345 1.396 . S
C1346 C1347 1.394 . S
C1347 C1343 1.397 . S
C1347 C1346 1.394 . S
C1347 C1357 1.723 . S
C1348 C1345 1.453 . S
C1348 H1372 0.982 . S
C1348 H1373 0.979 . S
C1348 H1374 0.977 . S
C1349 C1345 1.684 . S
C1349 H1375 0.979 . S
C1349 H1376 0.980 . S
C1349 H1377 0.983 . S
C1350 H1326 0.948 . S
C1350 C1351 1.391 . S
C1350 C1355 1.391 . S
C1351 C1350 1.391 . S
C1351 C1352 1.391 . S
C1352 H1329 0.947 . S
C1352 C1351 1.391 . S
C1352 C1353 1.392 . S
C1353 H1330 0.948 . S
C1353 C1352 1.392 . S
C1353 C1354 1.419 . S
C1354 C1353 1.419 . S
C1354 C1355 1.391 . S
C1354 C1358 1.397 . S
C1355 C1350 1.391 . S
C1355 C1354 1.391 . S
C1355 C1356 1.399 . S
C1356 C1355 1.399 . S
C1356 C1357 1.396 . S
C1356 C1359 1.453 . S
C1356 C1360 1.684 . S
C1357 C1347 1.723 . S
C1357 C1356 1.396 . S
C1357 C1358 1.394 . S
C1358 C1328 1.723 . S
C1358 C1354 1.397 . S
C1358 C1357 1.394 . S
C1359 H1331 0.982 . S
C1359 H1335 0.979 . S
C1359 H1336 0.977 . S
C1359 C1356 1.453 . S
C1360 H1332 0.979 . S
C1360 H1333 0.980 . S
C1360 H1334 0.983 . S
C1360 C1356 1.684 . S
H1361 C1379 0.948 . S
H1362 C1320 0.948 . S
H1363 C1338 0.979 . S
H1364 C1338 0.980 . S
H1365 C1338 0.983 . S
H1366 C1337 0.982 . S
H1367 C1337 0.979 . S
H1368 C1337 0.977 . S
H1369 C1339 0.948 . S
H1370 C1341 0.947 . S
H1371 C1342 0.948 . S
H1372 C1348 0.982 . S
H1373 C1348 0.979 . S
H1374 C1348 0.977 . S
H1375 C1349 0.979 . S
H1376 C1349 0.980 . S
H1377 C1349 0.983 . S
H1378 C1322 0.947 . S
C1379 C1322 1.392 . S
C1379 C1323 1.419 . S
C1379 H1361 0.948 . S
C1380 C1381 1.391 . S
C1380 C1384 1.391 . S
C1380 H1422 0.948 . S
C1381 C1380 1.391 . S
C1381 C1382 1.391 . S
C1382 C1381 1.391 . S
C1382 H1438 0.947 . S
C1382 C1439 1.392 . S
C1383 C1384 1.391 . S
C1383 C1387 1.397 . S
C1383 C1439 1.419 . S
C1384 C1380 1.391 . S
C1384 C1383 1.391 . S
C1384 C1385 1.399 . S
C1385 C1384 1.399 . S
C1385 C1388 1.396 . S
C1385 C1397 1.453 . S
C1385 C1398 1.684 . S
H1386 C1410 0.948 . S
C1387 C1383 1.397 . S
C1387 C1388 1.394 . S
C1387 C1406 1.723 . S
C1388 C1385 1.396 . S
C1388 C1387 1.394 . S
C1388 C1418 1.723 . S
H1389 C1412 0.947 . S
H1390 C1413 0.948 . S
H1391 C1419 0.982 . S
H1392 C1420 0.979 . S
H1393 C1420 0.980 . S
H1394 C1420 0.983 . S
H1395 C1419 0.979 . S
H1396 C1419 0.977 . S
C1397 C1385 1.453 . S
C1397 H1426 0.982 . S
C1397 H1427 0.979 . S
C1397 H1428 0.977 . S
C1398 C1385 1.684 . S
C1398 H1423 0.979 . S
C1398 H1424 0.980 . S
C1398 H1425 0.983 . S
C1399 C1400 1.391 . S
C1399 C1404 1.391 . S
C1399 H1429 0.948 . S
C1400 C1399 1.391 . S
C1400 C1401 1.391 . S
C1401 C1400 1.391 . S
C1401 C1402 1.392 . S
C1401 H1430 0.947 . S
C1402 C1401 1.392 . S
C1402 C1403 1.419 . S
C1402 H1431 0.948 . S
C1403 C1402 1.419 . S
C1403 C1404 1.391 . S
C1403 C1407 1.397 . S
C1404 C1399 1.391 . S
C1404 C1403 1.391 . S
C1404 C1405 1.399 . S
C1405 C1404 1.399 . S
C1405 C1406 1.396 . S
C1405 C1408 1.453 . S
C1405 C1409 1.684 . S
C1406 C1387 1.723 . S
C1406 C1405 1.396 . S
C1406 C1407 1.394 . S
C1407 C1403 1.397 . S
C1407 C1406 1.394 . S
C1407 C1417 1.723 . S
C1408 C1405 1.453 . S
C1408 H1432 0.982 . S
C1408 H1433 0.979 . S
C1408 H1434 0.977 . S
C1409 C1405 1.684 . S
C1409 H1435 0.979 . S
C1409 H1436 0.980 . S
C1409 H1437 0.983 . S
C1410 H1386 0.948 . S
C1410 C1411 1.391 . S
C1410 C1415 1.391 . S
C1411 C1410 1.391 . S
C1411 C1412 1.391 . S
C1412 H1389 0.947 . S
C1412 C1411 1.391 . S
C1412 C1413 1.392 . S
C1413 H1390 0.948 . S
C1413 C1412 1.392 . S
C1413 C1414 1.419 . S
C1414 C1413 1.419 . S
C1414 C1415 1.391 . S
C1414 C1418 1.397 . S
C1415 C1410 1.391 . S
C1415 C1414 1.391 . S
C1415 C1416 1.399 . S
C1416 C1415 1.399 . S
C1416 C1417 1.396 . S
C1416 C1419 1.453 . S
C1416 C1420 1.684 . S
C1417 C1407 1.723 . S
C1417 C1416 1.396 . S
C1417 C1418 1.394 . S
C1418 C1388 1.723 . S
C1418 C1414 1.397 . S
C1418 C1417 1.394 . S
C1419 H1391 0.982 . S
C1419 H1395 0.979 . S
C1419 H1396 0.977 . S
C1419 C1416 1.453 . S
C1420 H1392 0.979 . S
C1420 H1393 0.980 . S
C1420 H1394 0.983 . S
C1420 C1416 1.684 . S
H1421 C1439 0.948 . S
H1422 C1380 0.948 . S
H1423 C1398 0.979 . S
H1424 C1398 0.980 . S
H1425 C1398 0.983 . S
H1426 C1397 0.982 . S
H1427 C1397 0.979 . S
H1428 C1397 0.977 . S
H1429 C1399 0.948 . S
H1430 C1401 0.947 . S
H1431 C1402 0.948 . S
H1432 C1408 0.982 . S
H1433 C1408 0.979 . S
H1434 C1408 0.977 . S
H1435 C1409 0.979 . S
H1436 C1409 0.980 . S
H1437 C1409 0.983 . S
H1438 C1382 0.947 . S
C1439 C1382 1.392 . S
C1439 C1383 1.419 . S
C1439 H1421 0.948 . S
C1440 O1466 1.283 . S
C1440 O1484 1.283 . S
C1441 O1467 1.283 . S
C1441 O1482 1.283 . S
C1442 O1468 1.283 . S
C1442 O1485 1.283 . S
C1443 O1469 1.283 . S
C1443 O1483 1.283 . S
C1444 O1470 1.283 . S
C1444 O1479 1.283 . S
C1445 O1471 1.283 . S
C1445 O1481 1.283 . S
C1446 O1472 1.283 . S
C1446 O1478 1.283 . S
C1447 O1473 1.283 . S
C1447 O1480 1.283 . S
C1448 O1474 1.283 . S
C1448 O1489 1.283 . S
C1449 O1475 1.283 . S
C1449 O1487 1.283 . S
C1450 O1476 1.283 . S
C1450 O1488 1.283 . S
C1451 O1477 1.283 . S
C1451 O1486 1.283 . S
Eu1452 O1453 2.370 1_455 S
Eu1452 O1454 2.370 . S
Eu1452 O1457 2.370 1_455 S
Eu1452 O1458 2.370 . S
Eu1452 O1466 2.363 . S
Eu1452 O1467 2.363 . S
Eu1452 O1480 2.363 . S
Eu1452 O1481 2.363 1_455 S
O1453 Eu1452 2.370 1_655 S
O1453 Eu1455 2.370 1_565 S
O1453 Eu1460 2.370 1_665 S
O1454 Eu1452 2.370 . S
O1454 Eu1456 2.370 1_565 S
O1454 Eu1459 2.370 1_565 S
Eu1455 O1453 2.370 1_545 S
Eu1455 O1457 2.370 1_545 S
Eu1455 O1461 2.370 . S
Eu1455 O1462 2.370 . S
Eu1455 O1470 2.363 . S
Eu1455 O1471 2.363 1_545 S
Eu1455 O1486 2.363 . S
Eu1455 O1487 2.363 . S
Eu1456 O1454 2.370 1_545 S
Eu1456 O1458 2.370 1_545 S
Eu1456 O1463 2.370 . S
Eu1456 O1464 2.370 . S
Eu1456 O1472 2.363 . S
Eu1456 O1473 2.363 1_545 S
Eu1456 O1488 2.363 . S
Eu1456 O1489 2.363 . S
O1457 Eu1452 2.370 1_655 S
O1457 Eu1455 2.370 1_565 S
O1457 Eu1459 2.370 1_665 S
O1458 Eu1452 2.370 . S
O1458 Eu1456 2.370 1_565 S
O1458 Eu1460 2.370 1_565 S
Eu1459 O1454 2.370 1_545 S
Eu1459 O1457 2.370 1_445 S
Eu1459 O1461 2.370 1_455 S
Eu1459 O1464 2.370 . S
Eu1459 O1476 2.363 . S
Eu1459 O1477 2.363 1_455 S
Eu1459 O1484 2.363 1_545 S
Eu1459 O1485 2.363 . S
Eu1460 O1453 2.370 1_445 S
Eu1460 O1458 2.370 1_545 S
Eu1460 O1462 2.370 1_455 S
Eu1460 O1463 2.370 . S
Eu1460 O1474 2.363 . S
Eu1460 O1475 2.363 1_455 S
Eu1460 O1482 2.363 1_545 S
Eu1460 O1483 2.363 . S
O1461 Eu1455 2.370 . S
O1461 Eu1459 2.370 1_655 S
O1461 Eu1465 2.370 1_655 S
O1462 Eu1455 2.370 . S
O1462 Eu1460 2.370 1_655 S
O1462 Eu1465 2.370 1_655 S
O1463 Eu1456 2.370 . S
O1463 Eu1460 2.370 . S
O1463 Eu1465 2.370 . S
O1464 Eu1456 2.370 . S
O1464 Eu1459 2.370 . S
O1464 Eu1465 2.370 . S
Eu1465 O1461 2.370 1_455 S
Eu1465 O1462 2.370 1_455 S
Eu1465 O1463 2.370 . S
Eu1465 O1464 2.370 . S
Eu1465 O1468 2.363 . S
Eu1465 O1469 2.363 . S
Eu1465 O1478 2.363 . S
Eu1465 O1479 2.363 1_455 S
O1466 C1440 1.283 . S
O1466 Eu1452 2.363 . S
O1467 C1441 1.283 . S
O1467 Eu1452 2.363 . S
O1468 C1442 1.283 . S
O1468 Eu1465 2.363 . S
O1469 C1443 1.283 . S
O1469 Eu1465 2.363 . S
O1470 C1444 1.283 . S
O1470 Eu1455 2.363 . S
O1471 C1445 1.283 . S
O1471 Eu1455 2.363 1_565 S
O1472 C1446 1.283 . S
O1472 Eu1456 2.363 . S
O1473 C1447 1.283 . S
O1473 Eu1456 2.363 1_565 S
O1474 C1448 1.283 . S
O1474 Eu1460 2.363 . S
O1475 C1449 1.283 . S
O1475 Eu1460 2.363 1_655 S
O1476 C1450 1.283 . S
O1476 Eu1459 2.363 . S
O1477 C1451 1.283 . S
O1477 Eu1459 2.363 1_655 S
O1478 C1446 1.283 . S
O1478 Eu1465 2.363 . S
O1479 C1444 1.283 . S
O1479 Eu1465 2.363 1_655 S
O1480 C1447 1.283 . S
O1480 Eu1452 2.363 . S
O1481 C1445 1.283 . S
O1481 Eu1452 2.363 1_655 S
O1482 C1441 1.283 . S
O1482 Eu1460 2.363 1_565 S
O1483 C1443 1.283 . S
O1483 Eu1460 2.363 . S
O1484 C1440 1.283 . S
O1484 Eu1459 2.363 1_565 S
O1485 C1442 1.283 . S
O1485 Eu1459 2.363 . S
O1486 C1451 1.283 . S
O1486 Eu1455 2.363 . S
O1487 C1449 1.283 . S
O1487 Eu1455 2.363 . S
O1488 C1450 1.283 . S
O1488 Eu1456 2.363 . S
O1489 C1448 1.283 . S
O1489 Eu1456 2.363 . S
C1490 O1516 1.283 . S
C1490 O1534 1.283 . S
C1491 O1517 1.283 . S
C1491 O1532 1.283 . S
C1492 O1518 1.283 . S
C1492 O1535 1.283 . S
C1493 O1519 1.283 . S
C1493 O1533 1.283 . S
C1494 O1520 1.283 . S
C1494 O1529 1.283 . S
C1495 O1521 1.283 . S
C1495 O1531 1.283 . S
C1496 O1522 1.283 . S
C1496 O1528 1.283 . S
C1497 O1523 1.283 . S
C1497 O1530 1.283 . S
C1498 O1524 1.283 . S
C1498 O1539 1.283 . S
C1499 O1525 1.283 . S
C1499 O1537 1.283 . S
C1500 O1526 1.283 . S
C1500 O1538 1.283 . S
C1501 O1527 1.283 . S
C1501 O1536 1.283 . S
Eu1502 O1503 2.370 . S
Eu1502 O1504 2.370 1_545 S
Eu1502 O1507 2.370 1_545 S
Eu1502 O1508 2.370 . S
Eu1502 O1516 2.363 1_545 S
Eu1502 O1517 2.363 . S
Eu1502 O1530 2.363 . S
Eu1502 O1531 2.363 . S
O1503 Eu1502 2.370 . S
O1503 Eu1505 2.370 . S
O1503 Eu1510 2.370 . S
O1504 Eu1502 2.370 1_565 S
O1504 Eu1506 2.370 1_565 S
O1504 Eu1509 2.370 . S
Eu1505 O1503 2.370 . S
Eu1505 O1507 2.370 1_545 S
Eu1505 O1511 2.370 1_544 S
Eu1505 O1512 2.370 1_554 S
Eu1505 O1520 2.363 1_554 S
Eu1505 O1521 2.363 . S
Eu1505 O1536 2.363 1_545 S
Eu1505 O1537 2.363 . S
Eu1506 O1504 2.370 1_545 S
Eu1506 O1508 2.370 . S
Eu1506 O1513 2.370 1_554 S
Eu1506 O1514 2.370 1_544 S
Eu1506 O1522 2.363 1_554 S
Eu1506 O1523 2.363 . S
Eu1506 O1538 2.363 1_545 S
Eu1506 O1539 2.363 . S
O1507 Eu1502 2.370 1_565 S
O1507 Eu1505 2.370 1_565 S
O1507 Eu1509 2.370 . S
O1508 Eu1502 2.370 . S
O1508 Eu1506 2.370 . S
O1508 Eu1510 2.370 . S
Eu1509 O1504 2.370 . S
Eu1509 O1507 2.370 . S
Eu1509 O1511 2.370 1_554 S
Eu1509 O1514 2.370 1_554 S
Eu1509 O1526 2.363 . S
Eu1509 O1527 2.363 . S
Eu1509 O1534 2.363 . S
Eu1509 O1535 2.363 1_554 S
Eu1510 O1503 2.370 . S
Eu1510 O1508 2.370 . S
Eu1510 O1512 2.370 1_554 S
Eu1510 O1513 2.370 1_554 S
Eu1510 O1524 2.363 . S
Eu1510 O1525 2.363 . S
Eu1510 O1532 2.363 . S
Eu1510 O1533 2.363 1_554 S
O1511 Eu1505 2.370 1_566 S
O1511 Eu1509 2.370 1_556 S
O1511 Eu1515 2.370 1_565 S
O1512 Eu1505 2.370 1_556 S
O1512 Eu1510 2.370 1_556 S
O1512 Eu1515 2.370 . S
O1513 Eu1506 2.370 1_556 S
O1513 Eu1510 2.370 1_556 S
O1513 Eu1515 2.370 . S
O1514 Eu1506 2.370 1_566 S
O1514 Eu1509 2.370 1_556 S
O1514 Eu1515 2.370 1_565 S
Eu1515 O1511 2.370 1_545 S
Eu1515 O1512 2.370 . S
Eu1515 O1513 2.370 . S
Eu1515 O1514 2.370 1_545 S
Eu1515 O1518 2.363 1_545 S
Eu1515 O1519 2.363 . S
Eu1515 O1528 2.363 . S
Eu1515 O1529 2.363 . S
O1516 C1490 1.283 . S
O1516 Eu1502 2.363 1_565 S
O1517 C1491 1.283 . S
O1517 Eu1502 2.363 . S
O1518 C1492 1.283 . S
O1518 Eu1515 2.363 1_565 S
O1519 C1493 1.283 . S
O1519 Eu1515 2.363 . S
O1520 C1494 1.283 . S
O1520 Eu1505 2.363 1_556 S
O1521 C1495 1.283 . S
O1521 Eu1505 2.363 . S
O1522 C1496 1.283 . S
O1522 Eu1506 2.363 1_556 S
O1523 C1497 1.283 . S
O1523 Eu1506 2.363 . S
O1524 C1498 1.283 . S
O1524 Eu1510 2.363 . S
O1525 C1499 1.283 . S
O1525 Eu1510 2.363 . S
O1526 C1500 1.283 . S
O1526 Eu1509 2.363 . S
O1527 C1501 1.283 . S
O1527 Eu1509 2.363 . S
O1528 C1496 1.283 . S
O1528 Eu1515 2.363 . S
O1529 C1494 1.283 . S
O1529 Eu1515 2.363 . S
O1530 C1497 1.283 . S
O1530 Eu1502 2.363 . S
O1531 C1495 1.283 . S
O1531 Eu1502 2.363 . S
O1532 C1491 1.283 . S
O1532 Eu1510 2.363 . S
O1533 C1493 1.283 . S
O1533 Eu1510 2.363 1_556 S
O1534 C1490 1.283 . S
O1534 Eu1509 2.363 . S
O1535 C1492 1.283 . S
O1535 Eu1509 2.363 1_556 S
O1536 C1501 1.283 . S
O1536 Eu1505 2.363 1_565 S
O1537 C1499 1.283 . S
O1537 Eu1505 2.363 . S
O1538 C1500 1.283 . S
O1538 Eu1506 2.363 1_565 S
O1539 C1498 1.283 . S
O1539 Eu1506 2.363 . S
C1540 O1566 1.283 . S
C1540 O1584 1.283 . S
C1541 O1567 1.283 . S
C1541 O1582 1.283 . S
C1542 O1568 1.283 . S
C1542 O1585 1.283 . S
C1543 O1569 1.283 . S
C1543 O1583 1.283 . S
C1544 O1570 1.283 . S
C1544 O1579 1.283 . S
C1545 O1571 1.283 . S
C1545 O1581 1.283 . S
C1546 O1572 1.283 . S
C1546 O1578 1.283 . S
C1547 O1573 1.283 . S
C1547 O1580 1.283 . S
C1548 O1574 1.283 . S
C1548 O1589 1.283 . S
C1549 O1575 1.283 . S
C1549 O1587 1.283 . S
C1550 O1576 1.283 . S
C1550 O1588 1.283 . S
C1551 O1577 1.283 . S
C1551 O1586 1.283 . S
Eu1552 O1553 2.370 1_454 S
Eu1552 O1554 2.370 . S
Eu1552 O1557 2.370 1_455 S
Eu1552 O1558 2.370 1_554 S
Eu1552 O1566 2.363 . S
Eu1552 O1567 2.363 1_554 S
Eu1552 O1580 2.363 . S
Eu1552 O1581 2.363 1_455 S
O1553 Eu1552 2.370 1_656 S
O1553 Eu1555 2.370 1_556 S
O1553 Eu1560 2.370 1_655 S
O1554 Eu1552 2.370 . S
O1554 Eu1556 2.370 . S
O1554 Eu1559 2.370 . S
Eu1555 O1553 2.370 1_554 S
Eu1555 O1557 2.370 . S
Eu1555 O1561 2.370 . S
Eu1555 O1562 2.370 1_554 S
Eu1555 O1570 2.363 . S
Eu1555 O1571 2.363 . S
Eu1555 O1586 2.363 . S
Eu1555 O1587 2.363 1_554 S
Eu1556 O1554 2.370 . S
Eu1556 O1558 2.370 1_554 S
Eu1556 O1563 2.370 1_554 S
Eu1556 O1564 2.370 . S
Eu1556 O1572 2.363 . S
Eu1556 O1573 2.363 . S
Eu1556 O1588 2.363 . S
Eu1556 O1589 2.363 1_554 S
O1557 Eu1552 2.370 1_655 S
O1557 Eu1555 2.370 . S
O1557 Eu1559 2.370 1_655 S
O1558 Eu1552 2.370 1_556 S
O1558 Eu1556 2.370 1_556 S
O1558 Eu1560 2.370 . S
Eu1559 O1554 2.370 . S
Eu1559 O1557 2.370 1_455 S
Eu1559 O1561 2.370 1_455 S
Eu1559 O1564 2.370 . S
Eu1559 O1576 2.363 . S
Eu1559 O1577 2.363 1_455 S
Eu1559 O1584 2.363 . S
Eu1559 O1585 2.363 . S
Eu1560 O1553 2.370 1_455 S
Eu1560 O1558 2.370 . S
Eu1560 O1562 2.370 1_455 S
Eu1560 O1563 2.370 . S
Eu1560 O1574 2.363 . S
Eu1560 O1575 2.363 1_455 S
Eu1560 O1582 2.363 . S
Eu1560 O1583 2.363 . S
O1561 Eu1555 2.370 . S
O1561 Eu1559 2.370 1_655 S
O1561 Eu1565 2.370 1_655 S
O1562 Eu1555 2.370 1_556 S
O1562 Eu1560 2.370 1_655 S
O1562 Eu1565 2.370 1_656 S
O1563 Eu1556 2.370 1_556 S
O1563 Eu1560 2.370 . S
O1563 Eu1565 2.370 1_556 S
O1564 Eu1556 2.370 . S
O1564 Eu1559 2.370 . S
O1564 Eu1565 2.370 . S
Eu1565 O1561 2.370 1_455 S
Eu1565 O1562 2.370 1_454 S
Eu1565 O1563 2.370 1_554 S
Eu1565 O1564 2.370 . S
Eu1565 O1568 2.363 . S
Eu1565 O1569 2.363 1_554 S
Eu1565 O1578 2.363 . S
Eu1565 O1579 2.363 1_455 S
O1566 C1540 1.283 . S
O1566 Eu1552 2.363 . S
O1567 C1541 1.283 . S
O1567 Eu1552 2.363 1_556 S
O1568 C1542 1.283 . S
O1568 Eu1565 2.363 . S
O1569 C1543 1.283 . S
O1569 Eu1565 2.363 1_556 S
O1570 C1544 1.283 . S
O1570 Eu1555 2.363 . S
O1571 C1545 1.283 . S
O1571 Eu1555 2.363 . S
O1572 C1546 1.283 . S
O1572 Eu1556 2.363 . S
O1573 C1547 1.283 . S
O1573 Eu1556 2.363 . S
O1574 C1548 1.283 . S
O1574 Eu1560 2.363 . S
O1575 C1549 1.283 . S
O1575 Eu1560 2.363 1_655 S
O1576 C1550 1.283 . S
O1576 Eu1559 2.363 . S
O1577 C1551 1.283 . S
O1577 Eu1559 2.363 1_655 S
O1578 C1546 1.283 . S
O1578 Eu1565 2.363 . S
O1579 C1544 1.283 . S
O1579 Eu1565 2.363 1_655 S
O1580 C1547 1.283 . S
O1580 Eu1552 2.363 . S
O1581 C1545 1.283 . S
O1581 Eu1552 2.363 1_655 S
O1582 C1541 1.283 . S
O1582 Eu1560 2.363 . S
O1583 C1543 1.283 . S
O1583 Eu1560 2.363 . S
O1584 C1540 1.283 . S
O1584 Eu1559 2.363 . S
O1585 C1542 1.283 . S
O1585 Eu1559 2.363 . S
O1586 C1551 1.283 . S
O1586 Eu1555 2.363 . S
O1587 C1549 1.283 . S
O1587 Eu1555 2.363 1_556 S
O1588 C1550 1.283 . S
O1588 Eu1556 2.363 . S
O1589 C1548 1.283 . S
O1589 Eu1556 2.363 1_556 S
C1590 O1616 1.283 . S
C1590 O1634 1.283 . S
C1591 O1617 1.283 . S
C1591 O1632 1.283 . S
C1592 O1618 1.283 . S
C1592 O1635 1.283 . S
C1593 O1619 1.283 . S
C1593 O1633 1.283 . S
C1594 O1620 1.283 . S
C1594 O1629 1.283 . S
C1595 O1621 1.283 . S
C1595 O1631 1.283 . S
C1596 O1622 1.283 . S
C1596 O1628 1.283 . S
C1597 O1623 1.283 . S
C1597 O1630 1.283 . S
C1598 O1624 1.283 . S
C1598 O1639 1.283 . S
C1599 O1625 1.283 . S
C1599 O1637 1.283 . S
C1600 O1626 1.283 . S
C1600 O1638 1.283 . S
C1601 O1627 1.283 . S
C1601 O1636 1.283 . S
Eu1602 O1603 2.370 . S
Eu1602 O1604 2.370 . S
Eu1602 O1607 2.370 . S
Eu1602 O1608 2.370 . S
Eu1602 O1616 2.363 . S
Eu1602 O1617 2.363 . S
Eu1602 O1630 2.363 . S
Eu1602 O1631 2.363 . S
O1603 Eu1602 2.370 . S
O1603 Eu1605 2.370 . S
O1603 Eu1610 2.370 . S
O1604 Eu1602 2.370 . S
O1604 Eu1606 2.370 . S
O1604 Eu1609 2.370 . S
Eu1605 O1603 2.370 . S
Eu1605 O1607 2.370 . S
Eu1605 O1611 2.370 1_554 S
Eu1605 O1612 2.370 1_554 S
Eu1605 O1620 2.363 1_554 S
Eu1605 O1621 2.363 . S
Eu1605 O1636 2.363 . S
Eu1605 O1637 2.363 . S
Eu1606 O1604 2.370 . S
Eu1606 O1608 2.370 . S
Eu1606 O1613 2.370 1_554 S
Eu1606 O1614 2.370 1_554 S
Eu1606 O1622 2.363 1_554 S
Eu1606 O1623 2.363 . S
Eu1606 O1638 2.363 . S
Eu1606 O1639 2.363 . S
O1607 Eu1602 2.370 . S
O1607 Eu1605 2.370 . S
O1607 Eu1609 2.370 . S
O1608 Eu1602 2.370 . S
O1608 Eu1606 2.370 . S
O1608 Eu1610 2.370 . S
Eu1609 O1604 2.370 . S
Eu1609 O1607 2.370 . S
Eu1609 O1611 2.370 1_554 S
Eu1609 O1614 2.370 1_554 S
Eu1609 O1626 2.363 . S
Eu1609 O1627 2.363 . S
Eu1609 O1634 2.363 . S
Eu1609 O1635 2.363 1_554 S
Eu1610 O1603 2.370 . S
Eu1610 O1608 2.370 . S
Eu1610 O1612 2.370 1_554 S
Eu1610 O1613 2.370 1_554 S
Eu1610 O1624 2.363 . S
Eu1610 O1625 2.363 . S
Eu1610 O1632 2.363 . S
Eu1610 O1633 2.363 1_554 S
O1611 Eu1605 2.370 1_556 S
O1611 Eu1609 2.370 1_556 S
O1611 Eu1615 2.370 . S
O1612 Eu1605 2.370 1_556 S
O1612 Eu1610 2.370 1_556 S
O1612 Eu1615 2.370 . S
O1613 Eu1606 2.370 1_556 S
O1613 Eu1610 2.370 1_556 S
O1613 Eu1615 2.370 . S
O1614 Eu1606 2.370 1_556 S
O1614 Eu1609 2.370 1_556 S
O1614 Eu1615 2.370 . S
Eu1615 O1611 2.370 . S
Eu1615 O1612 2.370 . S
Eu1615 O1613 2.370 . S
Eu1615 O1614 2.370 . S
Eu1615 O1618 2.363 . S
Eu1615 O1619 2.363 . S
Eu1615 O1628 2.363 . S
Eu1615 O1629 2.363 . S
O1616 C1590 1.283 . S
O1616 Eu1602 2.363 . S
O1617 C1591 1.283 . S
O1617 Eu1602 2.363 . S
O1618 C1592 1.283 . S
O1618 Eu1615 2.363 . S
O1619 C1593 1.283 . S
O1619 Eu1615 2.363 . S
O1620 C1594 1.283 . S
O1620 Eu1605 2.363 1_556 S
O1621 C1595 1.283 . S
O1621 Eu1605 2.363 . S
O1622 C1596 1.283 . S
O1622 Eu1606 2.363 1_556 S
O1623 C1597 1.283 . S
O1623 Eu1606 2.363 . S
O1624 C1598 1.283 . S
O1624 Eu1610 2.363 . S
O1625 C1599 1.283 . S
O1625 Eu1610 2.363 . S
O1626 C1600 1.283 . S
O1626 Eu1609 2.363 . S
O1627 C1601 1.283 . S
O1627 Eu1609 2.363 . S
O1628 C1596 1.283 . S
O1628 Eu1615 2.363 . S
O1629 C1594 1.283 . S
O1629 Eu1615 2.363 . S
O1630 C1597 1.283 . S
O1630 Eu1602 2.363 . S
O1631 C1595 1.283 . S
O1631 Eu1602 2.363 . S
O1632 C1591 1.283 . S
O1632 Eu1610 2.363 . S
O1633 C1593 1.283 . S
O1633 Eu1610 2.363 1_556 S
O1634 C1590 1.283 . S
O1634 Eu1609 2.363 . S
O1635 C1592 1.283 . S
O1635 Eu1609 2.363 1_556 S
O1636 C1601 1.283 . S
O1636 Eu1605 2.363 . S
O1637 C1599 1.283 . S
O1637 Eu1605 2.363 . S
O1638 C1600 1.283 . S
O1638 Eu1606 2.363 . S
O1639 C1598 1.283 . S
O1639 Eu1606 2.363 . S
C1640 O1666 1.283 . S
C1640 O1684 1.283 . S
C1641 O1667 1.283 . S
C1641 O1682 1.283 . S
C1642 O1668 1.283 . S
C1642 O1685 1.283 . S
C1643 O1669 1.283 . S
C1643 O1683 1.283 . S
C1644 O1670 1.283 . S
C1644 O1679 1.283 . S
C1645 O1671 1.283 . S
C1645 O1681 1.283 . S
C1646 O1672 1.283 . S
C1646 O1678 1.283 . S
C1647 O1673 1.283 . S
C1647 O1680 1.283 . S
C1648 O1674 1.283 . S
C1648 O1689 1.283 . S
C1649 O1675 1.283 . S
C1649 O1687 1.283 . S
C1650 O1676 1.283 . S
C1650 O1688 1.283 . S
C1651 O1677 1.283 . S
C1651 O1686 1.283 . S
Eu1652 O1653 2.370 1_455 S
Eu1652 O1654 2.370 . S
Eu1652 O1657 2.370 1_455 S
Eu1652 O1658 2.370 . S
Eu1652 O1666 2.363 . S
Eu1652 O1667 2.363 . S
Eu1652 O1680 2.363 . S
Eu1652 O1681 2.363 1_455 S
O1653 Eu1652 2.370 1_655 S
O1653 Eu1655 2.370 . S
O1653 Eu1660 2.370 1_655 S
O1654 Eu1652 2.370 . S
O1654 Eu1656 2.370 . S
O1654 Eu1659 2.370 . S
Eu1655 O1653 2.370 . S
Eu1655 O1657 2.370 . S
Eu1655 O1661 2.370 . S
Eu1655 O1662 2.370 . S
Eu1655 O1670 2.363 . S
Eu1655 O1671 2.363 . S
Eu1655 O1686 2.363 . S
Eu1655 O1687 2.363 . S
Eu1656 O1654 2.370 . S
Eu1656 O1658 2.370 . S
Eu1656 O1663 2.370 . S
Eu1656 O1664 2.370 . S
Eu1656 O1672 2.363 . S
Eu1656 O1673 2.363 . S
Eu1656 O1688 2.363 . S
Eu1656 O1689 2.363 . S
O1657 Eu1652 2.370 1_655 S
O1657 Eu1655 2.370 . S
O1657 Eu1659 2.370 1_655 S
O1658 Eu1652 2.370 . S
O1658 Eu1656 2.370 . S
O1658 Eu1660 2.370 . S
Eu1659 O1654 2.370 . S
Eu1659 O1657 2.370 1_455 S
Eu1659 O1661 2.370 1_455 S
Eu1659 O1664 2.370 . S
Eu1659 O1676 2.363 . S
Eu1659 O1677 2.363 1_455 S
Eu1659 O1684 2.363 . S
Eu1659 O1685 2.363 . S
Eu1660 O1653 2.370 1_455 S
Eu1660 O1658 2.370 . S
Eu1660 O1662 2.370 1_455 S
Eu1660 O1663 2.370 . S
Eu1660 O1674 2.363 . S
Eu1660 O1675 2.363 1_455 S
Eu1660 O1682 2.363 . S
Eu1660 O1683 2.363 . S
O1661 Eu1655 2.370 . S
O1661 Eu1659 2.370 1_655 S
O1661 Eu1665 2.370 1_655 S
O1662 Eu1655 2.370 . S
O1662 Eu1660 2.370 1_655 S
O1662 Eu1665 2.370 1_655 S
O1663 Eu1656 2.370 . S
O1663 Eu1660 2.370 . S
O1663 Eu1665 2.370 . S
O1664 Eu1656 2.370 . S
O1664 Eu1659 2.370 . S
O1664 Eu1665 2.370 . S
Eu1665 O1661 2.370 1_455 S
Eu1665 O1662 2.370 1_455 S
Eu1665 O1663 2.370 . S
Eu1665 O1664 2.370 . S
Eu1665 O1668 2.363 . S
Eu1665 O1669 2.363 . S
Eu1665 O1678 2.363 . S
Eu1665 O1679 2.363 1_455 S
O1666 C1640 1.283 . S
O1666 Eu1652 2.363 . S
O1667 C1641 1.283 . S
O1667 Eu1652 2.363 . S
O1668 C1642 1.283 . S
O1668 Eu1665 2.363 . S
O1669 C1643 1.283 . S
O1669 Eu1665 2.363 . S
O1670 C1644 1.283 . S
O1670 Eu1655 2.363 . S
O1671 C1645 1.283 . S
O1671 Eu1655 2.363 . S
O1672 C1646 1.283 . S
O1672 Eu1656 2.363 . S
O1673 C1647 1.283 . S
O1673 Eu1656 2.363 . S
O1674 C1648 1.283 . S
O1674 Eu1660 2.363 . S
O1675 C1649 1.283 . S
O1675 Eu1660 2.363 1_655 S
O1676 C1650 1.283 . S
O1676 Eu1659 2.363 . S
O1677 C1651 1.283 . S
O1677 Eu1659 2.363 1_655 S
O1678 C1646 1.283 . S
O1678 Eu1665 2.363 . S
O1679 C1644 1.283 . S
O1679 Eu1665 2.363 1_655 S
O1680 C1647 1.283 . S
O1680 Eu1652 2.363 . S
O1681 C1645 1.283 . S
O1681 Eu1652 2.363 1_655 S
O1682 C1641 1.283 . S
O1682 Eu1660 2.363 . S
O1683 C1643 1.283 . S
O1683 Eu1660 2.363 . S
O1684 C1640 1.283 . S
O1684 Eu1659 2.363 . S
O1685 C1642 1.283 . S
O1685 Eu1659 2.363 . S
O1686 C1651 1.283 . S
O1686 Eu1655 2.363 . S
O1687 C1649 1.283 . S
O1687 Eu1655 2.363 . S
O1688 C1650 1.283 . S
O1688 Eu1656 2.363 . S
O1689 C1648 1.283 . S
O1689 Eu1656 2.363 . S
C1690 O1716 1.283 . S
C1690 O1734 1.283 . S
C1691 O1717 1.283 . S
C1691 O1732 1.283 . S
C1692 O1718 1.283 . S
C1692 O1735 1.283 . S
C1693 O1719 1.283 . S
C1693 O1733 1.283 . S
C1694 O1720 1.283 . S
C1694 O1729 1.283 . S
C1695 O1721 1.283 . S
C1695 O1731 1.283 . S
C1696 O1722 1.283 . S
C1696 O1728 1.283 . S
C1697 O1723 1.283 . S
C1697 O1730 1.283 . S
C1698 O1724 1.283 . S
C1698 O1739 1.283 . S
C1699 O1725 1.283 . S
C1699 O1737 1.283 . S
C1700 O1726 1.283 . S
C1700 O1738 1.283 . S
C1701 O1727 1.283 . S
C1701 O1736 1.283 . S
Eu1702 O1703 2.370 . S
Eu1702 O1704 2.370 . S
Eu1702 O1707 2.370 . S
Eu1702 O1708 2.370 . S
Eu1702 O1716 2.363 . S
Eu1702 O1717 2.363 . S
Eu1702 O1730 2.363 . S
Eu1702 O1731 2.363 . S
O1703 Eu1702 2.370 . S
O1703 Eu1705 2.370 1_565 S
O1703 Eu1710 2.370 1_565 S
O1704 Eu1702 2.370 . S
O1704 Eu1706 2.370 1_565 S
O1704 Eu1709 2.370 1_565 S
Eu1705 O1703 2.370 1_545 S
Eu1705 O1707 2.370 1_545 S
Eu1705 O1711 2.370 . S
Eu1705 O1712 2.370 . S
Eu1705 O1720 2.363 . S
Eu1705 O1721 2.363 1_545 S
Eu1705 O1736 2.363 . S
Eu1705 O1737 2.363 . S
Eu1706 O1704 2.370 1_545 S
Eu1706 O1708 2.370 1_545 S
Eu1706 O1713 2.370 . S
Eu1706 O1714 2.370 . S
Eu1706 O1722 2.363 . S
Eu1706 O1723 2.363 1_545 S
Eu1706 O1738 2.363 . S
Eu1706 O1739 2.363 . S
O1707 Eu1702 2.370 . S
O1707 Eu1705 2.370 1_565 S
O1707 Eu1709 2.370 1_565 S
O1708 Eu1702 2.370 . S
O1708 Eu1706 2.370 1_565 S
O1708 Eu1710 2.370 1_565 S
Eu1709 O1704 2.370 1_545 S
Eu1709 O1707 2.370 1_545 S
Eu1709 O1711 2.370 . S
Eu1709 O1714 2.370 . S
Eu1709 O1726 2.363 . S
Eu1709 O1727 2.363 . S
Eu1709 O1734 2.363 1_545 S
Eu1709 O1735 2.363 . S
Eu1710 O1703 2.370 1_545 S
Eu1710 O1708 2.370 1_545 S
Eu1710 O1712 2.370 . S
Eu1710 O1713 2.370 . S
Eu1710 O1724 2.363 . S
Eu1710 O1725 2.363 . S
Eu1710 O1732 2.363 1_545 S
Eu1710 O1733 2.363 . S
O1711 Eu1705 2.370 . S
O1711 Eu1709 2.370 . S
O1711 Eu1715 2.370 . S
O1712 Eu1705 2.370 . S
O1712 Eu1710 2.370 . S
O1712 Eu1715 2.370 . S
O1713 Eu1706 2.370 . S
O1713 Eu1710 2.370 . S
O1713 Eu1715 2.370 . S
O1714 Eu1706 2.370 . S
O1714 Eu1709 2.370 . S
O1714 Eu1715 2.370 . S
Eu1715 O1711 2.370 . S
Eu1715 O1712 2.370 . S
Eu1715 O1713 2.370 . S
Eu1715 O1714 2.370 . S
Eu1715 O1718 2.363 . S
Eu1715 O1719 2.363 . S
Eu1715 O1728 2.363 . S
Eu1715 O1729 2.363 . S
O1716 C1690 1.283 . S
O1716 Eu1702 2.363 . S
O1717 C1691 1.283 . S
O1717 Eu1702 2.363 . S
O1718 C1692 1.283 . S
O1718 Eu1715 2.363 . S
O1719 C1693 1.283 . S
O1719 Eu1715 2.363 . S
O1720 C1694 1.283 . S
O1720 Eu1705 2.363 . S
O1721 C1695 1.283 . S
O1721 Eu1705 2.363 1_565 S
O1722 C1696 1.283 . S
O1722 Eu1706 2.363 . S
O1723 C1697 1.283 . S
O1723 Eu1706 2.363 1_565 S
O1724 C1698 1.283 . S
O1724 Eu1710 2.363 . S
O1725 C1699 1.283 . S
O1725 Eu1710 2.363 . S
O1726 C1700 1.283 . S
O1726 Eu1709 2.363 . S
O1727 C1701 1.283 . S
O1727 Eu1709 2.363 . S
O1728 C1696 1.283 . S
O1728 Eu1715 2.363 . S
O1729 C1694 1.283 . S
O1729 Eu1715 2.363 . S
O1730 C1697 1.283 . S
O1730 Eu1702 2.363 . S
O1731 C1695 1.283 . S
O1731 Eu1702 2.363 . S
O1732 C1691 1.283 . S
O1732 Eu1710 2.363 1_565 S
O1733 C1693 1.283 . S
O1733 Eu1710 2.363 . S
O1734 C1690 1.283 . S
O1734 Eu1709 2.363 1_565 S
O1735 C1692 1.283 . S
O1735 Eu1709 2.363 . S
O1736 C1701 1.283 . S
O1736 Eu1705 2.363 . S
O1737 C1699 1.283 . S
O1737 Eu1705 2.363 . S
O1738 C1700 1.283 . S
O1738 Eu1706 2.363 . S
O1739 C1698 1.283 . S
O1739 Eu1706 2.363 . S
C1740 C1741 1.387 . S
C1740 H1744 0.950 . S
C1740 C1749 1.390 . S
C1741 C1740 1.387 . S
C1741 C1743 1.387 . S
H1742 C1749 0.950 . S
C1743 C1741 1.387 . S
C1743 C1745 1.390 . S
C1743 H1747 0.950 . S
H1744 C1740 0.950 . S
C1745 C1743 1.390 . S
C1745 C1746 1.387 . S
C1745 H1748 0.950 . S
C1746 C1745 1.387 . S
C1746 C1749 1.387 . S
H1747 C1743 0.950 . S
H1748 C1745 0.950 . S
C1749 C1740 1.390 . S
C1749 H1742 0.950 . S
C1749 C1746 1.387 . S
C1750 C1751 1.387 . S
C1750 H1754 0.950 . S
C1750 C1759 1.390 . S
C1751 C1750 1.387 . S
C1751 C1753 1.387 . S
H1752 C1759 0.950 . S
C1753 C1751 1.387 . S
C1753 C1755 1.390 . S
C1753 H1757 0.950 . S
H1754 C1750 0.950 . S
C1755 C1753 1.390 . S
C1755 C1756 1.387 . S
C1755 H1758 0.950 . S
C1756 C1755 1.387 . S
C1756 C1759 1.387 . S
H1757 C1753 0.950 . S
H1758 C1755 0.950 . S
C1759 C1750 1.390 . S
C1759 H1752 0.950 . S
C1759 C1756 1.387 . S
C1760 C1761 1.387 . S
C1760 H1764 0.950 . S
C1760 C1769 1.390 . S
C1761 C1760 1.387 . S
C1761 C1763 1.387 . S
H1762 C1769 0.950 . S
C1763 C1761 1.387 . S
C1763 C1765 1.390 . S
C1763 H1767 0.950 . S
H1764 C1760 0.950 . S
C1765 C1763 1.390 . S
C1765 C1766 1.387 . S
C1765 H1768 0.950 . S
C1766 C1765 1.387 . S
C1766 C1769 1.387 . S
H1767 C1763 0.950 . S
H1768 C1765 0.950 . S
C1769 C1760 1.390 . S
C1769 H1762 0.950 . S
C1769 C1766 1.387 . S
C1770 C1771 1.387 . S
C1770 H1774 0.950 . S
C1770 C1779 1.390 . S
C1771 C1770 1.387 . S
C1771 C1773 1.387 . S
H1772 C1779 0.950 . S
C1773 C1771 1.387 . S
C1773 C1775 1.390 . S
C1773 H1777 0.950 . S
H1774 C1770 0.950 . S
C1775 C1773 1.390 . S
C1775 C1776 1.387 . S
C1775 H1778 0.950 . S
C1776 C1775 1.387 . S
C1776 C1779 1.387 . S
H1777 C1773 0.950 . S
H1778 C1775 0.950 . S
C1779 C1770 1.390 . S
C1779 H1772 0.950 . S
C1779 C1776 1.387 . S
C1780 C1781 1.387 . S
C1780 H1784 0.950 . S
C1780 C1789 1.390 . S
C1781 C1780 1.387 . S
C1781 C1783 1.387 . S
H1782 C1789 0.950 . S
C1783 C1781 1.387 . S
C1783 C1785 1.390 . S
C1783 H1787 0.950 . S
H1784 C1780 0.950 . S
C1785 C1783 1.390 . S
C1785 C1786 1.387 . S
C1785 H1788 0.950 . S
C1786 C1785 1.387 . S
C1786 C1789 1.387 . S
H1787 C1783 0.950 . S
H1788 C1785 0.950 . S
C1789 C1780 1.390 . S
C1789 H1782 0.950 . S
C1789 C1786 1.387 . S
C1790 C1791 1.387 . S
C1790 H1794 0.950 . S
C1790 C1799 1.390 . S
C1791 C1790 1.387 . S
C1791 C1793 1.387 . S
H1792 C1799 0.950 . S
C1793 C1791 1.387 . S
C1793 C1795 1.390 . S
C1793 H1797 0.950 . S
H1794 C1790 0.950 . S
C1795 C1793 1.390 . S
C1795 C1796 1.387 . S
C1795 H1798 0.950 . S
C1796 C1795 1.387 . S
C1796 C1799 1.387 . S
H1797 C1793 0.950 . S
H1798 C1795 0.950 . S
C1799 C1790 1.390 . S
C1799 H1792 0.950 . S
C1799 C1796 1.387 . S
C1800 C1801 1.387 . S
C1800 H1804 0.950 . S
C1800 C1809 1.390 . S
C1801 C1800 1.387 . S
C1801 C1803 1.387 . S
H1802 C1809 0.950 . S
C1803 C1801 1.387 . S
C1803 C1805 1.390 . S
C1803 H1807 0.950 . S
H1804 C1800 0.950 . S
C1805 C1803 1.390 . S
C1805 C1806 1.387 . S
C1805 H1808 0.950 . S
C1806 C1805 1.387 . S
C1806 C1809 1.387 . S
H1807 C1803 0.950 . S
H1808 C1805 0.950 . S
C1809 C1800 1.390 . S
C1809 H1802 0.950 . S
C1809 C1806 1.387 . S
C1810 C1811 1.387 . S
C1810 H1814 0.950 . S
C1810 C1819 1.390 . S
C1811 C1810 1.387 . S
C1811 C1813 1.387 . S
H1812 C1819 0.950 . S
C1813 C1811 1.387 . S
C1813 C1815 1.390 . S
C1813 H1817 0.950 . S
H1814 C1810 0.950 . S
C1815 C1813 1.390 . S
C1815 C1816 1.387 . S
C1815 H1818 0.950 . S
C1816 C1815 1.387 . S
C1816 C1819 1.387 . S
H1817 C1813 0.950 . S
H1818 C1815 0.950 . S
C1819 C1810 1.390 . S
C1819 H1812 0.950 . S
C1819 C1816 1.387 . S
C1820 C1821 1.387 . S
C1820 H1824 0.950 . S
C1820 C1829 1.390 . S
C1821 C1820 1.387 . S
C1821 C1823 1.387 . S
H1822 C1829 0.950 . S
C1823 C1821 1.387 . S
C1823 C1825 1.390 . S
C1823 H1827 0.950 . S
H1824 C1820 0.950 . S
C1825 C1823 1.390 . S
C1825 C1826 1.387 . S
C1825 H1828 0.950 . S
C1826 C1825 1.387 . S
C1826 C1829 1.387 . S
H1827 C1823 0.950 . S
H1828 C1825 0.950 . S
C1829 C1820 1.390 . S
C1829 H1822 0.950 . S
C1829 C1826 1.387 . S
C1830 C1831 1.387 . S
C1830 H1834 0.950 . S
C1830 C1839 1.390 . S
C1831 C1830 1.387 . S
C1831 C1833 1.387 . S
H1832 C1839 0.950 . S
C1833 C1831 1.387 . S
C1833 C1835 1.390 . S
C1833 H1837 0.950 . S
H1834 C1830 0.950 . S
C1835 C1833 1.390 . S
C1835 C1836 1.387 . S
C1835 H1838 0.950 . S
C1836 C1835 1.387 . S
C1836 C1839 1.387 . S
H1837 C1833 0.950 . S
H1838 C1835 0.950 . S
C1839 C1830 1.390 . S
C1839 H1832 0.950 . S
C1839 C1836 1.387 . S
C1840 C1841 1.387 . S
C1840 H1844 0.950 . S
C1840 C1849 1.390 . S
C1841 C1840 1.387 . S
C1841 C1843 1.387 . S
H1842 C1849 0.950 . S
C1843 C1841 1.387 . S
C1843 C1845 1.390 . S
C1843 H1847 0.950 . S
H1844 C1840 0.950 . S
C1845 C1843 1.390 . S
C1845 C1846 1.387 . S
C1845 H1848 0.950 . S
C1846 C1845 1.387 . S
C1846 C1849 1.387 . S
H1847 C1843 0.950 . S
H1848 C1845 0.950 . S
C1849 C1840 1.390 . S
C1849 H1842 0.950 . S
C1849 C1846 1.387 . S
C1850 C1851 1.387 . S
C1850 H1854 0.950 . S
C1850 C1859 1.390 . S
C1851 C1850 1.387 . S
C1851 C1853 1.387 . S
H1852 C1859 0.950 . S
C1853 C1851 1.387 . S
C1853 C1855 1.390 . S
C1853 H1857 0.950 . S
H1854 C1850 0.950 . S
C1855 C1853 1.390 . S
C1855 C1856 1.387 . S
C1855 H1858 0.950 . S
C1856 C1855 1.387 . S
C1856 C1859 1.387 . S
H1857 C1853 0.950 . S
H1858 C1855 0.950 . S
C1859 C1850 1.390 . S
C1859 H1852 0.950 . S
C1859 C1856 1.387 . S
C1860 C1861 1.387 . S
C1860 H1864 0.950 . S
C1860 C1869 1.390 . S
C1861 C1860 1.387 . S
C1861 C1863 1.387 1_554 S
H1862 C1869 0.950 . S
C1863 C1861 1.387 1_556 S
C1863 C1865 1.390 . S
C1863 H1867 0.950 . S
H1864 C1860 0.950 . S
C1865 C1863 1.390 . S
C1865 C1866 1.387 1_556 S
C1865 H1868 0.950 . S
C1866 C1865 1.387 1_554 S
C1866 C1869 1.387 . S
H1867 C1863 0.950 . S
H1868 C1865 0.950 . S
C1869 C1860 1.390 . S
C1869 H1862 0.950 . S
C1869 C1866 1.387 . S
C1870 C1871 1.387 . S
C1870 H1874 0.950 . S
C1870 C1879 1.390 . S
C1871 C1870 1.387 . S
C1871 C1873 1.387 1_554 S
H1872 C1879 0.950 . S
C1873 C1871 1.387 1_556 S
C1873 C1875 1.390 . S
C1873 H1877 0.950 . S
H1874 C1870 0.950 . S
C1875 C1873 1.390 . S
C1875 C1876 1.387 1_556 S
C1875 H1878 0.950 . S
C1876 C1875 1.387 1_554 S
C1876 C1879 1.387 . S
H1877 C1873 0.950 . S
H1878 C1875 0.950 . S
C1879 C1870 1.390 . S
C1879 H1872 0.950 . S
C1879 C1876 1.387 . S
C1880 C1881 1.387 1_556 S
C1880 H1884 0.950 . S
C1880 C1889 1.390 . S
C1881 C1880 1.387 1_554 S
C1881 C1883 1.387 . S
H1882 C1889 0.950 . S
C1883 C1881 1.387 . S
C1883 C1885 1.390 . S
C1883 H1887 0.950 . S
H1884 C1880 0.950 . S
C1885 C1883 1.390 . S
C1885 C1886 1.387 . S
C1885 H1888 0.950 . S
C1886 C1885 1.387 . S
C1886 C1889 1.387 1_554 S
H1887 C1883 0.950 . S
H1888 C1885 0.950 . S
C1889 C1880 1.390 . S
C1889 H1882 0.950 . S
C1889 C1886 1.387 1_556 S
C1890 C1891 1.387 1_556 S
C1890 H1894 0.950 . S
C1890 C1899 1.390 . S
C1891 C1890 1.387 1_554 S
C1891 C1893 1.387 . S
H1892 C1899 0.950 . S
C1893 C1891 1.387 . S
C1893 C1895 1.390 . S
C1893 H1897 0.950 . S
H1894 C1890 0.950 . S
C1895 C1893 1.390 . S
C1895 C1896 1.387 . S
C1895 H1898 0.950 . S
C1896 C1895 1.387 . S
C1896 C1899 1.387 1_554 S
H1897 C1893 0.950 . S
H1898 C1895 0.950 . S
C1899 C1890 1.390 . S
C1899 H1892 0.950 . S
C1899 C1896 1.387 1_556 S
C1900 C1901 1.387 1_655 S
C1900 H1904 0.950 . S
C1900 C1909 1.390 . S
C1901 C1900 1.387 1_455 S
C1901 C1903 1.387 . S
H1902 C1909 0.950 . S
C1903 C1901 1.387 . S
C1903 C1905 1.390 . S
C1903 H1907 0.950 . S
H1904 C1900 0.950 . S
C1905 C1903 1.390 . S
C1905 C1906 1.387 . S
C1905 H1908 0.950 . S
C1906 C1905 1.387 . S
C1906 C1909 1.388 1_455 S
H1907 C1903 0.950 . S
H1908 C1905 0.950 . S
C1909 C1900 1.390 . S
C1909 H1902 0.950 . S
C1909 C1906 1.388 1_655 S
C1910 C1911 1.387 . S
C1910 H1914 0.950 . S
C1910 C1919 1.390 . S
C1911 C1910 1.387 . S
C1911 C1913 1.387 1_545 S
H1912 C1919 0.950 . S
C1913 C1911 1.387 1_565 S
C1913 C1915 1.390 . S
C1913 H1917 0.950 . S
H1914 C1910 0.950 . S
C1915 C1913 1.390 . S
C1915 C1916 1.387 1_565 S
C1915 H1918 0.950 . S
C1916 C1915 1.387 1_545 S
C1916 C1919 1.387 . S
H1917 C1913 0.950 . S
H1918 C1915 0.950 . S
C1919 C1910 1.390 . S
C1919 H1912 0.950 . S
C1919 C1916 1.387 . S
C1920 C1921 1.387 . S
C1920 H1924 0.950 . S
C1920 C1929 1.390 . S
C1921 C1920 1.387 . S
C1921 C1923 1.387 1_455 S
H1922 C1929 0.950 . S
C1923 C1921 1.387 1_655 S
C1923 C1925 1.390 . S
C1923 H1927 0.950 . S
H1924 C1920 0.950 . S
C1925 C1923 1.390 . S
C1925 C1926 1.388 1_655 S
C1925 H1928 0.950 . S
C1926 C1925 1.388 1_455 S
C1926 C1929 1.387 . S
H1927 C1923 0.950 . S
H1928 C1925 0.950 . S
C1929 C1920 1.390 . S
C1929 H1922 0.950 . S
C1929 C1926 1.387 . S
C1930 C1931 1.387 . S
C1930 H1934 0.950 . S
C1930 C1939 1.390 . S
C1931 C1930 1.387 . S
C1931 C1933 1.387 1_545 S
H1932 C1939 0.950 . S
C1933 C1931 1.387 1_565 S
C1933 C1935 1.390 . S
C1933 H1937 0.950 . S
H1934 C1930 0.950 . S
C1935 C1933 1.390 . S
C1935 C1936 1.387 1_565 S
C1935 H1938 0.950 . S
C1936 C1935 1.387 1_545 S
C1936 C1939 1.387 . S
H1937 C1933 0.950 . S
H1938 C1935 0.950 . S
C1939 C1930 1.390 . S
C1939 H1932 0.950 . S
C1939 C1936 1.387 . S
C1940 C1941 1.387 1_655 S
C1940 H1944 0.950 . S
C1940 C1949 1.390 . S
C1941 C1940 1.387 1_455 S
C1941 C1943 1.388 . S
H1942 C1949 0.950 . S
C1943 C1941 1.388 . S
C1943 C1945 1.390 . S
C1943 H1947 0.950 . S
H1944 C1940 0.950 . S
C1945 C1943 1.390 . S
C1945 C1946 1.387 . S
C1945 H1948 0.950 . S
C1946 C1945 1.387 . S
C1946 C1949 1.387 1_455 S
H1947 C1943 0.950 . S
H1948 C1945 0.950 . S
C1949 C1940 1.390 . S
C1949 H1942 0.950 . S
C1949 C1946 1.387 1_655 S
C1950 C1951 1.387 1_565 S
C1950 H1954 0.950 . S
C1950 C1959 1.390 . S
C1951 C1950 1.387 1_545 S
C1951 C1953 1.387 . S
H1952 C1959 0.950 . S
C1953 C1951 1.387 . S
C1953 C1955 1.390 . S
C1953 H1957 0.950 . S
H1954 C1950 0.950 . S
C1955 C1953 1.390 . S
C1955 C1956 1.387 . S
C1955 H1958 0.950 . S
C1956 C1955 1.387 . S
C1956 C1959 1.387 1_545 S
H1957 C1953 0.950 . S
H1958 C1955 0.950 . S
C1959 C1950 1.390 . S
C1959 H1952 0.950 . S
C1959 C1956 1.387 1_565 S
C1960 C1961 1.387 1_655 S
C1960 H1964 0.950 . S
C1960 C1969 1.390 . S
C1961 C1960 1.387 1_455 S
C1961 C1963 1.387 . S
H1962 C1969 0.950 . S
C1963 C1961 1.387 . S
C1963 C1965 1.390 . S
C1963 H1967 0.950 . S
H1964 C1960 0.950 . S
C1965 C1963 1.390 . S
C1965 C1966 1.387 . S
C1965 H1968 0.950 . S
C1966 C1965 1.387 . S
C1966 C1969 1.388 1_455 S
H1967 C1963 0.950 . S
H1968 C1965 0.950 . S
C1969 C1960 1.390 . S
C1969 H1962 0.950 . S
C1969 C1966 1.388 1_655 S
C1970 C1971 1.387 1_565 S
C1970 H1974 0.950 . S
C1970 C1979 1.390 . S
C1971 C1970 1.387 1_545 S
C1971 C1973 1.387 . S
H1972 C1979 0.950 . S
C1973 C1971 1.387 . S
C1973 C1975 1.390 . S
C1973 H1977 0.950 . S
H1974 C1970 0.950 . S
C1975 C1973 1.390 . S
C1975 C1976 1.387 . S
C1975 H1978 0.950 . S
C1976 C1975 1.387 . S
C1976 C1979 1.387 1_545 S
H1977 C1973 0.950 . S
H1978 C1975 0.950 . S
C1979 C1970 1.390 . S
C1979 H1972 0.950 . S
C1979 C1976 1.387 1_565 S
C1980 C1981 1.387 1_655 S
C1980 H1984 0.950 . S
C1980 C1989 1.390 . S
C1981 C1980 1.387 1_455 S
C1981 C1983 1.388 . S
H1982 C1989 0.950 . S
C1983 C1981 1.388 . S
C1983 C1985 1.390 . S
C1983 H1987 0.950 . S
H1984 C1980 0.950 . S
C1985 C1983 1.390 . S
C1985 C1986 1.387 . S
C1985 H1988 0.950 . S
C1986 C1985 1.387 . S
C1986 C1989 1.387 1_455 S
H1987 C1983 0.950 . S
H1988 C1985 0.950 . S
C1989 C1980 1.390 . S
C1989 H1982 0.950 . S
C1989 C1986 1.387 1_655 S
C1990 C1991 1.387 1_565 S
C1990 H1994 0.950 . S
C1990 C1999 1.390 . S
C1991 C1990 1.387 1_545 S
C1991 C1993 1.387 . S
H1992 C1999 0.950 . S
C1993 C1991 1.387 . S
C1993 C1995 1.390 . S
C1993 H1997 0.950 . S
H1994 C1990 0.950 . S
C1995 C1993 1.390 . S
C1995 C1996 1.387 . S
C1995 H1998 0.950 . S
C1996 C1995 1.387 . S
C1996 C1999 1.387 1_545 S
H1997 C1993 0.950 . S
H1998 C1995 0.950 . S
C1999 C1990 1.390 . S
C1999 H1992 0.950 . S
C1999 C1996 1.387 1_565 S
C2000 C2001 1.387 1_655 S
C2000 H2004 0.950 . S
C2000 C2009 1.390 . S
C2001 C2000 1.387 1_455 S
C2001 C2003 1.387 . S
H2002 C2009 0.950 . S
C2003 C2001 1.387 . S
C2003 C2005 1.390 . S
C2003 H2007 0.950 . S
H2004 C2000 0.950 . S
C2005 C2003 1.390 . S
C2005 C2006 1.387 . S
C2005 H2008 0.950 . S
C2006 C2005 1.387 . S
C2006 C2009 1.388 1_455 S
H2007 C2003 0.950 . S
H2008 C2005 0.950 . S
C2009 C2000 1.390 . S
C2009 H2002 0.950 . S
C2009 C2006 1.388 1_655 S
C2010 C2011 1.387 . S
C2010 H2014 0.950 . S
C2010 C2019 1.390 . S
C2011 C2010 1.387 . S
C2011 C2013 1.387 1_545 S
H2012 C2019 0.950 . S
C2013 C2011 1.387 1_565 S
C2013 C2015 1.390 . S
C2013 H2017 0.950 . S
H2014 C2010 0.950 . S
C2015 C2013 1.390 . S
C2015 C2016 1.387 1_565 S
C2015 H2018 0.950 . S
C2016 C2015 1.387 1_545 S
C2016 C2019 1.387 . S
H2017 C2013 0.950 . S
H2018 C2015 0.950 . S
C2019 C2010 1.390 . S
C2019 H2012 0.950 . S
C2019 C2016 1.387 . S
C2020 C2021 1.387 . S
C2020 H2024 0.950 . S
C2020 C2029 1.390 . S
C2021 C2020 1.387 . S
C2021 C2023 1.387 1_455 S
H2022 C2029 0.950 . S
C2023 C2021 1.387 1_655 S
C2023 C2025 1.390 . S
C2023 H2027 0.950 . S
H2024 C2020 0.950 . S
C2025 C2023 1.390 . S
C2025 C2026 1.388 1_655 S
C2025 H2028 0.950 . S
C2026 C2025 1.388 1_455 S
C2026 C2029 1.387 . S
H2027 C2023 0.950 . S
H2028 C2025 0.950 . S
C2029 C2020 1.390 . S
C2029 H2022 0.950 . S
C2029 C2026 1.387 . S
C2030 C2031 1.387 . S
C2030 H2034 0.950 . S
C2030 C2039 1.390 . S
C2031 C2030 1.387 . S
C2031 C2033 1.387 1_545 S
H2032 C2039 0.950 . S
C2033 C2031 1.387 1_565 S
C2033 C2035 1.390 . S
C2033 H2037 0.950 . S
H2034 C2030 0.950 . S
C2035 C2033 1.390 . S
C2035 C2036 1.387 1_565 S
C2035 H2038 0.950 . S
C2036 C2035 1.387 1_545 S
C2036 C2039 1.387 . S
H2037 C2033 0.950 . S
H2038 C2035 0.950 . S
C2039 C2030 1.390 . S
C2039 H2032 0.950 . S
C2039 C2036 1.387 . S
C2040 C2041 1.387 1_655 S
C2040 H2044 0.950 . S
C2040 C2049 1.390 . S
C2041 C2040 1.387 1_455 S
C2041 C2043 1.387 . S
H2042 C2049 0.950 . S
C2043 C2041 1.387 . S
C2043 C2045 1.390 . S
C2043 H2047 0.950 . S
H2044 C2040 0.950 . S
C2045 C2043 1.390 . S
C2045 C2046 1.387 . S
C2045 H2048 0.950 . S
C2046 C2045 1.387 . S
C2046 C2049 1.388 1_455 S
H2047 C2043 0.950 . S
H2048 C2045 0.950 . S
C2049 C2040 1.390 . S
C2049 H2042 0.950 . S
C2049 C2046 1.388 1_655 S
C2050 C2051 1.387 1_565 S
C2050 H2054 0.950 . S
C2050 C2059 1.390 . S
C2051 C2050 1.387 1_545 S
C2051 C2053 1.387 . S
H2052 C2059 0.950 . S
C2053 C2051 1.387 . S
C2053 C2055 1.390 . S
C2053 H2057 0.950 . S
H2054 C2050 0.950 . S
C2055 C2053 1.390 . S
C2055 C2056 1.387 . S
C2055 H2058 0.950 . S
C2056 C2055 1.387 . S
C2056 C2059 1.387 1_545 S
H2057 C2053 0.950 . S
H2058 C2055 0.950 . S
C2059 C2050 1.390 . S
C2059 H2052 0.950 . S
C2059 C2056 1.387 1_565 S
C2060 C2061 1.387 1_565 S
C2060 H2064 0.950 . S
C2060 C2069 1.390 . S
C2061 C2060 1.387 1_545 S
C2061 C2063 1.387 . S
H2062 C2069 0.950 . S
C2063 C2061 1.387 . S
C2063 C2065 1.390 . S
C2063 H2067 0.950 . S
H2064 C2060 0.950 . S
C2065 C2063 1.390 . S
C2065 C2066 1.387 . S
C2065 H2068 0.950 . S
C2066 C2065 1.387 . S
C2066 C2069 1.387 1_545 S
H2067 C2063 0.950 . S
H2068 C2065 0.950 . S
C2069 C2060 1.390 . S
C2069 H2062 0.950 . S
C2069 C2066 1.387 1_565 S
C2070 C2071 1.387 . S
C2070 H2074 0.950 . S
C2070 C2079 1.390 . S
C2071 C2070 1.387 . S
C2071 C2073 1.387 1_455 S
H2072 C2079 0.950 . S
C2073 C2071 1.387 1_655 S
C2073 C2075 1.390 . S
C2073 H2077 0.950 . S
H2074 C2070 0.950 . S
C2075 C2073 1.390 . S
C2075 C2076 1.388 1_655 S
C2075 H2078 0.950 . S
C2076 C2075 1.388 1_455 S
C2076 C2079 1.387 . S
H2077 C2073 0.950 . S
H2078 C2075 0.950 . S
C2079 C2070 1.390 . S
C2079 H2072 0.950 . S
C2079 C2076 1.387 . S
C2080 C2081 1.387 . S
C2080 H2084 0.950 . S
C2080 C2089 1.390 . S
C2081 C2080 1.387 . S
C2081 C2083 1.387 1_545 S
H2082 C2089 0.950 . S
C2083 C2081 1.387 1_565 S
C2083 C2085 1.390 . S
C2083 H2087 0.950 . S
H2084 C2080 0.950 . S
C2085 C2083 1.390 . S
C2085 C2086 1.387 1_565 S
C2085 H2088 0.950 . S
C2086 C2085 1.387 1_545 S
C2086 C2089 1.387 . S
H2087 C2083 0.950 . S
H2088 C2085 0.950 . S
C2089 C2080 1.390 . S
C2089 H2082 0.950 . S
C2089 C2086 1.387 . S
C2090 C2091 1.387 1_655 S
C2090 H2094 0.950 . S
C2090 C2099 1.390 . S
C2091 C2090 1.387 1_455 S
C2091 C2093 1.388 . S
H2092 C2099 0.950 . S
C2093 C2091 1.388 . S
C2093 C2095 1.390 . S
C2093 H2097 0.950 . S
H2094 C2090 0.950 . S
C2095 C2093 1.390 . S
C2095 C2096 1.387 . S
C2095 H2098 0.950 . S
C2096 C2095 1.387 . S
C2096 C2099 1.387 1_455 S
H2097 C2093 0.950 . S
H2098 C2095 0.950 . S
C2099 C2090 1.390 . S
C2099 H2092 0.950 . S
C2099 C2096 1.387 1_655 S
C2100 C2101 1.387 1_565 S
C2100 H2104 0.950 . S
C2100 C2109 1.390 . S
C2101 C2100 1.387 1_545 S
C2101 C2103 1.387 . S
H2102 C2109 0.950 . S
C2103 C2101 1.387 . S
C2103 C2105 1.390 . S
C2103 H2107 0.950 . S
H2104 C2100 0.950 . S
C2105 C2103 1.390 . S
C2105 C2106 1.387 . S
C2105 H2108 0.950 . S
C2106 C2105 1.387 . S
C2106 C2109 1.387 1_545 S
H2107 C2103 0.950 . S
H2108 C2105 0.950 . S
C2109 C2100 1.390 . S
C2109 H2102 0.950 . S
C2109 C2106 1.387 1_565 S
C2110 C2111 1.387 1_655 S
C2110 H2114 0.950 . S
C2110 C2119 1.390 . S
C2111 C2110 1.387 1_455 S
C2111 C2113 1.388 . S
H2112 C2119 0.950 . S
C2113 C2111 1.388 . S
C2113 C2115 1.390 . S
C2113 H2117 0.950 . S
H2114 C2110 0.950 . S
C2115 C2113 1.390 . S
C2115 C2116 1.387 . S
C2115 H2118 0.950 . S
C2116 C2115 1.387 . S
C2116 C2119 1.387 1_455 S
H2117 C2113 0.950 . S
H2118 C2115 0.950 . S
C2119 C2110 1.390 . S
C2119 H2112 0.950 . S
C2119 C2116 1.387 1_655 S
C2120 C2121 1.387 . S
C2120 H2124 0.950 . S
C2120 C2129 1.390 . S
C2121 C2120 1.387 . S
C2121 C2123 1.387 1_545 S
H2122 C2129 0.950 . S
C2123 C2121 1.387 1_565 S
C2123 C2125 1.390 . S
C2123 H2127 0.950 . S
H2124 C2120 0.950 . S
C2125 C2123 1.390 . S
C2125 C2126 1.387 1_565 S
C2125 H2128 0.950 . S
C2126 C2125 1.387 1_545 S
C2126 C2129 1.387 . S
H2127 C2123 0.950 . S
H2128 C2125 0.950 . S
C2129 C2120 1.390 . S
C2129 H2122 0.950 . S
C2129 C2126 1.387 . S
C2130 C2131 1.387 1_655 S
C2130 H2134 0.950 . S
C2130 C2139 1.390 . S
C2131 C2130 1.387 1_455 S
C2131 C2133 1.388 . S
H2132 C2139 0.950 . S
C2133 C2131 1.388 . S
C2133 C2135 1.390 . S
C2133 H2137 0.950 . S
H2134 C2130 0.950 . S
C2135 C2133 1.390 . S
C2135 C2136 1.387 . S
C2135 H2138 0.950 . S
C2136 C2135 1.387 . S
C2136 C2139 1.387 1_455 S
H2137 C2133 0.950 . S
H2138 C2135 0.950 . S
C2139 C2130 1.390 . S
C2139 H2132 0.950 . S
C2139 C2136 1.387 1_655 S
C2140 C2141 1.387 1_556 S
C2140 H2144 0.950 . S
C2140 C2149 1.390 . S
C2141 C2140 1.387 1_554 S
C2141 C2143 1.387 . S
H2142 C2149 0.950 . S
C2143 C2141 1.387 . S
C2143 C2145 1.390 . S
C2143 H2147 0.950 . S
H2144 C2140 0.950 . S
C2145 C2143 1.390 . S
C2145 C2146 1.387 . S
C2145 H2148 0.950 . S
C2146 C2145 1.387 . S
C2146 C2149 1.387 1_554 S
H2147 C2143 0.950 . S
H2148 C2145 0.950 . S
C2149 C2140 1.390 . S
C2149 H2142 0.950 . S
C2149 C2146 1.387 1_556 S
C2150 C2151 1.387 . S
C2150 H2154 0.950 . S
C2150 C2159 1.390 . S
C2151 C2150 1.387 . S
C2151 C2153 1.387 1_554 S
H2152 C2159 0.950 . S
C2153 C2151 1.387 1_556 S
C2153 C2155 1.390 . S
C2153 H2157 0.950 . S
H2154 C2150 0.950 . S
C2155 C2153 1.390 . S
C2155 C2156 1.387 1_556 S
C2155 H2158 0.950 . S
C2156 C2155 1.387 1_554 S
C2156 C2159 1.387 . S
H2157 C2153 0.950 . S
H2158 C2155 0.950 . S
C2159 C2150 1.390 . S
C2159 H2152 0.950 . S
C2159 C2156 1.387 . S
C2160 C2161 1.387 . S
C2160 H2164 0.950 . S
C2160 C2169 1.390 . S
C2161 C2160 1.387 . S
C2161 C2163 1.387 1_554 S
H2162 C2169 0.950 . S
C2163 C2161 1.387 1_556 S
C2163 C2165 1.390 . S
C2163 H2167 0.950 . S
H2164 C2160 0.950 . S
C2165 C2163 1.390 . S
C2165 C2166 1.387 1_556 S
C2165 H2168 0.950 . S
C2166 C2165 1.387 1_554 S
C2166 C2169 1.387 . S
H2167 C2163 0.950 . S
H2168 C2165 0.950 . S
C2169 C2160 1.390 . S
C2169 H2162 0.950 . S
C2169 C2166 1.387 . S
C2170 C2171 1.387 1_556 S
C2170 H2174 0.950 . S
C2170 C2179 1.390 . S
C2171 C2170 1.387 1_554 S
C2171 C2173 1.387 . S
H2172 C2179 0.950 . S
C2173 C2171 1.387 . S
C2173 C2175 1.390 . S
C2173 H2177 0.950 . S
H2174 C2170 0.950 . S
C2175 C2173 1.390 . S
C2175 C2176 1.387 . S
C2175 H2178 0.950 . S
C2176 C2175 1.387 . S
C2176 C2179 1.387 1_554 S
H2177 C2173 0.950 . S
H2178 C2175 0.950 . S
C2179 C2170 1.390 . S
C2179 H2172 0.950 . S
C2179 C2176 1.387 1_556 S
C2180 C2181 1.387 1_556 S
C2180 H2184 0.950 . S
C2180 C2189 1.390 . S
C2181 C2180 1.387 1_554 S
C2181 C2183 1.387 . S
H2182 C2189 0.950 . S
C2183 C2181 1.387 . S
C2183 C2185 1.390 . S
C2183 H2187 0.950 . S
H2184 C2180 0.950 . S
C2185 C2183 1.390 . S
C2185 C2186 1.387 . S
C2185 H2188 0.950 . S
C2186 C2185 1.387 . S
C2186 C2189 1.387 1_554 S
H2187 C2183 0.950 . S
H2188 C2185 0.950 . S
C2189 C2180 1.390 . S
C2189 H2182 0.950 . S
C2189 C2186 1.387 1_556 S
C2190 C2191 1.387 . S
C2190 H2194 0.950 . S
C2190 C2199 1.390 . S
C2191 C2190 1.387 . S
C2191 C2193 1.387 1_554 S
H2192 C2199 0.950 . S
C2193 C2191 1.387 1_556 S
C2193 C2195 1.390 . S
C2193 H2197 0.950 . S
H2194 C2190 0.950 . S
C2195 C2193 1.390 . S
C2195 C2196 1.387 1_556 S
C2195 H2198 0.950 . S
C2196 C2195 1.387 1_554 S
C2196 C2199 1.387 . S
H2197 C2193 0.950 . S
H2198 C2195 0.950 . S
C2199 C2190 1.390 . S
C2199 H2192 0.950 . S
C2199 C2196 1.387 . S
C2200 C2201 1.387 1_556 S
C2200 H2204 0.950 . S
C2200 C2209 1.390 . S
C2201 C2200 1.387 1_554 S
C2201 C2203 1.387 . S
H2202 C2209 0.950 . S
C2203 C2201 1.387 . S
C2203 C2205 1.390 . S
C2203 H2207 0.950 . S
H2204 C2200 0.950 . S
C2205 C2203 1.390 . S
C2205 C2206 1.387 . S
C2205 H2208 0.950 . S
C2206 C2205 1.387 . S
C2206 C2209 1.387 1_554 S
H2207 C2203 0.950 . S
H2208 C2205 0.950 . S
C2209 C2200 1.390 . S
C2209 H2202 0.950 . S
C2209 C2206 1.387 1_556 S
C2210 C2211 1.387 1_556 S
C2210 H2214 0.950 . S
C2210 C2219 1.390 . S
C2211 C2210 1.387 1_554 S
C2211 C2213 1.387 . S
H2212 C2219 0.950 . S
C2213 C2211 1.387 . S
C2213 C2215 1.390 . S
C2213 H2217 0.950 . S
H2214 C2210 0.950 . S
C2215 C2213 1.390 . S
C2215 C2216 1.387 . S
C2215 H2218 0.950 . S
C2216 C2215 1.387 . S
C2216 C2219 1.387 1_554 S
H2217 C2213 0.950 . S
H2218 C2215 0.950 . S
C2219 C2210 1.390 . S
C2219 H2212 0.950 . S
C2219 C2216 1.387 1_556 S
C2220 C2221 1.387 . S
C2220 H2224 0.950 . S
C2220 C2229 1.390 . S
C2221 C2220 1.387 . S
C2221 C2223 1.387 . S
H2222 C2229 0.950 . S
C2223 C2221 1.387 . S
C2223 C2225 1.390 . S
C2223 H2227 0.950 . S
H2224 C2220 0.950 . S
C2225 C2223 1.390 . S
C2225 C2226 1.387 . S
C2225 H2228 0.950 . S
C2226 C2225 1.387 . S
C2226 C2229 1.387 . S
H2227 C2223 0.950 . S
H2228 C2225 0.950 . S
C2229 C2220 1.390 . S
C2229 H2222 0.950 . S
C2229 C2226 1.387 . S
C2230 C2231 1.387 . S
C2230 H2234 0.950 . S
C2230 C2239 1.390 . S
C2231 C2230 1.387 . S
C2231 C2233 1.387 . S
H2232 C2239 0.950 . S
C2233 C2231 1.387 . S
C2233 C2235 1.390 . S
C2233 H2237 0.950 . S
H2234 C2230 0.950 . S
C2235 C2233 1.390 . S
C2235 C2236 1.387 . S
C2235 H2238 0.950 . S
C2236 C2235 1.387 . S
C2236 C2239 1.387 . S
H2237 C2233 0.950 . S
H2238 C2235 0.950 . S
C2239 C2230 1.390 . S
C2239 H2232 0.950 . S
C2239 C2236 1.387 . S
C2240 C2241 1.387 . S
C2240 H2244 0.950 . S
C2240 C2249 1.390 . S
C2241 C2240 1.387 . S
C2241 C2243 1.387 . S
H2242 C2249 0.950 . S
C2243 C2241 1.387 . S
C2243 C2245 1.390 . S
C2243 H2247 0.950 . S
H2244 C2240 0.950 . S
C2245 C2243 1.390 . S
C2245 C2246 1.387 . S
C2245 H2248 0.950 . S
C2246 C2245 1.387 . S
C2246 C2249 1.387 . S
H2247 C2243 0.950 . S
H2248 C2245 0.950 . S
C2249 C2240 1.390 . S
C2249 H2242 0.950 . S
C2249 C2246 1.387 . S
C2250 C2251 1.387 . S
C2250 H2254 0.950 . S
C2250 C2259 1.390 . S
C2251 C2250 1.387 . S
C2251 C2253 1.387 . S
H2252 C2259 0.950 . S
C2253 C2251 1.387 . S
C2253 C2255 1.390 . S
C2253 H2257 0.950 . S
H2254 C2250 0.950 . S
C2255 C2253 1.390 . S
C2255 C2256 1.387 . S
C2255 H2258 0.950 . S
C2256 C2255 1.387 . S
C2256 C2259 1.387 . S
H2257 C2253 0.950 . S
H2258 C2255 0.950 . S
C2259 C2250 1.390 . S
C2259 H2252 0.950 . S
C2259 C2256 1.387 . S
C2260 C2261 1.387 . S
C2260 H2264 0.950 . S
C2260 C2269 1.390 . S
C2261 C2260 1.387 . S
C2261 C2263 1.387 . S
H2262 C2269 0.950 . S
C2263 C2261 1.387 . S
C2263 C2265 1.390 . S
C2263 H2267 0.950 . S
H2264 C2260 0.950 . S
C2265 C2263 1.390 . S
C2265 C2266 1.387 . S
C2265 H2268 0.950 . S
C2266 C2265 1.387 . S
C2266 C2269 1.387 . S
H2267 C2263 0.950 . S
H2268 C2265 0.950 . S
C2269 C2260 1.390 . S
C2269 H2262 0.950 . S
C2269 C2266 1.387 . S
C2270 C2271 1.387 . S
C2270 H2274 0.950 . S
C2270 C2279 1.390 . S
C2271 C2270 1.387 . S
C2271 C2273 1.387 . S
H2272 C2279 0.950 . S
C2273 C2271 1.387 . S
C2273 C2275 1.390 . S
C2273 H2277 0.950 . S
H2274 C2270 0.950 . S
C2275 C2273 1.390 . S
C2275 C2276 1.387 . S
C2275 H2278 0.950 . S
C2276 C2275 1.387 . S
C2276 C2279 1.387 . S
H2277 C2273 0.950 . S
H2278 C2275 0.950 . S
C2279 C2270 1.390 . S
C2279 H2272 0.950 . S
C2279 C2276 1.387 . S
C2280 C2281 1.387 . S
C2280 H2284 0.950 . S
C2280 C2289 1.390 . S
C2281 C2280 1.387 . S
C2281 C2283 1.387 . S
H2282 C2289 0.950 . S
C2283 C2281 1.387 . S
C2283 C2285 1.390 . S
C2283 H2287 0.950 . S
H2284 C2280 0.950 . S
C2285 C2283 1.390 . S
C2285 C2286 1.387 . S
C2285 H2288 0.950 . S
C2286 C2285 1.387 . S
C2286 C2289 1.387 . S
H2287 C2283 0.950 . S
H2288 C2285 0.950 . S
C2289 C2280 1.390 . S
C2289 H2282 0.950 . S
C2289 C2286 1.387 . S
C2290 C2291 1.387 . S
C2290 H2294 0.950 . S
C2290 C2299 1.390 . S
C2291 C2290 1.387 . S
C2291 C2293 1.387 . S
H2292 C2299 0.950 . S
C2293 C2291 1.387 . S
C2293 C2295 1.390 . S
C2293 H2297 0.950 . S
H2294 C2290 0.950 . S
C2295 C2293 1.390 . S
C2295 C2296 1.387 . S
C2295 H2298 0.950 . S
C2296 C2295 1.387 . S
C2296 C2299 1.387 . S
H2297 C2293 0.950 . S
H2298 C2295 0.950 . S
C2299 C2290 1.390 . S
C2299 H2292 0.950 . S
C2299 C2296 1.387 . S
C2300 C2301 1.387 . S
C2300 H2304 0.950 . S
C2300 C2309 1.390 . S
C2301 C2300 1.387 . S
C2301 C2303 1.387 . S
H2302 C2309 0.950 . S
C2303 C2301 1.387 . S
C2303 C2305 1.390 . S
C2303 H2307 0.950 . S
H2304 C2300 0.950 . S
C2305 C2303 1.390 . S
C2305 C2306 1.387 . S
C2305 H2308 0.950 . S
C2306 C2305 1.387 . S
C2306 C2309 1.387 . S
H2307 C2303 0.950 . S
H2308 C2305 0.950 . S
C2309 C2300 1.390 . S
C2309 H2302 0.950 . S
C2309 C2306 1.387 . S
C2310 C2311 1.387 . S
C2310 H2314 0.950 . S
C2310 C2319 1.390 . S
C2311 C2310 1.387 . S
C2311 C2313 1.387 . S
H2312 C2319 0.950 . S
C2313 C2311 1.387 . S
C2313 C2315 1.390 . S
C2313 H2317 0.950 . S
H2314 C2310 0.950 . S
C2315 C2313 1.390 . S
C2315 C2316 1.387 . S
C2315 H2318 0.950 . S
C2316 C2315 1.387 . S
C2316 C2319 1.387 . S
H2317 C2313 0.950 . S
H2318 C2315 0.950 . S
C2319 C2310 1.390 . S
C2319 H2312 0.950 . S
C2319 C2316 1.387 . S
C2320 C2321 1.387 . S
C2320 H2324 0.950 . S
C2320 C2329 1.390 . S
C2321 C2320 1.387 . S
C2321 C2323 1.387 . S
H2322 C2329 0.950 . S
C2323 C2321 1.387 . S
C2323 C2325 1.390 . S
C2323 H2327 0.950 . S
H2324 C2320 0.950 . S
C2325 C2323 1.390 . S
C2325 C2326 1.387 . S
C2325 H2328 0.950 . S
C2326 C2325 1.387 . S
C2326 C2329 1.387 . S
H2327 C2323 0.950 . S
H2328 C2325 0.950 . S
C2329 C2320 1.390 . S
C2329 H2322 0.950 . S
C2329 C2326 1.387 . S
C2330 C2331 1.387 . S
C2330 H2334 0.950 . S
C2330 C2339 1.390 . S
C2331 C2330 1.387 . S
C2331 C2333 1.387 . S
H2332 C2339 0.950 . S
C2333 C2331 1.387 . S
C2333 C2335 1.390 . S
C2333 H2337 0.950 . S
H2334 C2330 0.950 . S
C2335 C2333 1.390 . S
C2335 C2336 1.387 . S
C2335 H2338 0.950 . S
C2336 C2335 1.387 . S
C2336 C2339 1.387 . S
H2337 C2333 0.950 . S
H2338 C2335 0.950 . S
C2339 C2330 1.390 . S
C2339 H2332 0.950 . S
C2339 C2336 1.387 . S
C2340 C2341 1.387 . S
C2340 H2344 0.950 . S
C2340 C2349 1.390 . S
C2341 C2340 1.387 . S
C2341 C2343 1.387 . S
H2342 C2349 0.950 . S
C2343 C2341 1.387 . S
C2343 C2345 1.390 . S
C2343 H2347 0.950 . S
H2344 C2340 0.950 . S
C2345 C2343 1.390 . S
C2345 C2346 1.387 . S
C2345 H2348 0.950 . S
C2346 C2345 1.387 . S
C2346 C2349 1.387 . S
H2347 C2343 0.950 . S
H2348 C2345 0.950 . S
C2349 C2340 1.390 . S
C2349 H2342 0.950 . S
C2349 C2346 1.387 . S
C2350 C2351 1.387 . S
C2350 H2354 0.950 . S
C2350 C2359 1.390 . S
C2351 C2350 1.387 . S
C2351 C2353 1.387 . S
H2352 C2359 0.950 . S
C2353 C2351 1.387 . S
C2353 C2355 1.390 . S
C2353 H2357 0.950 . S
H2354 C2350 0.950 . S
C2355 C2353 1.390 . S
C2355 C2356 1.387 . S
C2355 H2358 0.950 . S
C2356 C2355 1.387 . S
C2356 C2359 1.387 . S
H2357 C2353 0.950 . S
H2358 C2355 0.950 . S
C2359 C2350 1.390 . S
C2359 H2352 0.950 . S
C2359 C2356 1.387 . S
C2360 C2361 1.387 . S
C2360 H2364 0.950 . S
C2360 C2369 1.390 . S
C2361 C2360 1.387 . S
C2361 C2363 1.387 . S
H2362 C2369 0.950 . S
C2363 C2361 1.387 . S
C2363 C2365 1.390 . S
C2363 H2367 0.950 . S
H2364 C2360 0.950 . S
C2365 C2363 1.390 . S
C2365 C2366 1.387 . S
C2365 H2368 0.950 . S
C2366 C2365 1.387 . S
C2366 C2369 1.387 . S
H2367 C2363 0.950 . S
H2368 C2365 0.950 . S
C2369 C2360 1.390 . S
C2369 H2362 0.950 . S
C2369 C2366 1.387 . S
C2370 C2371 1.387 . S
C2370 H2374 0.950 . S
C2370 C2379 1.390 . S
C2371 C2370 1.387 . S
C2371 C2373 1.387 . S
H2372 C2379 0.950 . S
C2373 C2371 1.387 . S
C2373 C2375 1.390 . S
C2373 H2377 0.950 . S
H2374 C2370 0.950 . S
C2375 C2373 1.390 . S
C2375 C2376 1.387 . S
C2375 H2378 0.950 . S
C2376 C2375 1.387 . S
C2376 C2379 1.387 . S
H2377 C2373 0.950 . S
H2378 C2375 0.950 . S
C2379 C2370 1.390 . S
C2379 H2372 0.950 . S
C2379 C2376 1.387 . S
C2380 C2381 1.387 . S
C2380 H2384 0.950 . S
C2380 C2389 1.390 . S
C2381 C2380 1.387 . S
C2381 C2383 1.387 . S
H2382 C2389 0.950 . S
C2383 C2381 1.387 . S
C2383 C2385 1.390 . S
C2383 H2387 0.950 . S
H2384 C2380 0.950 . S
C2385 C2383 1.390 . S
C2385 C2386 1.387 . S
C2385 H2388 0.950 . S
C2386 C2385 1.387 . S
C2386 C2389 1.387 . S
H2387 C2383 0.950 . S
H2388 C2385 0.950 . S
C2389 C2380 1.390 . S
C2389 H2382 0.950 . S
C2389 C2386 1.387 . S
C2390 C2391 1.387 . S
C2390 H2394 0.950 . S
C2390 C2399 1.390 . S
C2391 C2390 1.387 . S
C2391 C2393 1.387 . S
H2392 C2399 0.950 . S
C2393 C2391 1.387 . S
C2393 C2395 1.390 . S
C2393 H2397 0.950 . S
H2394 C2390 0.950 . S
C2395 C2393 1.390 . S
C2395 C2396 1.387 . S
C2395 H2398 0.950 . S
C2396 C2395 1.387 . S
C2396 C2399 1.387 . S
H2397 C2393 0.950 . S
H2398 C2395 0.950 . S
C2399 C2390 1.390 . S
C2399 H2392 0.950 . S
C2399 C2396 1.387 . S
C2400 C2401 1.387 . S
C2400 H2404 0.950 . S
C2400 C2409 1.390 . S
C2401 C2400 1.387 . S
C2401 C2403 1.387 . S
H2402 C2409 0.950 . S
C2403 C2401 1.387 . S
C2403 C2405 1.390 . S
C2403 H2407 0.950 . S
H2404 C2400 0.950 . S
C2405 C2403 1.390 . S
C2405 C2406 1.387 . S
C2405 H2408 0.950 . S
C2406 C2405 1.387 . S
C2406 C2409 1.387 . S
H2407 C2403 0.950 . S
H2408 C2405 0.950 . S
C2409 C2400 1.390 . S
C2409 H2402 0.950 . S
C2409 C2406 1.387 . S
C2410 C2411 1.387 . S
C2410 H2414 0.950 . S
C2410 C2419 1.390 . S
C2411 C2410 1.387 . S
C2411 C2413 1.387 . S
H2412 C2419 0.950 . S
C2413 C2411 1.387 . S
C2413 C2415 1.390 . S
C2413 H2417 0.950 . S
H2414 C2410 0.950 . S
C2415 C2413 1.390 . S
C2415 C2416 1.387 . S
C2415 H2418 0.950 . S
C2416 C2415 1.387 . S
C2416 C2419 1.387 . S
H2417 C2413 0.950 . S
H2418 C2415 0.950 . S
C2419 C2410 1.390 . S
C2419 H2412 0.950 . S
C2419 C2416 1.387 . S
C2420 C2421 1.387 . S
C2420 H2424 0.950 . S
C2420 C2429 1.390 . S
C2421 C2420 1.387 . S
C2421 C2423 1.387 . S
H2422 C2429 0.950 . S
C2423 C2421 1.387 . S
C2423 C2425 1.390 . S
C2423 H2427 0.950 . S
H2424 C2420 0.950 . S
C2425 C2423 1.390 . S
C2425 C2426 1.387 . S
C2425 H2428 0.950 . S
C2426 C2425 1.387 . S
C2426 C2429 1.387 . S
H2427 C2423 0.950 . S
H2428 C2425 0.950 . S
C2429 C2420 1.390 . S
C2429 H2422 0.950 . S
C2429 C2426 1.387 . S
C2430 C2431 1.387 . S
C2430 H2434 0.950 . S
C2430 C2439 1.390 . S
C2431 C2430 1.387 . S
C2431 C2433 1.387 . S
H2432 C2439 0.950 . S
C2433 C2431 1.387 . S
C2433 C2435 1.390 . S
C2433 H2437 0.950 . S
H2434 C2430 0.950 . S
C2435 C2433 1.390 . S
C2435 C2436 1.387 . S
C2435 H2438 0.950 . S
C2436 C2435 1.387 . S
C2436 C2439 1.387 . S
H2437 C2433 0.950 . S
H2438 C2435 0.950 . S
C2439 C2430 1.390 . S
C2439 H2432 0.950 . S
C2439 C2436 1.387 . S
C2440 C2441 1.387 . S
C2440 H2444 0.950 . S
C2440 C2449 1.390 . S
C2441 C2440 1.387 . S
C2441 C2443 1.387 . S
H2442 C2449 0.950 . S
C2443 C2441 1.387 . S
C2443 C2445 1.390 . S
C2443 H2447 0.950 . S
H2444 C2440 0.950 . S
C2445 C2443 1.390 . S
C2445 C2446 1.387 . S
C2445 H2448 0.950 . S
C2446 C2445 1.387 . S
C2446 C2449 1.387 . S
H2447 C2443 0.950 . S
H2448 C2445 0.950 . S
C2449 C2440 1.390 . S
C2449 H2442 0.950 . S
C2449 C2446 1.387 . S
C2450 C2451 1.387 . S
C2450 H2454 0.950 . S
C2450 C2459 1.390 . S
C2451 C2450 1.387 . S
C2451 C2453 1.387 . S
H2452 C2459 0.950 . S
C2453 C2451 1.387 . S
C2453 C2455 1.390 . S
C2453 H2457 0.950 . S
H2454 C2450 0.950 . S
C2455 C2453 1.390 . S
C2455 C2456 1.387 . S
C2455 H2458 0.950 . S
C2456 C2455 1.387 . S
C2456 C2459 1.387 . S
H2457 C2453 0.950 . S
H2458 C2455 0.950 . S
C2459 C2450 1.390 . S
C2459 H2452 0.950 . S
C2459 C2456 1.387 . S
C1746 C1446 1.121 . S
C1741 C1400 1.098 . S
C1751 C1280 1.106 . S
C1756 C1444 1.121 . S
C1766 C1445 1.121 . S
C1761 C1220 1.110 . S
C1771 C1340 1.106 . S
C1776 C1447 1.121 . S
C1786 C1491 1.121 . S
C1781 C980 1.100 . S
C1796 C1551 1.121 . S
C1791 C1040 1.108 . S
C1801 C1100 1.104 . S
C1806 C1490 1.121 . S
C1816 C1550 1.121 . S
C1811 C1160 1.098 . S
C1821 C740 1.104 . S
C1826 C1492 1.127 . S
C1836 C1548 1.121 . S
C1831 C800 1.105 . S
C1841 C860 1.104 . S
C1846 C1493 1.121 . S
C1851 C920 1.104 . S
C1856 C1549 1.127 . S
C1866 C1599 1.121 . S
C1861 C680 1.106 . S
C1871 C560 1.106 . S
C1876 C1598 1.121 . S
C1881 C500 1.106 1_554 S
C1886 C1600 1.121 . S
C1896 C1601 1.121 . S
C1891 C620 1.106 1_554 S
C1901 C260 1.106 1_455 S
C1906 C1642 1.121 . S
C1911 C320 1.104 1_545 S
C1916 C1701 1.121 . S
C1921 C380 1.104 1_455 S
C1926 C1640 1.121 . S
C1931 C440 1.104 1_545 S
C1936 C1700 1.121 . S
C1946 C1641 1.121 . S
C1941 C20 1.106 1_455 S
C1956 C1698 1.121 . S
C1951 C80 1.104 . S
C1961 C140 1.106 1_455 S
C1966 C1643 1.121 . S
C1976 C1699 1.121 . S
C1971 C200 1.104 . S
C1986 C1443 2.091 . S
C1981 C31 2.021 1_455 S
C1991 C61 1.741 . S
C1996 C1449 2.093 . S
C2001 C121 1.746 1_455 S
C2006 C1441 2.095 . S
C2011 C211 2.024 . S
C2016 C1448 2.089 . S
C2021 C271 2.026 1_455 S
C2026 C1440 2.095 . S
C2036 C1450 2.093 . S
C2031 C331 2.024 1_545 S
C2041 C361 1.746 1_455 S
C2046 C1442 2.091 . S
C2056 C1451 2.093 . S
C2051 C421 1.749 1_545 S
C2066 C1497 2.091 . S
C2061 C181 1.738 . S
C2071 C1 1.741 1_455 S
C2076 C1540 2.089 . S
C2086 C1495 2.091 . S
C2081 C91 2.021 . S
C2096 C1542 2.091 . S
C2091 C151 2.021 1_455 S
C2101 C301 1.746 1_545 S
C2106 C1496 2.095 . S
C2116 C1541 2.091 . S
C2111 C391 2.026 1_455 S
C2126 C1494 2.093 . S
C2121 C451 2.029 1_545 S
C2136 C1543 2.093 . S
C2131 C241 1.749 1_455 S
C2146 C1547 2.091 . S
C2141 C511 2.021 1_554 S
C2151 C571 2.024 . S
C2156 C1546 2.089 . S
C2166 C1498 2.091 . S
C2161 C481 1.738 1_554 S
C2176 C1545 2.093 . S
C2171 C601 1.749 1_554 S
C2181 C691 2.026 . S
C2186 C1501 2.095 . S
C2191 C661 1.746 . S
C2196 C1544 2.095 . S
C2206 C1500 2.091 . S
C2201 C541 1.744 . S
C2216 C1499 2.091 . S
C2211 C631 2.021 1_554 S
C2226 C1593 2.091 . S
C2221 C751 2.028 . S
C2236 C1596 2.091 . S
C2231 C781 1.744 . S
C2241 C841 1.741 . S
C2246 C1592 2.095 . S
C2256 C1594 2.093 . S
C2251 C931 2.030 . S
C2266 C1590 2.091 . S
C2261 C991 2.020 . S
C2271 C1051 2.026 . S
C2276 C1595 2.089 . S
C2281 C1081 1.746 . S
C2286 C1591 2.089 . S
C2296 C1597 2.093 . S
C2291 C1141 1.742 . S
C2306 C1651 2.091 . S
C2301 C901 1.744 . S
C2311 C721 1.741 . S
C2316 C1690 2.095 . S
C2326 C1650 2.093 . S
C2321 C811 2.023 . S
C2336 C1692 2.093 . S
C2331 C871 2.023 . S
C2346 C1649 2.093 . S
C2341 C1021 1.749 . S
C2351 C1111 2.024 . S
C2356 C1691 2.095 . S
C2366 C1648 2.093 . S
C2361 C1171 2.023 . S
C2376 C1693 2.091 . S
C2371 C961 1.737 . S
C2386 C1697 2.091 . S
C2381 C1231 2.028 . S
C2391 C1291 2.026 . S
C2396 C1696 2.089 . S
C2406 C1644 2.093 . S
C2401 C1201 1.749 . S
C2411 C1321 1.741 . S
C2416 C1695 2.095 . S
C2426 C1647 2.091 . S
C2421 C1411 2.020 . S
C2436 C1694 2.091 . S
C2431 C1381 1.737 . S
C2446 C1645 2.091 . S
C2441 C1261 1.744 . S
C2451 C1351 2.024 . S
C2456 C1646 2.087 . S
