# Generated by pormake.
# Topology apo, (3,6)-cn, num edge types: 1
# Building blocks:
#     Node 0, Type 0, BuildingBlock: PAMTOO_clean_linker_0, # of connection points: 3
#     Node 1, Type 0, BuildingBlock: PAMTOO_clean_linker_0, # of connection points: 3
#     Node 2, Type 0, BuildingBlock: PAMTOO_clean_linker_0, # of connection points: 3
#     Node 3, Type 0, BuildingBlock: PAMTOO_clean_linker_0, # of connection points: 3
#     Node 4, Type 0, BuildingBlock: PAMTOO_clean_linker_0, # of connection points: 3
#     Node 5, Type 0, BuildingBlock: PAMTOO_clean_linker_0, # of connection points: 3
#     Node 6, Type 0, BuildingBlock: PAMTOO_clean_linker_0, # of connection points: 3
#     Node 7, Type 0, BuildingBlock: PAMTOO_clean_linker_0, # of connection points: 3
#     Node 8, Type 1, BuildingBlock: KUMBUR_clean_sbu_1, # of connection points: 6
#     Node 9, Type 1, BuildingBlock: KUMBUR_clean_sbu_1, # of connection points: 6
#     Node 10, Type 1, BuildingBlock: KUMBUR_clean_sbu_1, # of connection points: 6
#     Node 11, Type 1, BuildingBlock: KUMBUR_clean_sbu_1, # of connection points: 6
#     Edge 12, Type (0, 1), BuildingBlock: UVAHIK_clean_linker_0, # of connection points: 2
#     Edge 13, Type (0, 1), BuildingBlock: UVAHIK_clean_linker_0, # of connection points: 2
#     Edge 14, Type (0, 1), BuildingBlock: UVAHIK_clean_linker_0, # of connection points: 2
#     Edge 15, Type (0, 1), BuildingBlock: UVAHIK_clean_linker_0, # of connection points: 2
#     Edge 16, Type (0, 1), BuildingBlock: UVAHIK_clean_linker_0, # of connection points: 2
#     Edge 17, Type (0, 1), BuildingBlock: UVAHIK_clean_linker_0, # of connection points: 2
#     Edge 18, Type (0, 1), BuildingBlock: UVAHIK_clean_linker_0, # of connection points: 2
#     Edge 19, Type (0, 1), BuildingBlock: UVAHIK_clean_linker_0, # of connection points: 2
#     Edge 20, Type (0, 1), BuildingBlock: UVAHIK_clean_linker_0, # of connection points: 2
#     Edge 21, Type (0, 1), BuildingBlock: UVAHIK_clean_linker_0, # of connection points: 2
#     Edge 22, Type (0, 1), BuildingBlock: UVAHIK_clean_linker_0, # of connection points: 2
#     Edge 23, Type (0, 1), BuildingBlock: UVAHIK_clean_linker_0, # of connection points: 2
#     Edge 24, Type (0, 1), BuildingBlock: UVAHIK_clean_linker_0, # of connection points: 2
#     Edge 25, Type (0, 1), BuildingBlock: UVAHIK_clean_linker_0, # of connection points: 2
#     Edge 26, Type (0, 1), BuildingBlock: UVAHIK_clean_linker_0, # of connection points: 2
#     Edge 27, Type (0, 1), BuildingBlock: UVAHIK_clean_linker_0, # of connection points: 2
#     Edge 28, Type (0, 1), BuildingBlock: UVAHIK_clean_linker_0, # of connection points: 2
#     Edge 29, Type (0, 1), BuildingBlock: UVAHIK_clean_linker_0, # of connection points: 2
#     Edge 30, Type (0, 1), BuildingBlock: UVAHIK_clean_linker_0, # of connection points: 2
#     Edge 31, Type (0, 1), BuildingBlock: UVAHIK_clean_linker_0, # of connection points: 2
#     Edge 32, Type (0, 1), BuildingBlock: UVAHIK_clean_linker_0, # of connection points: 2
#     Edge 33, Type (0, 1), BuildingBlock: UVAHIK_clean_linker_0, # of connection points: 2
#     Edge 34, Type (0, 1), BuildingBlock: UVAHIK_clean_linker_0, # of connection points: 2
#     Edge 35, Type (0, 1), BuildingBlock: UVAHIK_clean_linker_0, # of connection points: 2
# Relax obj value: 0.041
# Max RMSD: 0.212
# Mean RMSD: 0.155
data_MOF--net-apo--node1-KUMBUR_clean_sbu_1--node2-PAMTOO_clean_linker_0--edge1-UVAHIK_clean_linker_0
_symmetry_space_group_name_H-M    P1
_symmetry_Int_Tables_number       1
_symmetry_cell_setting            triclinic
loop_
_symmetry_equiv_pos_as_xyz
'x, y, z'
_cell_length_a     34.693907
_cell_length_b     55.36869
_cell_length_c     64.074652
_cell_angle_alpha  89.960921
_cell_angle_beta   90.008901
_cell_angle_gamma 90.498994
loop_
_atom_site_label
_atom_site_type_symbol
_atom_site_fract_x
_atom_site_fract_y
_atom_site_fract_z
_atom_type_partial_charge
H0 H 0.32387 0.41132 0.43039 0.0
H1 H 0.2635 0.37875 0.3789 0.0
H2 H 0.26107 0.34447 0.43902 0.0
H3 H 0.27547 0.31296 0.40205 0.0
C4 C 0.25658 0.32206 0.39045 0.0
O5 O 0.23855 0.34124 0.4 0.0
H6 H 0.27489 0.32881 0.3774 0.0
C7 C 0.30507 0.39718 0.42441 0.0
C8 C 0.29335 0.37812 0.43755 0.0
C9 C 0.29465 0.39753 0.40327 0.0
C10 C 0.27152 0.37881 0.39525 0.0
C11 C 0.25941 0.35974 0.40815 0.0
C12 C 0.2704 0.35937 0.42923 0.0
H13 H 0.194 0.09861 0.92523 0.0
H14 H 0.25047 0.16718 0.93397 0.0
H15 H 0.25274 0.13336 0.87375 0.0
H16 H 0.32675 0.15518 0.88948 0.0
C17 C 0.31452 0.17173 0.89667 0.0
O18 O 0.27482 0.17106 0.89543 0.0
H19 H 0.32343 0.17222 0.91335 0.0
C20 C 0.21111 0.11335 0.91888 0.0
C21 C 0.22175 0.11335 0.89767 0.0
C22 C 0.22132 0.13266 0.93197 0.0
C23 C 0.24239 0.15222 0.92393 0.0
C24 C 0.25392 0.15229 0.903 0.0
C25 C 0.24353 0.133 0.8899 0.0
H26 H 0.82912 0.10055 0.58033 0.0
H27 H 0.76702 0.13176 0.63194 0.0
H28 H 0.76433 0.16548 0.5716 0.0
H29 H 0.77012 0.20035 0.6059 0.0
C30 C 0.75804 0.18921 0.61884 0.0
O31 O 0.74142 0.16851 0.61071 0.0
H32 H 0.7824 0.18447 0.62936 0.0
C33 C 0.80995 0.11406 0.58665 0.0
C34 C 0.79718 0.13256 0.5735 0.0
C35 C 0.79961 0.11347 0.60786 0.0
C36 C 0.77577 0.13181 0.61571 0.0
C37 C 0.76319 0.15057 0.60271 0.0
C38 C 0.7739 0.15091 0.58159 0.0
H39 H 0.69534 0.41112 0.08554 0.0
H40 H 0.74896 0.34273 0.07414 0.0
H41 H 0.75108 0.37301 0.13578 0.0
H42 H 0.82405 0.35281 0.12047 0.0
C43 C 0.81244 0.33646 0.11246 0.0
O44 O 0.77268 0.3367 0.11263 0.0
H45 H 0.8228 0.33673 0.09602 0.0
C46 C 0.71209 0.39602 0.09121 0.0
C47 C 0.72209 0.3946 0.11242 0.0
C48 C 0.72153 0.37744 0.07737 0.0
C49 C 0.74165 0.35728 0.0847 0.0
C50 C 0.7527 0.35593 0.10569 0.0
C51 C 0.74264 0.37441 0.11954 0.0
H52 H 0.70159 0.59499 0.58199 0.0
H53 H 0.7654 0.66069 0.57012 0.0
H54 H 0.7682 0.62852 0.63091 0.0
H55 H 0.75219 0.68205 0.62614 0.0
C56 C 0.77555 0.68599 0.61468 0.0
O57 O 0.79199 0.66478 0.60797 0.0
H58 H 0.76222 0.69543 0.60117 0.0
C59 C 0.72088 0.60922 0.58725 0.0
C60 C 0.73357 0.60925 0.60811 0.0
C61 C 0.73179 0.62773 0.57332 0.0
C62 C 0.75702 0.64597 0.58035 0.0
C63 C 0.76988 0.64622 0.60107 0.0
C64 C 0.7582 0.62795 0.61489 0.0
H65 H 0.82992 0.90793 0.07878 0.0
H66 H 0.77819 0.87076 0.13079 0.0
H67 H 0.77101 0.83981 0.06954 0.0
H68 H 0.70034 0.83036 0.09424 0.0
C69 C 0.71245 0.83381 0.11003 0.0
O70 O 0.75223 0.83428 0.10891 0.0
H71 H 0.70178 0.85163 0.11552 0.0
C72 C 0.81313 0.89287 0.0848 0.0
C73 C 0.80143 0.87412 0.07129 0.0
C74 C 0.80513 0.89179 0.10627 0.0
C75 C 0.78463 0.87187 0.11427 0.0
C76 C 0.77202 0.85334 0.10098 0.0
C77 C 0.7807 0.85436 0.0796 0.0
H78 H 0.20062 0.91541 0.4201 0.0
H79 H 0.26139 0.85029 0.43593 0.0
H80 H 0.26321 0.8768 0.37301 0.0
H81 H 0.24606 0.82324 0.38307 0.0
C82 C 0.27137 0.82084 0.39355 0.0
O83 O 0.2877 0.84295 0.39837 0.0
H84 H 0.26086 0.81204 0.40812 0.0
C85 C 0.21885 0.90043 0.41575 0.0
C86 C 0.23096 0.89829 0.39498 0.0
C87 C 0.22896 0.88304 0.4307 0.0
C88 C 0.25336 0.86407 0.42478 0.0
C89 C 0.26575 0.86189 0.40405 0.0
C90 C 0.25416 0.87883 0.3891 0.0
H91 H 0.32997 0.59893 0.92512 0.0
H92 H 0.27854 0.6387 0.87483 0.0
H93 H 0.27913 0.66849 0.93663 0.0
H94 H 0.20467 0.67552 0.91291 0.0
C95 C 0.2168 0.67528 0.89683 0.0
O96 O 0.25652 0.67494 0.89796 0.0
H97 H 0.20591 0.65866 0.88894 0.0
C98 C 0.3148 0.61476 0.91964 0.0
C99 C 0.30636 0.63354 0.93362 0.0
C100 C 0.30525 0.61653 0.89844 0.0
C101 C 0.28593 0.63704 0.8912 0.0
C102 C 0.27565 0.65541 0.90509 0.0
C103 C 0.28601 0.65373 0.92623 0.0
Tb104 Tb 0.05815 0.11067 0.23288 0.0
C105 C 0.88809 0.08969 0.25766 0.0
N106 N 0.90669 0.11137 0.25776 0.0
C107 C 0.85186 0.13006 0.24189 0.0
C108 C 0.85075 0.08724 0.24923 0.0
C109 C 0.88901 0.13153 0.25028 0.0
C110 C 0.83268 0.10779 0.24127 0.0
C111 C 0.88889 0.04697 0.2658 0.0
C112 C 0.90709 0.06984 0.26573 0.0
C113 C 0.8518 0.04433 0.25724 0.0
C114 C 0.83275 0.06443 0.24899 0.0
Tb115 Tb 0.96721 0.11174 0.27174 0.0
N116 N 0.94321 0.07305 0.27366 0.0
C117 C 0.90823 0.02754 0.27484 0.0
C118 C 0.9606 0.05457 0.28405 0.0
C119 C 0.94397 0.03146 0.28431 0.0
H120 H 0.90307 0.14888 0.25132 0.0
H121 H 0.95836 0.0168 0.29222 0.0
H122 H 0.11674 0.06766 0.25014 0.0
H123 H 0.07677 0.20716 0.22332 0.0
H124 H 0.9865 0.05754 0.29289 0.0
H125 H 0.89528 0.00967 0.27522 0.0
H126 H 0.04167 0.16866 0.22115 0.0
H127 H 0.83797 0.14614 0.23605 0.0
H128 H 0.83742 0.02688 0.25711 0.0
H129 H 0.80407 0.06216 0.24256 0.0
H130 H 0.18298 0.06533 0.26388 0.0
H131 H 0.80391 0.1067 0.23474 0.0
H132 H 0.14368 0.20824 0.23662 0.0
N133 N 0.11857 0.10582 0.2461 0.0
C134 C 0.14043 0.1263 0.24711 0.0
C135 C 0.17126 0.08261 0.25934 0.0
C136 C 0.17867 0.12572 0.25448 0.0
C137 C 0.13349 0.08405 0.25186 0.0
C138 C 0.19396 0.10352 0.26067 0.0
N139 N 0.08643 0.14802 0.23489 0.0
C140 C 0.06992 0.16879 0.22789 0.0
C141 C 0.14555 0.16971 0.24225 0.0
C142 C 0.12396 0.14806 0.24117 0.0
C143 C 0.12805 0.19122 0.23607 0.0
C144 C 0.09019 0.19071 0.22869 0.0
H145 H 0.22326 0.10232 0.26641 0.0
H146 H 0.22979 0.14716 0.26109 0.0
H147 H 0.20084 0.18563 0.25033 0.0
O148 O 0.05828 0.11964 0.2009 0.0
O149 O 0.06544 0.12761 0.2638 0.0
O150 O 1.00604 0.14297 0.27193 0.0
O151 O 0.09778 0.09352 0.21323 0.0
O152 O 1.00568 0.12897 0.22232 0.0
O153 O 0.97545 0.14355 0.2519 0.0
O154 O 0.96646 0.1079 0.30511 0.0
O155 O 0.9597 0.09589 0.24041 0.0
O156 O 0.01842 0.07965 0.23116 0.0
O157 O 0.92812 0.13221 0.28859 0.0
O158 O 0.02081 0.09381 0.28168 0.0
O159 O 0.04753 0.07834 0.25145 0.0
C160 C 0.04358 0.14275 0.27412 0.0
C161 C 0.08121 0.0899 0.17768 0.0
C162 C 0.09282 0.08551 0.14042 0.0
C163 C 0.0805 0.06134 0.1416 0.0
C164 C 0.06829 0.06582 0.17862 0.0
C165 C 0.06794 0.05164 0.16059 0.0
C166 C 0.09287 0.09979 0.15848 0.0
C167 C 0.98161 0.14377 0.23161 0.0
C168 C 0.0857 0.10455 0.19662 0.0
C169 C 0.2003 0.14726 0.25553 0.0
C170 C 0.1838 0.16917 0.24942 0.0
C171 C 0.98044 0.07964 0.2307 0.0
C172 C 0.92155 0.13285 0.32594 0.0
C173 C 0.91137 0.1317 0.36363 0.0
C174 C 0.8886 0.15244 0.3621 0.0
C175 C 0.8985 0.15362 0.32491 0.0
C176 C 0.92798 0.12179 0.3455 0.0
C177 C 0.8822 0.16328 0.34286 0.0
C178 C 0.04299 0.07832 0.2718 0.0
C179 C 0.93921 0.12387 0.30646 0.0
H180 H 0.08077 0.04999 0.12783 0.0
H181 H 0.05924 0.05789 0.19331 0.0
H182 H 0.05849 0.03298 0.16139 0.0
H183 H 0.10329 0.1183 0.15772 0.0
H184 H 0.87563 0.16023 0.37591 0.0
H185 H 0.89324 0.16264 0.31019 0.0
H186 H 0.94571 0.10582 0.34664 0.0
H187 H 0.86461 0.17929 0.34186 0.0
Tb188 Tb 0.47093 0.39818 0.73548 0.0
C189 C 0.63804 0.41886 0.76533 0.0
N190 N 0.61826 0.39767 0.76389 0.0
C191 C 0.67397 0.37837 0.74962 0.0
C192 C 0.67641 0.42083 0.75826 0.0
C193 C 0.63599 0.37732 0.75687 0.0
C194 C 0.69419 0.40028 0.75012 0.0
C195 C 0.63976 0.46066 0.7765 0.0
C196 C 0.61987 0.43847 0.77438 0.0
C197 C 0.6777 0.46291 0.769 0.0
C198 C 0.69601 0.44303 0.75995 0.0
Tb199 Tb 0.55776 0.39752 0.77754 0.0
N200 N 0.58331 0.4355 0.78177 0.0
C201 C 0.62131 0.47973 0.78657 0.0
C202 C 0.56623 0.45364 0.79276 0.0
C203 C 0.58456 0.47611 0.79494 0.0
H204 H 0.6214 0.36008 0.75732 0.0
H205 H 0.57064 0.49048 0.80345 0.0
H206 H 0.41114 0.43984 0.75636 0.0
H207 H 0.44213 0.30806 0.70879 0.0
H208 H 0.53917 0.45081 0.8006 0.0
H209 H 0.6356 0.49706 0.78852 0.0
H210 H 0.48033 0.34572 0.71263 0.0
H211 H 0.68779 0.3622 0.74394 0.0
H212 H 0.69339 0.47983 0.77048 0.0
H213 H 0.72551 0.44492 0.7546 0.0
H214 H 0.34936 0.43962 0.77477 0.0
H215 H 0.72372 0.40099 0.74465 0.0
H216 H 0.37884 0.30407 0.72637 0.0
N217 N 0.4128 0.40152 0.75239 0.0
C218 C 0.39102 0.3809 0.75252 0.0
C219 C 0.36109 0.42286 0.76897 0.0
C220 C 0.35397 0.38034 0.76158 0.0
C221 C 0.39704 0.42272 0.75913 0.0
C222 C 0.3397 0.40148 0.77053 0.0
N223 N 0.4402 0.362 0.73321 0.0
C224 C 0.45328 0.34379 0.7208 0.0
C225 C 0.38168 0.33976 0.74015 0.0
C226 C 0.40462 0.36076 0.74203 0.0
C227 C 0.39571 0.32047 0.72831 0.0
C228 C 0.4315 0.32261 0.71841 0.0
H229 H 0.31144 0.40178 0.77771 0.0
H230 H 0.30316 0.35831 0.7675 0.0
H231 H 0.32737 0.32284 0.74864 0.0
O232 O 0.47936 0.39807 0.70252 0.0
O233 O 0.47696 0.3678 0.75735 0.0
O234 O 0.49981 0.38611 0.78675 0.0
O235 O 0.42558 0.40871 0.7163 0.0
O236 O 0.52463 0.38021 0.72647 0.0
O237 O 0.55153 0.36566 0.75727 0.0
O238 O 0.57988 0.40274 0.80791 0.0
O239 O 0.56683 0.4124 0.74605 0.0
O240 O 0.50955 0.42973 0.73588 0.0
O241 O 0.57867 0.36695 0.79348 0.0
O242 O 0.50493 0.41646 0.78646 0.0
O243 O 0.47692 0.43023 0.75568 0.0
C244 C 0.48033 0.36869 0.77773 0.0
C245 C 0.43392 0.41948 0.68086 0.0
C246 C 0.42121 0.42097 0.64334 0.0
C247 C 0.4012 0.4427 0.64632 0.0
C248 C 0.41417 0.44135 0.68336 0.0
C249 C 0.39788 0.45281 0.66615 0.0
C250 C 0.4375 0.40942 0.66077 0.0
C251 C 0.54586 0.36456 0.73686 0.0
C252 C 0.444 0.40463 0.6991 0.0
C253 C 0.33163 0.35907 0.76057 0.0
C254 C 0.34536 0.33888 0.74978 0.0
C255 C 0.54746 0.42982 0.73705 0.0
C256 C 0.6054 0.36966 0.82862 0.0
C257 C 0.61806 0.37072 0.86602 0.0
C258 C 0.63878 0.34917 0.86423 0.0
C259 C 0.62615 0.34806 0.82717 0.0
C260 C 0.60162 0.38113 0.84815 0.0
C261 C 0.6429 0.33798 0.8449 0.0
C262 C 0.48303 0.43157 0.77599 0.0
C263 C 0.58781 0.37994 0.80973 0.0
H264 H 0.38709 0.45157 0.63335 0.0
H265 H 0.40999 0.44909 0.69871 0.0
H266 H 0.38174 0.46928 0.66825 0.0
H267 H 0.45178 0.39222 0.65884 0.0
H268 H 0.65169 0.34097 0.87788 0.0
H269 H 0.62962 0.33905 0.8123 0.0
H270 H 0.58545 0.39772 0.84953 0.0
H271 H 0.65898 0.32138 0.84367 0.0
Tb272 Tb 0.05333 0.89446 0.73099 0.0
C273 C 0.88539 0.87632 0.75791 0.0
N274 N 0.90589 0.89732 0.75669 0.0
C275 C 0.85246 0.91677 0.74017 0.0
C276 C 0.84799 0.8745 0.74945 0.0
C277 C 0.8895 0.91767 0.74873 0.0
C278 C 0.83172 0.89504 0.74035 0.0
C279 C 0.88225 0.83433 0.76861 0.0
C280 C 0.90248 0.85647 0.76739 0.0
C281 C 0.8451 0.83235 0.75999 0.0
C282 C 0.82801 0.85238 0.75046 0.0
Tb283 Tb 0.96442 0.89712 0.77272 0.0
N284 N 0.93876 0.85897 0.77543 0.0
C285 C 0.89978 0.81488 0.77866 0.0
C286 C 0.95513 0.84029 0.78609 0.0
C287 C 0.93618 0.81795 0.7876 0.0
H288 H 0.90439 0.9348 0.74945 0.0
H289 H 0.9495 0.80318 0.7959 0.0
H290 H 0.11714 0.85441 0.74821 0.0
H291 H 0.07456 0.98538 0.70287 0.0
H292 H 0.98214 0.84246 0.79407 0.0
H293 H 0.88518 0.79756 0.77993 0.0
H294 H 0.03999 0.94657 0.70718 0.0
H295 H 0.83974 0.93291 0.7337 0.0
H296 H 0.8292 0.81545 0.76075 0.0
H297 H 0.79924 0.85061 0.74403 0.0
H298 H 0.1834 0.85457 0.76177 0.0
H299 H 0.80297 0.89441 0.73375 0.0
H300 H 0.13999 0.99067 0.71771 0.0
N301 N 0.11533 0.89238 0.74341 0.0
C302 C 0.13664 0.91303 0.74235 0.0
C303 C 0.17036 0.87129 0.75676 0.0
C304 C 0.17521 0.91391 0.74925 0.0
C305 C 0.1323 0.87136 0.74955 0.0
C306 C 0.19176 0.89275 0.75694 0.0
N307 N 0.08399 0.93066 0.72557 0.0
C308 C 0.06795 0.9489 0.71422 0.0
C309 C 0.14179 0.95446 0.73045 0.0
C310 C 0.12049 0.93286 0.7329 0.0
C311 C 0.12465 0.97373 0.71991 0.0
C312 C 0.08771 0.97082 0.71154 0.0
H313 H 0.22139 0.89259 0.76227 0.0
H314 H 0.22596 0.93668 0.75286 0.0
H315 H 0.19646 0.97234 0.73657 0.0
O316 O 0.04542 0.89649 0.69817 0.0
O317 O 0.05082 0.92504 0.75273 0.0
O318 O 0.02112 0.9109 0.7828 0.0
O319 O 0.08409 0.87104 0.71181 0.0
O320 O 0.99894 0.91191 0.7223 0.0
O321 O 0.97478 0.92874 0.75274 0.0
O322 O 0.93882 0.89111 0.80214 0.0
O323 O 0.95603 0.88103 0.74163 0.0
O324 O 0.0147 0.86422 0.73686 0.0
O325 O 0.93737 0.92613 0.78775 0.0
O326 O 0.01604 0.87825 0.78419 0.0
O327 O 0.0513 0.86587 0.75497 0.0
C328 C 0.04582 0.92523 0.77307 0.0
C329 C 0.10171 0.88614 0.679 0.0
C330 C 0.12203 0.88966 0.64273 0.0
C331 C 0.16023 0.89311 0.64938 0.0
C332 C 0.14017 0.8899 0.68532 0.0
C333 C 0.1692 0.89317 0.67055 0.0
C334 C 0.09274 0.88593 0.65757 0.0
C335 C 0.98009 0.92898 0.73232 0.0
C336 C 0.07173 0.88044 0.69458 0.0
C337 C 0.19637 0.93559 0.74751 0.0
C338 C 0.17963 0.95587 0.73818 0.0
C339 C 0.97812 0.8651 0.73267 0.0
C340 C 0.93087 0.92482 0.8249 0.0
C341 C 0.92547 0.92237 0.86302 0.0
C342 C 0.92801 0.94768 0.86401 0.0
C343 C 0.93305 0.95013 0.82646 0.0
C344 C 0.92657 0.91097 0.84335 0.0
C345 C 0.93163 0.9614 0.84588 0.0
C346 C 0.04291 0.865 0.77512 0.0
C347 C 0.92782 0.91336 0.80405 0.0
H348 H 0.18324 0.89553 0.63811 0.0
H349 H 0.14803 0.88981 0.70166 0.0
H350 H 0.19878 0.89562 0.67554 0.0
H351 H 0.0633 0.88281 0.65249 0.0
H352 H 0.92628 0.95693 0.87887 0.0
H353 H 0.93496 0.96133 0.81263 0.0
H354 H 0.92367 0.89149 0.84243 0.0
H355 H 0.93278 0.98091 0.84686 0.0
Tb356 Tb 0.47434 0.61454 0.23658 0.0
C357 C 0.64238 0.63172 0.262 0.0
N358 N 0.62212 0.61061 0.26132 0.0
C359 C 0.67552 0.59088 0.24511 0.0
C360 C 0.67967 0.63344 0.25341 0.0
C361 C 0.63844 0.59012 0.25363 0.0
C362 C 0.69615 0.61266 0.24486 0.0
C363 C 0.64458 0.67423 0.27102 0.0
C364 C 0.625 0.65182 0.27086 0.0
C365 C 0.68166 0.67609 0.2623 0.0
C366 C 0.69922 0.65573 0.25362 0.0
Tb367 Tb 0.56382 0.61098 0.27743 0.0
N368 N 0.58895 0.64937 0.27918 0.0
C369 C 0.62646 0.69408 0.2801 0.0
C370 C 0.57229 0.66841 0.28916 0.0
C371 C 0.59034 0.69109 0.28936 0.0
H372 H 0.62337 0.57303 0.25447 0.0
H373 H 0.57667 0.70617 0.29704 0.0
H374 H 0.41464 0.65518 0.25708 0.0
H375 H 0.44692 0.52506 0.20685 0.0
H376 H 0.54583 0.66632 0.29764 0.0
H377 H 0.64048 0.71164 0.28047 0.0
H378 H 0.48467 0.5625 0.21231 0.0
H379 H 0.68832 0.57462 0.23894 0.0
H380 H 0.69713 0.69318 0.26233 0.0
H381 H 0.72792 0.65743 0.24708 0.0
H382 H 0.34961 0.65571 0.27222 0.0
H383 H 0.72487 0.61319 0.23823 0.0
H384 H 0.38099 0.52135 0.22135 0.0
N385 N 0.41355 0.61756 0.25041 0.0
C386 C 0.39072 0.59761 0.24868 0.0
C387 C 0.36107 0.63907 0.26602 0.0
C388 C 0.35261 0.59726 0.25631 0.0
C389 C 0.39852 0.63854 0.25795 0.0
C390 C 0.33819 0.61822 0.26551 0.0
N391 N 0.44159 0.57925 0.23079 0.0
C392 C 0.45637 0.56088 0.21914 0.0
C393 C 0.38202 0.55708 0.23509 0.0
C394 C 0.40496 0.57792 0.23811 0.0
C395 C 0.39759 0.53774 0.22395 0.0
C396 C 0.43485 0.53974 0.21581 0.0
H397 H 0.30902 0.61875 0.27153 0.0
H398 H 0.30057 0.57565 0.25982 0.0
H399 H 0.32651 0.54033 0.24135 0.0
O400 O 0.48137 0.61305 0.2037 0.0
O401 O 0.47478 0.584 0.25869 0.0
O402 O 0.50761 0.5973 0.28813 0.0
O403 O 0.44171 0.63754 0.21786 0.0
O404 O 0.52714 0.59568 0.22751 0.0
O405 O 0.55206 0.57921 0.25798 0.0
O406 O 0.59042 0.6171 0.30654 0.0
O407 O 0.5716 0.62575 0.24578 0.0
O408 O 0.51443 0.64453 0.24125 0.0
O409 O 0.59099 0.58196 0.29233 0.0
O410 O 0.51237 0.62954 0.28934 0.0
O411 O 0.48122 0.64367 0.25964 0.0
C412 C 0.48275 0.58275 0.27881 0.0
C413 C 0.42392 0.62232 0.18502 0.0
C414 C 0.40265 0.61828 0.14886 0.0
C415 C 0.36491 0.6139 0.15592 0.0
C416 C 0.38589 0.6177 0.19166 0.0
C417 C 0.35664 0.61367 0.17717 0.0
C418 C 0.43219 0.62273 0.16348 0.0
C419 C 0.54602 0.5787 0.23765 0.0
C420 C 0.45405 0.62856 0.20043 0.0
C421 C 0.32982 0.57633 0.25391 0.0
C422 C 0.34451 0.55626 0.24331 0.0
C423 C 0.55131 0.64313 0.23757 0.0
C424 C 0.59645 0.58337 0.32939 0.0
C425 C 0.59922 0.5861 0.3675 0.0
C426 C 0.59615 0.56081 0.36866 0.0
C427 C 0.59366 0.55809 0.33107 0.0
C428 C 0.59966 0.59733 0.34777 0.0
C429 C 0.5935 0.54696 0.35057 0.0
C430 C 0.48663 0.64336 0.28004 0.0
C431 C 0.60075 0.59472 0.30859 0.0
H432 H 0.34164 0.61095 0.1449 0.0
H433 H 0.37847 0.6177 0.20805 0.0
H434 H 0.32738 0.61054 0.18243 0.0
H435 H 0.46126 0.62655 0.15814 0.0
H436 H 0.5968 0.55167 0.38361 0.0
H437 H 0.59245 0.54679 0.31728 0.0
H438 H 0.60293 0.61679 0.34677 0.0
H439 H 0.59191 0.52747 0.35167 0.0
C440 C 0.22685 0.9404 0.38156 0.0
C441 C 0.21713 0.91589 0.37949 0.0
C442 C 0.20978 0.95763 0.36868 0.0
C443 C 0.12202 0.96706 0.33734 0.0
H444 H 0.17822 0.02294 0.31648 0.0
C445 C 0.06085 0.03547 0.27769 0.0
C446 C 0.06293 0.05972 0.28395 0.0
C447 C 0.07973 0.01768 0.28916 0.0
C448 C 0.16222 0.00747 0.32234 0.0
H449 H 0.18253 0.88988 0.36247 0.0
H450 H 0.15256 0.91998 0.33976 0.0
H451 H 0.2125 0.99166 0.33582 0.0
H452 H 0.08671 0.08475 0.30654 0.0
H453 H 0.12132 0.05361 0.32625 0.0
H454 H 0.07188 0.98281 0.32349 0.0
C455 C 0.17334 0.92596 0.35131 0.0
C456 C 0.18175 0.9896 0.33342 0.0
C457 C 0.19075 0.90871 0.36408 0.0
C458 C 0.08455 0.06606 0.30163 0.0
C459 C 0.1044 0.04835 0.31276 0.0
C460 C 0.10261 0.9848 0.32606 0.0
C461 C 0.18225 0.95067 0.35366 0.0
C462 C 0.16186 0.96922 0.34114 0.0
C463 C 0.10192 0.024 0.30669 0.0
C464 C 0.12252 0.0052 0.31855 0.0
H465 H 0.24695 0.94626 0.39351 0.0
H466 H 0.21704 0.97648 0.37105 0.0
H467 H 0.10566 0.95187 0.34343 0.0
H468 H 0.04413 0.03027 0.2641 0.0
H469 H 0.07752 0.99903 0.28417 0.0
C470 C 0.30989 0.5731 0.88809 0.0
C471 C 0.318 0.59751 0.88388 0.0
C472 C 0.32568 0.55496 0.87567 0.0
C473 C 0.40862 0.54404 0.84129 0.0
H474 H 0.35128 0.48675 0.82469 0.0
C475 C 0.46536 0.47458 0.78167 0.0
C476 C 0.46319 0.45036 0.78795 0.0
C477 C 0.44729 0.49245 0.79345 0.0
C478 C 0.36765 0.50259 0.82937 0.0
H479 H 0.34824 0.62224 0.86332 0.0
H480 H 0.37587 0.59057 0.84152 0.0
H481 H 0.31902 0.51844 0.84455 0.0
H482 H 0.44031 0.42546 0.81097 0.0
H483 H 0.40732 0.45668 0.83122 0.0
H484 H 0.45713 0.52824 0.82594 0.0
C485 C 0.35743 0.5854 0.85444 0.0
C486 C 0.34924 0.5207 0.84074 0.0
C487 C 0.3413 0.60353 0.86673 0.0
C488 C 0.44236 0.44413 0.80596 0.0
C489 C 0.42342 0.4619 0.81742 0.0
C490 C 0.42691 0.52602 0.82982 0.0
C491 C 0.35027 0.56091 0.85896 0.0
C492 C 0.36951 0.54167 0.84676 0.0
C493 C 0.42596 0.48624 0.81136 0.0
C494 C 0.40658 0.50517 0.82371 0.0
H495 H 0.29194 0.56806 0.90126 0.0
H496 H 0.31975 0.53627 0.87963 0.0
H497 H 0.42527 0.55971 0.84611 0.0
H498 H 0.48164 0.47969 0.7679 0.0
H499 H 0.44959 0.51109 0.78844 0.0
C500 C 0.71544 0.56625 0.61639 0.0
C501 C 0.71913 0.59043 0.62285 0.0
C502 C 0.69843 0.54896 0.62944 0.0
C503 C 0.67232 0.53565 0.68414 0.0
H504 H 0.59752 0.49218 0.6589 0.0
C505 C 0.57479 0.47124 0.73285 0.0
C506 C 0.56859 0.448 0.72482 0.0
C507 C 0.59415 0.48874 0.72094 0.0
C508 C 0.61868 0.50395 0.66617 0.0
H509 H 0.70861 0.61522 0.64837 0.0
H510 H 0.67927 0.58492 0.67127 0.0
H511 H 0.63035 0.52226 0.6374 0.0
H512 H 0.57695 0.42454 0.69831 0.0
H513 H 0.61053 0.45508 0.67727 0.0
H514 H 0.66075 0.51724 0.71292 0.0
C515 C 0.68971 0.57936 0.6561 0.0
C516 C 0.63749 0.52122 0.65383 0.0
C517 C 0.70663 0.59671 0.643 0.0
C518 C 0.58173 0.4424 0.70475 0.0
C519 C 0.60065 0.45994 0.69273 0.0
C520 C 0.65358 0.51829 0.6965 0.0
C521 C 0.68482 0.55537 0.64932 0.0
C522 C 0.66468 0.5372 0.66263 0.0
C523 C 0.60704 0.48337 0.70064 0.0
C524 C 0.62666 0.50213 0.68764 0.0
H525 H 0.72541 0.5607 0.60112 0.0
H526 H 0.69581 0.53054 0.62391 0.0
H527 H 0.69333 0.54758 0.69136 0.0
H528 H 0.56447 0.47588 0.74827 0.0
H529 H 0.59822 0.50662 0.72746 0.0
C530 C 0.84236 0.90535 0.13771 0.0
C531 C 0.81955 0.9111 0.12035 0.0
C532 C 0.85806 0.92363 0.15025 0.0
C533 C 0.87881 0.99016 0.1501 0.0
H534 H 0.89871 0.97897 0.20886 0.0
C535 C 0.92577 0.0652 0.20838 0.0
C536 C 0.96033 0.06038 0.21894 0.0
C537 C 0.90731 0.04707 0.19679 0.0
C538 C 0.89334 0.98228 0.19246 0.0
H539 H 0.79404 0.94032 0.10285 0.0
H540 H 0.8196 0.97224 0.12524 0.0
H541 H 0.86744 0.94749 0.18812 0.0
H542 H 1.00193 0.03274 0.22645 0.0
H543 H 0.96883 1.00077 0.20674 0.0
H544 H 0.90367 0.02535 0.15486 0.0
C545 C 0.82686 0.95373 0.12884 0.0
C546 C 0.87565 0.96419 0.18046 0.0
C547 C 0.81185 0.93544 0.11606 0.0
C548 C 0.97554 0.03697 0.21823 0.0
C549 C 0.95653 0.01868 0.20709 0.0
C550 C 0.89573 0.0084 0.16222 0.0
C551 C 0.85069 0.94815 0.14598 0.0
C552 C 0.86839 0.96776 0.15903 0.0
C553 C 0.92252 0.02365 0.19606 0.0
C554 C 0.90342 0.00456 0.18345 0.0
H555 H 0.84904 0.8867 0.1412 0.0
H556 H 0.87677 0.91846 0.16297 0.0
H557 H 0.87466 0.99357 0.13363 0.0
H558 H 0.91345 0.08311 0.20873 0.0
H559 H 0.88101 0.0513 0.18849 0.0
C560 C 0.82672 0.09958 0.6423 0.0
C561 C 0.81524 0.09426 0.62173 0.0
C562 C 0.84398 0.08194 0.65475 0.0
C563 C 0.90035 0.02651 0.65094 0.0
H564 H 0.8688 0.01553 0.70823 0.0
C565 C 0.95549 0.94539 0.69848 0.0
C566 C 0.96232 0.94853 0.71992 0.0
C567 C 0.93807 0.96358 0.68678 0.0
C568 C 0.87843 0.0186 0.69237 0.0
H569 H 0.8115 0.06571 0.59856 0.0
H570 H 0.84254 0.03528 0.62008 0.0
H571 H 0.83685 0.04647 0.68751 0.0
H572 H 0.95709 0.97346 0.74581 0.0
H573 H 0.92736 0.00544 0.72533 0.0
H574 H 0.94236 0.99904 0.65576 0.0
C575 C 0.83843 0.05319 0.62646 0.0
C576 C 0.85998 0.03627 0.68049 0.0
C577 C 0.82073 0.07069 0.61413 0.0
C578 C 0.95184 0.97041 0.72936 0.0
C579 C 0.93461 0.98869 0.71761 0.0
C580 C 0.91908 0.00902 0.66286 0.0
C581 C 0.85055 0.05868 0.64683 0.0
C582 C 0.87055 0.04027 0.65961 0.0
C583 C 0.92731 0.98547 0.69618 0.0
C584 C 0.90818 0.00469 0.68369 0.0
H585 H 0.82353 0.11759 0.64862 0.0
H586 H 0.85328 0.08672 0.67036 0.0
H587 H 0.90952 0.02947 0.63497 0.0
H588 H 0.96306 0.9287 0.69076 0.0
H589 H 0.93238 0.96025 0.67041 0.0
C590 C 0.70976 0.43807 0.12089 0.0
C591 C 0.70918 0.41369 0.12705 0.0
C592 C 0.69369 0.45578 0.1336 0.0
C593 C 0.66381 0.46971 0.18715 0.0
H594 H 0.59325 0.51373 0.16009 0.0
C595 C 0.57115 0.53669 0.23428 0.0
C596 C 0.56436 0.55943 0.2254 0.0
C597 C 0.5889 0.51857 0.22263 0.0
C598 C 0.61331 0.50189 0.1679 0.0
H599 H 0.69231 0.38893 0.15173 0.0
H600 H 0.66483 0.42004 0.17415 0.0
H601 H 0.62601 0.48329 0.13949 0.0
H602 H 0.5714 0.58132 0.1976 0.0
H603 H 0.60362 0.55018 0.17754 0.0
H604 H 0.65188 0.48858 0.21549 0.0
C605 C 0.67777 0.42535 0.15944 0.0
C606 C 0.63198 0.48437 0.15606 0.0
C607 C 0.69363 0.40757 0.14664 0.0
C608 C 0.57584 0.56382 0.20474 0.0
C609 C 0.59415 0.54589 0.19322 0.0
C610 C 0.64549 0.48746 0.19898 0.0
C611 C 0.67697 0.44955 0.15284 0.0
C612 C 0.65745 0.46814 0.16555 0.0
C613 C 0.60078 0.52296 0.20195 0.0
C614 C 0.62002 0.50382 0.18949 0.0
H615 H 0.72217 0.44344 0.10607 0.0
H616 H 0.69407 0.47436 0.1283 0.0
H617 H 0.68351 0.45751 0.19482 0.0
H618 H 0.56232 0.53282 0.25016 0.0
H619 H 0.59287 0.50105 0.22979 0.0
C620 C 0.33282 0.41041 0.3721 0.0
C621 C 0.31043 0.41663 0.38945 0.0
C622 C 0.35096 0.42831 0.36014 0.0
C623 C 0.37777 0.4943 0.36138 0.0
H624 H 0.40196 0.48172 0.30346 0.0
C625 C 0.46953 0.56219 0.31322 0.0
C626 C 0.46357 0.56362 0.29154 0.0
C627 C 0.45131 0.54416 0.32512 0.0
C628 C 0.39493 0.48595 0.31948 0.0
H629 H 0.28833 0.44632 0.40766 0.0
H630 H 0.3176 0.47774 0.38608 0.0
H631 H 0.36652 0.45195 0.32324 0.0
H632 H 0.43545 0.54605 0.26546 0.0
H633 H 0.40075 0.51664 0.286 0.0
H634 H 0.40346 0.5291 0.35715 0.0
C635 C 0.32285 0.45909 0.38205 0.0
C636 C 0.37515 0.46842 0.3311 0.0
C637 C 0.30556 0.44111 0.39433 0.0
C638 C 0.43943 0.54632 0.28212 0.0
C639 C 0.42026 0.52882 0.29402 0.0
C640 C 0.39652 0.51215 0.34958 0.0
C641 C 0.34638 0.453 0.36491 0.0
C642 C 0.3665 0.47216 0.35231 0.0
C643 C 0.42594 0.52731 0.31575 0.0
C644 C 0.40567 0.50825 0.32844 0.0
H645 H 0.33747 0.3916 0.36825 0.0
H646 H 0.36941 0.4226 0.3475 0.0
H647 H 0.37254 0.49793 0.37772 0.0
H648 H 0.48849 0.57491 0.32107 0.0
H649 H 0.45762 0.5434 0.34164 0.0
C650 C 0.20724 0.06932 0.89119 0.0
C651 C 0.20897 0.09323 0.88374 0.0
C652 C 0.19202 0.05077 0.8788 0.0
C653 C 0.16957 0.03307 0.82478 0.0
H654 H 0.09248 0.99162 0.85049 0.0
C655 C 0.07821 0.96571 0.7761 0.0
C656 C 0.06634 0.94392 0.78543 0.0
C657 C 0.09681 0.98363 0.78785 0.0
C658 C 0.11444 1.00265 0.84307 0.0
H659 H 0.19689 0.11609 0.85704 0.0
H660 H 0.17115 0.08356 0.83528 0.0
H661 H 0.1242 0.0228 0.87113 0.0
H662 H 0.06525 0.92361 0.81431 0.0
H663 H 0.09894 0.95433 0.83468 0.0
H664 H 0.16065 0.01269 0.79684 0.0
C665 C 0.18157 0.07926 0.85077 0.0
C666 C 0.13251 0.02065 0.85495 0.0
C667 C 0.19646 0.09789 0.86324 0.0
C668 C 0.0738 0.94031 0.80672 0.0
C669 C 0.09293 0.95806 0.81843 0.0
C670 C 0.15192 0.01482 0.81295 0.0
C671 C 0.17855 0.05558 0.85856 0.0
C672 C 0.16016 0.03612 0.84593 0.0
C673 C 0.10449 0.9801 0.80922 0.0
C674 C 0.12393 0.99937 0.82189 0.0
H675 H 0.21741 0.0649 0.9067 0.0
H676 H 0.1907 0.03261 0.8851 0.0
H677 H 0.19103 0.0446 0.81745 0.0
H678 H 0.07228 0.96922 0.75979 0.0
H679 H 0.1044 1.00044 0.7802 0.0
C680 C 0.18003 0.14595 0.96172 0.0
C681 C 0.21045 0.13191 0.95419 0.0
C682 C 0.16781 0.14357 0.98247 0.0
C683 C 0.17206 0.09974 0.02622 0.0
H684 H 0.13457 0.15298 0.05964 0.0
C685 C 0.14357 0.08725 0.11312 0.0
C686 C 0.10792 0.0952 0.12057 0.0
C687 C 0.15675 0.09452 0.09352 0.0
C688 C 0.1448 0.13796 0.05041 0.0
H689 H 0.25308 0.10522 0.96215 0.0
H690 H 0.23309 0.10167 0.99853 0.0
H691 H 0.15689 0.16046 0.0239 0.0
H692 H 0.05861 0.11765 0.11409 0.0
H693 H 0.08138 0.13016 0.07933 0.0
H694 H 0.16043 0.07731 0.05263 0.0
C695 C 0.21762 0.11395 0.98846 0.0
C696 C 0.15749 0.1422 0.02994 0.0
C697 C 0.22937 0.11609 0.96771 0.0
C698 C 0.08623 0.11134 0.10853 0.0
C699 C 0.09933 0.11853 0.08876 0.0
C700 C 0.15979 0.09559 0.04662 0.0
C701 C 0.1861 0.12723 0.99602 0.0
C702 C 0.17169 0.12313 0.01766 0.0
C703 C 0.13432 0.10969 0.08087 0.0
C704 C 0.14641 0.11464 0.05904 0.0
H705 H 0.16502 0.15819 0.9514 0.0
H706 H 0.14329 0.15393 0.98765 0.0
H707 H 0.18154 0.08445 0.0171 0.0
H708 H 0.1609 0.07504 0.12235 0.0
H709 H 0.1842 0.08785 0.08804 0.0
C710 C 0.30682 0.3993 0.47131 0.0
C711 C 0.30636 0.37781 0.45968 0.0
C712 C 0.32185 0.3998 0.49148 0.0
C713 C 0.38717 0.36763 0.52749 0.0
H714 H 0.33942 0.41007 0.56788 0.0
C715 C 0.41134 0.38562 0.61907 0.0
C716 C 0.42208 0.40995 0.62219 0.0
C717 C 0.40343 0.37704 0.5989 0.0
C718 C 0.3529 0.39806 0.55676 0.0
H719 H 0.32086 0.3398 0.46035 0.0
H720 H 0.34637 0.34053 0.49602 0.0
H721 H 0.30901 0.4039 0.53406 0.0
H722 H 0.43748 0.44338 0.60656 0.0
H723 H 0.42301 0.4285 0.57155 0.0
H724 H 0.43112 0.36196 0.55074 0.0
C725 C 0.33556 0.3571 0.48929 0.0
C726 C 0.33571 0.39463 0.53734 0.0
C727 C 0.32049 0.35661 0.46897 0.0
C728 C 0.42852 0.42472 0.60467 0.0
C729 C 0.42056 0.41619 0.58464 0.0
C730 C 0.40429 0.37093 0.54716 0.0
C731 C 0.33656 0.37876 0.50075 0.0
C732 C 0.35306 0.3799 0.52221 0.0
C733 C 0.40638 0.39266 0.5817 0.0
C734 C 0.38756 0.3866 0.56171 0.0
H735 H 0.29583 0.41589 0.46472 0.0
H736 H 0.32263 0.41691 0.49965 0.0
H737 H 0.4014 0.35625 0.51617 0.0
H738 H 0.40615 0.3738 0.63227 0.0
H739 H 0.39227 0.35885 0.59692 0.0
C740 C 0.71963 0.39805 0.04271 0.0
C741 C 0.70819 0.37875 0.05556 0.0
C742 C 0.70476 0.40021 0.02252 0.0
C743 C 0.65265 0.36466 0.98185 0.0
H744 H 0.63752 0.42765 0.95672 0.0
C745 C 0.58833 0.37014 0.90114 0.0
C746 C 0.61343 0.38136 0.88692 0.0
C747 C 0.59209 0.37451 0.92249 0.0
C748 C 0.64142 0.40999 0.96364 0.0
H749 H 0.6719 0.34694 0.05788 0.0
H750 H 0.64455 0.35109 0.02306 0.0
H751 H 0.66109 0.4248 0.99264 0.0
H752 H 0.65971 0.40745 0.88334 0.0
H753 H 0.6664 0.41522 0.92086 0.0
H754 H 0.63277 0.34987 0.95301 0.0
C755 C 0.66607 0.36413 0.02804 0.0
C756 C 0.65528 0.40829 0.98413 0.0
C757 C 0.68159 0.36171 0.04803 0.0
C758 C 0.63986 0.39879 0.8941 0.0
C759 C 0.64365 0.40319 0.91553 0.0
C760 C 0.63824 0.36638 0.96162 0.0
C761 C 0.67749 0.38338 0.01495 0.0
C762 C 0.66145 0.38555 0.99344 0.0
C763 C 0.62126 0.39002 0.92995 0.0
C764 C 0.63276 0.389 0.95221 0.0
H765 H 0.74012 0.41142 0.04832 0.0
H766 H 0.71491 0.41498 0.01284 0.0
H767 H 0.65786 0.34683 0.98813 0.0
H768 H 0.56786 0.35657 0.89586 0.0
H769 H 0.57409 0.3644 0.93327 0.0
C770 C 0.84078 0.14747 0.54531 0.0
C771 C 0.80992 0.13266 0.55154 0.0
C772 C 0.85695 0.1449 0.52544 0.0
C773 C 0.8629 0.1011 0.48129 0.0
H774 H 0.90045 0.15708 0.45096 0.0
C775 C 0.88843 0.10496 0.39217 0.0
C776 C 0.91639 0.12117 0.38459 0.0
C777 C 0.88285 0.10225 0.41369 0.0
C778 C 0.89086 0.14115 0.45936 0.0
H779 H 0.77106 0.10396 0.54214 0.0
H780 H 0.79787 0.10014 0.50701 0.0
H781 H 0.87308 0.16223 0.48549 0.0
H782 H 0.9627 0.14557 0.39318 0.0
H783 H 0.95383 0.14036 0.43079 0.0
H784 H 0.87951 0.0802 0.45462 0.0
C785 C 0.81049 0.1133 0.51753 0.0
C786 C 0.87498 0.14413 0.47922 0.0
C787 C 0.7947 0.11569 0.53749 0.0
C788 C 0.94128 0.13274 0.39873 0.0
C789 C 0.93576 0.13003 0.42022 0.0
C790 C 0.87854 0.09815 0.46131 0.0
C791 C 0.84234 0.12755 0.51134 0.0
C792 C 0.86039 0.12419 0.4904 0.0
C793 C 0.90502 0.11586 0.42791 0.0
C794 C 0.89242 0.11818 0.45003 0.0
H795 H 0.85337 0.16035 0.55613 0.0
H796 H 0.88172 0.15598 0.52142 0.0
H797 H 0.85276 0.08522 0.48958 0.0
H798 H 0.86848 0.09623 0.38152 0.0
H799 H 0.85888 0.09123 0.41905 0.0
C800 C 0.81077 0.897 0.03775 0.0
C801 C 0.81222 0.87506 0.04876 0.0
C802 C 0.82414 0.89856 0.01722 0.0
C803 C 0.85148 0.86265 0.97049 0.0
H804 H 0.90761 0.92139 0.95691 0.0
C805 C 0.88767 0.89352 0.88568 0.0
C806 C 0.92 0.90861 0.88274 0.0
C807 C 0.87803 0.88513 0.90572 0.0
C808 C 0.89261 0.90464 0.9604 0.0
H809 H 0.8278 0.83731 0.04645 0.0
H810 H 0.85132 0.84006 0.01055 0.0
H811 H 0.8831 0.91558 0.99189 0.0
H812 H 0.96974 0.92462 0.8979 0.0
H813 H 0.95397 0.90937 0.93253 0.0
H814 H 0.86178 0.85162 0.93887 0.0
C815 C 0.83956 0.85605 0.0178 0.0
C816 C 0.87786 0.90151 0.98048 0.0
C817 C 0.82604 0.85447 0.03839 0.0
C818 C 0.94432 0.91332 0.89979 0.0
C819 C 0.93502 0.90474 0.91968 0.0
C820 C 0.86645 0.86575 0.95029 0.0
C821 C 0.83951 0.87825 1.00709 0.0
C822 C 0.85655 0.88068 0.98577 0.0
C823 C 0.90074 0.89155 0.92314 0.0
C824 C 0.88697 0.88693 0.94492 0.0
H825 H 0.79954 0.9131 0.04508 0.0
H826 H 0.82261 0.91582 0.00932 0.0
H827 H 0.83518 0.84638 0.97399 0.0
H828 H 0.86841 0.88962 0.87278 0.0
H829 H 0.85147 0.87498 0.9077 0.0
C830 C 0.73732 0.63624 0.53467 0.0
C831 C 0.71513 0.62856 0.55188 0.0
C832 C 0.72147 0.63638 0.51455 0.0
C833 C 0.64767 0.60526 0.48403 0.0
H834 H 0.66001 0.65721 0.44387 0.0
C835 C 0.57962 0.59521 0.40409 0.0
C836 C 0.60403 0.60005 0.38711 0.0
C837 C 0.58875 0.60379 0.42396 0.0
C838 C 0.65649 0.64252 0.45489 0.0
H839 H 0.65812 0.61636 0.56142 0.0
H840 H 0.63117 0.61587 0.52643 0.0
H841 H 0.68634 0.66177 0.47924 0.0
H842 H 0.65518 0.61956 0.37714 0.0
H843 H 0.67173 0.63427 0.41206 0.0
H844 H 0.61919 0.58558 0.45992 0.0
C845 C 0.66088 0.62157 0.52847 0.0
C846 C 0.67157 0.64514 0.47509 0.0
C847 C 0.6765 0.62166 0.54852 0.0
C848 C 0.63594 0.61549 0.39001 0.0
C849 C 0.64537 0.62392 0.41002 0.0
C850 C 0.63292 0.60258 0.46394 0.0
C851 C 0.68327 0.62865 0.51124 0.0
C852 C 0.66724 0.62649 0.48984 0.0
C853 C 0.62286 0.61713 0.42738 0.0
C854 C 0.63701 0.62115 0.44908 0.0
H855 H 0.7672 0.64155 0.53663 0.0
H856 H 0.73947 0.64174 0.50151 0.0
H857 H 0.64454 0.59039 0.49492 0.0
H858 H 0.55443 0.58371 0.40218 0.0
H859 H 0.57006 0.5989 0.43685 0.0
C860 C 0.29825 0.64015 0.97235 0.0
C861 C 0.32085 0.63235 0.95548 0.0
C862 C 0.31232 0.63873 0.99281 0.0
C863 C 0.38537 0.60766 0.02509 0.0
H864 H 0.36616 0.65983 0.06393 0.0
C865 C 0.39933 0.59827 0.11421 0.0
C866 C 0.40966 0.61858 0.1261 0.0
C867 C 0.39628 0.59991 0.09254 0.0
C868 C 0.37237 0.64527 0.0532 0.0
H869 H 0.37646 0.61762 0.94694 0.0
H870 H 0.40065 0.61501 0.98243 0.0
H871 H 0.34299 0.66288 0.02813 0.0
H872 H 0.42767 0.65606 0.12477 0.0
H873 H 0.42275 0.65899 0.08664 0.0
H874 H 0.41478 0.59006 0.05016 0.0
C875 C 0.37183 0.62181 0.97995 0.0
C876 C 0.35849 0.64685 0.03276 0.0
C877 C 0.35787 0.62329 0.95957 0.0
C878 C 0.4198 0.64013 0.11587 0.0
C879 C 0.41651 0.64184 0.09411 0.0
C880 C 0.39922 0.60607 0.04554 0.0
C881 C 0.34929 0.62951 0.99684 0.0
C882 C 0.36452 0.62798 0.01851 0.0
C883 C 0.40323 0.62199 0.0823 0.0
C884 C 0.39255 0.62475 0.05992 0.0
H885 H 0.26948 0.64698 0.96979 0.0
H886 H 0.294 0.64452 1.00551 0.0
H887 H 0.39029 0.59271 0.01456 0.0
H888 H 0.39134 0.58148 0.12183 0.0
H889 H 0.38585 0.58428 0.08402 0.0
C890 C 0.17317 0.89043 0.4547 0.0
C891 C 0.21198 0.88392 0.45199 0.0
C892 C 0.15661 0.89075 0.47454 0.0
C893 C 0.16758 0.86533 0.52718 0.0
H894 H 0.10431 0.91918 0.5444 0.0
C895 C 0.10461 0.86826 0.6097 0.0
C896 C 0.11405 0.88977 0.62013 0.0
C897 C 0.10712 0.8671 0.58791 0.0
C898 C 0.12169 0.90394 0.53976 0.0
H899 H 0.26389 0.87292 0.46814 0.0
H900 H 0.23479 0.87325 0.50284 0.0
H901 H 0.13096 0.91835 0.50913 0.0
H902 H 0.13033 0.92729 0.61633 0.0
H903 H 0.13441 0.92547 0.57841 0.0
H904 H 0.15965 0.85135 0.55799 0.0
C905 C 0.21715 0.8779 0.4895 0.0
C906 C 0.13681 0.90341 0.51955 0.0
C907 C 0.23382 0.87772 0.46964 0.0
C908 C 0.12282 0.91056 0.60851 0.0
C909 C 0.12504 0.90948 0.5868 0.0
C910 C 0.15236 0.8658 0.54734 0.0
C911 C 0.17832 0.88434 0.49214 0.0
C912 C 0.16051 0.88431 0.51318 0.0
C913 C 0.11891 0.88749 0.57632 0.0
C914 C 0.12983 0.88533 0.554 0.0
H915 H 0.15522 0.89482 0.44142 0.0
H916 H 0.12652 0.89551 0.47605 0.0
H917 H 0.18527 0.8502 0.52261 0.0
H918 H 0.09799 0.85198 0.61843 0.0
H919 H 0.10171 0.84999 0.58021 0.0
C920 C 0.19212 0.3109 0.37352 0.0
C921 C 0.22818 0.30397 0.38154 0.0
C922 C 0.16872 0.29411 0.36291 0.0
C923 C 0.17815 0.24035 0.33066 0.0
H924 H 0.07025 0.22722 0.34198 0.0
C925 C 0.10097 0.1592 0.29325 0.0
C926 C 0.0624 0.16165 0.28702 0.0
C927 C 0.11916 0.17724 0.30496 0.0
C928 C 0.10022 0.23092 0.3384 0.0
H929 H 0.26809 0.27434 0.38445 0.0
H930 H 0.22759 0.24524 0.36591 0.0
H931 H 0.10475 0.258 0.36234 0.0
H932 H 0.01248 0.1849 0.28846 0.0
H933 H 0.04441 0.21661 0.30865 0.0
H934 H 0.17397 0.21389 0.30655 0.0
C935 C 0.21715 0.26346 0.36804 0.0
C936 C 0.11994 0.2485 0.35012 0.0
C937 C 0.24019 0.28005 0.37878 0.0
C938 C 0.04224 0.18243 0.29305 0.0
C939 C 0.06052 0.20058 0.30472 0.0
C940 C 0.15846 0.22307 0.31883 0.0
C941 C 0.1815 0.27037 0.35968 0.0
C942 C 0.1593 0.25304 0.34658 0.0
C943 C 0.09933 0.1983 0.31072 0.0
C944 C 0.11941 0.21776 0.32275 0.0
H945 H 0.18246 0.32936 0.37497 0.0
H946 H 0.14146 0.29994 0.35648 0.0
H947 H 0.20831 0.24383 0.32733 0.0
H948 H 0.11714 0.14323 0.2892 0.0
H949 H 0.14877 0.17451 0.30968 0.0
C950 C 0.35037 0.21177 0.89569 0.0
C951 C 0.32992 0.19347 0.88515 0.0
C952 C 0.36608 0.23135 0.88467 0.0
C953 C 0.39897 0.24837 0.83206 0.0
H954 H 0.3929 0.31406 0.8526 0.0
C955 C 0.44745 0.32844 0.78116 0.0
C956 C 0.46387 0.34891 0.79065 0.0
C957 C 0.43079 0.31008 0.79312 0.0
C958 C 0.39542 0.2958 0.84676 0.0
H959 H 0.30899 0.18144 0.85508 0.0
H960 H 0.33613 0.21574 0.83575 0.0
H961 H 0.36397 0.28118 0.87273 0.0
H962 H 0.47753 0.36549 0.82045 0.0
H963 H 0.45053 0.33273 0.84146 0.0
H964 H 0.43108 0.26261 0.80641 0.0
C965 C 0.34053 0.21483 0.85247 0.0
C966 C 0.37866 0.27696 0.85829 0.0
C967 C 0.32482 0.1953 0.86349 0.0
C968 C 0.46459 0.35013 0.81257 0.0
C969 C 0.44873 0.33142 0.82463 0.0
C970 C 0.41606 0.2671 0.82067 0.0
C971 C 0.36169 0.23295 0.86289 0.0
C972 C 0.37994 0.25306 0.85095 0.0
C973 C 0.43137 0.31118 0.81505 0.0
C974 C 0.41421 0.29115 0.82772 0.0
H975 H 0.35472 0.21075 0.9124 0.0
H976 H 0.38249 0.2449 0.89312 0.0
H977 H 0.40116 0.23009 0.82619 0.0
H978 H 0.44768 0.32638 0.76442 0.0
H979 H 0.41729 0.29506 0.78506 0.0
C980 C 0.70782 0.22195 0.62105 0.0
C981 C 0.72879 0.20361 0.63089 0.0
C982 C 0.68384 0.23705 0.63268 0.0
C983 C 0.67217 0.25952 0.68659 0.0
H984 H 0.57767 0.28669 0.66487 0.0
C985 C 0.57847 0.32428 0.73536 0.0
C986 C 0.56384 0.34462 0.72499 0.0
C987 C 0.59592 0.30567 0.72415 0.0
C988 C 0.60417 0.2794 0.67109 0.0
H989 H 0.73883 0.1853 0.66021 0.0
H990 H 0.6966 0.21146 0.6806 0.0
H991 H 0.61145 0.25593 0.64484 0.0
H992 H 0.55565 0.36115 0.69462 0.0
H993 H 0.58627 0.3288 0.67511 0.0
H994 H 0.66516 0.28315 0.7127 0.0
C995 C 0.69949 0.2147 0.664 0.0
C996 C 0.62353 0.26174 0.65961 0.0
C997 C 0.72347 0.19962 0.65235 0.0
C998 C 0.56653 0.34573 0.70311 0.0
C999 C 0.58393 0.3271 0.6919 0.0
C1000 C 0.65279 0.27713 0.69806 0.0
C1001 C 0.68011 0.23401 0.65441 0.0
C1002 C 0.65798 0.2517 0.66713 0.0
C1003 C 0.59903 0.30689 0.70228 0.0
C1004 C 0.61872 0.28744 0.69039 0.0
H1005 H 0.7111 0.22515 0.60446 0.0
H1006 H 0.66953 0.25173 0.62474 0.0
H1007 H 0.69896 0.25257 0.69272 0.0
H1008 H 0.57641 0.32269 0.75217 0.0
H1009 H 0.60672 0.29021 0.73262 0.0
C1010 C 0.81824 0.31117 0.14498 0.0
C1011 C 0.82675 0.31446 0.12376 0.0
C1012 C 0.83314 0.29147 0.1559 0.0
C1013 C 0.91242 0.2471 0.15362 0.0
H1014 H 0.85381 0.21525 0.19739 0.0
C1015 C 0.96383 0.16117 0.19681 0.0
C1016 C 0.96272 0.1625 0.21872 0.0
C1017 C 0.94635 0.17892 0.18462 0.0
C1018 C 0.8705 0.22407 0.18525 0.0
H1019 H 0.85688 0.29966 0.09715 0.0
H1020 H 0.88248 0.26501 0.11605 0.0
H1021 H 0.82388 0.24714 0.1768 0.0
H1022 H 0.94329 0.18398 0.24497 0.0
H1023 H 0.91162 0.21446 0.22363 0.0
H1024 H 0.95882 0.22367 0.16197 0.0
C1025 C 0.8648 0.27779 0.12442 0.0
C1026 C 0.85346 0.24239 0.1735 0.0
C1027 C 0.84992 0.29752 0.11353 0.0
C1028 C 0.94393 0.18207 0.22815 0.0
C1029 C 0.92587 0.19957 0.21596 0.0
C1030 C 0.92926 0.22858 0.1652 0.0
C1031 C 0.85692 0.27463 0.1458 0.0
C1032 C 0.87434 0.25432 0.15767 0.0
C1033 C 0.927 0.19819 0.1941 0.0
C1034 C 0.90858 0.21707 0.18125 0.0
H1035 H 0.80054 0.3241 0.15319 0.0
H1036 H 0.82685 0.28983 0.17239 0.0
H1037 H 0.92963 0.25613 0.14182 0.0
H1038 H 0.97816 0.14639 0.18902 0.0
H1039 H 0.94754 0.17745 0.16777 0.0
C1040 C 0.81388 0.69961 0.64599 0.0
C1041 C 0.80543 0.70205 0.62469 0.0
C1042 C 0.83868 0.71603 0.65585 0.0
C1043 C 0.87114 0.77873 0.65123 0.0
H1044 H 0.94269 0.76113 0.69501 0.0
C1045 C 0.95597 0.85114 0.69782 0.0
C1046 C 0.96118 0.84662 0.71912 0.0
C1047 C 0.94134 0.83301 0.68477 0.0
C1048 C 0.92252 0.76641 0.68299 0.0
H1049 H 0.81853 0.72211 0.59653 0.0
H1050 H 0.86204 0.75096 0.61375 0.0
H1051 H 0.91055 0.72958 0.67482 0.0
H1052 H 0.95664 0.81998 0.74361 0.0
H1053 H 0.9286 0.78878 0.72138 0.0
H1054 H 0.88171 0.81546 0.65984 0.0
C1055 C 0.84881 0.7367 0.62293 0.0
C1056 C 0.90429 0.74829 0.67134 0.0
C1057 C 0.82408 0.72021 0.61308 0.0
C1058 C 0.95195 0.82387 0.72727 0.0
C1059 C 0.9366 0.80591 0.7144 0.0
C1060 C 0.88904 0.79685 0.66302 0.0
C1061 C 0.85564 0.73513 0.64453 0.0
C1062 C 0.87798 0.75425 0.65554 0.0
C1063 C 0.93125 0.81015 0.69292 0.0
C1064 C 0.91449 0.79093 0.67929 0.0
H1065 H 0.80015 0.68551 0.65516 0.0
H1066 H 0.84322 0.71439 0.67251 0.0
H1067 H 0.85066 0.78391 0.63931 0.0
H1068 H 0.96373 0.86856 0.69125 0.0
H1069 H 0.93836 0.83684 0.66828 0.0
C1070 C 0.6717 0.81871 0.14019 0.0
C1071 C 0.69897 0.81397 0.12455 0.0
C1072 C 0.65759 0.80008 0.15289 0.0
C1073 C 0.64837 0.73301 0.15536 0.0
H1074 H 0.62305 0.74564 0.21326 0.0
C1075 C 0.60479 0.65801 0.21453 0.0
C1076 C 0.57055 0.66247 0.2255 0.0
C1077 C 0.62205 0.67627 0.20253 0.0
C1078 C 0.62991 0.7419 0.1971 0.0
H1079 H 0.73245 0.78603 0.10973 0.0
H1080 H 0.70887 0.75352 0.1323 0.0
H1081 H 0.65078 0.77783 0.19187 0.0
H1082 H 0.52814 0.68961 0.23313 0.0
H1083 H 0.55875 0.7216 0.21256 0.0
H1084 H 0.628 0.69687 0.16089 0.0
C1085 C 0.69788 0.77155 0.13465 0.0
C1086 C 0.64561 0.76037 0.18476 0.0
C1087 C 0.71177 0.79019 0.12184 0.0
C1088 C 0.55437 0.68562 0.22467 0.0
C1089 C 0.57199 0.70396 0.21303 0.0
C1090 C 0.63315 0.71446 0.1678 0.0
C1091 C 0.67043 0.77621 0.1503 0.0
C1092 C 0.6548 0.75626 0.16366 0.0
C1093 C 0.60578 0.69942 0.20167 0.0
C1094 C 0.62351 0.71878 0.18874 0.0
H1095 H 0.66088 0.83682 0.14242 0.0
H1096 H 0.63594 0.80437 0.16445 0.0
H1097 H 0.6543 0.72921 0.13911 0.0
H1098 H 0.61781 0.6403 0.2149 0.0
H1099 H 0.64823 0.67235 0.19402 0.0
C1100 C 0.30821 0.80843 0.36151 0.0
C1101 C 0.30035 0.80509 0.38279 0.0
C1102 C 0.33228 0.79245 0.35093 0.0
C1103 C 0.40402 0.7435 0.3583 0.0
H1104 H 0.36671 0.72296 0.30403 0.0
C1105 C 0.46218 0.65964 0.31408 0.0
C1106 C 0.46812 0.66251 0.29253 0.0
C1107 C 0.44401 0.67775 0.32562 0.0
C1108 C 0.37775 0.72867 0.31907 0.0
H1109 H 0.3135 0.78371 0.41013 0.0
H1110 H 0.35512 0.75547 0.39165 0.0
H1111 H 0.33233 0.75403 0.32308 0.0
H1112 H 0.46166 0.68712 0.26641 0.0
H1113 H 0.42954 0.71836 0.2864 0.0
H1114 H 0.44914 0.71766 0.35428 0.0
C1115 C 0.34278 0.77036 0.38305 0.0
C1116 C 0.35813 0.74658 0.32998 0.0
C1117 C 0.31875 0.7864 0.39363 0.0
C1118 C 0.45655 0.68406 0.28289 0.0
C1119 C 0.4382 0.70201 0.29434 0.0
C1120 C 0.42359 0.72545 0.3474 0.0
C1121 C 0.34905 0.77283 0.36145 0.0
C1122 C 0.37101 0.75428 0.34971 0.0
C1123 C 0.43143 0.699 0.31579 0.0
C1124 C 0.41068 0.7179 0.32764 0.0
H1125 H 0.29483 0.82301 0.35296 0.0
H1126 H 0.33725 0.79524 0.33442 0.0
H1127 H 0.41495 0.74916 0.37337 0.0
H1128 H 0.47101 0.64326 0.32193 0.0
H1129 H 0.43902 0.67489 0.34213 0.0
C1130 C 0.18357 0.71565 0.8944 0.0
C1131 C 0.20361 0.69694 0.88455 0.0
C1132 C 0.16868 0.73478 0.88274 0.0
C1133 C 0.17371 0.7653 0.83092 0.0
H1134 H 0.07201 0.78765 0.84645 0.0
C1135 C 0.0798 0.82636 0.77827 0.0
C1136 C 0.06238 0.84634 0.78789 0.0
C1137 C 0.09881 0.80897 0.79016 0.0
C1138 C 0.10059 0.78179 0.84207 0.0
H1139 H 0.22522 0.68392 0.85501 0.0
H1140 H 0.19884 0.71721 0.83445 0.0
H1141 H 0.10245 0.75588 0.86677 0.0
H1142 H 0.05013 0.86315 0.81768 0.0
H1143 H 0.08235 0.83226 0.83852 0.0
H1144 H 0.17108 0.7909 0.80582 0.0
C1145 C 0.19475 0.71727 0.8512 0.0
C1146 C 0.11816 0.76361 0.85374 0.0
C1147 C 0.2097 0.69814 0.86291 0.0
C1148 C 0.06341 0.84808 0.80976 0.0
C1149 C 0.08186 0.83041 0.8217 0.0
C1150 C 0.15592 0.78335 0.81912 0.0
C1151 C 0.17343 0.73564 0.86092 0.0
C1152 C 0.15503 0.75516 0.8484 0.0
C1153 C 0.09998 0.81075 0.812 0.0
C1154 C 0.11921 0.79182 0.82461 0.0
H1155 H 0.17876 0.71526 0.9111 0.0
H1156 H 0.15321 0.74884 0.89085 0.0
H1157 H 0.20227 0.75948 0.82647 0.0
H1158 H 0.07832 0.8239 0.76153 0.0
H1159 H 0.11184 0.79378 0.78227 0.0
loop_
_geom_bond_atom_site_label_1
_geom_bond_atom_site_label_2
_geom_bond_distance
_geom_bond_site_symmetry_2
_ccdc_geom_bond_type
H0 C7 0.929 . S
H1 C10 0.930 . S
H2 C12 0.929 . S
H3 C4 0.969 . S
C4 H3 0.969 . S
C4 O5 1.550 . S
C4 H6 0.973 . S
O5 C4 1.550 . S
O5 C11 1.412 . S
H6 C4 0.973 . S
C7 H0 0.929 . S
C7 C8 1.400 . S
C7 C9 1.364 . S
C8 C7 1.400 . S
C8 C12 1.377 . S
C9 C7 1.364 . S
C9 C10 1.374 . S
C10 H1 0.930 . S
C10 C9 1.374 . S
C10 C11 1.383 . S
C11 O5 1.412 . S
C11 C10 1.383 . S
C11 C12 1.394 . S
C12 H2 0.929 . S
C12 C8 1.377 . S
C12 C11 1.394 . S
H13 C20 0.929 . S
H14 C23 0.930 . S
H15 C25 0.929 . S
H16 C17 0.969 . S
C17 H16 0.969 . S
C17 O18 1.550 . S
C17 H19 0.973 . S
O18 C17 1.550 . S
O18 C24 1.412 . S
H19 C17 0.973 . S
C20 H13 0.929 . S
C20 C21 1.400 . S
C20 C22 1.364 . S
C21 C20 1.400 . S
C21 C25 1.377 . S
C22 C20 1.364 . S
C22 C23 1.374 . S
C23 H14 0.930 . S
C23 C22 1.374 . S
C23 C24 1.383 . S
C24 O18 1.412 . S
C24 C23 1.383 . S
C24 C25 1.394 . S
C25 H15 0.929 . S
C25 C21 1.377 . S
C25 C24 1.394 . S
H26 C33 0.929 . S
H27 C36 0.930 . S
H28 C38 0.929 . S
H29 C30 0.969 . S
C30 H29 0.969 . S
C30 O31 1.550 . S
C30 H32 0.973 . S
O31 C30 1.550 . S
O31 C37 1.412 . S
H32 C30 0.973 . S
C33 H26 0.929 . S
C33 C34 1.400 . S
C33 C35 1.364 . S
C34 C33 1.400 . S
C34 C38 1.377 . S
C35 C33 1.364 . S
C35 C36 1.374 . S
C36 H27 0.930 . S
C36 C35 1.374 . S
C36 C37 1.383 . S
C37 O31 1.412 . S
C37 C36 1.383 . S
C37 C38 1.394 . S
C38 H28 0.929 . S
C38 C34 1.377 . S
C38 C37 1.394 . S
H39 C46 0.929 . S
H40 C49 0.930 . S
H41 C51 0.929 . S
H42 C43 0.969 . S
C43 H42 0.969 . S
C43 O44 1.550 . S
C43 H45 0.973 . S
O44 C43 1.550 . S
O44 C50 1.412 . S
H45 C43 0.973 . S
C46 H39 0.929 . S
C46 C47 1.400 . S
C46 C48 1.364 . S
C47 C46 1.400 . S
C47 C51 1.377 . S
C48 C46 1.364 . S
C48 C49 1.374 . S
C49 H40 0.930 . S
C49 C48 1.374 . S
C49 C50 1.383 . S
C50 O44 1.412 . S
C50 C49 1.383 . S
C50 C51 1.394 . S
C51 H41 0.929 . S
C51 C47 1.377 . S
C51 C50 1.394 . S
H52 C59 0.929 . S
H53 C62 0.930 . S
H54 C64 0.929 . S
H55 C56 0.969 . S
C56 H55 0.969 . S
C56 O57 1.550 . S
C56 H58 0.973 . S
O57 C56 1.550 . S
O57 C63 1.412 . S
H58 C56 0.973 . S
C59 H52 0.929 . S
C59 C60 1.400 . S
C59 C61 1.364 . S
C60 C59 1.400 . S
C60 C64 1.377 . S
C61 C59 1.364 . S
C61 C62 1.374 . S
C62 H53 0.930 . S
C62 C61 1.374 . S
C62 C63 1.383 . S
C63 O57 1.412 . S
C63 C62 1.383 . S
C63 C64 1.394 . S
C64 H54 0.929 . S
C64 C60 1.377 . S
C64 C63 1.394 . S
H65 C72 0.929 . S
H66 C75 0.930 . S
H67 C77 0.929 . S
H68 C69 0.969 . S
C69 H68 0.969 . S
C69 O70 1.550 . S
C69 H71 0.973 . S
O70 C69 1.550 . S
O70 C76 1.412 . S
H71 C69 0.973 . S
C72 H65 0.929 . S
C72 C73 1.400 . S
C72 C74 1.364 . S
C73 C72 1.400 . S
C73 C77 1.377 . S
C74 C72 1.364 . S
C74 C75 1.374 . S
C75 H66 0.930 . S
C75 C74 1.374 . S
C75 C76 1.383 . S
C76 O70 1.412 . S
C76 C75 1.383 . S
C76 C77 1.394 . S
C77 H67 0.929 . S
C77 C73 1.377 . S
C77 C76 1.394 . S
H78 C85 0.929 . S
H79 C88 0.930 . S
H80 C90 0.929 . S
H81 C82 0.969 . S
C82 H81 0.969 . S
C82 O83 1.550 . S
C82 H84 0.973 . S
O83 C82 1.550 . S
O83 C89 1.412 . S
H84 C82 0.973 . S
C85 H78 0.929 . S
C85 C86 1.400 . S
C85 C87 1.364 . S
C86 C85 1.400 . S
C86 C90 1.377 . S
C87 C85 1.364 . S
C87 C88 1.374 . S
C88 H79 0.930 . S
C88 C87 1.374 . S
C88 C89 1.383 . S
C89 O83 1.412 . S
C89 C88 1.383 . S
C89 C90 1.394 . S
C90 H80 0.929 . S
C90 C86 1.377 . S
C90 C89 1.394 . S
H91 C98 0.929 . S
H92 C101 0.930 . S
H93 C103 0.929 . S
H94 C95 0.969 . S
C95 H94 0.969 . S
C95 O96 1.550 . S
C95 H97 0.973 . S
O96 C95 1.550 . S
O96 C102 1.412 . S
H97 C95 0.973 . S
C98 H91 0.929 . S
C98 C99 1.400 . S
C98 C100 1.364 . S
C99 C98 1.400 . S
C99 C103 1.377 . S
C100 C98 1.364 . S
C100 C101 1.374 . S
C101 H92 0.930 . S
C101 C100 1.374 . S
C101 C102 1.383 . S
C102 O96 1.412 . S
C102 C101 1.383 . S
C102 C103 1.394 . S
C103 H93 0.929 . S
C103 C99 1.377 . S
C103 C102 1.394 . S
Tb104 N133 2.617 . S
Tb104 N139 2.572 . S
Tb104 O148 2.465 . S
Tb104 O149 2.387 . S
Tb104 O151 2.428 . S
Tb104 O152 2.308 . S
Tb104 O156 2.349 . S
Tb104 O159 2.393 . S
Tb104 C168 2.802 . S
C105 N106 1.379 . S
C105 C108 1.416 . S
C105 C112 1.424 . S
N106 C105 1.379 . S
N106 C109 1.334 . S
N106 Tb115 2.617 . S
C107 C109 1.390 . S
C107 C110 1.339 . S
C107 H127 0.930 . S
C108 C105 1.416 . S
C108 C110 1.416 . S
C108 C114 1.448 . S
C109 N106 1.334 . S
C109 C107 1.390 . S
C109 H120 0.930 . S
C110 C107 1.339 . S
C110 C108 1.416 . S
C110 H131 0.930 . S
C111 C112 1.413 . S
C111 C113 1.427 . S
C111 C117 1.416 . S
C112 C105 1.424 . S
C112 C111 1.413 . S
C112 N116 1.361 . S
C113 C111 1.427 . S
C113 C114 1.328 . S
C113 H128 0.929 . S
C114 C108 1.448 . S
C114 C113 1.328 . S
C114 H129 0.930 . S
Tb115 N106 2.617 . S
Tb115 N116 2.572 . S
Tb115 O150 2.349 1_655 S
Tb115 O153 2.393 . S
Tb115 O154 2.465 . S
Tb115 O155 2.387 . S
Tb115 O157 2.428 . S
Tb115 O158 2.308 1_655 S
Tb115 C179 2.802 . S
N116 C112 1.361 . S
N116 Tb115 2.572 . S
N116 C118 1.340 . S
C117 C111 1.416 . S
C117 C119 1.332 . S
C117 H125 0.931 . S
C118 N116 1.340 . S
C118 C119 1.407 . S
C118 H124 0.930 . S
C119 C117 1.332 . S
C119 C118 1.407 . S
C119 H121 0.929 . S
H120 C109 0.930 . S
H121 C119 0.929 . S
H122 C137 0.930 . S
H123 C144 0.929 . S
H124 C118 0.930 . S
H125 C117 0.931 . S
H126 C140 0.930 . S
H127 C107 0.930 . S
H128 C113 0.929 . S
H129 C114 0.930 . S
H130 C135 0.930 . S
H131 C110 0.930 . S
H132 C143 0.931 . S
N133 Tb104 2.617 . S
N133 C134 1.379 . S
N133 C137 1.334 . S
C134 N133 1.379 . S
C134 C136 1.416 . S
C134 C142 1.424 . S
C135 H130 0.930 . S
C135 C137 1.390 . S
C135 C138 1.339 . S
C136 C134 1.416 . S
C136 C138 1.416 . S
C136 C169 1.448 . S
C137 H122 0.930 . S
C137 N133 1.334 . S
C137 C135 1.390 . S
C138 C135 1.339 . S
C138 C136 1.416 . S
C138 H145 0.930 . S
N139 Tb104 2.572 . S
N139 C140 1.340 . S
N139 C142 1.361 . S
C140 H126 0.930 . S
C140 N139 1.340 . S
C140 C144 1.407 . S
C141 C142 1.413 . S
C141 C143 1.416 . S
C141 C170 1.427 . S
C142 C134 1.424 . S
C142 N139 1.361 . S
C142 C141 1.413 . S
C143 H132 0.931 . S
C143 C141 1.416 . S
C143 C144 1.332 . S
C144 H123 0.929 . S
C144 C140 1.407 . S
C144 C143 1.332 . S
H145 C138 0.930 . S
H146 C169 0.930 . S
H147 C170 0.929 . S
O148 Tb104 2.465 . S
O148 C168 1.264 . S
O149 Tb104 2.387 . S
O149 C160 1.264 . S
O150 Tb115 2.349 1_455 S
O150 C160 1.243 . S
O151 Tb104 2.428 . S
O151 C168 1.256 . S
O152 Tb104 2.308 . S
O152 C167 1.266 1_455 S
O153 Tb115 2.393 . S
O153 C167 1.248 . S
O154 Tb115 2.465 . S
O154 C179 1.264 . S
O155 Tb115 2.387 . S
O155 C171 1.264 . S
O156 Tb104 2.349 . S
O156 C171 1.243 1_455 S
O157 Tb115 2.428 . S
O157 C179 1.256 . S
O158 Tb115 2.308 1_455 S
O158 C178 1.266 . S
O159 Tb104 2.393 . S
O159 C178 1.248 . S
C160 O149 1.264 . S
C160 O150 1.243 . S
C161 C164 1.399 . S
C161 C166 1.383 . S
C161 C168 1.496 . S
C162 C163 1.399 . S
C162 C166 1.389 . S
C163 C162 1.399 . S
C163 C165 1.380 . S
C163 H180 0.929 . S
C164 C161 1.399 . S
C164 C165 1.392 . S
C164 H181 0.929 . S
C165 C163 1.380 . S
C165 C164 1.392 . S
C165 H182 0.929 . S
C166 C161 1.383 . S
C166 C162 1.389 . S
C166 H183 0.931 . S
C167 O152 1.266 1_655 S
C167 O153 1.248 . S
C168 Tb104 2.802 . S
C168 O148 1.264 . S
C168 O151 1.256 . S
C168 C161 1.496 . S
C169 C136 1.448 . S
C169 H146 0.930 . S
C169 C170 1.328 . S
C170 C141 1.427 . S
C170 H147 0.929 . S
C170 C169 1.328 . S
C171 O155 1.264 . S
C171 O156 1.243 1_655 S
C172 C175 1.399 . S
C172 C176 1.383 . S
C172 C179 1.496 . S
C173 C174 1.399 . S
C173 C176 1.389 . S
C174 C173 1.399 . S
C174 C177 1.380 . S
C174 H184 0.929 . S
C175 C172 1.399 . S
C175 C177 1.392 . S
C175 H185 0.929 . S
C176 C172 1.383 . S
C176 C173 1.389 . S
C176 H186 0.931 . S
C177 C174 1.380 . S
C177 C175 1.392 . S
C177 H187 0.929 . S
C178 O158 1.266 . S
C178 O159 1.248 . S
C179 Tb115 2.802 . S
C179 O154 1.264 . S
C179 O157 1.256 . S
C179 C172 1.496 . S
H180 C163 0.929 . S
H181 C164 0.929 . S
H182 C165 0.929 . S
H183 C166 0.931 . S
H184 C174 0.929 . S
H185 C175 0.929 . S
H186 C176 0.931 . S
H187 C177 0.929 . S
Tb188 N217 2.617 . S
Tb188 N223 2.572 . S
Tb188 O232 2.465 . S
Tb188 O233 2.387 . S
Tb188 O235 2.428 . S
Tb188 O236 2.308 . S
Tb188 O240 2.349 . S
Tb188 O243 2.393 . S
Tb188 C252 2.802 . S
C189 N190 1.379 . S
C189 C192 1.416 . S
C189 C196 1.424 . S
N190 C189 1.379 . S
N190 C193 1.334 . S
N190 Tb199 2.617 . S
C191 C193 1.390 . S
C191 C194 1.339 . S
C191 H211 0.930 . S
C192 C189 1.416 . S
C192 C194 1.416 . S
C192 C198 1.448 . S
C193 N190 1.334 . S
C193 C191 1.390 . S
C193 H204 0.930 . S
C194 C191 1.339 . S
C194 C192 1.416 . S
C194 H215 0.930 . S
C195 C196 1.413 . S
C195 C197 1.427 . S
C195 C201 1.416 . S
C196 C189 1.424 . S
C196 C195 1.413 . S
C196 N200 1.361 . S
C197 C195 1.427 . S
C197 C198 1.328 . S
C197 H212 0.929 . S
C198 C192 1.448 . S
C198 C197 1.328 . S
C198 H213 0.930 . S
Tb199 N190 2.617 . S
Tb199 N200 2.572 . S
Tb199 O234 2.349 . S
Tb199 O237 2.393 . S
Tb199 O238 2.465 . S
Tb199 O239 2.387 . S
Tb199 O241 2.428 . S
Tb199 O242 2.308 . S
Tb199 C263 2.802 . S
N200 C196 1.361 . S
N200 Tb199 2.572 . S
N200 C202 1.340 . S
C201 C195 1.416 . S
C201 C203 1.332 . S
C201 H209 0.931 . S
C202 N200 1.340 . S
C202 C203 1.407 . S
C202 H208 0.930 . S
C203 C201 1.332 . S
C203 C202 1.407 . S
C203 H205 0.929 . S
H204 C193 0.930 . S
H205 C203 0.929 . S
H206 C221 0.930 . S
H207 C228 0.929 . S
H208 C202 0.930 . S
H209 C201 0.931 . S
H210 C224 0.930 . S
H211 C191 0.930 . S
H212 C197 0.929 . S
H213 C198 0.930 . S
H214 C219 0.930 . S
H215 C194 0.930 . S
H216 C227 0.931 . S
N217 Tb188 2.617 . S
N217 C218 1.379 . S
N217 C221 1.334 . S
C218 N217 1.379 . S
C218 C220 1.416 . S
C218 C226 1.424 . S
C219 H214 0.930 . S
C219 C221 1.390 . S
C219 C222 1.339 . S
C220 C218 1.416 . S
C220 C222 1.416 . S
C220 C253 1.448 . S
C221 H206 0.930 . S
C221 N217 1.334 . S
C221 C219 1.390 . S
C222 C219 1.339 . S
C222 C220 1.416 . S
C222 H229 0.930 . S
N223 Tb188 2.572 . S
N223 C224 1.340 . S
N223 C226 1.361 . S
C224 H210 0.930 . S
C224 N223 1.340 . S
C224 C228 1.407 . S
C225 C226 1.413 . S
C225 C227 1.416 . S
C225 C254 1.427 . S
C226 C218 1.424 . S
C226 N223 1.361 . S
C226 C225 1.413 . S
C227 H216 0.931 . S
C227 C225 1.416 . S
C227 C228 1.332 . S
C228 H207 0.929 . S
C228 C224 1.407 . S
C228 C227 1.332 . S
H229 C222 0.930 . S
H230 C253 0.930 . S
H231 C254 0.929 . S
O232 Tb188 2.465 . S
O232 C252 1.264 . S
O233 Tb188 2.387 . S
O233 C244 1.264 . S
O234 Tb199 2.349 . S
O234 C244 1.243 . S
O235 Tb188 2.428 . S
O235 C252 1.256 . S
O236 Tb188 2.308 . S
O236 C251 1.266 . S
O237 Tb199 2.393 . S
O237 C251 1.248 . S
O238 Tb199 2.465 . S
O238 C263 1.264 . S
O239 Tb199 2.387 . S
O239 C255 1.264 . S
O240 Tb188 2.349 . S
O240 C255 1.243 . S
O241 Tb199 2.428 . S
O241 C263 1.256 . S
O242 Tb199 2.308 . S
O242 C262 1.266 . S
O243 Tb188 2.393 . S
O243 C262 1.248 . S
C244 O233 1.264 . S
C244 O234 1.243 . S
C245 C248 1.399 . S
C245 C250 1.383 . S
C245 C252 1.496 . S
C246 C247 1.399 . S
C246 C250 1.389 . S
C247 C246 1.399 . S
C247 C249 1.380 . S
C247 H264 0.929 . S
C248 C245 1.399 . S
C248 C249 1.392 . S
C248 H265 0.929 . S
C249 C247 1.380 . S
C249 C248 1.392 . S
C249 H266 0.929 . S
C250 C245 1.383 . S
C250 C246 1.389 . S
C250 H267 0.931 . S
C251 O236 1.266 . S
C251 O237 1.248 . S
C252 Tb188 2.802 . S
C252 O232 1.264 . S
C252 O235 1.256 . S
C252 C245 1.496 . S
C253 C220 1.448 . S
C253 H230 0.930 . S
C253 C254 1.328 . S
C254 C225 1.427 . S
C254 H231 0.929 . S
C254 C253 1.328 . S
C255 O239 1.264 . S
C255 O240 1.243 . S
C256 C259 1.399 . S
C256 C260 1.383 . S
C256 C263 1.496 . S
C257 C258 1.399 . S
C257 C260 1.389 . S
C258 C257 1.399 . S
C258 C261 1.380 . S
C258 H268 0.929 . S
C259 C256 1.399 . S
C259 C261 1.392 . S
C259 H269 0.929 . S
C260 C256 1.383 . S
C260 C257 1.389 . S
C260 H270 0.931 . S
C261 C258 1.380 . S
C261 C259 1.392 . S
C261 H271 0.929 . S
C262 O242 1.266 . S
C262 O243 1.248 . S
C263 Tb199 2.802 . S
C263 O238 1.264 . S
C263 O241 1.256 . S
C263 C256 1.496 . S
H264 C247 0.929 . S
H265 C248 0.929 . S
H266 C249 0.929 . S
H267 C250 0.931 . S
H268 C258 0.929 . S
H269 C259 0.929 . S
H270 C260 0.931 . S
H271 C261 0.929 . S
Tb272 N301 2.617 . S
Tb272 N307 2.572 . S
Tb272 O316 2.465 . S
Tb272 O317 2.387 . S
Tb272 O319 2.428 . S
Tb272 O320 2.308 . S
Tb272 O324 2.349 . S
Tb272 O327 2.393 . S
Tb272 C336 2.802 . S
C273 N274 1.379 . S
C273 C276 1.416 . S
C273 C280 1.424 . S
N274 C273 1.379 . S
N274 C277 1.334 . S
N274 Tb283 2.617 . S
C275 C277 1.390 . S
C275 C278 1.339 . S
C275 H295 0.930 . S
C276 C273 1.416 . S
C276 C278 1.416 . S
C276 C282 1.448 . S
C277 N274 1.334 . S
C277 C275 1.390 . S
C277 H288 0.930 . S
C278 C275 1.339 . S
C278 C276 1.416 . S
C278 H299 0.930 . S
C279 C280 1.413 . S
C279 C281 1.427 . S
C279 C285 1.416 . S
C280 C273 1.424 . S
C280 C279 1.413 . S
C280 N284 1.361 . S
C281 C279 1.427 . S
C281 C282 1.328 . S
C281 H296 0.929 . S
C282 C276 1.448 . S
C282 C281 1.328 . S
C282 H297 0.930 . S
Tb283 N274 2.617 . S
Tb283 N284 2.572 . S
Tb283 O318 2.349 1_655 S
Tb283 O321 2.393 . S
Tb283 O322 2.465 . S
Tb283 O323 2.387 . S
Tb283 O325 2.428 . S
Tb283 O326 2.308 1_655 S
Tb283 C347 2.802 . S
N284 C280 1.361 . S
N284 Tb283 2.572 . S
N284 C286 1.340 . S
C285 C279 1.416 . S
C285 C287 1.332 . S
C285 H293 0.931 . S
C286 N284 1.340 . S
C286 C287 1.407 . S
C286 H292 0.930 . S
C287 C285 1.332 . S
C287 C286 1.407 . S
C287 H289 0.929 . S
H288 C277 0.930 . S
H289 C287 0.929 . S
H290 C305 0.930 . S
H291 C312 0.929 . S
H292 C286 0.930 . S
H293 C285 0.931 . S
H294 C308 0.930 . S
H295 C275 0.930 . S
H296 C281 0.929 . S
H297 C282 0.930 . S
H298 C303 0.930 . S
H299 C278 0.930 . S
H300 C311 0.931 . S
N301 Tb272 2.617 . S
N301 C302 1.379 . S
N301 C305 1.334 . S
C302 N301 1.379 . S
C302 C304 1.416 . S
C302 C310 1.424 . S
C303 H298 0.930 . S
C303 C305 1.390 . S
C303 C306 1.339 . S
C304 C302 1.416 . S
C304 C306 1.416 . S
C304 C337 1.448 . S
C305 H290 0.930 . S
C305 N301 1.334 . S
C305 C303 1.390 . S
C306 C303 1.339 . S
C306 C304 1.416 . S
C306 H313 0.930 . S
N307 Tb272 2.572 . S
N307 C308 1.340 . S
N307 C310 1.361 . S
C308 H294 0.930 . S
C308 N307 1.340 . S
C308 C312 1.407 . S
C309 C310 1.413 . S
C309 C311 1.416 . S
C309 C338 1.427 . S
C310 C302 1.424 . S
C310 N307 1.361 . S
C310 C309 1.413 . S
C311 H300 0.931 . S
C311 C309 1.416 . S
C311 C312 1.332 . S
C312 H291 0.929 . S
C312 C308 1.407 . S
C312 C311 1.332 . S
H313 C306 0.930 . S
H314 C337 0.930 . S
H315 C338 0.929 . S
O316 Tb272 2.465 . S
O316 C336 1.264 . S
O317 Tb272 2.387 . S
O317 C328 1.264 . S
O318 Tb283 2.349 1_455 S
O318 C328 1.243 . S
O319 Tb272 2.428 . S
O319 C336 1.256 . S
O320 Tb272 2.308 . S
O320 C335 1.266 1_455 S
O321 Tb283 2.393 . S
O321 C335 1.248 . S
O322 Tb283 2.465 . S
O322 C347 1.264 . S
O323 Tb283 2.387 . S
O323 C339 1.264 . S
O324 Tb272 2.349 . S
O324 C339 1.243 1_455 S
O325 Tb283 2.428 . S
O325 C347 1.256 . S
O326 Tb283 2.308 1_455 S
O326 C346 1.266 . S
O327 Tb272 2.393 . S
O327 C346 1.248 . S
C328 O317 1.264 . S
C328 O318 1.243 . S
C329 C332 1.399 . S
C329 C334 1.383 . S
C329 C336 1.496 . S
C330 C331 1.399 . S
C330 C334 1.389 . S
C331 C330 1.399 . S
C331 C333 1.380 . S
C331 H348 0.929 . S
C332 C329 1.399 . S
C332 C333 1.392 . S
C332 H349 0.929 . S
C333 C331 1.380 . S
C333 C332 1.392 . S
C333 H350 0.929 . S
C334 C329 1.383 . S
C334 C330 1.389 . S
C334 H351 0.931 . S
C335 O320 1.266 1_655 S
C335 O321 1.248 . S
C336 Tb272 2.802 . S
C336 O316 1.264 . S
C336 O319 1.256 . S
C336 C329 1.496 . S
C337 C304 1.448 . S
C337 H314 0.930 . S
C337 C338 1.328 . S
C338 C309 1.427 . S
C338 H315 0.929 . S
C338 C337 1.328 . S
C339 O323 1.264 . S
C339 O324 1.243 1_655 S
C340 C343 1.399 . S
C340 C344 1.383 . S
C340 C347 1.496 . S
C341 C342 1.399 . S
C341 C344 1.389 . S
C342 C341 1.399 . S
C342 C345 1.380 . S
C342 H352 0.929 . S
C343 C340 1.399 . S
C343 C345 1.392 . S
C343 H353 0.929 . S
C344 C340 1.383 . S
C344 C341 1.389 . S
C344 H354 0.931 . S
C345 C342 1.380 . S
C345 C343 1.392 . S
C345 H355 0.929 . S
C346 O326 1.266 . S
C346 O327 1.248 . S
C347 Tb283 2.802 . S
C347 O322 1.264 . S
C347 O325 1.256 . S
C347 C340 1.496 . S
H348 C331 0.929 . S
H349 C332 0.929 . S
H350 C333 0.929 . S
H351 C334 0.931 . S
H352 C342 0.929 . S
H353 C343 0.929 . S
H354 C344 0.931 . S
H355 C345 0.929 . S
Tb356 N385 2.617 . S
Tb356 N391 2.572 . S
Tb356 O400 2.465 . S
Tb356 O401 2.387 . S
Tb356 O403 2.428 . S
Tb356 O404 2.308 . S
Tb356 O408 2.349 . S
Tb356 O411 2.393 . S
Tb356 C420 2.802 . S
C357 N358 1.379 . S
C357 C360 1.416 . S
C357 C364 1.424 . S
N358 C357 1.379 . S
N358 C361 1.334 . S
N358 Tb367 2.617 . S
C359 C361 1.390 . S
C359 C362 1.339 . S
C359 H379 0.930 . S
C360 C357 1.416 . S
C360 C362 1.416 . S
C360 C366 1.448 . S
C361 N358 1.334 . S
C361 C359 1.390 . S
C361 H372 0.930 . S
C362 C359 1.339 . S
C362 C360 1.416 . S
C362 H383 0.930 . S
C363 C364 1.413 . S
C363 C365 1.427 . S
C363 C369 1.416 . S
C364 C357 1.424 . S
C364 C363 1.413 . S
C364 N368 1.361 . S
C365 C363 1.427 . S
C365 C366 1.328 . S
C365 H380 0.929 . S
C366 C360 1.448 . S
C366 C365 1.328 . S
C366 H381 0.930 . S
Tb367 N358 2.617 . S
Tb367 N368 2.572 . S
Tb367 O402 2.349 . S
Tb367 O405 2.393 . S
Tb367 O406 2.465 . S
Tb367 O407 2.387 . S
Tb367 O409 2.428 . S
Tb367 O410 2.308 . S
Tb367 C431 2.802 . S
N368 C364 1.361 . S
N368 Tb367 2.572 . S
N368 C370 1.340 . S
C369 C363 1.416 . S
C369 C371 1.332 . S
C369 H377 0.931 . S
C370 N368 1.340 . S
C370 C371 1.407 . S
C370 H376 0.930 . S
C371 C369 1.332 . S
C371 C370 1.407 . S
C371 H373 0.929 . S
H372 C361 0.930 . S
H373 C371 0.929 . S
H374 C389 0.930 . S
H375 C396 0.929 . S
H376 C370 0.930 . S
H377 C369 0.931 . S
H378 C392 0.930 . S
H379 C359 0.930 . S
H380 C365 0.929 . S
H381 C366 0.930 . S
H382 C387 0.930 . S
H383 C362 0.930 . S
H384 C395 0.931 . S
N385 Tb356 2.617 . S
N385 C386 1.379 . S
N385 C389 1.334 . S
C386 N385 1.379 . S
C386 C388 1.416 . S
C386 C394 1.424 . S
C387 H382 0.930 . S
C387 C389 1.390 . S
C387 C390 1.339 . S
C388 C386 1.416 . S
C388 C390 1.416 . S
C388 C421 1.448 . S
C389 H374 0.930 . S
C389 N385 1.334 . S
C389 C387 1.390 . S
C390 C387 1.339 . S
C390 C388 1.416 . S
C390 H397 0.930 . S
N391 Tb356 2.572 . S
N391 C392 1.340 . S
N391 C394 1.361 . S
C392 H378 0.930 . S
C392 N391 1.340 . S
C392 C396 1.407 . S
C393 C394 1.413 . S
C393 C395 1.416 . S
C393 C422 1.427 . S
C394 C386 1.424 . S
C394 N391 1.361 . S
C394 C393 1.413 . S
C395 H384 0.931 . S
C395 C393 1.416 . S
C395 C396 1.332 . S
C396 H375 0.929 . S
C396 C392 1.407 . S
C396 C395 1.332 . S
H397 C390 0.930 . S
H398 C421 0.930 . S
H399 C422 0.929 . S
O400 Tb356 2.465 . S
O400 C420 1.264 . S
O401 Tb356 2.387 . S
O401 C412 1.264 . S
O402 Tb367 2.349 . S
O402 C412 1.243 . S
O403 Tb356 2.428 . S
O403 C420 1.256 . S
O404 Tb356 2.308 . S
O404 C419 1.266 . S
O405 Tb367 2.393 . S
O405 C419 1.248 . S
O406 Tb367 2.465 . S
O406 C431 1.264 . S
O407 Tb367 2.387 . S
O407 C423 1.264 . S
O408 Tb356 2.349 . S
O408 C423 1.243 . S
O409 Tb367 2.428 . S
O409 C431 1.256 . S
O410 Tb367 2.308 . S
O410 C430 1.266 . S
O411 Tb356 2.393 . S
O411 C430 1.248 . S
C412 O401 1.264 . S
C412 O402 1.243 . S
C413 C416 1.399 . S
C413 C418 1.383 . S
C413 C420 1.496 . S
C414 C415 1.399 . S
C414 C418 1.389 . S
C415 C414 1.399 . S
C415 C417 1.380 . S
C415 H432 0.929 . S
C416 C413 1.399 . S
C416 C417 1.392 . S
C416 H433 0.929 . S
C417 C415 1.380 . S
C417 C416 1.392 . S
C417 H434 0.929 . S
C418 C413 1.383 . S
C418 C414 1.389 . S
C418 H435 0.931 . S
C419 O404 1.266 . S
C419 O405 1.248 . S
C420 Tb356 2.802 . S
C420 O400 1.264 . S
C420 O403 1.256 . S
C420 C413 1.496 . S
C421 C388 1.448 . S
C421 H398 0.930 . S
C421 C422 1.328 . S
C422 C393 1.427 . S
C422 H399 0.929 . S
C422 C421 1.328 . S
C423 O407 1.264 . S
C423 O408 1.243 . S
C424 C427 1.399 . S
C424 C428 1.383 . S
C424 C431 1.496 . S
C425 C426 1.399 . S
C425 C428 1.389 . S
C426 C425 1.399 . S
C426 C429 1.380 . S
C426 H436 0.929 . S
C427 C424 1.399 . S
C427 C429 1.392 . S
C427 H437 0.929 . S
C428 C424 1.383 . S
C428 C425 1.389 . S
C428 H438 0.931 . S
C429 C426 1.380 . S
C429 C427 1.392 . S
C429 H439 0.929 . S
C430 O410 1.266 . S
C430 O411 1.248 . S
C431 Tb367 2.802 . S
C431 O406 1.264 . S
C431 O409 1.256 . S
C431 C424 1.496 . S
H432 C415 0.929 . S
H433 C416 0.929 . S
H434 C417 0.929 . S
H435 C418 0.931 . S
H436 C426 0.929 . S
H437 C427 0.929 . S
H438 C428 0.931 . S
H439 C429 0.929 . S
C440 C441 1.349 . S
C440 C442 1.327 . S
C440 H465 0.950 . S
C441 C440 1.349 . S
C441 C457 1.349 . S
C442 C440 1.327 . S
C442 C461 1.429 . S
C442 H466 0.950 . S
C443 C460 1.574 . S
C443 C462 1.368 . S
C443 H467 0.949 . S
H444 C448 0.949 . S
C445 C446 1.349 . S
C445 C447 1.327 . S
C445 H468 0.950 . S
C446 C445 1.349 . S
C446 C458 1.349 . S
C447 C445 1.327 . S
C447 C463 1.429 . S
C447 H469 0.984 . S
C448 H444 0.949 . S
C448 C456 1.574 1_545 S
C448 C464 1.360 1_545 S
H449 C457 0.950 . S
H450 C455 0.950 . S
H451 C456 0.949 . S
H452 C458 0.950 . S
H453 C459 0.950 . S
H454 C460 0.949 . S
C455 H450 0.950 . S
C455 C457 1.327 . S
C455 C461 1.429 . S
C456 C448 1.574 1_565 S
C456 H451 0.949 . S
C456 C462 1.368 . S
C457 C441 1.349 . S
C457 H449 0.950 . S
C457 C455 1.327 . S
C458 C446 1.349 . S
C458 H452 0.950 . S
C458 C459 1.327 . S
C459 H453 0.950 . S
C459 C458 1.327 . S
C459 C463 1.429 . S
C460 C443 1.574 . S
C460 H454 0.949 . S
C460 C464 1.395 . S
C461 C442 1.429 . S
C461 C455 1.429 . S
C461 C462 1.523 . S
C462 C443 1.368 . S
C462 C456 1.368 . S
C462 C461 1.523 . S
C463 C447 1.429 . S
C463 C459 1.429 . S
C463 C464 1.500 1_545 S
C464 C448 1.360 1_565 S
C464 C460 1.395 . S
C464 C463 1.500 1_565 S
H465 C440 0.950 . S
H466 C442 0.950 . S
H467 C443 0.949 . S
H468 C445 0.950 . S
H469 C447 0.984 . S
C470 C471 1.349 . S
C470 C472 1.327 . S
C470 H495 0.950 . S
C471 C470 1.349 . S
C471 C487 1.349 . S
C472 C470 1.327 . S
C472 C491 1.429 . S
C472 H496 0.950 . S
C473 C490 1.574 . S
C473 C492 1.368 . S
C473 H497 0.949 . S
H474 C478 0.949 . S
C475 C476 1.349 . S
C475 C477 1.327 . S
C475 H498 0.950 . S
C476 C475 1.349 . S
C476 C488 1.349 . S
C477 C475 1.327 . S
C477 C493 1.429 . S
C477 H499 0.950 . S
C478 H474 0.949 . S
C478 C486 1.574 . S
C478 C494 1.368 . S
H479 C487 0.950 . S
H480 C485 0.950 . S
H481 C486 0.949 . S
H482 C488 0.950 . S
H483 C489 0.950 . S
H484 C490 0.949 . S
C485 H480 0.950 . S
C485 C487 1.327 . S
C485 C491 1.429 . S
C486 C478 1.574 . S
C486 H481 0.949 . S
C486 C492 1.368 . S
C487 C471 1.349 . S
C487 H479 0.950 . S
C487 C485 1.327 . S
C488 C476 1.349 . S
C488 H482 0.950 . S
C488 C489 1.327 . S
C489 H483 0.950 . S
C489 C488 1.327 . S
C489 C493 1.429 . S
C490 C473 1.574 . S
C490 H484 0.949 . S
C490 C494 1.368 . S
C491 C472 1.429 . S
C491 C485 1.429 . S
C491 C492 1.523 . S
C492 C473 1.368 . S
C492 C486 1.368 . S
C492 C491 1.523 . S
C493 C477 1.429 . S
C493 C489 1.429 . S
C493 C494 1.523 . S
C494 C478 1.368 . S
C494 C490 1.368 . S
C494 C493 1.523 . S
H495 C470 0.950 . S
H496 C472 0.950 . S
H497 C473 0.949 . S
H498 C475 0.950 . S
H499 C477 0.950 . S
C500 C501 1.349 . S
C500 C502 1.327 . S
C500 H525 0.950 . S
C501 C500 1.349 . S
C501 C517 1.349 . S
C502 C500 1.327 . S
C502 C521 1.429 . S
C502 H526 0.950 . S
C503 C520 1.574 . S
C503 C522 1.368 . S
C503 H527 0.949 . S
H504 C508 0.949 . S
C505 C506 1.349 . S
C505 C507 1.327 . S
C505 H528 0.950 . S
C506 C505 1.349 . S
C506 C518 1.349 . S
C507 C505 1.327 . S
C507 C523 1.429 . S
C507 H529 0.950 . S
C508 H504 0.949 . S
C508 C516 1.574 . S
C508 C524 1.368 . S
H509 C517 0.950 . S
H510 C515 0.950 . S
H511 C516 0.949 . S
H512 C518 0.950 . S
H513 C519 0.950 . S
H514 C520 0.949 . S
C515 H510 0.950 . S
C515 C517 1.327 . S
C515 C521 1.429 . S
C516 C508 1.574 . S
C516 H511 0.949 . S
C516 C522 1.368 . S
C517 C501 1.349 . S
C517 H509 0.950 . S
C517 C515 1.327 . S
C518 C506 1.349 . S
C518 H512 0.950 . S
C518 C519 1.327 . S
C519 H513 0.950 . S
C519 C518 1.327 . S
C519 C523 1.429 . S
C520 C503 1.574 . S
C520 H514 0.949 . S
C520 C524 1.368 . S
C521 C502 1.429 . S
C521 C515 1.429 . S
C521 C522 1.523 . S
C522 C503 1.368 . S
C522 C516 1.368 . S
C522 C521 1.523 . S
C523 C507 1.429 . S
C523 C519 1.429 . S
C523 C524 1.523 . S
C524 C508 1.368 . S
C524 C520 1.368 . S
C524 C523 1.523 . S
H525 C500 0.950 . S
H526 C502 0.950 . S
H527 C503 0.949 . S
H528 C505 0.950 . S
H529 C507 0.950 . S
C530 C531 1.349 . S
C530 C532 1.327 . S
C530 H555 0.950 . S
C531 C530 1.349 . S
C531 C547 1.349 . S
C532 C530 1.327 . S
C532 C551 1.429 . S
C532 H556 0.950 . S
C533 C550 1.574 1_565 S
C533 C552 1.368 . S
C533 H557 0.949 . S
H534 C538 0.949 . S
C535 C536 1.349 . S
C535 C537 1.327 . S
C535 H558 0.950 . S
C536 C535 1.349 . S
C536 C548 1.349 . S
C537 C535 1.327 . S
C537 C553 1.429 . S
C537 H559 0.950 . S
C538 H534 0.949 . S
C538 C546 1.574 . S
C538 C554 1.368 . S
H539 C547 0.950 . S
H540 C545 0.950 . S
H541 C546 0.949 . S
H542 C548 0.950 . S
H543 C549 0.950 1_565 S
H544 C550 0.949 . S
C545 H540 0.950 . S
C545 C547 1.327 . S
C545 C551 1.429 . S
C546 C538 1.574 . S
C546 H541 0.949 . S
C546 C552 1.368 . S
C547 C531 1.349 . S
C547 H539 0.950 . S
C547 C545 1.327 . S
C548 C536 1.349 . S
C548 H542 0.950 . S
C548 C549 1.327 . S
C549 H543 0.950 1_545 S
C549 C548 1.327 . S
C549 C553 1.429 . S
C550 C533 1.574 1_545 S
C550 H544 0.949 . S
C550 C554 1.368 1_545 S
C551 C532 1.429 . S
C551 C545 1.429 . S
C551 C552 1.523 . S
C552 C533 1.368 . S
C552 C546 1.368 . S
C552 C551 1.523 . S
C553 C537 1.429 . S
C553 C549 1.429 . S
C553 C554 1.523 1_545 S
C554 C538 1.368 . S
C554 C550 1.368 1_565 S
C554 C553 1.523 1_565 S
H555 C530 0.950 . S
H556 C532 0.950 . S
H557 C533 0.949 . S
H558 C535 0.950 . S
H559 C537 0.950 . S
C560 C561 1.349 . S
C560 C562 1.327 . S
C560 H585 0.950 . S
C561 C560 1.349 . S
C561 C577 1.349 . S
C562 C560 1.327 . S
C562 C581 1.429 . S
C562 H586 0.950 . S
C563 C580 1.574 . S
C563 C582 1.368 . S
C563 H587 0.949 . S
H564 C568 0.949 . S
C565 C566 1.349 . S
C565 C567 1.327 . S
C565 H588 0.950 . S
C566 C565 1.349 . S
C566 C578 1.349 . S
C567 C565 1.327 . S
C567 C583 1.429 . S
C567 H589 0.950 . S
C568 H564 0.949 . S
C568 C576 1.574 . S
C568 C584 1.368 . S
H569 C577 0.950 . S
H570 C575 0.950 . S
H571 C576 0.949 . S
H572 C578 0.950 . S
H573 C579 0.950 . S
H574 C580 0.949 1_565 S
C575 H570 0.950 . S
C575 C577 1.327 . S
C575 C581 1.429 . S
C576 C568 1.574 . S
C576 H571 0.949 . S
C576 C582 1.368 . S
C577 C561 1.349 . S
C577 H569 0.950 . S
C577 C575 1.327 . S
C578 C566 1.349 . S
C578 H572 0.950 . S
C578 C579 1.327 . S
C579 H573 0.950 . S
C579 C578 1.327 . S
C579 C583 1.429 . S
C580 C563 1.574 . S
C580 H574 0.949 1_545 S
C580 C584 1.368 . S
C581 C562 1.429 . S
C581 C575 1.429 . S
C581 C582 1.523 . S
C582 C563 1.368 . S
C582 C576 1.368 . S
C582 C581 1.523 . S
C583 C567 1.429 . S
C583 C579 1.429 . S
C583 C584 1.523 1_565 S
C584 C568 1.368 . S
C584 C580 1.368 . S
C584 C583 1.523 1_545 S
H585 C560 0.950 . S
H586 C562 0.950 . S
H587 C563 0.949 . S
H588 C565 0.950 . S
H589 C567 0.950 . S
C590 C591 1.349 . S
C590 C592 1.327 . S
C590 H615 0.950 . S
C591 C590 1.349 . S
C591 C607 1.349 . S
C592 C590 1.327 . S
C592 C611 1.429 . S
C592 H616 0.950 . S
C593 C610 1.574 . S
C593 C612 1.368 . S
C593 H617 0.949 . S
H594 C598 0.949 . S
C595 C596 1.349 . S
C595 C597 1.327 . S
C595 H618 0.950 . S
C596 C595 1.349 . S
C596 C608 1.349 . S
C597 C595 1.327 . S
C597 C613 1.429 . S
C597 H619 0.950 . S
C598 H594 0.949 . S
C598 C606 1.574 . S
C598 C614 1.368 . S
H599 C607 0.950 . S
H600 C605 0.950 . S
H601 C606 0.949 . S
H602 C608 0.950 . S
H603 C609 0.950 . S
H604 C610 0.949 . S
C605 H600 0.950 . S
C605 C607 1.327 . S
C605 C611 1.429 . S
C606 C598 1.574 . S
C606 H601 0.949 . S
C606 C612 1.368 . S
C607 C591 1.349 . S
C607 H599 0.950 . S
C607 C605 1.327 . S
C608 C596 1.349 . S
C608 H602 0.950 . S
C608 C609 1.327 . S
C609 H603 0.950 . S
C609 C608 1.327 . S
C609 C613 1.429 . S
C610 C593 1.574 . S
C610 H604 0.949 . S
C610 C614 1.368 . S
C611 C592 1.429 . S
C611 C605 1.429 . S
C611 C612 1.523 . S
C612 C593 1.368 . S
C612 C606 1.368 . S
C612 C611 1.523 . S
C613 C597 1.429 . S
C613 C609 1.429 . S
C613 C614 1.523 . S
C614 C598 1.368 . S
C614 C610 1.368 . S
C614 C613 1.523 . S
H615 C590 0.950 . S
H616 C592 0.950 . S
H617 C593 0.949 . S
H618 C595 0.950 . S
H619 C597 0.950 . S
C620 C621 1.349 . S
C620 C622 1.327 . S
C620 H645 0.950 . S
C621 C620 1.349 . S
C621 C637 1.349 . S
C622 C620 1.327 . S
C622 C641 1.429 . S
C622 H646 0.950 . S
C623 C640 1.574 . S
C623 C642 1.368 . S
C623 H647 0.949 . S
H624 C628 0.949 . S
C625 C626 1.349 . S
C625 C627 1.327 . S
C625 H648 0.950 . S
C626 C625 1.349 . S
C626 C638 1.349 . S
C627 C625 1.327 . S
C627 C643 1.429 . S
C627 H649 0.950 . S
C628 H624 0.949 . S
C628 C636 1.574 . S
C628 C644 1.368 . S
H629 C637 0.950 . S
H630 C635 0.950 . S
H631 C636 0.949 . S
H632 C638 0.950 . S
H633 C639 0.950 . S
H634 C640 0.949 . S
C635 H630 0.950 . S
C635 C637 1.327 . S
C635 C641 1.429 . S
C636 C628 1.574 . S
C636 H631 0.949 . S
C636 C642 1.368 . S
C637 C621 1.349 . S
C637 H629 0.950 . S
C637 C635 1.327 . S
C638 C626 1.349 . S
C638 H632 0.950 . S
C638 C639 1.327 . S
C639 H633 0.950 . S
C639 C638 1.327 . S
C639 C643 1.429 . S
C640 C623 1.574 . S
C640 H634 0.949 . S
C640 C644 1.368 . S
C641 C622 1.429 . S
C641 C635 1.429 . S
C641 C642 1.523 . S
C642 C623 1.368 . S
C642 C636 1.368 . S
C642 C641 1.523 . S
C643 C627 1.429 . S
C643 C639 1.429 . S
C643 C644 1.523 . S
C644 C628 1.368 . S
C644 C640 1.368 . S
C644 C643 1.523 . S
H645 C620 0.950 . S
H646 C622 0.950 . S
H647 C623 0.949 . S
H648 C625 0.950 . S
H649 C627 0.950 . S
C650 C651 1.349 . S
C650 C652 1.327 . S
C650 H675 0.950 . S
C651 C650 1.349 . S
C651 C667 1.349 . S
C652 C650 1.327 . S
C652 C671 1.429 . S
C652 H676 0.950 . S
C653 C670 1.574 . S
C653 C672 1.368 . S
C653 H677 0.949 . S
H654 C658 0.949 . S
C655 C656 1.349 . S
C655 C657 1.327 . S
C655 H678 0.950 . S
C656 C655 1.349 . S
C656 C668 1.349 . S
C657 C655 1.327 . S
C657 C673 1.429 . S
C657 H679 0.950 . S
C658 H654 0.949 . S
C658 C666 1.574 1_565 S
C658 C674 1.367 1_565 S
H659 C667 0.950 . S
H660 C665 0.950 . S
H661 C666 0.949 . S
H662 C668 0.950 . S
H663 C669 0.950 . S
H664 C670 0.949 . S
C665 H660 0.950 . S
C665 C667 1.327 . S
C665 C671 1.429 . S
C666 C658 1.574 1_545 S
C666 H661 0.949 . S
C666 C672 1.368 . S
C667 C651 1.349 . S
C667 H659 0.950 . S
C667 C665 1.327 . S
C668 C656 1.349 . S
C668 H662 0.950 . S
C668 C669 1.327 . S
C669 H663 0.950 . S
C669 C668 1.327 . S
C669 C673 1.429 . S
C670 C653 1.574 . S
C670 H664 0.949 . S
C670 C674 1.372 . S
C671 C652 1.429 . S
C671 C665 1.429 . S
C671 C672 1.523 . S
C672 C653 1.368 . S
C672 C666 1.368 . S
C672 C671 1.523 . S
C673 C657 1.429 . S
C673 C669 1.429 . S
C673 C674 1.520 1_565 S
C674 C658 1.367 1_545 S
C674 C670 1.372 . S
C674 C673 1.520 1_545 S
H675 C650 0.950 . S
H676 C652 0.950 . S
H677 C653 0.949 . S
H678 C655 0.950 . S
H679 C657 0.950 . S
C680 C681 1.349 . S
C680 C682 1.327 . S
C680 H705 0.950 . S
C681 C680 1.349 . S
C681 C697 1.349 . S
C682 C680 1.327 . S
C682 C701 1.429 . S
C682 H706 0.950 . S
C683 C700 1.574 . S
C683 C702 1.368 . S
C683 H707 0.949 . S
H684 C688 0.949 . S
C685 C686 1.349 . S
C685 C687 1.327 . S
C685 H708 0.950 . S
C686 C685 1.349 . S
C686 C698 1.349 . S
C687 C685 1.327 . S
C687 C703 1.429 . S
C687 H709 0.950 . S
C688 H684 0.949 . S
C688 C696 1.574 . S
C688 C704 1.368 . S
H689 C697 0.950 . S
H690 C695 0.950 . S
H691 C696 0.949 . S
H692 C698 0.950 . S
H693 C699 0.950 . S
H694 C700 0.949 . S
C695 H690 0.950 . S
C695 C697 1.327 . S
C695 C701 1.429 . S
C696 C688 1.574 . S
C696 H691 0.949 . S
C696 C702 1.368 . S
C697 C681 1.349 . S
C697 H689 0.950 . S
C697 C695 1.327 . S
C698 C686 1.349 . S
C698 H692 0.950 . S
C698 C699 1.327 . S
C699 H693 0.950 . S
C699 C698 1.327 . S
C699 C703 1.429 . S
C700 C683 1.574 . S
C700 H694 0.949 . S
C700 C704 1.368 . S
C701 C682 1.429 . S
C701 C695 1.429 . S
C701 C702 1.523 1_556 S
C702 C683 1.368 . S
C702 C696 1.368 . S
C702 C701 1.523 1_554 S
C703 C687 1.429 . S
C703 C699 1.429 . S
C703 C704 1.523 . S
C704 C688 1.368 . S
C704 C700 1.368 . S
C704 C703 1.523 . S
H705 C680 0.950 . S
H706 C682 0.950 . S
H707 C683 0.949 . S
H708 C685 0.950 . S
H709 C687 0.950 . S
C710 C711 1.349 . S
C710 C712 1.327 . S
C710 H735 0.950 . S
C711 C710 1.349 . S
C711 C727 1.349 . S
C712 C710 1.327 . S
C712 C731 1.429 . S
C712 H736 0.950 . S
C713 C730 1.574 . S
C713 C732 1.368 . S
C713 H737 0.949 . S
H714 C718 0.949 . S
C715 C716 1.349 . S
C715 C717 1.327 . S
C715 H738 0.950 . S
C716 C715 1.349 . S
C716 C728 1.349 . S
C717 C715 1.327 . S
C717 C733 1.429 . S
C717 H739 0.950 . S
C718 H714 0.949 . S
C718 C726 1.574 . S
C718 C734 1.368 . S
H719 C727 0.950 . S
H720 C725 0.950 . S
H721 C726 0.949 . S
H722 C728 0.950 . S
H723 C729 0.950 . S
H724 C730 0.949 . S
C725 H720 0.950 . S
C725 C727 1.327 . S
C725 C731 1.429 . S
C726 C718 1.574 . S
C726 H721 0.949 . S
C726 C732 1.368 . S
C727 C711 1.349 . S
C727 H719 0.950 . S
C727 C725 1.327 . S
C728 C716 1.349 . S
C728 H722 0.950 . S
C728 C729 1.327 . S
C729 H723 0.950 . S
C729 C728 1.327 . S
C729 C733 1.429 . S
C730 C713 1.574 . S
C730 H724 0.949 . S
C730 C734 1.368 . S
C731 C712 1.429 . S
C731 C725 1.429 . S
C731 C732 1.523 . S
C732 C713 1.368 . S
C732 C726 1.368 . S
C732 C731 1.523 . S
C733 C717 1.429 . S
C733 C729 1.429 . S
C733 C734 1.523 . S
C734 C718 1.368 . S
C734 C730 1.368 . S
C734 C733 1.523 . S
H735 C710 0.950 . S
H736 C712 0.950 . S
H737 C713 0.949 . S
H738 C715 0.950 . S
H739 C717 0.950 . S
C740 C741 1.349 . S
C740 C742 1.327 . S
C740 H765 0.950 . S
C741 C740 1.349 . S
C741 C757 1.349 . S
C742 C740 1.327 . S
C742 C761 1.429 . S
C742 H766 0.950 . S
C743 C760 1.574 . S
C743 C762 1.368 . S
C743 H767 0.949 . S
H744 C748 0.949 . S
C745 C746 1.349 . S
C745 C747 1.327 . S
C745 H768 0.950 . S
C746 C745 1.349 . S
C746 C758 1.349 . S
C747 C745 1.327 . S
C747 C763 1.429 . S
C747 H769 0.950 . S
C748 H744 0.949 . S
C748 C756 1.574 . S
C748 C764 1.368 . S
H749 C757 0.950 . S
H750 C755 0.950 . S
H751 C756 0.949 . S
H752 C758 0.950 . S
H753 C759 0.950 . S
H754 C760 0.949 . S
C755 H750 0.950 . S
C755 C757 1.327 . S
C755 C761 1.429 . S
C756 C748 1.574 . S
C756 H751 0.949 . S
C756 C762 1.368 . S
C757 C741 1.349 . S
C757 H749 0.950 . S
C757 C755 1.327 . S
C758 C746 1.349 . S
C758 H752 0.950 . S
C758 C759 1.327 . S
C759 H753 0.950 . S
C759 C758 1.327 . S
C759 C763 1.429 . S
C760 C743 1.574 . S
C760 H754 0.949 . S
C760 C764 1.368 . S
C761 C742 1.429 . S
C761 C755 1.429 . S
C761 C762 1.523 1_554 S
C762 C743 1.368 . S
C762 C756 1.368 . S
C762 C761 1.523 1_556 S
C763 C747 1.429 . S
C763 C759 1.429 . S
C763 C764 1.523 . S
C764 C748 1.368 . S
C764 C760 1.368 . S
C764 C763 1.523 . S
H765 C740 0.950 . S
H766 C742 0.950 . S
H767 C743 0.949 . S
H768 C745 0.950 . S
H769 C747 0.950 . S
C770 C771 1.349 . S
C770 C772 1.327 . S
C770 H795 0.950 . S
C771 C770 1.349 . S
C771 C787 1.349 . S
C772 C770 1.327 . S
C772 C791 1.429 . S
C772 H796 0.950 . S
C773 C790 1.574 . S
C773 C792 1.368 . S
C773 H797 0.949 . S
H774 C778 0.949 . S
C775 C776 1.349 . S
C775 C777 1.327 . S
C775 H798 0.950 . S
C776 C775 1.349 . S
C776 C788 1.349 . S
C777 C775 1.327 . S
C777 C793 1.429 . S
C777 H799 0.950 . S
C778 H774 0.949 . S
C778 C786 1.574 . S
C778 C794 1.368 . S
H779 C787 0.950 . S
H780 C785 0.950 . S
H781 C786 0.949 . S
H782 C788 0.950 . S
H783 C789 0.950 . S
H784 C790 0.949 . S
C785 H780 0.950 . S
C785 C787 1.327 . S
C785 C791 1.429 . S
C786 C778 1.574 . S
C786 H781 0.949 . S
C786 C792 1.368 . S
C787 C771 1.349 . S
C787 H779 0.950 . S
C787 C785 1.327 . S
C788 C776 1.349 . S
C788 H782 0.950 . S
C788 C789 1.327 . S
C789 H783 0.950 . S
C789 C788 1.327 . S
C789 C793 1.429 . S
C790 C773 1.574 . S
C790 H784 0.949 . S
C790 C794 1.368 . S
C791 C772 1.429 . S
C791 C785 1.429 . S
C791 C792 1.523 . S
C792 C773 1.368 . S
C792 C786 1.368 . S
C792 C791 1.523 . S
C793 C777 1.429 . S
C793 C789 1.429 . S
C793 C794 1.523 . S
C794 C778 1.368 . S
C794 C790 1.368 . S
C794 C793 1.523 . S
H795 C770 0.950 . S
H796 C772 0.950 . S
H797 C773 0.949 . S
H798 C775 0.950 . S
H799 C777 0.950 . S
C800 C801 1.349 . S
C800 C802 1.327 . S
C800 H825 0.950 . S
C801 C800 1.349 . S
C801 C817 1.349 . S
C802 C800 1.327 . S
C802 C821 1.417 1_554 S
C802 H826 0.950 . S
C803 C820 1.574 . S
C803 C822 1.368 . S
C803 H827 0.949 . S
H804 C808 0.949 . S
C805 C806 1.349 . S
C805 C807 1.327 . S
C805 H828 0.950 . S
C806 C805 1.349 . S
C806 C818 1.349 . S
C807 C805 1.327 . S
C807 C823 1.429 . S
C807 H829 0.950 . S
C808 H804 0.949 . S
C808 C816 1.574 . S
C808 C824 1.368 . S
H809 C817 0.950 . S
H810 C815 0.950 1_556 S
H811 C816 0.949 . S
H812 C818 0.950 . S
H813 C819 0.950 . S
H814 C820 0.949 . S
C815 H810 0.950 1_554 S
C815 C817 1.327 . S
C815 C821 1.425 1_554 S
C816 C808 1.574 . S
C816 H811 0.949 . S
C816 C822 1.368 . S
C817 C801 1.349 . S
C817 H809 0.950 . S
C817 C815 1.327 . S
C818 C806 1.349 . S
C818 H812 0.950 . S
C818 C819 1.327 . S
C819 H813 0.950 . S
C819 C818 1.327 . S
C819 C823 1.429 . S
C820 C803 1.574 . S
C820 H814 0.949 . S
C820 C824 1.368 . S
C821 C802 1.417 1_556 S
C821 C815 1.425 1_556 S
C821 C822 1.537 . S
C822 C803 1.368 . S
C822 C816 1.368 . S
C822 C821 1.537 . S
C823 C807 1.429 . S
C823 C819 1.429 . S
C823 C824 1.523 . S
C824 C808 1.368 . S
C824 C820 1.368 . S
C824 C823 1.523 . S
H825 C800 0.950 . S
H826 C802 0.950 . S
H827 C803 0.949 . S
H828 C805 0.950 . S
H829 C807 0.950 . S
C830 C831 1.349 . S
C830 C832 1.327 . S
C830 H855 0.950 . S
C831 C830 1.349 . S
C831 C847 1.349 . S
C832 C830 1.327 . S
C832 C851 1.429 . S
C832 H856 0.950 . S
C833 C850 1.574 . S
C833 C852 1.368 . S
C833 H857 0.949 . S
H834 C838 0.949 . S
C835 C836 1.349 . S
C835 C837 1.327 . S
C835 H858 0.950 . S
C836 C835 1.349 . S
C836 C848 1.349 . S
C837 C835 1.327 . S
C837 C853 1.429 . S
C837 H859 0.950 . S
C838 H834 0.949 . S
C838 C846 1.574 . S
C838 C854 1.368 . S
H839 C847 0.950 . S
H840 C845 0.950 . S
H841 C846 0.949 . S
H842 C848 0.950 . S
H843 C849 0.950 . S
H844 C850 0.949 . S
C845 H840 0.950 . S
C845 C847 1.327 . S
C845 C851 1.429 . S
C846 C838 1.574 . S
C846 H841 0.949 . S
C846 C852 1.368 . S
C847 C831 1.349 . S
C847 H839 0.950 . S
C847 C845 1.327 . S
C848 C836 1.349 . S
C848 H842 0.950 . S
C848 C849 1.327 . S
C849 H843 0.950 . S
C849 C848 1.327 . S
C849 C853 1.429 . S
C850 C833 1.574 . S
C850 H844 0.949 . S
C850 C854 1.368 . S
C851 C832 1.429 . S
C851 C845 1.429 . S
C851 C852 1.523 . S
C852 C833 1.368 . S
C852 C846 1.368 . S
C852 C851 1.523 . S
C853 C837 1.429 . S
C853 C849 1.429 . S
C853 C854 1.523 . S
C854 C838 1.368 . S
C854 C850 1.368 . S
C854 C853 1.523 . S
H855 C830 0.950 . S
H856 C832 0.950 . S
H857 C833 0.949 . S
H858 C835 0.950 . S
H859 C837 0.950 . S
C860 C861 1.349 . S
C860 C862 1.327 . S
C860 H885 0.950 . S
C861 C860 1.349 . S
C861 C877 1.349 . S
C862 C860 1.327 . S
C862 C881 1.429 . S
C862 H886 0.950 . S
C863 C880 1.574 . S
C863 C882 1.368 . S
C863 H887 0.949 . S
H864 C868 0.949 . S
C865 C866 1.349 . S
C865 C867 1.327 . S
C865 H888 0.950 . S
C866 C865 1.349 . S
C866 C878 1.349 . S
C867 C865 1.327 . S
C867 C883 1.429 . S
C867 H889 0.950 . S
C868 H864 0.949 . S
C868 C876 1.574 . S
C868 C884 1.368 . S
H869 C877 0.950 . S
H870 C875 0.950 . S
H871 C876 0.949 . S
H872 C878 0.950 . S
H873 C879 0.950 . S
H874 C880 0.949 . S
C875 H870 0.950 . S
C875 C877 1.327 . S
C875 C881 1.429 . S
C876 C868 1.574 . S
C876 H871 0.949 . S
C876 C882 1.368 . S
C877 C861 1.349 . S
C877 H869 0.950 . S
C877 C875 1.327 . S
C878 C866 1.349 . S
C878 H872 0.950 . S
C878 C879 1.327 . S
C879 H873 0.950 . S
C879 C878 1.327 . S
C879 C883 1.429 . S
C880 C863 1.574 . S
C880 H874 0.949 . S
C880 C884 1.368 . S
C881 C862 1.429 . S
C881 C875 1.429 . S
C881 C882 1.523 1_556 S
C882 C863 1.368 . S
C882 C876 1.368 . S
C882 C881 1.523 1_554 S
C883 C867 1.429 . S
C883 C879 1.429 . S
C883 C884 1.523 . S
C884 C868 1.368 . S
C884 C880 1.368 . S
C884 C883 1.523 . S
H885 C860 0.950 . S
H886 C862 0.950 . S
H887 C863 0.949 . S
H888 C865 0.950 . S
H889 C867 0.950 . S
C890 C891 1.349 . S
C890 C892 1.327 . S
C890 H915 0.950 . S
C891 C890 1.349 . S
C891 C907 1.349 . S
C892 C890 1.327 . S
C892 C911 1.429 . S
C892 H916 0.950 . S
C893 C910 1.574 . S
C893 C912 1.368 . S
C893 H917 0.949 . S
H894 C898 0.949 . S
C895 C896 1.349 . S
C895 C897 1.327 . S
C895 H918 0.950 . S
C896 C895 1.349 . S
C896 C908 1.349 . S
C897 C895 1.327 . S
C897 C913 1.429 . S
C897 H919 0.950 . S
C898 H894 0.949 . S
C898 C906 1.574 . S
C898 C914 1.368 . S
H899 C907 0.950 . S
H900 C905 0.950 . S
H901 C906 0.949 . S
H902 C908 0.950 . S
H903 C909 0.950 . S
H904 C910 0.949 . S
C905 H900 0.950 . S
C905 C907 1.327 . S
C905 C911 1.429 . S
C906 C898 1.574 . S
C906 H901 0.949 . S
C906 C912 1.368 . S
C907 C891 1.349 . S
C907 H899 0.950 . S
C907 C905 1.327 . S
C908 C896 1.349 . S
C908 H902 0.950 . S
C908 C909 1.327 . S
C909 H903 0.950 . S
C909 C908 1.327 . S
C909 C913 1.429 . S
C910 C893 1.574 . S
C910 H904 0.949 . S
C910 C914 1.368 . S
C911 C892 1.429 . S
C911 C905 1.429 . S
C911 C912 1.523 . S
C912 C893 1.368 . S
C912 C906 1.368 . S
C912 C911 1.523 . S
C913 C897 1.429 . S
C913 C909 1.429 . S
C913 C914 1.523 . S
C914 C898 1.368 . S
C914 C910 1.368 . S
C914 C913 1.523 . S
H915 C890 0.950 . S
H916 C892 0.950 . S
H917 C893 0.949 . S
H918 C895 0.950 . S
H919 C897 0.950 . S
C920 C921 1.349 . S
C920 C922 1.327 . S
C920 H945 0.950 . S
C921 C920 1.349 . S
C921 C937 1.349 . S
C922 C920 1.327 . S
C922 C941 1.429 . S
C922 H946 0.950 . S
C923 C940 1.574 . S
C923 C942 1.368 . S
C923 H947 0.949 . S
H924 C928 0.949 . S
C925 C926 1.349 . S
C925 C927 1.327 . S
C925 H948 0.950 . S
C926 C925 1.349 . S
C926 C938 1.349 . S
C927 C925 1.327 . S
C927 C943 1.429 . S
C927 H949 0.950 . S
C928 H924 0.949 . S
C928 C936 1.574 . S
C928 C944 1.368 . S
H929 C937 0.950 . S
H930 C935 0.950 . S
H931 C936 0.949 . S
H932 C938 0.950 . S
H933 C939 0.950 . S
H934 C940 0.949 . S
C935 H930 0.950 . S
C935 C937 1.327 . S
C935 C941 1.429 . S
C936 C928 1.574 . S
C936 H931 0.949 . S
C936 C942 1.368 . S
C937 C921 1.349 . S
C937 H929 0.950 . S
C937 C935 1.327 . S
C938 C926 1.349 . S
C938 H932 0.950 . S
C938 C939 1.327 . S
C939 H933 0.950 . S
C939 C938 1.327 . S
C939 C943 1.429 . S
C940 C923 1.574 . S
C940 H934 0.949 . S
C940 C944 1.368 . S
C941 C922 1.429 . S
C941 C935 1.429 . S
C941 C942 1.523 . S
C942 C923 1.368 . S
C942 C936 1.368 . S
C942 C941 1.523 . S
C943 C927 1.429 . S
C943 C939 1.429 . S
C943 C944 1.523 . S
C944 C928 1.368 . S
C944 C940 1.368 . S
C944 C943 1.523 . S
H945 C920 0.950 . S
H946 C922 0.950 . S
H947 C923 0.949 . S
H948 C925 0.950 . S
H949 C927 0.950 . S
C950 C951 1.349 . S
C950 C952 1.327 . S
C950 H975 0.950 . S
C951 C950 1.349 . S
C951 C967 1.349 . S
C952 C950 1.327 . S
C952 C971 1.429 . S
C952 H976 0.950 . S
C953 C970 1.574 . S
C953 C972 1.368 . S
C953 H977 0.949 . S
H954 C958 0.949 . S
C955 C956 1.349 . S
C955 C957 1.327 . S
C955 H978 0.950 . S
C956 C955 1.349 . S
C956 C968 1.349 . S
C957 C955 1.327 . S
C957 C973 1.429 . S
C957 H979 0.950 . S
C958 H954 0.949 . S
C958 C966 1.574 . S
C958 C974 1.368 . S
H959 C967 0.950 . S
H960 C965 0.950 . S
H961 C966 0.949 . S
H962 C968 0.950 . S
H963 C969 0.950 . S
H964 C970 0.949 . S
C965 H960 0.950 . S
C965 C967 1.327 . S
C965 C971 1.429 . S
C966 C958 1.574 . S
C966 H961 0.949 . S
C966 C972 1.368 . S
C967 C951 1.349 . S
C967 H959 0.950 . S
C967 C965 1.327 . S
C968 C956 1.349 . S
C968 H962 0.950 . S
C968 C969 1.327 . S
C969 H963 0.950 . S
C969 C968 1.327 . S
C969 C973 1.429 . S
C970 C953 1.574 . S
C970 H964 0.949 . S
C970 C974 1.368 . S
C971 C952 1.429 . S
C971 C965 1.429 . S
C971 C972 1.523 . S
C972 C953 1.368 . S
C972 C966 1.368 . S
C972 C971 1.523 . S
C973 C957 1.429 . S
C973 C969 1.429 . S
C973 C974 1.523 . S
C974 C958 1.368 . S
C974 C970 1.368 . S
C974 C973 1.523 . S
H975 C950 0.950 . S
H976 C952 0.950 . S
H977 C953 0.949 . S
H978 C955 0.950 . S
H979 C957 0.950 . S
C980 C981 1.349 . S
C980 C982 1.327 . S
C980 H1005 0.950 . S
C981 C980 1.349 . S
C981 C997 1.349 . S
C982 C980 1.327 . S
C982 C1001 1.429 . S
C982 H1006 0.950 . S
C983 C1000 1.574 . S
C983 C1002 1.368 . S
C983 H1007 0.949 . S
H984 C988 0.949 . S
C985 C986 1.349 . S
C985 C987 1.327 . S
C985 H1008 0.950 . S
C986 C985 1.349 . S
C986 C998 1.349 . S
C987 C985 1.327 . S
C987 C1003 1.429 . S
C987 H1009 0.950 . S
C988 H984 0.949 . S
C988 C996 1.574 . S
C988 C1004 1.368 . S
H989 C997 0.950 . S
H990 C995 0.950 . S
H991 C996 0.949 . S
H992 C998 0.950 . S
H993 C999 0.950 . S
H994 C1000 0.949 . S
C995 H990 0.950 . S
C995 C997 1.327 . S
C995 C1001 1.429 . S
C996 C988 1.574 . S
C996 H991 0.949 . S
C996 C1002 1.368 . S
C997 C981 1.349 . S
C997 H989 0.950 . S
C997 C995 1.327 . S
C998 C986 1.349 . S
C998 H992 0.950 . S
C998 C999 1.327 . S
C999 H993 0.950 . S
C999 C998 1.327 . S
C999 C1003 1.429 . S
C1000 C983 1.574 . S
C1000 H994 0.949 . S
C1000 C1004 1.368 . S
C1001 C982 1.429 . S
C1001 C995 1.429 . S
C1001 C1002 1.523 . S
C1002 C983 1.368 . S
C1002 C996 1.368 . S
C1002 C1001 1.523 . S
C1003 C987 1.429 . S
C1003 C999 1.429 . S
C1003 C1004 1.523 . S
C1004 C988 1.368 . S
C1004 C1000 1.368 . S
C1004 C1003 1.523 . S
H1005 C980 0.950 . S
H1006 C982 0.950 . S
H1007 C983 0.949 . S
H1008 C985 0.950 . S
H1009 C987 0.950 . S
C1010 C1011 1.349 . S
C1010 C1012 1.327 . S
C1010 H1035 0.950 . S
C1011 C1010 1.349 . S
C1011 C1027 1.349 . S
C1012 C1010 1.327 . S
C1012 C1031 1.429 . S
C1012 H1036 0.950 . S
C1013 C1030 1.574 . S
C1013 C1032 1.368 . S
C1013 H1037 0.949 . S
H1014 C1018 0.949 . S
C1015 C1016 1.349 . S
C1015 C1017 1.327 . S
C1015 H1038 0.950 . S
C1016 C1015 1.349 . S
C1016 C1028 1.349 . S
C1017 C1015 1.327 . S
C1017 C1033 1.429 . S
C1017 H1039 0.950 . S
C1018 H1014 0.949 . S
C1018 C1026 1.574 . S
C1018 C1034 1.368 . S
H1019 C1027 0.950 . S
H1020 C1025 0.950 . S
H1021 C1026 0.949 . S
H1022 C1028 0.950 . S
H1023 C1029 0.950 . S
H1024 C1030 0.949 . S
C1025 H1020 0.950 . S
C1025 C1027 1.327 . S
C1025 C1031 1.429 . S
C1026 C1018 1.574 . S
C1026 H1021 0.949 . S
C1026 C1032 1.368 . S
C1027 C1011 1.349 . S
C1027 H1019 0.950 . S
C1027 C1025 1.327 . S
C1028 C1016 1.349 . S
C1028 H1022 0.950 . S
C1028 C1029 1.327 . S
C1029 H1023 0.950 . S
C1029 C1028 1.327 . S
C1029 C1033 1.429 . S
C1030 C1013 1.574 . S
C1030 H1024 0.949 . S
C1030 C1034 1.368 . S
C1031 C1012 1.429 . S
C1031 C1025 1.429 . S
C1031 C1032 1.523 . S
C1032 C1013 1.368 . S
C1032 C1026 1.368 . S
C1032 C1031 1.523 . S
C1033 C1017 1.429 . S
C1033 C1029 1.429 . S
C1033 C1034 1.523 . S
C1034 C1018 1.368 . S
C1034 C1030 1.368 . S
C1034 C1033 1.523 . S
H1035 C1010 0.950 . S
H1036 C1012 0.950 . S
H1037 C1013 0.949 . S
H1038 C1015 0.950 . S
H1039 C1017 0.950 . S
C1040 C1041 1.349 . S
C1040 C1042 1.327 . S
C1040 H1065 0.950 . S
C1041 C1040 1.349 . S
C1041 C1057 1.349 . S
C1042 C1040 1.327 . S
C1042 C1061 1.429 . S
C1042 H1066 0.950 . S
C1043 C1060 1.574 . S
C1043 C1062 1.368 . S
C1043 H1067 0.949 . S
H1044 C1048 0.949 . S
C1045 C1046 1.349 . S
C1045 C1047 1.327 . S
C1045 H1068 0.950 . S
C1046 C1045 1.349 . S
C1046 C1058 1.349 . S
C1047 C1045 1.327 . S
C1047 C1063 1.429 . S
C1047 H1069 0.950 . S
C1048 H1044 0.949 . S
C1048 C1056 1.574 . S
C1048 C1064 1.368 . S
H1049 C1057 0.950 . S
H1050 C1055 0.950 . S
H1051 C1056 0.949 . S
H1052 C1058 0.950 . S
H1053 C1059 0.950 . S
H1054 C1060 0.949 . S
C1055 H1050 0.950 . S
C1055 C1057 1.327 . S
C1055 C1061 1.429 . S
C1056 C1048 1.574 . S
C1056 H1051 0.949 . S
C1056 C1062 1.368 . S
C1057 C1041 1.349 . S
C1057 H1049 0.950 . S
C1057 C1055 1.327 . S
C1058 C1046 1.349 . S
C1058 H1052 0.950 . S
C1058 C1059 1.327 . S
C1059 H1053 0.950 . S
C1059 C1058 1.327 . S
C1059 C1063 1.429 . S
C1060 C1043 1.574 . S
C1060 H1054 0.949 . S
C1060 C1064 1.368 . S
C1061 C1042 1.429 . S
C1061 C1055 1.429 . S
C1061 C1062 1.523 . S
C1062 C1043 1.368 . S
C1062 C1056 1.368 . S
C1062 C1061 1.523 . S
C1063 C1047 1.429 . S
C1063 C1059 1.429 . S
C1063 C1064 1.523 . S
C1064 C1048 1.368 . S
C1064 C1060 1.368 . S
C1064 C1063 1.523 . S
H1065 C1040 0.950 . S
H1066 C1042 0.950 . S
H1067 C1043 0.949 . S
H1068 C1045 0.950 . S
H1069 C1047 0.950 . S
C1070 C1071 1.349 . S
C1070 C1072 1.327 . S
C1070 H1095 0.950 . S
C1071 C1070 1.349 . S
C1071 C1087 1.349 . S
C1072 C1070 1.327 . S
C1072 C1091 1.429 . S
C1072 H1096 0.950 . S
C1073 C1090 1.574 . S
C1073 C1092 1.368 . S
C1073 H1097 0.949 . S
H1074 C1078 0.949 . S
C1075 C1076 1.349 . S
C1075 C1077 1.327 . S
C1075 H1098 0.950 . S
C1076 C1075 1.349 . S
C1076 C1088 1.349 . S
C1077 C1075 1.327 . S
C1077 C1093 1.429 . S
C1077 H1099 0.950 . S
C1078 H1074 0.949 . S
C1078 C1086 1.574 . S
C1078 C1094 1.368 . S
H1079 C1087 0.950 . S
H1080 C1085 0.950 . S
H1081 C1086 0.949 . S
H1082 C1088 0.950 . S
H1083 C1089 0.950 . S
H1084 C1090 0.949 . S
C1085 H1080 0.950 . S
C1085 C1087 1.327 . S
C1085 C1091 1.429 . S
C1086 C1078 1.574 . S
C1086 H1081 0.949 . S
C1086 C1092 1.368 . S
C1087 C1071 1.349 . S
C1087 H1079 0.950 . S
C1087 C1085 1.327 . S
C1088 C1076 1.349 . S
C1088 H1082 0.950 . S
C1088 C1089 1.327 . S
C1089 H1083 0.950 . S
C1089 C1088 1.327 . S
C1089 C1093 1.429 . S
C1090 C1073 1.574 . S
C1090 H1084 0.949 . S
C1090 C1094 1.368 . S
C1091 C1072 1.429 . S
C1091 C1085 1.429 . S
C1091 C1092 1.523 . S
C1092 C1073 1.368 . S
C1092 C1086 1.368 . S
C1092 C1091 1.523 . S
C1093 C1077 1.429 . S
C1093 C1089 1.429 . S
C1093 C1094 1.523 . S
C1094 C1078 1.368 . S
C1094 C1090 1.368 . S
C1094 C1093 1.523 . S
H1095 C1070 0.950 . S
H1096 C1072 0.950 . S
H1097 C1073 0.949 . S
H1098 C1075 0.950 . S
H1099 C1077 0.950 . S
C1100 C1101 1.349 . S
C1100 C1102 1.327 . S
C1100 H1125 0.950 . S
C1101 C1100 1.349 . S
C1101 C1117 1.349 . S
C1102 C1100 1.327 . S
C1102 C1121 1.429 . S
C1102 H1126 0.950 . S
C1103 C1120 1.574 . S
C1103 C1122 1.368 . S
C1103 H1127 0.949 . S
H1104 C1108 0.949 . S
C1105 C1106 1.349 . S
C1105 C1107 1.327 . S
C1105 H1128 0.950 . S
C1106 C1105 1.349 . S
C1106 C1118 1.349 . S
C1107 C1105 1.327 . S
C1107 C1123 1.429 . S
C1107 H1129 0.950 . S
C1108 H1104 0.949 . S
C1108 C1116 1.574 . S
C1108 C1124 1.368 . S
H1109 C1117 0.950 . S
H1110 C1115 0.950 . S
H1111 C1116 0.949 . S
H1112 C1118 0.950 . S
H1113 C1119 0.950 . S
H1114 C1120 0.949 . S
C1115 H1110 0.950 . S
C1115 C1117 1.327 . S
C1115 C1121 1.429 . S
C1116 C1108 1.574 . S
C1116 H1111 0.949 . S
C1116 C1122 1.368 . S
C1117 C1101 1.349 . S
C1117 H1109 0.950 . S
C1117 C1115 1.327 . S
C1118 C1106 1.349 . S
C1118 H1112 0.950 . S
C1118 C1119 1.327 . S
C1119 H1113 0.950 . S
C1119 C1118 1.327 . S
C1119 C1123 1.429 . S
C1120 C1103 1.574 . S
C1120 H1114 0.949 . S
C1120 C1124 1.368 . S
C1121 C1102 1.429 . S
C1121 C1115 1.429 . S
C1121 C1122 1.523 . S
C1122 C1103 1.368 . S
C1122 C1116 1.368 . S
C1122 C1121 1.523 . S
C1123 C1107 1.429 . S
C1123 C1119 1.429 . S
C1123 C1124 1.523 . S
C1124 C1108 1.368 . S
C1124 C1120 1.368 . S
C1124 C1123 1.523 . S
H1125 C1100 0.950 . S
H1126 C1102 0.950 . S
H1127 C1103 0.949 . S
H1128 C1105 0.950 . S
H1129 C1107 0.950 . S
C1130 C1131 1.349 . S
C1130 C1132 1.327 . S
C1130 H1155 0.950 . S
C1131 C1130 1.349 . S
C1131 C1147 1.349 . S
C1132 C1130 1.327 . S
C1132 C1151 1.429 . S
C1132 H1156 0.950 . S
C1133 C1150 1.574 . S
C1133 C1152 1.368 . S
C1133 H1157 0.949 . S
H1134 C1138 0.949 . S
C1135 C1136 1.349 . S
C1135 C1137 1.327 . S
C1135 H1158 0.950 . S
C1136 C1135 1.349 . S
C1136 C1148 1.349 . S
C1137 C1135 1.327 . S
C1137 C1153 1.429 . S
C1137 H1159 0.950 . S
C1138 H1134 0.949 . S
C1138 C1146 1.574 . S
C1138 C1154 1.368 . S
H1139 C1147 0.950 . S
H1140 C1145 0.950 . S
H1141 C1146 0.949 . S
H1142 C1148 0.950 . S
H1143 C1149 0.950 . S
H1144 C1150 0.949 . S
C1145 H1140 0.950 . S
C1145 C1147 1.327 . S
C1145 C1151 1.429 . S
C1146 C1138 1.574 . S
C1146 H1141 0.949 . S
C1146 C1152 1.368 . S
C1147 C1131 1.349 . S
C1147 H1139 0.950 . S
C1147 C1145 1.327 . S
C1148 C1136 1.349 . S
C1148 H1142 0.950 . S
C1148 C1149 1.327 . S
C1149 H1143 0.950 . S
C1149 C1148 1.327 . S
C1149 C1153 1.429 . S
C1150 C1133 1.574 . S
C1150 H1144 0.949 . S
C1150 C1154 1.368 . S
C1151 C1132 1.429 . S
C1151 C1145 1.429 . S
C1151 C1152 1.523 . S
C1152 C1133 1.368 . S
C1152 C1146 1.368 . S
C1152 C1151 1.523 . S
C1153 C1137 1.429 . S
C1153 C1149 1.429 . S
C1153 C1154 1.523 . S
C1154 C1138 1.368 . S
C1154 C1150 1.368 . S
C1154 C1153 1.523 . S
H1155 C1130 0.950 . S
H1156 C1132 0.950 . S
H1157 C1133 0.949 . S
H1158 C1135 0.950 . S
H1159 C1137 0.950 . S
C441 C86 1.638 . S
C446 C178 1.621 . S
C476 C262 1.699 . S
C471 C100 1.721 . S
C506 C255 1.629 . S
C501 C60 1.630 . S
C531 C74 1.711 . S
C536 C171 1.713 . S
C566 C335 1.699 . S
C561 C35 1.720 . S
C596 C419 1.621 . S
C591 C47 1.641 . S
C621 C9 1.709 . S
C626 C412 1.713 . S
C651 C21 1.633 . S
C656 C328 1.629 . S
C686 C162 1.448 . S
C681 C22 1.599 . S
C716 C246 1.453 . S
C711 C8 1.613 . S
C746 C257 1.415 . S
C741 C48 1.610 . S
C776 C173 1.423 . S
C771 C34 1.625 . S
C806 C341 1.453 . S
C801 C73 1.616 . S
C831 C61 1.598 . S
C836 C425 1.448 . S
C866 C414 1.423 . S
C861 C99 1.627 . S
C891 C87 1.609 . S
C896 C330 1.415 . S
C926 C160 1.639 . S
C921 C4 1.550 . S
C956 C244 1.511 . S
C951 C17 1.492 . S
C981 C30 1.549 . S
C986 C251 1.609 . S
C1016 C167 1.478 . S
C1011 C43 1.483 . S
C1046 C339 1.512 . S
C1041 C56 1.467 . S
C1071 C69 1.577 . S
C1076 C423 1.639 . S
C1101 C82 1.461 . S
C1106 C430 1.478 . S
C1131 C95 1.573 . S
C1136 C346 1.609 . S
