# Generated by pormake.
# Topology zzz, (3,6)-cn, num edge types: 1
# Building blocks:
#     Node 0, Type 0, BuildingBlock: BETDAH_clean_linker_0, # of connection points: 3
#     Node 1, Type 0, BuildingBlock: BETDAH_clean_linker_0, # of connection points: 3
#     Node 2, Type 0, BuildingBlock: BETDAH_clean_linker_0, # of connection points: 3
#     Node 3, Type 0, BuildingBlock: BETDAH_clean_linker_0, # of connection points: 3
#     Node 4, Type 0, BuildingBlock: BETDAH_clean_linker_0, # of connection points: 3
#     Node 5, Type 0, BuildingBlock: BETDAH_clean_linker_0, # of connection points: 3
#     Node 6, Type 0, BuildingBlock: BETDAH_clean_linker_0, # of connection points: 3
#     Node 7, Type 0, BuildingBlock: BETDAH_clean_linker_0, # of connection points: 3
#     Node 8, Type 1, BuildingBlock: KUMJIN_clean_sbu_0, # of connection points: 6
#     Node 9, Type 1, BuildingBlock: KUMJIN_clean_sbu_0, # of connection points: 6
#     Node 10, Type 1, BuildingBlock: KUMJIN_clean_sbu_0, # of connection points: 6
#     Node 11, Type 1, BuildingBlock: KUMJIN_clean_sbu_0, # of connection points: 6
#     Edge 12, Type (0, 1), BuildingBlock: CIFDUS_clean_linker_0, # of connection points: 2
#     Edge 13, Type (0, 1), BuildingBlock: CIFDUS_clean_linker_0, # of connection points: 2
#     Edge 14, Type (0, 1), BuildingBlock: CIFDUS_clean_linker_0, # of connection points: 2
#     Edge 15, Type (0, 1), BuildingBlock: CIFDUS_clean_linker_0, # of connection points: 2
#     Edge 16, Type (0, 1), BuildingBlock: CIFDUS_clean_linker_0, # of connection points: 2
#     Edge 17, Type (0, 1), BuildingBlock: CIFDUS_clean_linker_0, # of connection points: 2
#     Edge 18, Type (0, 1), BuildingBlock: CIFDUS_clean_linker_0, # of connection points: 2
#     Edge 19, Type (0, 1), BuildingBlock: CIFDUS_clean_linker_0, # of connection points: 2
#     Edge 20, Type (0, 1), BuildingBlock: CIFDUS_clean_linker_0, # of connection points: 2
#     Edge 21, Type (0, 1), BuildingBlock: CIFDUS_clean_linker_0, # of connection points: 2
#     Edge 22, Type (0, 1), BuildingBlock: CIFDUS_clean_linker_0, # of connection points: 2
#     Edge 23, Type (0, 1), BuildingBlock: CIFDUS_clean_linker_0, # of connection points: 2
#     Edge 24, Type (0, 1), BuildingBlock: CIFDUS_clean_linker_0, # of connection points: 2
#     Edge 25, Type (0, 1), BuildingBlock: CIFDUS_clean_linker_0, # of connection points: 2
#     Edge 26, Type (0, 1), BuildingBlock: CIFDUS_clean_linker_0, # of connection points: 2
#     Edge 27, Type (0, 1), BuildingBlock: CIFDUS_clean_linker_0, # of connection points: 2
#     Edge 28, Type (0, 1), BuildingBlock: CIFDUS_clean_linker_0, # of connection points: 2
#     Edge 29, Type (0, 1), BuildingBlock: CIFDUS_clean_linker_0, # of connection points: 2
#     Edge 30, Type (0, 1), BuildingBlock: CIFDUS_clean_linker_0, # of connection points: 2
#     Edge 31, Type (0, 1), BuildingBlock: CIFDUS_clean_linker_0, # of connection points: 2
#     Edge 32, Type (0, 1), BuildingBlock: CIFDUS_clean_linker_0, # of connection points: 2
#     Edge 33, Type (0, 1), BuildingBlock: CIFDUS_clean_linker_0, # of connection points: 2
#     Edge 34, Type (0, 1), BuildingBlock: CIFDUS_clean_linker_0, # of connection points: 2
#     Edge 35, Type (0, 1), BuildingBlock: CIFDUS_clean_linker_0, # of connection points: 2
# Relax obj value: 0.197
# Max RMSD: 0.172
# Mean RMSD: 0.118
data_MOF--net-zzz--node1-KUMJIN_clean_sbu_0--node2-BETDAH_clean_linker_0--edge1-CIFDUS_clean_linker_0
_symmetry_space_group_name_H-M    P1
_symmetry_Int_Tables_number       1
_symmetry_cell_setting            triclinic
loop_
_symmetry_equiv_pos_as_xyz
'x, y, z'
_cell_length_a     44.148439
_cell_length_b     43.751013
_cell_length_c     12.905676
_cell_angle_alpha  92.223518
_cell_angle_beta   90.15926
_cell_angle_gamma 89.69519
loop_
_atom_site_label
_atom_site_type_symbol
_atom_site_fract_x
_atom_site_fract_y
_atom_site_fract_z
_atom_type_partial_charge
H0 H 0.82513 0.5822 0.25666 0.0
H1 H 0.73367 0.57422 0.1462 0.0
H2 H 0.76189 0.52712 0.4182 0.0
C3 C 0.80239 0.57362 0.26569 0.0
C4 C 0.79684 0.55399 0.34711 0.0
C5 C 0.78014 0.58035 0.19113 0.0
C6 C 0.75076 0.56913 0.20342 0.0
C7 C 0.74379 0.54997 0.28483 0.0
C8 C 0.76693 0.5426 0.35717 0.0
N9 N 0.71431 0.5366 0.29157 0.0
C10 C 0.69116 0.53903 0.21688 0.0
H11 H 0.02901 0.84526 0.26814 0.0
H12 H 0.02456 0.75254 0.14911 0.0
H13 H 1.00987 0.77337 0.47568 0.0
C14 C 0.02413 0.8214 0.28078 0.0
C15 C 0.01822 0.81266 0.38171 0.0
C16 C 0.02679 0.79983 0.19784 0.0
C17 C 0.02219 0.76883 0.21401 0.0
C18 C 1.01538 0.75877 0.31313 0.0
C19 C 1.01373 0.78091 0.39792 0.0
N20 N 1.01127 0.72668 0.3288 0.0
C21 C 1.01537 0.70294 0.25236 0.0
H22 H 0.70645 0.06603 0.29358 0.0
H23 H 0.7934 0.05061 0.1588 0.0
H24 H 0.7684 1.00241 0.43122 0.0
C25 C 0.72842 0.055 0.29808 0.0
C26 C 0.73443 0.03422 0.37608 0.0
C27 C 0.74969 0.06102 0.2215 0.0
C28 C 0.77748 0.04572 0.21929 0.0
C29 C 0.7846 0.02438 0.2942 0.0
C30 C 0.76293 1.01869 0.37289 0.0
N31 N 0.81314 1.0085 0.29121 0.0
C32 C 0.83559 1.01197 0.21512 0.0
H33 H 0.57114 0.71681 0.36012 0.0
H34 H 0.56499 0.7998 0.19404 0.0
H35 H 0.50838 0.78681 0.4612 0.0
C36 C 0.56251 0.73997 0.35468 0.0
C37 C 0.53953 0.74968 0.42277 0.0
C38 C 0.57136 0.75751 0.27103 0.0
C39 C 0.55861 0.78668 0.25995 0.0
C40 C 0.53645 0.79797 0.32999 0.0
C41 C 0.5265 0.77898 0.41018 0.0
N42 N 0.52285 0.82748 0.31877 0.0
C43 C 0.52779 0.84702 0.23649 0.0
H44 H 0.20713 0.48915 0.1289 0.0
H45 H 0.29309 0.49802 0.28327 0.0
H46 H 0.28341 0.52133 0.96177 0.0
C47 C 0.23129 0.49339 0.12528 0.0
C48 C 0.24284 0.50442 0.0338 0.0
C49 C 0.24888 0.49128 0.21546 0.0
C50 C 0.27973 0.49892 0.21292 0.0
C51 C 0.29281 0.50891 0.12052 0.0
C52 C 0.27393 0.51239 0.03165 0.0
N53 N 0.32428 0.5167 0.11548 0.0
C54 C 0.34592 0.51449 0.19535 0.0
H55 H 0.06784 0.21195 0.11658 0.0
H56 H 0.07599 0.30626 0.21845 0.0
H57 H 0.02907 0.28207 0.9336 0.0
C58 C 0.06438 0.23603 0.10358 0.0
C59 C 0.04855 0.24384 1.01409 0.0
C60 C 0.07411 0.25828 0.17842 0.0
C61 C 0.06834 0.28922 0.16167 0.0
C62 C 0.05125 0.29827 0.07634 0.0
C63 C 0.04204 0.27542 1.00048 0.0
N64 N 0.04214 0.32977 0.06901 0.0
C65 C 0.04595 0.35278 0.14821 0.0
H66 H 0.34769 0.0857 0.12225 0.0
H67 H 0.25382 0.08918 0.214 0.0
H68 H 0.28378 0.0262 0.97031 0.0
C69 C 0.32424 0.07923 0.11086 0.0
C70 C 0.31827 0.0565 0.03431 0.0
C71 C 0.30154 0.09046 0.17975 0.0
C72 C 0.27168 0.0802 0.16419 0.0
C73 C 0.26505 0.05661 0.09081 0.0
C74 C 0.28847 0.04497 0.02508 0.0
N75 N 0.23567 0.04292 0.08734 0.0
C76 C 0.21406 0.0462 0.16692 0.0
H77 H 0.46976 0.34332 0.07092 0.0
H78 H 0.48003 0.25768 0.22002 0.0
H79 H 0.50789 0.2664 0.9014 0.0
C80 C 0.4755 0.31915 0.06691 0.0
C81 C 0.48836 0.30712 0.97554 0.0
C82 C 0.47253 0.30168 0.1554 0.0
C83 C 0.48167 0.27087 0.15098 0.0
C84 C 0.49403 0.25762 0.05908 0.0
C85 C 0.49766 0.27609 0.97151 0.0
N86 N 0.50396 0.22637 0.0538 0.0
C87 C 0.5018 0.20561 0.13396 0.0
Eu88 Eu 0.05472 0.02453 0.78662 0.0
C89 C 0.95232 0.98132 0.49054 0.0
C90 C 0.9818 0.94804 0.37492 0.0
C91 C 0.92749 0.94079 0.38779 0.0
C92 C 0.97986 0.97308 0.44723 0.0
C93 C 0.92576 0.9653 0.46105 0.0
C94 C 0.95548 0.93213 0.34497 0.0
C95 C 0.89745 0.99942 0.57619 0.0
N96 N 0.95148 1.00485 0.56203 0.0
C97 C 0.9243 1.01466 0.60234 0.0
C98 C 0.89818 0.97452 0.50549 0.0
Eu99 Eu 0.99709 0.03286 0.59108 0.0
N100 N 1.00491 0.98869 0.47895 0.0
C101 C 0.03279 0.97994 0.44164 0.0
C102 C 1.01022 0.9393 0.33635 0.0
C103 C 0.03584 0.95521 0.37051 0.0
H104 H 0.92321 0.03482 0.65329 0.0
H105 H 0.05802 0.94838 0.3423 0.0
H106 H 0.95656 0.91294 0.28943 0.0
H107 H 0.87614 1.00722 0.60928 0.0
H108 H 0.05311 0.99122 0.46825 0.0
H109 H 0.02839 0.98729 0.17552 0.0
H110 H 1.01268 0.92009 0.28141 0.0
H111 H 0.09535 0.08832 0.72943 0.0
H112 H 0.04298 0.98011 0.9912 0.0
H113 H 0.10901 0.13747 0.81345 0.0
H114 H 0.90734 0.92831 0.36408 0.0
H115 H 0.02535 0.03938 0.25607 0.0
H116 H 0.03592 0.09602 0.24228 0.0
H117 H 0.87731 0.96287 0.48466 0.0
H118 H 0.06139 0.13623 0.1474 0.0
N119 N 0.04754 0.02774 0.96846 0.0
C120 C 0.04244 1.00286 0.02679 0.0
C121 C 0.03227 0.03637 0.17597 0.0
C122 C 0.04125 0.06134 0.11886 0.0
C123 C 0.03405 1.00687 0.13091 0.0
C124 C 0.04952 0.05604 1.0143 0.0
H125 H 0.09084 0.15107 0.9905 0.0
N126 N 0.07003 0.07301 0.85821 0.0
C127 C 0.09555 0.12136 0.8549 0.0
C128 C 0.06209 0.07914 0.9586 0.0
C129 C 0.08755 0.09325 0.8072 0.0
C130 C 0.0853 0.12896 0.95488 0.0
C131 C 0.06839 0.10772 1.00821 0.0
O132 O 0.09135 0.99732 0.71586 0.0
O133 O 0.02884 0.99954 0.6597 0.0
O134 O 0.97181 1.01919 0.7369 0.0
O135 O 1.00846 1.0213 0.86829 0.0
O136 O 0.03459 0.9766 0.79475 0.0
O137 O 0.09644 1.015 0.87218 0.0
O138 O 0.96147 0.06222 0.53188 0.0
O139 O 0.02833 0.05965 0.70154 0.0
O140 O 0.07851 0.04321 0.64626 0.0
O141 O 0.04235 0.04325 0.5149 0.0
O142 O 0.98289 0.07203 0.70191 0.0
O143 O 1.00249 0.05519 0.44419 0.0
C144 C 0.02275 0.97467 0.7032 0.0
C145 C 0.12044 0.96836 0.82905 0.0
C146 C 0.11021 0.91616 0.87684 0.0
C147 C 0.10148 0.94297 0.82887 0.0
C148 C 0.14009 0.9139 0.91472 0.0
C149 C 0.15002 0.966 0.86732 0.0
C150 C 0.16 0.93853 0.90793 0.0
C151 C 0.97996 1.01819 0.83579 0.0
C152 C 0.10828 0.99788 0.7983 0.0
C153 C 0.05796 0.11396 0.10963 0.0
C154 C 0.0436 0.09101 0.16384 0.0
C155 C 1.00906 0.07861 0.74054 0.0
C156 C 0.98093 0.10459 0.45281 0.0
C157 C 1.00906 0.11854 0.47202 0.0
C158 C 1.01188 0.1504 0.47085 0.0
C159 C 0.9856 0.16824 0.45573 0.0
C160 C 0.95515 0.12266 0.43753 0.0
C161 C 0.95747 0.1544 0.44016 0.0
C162 C 0.07063 0.0463 0.54837 0.0
C163 C 0.97786 0.07139 0.45615 0.0
H164 H 0.07919 0.94468 0.796 0.0
H165 H 0.14775 0.89383 0.95389 0.0
H166 H 0.16509 0.98546 0.86768 0.0
H167 H 0.18278 0.93679 0.9385 0.0
H168 H 0.02889 0.10463 0.48619 0.0
H169 H 0.98678 0.19285 0.45107 0.0
H170 H 0.93321 0.11218 0.42452 0.0
H171 H 0.93754 0.16833 0.42784 0.0
Eu172 Eu 0.53447 0.06332 0.81923 0.0
C173 C 0.57208 0.95623 0.53588 0.0
C174 C 0.60668 0.98041 0.41975 0.0
C175 C 0.61392 0.92702 0.45826 0.0
C176 C 0.58127 0.98188 0.48626 0.0
C177 C 0.58781 0.92822 0.52015 0.0
C178 C 0.62333 0.95308 0.40804 0.0
C179 C 0.54858 0.9037 0.6159 0.0
N180 N 0.54642 0.95803 0.59318 0.0
C181 C 0.53362 0.93184 0.6277 0.0
C182 C 0.5761 0.90196 0.5633 0.0
Eu183 Eu 0.52156 1.00659 0.61106 0.0
N184 N 0.56455 1.00787 0.49887 0.0
C185 C 0.57136 0.03276 0.44244 0.0
C186 C 0.6143 1.00626 0.36543 0.0
C187 C 0.59636 0.03245 0.37611 0.0
H188 H 0.51187 0.93283 0.66599 0.0
H189 H 0.60172 0.05248 0.33318 0.0
H190 H 0.64309 0.95169 0.35845 0.0
H191 H 0.53866 0.88333 0.64626 0.0
H192 H 0.55791 0.05318 0.44768 0.0
H193 H 0.5406 0.0341 0.2289 0.0
H194 H 0.63367 1.0061 0.31404 0.0
H195 H 0.48469 0.11247 0.71572 0.0
H196 H 0.56097 0.04454 0.05527 0.0
H197 H 0.43548 0.13631 0.75736 0.0
H198 H 0.62644 0.90581 0.44617 0.0
H199 H 0.48621 0.04299 0.2662 0.0
H200 H 0.43597 0.06372 0.2074 0.0
H201 H 0.58748 0.88005 0.55291 0.0
H202 H 0.40815 0.09458 0.08289 0.0
N203 N 0.51814 0.05694 0.99329 0.0
C204 C 0.53715 0.04824 0.07097 0.0
C205 C 0.49502 0.04731 0.18989 0.0
C206 C 0.47656 0.0598 0.11389 0.0
C207 C 0.52573 0.04238 0.16928 0.0
C208 C 0.48919 0.06508 1.01594 0.0
H209 H 0.40886 0.12388 0.91879 0.0
N210 N 0.48665 0.08693 0.85275 0.0
C211 C 0.44572 0.12071 0.81043 0.0
C212 C 0.47325 0.08144 0.94458 0.0
C213 C 0.47369 0.10695 0.78684 0.0
C214 C 0.43079 0.11368 0.90163 0.0
C215 C 0.44449 0.09377 0.97003 0.0
O216 O 0.54162 0.11269 0.81413 0.0
O217 O 0.55535 0.03894 0.6806 0.0
O218 O 0.53567 0.98059 0.75574 0.0
O219 O 0.53442 1.01676 0.89346 0.0
O220 O 0.58089 0.04016 0.81321 0.0
O221 O 0.57004 0.08575 0.91131 0.0
O222 O 0.48902 0.9736 0.54727 0.0
O223 O 0.49836 0.0395 0.72455 0.0
O224 O 0.53295 0.08798 0.66742 0.0
O225 O 0.51191 0.05385 0.54517 0.0
O226 O 0.48305 0.99484 0.71842 0.0
O227 O 0.49963 1.01329 0.46142 0.0
C228 C 0.58108 0.03161 0.71626 0.0
C229 C 0.59334 0.12642 0.82538 0.0
C230 C 0.64824 0.12882 0.80851 0.0
C231 C 0.62233 0.11543 0.84915 0.0
C232 C 0.64535 0.15333 0.74261 0.0
C233 C 0.59065 0.15116 0.75942 0.0
C234 C 0.61653 0.16429 0.71758 0.0
C235 C 0.5368 0.98819 0.85634 0.0
C236 C 0.56621 0.1121 0.86952 0.0
C237 C 0.43068 0.08627 0.06354 0.0
C238 C 0.4465 0.06871 0.13447 0.0
C239 C 0.47862 1.02165 0.7604 0.0
C240 C 0.44875 0.9966 0.46356 0.0
C241 C 0.43726 0.02652 0.4768 0.0
C242 C 0.40589 0.03198 0.47668 0.0
C243 C 0.38619 1.00674 0.46535 0.0
C244 C 0.42874 0.97195 0.4519 0.0
C245 C 0.3976 0.97704 0.45353 0.0
C246 C 0.52104 0.08168 0.575 0.0
C247 C 0.48133 0.99037 0.47092 0.0
H248 H 0.62499 0.09679 0.90149 0.0
H249 H 0.66526 0.16415 0.71204 0.0
H250 H 0.56859 0.16034 0.74023 0.0
H251 H 0.61423 0.18329 0.66681 0.0
H252 H 0.45267 0.04555 0.48713 0.0
H253 H 0.36189 1.00984 0.46112 0.0
H254 H 0.43725 0.94872 0.44297 0.0
H255 H 0.38222 0.95794 0.44416 0.0
Eu256 Eu 0.55524 0.5257 0.61805 0.0
C257 C 0.42334 0.49275 0.75326 0.0
C258 C 0.38909 0.52111 0.64582 0.0
C259 C 0.37358 0.47218 0.71028 0.0
C260 C 0.41747 0.51791 0.69512 0.0
C261 C 0.40118 0.46995 0.76387 0.0
C262 C 0.36754 0.49774 0.65136 0.0
C263 C 0.43385 0.44625 0.88832 0.0
N264 N 0.45 0.49154 0.805 0.0
C265 C 0.45496 0.46952 0.87577 0.0
C266 C 0.40703 0.44619 0.83081 0.0
Eu267 Eu 0.48591 0.53046 0.77533 0.0
N268 N 0.43881 0.54007 0.6916 0.0
C269 C 0.43211 0.56714 0.64691 0.0
C270 C 0.38292 0.54805 0.59472 0.0
C271 C 0.40436 0.57134 0.5967 0.0
H272 H 0.47582 0.46933 0.91987 0.0
H273 H 0.39959 0.59255 0.55923 0.0
H274 H 0.34583 0.4996 0.61265 0.0
H275 H 0.43834 0.42837 0.94207 0.0
H276 H 0.44809 0.58561 0.64762 0.0
H277 H 0.64436 0.46459 0.82402 0.0
H278 H 0.36148 0.55134 0.55554 0.0
H279 H 0.56335 0.58829 0.47797 0.0
H280 H 0.59633 0.47005 0.73056 0.0
H281 H 0.59924 0.63094 0.4612 0.0
H282 H 0.35642 0.45473 0.71641 0.0
H283 H 0.67987 0.50807 0.83927 0.0
H284 H 0.69314 0.56134 0.7904 0.0
H285 H 0.39062 0.42822 0.84092 0.0
H286 H 0.68102 0.60662 0.69042 0.0
N287 N 0.60284 0.51692 0.69921 0.0
C288 C 0.61093 0.48951 0.73856 0.0
C289 C 0.6585 0.51072 0.79899 0.0
C290 C 0.6512 0.53799 0.75148 0.0
C291 C 0.63852 0.48616 0.79062 0.0
C292 C 0.62298 0.54028 0.70053 0.0
H293 H 0.64641 0.63244 0.56531 0.0
N294 N 0.58978 0.5661 0.59136 0.0
C295 C 0.60427 0.6128 0.5134 0.0
C296 C 0.61623 0.56569 0.64463 0.0
C297 C 0.58409 0.58855 0.52272 0.0
C298 C 0.63079 0.61363 0.57263 0.0
C299 C 0.63735 0.58961 0.63785 0.0
O300 O 0.56879 0.5251 0.45586 0.0
O301 O 0.50434 0.52186 0.61652 0.0
O302 O 0.49291 0.48069 0.71921 0.0
O303 O 0.54504 0.47965 0.69261 0.0
O304 O 0.52323 0.54617 0.49979 0.0
O305 O 0.56655 0.48257 0.53592 0.0
O306 O 0.47539 0.53264 0.94044 0.0
O307 O 0.53658 0.5336 0.77618 0.0
O308 O 0.54979 0.57389 0.68704 0.0
O309 O 0.49763 0.57707 0.70446 0.0
O310 O 0.51758 0.51096 0.89669 0.0
O311 O 0.47239 0.57367 0.85225 0.0
C312 C 0.49826 0.53567 0.53465 0.0
C313 C 0.54578 0.4841 0.36612 0.0
C314 C 0.50103 0.4543 0.3169 0.0
C315 C 0.52289 0.46342 0.39078 0.0
C316 C 0.50144 0.46744 0.21892 0.0
C317 C 0.54604 0.49655 0.26745 0.0
C318 C 0.52374 0.48849 0.19483 0.0
C319 C 0.51909 0.46572 0.71338 0.0
C320 C 0.56722 0.49545 0.44617 0.0
C321 C 0.66468 0.58829 0.69348 0.0
C322 C 0.67158 0.56251 0.75035 0.0
C323 C 0.54266 0.52054 0.85958 0.0
C324 C 0.49598 0.57716 0.01783 0.0
C325 C 0.515 0.60071 0.98619 0.0
C326 C 0.53633 0.61411 0.05463 0.0
C327 C 0.5396 0.60221 0.15413 0.0
C328 C 0.49933 0.56604 0.1178 0.0
C329 C 0.52136 0.57822 0.18487 0.0
C330 C 0.52445 0.59011 0.69121 0.0
C331 C 0.47446 0.56239 0.94435 0.0
H332 H 0.5221 0.45418 0.46741 0.0
H333 H 0.48535 0.46055 0.15909 0.0
H334 H 0.56313 0.51299 0.24737 0.0
H335 H 0.52396 0.49827 0.1191 0.0
H336 H 0.51294 0.60899 0.90858 0.0
H337 H 0.55522 0.61224 0.21039 0.0
H338 H 0.4852 0.54763 0.14343 0.0
H339 H 0.52389 0.56948 0.26178 0.0
Eu340 Eu 0.03298 0.55652 0.62108 0.0
C341 C 0.03882 0.42944 0.79113 0.0
C342 C 0.02056 0.39835 0.64497 0.0
C343 C 0.05592 0.37669 0.76712 0.0
C344 C 0.02144 0.42649 0.70216 0.0
C345 C 0.05554 0.40429 0.82645 0.0
C346 C 0.03853 0.37376 0.67629 0.0
C347 C 0.06763 0.43449 0.98171 0.0
N348 N 0.03783 0.45635 0.84679 0.0
C349 C 0.05077 0.45874 0.94335 0.0
C350 C 0.07043 0.40727 0.92225 0.0
Eu351 Eu 1.0078 0.49625 0.77918 0.0
N352 N 1.00395 0.45052 0.6751 0.0
C353 C 0.98352 0.44725 0.5958 0.0
C354 C 1.00084 0.39544 0.56014 0.0
C355 C 0.98191 0.41985 0.5365 0.0
H356 H 0.04869 0.47977 0.98933 0.0
H357 H 0.9662 0.41768 0.47213 0.0
H358 H 0.0384 0.35209 0.63268 0.0
H359 H 0.07838 0.43678 0.0571 0.0
H360 H 0.96893 0.46597 0.57599 0.0
H361 H 0.14475 0.609 0.67661 0.0
H362 H 0.99958 0.37426 0.51397 0.0
H363 H 0.96328 0.59071 0.6588 0.0
H364 H 0.10812 0.57085 0.60834 0.0
H365 H 0.94229 0.63797 0.73383 0.0
H366 H 0.06887 0.35722 0.79236 0.0
H367 H 0.12677 0.65427 0.77981 0.0
H368 H 0.08325 0.68561 0.84891 0.0
H369 H 0.08335 0.38843 0.95234 0.0
H370 H 0.0283 0.69402 0.86054 0.0
N371 N 0.06984 0.59307 0.67861 0.0
C372 C 0.10002 0.59029 0.65498 0.0
C373 C 0.11061 0.63741 0.75101 0.0
C374 C 0.07952 0.64159 0.76703 0.0
C375 C 0.12084 0.61194 0.69279 0.0
C376 C 0.05934 0.61892 0.7281 0.0
H377 H 0.97591 0.6771 0.81425 0.0
N378 N 1.00943 0.60176 0.6939 0.0
C379 C 0.96654 0.63422 0.7348 0.0
C380 C 0.02834 0.62365 0.73432 0.0
C381 C 0.97883 0.60709 0.69194 0.0
C382 C 0.98557 0.65625 0.78007 0.0
C383 C 1.01683 0.65121 0.78011 0.0
O384 O 1.01332 0.55946 0.46563 0.0
O385 O 0.02049 0.50686 0.61693 0.0
O386 O 0.05942 0.49313 0.77967 0.0
O387 O 0.07414 0.5397 0.7155 0.0
O388 O 0.06183 0.51706 0.55479 0.0
O389 O 0.05429 0.58344 0.50196 0.0
O390 O 0.99154 0.49408 0.93783 0.0
O391 O 1.00921 0.54792 0.76946 0.0
O392 O 0.98388 0.54755 0.57574 0.0
O393 O 0.96548 0.5121 0.68979 0.0
O394 O 0.02559 0.52977 0.90382 0.0
O395 O 0.96445 0.47498 0.81222 0.0
C396 C 0.04279 0.49521 0.56683 0.0
C397 C 0.05179 0.55585 0.34198 0.0
C398 C 0.09176 0.51986 0.28809 0.0
C399 C 0.07999 0.54188 0.35882 0.0
C400 C 0.0757 0.51332 0.19557 0.0
C401 C 0.03613 0.5492 0.24938 0.0
C402 C 0.04824 0.52822 0.17611 0.0
C403 C 0.08029 0.51404 0.76338 0.0
C404 C 0.0368 0.57283 0.4283 0.0
C405 C 0.03681 0.67305 0.82354 0.0
C406 C 0.06808 0.66821 0.81727 0.0
C407 C 0.0204 0.55488 0.85827 0.0
C408 C 0.93931 0.49416 0.96118 0.0
C409 C 0.92669 0.5218 0.92913 0.0
C410 C 0.9013 0.53398 0.98065 0.0
C411 C 0.88884 0.51862 0.06424 0.0
C412 C 0.92681 0.4791 0.04472 0.0
C413 C 0.9016 0.49137 0.09618 0.0
C414 C 0.96168 0.53074 0.61195 0.0
C415 C 0.96618 0.48111 0.91144 0.0
H416 H 0.09206 0.54686 0.4305 0.0
H417 H 0.08446 0.49697 0.13792 0.0
H418 H 1.01416 0.55943 0.23535 0.0
H419 H 0.03591 0.523 0.10527 0.0
H420 H 0.93648 0.53366 0.8652 0.0
H421 H 0.86912 0.52782 0.10464 0.0
H422 H 0.93667 0.45794 0.0704 0.0
H423 H 0.89196 0.47979 0.16087 0.0
H424 H 0.15458 0.06155 0.15371 0.0
H425 H 0.2234 0.03373 0.36792 0.0
H426 H 0.18579 0.03302 0.50766 0.0
H427 H 0.13247 0.03799 0.56723 0.0
H428 H 0.06399 0.06601 0.35258 0.0
H429 H 0.1021 0.06914 0.21565 0.0
C430 C 0.16132 0.05557 0.23127 0.0
C431 C 0.19171 0.04764 0.25057 0.0
C432 C 0.13948 0.05517 0.31135 0.0
C433 C 0.20013 0.03989 0.35124 0.0
C434 C 0.17859 0.03947 0.43116 0.0
C435 C 0.12586 0.04519 0.49094 0.0
C436 C 0.09502 0.05154 0.47013 0.0
C437 C 0.14806 0.04679 0.41208 0.0
C438 C 0.08724 0.06063 0.37028 0.0
C439 C 0.10906 0.06248 0.29205 0.0
H440 H 0.53898 0.19784 0.2988 0.0
H441 H 0.46171 0.1591 0.13854 0.0
H442 H 0.46027 0.11752 0.26065 0.0
H443 H 0.48292 0.08996 0.40764 0.0
H444 H 0.55899 0.13027 0.57065 0.0
H445 H 0.55969 0.17215 0.45163 0.0
C446 C 0.52185 0.18021 0.29066 0.0
C447 C 0.50047 0.18158 0.20979 0.0
C448 C 0.5214 0.15598 0.36033 0.0
C449 C 0.47843 0.1586 0.20012 0.0
C450 C 0.4778 0.13456 0.26921 0.0
C451 C 0.49945 0.10802 0.41738 0.0
C452 C 0.5206 0.10694 0.49944 0.0
C453 C 0.49942 0.13265 0.34888 0.0
C454 C 0.54206 0.13058 0.5099 0.0
C455 C 0.54261 0.1546 0.4412 0.0
H456 H 0.38885 0.55759 0.22505 0.0
H457 H 0.36106 0.46967 0.32772 0.0
H458 H 0.40543 0.46787 0.44325 0.0
H459 H 0.45332 0.49136 0.51366 0.0
H460 H 0.47979 0.5797 0.40922 0.0
H461 H 0.43556 0.58107 0.29582 0.0
C462 C 0.39242 0.53813 0.2733 0.0
C463 C 0.37153 0.5139 0.26829 0.0
C464 C 0.41806 0.53727 0.33926 0.0
C465 C 0.37666 0.48871 0.33057 0.0
C466 C 0.40215 0.48765 0.3964 0.0
C467 C 0.44904 0.51109 0.46738 0.0
C468 C 0.46954 0.53586 0.47258 0.0
C469 C 0.42316 0.5118 0.40149 0.0
C470 C 0.4642 0.56064 0.4086 0.0
C471 C 0.43884 0.56144 0.3434 0.0
H472 H 1.01393 0.40618 0.17512 0.0
H473 H 0.08634 0.35402 0.30765 0.0
H474 H 0.09218 0.39305 0.44751 0.0
H475 H 0.07639 0.44237 0.5353 0.0
H476 H 1.00353 0.49411 0.40402 0.0
H477 H 0.99857 0.45577 0.26149 0.0
C478 C 0.03099 0.40338 0.23465 0.0
C479 C 0.04955 0.37692 0.2307 0.0
C480 C 0.03422 0.42612 0.31573 0.0
C481 C 0.07162 0.37389 0.30847 0.0
C482 C 0.07502 0.39635 0.38876 0.0
C483 C 0.05933 0.44509 0.47573 0.0
C484 C 0.0398 0.47079 0.48224 0.0
C485 C 0.05639 0.42256 0.39381 0.0
C486 C 0.01832 0.47426 0.40269 0.0
C487 C 1.01555 0.45231 0.32073 0.0
H488 H 0.89355 0.9903 0.21667 0.0
H489 H 0.83025 0.04081 0.03372 0.0
H490 H 0.86885 0.04715 0.9009 0.0
H491 H 0.92113 0.03905 0.83652 0.0
H492 H 0.98363 0.98605 1.01357 0.0
H493 H 0.94555 0.9805 0.14843 0.0
C494 C 0.88826 1.00269 0.14763 0.0
C495 C 0.85901 1.01528 0.13578 0.0
C496 C 0.9107 1.00604 0.07041 0.0
C497 C 0.85253 0.03112 0.04565 0.0
C498 C 0.87467 0.03469 0.96921 0.0
C499 C 0.92636 0.02598 0.90388 0.0
C500 C 0.95574 1.01357 0.91522 0.0
C501 C 0.90388 1.0223 0.98056 0.0
C502 C 0.96188 0.99695 1.00416 0.0
C503 C 0.93982 0.99337 0.08095 0.0
H504 H 0.55453 0.90295 0.24228 0.0
H505 H 0.50442 0.84002 0.04352 0.0
H506 H 0.50365 0.87729 0.90618 0.0
H507 H 0.51498 0.92908 0.84557 0.0
H508 H 0.56647 0.99129 0.04271 0.0
H509 H 0.56853 0.95367 0.17715 0.0
C510 C 0.54373 0.89734 0.16841 0.0
C511 C 0.52963 0.86868 0.15285 0.0
C512 C 0.54329 0.91906 0.08963 0.0
C513 C 0.51554 0.86183 0.05715 0.0
C514 C 0.51503 0.88322 0.97865 0.0
C515 C 0.52718 0.93425 0.91682 0.0
C516 C 0.54022 0.96346 0.93348 0.0
C517 C 0.52859 0.91208 0.99412 0.0
C518 C 0.55543 0.96958 0.02806 0.0
C519 C 0.55688 0.94783 0.10505 0.0
H520 H 0.65071 0.49455 0.16897 0.0
H521 H 0.67521 0.58639 0.09698 0.0
H522 H 0.63247 0.58885 0.97478 0.0
H523 H 0.58659 0.56502 0.89139 0.0
H524 H 0.56258 0.4733 0.96807 0.0
H525 H 0.60615 0.47062 0.08416 0.0
C526 C 0.64674 0.51505 0.12611 0.0
C527 C 0.66612 0.54024 0.14199 0.0
C528 C 0.62206 0.51626 0.05612 0.0
C529 C 0.66063 0.56667 0.08614 0.0
C530 C 0.63614 0.56808 1.01626 0.0
C531 C 0.59138 0.54426 0.93182 0.0
C532 C 0.57179 0.51897 0.91826 0.0
C533 C 0.61654 0.54303 1.00059 0.0
C534 C 0.57765 0.49275 0.97483 0.0
C535 C 0.60252 0.49126 0.04192 0.0
H536 H 0.97407 0.66994 0.13567 0.0
H537 H 0.06937 0.67683 0.20361 0.0
H538 H 0.07968 0.63232 0.08727 0.0
H539 H 0.06151 0.59018 0.96777 0.0
H540 H 0.96624 0.58319 0.90012 0.0
H541 H 0.95607 0.62841 1.01336 0.0
C542 C 0.9971 0.66177 0.12452 0.0
C543 C 0.02096 0.67688 0.17851 0.0
C544 C 1.00288 0.63588 0.0571 0.0
C545 C 0.05061 0.6658 0.16318 0.0
C546 C 0.05651 0.64021 0.09663 0.0
C547 C 0.03856 0.59879 0.97704 0.0
C548 C 1.01479 0.58384 0.92204 0.0
C549 C 0.03285 0.62491 0.0433 0.0
C550 C 0.98509 0.59476 0.93815 0.0
C551 C 0.97923 0.6205 1.00401 0.0
H552 H 0.10838 0.2083 0.22821 0.0
H553 H 0.06226 0.28634 0.3701 0.0
H554 H 0.04848 0.25659 0.5159 0.0
H555 H 0.02913 0.20601 0.55264 0.0
H556 H 0.06395 0.12694 0.38075 0.0
H557 H 0.10183 0.15809 0.30138 0.0
C558 C 0.09606 0.21899 0.29274 0.0
C559 C 0.08377 0.24846 0.28293 0.0
C560 C 0.08472 0.20068 0.37012 0.0
C561 C 0.07058 0.26305 0.37129 0.0
C562 C 0.06214 0.24582 0.45495 0.0
C563 C 0.04566 0.19548 0.50024 0.0
C564 C 0.04227 0.16474 0.46713 0.0
C565 C 0.06562 0.21401 0.44741 0.0
C566 C 0.06508 0.15084 0.40502 0.0
C567 C 0.08678 0.16879 0.35843 0.0
H568 H 0.35043 0.12812 0.22638 0.0
H569 H 0.27316 0.08834 0.37266 0.0
H570 H 0.30358 0.07662 0.52109 0.0
H571 H 0.35334 0.05497 0.56062 0.0
H572 H 0.43077 0.08142 0.38307 0.0
H573 H 0.40083 0.12 0.29981 0.0
C574 C 0.3401 0.11748 0.29197 0.0
C575 C 0.31069 0.10536 0.28168 0.0
C576 C 0.35875 0.10673 0.37085 0.0
C577 C 0.29653 0.09558 0.37257 0.0
C578 C 0.31415 0.08831 0.45815 0.0
C579 C 0.36385 0.06985 0.50593 0.0
C580 C 0.39353 0.06363 0.47182 0.0
C581 C 0.34571 0.08988 0.45057 0.0
C582 C 0.40757 0.08458 0.40743 0.0
C583 C 0.39027 0.10666 0.35875 0.0
H584 H 0.42659 0.34174 0.19963 0.0
H585 H 0.50524 0.30028 0.33459 0.0
H586 H 0.51612 0.34756 0.43257 0.0
H587 H 0.5153 0.40287 0.41775 0.0
H588 H 0.4416 0.44611 0.25762 0.0
H589 H 0.41704 0.39659 0.23021 0.0
C590 C 0.44516 0.34273 0.25496 0.0
C591 C 0.46619 0.31843 0.25512 0.0
C592 C 0.45317 0.37101 0.30156 0.0
C593 C 0.4893 0.31909 0.33016 0.0
C594 C 0.49596 0.34646 0.3845 0.0
C595 C 0.49318 0.40185 0.38112 0.0
C596 C 0.48095 0.42794 0.33559 0.0
C597 C 0.48002 0.37318 0.36123 0.0
C598 C 0.45207 0.4261 0.28965 0.0
C599 C 0.43799 0.39778 0.27417 0.0
H600 H 0.21187 0.44484 0.26949 0.0
H601 H 0.246 0.53193 0.38015 0.0
H602 H 0.19523 0.54802 0.43225 0.0
H603 H 0.14182 0.54438 0.3825 0.0
H604 H 0.10687 0.45952 0.24955 0.0
H605 H 0.15703 0.4361 0.26317 0.0
C606 C 0.20831 0.46659 0.31112 0.0
C607 C 0.23192 0.48817 0.31336 0.0
C608 C 0.17851 0.47698 0.32812 0.0
C609 C 0.2278 0.51547 0.37254 0.0
C610 C 0.19851 0.5251 0.39916 0.0
C611 C 0.14475 0.52044 0.35967 0.0
C612 C 0.1208 0.50408 0.31154 0.0
C613 C 0.17364 0.50727 0.36667 0.0
C614 C 0.12524 0.47306 0.28263 0.0
C615 C 0.15381 0.4595 0.2919 0.0
H616 H 1.00621 0.84652 0.08749 0.0
H617 H 0.07505 0.77641 0.08927 0.0
H618 H 0.10527 0.80436 0.96622 0.0
H619 H 0.11694 0.85404 0.89294 0.0
H620 H 0.05007 0.92664 0.91865 0.0
H621 H 1.01435 0.89241 0.99191 0.0
C622 C 0.0274 0.83699 0.05809 0.0
C623 C 0.03882 0.81003 0.09861 0.0
C624 C 0.0454 0.85403 0.99316 0.0
C625 C 0.06594 0.79735 0.05924 0.0
C626 C 0.08342 0.81354 0.99008 0.0
C627 C 0.09449 0.86231 0.91368 0.0
C628 C 0.08679 0.8932 0.90134 0.0
C629 C 0.07425 0.84286 0.96228 0.0
C630 C 0.05706 0.9031 0.92557 0.0
C631 C 0.03643 0.88354 0.96906 0.0
H632 H 0.74225 0.04693 0.0181 0.0
H633 H 0.73713 0.12153 0.2452 0.0
H634 H 0.71095 0.15319 0.12059 0.0
H635 H 0.68041 0.15518 0.96222 0.0
H636 H 0.67974 0.0781 0.74501 0.0
H637 H 0.7179 0.05201 0.84774 0.0
C638 C 0.73627 0.07048 0.03847 0.0
C639 C 0.74133 0.08207 0.13984 0.0
C640 C 0.71998 0.08791 0.96811 0.0
C641 C 0.73327 0.11237 0.16709 0.0
C642 C 0.71822 0.13033 0.09618 0.0
C643 C 0.68975 0.13328 0.93554 0.0
C644 C 0.67782 0.11856 0.84629 0.0
C645 C 0.71015 0.11779 0.99844 0.0
C646 C 0.68916 0.08987 0.81282 0.0
C647 C 0.71063 0.07485 0.87235 0.0
H648 H 0.55097 0.75114 0.07534 0.0
H649 H 0.62507 0.72518 0.27086 0.0
H650 H 0.62623 0.6743 0.18664 0.0
H651 H 0.59314 0.63408 0.11097 0.0
H652 H 0.51368 0.66046 0.93883 0.0
H653 H 0.52832 0.71349 0.95535 0.0
C654 C 0.56862 0.73498 0.095 0.0
C655 C 0.58659 0.74098 0.18325 0.0
C656 C 0.56723 0.70504 0.05267 0.0
C657 C 0.61024 0.72051 0.20519 0.0
C658 C 0.61041 0.69112 0.15861 0.0
C659 C 0.57939 0.65138 0.07513 0.0
C660 C 0.55144 0.64327 0.02925 0.0
C661 C 0.5868 0.68237 0.09094 0.0
C662 C 0.53492 0.66575 0.97737 0.0
C663 C 0.54313 0.69641 0.98748 0.0
H664 H 0.82165 0.62518 0.15273 0.0
H665 H 0.76124 0.5619 0.9948 0.0
H666 H 0.79905 0.55083 0.86333 0.0
H667 H 0.85327 0.53903 0.85634 0.0
H668 H 0.9153 0.59176 0.04631 0.0
H669 H 0.87473 0.62682 0.09989 0.0
C670 C 0.81641 0.60998 0.08673 0.0
C671 C 0.7901 0.59198 0.08949 0.0
C672 C 0.83978 0.60066 0.01906 0.0
C673 C 0.78218 0.57466 0.99923 0.0
C674 C 0.80416 0.56779 0.92427 0.0
C675 C 0.8581 0.55958 0.90317 0.0
C676 C 0.88662 0.5625 0.95039 0.0
C677 C 0.83399 0.57742 0.94228 0.0
C678 C 0.89325 0.58906 1.0103 0.0
C679 C 0.86981 0.60872 0.04269 0.0
H680 H 1.01231 0.19492 0.05445 0.0
H681 H 0.06539 0.23227 0.81085 0.0
H682 H 0.05937 0.18453 0.70649 0.0
H683 H 0.04004 0.13076 0.68529 0.0
H684 H 0.98644 0.09446 0.92964 0.0
H685 H 0.99059 0.14298 0.02978 0.0
C686 C 0.02176 0.19305 0.97698 0.0
C687 C 0.03887 0.21778 0.94037 0.0
C688 C 0.01799 0.16542 0.91673 0.0
C689 C 0.05145 0.2143 0.84049 0.0
C690 C 0.04809 0.18678 0.78068 0.0
C691 C 0.02955 0.13341 0.76095 0.0
C692 C 1.01416 0.10819 0.80199 0.0
C693 C 0.03172 0.16193 0.8182 0.0
C694 C 0.99938 0.11284 0.89775 0.0
C695 C 1.00155 0.14079 0.95482 0.0
H696 H 0.3456 0.07263 0.85315 0.0
H697 H 0.35279 1.00992 0.10101 0.0
H698 H 0.40301 0.99361 0.03981 0.0
H699 H 0.44674 0.99955 0.92186 0.0
H700 H 0.43934 0.06143 0.67195 0.0
H701 H 0.38759 0.07499 0.72513 0.0
C702 C 0.35778 0.05467 0.89152 0.0
C703 C 0.34502 0.04195 0.98022 0.0
C704 C 0.38694 0.04548 0.85593 0.0
C705 C 0.36164 1.01944 0.03106 0.0
C706 C 0.39057 1.01036 0.99668 0.0
C707 C 0.43379 1.01613 0.87953 0.0
C708 C 0.44744 0.03052 0.79573 0.0
C709 C 0.40379 0.02366 0.91048 0.0
C710 C 0.42986 0.05091 0.739 0.0
C711 C 0.40007 0.05843 0.76886 0.0
H712 H 0.53891 0.33993 0.93435 0.0
H713 H 0.44649 0.32653 0.8374 0.0
H714 H 0.44802 0.37371 0.74107 0.0
H715 H 0.47393 0.4222 0.7013 0.0
H716 H 0.566 0.43574 0.80439 0.0
H717 H 0.56651 0.38555 0.87883 0.0
C718 C 0.51958 0.34665 0.8883 0.0
C719 C 0.4929 0.32907 0.89065 0.0
C720 C 0.52039 0.37442 0.83532 0.0
C721 C 0.46759 0.33898 0.83423 0.0
C722 C 0.46834 0.3663 0.7804 0.0
C723 C 0.49425 0.41399 0.73876 0.0
C724 C 0.51997 0.43312 0.74633 0.0
C725 C 0.49432 0.38477 0.78298 0.0
C726 C 0.54604 0.42175 0.79514 0.0
C727 C 0.54627 0.39292 0.83895 0.0
H728 H 0.2041 0.46337 0.94264 0.0
H729 H 0.22792 0.55865 0.94473 0.0
H730 H 0.18011 0.57033 0.8562 0.0
H731 H 0.12822 0.55413 0.8001 0.0
H732 H 0.10516 0.45846 0.80254 0.0
H733 H 0.15518 0.44654 0.86985 0.0
C734 C 0.19933 0.48658 0.92048 0.0
C735 C 0.21999 0.51002 0.94956 0.0
C736 C 0.17121 0.49324 0.87357 0.0
C737 C 0.213 0.54002 0.92165 0.0
C738 C 0.18527 0.54677 0.87268 0.0
C739 C 0.13428 0.53061 0.81305 0.0
C740 C 0.11233 0.50736 0.79678 0.0
C741 C 0.16366 0.52371 0.85152 0.0
C742 C 0.12092 0.47706 0.81606 0.0
C743 C 0.14982 0.4701 0.85387 0.0
H744 H 0.97509 0.85019 0.48145 0.0
H745 H 0.07112 0.83319 0.46158 0.0
H746 H 0.08118 0.88198 0.55349 0.0
H747 H 0.06312 0.93197 0.62603 0.0
H748 H 0.96761 0.94699 0.66987 0.0
H749 H 0.95685 0.89731 0.58187 0.0
C750 C 0.99816 0.85659 0.50089 0.0
C751 C 0.02232 0.8373 0.46607 0.0
C752 C 1.0039 0.88504 0.55534 0.0
C753 C 0.05206 0.84686 0.48943 0.0
C754 C 0.05786 0.87513 0.54079 0.0
C755 C 0.03993 0.9243 0.61728 0.0
C756 C 1.01612 0.94408 0.65028 0.0
C757 C 0.03405 0.89482 0.57182 0.0
C758 C 0.98633 0.93305 0.64097 0.0
C759 C 0.98021 0.90435 0.59162 0.0
H760 H 0.69315 0.07567 0.45889 0.0
H761 H 0.71963 0.98086 0.47529 0.0
H762 H 0.67598 0.97183 0.58715 0.0
H763 H 0.62753 0.99027 0.67107 0.0
H764 H 0.59925 0.08352 0.63117 0.0
H765 H 0.64557 0.0934 0.53563 0.0
C766 C 0.6894 0.05274 0.48488 0.0
C767 C 0.70992 0.02891 0.45572 0.0
C768 C 0.66339 0.04733 0.54454 0.0
C769 C 0.70475 0.99987 0.49582 0.0
C770 C 0.67947 0.9946 0.55934 0.0
C771 C 0.63161 1.01268 0.64111 0.0
C772 C 0.60961 0.03602 0.65674 0.0
C773 C 0.65824 1.01802 0.5828 0.0
C774 C 0.61545 0.06506 0.61872 0.0
C775 C 0.64201 0.07072 0.5641 0.0
H776 H 0.57013 0.72078 0.57481 0.0
H777 H 0.48304 0.72412 0.42511 0.0
H778 H 0.46877 0.67601 0.50333 0.0
H779 H 0.48412 0.62899 0.59517 0.0
H780 H 0.57159 0.62692 0.74458 0.0
H781 H 0.58235 0.67813 0.68736 0.0
C782 C 0.5476 0.71155 0.56234 0.0
C783 C 0.52758 0.72641 0.4949 0.0
C784 C 0.53978 0.68355 0.60636 0.0
C785 C 0.49869 0.71368 0.47816 0.0
C786 C 0.49069 0.68583 0.52188 0.0
C787 C 0.50516 0.64009 0.61759 0.0
C788 C 0.52715 0.6237 0.67331 0.0
C789 C 0.51144 0.66994 0.58345 0.0
C790 C 0.55436 0.63862 0.70086 0.0
C791 C 0.5606 0.66803 0.66795 0.0
H792 H 0.85488 0.54045 0.28606 0.0
H793 H 0.79956 0.54629 0.56072 0.0
H794 H 0.84473 0.53746 0.66785 0.0
H795 H 0.90167 0.53195 0.68442 0.0
H796 H 0.95519 0.53085 0.40487 0.0
H797 H 0.90951 0.53463 0.30051 0.0
C798 C 0.85245 0.54014 0.36951 0.0
C799 C 0.82346 0.54474 0.41439 0.0
C800 C 0.87866 0.53615 0.43067 0.0
C801 C 0.82126 0.54292 0.52294 0.0
C802 C 0.8473 0.53811 0.5846 0.0
C803 C 0.90323 0.53227 0.60066 0.0
C804 C 0.9322 0.5312 0.55302 0.0
C805 C 0.87638 0.53526 0.53966 0.0
C806 C 0.93354 0.5319 0.44421 0.0
C807 C 0.90728 0.53398 0.38403 0.0
loop_
_geom_bond_atom_site_label_1
_geom_bond_atom_site_label_2
_geom_bond_distance
_geom_bond_site_symmetry_2
_ccdc_geom_bond_type
H0 C3 0.929 . S
H1 C6 0.929 . S
H2 C8 0.930 . S
C3 H0 0.929 . S
C3 C4 1.398 . S
C3 C5 1.396 . S
C4 C3 1.398 . S
C4 C8 1.407 . S
C5 C3 1.396 . S
C5 C6 1.394 . S
C6 H1 0.929 . S
C6 C5 1.394 . S
C6 C7 1.382 . S
C7 C6 1.382 . S
C7 C8 1.392 . S
C7 N9 1.420 . S
C8 H2 0.930 . S
C8 C4 1.407 . S
C8 C7 1.392 . S
N9 C7 1.420 . S
N9 C10 1.244 . S
C10 N9 1.244 . S
H11 C14 0.929 . S
H12 C17 0.929 . S
H13 C19 0.930 . S
C14 H11 0.929 . S
C14 C15 1.398 . S
C14 C16 1.396 . S
C15 C14 1.398 . S
C15 C19 1.407 . S
C16 C14 1.396 . S
C16 C17 1.394 . S
C17 H12 0.929 . S
C17 C16 1.394 . S
C17 C18 1.382 . S
C18 C17 1.382 . S
C18 C19 1.392 . S
C18 N20 1.420 . S
C19 H13 0.930 . S
C19 C15 1.407 . S
C19 C18 1.392 . S
N20 C18 1.420 . S
N20 C21 1.244 . S
C21 N20 1.244 . S
H22 C25 0.929 . S
H23 C28 0.929 . S
H24 C30 0.930 . S
C25 H22 0.929 . S
C25 C26 1.398 . S
C25 C27 1.396 . S
C26 C25 1.398 . S
C26 C30 1.407 . S
C27 C25 1.396 . S
C27 C28 1.394 . S
C28 H23 0.929 . S
C28 C27 1.394 . S
C28 C29 1.382 . S
C29 C28 1.382 . S
C29 C30 1.392 . S
C29 N31 1.420 . S
C30 H24 0.930 . S
C30 C26 1.407 . S
C30 C29 1.392 . S
N31 C29 1.420 . S
N31 C32 1.244 . S
C32 N31 1.244 . S
H33 C36 0.929 . S
H34 C39 0.929 . S
H35 C41 0.930 . S
C36 H33 0.929 . S
C36 C37 1.398 . S
C36 C38 1.396 . S
C37 C36 1.398 . S
C37 C41 1.407 . S
C38 C36 1.396 . S
C38 C39 1.394 . S
C39 H34 0.929 . S
C39 C38 1.394 . S
C39 C40 1.382 . S
C40 C39 1.382 . S
C40 C41 1.392 . S
C40 N42 1.420 . S
C41 H35 0.930 . S
C41 C37 1.407 . S
C41 C40 1.392 . S
N42 C40 1.420 . S
N42 C43 1.244 . S
C43 N42 1.244 . S
H44 C47 0.929 . S
H45 C50 0.929 . S
H46 C52 0.930 . S
C47 H44 0.929 . S
C47 C48 1.398 . S
C47 C49 1.396 1_556 S
C48 C47 1.398 . S
C48 C52 1.407 . S
C49 C47 1.396 1_554 S
C49 C50 1.394 . S
C50 H45 0.929 . S
C50 C49 1.394 . S
C50 C51 1.382 . S
C51 C50 1.382 . S
C51 C52 1.392 1_554 S
C51 N53 1.420 . S
C52 H46 0.930 . S
C52 C48 1.407 . S
C52 C51 1.392 1_556 S
N53 C51 1.420 . S
N53 C54 1.244 . S
C54 N53 1.244 . S
H55 C58 0.929 . S
H56 C61 0.929 . S
H57 C63 0.930 . S
C58 H55 0.929 . S
C58 C59 1.398 . S
C58 C60 1.396 1_556 S
C59 C58 1.398 . S
C59 C63 1.407 . S
C60 C58 1.396 1_554 S
C60 C61 1.394 . S
C61 H56 0.929 . S
C61 C60 1.394 . S
C61 C62 1.382 . S
C62 C61 1.382 . S
C62 C63 1.392 1_554 S
C62 N64 1.420 . S
C63 H57 0.930 . S
C63 C59 1.407 . S
C63 C62 1.392 1_556 S
N64 C62 1.420 . S
N64 C65 1.244 . S
C65 N64 1.244 . S
H66 C69 0.929 . S
H67 C72 0.929 . S
H68 C74 0.930 . S
C69 H66 0.929 . S
C69 C70 1.398 . S
C69 C71 1.396 1_556 S
C70 C69 1.398 . S
C70 C74 1.407 . S
C71 C69 1.396 1_554 S
C71 C72 1.394 . S
C72 H67 0.929 . S
C72 C71 1.394 . S
C72 C73 1.382 . S
C73 C72 1.382 . S
C73 C74 1.392 1_554 S
C73 N75 1.420 . S
C74 H68 0.930 . S
C74 C70 1.407 . S
C74 C73 1.392 1_556 S
N75 C73 1.420 . S
N75 C76 1.244 . S
C76 N75 1.244 . S
H77 C80 0.929 . S
H78 C83 0.929 . S
H79 C85 0.930 . S
C80 H77 0.929 . S
C80 C81 1.398 . S
C80 C82 1.396 1_556 S
C81 C80 1.398 . S
C81 C85 1.407 . S
C82 C80 1.396 1_554 S
C82 C83 1.394 . S
C83 H78 0.929 . S
C83 C82 1.394 . S
C83 C84 1.382 . S
C84 C83 1.382 . S
C84 C85 1.392 1_554 S
C84 N86 1.420 . S
C85 H79 0.930 . S
C85 C81 1.407 . S
C85 C84 1.392 1_556 S
N86 C84 1.420 . S
N86 C87 1.244 . S
C87 N86 1.244 . S
Eu88 N119 2.657 1_565 S
Eu88 N126 2.609 1_565 S
Eu88 O132 2.558 . S
Eu88 O133 2.612 1_455 S
Eu88 O135 2.339 1_455 S
Eu88 O136 2.563 . S
Eu88 O137 2.419 . S
Eu88 O139 2.380 1_565 S
Eu88 O140 2.432 . S
Eu88 C152 2.848 . S
C89 C92 1.429 1_545 S
C89 C93 1.411 1_545 S
C89 N96 1.377 . S
C90 C92 1.420 . S
C90 C94 1.423 . S
C90 C102 1.392 . S
C91 C93 1.420 . S
C91 C94 1.351 . S
C91 H114 0.931 . S
C92 C89 1.429 1_565 S
C92 C90 1.420 . S
C92 N100 1.362 . S
C93 C89 1.411 1_565 S
C93 C91 1.420 . S
C93 C98 1.395 1_565 S
C94 C90 1.423 . S
C94 C91 1.351 . S
C94 H106 0.930 . S
C95 C97 1.400 . S
C95 C98 1.386 . S
C95 H107 0.930 . S
N96 C89 1.377 . S
N96 C97 1.321 . S
N96 Eu99 2.609 . S
C97 C95 1.400 . S
C97 N96 1.321 . S
C97 H104 0.930 . S
C98 C93 1.395 1_545 S
C98 C95 1.386 . S
C98 H117 0.930 . S
Eu99 N96 2.609 . S
Eu99 N100 2.657 1_545 S
Eu99 O133 2.380 1_545 S
Eu99 O134 2.432 . S
Eu99 O138 2.558 . S
Eu99 O139 2.612 1_655 S
Eu99 O141 2.339 1_655 S
Eu99 O142 2.563 1_655 S
Eu99 O143 2.419 . S
Eu99 C163 2.848 . S
N100 C92 1.362 . S
N100 Eu99 2.657 1_565 S
N100 C101 1.334 1_655 S
C101 N100 1.334 1_455 S
C101 C103 1.413 . S
C101 H108 0.929 . S
C102 C90 1.392 . S
C102 C103 1.367 1_655 S
C102 H110 0.930 . S
C103 C101 1.413 . S
C103 C102 1.367 1_455 S
C103 H105 0.930 . S
H104 C97 0.930 . S
H105 C103 0.930 . S
H106 C94 0.930 . S
H107 C95 0.930 . S
H108 C101 0.929 . S
H109 C123 0.930 1_655 S
H110 C102 0.930 . S
H111 C129 0.930 . S
H112 C120 0.929 1_655 S
H113 C127 0.930 . S
H114 C91 0.931 . S
H115 C121 0.930 . S
H116 C154 0.930 . S
H117 C98 0.930 . S
H118 C153 0.931 . S
N119 Eu88 2.657 1_545 S
N119 C120 1.334 . S
N119 C124 1.362 . S
C120 H112 0.929 1_455 S
C120 N119 1.334 . S
C120 C123 1.413 1_556 S
C121 H115 0.930 . S
C121 C122 1.392 . S
C121 C123 1.367 . S
C122 C121 1.392 . S
C122 C124 1.420 1_554 S
C122 C154 1.423 . S
C123 H109 0.930 1_455 S
C123 C120 1.413 1_554 S
C123 C121 1.367 . S
C124 N119 1.362 . S
C124 C122 1.420 1_556 S
C124 C128 1.429 . S
H125 C130 0.930 . S
N126 Eu88 2.609 1_545 S
N126 C128 1.377 . S
N126 C129 1.321 1_545 S
C127 H113 0.930 . S
C127 C129 1.400 . S
C127 C130 1.386 1_565 S
C128 C124 1.429 . S
C128 N126 1.377 . S
C128 C131 1.411 . S
C129 H111 0.930 . S
C129 N126 1.321 1_565 S
C129 C127 1.400 . S
C130 H125 0.930 . S
C130 C127 1.386 1_545 S
C130 C131 1.395 . S
C131 C128 1.411 . S
C131 C130 1.395 . S
C131 C153 1.420 1_556 S
O132 Eu88 2.558 . S
O132 C152 1.257 . S
O133 Eu88 2.612 1_655 S
O133 Eu99 2.380 1_565 S
O133 C144 1.276 . S
O134 Eu99 2.432 . S
O134 C151 1.264 . S
O135 Eu88 2.339 1_655 S
O135 C151 1.254 1_565 S
O136 Eu88 2.563 . S
O136 C144 1.235 1_455 S
O137 Eu88 2.419 . S
O137 C152 1.249 . S
O138 Eu99 2.558 . S
O138 C163 1.257 . S
O139 Eu88 2.380 1_545 S
O139 Eu99 2.612 1_455 S
O139 C155 1.276 . S
O140 Eu88 2.432 . S
O140 C162 1.264 1_565 S
O141 Eu99 2.339 1_455 S
O141 C162 1.254 . S
O142 Eu99 2.563 1_455 S
O142 C155 1.235 . S
O143 Eu99 2.419 . S
O143 C163 1.249 . S
C144 O133 1.276 . S
C144 O136 1.235 1_655 S
C145 C147 1.393 1_556 S
C145 C149 1.395 . S
C145 C152 1.492 . S
C146 C147 1.392 . S
C146 C148 1.386 . S
C147 C145 1.393 1_554 S
C147 C146 1.392 . S
C147 H164 0.930 1_554 S
C148 C146 1.386 . S
C148 C150 1.395 . S
C148 H165 0.930 . S
C149 C145 1.395 . S
C149 C150 1.379 1_556 S
C149 H166 0.930 . S
C150 C148 1.395 . S
C150 C149 1.379 1_554 S
C150 H167 0.930 . S
C151 O134 1.264 . S
C151 O135 1.254 1_545 S
C152 Eu88 2.848 . S
C152 O132 1.257 . S
C152 O137 1.249 . S
C152 C145 1.492 . S
C153 H118 0.931 . S
C153 C131 1.420 1_554 S
C153 C154 1.351 . S
C154 H116 0.930 . S
C154 C122 1.423 . S
C154 C153 1.351 . S
C155 O139 1.276 . S
C155 O142 1.235 . S
C156 C157 1.393 . S
C156 C160 1.395 . S
C156 C163 1.492 . S
C157 C156 1.393 . S
C157 C158 1.392 . S
C157 H168 0.930 1_655 S
C158 C157 1.392 . S
C158 C159 1.386 . S
C159 C158 1.386 . S
C159 C161 1.395 . S
C159 H169 0.930 . S
C160 C156 1.395 . S
C160 C161 1.379 . S
C160 H170 0.930 . S
C161 C159 1.395 . S
C161 C160 1.379 . S
C161 H171 0.930 . S
C162 O140 1.264 1_545 S
C162 O141 1.254 . S
C163 Eu99 2.848 . S
C163 O138 1.257 . S
C163 O143 1.249 . S
C163 C156 1.492 . S
H164 C147 0.930 1_556 S
H165 C148 0.930 . S
H166 C149 0.930 . S
H167 C150 0.930 . S
H168 C157 0.930 1_455 S
H169 C159 0.930 . S
H170 C160 0.930 . S
H171 C161 0.930 . S
Eu172 N203 2.657 . S
Eu172 N210 2.609 . S
Eu172 O216 2.558 . S
Eu172 O217 2.612 1_545 S
Eu172 O219 2.339 1_545 S
Eu172 O220 2.563 . S
Eu172 O221 2.419 . S
Eu172 O223 2.380 . S
Eu172 O224 2.432 . S
Eu172 C236 2.848 . S
C173 C176 1.429 . S
C173 C177 1.411 . S
C173 N180 1.377 . S
C174 C176 1.420 . S
C174 C178 1.423 . S
C174 C186 1.392 . S
C175 C177 1.420 . S
C175 C178 1.351 . S
C175 H198 0.931 . S
C176 C173 1.429 . S
C176 C174 1.420 . S
C176 N184 1.362 . S
C177 C173 1.411 . S
C177 C175 1.420 . S
C177 C182 1.395 . S
C178 C174 1.423 . S
C178 C175 1.351 . S
C178 H190 0.930 . S
C179 C181 1.400 . S
C179 C182 1.386 . S
C179 H191 0.930 . S
N180 C173 1.377 . S
N180 C181 1.321 . S
N180 Eu183 2.609 . S
C181 C179 1.400 . S
C181 N180 1.321 . S
C181 H188 0.930 . S
C182 C177 1.395 . S
C182 C179 1.386 . S
C182 H201 0.930 . S
Eu183 N180 2.609 . S
Eu183 N184 2.657 . S
Eu183 O217 2.380 . S
Eu183 O218 2.432 . S
Eu183 O222 2.558 . S
Eu183 O223 2.612 1_565 S
Eu183 O225 2.339 1_565 S
Eu183 O226 2.563 1_565 S
Eu183 O227 2.419 . S
Eu183 C247 2.848 . S
N184 C176 1.362 . S
N184 Eu183 2.657 . S
N184 C185 1.334 1_565 S
C185 N184 1.334 1_545 S
C185 C187 1.413 . S
C185 H192 0.929 . S
C186 C174 1.392 . S
C186 C187 1.367 1_565 S
C186 H194 0.930 . S
C187 C185 1.413 . S
C187 C186 1.367 1_545 S
C187 H189 0.930 . S
H188 C181 0.930 . S
H189 C187 0.930 . S
H190 C178 0.930 . S
H191 C179 0.930 . S
H192 C185 0.929 . S
H193 C207 0.930 1_565 S
H194 C186 0.930 . S
H195 C213 0.930 . S
H196 C204 0.929 1_565 S
H197 C211 0.930 . S
H198 C175 0.931 . S
H199 C205 0.930 . S
H200 C238 0.930 . S
H201 C182 0.930 . S
H202 C237 0.931 . S
N203 Eu172 2.657 . S
N203 C204 1.334 . S
N203 C208 1.362 . S
C204 H196 0.929 1_545 S
C204 N203 1.334 . S
C204 C207 1.413 1_556 S
C205 H199 0.930 . S
C205 C206 1.392 . S
C205 C207 1.367 . S
C206 C205 1.392 . S
C206 C208 1.420 1_554 S
C206 C238 1.423 . S
C207 H193 0.930 1_545 S
C207 C204 1.413 1_554 S
C207 C205 1.367 . S
C208 N203 1.362 . S
C208 C206 1.420 1_556 S
C208 C212 1.429 . S
H209 C214 0.930 . S
N210 Eu172 2.609 . S
N210 C212 1.377 . S
N210 C213 1.321 . S
C211 H197 0.930 . S
C211 C213 1.400 . S
C211 C214 1.386 . S
C212 C208 1.429 . S
C212 N210 1.377 . S
C212 C215 1.411 . S
C213 H195 0.930 . S
C213 N210 1.321 . S
C213 C211 1.400 . S
C214 H209 0.930 . S
C214 C211 1.386 . S
C214 C215 1.395 . S
C215 C212 1.411 . S
C215 C214 1.395 . S
C215 C237 1.420 1_556 S
O216 Eu172 2.558 . S
O216 C236 1.257 . S
O217 Eu172 2.612 1_565 S
O217 Eu183 2.380 . S
O217 C228 1.276 . S
O218 Eu183 2.432 . S
O218 C235 1.264 . S
O219 Eu172 2.339 1_565 S
O219 C235 1.254 . S
O220 Eu172 2.563 . S
O220 C228 1.235 1_545 S
O221 Eu172 2.419 . S
O221 C236 1.249 . S
O222 Eu183 2.558 . S
O222 C247 1.257 . S
O223 Eu172 2.380 . S
O223 Eu183 2.612 1_545 S
O223 C239 1.276 . S
O224 Eu172 2.432 . S
O224 C246 1.264 . S
O225 Eu183 2.339 1_545 S
O225 C246 1.254 . S
O226 Eu183 2.563 1_545 S
O226 C239 1.235 . S
O227 Eu183 2.419 . S
O227 C247 1.249 . S
C228 O217 1.276 . S
C228 O220 1.235 1_565 S
C229 C231 1.393 1_556 S
C229 C233 1.395 . S
C229 C236 1.492 . S
C230 C231 1.392 . S
C230 C232 1.386 . S
C231 C229 1.393 1_554 S
C231 C230 1.392 . S
C231 H248 0.929 1_554 S
C232 C230 1.386 . S
C232 C234 1.395 . S
C232 H249 0.930 . S
C233 C229 1.395 . S
C233 C234 1.379 1_556 S
C233 H250 0.930 . S
C234 C232 1.395 . S
C234 C233 1.379 1_554 S
C234 H251 0.930 . S
C235 O218 1.264 . S
C235 O219 1.254 . S
C236 Eu172 2.848 . S
C236 O216 1.257 . S
C236 O221 1.249 . S
C236 C229 1.492 . S
C237 H202 0.931 . S
C237 C215 1.420 1_554 S
C237 C238 1.351 . S
C238 H200 0.930 . S
C238 C206 1.423 . S
C238 C237 1.351 . S
C239 O223 1.276 . S
C239 O226 1.235 . S
C240 C241 1.393 . S
C240 C244 1.395 . S
C240 C247 1.492 . S
C241 C240 1.393 . S
C241 C242 1.392 . S
C241 H252 0.930 1_565 S
C242 C241 1.392 . S
C242 C243 1.386 . S
C243 C242 1.386 . S
C243 C245 1.395 . S
C243 H253 0.930 . S
C244 C240 1.395 . S
C244 C245 1.379 . S
C244 H254 0.930 . S
C245 C243 1.395 . S
C245 C244 1.379 . S
C245 H255 0.930 . S
C246 O224 1.264 . S
C246 O225 1.254 . S
C247 Eu183 2.848 . S
C247 O222 1.257 . S
C247 O227 1.249 . S
C247 C240 1.492 . S
H248 C231 0.929 1_556 S
H249 C232 0.930 . S
H250 C233 0.930 . S
H251 C234 0.930 . S
H252 C241 0.930 1_545 S
H253 C243 0.930 . S
H254 C244 0.930 . S
H255 C245 0.930 . S
Eu256 N287 2.657 . S
Eu256 N294 2.609 . S
Eu256 O300 2.558 . S
Eu256 O301 2.612 . S
Eu256 O303 2.339 . S
Eu256 O304 2.563 . S
Eu256 O305 2.419 . S
Eu256 O307 2.380 . S
Eu256 O308 2.432 . S
Eu256 C320 2.848 . S
C257 C260 1.429 . S
C257 C261 1.411 . S
C257 N264 1.377 . S
C258 C260 1.420 . S
C258 C262 1.423 . S
C258 C270 1.392 . S
C259 C261 1.420 . S
C259 C262 1.351 . S
C259 H282 0.931 . S
C260 C257 1.429 . S
C260 C258 1.420 . S
C260 N268 1.362 . S
C261 C257 1.411 . S
C261 C259 1.420 . S
C261 C266 1.395 . S
C262 C258 1.423 . S
C262 C259 1.351 . S
C262 H274 0.930 . S
C263 C265 1.400 . S
C263 C266 1.386 . S
C263 H275 0.930 1_556 S
N264 C257 1.377 . S
N264 C265 1.321 . S
N264 Eu267 2.609 . S
C265 C263 1.400 . S
C265 N264 1.321 . S
C265 H272 0.930 . S
C266 C261 1.395 . S
C266 C263 1.386 . S
C266 H285 0.930 . S
Eu267 N264 2.609 . S
Eu267 N268 2.657 . S
Eu267 O301 2.380 . S
Eu267 O302 2.432 . S
Eu267 O306 2.558 . S
Eu267 O307 2.612 . S
Eu267 O309 2.339 . S
Eu267 O310 2.563 . S
Eu267 O311 2.419 . S
Eu267 C331 2.848 . S
N268 C260 1.362 . S
N268 Eu267 2.657 . S
N268 C269 1.334 . S
C269 N268 1.334 . S
C269 C271 1.413 . S
C269 H276 0.929 . S
C270 C258 1.392 . S
C270 C271 1.367 . S
C270 H278 0.930 . S
C271 C269 1.413 . S
C271 C270 1.367 . S
C271 H273 0.930 . S
H272 C265 0.930 . S
H273 C271 0.930 . S
H274 C262 0.930 . S
H275 C263 0.930 1_554 S
H276 C269 0.929 . S
H277 C291 0.930 . S
H278 C270 0.930 . S
H279 C297 0.930 . S
H280 C288 0.929 . S
H281 C295 0.930 . S
H282 C259 0.931 . S
H283 C289 0.930 . S
H284 C322 0.930 . S
H285 C266 0.930 . S
H286 C321 0.931 . S
N287 Eu256 2.657 . S
N287 C288 1.334 . S
N287 C292 1.362 . S
C288 H280 0.929 . S
C288 N287 1.334 . S
C288 C291 1.413 . S
C289 H283 0.930 . S
C289 C290 1.392 . S
C289 C291 1.367 . S
C290 C289 1.392 . S
C290 C292 1.420 . S
C290 C322 1.423 . S
C291 H277 0.930 . S
C291 C288 1.413 . S
C291 C289 1.367 . S
C292 N287 1.362 . S
C292 C290 1.420 . S
C292 C296 1.429 . S
H293 C298 0.930 . S
N294 Eu256 2.609 . S
N294 C296 1.377 . S
N294 C297 1.321 . S
C295 H281 0.930 . S
C295 C297 1.400 . S
C295 C298 1.386 . S
C296 C292 1.429 . S
C296 N294 1.377 . S
C296 C299 1.411 . S
C297 H279 0.930 . S
C297 N294 1.321 . S
C297 C295 1.400 . S
C298 H293 0.930 . S
C298 C295 1.386 . S
C298 C299 1.395 . S
C299 C296 1.411 . S
C299 C298 1.395 . S
C299 C321 1.420 . S
O300 Eu256 2.558 . S
O300 C320 1.257 . S
O301 Eu256 2.612 . S
O301 Eu267 2.380 . S
O301 C312 1.276 . S
O302 Eu267 2.432 . S
O302 C319 1.264 . S
O303 Eu256 2.339 . S
O303 C319 1.254 . S
O304 Eu256 2.563 . S
O304 C312 1.235 . S
O305 Eu256 2.419 . S
O305 C320 1.249 . S
O306 Eu267 2.558 . S
O306 C331 1.257 . S
O307 Eu256 2.380 . S
O307 Eu267 2.612 . S
O307 C323 1.276 . S
O308 Eu256 2.432 . S
O308 C330 1.264 . S
O309 Eu267 2.339 . S
O309 C330 1.254 . S
O310 Eu267 2.563 . S
O310 C323 1.235 . S
O311 Eu267 2.419 . S
O311 C331 1.249 . S
C312 O301 1.276 . S
C312 O304 1.235 . S
C313 C315 1.393 . S
C313 C317 1.395 . S
C313 C320 1.492 . S
C314 C315 1.392 . S
C314 C316 1.386 . S
C315 C313 1.393 . S
C315 C314 1.392 . S
C315 H332 0.930 . S
C316 C314 1.386 . S
C316 C318 1.395 . S
C316 H333 0.930 . S
C317 C313 1.395 . S
C317 C318 1.379 . S
C317 H334 0.930 . S
C318 C316 1.395 . S
C318 C317 1.379 . S
C318 H335 0.930 . S
C319 O302 1.264 . S
C319 O303 1.254 . S
C320 Eu256 2.848 . S
C320 O300 1.257 . S
C320 O305 1.249 . S
C320 C313 1.492 . S
C321 H286 0.931 . S
C321 C299 1.420 . S
C321 C322 1.351 . S
C322 H284 0.930 . S
C322 C290 1.423 . S
C322 C321 1.351 . S
C323 O307 1.276 . S
C323 O310 1.235 . S
C324 C325 1.393 . S
C324 C328 1.395 . S
C324 C331 1.492 1_554 S
C325 C324 1.393 . S
C325 C326 1.392 . S
C325 H336 0.930 1_554 S
C326 C325 1.392 . S
C326 C327 1.386 . S
C327 C326 1.386 . S
C327 C329 1.395 . S
C327 H337 0.930 . S
C328 C324 1.395 . S
C328 C329 1.379 . S
C328 H338 0.930 . S
C329 C327 1.395 . S
C329 C328 1.379 . S
C329 H339 0.930 . S
C330 O308 1.264 . S
C330 O309 1.254 . S
C331 Eu267 2.848 . S
C331 O306 1.257 . S
C331 O311 1.249 . S
C331 C324 1.492 1_556 S
H332 C315 0.930 . S
H333 C316 0.930 . S
H334 C317 0.930 . S
H335 C318 0.930 . S
H336 C325 0.930 1_556 S
H337 C327 0.930 . S
H338 C328 0.930 . S
H339 C329 0.930 . S
Eu340 N371 2.657 . S
Eu340 N378 2.609 . S
Eu340 O384 2.558 . S
Eu340 O385 2.612 . S
Eu340 O387 2.339 . S
Eu340 O388 2.563 . S
Eu340 O389 2.419 . S
Eu340 O391 2.380 . S
Eu340 O392 2.432 1_455 S
Eu340 C404 2.848 . S
C341 C344 1.429 . S
C341 C345 1.411 . S
C341 N348 1.377 . S
C342 C344 1.420 . S
C342 C346 1.423 . S
C342 C354 1.392 . S
C343 C345 1.420 . S
C343 C346 1.351 . S
C343 H366 0.931 . S
C344 C341 1.429 . S
C344 C342 1.420 . S
C344 N352 1.362 . S
C345 C341 1.411 . S
C345 C343 1.420 . S
C345 C350 1.395 1_655 S
C346 C342 1.423 . S
C346 C343 1.351 . S
C346 H358 0.930 . S
C347 C349 1.400 . S
C347 C350 1.386 . S
C347 H359 0.930 1_556 S
N348 C341 1.377 . S
N348 C349 1.321 1_655 S
N348 Eu351 2.609 . S
C349 C347 1.400 . S
C349 N348 1.321 1_455 S
C349 H356 0.930 . S
C350 C345 1.395 1_455 S
C350 C347 1.386 . S
C350 H369 0.930 . S
Eu351 N348 2.609 . S
Eu351 N352 2.657 . S
Eu351 O385 2.380 1_655 S
Eu351 O386 2.432 1_655 S
Eu351 O390 2.558 . S
Eu351 O391 2.612 1_655 S
Eu351 O393 2.339 . S
Eu351 O394 2.563 . S
Eu351 O395 2.419 . S
Eu351 C415 2.848 . S
N352 C344 1.362 . S
N352 Eu351 2.657 . S
N352 C353 1.334 . S
C353 N352 1.334 . S
C353 C355 1.413 . S
C353 H360 0.929 . S
C354 C342 1.392 . S
C354 C355 1.367 . S
C354 H362 0.930 . S
C355 C353 1.413 . S
C355 C354 1.367 . S
C355 H357 0.930 . S
H356 C349 0.930 . S
H357 C355 0.930 . S
H358 C346 0.930 . S
H359 C347 0.930 1_554 S
H360 C353 0.929 . S
H361 C375 0.930 . S
H362 C354 0.930 . S
H363 C381 0.930 . S
H364 C372 0.929 . S
H365 C379 0.930 . S
H366 C343 0.931 . S
H367 C373 0.930 . S
H368 C406 0.930 . S
H369 C350 0.930 . S
H370 C405 0.931 . S
N371 Eu340 2.657 . S
N371 C372 1.334 . S
N371 C376 1.362 . S
C372 H364 0.929 . S
C372 N371 1.334 . S
C372 C375 1.413 . S
C373 H367 0.930 . S
C373 C374 1.392 . S
C373 C375 1.367 . S
C374 C373 1.392 . S
C374 C376 1.420 . S
C374 C406 1.423 . S
C375 H361 0.930 . S
C375 C372 1.413 . S
C375 C373 1.367 . S
C376 N371 1.362 . S
C376 C374 1.420 . S
C376 C380 1.429 . S
H377 C382 0.930 . S
N378 Eu340 2.609 . S
N378 C380 1.377 . S
N378 C381 1.321 1_455 S
C379 H365 0.930 . S
C379 C381 1.400 . S
C379 C382 1.386 1_655 S
C380 C376 1.429 . S
C380 N378 1.377 . S
C380 C383 1.411 . S
C381 H363 0.930 . S
C381 N378 1.321 1_655 S
C381 C379 1.400 . S
C382 H377 0.930 . S
C382 C379 1.386 1_455 S
C382 C383 1.395 . S
C383 C380 1.411 . S
C383 C382 1.395 . S
C383 C405 1.420 . S
O384 Eu340 2.558 . S
O384 C404 1.257 . S
O385 Eu340 2.612 . S
O385 Eu351 2.380 1_455 S
O385 C396 1.276 . S
O386 Eu351 2.432 1_455 S
O386 C403 1.264 . S
O387 Eu340 2.339 . S
O387 C403 1.254 . S
O388 Eu340 2.563 . S
O388 C396 1.235 . S
O389 Eu340 2.419 . S
O389 C404 1.249 . S
O390 Eu351 2.558 . S
O390 C415 1.257 . S
O391 Eu340 2.380 . S
O391 Eu351 2.612 1_455 S
O391 C407 1.276 1_455 S
O392 Eu340 2.432 1_655 S
O392 C414 1.264 . S
O393 Eu351 2.339 . S
O393 C414 1.254 . S
O394 Eu351 2.563 . S
O394 C407 1.235 . S
O395 Eu351 2.419 . S
O395 C415 1.249 . S
C396 O385 1.276 . S
C396 O388 1.235 . S
C397 C399 1.393 . S
C397 C401 1.395 . S
C397 C404 1.492 . S
C398 C399 1.392 . S
C398 C400 1.386 . S
C399 C397 1.393 . S
C399 C398 1.392 . S
C399 H416 0.930 . S
C400 C398 1.386 . S
C400 C402 1.395 . S
C400 H417 0.930 . S
C401 C397 1.395 . S
C401 C402 1.379 . S
C401 H418 0.930 . S
C402 C400 1.395 . S
C402 C401 1.379 . S
C402 H419 0.930 . S
C403 O386 1.264 . S
C403 O387 1.254 . S
C404 Eu340 2.848 . S
C404 O384 1.257 . S
C404 O389 1.249 . S
C404 C397 1.492 . S
C405 H370 0.931 . S
C405 C383 1.420 . S
C405 C406 1.351 . S
C406 H368 0.930 . S
C406 C374 1.423 . S
C406 C405 1.351 . S
C407 O391 1.276 1_655 S
C407 O394 1.235 . S
C408 C409 1.393 . S
C408 C412 1.395 . S
C408 C415 1.492 1_554 S
C409 C408 1.393 . S
C409 C410 1.392 . S
C409 H420 0.930 1_554 S
C410 C409 1.392 . S
C410 C411 1.386 . S
C411 C410 1.386 . S
C411 C413 1.395 . S
C411 H421 0.930 . S
C412 C408 1.395 . S
C412 C413 1.379 . S
C412 H422 0.930 . S
C413 C411 1.395 . S
C413 C412 1.379 . S
C413 H423 0.930 . S
C414 O392 1.264 . S
C414 O393 1.254 . S
C415 Eu351 2.848 . S
C415 O390 1.257 . S
C415 O395 1.249 . S
C415 C408 1.492 1_556 S
H416 C399 0.930 . S
H417 C400 0.930 . S
H418 C401 0.930 . S
H419 C402 0.930 . S
H420 C409 0.930 1_556 S
H421 C411 0.930 . S
H422 C412 0.930 . S
H423 C413 0.930 . S
H424 C430 0.930 . S
H425 C433 0.930 . S
H426 C434 0.930 . S
H427 C435 0.930 . S
H428 C438 0.930 1_565 S
H429 C439 0.930 . S
C430 H424 0.930 . S
C430 C431 1.355 . S
C430 C432 1.415 . S
C431 C430 1.355 . S
C431 C433 1.419 . S
C432 C430 1.415 . S
C432 C437 1.425 . S
C432 C439 1.409 . S
C433 H425 0.930 . S
C433 C431 1.419 . S
C433 C434 1.362 . S
C434 H426 0.930 . S
C434 C433 1.362 . S
C434 C437 1.409 . S
C435 H427 0.930 . S
C435 C436 1.355 . S
C435 C437 1.415 . S
C436 C435 1.355 . S
C436 C438 1.419 . S
C437 C432 1.425 . S
C437 C434 1.409 . S
C437 C435 1.415 . S
C438 H428 0.930 1_545 S
C438 C436 1.419 . S
C438 C439 1.362 . S
C439 H429 0.930 . S
C439 C432 1.409 . S
C439 C438 1.362 . S
H440 C446 0.930 . S
H441 C449 0.930 . S
H442 C450 0.930 . S
H443 C451 0.930 . S
H444 C454 0.930 . S
H445 C455 0.930 . S
C446 H440 0.930 . S
C446 C447 1.355 . S
C446 C448 1.415 . S
C447 C446 1.355 . S
C447 C449 1.419 . S
C448 C446 1.415 . S
C448 C453 1.425 . S
C448 C455 1.409 . S
C449 H441 0.930 . S
C449 C447 1.419 . S
C449 C450 1.362 . S
C450 H442 0.930 . S
C450 C449 1.362 . S
C450 C453 1.409 . S
C451 H443 0.930 . S
C451 C452 1.355 . S
C451 C453 1.415 . S
C452 C451 1.355 . S
C452 C454 1.419 . S
C453 C448 1.425 . S
C453 C450 1.409 . S
C453 C451 1.415 . S
C454 H444 0.930 . S
C454 C452 1.419 . S
C454 C455 1.362 . S
C455 H445 0.930 . S
C455 C448 1.409 . S
C455 C454 1.362 . S
H456 C462 0.930 . S
H457 C465 0.930 . S
H458 C466 0.930 . S
H459 C467 0.930 . S
H460 C470 0.930 . S
H461 C471 0.930 . S
C462 H456 0.930 . S
C462 C463 1.355 . S
C462 C464 1.415 . S
C463 C462 1.355 . S
C463 C465 1.419 . S
C464 C462 1.415 . S
C464 C469 1.425 . S
C464 C471 1.409 . S
C465 H457 0.930 . S
C465 C463 1.419 . S
C465 C466 1.362 . S
C466 H458 0.930 . S
C466 C465 1.362 . S
C466 C469 1.409 . S
C467 H459 0.930 . S
C467 C468 1.355 . S
C467 C469 1.415 . S
C468 C467 1.355 . S
C468 C470 1.419 . S
C469 C464 1.425 . S
C469 C466 1.409 . S
C469 C467 1.415 . S
C470 H460 0.930 . S
C470 C468 1.419 . S
C470 C471 1.362 . S
C471 H461 0.930 . S
C471 C464 1.409 . S
C471 C470 1.362 . S
H472 C478 0.930 . S
H473 C481 0.930 . S
H474 C482 0.930 . S
H475 C483 0.930 . S
H476 C486 0.930 . S
H477 C487 0.930 . S
C478 H472 0.930 . S
C478 C479 1.355 . S
C478 C480 1.415 . S
C479 C478 1.355 . S
C479 C481 1.419 . S
C480 C478 1.415 . S
C480 C485 1.425 . S
C480 C487 1.409 . S
C481 H473 0.930 . S
C481 C479 1.419 . S
C481 C482 1.362 . S
C482 H474 0.930 . S
C482 C481 1.362 . S
C482 C485 1.409 . S
C483 H475 0.930 . S
C483 C484 1.355 . S
C483 C485 1.415 . S
C484 C483 1.355 . S
C484 C486 1.419 . S
C485 C480 1.425 . S
C485 C482 1.409 . S
C485 C483 1.415 . S
C486 H476 0.930 . S
C486 C484 1.419 . S
C486 C487 1.362 . S
C487 H477 0.930 . S
C487 C480 1.409 . S
C487 C486 1.362 . S
H488 C494 0.930 . S
H489 C497 0.930 . S
H490 C498 0.930 1_546 S
H491 C499 0.930 1_545 S
H492 C502 0.930 . S
H493 C503 0.930 . S
C494 H488 0.930 . S
C494 C495 1.355 . S
C494 C496 1.415 . S
C495 C494 1.355 . S
C495 C497 1.419 . S
C496 C494 1.415 . S
C496 C501 1.425 . S
C496 C503 1.409 . S
C497 H489 0.930 . S
C497 C495 1.419 . S
C497 C498 1.362 . S
C498 H490 0.930 1_564 S
C498 C497 1.362 . S
C498 C501 1.409 . S
C499 H491 0.930 1_565 S
C499 C500 1.355 . S
C499 C501 1.415 1_556 S
C500 C499 1.355 . S
C500 C502 1.419 . S
C501 C496 1.425 . S
C501 C498 1.409 . S
C501 C499 1.415 1_554 S
C502 H492 0.930 . S
C502 C500 1.419 . S
C502 C503 1.362 1_556 S
C503 H493 0.930 . S
C503 C496 1.409 . S
C503 C502 1.362 1_554 S
H504 C510 0.930 . S
H505 C513 0.930 . S
H506 C514 0.930 1_556 S
H507 C515 0.930 . S
H508 C518 0.930 . S
H509 C519 0.930 . S
C510 H504 0.930 . S
C510 C511 1.355 . S
C510 C512 1.415 . S
C511 C510 1.355 . S
C511 C513 1.419 . S
C512 C510 1.415 . S
C512 C517 1.425 . S
C512 C519 1.409 . S
C513 H505 0.930 . S
C513 C511 1.419 . S
C513 C514 1.362 . S
C514 H506 0.930 1_554 S
C514 C513 1.362 . S
C514 C517 1.409 . S
C515 H507 0.930 . S
C515 C516 1.355 . S
C515 C517 1.415 1_556 S
C516 C515 1.355 . S
C516 C518 1.419 . S
C517 C512 1.425 . S
C517 C514 1.409 . S
C517 C515 1.415 1_554 S
C518 H508 0.930 . S
C518 C516 1.419 . S
C518 C519 1.362 1_556 S
C519 H509 0.930 . S
C519 C512 1.409 . S
C519 C518 1.362 1_554 S
H520 C526 0.930 . S
H521 C529 0.930 . S
H522 C530 0.930 1_556 S
H523 C531 0.930 . S
H524 C534 0.930 . S
H525 C535 0.930 . S
C526 H520 0.930 . S
C526 C527 1.355 . S
C526 C528 1.415 . S
C527 C526 1.355 . S
C527 C529 1.419 . S
C528 C526 1.415 . S
C528 C533 1.425 . S
C528 C535 1.409 . S
C529 H521 0.930 . S
C529 C527 1.419 . S
C529 C530 1.362 . S
C530 H522 0.930 1_554 S
C530 C529 1.362 . S
C530 C533 1.409 . S
C531 H523 0.930 . S
C531 C532 1.355 . S
C531 C533 1.415 1_556 S
C532 C531 1.355 . S
C532 C534 1.419 . S
C533 C528 1.425 . S
C533 C530 1.409 . S
C533 C531 1.415 1_554 S
C534 H524 0.930 . S
C534 C532 1.419 . S
C534 C535 1.362 1_556 S
C535 H525 0.930 . S
C535 C528 1.409 . S
C535 C534 1.362 1_554 S
H536 C542 0.930 . S
H537 C545 0.930 . S
H538 C546 0.930 . S
H539 C547 0.930 . S
H540 C550 0.930 . S
H541 C551 0.930 1_455 S
C542 H536 0.930 . S
C542 C543 1.355 . S
C542 C544 1.415 . S
C543 C542 1.355 . S
C543 C545 1.419 . S
C544 C542 1.415 . S
C544 C549 1.425 . S
C544 C551 1.409 1_554 S
C545 H537 0.930 . S
C545 C543 1.419 . S
C545 C546 1.362 . S
C546 H538 0.930 . S
C546 C545 1.362 . S
C546 C549 1.409 . S
C547 H539 0.930 . S
C547 C548 1.355 . S
C547 C549 1.415 1_556 S
C548 C547 1.355 . S
C548 C550 1.419 1_655 S
C549 C544 1.425 . S
C549 C546 1.409 . S
C549 C547 1.415 1_554 S
C550 H540 0.930 . S
C550 C548 1.419 1_455 S
C550 C551 1.362 1_455 S
C551 H541 0.930 1_655 S
C551 C544 1.409 1_556 S
C551 C550 1.362 1_655 S
H552 C558 0.930 . S
H553 C561 0.930 . S
H554 C562 0.930 . S
H555 C563 0.930 1_655 S
H556 C566 0.930 . S
H557 C567 0.930 . S
C558 H552 0.930 . S
C558 C559 1.355 . S
C558 C560 1.415 . S
C559 C558 1.355 . S
C559 C561 1.419 . S
C560 C558 1.415 . S
C560 C565 1.425 . S
C560 C567 1.409 . S
C561 H553 0.930 . S
C561 C559 1.419 . S
C561 C562 1.362 . S
C562 H554 0.930 . S
C562 C561 1.362 . S
C562 C565 1.409 . S
C563 H555 0.930 1_455 S
C563 C564 1.355 . S
C563 C565 1.415 . S
C564 C563 1.355 . S
C564 C566 1.419 . S
C565 C560 1.425 . S
C565 C562 1.409 . S
C565 C563 1.415 . S
C566 H556 0.930 . S
C566 C564 1.419 . S
C566 C567 1.362 . S
C567 H557 0.930 . S
C567 C560 1.409 . S
C567 C566 1.362 . S
H568 C574 0.930 . S
H569 C577 0.930 . S
H570 C578 0.930 . S
H571 C579 0.930 . S
H572 C582 0.917 1_565 S
H573 C583 0.930 . S
C574 H568 0.930 . S
C574 C575 1.355 . S
C574 C576 1.415 . S
C575 C574 1.355 . S
C575 C577 1.419 . S
C576 C574 1.415 . S
C576 C581 1.425 . S
C576 C583 1.409 . S
C577 H569 0.930 . S
C577 C575 1.419 . S
C577 C578 1.362 . S
C578 H570 0.930 . S
C578 C577 1.362 . S
C578 C581 1.409 . S
C579 H571 0.930 . S
C579 C580 1.355 . S
C579 C581 1.415 . S
C580 C579 1.355 . S
C580 C582 1.419 . S
C581 C576 1.425 . S
C581 C578 1.409 . S
C581 C579 1.415 . S
C582 H572 0.917 1_545 S
C582 C580 1.419 . S
C582 C583 1.362 . S
C583 H573 0.930 . S
C583 C576 1.409 . S
C583 C582 1.362 . S
H584 C590 0.930 . S
H585 C593 0.930 . S
H586 C594 0.930 . S
H587 C595 0.930 . S
H588 C598 0.930 . S
H589 C599 0.930 . S
C590 H584 0.930 . S
C590 C591 1.355 . S
C590 C592 1.415 . S
C591 C590 1.355 . S
C591 C593 1.419 . S
C592 C590 1.415 . S
C592 C597 1.425 . S
C592 C599 1.409 . S
C593 H585 0.930 . S
C593 C591 1.419 . S
C593 C594 1.362 . S
C594 H586 0.930 . S
C594 C593 1.362 . S
C594 C597 1.409 . S
C595 H587 0.930 . S
C595 C596 1.355 . S
C595 C597 1.415 . S
C596 C595 1.355 . S
C596 C598 1.419 . S
C597 C592 1.425 . S
C597 C594 1.409 . S
C597 C595 1.415 . S
C598 H588 0.930 . S
C598 C596 1.419 . S
C598 C599 1.362 . S
C599 H589 0.930 . S
C599 C592 1.409 . S
C599 C598 1.362 . S
H600 C606 0.930 . S
H601 C609 0.930 . S
H602 C610 0.930 . S
H603 C611 0.930 . S
H604 C614 0.930 . S
H605 C615 0.930 . S
C606 H600 0.930 . S
C606 C607 1.355 . S
C606 C608 1.415 . S
C607 C606 1.355 . S
C607 C609 1.419 . S
C608 C606 1.415 . S
C608 C613 1.425 . S
C608 C615 1.409 . S
C609 H601 0.930 . S
C609 C607 1.419 . S
C609 C610 1.362 . S
C610 H602 0.930 . S
C610 C609 1.362 . S
C610 C613 1.409 . S
C611 H603 0.930 . S
C611 C612 1.355 . S
C611 C613 1.415 . S
C612 C611 1.355 . S
C612 C614 1.419 . S
C613 C608 1.425 . S
C613 C610 1.409 . S
C613 C611 1.415 . S
C614 H604 0.930 . S
C614 C612 1.419 . S
C614 C615 1.362 . S
C615 H605 0.930 . S
C615 C608 1.409 . S
C615 C614 1.362 . S
H616 C622 0.930 . S
H617 C625 0.930 . S
H618 C626 0.930 . S
H619 C627 0.930 1_556 S
H620 C630 0.930 . S
H621 C631 0.930 . S
C622 H616 0.930 . S
C622 C623 1.355 . S
C622 C624 1.415 . S
C623 C622 1.355 . S
C623 C625 1.419 . S
C624 C622 1.415 . S
C624 C629 1.425 . S
C624 C631 1.409 1_655 S
C625 H617 0.930 . S
C625 C623 1.419 . S
C625 C626 1.362 . S
C626 H618 0.930 . S
C626 C625 1.362 . S
C626 C629 1.409 . S
C627 H619 0.930 1_554 S
C627 C628 1.355 1_655 S
C627 C629 1.415 . S
C628 C627 1.355 1_455 S
C628 C630 1.419 . S
C629 C624 1.425 . S
C629 C626 1.409 . S
C629 C627 1.415 . S
C630 H620 0.930 . S
C630 C628 1.419 . S
C630 C631 1.362 . S
C631 H621 0.930 . S
C631 C624 1.409 1_455 S
C631 C630 1.362 . S
H632 C638 0.930 . S
H633 C641 0.930 . S
H634 C642 0.930 . S
H635 C643 0.930 1_556 S
H636 C646 0.930 . S
H637 C647 0.935 . S
C638 H632 0.930 . S
C638 C639 1.355 . S
C638 C640 1.415 . S
C639 C638 1.355 . S
C639 C641 1.419 . S
C640 C638 1.415 . S
C640 C645 1.425 . S
C640 C647 1.420 . S
C641 H633 0.930 . S
C641 C639 1.419 . S
C641 C642 1.362 . S
C642 H634 0.930 . S
C642 C641 1.362 . S
C642 C645 1.409 . S
C643 H635 0.930 1_554 S
C643 C644 1.355 . S
C643 C645 1.415 1_545 S
C644 C643 1.355 . S
C644 C646 1.419 . S
C645 C640 1.425 . S
C645 C642 1.409 . S
C645 C643 1.415 1_565 S
C646 H636 0.930 . S
C646 C644 1.419 . S
C646 C647 1.347 1_545 S
C647 H637 0.935 . S
C647 C640 1.420 . S
C647 C646 1.347 1_565 S
H648 C654 0.930 . S
H649 C657 0.930 . S
H650 C658 0.930 . S
H651 C659 0.930 . S
H652 C662 0.930 . S
H653 C663 0.930 . S
C654 H648 0.930 . S
C654 C655 1.355 . S
C654 C656 1.415 . S
C655 C654 1.355 . S
C655 C657 1.419 . S
C656 C654 1.415 . S
C656 C661 1.425 . S
C656 C663 1.409 . S
C657 H649 0.930 . S
C657 C655 1.419 . S
C657 C658 1.362 . S
C658 H650 0.930 . S
C658 C657 1.362 . S
C658 C661 1.409 . S
C659 H651 0.930 . S
C659 C660 1.355 . S
C659 C661 1.415 . S
C660 C659 1.355 . S
C660 C662 1.419 . S
C661 C656 1.425 . S
C661 C658 1.409 . S
C661 C659 1.415 . S
C662 H652 0.930 . S
C662 C660 1.419 . S
C662 C663 1.362 . S
C663 H653 0.930 . S
C663 C656 1.409 . S
C663 C662 1.362 . S
H664 C670 0.930 . S
H665 C673 0.930 . S
H666 C674 0.930 . S
H667 C675 0.930 . S
H668 C678 0.930 1_556 S
H669 C679 0.930 . S
C670 H664 0.930 . S
C670 C671 1.355 . S
C670 C672 1.415 . S
C671 C670 1.355 . S
C671 C673 1.419 . S
C672 C670 1.415 . S
C672 C677 1.425 . S
C672 C679 1.409 . S
C673 H665 0.930 . S
C673 C671 1.419 . S
C673 C674 1.362 . S
C674 H666 0.930 . S
C674 C673 1.362 . S
C674 C677 1.409 . S
C675 H667 0.930 . S
C675 C676 1.355 . S
C675 C677 1.415 . S
C676 C675 1.355 . S
C676 C678 1.419 . S
C677 C672 1.425 . S
C677 C674 1.409 . S
C677 C675 1.415 . S
C678 H668 0.930 1_554 S
C678 C676 1.419 . S
C678 C679 1.362 . S
C679 H669 0.930 . S
C679 C672 1.409 . S
C679 C678 1.362 . S
H680 C686 0.930 . S
H681 C689 0.930 . S
H682 C690 0.930 . S
H683 C691 0.930 . S
H684 C694 0.930 . S
H685 C695 0.930 . S
C686 H680 0.930 . S
C686 C687 1.355 . S
C686 C688 1.415 . S
C687 C686 1.355 . S
C687 C689 1.419 . S
C688 C686 1.415 . S
C688 C693 1.425 . S
C688 C695 1.409 . S
C689 H681 0.930 . S
C689 C687 1.419 . S
C689 C690 1.362 . S
C690 H682 0.930 . S
C690 C689 1.362 . S
C690 C693 1.409 . S
C691 H683 0.930 . S
C691 C692 1.355 . S
C691 C693 1.415 . S
C692 C691 1.355 . S
C692 C694 1.419 . S
C693 C688 1.425 . S
C693 C690 1.409 . S
C693 C691 1.415 . S
C694 H684 0.930 . S
C694 C692 1.419 . S
C694 C695 1.362 . S
C695 H685 0.930 . S
C695 C688 1.409 . S
C695 C694 1.362 . S
H696 C702 0.930 . S
H697 C705 0.930 . S
H698 C706 0.930 . S
H699 C707 0.930 . S
H700 C710 0.930 . S
H701 C711 0.930 . S
C702 H696 0.930 . S
C702 C703 1.355 . S
C702 C704 1.415 . S
C703 C702 1.355 . S
C703 C705 1.419 . S
C704 C702 1.415 . S
C704 C709 1.425 . S
C704 C711 1.409 . S
C705 H697 0.930 . S
C705 C703 1.419 . S
C705 C706 1.362 . S
C706 H698 0.930 . S
C706 C705 1.362 . S
C706 C709 1.409 . S
C707 H699 0.930 . S
C707 C708 1.355 . S
C707 C709 1.415 . S
C708 C707 1.355 . S
C708 C710 1.419 . S
C709 C704 1.425 . S
C709 C706 1.409 . S
C709 C707 1.415 . S
C710 H700 0.930 . S
C710 C708 1.419 . S
C710 C711 1.362 . S
C711 H701 0.930 . S
C711 C704 1.409 . S
C711 C710 1.362 . S
H712 C718 0.930 . S
H713 C721 0.930 . S
H714 C722 0.930 . S
H715 C723 0.930 . S
H716 C726 0.930 . S
H717 C727 0.930 . S
C718 H712 0.930 . S
C718 C719 1.355 . S
C718 C720 1.415 . S
C719 C718 1.355 . S
C719 C721 1.419 . S
C720 C718 1.415 . S
C720 C725 1.425 . S
C720 C727 1.409 . S
C721 H713 0.930 . S
C721 C719 1.419 . S
C721 C722 1.362 . S
C722 H714 0.930 . S
C722 C721 1.362 . S
C722 C725 1.409 . S
C723 H715 0.930 . S
C723 C724 1.355 . S
C723 C725 1.415 . S
C724 C723 1.355 . S
C724 C726 1.419 . S
C725 C720 1.425 . S
C725 C722 1.409 . S
C725 C723 1.415 . S
C726 H716 0.930 . S
C726 C724 1.419 . S
C726 C727 1.362 . S
C727 H717 0.930 . S
C727 C720 1.409 . S
C727 C726 1.362 . S
H728 C734 0.930 . S
H729 C737 0.930 . S
H730 C738 0.930 . S
H731 C739 0.930 . S
H732 C742 0.930 . S
H733 C743 0.930 . S
C734 H728 0.930 . S
C734 C735 1.355 . S
C734 C736 1.415 . S
C735 C734 1.355 . S
C735 C737 1.419 . S
C736 C734 1.415 . S
C736 C741 1.425 . S
C736 C743 1.409 . S
C737 H729 0.930 . S
C737 C735 1.419 . S
C737 C738 1.362 . S
C738 H730 0.930 . S
C738 C737 1.362 . S
C738 C741 1.409 . S
C739 H731 0.930 . S
C739 C740 1.355 . S
C739 C741 1.415 . S
C740 C739 1.355 . S
C740 C742 1.419 . S
C741 C736 1.425 . S
C741 C738 1.409 . S
C741 C739 1.415 . S
C742 H732 0.930 . S
C742 C740 1.419 . S
C742 C743 1.362 . S
C743 H733 0.930 . S
C743 C736 1.409 . S
C743 C742 1.362 . S
H744 C750 0.930 . S
H745 C753 0.930 . S
H746 C754 0.930 1_455 S
H747 C755 0.930 . S
H748 C758 0.930 . S
H749 C759 0.930 . S
C750 H744 0.930 . S
C750 C751 1.355 . S
C750 C752 1.415 . S
C751 C750 1.355 . S
C751 C753 1.419 . S
C752 C750 1.415 . S
C752 C757 1.425 . S
C752 C759 1.409 . S
C753 H745 0.930 . S
C753 C751 1.419 . S
C753 C754 1.362 . S
C754 H746 0.930 1_655 S
C754 C753 1.362 . S
C754 C757 1.409 . S
C755 H747 0.930 . S
C755 C756 1.355 . S
C755 C757 1.415 . S
C756 C755 1.355 . S
C756 C758 1.419 . S
C757 C752 1.425 . S
C757 C754 1.409 . S
C757 C755 1.415 . S
C758 H748 0.930 . S
C758 C756 1.419 . S
C758 C759 1.362 . S
C759 H749 0.930 . S
C759 C752 1.409 . S
C759 C758 1.362 . S
H760 C766 0.930 . S
H761 C769 0.930 . S
H762 C770 0.930 . S
H763 C771 0.930 . S
H764 C774 0.930 1_545 S
H765 C775 0.930 . S
C766 H760 0.930 . S
C766 C767 1.355 . S
C766 C768 1.415 . S
C767 C766 1.355 . S
C767 C769 1.419 . S
C768 C766 1.415 . S
C768 C773 1.425 . S
C768 C775 1.409 . S
C769 H761 0.930 . S
C769 C767 1.419 . S
C769 C770 1.362 . S
C770 H762 0.930 . S
C770 C769 1.362 . S
C770 C773 1.409 . S
C771 H763 0.930 . S
C771 C772 1.355 . S
C771 C773 1.415 . S
C772 C771 1.355 . S
C772 C774 1.419 . S
C773 C768 1.425 . S
C773 C770 1.409 . S
C773 C771 1.415 . S
C774 H764 0.930 1_565 S
C774 C772 1.419 . S
C774 C775 1.362 . S
C775 H765 0.930 . S
C775 C768 1.409 . S
C775 C774 1.362 . S
H776 C782 0.930 . S
H777 C785 0.930 . S
H778 C786 0.930 . S
H779 C787 0.930 . S
H780 C790 0.930 . S
H781 C791 0.930 . S
C782 H776 0.930 . S
C782 C783 1.355 . S
C782 C784 1.415 . S
C783 C782 1.355 . S
C783 C785 1.419 . S
C784 C782 1.415 . S
C784 C789 1.425 . S
C784 C791 1.409 . S
C785 H777 0.930 . S
C785 C783 1.419 . S
C785 C786 1.362 . S
C786 H778 0.930 . S
C786 C785 1.362 . S
C786 C789 1.409 . S
C787 H779 0.930 . S
C787 C788 1.355 . S
C787 C789 1.415 . S
C788 C787 1.355 . S
C788 C790 1.419 . S
C789 C784 1.425 . S
C789 C786 1.409 . S
C789 C787 1.415 . S
C790 H780 0.930 . S
C790 C788 1.419 . S
C790 C791 1.362 . S
C791 H781 0.930 . S
C791 C784 1.409 . S
C791 C790 1.362 . S
H792 C798 0.930 . S
H793 C801 0.930 . S
H794 C802 0.930 . S
H795 C803 0.930 . S
H796 C806 0.930 . S
H797 C807 0.930 . S
C798 H792 0.930 . S
C798 C799 1.355 . S
C798 C800 1.415 . S
C799 C798 1.355 . S
C799 C801 1.419 . S
C800 C798 1.415 . S
C800 C805 1.425 . S
C800 C807 1.409 . S
C801 H793 0.930 . S
C801 C799 1.419 . S
C801 C802 1.362 . S
C802 H794 0.930 . S
C802 C801 1.362 . S
C802 C805 1.409 . S
C803 H795 0.930 . S
C803 C804 1.355 . S
C803 C805 1.415 . S
C804 C803 1.355 . S
C804 C806 1.419 . S
C805 C800 1.425 . S
C805 C802 1.409 . S
C805 C803 1.415 . S
C806 H796 0.930 . S
C806 C804 1.419 . S
C806 C807 1.362 . S
C807 H797 0.930 . S
C807 C800 1.409 . S
C807 C806 1.362 . S
C431 C76 1.878 . S
C436 C162 1.957 . S
C452 C246 1.975 . S
C447 C87 1.901 . S
C468 C312 1.912 . S
C463 C54 1.950 . S
C484 C396 1.907 . S
C479 C65 1.947 . S
C500 C151 1.987 1_565 S
C495 C32 1.872 . S
C511 C43 1.884 . S
C516 C235 2.000 . S
C527 C10 1.969 . S
C532 C323 1.922 . S
C543 C21 2.014 . S
C548 C407 1.973 . S
C564 C158 0.777 1_455 S
C559 C60 0.747 . S
C580 C242 0.724 1_545 S
C575 C71 0.754 . S
C596 C314 0.659 . S
C591 C82 0.703 . S
C607 C49 0.699 . S
C612 C398 0.710 . S
C623 C16 0.827 . S
C628 C146 0.701 . S
C644 C230 0.689 . S
C639 C27 0.790 . S
C660 C326 0.640 . S
C655 C38 0.779 . S
C671 C5 0.628 . S
C676 C410 0.761 . S
C687 C59 2.081 . S
C692 C155 2.137 . S
C703 C70 1.995 . S
C708 C239 2.113 . S
C724 C319 2.128 . S
C719 C81 1.930 . S
C740 C403 2.179 . S
C735 C48 1.995 . S
C751 C15 2.051 . S
C756 C144 2.163 . S
C772 C228 2.125 . S
C767 C26 2.051 . S
C788 C330 2.149 . S
C783 C37 1.876 . S
C799 C4 1.990 . S
C804 C414 2.170 . S
