# Generated by pormake.
# Topology eea, (3,6)-cn, num edge types: 1
# Building blocks:
#     Node 0, Type 0, BuildingBlock: MIDCAF_clean_linker_0, # of connection points: 3
#     Node 1, Type 0, BuildingBlock: MIDCAF_clean_linker_0, # of connection points: 3
#     Node 2, Type 0, BuildingBlock: MIDCAF_clean_linker_0, # of connection points: 3
#     Node 3, Type 0, BuildingBlock: MIDCAF_clean_linker_0, # of connection points: 3
#     Node 4, Type 0, BuildingBlock: MIDCAF_clean_linker_0, # of connection points: 3
#     Node 5, Type 0, BuildingBlock: MIDCAF_clean_linker_0, # of connection points: 3
#     Node 6, Type 0, BuildingBlock: MIDCAF_clean_linker_0, # of connection points: 3
#     Node 7, Type 0, BuildingBlock: MIDCAF_clean_linker_0, # of connection points: 3
#     Node 8, Type 0, BuildingBlock: MIDCAF_clean_linker_0, # of connection points: 3
#     Node 9, Type 0, BuildingBlock: MIDCAF_clean_linker_0, # of connection points: 3
#     Node 10, Type 0, BuildingBlock: MIDCAF_clean_linker_0, # of connection points: 3
#     Node 11, Type 0, BuildingBlock: MIDCAF_clean_linker_0, # of connection points: 3
#     Node 12, Type 0, BuildingBlock: MIDCAF_clean_linker_0, # of connection points: 3
#     Node 13, Type 0, BuildingBlock: MIDCAF_clean_linker_0, # of connection points: 3
#     Node 14, Type 0, BuildingBlock: MIDCAF_clean_linker_0, # of connection points: 3
#     Node 15, Type 0, BuildingBlock: MIDCAF_clean_linker_0, # of connection points: 3
#     Node 16, Type 0, BuildingBlock: MIDCAF_clean_linker_0, # of connection points: 3
#     Node 17, Type 0, BuildingBlock: MIDCAF_clean_linker_0, # of connection points: 3
#     Node 18, Type 1, BuildingBlock: KUMBUR_clean_sbu_0, # of connection points: 6
#     Node 19, Type 1, BuildingBlock: KUMBUR_clean_sbu_0, # of connection points: 6
#     Node 20, Type 1, BuildingBlock: KUMBUR_clean_sbu_0, # of connection points: 6
#     Node 21, Type 1, BuildingBlock: KUMBUR_clean_sbu_0, # of connection points: 6
#     Node 22, Type 1, BuildingBlock: KUMBUR_clean_sbu_0, # of connection points: 6
#     Node 23, Type 1, BuildingBlock: KUMBUR_clean_sbu_0, # of connection points: 6
#     Node 24, Type 1, BuildingBlock: KUMBUR_clean_sbu_0, # of connection points: 6
#     Node 25, Type 1, BuildingBlock: KUMBUR_clean_sbu_0, # of connection points: 6
#     Node 26, Type 1, BuildingBlock: KUMBUR_clean_sbu_0, # of connection points: 6
#     Edge 27, Type (0, 1), BuildingBlock: XUDNAN_clean_linker_2, # of connection points: 2
#     Edge 28, Type (0, 1), BuildingBlock: XUDNAN_clean_linker_2, # of connection points: 2
#     Edge 29, Type (0, 1), BuildingBlock: XUDNAN_clean_linker_2, # of connection points: 2
#     Edge 30, Type (0, 1), BuildingBlock: XUDNAN_clean_linker_2, # of connection points: 2
#     Edge 31, Type (0, 1), BuildingBlock: XUDNAN_clean_linker_2, # of connection points: 2
#     Edge 32, Type (0, 1), BuildingBlock: XUDNAN_clean_linker_2, # of connection points: 2
#     Edge 33, Type (0, 1), BuildingBlock: XUDNAN_clean_linker_2, # of connection points: 2
#     Edge 34, Type (0, 1), BuildingBlock: XUDNAN_clean_linker_2, # of connection points: 2
#     Edge 35, Type (0, 1), BuildingBlock: XUDNAN_clean_linker_2, # of connection points: 2
#     Edge 36, Type (0, 1), BuildingBlock: XUDNAN_clean_linker_2, # of connection points: 2
#     Edge 37, Type (0, 1), BuildingBlock: XUDNAN_clean_linker_2, # of connection points: 2
#     Edge 38, Type (0, 1), BuildingBlock: XUDNAN_clean_linker_2, # of connection points: 2
#     Edge 39, Type (0, 1), BuildingBlock: XUDNAN_clean_linker_2, # of connection points: 2
#     Edge 40, Type (0, 1), BuildingBlock: XUDNAN_clean_linker_2, # of connection points: 2
#     Edge 41, Type (0, 1), BuildingBlock: XUDNAN_clean_linker_2, # of connection points: 2
#     Edge 42, Type (0, 1), BuildingBlock: XUDNAN_clean_linker_2, # of connection points: 2
#     Edge 43, Type (0, 1), BuildingBlock: XUDNAN_clean_linker_2, # of connection points: 2
#     Edge 44, Type (0, 1), BuildingBlock: XUDNAN_clean_linker_2, # of connection points: 2
#     Edge 45, Type (0, 1), BuildingBlock: XUDNAN_clean_linker_2, # of connection points: 2
#     Edge 46, Type (0, 1), BuildingBlock: XUDNAN_clean_linker_2, # of connection points: 2
#     Edge 47, Type (0, 1), BuildingBlock: XUDNAN_clean_linker_2, # of connection points: 2
#     Edge 48, Type (0, 1), BuildingBlock: XUDNAN_clean_linker_2, # of connection points: 2
#     Edge 49, Type (0, 1), BuildingBlock: XUDNAN_clean_linker_2, # of connection points: 2
#     Edge 50, Type (0, 1), BuildingBlock: XUDNAN_clean_linker_2, # of connection points: 2
#     Edge 51, Type (0, 1), BuildingBlock: XUDNAN_clean_linker_2, # of connection points: 2
#     Edge 52, Type (0, 1), BuildingBlock: XUDNAN_clean_linker_2, # of connection points: 2
#     Edge 53, Type (0, 1), BuildingBlock: XUDNAN_clean_linker_2, # of connection points: 2
#     Edge 54, Type (0, 1), BuildingBlock: XUDNAN_clean_linker_2, # of connection points: 2
#     Edge 55, Type (0, 1), BuildingBlock: XUDNAN_clean_linker_2, # of connection points: 2
#     Edge 56, Type (0, 1), BuildingBlock: XUDNAN_clean_linker_2, # of connection points: 2
#     Edge 57, Type (0, 1), BuildingBlock: XUDNAN_clean_linker_2, # of connection points: 2
#     Edge 58, Type (0, 1), BuildingBlock: XUDNAN_clean_linker_2, # of connection points: 2
#     Edge 59, Type (0, 1), BuildingBlock: XUDNAN_clean_linker_2, # of connection points: 2
#     Edge 60, Type (0, 1), BuildingBlock: XUDNAN_clean_linker_2, # of connection points: 2
#     Edge 61, Type (0, 1), BuildingBlock: XUDNAN_clean_linker_2, # of connection points: 2
#     Edge 62, Type (0, 1), BuildingBlock: XUDNAN_clean_linker_2, # of connection points: 2
#     Edge 63, Type (0, 1), BuildingBlock: XUDNAN_clean_linker_2, # of connection points: 2
#     Edge 64, Type (0, 1), BuildingBlock: XUDNAN_clean_linker_2, # of connection points: 2
#     Edge 65, Type (0, 1), BuildingBlock: XUDNAN_clean_linker_2, # of connection points: 2
#     Edge 66, Type (0, 1), BuildingBlock: XUDNAN_clean_linker_2, # of connection points: 2
#     Edge 67, Type (0, 1), BuildingBlock: XUDNAN_clean_linker_2, # of connection points: 2
#     Edge 68, Type (0, 1), BuildingBlock: XUDNAN_clean_linker_2, # of connection points: 2
#     Edge 69, Type (0, 1), BuildingBlock: XUDNAN_clean_linker_2, # of connection points: 2
#     Edge 70, Type (0, 1), BuildingBlock: XUDNAN_clean_linker_2, # of connection points: 2
#     Edge 71, Type (0, 1), BuildingBlock: XUDNAN_clean_linker_2, # of connection points: 2
#     Edge 72, Type (0, 1), BuildingBlock: XUDNAN_clean_linker_2, # of connection points: 2
#     Edge 73, Type (0, 1), BuildingBlock: XUDNAN_clean_linker_2, # of connection points: 2
#     Edge 74, Type (0, 1), BuildingBlock: XUDNAN_clean_linker_2, # of connection points: 2
#     Edge 75, Type (0, 1), BuildingBlock: XUDNAN_clean_linker_2, # of connection points: 2
#     Edge 76, Type (0, 1), BuildingBlock: XUDNAN_clean_linker_2, # of connection points: 2
#     Edge 77, Type (0, 1), BuildingBlock: XUDNAN_clean_linker_2, # of connection points: 2
#     Edge 78, Type (0, 1), BuildingBlock: XUDNAN_clean_linker_2, # of connection points: 2
#     Edge 79, Type (0, 1), BuildingBlock: XUDNAN_clean_linker_2, # of connection points: 2
#     Edge 80, Type (0, 1), BuildingBlock: XUDNAN_clean_linker_2, # of connection points: 2
# Relax obj value: 0.009
# Max RMSD: 0.095
# Mean RMSD: 0.062
data_MOF--net-eea--node1-KUMBUR_clean_sbu_0--node2-MIDCAF_clean_linker_0--edge1-XUDNAN_clean_linker_2
_symmetry_space_group_name_H-M    P1
_symmetry_Int_Tables_number       1
_symmetry_cell_setting            triclinic
loop_
_symmetry_equiv_pos_as_xyz
'x, y, z'
_cell_length_a     62.101398
_cell_length_b     63.380616
_cell_length_c     87.990794
_cell_angle_alpha  90.205609
_cell_angle_beta   90.104464
_cell_angle_gamma 120.03524
loop_
_atom_site_label
_atom_site_type_symbol
_atom_site_fract_x
_atom_site_fract_y
_atom_site_fract_z
_atom_type_partial_charge
C0 C 0.23202 0.03958 0.41068 0.0
C1 C 0.22013 0.03498 0.39644 0.0
C2 C 0.21271 0.05119 0.39102 0.0
C3 C 0.21741 0.07172 0.39944 0.0
H4 H 0.21635 0.13461 0.39495 0.0
H5 H 0.20411 0.16231 0.38395 0.0
H6 H 0.22084 0.20173 0.42648 0.0
H7 H 0.23283 0.17399 0.4376 0.0
H8 H 0.24495 0.15121 0.46673 0.0
H9 H 0.26277 0.15936 0.49211 0.0
H10 H 0.29554 0.11448 0.48268 0.0
H11 H 0.27661 0.1054 0.45746 0.0
H12 H 0.24609 0.06336 0.43004 0.0
H13 H 0.23809 0.02749 0.41512 0.0
H14 H 0.20306 0.04794 0.38024 0.0
H15 H 0.21138 0.08373 0.39479 0.0
N16 N 0.22846 0.11466 0.41624 0.0
N17 N 0.24221 0.13867 0.43826 0.0
N18 N 0.24469 0.10297 0.43652 0.0
C19 C 0.23229 0.13473 0.42407 0.0
C20 C 0.24853 0.12296 0.44456 0.0
C21 C 0.2345 0.09864 0.42236 0.0
C22 C 0.22546 0.15195 0.41722 0.0
C23 C 0.21745 0.14918 0.40199 0.0
C24 C 0.21057 0.16514 0.39562 0.0
C25 C 0.21139 0.1841 0.40437 0.0
C26 C 0.21967 0.18706 0.41952 0.0
C27 C 0.22668 0.17121 0.42586 0.0
C28 C 0.25939 0.12769 0.46005 0.0
C29 C 0.25595 0.14306 0.47006 0.0
C30 C 0.26635 0.14787 0.48462 0.0
C31 C 0.28083 0.13777 0.4895 0.0
C32 C 0.28422 0.12232 0.47946 0.0
C33 C 0.27346 0.1172 0.46494 0.0
C34 C 0.22957 0.0766 0.4136 0.0
C35 C 0.23671 0.06021 0.41918 0.0
C36 C 0.97826 0.20168 0.40837 0.0
C37 C 0.98279 0.19501 0.39399 0.0
C38 C 0.96541 0.17225 0.38787 0.0
C39 C 0.94437 0.15616 0.3961 0.0
H40 H 0.88338 0.08803 0.39297 0.0
H41 H 0.85011 0.05168 0.38047 0.0
H42 H 0.8062 0.03398 0.42132 0.0
H43 H 0.83909 0.06999 0.43384 0.0
H44 H 0.88664 0.10111 0.46652 0.0
H45 H 0.87635 0.10588 0.49245 0.0
H46 H 0.88542 0.17621 0.48087 0.0
H47 H 0.89772 0.17196 0.45519 0.0
H48 H 0.95458 0.19094 0.4279 0.0
H49 H 0.99143 0.21907 0.41342 0.0
H50 H 0.96824 0.16673 0.37673 0.0
H51 H 0.93167 0.13863 0.39104 0.0
N52 N 0.90206 0.1225 0.41347 0.0
N53 N 0.88028 0.11003 0.43637 0.0
N54 N 0.91565 0.14896 0.43456 0.0
C55 C 0.88276 0.10531 0.42163 0.0
C56 C 0.89653 0.13172 0.44289 0.0
C57 C 0.91866 0.14431 0.41981 0.0
C58 C 0.86384 0.08216 0.41438 0.0
C59 C 0.86673 0.07628 0.39934 0.0
C60 C 0.84777 0.05541 0.39219 0.0
C61 C 0.82552 0.04023 0.39988 0.0
C62 C 0.82304 0.04559 0.41506 0.0
C63 C 0.84198 0.06623 0.42224 0.0
C64 C 0.89289 0.13613 0.45891 0.0
C65 C 0.8868 0.11774 0.46965 0.0
C66 C 0.88058 0.12041 0.48448 0.0
C67 C 0.87937 0.14121 0.48885 0.0
C68 C 0.8863 0.16001 0.47812 0.0
C69 C 0.89328 0.1576 0.46335 0.0
C70 C 0.94019 0.16236 0.41075 0.0
C71 C 0.95722 0.18548 0.4167 0.0
C72 C 0.84703 0.80837 0.3902 0.0
C73 C 0.82307 0.80003 0.39611 0.0
C74 C 0.81586 0.78513 0.40906 0.0
C75 C 0.83234 0.77911 0.41609 0.0
H76 H 0.93297 0.8045 0.3912 0.0
H77 H 0.96918 0.8073 0.378 0.0
H78 H 0.9762 0.76347 0.41288 0.0
H79 H 0.94061 0.76078 0.42608 0.0
H80 H 0.91286 0.75231 0.45621 0.0
H81 H 0.90564 0.7367 0.48194 0.0
H82 H 0.83873 0.74143 0.48417 0.0
H83 H 0.8457 0.75678 0.45813 0.0
H84 H 0.88172 0.80896 0.39225 0.0
H85 H 0.85311 0.81971 0.38016 0.0
H86 H 0.79765 0.77858 0.41399 0.0
H87 H 0.82616 0.7678 0.42613 0.0
N88 N 0.89509 0.78515 0.4107 0.0
N89 N 0.90573 0.7698 0.43185 0.0
N90 N 0.86913 0.77188 0.43217 0.0
C91 C 0.91103 0.77927 0.41761 0.0
C92 C 0.88496 0.7661 0.43927 0.0
C93 C 0.87401 0.78142 0.41789 0.0
C94 C 0.93364 0.78225 0.40969 0.0
C95 C 0.94234 0.79559 0.3961 0.0
C96 C 0.96316 0.79736 0.38859 0.0
C97 C 0.97541 0.7855 0.39438 0.0
C98 C 0.96703 0.77266 0.40808 0.0
C99 C 0.94657 0.77117 0.41566 0.0
C100 C 0.87996 0.75601 0.455 0.0
C101 C 0.89654 0.75005 0.46209 0.0
C102 C 0.89248 0.74119 0.47696 0.0
C103 C 0.87172 0.73799 0.48525 0.0
C104 C 0.85484 0.74351 0.47811 0.0
C105 C 0.85892 0.75245 0.46318 0.0
C106 C 0.85639 0.78758 0.41025 0.0
C107 C 0.86341 0.8021 0.39711 0.0
C108 C 0.03419 0.21713 0.60872 0.0
C109 C 0.03507 0.21938 0.62462 0.0
C110 C 0.05661 0.22361 0.63238 0.0
C111 C 0.07703 0.22567 0.62441 0.0
H112 H 0.13279 0.20908 0.62943 0.0
H113 H 0.16155 0.20001 0.64273 0.0
H114 H 0.21076 0.22486 0.60411 0.0
H115 H 0.18203 0.23416 0.5907 0.0
H116 H 0.15674 0.23455 0.55869 0.0
H117 H 0.16489 0.24679 0.53223 0.0
H118 H 0.10821 0.26718 0.53329 0.0
H119 H 0.09991 0.25488 0.55999 0.0
H120 H 0.05384 0.21821 0.58839 0.0
H121 H 0.01782 0.21415 0.6025 0.0
H122 H 0.05776 0.22562 0.64464 0.0
H123 H 0.09341 0.22912 0.6308 0.0
N124 N 0.11598 0.22371 0.60766 0.0
N125 N 0.14005 0.23292 0.58564 0.0
N126 N 0.1025 0.23351 0.5852 0.0
C127 C 0.13663 0.22653 0.60053 0.0
C128 C 0.12319 0.2365 0.57786 0.0
C129 C 0.09881 0.22709 0.60015 0.0
C130 C 0.1549 0.22218 0.60889 0.0
C131 C 0.14978 0.21279 0.62374 0.0
C132 C 0.16625 0.2075 0.63139 0.0
C133 C 0.18837 0.21158 0.62444 0.0
C134 C 0.19395 0.22168 0.6098 0.0
C135 C 0.17736 0.22683 0.60208 0.0
C136 C 0.12761 0.24367 0.56156 0.0
C137 C 0.14592 0.2416 0.55336 0.0
C138 C 0.15053 0.2485 0.53811 0.0
C139 C 0.13714 0.25788 0.53062 0.0
C140 C 0.11893 0.26013 0.53878 0.0
C141 C 0.11408 0.25294 0.55405 0.0
C142 C 0.07659 0.22409 0.60843 0.0
C143 C 0.05487 0.21967 0.60067 0.0
C144 C 0.79655 0.82669 0.60555 0.0
C145 C 0.80707 0.83195 0.62015 0.0
C146 C 0.81729 0.85575 0.62592 0.0
C147 C 0.81589 0.87373 0.61743 0.0
H148 H 0.81834 0.94132 0.62154 0.0
H149 H 0.82018 0.97695 0.63378 0.0
H150 H 0.79375 0.99285 0.5924 0.0
H151 H 0.7918 0.95757 0.58018 0.0
H152 H 0.77627 0.92321 0.55209 0.0
H153 H 0.75608 0.91091 0.52729 0.0
H154 H 0.74827 0.83971 0.53288 0.0
H155 H 0.76897 0.85211 0.5574 0.0
H156 H 0.78663 0.83953 0.58594 0.0
H157 H 0.78872 0.80848 0.60082 0.0
H158 H 0.82546 0.86015 0.63719 0.0
H159 H 0.82324 0.89176 0.62231 0.0
N160 N 0.80578 0.90779 0.6006 0.0
N161 N 0.79118 0.91732 0.5785 0.0
N162 N 0.79109 0.88048 0.58001 0.0
C163 C 0.80099 0.92349 0.59275 0.0
C164 C 0.7862 0.89587 0.57203 0.0
C165 C 0.80094 0.88623 0.59424 0.0
C166 C 0.80461 0.94631 0.59991 0.0
C167 C 0.81315 0.95254 0.615 0.0
C168 C 0.81431 0.97299 0.62201 0.0
C169 C 0.80678 0.98744 0.6141 0.0
C170 C 0.79925 0.98178 0.59887 0.0
C171 C 0.79822 0.96154 0.59185 0.0
C172 C 0.77436 0.88871 0.55678 0.0
C173 C 0.77034 0.90496 0.54802 0.0
C174 C 0.7586 0.89785 0.53382 0.0
C175 C 0.75054 0.87432 0.52807 0.0
C176 C 0.75459 0.85811 0.53683 0.0
C177 C 0.76639 0.86522 0.55097 0.0
C178 C 0.80452 0.86819 0.60296 0.0
C179 C 0.7954 0.84457 0.59703 0.0
C180 C 0.17326 0.96307 0.6098 0.0
C181 C 0.16778 0.96462 0.62513 0.0
C182 C 0.14712 0.9445 0.63171 0.0
C183 C 0.13214 0.9235 0.62316 0.0
H184 H 0.06103 0.86269 0.62208 0.0
H185 H 0.02568 0.82924 0.63496 0.0
H186 H 0.02453 0.77868 0.60155 0.0
H187 H 0.05977 0.8121 0.58853 0.0
H188 H 0.09324 0.83616 0.5574 0.0
H189 H 0.10429 0.83365 0.53104 0.0
H190 H 0.15896 0.91032 0.5321 0.0
H191 H 0.14802 0.91297 0.55827 0.0
H192 H 0.16298 0.94155 0.58944 0.0
H193 H 0.18886 0.97831 0.60432 0.0
H194 H 0.14258 0.94486 0.64355 0.0
H195 H 0.11641 0.90844 0.62868 0.0
N196 N 0.10055 0.881 0.60502 0.0
N197 N 0.09222 0.85814 0.58253 0.0
N198 N 0.12731 0.89732 0.58423 0.0
C199 C 0.08586 0.86025 0.59704 0.0
C200 C 0.11288 0.87671 0.576 0.0
C201 C 0.12136 0.89959 0.59876 0.0
C202 C 0.06341 0.84008 0.6043 0.0
C203 C 0.05318 0.84447 0.6174 0.0
C204 C 0.03281 0.82536 0.62474 0.0
C205 C 0.02244 0.80136 0.61931 0.0
C206 C 0.0323 0.797 0.60606 0.0
C207 C 0.05243 0.81616 0.59857 0.0
C208 C 0.11965 0.87479 0.56002 0.0
C209 C 0.10762 0.85249 0.55203 0.0
C210 C 0.11404 0.851 0.53694 0.0
C211 C 0.13241 0.87181 0.52945 0.0
C212 C 0.1445 0.89401 0.53747 0.0
C213 C 0.13828 0.89547 0.55254 0.0
C214 C 0.13745 0.92198 0.60779 0.0
C215 C 0.15828 0.94201 0.60124 0.0
C216 C 0.90833 0.38322 0.74874 0.0
C217 C 0.901 0.37975 0.7334 0.0
C218 C 0.89462 0.3959 0.72659 0.0
C219 C 0.89557 0.41513 0.73491 0.0
H220 H 0.87527 0.4667 0.73207 0.0
H221 H 0.85824 0.49037 0.72085 0.0
H222 H 0.87248 0.53112 0.7627 0.0
H223 H 0.88917 0.50732 0.77405 0.0
H224 H 0.90577 0.48776 0.80378 0.0
H225 H 0.9256 0.49971 0.82859 0.0
H226 H 0.97118 0.46799 0.81742 0.0
H227 H 0.9503 0.45493 0.79289 0.0
H228 H 0.91524 0.40483 0.76887 0.0
H229 H 0.91347 0.37111 0.75425 0.0
H230 H 0.88856 0.3935 0.71484 0.0
H231 H 0.89045 0.42714 0.72925 0.0
N232 N 0.89391 0.45219 0.75297 0.0
N233 N 0.90455 0.47636 0.77494 0.0
N234 N 0.91431 0.44513 0.77308 0.0
C235 C 0.89419 0.47079 0.76083 0.0
C236 C 0.91471 0.46369 0.78112 0.0
C237 C 0.90381 0.4392 0.759 0.0
C238 C 0.8836 0.48503 0.754 0.0
C239 C 0.87472 0.48064 0.73893 0.0
C240 C 0.86507 0.4943 0.73244 0.0
C241 C 0.86396 0.51258 0.74088 0.0
C242 C 0.87275 0.51693 0.75595 0.0
C243 C 0.88248 0.50335 0.76243 0.0
C244 C 0.92649 0.47044 0.79634 0.0
C245 C 0.91997 0.48327 0.80665 0.0
C246 C 0.93152 0.49029 0.82087 0.0
C247 C 0.95026 0.48508 0.82506 0.0
C248 C 0.95662 0.47205 0.81475 0.0
C249 C 0.94473 0.46465 0.80062 0.0
C250 C 0.90304 0.41878 0.75025 0.0
C251 C 0.90947 0.40262 0.75707 0.0
C252 C 0.63303 0.53139 0.73996 0.0
C253 C 0.64162 0.52611 0.72652 0.0
C254 C 0.63104 0.50172 0.72178 0.0
C255 C 0.61158 0.48308 0.73004 0.0
H256 H 0.55084 0.4155 0.72359 0.0
H257 H 0.52501 0.37672 0.71092 0.0
H258 H 0.4765 0.35097 0.74988 0.0
H259 H 0.50223 0.39014 0.76261 0.0
H260 H 0.5103 0.44096 0.7867 0.0
H261 H 0.50234 0.45158 0.81193 0.0
H262 H 0.58149 0.4903 0.8212 0.0
H263 H 0.5892 0.4812 0.79565 0.0
H264 H 0.60752 0.51761 0.75852 0.0
H265 H 0.64103 0.55002 0.74395 0.0
H266 H 0.6373 0.49717 0.71144 0.0
H267 H 0.60344 0.46451 0.72591 0.0
N268 N 0.56565 0.44729 0.74479 0.0
N269 N 0.54006 0.4341 0.76636 0.0
N270 N 0.57589 0.47292 0.76606 0.0
C271 C 0.54515 0.42974 0.752 0.0
C272 C 0.5555 0.45562 0.77348 0.0
C273 C 0.58104 0.46895 0.75168 0.0
C274 C 0.52878 0.40606 0.74421 0.0
C275 C 0.53467 0.40169 0.72953 0.0
C276 C 0.5199 0.37932 0.72225 0.0
C277 C 0.49878 0.36062 0.72942 0.0
C278 C 0.49255 0.36504 0.74399 0.0
C279 C 0.50741 0.38748 0.75132 0.0
C280 C 0.55037 0.46044 0.78916 0.0
C281 C 0.52592 0.45174 0.7942 0.0
C282 C 0.5214 0.45774 0.80876 0.0
C283 C 0.54124 0.4721 0.81879 0.0
C284 C 0.56566 0.47995 0.8138 0.0
C285 C 0.57015 0.47452 0.79914 0.0
C286 C 0.60262 0.48842 0.74336 0.0
C287 C 0.61389 0.51277 0.74834 0.0
C288 C 0.47712 0.10718 0.74518 0.0
C289 C 0.47998 0.11863 0.7311 0.0
C290 C 0.50366 0.13076 0.72442 0.0
C291 C 0.52389 0.13064 0.73146 0.0
H292 H 0.59908 0.14922 0.72544 0.0
H293 H 0.63764 0.16069 0.71176 0.0
H294 H 0.65557 0.12068 0.74409 0.0
H295 H 0.61725 0.10924 0.75778 0.0
H296 H 0.59015 0.09685 0.78962 0.0
H297 H 0.58568 0.08136 0.81534 0.0
H298 H 0.51504 0.07868 0.81932 0.0
H299 H 0.51917 0.09365 0.79342 0.0
H300 H 0.49417 0.09792 0.76303 0.0
H301 H 0.45915 0.09795 0.7507 0.0
H302 H 0.50637 0.13969 0.71355 0.0
H303 H 0.5418 0.13971 0.72588 0.0
N304 N 0.56318 0.12389 0.74488 0.0
N305 N 0.57899 0.11266 0.76565 0.0
N306 N 0.53936 0.10844 0.76701 0.0
C307 C 0.58185 0.12157 0.7513 0.0
C308 C 0.55787 0.10615 0.77363 0.0
C309 C 0.54181 0.11727 0.75266 0.0
C310 C 0.60504 0.12835 0.74276 0.0
C311 C 0.61119 0.1428 0.72961 0.0
C312 C 0.63333 0.14946 0.72181 0.0
C313 C 0.6496 0.14154 0.72683 0.0
C314 C 0.64329 0.12686 0.73984 0.0
C315 C 0.62138 0.12046 0.74775 0.0
C316 C 0.55505 0.09659 0.78937 0.0
C317 C 0.57363 0.09297 0.79593 0.0
C318 C 0.57114 0.0842 0.81077 0.0
C319 C 0.55005 0.07885 0.81948 0.0
C320 C 0.5314 0.08233 0.8129 0.0
C321 C 0.53386 0.09107 0.79804 0.0
C322 C 0.52088 0.11865 0.74542 0.0
C323 C 0.49729 0.10727 0.75228 0.0
C324 C 0.69813 0.53864 0.93678 0.0
C325 C 0.69112 0.52388 0.9498 0.0
C326 C 0.7068 0.51541 0.95506 0.0
C327 C 0.72903 0.52167 0.94756 0.0
H328 H 0.79433 0.51871 0.9525 0.0
H329 H 0.82736 0.51752 0.96713 0.0
H330 H 0.882 0.56803 0.93577 0.0
H331 H 0.84926 0.56904 0.92102 0.0
H332 H 0.82307 0.56263 0.88635 0.0
H333 H 0.83148 0.57759 0.86041 0.0
H334 H 0.77034 0.59164 0.8623 0.0
H335 H 0.76168 0.57647 0.88847 0.0
H336 H 0.72509 0.55606 0.91915 0.0
H337 H 0.68633 0.54528 0.93238 0.0
H338 H 0.70204 0.50419 0.96513 0.0
H339 H 0.74065 0.51486 0.95202 0.0
N340 N 0.77749 0.54001 0.934 0.0
N341 N 0.80385 0.55556 0.91297 0.0
N342 N 0.7646 0.55254 0.91239 0.0
C343 C 0.79954 0.54631 0.92726 0.0
C344 C 0.78651 0.55864 0.90539 0.0
C345 C 0.75993 0.5431 0.92671 0.0
C346 C 0.81913 0.5441 0.93562 0.0
C347 C 0.81336 0.52939 0.94864 0.0
C348 C 0.8322 0.52856 0.95697 0.0
C349 C 0.85717 0.54277 0.9526 0.0
C350 C 0.86288 0.557 0.93942 0.0
C351 C 0.84408 0.55751 0.93096 0.0
C352 C 0.79161 0.56823 0.88957 0.0
C353 C 0.81136 0.56892 0.88133 0.0
C354 C 0.81614 0.57739 0.86638 0.0
C355 C 0.8015 0.58568 0.85926 0.0
C356 C 0.78201 0.58545 0.86751 0.0
C357 C 0.77697 0.57663 0.88247 0.0
C358 C 0.73607 0.53635 0.93448 0.0
C359 C 0.72027 0.54467 0.92914 0.0
C360 C 0.49059 0.17288 0.93703 0.0
C361 C 0.48132 0.15918 0.95046 0.0
C362 C 0.46217 0.16038 0.95829 0.0
C363 C 0.45223 0.17433 0.95264 0.0
H364 H 0.45337 0.24559 0.96327 0.0
H365 H 0.45322 0.27931 0.97668 0.0
H366 H 0.41481 0.28906 0.93877 0.0
H367 H 0.4144 0.25527 0.92556 0.0
H368 H 0.39564 0.21723 0.89865 0.0
H369 H 0.37861 0.20795 0.87309 0.0
H370 H 0.42414 0.17591 0.86272 0.0
H371 H 0.44044 0.18432 0.88861 0.0
H372 H 0.48707 0.19587 0.92057 0.0
H373 H 0.50588 0.17331 0.9309 0.0
H374 H 0.45416 0.14992 0.96851 0.0
H375 H 0.43722 0.1746 0.95872 0.0
N376 N 0.4462 0.21625 0.94068 0.0
N377 N 0.42691 0.22344 0.92001 0.0
N378 N 0.44068 0.19529 0.91758 0.0
C379 C 0.43542 0.22839 0.93456 0.0
C380 C 0.42935 0.2069 0.91146 0.0
C381 C 0.44891 0.19976 0.93221 0.0
C382 C 0.43396 0.24769 0.94329 0.0
C383 C 0.44465 0.25475 0.95786 0.0
C384 C 0.44471 0.27417 0.96552 0.0
C385 C 0.434 0.28687 0.9588 0.0
C386 C 0.42287 0.27945 0.94439 0.0
C387 C 0.4228 0.26011 0.93675 0.0
C388 C 0.41943 0.20153 0.89571 0.0
C389 C 0.40209 0.20824 0.89093 0.0
C390 C 0.39241 0.20304 0.87618 0.0
C391 C 0.40003 0.19126 0.86573 0.0
C392 C 0.41751 0.18466 0.87049 0.0
C393 C 0.42699 0.1896 0.88534 0.0
C394 C 0.46068 0.18674 0.93883 0.0
C395 C 0.48003 0.18607 0.93114 0.0
C396 C 0.84813 0.30602 0.93137 0.0
C397 C 0.84274 0.31317 0.94531 0.0
C398 C 0.82115 0.2964 0.95314 0.0
C399 C 0.80504 0.27323 0.94691 0.0
H400 H 0.73591 0.20581 0.9521 0.0
H401 H 0.70276 0.17267 0.96672 0.0
H402 H 0.7013 0.12035 0.93463 0.0
H403 H 0.7341 0.15321 0.91995 0.0
H404 H 0.76501 0.17307 0.88754 0.0
H405 H 0.78046 0.16703 0.86312 0.0
H406 H 0.83561 0.24348 0.86221 0.0
H407 H 0.82055 0.24964 0.88621 0.0
H408 H 0.83718 0.27859 0.91436 0.0
H409 H 0.86488 0.31816 0.92519 0.0
H410 H 0.81645 0.30135 0.96392 0.0
H411 H 0.78842 0.26083 0.9531 0.0
N412 N 0.77355 0.22434 0.93308 0.0
N413 N 0.76478 0.19791 0.91211 0.0
N414 N 0.79861 0.23767 0.91141 0.0
C415 C 0.75906 0.20209 0.92639 0.0
C416 C 0.78451 0.21579 0.90449 0.0
C417 C 0.79349 0.24222 0.92562 0.0
C418 C 0.73788 0.18223 0.93486 0.0
C419 C 0.72842 0.18726 0.94809 0.0
C420 C 0.70932 0.16831 0.95643 0.0
C421 C 0.69956 0.14393 0.95188 0.0
C422 C 0.70862 0.13897 0.9385 0.0
C423 C 0.72739 0.15785 0.93005 0.0
C424 C 0.79173 0.21176 0.88905 0.0
C425 C 0.78025 0.18861 0.88204 0.0
C426 C 0.78901 0.18515 0.86803 0.0
C427 C 0.80946 0.20473 0.86088 0.0
C428 C 0.8201 0.22795 0.86757 0.0
C429 C 0.81138 0.23143 0.8814 0.0
C430 C 0.81027 0.26641 0.93274 0.0
C431 C 0.83217 0.28311 0.92517 0.0
C432 C 0.573 0.69947 0.07966 0.0
C433 C 0.56429 0.69494 0.06458 0.0
C434 C 0.55638 0.71005 0.05795 0.0
C435 C 0.55787 0.72975 0.0661 0.0
H436 H 0.52583 0.77913 0.07436 0.0
H437 H 0.51472 0.80554 0.06071 0.0
H438 H 0.58305 0.86857 0.07598 0.0
H439 H 0.59304 0.84182 0.09064 0.0
H440 H 0.59837 0.82126 0.12997 0.0
H441 H 0.61225 0.82626 0.15648 0.0
H442 H 0.60284 0.75401 0.15572 0.0
H443 H 0.58901 0.74886 0.12948 0.0
H444 H 0.5815 0.72203 0.09934 0.0
H445 H 0.57876 0.68784 0.08519 0.0
H446 H 0.54965 0.70702 0.04633 0.0
H447 H 0.55205 0.74132 0.06057 0.0
N448 N 0.56385 0.77177 0.0831 0.0
N449 N 0.57725 0.79659 0.10497 0.0
N450 N 0.57955 0.76079 0.10388 0.0
C451 C 0.56745 0.792 0.0907 0.0
C452 C 0.58312 0.78081 0.1117 0.0
C453 C 0.57007 0.75617 0.08958 0.0
C454 C 0.56035 0.80849 0.08339 0.0
C455 C 0.53831 0.79867 0.07489 0.0
C456 C 0.53212 0.81387 0.06694 0.0
C457 C 0.54827 0.83929 0.06685 0.0
C458 C 0.57004 0.84916 0.07581 0.0
C459 C 0.57588 0.83388 0.08415 0.0
C460 C 0.59246 0.78463 0.12757 0.0
C461 C 0.59931 0.80647 0.13545 0.0
C462 C 0.60736 0.80939 0.1506 0.0
C463 C 0.60841 0.79043 0.15817 0.0
C464 C 0.60186 0.76879 0.15024 0.0
C465 C 0.59408 0.76594 0.13513 0.0
C466 C 0.56718 0.73463 0.08108 0.0
C467 C 0.57442 0.71903 0.0878 0.0
C468 C 0.30956 0.86754 0.07244 0.0
C469 C 0.31447 0.86023 0.05839 0.0
C470 C 0.2967 0.83755 0.05227 0.0
C471 C 0.27484 0.82229 0.06017 0.0
H472 H 0.21418 0.7496 0.06117 0.0
H473 H 0.18363 0.70847 0.05253 0.0
H474 H 0.13126 0.70641 0.08559 0.0
H475 H 0.16172 0.74678 0.09445 0.0
H476 H 0.18753 0.77404 0.12579 0.0
H477 H 0.18203 0.78326 0.15176 0.0
H478 H 0.24572 0.85557 0.14739 0.0
H479 H 0.25174 0.84611 0.12138 0.0
H480 H 0.28479 0.85833 0.09129 0.0
H481 H 0.32296 0.8848 0.07753 0.0
H482 H 0.29976 0.83151 0.04137 0.0
H483 H 0.26177 0.80486 0.05514 0.0
N484 N 0.23014 0.79075 0.07704 0.0
N485 N 0.20646 0.78172 0.09927 0.0
N486 N 0.24406 0.8186 0.09744 0.0
C487 C 0.20949 0.77531 0.08503 0.0
C488 C 0.2236 0.80322 0.1056 0.0
C489 C 0.24747 0.81254 0.08313 0.0
C490 C 0.19056 0.75136 0.07866 0.0
C491 C 0.19607 0.74038 0.0665 0.0
C492 C 0.17853 0.71684 0.06152 0.0
C493 C 0.15512 0.70392 0.06854 0.0
C494 C 0.14933 0.71547 0.0802 0.0
C495 C 0.16682 0.73875 0.08525 0.0
C496 C 0.2201 0.80933 0.1214 0.0
C497 C 0.20039 0.79197 0.13028 0.0
C498 C 0.19712 0.79731 0.14522 0.0
C499 C 0.21334 0.82021 0.1517 0.0
C500 C 0.23303 0.83764 0.14283 0.0
C501 C 0.2364 0.83225 0.12787 0.0
C502 C 0.27018 0.82928 0.07442 0.0
C503 C 0.28772 0.85224 0.08038 0.0
C504 C 0.14607 0.44456 0.07616 0.0
C505 C 0.15255 0.45944 0.06324 0.0
C506 C 0.17636 0.46846 0.05701 0.0
C507 C 0.19351 0.46314 0.06369 0.0
H508 H 0.26352 0.47359 0.05782 0.0
H509 H 0.30211 0.48442 0.04452 0.0
H510 H 0.31848 0.44377 0.07724 0.0
H511 H 0.27991 0.43288 0.09061 0.0
H512 H 0.25008 0.41964 0.12206 0.0
H513 H 0.24528 0.4062 0.14829 0.0
H514 H 0.17792 0.40999 0.15177 0.0
H515 H 0.18236 0.42292 0.12535 0.0
H516 H 0.15793 0.42827 0.0931 0.0
H517 H 0.12789 0.43749 0.08126 0.0
H518 H 0.18181 0.47982 0.04697 0.0
H519 H 0.21176 0.47068 0.05863 0.0
N520 N 0.22756 0.44973 0.07691 0.0
N521 N 0.24128 0.43689 0.09788 0.0
N522 N 0.20265 0.43519 0.09867 0.0
C523 C 0.24515 0.44602 0.08355 0.0
C524 C 0.22013 0.43149 0.10557 0.0
C525 C 0.2062 0.44425 0.08432 0.0
C526 C 0.26853 0.45235 0.07533 0.0
C527 C 0.27526 0.46687 0.06219 0.0
C528 C 0.29746 0.47321 0.05459 0.0
C529 C 0.31334 0.46495 0.05982 0.0
C530 C 0.30652 0.45023 0.07285 0.0
C531 C 0.28447 0.44412 0.08057 0.0
C532 C 0.21666 0.42248 0.1215 0.0
C533 C 0.23417 0.41757 0.12835 0.0
C534 C 0.23151 0.40999 0.14348 0.0
C535 C 0.21131 0.40717 0.15225 0.0
C536 C 0.19359 0.41173 0.14535 0.0
C537 C 0.19622 0.41927 0.13018 0.0
C538 C 0.18739 0.44885 0.0769 0.0
C539 C 0.16336 0.43945 0.083 0.0
C540 C 0.36827 0.89216 0.27411 0.0
C541 C 0.36002 0.88022 0.28812 0.0
C542 C 0.3718 0.86807 0.29416 0.0
C543 C 0.39202 0.86866 0.2866 0.0
H544 H 0.45479 0.8582 0.29339 0.0
H545 H 0.48724 0.85617 0.3083 0.0
H546 H 0.54094 0.89669 0.27357 0.0
H547 H 0.50888 0.8984 0.25856 0.0
H548 H 0.48664 0.89712 0.22539 0.0
H549 H 0.4969 0.91193 0.19951 0.0
H550 H 0.43442 0.92409 0.19849 0.0
H551 H 0.42369 0.90862 0.22439 0.0
H552 H 0.39411 0.90212 0.25579 0.0
H553 H 0.35943 0.90151 0.2691 0.0
H554 H 0.36591 0.8588 0.30497 0.0
H555 H 0.40104 0.85958 0.29173 0.0
N556 N 0.4392 0.87851 0.27277 0.0
N557 N 0.46476 0.88889 0.25126 0.0
N558 N 0.42784 0.89038 0.25022 0.0
C559 C 0.46027 0.88154 0.26599 0.0
C560 C 0.44866 0.89322 0.24322 0.0
C561 C 0.42288 0.88294 0.26497 0.0
C562 C 0.47916 0.87857 0.27477 0.0
C563 C 0.47345 0.86643 0.28885 0.0
C564 C 0.49194 0.86512 0.29736 0.0
C565 C 0.51654 0.8763 0.29207 0.0
C566 C 0.52211 0.88793 0.2779 0.0
C567 C 0.50366 0.88887 0.2693 0.0
C568 C 0.45436 0.90172 0.22713 0.0
C569 C 0.47497 0.90287 0.2197 0.0
C570 C 0.48099 0.91154 0.20481 0.0
C571 C 0.46668 0.91949 0.19685 0.0
C572 C 0.44578 0.91795 0.20416 0.0
C573 C 0.43969 0.90918 0.21909 0.0
C574 C 0.40059 0.88104 0.27269 0.0
C575 C 0.38813 0.89241 0.26644 0.0
C576 C 0.11454 0.48284 0.27478 0.0
C577 C 0.12136 0.48808 0.29017 0.0
C578 C 0.11892 0.50661 0.29736 0.0
C579 C 0.11077 0.52019 0.28925 0.0
H580 H 0.1027 0.58136 0.29291 0.0
H581 H 0.11772 0.62222 0.30326 0.0
H582 H 0.12051 0.64944 0.25799 0.0
H583 H 0.10517 0.60851 0.24758 0.0
H584 H 0.04955 0.55074 0.22896 0.0
H585 H 0.02979 0.53728 0.20419 0.0
H586 H 0.06977 0.49845 0.19697 0.0
H587 H 0.08812 0.51066 0.22218 0.0
H588 H 0.10165 0.49224 0.25472 0.0
H589 H 0.11637 0.4688 0.26887 0.0
H590 H 0.12345 0.51076 0.30929 0.0
H591 H 0.10947 0.53453 0.29516 0.0
N592 N 0.10178 0.55257 0.27101 0.0
N593 N 0.08606 0.56072 0.24895 0.0
N594 N 0.08758 0.52451 0.25085 0.0
C595 C 0.09625 0.56756 0.26306 0.0
C596 C 0.08156 0.53914 0.24282 0.0
C597 C 0.09754 0.53105 0.26503 0.0
C598 C 0.10285 0.59172 0.26941 0.0
C599 C 0.10624 0.59599 0.28517 0.0
C600 C 0.11472 0.61933 0.29111 0.0
C601 C 0.1204 0.63894 0.2814 0.0
C602 C 0.11643 0.63461 0.26569 0.0
C603 C 0.10751 0.61117 0.25976 0.0
C604 C 0.07029 0.53167 0.22753 0.0
C605 C 0.05407 0.53931 0.22205 0.0
C606 C 0.04287 0.5317 0.20776 0.0
C607 C 0.04807 0.5167 0.19842 0.0
C608 C 0.06473 0.50947 0.20388 0.0
C609 C 0.07546 0.51662 0.21832 0.0
C610 C 0.10463 0.51547 0.27375 0.0
C611 C 0.1062 0.49636 0.26665 0.0
C612 C 0.52912 0.6363 0.27118 0.0
C613 C 0.52353 0.64011 0.28606 0.0
C614 C 0.50429 0.62047 0.29389 0.0
C615 C 0.49021 0.59784 0.28683 0.0
H616 H 0.42637 0.53803 0.29228 0.0
H617 H 0.38826 0.51114 0.30554 0.0
H618 H 0.36501 0.45962 0.26839 0.0
H619 H 0.40364 0.48675 0.25485 0.0
H620 H 0.44074 0.50418 0.22408 0.0
H621 H 0.44881 0.49913 0.19745 0.0
H622 H 0.51186 0.57221 0.1975 0.0
H623 H 0.5039 0.57742 0.2238 0.0
H624 H 0.51918 0.61138 0.25241 0.0
H625 H 0.54383 0.65114 0.26486 0.0
H626 H 0.49985 0.6227 0.30547 0.0
H627 H 0.47525 0.58336 0.29321 0.0
N628 N 0.45755 0.55352 0.2711 0.0
N629 N 0.4458 0.5281 0.24961 0.0
N630 N 0.48258 0.5663 0.24947 0.0
C631 C 0.44121 0.53227 0.26414 0.0
C632 C 0.46658 0.5451 0.24221 0.0
C633 C 0.47824 0.57061 0.26395 0.0
C634 C 0.41817 0.51474 0.27236 0.0
C635 C 0.41333 0.52098 0.28683 0.0
C636 C 0.39134 0.50558 0.29447 0.0
C637 C 0.3735 0.48337 0.28797 0.0
C638 C 0.37848 0.47662 0.27371 0.0
C639 C 0.40055 0.49222 0.26593 0.0
C640 C 0.47155 0.54126 0.22616 0.0
C641 C 0.45635 0.51916 0.21842 0.0
C642 C 0.46102 0.5162 0.20317 0.0
C643 C 0.48084 0.53534 0.19531 0.0
C644 C 0.49618 0.55724 0.20312 0.0
C645 C 0.49165 0.56015 0.2183 0.0
C646 C 0.49494 0.59417 0.2717 0.0
C647 C 0.51492 0.61355 0.26405 0.0
Tb648 Tb 0.50284 0.98303 0.98843 0.0
C649 C 0.55986 0.06717 0.03127 0.0
C650 C 0.60174 0.07361 0.0306 0.0
C651 C 0.59527 0.10807 0.03421 0.0
C652 C 0.57579 0.0579 0.02946 0.0
C653 C 0.56943 0.09222 0.03406 0.0
C654 C 0.61138 0.09877 0.03254 0.0
C655 C 0.52735 0.08368 0.03823 0.0
N656 N 0.53496 0.05133 0.03131 0.0
C657 C 0.51872 0.05895 0.03557 0.0
C658 C 0.55276 0.10046 0.0372 0.0
Tb659 Tb 0.52333 0.01193 0.02534 0.0
N660 N 0.56583 0.03336 0.02786 0.0
C661 C 0.58081 0.02331 0.02914 0.0
C662 C 0.61721 0.06347 0.03048 0.0
C663 C 0.60665 0.03821 0.03015 0.0
H664 H 0.49904 0.04612 0.0363 0.0
H665 H 0.61843 0.03015 0.03065 0.0
H666 H 0.63128 0.11111 0.03324 0.0
H667 H 0.51439 0.0898 0.04106 0.0
H668 H 0.57341 0.00392 0.02911 0.0
H669 H 0.4058 0.95824 0.98826 0.0
H670 H 0.63723 0.07492 0.03129 0.0
H671 H 0.52998 0.95319 0.9751 0.0
H672 H 0.4509 0.98637 0.98955 0.0
H673 H 0.51764 0.91148 0.9668 0.0
H674 H 0.60298 0.12743 0.03615 0.0
H675 H 0.38936 0.91424 0.98371 0.0
H676 H 0.39807 0.88035 0.97765 0.0
H677 H 0.55939 0.11959 0.03936 0.0
H678 H 0.42862 0.86757 0.97166 0.0
N679 N 0.46038 0.95859 0.98651 0.0
C680 C 0.4442 0.96727 0.9876 0.0
C681 C 0.40927 0.92652 0.98435 0.0
C682 C 0.42591 0.91801 0.98212 0.0
C683 C 0.41849 0.95134 0.98687 0.0
C684 C 0.45163 0.93476 0.98321 0.0
H685 H 0.47332 0.87922 0.96722 0.0
N686 N 0.49306 0.94472 0.98052 0.0
C687 C 0.50365 0.91571 0.9706 0.0
C688 C 0.46864 0.92755 0.98005 0.0
C689 C 0.51057 0.93938 0.97533 0.0
C690 C 0.47863 0.89753 0.97089 0.0
C691 C 0.4607 0.90342 0.97544 0.0
O692 O 0.52281 0.99193 0.96786 0.0
O693 O 0.53309 0.01075 1.00199 0.0
O694 O 0.52187 0.03846 0.00994 0.0
O695 O 0.49535 0.01313 0.9909 0.0
O696 O 0.54189 0.99282 0.98621 0.0
O697 O 0.49035 0.99554 0.97021 0.0
O698 O 0.50763 0.98359 0.04155 0.0
O699 O 0.49342 0.98519 0.0118 0.0
O700 O 0.50481 0.9568 1.0034 0.0
O701 O 0.53217 0.98243 0.02234 0.0
O702 O 0.48466 0.00407 0.02672 0.0
O703 O 0.52903 0.02059 0.04875 0.0
C704 C 0.55114 0.00959 0.99641 0.0
C705 C 0.49958 0.98743 0.9456 0.0
C706 C 0.50308 0.99406 0.9181 0.0
C707 C 0.51027 0.00289 0.93308 0.0
C708 C 0.48491 0.9694 0.91596 0.0
C709 C 0.48141 0.96301 0.94319 0.0
C710 C 0.47417 0.95407 0.92843 0.0
C711 C 0.50818 0.0346 0.99761 0.0
C712 C 0.50757 0.99727 0.96104 0.0
C713 C 0.43513 0.88629 0.975 0.0
C714 C 0.41775 0.89357 0.97839 0.0
C715 C 0.47516 0.98601 0.01732 0.0
C716 C 0.49742 0.99352 0.06548 0.0
C717 C 0.49957 0.98384 0.07946 0.0
C718 C 0.48271 0.97958 0.09146 0.0
C719 C 0.46349 0.98488 0.08903 0.0
C720 C 0.47829 0.99895 0.06358 0.0
C721 C 0.46134 0.99442 0.07522 0.0
C722 C 0.51972 0.96097 0.01524 0.0
C723 C 0.51552 0.99821 0.05317 0.0
H724 H 0.52397 0.02188 0.93505 0.0
H725 H 0.47922 0.9618 0.90465 0.0
H726 H 0.4728 0.95089 0.95266 0.0
H727 H 0.46022 0.93515 0.92663 0.0
H728 H 0.51437 0.97968 0.08097 0.0
H729 H 0.45047 0.98234 0.09798 0.0
H730 H 0.4765 0.007 0.05323 0.0
H731 H 0.44667 0.9987 0.07362 0.0
Tb732 Tb 0.02221 0.5108 0.99475 0.0
C733 C 0.92307 0.46609 0.02974 0.0
C734 C 0.91001 0.49616 0.02919 0.0
C735 C 0.87909 0.45314 0.03106 0.0
C736 C 0.92892 0.49004 0.02858 0.0
C737 C 0.89814 0.44733 0.03123 0.0
C738 C 0.88502 0.47755 0.03011 0.0
C739 C 0.91302 0.41896 0.03448 0.0
N740 N 0.94205 0.46133 0.03013 0.0
C741 C 0.93746 0.43825 0.03306 0.0
C742 C 0.89324 0.42346 0.03335 0.0
Tb743 Tb 0.98141 0.49401 0.02768 0.0
N744 N 0.9533 0.50745 0.02809 0.0
C745 C 0.96005 0.53148 0.02949 0.0
C746 C 0.91685 0.5208 0.02943 0.0
C747 C 0.942 0.53853 0.02984 0.0
H748 H 0.9526 0.43455 0.03386 0.0
H749 H 0.94753 0.55764 0.03045 0.0
H750 H 0.87021 0.48187 0.03044 0.0
H751 H 0.90947 0.40064 0.03642 0.0
H752 H 0.9794 0.54546 0.02991 0.0
H753 H 0.04635 0.43966 0.99624 0.0
H754 H 0.9029 0.52628 0.02981 0.0
H755 H 0.0566 0.56901 0.98602 0.0
H756 H 0.01808 0.45608 0.99481 0.0
H757 H 0.10118 0.59972 0.98387 0.0
H758 H 0.85979 0.439 0.03209 0.0
H759 H 0.09185 0.46756 0.99736 0.0
H760 H 0.1279 0.51058 0.99646 0.0
H761 H 0.87434 0.4085 0.03452 0.0
H762 H 0.14294 0.55437 0.99312 0.0
N763 N 0.04702 0.49335 0.99542 0.0
C764 C 0.03781 0.46869 0.99517 0.0
C765 C 0.07949 0.47496 0.99667 0.0
C766 C 0.08889 0.5001 0.99599 0.0
C767 C 0.05383 0.45918 0.996 0.0
C768 C 0.07194 0.50874 0.9952 0.0
H769 H 0.13308 0.58783 0.98816 0.0
N770 N 0.06317 0.54014 0.99188 0.0
C771 C 0.0956 0.58105 0.98664 0.0
C772 C 0.08034 0.53312 0.99341 0.0
C773 C 0.07035 0.56358 0.98782 0.0
C774 C 0.11354 0.57429 0.98912 0.0
C775 C 0.10599 0.54994 0.99226 0.0
O776 O 0.02182 0.52596 0.97351 0.0
O777 O 0.98974 0.50881 1.005 0.0
O778 O 0.95938 0.46943 0.00928 0.0
O779 O 0.99128 0.47261 0.99366 0.0
O780 O 0.01086 0.53799 0.99131 0.0
O781 O 0.01231 0.4884 0.97542 0.0
O782 O 0.98274 0.4795 0.04898 0.0
O783 O 0.01447 0.49752 0.0176 0.0
O784 O 0.0427 0.53879 0.0121 0.0
O785 O 0.01053 0.53282 0.02871 0.0
O786 O 0.99595 0.46901 0.03167 0.0
O787 O 0.98884 0.51606 0.04698 0.0
C788 C 0.9912 0.52785 0.99953 0.0
C789 C 0.02992 0.508 0.95233 0.0
C790 C 0.03196 0.50996 0.92469 0.0
C791 C 0.02033 0.51006 0.93833 0.0
C792 C 0.05354 0.50808 0.92518 0.0
C793 C 0.05171 0.5065 0.9527 0.0
C794 C 0.06347 0.50661 0.93915 0.0
C795 C 0.9676 0.46179 0.99787 0.0
C796 C 0.01593 0.50589 0.96622 0.0
C797 C 0.12312 0.54172 0.99379 0.0
C798 C 0.11456 0.5168 0.99567 0.0
C799 C 0.01575 0.48026 0.02365 0.0
C800 C 0.97222 0.49573 0.0701 0.0
C801 C 0.98185 0.49343 0.08403 0.0
C802 C 0.9698 0.49254 0.09769 0.0
C803 C 0.94773 0.49354 0.09732 0.0
C804 C 0.94995 0.49638 0.06985 0.0
C805 C 0.93775 0.49519 0.08342 0.0
C806 C 0.03386 0.54541 0.02379 0.0
C807 C 0.98668 0.49909 0.05622 0.0
H808 H 1.00336 0.51099 0.93803 0.0
H809 H 0.06278 0.50795 0.91477 0.0
H810 H 0.05935 0.50485 0.96338 0.0
H811 H 0.08018 0.50528 0.93947 0.0
H812 H 0.99918 0.49316 0.0843 0.0
H813 H 0.93823 0.49294 0.10776 0.0
H814 H 0.94225 0.49825 0.05926 0.0
H815 H 0.92068 0.49587 0.08318 0.0
Tb816 Tb 0.51368 0.48724 0.02366 0.0
C817 C 0.47209 0.53907 0.98418 0.0
C818 C 0.4274 0.51543 0.98667 0.0
C819 C 0.44746 0.55903 0.98214 0.0
C820 C 0.45092 0.51711 0.98671 0.0
C821 C 0.47069 0.5603 0.98163 0.0
C822 C 0.42582 0.5366 0.98464 0.0
C823 C 0.51502 0.58196 0.97732 0.0
N824 N 0.49406 0.53944 0.98377 0.0
C825 C 0.51537 0.56034 0.97981 0.0
C826 C 0.49261 0.58201 0.97839 0.0
Tb827 Tb 0.49319 0.50356 0.98906 0.0
N828 N 0.45335 0.49721 0.98872 0.0
C829 C 0.43259 0.47462 0.98962 0.0
C830 C 0.40622 0.49251 0.9884 0.0
C831 C 0.40883 0.47197 0.98969 0.0
H832 H 0.53285 0.56062 0.9791 0.0
H833 H 0.39255 0.45407 0.99082 0.0
H834 H 0.40795 0.53574 0.98472 0.0
H835 H 0.53204 0.59857 0.9746 0.0
H836 H 0.43408 0.45851 0.99076 0.0
H837 H 0.61422 0.53537 0.02077 0.0
H838 H 0.3878 0.49042 0.9885 0.0
H839 H 0.47364 0.43068 0.03449 0.0
H840 H 0.57296 0.53165 0.02126 0.0
H841 H 0.47402 0.39268 0.03953 0.0
H842 H 0.44598 0.57516 0.98033 0.0
H843 H 0.61833 0.49869 0.0233 0.0
H844 H 0.59768 0.45347 0.02768 0.0
H845 H 0.49237 0.59876 0.97643 0.0
H846 H 0.55947 0.41457 0.03282 0.0
N847 N 0.55327 0.493 0.02369 0.0
C848 C 0.57422 0.51541 0.02248 0.0
C849 C 0.60005 0.49691 0.02356 0.0
C850 C 0.5787 0.47421 0.02563 0.0
C851 C 0.5978 0.51765 0.02216 0.0
C852 C 0.55536 0.47292 0.02577 0.0
H853 H 0.51327 0.39178 0.03748 0.0
N854 N 0.51226 0.45119 0.02919 0.0
C855 C 0.49105 0.409 0.03643 0.0
C856 C 0.53406 0.45119 0.02863 0.0
C857 C 0.49095 0.43066 0.0336 0.0
C858 C 0.51323 0.40855 0.03523 0.0
C859 C 0.53518 0.4299 0.03148 0.0
O860 O 0.49685 0.48102 0.04516 0.0
O861 O 0.48722 0.495 0.01282 0.0
O862 O 0.50495 0.5335 1.00537 0.0
O863 O 0.53229 0.52699 0.02017 0.0
O864 O 0.47371 0.46837 0.02881 0.0
O865 O 0.53392 0.51101 0.04167 0.0
O866 O 0.50846 0.51162 0.967 0.0
O867 O 0.51981 0.49612 0.99987 0.0
O868 O 0.50176 0.45707 0.00765 0.0
O869 O 0.47472 0.46369 0.99255 0.0
O870 O 0.53306 0.52243 0.98373 0.0
O871 O 0.47472 0.4779 0.9717 0.0
C872 C 0.46764 0.48033 0.01971 0.0
C873 C 0.52328 0.49452 0.0665 0.0
C874 C 0.52225 0.498 0.09419 0.0
C875 C 0.51635 0.50254 0.07952 0.0
C876 C 0.53512 0.48505 0.09552 0.0
C877 C 0.5361 0.4817 0.06808 0.0
C878 C 0.54195 0.47699 0.08255 0.0
C879 C 0.52369 0.5411 0.01513 0.0
C880 C 0.5162 0.49921 0.05147 0.0
C881 C 0.55822 0.43077 0.03081 0.0
C882 C 0.57996 0.45291 0.02788 0.0
C883 C 0.53931 0.51065 0.99285 0.0
C884 C 0.48007 0.49305 0.94658 0.0
C885 C 0.49278 0.49394 0.93317 0.0
C886 C 0.4823 0.49322 0.91885 0.0
C887 C 0.45907 0.49189 0.91809 0.0
C888 C 0.45707 0.49218 0.94561 0.0
C889 C 0.44668 0.49163 0.93141 0.0
C890 C 0.48307 0.44949 0.99788 0.0
C891 C 0.49048 0.49146 0.96131 0.0
H892 H 0.50604 0.51207 0.07819 0.0
H893 H 0.54028 0.48149 0.10658 0.0
H894 H 0.54151 0.47531 0.05818 0.0
H895 H 0.55191 0.46713 0.08373 0.0
H896 H 0.51052 0.49455 0.93386 0.0
H897 H 0.45068 0.4914 0.90719 0.0
H898 H 0.44699 0.49156 0.95578 0.0
H899 H 0.42887 0.4908 0.93072 0.0
Tb900 Tb 0.16804 0.32655 0.32468 0.0
C901 C 0.22092 0.41095 0.37077 0.0
C902 C 0.2644 0.42332 0.36824 0.0
C903 C 0.25254 0.45292 0.37604 0.0
C904 C 0.23905 0.40534 0.36724 0.0
C905 C 0.22736 0.43465 0.37553 0.0
C906 C 0.27104 0.44726 0.37236 0.0
C907 C 0.18375 0.41992 0.37999 0.0
N908 N 0.1969 0.39277 0.37014 0.0
C909 C 0.17834 0.39668 0.37521 0.0
C910 C 0.20835 0.43907 0.37998 0.0
Tb911 Tb 0.18971 0.3555 0.36175 0.0
N912 N 0.23179 0.38197 0.36344 0.0
C913 C 0.24922 0.37499 0.36153 0.0
C914 C 0.28227 0.41654 0.3654 0.0
C915 C 0.27462 0.39219 0.36222 0.0
H916 H 0.15925 0.38206 0.37521 0.0
H917 H 0.28828 0.38665 0.36026 0.0
H918 H 0.29042 0.46139 0.37307 0.0
H919 H 0.16895 0.42303 0.38366 0.0
H920 H 0.24377 0.35632 0.35903 0.0
H921 H 0.07026 0.29898 0.32517 0.0
H922 H 0.30195 0.4298 0.36596 0.0
H923 H 0.19684 0.29746 0.31286 0.0
H924 H 0.11508 0.3281 0.32652 0.0
H925 H 0.18568 0.2555 0.30567 0.0
H926 H 0.2579 0.47132 0.37954 0.0
H927 H 0.05507 0.25526 0.3204 0.0
H928 H 0.06504 0.22218 0.31452 0.0
H929 H 0.21251 0.45703 0.38372 0.0
H930 H 0.09648 0.2103 0.30918 0.0
N931 N 0.12574 0.30125 0.32296 0.0
C932 C 0.10898 0.30918 0.32436 0.0
C933 C 0.07489 0.268 0.32096 0.0
C934 C 0.09209 0.26019 0.3187 0.0
C935 C 0.0834 0.29266 0.32362 0.0
C936 C 0.11766 0.27751 0.31969 0.0
H937 H 0.14157 0.22267 0.3057 0.0
N938 N 0.15948 0.28838 0.31733 0.0
C939 C 0.17128 0.25954 0.30883 0.0
C940 C 0.13519 0.27082 0.31676 0.0
C941 C 0.17753 0.28331 0.31286 0.0
C942 C 0.14637 0.24105 0.30889 0.0
C943 C 0.12791 0.24664 0.31267 0.0
O944 O 0.18634 0.33435 0.30356 0.0
O945 O 0.19749 0.35524 0.33784 0.0
O946 O 0.18573 0.38144 0.34769 0.0
O947 O 0.15881 0.3557 0.3287 0.0
O948 O 0.20771 0.33945 0.32141 0.0
O949 O 0.15483 0.33932 0.30696 0.0
O950 O 0.17022 0.3444 0.38243 0.0
O951 O 0.1603 0.32728 0.34838 0.0
O952 O 0.1712 0.30063 0.33952 0.0
O953 O 0.20019 0.32767 0.35703 0.0
O954 O 0.14981 0.34201 0.3652 0.0
O955 O 0.2043 0.34389 0.37938 0.0
C956 C 0.21627 0.3566 0.33141 0.0
C957 C 0.16152 0.32962 0.28206 0.0
C958 C 0.16396 0.33409 0.25435 0.0
C959 C 0.17248 0.34379 0.26904 0.0
C960 C 0.14423 0.3099 0.25301 0.0
C961 C 0.14182 0.30566 0.2804 0.0
C962 C 0.13326 0.29589 0.26594 0.0
C963 C 0.17016 0.37684 0.33619 0.0
C964 C 0.17103 0.34011 0.29724 0.0
C965 C 0.10249 0.22905 0.31217 0.0
C966 C 0.0846 0.23581 0.3152 0.0
C967 C 0.14136 0.32545 0.35483 0.0
C968 C 0.19388 0.34928 0.40446 0.0
C969 C 0.18373 0.33294 0.41666 0.0
C970 C 0.18992 0.34117 0.43183 0.0
C971 C 0.20645 0.36614 0.43449 0.0
C972 C 0.21034 0.37402 0.40741 0.0
C973 C 0.21654 0.38236 0.42236 0.0
C974 C 0.18707 0.30569 0.35089 0.0
C975 C 0.18658 0.34017 0.38879 0.0
H976 H 0.18747 0.36243 0.27041 0.0
H977 H 0.13748 0.30159 0.24196 0.0
H978 H 0.13305 0.29452 0.29022 0.0
H979 H 0.11812 0.27731 0.26475 0.0
H980 H 0.17077 0.31386 0.41432 0.0
H981 H 0.21198 0.3731 0.44595 0.0
H982 H 0.21838 0.38684 0.39819 0.0
H983 H 0.22932 0.40149 0.42457 0.0
Tb984 Tb 0.68714 0.84679 0.3283 0.0
C985 C 0.59282 0.80289 0.3684 0.0
C986 C 0.57616 0.83014 0.36806 0.0
C987 C 0.54845 0.78674 0.37183 0.0
C988 C 0.59638 0.826 0.36675 0.0
C989 C 0.56885 0.78294 0.37106 0.0
C990 C 0.55211 0.81033 0.37038 0.0
C991 C 0.58719 0.75724 0.37256 0.0
N992 N 0.61302 0.80005 0.36757 0.0
C993 C 0.61061 0.77762 0.36999 0.0
C994 C 0.56619 0.75987 0.37301 0.0
Tb995 Tb 0.65053 0.8345 0.36287 0.0
N996 N 0.61989 0.84459 0.36457 0.0
C997 C 0.62463 0.86811 0.36472 0.0
C998 C 0.5808 0.85409 0.36734 0.0
C999 C 0.60521 0.87319 0.36585 0.0
H1000 H 0.62653 0.77512 0.3695 0.0
H1001 H 0.60911 0.89184 0.36557 0.0
H1002 H 0.5363 0.8131 0.37127 0.0
H1003 H 0.58537 0.73949 0.37417 0.0
H1004 H 0.64333 0.88311 0.36367 0.0
H1005 H 0.71732 0.78026 0.33107 0.0
H1006 H 0.56579 0.85806 0.36825 0.0
H1007 H 0.71761 0.90471 0.31796 0.0
H1008 H 0.68676 0.79404 0.32999 0.0
H1009 H 0.7613 0.93723 0.31449 0.0
H1010 H 0.52986 0.77164 0.37378 0.0
H1011 H 0.76235 0.81028 0.33028 0.0
H1012 H 0.79633 0.85404 0.32754 0.0
H1013 H 0.54809 0.74405 0.37502 0.0
H1014 H 0.80837 0.89694 0.32314 0.0
N1015 N 0.71402 0.83181 0.32878 0.0
C1016 C 0.70627 0.80747 0.32948 0.0
C1017 C 0.74898 0.81649 0.3297 0.0
C1018 C 0.75677 0.84124 0.32817 0.0
C1019 C 0.72359 0.7995 0.33012 0.0
C1020 C 0.73858 0.84832 0.32758 0.0
H1021 H 0.79539 0.92816 0.31809 0.0
N1022 N 0.72697 0.87776 0.32398 0.0
C1023 C 0.75708 0.91903 0.31756 0.0
C1024 C 0.74533 0.87226 0.32521 0.0
C1025 C 0.73237 0.90056 0.31948 0.0
C1026 C 0.77627 0.91387 0.31965 0.0
C1027 C 0.77049 0.89011 0.32323 0.0
O1028 O 0.68331 0.85808 0.30654 0.0
O1029 O 0.65602 0.84585 0.33952 0.0
O1030 O 0.6269 0.80896 0.34544 0.0
O1031 O 0.65723 0.80803 0.33041 0.0
O1032 O 0.67231 0.87088 0.32263 0.0
O1033 O 0.6771 0.82178 0.31022 0.0
O1034 O 0.65792 0.82508 0.38435 0.0
O1035 O 0.6828 0.83725 0.35186 0.0
O1036 O 0.70851 0.87667 0.34442 0.0
O1037 O 0.67652 0.87375 0.35991 0.0
O1038 O 0.66654 0.81093 0.36758 0.0
O1039 O 0.65954 0.85958 0.38081 0.0
C1040 C 0.65442 0.86212 0.33225 0.0
C1041 C 0.69113 0.83898 0.28602 0.0
C1042 C 0.68846 0.83087 0.25878 0.0
C1043 C 0.67692 0.82922 0.2728 0.0
C1044 C 0.71456 0.8425 0.25819 0.0
C1045 C 0.71712 0.85035 0.28531 0.0
C1046 C 0.72876 0.85209 0.27142 0.0
C1047 C 0.63376 0.79857 0.33492 0.0
C1048 C 0.67823 0.83746 0.30026 0.0
C1049 C 0.78889 0.88347 0.32446 0.0
C1050 C 0.78203 0.85904 0.32693 0.0
C1051 C 0.68515 0.82103 0.35854 0.0
C1052 C 0.65023 0.84292 0.4056 0.0
C1053 C 0.6641 0.84401 0.41845 0.0
C1054 C 0.65435 0.84177 0.43315 0.0
C1055 C 0.6304 0.83866 0.43478 0.0
C1056 C 0.62631 0.83963 0.40738 0.0
C1057 C 0.6165 0.83756 0.42195 0.0
C1058 C 0.69954 0.88588 0.35449 0.0
C1059 C 0.66144 0.84522 0.39061 0.0
H1060 H 0.65684 0.8207 0.2734 0.0
H1061 H 0.72394 0.84391 0.24755 0.0
H1062 H 0.72837 0.85797 0.2954 0.0
H1063 H 0.74883 0.86091 0.27089 0.0
H1064 H 0.68271 0.84688 0.41696 0.0
H1065 H 0.62229 0.83671 0.44593 0.0
H1066 H 0.61531 0.8387 0.39759 0.0
H1067 H 0.59803 0.83502 0.42331 0.0
Tb1068 Tb 0.18128 0.83049 0.35905 0.0
C1069 C 0.11769 0.85569 0.31725 0.0
C1070 C 0.07615 0.82142 0.31982 0.0
C1071 C 0.08207 0.86128 0.31355 0.0
C1072 C 0.10218 0.83155 0.32054 0.0
C1073 C 0.10792 0.87077 0.31326 0.0
C1074 C 0.06618 0.83656 0.31674 0.0
C1075 C 0.14944 0.90188 0.30645 0.0
N1076 N 0.14234 0.86368 0.31642 0.0
C1077 C 0.15805 0.88595 0.31022 0.0
C1078 C 0.1243 0.89442 0.30824 0.0
Tb1079 Tb 0.15548 0.83713 0.32346 0.0
N1080 N 0.11267 0.81751 0.32275 0.0
C1081 C 0.09793 0.79267 0.32295 0.0
C1082 C 0.06101 0.79621 0.32136 0.0
C1083 C 0.07198 0.78173 0.3226 0.0
H1084 H 0.17743 0.89174 0.30851 0.0
H1085 H 0.06047 0.76211 0.32329 0.0
H1086 H 0.04624 0.82917 0.31628 0.0
H1087 H 0.16216 0.91979 0.30201 0.0
H1088 H 0.10593 0.78105 0.32386 0.0
H1089 H 0.27588 0.90582 0.36204 0.0
H1090 H 0.04093 0.78769 0.32097 0.0
H1091 H 0.15758 0.77176 0.36704 0.0
H1092 H 0.23055 0.88675 0.35973 0.0
H1093 H 0.17301 0.74357 0.37248 0.0
H1094 H 0.07417 0.87261 0.31067 0.0
H1095 H 0.29531 0.88031 0.36545 0.0
H1096 H 0.2899 0.83866 0.36939 0.0
H1097 H 0.11757 0.90661 0.30508 0.0
H1098 H 0.26192 0.79446 0.37217 0.0
N1099 N 0.22385 0.85033 0.36114 0.0
C1100 C 0.23851 0.87517 0.36114 0.0
C1101 C 0.27529 0.87174 0.36434 0.0
C1102 C 0.26014 0.84643 0.36525 0.0
C1103 C 0.26438 0.88618 0.36246 0.0
C1104 C 0.2342 0.8362 0.3636 0.0
H1105 H 0.21828 0.75883 0.37341 0.0
N1106 N 0.19375 0.80278 0.36438 0.0
C1107 C 0.18605 0.76264 0.37044 0.0
C1108 C 0.21858 0.81152 0.36528 0.0
C1109 C 0.17738 0.77875 0.36739 0.0
C1110 C 0.21161 0.77131 0.37091 0.0
C1111 C 0.22824 0.79609 0.36854 0.0
O1112 O 0.16354 0.81682 0.38 0.0
O1113 O 0.14917 0.82761 0.34728 0.0
O1114 O 0.15918 0.86674 0.33805 0.0
O1115 O 0.18653 0.86743 0.35685 0.0
O1116 O 0.14327 0.80047 0.36207 0.0
O1117 O 0.19175 0.85458 0.37772 0.0
O1118 O 0.17414 0.84815 0.30249 0.0
O1119 O 0.18751 0.84107 0.33562 0.0
O1120 O 0.18302 0.80586 0.34222 0.0
O1121 O 0.15012 0.80028 0.32671 0.0
O1122 O 0.19383 0.86662 0.31968 0.0
O1123 O 0.14309 0.81204 0.30527 0.0
C1124 C 0.13235 0.80825 0.35322 0.0
C1125 C 0.18605 0.83703 0.40213 0.0
C1126 C 0.18545 0.84288 0.42962 0.0
C1127 C 0.17732 0.84401 0.41483 0.0
C1128 C 0.20256 0.83466 0.43144 0.0
C1129 C 0.20316 0.82899 0.40421 0.0
C1130 C 0.21135 0.82783 0.41881 0.0
C1131 C 0.17479 0.87714 0.34962 0.0
C1132 C 0.17648 0.83768 0.38694 0.0
C1133 C 0.2541 0.806 0.36973 0.0
C1134 C 0.27002 0.83116 0.36816 0.0
C1135 C 0.20461 0.85991 0.32941 0.0
C1136 C 0.14943 0.82978 0.28091 0.0
C1137 C 0.16246 0.83062 0.26769 0.0
C1138 C 0.15416 0.83334 0.2533 0.0
C1139 C 0.13252 0.8352 0.25243 0.0
C1140 C 0.12786 0.83154 0.27977 0.0
C1141 C 0.1195 0.83424 0.26558 0.0
C1142 C 0.16578 0.79349 0.33181 0.0
C1143 C 0.15906 0.82771 0.29577 0.0
H1144 H 0.16386 0.84995 0.41318 0.0
H1145 H 0.20945 0.83384 0.44261 0.0
H1146 H 0.21006 0.82352 0.39459 0.0
H1147 H 0.22458 0.82163 0.42035 0.0
H1148 H 0.17894 0.82894 0.26865 0.0
H1149 H 0.12581 0.83772 0.2416 0.0
H1150 H 0.11754 0.83086 0.2898 0.0
H1151 H 0.10291 0.83573 0.26477 0.0
Tb1152 Tb 0.81917 0.64698 0.65552 0.0
C1153 C 0.88013 0.73817 0.69567 0.0
C1154 C 0.92189 0.74461 0.69629 0.0
C1155 C 0.91527 0.77915 0.6989 0.0
C1156 C 0.89601 0.72901 0.69474 0.0
C1157 C 0.88945 0.7633 0.69794 0.0
C1158 C 0.93147 0.76979 0.69816 0.0
C1159 C 0.84704 0.75484 0.69945 0.0
N1160 N 0.85539 0.72217 0.69501 0.0
C1161 C 0.83874 0.73002 0.69745 0.0
C1162 C 0.87252 0.77161 0.69955 0.0
Tb1163 Tb 0.84347 0.68205 0.69067 0.0
N1164 N 0.88592 0.70459 0.69315 0.0
C1165 C 0.90073 0.69436 0.69416 0.0
C1166 C 0.93725 0.73434 0.69634 0.0
C1167 C 0.92657 0.70906 0.69549 0.0
H1168 H 0.819 0.71728 0.69729 0.0
H1169 H 0.93822 0.70086 0.69585 0.0
H1170 H 0.95132 0.78211 0.69927 0.0
H1171 H 0.83377 0.76102 0.70092 0.0
H1172 H 0.89285 0.67487 0.69351 0.0
H1173 H 0.72339 0.62478 0.64968 0.0
H1174 H 0.95725 0.74568 0.69742 0.0
H1175 H 0.84561 0.6129 0.64991 0.0
H1176 H 0.76847 0.65187 0.65237 0.0
H1177 H 0.83231 0.56973 0.64596 0.0
H1178 H 0.92285 0.79855 0.70056 0.0
H1179 H 0.70587 0.58019 0.64766 0.0
H1180 H 0.71344 0.54483 0.64561 0.0
H1181 H 0.87891 0.7908 0.70121 0.0
H1182 H 0.74313 0.52983 0.64454 0.0
N1183 N 0.77683 0.62315 0.65264 0.0
C1184 C 0.76129 0.63255 0.65163 0.0
C1185 C 0.72577 0.59206 0.64894 0.0
C1186 C 0.74185 0.58262 0.64901 0.0
C1187 C 0.73559 0.61719 0.65005 0.0
C1188 C 0.76757 0.59888 0.65084 0.0
H1189 H 0.78752 0.53901 0.64458 0.0
N1190 N 0.8087 0.60713 0.65116 0.0
C1191 C 0.81853 0.57532 0.64709 0.0
C1192 C 0.78413 0.59054 0.65004 0.0
C1193 C 0.82599 0.59992 0.64928 0.0
C1194 C 0.79325 0.55803 0.64636 0.0
C1195 C 0.77567 0.56558 0.64764 0.0
O1196 O 0.83768 0.65098 0.63476 0.0
O1197 O 0.8506 0.67555 0.66769 0.0
O1198 O 0.84385 0.70661 0.67313 0.0
O1199 O 0.81242 0.67798 0.65733 0.0
O1200 O 0.85751 0.65457 0.65325 0.0
O1201 O 0.8092 0.66072 0.63669 0.0
O1202 O 0.82528 0.67907 0.71138 0.0
O1203 O 0.81222 0.65406 0.67836 0.0
O1204 O 0.81676 0.62197 0.67338 0.0
O1205 O 0.84827 0.64983 0.68949 0.0
O1206 O 0.80485 0.6738 0.69357 0.0
O1207 O 0.85316 0.66841 0.7097 0.0
C1208 C 0.86782 0.67269 0.66246 0.0
C1209 C 0.81587 0.64931 0.61231 0.0
C1210 C 0.81896 0.65564 0.58472 0.0
C1211 C 0.82689 0.66441 0.59965 0.0
C1212 C 0.79955 0.63141 0.5828 0.0
C1213 C 0.7966 0.62529 0.6101 0.0
C1214 C 0.78848 0.61645 0.5954 0.0
C1215 C 0.82624 0.70051 0.66273 0.0
C1216 C 0.82489 0.6591 0.62766 0.0
C1217 C 0.75003 0.5491 0.64632 0.0
C1218 C 0.73314 0.55764 0.64693 0.0
C1219 C 0.79474 0.65604 0.68405 0.0
C1220 C 0.84654 0.68025 0.73397 0.0
C1221 C 0.83878 0.66402 0.74628 0.0
C1222 C 0.8464 0.67259 0.76126 0.0
C1223 C 0.86196 0.69779 0.76363 0.0
C1224 C 0.86214 0.70525 0.73658 0.0
C1225 C 0.86977 0.71394 0.75137 0.0
C1226 C 0.83268 0.62729 0.68477 0.0
C1227 C 0.83764 0.67058 0.7186 0.0
H1228 H 0.84155 0.68308 0.60149 0.0
H1229 H 0.79318 0.62382 0.57155 0.0
H1230 H 0.78791 0.61341 0.6197 0.0
H1231 H 0.77365 0.59783 0.59374 0.0
H1232 H 0.8265 0.64472 0.74419 0.0
H1233 H 0.86846 0.70502 0.77494 0.0
H1234 H 0.86829 0.718 0.72723 0.0
H1235 H 0.88184 0.73326 0.75335 0.0
Tb1236 Tb 0.34769 0.16082 0.66068 0.0
C1237 C 0.26341 0.14747 0.70351 0.0
C1238 C 0.25746 0.18123 0.69712 0.0
C1239 C 0.22272 0.14362 0.70661 0.0
C1240 C 0.27277 0.17073 0.69814 0.0
C1241 C 0.23843 0.13374 0.70817 0.0
C1242 C 0.23223 0.16735 0.70106 0.0
C1243 C 0.24705 0.10252 0.71668 0.0
N1244 N 0.27923 0.13872 0.70484 0.0
C1245 C 0.27169 0.11691 0.7119 0.0
C1246 C 0.23024 0.11082 0.71462 0.0
Tb1247 Tb 0.31903 0.16298 0.69623 0.0
N1248 N 0.29722 0.18343 0.69451 0.0
C1249 C 0.30801 0.20762 0.6909 0.0
C1250 C 0.26812 0.20551 0.69252 0.0
C1251 C 0.2936 0.21886 0.68964 0.0
H1252 H 0.28448 0.11023 0.71346 0.0
H1253 H 0.30216 0.2378 0.68634 0.0
H1254 H 0.22008 0.17498 0.7002 0.0
H1255 H 0.24105 0.08503 0.72192 0.0
H1256 H 0.3276 0.21831 0.6885 0.0
H1257 H 0.36936 0.08837 0.66421 0.0
H1258 H 0.257 0.21424 0.6915 0.0
H1259 H 0.38047 0.21746 0.64793 0.0
H1260 H 0.34223 0.10629 0.66522 0.0
H1261 H 0.42343 0.24543 0.63957 0.0
H1262 H 0.20338 0.13329 0.70997 0.0
H1263 H 0.414 0.11423 0.65816 0.0
H1264 H 0.44916 0.15518 0.65032 0.0
H1265 H 0.21118 0.09968 0.71836 0.0
H1266 H 0.46392 0.19795 0.64361 0.0
N1267 N 0.3714 0.14243 0.66068 0.0
C1268 C 0.36172 0.11796 0.66277 0.0
C1269 C 0.40221 0.12229 0.65873 0.0
C1270 C 0.41168 0.14699 0.65561 0.0
C1271 C 0.37703 0.10764 0.66214 0.0
C1272 C 0.39557 0.15659 0.65664 0.0
H1273 H 0.45442 0.23175 0.63949 0.0
N1274 N 0.38717 0.18839 0.653 0.0
C1275 C 0.41815 0.22719 0.64324 0.0
C1276 C 0.40374 0.1804 0.6526 0.0
C1277 C 0.39379 0.21125 0.64795 0.0
C1278 C 0.4356 0.21943 0.64325 0.0
C1279 C 0.42841 0.19566 0.64776 0.0
O1280 O 0.34293 0.16835 0.63801 0.0
O1281 O 0.3204 0.16653 0.67196 0.0
O1282 O 0.29105 0.13123 0.68366 0.0
O1283 O 0.31571 0.12458 0.66629 0.0
O1284 O 0.3366 0.1875 0.65366 0.0
O1285 O 0.33156 0.13164 0.64522 0.0
O1286 O 0.32655 0.15637 0.71852 0.0
O1287 O 0.34531 0.1557 0.68487 0.0
O1288 O 0.37648 0.18892 0.67519 0.0
O1289 O 0.35136 0.19842 0.68983 0.0
O1290 O 0.32734 0.13459 0.70317 0.0
O1291 O 0.33552 0.19242 0.71154 0.0
C1292 C 0.31974 0.18231 0.6637 0.0
C1293 C 0.34506 0.14195 0.61976 0.0
C1294 C 0.34649 0.142 0.59204 0.0
C1295 C 0.33788 0.14682 0.60566 0.0
C1296 C 0.36268 0.13257 0.59268 0.0
C1297 C 0.36137 0.13265 0.62017 0.0
C1298 C 0.37018 0.12809 0.60669 0.0
C1299 C 0.29424 0.1177 0.67333 0.0
C1300 C 0.33444 0.1458 0.63375 0.0
C1301 C 0.44485 0.18652 0.64725 0.0
C1302 C 0.43645 0.16218 0.65108 0.0
C1303 C 0.34358 0.13854 0.69291 0.0
C1304 C 0.32487 0.18198 0.73732 0.0
C1305 C 0.33475 0.17887 0.75091 0.0
C1306 C 0.32648 0.18245 0.76503 0.0
C1307 C 0.30806 0.18915 0.76537 0.0
C1308 C 0.30628 0.18839 0.73784 0.0
C1309 C 0.29795 0.19196 0.75183 0.0
C1310 C 0.37347 0.20367 0.68453 0.0
C1311 C 0.3346 0.17874 0.72282 0.0
H1312 H 0.32507 0.15374 0.60528 0.0
H1313 H 0.36965 0.12882 0.58234 0.0
H1314 H 0.36709 0.12858 0.63083 0.0
H1315 H 0.38271 0.12088 0.60709 0.0
H1316 H 0.34923 0.17406 0.75049 0.0
H1317 H 0.30126 0.1919 0.7761 0.0
H1318 H 0.29832 0.19078 0.72749 0.0
H1319 H 0.28366 0.19696 0.75219 0.0
Tb1320 Tb 0.85254 0.1708 0.69188 0.0
C1321 C 0.80567 0.21856 0.65273 0.0
C1322 C 0.76152 0.19122 0.65553 0.0
C1323 C 0.77718 0.23426 0.65091 0.0
C1324 C 0.78614 0.1956 0.65538 0.0
C1325 C 0.80148 0.23812 0.65 0.0
C1326 C 0.7572 0.21081 0.65369 0.0
C1327 C 0.84504 0.26289 0.64396 0.0
N1328 N 0.82869 0.22133 0.65176 0.0
C1329 C 0.84812 0.24281 0.64664 0.0
C1330 C 0.82168 0.26066 0.6459 0.0
Tb1331 Tb 0.83255 0.18797 0.65722 0.0
N1332 N 0.79122 0.17729 0.65697 0.0
C1333 C 0.7721 0.15365 0.6575 0.0
C1334 C 0.74203 0.16724 0.65708 0.0
C1335 C 0.74734 0.14833 0.65781 0.0
H1336 H 0.86619 0.2447 0.64489 0.0
H1337 H 0.7324 0.12964 0.6587 0.0
H1338 H 0.73845 0.20789 0.65396 0.0
H1339 H 0.86066 0.28002 0.64033 0.0
H1340 H 0.77569 0.13874 0.6582 0.0
H1341 H 0.95212 0.22841 0.69811 0.0
H1342 H 0.72285 0.16308 0.65734 0.0
H1343 H 0.81666 0.11134 0.69745 0.0
H1344 H 0.90877 0.21945 0.69677 0.0
H1345 H 0.82174 0.07522 0.6994 0.0
H1346 H 0.77356 0.24909 0.64902 0.0
H1347 H 0.96159 0.19493 0.69637 0.0
H1348 H 0.94568 0.14978 0.69539 0.0
H1349 H 0.81928 0.27617 0.6437 0.0
H1350 H 0.91005 0.10788 0.69591 0.0
N1351 N 0.89355 0.18121 0.6937 0.0
C1352 C 0.91247 0.20457 0.69599 0.0
C1353 C 0.94246 0.19086 0.69573 0.0
C1354 C 0.92289 0.16681 0.69456 0.0
C1355 C 0.93718 0.20978 0.69677 0.0
C1356 C 0.89837 0.16257 0.69368 0.0
H1357 H 0.8637 0.07991 0.69787 0.0
N1358 N 0.85532 0.1362 0.69434 0.0
C1359 C 0.83786 0.09311 0.69785 0.0
C1360 C 0.8785 0.13915 0.69408 0.0
C1361 C 0.83507 0.11363 0.6968 0.0
C1362 C 0.86157 0.09581 0.69692 0.0
C1363 C 0.88231 0.11909 0.69523 0.0
O1364 O 0.83381 0.15696 0.71256 0.0
O1365 O 0.82526 0.17691 0.68068 0.0
O1366 O 0.84328 0.21813 0.67312 0.0
O1367 O 0.86636 0.21054 0.69149 0.0
O1368 O 0.81213 0.14824 0.69513 0.0
O1369 O 0.86718 0.19205 0.71172 0.0
O1370 O 0.85202 0.19538 0.63658 0.0
O1371 O 0.86088 0.18413 0.66899 0.0
O1372 O 0.84787 0.14529 0.67358 0.0
O1373 O 0.81812 0.14855 0.65946 0.0
O1374 O 0.87249 0.21173 0.65352 0.0
O1375 O 0.81465 0.16551 0.63818 0.0
C1376 C 0.80561 0.16055 0.68667 0.0
C1377 C 0.85894 0.1698 0.73456 0.0
C1378 C 0.8626 0.17157 0.76228 0.0
C1379 C 0.8538 0.17661 0.74878 0.0
C1380 C 0.87612 0.15924 0.76137 0.0
C1381 C 0.87245 0.15752 0.73398 0.0
C1382 C 0.88089 0.15221 0.74732 0.0
C1383 C 0.85886 0.22465 0.68486 0.0
C1384 C 0.85019 0.17556 0.72045 0.0
C1385 C 0.90668 0.12306 0.69521 0.0
C1386 C 0.92696 0.14691 0.6949 0.0
C1387 C 0.88003 0.20155 0.66308 0.0
C1388 C 0.82835 0.18418 0.61416 0.0
C1389 C 0.83313 0.17413 0.60124 0.0
C1390 C 0.83055 0.18141 0.58659 0.0
C1391 C 0.82295 0.19877 0.58501 0.0
C1392 C 0.82031 0.20114 0.61239 0.0
C1393 C 0.81766 0.20839 0.59785 0.0
C1394 C 0.82981 0.13673 0.66334 0.0
C1395 C 0.8335 0.17789 0.62927 0.0
H1396 H 0.84352 0.18627 0.7493 0.0
H1397 H 0.88299 0.15503 0.77157 0.0
H1398 H 0.87651 0.15206 0.72325 0.0
H1399 H 0.89131 0.14271 0.74676 0.0
H1400 H 0.83944 0.16108 0.60258 0.0
H1401 H 0.82075 0.20459 0.57383 0.0
H1402 H 0.81637 0.20896 0.62217 0.0
H1403 H 0.8116 0.2216 0.59655 0.0
H1404 H 0.33977 0.91017 0.0543 0.0
H1405 H 0.34386 0.84498 0.04486 0.0
H1406 H 0.38429 0.86995 0.03232 0.0
H1407 H 0.36844 0.94157 0.01896 0.0
H1408 H 0.38522 0.97118 0.02785 0.0
H1409 H 0.35604 0.94819 0.03566 0.0
H1410 H 0.37745 0.95263 0.06179 0.0
H1411 H 0.40659 0.97564 0.05399 0.0
H1412 H 0.40447 0.94908 0.06285 0.0
H1413 H 0.42534 0.90173 0.0227 0.0
H1414 H 0.46385 0.93835 0.01531 0.0
H1415 H 0.43334 0.9836 0.02944 0.0
C1416 C 0.34918 0.90117 0.04957 0.0
C1417 C 0.33853 0.87555 0.05049 0.0
C1418 C 0.3514 0.86448 0.04409 0.0
C1419 C 0.37445 0.87852 0.03701 0.0
C1420 C 0.3844 0.90365 0.03632 0.0
C1421 C 0.37221 0.91494 0.04234 0.0
C1422 C 0.38736 0.94237 0.0402 0.0
C1423 C 0.37342 0.95135 0.03006 0.0
C1424 C 0.39438 0.9557 0.05563 0.0
C1425 C 0.41005 0.94468 0.03221 0.0
C1426 C 0.4079 0.92208 0.03016 0.0
C1427 C 0.42699 0.91947 0.02392 0.0
C1428 C 0.44884 0.94049 0.01961 0.0
C1429 C 0.4513 0.96386 0.02111 0.0
C1430 C 0.43166 0.96592 0.02767 0.0
H1431 H 0.10274 0.43029 0.05605 0.0
H1432 H 0.16323 0.50529 0.05578 0.0
H1433 H 0.13497 0.51837 0.04524 0.0
H1434 H 0.07455 0.4341 0.02054 0.0
H1435 H 0.04305 0.41464 0.02683 0.0
H1436 H 0.0678 0.41064 0.03433 0.0
H1437 H 0.05598 0.41566 0.06175 0.0
H1438 H 0.03102 0.41945 0.05443 0.0
H1439 H 0.05428 0.44243 0.06669 0.0
H1440 H 0.10017 0.52383 0.03634 0.0
H1441 H 0.06134 0.52118 0.02789 0.0
H1442 H 0.02287 0.44258 0.03225 0.0
C1443 C 0.10996 0.44945 0.05377 0.0
C1444 C 0.13521 0.46681 0.05671 0.0
C1445 C 0.14405 0.49168 0.05347 0.0
C1446 C 0.12812 0.4993 0.04754 0.0
C1447 C 0.1034 0.4818 0.04478 0.0
C1448 C 0.09433 0.45737 0.04764 0.0
C1449 C 0.06693 0.44241 0.04344 0.0
C1450 C 0.06285 0.42438 0.03052 0.0
C1451 C 0.05112 0.42921 0.05742 0.0
C1452 C 0.06199 0.46234 0.03809 0.0
C1453 C 0.08335 0.48488 0.03899 0.0
C1454 C 0.08344 0.50622 0.03529 0.0
C1455 C 0.06121 0.50451 0.03032 0.0
C1456 C 0.03923 0.48161 0.02869 0.0
C1457 C 0.03956 0.46028 0.03296 0.0
H1458 H 0.52718 0.66109 0.046 0.0
H1459 H 0.60086 0.68312 0.06359 0.0
H1460 H 0.59967 0.64785 0.05089 0.0
H1461 H 0.50204 0.5985 0.05091 0.0
H1462 H 0.48379 0.58927 0.03368 0.0
H1463 H 0.49118 0.61759 0.04278 0.0
H1464 H 0.511 0.64087 0.01782 0.0
H1465 H 0.5034 0.61247 0.00867 0.0
H1466 H 0.53506 0.63734 0.00879 0.0
H1467 H 0.58918 0.60866 0.03872 0.0
H1468 H 0.57025 0.5678 0.02716 0.0
H1469 H 0.50373 0.57115 0.01649 0.0
C1470 C 0.54326 0.65877 0.04687 0.0
C1471 C 0.56408 0.67477 0.05584 0.0
C1472 C 0.5846 0.6709 0.05695 0.0
C1473 C 0.58419 0.65105 0.04968 0.0
C1474 C 0.56322 0.63534 0.0412 0.0
C1475 C 0.54319 0.639 0.03963 0.0
C1476 C 0.52237 0.61844 0.03059 0.0
C1477 C 0.49844 0.60517 0.04006 0.0
C1478 C 0.5177 0.62786 0.01557 0.0
C1479 C 0.53362 0.60238 0.02776 0.0
C1480 C 0.55727 0.61263 0.03388 0.0
C1481 C 0.57084 0.60059 0.03366 0.0
C1482 C 0.55986 0.57732 0.02713 0.0
C1483 C 0.53558 0.56635 0.02088 0.0
C1484 C 0.52248 0.57925 0.02098 0.0
H1485 H 0.85931 0.32762 0.97487 0.0
H1486 H 0.86474 0.35553 0.92919 0.0
H1487 H 0.89631 0.39643 0.93797 0.0
H1488 H 0.86752 0.38319 0.9946 0.0
H1489 H 0.88526 0.38031 0.00985 0.0
H1490 H 0.86182 0.35348 1.00016 0.0
H1491 H 0.89493 0.34107 0.99427 0.0
H1492 H 0.91841 0.36811 1.00373 0.0
H1493 H 0.92286 0.36207 0.9843 0.0
H1494 H 0.92967 0.43334 0.95088 0.0
H1495 H 0.96073 0.46515 0.96792 0.0
H1496 H 0.93327 0.41455 1.00554 0.0
C1497 C 0.86677 0.34244 0.96679 0.0
C1498 C 0.85971 0.33822 0.95127 0.0
C1499 C 0.87016 0.35813 0.94106 0.0
C1500 C 0.88803 0.3815 0.94594 0.0
C1501 C 0.8951 0.3849 0.96117 0.0
C1502 C 0.88461 0.36607 0.97152 0.0
C1503 C 0.89609 0.37475 0.98719 0.0
C1504 C 0.8765 0.37282 0.99862 0.0
C1505 C 0.90883 0.36066 0.99269 0.0
C1506 C 0.915 0.40117 0.98388 0.0
C1507 C 0.91406 0.40658 0.96877 0.0
C1508 C 0.93041 0.42942 0.96276 0.0
C1509 C 0.9481 0.44728 0.97247 0.0
C1510 C 0.94919 0.44226 0.988 0.0
C1511 C 0.93242 0.41895 0.99378 0.0
H1512 H 0.67261 0.55376 0.95765 0.0
H1513 H 0.6562 0.47882 0.96016 0.0
H1514 H 0.61662 0.46743 0.97319 0.0
H1515 H 0.64613 0.55465 0.99467 0.0
H1516 H 0.63426 0.57377 0.98807 0.0
H1517 H 0.66184 0.5762 0.97964 0.0
H1518 H 0.64126 0.56821 0.95296 0.0
H1519 H 0.61373 0.56588 0.96132 0.0
H1520 H 0.61146 0.54124 0.94983 0.0
H1521 H 0.57711 0.46371 0.98422 0.0
H1522 H 0.54176 0.46839 0.99267 0.0
H1523 H 0.58479 0.54592 0.98395 0.0
C1524 C 0.66069 0.53496 0.96095 0.0
C1525 C 0.66749 0.51717 0.95786 0.0
C1526 C 0.65148 0.4928 0.96252 0.0
C1527 C 0.62894 0.48615 0.96991 0.0
C1528 C 0.62277 0.50413 0.97274 0.0
C1529 C 0.63827 0.52807 0.96849 0.0
C1530 C 0.62714 0.54382 0.97258 0.0
C1531 C 0.64332 0.56326 0.98445 0.0
C1532 C 0.62316 0.55546 0.95832 0.0
C1533 C 0.60264 0.5249 0.97937 0.0
C1534 C 0.60048 0.50212 0.97948 0.0
C1535 C 0.57883 0.48156 0.98446 0.0
C1536 C 0.55889 0.4844 0.98937 0.0
C1537 C 0.56092 0.50766 0.98949 0.0
C1538 C 0.58306 0.52805 0.98437 0.0
H1539 H 0.48413 0.14459 0.97993 0.0
H1540 H 0.49833 0.13481 0.93273 0.0
H1541 H 0.51195 0.10646 0.9407 0.0
H1542 H 0.53376 0.13683 0.99749 0.0
H1543 H 0.51447 0.11919 0.0131 0.0
H1544 H 0.50946 0.14206 1.00432 0.0
H1545 H 0.46338 0.10971 0.99918 0.0
H1546 H 0.46822 0.08684 0.008 0.0
H1547 H 0.45619 0.08229 0.98888 0.0
H1548 H 0.52097 0.07706 0.95285 0.0
H1549 H 0.52191 0.04555 0.96857 0.0
H1550 H 0.49869 0.07052 0.00785 0.0
C1551 C 0.49021 0.13667 0.97122 0.0
C1552 C 0.49057 0.14265 0.95565 0.0
C1553 C 0.49869 0.13157 0.94476 0.0
C1554 C 0.50635 0.11518 0.94916 0.0
C1555 C 0.50555 0.10963 0.96449 0.0
C1556 C 0.49751 0.1198 0.97538 0.0
C1557 C 0.49608 0.10863 0.99088 0.0
C1558 C 0.51455 0.12783 1.00211 0.0
C1559 C 0.46938 0.09612 0.99709 0.0
C1560 C 0.50391 0.09015 0.98682 0.0
C1561 C 0.50973 0.0915 0.97156 0.0
C1562 C 0.5165 0.07583 0.96481 0.0
C1563 C 0.51675 0.05785 0.97379 0.0
C1564 C 0.51005 0.05549 0.98929 0.0
C1565 C 0.50411 0.07217 0.99603 0.0
H1566 H 0.65521 0.13703 0.96378 0.0
H1567 H 0.70217 0.10451 0.96127 0.0
H1568 H 0.6712 0.06915 0.97581 0.0
H1569 H 0.6302 0.11457 1.00216 0.0
H1570 H 0.59905 0.10791 0.99767 0.0
H1571 H 0.62534 0.13246 0.98818 0.0
H1572 H 0.60753 0.11393 0.96185 0.0
H1573 H 0.58051 0.08984 0.97095 0.0
H1574 H 0.59838 0.08256 0.95803 0.0
H1575 H 0.63395 0.03554 0.9876 0.0
H1576 H 0.59166 0.00489 0.99569 0.0
H1577 H 0.56808 0.05844 0.9918 0.0
C1578 C 0.6591 0.12265 0.96658 0.0
C1579 C 0.68113 0.1235 0.96141 0.0
C1580 C 0.68538 0.10414 0.96502 0.0
C1581 C 0.66799 0.08408 0.97339 0.0
C1582 C 0.64635 0.08356 0.97814 0.0
C1583 C 0.64172 0.10225 0.97488 0.0
C1584 C 0.61596 0.09601 0.98032 0.0
C1585 C 0.61773 0.11379 0.99283 0.0
C1586 C 0.59964 0.09555 0.96699 0.0
C1587 C 0.60663 0.07063 0.98668 0.0
C1588 C 0.62468 0.06403 0.98543 0.0
C1589 C 0.61988 0.04068 0.98902 0.0
C1590 C 0.59586 0.02341 0.99362 0.0
C1591 C 0.57703 0.02961 0.9949 0.0
C1592 C 0.58254 0.05363 0.9916 0.0
H1593 H 0.86391 0.50523 0.96269 0.0
H1594 H 0.89653 0.5838 0.96391 0.0
H1595 H 0.93185 0.58751 0.97893 0.0
H1596 H 0.88386 0.49862 1.00068 0.0
H1597 H 0.89161 0.4757 0.9953 0.0
H1598 H 0.86724 0.47772 0.98541 0.0
H1599 H 0.88859 0.48257 0.95961 0.0
H1600 H 0.91257 0.47935 0.96897 0.0
H1601 H 0.92076 0.50569 0.95737 0.0
H1602 H 0.96526 0.58357 0.99118 0.0
H1603 H 0.9958 0.57213 0.9999 0.0
H1604 H 0.94231 0.49597 0.99165 0.0
C1605 C 0.87833 0.52312 0.96638 0.0
C1606 C 0.87754 0.54427 0.96222 0.0
C1607 C 0.89689 0.56743 0.96696 0.0
C1608 C 0.91692 0.5697 0.97556 0.0
C1609 C 0.91738 0.54861 0.97934 0.0
C1610 C 0.89872 0.52574 0.97488 0.0
C1611 C 0.90492 0.50629 0.97953 0.0
C1612 C 0.88578 0.48852 0.99092 0.0
C1613 C 0.90683 0.49268 0.96554 0.0
C1614 C 0.93016 0.52191 0.98701 0.0
C1615 C 0.9368 0.54625 0.98684 0.0
C1616 C 0.9601 0.56456 0.99172 0.0
C1617 C 0.9773 0.55793 0.99664 0.0
C1618 C 0.97104 0.53321 0.99691 0.0
C1619 C 0.94709 0.5149 0.99217 0.0
H1620 H 0.47355 0.32373 0.97425 0.0
H1621 H 0.39752 0.29909 0.96014 0.0
H1622 H 0.4012 0.33724 0.96997 0.0
H1623 H 0.47188 0.35566 0.00962 0.0
H1624 H 0.50369 0.37947 1.00705 0.0
H1625 H 0.49371 0.34907 1.00031 0.0
H1626 H 0.51013 0.36696 0.97349 0.0
H1627 H 0.5192 0.39711 0.98027 0.0
H1628 H 0.49835 0.38452 0.96426 0.0
H1629 H 0.41439 0.37942 0.97867 0.0
H1630 H 0.43541 0.42214 0.98741 0.0
H1631 H 0.50224 0.41887 0.99712 0.0
C1632 C 0.45744 0.32604 0.97361 0.0
C1633 C 0.43526 0.30844 0.96637 0.0
C1634 C 0.4148 0.31244 0.96546 0.0
C1635 C 0.41664 0.33398 0.97109 0.0
C1636 C 0.43896 0.3512 0.97779 0.0
C1637 C 0.4589 0.34738 0.97928 0.0
C1638 C 0.48117 0.36938 0.9863 0.0
C1639 C 0.48799 0.363 1.00175 0.0
C1640 C 0.50352 0.38012 0.97543 0.0
C1641 C 0.47077 0.38632 0.98819 0.0
C1642 C 0.44639 0.37545 0.98321 0.0
C1643 C 0.43333 0.38801 0.98284 0.0
C1644 C 0.44549 0.41233 0.98773 0.0
C1645 C 0.47038 0.42376 0.99301 0.0
C1646 C 0.48306 0.41047 0.99335 0.0
H1647 H 0.14328 0.68247 0.0399 0.0
H1648 H 0.12608 0.66681 0.0878 0.0
H1649 H 0.09413 0.62484 0.08135 0.0
H1650 H 0.0816 0.64755 0.0258 0.0
H1651 H 0.08962 0.63618 0.00922 0.0
H1652 H 0.11199 0.66507 0.01742 0.0
H1653 H 0.14371 0.65005 0.02004 0.0
H1654 H 0.12142 0.62117 0.01177 0.0
H1655 H 0.13492 0.62216 0.03008 0.0
H1656 H 0.0626 0.58567 0.07004 0.0
H1657 H 0.03447 0.55017 0.05438 0.0
H1658 H 0.07225 0.58959 0.01366 0.0
C1659 C 0.13304 0.67011 0.04903 0.0
C1660 C 0.137 0.67816 0.06437 0.0
C1661 C 0.12303 0.66137 0.07596 0.0
C1662 C 0.10495 0.63738 0.07243 0.0
C1663 C 0.10116 0.63021 0.05725 0.0
C1664 C 0.11492 0.64589 0.04571 0.0
C1665 C 0.10672 0.63333 0.03032 0.0
C1666 C 0.0969 0.64631 0.02009 0.0
C1667 C 0.12796 0.63158 0.0226 0.0
C1668 C 0.08594 0.60837 0.03507 0.0
C1669 C 0.08314 0.60708 0.05067 0.0
C1670 C 0.0647 0.58637 0.05782 0.0
C1671 C 0.04865 0.56636 0.0488 0.0
C1672 C 0.05115 0.56709 0.03279 0.0
C1673 C 0.07016 0.58836 0.02586 0.0
H1674 H 0.33234 0.43548 0.05212 0.0
H1675 H 0.3481 0.51022 0.04965 0.0
H1676 H 0.38842 0.52219 0.03739 0.0
H1677 H 0.39296 0.44839 0.06131 0.0
H1678 H 0.39172 0.42411 0.04993 0.0
H1679 H 0.36354 0.42129 0.05756 0.0
H1680 H 0.34462 0.41365 0.03042 0.0
H1681 H 0.37283 0.41656 0.02269 0.0
H1682 H 0.36106 0.43555 0.01568 0.0
H1683 H 0.42881 0.52654 0.02745 0.0
H1684 H 0.46485 0.52239 0.01989 0.0
H1685 H 0.4219 0.44465 0.02789 0.0
C1686 C 0.34424 0.45435 0.04895 0.0
C1687 C 0.3371 0.47193 0.05186 0.0
C1688 C 0.35309 0.4964 0.04741 0.0
C1689 C 0.37605 0.50338 0.04047 0.0
C1690 C 0.38262 0.48562 0.03788 0.0
C1691 C 0.36706 0.46156 0.04187 0.0
C1692 C 0.37867 0.44609 0.03818 0.0
C1693 C 0.38192 0.43429 0.0526 0.0
C1694 C 0.36338 0.42682 0.02602 0.0
C1695 C 0.4035 0.4653 0.03194 0.0
C1696 C 0.40543 0.48799 0.03175 0.0
C1697 C 0.42727 0.50876 0.02725 0.0
C1698 C 0.44762 0.50623 0.02286 0.0
C1699 C 0.44579 0.48306 0.02276 0.0
C1700 C 0.42349 0.46246 0.02745 0.0
H1701 H 0.55896 0.88696 0.07184 0.0
H1702 H 0.52578 0.82771 0.03884 0.0
H1703 H 0.51471 0.85227 0.0227 0.0
H1704 H 0.5163 0.90871 0.06741 0.0
H1705 H 0.53955 0.94055 0.06856 0.0
H1706 H 0.54453 0.91824 0.07809 0.0
H1707 H 0.58614 0.93371 0.06376 0.0
H1708 H 0.58133 0.95614 0.05422 0.0
H1709 H 0.58638 0.93492 0.04328 0.0
H1710 H 0.50433 0.88129 0.01103 0.0
H1711 H 0.49957 0.91548 1.00271 0.0
H1712 H 0.54429 0.95885 0.04097 0.0
C1713 C 0.54961 0.87918 0.06116 0.0
C1714 C 0.54274 0.855 0.05689 0.0
C1715 C 0.53047 0.84571 0.04276 0.0
C1716 C 0.52429 0.85963 0.03338 0.0
C1717 C 0.53098 0.8831 0.03803 0.0
C1718 C 0.54373 0.89306 0.05142 0.0
C1719 C 0.54927 0.91914 0.05338 0.0
C1720 C 0.53666 0.9218 0.06771 0.0
C1721 C 0.57746 0.93703 0.05367 0.0
C1722 C 0.53739 0.92204 0.03905 0.0
C1723 C 0.52672 0.90085 0.03052 0.0
C1724 C 0.51323 0.89825 0.01736 0.0
C1725 C 0.51084 0.91798 0.01262 0.0
C1726 C 0.52247 0.94037 0.02073 0.0
C1727 C 0.53578 0.94228 0.03423 0.0
H1728 H 0.00543 0.24459 0.38922 0.0
H1729 H 0.01338 0.18141 0.38042 0.0
H1730 H 0.05326 0.20756 0.36755 0.0
H1731 H 0.03355 0.27597 0.35308 0.0
H1732 H 0.04868 0.30574 0.36182 0.0
H1733 H 0.01976 0.28186 0.36939 0.0
H1734 H 0.04051 0.2878 0.39588 0.0
H1735 H 0.06942 0.31164 0.38836 0.0
H1736 H 0.06839 0.28583 0.39763 0.0
H1737 H 0.09392 0.24059 0.35824 0.0
H1738 H 0.13206 0.27828 0.35194 0.0
H1739 H 0.09781 0.32062 0.3651 0.0
C1740 C 0.01552 0.2363 0.38448 0.0
C1741 C 0.00625 0.21095 0.38575 0.0
C1742 C 0.01995 0.20072 0.37939 0.0
C1743 C 0.04264 0.21543 0.37209 0.0
C1744 C 0.05131 0.24031 0.37108 0.0
C1745 C 0.03814 0.25071 0.37697 0.0
C1746 C 0.05214 0.27811 0.37472 0.0
C1747 C 0.03766 0.28587 0.36412 0.0
C1748 C 0.05796 0.29163 0.39006 0.0
C1749 C 0.07557 0.28152 0.36714 0.0
C1750 C 0.07457 0.25943 0.36508 0.0
C1751 C 0.09464 0.25794 0.35939 0.0
C1752 C 0.11632 0.27959 0.35568 0.0
C1753 C 0.11767 0.30246 0.35731 0.0
C1754 C 0.09699 0.30334 0.36322 0.0
H1755 H 0.77286 0.77157 0.38984 0.0
H1756 H 0.83466 0.84565 0.38674 0.0
H1757 H 0.80648 0.85884 0.37609 0.0
H1758 H 0.74237 0.77315 0.35465 0.0
H1759 H 0.71141 0.75484 0.36208 0.0
H1760 H 0.73639 0.75082 0.36912 0.0
H1761 H 0.72726 0.7586 0.39664 0.0
H1762 H 0.70213 0.76246 0.38977 0.0
H1763 H 0.72674 0.78616 0.40098 0.0
H1764 H 0.77104 0.8646 0.36754 0.0
H1765 H 0.73153 0.86194 0.3601 0.0
H1766 H 0.69265 0.78396 0.36754 0.0
C1767 C 0.78045 0.79056 0.38691 0.0
C1768 C 0.80603 0.80758 0.38914 0.0
C1769 C 0.81525 0.83222 0.385 0.0
C1770 C 0.79935 0.83991 0.379 0.0
C1771 C 0.77425 0.82273 0.37705 0.0
C1772 C 0.76487 0.79851 0.38074 0.0
C1773 C 0.73713 0.78377 0.37749 0.0
C1774 C 0.7315 0.7645 0.3651 0.0
C1775 C 0.72245 0.77206 0.39209 0.0
C1776 C 0.73228 0.80357 0.37177 0.0
C1777 C 0.75397 0.8259 0.37159 0.0
C1778 C 0.75406 0.84711 0.36734 0.0
C1779 C 0.73148 0.84539 0.363 0.0
C1780 C 0.70914 0.8226 0.36258 0.0
C1781 C 0.70957 0.80152 0.36733 0.0
H1782 H 0.20381 0.98781 0.40577 0.0
H1783 H 0.22645 0.03395 0.36581 0.0
H1784 H 0.2166 0.9984 0.34969 0.0
H1785 H 0.22888 0.94936 0.3933 0.0
H1786 H 0.20362 0.92201 0.40129 0.0
H1787 H 0.21277 0.95119 0.40984 0.0
H1788 H 0.16757 0.94273 0.40706 0.0
H1789 H 0.15839 0.91364 0.39837 0.0
H1790 H 0.15291 0.93547 0.38859 0.0
H1791 H 0.2038 0.95836 0.33778 0.0
H1792 H 0.19058 0.91592 0.33088 0.0
H1793 H 0.17634 0.89503 0.3782 0.0
C1794 C 0.207 0.99047 0.39366 0.0
C1795 C 0.21566 0.01365 0.38704 0.0
C1796 C 0.21937 0.01631 0.37111 0.0
C1797 C 0.21396 0.99626 0.36186 0.0
C1798 C 0.20501 0.97364 0.36869 0.0
C1799 C 0.20175 0.97059 0.38421 0.0
C1800 C 0.19183 0.94416 0.38856 0.0
C1801 C 0.21039 0.94153 0.39885 0.0
C1802 C 0.16615 0.93337 0.39609 0.0
C1803 C 0.18994 0.93292 0.37302 0.0
C1804 C 0.19757 0.95031 0.36175 0.0
C1805 C 0.19752 0.94451 0.34648 0.0
C1806 C 0.18954 0.92027 0.34261 0.0
C1807 C 0.18158 0.90215 0.35391 0.0
C1808 C 0.18202 0.90858 0.36933 0.0
H1809 H 0.57404 0.67338 0.28718 0.0
H1810 H 0.5021 0.66232 0.30114 0.0
H1811 H 0.5227 0.70199 0.31433 0.0
H1812 H 0.60626 0.70135 0.32153 0.0
H1813 H 0.63487 0.72317 0.31253 0.0
H1814 H 0.61469 0.69441 0.30336 0.0
H1815 H 0.61286 0.71702 0.27935 0.0
H1816 H 0.63311 0.74587 0.28844 0.0
H1817 H 0.60333 0.73952 0.28111 0.0
H1818 H 0.55029 0.74155 0.32664 0.0
H1819 H 0.58374 0.77955 0.33754 0.0
H1820 H 0.63881 0.76608 0.31615 0.0
C1821 C 0.56268 0.67951 0.29286 0.0
C1822 C 0.53645 0.66467 0.29324 0.0
C1823 C 0.52221 0.6732 0.3009 0.0
C1824 C 0.53372 0.69577 0.30834 0.0
C1825 C 0.55954 0.70974 0.30799 0.0
C1826 C 0.57393 0.70211 0.30043 0.0
C1827 C 0.60143 0.72057 0.30231 0.0
C1828 C 0.61512 0.70919 0.31042 0.0
C1829 C 0.61338 0.73138 0.28688 0.0
C1830 C 0.60013 0.7395 0.31229 0.0
C1831 C 0.57571 0.73284 0.31529 0.0
C1832 C 0.5695 0.74699 0.32437 0.0
C1833 C 0.58873 0.76853 0.33061 0.0
C1834 C 0.614 0.77576 0.32788 0.0
C1835 C 0.61972 0.76107 0.31847 0.0
H1836 H 0.31714 0.84281 0.30088 0.0
H1837 H 0.35776 0.92111 0.29441 0.0
H1838 H 0.32431 0.92438 0.3073 0.0
H1839 H 0.25723 0.83478 0.29312 0.0
H1840 H 0.24167 0.81099 0.30697 0.0
H1841 H 0.26996 0.81575 0.29839 0.0
H1842 H 0.28797 0.81961 0.32542 0.0
H1843 H 0.26036 0.81677 0.33409 0.0
H1844 H 0.29037 0.84314 0.33801 0.0
H1845 H 0.2854 0.91919 0.31847 0.0
H1846 H 0.24242 0.90566 0.32658 0.0
H1847 H 0.22601 0.83069 0.32658 0.0
C1848 C 0.31912 0.86065 0.30245 0.0
C1849 C 0.34011 0.88175 0.29666 0.0
C1850 C 0.34183 0.90472 0.29867 0.0
C1851 C 0.32299 0.90677 0.30608 0.0
C1852 C 0.30241 0.88568 0.31146 0.0
C1853 C 0.30024 0.86301 0.30972 0.0
C1854 C 0.27521 0.84311 0.31555 0.0
C1855 C 0.26013 0.82512 0.30274 0.0
C1856 C 0.27867 0.82986 0.32908 0.0
C1857 C 0.26347 0.85811 0.32051 0.0
C1858 C 0.27972 0.88266 0.31817 0.0
C1859 C 0.27269 0.90009 0.32064 0.0
C1860 C 0.24827 0.89226 0.32526 0.0
C1861 C 0.23115 0.86727 0.32761 0.0
C1862 C 0.23896 0.84998 0.3254 0.0
H1863 H 0.10664 0.43913 0.289 0.0
H1864 H 0.16019 0.50755 0.31034 0.0
H1865 H 0.1776 0.48626 0.32473 0.0
H1866 H 0.09591 0.40086 0.32146 0.0
H1867 H 0.09394 0.3758 0.31057 0.0
H1868 H 0.0852 0.39621 0.30202 0.0
H1869 H 0.1166 0.40511 0.28023 0.0
H1870 H 0.12538 0.38466 0.2887 0.0
H1871 H 0.14876 0.41573 0.28478 0.0
H1872 H 0.18958 0.45808 0.33661 0.0
H1873 H 0.19593 0.42466 0.34501 0.0
H1874 H 0.13508 0.37423 0.31585 0.0
C1875 C 0.12213 0.44967 0.29662 0.0
C1876 C 0.13186 0.47501 0.29864 0.0
C1877 C 0.15204 0.48806 0.30883 0.0
C1878 C 0.16219 0.47617 0.31698 0.0
C1879 C 0.15207 0.45122 0.3148 0.0
C1880 C 0.13257 0.43808 0.30484 0.0
C1881 C 0.12541 0.41143 0.30453 0.0
C1882 C 0.09852 0.39512 0.30997 0.0
C1883 C 0.12928 0.40379 0.28861 0.0
C1884 C 0.14395 0.41171 0.31587 0.0
C1885 C 0.1591 0.43486 0.32165 0.0
C1886 C 0.17776 0.43983 0.33222 0.0
C1887 C 0.18111 0.42064 0.33699 0.0
C1888 C 0.16583 0.39669 0.33124 0.0
C1889 C 0.14702 0.39227 0.32052 0.0
H1890 H 0.34913 0.43367 0.29263 0.0
H1891 H 0.34374 0.4983 0.30135 0.0
H1892 H 0.30448 0.47342 0.31518 0.0
H1893 H 0.28444 0.39293 0.28617 0.0
H1894 H 0.28395 0.3674 0.29547 0.0
H1895 H 0.31213 0.39048 0.28676 0.0
H1896 H 0.3356 0.3973 0.31236 0.0
H1897 H 0.30736 0.37433 0.32114 0.0
H1898 H 0.324 0.40457 0.32918 0.0
H1899 H 0.26453 0.44129 0.32667 0.0
H1900 H 0.2267 0.40409 0.33475 0.0
H1901 H 0.25848 0.36032 0.31983 0.0
C1902 C 0.33963 0.44254 0.29743 0.0
C1903 C 0.34956 0.46796 0.29596 0.0
C1904 C 0.33665 0.47891 0.30249 0.0
C1905 C 0.31432 0.46494 0.31035 0.0
C1906 C 0.30515 0.44 0.31173 0.0
C1907 C 0.31738 0.42886 0.30547 0.0
C1908 C 0.3032 0.40164 0.30835 0.0
C1909 C 0.29547 0.38727 0.29329 0.0
C1910 C 0.31846 0.39402 0.31835 0.0
C1911 C 0.28085 0.39918 0.31686 0.0
C1912 C 0.28242 0.42154 0.31877 0.0
C1913 C 0.26332 0.42372 0.3255 0.0
C1914 C 0.24191 0.40245 0.3302 0.0
C1915 C 0.23995 0.37934 0.32843 0.0
C1916 C 0.25978 0.37782 0.32172 0.0
H1917 H 0.52306 0.83883 0.3028 0.0
H1918 H 0.55666 0.91746 0.30234 0.0
H1919 H 0.59313 0.92158 0.31623 0.0
H1920 H 0.54761 0.83422 0.34044 0.0
H1921 H 0.55415 0.8107 0.33456 0.0
H1922 H 0.52869 0.81254 0.32605 0.0
H1923 H 0.54628 0.81532 0.2992 0.0
H1924 H 0.57128 0.81238 0.30728 0.0
H1925 H 0.5781 0.83798 0.29529 0.0
H1926 H 0.6279 0.91794 0.32667 0.0
H1927 H 0.65948 0.90664 0.33315 0.0
H1928 H 0.60436 0.83025 0.32791 0.0
C1929 C 0.53787 0.85682 0.30601 0.0
C1930 C 0.53703 0.87788 0.30165 0.0
C1931 C 0.55697 0.90117 0.30564 0.0
C1932 C 0.57768 0.90366 0.31359 0.0
C1933 C 0.57826 0.88266 0.3175 0.0
C1934 C 0.55894 0.85964 0.31388 0.0
C1935 C 0.56553 0.84031 0.3182 0.0
C1936 C 0.54796 0.82344 0.33055 0.0
C1937 C 0.56529 0.82564 0.30416 0.0
C1938 C 0.59178 0.85615 0.32437 0.0
C1939 C 0.59855 0.88052 0.32397 0.0
C1940 C 0.62264 0.89893 0.32745 0.0
C1941 C 0.64044 0.89238 0.33112 0.0
C1942 C 0.63406 0.86764 0.33161 0.0
C1943 C 0.60934 0.84923 0.32836 0.0
H1944 H 0.10372 0.65507 0.30511 0.0
H1945 H 0.16238 0.6792 0.27158 0.0
H1946 H 0.18203 0.721 0.28217 0.0
H1947 H 0.09809 0.70845 0.30375 0.0
H1948 H 0.09198 0.70841 0.32378 0.0
H1949 H 0.08339 0.68018 0.31411 0.0
H1950 H 0.10931 0.67135 0.33353 0.0
H1951 H 0.11813 0.69968 0.34318 0.0
H1952 H 0.14173 0.69346 0.33634 0.0
H1953 H 0.1951 0.76007 0.29621 0.0
H1954 H 0.19842 0.79467 0.31129 0.0
H1955 H 0.13069 0.7457 0.33507 0.0
C1956 C 0.12079 0.66917 0.3001 0.0
C1957 C 0.13164 0.66401 0.28758 0.0
C1958 C 0.15375 0.68291 0.28113 0.0
C1959 C 0.16512 0.7066 0.28713 0.0
C1960 C 0.15401 0.7111 0.29951 0.0
C1961 C 0.1322 0.693 0.30582 0.0
C1962 C 0.12337 0.703 0.31853 0.0
C1963 C 0.09769 0.69983 0.31481 0.0
C1964 C 0.12313 0.69116 0.3338 0.0
C1965 C 0.1435 0.72957 0.31828 0.0
C1966 C 0.16122 0.73377 0.30738 0.0
C1967 C 0.18146 0.75696 0.30485 0.0
C1968 C 0.18338 0.77642 0.31352 0.0
C1969 C 0.16515 0.77251 0.32444 0.0
C1970 C 0.14502 0.74887 0.3269 0.0
H1971 H 0.82499 0.00354 0.38255 0.0
H1972 H 0.77784 0.03077 0.39952 0.0
H1973 H 0.74128 0.99582 0.3878 0.0
H1974 H 0.79082 0.97811 0.3462 0.0
H1975 H 0.79481 0.95185 0.34687 0.0
H1976 H 0.81793 0.98028 0.35527 0.0
H1977 H 0.81316 0.95835 0.38092 0.0
H1978 H 0.78998 0.92999 0.37256 0.0
H1979 H 0.78281 0.94144 0.38944 0.0
H1980 H 0.70972 0.95725 0.37627 0.0
H1981 H 0.68415 0.91621 0.36552 0.0
H1982 H 0.75079 0.91276 0.35558 0.0
C1983 C 0.807 0.00228 0.38353 0.0
C1984 C 0.80416 0.01977 0.39197 0.0
C1985 C 0.78033 0.01741 0.39324 0.0
C1986 C 0.7595 0.99775 0.38653 0.0
C1987 C 0.76279 0.9806 0.37853 0.0
C1988 C 0.78587 0.98258 0.37693 0.0
C1989 C 0.78372 0.96061 0.36852 0.0
C1990 C 0.79765 0.96818 0.35331 0.0
C1991 C 0.79296 0.94679 0.37845 0.0
C1992 C 0.75581 0.94583 0.36603 0.0
C1993 C 0.74424 0.95792 0.37178 0.0
C1994 C 0.71853 0.94765 0.3716 0.0
C1995 C 0.70415 0.92423 0.36554 0.0
C1996 C 0.71544 0.91125 0.35975 0.0
C1997 C 0.74167 0.92238 0.35977 0.0
H1998 H 0.01918 0.82408 0.38315 0.0
H1999 H 0.97774 0.74527 0.38668 0.0
H2000 H 0.01205 0.74296 0.37428 0.0
H2001 H 0.04757 0.82672 0.34662 0.0
H2002 H 0.07788 0.85233 0.35105 0.0
H2003 H 0.05042 0.84967 0.35986 0.0
H2004 H 0.0671 0.85116 0.38673 0.0
H2005 H 0.09566 0.85562 0.3786 0.0
H2006 H 0.07858 0.83098 0.39169 0.0
H2007 H 0.05163 0.74881 0.36425 0.0
H2008 H 0.09466 0.76257 0.35624 0.0
H2009 H 0.1115 0.83769 0.35778 0.0
C2010 C 0.01725 0.80638 0.38104 0.0
C2011 C 0.99576 0.7848 0.38586 0.0
C2012 C 0.99405 0.76198 0.38315 0.0
C2013 C 0.01341 0.76049 0.37606 0.0
C2014 C 0.03448 0.78199 0.37169 0.0
C2015 C 0.03665 0.80454 0.37404 0.0
C2016 C 0.06206 0.82479 0.3689 0.0
C2017 C 0.05936 0.83926 0.35582 0.0
C2018 C 0.07671 0.84162 0.38228 0.0
C2019 C 0.07385 0.81003 0.36353 0.0
C2020 C 0.05746 0.78537 0.36528 0.0
C2021 C 0.06446 0.76801 0.3625 0.0
C2022 C 0.08892 0.77598 0.35798 0.0
C2023 C 0.10606 0.80104 0.35593 0.0
C2024 C 0.09842 0.81835 0.35867 0.0
H2025 H 0.22232 0.206 0.37627 0.0
H2026 H 0.18189 0.19922 0.41786 0.0
H2027 H 0.16924 0.22761 0.40771 0.0
H2028 H 0.24565 0.26897 0.37101 0.0
H2029 H 0.24254 0.26734 0.3506 0.0
H2030 H 0.24712 0.24516 0.36061 0.0
H2031 H 0.20698 0.21034 0.34834 0.0
H2032 H 0.20225 0.23245 0.3383 0.0
H2033 H 0.17809 0.21035 0.35034 0.0
H2034 H 0.16289 0.25807 0.394 0.0
H2035 H 0.16356 0.28968 0.37737 0.0
H2036 H 0.20743 0.27689 0.34428 0.0
C2037 C 0.21047 0.2102 0.38312 0.0
C2038 C 0.20312 0.20046 0.39788 0.0
C2039 C 0.18798 0.20671 0.40661 0.0
C2040 C 0.18053 0.22265 0.4009 0.0
C2041 C 0.18829 0.23211 0.3864 0.0
C2042 C 0.20287 0.22615 0.37758 0.0
C2043 C 0.20956 0.23987 0.36265 0.0
C2044 C 0.2379 0.25631 0.36114 0.0
C2045 C 0.19856 0.22219 0.3491 0.0
C2046 C 0.19683 0.2548 0.3646 0.0
C2047 C 0.18452 0.24982 0.37837 0.0
C2048 C 0.17225 0.26197 0.38315 0.0
C2049 C 0.1728 0.27989 0.37369 0.0
C2050 C 0.18551 0.28546 0.35968 0.0
C2051 C 0.19741 0.27262 0.35493 0.0
H2052 H 0.68516 0.53089 0.71508 0.0
H2053 H 0.64146 0.56689 0.71726 0.0
H2054 H 0.67401 0.60178 0.70308 0.0
H2055 H 0.74309 0.58336 0.72171 0.0
H2056 H 0.76033 0.57492 0.70904 0.0
H2057 H 0.73232 0.55167 0.71775 0.0
H2058 H 0.71501 0.53423 0.6911 0.0
H2059 H 0.7424 0.55812 0.68207 0.0
H2060 H 0.71203 0.55326 0.6771 0.0
H2061 H 0.71266 0.63446 0.69168 0.0
H2062 H 0.75589 0.6636 0.68421 0.0
H2063 H 0.77501 0.60689 0.68863 0.0
C2064 C 0.6823 0.54593 0.71227 0.0
C2065 C 0.66078 0.54622 0.71721 0.0
C2066 C 0.65786 0.5664 0.71363 0.0
C2067 C 0.67615 0.58619 0.70548 0.0
C2068 C 0.6973 0.58556 0.70095 0.0
C2069 C 0.70057 0.56602 0.70422 0.0
C2070 C 0.72606 0.571 0.69917 0.0
C2071 C 0.74134 0.5702 0.71273 0.0
C2072 C 0.72375 0.55309 0.6866 0.0
C2073 C 0.73684 0.59666 0.69302 0.0
C2074 C 0.71975 0.60453 0.69399 0.0
C2075 C 0.72602 0.62835 0.69049 0.0
C2076 C 0.75055 0.64475 0.68626 0.0
C2077 C 0.7684 0.63721 0.68534 0.0
C2078 C 0.76139 0.61278 0.68854 0.0
H2079 H 0.47475 0.1554 0.71796 0.0
H2080 H 0.43524 0.07763 0.72667 0.0
H2081 H 0.39733 0.07404 0.71516 0.0
H2082 H 0.42481 0.1651 0.72713 0.0
H2083 H 0.43153 0.1875 0.71257 0.0
H2084 H 0.45618 0.18368 0.72036 0.0
H2085 H 0.46726 0.17716 0.69334 0.0
H2086 H 0.44175 0.17916 0.68507 0.0
H2087 H 0.44453 0.15245 0.68188 0.0
H2088 H 0.36283 0.07922 0.70579 0.0
H2089 H 0.33348 0.09287 0.6982 0.0
H2090 H 0.39469 0.16695 0.6941 0.0
C2091 C 0.45821 0.13759 0.71717 0.0
C2092 C 0.45789 0.11677 0.72322 0.0
C2093 C 0.43581 0.09382 0.72222 0.0
C2094 C 0.41424 0.09158 0.71562 0.0
C2095 C 0.41499 0.11244 0.71 0.0
C2096 C 0.43634 0.13503 0.71066 0.0
C2097 C 0.43149 0.15469 0.70458 0.0
C2098 C 0.43628 0.17387 0.7169 0.0
C2099 C 0.44718 0.16658 0.69036 0.0
C2100 C 0.40399 0.13963 0.70069 0.0
C2101 C 0.39496 0.11528 0.70391 0.0
C2102 C 0.36974 0.09809 0.70284 0.0
C2103 C 0.35323 0.10597 0.69854 0.0
C2104 C 0.362 0.13069 0.69504 0.0
C2105 C 0.38773 0.14775 0.69604 0.0
H2106 H 0.88098 0.33179 0.74179 0.0
H2107 H 0.91807 0.38169 0.70458 0.0
H2108 H 0.91349 0.34749 0.68872 0.0
H2109 H 0.90712 0.29168 0.73448 0.0
H2110 H 0.87861 0.26446 0.73939 0.0
H2111 H 0.88647 0.29311 0.74829 0.0
H2112 H 0.84432 0.28807 0.73942 0.0
H2113 H 0.8364 0.2595 0.73046 0.0
H2114 H 0.83626 0.28341 0.71951 0.0
H2115 H 0.9026 0.30804 0.67637 0.0
H2116 H 0.88629 0.26531 0.66832 0.0
H2117 H 0.85638 0.24058 0.71335 0.0
C2118 C 0.88858 0.33556 0.73041 0.0
C2119 C 0.89987 0.35939 0.72439 0.0
C2120 C 0.90915 0.36354 0.70935 0.0
C2121 C 0.90678 0.34428 0.7003 0.0
C2122 C 0.89518 0.32097 0.70647 0.0
C2123 C 0.88633 0.31649 0.72119 0.0
C2124 C 0.87351 0.28948 0.72475 0.0
C2125 C 0.88725 0.28439 0.73748 0.0
C2126 C 0.84599 0.27954 0.72877 0.0
C2127 C 0.87616 0.2795 0.70964 0.0
C2128 C 0.88885 0.29803 0.69929 0.0
C2129 C 0.89273 0.29338 0.68437 0.0
C2130 C 0.88319 0.26911 0.67985 0.0
C2131 C 0.86989 0.24991 0.69017 0.0
C2132 C 0.86667 0.25511 0.70531 0.0
H2133 H 0.21887 0.99443 0.62509 0.0
H2134 H 0.15157 0.98622 0.64562 0.0
H2135 H 0.17675 0.02331 0.66092 0.0
H2136 H 0.25789 0.01705 0.65846 0.0
H2137 H 0.28515 0.0385 0.64814 0.0
H2138 H 0.26198 0.01089 0.63898 0.0
H2139 H 0.2575 0.03624 0.61745 0.0
H2140 H 0.28073 0.0639 0.62651 0.0
H2141 H 0.25049 0.05984 0.62222 0.0
H2142 H 0.20891 0.06182 0.67349 0.0
H2143 H 0.24583 0.09952 0.68218 0.0
H2144 H 0.29255 0.08294 0.65364 0.0
C2145 C 0.2094 1.00048 0.63273 0.0
C2146 C 0.18318 0.98722 0.63421 0.0
C2147 C 0.17161 0.99574 0.64447 0.0
C2148 C 0.18575 0.01689 0.65317 0.0
C2149 C 0.21149 0.02941 0.65149 0.0
C2150 C 0.22324 0.0216 0.64151 0.0
C2151 C 0.25117 0.03871 0.64173 0.0
C2152 C 0.26485 0.02549 0.64715 0.0
C2153 C 0.26052 0.05036 0.62604 0.0
C2154 C 0.25322 0.05737 0.65332 0.0
C2155 C 0.23011 0.05162 0.65883 0.0
C2156 C 0.22714 0.0664 0.66936 0.0
C2157 C 0.24832 0.08776 0.67432 0.0
C2158 C 0.27227 0.09417 0.6688 0.0
C2159 C 0.27462 0.07857 0.65821 0.0
H2160 H 0.987 0.18175 0.62907 0.0
H2161 H 0.03747 0.25804 0.63918 0.0
H2162 H 0.00394 0.26028 0.65286 0.0
H2163 H 0.93279 0.18541 0.62267 0.0
H2164 H 0.91173 0.15711 0.63189 0.0
H2165 H 0.94001 0.1612 0.62357 0.0
H2166 H 0.95181 0.15038 0.64933 0.0
H2167 H 0.92413 0.14723 0.65812 0.0
H2168 H 0.95435 0.1681 0.66599 0.0
H2169 H 0.96437 0.25601 0.66199 0.0
H2170 H 0.92106 0.24463 0.66793 0.0
H2171 H 0.89616 0.16991 0.65496 0.0
C2172 C 0.99089 0.1988 0.6343 0.0
C2173 C 0.0147 0.21982 0.63308 0.0
C2174 C 0.01932 0.24182 0.64005 0.0
C2175 C 1.00044 0.24322 0.64786 0.0
C2176 C 0.97715 0.22227 0.64889 0.0
C2177 C 0.97229 0.20036 0.64249 0.0
C2178 C 0.94536 0.1808 0.64509 0.0
C2179 C 0.93167 0.17054 0.6299 0.0
C2180 C 0.94381 0.16041 0.65524 0.0
C2181 C 0.93567 0.19546 0.65333 0.0
C2182 C 0.95443 0.21935 0.65538 0.0
C2183 C 0.94969 0.23721 0.66096 0.0
C2184 C 0.9251 0.23061 0.66433 0.0
C2185 C 0.90567 0.20623 0.66265 0.0
C2186 C 0.911 0.18835 0.65719 0.0
H2187 H 0.84519 0.82801 0.63345 0.0
H2188 H 0.76514 0.79037 0.62731 0.0
H2189 H 0.76149 0.75407 0.63991 0.0
H2190 H 0.85291 0.77875 0.62489 0.0
H2191 H 0.87667 0.78485 0.63882 0.0
H2192 H 0.87325 0.80948 0.63148 0.0
H2193 H 0.86813 0.82157 0.65886 0.0
H2194 H 0.8718 0.79705 0.66626 0.0
H2195 H 0.84466 0.799 0.67105 0.0
H2196 H 0.76637 0.72078 0.64994 0.0
H2197 H 0.77949 0.69184 0.658 0.0
H2198 H 0.8566 0.74984 0.65821 0.0
C2199 C 0.82692 0.81232 0.63521 0.0
C2200 C 0.80538 0.81187 0.62951 0.0
C2201 C 0.78178 0.79094 0.63162 0.0
C2202 C 0.77953 0.77032 0.63881 0.0
C2203 C 0.80107 0.77096 0.64389 0.0
C2204 C 0.82434 0.7914 0.64237 0.0
C2205 C 0.84453 0.78628 0.64782 0.0
C2206 C 0.86292 0.79006 0.63498 0.0
C2207 C 0.85808 0.80191 0.66183 0.0
C2208 C 0.82897 0.75957 0.652 0.0
C2209 C 0.80395 0.75131 0.64978 0.0
C2210 C 0.78588 0.72705 0.65188 0.0
C2211 C 0.79354 0.71068 0.65627 0.0
C2212 C 0.81903 0.71857 0.6585 0.0
C2213 C 0.83697 0.74343 0.65662 0.0
H2214 H 0.97877 0.79695 0.6304 0.0
H2215 H 0.02071 0.75917 0.62745 0.0
H2216 H 0.98748 0.72432 0.64127 0.0
H2217 H 0.95222 0.7747 0.66808 0.0
H2218 H 0.92202 0.77065 0.66348 0.0
H2219 H 0.94947 0.79406 0.65422 0.0
H2220 H 0.93112 0.77678 0.62775 0.0
H2221 H 0.90307 0.75394 0.63668 0.0
H2222 H 0.91954 0.74497 0.62373 0.0
H2223 H 0.94893 0.69245 0.65318 0.0
H2224 H 0.90599 0.66429 0.66152 0.0
H2225 H 0.88828 0.72205 0.65752 0.0
C2226 C 0.98104 0.78145 0.63288 0.0
C2227 C 1.00234 0.78073 0.62786 0.0
C2228 C 0.00449 0.76 0.63107 0.0
C2229 C 0.98582 0.74022 0.63904 0.0
C2230 C 0.96503 0.74139 0.64374 0.0
C2231 C 0.96238 0.76135 0.64073 0.0
C2232 C 0.93725 0.75704 0.64611 0.0
C2233 C 0.94042 0.77519 0.65873 0.0
C2234 C 0.92184 0.75824 0.63277 0.0
C2235 C 0.92601 0.73132 0.65227 0.0
C2236 C 0.94258 0.72284 0.65093 0.0
C2237 C 0.93597 0.699 0.65458 0.0
C2238 C 0.9116 0.68316 0.65932 0.0
C2239 C 0.89419 0.69124 0.66058 0.0
C2240 C 0.90157 0.71574 0.65724 0.0
H2241 H 0.23968 0.23683 0.62699 0.0
H2242 H 0.17389 0.16875 0.63909 0.0
H2243 H 0.20033 0.15487 0.65132 0.0
H2244 H 0.27841 0.21207 0.61801 0.0
H2245 H 0.30635 0.23688 0.62612 0.0
H2246 H 0.28236 0.24224 0.6189 0.0
H2247 H 0.28017 0.26015 0.645 0.0
H2248 H 0.30411 0.25477 0.65234 0.0
H2249 H 0.27464 0.2422 0.66192 0.0
H2250 H 0.23338 0.14692 0.66041 0.0
H2251 H 0.27115 0.14609 0.66709 0.0
H2252 H 0.31653 0.21974 0.65045 0.0
C2253 C 0.23089 0.21904 0.63226 0.0
C2254 C 0.20468 0.20391 0.63215 0.0
C2255 C 0.19386 0.1808 0.63922 0.0
C2256 C 0.20873 0.1727 0.64614 0.0
C2257 C 0.23443 0.18798 0.64602 0.0
C2258 C 0.24549 0.21073 0.63938 0.0
C2259 C 0.27364 0.22332 0.64077 0.0
C2260 C 0.28591 0.22895 0.62501 0.0
C2261 C 0.28373 0.24649 0.65059 0.0
C2262 C 0.27661 0.20378 0.64881 0.0
C2263 C 0.25368 0.18364 0.65177 0.0
C2264 C 0.25142 0.16281 0.65847 0.0
C2265 C 0.27314 0.16259 0.6624 0.0
C2266 C 0.29691 0.18322 0.65997 0.0
C2267 C 0.2986 0.20395 0.65283 0.0
H2268 H 0.84208 0.02425 0.63222 0.0
H2269 H 0.76807 0.99597 0.61322 0.0
H2270 H 0.76551 0.03013 0.62474 0.0
H2271 H 0.83093 0.04735 0.66828 0.0
H2272 H 0.86174 0.07371 0.66822 0.0
H2273 H 0.85625 0.04578 0.6594 0.0
H2274 H 0.87553 0.07031 0.63457 0.0
H2275 H 0.87973 0.09773 0.64352 0.0
H2276 H 0.86207 0.08696 0.62613 0.0
H2277 H 0.77147 0.06788 0.63684 0.0
H2278 H 0.78538 0.10736 0.64941 0.0
H2279 H 0.85545 0.11175 0.66125 0.0
C2280 C 0.82525 0.02513 0.6307 0.0
C2281 C 0.80529 0.00754 0.62177 0.0
C2282 C 0.78367 0.00942 0.61985 0.0
C2283 C 0.78198 0.02866 0.62642 0.0
C2284 C 0.80205 0.04588 0.63494 0.0
C2285 C 0.82327 0.04436 0.63716 0.0
C2286 C 0.84249 0.06599 0.64634 0.0
C2287 C 0.84815 0.05769 0.66146 0.0
C2288 C 0.86636 0.08114 0.63708 0.0
C2289 C 0.8287 0.07983 0.64885 0.0
C2290 C 0.80543 0.06783 0.64215 0.0
C2291 C 0.78956 0.07738 0.64227 0.0
C2292 C 0.79768 0.09988 0.6494 0.0
C2293 C 0.82143 0.11259 0.65639 0.0
C2294 C 0.83706 0.10229 0.65619 0.0
H2295 H 0.44764 0.33165 0.72822 0.0
H2296 H 0.51587 0.33497 0.71329 0.0
H2297 H 0.49132 0.29568 0.69992 0.0
H2298 H 0.4132 0.26653 0.73481 0.0
H2299 H 0.38413 0.26295 0.72805 0.0
H2300 H 0.40705 0.29139 0.7365 0.0
H2301 H 0.40658 0.31433 0.71229 0.0
H2302 H 0.38373 0.28595 0.70376 0.0
H2303 H 0.41256 0.30525 0.69406 0.0
H2304 H 0.45946 0.25593 0.68819 0.0
H2305 H 0.42249 0.21835 0.6792 0.0
H2306 H 0.37486 0.24079 0.70162 0.0
C2307 C 0.45742 0.32401 0.72225 0.0
C2308 C 0.48373 0.33653 0.72175 0.0
C2309 C 0.49576 0.32598 0.71365 0.0
C2310 C 0.48198 0.30358 0.70608 0.0
C2311 C 0.45613 0.29186 0.70669 0.0
C2312 C 0.44394 0.30165 0.71459 0.0
C2313 C 0.41595 0.28532 0.71339 0.0
C2314 C 0.40441 0.276 0.72912 0.0
C2315 C 0.40401 0.2985 0.7054 0.0
C2316 C 0.41437 0.26486 0.70359 0.0
C2317 C 0.43775 0.26898 0.69986 0.0
C2318 C 0.44105 0.25255 0.69099 0.0
C2319 C 0.41988 0.23128 0.68587 0.0
C2320 C 0.39568 0.22663 0.68955 0.0
C2321 C 0.39303 0.24376 0.69853 0.0
H2322 H 0.66919 0.11272 0.7188 0.0
H2323 H 0.68388 0.18715 0.71699 0.0
H2324 H 0.72477 0.20005 0.70524 0.0
H2325 H 0.72965 0.1261 0.72872 0.0
H2326 H 0.72935 0.10246 0.71711 0.0
H2327 H 0.70064 0.09886 0.72439 0.0
H2328 H 0.68277 0.09198 0.69702 0.0
H2329 H 0.71146 0.09559 0.68962 0.0
H2330 H 0.69956 0.11448 0.68264 0.0
H2331 H 0.76571 0.20536 0.69592 0.0
H2332 H 0.80217 0.2021 0.68822 0.0
H2333 H 0.76014 0.12402 0.69515 0.0
C2334 C 0.68097 0.13171 0.71585 0.0
C2335 C 0.67339 0.14896 0.71882 0.0
C2336 C 0.68922 0.1736 0.71467 0.0
C2337 C 0.7125 0.1811 0.70805 0.0
C2338 C 0.71955 0.16369 0.70548 0.0
C2339 C 0.70412 0.13944 0.70909 0.0
C2340 C 0.71624 0.12442 0.70541 0.0
C2341 C 0.71914 0.11225 0.71976 0.0
C2342 C 0.70164 0.1055 0.69293 0.0
C2343 C 0.7412 0.14409 0.69961 0.0
C2344 C 0.74274 0.16662 0.69967 0.0
C2345 C 0.7645 0.18773 0.69553 0.0
C2346 C 0.78509 0.1857 0.69109 0.0
C2347 C 0.78364 0.16269 0.69057 0.0
C2348 C 0.76149 0.14174 0.69507 0.0
H2349 H 0.87255 0.53242 0.71226 0.0
H2350 H 0.83281 0.52617 0.75407 0.0
H2351 H 0.8179 0.55248 0.74329 0.0
H2352 H 0.893 0.59413 0.70565 0.0
H2353 H 0.88935 0.59129 0.68529 0.0
H2354 H 0.89527 0.57036 0.69575 0.0
H2355 H 0.85548 0.53398 0.68424 0.0
H2356 H 0.84941 0.55484 0.67374 0.0
H2357 H 0.82605 0.53288 0.68625 0.0
H2358 H 0.80986 0.5817 0.72888 0.0
H2359 H 0.80946 0.61226 0.71161 0.0
H2360 H 0.85346 0.59899 0.67892 0.0
C2361 C 0.86029 0.53617 0.71903 0.0
C2362 C 0.85384 0.52723 0.73402 0.0
C2363 C 0.83821 0.53301 0.74263 0.0
C2364 C 0.82948 0.54777 0.73656 0.0
C2365 C 0.83641 0.55649 0.72183 0.0
C2366 C 0.85138 0.55086 0.71313 0.0
C2367 C 0.8572 0.56372 0.69793 0.0
C2368 C 0.88537 0.58089 0.69606 0.0
C2369 C 0.84639 0.54525 0.68476 0.0
C2370 C 0.84361 0.57785 0.69957 0.0
C2371 C 0.83156 0.57324 0.71341 0.0
C2372 C 0.81889 0.58516 0.71793 0.0
C2373 C 0.81875 0.60243 0.7081 0.0
C2374 C 0.83109 0.60744 0.69399 0.0
C2375 C 0.84346 0.59492 0.68957 0.0
H2376 H 0.43625 0.91383 0.17221 0.0
H2377 H 0.51386 0.9491 0.18591 0.0
H2378 H 0.52639 0.96614 0.1602 0.0
H2379 H 0.44475 0.89905 0.13367 0.0
H2380 H 0.42184 0.90538 0.12568 0.0
H2381 H 0.41886 0.89506 0.14503 0.0
H2382 H 0.41718 0.93304 0.15433 0.0
H2383 H 0.42006 0.9434 0.13502 0.0
H2384 H 0.44189 0.963 0.14926 0.0
H2385 H 0.53064 0.98053 0.13304 0.0
H2386 H 0.52604 0.99216 0.107 0.0
H2387 H 0.44578 0.94752 0.1108 0.0
C2388 C 0.45588 0.92521 0.16986 0.0
C2389 C 0.47402 0.92986 0.18118 0.0
C2390 C 0.49954 0.94476 0.17745 0.0
C2391 C 0.50688 0.95467 0.16286 0.0
C2392 C 0.48856 0.94963 0.15199 0.0
C2393 C 0.46357 0.9353 0.15532 0.0
C2394 C 0.44761 0.93317 0.14166 0.0
C2395 C 0.43237 0.90658 0.13619 0.0
C2396 C 0.43069 0.94379 0.14529 0.0
C2397 C 0.46751 0.94878 0.13023 0.0
C2398 C 0.49101 0.95798 0.13638 0.0
C2399 C 0.5123 0.97328 0.12808 0.0
C2400 C 0.5095 0.97964 0.11321 0.0
C2401 C 0.48556 0.9708 0.10671 0.0
C2402 C 0.46437 0.95486 0.11539 0.0
H2403 H 0.03454 0.54153 0.17831 0.0
H2404 H 0.03393 0.47307 0.18376 0.0
H2405 H 0.01484 0.45994 0.15844 0.0
H2406 H 0.9741 0.51465 0.1605 0.0
H2407 H 0.98272 0.5402 0.14809 0.0
H2408 H 0.99763 0.54483 0.16634 0.0
H2409 H 0.04074 0.56528 0.15328 0.0
H2410 H 0.02597 0.56067 0.13498 0.0
H2411 H 0.0467 0.54905 0.13854 0.0
H2412 H 0.99665 0.45459 0.13209 0.0
H2413 H 0.97799 0.45645 0.10754 0.0
H2414 H 0.98668 0.52632 0.1205 0.0
C2415 C 0.03017 0.52363 0.17436 0.0
C2416 C 0.0361 0.50853 0.18315 0.0
C2417 C 0.03028 0.48538 0.17722 0.0
C2418 C 0.01919 0.47761 0.16286 0.0
C2419 C 0.01364 0.49297 0.15458 0.0
C2420 C 0.01867 0.51537 0.16019 0.0
C2421 C 0.0101 0.52809 0.14925 0.0
C2422 C 0.98993 0.53218 0.15648 0.0
C2423 C 0.0322 0.5522 0.14368 0.0
C2424 C 0.99949 0.50935 0.13659 0.0
C2425 C 1.00197 0.48933 0.13979 0.0
C2426 C 0.99437 0.47005 0.12953 0.0
C2427 C 0.98386 0.47124 0.11565 0.0
C2428 C 0.98073 0.49136 0.11234 0.0
C2429 C 0.98859 0.51059 0.12294 0.0
H2430 H 0.4807 0.49657 0.18074 0.0
H2431 H 0.49177 0.5689 0.17289 0.0
H2432 H 0.50229 0.56663 0.14615 0.0
H2433 H 0.53067 0.50311 0.15793 0.0
H2434 H 0.51462 0.47239 0.15057 0.0
H2435 H 0.50652 0.47893 0.16893 0.0
H2436 H 0.46059 0.4601 0.16034 0.0
H2437 H 0.46852 0.45335 0.14196 0.0
H2438 H 0.45334 0.47119 0.14336 0.0
H2439 H 0.5135 0.55751 0.12064 0.0
H2440 H 0.52425 0.54193 0.0979 0.0
H2441 H 0.50516 0.47502 0.12184 0.0
C2442 C 0.48496 0.51176 0.17332 0.0
C2443 C 0.48551 0.53297 0.17895 0.0
C2444 C 0.49153 0.55259 0.16891 0.0
C2445 C 0.4974 0.55143 0.15367 0.0
C2446 C 0.49712 0.53048 0.14856 0.0
C2447 C 0.49096 0.51093 0.15803 0.0
C2448 C 0.49283 0.49089 0.14972 0.0
C2449 C 0.51232 0.48606 0.15724 0.0
C2450 C 0.4673 0.4675 0.14879 0.0
C2451 C 0.50134 0.50239 0.13418 0.0
C2452 C 0.50355 0.52517 0.13376 0.0
C2453 C 0.51159 0.53958 0.12078 0.0
C2454 C 0.51753 0.53049 0.10787 0.0
C2455 C 0.51543 0.50716 0.10797 0.0
C2456 C 0.50716 0.49299 0.12137 0.0
H2457 H 0.96776 0.46186 0.84369 0.0
H2458 H 0.9626 0.52761 0.84039 0.0
H2459 H 0.98293 0.54103 0.86539 0.0
H2460 H 0.95721 0.45242 0.88341 0.0
H2461 H 0.97958 0.44257 0.88623 0.0
H2462 H 0.9642 0.43781 0.86813 0.0
H2463 H 0.00696 0.46105 0.85474 0.0
H2464 H 0.02248 0.46585 0.87281 0.0
H2465 H 0.02923 0.49151 0.8609 0.0
H2466 H 1.00232 0.54665 0.89124 0.0
H2467 H 0.02167 0.54498 0.91552 0.0
H2468 H 0.01733 0.4775 0.90107 0.0
C2469 C 0.97115 0.47925 0.84807 0.0
C2470 C 0.96323 0.49349 0.84002 0.0
C2471 C 0.96785 0.51598 0.84641 0.0
C2472 C 0.97961 0.52392 0.86057 0.0
C2473 C 0.98703 0.50938 0.86817 0.0
C2474 C 0.98321 0.48765 0.86209 0.0
C2475 C 0.99327 0.47559 0.87252 0.0
C2476 C 0.97231 0.45062 0.87789 0.0
C2477 C 0.01423 0.47338 0.86478 0.0
C2478 C 1.00318 0.49389 0.88546 0.0
C2479 C 0.99922 0.51316 0.88278 0.0
C2480 C 0.00578 0.5318 0.8934 0.0
C2481 C 0.01668 0.5307 0.90713 0.0
C2482 C 0.02116 0.51128 0.90999 0.0
C2483 C 0.01445 0.49274 0.89898 0.0
H2484 H 0.50038 0.44686 0.83776 0.0
H2485 H 0.57141 0.5143 0.83495 0.0
H2486 H 0.56481 0.52583 0.86043 0.0
H2487 H 0.46836 0.47467 0.8557 0.0
H2488 H 0.44917 0.44847 0.86727 0.0
H2489 H 0.46013 0.44458 0.84912 0.0
H2490 H 0.47974 0.42155 0.86213 0.0
H2491 H 0.46895 0.42547 0.88033 0.0
H2492 H 0.50152 0.43596 0.87754 0.0
H2493 H 0.55108 0.52991 0.88664 0.0
H2494 H 0.52915 0.52778 0.91059 0.0
H2495 H 0.46541 0.46018 0.89534 0.0
C2496 C 0.51454 0.46419 0.84233 0.0
C2497 C 0.53671 0.47933 0.83421 0.0
C2498 C 0.55464 0.50178 0.84094 0.0
C2499 C 0.55098 0.5087 0.85544 0.0
C2500 C 0.52906 0.49329 0.86308 0.0
C2501 C 0.51097 0.47167 0.85668 0.0
C2502 C 0.48856 0.45897 0.86703 0.0
C2503 C 0.46517 0.45654 0.85932 0.0
C2504 C 0.48446 0.43401 0.87206 0.0
C2505 C 0.49693 0.47681 0.88024 0.0
C2506 C 0.52051 0.49633 0.87782 0.0
C2507 C 0.53253 0.51482 0.88861 0.0
C2508 C 0.52001 0.51344 0.90217 0.0
C2509 C 0.49561 0.49394 0.90471 0.0
C2510 C 0.48398 0.47541 0.89359 0.0
H2511 H 0.50799 0.04341 0.8338 0.0
H2512 H 0.58667 0.09382 0.84122 0.0
H2513 H 0.58312 0.07817 0.86727 0.0
H2514 H 0.48807 0.04851 0.87184 0.0
H2515 H 0.46445 0.01678 0.87263 0.0
H2516 H 0.47314 0.03221 0.85461 0.0
H2517 H 0.48283 0.99953 0.84427 0.0
H2518 H 0.47427 0.98407 0.86226 0.0
H2519 H 0.50453 0.99362 0.85438 0.0
H2520 H 0.57126 0.05627 0.89237 0.0
H2521 H 0.55193 0.02988 0.91459 0.0
H2522 H 0.48059 0.99501 0.89123 0.0
C2523 C 0.52443 0.05141 0.84095 0.0
C2524 C 0.54766 0.06982 0.83537 0.0
C2525 C 0.56876 0.07945 0.84509 0.0
C2526 C 0.5669 0.0708 0.85997 0.0
C2527 C 0.54379 0.05256 0.86504 0.0
C2528 C 0.52291 0.04303 0.85585 0.0
C2529 C 0.50033 0.02333 0.86401 0.0
C2530 C 0.48032 0.03065 0.86589 0.0
C2531 C 0.48989 0.99868 0.85574 0.0
C2532 C 0.51184 0.02312 0.87917 0.0
C2533 C 0.5369 0.04015 0.87955 0.0
C2534 C 0.55158 0.04301 0.89225 0.0
C2535 C 0.54037 0.02801 0.90487 0.0
C2536 C 0.51466 0.01035 0.90477 0.0
C2537 C 0.50031 0.00809 0.89169 0.0
H2538 H 0.14317 0.29976 0.5172 0.0
H2539 H 0.14344 0.23279 0.50732 0.0
H2540 H 0.15486 0.24584 0.48072 0.0
H2541 H 0.11825 0.30467 0.48026 0.0
H2542 H 0.13757 0.33737 0.47972 0.0
H2543 H 0.12775 0.32202 0.49772 0.0
H2544 H 0.17374 0.34213 0.50643 0.0
H2545 H 0.18371 0.35744 0.48846 0.0
H2546 H 0.19566 0.33835 0.495 0.0
H2547 H 0.1682 0.26699 0.45546 0.0
H2548 H 0.18313 0.29496 0.43359 0.0
H2549 H 0.17397 0.3482 0.4597 0.0
C2550 C 0.1452 0.28767 0.50936 0.0
C2551 C 0.14239 0.26522 0.51436 0.0
C2552 C 0.14569 0.25013 0.5038 0.0
C2553 C 0.15205 0.25734 0.48864 0.0
C2554 C 0.15507 0.27971 0.48414 0.0
C2555 C 0.15172 0.29465 0.49418 0.0
C2556 C 0.15721 0.31829 0.48659 0.0
C2557 C 0.1338 0.32072 0.48604 0.0
C2558 C 0.17887 0.34035 0.4946 0.0
C2559 C 0.16453 0.31445 0.47082 0.0
C2560 C 0.16295 0.29199 0.46961 0.0
C2561 C 0.1693 0.28455 0.45624 0.0
C2562 C 0.17765 0.30054 0.44383 0.0
C2563 C 0.17972 0.32383 0.44483 0.0
C2564 C 0.17283 0.33065 0.45854 0.0
H2565 H 0.7161 0.88464 0.51559 0.0
H2566 H 0.75665 0.84666 0.50633 0.0
H2567 H 0.73524 0.833 0.48159 0.0
H2568 H 0.6583 0.84086 0.49814 0.0
H2569 H 0.65198 0.86348 0.49034 0.0
H2570 H 0.67004 0.86993 0.50754 0.0
H2571 H 0.706 0.90863 0.49526 0.0
H2572 H 0.68799 0.9024 0.47806 0.0
H2573 H 0.71869 0.90605 0.47739 0.0
H2574 H 0.70973 0.82357 0.45788 0.0
H2575 H 0.68278 0.82015 0.43629 0.0
H2576 H 0.6599 0.86552 0.46042 0.0
C2577 C 0.72065 0.87362 0.50832 0.0
C2578 C 0.73798 0.8666 0.51299 0.0
C2579 C 0.74314 0.85192 0.50316 0.0
C2580 C 0.73117 0.84416 0.48905 0.0
C2581 C 0.71412 0.85128 0.48486 0.0
C2582 C 0.70893 0.86577 0.49416 0.0
C2583 C 0.69013 0.87117 0.4868 0.0
C2584 C 0.66619 0.86073 0.49627 0.0
C2585 C 0.70138 0.8987 0.48422 0.0
C2586 C 0.68565 0.85753 0.4719 0.0
C2587 C 0.69961 0.8461 0.47106 0.0
C2588 C 0.69879 0.83252 0.45838 0.0
C2589 C 0.68351 0.83079 0.44614 0.0
C2590 C 0.66933 0.84269 0.4466 0.0
C2591 C 0.6703 0.85602 0.45976 0.0
H2592 H 0.14038 0.83718 0.51563 0.0
H2593 H 0.13928 0.90392 0.50673 0.0
H2594 H 0.15157 0.90319 0.48015 0.0
H2595 H 0.19375 0.85166 0.49326 0.0
H2596 H 0.18219 0.82101 0.48639 0.0
H2597 H 0.17218 0.82608 0.50455 0.0
H2598 H 0.12617 0.80061 0.49591 0.0
H2599 H 0.13605 0.79537 0.47774 0.0
H2600 H 0.11632 0.80865 0.47867 0.0
H2601 H 0.16484 0.89573 0.45463 0.0
H2602 H 0.17899 0.8825 0.43221 0.0
H2603 H 0.17152 0.82058 0.45758 0.0
C2604 C 0.14242 0.85146 0.50803 0.0
C2605 C 0.13888 0.87064 0.51328 0.0
C2606 C 0.14213 0.88919 0.50302 0.0
C2607 C 0.14898 0.88886 0.48787 0.0
C2608 C 0.15258 0.86987 0.48311 0.0
C2609 C 0.14943 0.8515 0.49287 0.0
C2610 C 0.15522 0.83361 0.48498 0.0
C2611 C 0.17714 0.83307 0.49276 0.0
C2612 C 0.13206 0.80805 0.48428 0.0
C2613 C 0.1623 0.8449 0.46931 0.0
C2614 C 0.16048 0.86571 0.46844 0.0
C2615 C 0.16622 0.87939 0.45516 0.0
C2616 C 0.17413 0.87166 0.44244 0.0
C2617 C 0.17635 0.85048 0.44308 0.0
C2618 C 0.17025 0.83697 0.45674 0.0
H2619 H 0.64857 0.82895 0.17208 0.0
H2620 H 0.58541 0.75717 0.18068 0.0
H2621 H 0.59898 0.75981 0.20735 0.0
H2622 H 0.69216 0.82204 0.19478 0.0
H2623 H 0.70805 0.85299 0.20175 0.0
H2624 H 0.69289 0.84605 0.18346 0.0
H2625 H 0.66692 0.86577 0.1918 0.0
H2626 H 0.68216 0.87296 0.21007 0.0
H2627 H 0.6487 0.85547 0.20892 0.0
H2628 H 0.61969 0.76974 0.2328 0.0
H2629 H 0.64618 0.78657 0.25563 0.0
H2630 H 0.69606 0.8519 0.2306 0.0
C2631 C 0.63745 0.81396 0.17965 0.0
C2632 C 0.61597 0.79283 0.17435 0.0
C2633 C 0.60207 0.77341 0.18451 0.0
C2634 C 0.60957 0.77478 0.19967 0.0
C2635 C 0.63103 0.79568 0.20448 0.0
C2636 C 0.64476 0.81496 0.19482 0.0
C2637 C 0.66743 0.83508 0.20282 0.0
C2638 C 0.69155 0.83927 0.19525 0.0
C2639 C 0.66622 0.85872 0.20344 0.0
C2640 C 0.66432 0.82402 0.21846 0.0
C2641 C 0.64314 0.80133 0.21918 0.0
C2642 C 0.63627 0.78753 0.23241 0.0
C2643 C 0.65138 0.79726 0.24532 0.0
C2644 C 0.67313 0.82053 0.24488 0.0
C2645 C 0.67968 0.83396 0.23122 0.0
H2646 H 0.16918 0.80668 0.16631 0.0
H2647 H 0.24917 0.84596 0.17338 0.0
H2648 H 0.24291 0.85419 0.19998 0.0
H2649 H 0.15518 0.84481 0.18962 0.0
H2650 H 0.12675 0.81979 0.19689 0.0
H2651 H 0.13762 0.81766 0.17829 0.0
H2652 H 0.13666 0.77779 0.18608 0.0
H2653 H 0.12575 0.77977 0.20468 0.0
H2654 H 0.15352 0.77769 0.20275 0.0
H2655 H 0.22771 0.85762 0.22606 0.0
H2656 H 0.20486 0.85614 0.24934 0.0
H2657 H 0.13489 0.81287 0.22535 0.0
C2658 C 0.18544 0.81688 0.17344 0.0
C2659 C 0.2097 0.8257 0.16768 0.0
C2660 C 0.23041 0.83932 0.17741 0.0
C2661 C 0.22704 0.84395 0.19259 0.0
C2662 C 0.20285 0.83482 0.19789 0.0
C2663 C 0.18242 0.82156 0.1886 0.0
C2664 C 0.15837 0.8135 0.1971 0.0
C2665 C 0.14362 0.82461 0.19005 0.0
C2666 C 0.14265 0.78553 0.19769 0.0
C2667 C 0.16844 0.82425 0.21264 0.0
C2668 C 0.19413 0.83652 0.21288 0.0
C2669 C 0.20758 0.84798 0.22601 0.0
C2670 C 0.19441 0.84688 0.23922 0.0
C2671 C 0.16803 0.83434 0.23925 0.0
C2672 C 0.15502 0.82288 0.22572 0.0
H2673 H 0.16874 0.37586 0.16802 0.0
H2674 H 0.24865 0.42183 0.17349 0.0
H2675 H 0.2452 0.40893 0.20021 0.0
H2676 H 0.15244 0.38751 0.20563 0.0
H2677 H 0.12701 0.35678 0.20779 0.0
H2678 H 0.13575 0.36992 0.18913 0.0
H2679 H 0.14122 0.33378 0.18044 0.0
H2680 H 0.1326 0.32058 0.19908 0.0
H2681 H 0.16179 0.32677 0.19094 0.0
H2682 H 0.23321 0.39009 0.22626 0.0
H2683 H 0.21356 0.36679 0.24953 0.0
H2684 H 0.14125 0.33463 0.22746 0.0
C2685 C 0.18551 0.38348 0.17486 0.0
C2686 C 0.20901 0.3998 0.16854 0.0
C2687 C 0.23048 0.40899 0.17792 0.0
C2688 C 0.2287 0.40192 0.19318 0.0
C2689 C 0.2053 0.38571 0.19899 0.0
C2690 C 0.18407 0.37667 0.19014 0.0
C2691 C 0.1612 0.35923 0.1991 0.0
C2692 C 0.14303 0.36895 0.2005 0.0
C2693 C 0.14846 0.33357 0.19196 0.0
C2694 C 0.17293 0.35968 0.21431 0.0
C2695 C 0.19837 0.37512 0.21403 0.0
C2696 C 0.21326 0.37811 0.22665 0.0
C2697 C 0.20187 0.36489 0.23988 0.0
C2698 C 0.17578 0.34885 0.24045 0.0
C2699 C 0.16124 0.34648 0.22744 0.0
H2700 H 0.80501 0.62729 0.84695 0.0
H2701 H 0.80972 0.56318 0.83527 0.0
H2702 H 0.82025 0.57769 0.80885 0.0
H2703 H 0.7784 0.63204 0.81082 0.0
H2704 H 0.79613 0.66487 0.81069 0.0
H2705 H 0.78761 0.6488 0.82849 0.0
H2706 H 0.83397 0.67087 0.83664 0.0
H2707 H 0.84263 0.68691 0.81884 0.0
H2708 H 0.85643 0.66903 0.82459 0.0
H2709 H 0.83147 0.59965 0.78385 0.0
H2710 H 0.84345 0.62794 0.76221 0.0
H2711 H 0.83176 0.67811 0.78994 0.0
C2712 C 0.80791 0.61617 0.83876 0.0
C2713 C 0.80652 0.59407 0.84318 0.0
C2714 C 0.81087 0.58024 0.83218 0.0
C2715 C 0.81675 0.58828 0.81713 0.0
C2716 C 0.8183 0.61027 0.81318 0.0
C2717 C 0.81402 0.62405 0.82366 0.0
C2718 C 0.81786 0.64748 0.81658 0.0
C2719 C 0.79355 0.64834 0.81665 0.0
C2720 C 0.83898 0.6699 0.82464 0.0
C2721 C 0.82516 0.6448 0.80054 0.0
C2722 C 0.8251 0.6231 0.7988 0.0
C2723 C 0.83144 0.61664 0.78506 0.0
C2724 C 0.83811 0.6328 0.77279 0.0
C2725 C 0.83853 0.65529 0.77429 0.0
C2726 C 0.83186 0.6612 0.78841 0.0
H2727 H 0.38795 0.2192 0.84757 0.0
H2728 H 0.38811 0.15074 0.8482 0.0
H2729 H 0.37023 0.14148 0.82234 0.0
H2730 H 0.32902 0.19558 0.82877 0.0
H2731 H 0.33828 0.2229 0.81797 0.0
H2732 H 0.35232 0.22475 0.83622 0.0
H2733 H 0.39606 0.24696 0.82396 0.0
H2734 H 0.38216 0.24521 0.80567 0.0
H2735 H 0.40265 0.233 0.80811 0.0
H2736 H 0.35196 0.13952 0.79639 0.0
H2737 H 0.33374 0.14466 0.77263 0.0
H2738 H 0.34358 0.21328 0.78962 0.0
C2739 C 0.38408 0.20214 0.84238 0.0
C2740 C 0.38959 0.18576 0.85 0.0
C2741 C 0.38454 0.16384 0.84257 0.0
C2742 C 0.3742 0.15831 0.8279 0.0
C2743 C 0.36885 0.17479 0.82082 0.0
C2744 C 0.37354 0.19621 0.82783 0.0
C2745 C 0.36554 0.21058 0.81792 0.0
C2746 C 0.34507 0.21362 0.82568 0.0
C2747 C 0.38794 0.23541 0.81366 0.0
C2748 C 0.35551 0.19384 0.80424 0.0
C2749 C 0.35775 0.17337 0.80608 0.0
C2750 C 0.35008 0.15546 0.79484 0.0
C2751 C 0.33984 0.15856 0.78139 0.0
C2752 C 0.33719 0.1793 0.77934 0.0
C2753 C 0.34511 0.1971 0.79096 0.0
H2754 H 0.78711 0.1809 0.83388 0.0
H2755 H 0.85851 0.22064 0.85683 0.0
H2756 H 0.87943 0.21724 0.83397 0.0
H2757 H 0.80052 0.13909 0.81307 0.0
H2758 H 0.78431 0.13925 0.79609 0.0
H2759 H 0.77462 0.14436 0.81436 0.0
H2760 H 0.77959 0.18511 0.8047 0.0
H2761 H 0.78948 0.18021 0.78644 0.0
H2762 H 0.80898 0.20783 0.79695 0.0
H2763 H 0.8929 0.20976 0.80909 0.0
H2764 H 0.89824 0.19793 0.78324 0.0
H2765 H 0.81871 0.16366 0.77543 0.0
C2766 C 0.8071 0.18868 0.83408 0.0
C2767 C 0.82122 0.20116 0.84712 0.0
C2768 C 0.84737 0.21126 0.84692 0.0
C2769 C 0.85943 0.20938 0.83401 0.0
C2770 C 0.84514 0.19739 0.82127 0.0
C2771 C 0.81957 0.18715 0.82114 0.0
C2772 C 0.80886 0.17546 0.80578 0.0
C2773 C 0.79102 0.1479 0.80743 0.0
C2774 C 0.79597 0.1879 0.79801 0.0
C2775 C 0.83242 0.18069 0.7974 0.0
C2776 C 0.85306 0.19334 0.80664 0.0
C2777 C 0.8769 0.19989 0.80173 0.0
C2778 C 0.87975 0.19307 0.78705 0.0
C2779 C 0.85894 0.17994 0.77736 0.0
C2780 C 0.83497 0.17394 0.78256 0.0
H2781 H 0.28772 0.10737 0.50879 0.0
H2782 H 0.3003 0.18108 0.50532 0.0
H2783 H 0.31792 0.18999 0.53119 0.0
H2784 H 0.27141 0.09801 0.5479 0.0
H2785 H 0.28758 0.08161 0.55171 0.0
H2786 H 0.27551 0.0808 0.53296 0.0
H2787 H 0.31937 0.09649 0.52156 0.0
H2788 H 0.33157 0.09727 0.54027 0.0
H2789 H 0.34526 0.12435 0.52876 0.0
H2790 H 0.33309 0.19056 0.55784 0.0
H2791 H 0.34697 0.18331 0.5827 0.0
H2792 H 0.32706 0.11034 0.56805 0.0
C2793 C 0.29445 0.12551 0.51333 0.0
C2794 C 0.29232 0.14341 0.50495 0.0
C2795 C 0.30112 0.1668 0.51155 0.0
C2796 C 0.31137 0.17214 0.52623 0.0
C2797 C 0.31301 0.15403 0.53415 0.0
C2798 C 0.30503 0.13127 0.52788 0.0
C2799 C 0.30924 0.11514 0.5387 0.0
C2800 C 0.28446 0.09256 0.54307 0.0
C2801 C 0.32744 0.10789 0.53192 0.0
C2802 C 0.32073 0.13236 0.55206 0.0
C2803 C 0.32258 0.15465 0.54926 0.0
C2804 C 0.3319 0.17325 0.56012 0.0
C2805 C 0.33963 0.16896 0.5742 0.0
C2806 C 0.33822 0.14637 0.57719 0.0
C2807 C 0.32866 0.1279 0.56595 0.0
H2808 H 0.89206 0.18218 0.50668 0.0
H2809 H 0.84406 0.10338 0.50594 0.0
H2810 H 0.82831 0.10516 0.53116 0.0
H2811 H 0.90591 0.18945 0.54673 0.0
H2812 H 0.90413 0.21688 0.54845 0.0
H2813 H 0.91326 0.2095 0.5307 0.0
H2814 H 0.87787 0.21217 0.51681 0.0
H2815 H 0.86867 0.21961 0.53452 0.0
H2816 H 0.84633 0.19398 0.52339 0.0
H2817 H 0.81762 0.11512 0.55663 0.0
H2818 H 0.81043 0.13325 0.57966 0.0
H2819 H 0.86198 0.20557 0.56294 0.0
C2820 C 0.87814 0.16524 0.51169 0.0
C2821 C 0.86982 0.14258 0.50423 0.0
C2822 C 0.85158 0.12096 0.51146 0.0
C2823 C 0.84225 0.12175 0.52581 0.0
C2824 C 0.85091 0.14431 0.53278 0.0
C2825 C 0.86821 0.1657 0.52591 0.0
C2826 C 0.87342 0.18765 0.53556 0.0
C2827 C 0.90081 0.20169 0.54066 0.0
C2828 C 0.86613 0.20433 0.52706 0.0
C2829 C 0.85627 0.17521 0.54888 0.0
C2830 C 0.84372 0.15018 0.54714 0.0
C2831 C 0.82724 0.13471 0.55809 0.0
C2832 C 0.82332 0.14512 0.57113 0.0
C2833 C 0.83553 0.17073 0.57298 0.0
C2834 C 0.85223 0.18593 0.5617 0.0
H2835 H 0.82806 0.70507 0.49962 0.0
H2836 H 0.90738 0.75139 0.50739 0.0
H2837 H 0.90236 0.73607 0.5336 0.0
H2838 H 0.80873 0.71229 0.5376 0.0
H2839 H 0.78366 0.68116 0.53848 0.0
H2840 H 0.79333 0.69623 0.52039 0.0
H2841 H 0.80034 0.6616 0.51047 0.0
H2842 H 0.7908 0.6465 0.52854 0.0
H2843 H 0.82069 0.65412 0.52082 0.0
H2844 H 0.88913 0.71473 0.55873 0.0
H2845 H 0.86856 0.6892 0.58104 0.0
H2846 H 0.79744 0.65771 0.55756 0.0
C2847 C 0.84433 0.71223 0.50689 0.0
C2848 C 0.86817 0.72936 0.50133 0.0
C2849 C 0.88899 0.73799 0.51123 0.0
C2850 C 0.88631 0.72951 0.5262 0.0
C2851 C 0.86266 0.71244 0.53124 0.0
C2852 C 0.84199 0.70396 0.52192 0.0
C2853 C 0.81874 0.68528 0.53012 0.0
C2854 C 0.80001 0.69428 0.53175 0.0
C2855 C 0.80695 0.6604 0.522 0.0
C2856 C 0.82962 0.68444 0.54542 0.0
C2857 C 0.85498 0.70031 0.54582 0.0
C2858 C 0.86923 0.70241 0.5586 0.0
C2859 C 0.8573 0.6879 0.57129 0.0
C2860 C 0.83126 0.67144 0.57123 0.0
C2861 C 0.81736 0.66989 0.55804 0.0
loop_
_geom_bond_atom_site_label_1
_geom_bond_atom_site_label_2
_geom_bond_distance
_geom_bond_site_symmetry_2
_ccdc_geom_bond_type
C0 C1 1.384 . S
C0 H13 0.947 . S
C0 C35 1.382 . S
C1 C0 1.384 . S
C1 C2 1.378 . S
C2 C1 1.378 . S
C2 C3 1.378 . S
C2 H14 0.952 . S
C3 C2 1.378 . S
C3 H15 0.950 . S
C3 C34 1.383 . S
H4 C23 0.947 . S
H5 C24 0.946 . S
H6 C26 0.953 . S
H7 C27 0.945 . S
H8 C29 0.952 . S
H9 C30 0.949 . S
H10 C32 0.950 . S
H11 C33 0.948 . S
H12 C35 0.951 . S
H13 C0 0.947 . S
H14 C2 0.952 . S
H15 C3 0.950 . S
N16 C19 1.382 . S
N16 C21 1.363 . S
N17 C19 1.371 . S
N17 C20 1.372 . S
N18 C20 1.361 . S
N18 C21 1.377 . S
C19 N16 1.382 . S
C19 N17 1.371 . S
C19 C22 1.480 . S
C20 N17 1.372 . S
C20 N18 1.361 . S
C20 C28 1.457 . S
C21 N16 1.363 . S
C21 N18 1.377 . S
C21 C34 1.479 . S
C22 C19 1.480 . S
C22 C23 1.383 . S
C22 C27 1.385 . S
C23 H4 0.947 . S
C23 C22 1.383 . S
C23 C24 1.388 . S
C24 H5 0.946 . S
C24 C23 1.388 . S
C24 C25 1.384 . S
C25 C24 1.384 . S
C25 C26 1.377 . S
C26 H6 0.953 . S
C26 C25 1.377 . S
C26 C27 1.369 . S
C27 H7 0.945 . S
C27 C22 1.385 . S
C27 C26 1.369 . S
C28 C20 1.457 . S
C28 C29 1.372 . S
C28 C33 1.364 . S
C29 H8 0.952 . S
C29 C28 1.372 . S
C29 C30 1.389 . S
C30 H9 0.949 . S
C30 C29 1.389 . S
C30 C31 1.387 . S
C31 C30 1.387 . S
C31 C32 1.372 . S
C32 H10 0.950 . S
C32 C31 1.372 . S
C32 C33 1.379 . S
C33 H11 0.948 . S
C33 C28 1.364 . S
C33 C32 1.379 . S
C34 C3 1.383 . S
C34 C21 1.479 . S
C34 C35 1.398 . S
C35 C0 1.382 . S
C35 H12 0.951 . S
C35 C34 1.398 . S
C36 C37 1.384 . S
C36 H49 0.947 . S
C36 C71 1.382 . S
C37 C36 1.384 . S
C37 C38 1.378 . S
C38 C37 1.378 . S
C38 C39 1.378 . S
C38 H50 0.952 . S
C39 C38 1.378 . S
C39 H51 0.950 . S
C39 C70 1.383 . S
H40 C59 0.947 . S
H41 C60 0.946 . S
H42 C62 0.953 . S
H43 C63 0.945 . S
H44 C65 0.952 . S
H45 C66 0.949 . S
H46 C68 0.950 . S
H47 C69 0.948 . S
H48 C71 0.951 . S
H49 C36 0.947 . S
H50 C38 0.952 . S
H51 C39 0.950 . S
N52 C55 1.382 . S
N52 C57 1.363 . S
N53 C55 1.371 . S
N53 C56 1.372 . S
N54 C56 1.361 . S
N54 C57 1.377 . S
C55 N52 1.382 . S
C55 N53 1.371 . S
C55 C58 1.480 . S
C56 N53 1.372 . S
C56 N54 1.361 . S
C56 C64 1.457 . S
C57 N52 1.363 . S
C57 N54 1.377 . S
C57 C70 1.479 . S
C58 C55 1.480 . S
C58 C59 1.383 . S
C58 C63 1.385 . S
C59 H40 0.947 . S
C59 C58 1.383 . S
C59 C60 1.388 . S
C60 H41 0.946 . S
C60 C59 1.388 . S
C60 C61 1.384 . S
C61 C60 1.384 . S
C61 C62 1.377 . S
C62 H42 0.953 . S
C62 C61 1.377 . S
C62 C63 1.369 . S
C63 H43 0.945 . S
C63 C58 1.385 . S
C63 C62 1.369 . S
C64 C56 1.457 . S
C64 C65 1.372 . S
C64 C69 1.364 . S
C65 H44 0.952 . S
C65 C64 1.372 . S
C65 C66 1.389 . S
C66 H45 0.949 . S
C66 C65 1.389 . S
C66 C67 1.387 . S
C67 C66 1.387 . S
C67 C68 1.372 . S
C68 H46 0.950 . S
C68 C67 1.372 . S
C68 C69 1.379 . S
C69 H47 0.948 . S
C69 C64 1.364 . S
C69 C68 1.379 . S
C70 C39 1.383 . S
C70 C57 1.479 . S
C70 C71 1.398 . S
C71 C36 1.382 . S
C71 H48 0.951 . S
C71 C70 1.398 . S
C72 C73 1.384 . S
C72 H85 0.947 . S
C72 C107 1.382 . S
C73 C72 1.384 . S
C73 C74 1.378 . S
C74 C73 1.378 . S
C74 C75 1.378 . S
C74 H86 0.952 . S
C75 C74 1.378 . S
C75 H87 0.950 . S
C75 C106 1.383 . S
H76 C95 0.947 . S
H77 C96 0.946 . S
H78 C98 0.953 . S
H79 C99 0.945 . S
H80 C101 0.952 . S
H81 C102 0.949 . S
H82 C104 0.950 . S
H83 C105 0.948 . S
H84 C107 0.951 . S
H85 C72 0.947 . S
H86 C74 0.952 . S
H87 C75 0.950 . S
N88 C91 1.382 . S
N88 C93 1.363 . S
N89 C91 1.371 . S
N89 C92 1.372 . S
N90 C92 1.361 . S
N90 C93 1.377 . S
C91 N88 1.382 . S
C91 N89 1.371 . S
C91 C94 1.480 . S
C92 N89 1.372 . S
C92 N90 1.361 . S
C92 C100 1.457 . S
C93 N88 1.363 . S
C93 N90 1.377 . S
C93 C106 1.479 . S
C94 C91 1.480 . S
C94 C95 1.383 . S
C94 C99 1.385 . S
C95 H76 0.947 . S
C95 C94 1.383 . S
C95 C96 1.388 . S
C96 H77 0.946 . S
C96 C95 1.388 . S
C96 C97 1.384 . S
C97 C96 1.384 . S
C97 C98 1.377 . S
C98 H78 0.953 . S
C98 C97 1.377 . S
C98 C99 1.369 . S
C99 H79 0.945 . S
C99 C94 1.385 . S
C99 C98 1.369 . S
C100 C92 1.457 . S
C100 C101 1.372 . S
C100 C105 1.364 . S
C101 H80 0.952 . S
C101 C100 1.372 . S
C101 C102 1.389 . S
C102 H81 0.949 . S
C102 C101 1.389 . S
C102 C103 1.387 . S
C103 C102 1.387 . S
C103 C104 1.372 . S
C104 H82 0.950 . S
C104 C103 1.372 . S
C104 C105 1.379 . S
C105 H83 0.948 . S
C105 C100 1.364 . S
C105 C104 1.379 . S
C106 C75 1.383 . S
C106 C93 1.479 . S
C106 C107 1.398 . S
C107 C72 1.382 . S
C107 H84 0.951 . S
C107 C106 1.398 . S
C108 C109 1.384 . S
C108 H121 0.947 . S
C108 C143 1.382 . S
C109 C108 1.384 . S
C109 C110 1.378 . S
C110 C109 1.378 . S
C110 C111 1.378 . S
C110 H122 0.952 . S
C111 C110 1.378 . S
C111 H123 0.950 . S
C111 C142 1.383 . S
H112 C131 0.947 . S
H113 C132 0.946 . S
H114 C134 0.953 . S
H115 C135 0.945 . S
H116 C137 0.952 . S
H117 C138 0.949 . S
H118 C140 0.950 . S
H119 C141 0.948 . S
H120 C143 0.951 . S
H121 C108 0.947 . S
H122 C110 0.952 . S
H123 C111 0.950 . S
N124 C127 1.382 . S
N124 C129 1.363 . S
N125 C127 1.371 . S
N125 C128 1.372 . S
N126 C128 1.361 . S
N126 C129 1.377 . S
C127 N124 1.382 . S
C127 N125 1.371 . S
C127 C130 1.480 . S
C128 N125 1.372 . S
C128 N126 1.361 . S
C128 C136 1.457 . S
C129 N124 1.363 . S
C129 N126 1.377 . S
C129 C142 1.479 . S
C130 C127 1.480 . S
C130 C131 1.383 . S
C130 C135 1.385 . S
C131 H112 0.947 . S
C131 C130 1.383 . S
C131 C132 1.388 . S
C132 H113 0.946 . S
C132 C131 1.388 . S
C132 C133 1.384 . S
C133 C132 1.384 . S
C133 C134 1.377 . S
C134 H114 0.953 . S
C134 C133 1.377 . S
C134 C135 1.369 . S
C135 H115 0.945 . S
C135 C130 1.385 . S
C135 C134 1.369 . S
C136 C128 1.457 . S
C136 C137 1.372 . S
C136 C141 1.364 . S
C137 H116 0.952 . S
C137 C136 1.372 . S
C137 C138 1.389 . S
C138 H117 0.949 . S
C138 C137 1.389 . S
C138 C139 1.387 . S
C139 C138 1.387 . S
C139 C140 1.372 . S
C140 H118 0.950 . S
C140 C139 1.372 . S
C140 C141 1.379 . S
C141 H119 0.948 . S
C141 C136 1.364 . S
C141 C140 1.379 . S
C142 C111 1.383 . S
C142 C129 1.479 . S
C142 C143 1.398 . S
C143 C108 1.382 . S
C143 H120 0.951 . S
C143 C142 1.398 . S
C144 C145 1.384 . S
C144 H157 0.947 . S
C144 C179 1.382 . S
C145 C144 1.384 . S
C145 C146 1.378 . S
C146 C145 1.378 . S
C146 C147 1.378 . S
C146 H158 0.952 . S
C147 C146 1.378 . S
C147 H159 0.950 . S
C147 C178 1.383 . S
H148 C167 0.947 . S
H149 C168 0.946 . S
H150 C170 0.953 . S
H151 C171 0.945 . S
H152 C173 0.952 . S
H153 C174 0.949 . S
H154 C176 0.950 . S
H155 C177 0.948 . S
H156 C179 0.951 . S
H157 C144 0.947 . S
H158 C146 0.952 . S
H159 C147 0.950 . S
N160 C163 1.382 . S
N160 C165 1.363 . S
N161 C163 1.371 . S
N161 C164 1.372 . S
N162 C164 1.361 . S
N162 C165 1.377 . S
C163 N160 1.382 . S
C163 N161 1.371 . S
C163 C166 1.480 . S
C164 N161 1.372 . S
C164 N162 1.361 . S
C164 C172 1.457 . S
C165 N160 1.363 . S
C165 N162 1.377 . S
C165 C178 1.479 . S
C166 C163 1.480 . S
C166 C167 1.383 . S
C166 C171 1.385 . S
C167 H148 0.947 . S
C167 C166 1.383 . S
C167 C168 1.388 . S
C168 H149 0.946 . S
C168 C167 1.388 . S
C168 C169 1.384 . S
C169 C168 1.384 . S
C169 C170 1.377 . S
C170 H150 0.953 . S
C170 C169 1.377 . S
C170 C171 1.369 . S
C171 H151 0.945 . S
C171 C166 1.385 . S
C171 C170 1.369 . S
C172 C164 1.457 . S
C172 C173 1.372 . S
C172 C177 1.364 . S
C173 H152 0.952 . S
C173 C172 1.372 . S
C173 C174 1.389 . S
C174 H153 0.949 . S
C174 C173 1.389 . S
C174 C175 1.387 . S
C175 C174 1.387 . S
C175 C176 1.372 . S
C176 H154 0.950 . S
C176 C175 1.372 . S
C176 C177 1.379 . S
C177 H155 0.948 . S
C177 C172 1.364 . S
C177 C176 1.379 . S
C178 C147 1.383 . S
C178 C165 1.479 . S
C178 C179 1.398 . S
C179 C144 1.382 . S
C179 H156 0.951 . S
C179 C178 1.398 . S
C180 C181 1.384 . S
C180 H193 0.947 . S
C180 C215 1.382 . S
C181 C180 1.384 . S
C181 C182 1.378 . S
C182 C181 1.378 . S
C182 C183 1.378 . S
C182 H194 0.952 . S
C183 C182 1.378 . S
C183 H195 0.950 . S
C183 C214 1.383 . S
H184 C203 0.947 . S
H185 C204 0.946 . S
H186 C206 0.953 . S
H187 C207 0.945 . S
H188 C209 0.952 . S
H189 C210 0.949 . S
H190 C212 0.950 . S
H191 C213 0.948 . S
H192 C215 0.951 . S
H193 C180 0.947 . S
H194 C182 0.952 . S
H195 C183 0.950 . S
N196 C199 1.382 . S
N196 C201 1.363 . S
N197 C199 1.371 . S
N197 C200 1.372 . S
N198 C200 1.361 . S
N198 C201 1.377 . S
C199 N196 1.382 . S
C199 N197 1.371 . S
C199 C202 1.480 . S
C200 N197 1.372 . S
C200 N198 1.361 . S
C200 C208 1.457 . S
C201 N196 1.363 . S
C201 N198 1.377 . S
C201 C214 1.479 . S
C202 C199 1.480 . S
C202 C203 1.383 . S
C202 C207 1.385 . S
C203 H184 0.947 . S
C203 C202 1.383 . S
C203 C204 1.388 . S
C204 H185 0.946 . S
C204 C203 1.388 . S
C204 C205 1.384 . S
C205 C204 1.384 . S
C205 C206 1.377 . S
C206 H186 0.953 . S
C206 C205 1.377 . S
C206 C207 1.369 . S
C207 H187 0.945 . S
C207 C202 1.385 . S
C207 C206 1.369 . S
C208 C200 1.457 . S
C208 C209 1.372 . S
C208 C213 1.364 . S
C209 H188 0.952 . S
C209 C208 1.372 . S
C209 C210 1.389 . S
C210 H189 0.949 . S
C210 C209 1.389 . S
C210 C211 1.387 . S
C211 C210 1.387 . S
C211 C212 1.372 . S
C212 H190 0.950 . S
C212 C211 1.372 . S
C212 C213 1.379 . S
C213 H191 0.948 . S
C213 C208 1.364 . S
C213 C212 1.379 . S
C214 C183 1.383 . S
C214 C201 1.479 . S
C214 C215 1.398 . S
C215 C180 1.382 . S
C215 H192 0.951 . S
C215 C214 1.398 . S
C216 C217 1.384 . S
C216 H229 0.947 . S
C216 C251 1.382 . S
C217 C216 1.384 . S
C217 C218 1.378 . S
C218 C217 1.378 . S
C218 C219 1.378 . S
C218 H230 0.952 . S
C219 C218 1.378 . S
C219 H231 0.950 . S
C219 C250 1.383 . S
H220 C239 0.947 . S
H221 C240 0.946 . S
H222 C242 0.953 . S
H223 C243 0.945 . S
H224 C245 0.952 . S
H225 C246 0.949 . S
H226 C248 0.950 . S
H227 C249 0.948 . S
H228 C251 0.951 . S
H229 C216 0.947 . S
H230 C218 0.952 . S
H231 C219 0.950 . S
N232 C235 1.382 . S
N232 C237 1.363 . S
N233 C235 1.371 . S
N233 C236 1.372 . S
N234 C236 1.361 . S
N234 C237 1.377 . S
C235 N232 1.382 . S
C235 N233 1.371 . S
C235 C238 1.480 . S
C236 N233 1.372 . S
C236 N234 1.361 . S
C236 C244 1.457 . S
C237 N232 1.363 . S
C237 N234 1.377 . S
C237 C250 1.479 . S
C238 C235 1.480 . S
C238 C239 1.383 . S
C238 C243 1.385 . S
C239 H220 0.947 . S
C239 C238 1.383 . S
C239 C240 1.388 . S
C240 H221 0.946 . S
C240 C239 1.388 . S
C240 C241 1.384 . S
C241 C240 1.384 . S
C241 C242 1.377 . S
C242 H222 0.953 . S
C242 C241 1.377 . S
C242 C243 1.369 . S
C243 H223 0.945 . S
C243 C238 1.385 . S
C243 C242 1.369 . S
C244 C236 1.457 . S
C244 C245 1.372 . S
C244 C249 1.364 . S
C245 H224 0.952 . S
C245 C244 1.372 . S
C245 C246 1.389 . S
C246 H225 0.949 . S
C246 C245 1.389 . S
C246 C247 1.387 . S
C247 C246 1.387 . S
C247 C248 1.372 . S
C248 H226 0.950 . S
C248 C247 1.372 . S
C248 C249 1.379 . S
C249 H227 0.948 . S
C249 C244 1.364 . S
C249 C248 1.379 . S
C250 C219 1.383 . S
C250 C237 1.479 . S
C250 C251 1.398 . S
C251 C216 1.382 . S
C251 H228 0.951 . S
C251 C250 1.398 . S
C252 C253 1.384 . S
C252 H265 0.947 . S
C252 C287 1.382 . S
C253 C252 1.384 . S
C253 C254 1.378 . S
C254 C253 1.378 . S
C254 C255 1.378 . S
C254 H266 0.952 . S
C255 C254 1.378 . S
C255 H267 0.950 . S
C255 C286 1.383 . S
H256 C275 0.947 . S
H257 C276 0.946 . S
H258 C278 0.953 . S
H259 C279 0.945 . S
H260 C281 0.952 . S
H261 C282 0.949 . S
H262 C284 0.950 . S
H263 C285 0.948 . S
H264 C287 0.951 . S
H265 C252 0.947 . S
H266 C254 0.952 . S
H267 C255 0.950 . S
N268 C271 1.382 . S
N268 C273 1.363 . S
N269 C271 1.371 . S
N269 C272 1.372 . S
N270 C272 1.361 . S
N270 C273 1.377 . S
C271 N268 1.382 . S
C271 N269 1.371 . S
C271 C274 1.480 . S
C272 N269 1.372 . S
C272 N270 1.361 . S
C272 C280 1.457 . S
C273 N268 1.363 . S
C273 N270 1.377 . S
C273 C286 1.479 . S
C274 C271 1.480 . S
C274 C275 1.383 . S
C274 C279 1.385 . S
C275 H256 0.947 . S
C275 C274 1.383 . S
C275 C276 1.388 . S
C276 H257 0.946 . S
C276 C275 1.388 . S
C276 C277 1.384 . S
C277 C276 1.384 . S
C277 C278 1.377 . S
C278 H258 0.953 . S
C278 C277 1.377 . S
C278 C279 1.369 . S
C279 H259 0.945 . S
C279 C274 1.385 . S
C279 C278 1.369 . S
C280 C272 1.457 . S
C280 C281 1.372 . S
C280 C285 1.364 . S
C281 H260 0.952 . S
C281 C280 1.372 . S
C281 C282 1.389 . S
C282 H261 0.949 . S
C282 C281 1.389 . S
C282 C283 1.387 . S
C283 C282 1.387 . S
C283 C284 1.372 . S
C284 H262 0.950 . S
C284 C283 1.372 . S
C284 C285 1.379 . S
C285 H263 0.948 . S
C285 C280 1.364 . S
C285 C284 1.379 . S
C286 C255 1.383 . S
C286 C273 1.479 . S
C286 C287 1.398 . S
C287 C252 1.382 . S
C287 H264 0.951 . S
C287 C286 1.398 . S
C288 C289 1.384 . S
C288 H301 0.947 . S
C288 C323 1.382 . S
C289 C288 1.384 . S
C289 C290 1.378 . S
C290 C289 1.378 . S
C290 C291 1.378 . S
C290 H302 0.952 . S
C291 C290 1.378 . S
C291 H303 0.950 . S
C291 C322 1.383 . S
H292 C311 0.947 . S
H293 C312 0.946 . S
H294 C314 0.953 . S
H295 C315 0.945 . S
H296 C317 0.952 . S
H297 C318 0.949 . S
H298 C320 0.950 . S
H299 C321 0.948 . S
H300 C323 0.951 . S
H301 C288 0.947 . S
H302 C290 0.952 . S
H303 C291 0.950 . S
N304 C307 1.382 . S
N304 C309 1.363 . S
N305 C307 1.371 . S
N305 C308 1.372 . S
N306 C308 1.361 . S
N306 C309 1.377 . S
C307 N304 1.382 . S
C307 N305 1.371 . S
C307 C310 1.480 . S
C308 N305 1.372 . S
C308 N306 1.361 . S
C308 C316 1.457 . S
C309 N304 1.363 . S
C309 N306 1.377 . S
C309 C322 1.479 . S
C310 C307 1.480 . S
C310 C311 1.383 . S
C310 C315 1.385 . S
C311 H292 0.947 . S
C311 C310 1.383 . S
C311 C312 1.388 . S
C312 H293 0.946 . S
C312 C311 1.388 . S
C312 C313 1.384 . S
C313 C312 1.384 . S
C313 C314 1.377 . S
C314 H294 0.953 . S
C314 C313 1.377 . S
C314 C315 1.369 . S
C315 H295 0.945 . S
C315 C310 1.385 . S
C315 C314 1.369 . S
C316 C308 1.457 . S
C316 C317 1.372 . S
C316 C321 1.364 . S
C317 H296 0.952 . S
C317 C316 1.372 . S
C317 C318 1.389 . S
C318 H297 0.949 . S
C318 C317 1.389 . S
C318 C319 1.387 . S
C319 C318 1.387 . S
C319 C320 1.372 . S
C320 H298 0.950 . S
C320 C319 1.372 . S
C320 C321 1.379 . S
C321 H299 0.948 . S
C321 C316 1.364 . S
C321 C320 1.379 . S
C322 C291 1.383 . S
C322 C309 1.479 . S
C322 C323 1.398 . S
C323 C288 1.382 . S
C323 H300 0.951 . S
C323 C322 1.398 . S
C324 C325 1.384 . S
C324 H337 0.947 . S
C324 C359 1.382 . S
C325 C324 1.384 . S
C325 C326 1.378 . S
C326 C325 1.378 . S
C326 C327 1.378 . S
C326 H338 0.952 . S
C327 C326 1.378 . S
C327 H339 0.950 . S
C327 C358 1.383 . S
H328 C347 0.947 . S
H329 C348 0.946 . S
H330 C350 0.953 . S
H331 C351 0.945 . S
H332 C353 0.952 . S
H333 C354 0.949 . S
H334 C356 0.950 . S
H335 C357 0.948 . S
H336 C359 0.951 . S
H337 C324 0.947 . S
H338 C326 0.952 . S
H339 C327 0.950 . S
N340 C343 1.382 . S
N340 C345 1.363 . S
N341 C343 1.371 . S
N341 C344 1.372 . S
N342 C344 1.361 . S
N342 C345 1.377 . S
C343 N340 1.382 . S
C343 N341 1.371 . S
C343 C346 1.480 . S
C344 N341 1.372 . S
C344 N342 1.361 . S
C344 C352 1.457 . S
C345 N340 1.363 . S
C345 N342 1.377 . S
C345 C358 1.479 . S
C346 C343 1.480 . S
C346 C347 1.383 . S
C346 C351 1.385 . S
C347 H328 0.947 . S
C347 C346 1.383 . S
C347 C348 1.388 . S
C348 H329 0.946 . S
C348 C347 1.388 . S
C348 C349 1.384 . S
C349 C348 1.384 . S
C349 C350 1.377 . S
C350 H330 0.953 . S
C350 C349 1.377 . S
C350 C351 1.369 . S
C351 H331 0.945 . S
C351 C346 1.385 . S
C351 C350 1.369 . S
C352 C344 1.457 . S
C352 C353 1.372 . S
C352 C357 1.364 . S
C353 H332 0.952 . S
C353 C352 1.372 . S
C353 C354 1.389 . S
C354 H333 0.949 . S
C354 C353 1.389 . S
C354 C355 1.387 . S
C355 C354 1.387 . S
C355 C356 1.372 . S
C356 H334 0.950 . S
C356 C355 1.372 . S
C356 C357 1.379 . S
C357 H335 0.948 . S
C357 C352 1.364 . S
C357 C356 1.379 . S
C358 C327 1.383 . S
C358 C345 1.479 . S
C358 C359 1.398 . S
C359 C324 1.382 . S
C359 H336 0.951 . S
C359 C358 1.398 . S
C360 C361 1.384 . S
C360 H373 0.947 . S
C360 C395 1.382 . S
C361 C360 1.384 . S
C361 C362 1.378 . S
C362 C361 1.378 . S
C362 C363 1.378 . S
C362 H374 0.952 . S
C363 C362 1.378 . S
C363 H375 0.950 . S
C363 C394 1.383 . S
H364 C383 0.947 . S
H365 C384 0.946 . S
H366 C386 0.953 . S
H367 C387 0.945 . S
H368 C389 0.952 . S
H369 C390 0.949 . S
H370 C392 0.950 . S
H371 C393 0.948 . S
H372 C395 0.951 . S
H373 C360 0.947 . S
H374 C362 0.952 . S
H375 C363 0.950 . S
N376 C379 1.382 . S
N376 C381 1.363 . S
N377 C379 1.371 . S
N377 C380 1.372 . S
N378 C380 1.361 . S
N378 C381 1.377 . S
C379 N376 1.382 . S
C379 N377 1.371 . S
C379 C382 1.480 . S
C380 N377 1.372 . S
C380 N378 1.361 . S
C380 C388 1.457 . S
C381 N376 1.363 . S
C381 N378 1.377 . S
C381 C394 1.479 . S
C382 C379 1.480 . S
C382 C383 1.383 . S
C382 C387 1.385 . S
C383 H364 0.947 . S
C383 C382 1.383 . S
C383 C384 1.388 . S
C384 H365 0.946 . S
C384 C383 1.388 . S
C384 C385 1.384 . S
C385 C384 1.384 . S
C385 C386 1.377 . S
C386 H366 0.953 . S
C386 C385 1.377 . S
C386 C387 1.369 . S
C387 H367 0.945 . S
C387 C382 1.385 . S
C387 C386 1.369 . S
C388 C380 1.457 . S
C388 C389 1.372 . S
C388 C393 1.364 . S
C389 H368 0.952 . S
C389 C388 1.372 . S
C389 C390 1.389 . S
C390 H369 0.949 . S
C390 C389 1.389 . S
C390 C391 1.387 . S
C391 C390 1.387 . S
C391 C392 1.372 . S
C392 H370 0.950 . S
C392 C391 1.372 . S
C392 C393 1.379 . S
C393 H371 0.948 . S
C393 C388 1.364 . S
C393 C392 1.379 . S
C394 C363 1.383 . S
C394 C381 1.479 . S
C394 C395 1.398 . S
C395 C360 1.382 . S
C395 H372 0.951 . S
C395 C394 1.398 . S
C396 C397 1.384 . S
C396 H409 0.947 . S
C396 C431 1.382 . S
C397 C396 1.384 . S
C397 C398 1.378 . S
C398 C397 1.378 . S
C398 C399 1.378 . S
C398 H410 0.952 . S
C399 C398 1.378 . S
C399 H411 0.950 . S
C399 C430 1.383 . S
H400 C419 0.947 . S
H401 C420 0.946 . S
H402 C422 0.953 . S
H403 C423 0.945 . S
H404 C425 0.952 . S
H405 C426 0.949 . S
H406 C428 0.950 . S
H407 C429 0.948 . S
H408 C431 0.951 . S
H409 C396 0.947 . S
H410 C398 0.952 . S
H411 C399 0.950 . S
N412 C415 1.382 . S
N412 C417 1.363 . S
N413 C415 1.371 . S
N413 C416 1.372 . S
N414 C416 1.361 . S
N414 C417 1.377 . S
C415 N412 1.382 . S
C415 N413 1.371 . S
C415 C418 1.480 . S
C416 N413 1.372 . S
C416 N414 1.361 . S
C416 C424 1.457 . S
C417 N412 1.363 . S
C417 N414 1.377 . S
C417 C430 1.479 . S
C418 C415 1.480 . S
C418 C419 1.383 . S
C418 C423 1.385 . S
C419 H400 0.947 . S
C419 C418 1.383 . S
C419 C420 1.388 . S
C420 H401 0.946 . S
C420 C419 1.388 . S
C420 C421 1.384 . S
C421 C420 1.384 . S
C421 C422 1.377 . S
C422 H402 0.953 . S
C422 C421 1.377 . S
C422 C423 1.369 . S
C423 H403 0.945 . S
C423 C418 1.385 . S
C423 C422 1.369 . S
C424 C416 1.457 . S
C424 C425 1.372 . S
C424 C429 1.364 . S
C425 H404 0.952 . S
C425 C424 1.372 . S
C425 C426 1.389 . S
C426 H405 0.949 . S
C426 C425 1.389 . S
C426 C427 1.387 . S
C427 C426 1.387 . S
C427 C428 1.372 . S
C428 H406 0.950 . S
C428 C427 1.372 . S
C428 C429 1.379 . S
C429 H407 0.948 . S
C429 C424 1.364 . S
C429 C428 1.379 . S
C430 C399 1.383 . S
C430 C417 1.479 . S
C430 C431 1.398 . S
C431 C396 1.382 . S
C431 H408 0.951 . S
C431 C430 1.398 . S
C432 C433 1.384 . S
C432 H445 0.947 . S
C432 C467 1.382 . S
C433 C432 1.384 . S
C433 C434 1.378 . S
C434 C433 1.378 . S
C434 C435 1.378 . S
C434 H446 0.952 . S
C435 C434 1.378 . S
C435 H447 0.950 . S
C435 C466 1.383 . S
H436 C455 0.947 . S
H437 C456 0.946 . S
H438 C458 0.953 . S
H439 C459 0.945 . S
H440 C461 0.952 . S
H441 C462 0.949 . S
H442 C464 0.950 . S
H443 C465 0.948 . S
H444 C467 0.951 . S
H445 C432 0.947 . S
H446 C434 0.952 . S
H447 C435 0.950 . S
N448 C451 1.382 . S
N448 C453 1.363 . S
N449 C451 1.371 . S
N449 C452 1.372 . S
N450 C452 1.361 . S
N450 C453 1.377 . S
C451 N448 1.382 . S
C451 N449 1.371 . S
C451 C454 1.480 . S
C452 N449 1.372 . S
C452 N450 1.361 . S
C452 C460 1.457 . S
C453 N448 1.363 . S
C453 N450 1.377 . S
C453 C466 1.479 . S
C454 C451 1.480 . S
C454 C455 1.383 . S
C454 C459 1.385 . S
C455 H436 0.947 . S
C455 C454 1.383 . S
C455 C456 1.388 . S
C456 H437 0.946 . S
C456 C455 1.388 . S
C456 C457 1.384 . S
C457 C456 1.384 . S
C457 C458 1.377 . S
C458 H438 0.953 . S
C458 C457 1.377 . S
C458 C459 1.369 . S
C459 H439 0.945 . S
C459 C454 1.385 . S
C459 C458 1.369 . S
C460 C452 1.457 . S
C460 C461 1.372 . S
C460 C465 1.364 . S
C461 H440 0.952 . S
C461 C460 1.372 . S
C461 C462 1.389 . S
C462 H441 0.949 . S
C462 C461 1.389 . S
C462 C463 1.387 . S
C463 C462 1.387 . S
C463 C464 1.372 . S
C464 H442 0.950 . S
C464 C463 1.372 . S
C464 C465 1.379 . S
C465 H443 0.948 . S
C465 C460 1.364 . S
C465 C464 1.379 . S
C466 C435 1.383 . S
C466 C453 1.479 . S
C466 C467 1.398 . S
C467 C432 1.382 . S
C467 H444 0.951 . S
C467 C466 1.398 . S
C468 C469 1.384 . S
C468 H481 0.947 . S
C468 C503 1.382 . S
C469 C468 1.384 . S
C469 C470 1.378 . S
C470 C469 1.378 . S
C470 C471 1.378 . S
C470 H482 0.952 . S
C471 C470 1.378 . S
C471 H483 0.950 . S
C471 C502 1.383 . S
H472 C491 0.947 . S
H473 C492 0.946 . S
H474 C494 0.953 . S
H475 C495 0.945 . S
H476 C497 0.952 . S
H477 C498 0.949 . S
H478 C500 0.950 . S
H479 C501 0.948 . S
H480 C503 0.951 . S
H481 C468 0.947 . S
H482 C470 0.952 . S
H483 C471 0.950 . S
N484 C487 1.382 . S
N484 C489 1.363 . S
N485 C487 1.371 . S
N485 C488 1.372 . S
N486 C488 1.361 . S
N486 C489 1.377 . S
C487 N484 1.382 . S
C487 N485 1.371 . S
C487 C490 1.480 . S
C488 N485 1.372 . S
C488 N486 1.361 . S
C488 C496 1.457 . S
C489 N484 1.363 . S
C489 N486 1.377 . S
C489 C502 1.479 . S
C490 C487 1.480 . S
C490 C491 1.383 . S
C490 C495 1.385 . S
C491 H472 0.947 . S
C491 C490 1.383 . S
C491 C492 1.388 . S
C492 H473 0.946 . S
C492 C491 1.388 . S
C492 C493 1.384 . S
C493 C492 1.384 . S
C493 C494 1.377 . S
C494 H474 0.953 . S
C494 C493 1.377 . S
C494 C495 1.369 . S
C495 H475 0.945 . S
C495 C490 1.385 . S
C495 C494 1.369 . S
C496 C488 1.457 . S
C496 C497 1.372 . S
C496 C501 1.364 . S
C497 H476 0.952 . S
C497 C496 1.372 . S
C497 C498 1.389 . S
C498 H477 0.949 . S
C498 C497 1.389 . S
C498 C499 1.387 . S
C499 C498 1.387 . S
C499 C500 1.372 . S
C500 H478 0.950 . S
C500 C499 1.372 . S
C500 C501 1.379 . S
C501 H479 0.948 . S
C501 C496 1.364 . S
C501 C500 1.379 . S
C502 C471 1.383 . S
C502 C489 1.479 . S
C502 C503 1.398 . S
C503 C468 1.382 . S
C503 H480 0.951 . S
C503 C502 1.398 . S
C504 C505 1.384 . S
C504 H517 0.947 . S
C504 C539 1.382 . S
C505 C504 1.384 . S
C505 C506 1.378 . S
C506 C505 1.378 . S
C506 C507 1.378 . S
C506 H518 0.952 . S
C507 C506 1.378 . S
C507 H519 0.950 . S
C507 C538 1.383 . S
H508 C527 0.947 . S
H509 C528 0.946 . S
H510 C530 0.953 . S
H511 C531 0.945 . S
H512 C533 0.952 . S
H513 C534 0.949 . S
H514 C536 0.950 . S
H515 C537 0.948 . S
H516 C539 0.951 . S
H517 C504 0.947 . S
H518 C506 0.952 . S
H519 C507 0.950 . S
N520 C523 1.382 . S
N520 C525 1.363 . S
N521 C523 1.371 . S
N521 C524 1.372 . S
N522 C524 1.361 . S
N522 C525 1.377 . S
C523 N520 1.382 . S
C523 N521 1.371 . S
C523 C526 1.480 . S
C524 N521 1.372 . S
C524 N522 1.361 . S
C524 C532 1.457 . S
C525 N520 1.363 . S
C525 N522 1.377 . S
C525 C538 1.479 . S
C526 C523 1.480 . S
C526 C527 1.383 . S
C526 C531 1.385 . S
C527 H508 0.947 . S
C527 C526 1.383 . S
C527 C528 1.388 . S
C528 H509 0.946 . S
C528 C527 1.388 . S
C528 C529 1.384 . S
C529 C528 1.384 . S
C529 C530 1.377 . S
C530 H510 0.953 . S
C530 C529 1.377 . S
C530 C531 1.369 . S
C531 H511 0.945 . S
C531 C526 1.385 . S
C531 C530 1.369 . S
C532 C524 1.457 . S
C532 C533 1.372 . S
C532 C537 1.364 . S
C533 H512 0.952 . S
C533 C532 1.372 . S
C533 C534 1.389 . S
C534 H513 0.949 . S
C534 C533 1.389 . S
C534 C535 1.387 . S
C535 C534 1.387 . S
C535 C536 1.372 . S
C536 H514 0.950 . S
C536 C535 1.372 . S
C536 C537 1.379 . S
C537 H515 0.948 . S
C537 C532 1.364 . S
C537 C536 1.379 . S
C538 C507 1.383 . S
C538 C525 1.479 . S
C538 C539 1.398 . S
C539 C504 1.382 . S
C539 H516 0.951 . S
C539 C538 1.398 . S
C540 C541 1.384 . S
C540 H553 0.947 . S
C540 C575 1.382 . S
C541 C540 1.384 . S
C541 C542 1.378 . S
C542 C541 1.378 . S
C542 C543 1.378 . S
C542 H554 0.952 . S
C543 C542 1.378 . S
C543 H555 0.950 . S
C543 C574 1.383 . S
H544 C563 0.947 . S
H545 C564 0.946 . S
H546 C566 0.953 . S
H547 C567 0.945 . S
H548 C569 0.952 . S
H549 C570 0.949 . S
H550 C572 0.950 . S
H551 C573 0.948 . S
H552 C575 0.951 . S
H553 C540 0.947 . S
H554 C542 0.952 . S
H555 C543 0.950 . S
N556 C559 1.382 . S
N556 C561 1.363 . S
N557 C559 1.371 . S
N557 C560 1.372 . S
N558 C560 1.361 . S
N558 C561 1.377 . S
C559 N556 1.382 . S
C559 N557 1.371 . S
C559 C562 1.480 . S
C560 N557 1.372 . S
C560 N558 1.361 . S
C560 C568 1.457 . S
C561 N556 1.363 . S
C561 N558 1.377 . S
C561 C574 1.479 . S
C562 C559 1.480 . S
C562 C563 1.383 . S
C562 C567 1.385 . S
C563 H544 0.947 . S
C563 C562 1.383 . S
C563 C564 1.388 . S
C564 H545 0.946 . S
C564 C563 1.388 . S
C564 C565 1.384 . S
C565 C564 1.384 . S
C565 C566 1.377 . S
C566 H546 0.953 . S
C566 C565 1.377 . S
C566 C567 1.369 . S
C567 H547 0.945 . S
C567 C562 1.385 . S
C567 C566 1.369 . S
C568 C560 1.457 . S
C568 C569 1.372 . S
C568 C573 1.364 . S
C569 H548 0.952 . S
C569 C568 1.372 . S
C569 C570 1.389 . S
C570 H549 0.949 . S
C570 C569 1.389 . S
C570 C571 1.387 . S
C571 C570 1.387 . S
C571 C572 1.372 . S
C572 H550 0.950 . S
C572 C571 1.372 . S
C572 C573 1.379 . S
C573 H551 0.948 . S
C573 C568 1.364 . S
C573 C572 1.379 . S
C574 C543 1.383 . S
C574 C561 1.479 . S
C574 C575 1.398 . S
C575 C540 1.382 . S
C575 H552 0.951 . S
C575 C574 1.398 . S
C576 C577 1.384 . S
C576 H589 0.947 . S
C576 C611 1.382 . S
C577 C576 1.384 . S
C577 C578 1.378 . S
C578 C577 1.378 . S
C578 C579 1.378 . S
C578 H590 0.952 . S
C579 C578 1.378 . S
C579 H591 0.950 . S
C579 C610 1.383 . S
H580 C599 0.947 . S
H581 C600 0.946 . S
H582 C602 0.953 . S
H583 C603 0.945 . S
H584 C605 0.952 . S
H585 C606 0.949 . S
H586 C608 0.950 . S
H587 C609 0.948 . S
H588 C611 0.951 . S
H589 C576 0.947 . S
H590 C578 0.952 . S
H591 C579 0.950 . S
N592 C595 1.382 . S
N592 C597 1.363 . S
N593 C595 1.371 . S
N593 C596 1.372 . S
N594 C596 1.361 . S
N594 C597 1.377 . S
C595 N592 1.382 . S
C595 N593 1.371 . S
C595 C598 1.480 . S
C596 N593 1.372 . S
C596 N594 1.361 . S
C596 C604 1.457 . S
C597 N592 1.363 . S
C597 N594 1.377 . S
C597 C610 1.479 . S
C598 C595 1.480 . S
C598 C599 1.383 . S
C598 C603 1.385 . S
C599 H580 0.947 . S
C599 C598 1.383 . S
C599 C600 1.388 . S
C600 H581 0.946 . S
C600 C599 1.388 . S
C600 C601 1.384 . S
C601 C600 1.384 . S
C601 C602 1.377 . S
C602 H582 0.953 . S
C602 C601 1.377 . S
C602 C603 1.369 . S
C603 H583 0.945 . S
C603 C598 1.385 . S
C603 C602 1.369 . S
C604 C596 1.457 . S
C604 C605 1.372 . S
C604 C609 1.364 . S
C605 H584 0.952 . S
C605 C604 1.372 . S
C605 C606 1.389 . S
C606 H585 0.949 . S
C606 C605 1.389 . S
C606 C607 1.387 . S
C607 C606 1.387 . S
C607 C608 1.372 . S
C608 H586 0.950 . S
C608 C607 1.372 . S
C608 C609 1.379 . S
C609 H587 0.948 . S
C609 C604 1.364 . S
C609 C608 1.379 . S
C610 C579 1.383 . S
C610 C597 1.479 . S
C610 C611 1.398 . S
C611 C576 1.382 . S
C611 H588 0.951 . S
C611 C610 1.398 . S
C612 C613 1.384 . S
C612 H625 0.947 . S
C612 C647 1.382 . S
C613 C612 1.384 . S
C613 C614 1.378 . S
C614 C613 1.378 . S
C614 C615 1.378 . S
C614 H626 0.952 . S
C615 C614 1.378 . S
C615 H627 0.950 . S
C615 C646 1.383 . S
H616 C635 0.947 . S
H617 C636 0.946 . S
H618 C638 0.953 . S
H619 C639 0.945 . S
H620 C641 0.952 . S
H621 C642 0.949 . S
H622 C644 0.950 . S
H623 C645 0.948 . S
H624 C647 0.951 . S
H625 C612 0.947 . S
H626 C614 0.952 . S
H627 C615 0.950 . S
N628 C631 1.382 . S
N628 C633 1.363 . S
N629 C631 1.371 . S
N629 C632 1.372 . S
N630 C632 1.361 . S
N630 C633 1.377 . S
C631 N628 1.382 . S
C631 N629 1.371 . S
C631 C634 1.480 . S
C632 N629 1.372 . S
C632 N630 1.361 . S
C632 C640 1.457 . S
C633 N628 1.363 . S
C633 N630 1.377 . S
C633 C646 1.479 . S
C634 C631 1.480 . S
C634 C635 1.383 . S
C634 C639 1.385 . S
C635 H616 0.947 . S
C635 C634 1.383 . S
C635 C636 1.388 . S
C636 H617 0.946 . S
C636 C635 1.388 . S
C636 C637 1.384 . S
C637 C636 1.384 . S
C637 C638 1.377 . S
C638 H618 0.953 . S
C638 C637 1.377 . S
C638 C639 1.369 . S
C639 H619 0.945 . S
C639 C634 1.385 . S
C639 C638 1.369 . S
C640 C632 1.457 . S
C640 C641 1.372 . S
C640 C645 1.364 . S
C641 H620 0.952 . S
C641 C640 1.372 . S
C641 C642 1.389 . S
C642 H621 0.949 . S
C642 C641 1.389 . S
C642 C643 1.387 . S
C643 C642 1.387 . S
C643 C644 1.372 . S
C644 H622 0.950 . S
C644 C643 1.372 . S
C644 C645 1.379 . S
C645 H623 0.948 . S
C645 C640 1.364 . S
C645 C644 1.379 . S
C646 C615 1.383 . S
C646 C633 1.479 . S
C646 C647 1.398 . S
C647 C612 1.382 . S
C647 H624 0.951 . S
C647 C646 1.398 . S
Tb648 N679 2.660 . S
Tb648 N686 2.600 . S
Tb648 O692 2.546 . S
Tb648 O693 2.610 1_565 S
Tb648 O695 2.320 1_565 S
Tb648 O696 2.552 1_565 S
Tb648 O697 2.413 . S
Tb648 O699 2.362 1_556 S
Tb648 O700 2.421 . S
Tb648 C712 2.833 . S
C649 C652 1.432 . S
C649 C653 1.414 . S
C649 N656 1.359 . S
C650 C652 1.417 . S
C650 C654 1.432 . S
C650 C662 1.410 . S
C651 C653 1.444 . S
C651 C654 1.317 . S
C651 H674 0.929 . S
C652 C649 1.432 . S
C652 C650 1.417 . S
C652 N660 1.360 . S
C653 C649 1.414 . S
C653 C651 1.444 . S
C653 C658 1.385 . S
C654 C650 1.432 . S
C654 C651 1.317 . S
C654 H666 0.930 . S
C655 C657 1.392 . S
C655 C658 1.370 . S
C655 H667 0.931 . S
N656 C649 1.359 . S
N656 C657 1.327 . S
N656 Tb659 2.600 . S
C657 C655 1.392 . S
C657 N656 1.327 . S
C657 H664 0.930 . S
C658 C653 1.385 . S
C658 C655 1.370 . S
C658 H677 0.930 . S
Tb659 N656 2.600 . S
Tb659 N660 2.660 . S
Tb659 O693 2.362 1_554 S
Tb659 O694 2.421 . S
Tb659 O698 2.546 . S
Tb659 O699 2.610 1_545 S
Tb659 O701 2.320 1_545 S
Tb659 O702 2.552 1_545 S
Tb659 O703 2.413 . S
Tb659 C723 2.833 . S
N660 C652 1.360 . S
N660 Tb659 2.660 . S
N660 C661 1.305 . S
C661 N660 1.305 . S
C661 C663 1.407 . S
C661 H668 0.930 . S
C662 C650 1.410 . S
C662 C663 1.345 . S
C662 H670 0.930 . S
C663 C661 1.407 . S
C663 C662 1.345 . S
C663 H665 0.930 . S
H664 C657 0.930 . S
H665 C663 0.930 . S
H666 C654 0.930 . S
H667 C655 0.931 . S
H668 C661 0.930 . S
H669 C683 0.930 . S
H670 C662 0.930 . S
H671 C689 0.930 . S
H672 C680 0.930 . S
H673 C687 0.931 . S
H674 C651 0.929 . S
H675 C681 0.930 . S
H676 C714 0.930 . S
H677 C658 0.930 . S
H678 C713 0.929 . S
N679 Tb648 2.660 . S
N679 C680 1.305 . S
N679 C684 1.360 . S
C680 H672 0.930 . S
C680 N679 1.305 . S
C680 C683 1.407 . S
C681 H675 0.930 . S
C681 C682 1.410 . S
C681 C683 1.345 . S
C682 C681 1.410 . S
C682 C684 1.417 . S
C682 C714 1.432 . S
C683 H669 0.930 . S
C683 C680 1.407 . S
C683 C681 1.345 . S
C684 N679 1.360 . S
C684 C682 1.417 . S
C684 C688 1.432 . S
H685 C690 0.930 . S
N686 Tb648 2.600 . S
N686 C688 1.359 . S
N686 C689 1.327 . S
C687 H673 0.931 . S
C687 C689 1.392 . S
C687 C690 1.370 . S
C688 C684 1.432 . S
C688 N686 1.359 . S
C688 C691 1.414 . S
C689 H671 0.930 . S
C689 N686 1.327 . S
C689 C687 1.392 . S
C690 H685 0.930 . S
C690 C687 1.370 . S
C690 C691 1.385 . S
C691 C688 1.414 . S
C691 C690 1.385 . S
C691 C713 1.444 . S
O692 Tb648 2.546 . S
O692 C712 1.251 . S
O693 Tb648 2.610 1_545 S
O693 Tb659 2.362 1_556 S
O693 C704 1.283 . S
O694 Tb659 2.421 . S
O694 C711 1.262 1_554 S
O695 Tb648 2.320 1_545 S
O695 C711 1.260 . S
O696 Tb648 2.552 1_545 S
O696 C704 1.243 . S
O697 Tb648 2.413 . S
O697 C712 1.256 . S
O698 Tb659 2.546 . S
O698 C723 1.251 . S
O699 Tb648 2.362 1_554 S
O699 Tb659 2.610 1_565 S
O699 C715 1.283 . S
O700 Tb648 2.421 . S
O700 C722 1.262 1_556 S
O701 Tb659 2.320 1_565 S
O701 C722 1.260 . S
O702 Tb659 2.552 1_565 S
O702 C715 1.243 . S
O703 Tb659 2.413 . S
O703 C723 1.256 . S
C704 O693 1.283 . S
C704 O696 1.243 . S
C705 C707 1.382 1_565 S
C705 C709 1.393 . S
C705 C712 1.500 . S
C706 C707 1.400 . S
C706 C708 1.384 1_545 S
C707 C705 1.382 1_545 S
C707 C706 1.400 . S
C707 H724 0.930 . S
C708 C706 1.384 1_565 S
C708 C710 1.392 . S
C708 H725 0.931 . S
C709 C705 1.393 . S
C709 C710 1.401 . S
C709 H726 0.930 . S
C710 C708 1.392 . S
C710 C709 1.401 . S
C710 H727 0.930 . S
C711 O694 1.262 1_556 S
C711 O695 1.260 . S
C712 Tb648 2.833 . S
C712 O692 1.251 . S
C712 O697 1.256 . S
C712 C705 1.500 . S
C713 H678 0.929 . S
C713 C691 1.444 . S
C713 C714 1.317 . S
C714 H676 0.930 . S
C714 C682 1.432 . S
C714 C713 1.317 . S
C715 O699 1.283 . S
C715 O702 1.243 . S
C716 C717 1.382 1_545 S
C716 C720 1.393 . S
C716 C723 1.500 . S
C717 C716 1.382 1_565 S
C717 C718 1.400 . S
C717 H728 0.930 . S
C718 C717 1.400 . S
C718 C719 1.384 1_565 S
C719 C718 1.384 1_545 S
C719 C721 1.392 . S
C719 H729 0.931 . S
C720 C716 1.393 . S
C720 C721 1.401 . S
C720 H730 0.930 . S
C721 C719 1.392 . S
C721 C720 1.401 . S
C721 H731 0.930 . S
C722 O700 1.262 1_554 S
C722 O701 1.260 . S
C723 Tb659 2.833 . S
C723 O698 1.251 . S
C723 O703 1.256 . S
C723 C716 1.500 . S
H724 C707 0.930 . S
H725 C708 0.931 . S
H726 C709 0.930 . S
H727 C710 0.930 . S
H728 C717 0.930 . S
H729 C719 0.931 . S
H730 C720 0.930 . S
H731 C721 0.930 . S
Tb732 N763 2.660 . S
Tb732 N770 2.600 . S
Tb732 O776 2.546 . S
Tb732 O777 2.610 1_455 S
Tb732 O779 2.320 1_455 S
Tb732 O780 2.552 1_455 S
Tb732 O781 2.413 . S
Tb732 O783 2.362 1_556 S
Tb732 O784 2.421 . S
Tb732 C796 2.833 . S
C733 C736 1.432 . S
C733 C737 1.414 . S
C733 N740 1.359 . S
C734 C736 1.417 . S
C734 C738 1.432 . S
C734 C746 1.410 . S
C735 C737 1.444 . S
C735 C738 1.317 . S
C735 H758 0.929 . S
C736 C733 1.432 . S
C736 C734 1.417 . S
C736 N744 1.360 . S
C737 C733 1.414 . S
C737 C735 1.444 . S
C737 C742 1.385 . S
C738 C734 1.432 . S
C738 C735 1.317 . S
C738 H750 0.930 . S
C739 C741 1.392 . S
C739 C742 1.370 . S
C739 H751 0.931 . S
N740 C733 1.359 . S
N740 C741 1.327 . S
N740 Tb743 2.600 . S
C741 C739 1.392 . S
C741 N740 1.327 . S
C741 H748 0.930 . S
C742 C737 1.385 . S
C742 C739 1.370 . S
C742 H761 0.930 . S
Tb743 N740 2.600 . S
Tb743 N744 2.660 . S
Tb743 O777 2.362 1_554 S
Tb743 O778 2.421 . S
Tb743 O782 2.546 . S
Tb743 O783 2.610 1_655 S
Tb743 O785 2.320 1_655 S
Tb743 O786 2.552 1_655 S
Tb743 O787 2.413 . S
Tb743 C807 2.833 . S
N744 C736 1.360 . S
N744 Tb743 2.660 . S
N744 C745 1.305 . S
C745 N744 1.305 . S
C745 C747 1.407 . S
C745 H752 0.930 . S
C746 C734 1.410 . S
C746 C747 1.345 . S
C746 H754 0.930 . S
C747 C745 1.407 . S
C747 C746 1.345 . S
C747 H749 0.930 . S
H748 C741 0.930 . S
H749 C747 0.930 . S
H750 C738 0.930 . S
H751 C739 0.931 . S
H752 C745 0.930 . S
H753 C767 0.930 . S
H754 C746 0.930 . S
H755 C773 0.930 . S
H756 C764 0.930 . S
H757 C771 0.931 . S
H758 C735 0.929 . S
H759 C765 0.930 . S
H760 C798 0.930 . S
H761 C742 0.930 . S
H762 C797 0.929 . S
N763 Tb732 2.660 . S
N763 C764 1.305 . S
N763 C768 1.360 . S
C764 H756 0.930 . S
C764 N763 1.305 . S
C764 C767 1.407 . S
C765 H759 0.930 . S
C765 C766 1.410 . S
C765 C767 1.345 . S
C766 C765 1.410 . S
C766 C768 1.417 . S
C766 C798 1.432 . S
C767 H753 0.930 . S
C767 C764 1.407 . S
C767 C765 1.345 . S
C768 N763 1.360 . S
C768 C766 1.417 . S
C768 C772 1.432 . S
H769 C774 0.930 . S
N770 Tb732 2.600 . S
N770 C772 1.359 . S
N770 C773 1.327 . S
C771 H757 0.931 . S
C771 C773 1.392 . S
C771 C774 1.370 . S
C772 C768 1.432 . S
C772 N770 1.359 . S
C772 C775 1.414 . S
C773 H755 0.930 . S
C773 N770 1.327 . S
C773 C771 1.392 . S
C774 H769 0.930 . S
C774 C771 1.370 . S
C774 C775 1.385 . S
C775 C772 1.414 . S
C775 C774 1.385 . S
C775 C797 1.444 . S
O776 Tb732 2.546 . S
O776 C796 1.251 . S
O777 Tb732 2.610 1_655 S
O777 Tb743 2.362 1_556 S
O777 C788 1.283 . S
O778 Tb743 2.421 . S
O778 C795 1.262 1_554 S
O779 Tb732 2.320 1_655 S
O779 C795 1.260 . S
O780 Tb732 2.552 1_655 S
O780 C788 1.243 . S
O781 Tb732 2.413 . S
O781 C796 1.256 . S
O782 Tb743 2.546 . S
O782 C807 1.251 . S
O783 Tb732 2.362 1_554 S
O783 Tb743 2.610 1_455 S
O783 C799 1.283 . S
O784 Tb732 2.421 . S
O784 C806 1.262 1_556 S
O785 Tb743 2.320 1_455 S
O785 C806 1.260 . S
O786 Tb743 2.552 1_455 S
O786 C799 1.243 . S
O787 Tb743 2.413 . S
O787 C807 1.256 . S
C788 O777 1.283 . S
C788 O780 1.243 . S
C789 C791 1.382 1_455 S
C789 C793 1.393 . S
C789 C796 1.500 . S
C790 C791 1.400 . S
C790 C792 1.384 1_655 S
C791 C789 1.382 1_655 S
C791 C790 1.400 . S
C791 H808 0.930 . S
C792 C790 1.384 1_455 S
C792 C794 1.392 . S
C792 H809 0.931 . S
C793 C789 1.393 . S
C793 C794 1.401 . S
C793 H810 0.930 . S
C794 C792 1.392 . S
C794 C793 1.401 . S
C794 H811 0.930 . S
C795 O778 1.262 1_556 S
C795 O779 1.260 . S
C796 Tb732 2.833 . S
C796 O776 1.251 . S
C796 O781 1.256 . S
C796 C789 1.500 . S
C797 H762 0.929 . S
C797 C775 1.444 . S
C797 C798 1.317 . S
C798 H760 0.930 . S
C798 C766 1.432 . S
C798 C797 1.317 . S
C799 O783 1.283 . S
C799 O786 1.243 . S
C800 C801 1.382 1_655 S
C800 C804 1.393 . S
C800 C807 1.500 . S
C801 C800 1.382 1_455 S
C801 C802 1.400 . S
C801 H812 0.930 . S
C802 C801 1.400 . S
C802 C803 1.384 1_455 S
C803 C802 1.384 1_655 S
C803 C805 1.392 . S
C803 H813 0.931 . S
C804 C800 1.393 . S
C804 C805 1.401 . S
C804 H814 0.930 . S
C805 C803 1.392 . S
C805 C804 1.401 . S
C805 H815 0.930 . S
C806 O784 1.262 1_554 S
C806 O785 1.260 . S
C807 Tb743 2.833 . S
C807 O782 1.251 . S
C807 O787 1.256 . S
C807 C800 1.500 . S
H808 C791 0.930 . S
H809 C792 0.931 . S
H810 C793 0.930 . S
H811 C794 0.930 . S
H812 C801 0.930 . S
H813 C803 0.931 . S
H814 C804 0.930 . S
H815 C805 0.930 . S
Tb816 N847 2.660 . S
Tb816 N854 2.600 . S
Tb816 O860 2.546 . S
Tb816 O861 2.610 . S
Tb816 O863 2.320 . S
Tb816 O864 2.552 . S
Tb816 O865 2.413 . S
Tb816 O867 2.362 1_554 S
Tb816 O868 2.421 . S
Tb816 C880 2.833 . S
C817 C820 1.432 . S
C817 C821 1.414 . S
C817 N824 1.359 . S
C818 C820 1.417 . S
C818 C822 1.432 . S
C818 C830 1.410 . S
C819 C821 1.444 . S
C819 C822 1.317 . S
C819 H842 0.929 . S
C820 C817 1.432 . S
C820 C818 1.417 . S
C820 N828 1.360 . S
C821 C817 1.414 . S
C821 C819 1.444 . S
C821 C826 1.385 . S
C822 C818 1.432 . S
C822 C819 1.317 . S
C822 H834 0.930 . S
C823 C825 1.392 . S
C823 C826 1.370 . S
C823 H835 0.931 . S
N824 C817 1.359 . S
N824 C825 1.327 . S
N824 Tb827 2.600 . S
C825 C823 1.392 . S
C825 N824 1.327 . S
C825 H832 0.930 . S
C826 C821 1.385 . S
C826 C823 1.370 . S
C826 H845 0.930 . S
Tb827 N824 2.600 . S
Tb827 N828 2.660 . S
Tb827 O861 2.362 1_556 S
Tb827 O862 2.421 . S
Tb827 O866 2.546 . S
Tb827 O867 2.610 . S
Tb827 O869 2.320 . S
Tb827 O870 2.552 . S
Tb827 O871 2.413 . S
Tb827 C891 2.833 . S
N828 C820 1.360 . S
N828 Tb827 2.660 . S
N828 C829 1.305 . S
C829 N828 1.305 . S
C829 C831 1.407 . S
C829 H836 0.930 . S
C830 C818 1.410 . S
C830 C831 1.345 . S
C830 H838 0.930 . S
C831 C829 1.407 . S
C831 C830 1.345 . S
C831 H833 0.930 . S
H832 C825 0.930 . S
H833 C831 0.930 . S
H834 C822 0.930 . S
H835 C823 0.931 . S
H836 C829 0.930 . S
H837 C851 0.930 . S
H838 C830 0.930 . S
H839 C857 0.930 . S
H840 C848 0.930 . S
H841 C855 0.931 . S
H842 C819 0.929 . S
H843 C849 0.930 . S
H844 C882 0.930 . S
H845 C826 0.930 . S
H846 C881 0.929 . S
N847 Tb816 2.660 . S
N847 C848 1.305 . S
N847 C852 1.360 . S
C848 H840 0.930 . S
C848 N847 1.305 . S
C848 C851 1.407 . S
C849 H843 0.930 . S
C849 C850 1.410 . S
C849 C851 1.345 . S
C850 C849 1.410 . S
C850 C852 1.417 . S
C850 C882 1.432 . S
C851 H837 0.930 . S
C851 C848 1.407 . S
C851 C849 1.345 . S
C852 N847 1.360 . S
C852 C850 1.417 . S
C852 C856 1.432 . S
H853 C858 0.930 . S
N854 Tb816 2.600 . S
N854 C856 1.359 . S
N854 C857 1.327 . S
C855 H841 0.931 . S
C855 C857 1.392 . S
C855 C858 1.370 . S
C856 C852 1.432 . S
C856 N854 1.359 . S
C856 C859 1.414 . S
C857 H839 0.930 . S
C857 N854 1.327 . S
C857 C855 1.392 . S
C858 H853 0.930 . S
C858 C855 1.370 . S
C858 C859 1.385 . S
C859 C856 1.414 . S
C859 C858 1.385 . S
C859 C881 1.444 . S
O860 Tb816 2.546 . S
O860 C880 1.251 . S
O861 Tb816 2.610 . S
O861 Tb827 2.362 1_554 S
O861 C872 1.283 . S
O862 Tb827 2.421 . S
O862 C879 1.262 1_556 S
O863 Tb816 2.320 . S
O863 C879 1.260 . S
O864 Tb816 2.552 . S
O864 C872 1.243 . S
O865 Tb816 2.413 . S
O865 C880 1.256 . S
O866 Tb827 2.546 . S
O866 C891 1.251 . S
O867 Tb816 2.362 1_556 S
O867 Tb827 2.610 . S
O867 C883 1.283 . S
O868 Tb816 2.421 . S
O868 C890 1.262 1_554 S
O869 Tb827 2.320 . S
O869 C890 1.260 . S
O870 Tb827 2.552 . S
O870 C883 1.243 . S
O871 Tb827 2.413 . S
O871 C891 1.256 . S
C872 O861 1.283 . S
C872 O864 1.243 . S
C873 C875 1.382 . S
C873 C877 1.393 . S
C873 C880 1.500 . S
C874 C875 1.400 . S
C874 C876 1.384 . S
C875 C873 1.382 . S
C875 C874 1.400 . S
C875 H892 0.930 . S
C876 C874 1.384 . S
C876 C878 1.392 . S
C876 H893 0.931 . S
C877 C873 1.393 . S
C877 C878 1.401 . S
C877 H894 0.930 . S
C878 C876 1.392 . S
C878 C877 1.401 . S
C878 H895 0.930 . S
C879 O862 1.262 1_554 S
C879 O863 1.260 . S
C880 Tb816 2.833 . S
C880 O860 1.251 . S
C880 O865 1.256 . S
C880 C873 1.500 . S
C881 H846 0.929 . S
C881 C859 1.444 . S
C881 C882 1.317 . S
C882 H844 0.930 . S
C882 C850 1.432 . S
C882 C881 1.317 . S
C883 O867 1.283 . S
C883 O870 1.243 . S
C884 C885 1.382 . S
C884 C888 1.393 . S
C884 C891 1.500 . S
C885 C884 1.382 . S
C885 C886 1.400 . S
C885 H896 0.930 . S
C886 C885 1.400 . S
C886 C887 1.384 . S
C887 C886 1.384 . S
C887 C889 1.392 . S
C887 H897 0.931 . S
C888 C884 1.393 . S
C888 C889 1.401 . S
C888 H898 0.930 . S
C889 C887 1.392 . S
C889 C888 1.401 . S
C889 H899 0.930 . S
C890 O868 1.262 1_556 S
C890 O869 1.260 . S
C891 Tb827 2.833 . S
C891 O866 1.251 . S
C891 O871 1.256 . S
C891 C884 1.500 . S
H892 C875 0.930 . S
H893 C876 0.931 . S
H894 C877 0.930 . S
H895 C878 0.930 . S
H896 C885 0.930 . S
H897 C887 0.931 . S
H898 C888 0.930 . S
H899 C889 0.930 . S
Tb900 N931 2.660 . S
Tb900 N938 2.600 . S
Tb900 O944 2.546 . S
Tb900 O945 2.610 . S
Tb900 O947 2.320 . S
Tb900 O948 2.552 . S
Tb900 O949 2.413 . S
Tb900 O951 2.362 . S
Tb900 O952 2.421 . S
Tb900 C964 2.833 . S
C901 C904 1.432 . S
C901 C905 1.414 . S
C901 N908 1.359 . S
C902 C904 1.417 . S
C902 C906 1.432 . S
C902 C914 1.410 . S
C903 C905 1.444 . S
C903 C906 1.317 . S
C903 H926 0.929 . S
C904 C901 1.432 . S
C904 C902 1.417 . S
C904 N912 1.360 . S
C905 C901 1.414 . S
C905 C903 1.444 . S
C905 C910 1.385 . S
C906 C902 1.432 . S
C906 C903 1.317 . S
C906 H918 0.930 . S
C907 C909 1.392 . S
C907 C910 1.370 . S
C907 H919 0.931 . S
N908 C901 1.359 . S
N908 C909 1.327 . S
N908 Tb911 2.600 . S
C909 C907 1.392 . S
C909 N908 1.327 . S
C909 H916 0.930 . S
C910 C905 1.385 . S
C910 C907 1.370 . S
C910 H929 0.930 . S
Tb911 N908 2.600 . S
Tb911 N912 2.660 . S
Tb911 O945 2.362 . S
Tb911 O946 2.421 . S
Tb911 O950 2.546 . S
Tb911 O951 2.610 . S
Tb911 O953 2.320 . S
Tb911 O954 2.552 . S
Tb911 O955 2.413 . S
Tb911 C975 2.833 . S
N912 C904 1.360 . S
N912 Tb911 2.660 . S
N912 C913 1.305 . S
C913 N912 1.305 . S
C913 C915 1.407 . S
C913 H920 0.930 . S
C914 C902 1.410 . S
C914 C915 1.345 . S
C914 H922 0.930 . S
C915 C913 1.407 . S
C915 C914 1.345 . S
C915 H917 0.930 . S
H916 C909 0.930 . S
H917 C915 0.930 . S
H918 C906 0.930 . S
H919 C907 0.931 . S
H920 C913 0.930 . S
H921 C935 0.930 . S
H922 C914 0.930 . S
H923 C941 0.930 . S
H924 C932 0.930 . S
H925 C939 0.931 . S
H926 C903 0.929 . S
H927 C933 0.930 . S
H928 C966 0.930 . S
H929 C910 0.930 . S
H930 C965 0.929 . S
N931 Tb900 2.660 . S
N931 C932 1.305 . S
N931 C936 1.360 . S
C932 H924 0.930 . S
C932 N931 1.305 . S
C932 C935 1.407 . S
C933 H927 0.930 . S
C933 C934 1.410 . S
C933 C935 1.345 . S
C934 C933 1.410 . S
C934 C936 1.417 . S
C934 C966 1.432 . S
C935 H921 0.930 . S
C935 C932 1.407 . S
C935 C933 1.345 . S
C936 N931 1.360 . S
C936 C934 1.417 . S
C936 C940 1.432 . S
H937 C942 0.930 . S
N938 Tb900 2.600 . S
N938 C940 1.359 . S
N938 C941 1.327 . S
C939 H925 0.931 . S
C939 C941 1.392 . S
C939 C942 1.370 . S
C940 C936 1.432 . S
C940 N938 1.359 . S
C940 C943 1.414 . S
C941 H923 0.930 . S
C941 N938 1.327 . S
C941 C939 1.392 . S
C942 H937 0.930 . S
C942 C939 1.370 . S
C942 C943 1.385 . S
C943 C940 1.414 . S
C943 C942 1.385 . S
C943 C965 1.444 . S
O944 Tb900 2.546 . S
O944 C964 1.251 . S
O945 Tb900 2.610 . S
O945 Tb911 2.362 . S
O945 C956 1.283 . S
O946 Tb911 2.421 . S
O946 C963 1.262 . S
O947 Tb900 2.320 . S
O947 C963 1.260 . S
O948 Tb900 2.552 . S
O948 C956 1.243 . S
O949 Tb900 2.413 . S
O949 C964 1.256 . S
O950 Tb911 2.546 . S
O950 C975 1.251 . S
O951 Tb900 2.362 . S
O951 Tb911 2.610 . S
O951 C967 1.283 . S
O952 Tb900 2.421 . S
O952 C974 1.262 . S
O953 Tb911 2.320 . S
O953 C974 1.260 . S
O954 Tb911 2.552 . S
O954 C967 1.243 . S
O955 Tb911 2.413 . S
O955 C975 1.256 . S
C956 O945 1.283 . S
C956 O948 1.243 . S
C957 C959 1.382 . S
C957 C961 1.393 . S
C957 C964 1.500 . S
C958 C959 1.400 . S
C958 C960 1.384 . S
C959 C957 1.382 . S
C959 C958 1.400 . S
C959 H976 0.930 . S
C960 C958 1.384 . S
C960 C962 1.392 . S
C960 H977 0.931 . S
C961 C957 1.393 . S
C961 C962 1.401 . S
C961 H978 0.930 . S
C962 C960 1.392 . S
C962 C961 1.401 . S
C962 H979 0.930 . S
C963 O946 1.262 . S
C963 O947 1.260 . S
C964 Tb900 2.833 . S
C964 O944 1.251 . S
C964 O949 1.256 . S
C964 C957 1.500 . S
C965 H930 0.929 . S
C965 C943 1.444 . S
C965 C966 1.317 . S
C966 H928 0.930 . S
C966 C934 1.432 . S
C966 C965 1.317 . S
C967 O951 1.283 . S
C967 O954 1.243 . S
C968 C969 1.382 . S
C968 C972 1.393 . S
C968 C975 1.500 . S
C969 C968 1.382 . S
C969 C970 1.400 . S
C969 H980 0.930 . S
C970 C969 1.400 . S
C970 C971 1.384 . S
C971 C970 1.384 . S
C971 C973 1.392 . S
C971 H981 0.931 . S
C972 C968 1.393 . S
C972 C973 1.401 . S
C972 H982 0.930 . S
C973 C971 1.392 . S
C973 C972 1.401 . S
C973 H983 0.930 . S
C974 O952 1.262 . S
C974 O953 1.260 . S
C975 Tb911 2.833 . S
C975 O950 1.251 . S
C975 O955 1.256 . S
C975 C968 1.500 . S
H976 C959 0.930 . S
H977 C960 0.931 . S
H978 C961 0.930 . S
H979 C962 0.930 . S
H980 C969 0.930 . S
H981 C971 0.931 . S
H982 C972 0.930 . S
H983 C973 0.930 . S
Tb984 N1015 2.660 . S
Tb984 N1022 2.600 . S
Tb984 O1028 2.546 . S
Tb984 O1029 2.610 . S
Tb984 O1031 2.320 . S
Tb984 O1032 2.552 . S
Tb984 O1033 2.413 . S
Tb984 O1035 2.362 . S
Tb984 O1036 2.421 . S
Tb984 C1048 2.833 . S
C985 C988 1.432 . S
C985 C989 1.414 . S
C985 N992 1.359 . S
C986 C988 1.417 . S
C986 C990 1.432 . S
C986 C998 1.410 . S
C987 C989 1.444 . S
C987 C990 1.317 . S
C987 H1010 0.929 . S
C988 C985 1.432 . S
C988 C986 1.417 . S
C988 N996 1.360 . S
C989 C985 1.414 . S
C989 C987 1.444 . S
C989 C994 1.385 . S
C990 C986 1.432 . S
C990 C987 1.317 . S
C990 H1002 0.930 . S
C991 C993 1.392 . S
C991 C994 1.370 . S
C991 H1003 0.931 . S
N992 C985 1.359 . S
N992 C993 1.327 . S
N992 Tb995 2.600 . S
C993 C991 1.392 . S
C993 N992 1.327 . S
C993 H1000 0.930 . S
C994 C989 1.385 . S
C994 C991 1.370 . S
C994 H1013 0.930 . S
Tb995 N992 2.600 . S
Tb995 N996 2.660 . S
Tb995 O1029 2.362 . S
Tb995 O1030 2.421 . S
Tb995 O1034 2.546 . S
Tb995 O1035 2.610 . S
Tb995 O1037 2.320 . S
Tb995 O1038 2.552 . S
Tb995 O1039 2.413 . S
Tb995 C1059 2.833 . S
N996 C988 1.360 . S
N996 Tb995 2.660 . S
N996 C997 1.305 . S
C997 N996 1.305 . S
C997 C999 1.407 . S
C997 H1004 0.930 . S
C998 C986 1.410 . S
C998 C999 1.345 . S
C998 H1006 0.930 . S
C999 C997 1.407 . S
C999 C998 1.345 . S
C999 H1001 0.930 . S
H1000 C993 0.930 . S
H1001 C999 0.930 . S
H1002 C990 0.930 . S
H1003 C991 0.931 . S
H1004 C997 0.930 . S
H1005 C1019 0.930 . S
H1006 C998 0.930 . S
H1007 C1025 0.930 . S
H1008 C1016 0.930 . S
H1009 C1023 0.931 . S
H1010 C987 0.929 . S
H1011 C1017 0.930 . S
H1012 C1050 0.930 . S
H1013 C994 0.930 . S
H1014 C1049 0.929 . S
N1015 Tb984 2.660 . S
N1015 C1016 1.305 . S
N1015 C1020 1.360 . S
C1016 H1008 0.930 . S
C1016 N1015 1.305 . S
C1016 C1019 1.407 . S
C1017 H1011 0.930 . S
C1017 C1018 1.410 . S
C1017 C1019 1.345 . S
C1018 C1017 1.410 . S
C1018 C1020 1.417 . S
C1018 C1050 1.432 . S
C1019 H1005 0.930 . S
C1019 C1016 1.407 . S
C1019 C1017 1.345 . S
C1020 N1015 1.360 . S
C1020 C1018 1.417 . S
C1020 C1024 1.432 . S
H1021 C1026 0.930 . S
N1022 Tb984 2.600 . S
N1022 C1024 1.359 . S
N1022 C1025 1.327 . S
C1023 H1009 0.931 . S
C1023 C1025 1.392 . S
C1023 C1026 1.370 . S
C1024 C1020 1.432 . S
C1024 N1022 1.359 . S
C1024 C1027 1.414 . S
C1025 H1007 0.930 . S
C1025 N1022 1.327 . S
C1025 C1023 1.392 . S
C1026 H1021 0.930 . S
C1026 C1023 1.370 . S
C1026 C1027 1.385 . S
C1027 C1024 1.414 . S
C1027 C1026 1.385 . S
C1027 C1049 1.444 . S
O1028 Tb984 2.546 . S
O1028 C1048 1.251 . S
O1029 Tb984 2.610 . S
O1029 Tb995 2.362 . S
O1029 C1040 1.283 . S
O1030 Tb995 2.421 . S
O1030 C1047 1.262 . S
O1031 Tb984 2.320 . S
O1031 C1047 1.260 . S
O1032 Tb984 2.552 . S
O1032 C1040 1.243 . S
O1033 Tb984 2.413 . S
O1033 C1048 1.256 . S
O1034 Tb995 2.546 . S
O1034 C1059 1.251 . S
O1035 Tb984 2.362 . S
O1035 Tb995 2.610 . S
O1035 C1051 1.283 . S
O1036 Tb984 2.421 . S
O1036 C1058 1.262 . S
O1037 Tb995 2.320 . S
O1037 C1058 1.260 . S
O1038 Tb995 2.552 . S
O1038 C1051 1.243 . S
O1039 Tb995 2.413 . S
O1039 C1059 1.256 . S
C1040 O1029 1.283 . S
C1040 O1032 1.243 . S
C1041 C1043 1.382 . S
C1041 C1045 1.393 . S
C1041 C1048 1.500 . S
C1042 C1043 1.400 . S
C1042 C1044 1.384 . S
C1043 C1041 1.382 . S
C1043 C1042 1.400 . S
C1043 H1060 0.930 . S
C1044 C1042 1.384 . S
C1044 C1046 1.392 . S
C1044 H1061 0.931 . S
C1045 C1041 1.393 . S
C1045 C1046 1.401 . S
C1045 H1062 0.930 . S
C1046 C1044 1.392 . S
C1046 C1045 1.401 . S
C1046 H1063 0.930 . S
C1047 O1030 1.262 . S
C1047 O1031 1.260 . S
C1048 Tb984 2.833 . S
C1048 O1028 1.251 . S
C1048 O1033 1.256 . S
C1048 C1041 1.500 . S
C1049 H1014 0.929 . S
C1049 C1027 1.444 . S
C1049 C1050 1.317 . S
C1050 H1012 0.930 . S
C1050 C1018 1.432 . S
C1050 C1049 1.317 . S
C1051 O1035 1.283 . S
C1051 O1038 1.243 . S
C1052 C1053 1.382 . S
C1052 C1056 1.393 . S
C1052 C1059 1.500 . S
C1053 C1052 1.382 . S
C1053 C1054 1.400 . S
C1053 H1064 0.930 . S
C1054 C1053 1.400 . S
C1054 C1055 1.384 . S
C1055 C1054 1.384 . S
C1055 C1057 1.392 . S
C1055 H1065 0.931 . S
C1056 C1052 1.393 . S
C1056 C1057 1.401 . S
C1056 H1066 0.930 . S
C1057 C1055 1.392 . S
C1057 C1056 1.401 . S
C1057 H1067 0.930 . S
C1058 O1036 1.262 . S
C1058 O1037 1.260 . S
C1059 Tb995 2.833 . S
C1059 O1034 1.251 . S
C1059 O1039 1.256 . S
C1059 C1052 1.500 . S
H1060 C1043 0.930 . S
H1061 C1044 0.931 . S
H1062 C1045 0.930 . S
H1063 C1046 0.930 . S
H1064 C1053 0.930 . S
H1065 C1055 0.931 . S
H1066 C1056 0.930 . S
H1067 C1057 0.930 . S
Tb1068 N1099 2.660 . S
Tb1068 N1106 2.600 . S
Tb1068 O1112 2.546 . S
Tb1068 O1113 2.610 . S
Tb1068 O1115 2.320 . S
Tb1068 O1116 2.552 . S
Tb1068 O1117 2.413 . S
Tb1068 O1119 2.362 . S
Tb1068 O1120 2.421 . S
Tb1068 C1132 2.833 . S
C1069 C1072 1.432 . S
C1069 C1073 1.414 . S
C1069 N1076 1.359 . S
C1070 C1072 1.417 . S
C1070 C1074 1.432 . S
C1070 C1082 1.410 . S
C1071 C1073 1.444 . S
C1071 C1074 1.317 . S
C1071 H1094 0.929 . S
C1072 C1069 1.432 . S
C1072 C1070 1.417 . S
C1072 N1080 1.360 . S
C1073 C1069 1.414 . S
C1073 C1071 1.444 . S
C1073 C1078 1.385 . S
C1074 C1070 1.432 . S
C1074 C1071 1.317 . S
C1074 H1086 0.930 . S
C1075 C1077 1.392 . S
C1075 C1078 1.370 . S
C1075 H1087 0.931 . S
N1076 C1069 1.359 . S
N1076 C1077 1.327 . S
N1076 Tb1079 2.600 . S
C1077 C1075 1.392 . S
C1077 N1076 1.327 . S
C1077 H1084 0.930 . S
C1078 C1073 1.385 . S
C1078 C1075 1.370 . S
C1078 H1097 0.930 . S
Tb1079 N1076 2.600 . S
Tb1079 N1080 2.660 . S
Tb1079 O1113 2.362 . S
Tb1079 O1114 2.421 . S
Tb1079 O1118 2.546 . S
Tb1079 O1119 2.610 . S
Tb1079 O1121 2.320 . S
Tb1079 O1122 2.552 . S
Tb1079 O1123 2.413 . S
Tb1079 C1143 2.833 . S
N1080 C1072 1.360 . S
N1080 Tb1079 2.660 . S
N1080 C1081 1.305 . S
C1081 N1080 1.305 . S
C1081 C1083 1.407 . S
C1081 H1088 0.930 . S
C1082 C1070 1.410 . S
C1082 C1083 1.345 . S
C1082 H1090 0.930 . S
C1083 C1081 1.407 . S
C1083 C1082 1.345 . S
C1083 H1085 0.930 . S
H1084 C1077 0.930 . S
H1085 C1083 0.930 . S
H1086 C1074 0.930 . S
H1087 C1075 0.931 . S
H1088 C1081 0.930 . S
H1089 C1103 0.930 . S
H1090 C1082 0.930 . S
H1091 C1109 0.930 . S
H1092 C1100 0.930 . S
H1093 C1107 0.931 . S
H1094 C1071 0.929 . S
H1095 C1101 0.930 . S
H1096 C1134 0.930 . S
H1097 C1078 0.930 . S
H1098 C1133 0.929 . S
N1099 Tb1068 2.660 . S
N1099 C1100 1.305 . S
N1099 C1104 1.360 . S
C1100 H1092 0.930 . S
C1100 N1099 1.305 . S
C1100 C1103 1.407 . S
C1101 H1095 0.930 . S
C1101 C1102 1.410 . S
C1101 C1103 1.345 . S
C1102 C1101 1.410 . S
C1102 C1104 1.417 . S
C1102 C1134 1.432 . S
C1103 H1089 0.930 . S
C1103 C1100 1.407 . S
C1103 C1101 1.345 . S
C1104 N1099 1.360 . S
C1104 C1102 1.417 . S
C1104 C1108 1.432 . S
H1105 C1110 0.930 . S
N1106 Tb1068 2.600 . S
N1106 C1108 1.359 . S
N1106 C1109 1.327 . S
C1107 H1093 0.931 . S
C1107 C1109 1.392 . S
C1107 C1110 1.370 . S
C1108 C1104 1.432 . S
C1108 N1106 1.359 . S
C1108 C1111 1.414 . S
C1109 H1091 0.930 . S
C1109 N1106 1.327 . S
C1109 C1107 1.392 . S
C1110 H1105 0.930 . S
C1110 C1107 1.370 . S
C1110 C1111 1.385 . S
C1111 C1108 1.414 . S
C1111 C1110 1.385 . S
C1111 C1133 1.444 . S
O1112 Tb1068 2.546 . S
O1112 C1132 1.251 . S
O1113 Tb1068 2.610 . S
O1113 Tb1079 2.362 . S
O1113 C1124 1.283 . S
O1114 Tb1079 2.421 . S
O1114 C1131 1.262 . S
O1115 Tb1068 2.320 . S
O1115 C1131 1.260 . S
O1116 Tb1068 2.552 . S
O1116 C1124 1.243 . S
O1117 Tb1068 2.413 . S
O1117 C1132 1.256 . S
O1118 Tb1079 2.546 . S
O1118 C1143 1.251 . S
O1119 Tb1068 2.362 . S
O1119 Tb1079 2.610 . S
O1119 C1135 1.283 . S
O1120 Tb1068 2.421 . S
O1120 C1142 1.262 . S
O1121 Tb1079 2.320 . S
O1121 C1142 1.260 . S
O1122 Tb1079 2.552 . S
O1122 C1135 1.243 . S
O1123 Tb1079 2.413 . S
O1123 C1143 1.256 . S
C1124 O1113 1.283 . S
C1124 O1116 1.243 . S
C1125 C1127 1.382 . S
C1125 C1129 1.393 . S
C1125 C1132 1.500 . S
C1126 C1127 1.400 . S
C1126 C1128 1.384 . S
C1127 C1125 1.382 . S
C1127 C1126 1.400 . S
C1127 H1144 0.930 . S
C1128 C1126 1.384 . S
C1128 C1130 1.392 . S
C1128 H1145 0.931 . S
C1129 C1125 1.393 . S
C1129 C1130 1.401 . S
C1129 H1146 0.930 . S
C1130 C1128 1.392 . S
C1130 C1129 1.401 . S
C1130 H1147 0.930 . S
C1131 O1114 1.262 . S
C1131 O1115 1.260 . S
C1132 Tb1068 2.833 . S
C1132 O1112 1.251 . S
C1132 O1117 1.256 . S
C1132 C1125 1.500 . S
C1133 H1098 0.929 . S
C1133 C1111 1.444 . S
C1133 C1134 1.317 . S
C1134 H1096 0.930 . S
C1134 C1102 1.432 . S
C1134 C1133 1.317 . S
C1135 O1119 1.283 . S
C1135 O1122 1.243 . S
C1136 C1137 1.382 . S
C1136 C1140 1.393 . S
C1136 C1143 1.500 . S
C1137 C1136 1.382 . S
C1137 C1138 1.400 . S
C1137 H1148 0.930 . S
C1138 C1137 1.400 . S
C1138 C1139 1.384 . S
C1139 C1138 1.384 . S
C1139 C1141 1.392 . S
C1139 H1149 0.931 . S
C1140 C1136 1.393 . S
C1140 C1141 1.401 . S
C1140 H1150 0.930 . S
C1141 C1139 1.392 . S
C1141 C1140 1.401 . S
C1141 H1151 0.930 . S
C1142 O1120 1.262 . S
C1142 O1121 1.260 . S
C1143 Tb1079 2.833 . S
C1143 O1118 1.251 . S
C1143 O1123 1.256 . S
C1143 C1136 1.500 . S
H1144 C1127 0.930 . S
H1145 C1128 0.931 . S
H1146 C1129 0.930 . S
H1147 C1130 0.930 . S
H1148 C1137 0.930 . S
H1149 C1139 0.931 . S
H1150 C1140 0.930 . S
H1151 C1141 0.930 . S
Tb1152 N1183 2.660 . S
Tb1152 N1190 2.600 . S
Tb1152 O1196 2.546 . S
Tb1152 O1197 2.610 . S
Tb1152 O1199 2.320 . S
Tb1152 O1200 2.552 . S
Tb1152 O1201 2.413 . S
Tb1152 O1203 2.362 . S
Tb1152 O1204 2.421 . S
Tb1152 C1216 2.833 . S
C1153 C1156 1.432 . S
C1153 C1157 1.414 . S
C1153 N1160 1.359 . S
C1154 C1156 1.417 . S
C1154 C1158 1.432 . S
C1154 C1166 1.410 . S
C1155 C1157 1.444 . S
C1155 C1158 1.317 . S
C1155 H1178 0.929 . S
C1156 C1153 1.432 . S
C1156 C1154 1.417 . S
C1156 N1164 1.360 . S
C1157 C1153 1.414 . S
C1157 C1155 1.444 . S
C1157 C1162 1.385 . S
C1158 C1154 1.432 . S
C1158 C1155 1.317 . S
C1158 H1170 0.930 . S
C1159 C1161 1.392 . S
C1159 C1162 1.370 . S
C1159 H1171 0.931 . S
N1160 C1153 1.359 . S
N1160 C1161 1.327 . S
N1160 Tb1163 2.600 . S
C1161 C1159 1.392 . S
C1161 N1160 1.327 . S
C1161 H1168 0.930 . S
C1162 C1157 1.385 . S
C1162 C1159 1.370 . S
C1162 H1181 0.930 . S
Tb1163 N1160 2.600 . S
Tb1163 N1164 2.660 . S
Tb1163 O1197 2.362 . S
Tb1163 O1198 2.421 . S
Tb1163 O1202 2.546 . S
Tb1163 O1203 2.610 . S
Tb1163 O1205 2.320 . S
Tb1163 O1206 2.552 . S
Tb1163 O1207 2.413 . S
Tb1163 C1227 2.833 . S
N1164 C1156 1.360 . S
N1164 Tb1163 2.660 . S
N1164 C1165 1.305 . S
C1165 N1164 1.305 . S
C1165 C1167 1.407 . S
C1165 H1172 0.930 . S
C1166 C1154 1.410 . S
C1166 C1167 1.345 . S
C1166 H1174 0.930 . S
C1167 C1165 1.407 . S
C1167 C1166 1.345 . S
C1167 H1169 0.930 . S
H1168 C1161 0.930 . S
H1169 C1167 0.930 . S
H1170 C1158 0.930 . S
H1171 C1159 0.931 . S
H1172 C1165 0.930 . S
H1173 C1187 0.930 . S
H1174 C1166 0.930 . S
H1175 C1193 0.930 . S
H1176 C1184 0.930 . S
H1177 C1191 0.931 . S
H1178 C1155 0.929 . S
H1179 C1185 0.930 . S
H1180 C1218 0.930 . S
H1181 C1162 0.930 . S
H1182 C1217 0.929 . S
N1183 Tb1152 2.660 . S
N1183 C1184 1.305 . S
N1183 C1188 1.360 . S
C1184 H1176 0.930 . S
C1184 N1183 1.305 . S
C1184 C1187 1.407 . S
C1185 H1179 0.930 . S
C1185 C1186 1.410 . S
C1185 C1187 1.345 . S
C1186 C1185 1.410 . S
C1186 C1188 1.417 . S
C1186 C1218 1.432 . S
C1187 H1173 0.930 . S
C1187 C1184 1.407 . S
C1187 C1185 1.345 . S
C1188 N1183 1.360 . S
C1188 C1186 1.417 . S
C1188 C1192 1.432 . S
H1189 C1194 0.930 . S
N1190 Tb1152 2.600 . S
N1190 C1192 1.359 . S
N1190 C1193 1.327 . S
C1191 H1177 0.931 . S
C1191 C1193 1.392 . S
C1191 C1194 1.370 . S
C1192 C1188 1.432 . S
C1192 N1190 1.359 . S
C1192 C1195 1.414 . S
C1193 H1175 0.930 . S
C1193 N1190 1.327 . S
C1193 C1191 1.392 . S
C1194 H1189 0.930 . S
C1194 C1191 1.370 . S
C1194 C1195 1.385 . S
C1195 C1192 1.414 . S
C1195 C1194 1.385 . S
C1195 C1217 1.444 . S
O1196 Tb1152 2.546 . S
O1196 C1216 1.251 . S
O1197 Tb1152 2.610 . S
O1197 Tb1163 2.362 . S
O1197 C1208 1.283 . S
O1198 Tb1163 2.421 . S
O1198 C1215 1.262 . S
O1199 Tb1152 2.320 . S
O1199 C1215 1.260 . S
O1200 Tb1152 2.552 . S
O1200 C1208 1.243 . S
O1201 Tb1152 2.413 . S
O1201 C1216 1.256 . S
O1202 Tb1163 2.546 . S
O1202 C1227 1.251 . S
O1203 Tb1152 2.362 . S
O1203 Tb1163 2.610 . S
O1203 C1219 1.283 . S
O1204 Tb1152 2.421 . S
O1204 C1226 1.262 . S
O1205 Tb1163 2.320 . S
O1205 C1226 1.260 . S
O1206 Tb1163 2.552 . S
O1206 C1219 1.243 . S
O1207 Tb1163 2.413 . S
O1207 C1227 1.256 . S
C1208 O1197 1.283 . S
C1208 O1200 1.243 . S
C1209 C1211 1.382 . S
C1209 C1213 1.393 . S
C1209 C1216 1.500 . S
C1210 C1211 1.400 . S
C1210 C1212 1.384 . S
C1211 C1209 1.382 . S
C1211 C1210 1.400 . S
C1211 H1228 0.930 . S
C1212 C1210 1.384 . S
C1212 C1214 1.392 . S
C1212 H1229 0.931 . S
C1213 C1209 1.393 . S
C1213 C1214 1.401 . S
C1213 H1230 0.930 . S
C1214 C1212 1.392 . S
C1214 C1213 1.401 . S
C1214 H1231 0.930 . S
C1215 O1198 1.262 . S
C1215 O1199 1.260 . S
C1216 Tb1152 2.833 . S
C1216 O1196 1.251 . S
C1216 O1201 1.256 . S
C1216 C1209 1.500 . S
C1217 H1182 0.929 . S
C1217 C1195 1.444 . S
C1217 C1218 1.317 . S
C1218 H1180 0.930 . S
C1218 C1186 1.432 . S
C1218 C1217 1.317 . S
C1219 O1203 1.283 . S
C1219 O1206 1.243 . S
C1220 C1221 1.382 . S
C1220 C1224 1.393 . S
C1220 C1227 1.500 . S
C1221 C1220 1.382 . S
C1221 C1222 1.400 . S
C1221 H1232 0.930 . S
C1222 C1221 1.400 . S
C1222 C1223 1.384 . S
C1223 C1222 1.384 . S
C1223 C1225 1.392 . S
C1223 H1233 0.931 . S
C1224 C1220 1.393 . S
C1224 C1225 1.401 . S
C1224 H1234 0.930 . S
C1225 C1223 1.392 . S
C1225 C1224 1.401 . S
C1225 H1235 0.930 . S
C1226 O1204 1.262 . S
C1226 O1205 1.260 . S
C1227 Tb1163 2.833 . S
C1227 O1202 1.251 . S
C1227 O1207 1.256 . S
C1227 C1220 1.500 . S
H1228 C1211 0.930 . S
H1229 C1212 0.931 . S
H1230 C1213 0.930 . S
H1231 C1214 0.930 . S
H1232 C1221 0.930 . S
H1233 C1223 0.931 . S
H1234 C1224 0.930 . S
H1235 C1225 0.930 . S
Tb1236 N1267 2.660 . S
Tb1236 N1274 2.600 . S
Tb1236 O1280 2.546 . S
Tb1236 O1281 2.610 . S
Tb1236 O1283 2.320 . S
Tb1236 O1284 2.552 . S
Tb1236 O1285 2.413 . S
Tb1236 O1287 2.362 . S
Tb1236 O1288 2.421 . S
Tb1236 C1300 2.833 . S
C1237 C1240 1.432 . S
C1237 C1241 1.414 . S
C1237 N1244 1.359 . S
C1238 C1240 1.417 . S
C1238 C1242 1.432 . S
C1238 C1250 1.410 . S
C1239 C1241 1.444 . S
C1239 C1242 1.317 . S
C1239 H1262 0.929 . S
C1240 C1237 1.432 . S
C1240 C1238 1.417 . S
C1240 N1248 1.360 . S
C1241 C1237 1.414 . S
C1241 C1239 1.444 . S
C1241 C1246 1.385 . S
C1242 C1238 1.432 . S
C1242 C1239 1.317 . S
C1242 H1254 0.930 . S
C1243 C1245 1.392 . S
C1243 C1246 1.370 . S
C1243 H1255 0.931 . S
N1244 C1237 1.359 . S
N1244 C1245 1.327 . S
N1244 Tb1247 2.600 . S
C1245 C1243 1.392 . S
C1245 N1244 1.327 . S
C1245 H1252 0.930 . S
C1246 C1241 1.385 . S
C1246 C1243 1.370 . S
C1246 H1265 0.930 . S
Tb1247 N1244 2.600 . S
Tb1247 N1248 2.660 . S
Tb1247 O1281 2.362 . S
Tb1247 O1282 2.421 . S
Tb1247 O1286 2.546 . S
Tb1247 O1287 2.610 . S
Tb1247 O1289 2.320 . S
Tb1247 O1290 2.552 . S
Tb1247 O1291 2.413 . S
Tb1247 C1311 2.833 . S
N1248 C1240 1.360 . S
N1248 Tb1247 2.660 . S
N1248 C1249 1.305 . S
C1249 N1248 1.305 . S
C1249 C1251 1.407 . S
C1249 H1256 0.930 . S
C1250 C1238 1.410 . S
C1250 C1251 1.345 . S
C1250 H1258 0.930 . S
C1251 C1249 1.407 . S
C1251 C1250 1.345 . S
C1251 H1253 0.930 . S
H1252 C1245 0.930 . S
H1253 C1251 0.930 . S
H1254 C1242 0.930 . S
H1255 C1243 0.931 . S
H1256 C1249 0.930 . S
H1257 C1271 0.930 . S
H1258 C1250 0.930 . S
H1259 C1277 0.930 . S
H1260 C1268 0.930 . S
H1261 C1275 0.931 . S
H1262 C1239 0.929 . S
H1263 C1269 0.930 . S
H1264 C1302 0.930 . S
H1265 C1246 0.930 . S
H1266 C1301 0.929 . S
N1267 Tb1236 2.660 . S
N1267 C1268 1.305 . S
N1267 C1272 1.360 . S
C1268 H1260 0.930 . S
C1268 N1267 1.305 . S
C1268 C1271 1.407 . S
C1269 H1263 0.930 . S
C1269 C1270 1.410 . S
C1269 C1271 1.345 . S
C1270 C1269 1.410 . S
C1270 C1272 1.417 . S
C1270 C1302 1.432 . S
C1271 H1257 0.930 . S
C1271 C1268 1.407 . S
C1271 C1269 1.345 . S
C1272 N1267 1.360 . S
C1272 C1270 1.417 . S
C1272 C1276 1.432 . S
H1273 C1278 0.930 . S
N1274 Tb1236 2.600 . S
N1274 C1276 1.359 . S
N1274 C1277 1.327 . S
C1275 H1261 0.931 . S
C1275 C1277 1.392 . S
C1275 C1278 1.370 . S
C1276 C1272 1.432 . S
C1276 N1274 1.359 . S
C1276 C1279 1.414 . S
C1277 H1259 0.930 . S
C1277 N1274 1.327 . S
C1277 C1275 1.392 . S
C1278 H1273 0.930 . S
C1278 C1275 1.370 . S
C1278 C1279 1.385 . S
C1279 C1276 1.414 . S
C1279 C1278 1.385 . S
C1279 C1301 1.444 . S
O1280 Tb1236 2.546 . S
O1280 C1300 1.251 . S
O1281 Tb1236 2.610 . S
O1281 Tb1247 2.362 . S
O1281 C1292 1.283 . S
O1282 Tb1247 2.421 . S
O1282 C1299 1.262 . S
O1283 Tb1236 2.320 . S
O1283 C1299 1.260 . S
O1284 Tb1236 2.552 . S
O1284 C1292 1.243 . S
O1285 Tb1236 2.413 . S
O1285 C1300 1.256 . S
O1286 Tb1247 2.546 . S
O1286 C1311 1.251 . S
O1287 Tb1236 2.362 . S
O1287 Tb1247 2.610 . S
O1287 C1303 1.283 . S
O1288 Tb1236 2.421 . S
O1288 C1310 1.262 . S
O1289 Tb1247 2.320 . S
O1289 C1310 1.260 . S
O1290 Tb1247 2.552 . S
O1290 C1303 1.243 . S
O1291 Tb1247 2.413 . S
O1291 C1311 1.256 . S
C1292 O1281 1.283 . S
C1292 O1284 1.243 . S
C1293 C1295 1.382 . S
C1293 C1297 1.393 . S
C1293 C1300 1.500 . S
C1294 C1295 1.400 . S
C1294 C1296 1.384 . S
C1295 C1293 1.382 . S
C1295 C1294 1.400 . S
C1295 H1312 0.930 . S
C1296 C1294 1.384 . S
C1296 C1298 1.392 . S
C1296 H1313 0.931 . S
C1297 C1293 1.393 . S
C1297 C1298 1.401 . S
C1297 H1314 0.930 . S
C1298 C1296 1.392 . S
C1298 C1297 1.401 . S
C1298 H1315 0.930 . S
C1299 O1282 1.262 . S
C1299 O1283 1.260 . S
C1300 Tb1236 2.833 . S
C1300 O1280 1.251 . S
C1300 O1285 1.256 . S
C1300 C1293 1.500 . S
C1301 H1266 0.929 . S
C1301 C1279 1.444 . S
C1301 C1302 1.317 . S
C1302 H1264 0.930 . S
C1302 C1270 1.432 . S
C1302 C1301 1.317 . S
C1303 O1287 1.283 . S
C1303 O1290 1.243 . S
C1304 C1305 1.382 . S
C1304 C1308 1.393 . S
C1304 C1311 1.500 . S
C1305 C1304 1.382 . S
C1305 C1306 1.400 . S
C1305 H1316 0.930 . S
C1306 C1305 1.400 . S
C1306 C1307 1.384 . S
C1307 C1306 1.384 . S
C1307 C1309 1.392 . S
C1307 H1317 0.931 . S
C1308 C1304 1.393 . S
C1308 C1309 1.401 . S
C1308 H1318 0.930 . S
C1309 C1307 1.392 . S
C1309 C1308 1.401 . S
C1309 H1319 0.930 . S
C1310 O1288 1.262 . S
C1310 O1289 1.260 . S
C1311 Tb1247 2.833 . S
C1311 O1286 1.251 . S
C1311 O1291 1.256 . S
C1311 C1304 1.500 . S
H1312 C1295 0.930 . S
H1313 C1296 0.931 . S
H1314 C1297 0.930 . S
H1315 C1298 0.930 . S
H1316 C1305 0.930 . S
H1317 C1307 0.931 . S
H1318 C1308 0.930 . S
H1319 C1309 0.930 . S
Tb1320 N1351 2.660 . S
Tb1320 N1358 2.600 . S
Tb1320 O1364 2.546 . S
Tb1320 O1365 2.610 . S
Tb1320 O1367 2.320 . S
Tb1320 O1368 2.552 . S
Tb1320 O1369 2.413 . S
Tb1320 O1371 2.362 . S
Tb1320 O1372 2.421 . S
Tb1320 C1384 2.833 . S
C1321 C1324 1.432 . S
C1321 C1325 1.414 . S
C1321 N1328 1.359 . S
C1322 C1324 1.417 . S
C1322 C1326 1.432 . S
C1322 C1334 1.410 . S
C1323 C1325 1.444 . S
C1323 C1326 1.317 . S
C1323 H1346 0.929 . S
C1324 C1321 1.432 . S
C1324 C1322 1.417 . S
C1324 N1332 1.360 . S
C1325 C1321 1.414 . S
C1325 C1323 1.444 . S
C1325 C1330 1.385 . S
C1326 C1322 1.432 . S
C1326 C1323 1.317 . S
C1326 H1338 0.930 . S
C1327 C1329 1.392 . S
C1327 C1330 1.370 . S
C1327 H1339 0.931 . S
N1328 C1321 1.359 . S
N1328 C1329 1.327 . S
N1328 Tb1331 2.600 . S
C1329 C1327 1.392 . S
C1329 N1328 1.327 . S
C1329 H1336 0.930 . S
C1330 C1325 1.385 . S
C1330 C1327 1.370 . S
C1330 H1349 0.930 . S
Tb1331 N1328 2.600 . S
Tb1331 N1332 2.660 . S
Tb1331 O1365 2.362 . S
Tb1331 O1366 2.421 . S
Tb1331 O1370 2.546 . S
Tb1331 O1371 2.610 . S
Tb1331 O1373 2.320 . S
Tb1331 O1374 2.552 . S
Tb1331 O1375 2.413 . S
Tb1331 C1395 2.833 . S
N1332 C1324 1.360 . S
N1332 Tb1331 2.660 . S
N1332 C1333 1.305 . S
C1333 N1332 1.305 . S
C1333 C1335 1.407 . S
C1333 H1340 0.930 . S
C1334 C1322 1.410 . S
C1334 C1335 1.345 . S
C1334 H1342 0.930 . S
C1335 C1333 1.407 . S
C1335 C1334 1.345 . S
C1335 H1337 0.930 . S
H1336 C1329 0.930 . S
H1337 C1335 0.930 . S
H1338 C1326 0.930 . S
H1339 C1327 0.931 . S
H1340 C1333 0.930 . S
H1341 C1355 0.930 . S
H1342 C1334 0.930 . S
H1343 C1361 0.930 . S
H1344 C1352 0.930 . S
H1345 C1359 0.931 . S
H1346 C1323 0.929 . S
H1347 C1353 0.930 . S
H1348 C1386 0.930 . S
H1349 C1330 0.930 . S
H1350 C1385 0.929 . S
N1351 Tb1320 2.660 . S
N1351 C1352 1.305 . S
N1351 C1356 1.360 . S
C1352 H1344 0.930 . S
C1352 N1351 1.305 . S
C1352 C1355 1.407 . S
C1353 H1347 0.930 . S
C1353 C1354 1.410 . S
C1353 C1355 1.345 . S
C1354 C1353 1.410 . S
C1354 C1356 1.417 . S
C1354 C1386 1.432 . S
C1355 H1341 0.930 . S
C1355 C1352 1.407 . S
C1355 C1353 1.345 . S
C1356 N1351 1.360 . S
C1356 C1354 1.417 . S
C1356 C1360 1.432 . S
H1357 C1362 0.930 . S
N1358 Tb1320 2.600 . S
N1358 C1360 1.359 . S
N1358 C1361 1.327 . S
C1359 H1345 0.931 . S
C1359 C1361 1.392 . S
C1359 C1362 1.370 . S
C1360 C1356 1.432 . S
C1360 N1358 1.359 . S
C1360 C1363 1.414 . S
C1361 H1343 0.930 . S
C1361 N1358 1.327 . S
C1361 C1359 1.392 . S
C1362 H1357 0.930 . S
C1362 C1359 1.370 . S
C1362 C1363 1.385 . S
C1363 C1360 1.414 . S
C1363 C1362 1.385 . S
C1363 C1385 1.444 . S
O1364 Tb1320 2.546 . S
O1364 C1384 1.251 . S
O1365 Tb1320 2.610 . S
O1365 Tb1331 2.362 . S
O1365 C1376 1.283 . S
O1366 Tb1331 2.421 . S
O1366 C1383 1.262 . S
O1367 Tb1320 2.320 . S
O1367 C1383 1.260 . S
O1368 Tb1320 2.552 . S
O1368 C1376 1.243 . S
O1369 Tb1320 2.413 . S
O1369 C1384 1.256 . S
O1370 Tb1331 2.546 . S
O1370 C1395 1.251 . S
O1371 Tb1320 2.362 . S
O1371 Tb1331 2.610 . S
O1371 C1387 1.283 . S
O1372 Tb1320 2.421 . S
O1372 C1394 1.262 . S
O1373 Tb1331 2.320 . S
O1373 C1394 1.260 . S
O1374 Tb1331 2.552 . S
O1374 C1387 1.243 . S
O1375 Tb1331 2.413 . S
O1375 C1395 1.256 . S
C1376 O1365 1.283 . S
C1376 O1368 1.243 . S
C1377 C1379 1.382 . S
C1377 C1381 1.393 . S
C1377 C1384 1.500 . S
C1378 C1379 1.400 . S
C1378 C1380 1.384 . S
C1379 C1377 1.382 . S
C1379 C1378 1.400 . S
C1379 H1396 0.930 . S
C1380 C1378 1.384 . S
C1380 C1382 1.392 . S
C1380 H1397 0.931 . S
C1381 C1377 1.393 . S
C1381 C1382 1.401 . S
C1381 H1398 0.930 . S
C1382 C1380 1.392 . S
C1382 C1381 1.401 . S
C1382 H1399 0.930 . S
C1383 O1366 1.262 . S
C1383 O1367 1.260 . S
C1384 Tb1320 2.833 . S
C1384 O1364 1.251 . S
C1384 O1369 1.256 . S
C1384 C1377 1.500 . S
C1385 H1350 0.929 . S
C1385 C1363 1.444 . S
C1385 C1386 1.317 . S
C1386 H1348 0.930 . S
C1386 C1354 1.432 . S
C1386 C1385 1.317 . S
C1387 O1371 1.283 . S
C1387 O1374 1.243 . S
C1388 C1389 1.382 . S
C1388 C1392 1.393 . S
C1388 C1395 1.500 . S
C1389 C1388 1.382 . S
C1389 C1390 1.400 . S
C1389 H1400 0.930 . S
C1390 C1389 1.400 . S
C1390 C1391 1.384 . S
C1391 C1390 1.384 . S
C1391 C1393 1.392 . S
C1391 H1401 0.931 . S
C1392 C1388 1.393 . S
C1392 C1393 1.401 . S
C1392 H1402 0.930 . S
C1393 C1391 1.392 . S
C1393 C1392 1.401 . S
C1393 H1403 0.930 . S
C1394 O1372 1.262 . S
C1394 O1373 1.260 . S
C1395 Tb1331 2.833 . S
C1395 O1370 1.251 . S
C1395 O1375 1.256 . S
C1395 C1388 1.500 . S
H1396 C1379 0.930 . S
H1397 C1380 0.931 . S
H1398 C1381 0.930 . S
H1399 C1382 0.930 . S
H1400 C1389 0.930 . S
H1401 C1391 0.931 . S
H1402 C1392 0.930 . S
H1403 C1393 0.930 . S
H1404 C1416 0.930 . S
H1405 C1418 0.930 . S
H1406 C1419 0.930 . S
H1407 C1423 0.959 . S
H1408 C1423 0.959 . S
H1409 C1423 0.961 . S
H1410 C1424 0.960 . S
H1411 C1424 0.961 . S
H1412 C1424 0.959 . S
H1413 C1427 0.929 . S
H1414 C1428 0.931 . S
H1415 C1430 0.930 . S
C1416 H1404 0.930 . S
C1416 C1417 1.399 . S
C1416 C1421 1.399 . S
C1417 C1416 1.399 . S
C1417 C1418 1.376 . S
C1418 H1405 0.930 . S
C1418 C1417 1.376 . S
C1418 C1419 1.388 . S
C1419 H1406 0.930 . S
C1419 C1418 1.388 . S
C1419 C1420 1.390 . S
C1420 C1419 1.390 . S
C1420 C1421 1.394 . S
C1420 C1426 1.465 . S
C1421 C1416 1.399 . S
C1421 C1420 1.394 . S
C1421 C1422 1.516 . S
C1422 C1421 1.516 . S
C1422 C1423 1.502 . S
C1422 C1424 1.561 . S
C1422 C1425 1.526 . S
C1423 H1407 0.959 . S
C1423 H1408 0.959 . S
C1423 H1409 0.961 . S
C1423 C1422 1.502 . S
C1424 H1410 0.960 . S
C1424 H1411 0.961 . S
C1424 H1412 0.959 . S
C1424 C1422 1.561 . S
C1425 C1422 1.526 . S
C1425 C1426 1.396 . S
C1425 C1430 1.390 . S
C1426 C1420 1.465 . S
C1426 C1425 1.396 . S
C1426 C1427 1.399 . S
C1427 H1413 0.929 . S
C1427 C1426 1.399 . S
C1427 C1428 1.385 . S
C1428 H1414 0.931 . S
C1428 C1427 1.385 . S
C1428 C1429 1.389 . S
C1429 C1428 1.389 . S
C1429 C1430 1.387 . S
C1430 H1415 0.930 . S
C1430 C1425 1.390 . S
C1430 C1429 1.387 . S
H1431 C1443 0.930 . S
H1432 C1445 0.930 . S
H1433 C1446 0.930 . S
H1434 C1450 0.959 . S
H1435 C1450 0.959 . S
H1436 C1450 0.961 . S
H1437 C1451 0.960 . S
H1438 C1451 0.961 . S
H1439 C1451 0.959 . S
H1440 C1454 0.929 . S
H1441 C1455 0.978 . S
H1442 C1457 0.930 . S
C1443 H1431 0.930 . S
C1443 C1444 1.399 . S
C1443 C1448 1.399 . S
C1444 C1443 1.399 . S
C1444 C1445 1.376 . S
C1445 H1432 0.930 . S
C1445 C1444 1.376 . S
C1445 C1446 1.388 . S
C1446 H1433 0.930 . S
C1446 C1445 1.388 . S
C1446 C1447 1.390 . S
C1447 C1446 1.390 . S
C1447 C1448 1.394 . S
C1447 C1453 1.465 . S
C1448 C1443 1.399 . S
C1448 C1447 1.394 . S
C1448 C1449 1.516 . S
C1449 C1448 1.516 . S
C1449 C1450 1.502 . S
C1449 C1451 1.561 . S
C1449 C1452 1.526 . S
C1450 H1434 0.959 . S
C1450 H1435 0.959 . S
C1450 H1436 0.961 . S
C1450 C1449 1.502 . S
C1451 H1437 0.960 . S
C1451 H1438 0.961 . S
C1451 H1439 0.959 . S
C1451 C1449 1.561 . S
C1452 C1449 1.526 . S
C1452 C1453 1.396 . S
C1452 C1457 1.390 . S
C1453 C1447 1.465 . S
C1453 C1452 1.396 . S
C1453 C1454 1.399 . S
C1454 H1440 0.929 . S
C1454 C1453 1.399 . S
C1454 C1455 1.385 . S
C1455 H1441 0.978 . S
C1455 C1454 1.385 . S
C1455 C1456 1.389 . S
C1456 C1455 1.389 . S
C1456 C1457 1.387 . S
C1457 H1442 0.930 . S
C1457 C1452 1.390 . S
C1457 C1456 1.387 . S
H1458 C1470 0.930 . S
H1459 C1472 0.930 . S
H1460 C1473 0.930 . S
H1461 C1477 0.959 . S
H1462 C1477 0.978 . S
H1463 C1477 0.961 . S
H1464 C1478 0.959 1_556 S
H1465 C1478 0.961 1_556 S
H1466 C1478 0.959 . S
H1467 C1481 0.929 . S
H1468 C1482 0.931 . S
H1469 C1484 0.930 . S
C1470 H1458 0.930 . S
C1470 C1471 1.399 . S
C1470 C1475 1.399 . S
C1471 C1470 1.399 . S
C1471 C1472 1.376 . S
C1472 H1459 0.930 . S
C1472 C1471 1.376 . S
C1472 C1473 1.388 . S
C1473 H1460 0.930 . S
C1473 C1472 1.388 . S
C1473 C1474 1.390 . S
C1474 C1473 1.390 . S
C1474 C1475 1.394 . S
C1474 C1480 1.465 . S
C1475 C1470 1.399 . S
C1475 C1474 1.394 . S
C1475 C1476 1.516 . S
C1476 C1475 1.516 . S
C1476 C1477 1.502 . S
C1476 C1478 1.561 . S
C1476 C1479 1.526 . S
C1477 H1461 0.959 . S
C1477 H1462 0.978 . S
C1477 H1463 0.961 . S
C1477 C1476 1.502 . S
C1478 H1464 0.959 1_554 S
C1478 H1465 0.961 1_554 S
C1478 H1466 0.959 . S
C1478 C1476 1.561 . S
C1479 C1476 1.526 . S
C1479 C1480 1.396 . S
C1479 C1484 1.390 . S
C1480 C1474 1.465 . S
C1480 C1479 1.396 . S
C1480 C1481 1.399 . S
C1481 H1467 0.929 . S
C1481 C1480 1.399 . S
C1481 C1482 1.385 . S
C1482 H1468 0.931 . S
C1482 C1481 1.385 . S
C1482 C1483 1.389 . S
C1483 C1482 1.389 . S
C1483 C1484 1.387 . S
C1484 H1469 0.930 . S
C1484 C1479 1.390 . S
C1484 C1483 1.387 . S
H1485 C1497 0.930 . S
H1486 C1499 0.930 . S
H1487 C1500 0.930 . S
H1488 C1504 0.958 1_556 S
H1489 C1504 0.967 . S
H1490 C1504 0.962 . S
H1491 C1505 0.960 . S
H1492 C1505 0.961 . S
H1493 C1505 0.959 . S
H1494 C1508 0.929 . S
H1495 C1509 0.931 . S
H1496 C1511 0.925 . S
C1497 H1485 0.930 . S
C1497 C1498 1.399 . S
C1497 C1502 1.399 . S
C1498 C1497 1.399 . S
C1498 C1499 1.376 . S
C1499 H1486 0.930 . S
C1499 C1498 1.376 . S
C1499 C1500 1.388 . S
C1500 H1487 0.930 . S
C1500 C1499 1.388 . S
C1500 C1501 1.390 . S
C1501 C1500 1.390 . S
C1501 C1502 1.394 . S
C1501 C1507 1.465 . S
C1502 C1497 1.399 . S
C1502 C1501 1.394 . S
C1502 C1503 1.516 . S
C1503 C1502 1.516 . S
C1503 C1504 1.493 1_556 S
C1503 C1505 1.561 . S
C1503 C1506 1.526 . S
C1504 H1488 0.958 1_554 S
C1504 H1489 0.967 . S
C1504 H1490 0.962 . S
C1504 C1503 1.493 1_554 S
C1505 H1491 0.960 . S
C1505 H1492 0.961 . S
C1505 H1493 0.959 . S
C1505 C1503 1.561 . S
C1506 C1503 1.526 . S
C1506 C1507 1.396 . S
C1506 C1511 1.390 . S
C1507 C1501 1.465 . S
C1507 C1506 1.396 . S
C1507 C1508 1.399 . S
C1508 H1494 0.929 . S
C1508 C1507 1.399 . S
C1508 C1509 1.385 . S
C1509 H1495 0.931 . S
C1509 C1508 1.385 . S
C1509 C1510 1.389 . S
C1510 C1509 1.389 . S
C1510 C1511 1.387 . S
C1511 H1496 0.925 . S
C1511 C1506 1.390 . S
C1511 C1510 1.387 . S
H1512 C1524 0.930 . S
H1513 C1526 0.930 . S
H1514 C1527 0.930 . S
H1515 C1531 0.959 . S
H1516 C1531 0.959 1_554 S
H1517 C1531 0.968 . S
H1518 C1532 0.960 . S
H1519 C1532 0.961 . S
H1520 C1532 0.959 . S
H1521 C1535 0.929 . S
H1522 C1536 0.931 . S
H1523 C1538 0.969 . S
C1524 H1512 0.930 . S
C1524 C1525 1.399 . S
C1524 C1529 1.399 . S
C1525 C1524 1.399 . S
C1525 C1526 1.376 . S
C1526 H1513 0.930 . S
C1526 C1525 1.376 . S
C1526 C1527 1.388 . S
C1527 H1514 0.930 . S
C1527 C1526 1.388 . S
C1527 C1528 1.390 . S
C1528 C1527 1.390 . S
C1528 C1529 1.394 . S
C1528 C1534 1.465 . S
C1529 C1524 1.399 . S
C1529 C1528 1.394 . S
C1529 C1530 1.516 . S
C1530 C1529 1.516 . S
C1530 C1531 1.502 . S
C1530 C1532 1.561 . S
C1530 C1533 1.526 . S
C1531 H1515 0.959 . S
C1531 H1516 0.959 1_556 S
C1531 H1517 0.968 . S
C1531 C1530 1.502 . S
C1532 H1518 0.960 . S
C1532 H1519 0.961 . S
C1532 H1520 0.959 . S
C1532 C1530 1.561 . S
C1533 C1530 1.526 . S
C1533 C1534 1.396 . S
C1533 C1538 1.390 . S
C1534 C1528 1.465 . S
C1534 C1533 1.396 . S
C1534 C1535 1.399 . S
C1535 H1521 0.929 . S
C1535 C1534 1.399 . S
C1535 C1536 1.385 . S
C1536 H1522 0.931 . S
C1536 C1535 1.385 . S
C1536 C1537 1.389 . S
C1537 C1536 1.389 . S
C1537 C1538 1.387 . S
C1538 H1523 0.969 . S
C1538 C1533 1.390 . S
C1538 C1537 1.387 . S
H1539 C1551 0.930 . S
H1540 C1553 0.930 . S
H1541 C1554 0.930 . S
H1542 C1558 0.959 . S
H1543 C1558 0.959 1_554 S
H1544 C1558 0.961 . S
H1545 C1559 0.960 . S
H1546 C1559 0.961 . S
H1547 C1559 0.959 1_556 S
H1548 C1562 0.929 . S
H1549 C1563 0.931 . S
H1550 C1565 0.930 1_554 S
C1551 H1539 0.930 . S
C1551 C1552 1.399 . S
C1551 C1556 1.399 . S
C1552 C1551 1.399 . S
C1552 C1553 1.376 . S
C1553 H1540 0.930 . S
C1553 C1552 1.376 . S
C1553 C1554 1.388 . S
C1554 H1541 0.930 . S
C1554 C1553 1.388 . S
C1554 C1555 1.390 . S
C1555 C1554 1.390 . S
C1555 C1556 1.394 . S
C1555 C1561 1.465 . S
C1556 C1551 1.399 . S
C1556 C1555 1.394 . S
C1556 C1557 1.516 . S
C1557 C1556 1.516 . S
C1557 C1558 1.502 . S
C1557 C1559 1.561 1_556 S
C1557 C1560 1.526 . S
C1558 H1542 0.959 . S
C1558 H1543 0.959 1_556 S
C1558 H1544 0.961 . S
C1558 C1557 1.502 . S
C1559 H1545 0.960 . S
C1559 H1546 0.961 . S
C1559 H1547 0.959 1_554 S
C1559 C1557 1.561 1_554 S
C1560 C1557 1.526 . S
C1560 C1561 1.396 . S
C1560 C1565 1.390 . S
C1561 C1555 1.465 . S
C1561 C1560 1.396 . S
C1561 C1562 1.399 . S
C1562 H1548 0.929 . S
C1562 C1561 1.399 . S
C1562 C1563 1.385 . S
C1563 H1549 0.931 . S
C1563 C1562 1.385 . S
C1563 C1564 1.389 . S
C1564 C1563 1.389 . S
C1564 C1565 1.387 . S
C1565 H1550 0.930 1_556 S
C1565 C1560 1.390 . S
C1565 C1564 1.387 . S
H1566 C1578 0.930 . S
H1567 C1580 0.930 . S
H1568 C1581 0.930 . S
H1569 C1585 0.959 . S
H1570 C1585 0.959 . S
H1571 C1585 0.961 . S
H1572 C1586 0.960 . S
H1573 C1586 0.961 . S
H1574 C1586 0.959 . S
H1575 C1589 0.929 . S
H1576 C1590 0.931 . S
H1577 C1592 0.930 . S
C1578 H1566 0.930 . S
C1578 C1579 1.399 . S
C1578 C1583 1.399 . S
C1579 C1578 1.399 . S
C1579 C1580 1.376 . S
C1580 H1567 0.930 . S
C1580 C1579 1.376 . S
C1580 C1581 1.388 . S
C1581 H1568 0.930 . S
C1581 C1580 1.388 . S
C1581 C1582 1.390 . S
C1582 C1581 1.390 . S
C1582 C1583 1.394 . S
C1582 C1588 1.465 . S
C1583 C1578 1.399 . S
C1583 C1582 1.394 . S
C1583 C1584 1.516 . S
C1584 C1583 1.516 . S
C1584 C1585 1.502 . S
C1584 C1586 1.561 . S
C1584 C1587 1.526 . S
C1585 H1569 0.959 . S
C1585 H1570 0.959 . S
C1585 H1571 0.961 . S
C1585 C1584 1.502 . S
C1586 H1572 0.960 . S
C1586 H1573 0.961 . S
C1586 H1574 0.959 . S
C1586 C1584 1.561 . S
C1587 C1584 1.526 . S
C1587 C1588 1.396 . S
C1587 C1592 1.390 . S
C1588 C1582 1.465 . S
C1588 C1587 1.396 . S
C1588 C1589 1.399 . S
C1589 H1575 0.929 . S
C1589 C1588 1.399 . S
C1589 C1590 1.385 . S
C1590 H1576 0.931 . S
C1590 C1589 1.385 . S
C1590 C1591 1.389 . S
C1591 C1590 1.389 . S
C1591 C1592 1.387 . S
C1592 H1577 0.930 . S
C1592 C1587 1.390 . S
C1592 C1591 1.387 . S
H1593 C1605 0.930 . S
H1594 C1607 0.930 . S
H1595 C1608 0.930 . S
H1596 C1612 0.959 . S
H1597 C1612 0.959 . S
H1598 C1612 0.961 . S
H1599 C1613 0.960 . S
H1600 C1613 0.961 . S
H1601 C1613 0.959 . S
H1602 C1616 0.929 . S
H1603 C1617 0.931 . S
H1604 C1619 0.930 . S
C1605 H1593 0.930 . S
C1605 C1606 1.399 . S
C1605 C1610 1.399 . S
C1606 C1605 1.399 . S
C1606 C1607 1.376 . S
C1607 H1594 0.930 . S
C1607 C1606 1.376 . S
C1607 C1608 1.388 . S
C1608 H1595 0.930 . S
C1608 C1607 1.388 . S
C1608 C1609 1.390 . S
C1609 C1608 1.390 . S
C1609 C1610 1.394 . S
C1609 C1615 1.465 . S
C1610 C1605 1.399 . S
C1610 C1609 1.394 . S
C1610 C1611 1.516 . S
C1611 C1610 1.516 . S
C1611 C1612 1.502 . S
C1611 C1613 1.561 . S
C1611 C1614 1.526 . S
C1612 H1596 0.959 . S
C1612 H1597 0.959 . S
C1612 H1598 0.961 . S
C1612 C1611 1.502 . S
C1613 H1599 0.960 . S
C1613 H1600 0.961 . S
C1613 H1601 0.959 . S
C1613 C1611 1.561 . S
C1614 C1611 1.526 . S
C1614 C1615 1.396 . S
C1614 C1619 1.390 . S
C1615 C1609 1.465 . S
C1615 C1614 1.396 . S
C1615 C1616 1.399 . S
C1616 H1602 0.929 . S
C1616 C1615 1.399 . S
C1616 C1617 1.385 . S
C1617 H1603 0.931 . S
C1617 C1616 1.385 . S
C1617 C1618 1.389 . S
C1618 C1617 1.389 . S
C1618 C1619 1.387 . S
C1619 H1604 0.930 . S
C1619 C1614 1.390 . S
C1619 C1618 1.387 . S
H1620 C1632 0.930 . S
H1621 C1634 0.930 . S
H1622 C1635 0.930 . S
H1623 C1639 0.959 . S
H1624 C1639 0.959 . S
H1625 C1639 0.961 . S
H1626 C1640 0.960 . S
H1627 C1640 0.961 . S
H1628 C1640 0.959 . S
H1629 C1643 0.929 . S
H1630 C1644 0.931 . S
H1631 C1646 0.930 . S
C1632 H1620 0.930 . S
C1632 C1633 1.399 . S
C1632 C1637 1.399 . S
C1633 C1632 1.399 . S
C1633 C1634 1.376 . S
C1634 H1621 0.930 . S
C1634 C1633 1.376 . S
C1634 C1635 1.388 . S
C1635 H1622 0.930 . S
C1635 C1634 1.388 . S
C1635 C1636 1.390 . S
C1636 C1635 1.390 . S
C1636 C1637 1.394 . S
C1636 C1642 1.465 . S
C1637 C1632 1.399 . S
C1637 C1636 1.394 . S
C1637 C1638 1.516 . S
C1638 C1637 1.516 . S
C1638 C1639 1.502 . S
C1638 C1640 1.561 . S
C1638 C1641 1.526 . S
C1639 H1623 0.959 . S
C1639 H1624 0.959 . S
C1639 H1625 0.961 . S
C1639 C1638 1.502 . S
C1640 H1626 0.960 . S
C1640 H1627 0.961 . S
C1640 H1628 0.959 . S
C1640 C1638 1.561 . S
C1641 C1638 1.526 . S
C1641 C1642 1.396 . S
C1641 C1646 1.390 . S
C1642 C1636 1.465 . S
C1642 C1641 1.396 . S
C1642 C1643 1.399 . S
C1643 H1629 0.929 . S
C1643 C1642 1.399 . S
C1643 C1644 1.385 . S
C1644 H1630 0.931 . S
C1644 C1643 1.385 . S
C1644 C1645 1.389 . S
C1645 C1644 1.389 . S
C1645 C1646 1.387 . S
C1646 H1631 0.930 . S
C1646 C1641 1.390 . S
C1646 C1645 1.387 . S
H1647 C1659 0.930 . S
H1648 C1661 0.930 . S
H1649 C1662 0.930 . S
H1650 C1666 0.959 . S
H1651 C1666 0.959 1_556 S
H1652 C1666 0.961 . S
H1653 C1667 0.960 . S
H1654 C1667 0.961 1_556 S
H1655 C1667 0.959 . S
H1656 C1670 0.929 . S
H1657 C1671 0.931 . S
H1658 C1673 0.930 . S
C1659 H1647 0.930 . S
C1659 C1660 1.399 . S
C1659 C1664 1.399 . S
C1660 C1659 1.399 . S
C1660 C1661 1.376 . S
C1661 H1648 0.930 . S
C1661 C1660 1.376 . S
C1661 C1662 1.388 . S
C1662 H1649 0.930 . S
C1662 C1661 1.388 . S
C1662 C1663 1.390 . S
C1663 C1662 1.390 . S
C1663 C1664 1.394 . S
C1663 C1669 1.465 . S
C1664 C1659 1.399 . S
C1664 C1663 1.394 . S
C1664 C1665 1.516 . S
C1665 C1664 1.516 . S
C1665 C1666 1.502 . S
C1665 C1667 1.561 . S
C1665 C1668 1.526 . S
C1666 H1650 0.959 . S
C1666 H1651 0.959 1_554 S
C1666 H1652 0.961 . S
C1666 C1665 1.502 . S
C1667 H1653 0.960 . S
C1667 H1654 0.961 1_554 S
C1667 H1655 0.959 . S
C1667 C1665 1.561 . S
C1668 C1665 1.526 . S
C1668 C1669 1.396 . S
C1668 C1673 1.390 . S
C1669 C1663 1.465 . S
C1669 C1668 1.396 . S
C1669 C1670 1.399 . S
C1670 H1656 0.929 . S
C1670 C1669 1.399 . S
C1670 C1671 1.385 . S
C1671 H1657 0.931 . S
C1671 C1670 1.385 . S
C1671 C1672 1.389 . S
C1672 C1671 1.389 . S
C1672 C1673 1.387 . S
C1673 H1658 0.930 . S
C1673 C1668 1.390 . S
C1673 C1672 1.387 . S
H1674 C1686 0.930 . S
H1675 C1688 0.930 . S
H1676 C1689 0.930 . S
H1677 C1693 0.959 . S
H1678 C1693 0.959 . S
H1679 C1693 0.961 . S
H1680 C1694 0.960 . S
H1681 C1694 0.961 . S
H1682 C1694 0.959 . S
H1683 C1697 0.929 . S
H1684 C1698 0.931 . S
H1685 C1700 0.930 . S
C1686 H1674 0.930 . S
C1686 C1687 1.399 . S
C1686 C1691 1.399 . S
C1687 C1686 1.399 . S
C1687 C1688 1.376 . S
C1688 H1675 0.930 . S
C1688 C1687 1.376 . S
C1688 C1689 1.388 . S
C1689 H1676 0.930 . S
C1689 C1688 1.388 . S
C1689 C1690 1.390 . S
C1690 C1689 1.390 . S
C1690 C1691 1.394 . S
C1690 C1696 1.465 . S
C1691 C1686 1.399 . S
C1691 C1690 1.394 . S
C1691 C1692 1.516 . S
C1692 C1691 1.516 . S
C1692 C1693 1.502 . S
C1692 C1694 1.561 . S
C1692 C1695 1.526 . S
C1693 H1677 0.959 . S
C1693 H1678 0.959 . S
C1693 H1679 0.961 . S
C1693 C1692 1.502 . S
C1694 H1680 0.960 . S
C1694 H1681 0.961 . S
C1694 H1682 0.959 . S
C1694 C1692 1.561 . S
C1695 C1692 1.526 . S
C1695 C1696 1.396 . S
C1695 C1700 1.390 . S
C1696 C1690 1.465 . S
C1696 C1695 1.396 . S
C1696 C1697 1.399 . S
C1697 H1683 0.929 . S
C1697 C1696 1.399 . S
C1697 C1698 1.385 . S
C1698 H1684 0.931 . S
C1698 C1697 1.385 . S
C1698 C1699 1.389 . S
C1699 C1698 1.389 . S
C1699 C1700 1.387 . S
C1700 H1685 0.930 . S
C1700 C1695 1.390 . S
C1700 C1699 1.387 . S
H1701 C1713 0.930 . S
H1702 C1715 0.930 . S
H1703 C1716 0.930 . S
H1704 C1720 0.959 . S
H1705 C1720 0.959 . S
H1706 C1720 0.961 . S
H1707 C1721 0.960 . S
H1708 C1721 0.961 . S
H1709 C1721 0.959 . S
H1710 C1724 0.952 . S
H1711 C1725 0.931 1_556 S
H1712 C1727 0.930 . S
C1713 H1701 0.930 . S
C1713 C1714 1.399 . S
C1713 C1718 1.399 . S
C1714 C1713 1.399 . S
C1714 C1715 1.376 . S
C1715 H1702 0.930 . S
C1715 C1714 1.376 . S
C1715 C1716 1.388 . S
C1716 H1703 0.930 . S
C1716 C1715 1.388 . S
C1716 C1717 1.390 . S
C1717 C1716 1.390 . S
C1717 C1718 1.394 . S
C1717 C1723 1.465 . S
C1718 C1713 1.399 . S
C1718 C1717 1.394 . S
C1718 C1719 1.516 . S
C1719 C1718 1.516 . S
C1719 C1720 1.502 . S
C1719 C1721 1.561 . S
C1719 C1722 1.526 . S
C1720 H1704 0.959 . S
C1720 H1705 0.959 . S
C1720 H1706 0.961 . S
C1720 C1719 1.502 . S
C1721 H1707 0.960 . S
C1721 H1708 0.961 . S
C1721 H1709 0.959 . S
C1721 C1719 1.561 . S
C1722 C1719 1.526 . S
C1722 C1723 1.396 . S
C1722 C1727 1.390 . S
C1723 C1717 1.465 . S
C1723 C1722 1.396 . S
C1723 C1724 1.399 . S
C1724 H1710 0.952 . S
C1724 C1723 1.399 . S
C1724 C1725 1.385 . S
C1725 H1711 0.931 1_554 S
C1725 C1724 1.385 . S
C1725 C1726 1.389 . S
C1726 C1725 1.389 . S
C1726 C1727 1.387 . S
C1727 H1712 0.930 . S
C1727 C1722 1.390 . S
C1727 C1726 1.387 . S
H1728 C1740 0.930 . S
H1729 C1742 0.930 . S
H1730 C1743 0.930 . S
H1731 C1747 0.959 . S
H1732 C1747 0.959 . S
H1733 C1747 0.961 . S
H1734 C1748 0.960 . S
H1735 C1748 0.961 . S
H1736 C1748 0.959 . S
H1737 C1751 0.929 . S
H1738 C1752 0.931 . S
H1739 C1754 0.930 . S
C1740 H1728 0.930 . S
C1740 C1741 1.399 1_455 S
C1740 C1745 1.399 . S
C1741 C1740 1.399 1_655 S
C1741 C1742 1.376 . S
C1742 H1729 0.930 . S
C1742 C1741 1.376 . S
C1742 C1743 1.388 1_655 S
C1743 H1730 0.930 . S
C1743 C1742 1.388 1_455 S
C1743 C1744 1.390 . S
C1744 C1743 1.390 . S
C1744 C1745 1.394 . S
C1744 C1750 1.465 . S
C1745 C1740 1.399 . S
C1745 C1744 1.394 . S
C1745 C1746 1.516 . S
C1746 C1745 1.516 . S
C1746 C1747 1.502 . S
C1746 C1748 1.561 . S
C1746 C1749 1.526 . S
C1747 H1731 0.959 . S
C1747 H1732 0.959 . S
C1747 H1733 0.961 . S
C1747 C1746 1.502 . S
C1748 H1734 0.960 . S
C1748 H1735 0.961 . S
C1748 H1736 0.959 . S
C1748 C1746 1.561 . S
C1749 C1746 1.526 . S
C1749 C1750 1.396 . S
C1749 C1754 1.390 . S
C1750 C1744 1.465 . S
C1750 C1749 1.396 . S
C1750 C1751 1.399 . S
C1751 H1737 0.929 . S
C1751 C1750 1.399 . S
C1751 C1752 1.385 . S
C1752 H1738 0.931 . S
C1752 C1751 1.385 . S
C1752 C1753 1.389 . S
C1753 C1752 1.389 . S
C1753 C1754 1.387 . S
C1754 H1739 0.930 . S
C1754 C1749 1.390 . S
C1754 C1753 1.387 . S
H1755 C1767 0.930 . S
H1756 C1769 0.930 . S
H1757 C1770 0.930 . S
H1758 C1774 0.959 . S
H1759 C1774 0.959 . S
H1760 C1774 0.961 . S
H1761 C1775 0.960 . S
H1762 C1775 0.961 . S
H1763 C1775 0.959 . S
H1764 C1778 0.929 . S
H1765 C1779 0.931 . S
H1766 C1781 0.930 . S
C1767 H1755 0.930 . S
C1767 C1768 1.399 . S
C1767 C1772 1.399 . S
C1768 C1767 1.399 . S
C1768 C1769 1.376 . S
C1769 H1756 0.930 . S
C1769 C1768 1.376 . S
C1769 C1770 1.388 . S
C1770 H1757 0.930 . S
C1770 C1769 1.388 . S
C1770 C1771 1.390 . S
C1771 C1770 1.390 . S
C1771 C1772 1.394 . S
C1771 C1777 1.465 . S
C1772 C1767 1.399 . S
C1772 C1771 1.394 . S
C1772 C1773 1.516 . S
C1773 C1772 1.516 . S
C1773 C1774 1.502 . S
C1773 C1775 1.561 . S
C1773 C1776 1.526 . S
C1774 H1758 0.959 . S
C1774 H1759 0.959 . S
C1774 H1760 0.961 . S
C1774 C1773 1.502 . S
C1775 H1761 0.960 . S
C1775 H1762 0.961 . S
C1775 H1763 0.959 . S
C1775 C1773 1.561 . S
C1776 C1773 1.526 . S
C1776 C1777 1.396 . S
C1776 C1781 1.390 . S
C1777 C1771 1.465 . S
C1777 C1776 1.396 . S
C1777 C1778 1.399 . S
C1778 H1764 0.929 . S
C1778 C1777 1.399 . S
C1778 C1779 1.385 . S
C1779 H1765 0.931 . S
C1779 C1778 1.385 . S
C1779 C1780 1.389 . S
C1780 C1779 1.389 . S
C1780 C1781 1.387 . S
C1781 H1766 0.930 . S
C1781 C1776 1.390 . S
C1781 C1780 1.387 . S
H1782 C1794 0.930 . S
H1783 C1796 0.930 . S
H1784 C1797 0.930 . S
H1785 C1801 0.959 . S
H1786 C1801 0.959 . S
H1787 C1801 0.961 . S
H1788 C1802 0.960 . S
H1789 C1802 0.961 . S
H1790 C1802 0.959 . S
H1791 C1805 0.929 . S
H1792 C1806 0.931 . S
H1793 C1808 0.930 . S
C1794 H1782 0.930 . S
C1794 C1795 1.399 1_565 S
C1794 C1799 1.399 . S
C1795 C1794 1.399 1_545 S
C1795 C1796 1.376 . S
C1796 H1783 0.930 . S
C1796 C1795 1.376 . S
C1796 C1797 1.388 1_545 S
C1797 H1784 0.930 . S
C1797 C1796 1.388 1_565 S
C1797 C1798 1.390 . S
C1798 C1797 1.390 . S
C1798 C1799 1.394 . S
C1798 C1804 1.465 . S
C1799 C1794 1.399 . S
C1799 C1798 1.394 . S
C1799 C1800 1.516 . S
C1800 C1799 1.516 . S
C1800 C1801 1.502 . S
C1800 C1802 1.561 . S
C1800 C1803 1.526 . S
C1801 H1785 0.959 . S
C1801 H1786 0.959 . S
C1801 H1787 0.961 . S
C1801 C1800 1.502 . S
C1802 H1788 0.960 . S
C1802 H1789 0.961 . S
C1802 H1790 0.959 . S
C1802 C1800 1.561 . S
C1803 C1800 1.526 . S
C1803 C1804 1.396 . S
C1803 C1808 1.390 . S
C1804 C1798 1.465 . S
C1804 C1803 1.396 . S
C1804 C1805 1.399 . S
C1805 H1791 0.929 . S
C1805 C1804 1.399 . S
C1805 C1806 1.385 . S
C1806 H1792 0.931 . S
C1806 C1805 1.385 . S
C1806 C1807 1.389 . S
C1807 C1806 1.389 . S
C1807 C1808 1.387 . S
C1808 H1793 0.930 . S
C1808 C1803 1.390 . S
C1808 C1807 1.387 . S
H1809 C1821 0.930 . S
H1810 C1823 0.930 . S
H1811 C1824 0.930 . S
H1812 C1828 0.959 . S
H1813 C1828 0.959 . S
H1814 C1828 0.961 . S
H1815 C1829 0.960 . S
H1816 C1829 0.961 . S
H1817 C1829 0.959 . S
H1818 C1832 0.929 . S
H1819 C1833 0.931 . S
H1820 C1835 0.930 . S
C1821 H1809 0.930 . S
C1821 C1822 1.399 . S
C1821 C1826 1.399 . S
C1822 C1821 1.399 . S
C1822 C1823 1.376 . S
C1823 H1810 0.930 . S
C1823 C1822 1.376 . S
C1823 C1824 1.388 . S
C1824 H1811 0.930 . S
C1824 C1823 1.388 . S
C1824 C1825 1.390 . S
C1825 C1824 1.390 . S
C1825 C1826 1.394 . S
C1825 C1831 1.465 . S
C1826 C1821 1.399 . S
C1826 C1825 1.394 . S
C1826 C1827 1.516 . S
C1827 C1826 1.516 . S
C1827 C1828 1.502 . S
C1827 C1829 1.561 . S
C1827 C1830 1.526 . S
C1828 H1812 0.959 . S
C1828 H1813 0.959 . S
C1828 H1814 0.961 . S
C1828 C1827 1.502 . S
C1829 H1815 0.960 . S
C1829 H1816 0.961 . S
C1829 H1817 0.959 . S
C1829 C1827 1.561 . S
C1830 C1827 1.526 . S
C1830 C1831 1.396 . S
C1830 C1835 1.390 . S
C1831 C1825 1.465 . S
C1831 C1830 1.396 . S
C1831 C1832 1.399 . S
C1832 H1818 0.929 . S
C1832 C1831 1.399 . S
C1832 C1833 1.385 . S
C1833 H1819 0.931 . S
C1833 C1832 1.385 . S
C1833 C1834 1.389 . S
C1834 C1833 1.389 . S
C1834 C1835 1.387 . S
C1835 H1820 0.930 . S
C1835 C1830 1.390 . S
C1835 C1834 1.387 . S
H1836 C1848 0.930 . S
H1837 C1850 0.930 . S
H1838 C1851 0.930 . S
H1839 C1855 0.959 . S
H1840 C1855 0.959 . S
H1841 C1855 0.961 . S
H1842 C1856 0.960 . S
H1843 C1856 0.961 . S
H1844 C1856 0.959 . S
H1845 C1859 0.929 . S
H1846 C1860 0.931 . S
H1847 C1862 0.930 . S
C1848 H1836 0.930 . S
C1848 C1849 1.399 . S
C1848 C1853 1.399 . S
C1849 C1848 1.399 . S
C1849 C1850 1.376 . S
C1850 H1837 0.930 . S
C1850 C1849 1.376 . S
C1850 C1851 1.388 . S
C1851 H1838 0.930 . S
C1851 C1850 1.388 . S
C1851 C1852 1.390 . S
C1852 C1851 1.390 . S
C1852 C1853 1.394 . S
C1852 C1858 1.465 . S
C1853 C1848 1.399 . S
C1853 C1852 1.394 . S
C1853 C1854 1.516 . S
C1854 C1853 1.516 . S
C1854 C1855 1.502 . S
C1854 C1856 1.561 . S
C1854 C1857 1.526 . S
C1855 H1839 0.959 . S
C1855 H1840 0.959 . S
C1855 H1841 0.961 . S
C1855 C1854 1.502 . S
C1856 H1842 0.960 . S
C1856 H1843 0.961 . S
C1856 H1844 0.959 . S
C1856 C1854 1.561 . S
C1857 C1854 1.526 . S
C1857 C1858 1.396 . S
C1857 C1862 1.390 . S
C1858 C1852 1.465 . S
C1858 C1857 1.396 . S
C1858 C1859 1.399 . S
C1859 H1845 0.929 . S
C1859 C1858 1.399 . S
C1859 C1860 1.385 . S
C1860 H1846 0.931 . S
C1860 C1859 1.385 . S
C1860 C1861 1.389 . S
C1861 C1860 1.389 . S
C1861 C1862 1.387 . S
C1862 H1847 0.930 . S
C1862 C1857 1.390 . S
C1862 C1861 1.387 . S
H1863 C1875 0.930 . S
H1864 C1877 0.930 . S
H1865 C1878 0.930 . S
H1866 C1882 0.959 . S
H1867 C1882 0.959 . S
H1868 C1882 0.961 . S
H1869 C1883 0.960 . S
H1870 C1883 0.961 . S
H1871 C1883 0.959 . S
H1872 C1886 0.929 . S
H1873 C1887 0.931 . S
H1874 C1889 0.930 . S
C1875 H1863 0.930 . S
C1875 C1876 1.399 . S
C1875 C1880 1.399 . S
C1876 C1875 1.399 . S
C1876 C1877 1.376 . S
C1877 H1864 0.930 . S
C1877 C1876 1.376 . S
C1877 C1878 1.388 . S
C1878 H1865 0.930 . S
C1878 C1877 1.388 . S
C1878 C1879 1.390 . S
C1879 C1878 1.390 . S
C1879 C1880 1.394 . S
C1879 C1885 1.465 . S
C1880 C1875 1.399 . S
C1880 C1879 1.394 . S
C1880 C1881 1.516 . S
C1881 C1880 1.516 . S
C1881 C1882 1.502 . S
C1881 C1883 1.561 . S
C1881 C1884 1.526 . S
C1882 H1866 0.959 . S
C1882 H1867 0.959 . S
C1882 H1868 0.961 . S
C1882 C1881 1.502 . S
C1883 H1869 0.960 . S
C1883 H1870 0.961 . S
C1883 H1871 0.959 . S
C1883 C1881 1.561 . S
C1884 C1881 1.526 . S
C1884 C1885 1.396 . S
C1884 C1889 1.390 . S
C1885 C1879 1.465 . S
C1885 C1884 1.396 . S
C1885 C1886 1.399 . S
C1886 H1872 0.929 . S
C1886 C1885 1.399 . S
C1886 C1887 1.385 . S
C1887 H1873 0.931 . S
C1887 C1886 1.385 . S
C1887 C1888 1.389 . S
C1888 C1887 1.389 . S
C1888 C1889 1.387 . S
C1889 H1874 0.930 . S
C1889 C1884 1.390 . S
C1889 C1888 1.387 . S
H1890 C1902 0.930 . S
H1891 C1904 0.930 . S
H1892 C1905 0.930 . S
H1893 C1909 0.959 . S
H1894 C1909 0.959 . S
H1895 C1909 0.961 . S
H1896 C1910 0.960 . S
H1897 C1910 0.961 . S
H1898 C1910 0.959 . S
H1899 C1913 0.929 . S
H1900 C1914 0.931 . S
H1901 C1916 0.930 . S
C1902 H1890 0.930 . S
C1902 C1903 1.399 . S
C1902 C1907 1.399 . S
C1903 C1902 1.399 . S
C1903 C1904 1.376 . S
C1904 H1891 0.930 . S
C1904 C1903 1.376 . S
C1904 C1905 1.388 . S
C1905 H1892 0.930 . S
C1905 C1904 1.388 . S
C1905 C1906 1.390 . S
C1906 C1905 1.390 . S
C1906 C1907 1.394 . S
C1906 C1912 1.465 . S
C1907 C1902 1.399 . S
C1907 C1906 1.394 . S
C1907 C1908 1.516 . S
C1908 C1907 1.516 . S
C1908 C1909 1.502 . S
C1908 C1910 1.561 . S
C1908 C1911 1.526 . S
C1909 H1893 0.959 . S
C1909 H1894 0.959 . S
C1909 H1895 0.961 . S
C1909 C1908 1.502 . S
C1910 H1896 0.960 . S
C1910 H1897 0.961 . S
C1910 H1898 0.959 . S
C1910 C1908 1.561 . S
C1911 C1908 1.526 . S
C1911 C1912 1.396 . S
C1911 C1916 1.390 . S
C1912 C1906 1.465 . S
C1912 C1911 1.396 . S
C1912 C1913 1.399 . S
C1913 H1899 0.929 . S
C1913 C1912 1.399 . S
C1913 C1914 1.385 . S
C1914 H1900 0.931 . S
C1914 C1913 1.385 . S
C1914 C1915 1.389 . S
C1915 C1914 1.389 . S
C1915 C1916 1.387 . S
C1916 H1901 0.930 . S
C1916 C1911 1.390 . S
C1916 C1915 1.387 . S
H1917 C1929 0.930 . S
H1918 C1931 0.930 . S
H1919 C1932 0.930 . S
H1920 C1936 0.959 . S
H1921 C1936 0.959 . S
H1922 C1936 0.961 . S
H1923 C1937 0.960 . S
H1924 C1937 0.961 . S
H1925 C1937 0.959 . S
H1926 C1940 0.929 . S
H1927 C1941 0.931 . S
H1928 C1943 0.930 . S
C1929 H1917 0.930 . S
C1929 C1930 1.399 . S
C1929 C1934 1.399 . S
C1930 C1929 1.399 . S
C1930 C1931 1.376 . S
C1931 H1918 0.930 . S
C1931 C1930 1.376 . S
C1931 C1932 1.388 . S
C1932 H1919 0.930 . S
C1932 C1931 1.388 . S
C1932 C1933 1.390 . S
C1933 C1932 1.390 . S
C1933 C1934 1.394 . S
C1933 C1939 1.465 . S
C1934 C1929 1.399 . S
C1934 C1933 1.394 . S
C1934 C1935 1.516 . S
C1935 C1934 1.516 . S
C1935 C1936 1.502 . S
C1935 C1937 1.561 . S
C1935 C1938 1.526 . S
C1936 H1920 0.959 . S
C1936 H1921 0.959 . S
C1936 H1922 0.961 . S
C1936 C1935 1.502 . S
C1937 H1923 0.960 . S
C1937 H1924 0.961 . S
C1937 H1925 0.959 . S
C1937 C1935 1.561 . S
C1938 C1935 1.526 . S
C1938 C1939 1.396 . S
C1938 C1943 1.390 . S
C1939 C1933 1.465 . S
C1939 C1938 1.396 . S
C1939 C1940 1.399 . S
C1940 H1926 0.929 . S
C1940 C1939 1.399 . S
C1940 C1941 1.385 . S
C1941 H1927 0.931 . S
C1941 C1940 1.385 . S
C1941 C1942 1.389 . S
C1942 C1941 1.389 . S
C1942 C1943 1.387 . S
C1943 H1928 0.930 . S
C1943 C1938 1.390 . S
C1943 C1942 1.387 . S
H1944 C1956 0.930 . S
H1945 C1958 0.930 . S
H1946 C1959 0.930 . S
H1947 C1963 0.959 . S
H1948 C1963 0.959 . S
H1949 C1963 0.961 . S
H1950 C1964 0.960 . S
H1951 C1964 0.961 . S
H1952 C1964 0.959 . S
H1953 C1967 0.929 . S
H1954 C1968 0.931 . S
H1955 C1970 0.930 . S
C1956 H1944 0.930 . S
C1956 C1957 1.399 . S
C1956 C1961 1.399 . S
C1957 C1956 1.399 . S
C1957 C1958 1.376 . S
C1958 H1945 0.930 . S
C1958 C1957 1.376 . S
C1958 C1959 1.388 . S
C1959 H1946 0.930 . S
C1959 C1958 1.388 . S
C1959 C1960 1.390 . S
C1960 C1959 1.390 . S
C1960 C1961 1.394 . S
C1960 C1966 1.465 . S
C1961 C1956 1.399 . S
C1961 C1960 1.394 . S
C1961 C1962 1.516 . S
C1962 C1961 1.516 . S
C1962 C1963 1.502 . S
C1962 C1964 1.561 . S
C1962 C1965 1.526 . S
C1963 H1947 0.959 . S
C1963 H1948 0.959 . S
C1963 H1949 0.961 . S
C1963 C1962 1.502 . S
C1964 H1950 0.960 . S
C1964 H1951 0.961 . S
C1964 H1952 0.959 . S
C1964 C1962 1.561 . S
C1965 C1962 1.526 . S
C1965 C1966 1.396 . S
C1965 C1970 1.390 . S
C1966 C1960 1.465 . S
C1966 C1965 1.396 . S
C1966 C1967 1.399 . S
C1967 H1953 0.929 . S
C1967 C1966 1.399 . S
C1967 C1968 1.385 . S
C1968 H1954 0.931 . S
C1968 C1967 1.385 . S
C1968 C1969 1.389 . S
C1969 C1968 1.389 . S
C1969 C1970 1.387 . S
C1970 H1955 0.930 . S
C1970 C1965 1.390 . S
C1970 C1969 1.387 . S
H1971 C1983 0.912 . S
H1972 C1985 0.930 . S
H1973 C1986 0.930 . S
H1974 C1990 0.959 . S
H1975 C1990 0.959 . S
H1976 C1990 0.961 . S
H1977 C1991 0.960 . S
H1978 C1991 0.961 . S
H1979 C1991 0.959 . S
H1980 C1994 0.929 . S
H1981 C1995 0.931 . S
H1982 C1997 0.930 . S
C1983 H1971 0.912 . S
C1983 C1984 1.399 1_565 S
C1983 C1988 1.399 . S
C1984 C1983 1.399 1_545 S
C1984 C1985 1.376 . S
C1985 H1972 0.930 . S
C1985 C1984 1.376 . S
C1985 C1986 1.388 1_545 S
C1986 H1973 0.930 . S
C1986 C1985 1.388 1_565 S
C1986 C1987 1.390 . S
C1987 C1986 1.390 . S
C1987 C1988 1.394 . S
C1987 C1993 1.465 . S
C1988 C1983 1.399 . S
C1988 C1987 1.394 . S
C1988 C1989 1.516 . S
C1989 C1988 1.516 . S
C1989 C1990 1.502 . S
C1989 C1991 1.561 . S
C1989 C1992 1.526 . S
C1990 H1974 0.959 . S
C1990 H1975 0.959 . S
C1990 H1976 0.961 . S
C1990 C1989 1.502 . S
C1991 H1977 0.960 . S
C1991 H1978 0.961 . S
C1991 H1979 0.959 . S
C1991 C1989 1.561 . S
C1992 C1989 1.526 . S
C1992 C1993 1.396 . S
C1992 C1997 1.390 . S
C1993 C1987 1.465 . S
C1993 C1992 1.396 . S
C1993 C1994 1.399 . S
C1994 H1980 0.929 . S
C1994 C1993 1.399 . S
C1994 C1995 1.385 . S
C1995 H1981 0.931 . S
C1995 C1994 1.385 . S
C1995 C1996 1.389 . S
C1996 C1995 1.389 . S
C1996 C1997 1.387 . S
C1997 H1982 0.930 . S
C1997 C1992 1.390 . S
C1997 C1996 1.387 . S
H1998 C2010 0.930 . S
H1999 C2012 0.930 . S
H2000 C2013 0.930 . S
H2001 C2017 0.959 . S
H2002 C2017 0.959 . S
H2003 C2017 0.961 . S
H2004 C2018 0.960 . S
H2005 C2018 0.961 . S
H2006 C2018 0.959 . S
H2007 C2021 0.929 . S
H2008 C2022 0.931 . S
H2009 C2024 0.930 . S
C2010 H1998 0.930 . S
C2010 C2011 1.399 1_455 S
C2010 C2015 1.399 . S
C2011 C2010 1.399 1_655 S
C2011 C2012 1.376 . S
C2012 H1999 0.930 . S
C2012 C2011 1.376 . S
C2012 C2013 1.388 1_655 S
C2013 H2000 0.930 . S
C2013 C2012 1.388 1_455 S
C2013 C2014 1.390 . S
C2014 C2013 1.390 . S
C2014 C2015 1.394 . S
C2014 C2020 1.465 . S
C2015 C2010 1.399 . S
C2015 C2014 1.394 . S
C2015 C2016 1.516 . S
C2016 C2015 1.516 . S
C2016 C2017 1.502 . S
C2016 C2018 1.561 . S
C2016 C2019 1.526 . S
C2017 H2001 0.959 . S
C2017 H2002 0.959 . S
C2017 H2003 0.961 . S
C2017 C2016 1.502 . S
C2018 H2004 0.960 . S
C2018 H2005 0.961 . S
C2018 H2006 0.959 . S
C2018 C2016 1.561 . S
C2019 C2016 1.526 . S
C2019 C2020 1.396 . S
C2019 C2024 1.390 . S
C2020 C2014 1.465 . S
C2020 C2019 1.396 . S
C2020 C2021 1.399 . S
C2021 H2007 0.929 . S
C2021 C2020 1.399 . S
C2021 C2022 1.385 . S
C2022 H2008 0.931 . S
C2022 C2021 1.385 . S
C2022 C2023 1.389 . S
C2023 C2022 1.389 . S
C2023 C2024 1.387 . S
C2024 H2009 0.930 . S
C2024 C2019 1.390 . S
C2024 C2023 1.387 . S
H2025 C2037 0.930 . S
H2026 C2039 0.930 . S
H2027 C2040 0.930 . S
H2028 C2044 0.959 . S
H2029 C2044 0.959 . S
H2030 C2044 0.961 . S
H2031 C2045 0.960 . S
H2032 C2045 0.961 . S
H2033 C2045 0.959 . S
H2034 C2048 0.929 . S
H2035 C2049 0.931 . S
H2036 C2051 0.930 . S
C2037 H2025 0.930 . S
C2037 C2038 1.399 . S
C2037 C2042 1.399 . S
C2038 C2037 1.399 . S
C2038 C2039 1.376 . S
C2039 H2026 0.930 . S
C2039 C2038 1.376 . S
C2039 C2040 1.388 . S
C2040 H2027 0.930 . S
C2040 C2039 1.388 . S
C2040 C2041 1.390 . S
C2041 C2040 1.390 . S
C2041 C2042 1.394 . S
C2041 C2047 1.465 . S
C2042 C2037 1.399 . S
C2042 C2041 1.394 . S
C2042 C2043 1.516 . S
C2043 C2042 1.516 . S
C2043 C2044 1.502 . S
C2043 C2045 1.561 . S
C2043 C2046 1.526 . S
C2044 H2028 0.959 . S
C2044 H2029 0.959 . S
C2044 H2030 0.961 . S
C2044 C2043 1.502 . S
C2045 H2031 0.960 . S
C2045 H2032 0.961 . S
C2045 H2033 0.959 . S
C2045 C2043 1.561 . S
C2046 C2043 1.526 . S
C2046 C2047 1.396 . S
C2046 C2051 1.390 . S
C2047 C2041 1.465 . S
C2047 C2046 1.396 . S
C2047 C2048 1.399 . S
C2048 H2034 0.929 . S
C2048 C2047 1.399 . S
C2048 C2049 1.385 . S
C2049 H2035 0.931 . S
C2049 C2048 1.385 . S
C2049 C2050 1.389 . S
C2050 C2049 1.389 . S
C2050 C2051 1.387 . S
C2051 H2036 0.930 . S
C2051 C2046 1.390 . S
C2051 C2050 1.387 . S
H2052 C2064 0.930 . S
H2053 C2066 0.930 . S
H2054 C2067 0.930 . S
H2055 C2071 0.959 . S
H2056 C2071 0.959 . S
H2057 C2071 0.961 . S
H2058 C2072 0.960 . S
H2059 C2072 0.961 . S
H2060 C2072 0.959 . S
H2061 C2075 0.929 . S
H2062 C2076 0.931 . S
H2063 C2078 0.930 . S
C2064 H2052 0.930 . S
C2064 C2065 1.399 . S
C2064 C2069 1.399 . S
C2065 C2064 1.399 . S
C2065 C2066 1.376 . S
C2066 H2053 0.930 . S
C2066 C2065 1.376 . S
C2066 C2067 1.388 . S
C2067 H2054 0.930 . S
C2067 C2066 1.388 . S
C2067 C2068 1.390 . S
C2068 C2067 1.390 . S
C2068 C2069 1.394 . S
C2068 C2074 1.465 . S
C2069 C2064 1.399 . S
C2069 C2068 1.394 . S
C2069 C2070 1.516 . S
C2070 C2069 1.516 . S
C2070 C2071 1.502 . S
C2070 C2072 1.561 . S
C2070 C2073 1.526 . S
C2071 H2055 0.959 . S
C2071 H2056 0.959 . S
C2071 H2057 0.961 . S
C2071 C2070 1.502 . S
C2072 H2058 0.960 . S
C2072 H2059 0.961 . S
C2072 H2060 0.959 . S
C2072 C2070 1.561 . S
C2073 C2070 1.526 . S
C2073 C2074 1.396 . S
C2073 C2078 1.390 . S
C2074 C2068 1.465 . S
C2074 C2073 1.396 . S
C2074 C2075 1.399 . S
C2075 H2061 0.929 . S
C2075 C2074 1.399 . S
C2075 C2076 1.385 . S
C2076 H2062 0.931 . S
C2076 C2075 1.385 . S
C2076 C2077 1.389 . S
C2077 C2076 1.389 . S
C2077 C2078 1.387 . S
C2078 H2063 0.930 . S
C2078 C2073 1.390 . S
C2078 C2077 1.387 . S
H2079 C2091 0.930 . S
H2080 C2093 0.930 . S
H2081 C2094 0.930 . S
H2082 C2098 0.959 . S
H2083 C2098 0.959 . S
H2084 C2098 0.961 . S
H2085 C2099 0.960 . S
H2086 C2099 0.961 . S
H2087 C2099 0.959 . S
H2088 C2102 0.929 . S
H2089 C2103 0.931 . S
H2090 C2105 0.930 . S
C2091 H2079 0.930 . S
C2091 C2092 1.399 . S
C2091 C2096 1.399 . S
C2092 C2091 1.399 . S
C2092 C2093 1.376 . S
C2093 H2080 0.930 . S
C2093 C2092 1.376 . S
C2093 C2094 1.388 . S
C2094 H2081 0.930 . S
C2094 C2093 1.388 . S
C2094 C2095 1.390 . S
C2095 C2094 1.390 . S
C2095 C2096 1.394 . S
C2095 C2101 1.465 . S
C2096 C2091 1.399 . S
C2096 C2095 1.394 . S
C2096 C2097 1.516 . S
C2097 C2096 1.516 . S
C2097 C2098 1.502 . S
C2097 C2099 1.561 . S
C2097 C2100 1.526 . S
C2098 H2082 0.959 . S
C2098 H2083 0.959 . S
C2098 H2084 0.961 . S
C2098 C2097 1.502 . S
C2099 H2085 0.960 . S
C2099 H2086 0.961 . S
C2099 H2087 0.959 . S
C2099 C2097 1.561 . S
C2100 C2097 1.526 . S
C2100 C2101 1.396 . S
C2100 C2105 1.390 . S
C2101 C2095 1.465 . S
C2101 C2100 1.396 . S
C2101 C2102 1.399 . S
C2102 H2088 0.929 . S
C2102 C2101 1.399 . S
C2102 C2103 1.385 . S
C2103 H2089 0.931 . S
C2103 C2102 1.385 . S
C2103 C2104 1.389 . S
C2104 C2103 1.389 . S
C2104 C2105 1.387 . S
C2105 H2090 0.930 . S
C2105 C2100 1.390 . S
C2105 C2104 1.387 . S
H2106 C2118 0.930 . S
H2107 C2120 0.930 . S
H2108 C2121 0.930 . S
H2109 C2125 0.959 . S
H2110 C2125 0.959 . S
H2111 C2125 0.961 . S
H2112 C2126 0.960 . S
H2113 C2126 0.961 . S
H2114 C2126 0.959 . S
H2115 C2129 0.929 . S
H2116 C2130 0.931 . S
H2117 C2132 0.930 . S
C2118 H2106 0.930 . S
C2118 C2119 1.399 . S
C2118 C2123 1.399 . S
C2119 C2118 1.399 . S
C2119 C2120 1.376 . S
C2120 H2107 0.930 . S
C2120 C2119 1.376 . S
C2120 C2121 1.388 . S
C2121 H2108 0.930 . S
C2121 C2120 1.388 . S
C2121 C2122 1.390 . S
C2122 C2121 1.390 . S
C2122 C2123 1.394 . S
C2122 C2128 1.465 . S
C2123 C2118 1.399 . S
C2123 C2122 1.394 . S
C2123 C2124 1.516 . S
C2124 C2123 1.516 . S
C2124 C2125 1.502 . S
C2124 C2126 1.561 . S
C2124 C2127 1.526 . S
C2125 H2109 0.959 . S
C2125 H2110 0.959 . S
C2125 H2111 0.961 . S
C2125 C2124 1.502 . S
C2126 H2112 0.960 . S
C2126 H2113 0.961 . S
C2126 H2114 0.959 . S
C2126 C2124 1.561 . S
C2127 C2124 1.526 . S
C2127 C2128 1.396 . S
C2127 C2132 1.390 . S
C2128 C2122 1.465 . S
C2128 C2127 1.396 . S
C2128 C2129 1.399 . S
C2129 H2115 0.929 . S
C2129 C2128 1.399 . S
C2129 C2130 1.385 . S
C2130 H2116 0.931 . S
C2130 C2129 1.385 . S
C2130 C2131 1.389 . S
C2131 C2130 1.389 . S
C2131 C2132 1.387 . S
C2132 H2117 0.930 . S
C2132 C2127 1.390 . S
C2132 C2131 1.387 . S
H2133 C2145 0.930 . S
H2134 C2147 0.930 1_565 S
H2135 C2148 0.930 . S
H2136 C2152 0.959 . S
H2137 C2152 0.959 . S
H2138 C2152 0.961 . S
H2139 C2153 0.960 . S
H2140 C2153 0.961 . S
H2141 C2153 0.959 . S
H2142 C2156 0.929 . S
H2143 C2157 0.931 . S
H2144 C2159 0.930 . S
C2145 H2133 0.930 . S
C2145 C2146 1.399 . S
C2145 C2150 1.399 1_565 S
C2146 C2145 1.399 . S
C2146 C2147 1.376 1_565 S
C2147 H2134 0.930 1_545 S
C2147 C2146 1.376 1_545 S
C2147 C2148 1.388 . S
C2148 H2135 0.930 . S
C2148 C2147 1.388 . S
C2148 C2149 1.390 . S
C2149 C2148 1.390 . S
C2149 C2150 1.394 . S
C2149 C2155 1.465 . S
C2150 C2145 1.399 1_545 S
C2150 C2149 1.394 . S
C2150 C2151 1.516 . S
C2151 C2150 1.516 . S
C2151 C2152 1.502 . S
C2151 C2153 1.561 . S
C2151 C2154 1.526 . S
C2152 H2136 0.959 . S
C2152 H2137 0.959 . S
C2152 H2138 0.961 . S
C2152 C2151 1.502 . S
C2153 H2139 0.960 . S
C2153 H2140 0.961 . S
C2153 H2141 0.959 . S
C2153 C2151 1.561 . S
C2154 C2151 1.526 . S
C2154 C2155 1.396 . S
C2154 C2159 1.390 . S
C2155 C2149 1.465 . S
C2155 C2154 1.396 . S
C2155 C2156 1.399 . S
C2156 H2142 0.929 . S
C2156 C2155 1.399 . S
C2156 C2157 1.385 . S
C2157 H2143 0.931 . S
C2157 C2156 1.385 . S
C2157 C2158 1.389 . S
C2158 C2157 1.389 . S
C2158 C2159 1.387 . S
C2159 H2144 0.930 . S
C2159 C2154 1.390 . S
C2159 C2158 1.387 . S
H2160 C2172 0.930 . S
H2161 C2174 0.930 . S
H2162 C2175 0.930 . S
H2163 C2179 0.959 . S
H2164 C2179 0.959 . S
H2165 C2179 0.961 . S
H2166 C2180 0.960 . S
H2167 C2180 0.961 . S
H2168 C2180 0.959 . S
H2169 C2183 0.929 . S
H2170 C2184 0.931 . S
H2171 C2186 0.930 . S
C2172 H2160 0.930 . S
C2172 C2173 1.399 1_655 S
C2172 C2177 1.399 . S
C2173 C2172 1.399 1_455 S
C2173 C2174 1.376 . S
C2174 H2161 0.930 . S
C2174 C2173 1.376 . S
C2174 C2175 1.388 1_455 S
C2175 H2162 0.930 . S
C2175 C2174 1.388 1_655 S
C2175 C2176 1.390 . S
C2176 C2175 1.390 . S
C2176 C2177 1.394 . S
C2176 C2182 1.465 . S
C2177 C2172 1.399 . S
C2177 C2176 1.394 . S
C2177 C2178 1.516 . S
C2178 C2177 1.516 . S
C2178 C2179 1.502 . S
C2178 C2180 1.561 . S
C2178 C2181 1.526 . S
C2179 H2163 0.959 . S
C2179 H2164 0.959 . S
C2179 H2165 0.961 . S
C2179 C2178 1.502 . S
C2180 H2166 0.960 . S
C2180 H2167 0.961 . S
C2180 H2168 0.959 . S
C2180 C2178 1.561 . S
C2181 C2178 1.526 . S
C2181 C2182 1.396 . S
C2181 C2186 1.390 . S
C2182 C2176 1.465 . S
C2182 C2181 1.396 . S
C2182 C2183 1.399 . S
C2183 H2169 0.929 . S
C2183 C2182 1.399 . S
C2183 C2184 1.385 . S
C2184 H2170 0.931 . S
C2184 C2183 1.385 . S
C2184 C2185 1.389 . S
C2185 C2184 1.389 . S
C2185 C2186 1.387 . S
C2186 H2171 0.930 . S
C2186 C2181 1.390 . S
C2186 C2185 1.387 . S
H2187 C2199 0.930 . S
H2188 C2201 0.930 . S
H2189 C2202 0.930 . S
H2190 C2206 0.959 . S
H2191 C2206 0.959 . S
H2192 C2206 0.961 . S
H2193 C2207 0.960 . S
H2194 C2207 0.961 . S
H2195 C2207 0.959 . S
H2196 C2210 0.929 . S
H2197 C2211 0.931 . S
H2198 C2213 0.930 . S
C2199 H2187 0.930 . S
C2199 C2200 1.399 . S
C2199 C2204 1.399 . S
C2200 C2199 1.399 . S
C2200 C2201 1.376 . S
C2201 H2188 0.930 . S
C2201 C2200 1.376 . S
C2201 C2202 1.388 . S
C2202 H2189 0.930 . S
C2202 C2201 1.388 . S
C2202 C2203 1.390 . S
C2203 C2202 1.390 . S
C2203 C2204 1.394 . S
C2203 C2209 1.465 . S
C2204 C2199 1.399 . S
C2204 C2203 1.394 . S
C2204 C2205 1.516 . S
C2205 C2204 1.516 . S
C2205 C2206 1.502 . S
C2205 C2207 1.561 . S
C2205 C2208 1.526 . S
C2206 H2190 0.959 . S
C2206 H2191 0.959 . S
C2206 H2192 0.961 . S
C2206 C2205 1.502 . S
C2207 H2193 0.960 . S
C2207 H2194 0.961 . S
C2207 H2195 0.959 . S
C2207 C2205 1.561 . S
C2208 C2205 1.526 . S
C2208 C2209 1.396 . S
C2208 C2213 1.390 . S
C2209 C2203 1.465 . S
C2209 C2208 1.396 . S
C2209 C2210 1.399 . S
C2210 H2196 0.929 . S
C2210 C2209 1.399 . S
C2210 C2211 1.385 . S
C2211 H2197 0.931 . S
C2211 C2210 1.385 . S
C2211 C2212 1.389 . S
C2212 C2211 1.389 . S
C2212 C2213 1.387 . S
C2213 H2198 0.930 . S
C2213 C2208 1.390 . S
C2213 C2212 1.387 . S
H2214 C2226 0.930 1_455 S
H2215 C2228 0.930 1_455 S
H2216 C2229 0.930 . S
H2217 C2233 0.959 . S
H2218 C2233 0.959 . S
H2219 C2233 0.961 . S
H2220 C2234 0.960 . S
H2221 C2234 0.961 . S
H2222 C2234 0.959 . S
H2223 C2237 0.929 . S
H2224 C2238 0.931 . S
H2225 C2240 0.930 . S
C2226 H2214 0.930 1_655 S
C2226 C2227 1.399 1_655 S
C2226 C2231 1.399 . S
C2227 C2226 1.399 1_455 S
C2227 C2228 1.376 1_455 S
C2228 H2215 0.930 1_655 S
C2228 C2227 1.376 1_655 S
C2228 C2229 1.388 . S
C2229 H2216 0.930 . S
C2229 C2228 1.388 . S
C2229 C2230 1.390 . S
C2230 C2229 1.390 . S
C2230 C2231 1.394 . S
C2230 C2236 1.465 . S
C2231 C2226 1.399 . S
C2231 C2230 1.394 . S
C2231 C2232 1.516 . S
C2232 C2231 1.516 . S
C2232 C2233 1.502 . S
C2232 C2234 1.561 . S
C2232 C2235 1.526 . S
C2233 H2217 0.959 . S
C2233 H2218 0.959 . S
C2233 H2219 0.961 . S
C2233 C2232 1.502 . S
C2234 H2220 0.960 . S
C2234 H2221 0.961 . S
C2234 H2222 0.959 . S
C2234 C2232 1.561 . S
C2235 C2232 1.526 . S
C2235 C2236 1.396 . S
C2235 C2240 1.390 . S
C2236 C2230 1.465 . S
C2236 C2235 1.396 . S
C2236 C2237 1.399 . S
C2237 H2223 0.929 . S
C2237 C2236 1.399 . S
C2237 C2238 1.385 . S
C2238 H2224 0.931 . S
C2238 C2237 1.385 . S
C2238 C2239 1.389 . S
C2239 C2238 1.389 . S
C2239 C2240 1.387 . S
C2240 H2225 0.930 . S
C2240 C2235 1.390 . S
C2240 C2239 1.387 . S
H2241 C2253 0.930 . S
H2242 C2255 0.930 . S
H2243 C2256 0.930 . S
H2244 C2260 0.959 . S
H2245 C2260 0.959 . S
H2246 C2260 0.961 . S
H2247 C2261 0.960 . S
H2248 C2261 0.961 . S
H2249 C2261 0.959 . S
H2250 C2264 0.929 . S
H2251 C2265 0.931 . S
H2252 C2267 0.930 . S
C2253 H2241 0.930 . S
C2253 C2254 1.399 . S
C2253 C2258 1.399 . S
C2254 C2253 1.399 . S
C2254 C2255 1.376 . S
C2255 H2242 0.930 . S
C2255 C2254 1.376 . S
C2255 C2256 1.388 . S
C2256 H2243 0.930 . S
C2256 C2255 1.388 . S
C2256 C2257 1.390 . S
C2257 C2256 1.390 . S
C2257 C2258 1.394 . S
C2257 C2263 1.465 . S
C2258 C2253 1.399 . S
C2258 C2257 1.394 . S
C2258 C2259 1.516 . S
C2259 C2258 1.516 . S
C2259 C2260 1.502 . S
C2259 C2261 1.561 . S
C2259 C2262 1.526 . S
C2260 H2244 0.959 . S
C2260 H2245 0.959 . S
C2260 H2246 0.961 . S
C2260 C2259 1.502 . S
C2261 H2247 0.960 . S
C2261 H2248 0.961 . S
C2261 H2249 0.959 . S
C2261 C2259 1.561 . S
C2262 C2259 1.526 . S
C2262 C2263 1.396 . S
C2262 C2267 1.390 . S
C2263 C2257 1.465 . S
C2263 C2262 1.396 . S
C2263 C2264 1.399 . S
C2264 H2250 0.929 . S
C2264 C2263 1.399 . S
C2264 C2265 1.385 . S
C2265 H2251 0.931 . S
C2265 C2264 1.385 . S
C2265 C2266 1.389 . S
C2266 C2265 1.389 . S
C2266 C2267 1.387 . S
C2267 H2252 0.930 . S
C2267 C2262 1.390 . S
C2267 C2266 1.387 . S
H2268 C2280 0.930 1_565 S
H2269 C2282 0.930 . S
H2270 C2283 0.930 . S
H2271 C2287 0.959 . S
H2272 C2287 0.959 . S
H2273 C2287 0.961 . S
H2274 C2288 0.960 . S
H2275 C2288 0.961 . S
H2276 C2288 0.959 . S
H2277 C2291 0.929 . S
H2278 C2292 0.931 . S
H2279 C2294 0.930 . S
C2280 H2268 0.930 1_545 S
C2280 C2281 1.399 1_545 S
C2280 C2285 1.399 . S
C2281 C2280 1.399 1_565 S
C2281 C2282 1.376 . S
C2282 H2269 0.930 . S
C2282 C2281 1.376 . S
C2282 C2283 1.388 1_565 S
C2283 H2270 0.930 . S
C2283 C2282 1.388 1_545 S
C2283 C2284 1.390 . S
C2284 C2283 1.390 . S
C2284 C2285 1.394 . S
C2284 C2290 1.465 . S
C2285 C2280 1.399 . S
C2285 C2284 1.394 . S
C2285 C2286 1.516 . S
C2286 C2285 1.516 . S
C2286 C2287 1.502 . S
C2286 C2288 1.561 . S
C2286 C2289 1.526 . S
C2287 H2271 0.959 . S
C2287 H2272 0.959 . S
C2287 H2273 0.961 . S
C2287 C2286 1.502 . S
C2288 H2274 0.960 . S
C2288 H2275 0.961 . S
C2288 H2276 0.959 . S
C2288 C2286 1.561 . S
C2289 C2286 1.526 . S
C2289 C2290 1.396 . S
C2289 C2294 1.390 . S
C2290 C2284 1.465 . S
C2290 C2289 1.396 . S
C2290 C2291 1.399 . S
C2291 H2277 0.929 . S
C2291 C2290 1.399 . S
C2291 C2292 1.385 . S
C2292 H2278 0.931 . S
C2292 C2291 1.385 . S
C2292 C2293 1.389 . S
C2293 C2292 1.389 . S
C2293 C2294 1.387 . S
C2294 H2279 0.930 . S
C2294 C2289 1.390 . S
C2294 C2293 1.387 . S
H2295 C2307 0.930 . S
H2296 C2309 0.930 . S
H2297 C2310 0.930 . S
H2298 C2314 0.959 . S
H2299 C2314 0.959 . S
H2300 C2314 0.961 . S
H2301 C2315 0.960 . S
H2302 C2315 0.961 . S
H2303 C2315 0.959 . S
H2304 C2318 0.929 . S
H2305 C2319 0.931 . S
H2306 C2321 0.930 . S
C2307 H2295 0.930 . S
C2307 C2308 1.399 . S
C2307 C2312 1.399 . S
C2308 C2307 1.399 . S
C2308 C2309 1.376 . S
C2309 H2296 0.930 . S
C2309 C2308 1.376 . S
C2309 C2310 1.388 . S
C2310 H2297 0.930 . S
C2310 C2309 1.388 . S
C2310 C2311 1.390 . S
C2311 C2310 1.390 . S
C2311 C2312 1.394 . S
C2311 C2317 1.465 . S
C2312 C2307 1.399 . S
C2312 C2311 1.394 . S
C2312 C2313 1.516 . S
C2313 C2312 1.516 . S
C2313 C2314 1.502 . S
C2313 C2315 1.561 . S
C2313 C2316 1.526 . S
C2314 H2298 0.959 . S
C2314 H2299 0.959 . S
C2314 H2300 0.961 . S
C2314 C2313 1.502 . S
C2315 H2301 0.960 . S
C2315 H2302 0.961 . S
C2315 H2303 0.959 . S
C2315 C2313 1.561 . S
C2316 C2313 1.526 . S
C2316 C2317 1.396 . S
C2316 C2321 1.390 . S
C2317 C2311 1.465 . S
C2317 C2316 1.396 . S
C2317 C2318 1.399 . S
C2318 H2304 0.929 . S
C2318 C2317 1.399 . S
C2318 C2319 1.385 . S
C2319 H2305 0.931 . S
C2319 C2318 1.385 . S
C2319 C2320 1.389 . S
C2320 C2319 1.389 . S
C2320 C2321 1.387 . S
C2321 H2306 0.930 . S
C2321 C2316 1.390 . S
C2321 C2320 1.387 . S
H2322 C2334 0.930 . S
H2323 C2336 0.930 . S
H2324 C2337 0.930 . S
H2325 C2341 0.959 . S
H2326 C2341 0.959 . S
H2327 C2341 0.961 . S
H2328 C2342 0.960 . S
H2329 C2342 0.961 . S
H2330 C2342 0.959 . S
H2331 C2345 0.929 . S
H2332 C2346 0.931 . S
H2333 C2348 0.930 . S
C2334 H2322 0.930 . S
C2334 C2335 1.399 . S
C2334 C2339 1.399 . S
C2335 C2334 1.399 . S
C2335 C2336 1.376 . S
C2336 H2323 0.930 . S
C2336 C2335 1.376 . S
C2336 C2337 1.388 . S
C2337 H2324 0.930 . S
C2337 C2336 1.388 . S
C2337 C2338 1.390 . S
C2338 C2337 1.390 . S
C2338 C2339 1.394 . S
C2338 C2344 1.465 . S
C2339 C2334 1.399 . S
C2339 C2338 1.394 . S
C2339 C2340 1.516 . S
C2340 C2339 1.516 . S
C2340 C2341 1.502 . S
C2340 C2342 1.561 . S
C2340 C2343 1.526 . S
C2341 H2325 0.959 . S
C2341 H2326 0.959 . S
C2341 H2327 0.961 . S
C2341 C2340 1.502 . S
C2342 H2328 0.960 . S
C2342 H2329 0.961 . S
C2342 H2330 0.959 . S
C2342 C2340 1.561 . S
C2343 C2340 1.526 . S
C2343 C2344 1.396 . S
C2343 C2348 1.390 . S
C2344 C2338 1.465 . S
C2344 C2343 1.396 . S
C2344 C2345 1.399 . S
C2345 H2331 0.929 . S
C2345 C2344 1.399 . S
C2345 C2346 1.385 . S
C2346 H2332 0.931 . S
C2346 C2345 1.385 . S
C2346 C2347 1.389 . S
C2347 C2346 1.389 . S
C2347 C2348 1.387 . S
C2348 H2333 0.930 . S
C2348 C2343 1.390 . S
C2348 C2347 1.387 . S
H2349 C2361 0.930 . S
H2350 C2363 0.930 . S
H2351 C2364 0.930 . S
H2352 C2368 0.959 . S
H2353 C2368 0.959 . S
H2354 C2368 0.961 . S
H2355 C2369 0.960 . S
H2356 C2369 0.961 . S
H2357 C2369 0.959 . S
H2358 C2372 0.929 . S
H2359 C2373 0.931 . S
H2360 C2375 0.930 . S
C2361 H2349 0.930 . S
C2361 C2362 1.399 . S
C2361 C2366 1.399 . S
C2362 C2361 1.399 . S
C2362 C2363 1.376 . S
C2363 H2350 0.930 . S
C2363 C2362 1.376 . S
C2363 C2364 1.388 . S
C2364 H2351 0.930 . S
C2364 C2363 1.388 . S
C2364 C2365 1.390 . S
C2365 C2364 1.390 . S
C2365 C2366 1.394 . S
C2365 C2371 1.465 . S
C2366 C2361 1.399 . S
C2366 C2365 1.394 . S
C2366 C2367 1.516 . S
C2367 C2366 1.516 . S
C2367 C2368 1.502 . S
C2367 C2369 1.561 . S
C2367 C2370 1.526 . S
C2368 H2352 0.959 . S
C2368 H2353 0.959 . S
C2368 H2354 0.961 . S
C2368 C2367 1.502 . S
C2369 H2355 0.960 . S
C2369 H2356 0.961 . S
C2369 H2357 0.959 . S
C2369 C2367 1.561 . S
C2370 C2367 1.526 . S
C2370 C2371 1.396 . S
C2370 C2375 1.390 . S
C2371 C2365 1.465 . S
C2371 C2370 1.396 . S
C2371 C2372 1.399 . S
C2372 H2358 0.929 . S
C2372 C2371 1.399 . S
C2372 C2373 1.385 . S
C2373 H2359 0.931 . S
C2373 C2372 1.385 . S
C2373 C2374 1.389 . S
C2374 C2373 1.389 . S
C2374 C2375 1.387 . S
C2375 H2360 0.930 . S
C2375 C2370 1.390 . S
C2375 C2374 1.387 . S
H2376 C2388 0.930 . S
H2377 C2390 0.930 . S
H2378 C2391 0.930 . S
H2379 C2395 0.959 . S
H2380 C2395 0.959 . S
H2381 C2395 0.961 . S
H2382 C2396 0.960 . S
H2383 C2396 0.961 . S
H2384 C2396 0.959 . S
H2385 C2399 0.929 1_545 S
H2386 C2400 0.931 1_545 S
H2387 C2402 0.930 . S
C2388 H2376 0.930 . S
C2388 C2389 1.399 . S
C2388 C2393 1.399 . S
C2389 C2388 1.399 . S
C2389 C2390 1.376 . S
C2390 H2377 0.930 . S
C2390 C2389 1.376 . S
C2390 C2391 1.388 . S
C2391 H2378 0.930 . S
C2391 C2390 1.388 . S
C2391 C2392 1.390 . S
C2392 C2391 1.390 . S
C2392 C2393 1.394 . S
C2392 C2398 1.465 . S
C2393 C2388 1.399 . S
C2393 C2392 1.394 . S
C2393 C2394 1.516 . S
C2394 C2393 1.516 . S
C2394 C2395 1.502 . S
C2394 C2396 1.561 . S
C2394 C2397 1.526 . S
C2395 H2379 0.959 . S
C2395 H2380 0.959 . S
C2395 H2381 0.961 . S
C2395 C2394 1.502 . S
C2396 H2382 0.960 . S
C2396 H2383 0.961 . S
C2396 H2384 0.959 . S
C2396 C2394 1.561 . S
C2397 C2394 1.526 . S
C2397 C2398 1.396 . S
C2397 C2402 1.390 . S
C2398 C2392 1.465 . S
C2398 C2397 1.396 . S
C2398 C2399 1.399 . S
C2399 H2385 0.929 1_565 S
C2399 C2398 1.399 . S
C2399 C2400 1.385 . S
C2400 H2386 0.931 1_565 S
C2400 C2399 1.385 . S
C2400 C2401 1.389 . S
C2401 C2400 1.389 . S
C2401 C2402 1.387 . S
C2402 H2387 0.930 . S
C2402 C2397 1.390 . S
C2402 C2401 1.387 . S
H2403 C2415 0.930 . S
H2404 C2417 0.930 . S
H2405 C2418 0.930 . S
H2406 C2422 0.959 . S
H2407 C2422 0.959 . S
H2408 C2422 0.961 . S
H2409 C2423 0.960 . S
H2410 C2423 0.961 . S
H2411 C2423 0.959 . S
H2412 C2426 0.929 . S
H2413 C2427 0.931 . S
H2414 C2429 0.930 . S
C2415 H2403 0.930 . S
C2415 C2416 1.399 . S
C2415 C2420 1.399 . S
C2416 C2415 1.399 . S
C2416 C2417 1.376 . S
C2417 H2404 0.930 . S
C2417 C2416 1.376 . S
C2417 C2418 1.388 . S
C2418 H2405 0.930 . S
C2418 C2417 1.388 . S
C2418 C2419 1.390 . S
C2419 C2418 1.390 . S
C2419 C2420 1.394 . S
C2419 C2425 1.465 . S
C2420 C2415 1.399 . S
C2420 C2419 1.394 . S
C2420 C2421 1.516 . S
C2421 C2420 1.516 . S
C2421 C2422 1.502 . S
C2421 C2423 1.561 . S
C2421 C2424 1.526 . S
C2422 H2406 0.959 . S
C2422 H2407 0.959 . S
C2422 H2408 0.961 . S
C2422 C2421 1.502 . S
C2423 H2409 0.960 . S
C2423 H2410 0.961 . S
C2423 H2411 0.959 . S
C2423 C2421 1.561 . S
C2424 C2421 1.526 . S
C2424 C2425 1.396 . S
C2424 C2429 1.390 . S
C2425 C2419 1.465 . S
C2425 C2424 1.396 . S
C2425 C2426 1.399 . S
C2426 H2412 0.929 . S
C2426 C2425 1.399 . S
C2426 C2427 1.385 . S
C2427 H2413 0.931 . S
C2427 C2426 1.385 . S
C2427 C2428 1.389 . S
C2428 C2427 1.389 . S
C2428 C2429 1.387 . S
C2429 H2414 0.930 . S
C2429 C2424 1.390 . S
C2429 C2428 1.387 . S
H2430 C2442 0.930 . S
H2431 C2444 0.930 . S
H2432 C2445 0.930 . S
H2433 C2449 0.959 . S
H2434 C2449 0.959 . S
H2435 C2449 0.961 . S
H2436 C2450 0.960 . S
H2437 C2450 0.961 . S
H2438 C2450 0.959 . S
H2439 C2453 0.929 . S
H2440 C2454 0.931 . S
H2441 C2456 0.930 . S
C2442 H2430 0.930 . S
C2442 C2443 1.399 . S
C2442 C2447 1.399 . S
C2443 C2442 1.399 . S
C2443 C2444 1.376 . S
C2444 H2431 0.930 . S
C2444 C2443 1.376 . S
C2444 C2445 1.388 . S
C2445 H2432 0.930 . S
C2445 C2444 1.388 . S
C2445 C2446 1.390 . S
C2446 C2445 1.390 . S
C2446 C2447 1.394 . S
C2446 C2452 1.465 . S
C2447 C2442 1.399 . S
C2447 C2446 1.394 . S
C2447 C2448 1.516 . S
C2448 C2447 1.516 . S
C2448 C2449 1.502 . S
C2448 C2450 1.561 . S
C2448 C2451 1.526 . S
C2449 H2433 0.959 . S
C2449 H2434 0.959 . S
C2449 H2435 0.961 . S
C2449 C2448 1.502 . S
C2450 H2436 0.960 . S
C2450 H2437 0.961 . S
C2450 H2438 0.959 . S
C2450 C2448 1.561 . S
C2451 C2448 1.526 . S
C2451 C2452 1.396 . S
C2451 C2456 1.390 . S
C2452 C2446 1.465 . S
C2452 C2451 1.396 . S
C2452 C2453 1.399 . S
C2453 H2439 0.929 . S
C2453 C2452 1.399 . S
C2453 C2454 1.385 . S
C2454 H2440 0.931 . S
C2454 C2453 1.385 . S
C2454 C2455 1.389 . S
C2455 C2454 1.389 . S
C2455 C2456 1.387 . S
C2456 H2441 0.930 . S
C2456 C2451 1.390 . S
C2456 C2455 1.387 . S
H2457 C2469 0.930 . S
H2458 C2471 0.930 . S
H2459 C2472 0.930 . S
H2460 C2476 0.959 . S
H2461 C2476 0.959 . S
H2462 C2476 0.961 . S
H2463 C2477 0.960 . S
H2464 C2477 0.961 . S
H2465 C2477 0.959 . S
H2466 C2480 0.929 1_455 S
H2467 C2481 0.931 1_455 S
H2468 C2483 0.930 . S
C2469 H2457 0.930 . S
C2469 C2470 1.399 . S
C2469 C2474 1.399 . S
C2470 C2469 1.399 . S
C2470 C2471 1.376 . S
C2471 H2458 0.930 . S
C2471 C2470 1.376 . S
C2471 C2472 1.388 . S
C2472 H2459 0.930 . S
C2472 C2471 1.388 . S
C2472 C2473 1.390 . S
C2473 C2472 1.390 . S
C2473 C2474 1.394 . S
C2473 C2479 1.465 . S
C2474 C2469 1.399 . S
C2474 C2473 1.394 . S
C2474 C2475 1.516 . S
C2475 C2474 1.516 . S
C2475 C2476 1.502 . S
C2475 C2477 1.561 . S
C2475 C2478 1.526 . S
C2476 H2460 0.959 . S
C2476 H2461 0.959 . S
C2476 H2462 0.961 . S
C2476 C2475 1.502 . S
C2477 H2463 0.960 . S
C2477 H2464 0.961 . S
C2477 H2465 0.959 . S
C2477 C2475 1.561 . S
C2478 C2475 1.526 . S
C2478 C2479 1.396 . S
C2478 C2483 1.390 . S
C2479 C2473 1.465 . S
C2479 C2478 1.396 . S
C2479 C2480 1.399 . S
C2480 H2466 0.929 1_655 S
C2480 C2479 1.399 . S
C2480 C2481 1.385 . S
C2481 H2467 0.931 1_655 S
C2481 C2480 1.385 . S
C2481 C2482 1.389 . S
C2482 C2481 1.389 . S
C2482 C2483 1.387 . S
C2483 H2468 0.930 . S
C2483 C2478 1.390 . S
C2483 C2482 1.387 . S
H2484 C2496 0.930 . S
H2485 C2498 0.930 . S
H2486 C2499 0.930 . S
H2487 C2503 0.959 . S
H2488 C2503 0.959 . S
H2489 C2503 0.961 . S
H2490 C2504 0.960 . S
H2491 C2504 0.961 . S
H2492 C2504 0.959 . S
H2493 C2507 0.929 . S
H2494 C2508 0.931 . S
H2495 C2510 0.930 . S
C2496 H2484 0.930 . S
C2496 C2497 1.399 . S
C2496 C2501 1.399 . S
C2497 C2496 1.399 . S
C2497 C2498 1.376 . S
C2498 H2485 0.930 . S
C2498 C2497 1.376 . S
C2498 C2499 1.388 . S
C2499 H2486 0.930 . S
C2499 C2498 1.388 . S
C2499 C2500 1.390 . S
C2500 C2499 1.390 . S
C2500 C2501 1.394 . S
C2500 C2506 1.465 . S
C2501 C2496 1.399 . S
C2501 C2500 1.394 . S
C2501 C2502 1.516 . S
C2502 C2501 1.516 . S
C2502 C2503 1.502 . S
C2502 C2504 1.561 . S
C2502 C2505 1.526 . S
C2503 H2487 0.959 . S
C2503 H2488 0.959 . S
C2503 H2489 0.961 . S
C2503 C2502 1.502 . S
C2504 H2490 0.960 . S
C2504 H2491 0.961 . S
C2504 H2492 0.959 . S
C2504 C2502 1.561 . S
C2505 C2502 1.526 . S
C2505 C2506 1.396 . S
C2505 C2510 1.390 . S
C2506 C2500 1.465 . S
C2506 C2505 1.396 . S
C2506 C2507 1.399 . S
C2507 H2493 0.929 . S
C2507 C2506 1.399 . S
C2507 C2508 1.385 . S
C2508 H2494 0.931 . S
C2508 C2507 1.385 . S
C2508 C2509 1.389 . S
C2509 C2508 1.389 . S
C2509 C2510 1.387 . S
C2510 H2495 0.930 . S
C2510 C2505 1.390 . S
C2510 C2509 1.387 . S
H2511 C2523 0.930 . S
H2512 C2525 0.930 . S
H2513 C2526 0.930 . S
H2514 C2530 0.959 . S
H2515 C2530 0.959 1_565 S
H2516 C2530 0.961 . S
H2517 C2531 0.960 . S
H2518 C2531 0.961 . S
H2519 C2531 0.959 1_545 S
H2520 C2534 0.929 . S
H2521 C2535 0.931 . S
H2522 C2537 0.930 . S
C2523 H2511 0.930 . S
C2523 C2524 1.399 . S
C2523 C2528 1.399 . S
C2524 C2523 1.399 . S
C2524 C2525 1.376 . S
C2525 H2512 0.930 . S
C2525 C2524 1.376 . S
C2525 C2526 1.388 . S
C2526 H2513 0.930 . S
C2526 C2525 1.388 . S
C2526 C2527 1.390 . S
C2527 C2526 1.390 . S
C2527 C2528 1.394 . S
C2527 C2533 1.465 . S
C2528 C2523 1.399 . S
C2528 C2527 1.394 . S
C2528 C2529 1.516 . S
C2529 C2528 1.516 . S
C2529 C2530 1.502 . S
C2529 C2531 1.561 1_545 S
C2529 C2532 1.526 . S
C2530 H2514 0.959 . S
C2530 H2515 0.959 1_545 S
C2530 H2516 0.961 . S
C2530 C2529 1.502 . S
C2531 H2517 0.960 . S
C2531 H2518 0.961 . S
C2531 H2519 0.959 1_565 S
C2531 C2529 1.561 1_565 S
C2532 C2529 1.526 . S
C2532 C2533 1.396 . S
C2532 C2537 1.390 . S
C2533 C2527 1.465 . S
C2533 C2532 1.396 . S
C2533 C2534 1.399 . S
C2534 H2520 0.929 . S
C2534 C2533 1.399 . S
C2534 C2535 1.385 . S
C2535 H2521 0.931 . S
C2535 C2534 1.385 . S
C2535 C2536 1.389 . S
C2536 C2535 1.389 . S
C2536 C2537 1.387 . S
C2537 H2522 0.930 . S
C2537 C2532 1.390 . S
C2537 C2536 1.387 . S
H2538 C2550 0.930 . S
H2539 C2552 0.930 . S
H2540 C2553 0.930 . S
H2541 C2557 0.959 . S
H2542 C2557 0.959 . S
H2543 C2557 0.961 . S
H2544 C2558 0.960 . S
H2545 C2558 0.961 . S
H2546 C2558 0.959 . S
H2547 C2561 0.929 . S
H2548 C2562 0.931 . S
H2549 C2564 0.930 . S
C2550 H2538 0.930 . S
C2550 C2551 1.399 . S
C2550 C2555 1.399 . S
C2551 C2550 1.399 . S
C2551 C2552 1.376 . S
C2552 H2539 0.930 . S
C2552 C2551 1.376 . S
C2552 C2553 1.388 . S
C2553 H2540 0.930 . S
C2553 C2552 1.388 . S
C2553 C2554 1.390 . S
C2554 C2553 1.390 . S
C2554 C2555 1.394 . S
C2554 C2560 1.465 . S
C2555 C2550 1.399 . S
C2555 C2554 1.394 . S
C2555 C2556 1.516 . S
C2556 C2555 1.516 . S
C2556 C2557 1.502 . S
C2556 C2558 1.561 . S
C2556 C2559 1.526 . S
C2557 H2541 0.959 . S
C2557 H2542 0.959 . S
C2557 H2543 0.961 . S
C2557 C2556 1.502 . S
C2558 H2544 0.960 . S
C2558 H2545 0.961 . S
C2558 H2546 0.959 . S
C2558 C2556 1.561 . S
C2559 C2556 1.526 . S
C2559 C2560 1.396 . S
C2559 C2564 1.390 . S
C2560 C2554 1.465 . S
C2560 C2559 1.396 . S
C2560 C2561 1.399 . S
C2561 H2547 0.929 . S
C2561 C2560 1.399 . S
C2561 C2562 1.385 . S
C2562 H2548 0.931 . S
C2562 C2561 1.385 . S
C2562 C2563 1.389 . S
C2563 C2562 1.389 . S
C2563 C2564 1.387 . S
C2564 H2549 0.930 . S
C2564 C2559 1.390 . S
C2564 C2563 1.387 . S
H2565 C2577 0.930 . S
H2566 C2579 0.930 . S
H2567 C2580 0.930 . S
H2568 C2584 0.959 . S
H2569 C2584 0.959 . S
H2570 C2584 0.961 . S
H2571 C2585 0.960 . S
H2572 C2585 0.961 . S
H2573 C2585 0.959 . S
H2574 C2588 0.929 . S
H2575 C2589 0.931 . S
H2576 C2591 0.930 . S
C2577 H2565 0.930 . S
C2577 C2578 1.399 . S
C2577 C2582 1.399 . S
C2578 C2577 1.399 . S
C2578 C2579 1.376 . S
C2579 H2566 0.930 . S
C2579 C2578 1.376 . S
C2579 C2580 1.388 . S
C2580 H2567 0.930 . S
C2580 C2579 1.388 . S
C2580 C2581 1.390 . S
C2581 C2580 1.390 . S
C2581 C2582 1.394 . S
C2581 C2587 1.465 . S
C2582 C2577 1.399 . S
C2582 C2581 1.394 . S
C2582 C2583 1.516 . S
C2583 C2582 1.516 . S
C2583 C2584 1.502 . S
C2583 C2585 1.561 . S
C2583 C2586 1.526 . S
C2584 H2568 0.959 . S
C2584 H2569 0.959 . S
C2584 H2570 0.961 . S
C2584 C2583 1.502 . S
C2585 H2571 0.960 . S
C2585 H2572 0.961 . S
C2585 H2573 0.959 . S
C2585 C2583 1.561 . S
C2586 C2583 1.526 . S
C2586 C2587 1.396 . S
C2586 C2591 1.390 . S
C2587 C2581 1.465 . S
C2587 C2586 1.396 . S
C2587 C2588 1.399 . S
C2588 H2574 0.929 . S
C2588 C2587 1.399 . S
C2588 C2589 1.385 . S
C2589 H2575 0.931 . S
C2589 C2588 1.385 . S
C2589 C2590 1.389 . S
C2590 C2589 1.389 . S
C2590 C2591 1.387 . S
C2591 H2576 0.930 . S
C2591 C2586 1.390 . S
C2591 C2590 1.387 . S
H2592 C2604 0.930 . S
H2593 C2606 0.930 . S
H2594 C2607 0.930 . S
H2595 C2611 0.959 . S
H2596 C2611 0.959 . S
H2597 C2611 0.961 . S
H2598 C2612 0.960 . S
H2599 C2612 0.961 . S
H2600 C2612 0.959 . S
H2601 C2615 0.929 . S
H2602 C2616 0.931 . S
H2603 C2618 0.930 . S
C2604 H2592 0.930 . S
C2604 C2605 1.399 . S
C2604 C2609 1.399 . S
C2605 C2604 1.399 . S
C2605 C2606 1.376 . S
C2606 H2593 0.930 . S
C2606 C2605 1.376 . S
C2606 C2607 1.388 . S
C2607 H2594 0.930 . S
C2607 C2606 1.388 . S
C2607 C2608 1.390 . S
C2608 C2607 1.390 . S
C2608 C2609 1.394 . S
C2608 C2614 1.465 . S
C2609 C2604 1.399 . S
C2609 C2608 1.394 . S
C2609 C2610 1.516 . S
C2610 C2609 1.516 . S
C2610 C2611 1.502 . S
C2610 C2612 1.561 . S
C2610 C2613 1.526 . S
C2611 H2595 0.959 . S
C2611 H2596 0.959 . S
C2611 H2597 0.961 . S
C2611 C2610 1.502 . S
C2612 H2598 0.960 . S
C2612 H2599 0.961 . S
C2612 H2600 0.959 . S
C2612 C2610 1.561 . S
C2613 C2610 1.526 . S
C2613 C2614 1.396 . S
C2613 C2618 1.390 . S
C2614 C2608 1.465 . S
C2614 C2613 1.396 . S
C2614 C2615 1.399 . S
C2615 H2601 0.929 . S
C2615 C2614 1.399 . S
C2615 C2616 1.385 . S
C2616 H2602 0.931 . S
C2616 C2615 1.385 . S
C2616 C2617 1.389 . S
C2617 C2616 1.389 . S
C2617 C2618 1.387 . S
C2618 H2603 0.930 . S
C2618 C2613 1.390 . S
C2618 C2617 1.387 . S
H2619 C2631 0.930 . S
H2620 C2633 0.930 . S
H2621 C2634 0.930 . S
H2622 C2638 0.959 . S
H2623 C2638 0.959 . S
H2624 C2638 0.961 . S
H2625 C2639 0.960 . S
H2626 C2639 0.961 . S
H2627 C2639 0.959 . S
H2628 C2642 0.929 . S
H2629 C2643 0.931 . S
H2630 C2645 0.930 . S
C2631 H2619 0.930 . S
C2631 C2632 1.399 . S
C2631 C2636 1.399 . S
C2632 C2631 1.399 . S
C2632 C2633 1.376 . S
C2633 H2620 0.930 . S
C2633 C2632 1.376 . S
C2633 C2634 1.388 . S
C2634 H2621 0.930 . S
C2634 C2633 1.388 . S
C2634 C2635 1.390 . S
C2635 C2634 1.390 . S
C2635 C2636 1.394 . S
C2635 C2641 1.465 . S
C2636 C2631 1.399 . S
C2636 C2635 1.394 . S
C2636 C2637 1.516 . S
C2637 C2636 1.516 . S
C2637 C2638 1.502 . S
C2637 C2639 1.561 . S
C2637 C2640 1.526 . S
C2638 H2622 0.959 . S
C2638 H2623 0.959 . S
C2638 H2624 0.961 . S
C2638 C2637 1.502 . S
C2639 H2625 0.960 . S
C2639 H2626 0.961 . S
C2639 H2627 0.959 . S
C2639 C2637 1.561 . S
C2640 C2637 1.526 . S
C2640 C2641 1.396 . S
C2640 C2645 1.390 . S
C2641 C2635 1.465 . S
C2641 C2640 1.396 . S
C2641 C2642 1.399 . S
C2642 H2628 0.929 . S
C2642 C2641 1.399 . S
C2642 C2643 1.385 . S
C2643 H2629 0.931 . S
C2643 C2642 1.385 . S
C2643 C2644 1.389 . S
C2644 C2643 1.389 . S
C2644 C2645 1.387 . S
C2645 H2630 0.930 . S
C2645 C2640 1.390 . S
C2645 C2644 1.387 . S
H2646 C2658 0.930 . S
H2647 C2660 0.930 . S
H2648 C2661 0.930 . S
H2649 C2665 0.959 . S
H2650 C2665 0.959 . S
H2651 C2665 0.961 . S
H2652 C2666 0.960 . S
H2653 C2666 0.961 . S
H2654 C2666 0.959 . S
H2655 C2669 0.929 . S
H2656 C2670 0.931 . S
H2657 C2672 0.930 . S
C2658 H2646 0.930 . S
C2658 C2659 1.399 . S
C2658 C2663 1.399 . S
C2659 C2658 1.399 . S
C2659 C2660 1.376 . S
C2660 H2647 0.930 . S
C2660 C2659 1.376 . S
C2660 C2661 1.388 . S
C2661 H2648 0.930 . S
C2661 C2660 1.388 . S
C2661 C2662 1.390 . S
C2662 C2661 1.390 . S
C2662 C2663 1.394 . S
C2662 C2668 1.465 . S
C2663 C2658 1.399 . S
C2663 C2662 1.394 . S
C2663 C2664 1.516 . S
C2664 C2663 1.516 . S
C2664 C2665 1.502 . S
C2664 C2666 1.561 . S
C2664 C2667 1.526 . S
C2665 H2649 0.959 . S
C2665 H2650 0.959 . S
C2665 H2651 0.961 . S
C2665 C2664 1.502 . S
C2666 H2652 0.960 . S
C2666 H2653 0.961 . S
C2666 H2654 0.959 . S
C2666 C2664 1.561 . S
C2667 C2664 1.526 . S
C2667 C2668 1.396 . S
C2667 C2672 1.390 . S
C2668 C2662 1.465 . S
C2668 C2667 1.396 . S
C2668 C2669 1.399 . S
C2669 H2655 0.929 . S
C2669 C2668 1.399 . S
C2669 C2670 1.385 . S
C2670 H2656 0.931 . S
C2670 C2669 1.385 . S
C2670 C2671 1.389 . S
C2671 C2670 1.389 . S
C2671 C2672 1.387 . S
C2672 H2657 0.930 . S
C2672 C2667 1.390 . S
C2672 C2671 1.387 . S
H2673 C2685 0.930 . S
H2674 C2687 0.930 . S
H2675 C2688 0.930 . S
H2676 C2692 0.959 . S
H2677 C2692 0.959 . S
H2678 C2692 0.961 . S
H2679 C2693 0.960 . S
H2680 C2693 0.961 . S
H2681 C2693 0.959 . S
H2682 C2696 0.929 . S
H2683 C2697 0.931 . S
H2684 C2699 0.930 . S
C2685 H2673 0.930 . S
C2685 C2686 1.399 . S
C2685 C2690 1.399 . S
C2686 C2685 1.399 . S
C2686 C2687 1.376 . S
C2687 H2674 0.930 . S
C2687 C2686 1.376 . S
C2687 C2688 1.388 . S
C2688 H2675 0.930 . S
C2688 C2687 1.388 . S
C2688 C2689 1.390 . S
C2689 C2688 1.390 . S
C2689 C2690 1.394 . S
C2689 C2695 1.465 . S
C2690 C2685 1.399 . S
C2690 C2689 1.394 . S
C2690 C2691 1.516 . S
C2691 C2690 1.516 . S
C2691 C2692 1.502 . S
C2691 C2693 1.561 . S
C2691 C2694 1.526 . S
C2692 H2676 0.959 . S
C2692 H2677 0.959 . S
C2692 H2678 0.961 . S
C2692 C2691 1.502 . S
C2693 H2679 0.960 . S
C2693 H2680 0.961 . S
C2693 H2681 0.959 . S
C2693 C2691 1.561 . S
C2694 C2691 1.526 . S
C2694 C2695 1.396 . S
C2694 C2699 1.390 . S
C2695 C2689 1.465 . S
C2695 C2694 1.396 . S
C2695 C2696 1.399 . S
C2696 H2682 0.929 . S
C2696 C2695 1.399 . S
C2696 C2697 1.385 . S
C2697 H2683 0.931 . S
C2697 C2696 1.385 . S
C2697 C2698 1.389 . S
C2698 C2697 1.389 . S
C2698 C2699 1.387 . S
C2699 H2684 0.930 . S
C2699 C2694 1.390 . S
C2699 C2698 1.387 . S
H2700 C2712 0.930 . S
H2701 C2714 0.930 . S
H2702 C2715 0.930 . S
H2703 C2719 0.959 . S
H2704 C2719 0.959 . S
H2705 C2719 0.961 . S
H2706 C2720 0.960 . S
H2707 C2720 0.961 . S
H2708 C2720 0.959 . S
H2709 C2723 0.929 . S
H2710 C2724 0.931 . S
H2711 C2726 0.930 . S
C2712 H2700 0.930 . S
C2712 C2713 1.399 . S
C2712 C2717 1.399 . S
C2713 C2712 1.399 . S
C2713 C2714 1.376 . S
C2714 H2701 0.930 . S
C2714 C2713 1.376 . S
C2714 C2715 1.388 . S
C2715 H2702 0.930 . S
C2715 C2714 1.388 . S
C2715 C2716 1.390 . S
C2716 C2715 1.390 . S
C2716 C2717 1.394 . S
C2716 C2722 1.465 . S
C2717 C2712 1.399 . S
C2717 C2716 1.394 . S
C2717 C2718 1.516 . S
C2718 C2717 1.516 . S
C2718 C2719 1.502 . S
C2718 C2720 1.561 . S
C2718 C2721 1.526 . S
C2719 H2703 0.959 . S
C2719 H2704 0.959 . S
C2719 H2705 0.961 . S
C2719 C2718 1.502 . S
C2720 H2706 0.960 . S
C2720 H2707 0.961 . S
C2720 H2708 0.959 . S
C2720 C2718 1.561 . S
C2721 C2718 1.526 . S
C2721 C2722 1.396 . S
C2721 C2726 1.390 . S
C2722 C2716 1.465 . S
C2722 C2721 1.396 . S
C2722 C2723 1.399 . S
C2723 H2709 0.929 . S
C2723 C2722 1.399 . S
C2723 C2724 1.385 . S
C2724 H2710 0.931 . S
C2724 C2723 1.385 . S
C2724 C2725 1.389 . S
C2725 C2724 1.389 . S
C2725 C2726 1.387 . S
C2726 H2711 0.930 . S
C2726 C2721 1.390 . S
C2726 C2725 1.387 . S
H2727 C2739 0.930 . S
H2728 C2741 0.930 . S
H2729 C2742 0.930 . S
H2730 C2746 0.959 . S
H2731 C2746 0.959 . S
H2732 C2746 0.961 . S
H2733 C2747 0.960 . S
H2734 C2747 0.961 . S
H2735 C2747 0.959 . S
H2736 C2750 0.929 . S
H2737 C2751 0.931 . S
H2738 C2753 0.930 . S
C2739 H2727 0.930 . S
C2739 C2740 1.399 . S
C2739 C2744 1.399 . S
C2740 C2739 1.399 . S
C2740 C2741 1.376 . S
C2741 H2728 0.930 . S
C2741 C2740 1.376 . S
C2741 C2742 1.388 . S
C2742 H2729 0.930 . S
C2742 C2741 1.388 . S
C2742 C2743 1.390 . S
C2743 C2742 1.390 . S
C2743 C2744 1.394 . S
C2743 C2749 1.465 . S
C2744 C2739 1.399 . S
C2744 C2743 1.394 . S
C2744 C2745 1.516 . S
C2745 C2744 1.516 . S
C2745 C2746 1.502 . S
C2745 C2747 1.561 . S
C2745 C2748 1.526 . S
C2746 H2730 0.959 . S
C2746 H2731 0.959 . S
C2746 H2732 0.961 . S
C2746 C2745 1.502 . S
C2747 H2733 0.960 . S
C2747 H2734 0.961 . S
C2747 H2735 0.959 . S
C2747 C2745 1.561 . S
C2748 C2745 1.526 . S
C2748 C2749 1.396 . S
C2748 C2753 1.390 . S
C2749 C2743 1.465 . S
C2749 C2748 1.396 . S
C2749 C2750 1.399 . S
C2750 H2736 0.929 . S
C2750 C2749 1.399 . S
C2750 C2751 1.385 . S
C2751 H2737 0.931 . S
C2751 C2750 1.385 . S
C2751 C2752 1.389 . S
C2752 C2751 1.389 . S
C2752 C2753 1.387 . S
C2753 H2738 0.930 . S
C2753 C2748 1.390 . S
C2753 C2752 1.387 . S
H2754 C2766 0.930 . S
H2755 C2768 0.930 . S
H2756 C2769 0.930 . S
H2757 C2773 0.959 . S
H2758 C2773 0.959 . S
H2759 C2773 0.961 . S
H2760 C2774 0.960 . S
H2761 C2774 0.961 . S
H2762 C2774 0.959 . S
H2763 C2777 0.929 . S
H2764 C2778 0.931 . S
H2765 C2780 0.930 . S
C2766 H2754 0.930 . S
C2766 C2767 1.399 . S
C2766 C2771 1.399 . S
C2767 C2766 1.399 . S
C2767 C2768 1.376 . S
C2768 H2755 0.930 . S
C2768 C2767 1.376 . S
C2768 C2769 1.388 . S
C2769 H2756 0.930 . S
C2769 C2768 1.388 . S
C2769 C2770 1.390 . S
C2770 C2769 1.390 . S
C2770 C2771 1.394 . S
C2770 C2776 1.465 . S
C2771 C2766 1.399 . S
C2771 C2770 1.394 . S
C2771 C2772 1.516 . S
C2772 C2771 1.516 . S
C2772 C2773 1.502 . S
C2772 C2774 1.561 . S
C2772 C2775 1.526 . S
C2773 H2757 0.959 . S
C2773 H2758 0.959 . S
C2773 H2759 0.961 . S
C2773 C2772 1.502 . S
C2774 H2760 0.960 . S
C2774 H2761 0.961 . S
C2774 H2762 0.959 . S
C2774 C2772 1.561 . S
C2775 C2772 1.526 . S
C2775 C2776 1.396 . S
C2775 C2780 1.390 . S
C2776 C2770 1.465 . S
C2776 C2775 1.396 . S
C2776 C2777 1.399 . S
C2777 H2763 0.929 . S
C2777 C2776 1.399 . S
C2777 C2778 1.385 . S
C2778 H2764 0.931 . S
C2778 C2777 1.385 . S
C2778 C2779 1.389 . S
C2779 C2778 1.389 . S
C2779 C2780 1.387 . S
C2780 H2765 0.930 . S
C2780 C2775 1.390 . S
C2780 C2779 1.387 . S
H2781 C2793 0.930 . S
H2782 C2795 0.930 . S
H2783 C2796 0.930 . S
H2784 C2800 0.959 . S
H2785 C2800 0.959 . S
H2786 C2800 0.961 . S
H2787 C2801 0.960 . S
H2788 C2801 0.961 . S
H2789 C2801 0.959 . S
H2790 C2804 0.929 . S
H2791 C2805 0.931 . S
H2792 C2807 0.930 . S
C2793 H2781 0.930 . S
C2793 C2794 1.399 . S
C2793 C2798 1.399 . S
C2794 C2793 1.399 . S
C2794 C2795 1.376 . S
C2795 H2782 0.930 . S
C2795 C2794 1.376 . S
C2795 C2796 1.388 . S
C2796 H2783 0.930 . S
C2796 C2795 1.388 . S
C2796 C2797 1.390 . S
C2797 C2796 1.390 . S
C2797 C2798 1.394 . S
C2797 C2803 1.465 . S
C2798 C2793 1.399 . S
C2798 C2797 1.394 . S
C2798 C2799 1.516 . S
C2799 C2798 1.516 . S
C2799 C2800 1.502 . S
C2799 C2801 1.561 . S
C2799 C2802 1.526 . S
C2800 H2784 0.959 . S
C2800 H2785 0.959 . S
C2800 H2786 0.961 . S
C2800 C2799 1.502 . S
C2801 H2787 0.960 . S
C2801 H2788 0.961 . S
C2801 H2789 0.959 . S
C2801 C2799 1.561 . S
C2802 C2799 1.526 . S
C2802 C2803 1.396 . S
C2802 C2807 1.390 . S
C2803 C2797 1.465 . S
C2803 C2802 1.396 . S
C2803 C2804 1.399 . S
C2804 H2790 0.929 . S
C2804 C2803 1.399 . S
C2804 C2805 1.385 . S
C2805 H2791 0.931 . S
C2805 C2804 1.385 . S
C2805 C2806 1.389 . S
C2806 C2805 1.389 . S
C2806 C2807 1.387 . S
C2807 H2792 0.930 . S
C2807 C2802 1.390 . S
C2807 C2806 1.387 . S
H2808 C2820 0.930 . S
H2809 C2822 0.930 . S
H2810 C2823 0.930 . S
H2811 C2827 0.959 . S
H2812 C2827 0.959 . S
H2813 C2827 0.961 . S
H2814 C2828 0.960 . S
H2815 C2828 0.961 . S
H2816 C2828 0.959 . S
H2817 C2831 0.929 . S
H2818 C2832 0.931 . S
H2819 C2834 0.930 . S
C2820 H2808 0.930 . S
C2820 C2821 1.399 . S
C2820 C2825 1.399 . S
C2821 C2820 1.399 . S
C2821 C2822 1.376 . S
C2822 H2809 0.930 . S
C2822 C2821 1.376 . S
C2822 C2823 1.388 . S
C2823 H2810 0.930 . S
C2823 C2822 1.388 . S
C2823 C2824 1.390 . S
C2824 C2823 1.390 . S
C2824 C2825 1.394 . S
C2824 C2830 1.465 . S
C2825 C2820 1.399 . S
C2825 C2824 1.394 . S
C2825 C2826 1.516 . S
C2826 C2825 1.516 . S
C2826 C2827 1.502 . S
C2826 C2828 1.561 . S
C2826 C2829 1.526 . S
C2827 H2811 0.959 . S
C2827 H2812 0.959 . S
C2827 H2813 0.961 . S
C2827 C2826 1.502 . S
C2828 H2814 0.960 . S
C2828 H2815 0.961 . S
C2828 H2816 0.959 . S
C2828 C2826 1.561 . S
C2829 C2826 1.526 . S
C2829 C2830 1.396 . S
C2829 C2834 1.390 . S
C2830 C2824 1.465 . S
C2830 C2829 1.396 . S
C2830 C2831 1.399 . S
C2831 H2817 0.929 . S
C2831 C2830 1.399 . S
C2831 C2832 1.385 . S
C2832 H2818 0.931 . S
C2832 C2831 1.385 . S
C2832 C2833 1.389 . S
C2833 C2832 1.389 . S
C2833 C2834 1.387 . S
C2834 H2819 0.930 . S
C2834 C2829 1.390 . S
C2834 C2833 1.387 . S
H2835 C2847 0.930 . S
H2836 C2849 0.930 . S
H2837 C2850 0.930 . S
H2838 C2854 0.959 . S
H2839 C2854 0.959 . S
H2840 C2854 0.961 . S
H2841 C2855 0.960 . S
H2842 C2855 0.961 . S
H2843 C2855 0.959 . S
H2844 C2858 0.929 . S
H2845 C2859 0.931 . S
H2846 C2861 0.930 . S
C2847 H2835 0.930 . S
C2847 C2848 1.399 . S
C2847 C2852 1.399 . S
C2848 C2847 1.399 . S
C2848 C2849 1.376 . S
C2849 H2836 0.930 . S
C2849 C2848 1.376 . S
C2849 C2850 1.388 . S
C2850 H2837 0.930 . S
C2850 C2849 1.388 . S
C2850 C2851 1.390 . S
C2851 C2850 1.390 . S
C2851 C2852 1.394 . S
C2851 C2857 1.465 . S
C2852 C2847 1.399 . S
C2852 C2851 1.394 . S
C2852 C2853 1.516 . S
C2853 C2852 1.516 . S
C2853 C2854 1.502 . S
C2853 C2855 1.561 . S
C2853 C2856 1.526 . S
C2854 H2838 0.959 . S
C2854 H2839 0.959 . S
C2854 H2840 0.961 . S
C2854 C2853 1.502 . S
C2855 H2841 0.960 . S
C2855 H2842 0.961 . S
C2855 H2843 0.959 . S
C2855 C2853 1.561 . S
C2856 C2853 1.526 . S
C2856 C2857 1.396 . S
C2856 C2861 1.390 . S
C2857 C2851 1.465 . S
C2857 C2856 1.396 . S
C2857 C2858 1.399 . S
C2858 H2844 0.929 . S
C2858 C2857 1.399 . S
C2858 C2859 1.385 . S
C2859 H2845 0.931 . S
C2859 C2858 1.385 . S
C2859 C2860 1.389 . S
C2860 C2859 1.389 . S
C2860 C2861 1.387 . S
C2861 H2846 0.930 . S
C2861 C2856 1.390 . S
C2861 C2860 1.387 . S
C1417 C469 1.434 . S
C1429 C715 1.409 . S
C1444 C505 1.460 . S
C1456 C799 1.435 . S
C1471 C433 1.480 . S
C1483 C879 1.424 . S
C1498 C397 1.429 . S
C1510 C795 1.409 . S
C1537 C883 1.288 . S
C1525 C325 1.402 . S
C1552 C361 1.421 . S
C1564 C711 1.361 . S
C1591 C704 1.314 . S
C1579 C421 1.433 . S
C1618 C788 1.348 . S
C1606 C349 1.452 . S
C1633 C385 1.473 . S
C1645 C890 1.392 . S
C1660 C493 1.419 . S
C1672 C806 1.408 . S
C1687 C529 1.406 . S
C1699 C872 1.373 . S
C1726 C722 1.367 . S
C1714 C457 1.427 . S
C1753 C967 1.409 . S
C1741 C37 1.434 . S
C1768 C73 1.460 . S
C1780 C1051 1.428 . S
C1795 C1 1.477 . S
C1807 C1131 1.416 . S
C1822 C613 1.428 . S
C1834 C1047 1.385 . S
C1849 C541 1.399 . S
C1861 C1135 1.325 . S
C1876 C577 1.408 . S
C1888 C963 1.385 . S
C1903 C637 1.434 . S
C1915 C956 1.341 . S
C1930 C565 1.455 . S
C1942 C1040 1.364 . S
C1969 C1142 1.462 . S
C1957 C601 1.466 . S
C1984 C61 1.422 . S
C1996 C1058 1.357 . S
C2023 C1124 1.293 . S
C2011 C97 1.393 . S
C2038 C25 1.404 . S
C2050 C974 1.397 . S
C2077 C1219 1.311 . S
C2065 C253 1.447 . S
C2092 C289 1.464 . S
C2104 C1303 1.365 . S
C2131 C1383 1.424 . S
C2119 C217 1.475 . S
C2158 C1299 1.423 . S
C2146 C181 1.425 . S
C2185 C1387 1.343 . S
C2173 C109 1.397 . S
C2200 C145 1.424 . S
C2212 C1215 1.326 . S
C2227 C205 1.431 . S
C2239 C1208 1.312 . S
C2254 C133 1.465 . S
C2266 C1292 1.408 . S
C2293 C1394 1.398 . S
C2281 C169 1.470 . S
C2308 C277 1.423 . S
C2320 C1310 1.420 . S
C2335 C313 1.401 . S
C2347 C1376 1.337 . S
C2362 C241 1.403 . S
C2374 C1226 1.384 . S
C2389 C571 1.428 . S
C2401 C718 1.270 . S
C2428 C802 1.318 . S
C2416 C607 1.499 . S
C2443 C643 1.474 . S
C2455 C874 1.396 . S
C2470 C247 1.501 . S
C2482 C790 1.297 . S
C2497 C283 1.467 . S
C2509 C886 1.307 . S
C2536 C706 1.364 . S
C2524 C319 1.451 . S
C2551 C139 1.450 . S
C2563 C970 1.383 . S
C2578 C175 1.501 . S
C2590 C1054 1.332 . S
C2605 C211 1.475 . S
C2617 C1126 1.397 . S
C2632 C463 1.507 . S
C2644 C1042 1.417 . S
C2671 C1138 1.339 . S
C2659 C499 1.471 . S
C2686 C535 1.452 . S
C2698 C958 1.373 . S
C2713 C355 1.451 . S
C2725 C1222 1.387 . S
C2740 C391 1.500 . S
C2752 C1306 1.323 . S
C2779 C1378 1.279 . S
C2767 C427 1.459 . S
C2794 C31 1.500 . S
C2806 C1294 1.293 . S
C2821 C67 1.468 . S
C2833 C1390 1.359 . S
C2848 C103 1.445 . S
C2860 C1210 1.337 . S
