# Generated by pormake.
# Topology ssc, (4,4)-cn, num edge types: 1
# Building blocks:
#     Node 0, Type 0, BuildingBlock: GALJAG_clean_sbu_0, # of connection points: 4
#     Node 1, Type 0, BuildingBlock: GALJAG_clean_sbu_0, # of connection points: 4
#     Node 2, Type 0, BuildingBlock: GALJAG_clean_sbu_0, # of connection points: 4
#     Node 3, Type 0, BuildingBlock: GALJAG_clean_sbu_0, # of connection points: 4
#     Node 4, Type 0, BuildingBlock: GALJAG_clean_sbu_0, # of connection points: 4
#     Node 5, Type 0, BuildingBlock: GALJAG_clean_sbu_0, # of connection points: 4
#     Node 6, Type 0, BuildingBlock: GALJAG_clean_sbu_0, # of connection points: 4
#     Node 7, Type 0, BuildingBlock: GALJAG_clean_sbu_0, # of connection points: 4
#     Node 8, Type 0, BuildingBlock: GALJAG_clean_sbu_0, # of connection points: 4
#     Node 9, Type 0, BuildingBlock: GALJAG_clean_sbu_0, # of connection points: 4
#     Node 10, Type 0, BuildingBlock: GALJAG_clean_sbu_0, # of connection points: 4
#     Node 11, Type 0, BuildingBlock: GALJAG_clean_sbu_0, # of connection points: 4
#     Node 12, Type 1, BuildingBlock: KUFVIS_clean_linker_0, # of connection points: 4
#     Node 13, Type 1, BuildingBlock: KUFVIS_clean_linker_0, # of connection points: 4
#     Node 14, Type 1, BuildingBlock: KUFVIS_clean_linker_0, # of connection points: 4
#     Node 15, Type 1, BuildingBlock: KUFVIS_clean_linker_0, # of connection points: 4
#     Node 16, Type 1, BuildingBlock: KUFVIS_clean_linker_0, # of connection points: 4
#     Node 17, Type 1, BuildingBlock: KUFVIS_clean_linker_0, # of connection points: 4
#     Node 18, Type 1, BuildingBlock: KUFVIS_clean_linker_0, # of connection points: 4
#     Node 19, Type 1, BuildingBlock: KUFVIS_clean_linker_0, # of connection points: 4
#     Node 20, Type 1, BuildingBlock: KUFVIS_clean_linker_0, # of connection points: 4
#     Node 21, Type 1, BuildingBlock: KUFVIS_clean_linker_0, # of connection points: 4
#     Node 22, Type 1, BuildingBlock: KUFVIS_clean_linker_0, # of connection points: 4
#     Node 23, Type 1, BuildingBlock: KUFVIS_clean_linker_0, # of connection points: 4
#     Edge 24, Type (0, 1), BuildingBlock: KIFKEQ_clean_linker_1, # of connection points: 2
#     Edge 25, Type (0, 1), BuildingBlock: KIFKEQ_clean_linker_1, # of connection points: 2
#     Edge 26, Type (0, 1), BuildingBlock: KIFKEQ_clean_linker_1, # of connection points: 2
#     Edge 27, Type (0, 1), BuildingBlock: KIFKEQ_clean_linker_1, # of connection points: 2
#     Edge 28, Type (0, 1), BuildingBlock: KIFKEQ_clean_linker_1, # of connection points: 2
#     Edge 29, Type (0, 1), BuildingBlock: KIFKEQ_clean_linker_1, # of connection points: 2
#     Edge 30, Type (0, 1), BuildingBlock: KIFKEQ_clean_linker_1, # of connection points: 2
#     Edge 31, Type (0, 1), BuildingBlock: KIFKEQ_clean_linker_1, # of connection points: 2
#     Edge 32, Type (0, 1), BuildingBlock: KIFKEQ_clean_linker_1, # of connection points: 2
#     Edge 33, Type (0, 1), BuildingBlock: KIFKEQ_clean_linker_1, # of connection points: 2
#     Edge 34, Type (0, 1), BuildingBlock: KIFKEQ_clean_linker_1, # of connection points: 2
#     Edge 35, Type (0, 1), BuildingBlock: KIFKEQ_clean_linker_1, # of connection points: 2
#     Edge 36, Type (0, 1), BuildingBlock: KIFKEQ_clean_linker_1, # of connection points: 2
#     Edge 37, Type (0, 1), BuildingBlock: KIFKEQ_clean_linker_1, # of connection points: 2
#     Edge 38, Type (0, 1), BuildingBlock: KIFKEQ_clean_linker_1, # of connection points: 2
#     Edge 39, Type (0, 1), BuildingBlock: KIFKEQ_clean_linker_1, # of connection points: 2
#     Edge 40, Type (0, 1), BuildingBlock: KIFKEQ_clean_linker_1, # of connection points: 2
#     Edge 41, Type (0, 1), BuildingBlock: KIFKEQ_clean_linker_1, # of connection points: 2
#     Edge 42, Type (0, 1), BuildingBlock: KIFKEQ_clean_linker_1, # of connection points: 2
#     Edge 43, Type (0, 1), BuildingBlock: KIFKEQ_clean_linker_1, # of connection points: 2
#     Edge 44, Type (0, 1), BuildingBlock: KIFKEQ_clean_linker_1, # of connection points: 2
#     Edge 45, Type (0, 1), BuildingBlock: KIFKEQ_clean_linker_1, # of connection points: 2
#     Edge 46, Type (0, 1), BuildingBlock: KIFKEQ_clean_linker_1, # of connection points: 2
#     Edge 47, Type (0, 1), BuildingBlock: KIFKEQ_clean_linker_1, # of connection points: 2
#     Edge 48, Type (0, 1), BuildingBlock: KIFKEQ_clean_linker_1, # of connection points: 2
#     Edge 49, Type (0, 1), BuildingBlock: KIFKEQ_clean_linker_1, # of connection points: 2
#     Edge 50, Type (0, 1), BuildingBlock: KIFKEQ_clean_linker_1, # of connection points: 2
#     Edge 51, Type (0, 1), BuildingBlock: KIFKEQ_clean_linker_1, # of connection points: 2
#     Edge 52, Type (0, 1), BuildingBlock: KIFKEQ_clean_linker_1, # of connection points: 2
#     Edge 53, Type (0, 1), BuildingBlock: KIFKEQ_clean_linker_1, # of connection points: 2
#     Edge 54, Type (0, 1), BuildingBlock: KIFKEQ_clean_linker_1, # of connection points: 2
#     Edge 55, Type (0, 1), BuildingBlock: KIFKEQ_clean_linker_1, # of connection points: 2
#     Edge 56, Type (0, 1), BuildingBlock: KIFKEQ_clean_linker_1, # of connection points: 2
#     Edge 57, Type (0, 1), BuildingBlock: KIFKEQ_clean_linker_1, # of connection points: 2
#     Edge 58, Type (0, 1), BuildingBlock: KIFKEQ_clean_linker_1, # of connection points: 2
#     Edge 59, Type (0, 1), BuildingBlock: KIFKEQ_clean_linker_1, # of connection points: 2
#     Edge 60, Type (0, 1), BuildingBlock: KIFKEQ_clean_linker_1, # of connection points: 2
#     Edge 61, Type (0, 1), BuildingBlock: KIFKEQ_clean_linker_1, # of connection points: 2
#     Edge 62, Type (0, 1), BuildingBlock: KIFKEQ_clean_linker_1, # of connection points: 2
#     Edge 63, Type (0, 1), BuildingBlock: KIFKEQ_clean_linker_1, # of connection points: 2
#     Edge 64, Type (0, 1), BuildingBlock: KIFKEQ_clean_linker_1, # of connection points: 2
#     Edge 65, Type (0, 1), BuildingBlock: KIFKEQ_clean_linker_1, # of connection points: 2
#     Edge 66, Type (0, 1), BuildingBlock: KIFKEQ_clean_linker_1, # of connection points: 2
#     Edge 67, Type (0, 1), BuildingBlock: KIFKEQ_clean_linker_1, # of connection points: 2
#     Edge 68, Type (0, 1), BuildingBlock: KIFKEQ_clean_linker_1, # of connection points: 2
#     Edge 69, Type (0, 1), BuildingBlock: KIFKEQ_clean_linker_1, # of connection points: 2
#     Edge 70, Type (0, 1), BuildingBlock: KIFKEQ_clean_linker_1, # of connection points: 2
#     Edge 71, Type (0, 1), BuildingBlock: KIFKEQ_clean_linker_1, # of connection points: 2
# Relax obj value: 0.073
# Max RMSD: 0.279
# Mean RMSD: 0.240
data_MOF--net-ssc--node1-GALJAG_clean_sbu_0--node2-KUFVIS_clean_linker_0--edge1-KIFKEQ_clean_linker_1
_symmetry_space_group_name_H-M    P1
_symmetry_Int_Tables_number       1
_symmetry_cell_setting            triclinic
loop_
_symmetry_equiv_pos_as_xyz
'x, y, z'
_cell_length_a     31.751127
_cell_length_b     31.776736
_cell_length_c     31.736755
_cell_angle_alpha  90.042535
_cell_angle_beta   90.01915
_cell_angle_gamma 90.016424
loop_
_atom_site_label
_atom_site_type_symbol
_atom_site_fract_x
_atom_site_fract_y
_atom_site_fract_z
_atom_type_partial_charge
In0 In 0.00985 0.26024 0.13181 0.0
O1 O 0.04533 0.22788 0.18555 0.0
O2 O 0.0744 0.28043 0.1565 0.0
C3 C 0.02191 0.19387 0.07936 0.0
C4 C 0.94162 0.26725 0.18264 0.0
C5 C 0.99867 0.32807 0.08141 0.0
O6 O 0.04293 0.22743 0.07661 0.0
O7 O 0.99517 0.1937 0.10869 0.0
O8 O 0.97519 0.29609 0.07975 0.0
O9 O 0.02753 0.32589 0.1086 0.0
C10 C 0.07663 0.2523 0.18439 0.0
O11 O 0.97354 0.29062 0.1863 0.0
O12 O 0.94402 0.24072 0.1532 0.0
In13 In 1.00188 0.75876 0.37592 0.0
O14 O 0.9685 0.7243 0.42984 0.0
O15 O 0.01908 0.69307 0.39948 0.0
C16 C 0.93394 0.75168 0.32465 0.0
C17 C 0.01452 0.82414 0.42927 0.0
C18 C 0.06779 0.76777 0.32245 0.0
O19 O 0.96363 0.72531 0.32447 0.0
O20 O 0.93845 0.78123 0.35078 0.0
O21 O 0.03639 0.79204 0.32207 0.0
O22 O 0.06602 0.73917 0.34988 0.0
C23 C 0.99135 0.6919 0.42787 0.0
O24 O 0.03876 0.79275 0.42777 0.0
O25 O 0.98415 0.82265 0.40372 0.0
In26 In 0.50441 0.74286 0.62689 0.0
O27 O 0.53432 0.70664 0.57211 0.0
O28 O 0.48334 0.67781 0.60395 0.0
C29 C 0.57085 0.73128 0.67966 0.0
C30 C 0.49735 0.81269 0.57815 0.0
C31 C 0.43578 0.7529 0.67627 0.0
O32 O 0.57408 0.74961 0.64464 0.0
O33 O 0.5343 0.71816 0.68783 0.0
O34 O 0.46695 0.77756 0.67774 0.0
O35 O 0.43918 0.72354 0.64968 0.0
C36 C 0.51003 0.67537 0.57467 0.0
O37 O 0.47387 0.78098 0.5738 0.0
O38 O 0.52413 0.80937 0.60729 0.0
In39 In 0.51288 0.24927 0.88075 0.0
O40 O 0.55089 0.28054 0.82801 0.0
O41 O 0.57781 0.22758 0.85819 0.0
C42 C 0.52402 0.31422 0.93554 0.0
C43 C 0.44383 0.24397 0.83049 0.0
C44 C 0.50225 0.17957 0.9283 0.0
O45 O 0.50867 0.31897 0.89925 0.0
O46 O 0.53431 0.27691 0.94404 0.0
O47 O 0.4765 0.20987 0.92873 0.0
O48 O 0.53295 0.18429 0.90348 0.0
C49 C 0.58152 0.25542 0.83018 0.0
O50 O 0.47575 0.22087 0.82568 0.0
O51 O 0.44655 0.26943 0.86085 0.0
In52 In 0.13217 0.99289 0.25063 0.0
O53 O 0.1826 0.95359 0.28382 0.0
O54 O 0.15533 0.92894 0.22787 0.0
C55 C 0.0811 0.98268 0.31847 0.0
C56 C 0.18509 0.05973 0.24383 0.0
C57 C 0.08207 0.00304 0.18207 0.0
O58 O 0.07696 0.96168 0.28501 0.0
O59 O 0.11141 0.00828 0.31801 0.0
O60 O 0.07985 0.02643 0.21406 0.0
O61 O 0.10993 0.97489 0.18437 0.0
C62 C 0.18167 0.924 0.25724 0.0
O63 O 0.1497 0.06197 0.26162 0.0
O64 O 0.19363 0.02396 0.22895 0.0
In65 In 0.24938 0.88048 0.50367 0.0
O66 O 0.2165 0.82686 0.46813 0.0
O67 O 0.26751 0.85748 0.43794 0.0
C68 C 0.18323 0.9338 0.49501 0.0
C69 C 0.25792 0.82845 0.57063 0.0
C70 C 0.31772 0.93026 0.51517 0.0
O71 O 0.21572 0.93616 0.47228 0.0
O72 O 0.18394 0.90431 0.52152 0.0
O73 O 0.28596 0.93159 0.53897 0.0
O74 O 0.31503 0.90381 0.48566 0.0
C75 C 0.23985 0.82908 0.43607 0.0
O76 O 0.28156 0.82635 0.53877 0.0
O77 O 0.23023 0.85679 0.5687 0.0
In78 In 0.37982 0.00453 0.7522 0.0
O79 O 0.32553 0.96913 0.7202 0.0
O80 O 0.35768 0.93858 0.77006 0.0
C81 C 0.43116 0.99629 0.68436 0.0
C82 C 0.32732 0.07096 0.76276 0.0
C83 C 0.43221 0.01431 0.81903 0.0
O84 O 0.43275 0.97178 0.71555 0.0
O85 O 0.40342 0.02451 0.68719 0.0
O86 O 0.43369 0.0377 0.78699 0.0
O87 O 0.40412 0.98634 0.8175 0.0
C88 C 0.32858 0.93684 0.74311 0.0
O89 O 0.32631 0.03898 0.78624 0.0
O90 O 0.35491 0.06951 0.73426 0.0
In91 In 0.25204 0.13075 0.99668 0.0
O92 O 0.2169 0.18389 0.03051 0.0
O93 O 0.27082 0.15844 0.06048 0.0
C94 C 0.18586 0.07828 0.00838 0.0
C95 C 0.26014 0.18156 0.92858 0.0
C96 C 0.31911 0.07847 0.98834 0.0
O97 O 0.21757 0.07843 0.03232 0.0
O98 O 0.18747 0.10471 0.97884 0.0
O99 O 0.28764 0.077 0.96413 0.0
O100 O 0.31698 0.10661 0.01628 0.0
C101 C 0.24123 0.18485 0.0619 0.0
O102 O 0.28448 0.18375 0.95993 0.0
O103 O 0.23236 0.15337 0.93134 0.0
In104 In 0.74912 0.3753 0.99947 0.0
O105 O 0.78215 0.32415 0.03838 0.0
O106 O 0.72771 0.3527 0.06429 0.0
C107 C 0.8143 0.42941 0.0103 0.0
C108 C 0.74426 0.32163 0.93318 0.0
C109 C 0.68166 0.42574 0.9855 0.0
O110 O 0.78116 0.43116 0.03213 0.0
O111 O 0.81477 0.40006 0.98358 0.0
O112 O 0.71456 0.42717 0.96329 0.0
O113 O 0.68254 0.39843 0.01427 0.0
C114 C 0.75663 0.32592 0.06877 0.0
O115 O 0.71939 0.31973 0.9641 0.0
O116 O 0.77113 0.35071 0.93559 0.0
In117 In 0.87693 0.49372 0.2564 0.0
O118 O 0.8246 0.45458 0.22572 0.0
O119 O 0.85463 0.42924 0.27959 0.0
C120 C 0.93084 0.48118 0.19109 0.0
C121 C 0.82671 0.56285 0.26018 0.0
C122 C 0.92541 0.50584 0.32546 0.0
O123 O 0.89505 0.49767 0.1866 0.0
O124 O 0.93925 0.47043 0.22836 0.0
O125 O 0.92647 0.53018 0.29404 0.0
O126 O 0.89948 0.47589 0.32221 0.0
C127 C 0.82688 0.42458 0.25157 0.0
O128 O 0.82168 0.53138 0.28383 0.0
O129 O 0.85725 0.55965 0.23504 0.0
In130 In 0.75386 0.62999 0.49888 0.0
O131 O 0.7626 0.64932 0.56775 0.0
O132 O 0.73399 0.69355 0.52697 0.0
C133 C 0.68468 0.58093 0.50938 0.0
C134 C 0.76224 0.67602 0.42788 0.0
C135 C 0.82154 0.57841 0.49202 0.0
O136 O 0.71668 0.57832 0.5327 0.0
O137 O 0.68727 0.60869 0.48116 0.0
O138 O 0.78876 0.57392 0.47004 0.0
O139 O 0.82048 0.60931 0.51692 0.0
C140 C 0.74685 0.68545 0.56363 0.0
O141 O 0.78862 0.6776 0.45766 0.0
O142 O 0.73212 0.65078 0.43378 0.0
In143 In 0.62629 0.50688 0.76007 0.0
O144 O 0.67915 0.47078 0.79357 0.0
O145 O 0.64961 0.44155 0.7413 0.0
C146 C 0.57231 0.49775 0.82552 0.0
C147 C 0.67961 0.5728 0.75156 0.0
C148 C 0.57538 0.51867 0.69255 0.0
O149 O 0.57201 0.47364 0.79393 0.0
O150 O 0.6002 0.52596 0.82435 0.0
O151 O 0.57406 0.54188 0.72476 0.0
O152 O 0.60256 0.48981 0.69428 0.0
C153 C 0.67739 0.43917 0.76957 0.0
O154 O 0.6798 0.54174 0.72681 0.0
O155 O 0.65244 0.57068 0.78042 0.0
H156 H 0.89776 0.35773 0.63704 0.0
H157 H 0.95676 0.25084 0.69524 0.0
H158 H 0.00448 0.29981 0.57753 0.0
H159 H 0.99739 0.2123 0.57603 0.0
H160 H 0.10512 0.15383 0.63319 0.0
H161 H 0.04501 0.25789 0.69525 0.0
C162 C 0.92199 0.33363 0.63687 0.0
C163 C 0.95076 0.33205 0.60354 0.0
C164 C 0.92399 0.30466 0.67 0.0
C165 C 0.95521 0.27347 0.66974 0.0
C166 C 0.98439 0.27154 0.63632 0.0
C167 C 0.98206 0.30102 0.60326 0.0
C168 C 0.01733 0.23878 0.63577 0.0
C169 C 0.0199 0.21047 0.60165 0.0
C170 C 0.05168 0.17991 0.60068 0.0
C171 C 0.08057 0.17759 0.63389 0.0
C172 C 0.07829 0.20537 0.66803 0.0
C173 C 0.04666 0.2361 0.669 0.0
H174 H 0.89913 0.65401 0.88074 0.0
H175 H 0.0082 0.70714 0.9407 0.0
H176 H 0.96471 0.7561 0.82126 0.0
H177 H 0.05146 0.74676 0.82192 0.0
H178 H 0.11267 0.85138 0.88203 0.0
H179 H 0.00472 0.79467 0.94051 0.0
C180 C 0.92464 0.67678 0.88092 0.0
C181 C 0.92877 0.7048 0.84722 0.0
C182 C 0.95298 0.67741 0.91465 0.0
C183 C 0.98608 0.70659 0.91467 0.0
C184 C 0.99044 0.73519 0.881 0.0
C185 C 0.96165 0.73413 0.84721 0.0
C186 C 0.02455 0.76671 0.88146 0.0
C187 C 0.05368 0.76868 0.84802 0.0
C188 C 0.08548 0.79927 0.84829 0.0
C189 C 0.0882 0.82751 0.88202 0.0
C190 C 0.05935 0.82599 0.91531 0.0
C191 C 0.02743 0.79559 0.91502 0.0
H192 H 0.4018 0.85233 0.11934 0.0
H193 H 0.46524 0.74693 0.17534 0.0
H194 H 0.51132 0.80054 0.05902 0.0
H195 H 0.50504 0.71039 0.05753 0.0
H196 H 0.61383 0.65335 0.11428 0.0
H197 H 0.55424 0.75842 0.1751 0.0
C198 C 0.42709 0.82936 0.11866 0.0
C199 C 0.45604 0.82987 0.08542 0.0
C200 C 0.43026 0.79975 0.15111 0.0
C201 C 0.46286 0.77007 0.15037 0.0
C202 C 0.49225 0.7702 0.11713 0.0
C203 C 0.48878 0.80027 0.08467 0.0
C204 C 0.52617 0.73847 0.11608 0.0
C205 C 0.52821 0.7094 0.08261 0.0
C206 C 0.55997 0.67878 0.08185 0.0
C207 C 0.58952 0.67736 0.11457 0.0
C208 C 0.58764 0.70579 0.14821 0.0
C209 C 0.55593 0.73646 0.14899 0.0
H210 H 0.38769 0.16062 0.40066 0.0
H211 H 0.5063 0.2076 0.44559 0.0
H212 H 0.44922 0.26125 0.33436 0.0
H213 H 0.54352 0.24347 0.33091 0.0
H214 H 0.6062 0.3512 0.38379 0.0
H215 H 0.49542 0.30217 0.44391 0.0
C216 C 0.41366 0.18267 0.3979 0.0
C217 C 0.4142 0.21139 0.36443 0.0
C218 C 0.44684 0.18071 0.42688 0.0
C219 C 0.48075 0.2086 0.42294 0.0
C220 C 0.48146 0.23805 0.38984 0.0
C221 C 0.4486 0.23876 0.36003 0.0
C222 C 0.51568 0.26926 0.38766 0.0
C223 C 0.5456 0.26763 0.35496 0.0
C224 C 0.57827 0.2973 0.35363 0.0
C225 C 0.58089 0.32825 0.38492 0.0
C226 C 0.55123 0.33024 0.41746 0.0
C227 C 0.51849 0.30076 0.41877 0.0
H228 H 0.63004 0.89695 0.35558 0.0
H229 H 0.68516 0.95764 0.24799 0.0
H230 H 0.57155 0.00744 0.30391 0.0
H231 H 0.57044 0.99698 0.21078 0.0
H232 H 0.62625 0.10638 0.15419 0.0
H233 H 0.6849 0.04975 0.26218 0.0
C234 C 0.62958 0.92204 0.33238 0.0
C235 C 0.59719 0.95191 0.33336 0.0
C236 C 0.6613 0.92395 0.30185 0.0
C237 C 0.66075 0.9562 0.27183 0.0
C238 C 0.6284 0.98646 0.27251 0.0
C239 C 0.59661 0.98427 0.30338 0.0
C240 C 0.62749 0.01991 0.24041 0.0
C241 C 0.59497 0.02071 0.21026 0.0
C242 C 0.59447 0.05202 0.17922 0.0
C243 C 0.62648 0.0823 0.17844 0.0
C244 C 0.65912 0.08168 0.20808 0.0
C245 C 0.65962 0.05046 0.23922 0.0
H246 H 0.15009 0.3844 0.40898 0.0
H247 H 0.20507 0.44331 0.51773 0.0
H248 H 0.25718 0.32747 0.46887 0.0
H249 H 0.24839 0.3265 0.55771 0.0
H250 H 0.35347 0.38769 0.61714 0.0
H251 H 0.29413 0.44544 0.51014 0.0
C252 C 0.17384 0.38473 0.4336 0.0
C253 C 0.20342 0.35217 0.4356 0.0
C254 C 0.17424 0.41761 0.46292 0.0
C255 C 0.20475 0.41798 0.49483 0.0
C256 C 0.23484 0.38545 0.49711 0.0
C257 C 0.23407 0.35253 0.46735 0.0
C258 C 0.26732 0.38608 0.53036 0.0
C259 C 0.27014 0.35275 0.5595 0.0
C260 C 0.30123 0.35341 0.59085 0.0
C261 C 0.32924 0.38735 0.59299 0.0
C262 C 0.32687 0.42055 0.56413 0.0
C263 C 0.29589 0.41991 0.53272 0.0
H264 H 0.88783 0.10757 0.85559 0.0
H265 H 0.83176 0.0392 0.75303 0.0
H266 H 0.95149 0.99981 0.80442 0.0
H267 H 0.95029 0.00467 0.71396 0.0
H268 H 0.90365 0.88674 0.66712 0.0
H269 H 0.83765 0.94982 0.76703 0.0
C270 C 0.88905 0.08189 0.83304 0.0
C271 C 0.92351 0.05446 0.83326 0.0
C272 C 0.85592 0.07653 0.80444 0.0
C273 C 0.85727 0.04334 0.77536 0.0
C274 C 0.8919 0.01564 0.77512 0.0
C275 C 0.92489 0.0212 0.80431 0.0
C276 C 0.89404 0.98089 0.74436 0.0
C277 C 0.92733 0.97943 0.71509 0.0
C278 C 0.93088 0.94538 0.68727 0.0
C279 C 0.90133 0.91275 0.68918 0.0
C280 C 0.86763 0.91407 0.71761 0.0
C281 C 0.8636 0.94861 0.74487 0.0
H282 H 0.34912 0.62511 0.89985 0.0
H283 H 0.28457 0.56883 0.00468 0.0
H284 H 0.24033 0.68614 0.95191 0.0
H285 H 0.24669 0.6865 0.04248 0.0
H286 H 0.12971 0.638 0.08994 0.0
H287 H 0.19436 0.57202 0.99097 0.0
C288 C 0.32384 0.62587 0.92287 0.0
C289 C 0.29534 0.65938 0.92263 0.0
C290 C 0.32011 0.59313 0.95211 0.0
C291 C 0.28749 0.59402 0.98185 0.0
C292 C 0.25868 0.62773 0.98198 0.0
C293 C 0.26263 0.6603 0.95216 0.0
C294 C 0.22424 0.62923 0.01305 0.0
C295 C 0.22205 0.66287 0.04184 0.0
C296 C 0.18792 0.6661 0.06958 0.0
C297 C 0.15589 0.63582 0.06806 0.0
C298 C 0.15798 0.60178 0.04005 0.0
C299 C 0.19264 0.59813 0.01291 0.0
H300 H 0.66572 0.88686 0.88293 0.0
H301 H 0.7104 0.93404 1.00165 0.0
H302 H 0.76519 0.82188 0.94775 0.0
H303 H 0.74749 0.81883 0.04046 0.0
H304 H 0.85243 0.87468 0.10532 0.0
H305 H 0.8036 0.9336 0.9938 0.0
C306 C 0.68719 0.8846 0.90945 0.0
C307 C 0.71595 0.85119 0.91122 0.0
C308 C 0.68457 0.91422 0.94204 0.0
C309 C 0.71183 0.91088 0.97658 0.0
C310 C 0.74128 0.87784 0.97853 0.0
C311 C 0.74264 0.84744 0.94625 0.0
C312 C 0.77196 0.87644 0.01333 0.0
C313 C 0.77085 0.84358 0.04306 0.0
C314 C 0.79995 0.84307 0.07628 0.0
C315 C 0.82986 0.87527 0.07962 0.0
C316 C 0.83142 0.90791 0.05011 0.0
C317 C 0.80248 0.90842 0.01682 0.0
H318 H 0.37215 0.6026 0.35429 0.0
H319 H 0.31338 0.55521 0.24195 0.0
H320 H 0.42974 0.50055 0.28661 0.0
H321 H 0.42882 0.51593 0.19718 0.0
H322 H 0.36355 0.41901 0.1288 0.0
H323 H 0.3122 0.46501 0.24521 0.0
C324 C 0.37181 0.58063 0.32808 0.0
C325 C 0.40461 0.55152 0.32385 0.0
C326 C 0.33892 0.58221 0.29877 0.0
C327 C 0.33877 0.55407 0.26478 0.0
C328 C 0.37139 0.52433 0.26034 0.0
C329 C 0.40448 0.52326 0.28991 0.0
C330 C 0.37034 0.49427 0.22489 0.0
C331 C 0.40241 0.49451 0.1942 0.0
C332 C 0.39947 0.46799 0.15892 0.0
C333 C 0.36512 0.44053 0.15533 0.0
C334 C 0.3339 0.4388 0.18646 0.0
C335 C 0.33645 0.46594 0.22117 0.0
H336 H 0.86021 0.12327 0.3975 0.0
H337 H 0.80321 0.06321 0.50455 0.0
H338 H 0.7551 0.18202 0.45911 0.0
H339 H 0.76584 0.17975 0.54837 0.0
H340 H 0.65797 0.12268 0.60669 0.0
H341 H 0.71303 0.06521 0.4972 0.0
C342 C 0.83645 0.12299 0.42209 0.0
C343 C 0.80791 0.15642 0.42503 0.0
C344 C 0.83497 0.08934 0.4505 0.0
C345 C 0.80442 0.08913 0.48238 0.0
C346 C 0.77542 0.12254 0.48557 0.0
C347 C 0.77729 0.1562 0.45678 0.0
C348 C 0.74322 0.12239 0.51907 0.0
C349 C 0.74257 0.1548 0.54939 0.0
C350 C 0.71176 0.15486 0.58097 0.0
C351 C 0.68187 0.12254 0.58222 0.0
C352 C 0.68215 0.09018 0.55231 0.0
C353 C 0.71286 0.09009 0.5206 0.0
H354 H 0.12235 0.40601 0.85701 0.0
H355 H 0.17851 0.46124 0.74705 0.0
H356 H 0.06322 0.51241 0.7981 0.0
H357 H 0.06151 0.50354 0.70826 0.0
H358 H 0.122 0.60909 0.64912 0.0
H359 H 0.18018 0.55013 0.75601 0.0
C360 C 0.12193 0.42964 0.83233 0.0
C361 C 0.08904 0.45892 0.83091 0.0
C362 C 0.1542 0.43029 0.80232 0.0
C363 C 0.15358 0.46066 0.77039 0.0
C364 C 0.12078 0.49043 0.76876 0.0
C365 C 0.08845 0.48946 0.7991 0.0
C366 C 0.12086 0.52307 0.73581 0.0
C367 C 0.08749 0.52562 0.70666 0.0
C368 C 0.0879 0.55675 0.6754 0.0
C369 C 0.12167 0.58499 0.67335 0.0
C370 C 0.15495 0.58274 0.70216 0.0
C371 C 0.15453 0.55181 0.73351 0.0
H372 H 0.05256 0.39424 0.07243 0.0
H373 H 0.93931 0.33995 0.02014 0.0
H374 H 0.05891 0.43982 0.0115 0.0
H375 H 0.94472 0.38688 0.9596 0.0
H376 H 0.0296 0.39897 0.83866 0.0
H377 H 0.99278 0.38031 0.90294 0.0
H378 H 0.03955 0.49346 0.96272 0.0
H379 H 0.07717 0.51147 0.89775 0.0
C380 C 0.02822 0.39303 0.04852 0.0
C381 C 0.99619 0.36262 0.05036 0.0
C382 C 0.03154 0.41964 0.01369 0.0
C383 C 1.00267 0.41667 0.98016 0.0
C384 C 0.96795 0.38946 0.98444 0.0
C385 C 0.96483 0.36255 0.01914 0.0
C386 C 0.03039 0.4207 0.86499 0.0
C387 C 0.05615 0.45644 0.86356 0.0
C388 C 0.00918 0.41016 0.90196 0.0
C389 C 0.01367 0.43504 0.93842 0.0
C390 C 0.03592 0.4733 0.93542 0.0
C391 C 0.05714 0.48387 0.8982 0.0
H392 H 0.87248 0.81029 0.31386 0.0
H393 H 0.917 0.69148 0.26516 0.0
H394 H 0.82468 0.81686 0.25473 0.0
H395 H 0.8684 0.6976 0.20578 0.0
H396 H 0.85479 0.77857 0.08169 0.0
H397 H 0.87425 0.74241 0.14619 0.0
H398 H 0.76781 0.79869 0.20975 0.0
H399 H 0.7491 0.8356 0.14476 0.0
C400 C 0.87115 0.78492 0.29108 0.0
C401 C 0.89917 0.75087 0.29363 0.0
C402 C 0.84336 0.78846 0.25718 0.0
C403 C 0.84308 0.75806 0.22488 0.0
C404 C 0.86836 0.72198 0.22963 0.0
C405 C 0.89622 0.71846 0.26364 0.0
C406 C 0.83444 0.78145 0.10895 0.0
C407 C 0.80059 0.80973 0.1085 0.0
C408 C 0.84551 0.76073 0.1461 0.0
C409 C 0.82308 0.76826 0.18362 0.0
C410 C 0.78619 0.7928 0.18167 0.0
C411 C 0.77512 0.81355 0.14438 0.0
H412 H 0.45224 0.6124 0.56631 0.0
H413 H 0.56535 0.66255 0.50999 0.0
H414 H 0.4411 0.56816 0.50497 0.0
H415 H 0.55472 0.61762 0.4486 0.0
H416 H 0.46679 0.60877 0.33022 0.0
H417 H 0.50556 0.62606 0.39379 0.0
H418 H 0.45556 0.51488 0.45443 0.0
H419 H 0.41576 0.4985 0.39033 0.0
C420 C 0.47551 0.61294 0.54137 0.0
C421 C 0.50908 0.64169 0.54249 0.0
C422 C 0.46932 0.58725 0.50615 0.0
C423 C 0.49661 0.58977 0.47126 0.0
C424 C 0.53259 0.61547 0.47445 0.0
C425 C 0.53873 0.64123 0.50967 0.0
C426 C 0.46568 0.5871 0.35656 0.0
C427 C 0.43852 0.55239 0.35558 0.0
C428 C 0.48795 0.59689 0.39317 0.0
C429 C 0.48326 0.57224 0.42974 0.0
C430 C 0.45935 0.53495 0.42715 0.0
C431 C 0.43697 0.52521 0.39035 0.0
H432 H 0.64402 0.19732 0.82171 0.0
H433 H 0.59659 0.31254 0.76757 0.0
H434 H 0.69024 0.18783 0.76153 0.0
H435 H 0.6432 0.30329 0.70713 0.0
H436 H 0.65275 0.21543 0.58763 0.0
H437 H 0.63425 0.25353 0.65134 0.0
H438 H 0.74564 0.205 0.71277 0.0
H439 H 0.76358 0.16618 0.64847 0.0
C440 C 0.64447 0.22136 0.79754 0.0
C441 C 0.61601 0.25513 0.79888 0.0
C442 C 0.67125 0.2161 0.76301 0.0
C443 C 0.66991 0.24441 0.72895 0.0
C444 C 0.64443 0.28048 0.73243 0.0
C445 C 0.61771 0.28577 0.76704 0.0
C446 C 0.67417 0.21448 0.61421 0.0
C447 C 0.70943 0.18801 0.6134 0.0
C448 C 0.66371 0.23639 0.65083 0.0
C449 C 0.68817 0.2319 0.68757 0.0
C450 C 0.72587 0.20867 0.68525 0.0
C451 C 0.7364 0.18679 0.64839 0.0
H452 H 0.04368 0.62437 0.43514 0.0
H453 H 0.93499 0.68262 0.49238 0.0
H454 H 0.05099 0.57821 0.49555 0.0
H455 H 0.9417 0.63573 0.55288 0.0
H456 H 0.03117 0.61956 0.67012 0.0
H457 H 0.99278 0.64034 0.60736 0.0
H458 H 0.03166 0.52553 0.54542 0.0
H459 H 0.07092 0.50529 0.60876 0.0
C460 C 0.02053 0.62641 0.46011 0.0
C461 C 0.98948 0.65785 0.45957 0.0
C462 C 0.02448 0.59962 0.49477 0.0
C463 C 0.99746 0.6038 0.52969 0.0
C464 C 0.96365 0.63233 0.52699 0.0
C465 C 0.95977 0.65918 0.49231 0.0
C466 C 0.0299 0.59799 0.64368 0.0
C467 C 0.05393 0.56102 0.64401 0.0
C468 C 0.0078 0.60975 0.60759 0.0
C469 C 0.0096 0.58489 0.57089 0.0
C470 C 0.03015 0.54565 0.57289 0.0
C471 C 0.05225 0.53382 0.60922 0.0
H472 H 0.65338 0.75323 0.6679 0.0
H473 H 0.56637 0.70839 0.76227 0.0
H474 H 0.70515 0.76784 0.72281 0.0
H475 H 0.61725 0.7243 0.81705 0.0
H476 H 0.70177 0.76641 0.91515 0.0
H477 H 0.68042 0.7215 0.85609 0.0
H478 H 0.70651 0.82376 0.76997 0.0
H479 H 0.72871 0.8673 0.82854 0.0
C480 C 0.64564 0.74569 0.70028 0.0
C481 C 0.6054 0.73075 0.71096 0.0
C482 C 0.67533 0.7541 0.73175 0.0
C483 C 0.66521 0.74832 0.77453 0.0
C484 C 0.62649 0.72919 0.7846 0.0
C485 C 0.59697 0.72036 0.75311 0.0
C486 C 0.70452 0.77839 0.88332 0.0
C487 C 0.71613 0.82039 0.87625 0.0
C488 C 0.69184 0.75293 0.84952 0.0
C489 C 0.69049 0.76925 0.80823 0.0
C490 C 0.70698 0.80976 0.80105 0.0
C491 C 0.71956 0.83502 0.83471 0.0
H492 H 0.51125 0.39828 0.92295 0.0
H493 H 0.53774 0.30708 0.01999 0.0
H494 H 0.49689 0.4514 0.97695 0.0
H495 H 0.52187 0.35917 0.0737 0.0
H496 H 0.48267 0.44847 0.16847 0.0
H497 H 0.52965 0.42337 0.1126 0.0
H498 H 0.43542 0.45571 0.01972 0.0
H499 H 0.38963 0.48147 0.07523 0.0
C500 C 0.51466 0.38985 0.9558 0.0
C501 C 0.52448 0.34833 0.96731 0.0
C502 C 0.50635 0.42018 0.98669 0.0
C503 C 0.50708 0.40937 0.02968 0.0
C504 C 0.52105 0.36888 0.04102 0.0
C505 C 0.52982 0.33874 0.01014 0.0
C506 C 0.47303 0.45186 0.1359 0.0
C507 C 0.43245 0.46631 0.12603 0.0
C508 C 0.49966 0.43709 0.10393 0.0
C509 C 0.48599 0.43652 0.06168 0.0
C510 C 0.44728 0.45567 0.05171 0.0
C511 C 0.42079 0.4703 0.08357 0.0
H512 H 0.87462 0.21368 0.18593 0.0
H513 H 0.93004 0.32038 0.24946 0.0
H514 H 0.82829 0.20202 0.24557 0.0
H515 H 0.88273 0.30955 0.30901 0.0
H516 H 0.7565 0.17364 0.35836 0.0
H517 H 0.77547 0.21607 0.29669 0.0
H518 H 0.88892 0.25631 0.36061 0.0
H519 H 0.86934 0.21474 0.42162 0.0
C520 C 0.876 0.23545 0.21217 0.0
C521 C 0.90689 0.26705 0.21367 0.0
C522 C 0.84908 0.22903 0.24638 0.0
C523 C 0.85249 0.25417 0.28278 0.0
C524 C 0.88008 0.28886 0.28201 0.0
C525 C 0.90716 0.29513 0.24785 0.0
C526 C 0.78446 0.19316 0.3596 0.0
C527 C 0.81161 0.19111 0.39442 0.0
C528 C 0.79557 0.21712 0.32425 0.0
C529 C 0.83406 0.23921 0.32329 0.0
C530 C 0.85886 0.24023 0.36007 0.0
C531 C 0.84782 0.21627 0.39515 0.0
H532 H 0.07638 0.03433 0.38701 0.0
H533 H 0.01411 0.92936 0.32708 0.0
H534 H 0.01559 0.04482 0.4323 0.0
H535 H 0.95338 0.93916 0.37309 0.0
H536 H 0.84104 0.03463 0.38588 0.0
H537 H 0.9027 0.99402 0.36628 0.0
H538 H 0.96258 0.02803 0.4839 0.0
H539 H 0.90027 0.06963 0.50297 0.0
C540 C 0.05021 0.01261 0.38447 0.0
C541 C 0.04945 0.98186 0.35266 0.0
C542 C 0.01532 0.0184 0.41071 0.0
C543 C 0.97898 0.99352 0.4056 0.0
C544 C 0.98037 0.95962 0.37706 0.0
C545 C 0.01521 0.95394 0.35073 0.0
C546 C 0.86677 0.03203 0.40819 0.0
C547 C 0.86616 0.05522 0.44574 0.0
C548 C 0.90219 0.00859 0.39713 0.0
C549 C 0.93802 0.00811 0.42328 0.0
C550 C 0.93577 0.02824 0.4628 0.0
C551 C 0.90004 0.05168 0.47394 0.0
H552 H 0.20452 0.82226 0.63744 0.0
H553 H 0.31362 0.76366 0.5813 0.0
H554 H 0.19543 0.76202 0.68337 0.0
H555 H 0.30524 0.70338 0.62817 0.0
H556 H 0.21301 0.58789 0.64042 0.0
H557 H 0.25326 0.65 0.62145 0.0
H558 H 0.21207 0.71144 0.73586 0.0
H559 H 0.17136 0.64868 0.75442 0.0
C560 C 0.22737 0.797 0.63584 0.0
C561 C 0.25896 0.79703 0.60491 0.0
C562 C 0.22243 0.76246 0.66254 0.0
C563 C 0.24902 0.72721 0.65881 0.0
C564 C 0.28356 0.72952 0.63111 0.0
C565 C 0.28839 0.76406 0.60427 0.0
C566 C 0.21417 0.61406 0.66231 0.0
C567 C 0.18919 0.61382 0.69867 0.0
C568 C 0.23736 0.64975 0.65162 0.0
C569 C 0.2356 0.68613 0.67692 0.0
C570 C 0.21382 0.68416 0.71553 0.0
C571 C 0.19076 0.6482 0.72634 0.0
H572 H 0.4406 0.96093 0.88576 0.0
H573 H 0.49657 0.07069 0.82841 0.0
H574 H 0.50252 0.95215 0.92976 0.0
H575 H 0.55845 0.06256 0.87319 0.0
H576 H 0.61975 0.92929 0.99662 0.0
H577 H 0.55559 0.96919 0.98073 0.0
H578 H 0.61163 0.01092 0.86379 0.0
H579 H 0.67516 0.97194 0.88024 0.0
C580 C 0.46563 0.984 0.88352 0.0
C581 C 0.46437 0.01568 0.85271 0.0
C582 C 0.50114 0.9792 0.90908 0.0
C583 C 0.53611 0.00601 0.90427 0.0
C584 C 0.53256 0.04067 0.87691 0.0
C585 C 0.49708 0.04539 0.85126 0.0
C586 C 0.61872 0.94851 0.96846 0.0
C587 C 0.65199 0.94733 0.93935 0.0
C588 C 0.58193 0.97105 0.95915 0.0
C589 C 0.57804 0.99276 0.92065 0.0
C590 C 0.61332 0.99497 0.89388 0.0
C591 C 0.6498 0.97239 0.90309 0.0
H592 H 0.29316 0.19577 0.12949 0.0
H593 H 0.18309 0.24795 0.06902 0.0
H594 H 0.29911 0.25832 0.17316 0.0
H595 H 0.1884 0.31043 0.11356 0.0
H596 H 0.31562 0.37529 0.24138 0.0
H597 H 0.27675 0.31076 0.22438 0.0
H598 H 0.24095 0.36464 0.10455 0.0
H599 H 0.279 0.4286 0.12198 0.0
C600 C 0.26949 0.22012 0.12639 0.0
C601 C 0.2385 0.21761 0.09491 0.0
C602 C 0.2726 0.25591 0.15181 0.0
C603 C 0.24476 0.28991 0.14619 0.0
C604 C 0.21091 0.28521 0.11795 0.0
C605 C 0.20787 0.24942 0.09245 0.0
C606 C 0.29785 0.37377 0.21227 0.0
C607 C 0.30058 0.4065 0.18268 0.0
C608 C 0.27592 0.33678 0.20236 0.0
C609 C 0.25637 0.33218 0.16278 0.0
C610 C 0.25534 0.36698 0.1354 0.0
C611 C 0.27736 0.40367 0.14521 0.0
H612 H 0.01938 0.06079 0.1704 0.0
H613 H 0.07369 0.94863 0.11608 0.0
H614 H 0.9584 0.05359 0.12407 0.0
H615 H 0.01277 0.94108 0.0703 0.0
H616 H 0.89749 0.92388 0.99754 0.0
H617 H 0.9619 0.96226 0.01629 0.0
H618 H 0.90426 1.00048 0.13356 0.0
H619 H 0.84047 0.96273 0.1145 0.0
C620 C 0.01879 0.0352 0.14784 0.0
C621 C 0.05075 0.00464 0.1476 0.0
C622 C 0.98386 0.03108 0.1213 0.0
C623 C 0.9802 0.99623 0.09419 0.0
C624 C 0.01445 0.96834 0.09073 0.0
C625 C 0.04935 0.97248 0.11725 0.0
C626 C 0.89825 0.94203 0.02644 0.0
C627 C 0.86438 0.94034 0.05479 0.0
C628 C 0.93515 0.96368 0.03734 0.0
C629 C 0.93851 0.98398 0.07664 0.0
C630 C 0.90282 0.98561 0.10288 0.0
C631 C 0.86624 0.96382 0.09214 0.0
H632 H 0.18392 0.76441 0.42536 0.0
H633 H 0.29343 0.82236 0.36948 0.0
H634 H 0.19185 0.70416 0.37818 0.0
H635 H 0.30174 0.7623 0.32282 0.0
H636 H 0.2846 0.58858 0.36385 0.0
H637 H 0.24578 0.65099 0.38487 0.0
H638 H 0.28122 0.71216 0.26851 0.0
H639 H 0.32081 0.64908 0.24786 0.0
C640 C 0.20908 0.76473 0.40233 0.0
C641 C 0.23868 0.7976 0.40175 0.0
C642 C 0.21363 0.73023 0.3753 0.0
C643 C 0.24795 0.72791 0.34734 0.0
C644 C 0.27487 0.76291 0.34383 0.0
C645 C 0.27032 0.79734 0.37085 0.0
C646 C 0.28269 0.61481 0.34212 0.0
C647 C 0.30578 0.61432 0.3045 0.0
C648 C 0.26026 0.65062 0.35399 0.0
C649 C 0.26081 0.68691 0.32862 0.0
C650 C 0.28066 0.6849 0.28897 0.0
C651 C 0.303 0.64877 0.27697 0.0
H652 H 0.44078 0.05316 0.6209 0.0
H653 H 0.49297 0.93793 0.67046 0.0
H654 H 0.50114 0.06089 0.57471 0.0
H655 H 0.55344 0.94516 0.62349 0.0
H656 H 0.61431 0.07943 0.50087 0.0
H657 H 0.54934 0.04226 0.5196 0.0
H658 H 0.61029 0.99379 0.63133 0.0
H659 H 0.67463 0.03038 0.61209 0.0
C660 C 0.46455 0.02873 0.62095 0.0
C661 C 0.46265 0.9955 0.65003 0.0
C662 C 0.49917 0.03296 0.59413 0.0
C663 C 0.53272 0.00406 0.59591 0.0
C664 C 0.52861 0.96847 0.62198 0.0
C665 C 0.49397 0.9643 0.64889 0.0
C666 C 0.61411 0.05916 0.52831 0.0
C667 C 0.64918 0.0576 0.55515 0.0
C668 C 0.57687 0.03822 0.5393 0.0
C669 C 0.57426 0.0155 0.57731 0.0
C670 C 0.611 0.01056 0.60165 0.0
C671 C 0.648 0.0316 0.59077 0.0
H672 H 0.31579 0.24616 0.91623 0.0
H673 H 0.20398 0.18885 0.86413 0.0
H674 H 0.30547 0.30727 0.87077 0.0
H675 H 0.19321 0.2498 0.81944 0.0
H676 H 0.16889 0.36454 0.74919 0.0
H677 H 0.20941 0.30116 0.76614 0.0
H678 H 0.2527 0.36031 0.88099 0.0
H679 H 0.21259 0.42306 0.86367 0.0
C680 C 0.28961 0.24615 0.89434 0.0
C681 C 0.26008 0.21323 0.89447 0.0
C682 C 0.28366 0.28117 0.86832 0.0
C683 C 0.24798 0.28397 0.84215 0.0
C684 C 0.22111 0.24887 0.83905 0.0
C685 C 0.2271 0.2139 0.86499 0.0
C686 C 0.1886 0.36436 0.77707 0.0
C687 C 0.18772 0.39832 0.8053 0.0
C688 C 0.21155 0.32804 0.78696 0.0
C689 C 0.234 0.32533 0.82515 0.0
C690 C 0.23626 0.36121 0.85111 0.0
C691 C 0.21314 0.39722 0.84137 0.0
H692 H 0.32978 0.01391 0.93225 0.0
H693 H 0.38499 0.07073 0.04283 0.0
H694 H 0.3766 0.95345 0.94002 0.0
H695 H 0.4313 0.01045 0.05099 0.0
H696 H 0.50659 0.89749 0.06925 0.0
H697 H 0.48566 0.96111 0.03077 0.0
H698 H 0.37077 0.89904 0.99208 0.0
H699 H 0.39218 0.83605 0.02971 0.0
C700 C 0.35255 0.01392 0.95767 0.0
C701 C 0.35308 0.04659 0.98751 0.0
C702 C 0.37937 0.97927 0.96215 0.0
C703 C 0.40715 0.97657 0.99662 0.0
C704 C 0.41048 0.01131 0.02397 0.0
C705 C 0.38364 0.04588 0.0195 0.0
C706 C 0.47782 0.89712 0.05088 0.0
C707 C 0.45083 0.86216 0.05237 0.0
C708 C 0.4656 0.93358 0.02923 0.0
C709 C 0.42621 0.93551 0.00886 0.0
C710 C 0.40145 0.89881 0.007 0.0
C711 C 0.41357 0.86262 0.02868 0.0
H712 H 0.81995 0.4961 0.06453 0.0
H713 H 0.88317 0.43687 0.95971 0.0
H714 H 0.86614 0.55714 0.05785 0.0
H715 H 0.9287 0.49781 0.9524 0.0
H716 H 0.00334 0.61084 0.93497 0.0
H717 H 0.98071 0.54799 0.97361 0.0
H718 H 0.86422 0.61068 0.0059 0.0
H719 H 0.88743 0.67298 0.96841 0.0
C720 C 0.84425 0.49578 0.04057 0.0
C721 C 0.84739 0.46213 0.01205 0.0
C722 C 0.87063 0.53082 0.03663 0.0
C723 C 0.90054 0.53295 0.00397 0.0
C724 C 0.9062 0.49744 0.97804 0.0
C725 C 0.87985 0.46245 0.98202 0.0
C726 C 0.97382 0.61157 0.95208 0.0
C727 C 0.94692 0.64642 0.94872 0.0
C728 C 0.96058 0.57548 0.97373 0.0
C729 C 0.92024 0.57384 0.99215 0.0
C730 C 0.89555 0.61062 0.99247 0.0
C731 C 0.90874 0.64646 0.97088 0.0
H732 H 0.76002 0.57799 0.31259 0.0
H733 H 0.82465 0.62745 0.20371 0.0
H734 H 0.70221 0.62714 0.30066 0.0
H735 H 0.76671 0.67565 0.19099 0.0
H736 H 0.65761 0.75343 0.16317 0.0
H737 H 0.71887 0.73158 0.20485 0.0
H738 H 0.64929 0.623 0.24839 0.0
H739 H 0.58858 0.64559 0.20781 0.0
C740 C 0.76222 0.59989 0.28655 0.0
C741 C 0.79631 0.59812 0.25842 0.0
C742 C 0.72905 0.62804 0.27964 0.0
C743 C 0.72912 0.6547 0.24422 0.0
C744 C 0.76532 0.65573 0.21861 0.0
C745 C 0.79855 0.62775 0.22568 0.0
C746 C 0.65511 0.72599 0.18327 0.0
C747 C 0.61862 0.7011 0.18254 0.0
C748 C 0.69025 0.71318 0.20673 0.0
C749 C 0.68944 0.67511 0.22949 0.0
C750 C 0.65126 0.65265 0.23174 0.0
C751 C 0.61632 0.66546 0.20839 0.0
H752 H 0.67137 0.51967 0.56832 0.0
H753 H 0.61965 0.57217 0.45407 0.0
H754 H 0.62427 0.45927 0.56173 0.0
H755 H 0.57298 0.51193 0.44717 0.0
H756 H 0.6142 0.33953 0.47373 0.0
H757 H 0.63338 0.40379 0.5105 0.0
H758 H 0.51813 0.46247 0.46797 0.0
H759 H 0.49933 0.39747 0.43053 0.0
C760 C 0.64919 0.51883 0.54238 0.0
C761 C 0.64984 0.5501 0.51113 0.0
C762 C 0.6222 0.48425 0.53862 0.0
C763 C 0.59552 0.48024 0.50343 0.0
C764 C 0.59302 0.51388 0.47473 0.0
C765 C 0.62002 0.54841 0.4785 0.0
C766 C 0.59227 0.36566 0.47368 0.0
C767 C 0.55553 0.36386 0.44928 0.0
C768 C 0.60306 0.40253 0.49491 0.0
C769 C 0.57751 0.43858 0.49179 0.0
C770 C 0.53868 0.4354 0.47055 0.0
C771 C 0.52774 0.39821 0.44943 0.0
H772 H 0.24526 0.90979 0.31362 0.0
H773 H 0.18932 0.8608 0.19967 0.0
H774 H 0.30633 0.8644 0.30306 0.0
H775 H 0.25009 0.81579 0.18893 0.0
H776 H 0.36457 0.74607 0.16378 0.0
H777 H 0.30085 0.7619 0.20444 0.0
H778 H 0.36039 0.87477 0.25206 0.0
H779 H 0.42351 0.85827 0.21219 0.0
C780 C 0.24548 0.88851 0.28694 0.0
C781 C 0.21303 0.8896 0.25688 0.0
C782 C 0.28048 0.8625 0.28087 0.0
C783 C 0.28363 0.83704 0.24471 0.0
C784 C 0.2489 0.83481 0.21723 0.0
C785 C 0.21403 0.86093 0.2232 0.0
C786 C 0.3644 0.77312 0.18457 0.0
C787 C 0.39863 0.80105 0.18506 0.0
C788 C 0.32788 0.78246 0.20751 0.0
C789 C 0.32513 0.81996 0.23106 0.0
C790 C 0.36126 0.84542 0.23472 0.0
C791 C 0.39753 0.83613 0.21178 0.0
H792 H 0.17388 0.99983 0.44045 0.0
H793 H 0.11721 0.94112 0.54916 0.0
H794 H 0.12795 0.06081 0.44965 0.0
H795 H 0.07183 1.00176 0.55867 0.0
H796 H 0.99923 0.11477 0.58123 0.0
H797 H 0.01845 0.05254 0.53974 0.0
H798 H 0.13473 0.11344 0.50361 0.0
H799 H 0.11499 0.17514 0.54426 0.0
C800 C 0.15093 0.9995 0.46569 0.0
C801 C 0.14969 0.96609 0.4946 0.0
C802 C 0.12462 0.03443 0.47098 0.0
C803 C 0.09669 0.03661 0.50535 0.0
C804 C 0.09265 1.00123 0.53167 0.0
C805 C 0.11895 0.96641 0.52639 0.0
C806 C 0.02791 0.1153 0.56275 0.0
C807 C 0.05581 0.14941 0.56586 0.0
C808 C 0.03914 0.07961 0.53935 0.0
C809 C 0.07847 0.07762 0.51888 0.0
C810 C 0.10409 0.11377 0.51856 0.0
C811 C 0.09293 0.1492 0.54198 0.0
H812 H 0.81884 0.36302 0.31083 0.0
H813 H 0.76497 0.40748 0.19416 0.0
H814 H 0.75893 0.31676 0.32103 0.0
H815 H 0.70507 0.36039 0.2038 0.0
H816 H 0.64595 0.24529 0.34583 0.0
H817 H 0.71047 0.26163 0.30688 0.0
H818 H 0.6484 0.36912 0.25098 0.0
H819 H 0.58445 0.35196 0.2891 0.0
C820 C 0.79476 0.36193 0.28667 0.0
C821 C 0.79599 0.38973 0.25233 0.0
C822 C 0.7604 0.33504 0.2923 0.0
C823 C 0.72649 0.33541 0.26368 0.0
C824 C 0.7301 0.35999 0.22697 0.0
C825 C 0.76445 0.38698 0.22141 0.0
C826 C 0.6458 0.27111 0.32354 0.0
C827 C 0.61051 0.29743 0.32023 0.0
C828 C 0.68282 0.28082 0.30161 0.0
C829 C 0.68509 0.31718 0.27631 0.0
C830 C 0.64806 0.34068 0.26974 0.0
C831 C 0.61123 0.33098 0.29164 0.0
H832 H 0.7442 0.58114 0.69541 0.0
H833 H 0.6879 0.64019 0.80427 0.0
H834 H 0.80532 0.62707 0.7021 0.0
H835 H 0.74931 0.68514 0.81182 0.0
H836 H 0.92372 0.64369 0.78881 0.0
H837 H 0.86046 0.6231 0.75138 0.0
H838 H 0.79905 0.73763 0.7922 0.0
H839 H 0.86288 0.75732 0.831 0.0
C840 C 0.74455 0.60446 0.72031 0.0
C841 C 0.71188 0.60628 0.75005 0.0
C842 C 0.77965 0.6307 0.72426 0.0
C843 C 0.78281 0.65921 0.75806 0.0
C844 C 0.74809 0.66379 0.78526 0.0
C845 C 0.71295 0.63762 0.78124 0.0
C846 C 0.89731 0.66527 0.78812 0.0
C847 C 0.89786 0.70185 0.81274 0.0
C848 C 0.86086 0.65358 0.76662 0.0
C849 C 0.82414 0.67824 0.7695 0.0
C850 C 0.82646 0.71743 0.79018 0.0
C851 C 0.86309 0.72906 0.81188 0.0
H852 H 0.55342 0.8776 0.57331 0.0
H853 H 0.44071 0.82837 0.51522 0.0
H854 H 0.56285 0.92566 0.51455 0.0
H855 H 0.44936 0.87744 0.45673 0.0
H856 H 0.58493 1.00153 0.40253 0.0
H857 H 0.54592 0.98143 0.46615 0.0
H858 H 0.50018 0.87046 0.4018 0.0
H859 H 0.53829 0.89115 0.33885 0.0
C860 C 0.52992 0.87796 0.54856 0.0
C861 C 0.49709 0.84832 0.54817 0.0
C862 C 0.53509 0.90585 0.51491 0.0
C863 C 0.50746 0.90468 0.48021 0.0
C864 C 0.47187 0.87834 0.48236 0.0
C865 C 0.46688 0.85025 0.51589 0.0
C866 C 0.56496 0.9739 0.40173 0.0
C867 C 0.56447 0.94773 0.36609 0.0
C868 C 0.54298 0.96213 0.43818 0.0
C869 C 0.52039 0.92398 0.43943 0.0
C870 C 0.51679 0.90023 0.40214 0.0
C871 C 0.53875 0.91191 0.36595 0.0
H872 H 0.3778 0.29881 0.82807 0.0
H873 H 0.43015 0.19099 0.76394 0.0
H874 H 0.32974 0.31036 0.76964 0.0
H875 H 0.38112 0.20174 0.70568 0.0
H876 H 0.2525 0.33618 0.65953 0.0
H877 H 0.27432 0.29453 0.72084 0.0
H878 H 0.38577 0.25515 0.65327 0.0
H879 H 0.36335 0.29577 0.59251 0.0
C880 C 0.37818 0.27681 0.80199 0.0
C881 C 0.40858 0.24478 0.79999 0.0
C882 C 0.35028 0.28318 0.7685 0.0
C883 C 0.3522 0.25757 0.73232 0.0
C884 C 0.37956 0.22273 0.73254 0.0
C885 C 0.40763 0.21652 0.76595 0.0
C886 C 0.28062 0.31699 0.65743 0.0
C887 C 0.30637 0.31896 0.62156 0.0
C888 C 0.29337 0.29353 0.69259 0.0
C889 C 0.33215 0.27199 0.69237 0.0
C890 C 0.35556 0.27087 0.65471 0.0
C891 C 0.34286 0.29426 0.61977 0.0
H892 H 0.97362 0.12303 0.07449 0.0
H893 H 0.07579 0.18781 0.01244 0.0
H894 H 0.96579 0.07699 0.01389 0.0
H895 H 0.06884 0.14085 0.95196 0.0
H896 H 0.94539 0.00402 0.89937 0.0
H897 H 0.98544 0.02596 0.96176 0.0
H898 H 0.01419 0.14412 0.90062 0.0
H899 H 0.97493 0.12179 0.83892 0.0
C900 C 0.99526 0.12661 0.04835 0.0
C901 C 0.02437 0.1599 0.04758 0.0
C902 C 0.99106 0.09988 0.01362 0.0
C903 C 0.01596 0.10591 0.97743 0.0
C904 C 0.04836 0.13613 0.97883 0.0
C905 C 0.05241 0.163 0.01351 0.0
C906 C 0.96186 0.03388 0.8989 0.0
C907 C 0.95708 0.06143 0.86469 0.0
C908 C 0.98446 0.04662 0.93466 0.0
C909 C 1.00263 0.08705 0.93655 0.0
C910 C 1.00113 0.11264 0.90039 0.0
C911 C 0.97843 0.10002 0.86496 0.0
H912 H 0.07591 0.82378 0.25767 0.0
H913 H 0.13485 0.71484 0.31362 0.0
H914 H 0.11981 0.81543 0.19519 0.0
H915 H 0.17805 0.70591 0.25112 0.0
H916 H 0.24348 0.68292 0.13313 0.0
H917 H 0.22822 0.72345 0.19711 0.0
H918 H 0.10964 0.76267 0.14276 0.0
H919 H 0.12541 0.723 0.07939 0.0
C920 C 0.09893 0.79861 0.25702 0.0
C921 C 0.10101 0.76912 0.28987 0.0
C922 C 0.12406 0.7938 0.2212 0.0
C923 C 0.15162 0.7593 0.21752 0.0
C924 C 0.15715 0.7328 0.25262 0.0
C925 C 0.13204 0.73765 0.28843 0.0
C926 C 0.21505 0.70172 0.13445 0.0
C927 C 0.18532 0.69963 0.10176 0.0
C928 C 0.20613 0.72463 0.17113 0.0
C929 C 0.1674 0.74581 0.17546 0.0
C930 C 0.13992 0.74713 0.14067 0.0
C931 C 0.14874 0.72417 0.10431 0.0
H932 H 0.55774 0.11478 0.93748 0.0
H933 H 0.44218 0.16525 0.98833 0.0
H934 H 0.56439 0.06861 0.99798 0.0
H935 H 0.44855 0.11864 0.04903 0.0
H936 H 0.5834 0.99836 0.11313 0.0
H937 H 0.54559 0.01473 0.0478 0.0
H938 H 0.49736 0.12828 0.10542 0.0
H939 H 0.53453 0.11138 0.17006 0.0
C940 C 0.533 0.11501 0.96096 0.0
C941 C 0.50012 0.14448 0.95879 0.0
C942 C 0.53659 0.08821 0.99564 0.0
C943 C 0.50746 0.09055 0.02899 0.0
C944 C 0.47198 0.11666 0.02433 0.0
C945 C 0.46834 0.1434 0.98955 0.0
C946 C 0.56307 0.02572 0.11214 0.0
C947 C 0.56177 0.05378 0.14627 0.0
C948 C 0.54173 0.03532 0.07471 0.0
C949 C 0.51891 0.07316 0.07102 0.0
C950 C 0.5142 0.0987 0.10698 0.0
C951 C 0.53561 0.08919 0.14413 0.0
H952 H 0.08647 0.19648 0.24903 0.0
H953 H 0.14285 0.30651 0.19257 0.0
H954 H 0.13173 0.20485 0.31054 0.0
H955 H 0.18717 0.31567 0.25432 0.0
H956 H 0.25701 0.33723 0.37009 0.0
H957 H 0.23944 0.29787 0.30589 0.0
H958 H 0.12399 0.25568 0.36463 0.0
H959 H 0.14232 0.2939 0.4282 0.0
C960 C 0.1091 0.22199 0.24941 0.0
C961 C 0.11025 0.25159 0.21661 0.0
C962 C 0.13495 0.22689 0.28473 0.0
C963 C 0.16229 0.2616 0.28802 0.0
C964 C 0.16655 0.28855 0.25308 0.0
C965 C 0.1408 0.28355 0.21771 0.0
C966 C 0.22894 0.31784 0.36962 0.0
C967 C 0.20085 0.31847 0.40374 0.0
C968 C 0.21858 0.29574 0.3328 0.0
C969 C 0.17988 0.27425 0.32968 0.0
C970 C 0.15418 0.27149 0.36572 0.0
C971 C 0.16454 0.29348 0.40228 0.0
H972 H 0.96206 0.89075 0.44244 0.0
H973 H 0.075 0.83194 0.49007 0.0
H974 H 0.95813 0.9343 0.5051 0.0
H975 H 0.07155 0.87601 0.55286 0.0
H976 H 0.98954 0.8848 0.67579 0.0
H977 H 0.02469 0.86827 0.61005 0.0
H978 H 0.97925 0.98481 0.55638 0.0
H979 H 0.94317 1.00069 0.62272 0.0
C980 C 0.98682 0.88806 0.46577 0.0
C981 C 0.01813 0.85712 0.46194 0.0
C982 C 0.98482 0.91337 0.50171 0.0
C983 C 0.01404 0.9081 0.53467 0.0
C984 C 0.04798 0.88025 0.52858 0.0
C985 C 0.04999 0.85498 0.49256 0.0
C986 C 0.98857 0.90764 0.65046 0.0
C987 C 0.96335 0.94367 0.65397 0.0
C988 C 0.00888 0.89834 0.61265 0.0
C989 C 0.00419 0.92483 0.57742 0.0
C990 C 0.98287 0.96337 0.58263 0.0
C991 C 0.96257 0.97272 0.6207 0.0
H992 H 0.42346 0.81047 0.7392 0.0
H993 H 0.36893 0.69948 0.68264 0.0
H994 H 0.37522 0.80388 0.79869 0.0
H995 H 0.3215 0.69228 0.74212 0.0
H996 H 0.24576 0.67383 0.85416 0.0
H997 H 0.26725 0.71151 0.79041 0.0
H998 H 0.38006 0.75347 0.85411 0.0
H999 H 0.35826 0.71619 0.91723 0.0
C1000 C 0.40055 0.78521 0.73903 0.0
C1001 C 0.40074 0.75479 0.7069 0.0
C1002 C 0.37293 0.78139 0.77314 0.0
C1003 C 0.34516 0.74696 0.77583 0.0
C1004 C 0.34238 0.71922 0.74133 0.0
C1005 C 0.36992 0.7231 0.70725 0.0
C1006 C 0.27413 0.69276 0.85484 0.0
C1007 C 0.30051 0.69226 0.89029 0.0
C1008 C 0.28664 0.71405 0.81831 0.0
C1009 C 0.32561 0.73516 0.81681 0.0
C1010 C 0.34966 0.73803 0.85398 0.0
C1011 C 0.33732 0.71657 0.89026 0.0
H1012 H 0.50837 0.44078 0.83414 0.0
H1013 H 0.56141 0.55244 0.89076 0.0
H1014 H 0.44637 0.44752 0.87907 0.0
H1015 H 0.49949 0.55977 0.9349 0.0
H1016 H 0.38531 0.57823 0.00588 0.0
H1017 H 0.44969 0.53978 0.98769 0.0
H1018 H 0.39035 0.49645 0.87289 0.0
H1019 H 0.32646 0.53375 0.89189 0.0
C1020 C 0.50715 0.4663 0.85676 0.0
C1021 C 0.53933 0.49658 0.85836 0.0
C1022 C 0.47156 0.47025 0.88242 0.0
C1023 C 0.46739 0.50467 0.91003 0.0
C1024 C 0.5015 0.53268 0.91429 0.0
C1025 C 0.53704 0.52868 0.88869 0.0
C1026 C 0.38563 0.55866 0.97791 0.0
C1027 C 0.35127 0.55884 0.95012 0.0
C1028 C 0.42259 0.53713 0.96715 0.0
C1029 C 0.42566 0.51582 0.92831 0.0
C1030 C 0.38933 0.51222 0.90313 0.0
C1031 C 0.35256 0.53363 0.91391 0.0
H1032 H 0.81459 0.26415 0.0847 0.0
H1033 H 0.70011 0.31937 0.13295 0.0
H1034 H 0.80701 0.20563 0.13399 0.0
H1035 H 0.69197 0.26089 0.18138 0.0
H1036 H 0.71935 0.08638 0.14855 0.0
H1037 H 0.75743 0.1493 0.12783 0.0
H1038 H 0.71012 0.21411 0.23791 0.0
H1039 H 0.67113 0.15056 0.25799 0.0
C1040 C 0.7883 0.26424 0.10644 0.0
C1041 C 0.75732 0.29572 0.10422 0.0
C1042 C 0.78393 0.23071 0.13468 0.0
C1043 C 0.74836 0.22792 0.16101 0.0
C1044 C 0.71981 0.26179 0.1617 0.0
C1045 C 0.72425 0.29528 0.13357 0.0
C1046 C 0.71864 0.11355 0.16919 0.0
C1047 C 0.69238 0.11389 0.20466 0.0
C1048 C 0.74057 0.14973 0.15748 0.0
C1049 C 0.73635 0.18716 0.18085 0.0
C1050 C 0.71349 0.18602 0.21889 0.0
C1051 C 0.69152 0.14962 0.23064 0.0
H1052 H 0.98653 0.56529 0.33797 0.0
H1053 H 0.93386 0.45224 0.39188 0.0
H1054 H 0.04644 0.56023 0.38588 0.0
H1055 H 0.99361 0.44669 0.43915 0.0
H1056 H 0.10621 0.42995 0.51366 0.0
H1057 H 0.04149 0.4666 0.49333 0.0
H1058 H 0.10352 0.51228 0.38107 0.0
H1059 H 0.16764 0.47627 0.4019 0.0
C1060 C 0.98725 0.53992 0.36073 0.0
C1061 C 0.95607 0.50856 0.36047 0.0
C1062 C 0.0216 0.53698 0.38819 0.0
C1063 C 0.02549 0.50254 0.4158 0.0
C1064 C 0.9919 0.47373 0.41848 0.0
C1065 C 0.95762 0.47669 0.39105 0.0
C1066 C 0.10631 0.44957 0.48575 0.0
C1067 C 0.14161 0.45042 0.45922 0.0
C1068 C 0.0692 0.47021 0.47385 0.0
C1069 C 0.06691 0.4919 0.43521 0.0
C1070 C 0.10392 0.49632 0.41118 0.0
C1071 C 0.14081 0.4756 0.423 0.0
H1072 H 0.76732 0.67333 0.64601 0.0
H1073 H 0.72993 0.76946 0.55777 0.0
H1074 H 0.78286 0.72733 0.69853 0.0
H1075 H 0.74686 0.82348 0.60933 0.0
H1076 H 0.78373 0.91912 0.69944 0.0
H1077 H 0.73991 0.86107 0.67366 0.0
H1078 H 0.83995 0.77361 0.7035 0.0
H1079 H 0.88241 0.83119 0.73011 0.0
C1080 C 0.7618 0.70599 0.63816 0.0
C1081 C 0.74826 0.71726 0.59762 0.0
C1082 C 0.7709 0.73694 0.66812 0.0
C1083 C 0.76704 0.77987 0.65805 0.0
C1084 C 0.75002 0.79084 0.61856 0.0
C1085 C 0.7406 0.75983 0.58872 0.0
C1086 C 0.79532 0.88717 0.70213 0.0
C1087 C 0.83651 0.87948 0.71615 0.0
C1088 C 0.77055 0.85397 0.68686 0.0
C1089 C 0.78679 0.81273 0.68523 0.0
C1090 C 0.82615 0.80475 0.70406 0.0
C1091 C 0.85071 0.8378 0.71929 0.0
H1092 H 0.51145 0.57562 0.68385 0.0
H1093 H 0.56805 0.46752 0.62392 0.0
H1094 H 0.45024 0.56899 0.63785 0.0
H1095 H 0.50685 0.46025 0.57866 0.0
H1096 H 0.33423 0.47702 0.62714 0.0
H1097 H 0.39702 0.51666 0.64516 0.0
H1098 H 0.45456 0.47896 0.52753 0.0
H1099 H 0.39108 0.43857 0.51001 0.0
C1100 C 0.51125 0.55104 0.66019 0.0
C1101 C 0.54387 0.52125 0.65835 0.0
C1102 C 0.47616 0.54719 0.63385 0.0
C1103 C 0.47297 0.51337 0.60536 0.0
C1104 C 0.50796 0.48665 0.60022 0.0
C1105 C 0.54304 0.49056 0.62651 0.0
C1106 C 0.35965 0.47875 0.60442 0.0
C1107 C 0.35814 0.45473 0.56743 0.0
C1108 C 0.39573 0.50162 0.61457 0.0
C1109 C 0.43127 0.50056 0.58807 0.0
C1110 C 0.42797 0.47994 0.54889 0.0
C1111 C 0.39159 0.45714 0.53864 0.0
H1112 H 0.80011 0.31563 0.86835 0.0
H1113 H 0.69127 0.25457 0.92225 0.0
H1114 H 0.81215 0.25518 0.82337 0.0
H1115 H 0.7027 0.19396 0.87649 0.0
H1116 H 0.84052 0.1428 0.75241 0.0
H1117 H 0.79863 0.20484 0.77064 0.0
H1118 H 0.75374 0.14085 0.88219 0.0
H1119 H 0.79476 0.0793 0.86317 0.0
C1120 C 0.77797 0.28973 0.86966 0.0
C1121 C 0.74543 0.28936 0.8996 0.0
C1122 C 0.78463 0.25501 0.84351 0.0
C1123 C 0.75888 0.21906 0.84676 0.0
C1124 C 0.72375 0.22063 0.87379 0.0
C1125 C 0.71712 0.25541 0.9 0.0
C1126 C 0.81996 0.14157 0.77962 0.0
C1127 C 0.82058 0.10652 0.80643 0.0
C1128 C 0.79633 0.1772 0.79039 0.0
C1129 C 0.77326 0.17834 0.82831 0.0
C1130 C 0.77065 0.14133 0.85258 0.0
C1131 C 0.79421 0.10588 0.8418 0.0
H1132 H 0.91856 0.49657 0.10727 0.0
H1133 H 0.01455 0.46358 0.19766 0.0
H1134 H 0.97299 0.51046 0.05457 0.0
H1135 H 0.06875 0.47899 0.14601 0.0
H1136 H 0.16475 0.51799 0.05775 0.0
H1137 H 0.10741 0.47228 0.08177 0.0
H1138 H 0.01775 0.57033 0.05217 0.0
H1139 H 0.07468 0.61485 0.02747 0.0
C1140 C 0.95124 0.49158 0.11559 0.0
C1141 C 0.96241 0.48015 0.15685 0.0
C1142 C 0.98239 0.49964 0.08549 0.0
C1143 C 0.02529 0.49706 0.09631 0.0
C1144 C 0.03613 0.48134 0.13634 0.0
C1145 C 0.00499 0.47282 0.16623 0.0
C1146 C 0.13253 0.52881 0.05478 0.0
C1147 C 0.12398 0.57 0.04141 0.0
C1148 C 0.09974 0.50291 0.06894 0.0
C1149 C 0.05799 0.51792 0.06989 0.0
C1150 C 0.04929 0.55742 0.05184 0.0
C1151 C 0.08197 0.58319 0.03785 0.0
H1152 H 0.82049 0.73718 0.41131 0.0
H1153 H 0.70522 0.68263 0.36403 0.0
H1154 H 0.81127 0.79714 0.3644 0.0
H1155 H 0.69551 0.74253 0.31777 0.0
H1156 H 0.72438 0.91644 0.35809 0.0
H1157 H 0.76311 0.85264 0.37408 0.0
H1158 H 0.70924 0.79253 0.2642 0.0
H1159 H 0.66984 0.85702 0.24889 0.0
C1160 C 0.79375 0.73747 0.39009 0.0
C1161 C 0.76287 0.70592 0.39224 0.0
C1162 C 0.78843 0.77187 0.36319 0.0
C1163 C 0.75206 0.77541 0.33805 0.0
C1164 C 0.72389 0.7412 0.33664 0.0
C1165 C 0.72924 0.70684 0.36352 0.0
C1166 C 0.72235 0.89012 0.33643 0.0
C1167 C 0.69428 0.89135 0.30243 0.0
C1168 C 0.74466 0.85342 0.3454 0.0
C1169 C 0.73896 0.81698 0.32074 0.0
C1170 C 0.71395 0.81977 0.28417 0.0
C1171 C 0.69169 0.85672 0.27512 0.0
H1172 H 0.83226 0.5111 0.43952 0.0
H1173 H 0.88743 0.57375 0.54693 0.0
H1174 H 0.87772 0.45046 0.45158 0.0
H1175 H 0.93209 0.51309 0.55969 0.0
H1176 H 1.00255 0.39856 0.58748 0.0
H1177 H 0.9842 0.46099 0.54606 0.0
H1178 H 0.86985 0.3993 0.5051 0.0
H1179 H 0.88867 0.33753 0.5459 0.0
C1180 C 0.85477 0.51228 0.46516 0.0
C1181 C 0.85555 0.54666 0.49297 0.0
C1182 C 0.88078 0.4775 0.47214 0.0
C1183 C 0.90784 0.47628 0.50727 0.0
C1184 C 0.91176 0.51269 0.5323 0.0
C1185 C 0.88587 0.54752 0.52518 0.0
C1186 C 0.97448 0.398 0.56807 0.0
C1187 C 0.94691 0.36353 0.56966 0.0
C1188 C 0.96375 0.43379 0.54464 0.0
C1189 C 0.92533 0.43552 0.52248 0.0
C1190 C 0.89992 0.39921 0.52119 0.0
C1191 C 0.91052 0.36371 0.54471 0.0
H1192 H 0.32997 0.9905 0.57542 0.0
H1193 H 0.38467 0.93898 0.46204 0.0
H1194 H 0.37744 0.05059 0.57108 0.0
H1195 H 0.43117 0.99934 0.45682 0.0
H1196 H 0.38839 0.17211 0.48802 0.0
H1197 H 0.3709 0.10754 0.52452 0.0
H1198 H 0.48359 0.04912 0.47502 0.0
H1199 H 0.50037 0.1144 0.43757 0.0
C1200 C 0.35275 0.9916 0.55004 0.0
C1201 C 0.35267 0.96084 0.51826 0.0
C1202 C 0.37997 0.02607 0.5475 0.0
C1203 C 0.40736 0.03063 0.51292 0.0
C1204 C 0.41054 0.99723 0.48389 0.0
C1205 C 0.38348 0.96266 0.48659 0.0
C1206 C 0.41027 0.14599 0.48644 0.0
C1207 C 0.44535 0.14789 0.45975 0.0
C1208 C 0.40043 0.10881 0.50753 0.0
C1209 C 0.42541 0.07259 0.50215 0.0
C1210 C 0.46326 0.07615 0.47925 0.0
C1211 C 0.47315 0.11359 0.45814 0.0
H1212 H 0.32007 0.13939 0.7115 0.0
H1213 H 0.26255 0.07912 0.81893 0.0
H1214 H 0.25924 0.18497 0.70427 0.0
H1215 H 0.20179 0.12559 0.81255 0.0
H1216 H 0.14511 0.25674 0.68416 0.0
H1217 H 0.20888 0.2365 0.72262 0.0
H1218 H 0.14722 0.12184 0.76248 0.0
H1219 H 0.0841 0.14268 0.72483 0.0
C1220 C 0.29487 0.13671 0.73435 0.0
C1221 C 0.29543 0.1048 0.76493 0.0
C1222 C 0.25999 0.16321 0.73049 0.0
C1223 C 0.22491 0.15836 0.75722 0.0
C1224 C 0.2277 0.12946 0.79071 0.0
C1225 C 0.26257 0.10286 0.79446 0.0
C1226 C 0.14485 0.22825 0.70289 0.0
C1227 C 0.10999 0.20115 0.70172 0.0
C1228 C 0.18143 0.21639 0.72455 0.0
C1229 C 0.18361 0.1772 0.74519 0.0
C1230 C 0.1469 0.1524 0.74743 0.0
C1231 C 0.11057 0.16421 0.72577 0.0
H1232 H 0.17801 0.01516 0.06633 0.0
H1233 H 0.11808 0.06862 0.95657 0.0
H1234 H 0.13305 0.95317 0.06053 0.0
H1235 H 0.07396 0.00663 0.9501 0.0
H1236 H 0.12239 0.83471 0.9717 0.0
H1237 H 0.14042 0.89856 0.00967 0.0
H1238 H 0.02305 0.95503 0.97001 0.0
H1239 H 0.00539 0.89052 0.9316 0.0
C1240 C 0.15455 0.0141 0.04155 0.0
C1241 C 0.15237 0.04611 0.01115 0.0
C1242 C 0.1288 0.97856 0.0382 0.0
C1243 C 0.10054 0.97434 0.00428 0.0
C1244 C 0.09522 0.00861 0.97671 0.0
C1245 C 0.12089 0.04414 0.98013 0.0
C1246 C 0.0997 0.86016 0.97274 0.0
C1247 C 0.06271 0.85801 0.94877 0.0
C1248 C 0.10987 0.89685 0.99462 0.0
C1249 C 0.08339 0.93233 0.99252 0.0
C1250 C 0.04428 0.92848 0.97193 0.0
C1251 C 0.03398 0.8915 0.95022 0.0
H1252 H 0.6842 0.37274 0.71576 0.0
H1253 H 0.74172 0.42806 0.82593 0.0
H1254 H 0.74425 0.32629 0.70742 0.0
H1255 H 0.80187 0.38088 0.81818 0.0
H1256 H 0.919 0.36606 0.72837 0.0
H1257 H 0.8564 0.38625 0.76726 0.0
H1258 H 0.7938 0.27278 0.72542 0.0
H1259 H 0.85703 0.25318 0.68563 0.0
C1260 C 0.70917 0.37407 0.73899 0.0
C1261 C 0.7088 0.40481 0.77079 0.0
C1262 C 0.74361 0.34711 0.73445 0.0
C1263 C 0.77853 0.3504 0.76161 0.0
C1264 C 0.77599 0.37817 0.79611 0.0
C1265 C 0.7415 0.40519 0.8006 0.0
C1266 C 0.89245 0.34462 0.72906 0.0
C1267 C 0.89258 0.30826 0.70407 0.0
C1268 C 0.85644 0.35605 0.75146 0.0
C1269 C 0.81961 0.33148 0.749 0.0
C1270 C 0.82138 0.29273 0.72744 0.0
C1271 C 0.85763 0.28125 0.70502 0.0
H1272 H 0.67471 0.48961 0.92835 0.0
H1273 H 0.61244 0.43427 0.03582 0.0
H1274 H 0.63065 0.55204 0.93503 0.0
H1275 H 0.56928 0.49689 0.04334 0.0
H1276 H 0.62302 0.6686 0.02584 0.0
H1277 H 0.63939 0.60487 0.98709 0.0
H1278 H 0.52023 0.55103 0.02526 0.0
H1279 H 0.50439 0.61546 0.06481 0.0
C1280 C 0.65093 0.49037 0.9528 0.0
C1281 C 0.64799 0.45773 0.98246 0.0
C1282 C 0.62573 0.52621 0.95672 0.0
C1283 C 0.5973 0.53018 0.99052 0.0
C1284 C 0.59089 0.49523 0.017 0.0
C1285 C 0.61598 0.45932 0.01295 0.0
C1286 C 0.59966 0.64376 0.02446 0.0
C1287 C 0.56267 0.64665 0.04833 0.0
C1288 C 0.60885 0.60714 1.00209 0.0
C1289 C 0.58136 0.57238 0.00341 0.0
C1290 C 0.54232 0.57697 0.02403 0.0
C1291 C 0.53304 0.61392 0.04633 0.0
H1292 H 0.32425 0.86923 0.79563 0.0
H1293 H 0.26214 0.92649 0.6891 0.0
H1294 H 0.26465 0.82258 0.80556 0.0
H1295 H 0.20254 0.87885 0.69819 0.0
H1296 H 0.08828 0.8612 0.79048 0.0
H1297 H 0.14961 0.88255 0.75021 0.0
H1298 H 0.2147 0.76975 0.78965 0.0
H1299 H 0.15285 0.74902 0.83084 0.0
C1300 C 0.29833 0.87096 0.7735 0.0
C1301 C 0.29729 0.90234 0.74239 0.0
C1302 C 0.26412 0.84386 0.77893 0.0
C1303 C 0.2281 0.84754 0.75329 0.0
C1304 C 0.22923 0.87589 0.71923 0.0
C1305 C 0.26342 0.90316 0.71393 0.0
C1306 C 0.11511 0.84017 0.78898 0.0
C1307 C 0.1161 0.80364 0.81365 0.0
C1308 C 0.1504 0.85226 0.76578 0.0
C1309 C 0.18759 0.82816 0.76707 0.0
C1310 C 0.18687 0.78932 0.78844 0.0
C1311 C 0.15138 0.77718 0.81168 0.0
H1312 H 0.17172 0.14132 0.26745 0.0
H1313 H 0.26835 0.05661 0.22335 0.0
H1314 H 0.22527 0.1944 0.28273 0.0
H1315 H 0.32186 0.10852 0.24019 0.0
H1316 H 0.41748 0.19694 0.27962 0.0
H1317 H 0.35864 0.17323 0.23565 0.0
H1318 H 0.27301 0.19713 0.33894 0.0
H1319 H 0.33136 0.22169 0.38163 0.0
C1320 C 0.20434 0.13436 0.26037 0.0
C1321 C 0.21599 0.09454 0.24509 0.0
C1322 C 0.23504 0.16471 0.26921 0.0
C1323 C 0.27806 0.1556 0.26361 0.0
C1324 C 0.28917 0.11703 0.24475 0.0
C1325 C 0.25844 0.08693 0.23542 0.0
C1326 C 0.38575 0.19874 0.29202 0.0
C1327 C 0.37884 0.21045 0.33408 0.0
C1328 C 0.35209 0.1847 0.26711 0.0
C1329 C 0.31112 0.18205 0.28403 0.0
C1330 C 0.30389 0.19857 0.32456 0.0
C1331 C 0.33741 0.21254 0.34929 0.0
loop_
_geom_bond_atom_site_label_1
_geom_bond_atom_site_label_2
_geom_bond_distance
_geom_bond_site_symmetry_2
_ccdc_geom_bond_type
In0 O1 2.294 . S
In0 O2 2.326 . S
In0 O6 2.266 . S
In0 O7 2.326 1_455 S
In0 O8 2.266 1_455 S
In0 O9 2.326 . S
In0 O11 2.294 1_455 S
In0 O12 2.326 1_455 S
O1 In0 2.294 . S
O1 C10 1.240 . S
O2 In0 2.326 . S
O2 C10 1.252 . S
C3 O6 1.252 1_655 S
C3 O7 1.260 . S
C4 O11 1.240 . S
C4 O12 1.252 . S
C5 O8 1.252 1_455 S
C5 O9 1.260 . S
O6 In0 2.266 . S
O6 C3 1.252 1_455 S
O7 In0 2.326 1_655 S
O7 C3 1.260 . S
O8 In0 2.266 1_655 S
O8 C5 1.252 1_655 S
O9 In0 2.326 . S
O9 C5 1.260 . S
C10 O1 1.240 . S
C10 O2 1.252 . S
O11 In0 2.294 1_655 S
O11 C4 1.240 . S
O12 In0 2.326 1_655 S
O12 C4 1.252 . S
In13 O14 2.292 1_455 S
In13 O15 2.329 . S
In13 O19 2.262 1_455 S
In13 O20 2.323 1_455 S
In13 O21 2.271 . S
In13 O22 2.328 . S
In13 O24 2.296 . S
In13 O25 2.323 1_455 S
O14 In13 2.292 1_655 S
O14 C23 1.240 1_655 S
O15 In13 2.329 . S
O15 C23 1.252 . S
C16 O19 1.252 . S
C16 O20 1.260 . S
C17 O24 1.240 1_655 S
C17 O25 1.252 . S
C18 O21 1.252 . S
C18 O22 1.260 . S
O19 In13 2.262 1_655 S
O19 C16 1.252 . S
O20 In13 2.323 1_655 S
O20 C16 1.260 . S
O21 In13 2.271 . S
O21 C18 1.252 . S
O22 In13 2.328 . S
O22 C18 1.260 . S
C23 O14 1.240 1_455 S
C23 O15 1.252 . S
O24 In13 2.296 . S
O24 C17 1.240 1_455 S
O25 In13 2.323 1_655 S
O25 C17 1.252 . S
In26 O27 2.294 . S
In26 O28 2.326 . S
In26 O32 2.266 . S
In26 O33 2.326 . S
In26 O34 2.266 . S
In26 O35 2.326 . S
In26 O37 2.294 . S
In26 O38 2.326 . S
O27 In26 2.294 . S
O27 C36 1.240 . S
O28 In26 2.326 . S
O28 C36 1.252 . S
C29 O32 1.252 . S
C29 O33 1.260 . S
C30 O37 1.240 . S
C30 O38 1.252 . S
C31 O34 1.252 . S
C31 O35 1.260 . S
O32 In26 2.266 . S
O32 C29 1.252 . S
O33 In26 2.326 . S
O33 C29 1.260 . S
O34 In26 2.266 . S
O34 C31 1.252 . S
O35 In26 2.326 . S
O35 C31 1.260 . S
C36 O27 1.240 . S
C36 O28 1.252 . S
O37 In26 2.294 . S
O37 C30 1.240 . S
O38 In26 2.326 . S
O38 C30 1.252 . S
In39 O40 2.294 . S
In39 O41 2.326 . S
In39 O45 2.266 . S
In39 O46 2.326 . S
In39 O47 2.266 . S
In39 O48 2.326 . S
In39 O50 2.294 . S
In39 O51 2.326 . S
O40 In39 2.294 . S
O40 C49 1.240 . S
O41 In39 2.326 . S
O41 C49 1.252 . S
C42 O45 1.252 . S
C42 O46 1.260 . S
C43 O50 1.240 . S
C43 O51 1.252 . S
C44 O47 1.252 . S
C44 O48 1.260 . S
O45 In39 2.266 . S
O45 C42 1.252 . S
O46 In39 2.326 . S
O46 C42 1.260 . S
O47 In39 2.266 . S
O47 C44 1.252 . S
O48 In39 2.326 . S
O48 C44 1.260 . S
C49 O40 1.240 . S
C49 O41 1.252 . S
O50 In39 2.294 . S
O50 C43 1.240 . S
O51 In39 2.326 . S
O51 C43 1.252 . S
In52 O53 2.294 1_545 S
In52 O54 2.326 1_545 S
In52 O58 2.266 1_545 S
In52 O59 2.326 . S
In52 O60 2.266 . S
In52 O61 2.326 1_545 S
In52 O63 2.294 . S
In52 O64 2.326 . S
O53 In52 2.294 1_565 S
O53 C62 1.240 . S
O54 In52 2.326 1_565 S
O54 C62 1.252 . S
C55 O58 1.252 1_545 S
C55 O59 1.260 . S
C56 O63 1.240 . S
C56 O64 1.252 . S
C57 O60 1.252 1_565 S
C57 O61 1.260 . S
O58 In52 2.266 1_565 S
O58 C55 1.252 1_565 S
O59 In52 2.326 . S
O59 C55 1.260 . S
O60 In52 2.266 . S
O60 C57 1.252 1_545 S
O61 In52 2.326 1_565 S
O61 C57 1.260 . S
C62 O53 1.240 . S
C62 O54 1.252 . S
O63 In52 2.294 . S
O63 C56 1.240 . S
O64 In52 2.326 . S
O64 C56 1.252 . S
In65 O66 2.294 . S
In65 O67 2.326 . S
In65 O71 2.266 . S
In65 O72 2.326 . S
In65 O73 2.266 . S
In65 O74 2.326 . S
In65 O76 2.294 . S
In65 O77 2.326 . S
O66 In65 2.294 . S
O66 C75 1.240 . S
O67 In65 2.326 . S
O67 C75 1.252 . S
C68 O71 1.252 . S
C68 O72 1.260 . S
C69 O76 1.240 . S
C69 O77 1.252 . S
C70 O73 1.252 . S
C70 O74 1.260 . S
O71 In65 2.266 . S
O71 C68 1.252 . S
O72 In65 2.326 . S
O72 C68 1.260 . S
O73 In65 2.266 . S
O73 C70 1.252 . S
O74 In65 2.326 . S
O74 C70 1.260 . S
C75 O66 1.240 . S
C75 O67 1.252 . S
O76 In65 2.294 . S
O76 C69 1.240 . S
O77 In65 2.326 . S
O77 C69 1.252 . S
In78 O79 2.288 1_545 S
In78 O80 2.323 1_545 S
In78 O84 2.264 1_545 S
In78 O85 2.330 . S
In78 O86 2.269 . S
In78 O87 2.321 1_545 S
In78 O89 2.300 . S
In78 O90 2.329 . S
O79 In78 2.288 1_565 S
O79 C88 1.240 . S
O80 In78 2.323 1_565 S
O80 C88 1.252 . S
C81 O84 1.252 1_545 S
C81 O85 1.260 . S
C82 O89 1.240 . S
C82 O90 1.252 . S
C83 O86 1.252 1_565 S
C83 O87 1.260 . S
O84 In78 2.264 1_565 S
O84 C81 1.252 1_565 S
O85 In78 2.330 . S
O85 C81 1.260 . S
O86 In78 2.269 . S
O86 C83 1.252 1_545 S
O87 In78 2.321 1_565 S
O87 C83 1.260 . S
C88 O79 1.240 . S
C88 O80 1.252 . S
O89 In78 2.300 . S
O89 C82 1.240 . S
O90 In78 2.329 . S
O90 C82 1.252 . S
In91 O92 2.294 . S
In91 O93 2.326 . S
In91 O97 2.266 . S
In91 O98 2.326 1_554 S
In91 O99 2.266 1_554 S
In91 O100 2.326 . S
In91 O102 2.294 1_554 S
In91 O103 2.326 1_554 S
O92 In91 2.294 . S
O92 C101 1.240 . S
O93 In91 2.326 . S
O93 C101 1.252 . S
C94 O97 1.252 1_556 S
C94 O98 1.260 . S
C95 O102 1.240 . S
C95 O103 1.252 . S
C96 O99 1.252 1_554 S
C96 O100 1.260 . S
O97 In91 2.266 . S
O97 C94 1.252 1_554 S
O98 In91 2.326 1_556 S
O98 C94 1.260 . S
O99 In91 2.266 1_556 S
O99 C96 1.252 1_556 S
O100 In91 2.326 . S
O100 C96 1.260 . S
C101 O92 1.240 . S
C101 O93 1.252 . S
O102 In91 2.294 1_556 S
O102 C95 1.240 . S
O103 In91 2.326 1_556 S
O103 C95 1.252 . S
In104 O105 2.295 . S
In104 O106 2.327 . S
In104 O110 2.266 . S
In104 O111 2.325 1_554 S
In104 O112 2.266 1_554 S
In104 O113 2.326 . S
In104 O115 2.293 1_554 S
In104 O116 2.326 1_554 S
O105 In104 2.295 . S
O105 C114 1.240 . S
O106 In104 2.327 . S
O106 C114 1.252 . S
C107 O110 1.252 1_556 S
C107 O111 1.260 . S
C108 O115 1.240 . S
C108 O116 1.252 . S
C109 O112 1.252 1_554 S
C109 O113 1.260 . S
O110 In104 2.266 . S
O110 C107 1.252 1_554 S
O111 In104 2.325 1_556 S
O111 C107 1.260 . S
O112 In104 2.266 1_556 S
O112 C109 1.252 1_556 S
O113 In104 2.326 . S
O113 C109 1.260 . S
C114 O105 1.240 . S
C114 O106 1.252 . S
O115 In104 2.293 1_556 S
O115 C108 1.240 . S
O116 In104 2.326 1_556 S
O116 C108 1.252 . S
In117 O118 2.294 . S
In117 O119 2.326 . S
In117 O123 2.266 . S
In117 O124 2.326 . S
In117 O125 2.266 . S
In117 O126 2.326 . S
In117 O128 2.294 . S
In117 O129 2.326 . S
O118 In117 2.294 . S
O118 C127 1.240 . S
O119 In117 2.326 . S
O119 C127 1.252 . S
C120 O123 1.252 . S
C120 O124 1.260 . S
C121 O128 1.240 . S
C121 O129 1.252 . S
C122 O125 1.252 . S
C122 O126 1.260 . S
O123 In117 2.266 . S
O123 C120 1.252 . S
O124 In117 2.326 . S
O124 C120 1.260 . S
O125 In117 2.266 . S
O125 C122 1.252 . S
O126 In117 2.326 . S
O126 C122 1.260 . S
C127 O118 1.240 . S
C127 O119 1.252 . S
O128 In117 2.294 . S
O128 C121 1.240 . S
O129 In117 2.326 . S
O129 C121 1.252 . S
In130 O131 2.294 . S
In130 O132 2.326 . S
In130 O136 2.266 . S
In130 O137 2.326 . S
In130 O138 2.266 . S
In130 O139 2.326 . S
In130 O141 2.294 . S
In130 O142 2.326 . S
O131 In130 2.294 . S
O131 C140 1.240 . S
O132 In130 2.326 . S
O132 C140 1.252 . S
C133 O136 1.252 . S
C133 O137 1.260 . S
C134 O141 1.240 . S
C134 O142 1.252 . S
C135 O138 1.252 . S
C135 O139 1.260 . S
O136 In130 2.266 . S
O136 C133 1.252 . S
O137 In130 2.326 . S
O137 C133 1.260 . S
O138 In130 2.266 . S
O138 C135 1.252 . S
O139 In130 2.326 . S
O139 C135 1.260 . S
C140 O131 1.240 . S
C140 O132 1.252 . S
O141 In130 2.294 . S
O141 C134 1.240 . S
O142 In130 2.326 . S
O142 C134 1.252 . S
In143 O144 2.294 . S
In143 O145 2.326 . S
In143 O149 2.266 . S
In143 O150 2.326 . S
In143 O151 2.266 . S
In143 O152 2.326 . S
In143 O154 2.294 . S
In143 O155 2.326 . S
O144 In143 2.294 . S
O144 C153 1.240 . S
O145 In143 2.326 . S
O145 C153 1.252 . S
C146 O149 1.252 . S
C146 O150 1.260 . S
C147 O154 1.240 . S
C147 O155 1.252 . S
C148 O151 1.252 . S
C148 O152 1.260 . S
O149 In143 2.266 . S
O149 C146 1.252 . S
O150 In143 2.326 . S
O150 C146 1.260 . S
O151 In143 2.266 . S
O151 C148 1.252 . S
O152 In143 2.326 . S
O152 C148 1.260 . S
C153 O144 1.240 . S
C153 O145 1.252 . S
O154 In143 2.294 . S
O154 C147 1.240 . S
O155 In143 2.326 . S
O155 C147 1.252 . S
H156 C162 0.930 . S
H157 C165 0.931 . S
H158 C167 0.931 . S
H159 C169 0.930 . S
H160 C171 0.930 . S
H161 C173 0.931 . S
C162 H156 0.930 . S
C162 C163 1.380 . S
C162 C164 1.394 . S
C163 C162 1.380 . S
C163 C167 1.382 . S
C164 C162 1.394 . S
C164 C165 1.400 . S
C165 H157 0.931 . S
C165 C164 1.400 . S
C165 C166 1.375 . S
C166 C165 1.375 . S
C166 C167 1.415 . S
C166 C168 1.501 1_655 S
C167 H158 0.931 . S
C167 C163 1.382 . S
C167 C166 1.415 . S
C168 C166 1.501 1_455 S
C168 C169 1.384 . S
C168 C173 1.408 . S
C169 H159 0.930 . S
C169 C168 1.384 . S
C169 C170 1.389 . S
C170 C169 1.389 . S
C170 C171 1.405 . S
C171 H160 0.930 . S
C171 C170 1.405 . S
C171 C172 1.364 . S
C172 C171 1.364 . S
C172 C173 1.400 . S
C173 H161 0.931 . S
C173 C168 1.408 . S
C173 C172 1.400 . S
H174 C180 0.930 . S
H175 C183 0.931 . S
H176 C185 0.931 . S
H177 C187 0.930 . S
H178 C189 0.930 . S
H179 C191 0.931 . S
C180 H174 0.930 . S
C180 C181 1.380 . S
C180 C182 1.394 . S
C181 C180 1.380 . S
C181 C185 1.382 . S
C182 C180 1.394 . S
C182 C183 1.400 . S
C183 H175 0.931 . S
C183 C182 1.400 . S
C183 C184 1.375 . S
C184 C183 1.375 . S
C184 C185 1.415 . S
C184 C186 1.501 1_655 S
C185 H176 0.931 . S
C185 C181 1.382 . S
C185 C184 1.415 . S
C186 C184 1.501 1_455 S
C186 C187 1.384 . S
C186 C191 1.408 . S
C187 H177 0.930 . S
C187 C186 1.384 . S
C187 C188 1.389 . S
C188 C187 1.389 . S
C188 C189 1.405 . S
C189 H178 0.930 . S
C189 C188 1.405 . S
C189 C190 1.364 . S
C190 C189 1.364 . S
C190 C191 1.400 . S
C191 H179 0.931 . S
C191 C186 1.408 . S
C191 C190 1.400 . S
H192 C198 0.930 . S
H193 C201 0.931 . S
H194 C203 0.931 . S
H195 C205 0.930 . S
H196 C207 0.930 . S
H197 C209 0.931 . S
C198 H192 0.930 . S
C198 C199 1.380 . S
C198 C200 1.394 . S
C199 C198 1.380 . S
C199 C203 1.382 . S
C200 C198 1.394 . S
C200 C201 1.400 . S
C201 H193 0.931 . S
C201 C200 1.400 . S
C201 C202 1.375 . S
C202 C201 1.375 . S
C202 C203 1.415 . S
C202 C204 1.501 . S
C203 H194 0.931 . S
C203 C199 1.382 . S
C203 C202 1.415 . S
C204 C202 1.501 . S
C204 C205 1.384 . S
C204 C209 1.408 . S
C205 H195 0.930 . S
C205 C204 1.384 . S
C205 C206 1.389 . S
C206 C205 1.389 . S
C206 C207 1.405 . S
C207 H196 0.930 . S
C207 C206 1.405 . S
C207 C208 1.364 . S
C208 C207 1.364 . S
C208 C209 1.400 . S
C209 H197 0.931 . S
C209 C204 1.408 . S
C209 C208 1.400 . S
H210 C216 0.930 . S
H211 C219 0.931 . S
H212 C221 0.931 . S
H213 C223 0.930 . S
H214 C225 0.930 . S
H215 C227 0.931 . S
C216 H210 0.930 . S
C216 C217 1.380 . S
C216 C218 1.394 . S
C217 C216 1.380 . S
C217 C221 1.382 . S
C218 C216 1.394 . S
C218 C219 1.400 . S
C219 H211 0.931 . S
C219 C218 1.400 . S
C219 C220 1.375 . S
C220 C219 1.375 . S
C220 C221 1.415 . S
C220 C222 1.501 . S
C221 H212 0.931 . S
C221 C217 1.382 . S
C221 C220 1.415 . S
C222 C220 1.501 . S
C222 C223 1.384 . S
C222 C227 1.408 . S
C223 H213 0.930 . S
C223 C222 1.384 . S
C223 C224 1.389 . S
C224 C223 1.389 . S
C224 C225 1.405 . S
C225 H214 0.930 . S
C225 C224 1.405 . S
C225 C226 1.364 . S
C226 C225 1.364 . S
C226 C227 1.400 . S
C227 H215 0.931 . S
C227 C222 1.408 . S
C227 C226 1.400 . S
H228 C234 0.930 . S
H229 C237 0.931 . S
H230 C239 0.931 . S
H231 C241 0.930 . S
H232 C243 0.930 . S
H233 C245 0.931 . S
C234 H228 0.930 . S
C234 C235 1.380 . S
C234 C236 1.394 . S
C235 C234 1.380 . S
C235 C239 1.382 . S
C236 C234 1.394 . S
C236 C237 1.400 . S
C237 H229 0.931 . S
C237 C236 1.400 . S
C237 C238 1.375 . S
C238 C237 1.375 . S
C238 C239 1.415 . S
C238 C240 1.501 1_565 S
C239 H230 0.931 . S
C239 C235 1.382 . S
C239 C238 1.415 . S
C240 C238 1.501 1_545 S
C240 C241 1.384 . S
C240 C245 1.408 . S
C241 H231 0.930 . S
C241 C240 1.384 . S
C241 C242 1.389 . S
C242 C241 1.389 . S
C242 C243 1.405 . S
C243 H232 0.930 . S
C243 C242 1.405 . S
C243 C244 1.364 . S
C244 C243 1.364 . S
C244 C245 1.400 . S
C245 H233 0.931 . S
C245 C240 1.408 . S
C245 C244 1.400 . S
H246 C252 0.930 . S
H247 C255 0.931 . S
H248 C257 0.931 . S
H249 C259 0.930 . S
H250 C261 0.930 . S
H251 C263 0.931 . S
C252 H246 0.930 . S
C252 C253 1.380 . S
C252 C254 1.394 . S
C253 C252 1.380 . S
C253 C257 1.382 . S
C254 C252 1.394 . S
C254 C255 1.400 . S
C255 H247 0.931 . S
C255 C254 1.400 . S
C255 C256 1.375 . S
C256 C255 1.375 . S
C256 C257 1.415 . S
C256 C258 1.501 . S
C257 H248 0.931 . S
C257 C253 1.382 . S
C257 C256 1.415 . S
C258 C256 1.501 . S
C258 C259 1.384 . S
C258 C263 1.408 . S
C259 H249 0.930 . S
C259 C258 1.384 . S
C259 C260 1.389 . S
C260 C259 1.389 . S
C260 C261 1.405 . S
C261 H250 0.930 . S
C261 C260 1.405 . S
C261 C262 1.364 . S
C262 C261 1.364 . S
C262 C263 1.400 . S
C263 H251 0.931 . S
C263 C258 1.408 . S
C263 C262 1.400 . S
H264 C270 0.930 . S
H265 C273 0.931 . S
H266 C275 0.931 . S
H267 C277 0.930 . S
H268 C279 0.930 . S
H269 C281 0.931 . S
C270 H264 0.930 . S
C270 C271 1.380 . S
C270 C272 1.394 . S
C271 C270 1.380 . S
C271 C275 1.382 . S
C272 C270 1.394 . S
C272 C273 1.400 . S
C273 H265 0.931 . S
C273 C272 1.400 . S
C273 C274 1.375 . S
C274 C273 1.375 . S
C274 C275 1.415 . S
C274 C276 1.501 1_545 S
C275 H266 0.931 . S
C275 C271 1.382 . S
C275 C274 1.415 . S
C276 C274 1.501 1_565 S
C276 C277 1.384 . S
C276 C281 1.408 . S
C277 H267 0.930 . S
C277 C276 1.384 . S
C277 C278 1.389 . S
C278 C277 1.389 . S
C278 C279 1.405 . S
C279 H268 0.930 . S
C279 C278 1.405 . S
C279 C280 1.364 . S
C280 C279 1.364 . S
C280 C281 1.400 . S
C281 H269 0.931 . S
C281 C276 1.408 . S
C281 C280 1.400 . S
H282 C288 0.930 . S
H283 C291 0.931 . S
H284 C293 0.931 . S
H285 C295 0.930 . S
H286 C297 0.930 . S
H287 C299 0.931 . S
C288 H282 0.930 . S
C288 C289 1.380 . S
C288 C290 1.394 . S
C289 C288 1.380 . S
C289 C293 1.382 . S
C290 C288 1.394 . S
C290 C291 1.400 . S
C291 H283 0.931 . S
C291 C290 1.400 . S
C291 C292 1.375 . S
C292 C291 1.375 . S
C292 C293 1.415 . S
C292 C294 1.501 1_556 S
C293 H284 0.931 . S
C293 C289 1.382 . S
C293 C292 1.415 . S
C294 C292 1.501 1_554 S
C294 C295 1.384 . S
C294 C299 1.408 . S
C295 H285 0.930 . S
C295 C294 1.384 . S
C295 C296 1.389 . S
C296 C295 1.389 . S
C296 C297 1.405 . S
C297 H286 0.930 . S
C297 C296 1.405 . S
C297 C298 1.364 . S
C298 C297 1.364 . S
C298 C299 1.400 . S
C299 H287 0.931 . S
C299 C294 1.408 . S
C299 C298 1.400 . S
H300 C306 0.930 . S
H301 C309 0.931 . S
H302 C311 0.931 . S
H303 C313 0.930 . S
H304 C315 0.930 . S
H305 C317 0.931 . S
C306 H300 0.930 . S
C306 C307 1.380 . S
C306 C308 1.394 . S
C307 C306 1.380 . S
C307 C311 1.382 . S
C308 C306 1.394 . S
C308 C309 1.400 . S
C309 H301 0.931 . S
C309 C308 1.400 . S
C309 C310 1.375 . S
C310 C309 1.375 . S
C310 C311 1.415 . S
C310 C312 1.501 1_556 S
C311 H302 0.931 . S
C311 C307 1.382 . S
C311 C310 1.415 . S
C312 C310 1.501 1_554 S
C312 C313 1.384 . S
C312 C317 1.408 . S
C313 H303 0.930 . S
C313 C312 1.384 . S
C313 C314 1.389 . S
C314 C313 1.389 . S
C314 C315 1.405 . S
C315 H304 0.930 . S
C315 C314 1.405 . S
C315 C316 1.364 . S
C316 C315 1.364 . S
C316 C317 1.400 . S
C317 H305 0.931 . S
C317 C312 1.408 . S
C317 C316 1.400 . S
H318 C324 0.930 . S
H319 C327 0.931 . S
H320 C329 0.931 . S
H321 C331 0.930 . S
H322 C333 0.930 . S
H323 C335 0.931 . S
C324 H318 0.930 . S
C324 C325 1.380 . S
C324 C326 1.394 . S
C325 C324 1.380 . S
C325 C329 1.382 . S
C326 C324 1.394 . S
C326 C327 1.400 . S
C327 H319 0.931 . S
C327 C326 1.400 . S
C327 C328 1.375 . S
C328 C327 1.375 . S
C328 C329 1.415 . S
C328 C330 1.501 . S
C329 H320 0.931 . S
C329 C325 1.382 . S
C329 C328 1.415 . S
C330 C328 1.501 . S
C330 C331 1.384 . S
C330 C335 1.408 . S
C331 H321 0.930 . S
C331 C330 1.384 . S
C331 C332 1.389 . S
C332 C331 1.389 . S
C332 C333 1.405 . S
C333 H322 0.930 . S
C333 C332 1.405 . S
C333 C334 1.364 . S
C334 C333 1.364 . S
C334 C335 1.400 . S
C335 H323 0.931 . S
C335 C330 1.408 . S
C335 C334 1.400 . S
H336 C342 0.930 . S
H337 C345 0.931 . S
H338 C347 0.931 . S
H339 C349 0.930 . S
H340 C351 0.930 . S
H341 C353 0.931 . S
C342 H336 0.930 . S
C342 C343 1.380 . S
C342 C344 1.394 . S
C343 C342 1.380 . S
C343 C347 1.382 . S
C344 C342 1.394 . S
C344 C345 1.400 . S
C345 H337 0.931 . S
C345 C344 1.400 . S
C345 C346 1.375 . S
C346 C345 1.375 . S
C346 C347 1.415 . S
C346 C348 1.501 . S
C347 H338 0.931 . S
C347 C343 1.382 . S
C347 C346 1.415 . S
C348 C346 1.501 . S
C348 C349 1.384 . S
C348 C353 1.408 . S
C349 H339 0.930 . S
C349 C348 1.384 . S
C349 C350 1.389 . S
C350 C349 1.389 . S
C350 C351 1.405 . S
C351 H340 0.930 . S
C351 C350 1.405 . S
C351 C352 1.364 . S
C352 C351 1.364 . S
C352 C353 1.400 . S
C353 H341 0.931 . S
C353 C348 1.408 . S
C353 C352 1.400 . S
H354 C360 0.930 . S
H355 C363 0.931 . S
H356 C365 0.931 . S
H357 C367 0.930 . S
H358 C369 0.930 . S
H359 C371 0.931 . S
C360 H354 0.930 . S
C360 C361 1.380 . S
C360 C362 1.394 . S
C361 C360 1.380 . S
C361 C365 1.382 . S
C362 C360 1.394 . S
C362 C363 1.400 . S
C363 H355 0.931 . S
C363 C362 1.400 . S
C363 C364 1.375 . S
C364 C363 1.375 . S
C364 C365 1.415 . S
C364 C366 1.501 . S
C365 H356 0.931 . S
C365 C361 1.382 . S
C365 C364 1.415 . S
C366 C364 1.501 . S
C366 C367 1.384 . S
C366 C371 1.408 . S
C367 H357 0.930 . S
C367 C366 1.384 . S
C367 C368 1.389 . S
C368 C367 1.389 . S
C368 C369 1.405 . S
C369 H358 0.930 . S
C369 C368 1.405 . S
C369 C370 1.364 . S
C370 C369 1.364 . S
C370 C371 1.400 . S
C371 H359 0.931 . S
C371 C366 1.408 . S
C371 C370 1.400 . S
H372 C380 0.950 . S
H373 C385 0.950 . S
H374 C382 0.950 . S
H375 C384 0.950 . S
H376 C386 0.950 1_655 S
H377 C388 0.950 1_655 S
H378 C390 0.950 . S
H379 C391 0.950 . S
C380 H372 0.950 . S
C380 C381 1.386 . S
C380 C382 1.391 1_554 S
C381 C380 1.386 . S
C381 C385 1.393 1_455 S
C382 H374 0.950 . S
C382 C380 1.391 1_556 S
C382 C383 1.400 . S
C383 C382 1.400 . S
C383 C384 1.398 1_455 S
C383 C389 1.491 . S
C384 H375 0.950 . S
C384 C383 1.398 1_655 S
C384 C385 1.391 1_556 S
C385 H373 0.950 . S
C385 C381 1.393 1_655 S
C385 C384 1.391 1_554 S
C386 H376 0.950 1_455 S
C386 C387 1.386 . S
C386 C388 1.391 . S
C387 C386 1.386 . S
C387 C391 1.393 . S
C388 H377 0.950 1_455 S
C388 C386 1.391 . S
C388 C389 1.400 . S
C389 C383 1.491 . S
C389 C388 1.400 . S
C389 C390 1.398 . S
C390 H378 0.950 . S
C390 C389 1.398 . S
C390 C391 1.391 . S
C391 H379 0.950 . S
C391 C387 1.393 . S
C391 C390 1.391 . S
H392 C400 0.950 . S
H393 C405 0.950 . S
H394 C402 0.950 . S
H395 C404 0.950 . S
H396 C406 0.950 . S
H397 C408 0.950 . S
H398 C410 0.950 . S
H399 C411 0.950 . S
C400 H392 0.950 . S
C400 C401 1.386 . S
C400 C402 1.391 . S
C401 C400 1.386 . S
C401 C405 1.393 . S
C402 H394 0.950 . S
C402 C400 1.391 . S
C402 C403 1.400 . S
C403 C402 1.400 . S
C403 C404 1.398 . S
C403 C409 1.491 . S
C404 H395 0.950 . S
C404 C403 1.398 . S
C404 C405 1.391 . S
C405 H393 0.950 . S
C405 C401 1.393 . S
C405 C404 1.391 . S
C406 H396 0.950 . S
C406 C407 1.386 . S
C406 C408 1.391 . S
C407 C406 1.386 . S
C407 C411 1.393 . S
C408 H397 0.950 . S
C408 C406 1.391 . S
C408 C409 1.400 . S
C409 C403 1.491 . S
C409 C408 1.400 . S
C409 C410 1.398 . S
C410 H398 0.950 . S
C410 C409 1.398 . S
C410 C411 1.391 . S
C411 H399 0.950 . S
C411 C407 1.393 . S
C411 C410 1.391 . S
H412 C420 0.950 . S
H413 C425 0.950 . S
H414 C422 0.950 . S
H415 C424 0.950 . S
H416 C426 0.950 . S
H417 C428 0.950 . S
H418 C430 0.950 . S
H419 C431 0.950 . S
C420 H412 0.950 . S
C420 C421 1.386 . S
C420 C422 1.391 . S
C421 C420 1.386 . S
C421 C425 1.393 . S
C422 H414 0.950 . S
C422 C420 1.391 . S
C422 C423 1.400 . S
C423 C422 1.400 . S
C423 C424 1.398 . S
C423 C429 1.491 . S
C424 H415 0.950 . S
C424 C423 1.398 . S
C424 C425 1.391 . S
C425 H413 0.950 . S
C425 C421 1.393 . S
C425 C424 1.391 . S
C426 H416 0.950 . S
C426 C427 1.386 . S
C426 C428 1.391 . S
C427 C426 1.386 . S
C427 C431 1.393 . S
C428 H417 0.950 . S
C428 C426 1.391 . S
C428 C429 1.400 . S
C429 C423 1.491 . S
C429 C428 1.400 . S
C429 C430 1.398 . S
C430 H418 0.950 . S
C430 C429 1.398 . S
C430 C431 1.391 . S
C431 H419 0.950 . S
C431 C427 1.393 . S
C431 C430 1.391 . S
H432 C440 0.950 . S
H433 C445 0.950 . S
H434 C442 0.950 . S
H435 C444 0.950 . S
H436 C446 0.950 . S
H437 C448 0.950 . S
H438 C450 0.950 . S
H439 C451 0.950 . S
C440 H432 0.950 . S
C440 C441 1.386 . S
C440 C442 1.391 . S
C441 C440 1.386 . S
C441 C445 1.393 . S
C442 H434 0.950 . S
C442 C440 1.391 . S
C442 C443 1.400 . S
C443 C442 1.400 . S
C443 C444 1.398 . S
C443 C449 1.491 . S
C444 H435 0.950 . S
C444 C443 1.398 . S
C444 C445 1.391 . S
C445 H433 0.950 . S
C445 C441 1.393 . S
C445 C444 1.391 . S
C446 H436 0.950 . S
C446 C447 1.386 . S
C446 C448 1.391 . S
C447 C446 1.386 . S
C447 C451 1.393 . S
C448 H437 0.950 . S
C448 C446 1.391 . S
C448 C449 1.400 . S
C449 C443 1.491 . S
C449 C448 1.400 . S
C449 C450 1.398 . S
C450 H438 0.950 . S
C450 C449 1.398 . S
C450 C451 1.391 . S
C451 H439 0.950 . S
C451 C447 1.393 . S
C451 C450 1.391 . S
H452 C460 0.950 . S
H453 C465 0.950 . S
H454 C462 0.950 . S
H455 C464 0.950 . S
H456 C466 0.950 1_655 S
H457 C468 0.950 1_655 S
H458 C470 0.950 . S
H459 C471 0.950 . S
C460 H452 0.950 . S
C460 C461 1.386 . S
C460 C462 1.391 . S
C461 C460 1.386 . S
C461 C465 1.393 1_455 S
C462 H454 0.950 . S
C462 C460 1.391 . S
C462 C463 1.400 . S
C463 C462 1.400 . S
C463 C464 1.398 1_455 S
C463 C469 1.491 . S
C464 H455 0.950 . S
C464 C463 1.398 1_655 S
C464 C465 1.391 . S
C465 H453 0.950 . S
C465 C461 1.393 1_655 S
C465 C464 1.391 . S
C466 H456 0.950 1_455 S
C466 C467 1.386 . S
C466 C468 1.391 . S
C467 C466 1.386 . S
C467 C471 1.393 . S
C468 H457 0.950 1_455 S
C468 C466 1.391 . S
C468 C469 1.400 . S
C469 C463 1.491 . S
C469 C468 1.400 . S
C469 C470 1.398 . S
C470 H458 0.950 . S
C470 C469 1.398 . S
C470 C471 1.391 . S
C471 H459 0.950 . S
C471 C467 1.393 . S
C471 C470 1.391 . S
H472 C480 0.950 . S
H473 C485 0.950 . S
H474 C482 0.950 . S
H475 C484 0.950 . S
H476 C486 0.950 . S
H477 C488 0.950 . S
H478 C490 0.950 . S
H479 C491 0.950 . S
C480 H472 0.950 . S
C480 C481 1.386 . S
C480 C482 1.391 . S
C481 C480 1.386 . S
C481 C485 1.393 . S
C482 H474 0.950 . S
C482 C480 1.391 . S
C482 C483 1.400 . S
C483 C482 1.400 . S
C483 C484 1.398 . S
C483 C489 1.491 . S
C484 H475 0.950 . S
C484 C483 1.398 . S
C484 C485 1.391 . S
C485 H473 0.950 . S
C485 C481 1.393 . S
C485 C484 1.391 . S
C486 H476 0.950 . S
C486 C487 1.386 . S
C486 C488 1.391 . S
C487 C486 1.386 . S
C487 C491 1.393 . S
C488 H477 0.950 . S
C488 C486 1.391 . S
C488 C489 1.400 . S
C489 C483 1.491 . S
C489 C488 1.400 . S
C489 C490 1.398 . S
C490 H478 0.950 . S
C490 C489 1.398 . S
C490 C491 1.391 . S
C491 H479 0.950 . S
C491 C487 1.393 . S
C491 C490 1.391 . S
H492 C500 0.950 . S
H493 C505 0.950 . S
H494 C502 0.950 . S
H495 C504 0.950 . S
H496 C506 0.950 . S
H497 C508 0.950 . S
H498 C510 0.950 . S
H499 C511 0.950 . S
C500 H492 0.950 . S
C500 C501 1.386 . S
C500 C502 1.391 1_556 S
C501 C500 1.386 . S
C501 C505 1.393 . S
C502 H494 0.950 . S
C502 C500 1.391 1_554 S
C502 C503 1.400 . S
C503 C502 1.400 . S
C503 C504 1.398 . S
C503 C509 1.491 . S
C504 H495 0.950 . S
C504 C503 1.398 . S
C504 C505 1.391 1_554 S
C505 H493 0.950 . S
C505 C501 1.393 . S
C505 C504 1.391 1_556 S
C506 H496 0.950 . S
C506 C507 1.386 . S
C506 C508 1.391 . S
C507 C506 1.386 . S
C507 C511 1.393 . S
C508 H497 0.950 . S
C508 C506 1.391 . S
C508 C509 1.400 . S
C509 C503 1.491 . S
C509 C508 1.400 . S
C509 C510 1.398 . S
C510 H498 0.950 . S
C510 C509 1.398 . S
C510 C511 1.391 . S
C511 H499 0.950 . S
C511 C507 1.393 . S
C511 C510 1.391 . S
H512 C520 0.950 . S
H513 C525 0.950 . S
H514 C522 0.950 . S
H515 C524 0.950 . S
H516 C526 0.950 . S
H517 C528 0.950 . S
H518 C530 0.950 . S
H519 C531 0.950 . S
C520 H512 0.950 . S
C520 C521 1.386 . S
C520 C522 1.391 . S
C521 C520 1.386 . S
C521 C525 1.393 . S
C522 H514 0.950 . S
C522 C520 1.391 . S
C522 C523 1.400 . S
C523 C522 1.400 . S
C523 C524 1.398 . S
C523 C529 1.491 . S
C524 H515 0.950 . S
C524 C523 1.398 . S
C524 C525 1.391 . S
C525 H513 0.950 . S
C525 C521 1.393 . S
C525 C524 1.391 . S
C526 H516 0.950 . S
C526 C527 1.386 . S
C526 C528 1.391 . S
C527 C526 1.386 . S
C527 C531 1.393 . S
C528 H517 0.950 . S
C528 C526 1.391 . S
C528 C529 1.400 . S
C529 C523 1.491 . S
C529 C528 1.400 . S
C529 C530 1.398 . S
C530 H518 0.950 . S
C530 C529 1.398 . S
C530 C531 1.391 . S
C531 H519 0.950 . S
C531 C527 1.393 . S
C531 C530 1.391 . S
H532 C540 0.950 . S
H533 C545 0.950 . S
H534 C542 0.950 . S
H535 C544 0.950 . S
H536 C546 0.950 1_565 S
H537 C548 0.950 1_565 S
H538 C550 0.950 . S
H539 C551 0.950 . S
C540 H532 0.950 . S
C540 C541 1.386 . S
C540 C542 1.391 1_455 S
C541 C540 1.386 . S
C541 C545 1.393 1_545 S
C542 H534 0.950 . S
C542 C540 1.391 1_655 S
C542 C543 1.400 . S
C543 C542 1.400 . S
C543 C544 1.398 1_545 S
C543 C549 1.491 . S
C544 H535 0.950 . S
C544 C543 1.398 1_565 S
C544 C545 1.391 1_655 S
C545 H533 0.950 . S
C545 C541 1.393 1_565 S
C545 C544 1.391 1_455 S
C546 H536 0.950 1_545 S
C546 C547 1.386 . S
C546 C548 1.391 . S
C547 C546 1.386 . S
C547 C551 1.393 . S
C548 H537 0.950 1_545 S
C548 C546 1.391 . S
C548 C549 1.400 . S
C549 C543 1.491 . S
C549 C548 1.400 . S
C549 C550 1.398 . S
C550 H538 0.950 . S
C550 C549 1.398 . S
C550 C551 1.391 . S
C551 H539 0.950 . S
C551 C547 1.393 . S
C551 C550 1.391 . S
H552 C560 0.950 . S
H553 C565 0.950 . S
H554 C562 0.950 . S
H555 C564 0.950 . S
H556 C566 0.950 . S
H557 C568 0.950 . S
H558 C570 0.950 . S
H559 C571 0.950 . S
C560 H552 0.950 . S
C560 C561 1.386 . S
C560 C562 1.391 . S
C561 C560 1.386 . S
C561 C565 1.393 . S
C562 H554 0.950 . S
C562 C560 1.391 . S
C562 C563 1.400 . S
C563 C562 1.400 . S
C563 C564 1.398 . S
C563 C569 1.491 . S
C564 H555 0.950 . S
C564 C563 1.398 . S
C564 C565 1.391 . S
C565 H553 0.950 . S
C565 C561 1.393 . S
C565 C564 1.391 . S
C566 H556 0.950 . S
C566 C567 1.386 . S
C566 C568 1.391 . S
C567 C566 1.386 . S
C567 C571 1.393 . S
C568 H557 0.950 . S
C568 C566 1.391 . S
C568 C569 1.400 . S
C569 C563 1.491 . S
C569 C568 1.400 . S
C569 C570 1.398 . S
C570 H558 0.950 . S
C570 C569 1.398 . S
C570 C571 1.391 . S
C571 H559 0.950 . S
C571 C567 1.393 . S
C571 C570 1.391 . S
H572 C580 0.950 . S
H573 C585 0.950 . S
H574 C582 0.950 . S
H575 C584 0.950 . S
H576 C586 0.950 . S
H577 C588 0.950 1_545 S
H578 C590 0.950 . S
H579 C591 0.950 . S
C580 H572 0.950 . S
C580 C581 1.386 . S
C580 C582 1.391 . S
C581 C580 1.386 . S
C581 C585 1.393 1_565 S
C582 H574 0.950 . S
C582 C580 1.391 . S
C582 C583 1.400 . S
C583 C582 1.400 . S
C583 C584 1.398 1_565 S
C583 C589 1.491 . S
C584 H575 0.950 . S
C584 C583 1.398 1_545 S
C584 C585 1.391 . S
C585 H573 0.950 . S
C585 C581 1.393 1_545 S
C585 C584 1.391 . S
C586 H576 0.950 . S
C586 C587 1.386 . S
C586 C588 1.391 . S
C587 C586 1.386 . S
C587 C591 1.393 . S
C588 H577 0.950 1_565 S
C588 C586 1.391 . S
C588 C589 1.400 . S
C589 C583 1.491 . S
C589 C588 1.400 . S
C589 C590 1.398 . S
C590 H578 0.950 . S
C590 C589 1.398 . S
C590 C591 1.391 . S
C591 H579 0.950 . S
C591 C587 1.393 . S
C591 C590 1.391 . S
H592 C600 0.950 . S
H593 C605 0.950 . S
H594 C602 0.950 . S
H595 C604 0.950 . S
H596 C606 0.950 . S
H597 C608 0.950 . S
H598 C610 0.950 . S
H599 C611 0.950 . S
C600 H592 0.950 . S
C600 C601 1.386 . S
C600 C602 1.391 . S
C601 C600 1.386 . S
C601 C605 1.393 . S
C602 H594 0.950 . S
C602 C600 1.391 . S
C602 C603 1.400 . S
C603 C602 1.400 . S
C603 C604 1.398 . S
C603 C609 1.491 . S
C604 H595 0.950 . S
C604 C603 1.398 . S
C604 C605 1.391 . S
C605 H593 0.950 . S
C605 C601 1.393 . S
C605 C604 1.391 . S
C606 H596 0.950 . S
C606 C607 1.386 . S
C606 C608 1.391 . S
C607 C606 1.386 . S
C607 C611 1.393 . S
C608 H597 0.950 . S
C608 C606 1.391 . S
C608 C609 1.400 . S
C609 C603 1.491 . S
C609 C608 1.400 . S
C609 C610 1.398 . S
C610 H598 0.950 . S
C610 C609 1.398 . S
C610 C611 1.391 . S
C611 H599 0.950 . S
C611 C607 1.393 . S
C611 C610 1.391 . S
H612 C620 0.950 . S
H613 C625 0.950 . S
H614 C622 0.950 . S
H615 C624 0.950 . S
H616 C626 0.950 . S
H617 C628 0.950 . S
H618 C630 0.950 1_545 S
H619 C631 0.950 1_545 S
C620 H612 0.950 . S
C620 C621 1.386 1_545 S
C620 C622 1.391 1_455 S
C621 C620 1.386 1_565 S
C621 C625 1.393 . S
C622 H614 0.950 . S
C622 C620 1.391 1_655 S
C622 C623 1.400 1_545 S
C623 C622 1.400 1_565 S
C623 C624 1.398 . S
C623 C629 1.491 . S
C624 H615 0.950 . S
C624 C623 1.398 . S
C624 C625 1.391 1_655 S
C625 H613 0.950 . S
C625 C621 1.393 . S
C625 C624 1.391 1_455 S
C626 H616 0.950 . S
C626 C627 1.386 . S
C626 C628 1.391 . S
C627 C626 1.386 . S
C627 C631 1.393 . S
C628 H617 0.950 . S
C628 C626 1.391 . S
C628 C629 1.400 . S
C629 C623 1.491 . S
C629 C628 1.400 . S
C629 C630 1.398 . S
C630 H618 0.950 1_565 S
C630 C629 1.398 . S
C630 C631 1.391 . S
C631 H619 0.950 1_565 S
C631 C627 1.393 . S
C631 C630 1.391 . S
H632 C640 0.950 . S
H633 C645 0.950 . S
H634 C642 0.950 . S
H635 C644 0.950 . S
H636 C646 0.950 . S
H637 C648 0.950 . S
H638 C650 0.950 . S
H639 C651 0.950 . S
C640 H632 0.950 . S
C640 C641 1.386 . S
C640 C642 1.391 . S
C641 C640 1.386 . S
C641 C645 1.393 . S
C642 H634 0.950 . S
C642 C640 1.391 . S
C642 C643 1.400 . S
C643 C642 1.400 . S
C643 C644 1.398 . S
C643 C649 1.491 . S
C644 H635 0.950 . S
C644 C643 1.398 . S
C644 C645 1.391 . S
C645 H633 0.950 . S
C645 C641 1.393 . S
C645 C644 1.391 . S
C646 H636 0.950 . S
C646 C647 1.386 . S
C646 C648 1.391 . S
C647 C646 1.386 . S
C647 C651 1.393 . S
C648 H637 0.950 . S
C648 C646 1.391 . S
C648 C649 1.400 . S
C649 C643 1.491 . S
C649 C648 1.400 . S
C649 C650 1.398 . S
C650 H638 0.950 . S
C650 C649 1.398 . S
C650 C651 1.391 . S
C651 H639 0.950 . S
C651 C647 1.393 . S
C651 C650 1.391 . S
H652 C660 0.950 . S
H653 C665 0.950 . S
H654 C662 0.950 . S
H655 C664 0.950 . S
H656 C666 0.950 . S
H657 C668 0.950 1_565 S
H658 C670 0.950 . S
H659 C671 0.950 . S
C660 H652 0.950 . S
C660 C661 1.386 . S
C660 C662 1.391 . S
C661 C660 1.386 . S
C661 C665 1.393 1_545 S
C662 H654 0.950 . S
C662 C660 1.391 . S
C662 C663 1.400 . S
C663 C662 1.400 . S
C663 C664 1.398 1_545 S
C663 C669 1.491 . S
C664 H655 0.950 . S
C664 C663 1.398 1_565 S
C664 C665 1.391 . S
C665 H653 0.950 . S
C665 C661 1.393 1_565 S
C665 C664 1.391 . S
C666 H656 0.950 . S
C666 C667 1.386 . S
C666 C668 1.391 . S
C667 C666 1.386 . S
C667 C671 1.393 . S
C668 H657 0.950 1_545 S
C668 C666 1.391 . S
C668 C669 1.400 . S
C669 C663 1.491 . S
C669 C668 1.400 . S
C669 C670 1.398 . S
C670 H658 0.950 . S
C670 C669 1.398 . S
C670 C671 1.391 . S
C671 H659 0.950 . S
C671 C667 1.393 . S
C671 C670 1.391 . S
H672 C680 0.950 . S
H673 C685 0.950 . S
H674 C682 0.950 . S
H675 C684 0.950 . S
H676 C686 0.950 . S
H677 C688 0.950 . S
H678 C690 0.950 . S
H679 C691 0.950 . S
C680 H672 0.950 . S
C680 C681 1.386 . S
C680 C682 1.391 . S
C681 C680 1.386 . S
C681 C685 1.393 . S
C682 H674 0.950 . S
C682 C680 1.391 . S
C682 C683 1.400 . S
C683 C682 1.400 . S
C683 C684 1.398 . S
C683 C689 1.491 . S
C684 H675 0.950 . S
C684 C683 1.398 . S
C684 C685 1.391 . S
C685 H673 0.950 . S
C685 C681 1.393 . S
C685 C684 1.391 . S
C686 H676 0.950 . S
C686 C687 1.386 . S
C686 C688 1.391 . S
C687 C686 1.386 . S
C687 C691 1.393 . S
C688 H677 0.950 . S
C688 C686 1.391 . S
C688 C689 1.400 . S
C689 C683 1.491 . S
C689 C688 1.400 . S
C689 C690 1.398 . S
C690 H678 0.950 . S
C690 C689 1.398 . S
C690 C691 1.391 . S
C691 H679 0.950 . S
C691 C687 1.393 . S
C691 C690 1.391 . S
H692 C700 0.950 . S
H693 C705 0.950 . S
H694 C702 0.950 . S
H695 C704 0.950 . S
H696 C706 0.950 . S
H697 C708 0.950 . S
H698 C710 0.950 . S
H699 C711 0.950 . S
C700 H692 0.950 . S
C700 C701 1.386 1_565 S
C700 C702 1.391 . S
C701 C700 1.386 1_545 S
C701 C705 1.393 . S
C702 H694 0.950 . S
C702 C700 1.391 . S
C702 C703 1.400 . S
C703 C702 1.400 . S
C703 C704 1.398 . S
C703 C709 1.491 . S
C704 H695 0.950 . S
C704 C703 1.398 . S
C704 C705 1.391 1_565 S
C705 H693 0.950 . S
C705 C701 1.393 . S
C705 C704 1.391 1_545 S
C706 H696 0.950 . S
C706 C707 1.386 . S
C706 C708 1.391 . S
C707 C706 1.386 . S
C707 C711 1.393 . S
C708 H697 0.950 . S
C708 C706 1.391 . S
C708 C709 1.400 . S
C709 C703 1.491 . S
C709 C708 1.400 . S
C709 C710 1.398 . S
C710 H698 0.950 . S
C710 C709 1.398 . S
C710 C711 1.391 . S
C711 H699 0.950 . S
C711 C707 1.393 . S
C711 C710 1.391 . S
H712 C720 0.950 . S
H713 C725 0.950 . S
H714 C722 0.950 . S
H715 C724 0.950 . S
H716 C726 0.950 . S
H717 C728 0.950 . S
H718 C730 0.950 1_554 S
H719 C731 0.950 1_554 S
C720 H712 0.950 . S
C720 C721 1.386 1_554 S
C720 C722 1.391 . S
C721 C720 1.386 1_556 S
C721 C725 1.393 . S
C722 H714 0.950 . S
C722 C720 1.391 . S
C722 C723 1.400 1_554 S
C723 C722 1.400 1_556 S
C723 C724 1.398 . S
C723 C729 1.491 . S
C724 H715 0.950 . S
C724 C723 1.398 . S
C724 C725 1.391 . S
C725 H713 0.950 . S
C725 C721 1.393 . S
C725 C724 1.391 . S
C726 H716 0.950 . S
C726 C727 1.386 . S
C726 C728 1.391 . S
C727 C726 1.386 . S
C727 C731 1.393 . S
C728 H717 0.950 . S
C728 C726 1.391 . S
C728 C729 1.400 . S
C729 C723 1.491 . S
C729 C728 1.400 . S
C729 C730 1.398 . S
C730 H718 0.950 1_556 S
C730 C729 1.398 . S
C730 C731 1.391 . S
C731 H719 0.950 1_556 S
C731 C727 1.393 . S
C731 C730 1.391 . S
H732 C740 0.950 . S
H733 C745 0.950 . S
H734 C742 0.950 . S
H735 C744 0.950 . S
H736 C746 0.950 . S
H737 C748 0.950 . S
H738 C750 0.950 . S
H739 C751 0.950 . S
C740 H732 0.950 . S
C740 C741 1.386 . S
C740 C742 1.391 . S
C741 C740 1.386 . S
C741 C745 1.393 . S
C742 H734 0.950 . S
C742 C740 1.391 . S
C742 C743 1.400 . S
C743 C742 1.400 . S
C743 C744 1.398 . S
C743 C749 1.491 . S
C744 H735 0.950 . S
C744 C743 1.398 . S
C744 C745 1.391 . S
C745 H733 0.950 . S
C745 C741 1.393 . S
C745 C744 1.391 . S
C746 H736 0.950 . S
C746 C747 1.386 . S
C746 C748 1.391 . S
C747 C746 1.386 . S
C747 C751 1.393 . S
C748 H737 0.950 . S
C748 C746 1.391 . S
C748 C749 1.400 . S
C749 C743 1.491 . S
C749 C748 1.400 . S
C749 C750 1.398 . S
C750 H738 0.950 . S
C750 C749 1.398 . S
C750 C751 1.391 . S
C751 H739 0.950 . S
C751 C747 1.393 . S
C751 C750 1.391 . S
H752 C760 0.950 . S
H753 C765 0.950 . S
H754 C762 0.950 . S
H755 C764 0.950 . S
H756 C766 0.950 . S
H757 C768 0.950 . S
H758 C770 0.950 . S
H759 C771 0.950 . S
C760 H752 0.950 . S
C760 C761 1.386 . S
C760 C762 1.391 . S
C761 C760 1.386 . S
C761 C765 1.393 . S
C762 H754 0.950 . S
C762 C760 1.391 . S
C762 C763 1.400 . S
C763 C762 1.400 . S
C763 C764 1.398 . S
C763 C769 1.491 . S
C764 H755 0.950 . S
C764 C763 1.398 . S
C764 C765 1.391 . S
C765 H753 0.950 . S
C765 C761 1.393 . S
C765 C764 1.391 . S
C766 H756 0.950 . S
C766 C767 1.386 . S
C766 C768 1.391 . S
C767 C766 1.386 . S
C767 C771 1.393 . S
C768 H757 0.950 . S
C768 C766 1.391 . S
C768 C769 1.400 . S
C769 C763 1.491 . S
C769 C768 1.400 . S
C769 C770 1.398 . S
C770 H758 0.950 . S
C770 C769 1.398 . S
C770 C771 1.391 . S
C771 H759 0.950 . S
C771 C767 1.393 . S
C771 C770 1.391 . S
H772 C780 0.950 . S
H773 C785 0.950 . S
H774 C782 0.950 . S
H775 C784 0.950 . S
H776 C786 0.950 . S
H777 C788 0.950 . S
H778 C790 0.950 . S
H779 C791 0.950 . S
C780 H772 0.950 . S
C780 C781 1.386 . S
C780 C782 1.391 . S
C781 C780 1.386 . S
C781 C785 1.393 . S
C782 H774 0.950 . S
C782 C780 1.391 . S
C782 C783 1.400 . S
C783 C782 1.400 . S
C783 C784 1.398 . S
C783 C789 1.491 . S
C784 H775 0.950 . S
C784 C783 1.398 . S
C784 C785 1.391 . S
C785 H773 0.950 . S
C785 C781 1.393 . S
C785 C784 1.391 . S
C786 H776 0.950 . S
C786 C787 1.386 . S
C786 C788 1.391 . S
C787 C786 1.386 . S
C787 C791 1.393 . S
C788 H777 0.950 . S
C788 C786 1.391 . S
C788 C789 1.400 . S
C789 C783 1.491 . S
C789 C788 1.400 . S
C789 C790 1.398 . S
C790 H778 0.950 . S
C790 C789 1.398 . S
C790 C791 1.391 . S
C791 H779 0.950 . S
C791 C787 1.393 . S
C791 C790 1.391 . S
H792 C800 0.950 . S
H793 C805 0.950 . S
H794 C802 0.950 . S
H795 C804 0.950 . S
H796 C806 0.950 . S
H797 C808 0.950 . S
H798 C810 0.950 . S
H799 C811 0.950 . S
C800 H792 0.950 . S
C800 C801 1.386 1_545 S
C800 C802 1.391 . S
C801 C800 1.386 1_565 S
C801 C805 1.393 . S
C802 H794 0.950 . S
C802 C800 1.391 . S
C802 C803 1.400 . S
C803 C802 1.400 . S
C803 C804 1.398 . S
C803 C809 1.491 . S
C804 H795 0.950 . S
C804 C803 1.398 . S
C804 C805 1.391 1_545 S
C805 H793 0.950 . S
C805 C801 1.393 . S
C805 C804 1.391 1_565 S
C806 H796 0.950 . S
C806 C807 1.386 . S
C806 C808 1.391 . S
C807 C806 1.386 . S
C807 C811 1.393 . S
C808 H797 0.950 . S
C808 C806 1.391 . S
C808 C809 1.400 . S
C809 C803 1.491 . S
C809 C808 1.400 . S
C809 C810 1.398 . S
C810 H798 0.950 . S
C810 C809 1.398 . S
C810 C811 1.391 . S
C811 H799 0.950 . S
C811 C807 1.393 . S
C811 C810 1.391 . S
H812 C820 0.950 . S
H813 C825 0.950 . S
H814 C822 0.950 . S
H815 C824 0.950 . S
H816 C826 0.950 . S
H817 C828 0.950 . S
H818 C830 0.950 . S
H819 C831 0.950 . S
C820 H812 0.950 . S
C820 C821 1.386 . S
C820 C822 1.391 . S
C821 C820 1.386 . S
C821 C825 1.393 . S
C822 H814 0.950 . S
C822 C820 1.391 . S
C822 C823 1.400 . S
C823 C822 1.400 . S
C823 C824 1.398 . S
C823 C829 1.491 . S
C824 H815 0.950 . S
C824 C823 1.398 . S
C824 C825 1.391 . S
C825 H813 0.950 . S
C825 C821 1.393 . S
C825 C824 1.391 . S
C826 H816 0.950 . S
C826 C827 1.386 . S
C826 C828 1.391 . S
C827 C826 1.386 . S
C827 C831 1.393 . S
C828 H817 0.950 . S
C828 C826 1.391 . S
C828 C829 1.400 . S
C829 C823 1.491 . S
C829 C828 1.400 . S
C829 C830 1.398 . S
C830 H818 0.950 . S
C830 C829 1.398 . S
C830 C831 1.391 . S
C831 H819 0.950 . S
C831 C827 1.393 . S
C831 C830 1.391 . S
H832 C840 0.950 . S
H833 C845 0.950 . S
H834 C842 0.950 . S
H835 C844 0.950 . S
H836 C846 0.950 . S
H837 C848 0.950 . S
H838 C850 0.950 . S
H839 C851 0.950 . S
C840 H832 0.950 . S
C840 C841 1.386 . S
C840 C842 1.391 . S
C841 C840 1.386 . S
C841 C845 1.393 . S
C842 H834 0.950 . S
C842 C840 1.391 . S
C842 C843 1.400 . S
C843 C842 1.400 . S
C843 C844 1.398 . S
C843 C849 1.491 . S
C844 H835 0.950 . S
C844 C843 1.398 . S
C844 C845 1.391 . S
C845 H833 0.950 . S
C845 C841 1.393 . S
C845 C844 1.391 . S
C846 H836 0.950 . S
C846 C847 1.386 . S
C846 C848 1.391 . S
C847 C846 1.386 . S
C847 C851 1.393 . S
C848 H837 0.950 . S
C848 C846 1.391 . S
C848 C849 1.400 . S
C849 C843 1.491 . S
C849 C848 1.400 . S
C849 C850 1.398 . S
C850 H838 0.950 . S
C850 C849 1.398 . S
C850 C851 1.391 . S
C851 H839 0.950 . S
C851 C847 1.393 . S
C851 C850 1.391 . S
H852 C860 0.950 . S
H853 C865 0.950 . S
H854 C862 0.950 . S
H855 C864 0.950 . S
H856 C866 0.950 . S
H857 C868 0.950 . S
H858 C870 0.950 . S
H859 C871 0.950 . S
C860 H852 0.950 . S
C860 C861 1.386 . S
C860 C862 1.391 . S
C861 C860 1.386 . S
C861 C865 1.393 . S
C862 H854 0.950 . S
C862 C860 1.391 . S
C862 C863 1.400 . S
C863 C862 1.400 . S
C863 C864 1.398 . S
C863 C869 1.491 . S
C864 H855 0.950 . S
C864 C863 1.398 . S
C864 C865 1.391 . S
C865 H853 0.950 . S
C865 C861 1.393 . S
C865 C864 1.391 . S
C866 H856 0.950 . S
C866 C867 1.386 . S
C866 C868 1.391 . S
C867 C866 1.386 . S
C867 C871 1.393 . S
C868 H857 0.950 . S
C868 C866 1.391 . S
C868 C869 1.400 . S
C869 C863 1.491 . S
C869 C868 1.400 . S
C869 C870 1.398 . S
C870 H858 0.950 . S
C870 C869 1.398 . S
C870 C871 1.391 . S
C871 H859 0.950 . S
C871 C867 1.393 . S
C871 C870 1.391 . S
H872 C880 0.950 . S
H873 C885 0.950 . S
H874 C882 0.950 . S
H875 C884 0.950 . S
H876 C886 0.950 . S
H877 C888 0.950 . S
H878 C890 0.950 . S
H879 C891 0.950 . S
C880 H872 0.950 . S
C880 C881 1.386 . S
C880 C882 1.391 . S
C881 C880 1.386 . S
C881 C885 1.393 . S
C882 H874 0.950 . S
C882 C880 1.391 . S
C882 C883 1.400 . S
C883 C882 1.400 . S
C883 C884 1.398 . S
C883 C889 1.491 . S
C884 H875 0.950 . S
C884 C883 1.398 . S
C884 C885 1.391 . S
C885 H873 0.950 . S
C885 C881 1.393 . S
C885 C884 1.391 . S
C886 H876 0.950 . S
C886 C887 1.386 . S
C886 C888 1.391 . S
C887 C886 1.386 . S
C887 C891 1.393 . S
C888 H877 0.950 . S
C888 C886 1.391 . S
C888 C889 1.400 . S
C889 C883 1.491 . S
C889 C888 1.400 . S
C889 C890 1.398 . S
C890 H878 0.950 . S
C890 C889 1.398 . S
C890 C891 1.391 . S
C891 H879 0.950 . S
C891 C887 1.393 . S
C891 C890 1.391 . S
H892 C900 0.950 . S
H893 C905 0.950 . S
H894 C902 0.950 . S
H895 C904 0.950 . S
H896 C906 0.950 . S
H897 C908 0.950 1_455 S
H898 C910 0.950 . S
H899 C911 0.950 . S
C900 H892 0.950 . S
C900 C901 1.386 . S
C900 C902 1.391 1_554 S
C901 C900 1.386 . S
C901 C905 1.393 1_655 S
C902 H894 0.950 . S
C902 C900 1.391 1_556 S
C902 C903 1.400 . S
C903 C902 1.400 . S
C903 C904 1.398 1_655 S
C903 C909 1.491 . S
C904 H895 0.950 . S
C904 C903 1.398 1_455 S
C904 C905 1.391 1_556 S
C905 H893 0.950 . S
C905 C901 1.393 1_455 S
C905 C904 1.391 1_554 S
C906 H896 0.950 . S
C906 C907 1.386 . S
C906 C908 1.391 . S
C907 C906 1.386 . S
C907 C911 1.393 . S
C908 H897 0.950 1_655 S
C908 C906 1.391 . S
C908 C909 1.400 . S
C909 C903 1.491 . S
C909 C908 1.400 . S
C909 C910 1.398 . S
C910 H898 0.950 . S
C910 C909 1.398 . S
C910 C911 1.391 . S
C911 H899 0.950 . S
C911 C907 1.393 . S
C911 C910 1.391 . S
H912 C920 0.950 . S
H913 C925 0.950 . S
H914 C922 0.950 . S
H915 C924 0.950 . S
H916 C926 0.950 . S
H917 C928 0.950 . S
H918 C930 0.950 . S
H919 C931 0.950 . S
C920 H912 0.950 . S
C920 C921 1.386 . S
C920 C922 1.391 . S
C921 C920 1.386 . S
C921 C925 1.393 . S
C922 H914 0.950 . S
C922 C920 1.391 . S
C922 C923 1.400 . S
C923 C922 1.400 . S
C923 C924 1.398 . S
C923 C929 1.491 . S
C924 H915 0.950 . S
C924 C923 1.398 . S
C924 C925 1.391 . S
C925 H913 0.950 . S
C925 C921 1.393 . S
C925 C924 1.391 . S
C926 H916 0.950 . S
C926 C927 1.386 . S
C926 C928 1.391 . S
C927 C926 1.386 . S
C927 C931 1.393 . S
C928 H917 0.950 . S
C928 C926 1.391 . S
C928 C929 1.400 . S
C929 C923 1.491 . S
C929 C928 1.400 . S
C929 C930 1.398 . S
C930 H918 0.950 . S
C930 C929 1.398 . S
C930 C931 1.391 . S
C931 H919 0.950 . S
C931 C927 1.393 . S
C931 C930 1.391 . S
H932 C940 0.950 . S
H933 C945 0.950 . S
H934 C942 0.950 . S
H935 C944 0.950 . S
H936 C946 0.950 . S
H937 C948 0.950 . S
H938 C950 0.950 . S
H939 C951 0.950 . S
C940 H932 0.950 . S
C940 C941 1.386 . S
C940 C942 1.391 1_556 S
C941 C940 1.386 . S
C941 C945 1.393 . S
C942 H934 0.950 . S
C942 C940 1.391 1_554 S
C942 C943 1.400 . S
C943 C942 1.400 . S
C943 C944 1.398 . S
C943 C949 1.491 . S
C944 H935 0.950 . S
C944 C943 1.398 . S
C944 C945 1.391 1_554 S
C945 H933 0.950 . S
C945 C941 1.393 . S
C945 C944 1.391 1_556 S
C946 H936 0.950 . S
C946 C947 1.386 . S
C946 C948 1.391 . S
C947 C946 1.386 . S
C947 C951 1.393 . S
C948 H937 0.950 . S
C948 C946 1.391 . S
C948 C949 1.400 . S
C949 C943 1.491 . S
C949 C948 1.400 . S
C949 C950 1.398 . S
C950 H938 0.950 . S
C950 C949 1.398 . S
C950 C951 1.391 . S
C951 H939 0.950 . S
C951 C947 1.393 . S
C951 C950 1.391 . S
H952 C960 0.950 . S
H953 C965 0.950 . S
H954 C962 0.950 . S
H955 C964 0.950 . S
H956 C966 0.950 . S
H957 C968 0.950 . S
H958 C970 0.950 . S
H959 C971 0.950 . S
C960 H952 0.950 . S
C960 C961 1.386 . S
C960 C962 1.391 . S
C961 C960 1.386 . S
C961 C965 1.393 . S
C962 H954 0.950 . S
C962 C960 1.391 . S
C962 C963 1.400 . S
C963 C962 1.400 . S
C963 C964 1.398 . S
C963 C969 1.491 . S
C964 H955 0.950 . S
C964 C963 1.398 . S
C964 C965 1.391 . S
C965 H953 0.950 . S
C965 C961 1.393 . S
C965 C964 1.391 . S
C966 H956 0.950 . S
C966 C967 1.386 . S
C966 C968 1.391 . S
C967 C966 1.386 . S
C967 C971 1.393 . S
C968 H957 0.950 . S
C968 C966 1.391 . S
C968 C969 1.400 . S
C969 C963 1.491 . S
C969 C968 1.400 . S
C969 C970 1.398 . S
C970 H958 0.950 . S
C970 C969 1.398 . S
C970 C971 1.391 . S
C971 H959 0.950 . S
C971 C967 1.393 . S
C971 C970 1.391 . S
H972 C980 0.950 . S
H973 C985 0.950 . S
H974 C982 0.950 . S
H975 C984 0.950 . S
H976 C986 0.965 . S
H977 C988 0.950 1_455 S
H978 C990 0.950 . S
H979 C991 0.950 . S
C980 H972 0.950 . S
C980 C981 1.386 . S
C980 C982 1.391 . S
C981 C980 1.386 . S
C981 C985 1.393 1_655 S
C982 H974 0.950 . S
C982 C980 1.391 . S
C982 C983 1.400 . S
C983 C982 1.400 . S
C983 C984 1.398 1_655 S
C983 C989 1.491 . S
C984 H975 0.950 . S
C984 C983 1.398 1_455 S
C984 C985 1.391 . S
C985 H973 0.950 . S
C985 C981 1.393 1_455 S
C985 C984 1.391 . S
C986 H976 0.965 . S
C986 C987 1.386 . S
C986 C988 1.391 . S
C987 C986 1.386 . S
C987 C991 1.393 . S
C988 H977 0.950 1_655 S
C988 C986 1.391 . S
C988 C989 1.400 . S
C989 C983 1.491 . S
C989 C988 1.400 . S
C989 C990 1.398 . S
C990 H978 0.950 . S
C990 C989 1.398 . S
C990 C991 1.391 . S
C991 H979 0.950 . S
C991 C987 1.393 . S
C991 C990 1.391 . S
H992 C1000 0.950 . S
H993 C1005 0.950 . S
H994 C1002 0.950 . S
H995 C1004 0.950 . S
H996 C1006 0.950 . S
H997 C1008 0.950 . S
H998 C1010 0.950 . S
H999 C1011 0.950 . S
C1000 H992 0.950 . S
C1000 C1001 1.386 . S
C1000 C1002 1.391 . S
C1001 C1000 1.386 . S
C1001 C1005 1.393 . S
C1002 H994 0.950 . S
C1002 C1000 1.391 . S
C1002 C1003 1.400 . S
C1003 C1002 1.400 . S
C1003 C1004 1.398 . S
C1003 C1009 1.491 . S
C1004 H995 0.950 . S
C1004 C1003 1.398 . S
C1004 C1005 1.391 . S
C1005 H993 0.950 . S
C1005 C1001 1.393 . S
C1005 C1004 1.391 . S
C1006 H996 0.950 . S
C1006 C1007 1.386 . S
C1006 C1008 1.391 . S
C1007 C1006 1.386 . S
C1007 C1011 1.393 . S
C1008 H997 0.950 . S
C1008 C1006 1.391 . S
C1008 C1009 1.400 . S
C1009 C1003 1.491 . S
C1009 C1008 1.400 . S
C1009 C1010 1.398 . S
C1010 H998 0.950 . S
C1010 C1009 1.398 . S
C1010 C1011 1.391 . S
C1011 H999 0.950 . S
C1011 C1007 1.393 . S
C1011 C1010 1.391 . S
H1012 C1020 0.950 . S
H1013 C1025 0.950 . S
H1014 C1022 0.950 . S
H1015 C1024 0.950 . S
H1016 C1026 0.950 . S
H1017 C1028 0.950 . S
H1018 C1030 0.950 . S
H1019 C1031 0.950 . S
C1020 H1012 0.950 . S
C1020 C1021 1.386 . S
C1020 C1022 1.391 . S
C1021 C1020 1.386 . S
C1021 C1025 1.393 . S
C1022 H1014 0.950 . S
C1022 C1020 1.391 . S
C1022 C1023 1.400 . S
C1023 C1022 1.400 . S
C1023 C1024 1.398 . S
C1023 C1029 1.491 . S
C1024 H1015 0.950 . S
C1024 C1023 1.398 . S
C1024 C1025 1.391 . S
C1025 H1013 0.950 . S
C1025 C1021 1.393 . S
C1025 C1024 1.391 . S
C1026 H1016 0.950 . S
C1026 C1027 1.386 . S
C1026 C1028 1.391 . S
C1027 C1026 1.386 . S
C1027 C1031 1.393 . S
C1028 H1017 0.950 . S
C1028 C1026 1.391 . S
C1028 C1029 1.400 . S
C1029 C1023 1.491 . S
C1029 C1028 1.400 . S
C1029 C1030 1.398 . S
C1030 H1018 0.950 . S
C1030 C1029 1.398 . S
C1030 C1031 1.391 . S
C1031 H1019 0.950 . S
C1031 C1027 1.393 . S
C1031 C1030 1.391 . S
H1032 C1040 0.950 . S
H1033 C1045 0.950 . S
H1034 C1042 0.950 . S
H1035 C1044 0.950 . S
H1036 C1046 0.950 . S
H1037 C1048 0.950 . S
H1038 C1050 0.950 . S
H1039 C1051 0.950 . S
C1040 H1032 0.950 . S
C1040 C1041 1.386 . S
C1040 C1042 1.391 . S
C1041 C1040 1.386 . S
C1041 C1045 1.393 . S
C1042 H1034 0.950 . S
C1042 C1040 1.391 . S
C1042 C1043 1.400 . S
C1043 C1042 1.400 . S
C1043 C1044 1.398 . S
C1043 C1049 1.491 . S
C1044 H1035 0.950 . S
C1044 C1043 1.398 . S
C1044 C1045 1.391 . S
C1045 H1033 0.950 . S
C1045 C1041 1.393 . S
C1045 C1044 1.391 . S
C1046 H1036 0.950 . S
C1046 C1047 1.386 . S
C1046 C1048 1.391 . S
C1047 C1046 1.386 . S
C1047 C1051 1.393 . S
C1048 H1037 0.950 . S
C1048 C1046 1.391 . S
C1048 C1049 1.400 . S
C1049 C1043 1.491 . S
C1049 C1048 1.400 . S
C1049 C1050 1.398 . S
C1050 H1038 0.950 . S
C1050 C1049 1.398 . S
C1050 C1051 1.391 . S
C1051 H1039 0.950 . S
C1051 C1047 1.393 . S
C1051 C1050 1.391 . S
H1052 C1060 0.950 . S
H1053 C1065 0.950 . S
H1054 C1062 0.950 . S
H1055 C1064 0.950 . S
H1056 C1066 0.950 . S
H1057 C1068 0.950 . S
H1058 C1070 0.950 . S
H1059 C1071 0.950 . S
C1060 H1052 0.950 . S
C1060 C1061 1.386 1_455 S
C1060 C1062 1.391 . S
C1061 C1060 1.386 1_655 S
C1061 C1065 1.393 . S
C1062 H1054 0.950 . S
C1062 C1060 1.391 . S
C1062 C1063 1.400 . S
C1063 C1062 1.400 . S
C1063 C1064 1.398 . S
C1063 C1069 1.491 . S
C1064 H1055 0.950 . S
C1064 C1063 1.398 . S
C1064 C1065 1.391 1_455 S
C1065 H1053 0.950 . S
C1065 C1061 1.393 . S
C1065 C1064 1.391 1_655 S
C1066 H1056 0.950 . S
C1066 C1067 1.386 . S
C1066 C1068 1.391 . S
C1067 C1066 1.386 . S
C1067 C1071 1.393 . S
C1068 H1057 0.950 . S
C1068 C1066 1.391 . S
C1068 C1069 1.400 . S
C1069 C1063 1.491 . S
C1069 C1068 1.400 . S
C1069 C1070 1.398 . S
C1070 H1058 0.950 . S
C1070 C1069 1.398 . S
C1070 C1071 1.391 . S
C1071 H1059 0.950 . S
C1071 C1067 1.393 . S
C1071 C1070 1.391 . S
H1072 C1080 0.950 . S
H1073 C1085 0.950 . S
H1074 C1082 0.950 . S
H1075 C1084 0.950 . S
H1076 C1086 0.950 . S
H1077 C1088 0.950 . S
H1078 C1090 0.950 . S
H1079 C1091 0.950 . S
C1080 H1072 0.950 . S
C1080 C1081 1.386 . S
C1080 C1082 1.391 . S
C1081 C1080 1.386 . S
C1081 C1085 1.393 . S
C1082 H1074 0.950 . S
C1082 C1080 1.391 . S
C1082 C1083 1.400 . S
C1083 C1082 1.400 . S
C1083 C1084 1.398 . S
C1083 C1089 1.491 . S
C1084 H1075 0.950 . S
C1084 C1083 1.398 . S
C1084 C1085 1.391 . S
C1085 H1073 0.950 . S
C1085 C1081 1.393 . S
C1085 C1084 1.391 . S
C1086 H1076 0.950 . S
C1086 C1087 1.386 . S
C1086 C1088 1.391 . S
C1087 C1086 1.386 . S
C1087 C1091 1.393 . S
C1088 H1077 0.950 . S
C1088 C1086 1.391 . S
C1088 C1089 1.400 . S
C1089 C1083 1.491 . S
C1089 C1088 1.400 . S
C1089 C1090 1.398 . S
C1090 H1078 0.950 . S
C1090 C1089 1.398 . S
C1090 C1091 1.391 . S
C1091 H1079 0.950 . S
C1091 C1087 1.393 . S
C1091 C1090 1.391 . S
H1092 C1100 0.950 . S
H1093 C1105 0.950 . S
H1094 C1102 0.950 . S
H1095 C1104 0.950 . S
H1096 C1106 0.950 . S
H1097 C1108 0.950 . S
H1098 C1110 0.950 . S
H1099 C1111 0.950 . S
C1100 H1092 0.950 . S
C1100 C1101 1.386 . S
C1100 C1102 1.391 . S
C1101 C1100 1.386 . S
C1101 C1105 1.393 . S
C1102 H1094 0.950 . S
C1102 C1100 1.391 . S
C1102 C1103 1.400 . S
C1103 C1102 1.400 . S
C1103 C1104 1.398 . S
C1103 C1109 1.491 . S
C1104 H1095 0.950 . S
C1104 C1103 1.398 . S
C1104 C1105 1.391 . S
C1105 H1093 0.950 . S
C1105 C1101 1.393 . S
C1105 C1104 1.391 . S
C1106 H1096 0.950 . S
C1106 C1107 1.386 . S
C1106 C1108 1.391 . S
C1107 C1106 1.386 . S
C1107 C1111 1.393 . S
C1108 H1097 0.950 . S
C1108 C1106 1.391 . S
C1108 C1109 1.400 . S
C1109 C1103 1.491 . S
C1109 C1108 1.400 . S
C1109 C1110 1.398 . S
C1110 H1098 0.950 . S
C1110 C1109 1.398 . S
C1110 C1111 1.391 . S
C1111 H1099 0.950 . S
C1111 C1107 1.393 . S
C1111 C1110 1.391 . S
H1112 C1120 0.950 . S
H1113 C1125 0.950 . S
H1114 C1122 0.950 . S
H1115 C1124 0.950 . S
H1116 C1126 0.950 . S
H1117 C1128 0.950 . S
H1118 C1130 0.950 . S
H1119 C1131 0.950 . S
C1120 H1112 0.950 . S
C1120 C1121 1.386 . S
C1120 C1122 1.391 . S
C1121 C1120 1.386 . S
C1121 C1125 1.393 . S
C1122 H1114 0.950 . S
C1122 C1120 1.391 . S
C1122 C1123 1.400 . S
C1123 C1122 1.400 . S
C1123 C1124 1.398 . S
C1123 C1129 1.491 . S
C1124 H1115 0.950 . S
C1124 C1123 1.398 . S
C1124 C1125 1.391 . S
C1125 H1113 0.950 . S
C1125 C1121 1.393 . S
C1125 C1124 1.391 . S
C1126 H1116 0.950 . S
C1126 C1127 1.386 . S
C1126 C1128 1.391 . S
C1127 C1126 1.386 . S
C1127 C1131 1.393 . S
C1128 H1117 0.950 . S
C1128 C1126 1.391 . S
C1128 C1129 1.400 . S
C1129 C1123 1.491 . S
C1129 C1128 1.400 . S
C1129 C1130 1.398 . S
C1130 H1118 0.950 . S
C1130 C1129 1.398 . S
C1130 C1131 1.391 . S
C1131 H1119 0.950 . S
C1131 C1127 1.393 . S
C1131 C1130 1.391 . S
H1132 C1140 0.950 . S
H1133 C1145 0.950 . S
H1134 C1142 0.950 . S
H1135 C1144 0.950 . S
H1136 C1146 0.950 . S
H1137 C1148 0.950 . S
H1138 C1150 0.950 . S
H1139 C1151 0.950 . S
C1140 H1132 0.950 . S
C1140 C1141 1.386 . S
C1140 C1142 1.391 1_655 S
C1141 C1140 1.386 . S
C1141 C1145 1.393 . S
C1142 H1134 0.950 . S
C1142 C1140 1.391 1_455 S
C1142 C1143 1.400 . S
C1143 C1142 1.400 . S
C1143 C1144 1.398 . S
C1143 C1149 1.491 . S
C1144 H1135 0.950 . S
C1144 C1143 1.398 . S
C1144 C1145 1.391 1_455 S
C1145 H1133 0.950 . S
C1145 C1141 1.393 . S
C1145 C1144 1.391 1_655 S
C1146 H1136 0.950 . S
C1146 C1147 1.386 . S
C1146 C1148 1.391 . S
C1147 C1146 1.386 . S
C1147 C1151 1.393 . S
C1148 H1137 0.950 . S
C1148 C1146 1.391 . S
C1148 C1149 1.400 . S
C1149 C1143 1.491 . S
C1149 C1148 1.400 . S
C1149 C1150 1.398 . S
C1150 H1138 0.950 . S
C1150 C1149 1.398 . S
C1150 C1151 1.391 . S
C1151 H1139 0.950 . S
C1151 C1147 1.393 . S
C1151 C1150 1.391 . S
H1152 C1160 0.950 . S
H1153 C1165 0.950 . S
H1154 C1162 0.950 . S
H1155 C1164 0.950 . S
H1156 C1166 0.950 . S
H1157 C1168 0.950 . S
H1158 C1170 0.950 . S
H1159 C1171 0.950 . S
C1160 H1152 0.950 . S
C1160 C1161 1.386 . S
C1160 C1162 1.391 . S
C1161 C1160 1.386 . S
C1161 C1165 1.393 . S
C1162 H1154 0.950 . S
C1162 C1160 1.391 . S
C1162 C1163 1.400 . S
C1163 C1162 1.400 . S
C1163 C1164 1.398 . S
C1163 C1169 1.491 . S
C1164 H1155 0.950 . S
C1164 C1163 1.398 . S
C1164 C1165 1.391 . S
C1165 H1153 0.950 . S
C1165 C1161 1.393 . S
C1165 C1164 1.391 . S
C1166 H1156 0.950 . S
C1166 C1167 1.386 . S
C1166 C1168 1.391 . S
C1167 C1166 1.386 . S
C1167 C1171 1.393 . S
C1168 H1157 0.950 . S
C1168 C1166 1.391 . S
C1168 C1169 1.400 . S
C1169 C1163 1.491 . S
C1169 C1168 1.400 . S
C1169 C1170 1.398 . S
C1170 H1158 0.950 . S
C1170 C1169 1.398 . S
C1170 C1171 1.391 . S
C1171 H1159 0.950 . S
C1171 C1167 1.393 . S
C1171 C1170 1.391 . S
H1172 C1180 0.950 . S
H1173 C1185 0.950 . S
H1174 C1182 0.950 . S
H1175 C1184 0.950 . S
H1176 C1186 0.950 . S
H1177 C1188 0.950 . S
H1178 C1190 0.950 . S
H1179 C1191 0.950 . S
C1180 H1172 0.950 . S
C1180 C1181 1.386 . S
C1180 C1182 1.391 . S
C1181 C1180 1.386 . S
C1181 C1185 1.393 . S
C1182 H1174 0.950 . S
C1182 C1180 1.391 . S
C1182 C1183 1.400 . S
C1183 C1182 1.400 . S
C1183 C1184 1.398 . S
C1183 C1189 1.491 . S
C1184 H1175 0.950 . S
C1184 C1183 1.398 . S
C1184 C1185 1.391 . S
C1185 H1173 0.950 . S
C1185 C1181 1.393 . S
C1185 C1184 1.391 . S
C1186 H1176 0.950 . S
C1186 C1187 1.386 . S
C1186 C1188 1.391 . S
C1187 C1186 1.386 . S
C1187 C1191 1.393 . S
C1188 H1177 0.950 . S
C1188 C1186 1.391 . S
C1188 C1189 1.400 . S
C1189 C1183 1.491 . S
C1189 C1188 1.400 . S
C1189 C1190 1.398 . S
C1190 H1178 0.950 . S
C1190 C1189 1.398 . S
C1190 C1191 1.391 . S
C1191 H1179 0.950 . S
C1191 C1187 1.393 . S
C1191 C1190 1.391 . S
H1192 C1200 0.950 . S
H1193 C1205 0.950 . S
H1194 C1202 0.950 . S
H1195 C1204 0.950 . S
H1196 C1206 0.950 . S
H1197 C1208 0.950 . S
H1198 C1210 0.950 . S
H1199 C1211 0.950 . S
C1200 H1192 0.950 . S
C1200 C1201 1.386 . S
C1200 C1202 1.391 1_565 S
C1201 C1200 1.386 . S
C1201 C1205 1.393 . S
C1202 H1194 0.950 . S
C1202 C1200 1.391 1_545 S
C1202 C1203 1.400 . S
C1203 C1202 1.400 . S
C1203 C1204 1.398 . S
C1203 C1209 1.491 . S
C1204 H1195 0.950 . S
C1204 C1203 1.398 . S
C1204 C1205 1.391 1_545 S
C1205 H1193 0.950 . S
C1205 C1201 1.393 . S
C1205 C1204 1.391 1_565 S
C1206 H1196 0.950 . S
C1206 C1207 1.386 . S
C1206 C1208 1.391 . S
C1207 C1206 1.386 . S
C1207 C1211 1.393 . S
C1208 H1197 0.950 . S
C1208 C1206 1.391 . S
C1208 C1209 1.400 . S
C1209 C1203 1.491 . S
C1209 C1208 1.400 . S
C1209 C1210 1.398 . S
C1210 H1198 0.950 . S
C1210 C1209 1.398 . S
C1210 C1211 1.391 . S
C1211 H1199 0.950 . S
C1211 C1207 1.393 . S
C1211 C1210 1.391 . S
H1212 C1220 0.950 . S
H1213 C1225 0.950 . S
H1214 C1222 0.950 . S
H1215 C1224 0.950 . S
H1216 C1226 0.950 . S
H1217 C1228 0.950 . S
H1218 C1230 0.950 . S
H1219 C1231 0.950 . S
C1220 H1212 0.950 . S
C1220 C1221 1.386 . S
C1220 C1222 1.391 . S
C1221 C1220 1.386 . S
C1221 C1225 1.393 . S
C1222 H1214 0.950 . S
C1222 C1220 1.391 . S
C1222 C1223 1.400 . S
C1223 C1222 1.400 . S
C1223 C1224 1.398 . S
C1223 C1229 1.491 . S
C1224 H1215 0.950 . S
C1224 C1223 1.398 . S
C1224 C1225 1.391 . S
C1225 H1213 0.950 . S
C1225 C1221 1.393 . S
C1225 C1224 1.391 . S
C1226 H1216 0.950 . S
C1226 C1227 1.386 . S
C1226 C1228 1.391 . S
C1227 C1226 1.386 . S
C1227 C1231 1.393 . S
C1228 H1217 0.950 . S
C1228 C1226 1.391 . S
C1228 C1229 1.400 . S
C1229 C1223 1.491 . S
C1229 C1228 1.400 . S
C1229 C1230 1.398 . S
C1230 H1218 0.950 . S
C1230 C1229 1.398 . S
C1230 C1231 1.391 . S
C1231 H1219 0.950 . S
C1231 C1227 1.393 . S
C1231 C1230 1.391 . S
H1232 C1240 0.949 1_554 S
H1233 C1245 0.950 . S
H1234 C1242 0.950 1_554 S
H1235 C1244 0.950 . S
H1236 C1246 0.950 . S
H1237 C1248 0.950 . S
H1238 C1250 0.950 . S
H1239 C1251 0.950 . S
C1240 H1232 0.949 1_556 S
C1240 C1241 1.386 . S
C1240 C1242 1.391 1_545 S
C1241 C1240 1.386 . S
C1241 C1245 1.393 . S
C1242 H1234 0.950 1_556 S
C1242 C1240 1.391 1_565 S
C1242 C1243 1.400 . S
C1243 C1242 1.400 . S
C1243 C1244 1.398 . S
C1243 C1249 1.491 . S
C1244 H1235 0.950 . S
C1244 C1243 1.398 . S
C1244 C1245 1.391 1_565 S
C1245 H1233 0.950 . S
C1245 C1241 1.393 . S
C1245 C1244 1.391 1_545 S
C1246 H1236 0.950 . S
C1246 C1247 1.386 . S
C1246 C1248 1.391 . S
C1247 C1246 1.386 . S
C1247 C1251 1.393 . S
C1248 H1237 0.950 . S
C1248 C1246 1.391 . S
C1248 C1249 1.400 . S
C1249 C1243 1.491 . S
C1249 C1248 1.400 . S
C1249 C1250 1.398 . S
C1250 H1238 0.950 . S
C1250 C1249 1.398 . S
C1250 C1251 1.391 . S
C1251 H1239 0.950 . S
C1251 C1247 1.393 . S
C1251 C1250 1.391 . S
H1252 C1260 0.950 . S
H1253 C1265 0.950 . S
H1254 C1262 0.950 . S
H1255 C1264 0.950 . S
H1256 C1266 0.950 . S
H1257 C1268 0.950 . S
H1258 C1270 0.950 . S
H1259 C1271 0.950 . S
C1260 H1252 0.950 . S
C1260 C1261 1.386 . S
C1260 C1262 1.391 . S
C1261 C1260 1.386 . S
C1261 C1265 1.393 . S
C1262 H1254 0.950 . S
C1262 C1260 1.391 . S
C1262 C1263 1.400 . S
C1263 C1262 1.400 . S
C1263 C1264 1.398 . S
C1263 C1269 1.491 . S
C1264 H1255 0.950 . S
C1264 C1263 1.398 . S
C1264 C1265 1.391 . S
C1265 H1253 0.950 . S
C1265 C1261 1.393 . S
C1265 C1264 1.391 . S
C1266 H1256 0.950 . S
C1266 C1267 1.386 . S
C1266 C1268 1.391 . S
C1267 C1266 1.386 . S
C1267 C1271 1.393 . S
C1268 H1257 0.950 . S
C1268 C1266 1.391 . S
C1268 C1269 1.400 . S
C1269 C1263 1.491 . S
C1269 C1268 1.400 . S
C1269 C1270 1.398 . S
C1270 H1258 0.950 . S
C1270 C1269 1.398 . S
C1270 C1271 1.391 . S
C1271 H1259 0.950 . S
C1271 C1267 1.393 . S
C1271 C1270 1.391 . S
H1272 C1280 0.950 . S
H1273 C1285 0.950 . S
H1274 C1282 0.950 . S
H1275 C1284 0.950 . S
H1276 C1286 0.950 . S
H1277 C1288 0.950 . S
H1278 C1290 0.950 1_556 S
H1279 C1291 0.950 1_556 S
C1280 H1272 0.950 . S
C1280 C1281 1.386 1_556 S
C1280 C1282 1.391 . S
C1281 C1280 1.386 1_554 S
C1281 C1285 1.393 . S
C1282 H1274 0.950 . S
C1282 C1280 1.391 . S
C1282 C1283 1.400 1_556 S
C1283 C1282 1.400 1_554 S
C1283 C1284 1.398 . S
C1283 C1289 1.491 . S
C1284 H1275 0.950 . S
C1284 C1283 1.398 . S
C1284 C1285 1.391 . S
C1285 H1273 0.950 . S
C1285 C1281 1.393 . S
C1285 C1284 1.391 . S
C1286 H1276 0.950 . S
C1286 C1287 1.386 . S
C1286 C1288 1.391 . S
C1287 C1286 1.386 . S
C1287 C1291 1.393 . S
C1288 H1277 0.950 . S
C1288 C1286 1.391 . S
C1288 C1289 1.400 . S
C1289 C1283 1.491 . S
C1289 C1288 1.400 . S
C1289 C1290 1.398 . S
C1290 H1278 0.950 1_554 S
C1290 C1289 1.398 . S
C1290 C1291 1.391 . S
C1291 H1279 0.950 1_554 S
C1291 C1287 1.393 . S
C1291 C1290 1.391 . S
H1292 C1300 0.950 . S
H1293 C1305 0.950 . S
H1294 C1302 0.950 . S
H1295 C1304 0.950 . S
H1296 C1306 0.950 . S
H1297 C1308 0.950 . S
H1298 C1310 0.950 . S
H1299 C1311 0.950 . S
C1300 H1292 0.950 . S
C1300 C1301 1.386 . S
C1300 C1302 1.391 . S
C1301 C1300 1.386 . S
C1301 C1305 1.393 . S
C1302 H1294 0.950 . S
C1302 C1300 1.391 . S
C1302 C1303 1.400 . S
C1303 C1302 1.400 . S
C1303 C1304 1.398 . S
C1303 C1309 1.491 . S
C1304 H1295 0.950 . S
C1304 C1303 1.398 . S
C1304 C1305 1.391 . S
C1305 H1293 0.950 . S
C1305 C1301 1.393 . S
C1305 C1304 1.391 . S
C1306 H1296 0.950 . S
C1306 C1307 1.386 . S
C1306 C1308 1.391 . S
C1307 C1306 1.386 . S
C1307 C1311 1.393 . S
C1308 H1297 0.950 . S
C1308 C1306 1.391 . S
C1308 C1309 1.400 . S
C1309 C1303 1.491 . S
C1309 C1308 1.400 . S
C1309 C1310 1.398 . S
C1310 H1298 0.950 . S
C1310 C1309 1.398 . S
C1310 C1311 1.391 . S
C1311 H1299 0.950 . S
C1311 C1307 1.393 . S
C1311 C1310 1.391 . S
H1312 C1320 0.950 . S
H1313 C1325 0.950 . S
H1314 C1322 0.950 . S
H1315 C1324 0.950 . S
H1316 C1326 0.950 . S
H1317 C1328 0.950 . S
H1318 C1330 0.950 . S
H1319 C1331 0.950 . S
C1320 H1312 0.950 . S
C1320 C1321 1.386 . S
C1320 C1322 1.391 . S
C1321 C1320 1.386 . S
C1321 C1325 1.393 . S
C1322 H1314 0.950 . S
C1322 C1320 1.391 . S
C1322 C1323 1.400 . S
C1323 C1322 1.400 . S
C1323 C1324 1.398 . S
C1323 C1329 1.491 . S
C1324 H1315 0.950 . S
C1324 C1323 1.398 . S
C1324 C1325 1.391 . S
C1325 H1313 0.950 . S
C1325 C1321 1.393 . S
C1325 C1324 1.391 . S
C1326 H1316 0.950 . S
C1326 C1327 1.386 . S
C1326 C1328 1.391 . S
C1327 C1326 1.386 . S
C1327 C1331 1.393 . S
C1328 H1317 0.950 . S
C1328 C1326 1.391 . S
C1328 C1329 1.400 . S
C1329 C1323 1.491 . S
C1329 C1328 1.400 . S
C1329 C1330 1.398 . S
C1330 H1318 0.950 . S
C1330 C1329 1.398 . S
C1330 C1331 1.391 . S
C1331 H1319 0.950 . S
C1331 C1327 1.393 . S
C1331 C1330 1.391 . S
C387 C361 1.130 . S
C381 C5 1.211 . S
C401 C16 1.223 . S
C407 C314 1.140 . S
C421 C36 1.202 . S
C427 C325 1.134 . S
C447 C350 1.144 . S
C441 C49 1.218 . S
C461 C23 1.202 . S
C467 C368 1.106 . S
C487 C307 1.163 . S
C481 C29 1.227 . S
C507 C332 1.145 . S
C501 C42 1.220 . S
C527 C343 1.119 . S
C521 C4 1.221 . S
C541 C55 1.208 . S
C547 C344 1.120 . S
C567 C370 1.168 . S
C561 C69 1.222 . S
C587 C308 1.107 . S
C581 C83 1.211 . S
C607 C334 1.123 . S
C601 C101 1.213 . S
C621 C57 1.228 . S
C627 C316 1.135 . S
C641 C75 1.234 . S
C647 C326 1.162 . S
C661 C81 1.212 . S
C667 C352 1.117 . S
C687 C362 1.133 . S
C681 C95 1.233 . S
C707 C199 1.096 . S
C701 C96 1.218 . S
C727 C182 1.127 . S
C721 C107 1.221 . S
C747 C208 1.138 . S
C741 C121 1.233 . S
C767 C226 1.156 . S
C761 C133 1.221 . S
C781 C62 1.230 . S
C787 C200 1.122 . S
C801 C68 1.230 . S
C807 C170 1.103 . S
C821 C127 1.221 . S
C827 C224 1.111 . S
C841 C147 1.228 . S
C847 C181 1.153 . S
C867 C235 1.094 . S
C861 C30 1.212 . S
C887 C260 1.118 . S
C881 C43 1.220 . S
C901 C3 1.213 . S
C907 C271 1.112 . S
C921 C18 1.238 . S
C927 C296 1.116 . S
C947 C242 1.102 . S
C941 C44 1.215 . S
C967 C253 1.124 . S
C961 C10 1.233 . S
C981 C17 1.200 . S
C987 C278 1.115 . S
C1007 C289 1.133 . S
C1001 C31 1.240 . S
C1021 C146 1.226 . S
C1027 C290 1.109 . S
C1041 C114 1.229 . S
C1047 C244 1.153 . S
C1067 C254 1.099 . S
C1061 C122 1.222 . S
C1081 C140 1.232 . S
C1087 C280 1.171 . S
C1107 C262 1.148 . S
C1101 C148 1.224 . S
C1121 C108 1.213 . S
C1127 C272 1.114 . S
C1147 C298 1.158 . S
C1141 C120 1.220 . S
C1167 C236 1.166 . S
C1161 C134 1.231 . S
C1187 C163 1.115 . S
C1181 C135 1.231 . S
C1207 C218 1.147 . S
C1201 C70 1.223 . S
C1221 C82 1.219 . S
C1227 C172 1.131 . S
C1247 C190 1.147 . S
C1241 C94 1.218 . S
C1267 C164 1.128 . S
C1261 C153 1.215 . S
C1281 C109 1.224 . S
C1287 C206 1.133 . S
C1301 C88 1.212 . S
C1307 C188 1.126 . S
C1321 C56 1.222 . S
C1327 C217 1.162 . S
