# Generated by pormake.
# Topology eea, (3,6)-cn, num edge types: 1
# Building blocks:
#     Node 0, Type 0, BuildingBlock: QEWDON_clean_linker_0, # of connection points: 3
#     Node 1, Type 0, BuildingBlock: QEWDON_clean_linker_0, # of connection points: 3
#     Node 2, Type 0, BuildingBlock: QEWDON_clean_linker_0, # of connection points: 3
#     Node 3, Type 0, BuildingBlock: QEWDON_clean_linker_0, # of connection points: 3
#     Node 4, Type 0, BuildingBlock: QEWDON_clean_linker_0, # of connection points: 3
#     Node 5, Type 0, BuildingBlock: QEWDON_clean_linker_0, # of connection points: 3
#     Node 6, Type 0, BuildingBlock: QEWDON_clean_linker_0, # of connection points: 3
#     Node 7, Type 0, BuildingBlock: QEWDON_clean_linker_0, # of connection points: 3
#     Node 8, Type 0, BuildingBlock: QEWDON_clean_linker_0, # of connection points: 3
#     Node 9, Type 0, BuildingBlock: QEWDON_clean_linker_0, # of connection points: 3
#     Node 10, Type 0, BuildingBlock: QEWDON_clean_linker_0, # of connection points: 3
#     Node 11, Type 0, BuildingBlock: QEWDON_clean_linker_0, # of connection points: 3
#     Node 12, Type 0, BuildingBlock: QEWDON_clean_linker_0, # of connection points: 3
#     Node 13, Type 0, BuildingBlock: QEWDON_clean_linker_0, # of connection points: 3
#     Node 14, Type 0, BuildingBlock: QEWDON_clean_linker_0, # of connection points: 3
#     Node 15, Type 0, BuildingBlock: QEWDON_clean_linker_0, # of connection points: 3
#     Node 16, Type 0, BuildingBlock: QEWDON_clean_linker_0, # of connection points: 3
#     Node 17, Type 0, BuildingBlock: QEWDON_clean_linker_0, # of connection points: 3
#     Node 18, Type 1, BuildingBlock: NUHQIS_clean_sbu_0, # of connection points: 6
#     Node 19, Type 1, BuildingBlock: NUHQIS_clean_sbu_0, # of connection points: 6
#     Node 20, Type 1, BuildingBlock: NUHQIS_clean_sbu_0, # of connection points: 6
#     Node 21, Type 1, BuildingBlock: NUHQIS_clean_sbu_0, # of connection points: 6
#     Node 22, Type 1, BuildingBlock: NUHQIS_clean_sbu_0, # of connection points: 6
#     Node 23, Type 1, BuildingBlock: NUHQIS_clean_sbu_0, # of connection points: 6
#     Node 24, Type 1, BuildingBlock: NUHQIS_clean_sbu_0, # of connection points: 6
#     Node 25, Type 1, BuildingBlock: NUHQIS_clean_sbu_0, # of connection points: 6
#     Node 26, Type 1, BuildingBlock: NUHQIS_clean_sbu_0, # of connection points: 6
#     Edge 27, Type (0, 1), BuildingBlock: UVAHIK_clean_linker_0, # of connection points: 2
#     Edge 28, Type (0, 1), BuildingBlock: UVAHIK_clean_linker_0, # of connection points: 2
#     Edge 29, Type (0, 1), BuildingBlock: UVAHIK_clean_linker_0, # of connection points: 2
#     Edge 30, Type (0, 1), BuildingBlock: UVAHIK_clean_linker_0, # of connection points: 2
#     Edge 31, Type (0, 1), BuildingBlock: UVAHIK_clean_linker_0, # of connection points: 2
#     Edge 32, Type (0, 1), BuildingBlock: UVAHIK_clean_linker_0, # of connection points: 2
#     Edge 33, Type (0, 1), BuildingBlock: UVAHIK_clean_linker_0, # of connection points: 2
#     Edge 34, Type (0, 1), BuildingBlock: UVAHIK_clean_linker_0, # of connection points: 2
#     Edge 35, Type (0, 1), BuildingBlock: UVAHIK_clean_linker_0, # of connection points: 2
#     Edge 36, Type (0, 1), BuildingBlock: UVAHIK_clean_linker_0, # of connection points: 2
#     Edge 37, Type (0, 1), BuildingBlock: UVAHIK_clean_linker_0, # of connection points: 2
#     Edge 38, Type (0, 1), BuildingBlock: UVAHIK_clean_linker_0, # of connection points: 2
#     Edge 39, Type (0, 1), BuildingBlock: UVAHIK_clean_linker_0, # of connection points: 2
#     Edge 40, Type (0, 1), BuildingBlock: UVAHIK_clean_linker_0, # of connection points: 2
#     Edge 41, Type (0, 1), BuildingBlock: UVAHIK_clean_linker_0, # of connection points: 2
#     Edge 42, Type (0, 1), BuildingBlock: UVAHIK_clean_linker_0, # of connection points: 2
#     Edge 43, Type (0, 1), BuildingBlock: UVAHIK_clean_linker_0, # of connection points: 2
#     Edge 44, Type (0, 1), BuildingBlock: UVAHIK_clean_linker_0, # of connection points: 2
#     Edge 45, Type (0, 1), BuildingBlock: UVAHIK_clean_linker_0, # of connection points: 2
#     Edge 46, Type (0, 1), BuildingBlock: UVAHIK_clean_linker_0, # of connection points: 2
#     Edge 47, Type (0, 1), BuildingBlock: UVAHIK_clean_linker_0, # of connection points: 2
#     Edge 48, Type (0, 1), BuildingBlock: UVAHIK_clean_linker_0, # of connection points: 2
#     Edge 49, Type (0, 1), BuildingBlock: UVAHIK_clean_linker_0, # of connection points: 2
#     Edge 50, Type (0, 1), BuildingBlock: UVAHIK_clean_linker_0, # of connection points: 2
#     Edge 51, Type (0, 1), BuildingBlock: UVAHIK_clean_linker_0, # of connection points: 2
#     Edge 52, Type (0, 1), BuildingBlock: UVAHIK_clean_linker_0, # of connection points: 2
#     Edge 53, Type (0, 1), BuildingBlock: UVAHIK_clean_linker_0, # of connection points: 2
#     Edge 54, Type (0, 1), BuildingBlock: UVAHIK_clean_linker_0, # of connection points: 2
#     Edge 55, Type (0, 1), BuildingBlock: UVAHIK_clean_linker_0, # of connection points: 2
#     Edge 56, Type (0, 1), BuildingBlock: UVAHIK_clean_linker_0, # of connection points: 2
#     Edge 57, Type (0, 1), BuildingBlock: UVAHIK_clean_linker_0, # of connection points: 2
#     Edge 58, Type (0, 1), BuildingBlock: UVAHIK_clean_linker_0, # of connection points: 2
#     Edge 59, Type (0, 1), BuildingBlock: UVAHIK_clean_linker_0, # of connection points: 2
#     Edge 60, Type (0, 1), BuildingBlock: UVAHIK_clean_linker_0, # of connection points: 2
#     Edge 61, Type (0, 1), BuildingBlock: UVAHIK_clean_linker_0, # of connection points: 2
#     Edge 62, Type (0, 1), BuildingBlock: UVAHIK_clean_linker_0, # of connection points: 2
#     Edge 63, Type (0, 1), BuildingBlock: UVAHIK_clean_linker_0, # of connection points: 2
#     Edge 64, Type (0, 1), BuildingBlock: UVAHIK_clean_linker_0, # of connection points: 2
#     Edge 65, Type (0, 1), BuildingBlock: UVAHIK_clean_linker_0, # of connection points: 2
#     Edge 66, Type (0, 1), BuildingBlock: UVAHIK_clean_linker_0, # of connection points: 2
#     Edge 67, Type (0, 1), BuildingBlock: UVAHIK_clean_linker_0, # of connection points: 2
#     Edge 68, Type (0, 1), BuildingBlock: UVAHIK_clean_linker_0, # of connection points: 2
#     Edge 69, Type (0, 1), BuildingBlock: UVAHIK_clean_linker_0, # of connection points: 2
#     Edge 70, Type (0, 1), BuildingBlock: UVAHIK_clean_linker_0, # of connection points: 2
#     Edge 71, Type (0, 1), BuildingBlock: UVAHIK_clean_linker_0, # of connection points: 2
#     Edge 72, Type (0, 1), BuildingBlock: UVAHIK_clean_linker_0, # of connection points: 2
#     Edge 73, Type (0, 1), BuildingBlock: UVAHIK_clean_linker_0, # of connection points: 2
#     Edge 74, Type (0, 1), BuildingBlock: UVAHIK_clean_linker_0, # of connection points: 2
#     Edge 75, Type (0, 1), BuildingBlock: UVAHIK_clean_linker_0, # of connection points: 2
#     Edge 76, Type (0, 1), BuildingBlock: UVAHIK_clean_linker_0, # of connection points: 2
#     Edge 77, Type (0, 1), BuildingBlock: UVAHIK_clean_linker_0, # of connection points: 2
#     Edge 78, Type (0, 1), BuildingBlock: UVAHIK_clean_linker_0, # of connection points: 2
#     Edge 79, Type (0, 1), BuildingBlock: UVAHIK_clean_linker_0, # of connection points: 2
#     Edge 80, Type (0, 1), BuildingBlock: UVAHIK_clean_linker_0, # of connection points: 2
# Relax obj value: 0.085
# Max RMSD: 0.254
# Mean RMSD: 0.175
data_MOF--net-eea--node1-NUHQIS_clean_sbu_0--node2-QEWDON_clean_linker_0--edge1-UVAHIK_clean_linker_0
_symmetry_space_group_name_H-M    P1
_symmetry_Int_Tables_number       1
_symmetry_cell_setting            triclinic
loop_
_symmetry_equiv_pos_as_xyz
'x, y, z'
_cell_length_a     74.713824
_cell_length_b     75.523072
_cell_length_c     82.72193
_cell_angle_alpha  93.354286
_cell_angle_beta   93.480201
_cell_angle_gamma 119.81026
loop_
_atom_site_label
_atom_site_type_symbol
_atom_site_fract_x
_atom_site_fract_y
_atom_site_fract_z
_atom_type_partial_charge
H0 H 0.21201 0.11625 0.42054 0.0
C1 C 0.21535 0.1058 0.4136 0.0
C2 C 0.22784 0.09883 0.421 0.0
C3 C 0.206 0.09811 0.3976 0.0
H4 H 0.24051 0.07885 0.41794 0.0
C5 C 0.2313 0.08457 0.41209 0.0
C6 C 0.22235 0.07709 0.39598 0.0
C7 C 0.20998 0.08423 0.3888 0.0
C8 C 0.19065 0.103 0.39026 0.0
H9 H 0.20304 0.07874 0.37633 0.0
C10 C 0.19581 0.12338 0.3887 0.0
C11 C 0.18166 0.12749 0.38015 0.0
C12 C 0.17094 0.08689 0.38386 0.0
H13 H 0.16662 0.07107 0.38503 0.0
C14 C 0.15672 0.09101 0.37576 0.0
H15 H 0.21107 0.13588 0.39341 0.0
C16 C 0.16209 0.11119 0.37376 0.0
H17 H 0.15095 0.1141 0.36723 0.0
H18 H 0.14161 0.07851 0.37082 0.0
H19 H 0.90679 0.1031 0.42802 0.0
C20 C 0.91797 0.11661 0.42277 0.0
C21 C 0.92236 0.13617 0.42921 0.0
C22 C 0.92823 0.11439 0.40981 0.0
H23 H 0.9405 0.16872 0.42733 0.0
C24 C 0.93698 0.15361 0.42235 0.0
C25 C 0.94738 0.15165 0.40935 0.0
C26 C 0.94283 0.13197 0.40319 0.0
C27 C 0.92419 0.09384 0.40334 0.0
H28 H 0.95094 0.13029 0.39332 0.0
C29 C 0.90378 0.07721 0.39996 0.0
C30 C 0.9001 0.05817 0.39284 0.0
C31 C 0.94086 0.09094 0.40001 0.0
H32 H 0.95673 0.10335 0.40274 0.0
C33 C 0.93724 0.07199 0.39317 0.0
H34 H 0.89077 0.07928 0.40226 0.0
C35 C 0.91699 0.05572 0.38948 0.0
H36 H 0.91451 0.04114 0.3841 0.0
H37 H 0.95017 0.06994 0.39064 0.0
H38 H 0.91745 0.79826 0.44627 0.0
C39 C 0.9047 0.79791 0.43897 0.0
C40 C 0.88429 0.78617 0.44313 0.0
C41 C 0.90893 0.81065 0.42633 0.0
H42 H 0.85232 0.77767 0.4371 0.0
C43 C 0.86805 0.78659 0.43393 0.0
C44 C 0.87201 0.79919 0.42122 0.0
C45 C 0.89254 0.81122 0.41754 0.0
C46 C 0.93062 0.82571 0.42385 0.0
H47 H 0.89588 0.82134 0.408 0.0
C48 C 0.94467 0.81955 0.41904 0.0
C49 C 0.96529 0.83441 0.41701 0.0
C50 C 0.93731 0.84671 0.42654 0.0
H51 H 0.92678 0.85176 0.43028 0.0
C52 C 0.95768 0.86139 0.42466 0.0
H53 H 0.93959 0.80337 0.41687 0.0
C54 C 0.97159 0.85533 0.41996 0.0
H55 H 0.98725 0.86705 0.41835 0.0
H56 H 0.96269 0.87754 0.42681 0.0
H57 H 0.10991 0.20633 0.5812 0.0
C58 C 0.09749 0.20664 0.5871 0.0
C59 C 0.08957 0.219 0.58178 0.0
C60 C 0.08854 0.19355 0.59921 0.0
H61 H 0.06621 0.22744 0.5847 0.0
C62 C 0.07259 0.21824 0.58895 0.0
C63 C 0.0635 0.20536 0.60126 0.0
C64 C 0.07188 0.19331 0.60641 0.0
C65 C 0.0951 0.17858 0.60324 0.0
H66 H 0.06537 0.1835 0.61601 0.0
C67 C 0.11618 0.18467 0.60689 0.0
C68 C 0.122 0.16999 0.6101 0.0
C69 C 0.07999 0.15775 0.60296 0.0
H70 H 0.0637 0.15264 0.60003 0.0
C71 C 0.08573 0.14322 0.60609 0.0
H72 H 0.12797 0.20069 0.60719 0.0
C73 C 0.10657 0.14925 0.60958 0.0
H74 H 0.11064 0.13771 0.61213 0.0
H75 H 0.07397 0.12722 0.60577 0.0
H76 H 0.79906 0.90353 0.60537 0.0
C77 C 0.79495 0.88959 0.61103 0.0
C78 C 0.7791 0.87066 0.60329 0.0
C79 C 0.8058 0.89058 0.62583 0.0
H80 H 0.76197 0.83796 0.60454 0.0
C81 C 0.774 0.85262 0.61059 0.0
C82 C 0.78484 0.85332 0.62531 0.0
C83 C 0.8006 0.8724 0.63287 0.0
C84 C 0.82283 0.9105 0.63387 0.0
H85 H 0.8092 0.87309 0.64415 0.0
C86 C 0.82046 0.92785 0.6351 0.0
C87 C 0.83615 0.94646 0.64341 0.0
C88 C 0.84135 0.91214 0.64076 0.0
H89 H 0.84377 0.89914 0.63978 0.0
C90 C 0.85701 0.93065 0.64894 0.0
H91 H 0.80614 0.92672 0.63009 0.0
C92 C 0.85441 0.94771 0.65037 0.0
H93 H 0.86674 0.96194 0.65676 0.0
H94 H 0.87119 0.93176 0.65422 0.0
H95 H 0.09269 0.87682 0.58531 0.0
C96 C 0.10628 0.89044 0.5913 0.0
C97 C 0.12603 0.8961 0.58649 0.0
C98 C 0.10385 0.90281 0.60328 0.0
H99 H 0.15866 0.91853 0.59061 0.0
C100 C 0.14343 0.91398 0.59431 0.0
C101 C 0.14129 0.92649 0.60639 0.0
C102 C 0.12138 0.92074 0.61076 0.0
C103 C 0.08286 0.89819 0.60691 0.0
H104 H 0.11935 0.93053 0.61967 0.0
C105 C 0.06835 0.87885 0.6114 0.0
C106 C 0.04836 0.87468 0.61453 0.0
C107 C 0.07723 0.91329 0.60564 0.0
H108 H 0.08809 0.92822 0.60211 0.0
C109 C 0.05743 0.90915 0.60864 0.0
H110 H 0.07259 0.86713 0.61245 0.0
C111 C 0.04305 0.88999 0.61302 0.0
H112 H 0.02783 0.88721 0.61547 0.0
H113 H 0.05321 0.92086 0.60758 0.0
H114 H 0.87861 0.45039 0.75625 0.0
C115 C 0.88083 0.4389 0.74966 0.0
C116 C 0.89197 0.43078 0.7575 0.0
C117 C 0.87134 0.43112 0.7337 0.0
H118 H 0.90216 0.40869 0.75528 0.0
C119 C 0.89399 0.41526 0.74908 0.0
C120 C 0.88495 0.40766 0.73301 0.0
C121 C 0.87391 0.41595 0.72538 0.0
C122 C 0.85725 0.43733 0.72591 0.0
H123 H 0.86695 0.41038 0.71293 0.0
C124 C 0.86378 0.45807 0.72439 0.0
C125 C 0.85075 0.46334 0.71551 0.0
C126 C 0.83729 0.42209 0.71912 0.0
H127 H 0.83186 0.40603 0.72029 0.0
C128 C 0.82422 0.42738 0.71066 0.0
H129 H 0.8792 0.46993 0.72942 0.0
C130 C 0.83096 0.44787 0.70871 0.0
H131 H 0.82069 0.45169 0.70192 0.0
H132 H 0.80892 0.41554 0.70544 0.0
H133 H 0.57404 0.43581 0.7627 0.0
C134 C 0.58576 0.44916 0.75764 0.0
C135 C 0.59125 0.46891 0.76449 0.0
C136 C 0.59561 0.44654 0.74454 0.0
H137 H 0.61097 0.5014 0.76323 0.0
C138 C 0.60661 0.48616 0.75792 0.0
C139 C 0.61672 0.48385 0.74484 0.0
C140 C 0.61099 0.46396 0.73823 0.0
C141 C 0.59041 0.42571 0.73767 0.0
H142 H 0.61881 0.46198 0.72826 0.0
C143 C 0.56963 0.40968 0.73462 0.0
C144 C 0.56488 0.39039 0.72722 0.0
C145 C 0.60633 0.4219 0.73372 0.0
H146 H 0.62247 0.43376 0.73623 0.0
C147 C 0.60163 0.4027 0.72655 0.0
H148 H 0.55715 0.41239 0.73742 0.0
C149 C 0.58104 0.38707 0.72319 0.0
H150 H 0.57771 0.37229 0.71757 0.0
H151 H 0.61401 0.39996 0.72354 0.0
H152 H 0.58336 0.13054 0.77632 0.0
C153 C 0.57009 0.13036 0.77006 0.0
C154 C 0.55033 0.11899 0.77548 0.0
C155 C 0.573 0.14233 0.75703 0.0
H156 H 0.51848 0.11167 0.77218 0.0
C157 C 0.53344 0.11953 0.76749 0.0
C158 C 0.53597 0.13115 0.75424 0.0
C159 C 0.55587 0.14234 0.74904 0.0
C160 C 0.59418 0.15696 0.75309 0.0
H161 H 0.55826 0.15145 0.73889 0.0
C162 C 0.6081 0.15046 0.74862 0.0
C163 C 0.62829 0.16498 0.74532 0.0
C164 C 0.60061 0.17796 0.75413 0.0
H165 H 0.59022 0.1833 0.75762 0.0
C166 C 0.62057 0.1923 0.75097 0.0
H167 H 0.60326 0.1343 0.74771 0.0
C168 C 0.63435 0.1859 0.74664 0.0
H169 H 0.64972 0.19732 0.74406 0.0
H170 H 0.62538 0.20844 0.75188 0.0
H171 H 0.77967 0.54067 0.9151 0.0
C172 C 0.76714 0.54108 0.92075 0.0
C173 C 0.7596 0.55365 0.91523 0.0
C174 C 0.75807 0.52841 0.93307 0.0
H175 H 0.73645 0.56243 0.91748 0.0
C176 C 0.74286 0.55351 0.9223 0.0
C177 C 0.73364 0.54103 0.93479 0.0
C178 C 0.74171 0.52884 0.94025 0.0
C179 C 0.76408 0.51311 0.93732 0.0
H180 H 0.73516 0.51938 0.95003 0.0
C181 C 0.78504 0.51861 0.94067 0.0
C182 C 0.79028 0.50355 0.94392 0.0
C183 C 0.74853 0.4925 0.93743 0.0
H184 H 0.73233 0.48782 0.93472 0.0
C185 C 0.75372 0.47761 0.94065 0.0
H186 H 0.79719 0.53445 0.94067 0.0
C187 C 0.77445 0.48304 0.94381 0.0
H188 H 0.77813 0.47123 0.94636 0.0
H189 H 0.74163 0.46177 0.94063 0.0
H190 H 0.46511 0.24247 0.9404 0.0
C191 C 0.46214 0.22866 0.94581 0.0
C192 C 0.44663 0.20938 0.93829 0.0
C193 C 0.47412 0.23018 0.96014 0.0
H194 H 0.4312 0.17667 0.93967 0.0
C195 C 0.44297 0.19159 0.94546 0.0
C196 C 0.45478 0.1929 0.95982 0.0
C197 C 0.47031 0.21227 0.96704 0.0
C198 C 0.49081 0.25039 0.96794 0.0
H199 H 0.47973 0.21345 0.97798 0.0
C200 C 0.48715 0.26683 0.97048 0.0
C201 C 0.5025 0.28555 0.9789 0.0
C202 C 0.51026 0.25308 0.97353 0.0
H203 H 0.51358 0.24075 0.97155 0.0
C204 C 0.52561 0.27173 0.98172 0.0
H205 H 0.47211 0.26483 0.96647 0.0
C206 C 0.52175 0.28786 0.98451 0.0
H207 H 0.53384 0.30221 0.99093 0.0
H208 H 0.54052 0.27365 0.98599 0.0
H209 H 0.76001 0.21842 0.91519 0.0
C210 C 0.77305 0.23073 0.92291 0.0
C211 C 0.79312 0.23935 0.91794 0.0
C212 C 0.76953 0.23922 0.93708 0.0
H213 H 0.82506 0.26292 0.92358 0.0
C214 C 0.80971 0.25603 0.92764 0.0
C215 C 0.80651 0.26452 0.94199 0.0
C216 C 0.78628 0.25586 0.94664 0.0
C217 C 0.74815 0.233 0.94058 0.0
H218 H 0.78335 0.26233 0.95751 0.0
C219 C 0.73449 0.21319 0.94469 0.0
C220 C 0.7141 0.20772 0.94773 0.0
C221 C 0.74137 0.24726 0.93959 0.0
H222 H 0.75168 0.26258 0.93643 0.0
C223 C 0.72117 0.24182 0.94246 0.0
H224 H 0.73968 0.20215 0.94554 0.0
C225 C 0.70758 0.22218 0.94647 0.0
H226 H 0.69204 0.21838 0.94887 0.0
H227 H 0.71604 0.25289 0.94162 0.0
H228 H 0.54798 0.78651 0.08318 0.0
C229 C 0.55138 0.77581 0.0767 0.0
C230 C 0.5626 0.76807 0.08497 0.0
C231 C 0.54334 0.76861 0.06036 0.0
H232 H 0.57431 0.74717 0.08319 0.0
C233 C 0.56613 0.7535 0.07666 0.0
C234 C 0.55857 0.74653 0.06024 0.0
C235 C 0.54749 0.75447 0.05216 0.0
C236 C 0.52916 0.77431 0.05196 0.0
H237 H 0.54169 0.74938 0.03943 0.0
C238 C 0.53475 0.79496 0.05128 0.0
C239 C 0.52183 0.79995 0.04193 0.0
C240 C 0.51017 0.75877 0.04383 0.0
H241 H 0.50543 0.74274 0.04435 0.0
C242 C 0.49716 0.76373 0.03487 0.0
H243 H 0.54944 0.80706 0.05737 0.0
C244 C 0.50302 0.7842 0.03378 0.0
H245 H 0.49281 0.78779 0.02662 0.0
H246 H 0.48261 0.75167 0.02861 0.0
H247 H 0.24111 0.77102 0.09605 0.0
C248 C 0.25262 0.78459 0.09109 0.0
C249 C 0.2573 0.80412 0.09786 0.0
C250 C 0.26298 0.78249 0.07816 0.0
H251 H 0.27609 0.83674 0.09662 0.0
C252 C 0.27235 0.82166 0.09138 0.0
C253 C 0.28294 0.81984 0.07846 0.0
C254 C 0.27804 0.80017 0.07194 0.0
C255 C 0.25856 0.76192 0.07131 0.0
H256 H 0.28625 0.79858 0.06211 0.0
C257 C 0.23802 0.74553 0.06795 0.0
C258 C 0.23395 0.72645 0.06059 0.0
C259 C 0.27497 0.75874 0.06768 0.0
H260 H 0.29095 0.77092 0.07041 0.0
C261 C 0.27097 0.73976 0.06054 0.0
H262 H 0.22519 0.74779 0.07049 0.0
C263 C 0.25059 0.72374 0.0569 0.0
H264 H 0.24781 0.70913 0.05133 0.0
H265 H 0.28371 0.7375 0.05778 0.0
H266 H 0.2528 0.46524 0.11051 0.0
C267 C 0.23945 0.46505 0.10439 0.0
C268 C 0.21969 0.4532 0.1097 0.0
C269 C 0.24224 0.47751 0.09173 0.0
H270 H 0.18775 0.44564 0.10668 0.0
C271 C 0.2027 0.45381 0.102 0.0
C272 C 0.2051 0.46595 0.08913 0.0
C273 C 0.22497 0.47751 0.08397 0.0
C274 C 0.26339 0.49277 0.08811 0.0
H275 H 0.22726 0.487 0.0741 0.0
C276 C 0.27801 0.48708 0.08394 0.0
C277 C 0.29815 0.50223 0.08109 0.0
C278 C 0.26909 0.5136 0.08928 0.0
H279 H 0.25819 0.51836 0.09258 0.0
C280 C 0.289 0.52855 0.08653 0.0
H281 H 0.27378 0.47107 0.08295 0.0
C282 C 0.30346 0.52295 0.08252 0.0
H283 H 0.3188 0.53483 0.0803 0.0
H284 H 0.29323 0.54455 0.08754 0.0
H285 H 0.44596 0.87415 0.24875 0.0
C286 C 0.43326 0.87427 0.25433 0.0
C287 C 0.42529 0.88643 0.24866 0.0
C288 C 0.42444 0.86169 0.26677 0.0
H289 H 0.40163 0.89456 0.25073 0.0
C290 C 0.40836 0.88595 0.25566 0.0
C291 C 0.39939 0.87358 0.26828 0.0
C292 C 0.40789 0.86181 0.27388 0.0
C293 C 0.43107 0.8469 0.27128 0.0
H294 H 0.40156 0.85247 0.28377 0.0
C295 C 0.45221 0.8529 0.27441 0.0
C296 C 0.45803 0.83832 0.27797 0.0
C297 C 0.41593 0.82624 0.2719 0.0
H298 H 0.3996 0.82114 0.26936 0.0
C299 C 0.42167 0.81182 0.27543 0.0
H300 H 0.46404 0.86878 0.27401 0.0
C301 C 0.44256 0.81776 0.27839 0.0
H302 H 0.44664 0.8063 0.28122 0.0
H303 H 0.40988 0.79595 0.27581 0.0
H304 H 0.13169 0.5751 0.27593 0.0
C305 C 0.12883 0.56114 0.28105 0.0
C306 C 0.1136 0.54198 0.27314 0.0
C307 C 0.14065 0.56237 0.29538 0.0
H308 H 0.09853 0.50917 0.27378 0.0
C309 C 0.11008 0.52399 0.27989 0.0
C310 C 0.12177 0.52498 0.29422 0.0
C311 C 0.13698 0.54425 0.30186 0.0
C312 C 0.15706 0.58249 0.30359 0.0
H313 H 0.14627 0.54518 0.3128 0.0
C314 C 0.15323 0.59882 0.30612 0.0
C315 C 0.16833 0.61747 0.31478 0.0
C316 C 0.17643 0.58523 0.30949 0.0
H317 H 0.17993 0.57302 0.30751 0.0
C318 C 0.19152 0.6038 0.31797 0.0
H319 H 0.13824 0.59679 0.30186 0.0
C320 C 0.18748 0.61982 0.32071 0.0
H321 H 0.19939 0.63412 0.32731 0.0
H322 H 0.20637 0.60576 0.32247 0.0
H323 H 0.42679 0.54283 0.25226 0.0
C324 C 0.44008 0.55659 0.25839 0.0
C325 C 0.45986 0.5636 0.25311 0.0
C326 C 0.43722 0.56784 0.27106 0.0
H327 H 0.49179 0.58791 0.2563 0.0
C328 C 0.47679 0.58188 0.26091 0.0
C329 C 0.47426 0.59315 0.2738 0.0
C330 C 0.45437 0.5858 0.27888 0.0
C331 C 0.41608 0.56228 0.27496 0.0
H332 H 0.45202 0.59419 0.28881 0.0
C333 C 0.40207 0.54257 0.27909 0.0
C334 C 0.38192 0.53763 0.28241 0.0
C335 C 0.4098 0.57696 0.27425 0.0
H336 H 0.42028 0.59219 0.27101 0.0
C337 C 0.38983 0.57205 0.27743 0.0
H338 H 0.40681 0.53117 0.27973 0.0
C339 C 0.37594 0.55251 0.28145 0.0
H340 H 0.36057 0.5491 0.28405 0.0
H341 H 0.38511 0.58344 0.2768 0.0
Tb342 Tb 0.4988 0.0018 0.99754 0.0
Eu343 Eu 0.51341 0.02085 0.03643 0.0
C344 C 0.51727 0.98329 0.02208 0.0
C345 C 0.46843 0.98172 0.02413 0.0
C346 C 0.49379 -0.00042 0.95241 0.0
C347 C 0.49388 0.99756 0.923 0.0
C348 C 0.48921 0.98795 0.93735 0.0
C349 C 0.50286 0.02097 0.95296 0.0
C350 C 0.50753 0.03062 0.93861 0.0
C351 C 0.50328 0.01904 0.92345 0.0
C352 C 0.49026 0.9894 0.96748 0.0
O353 O 0.48508 0.02086 0.00222 0.0
O354 O 0.50705 0.04306 0.02398 0.0
O355 O 0.54194 0.03572 0.02293 0.0
O356 O 0.5253 0.0324 0.99778 0.0
C357 C 0.49279 0.03809 0.01177 0.0
O358 O 0.50865 0.03409 0.05882 0.0
O359 O 0.53439 0.02848 0.05853 0.0
O360 O 0.51152 0.99029 0.03437 0.0
O361 O 0.51778 0.98987 0.00769 0.0
O362 O 0.47538 0.9784 0.01069 0.0
O363 O 0.47907 0.99878 0.03389 0.0
C364 C 0.54223 0.04077 0.00796 0.0
O365 O 0.50695 0.99264 0.97611 0.0
O366 O 0.47736 0.99093 0.97658 0.0
C367 C 0.51705 0.02258 0.08262 0.0
C368 C 0.50354 0.00168 0.11071 0.0
C369 C 0.49803 0.01627 0.10653 0.0
C370 C 0.50477 0.02664 0.0927 0.0
C371 C 0.52283 0.00822 0.08688 0.0
C372 C 0.5162 0.99795 0.10077 0.0
C373 C 0.52312 0.03293 0.06755 0.0
H374 H 0.49011 0.98815 0.91154 0.0
H375 H 0.48226 0.97142 0.93671 0.0
H376 H 0.50666 0.03022 0.96452 0.0
H377 H 0.51496 0.04718 0.93943 0.0
H378 H 0.4881 0.01939 0.11374 0.0
H379 H 0.50009 0.03764 0.08973 0.0
H380 H 0.53235 0.00475 0.07944 0.0
H381 H 0.52108 0.98711 0.10373 0.0
Tb382 Tb 0.01532 0.50253 0.99679 0.0
Eu383 Eu 0.99899 0.50088 0.0331 0.0
C384 C 0.03799 0.54069 0.02329 0.0
C385 C 0.0364 0.49293 0.02622 0.0
C386 C 0.01563 0.497 0.95205 0.0
C387 C 0.01581 0.49976 0.92298 0.0
C388 C 0.02639 0.50513 0.93859 0.0
C389 C 0.99419 0.48321 0.94976 0.0
C390 C 0.98359 0.47774 0.93414 0.0
C391 C 0.99427 0.48613 0.9206 0.0
C392 C 0.02662 0.5042 0.96847 0.0
O393 O 0.99427 0.47016 0.99938 0.0
O394 O 0.97378 0.47359 0.01736 0.0
O395 O 0.98495 0.51545 0.01759 0.0
O396 O 0.98555 0.50093 0.99267 0.0
C397 C 0.97681 0.4626 0.00619 0.0
O398 O 0.98509 0.48378 0.05356 0.0
O399 O 0.99306 0.51561 0.05391 0.0
O400 O 0.03057 0.52892 0.03502 0.0
O401 O 0.03025 0.53405 0.00804 0.0
O402 O 0.03934 0.50311 0.01337 0.0
O403 O 0.01958 0.48683 0.03373 0.0
C404 C 0.97838 0.51012 0.00202 0.0
O405 O 0.02449 0.51847 0.97616 0.0
O406 O 0.02461 0.49015 0.97783 0.0
C407 C 0.99612 0.50365 0.07893 0.0
C408 C 0.01405 0.51136 0.11136 0.0
C409 C 0.99352 0.50705 0.1079 0.0
C410 C 0.98464 0.50323 0.0918 0.0
C411 C 0.01661 0.50799 0.08225 0.0
C412 C 0.02551 0.5118 0.09834 0.0
C413 C 0.98664 0.49965 0.06211 0.0
H414 H 0.02448 0.50627 0.91277 0.0
H415 H 0.04293 0.5159 0.94019 0.0
H416 H 0.9856 0.47701 0.96008 0.0
H417 H 0.96698 0.46738 0.93271 0.0
H418 H 0.98437 0.50688 0.11762 0.0
H419 H 0.96882 0.49999 0.08941 0.0
H420 H 0.02568 0.50835 0.07239 0.0
H421 H 0.04125 0.51481 0.10058 0.0
Tb422 Tb 0.51863 0.51144 0.02326 0.0
Eu423 Eu 0.49966 0.50961 0.98566 0.0
C424 C 0.49577 0.4706 1.00069 0.0
C425 C 0.54555 0.5164 0.9943 0.0
C426 C 0.52324 0.51197 0.06834 0.0
C427 C 0.52211 0.50356 0.0963 0.0
C428 C 0.52925 0.50389 0.08101 0.0
C429 C 0.50957 0.51927 0.07103 0.0
C430 C 0.50253 0.51908 0.08633 0.0
C431 C 0.50889 0.51143 0.09923 0.0
C432 C 0.53179 0.51326 0.05258 0.0
O433 O 0.53398 0.54224 0.0156 0.0
O434 O 0.50676 0.53924 0.99928 0.0
O435 O 0.47261 0.49913 1.00077 0.0
O436 O 0.49086 0.51341 0.02599 0.0
C437 C 0.52414 0.55058 0.00864 0.0
O438 O 0.501 0.52518 0.96399 0.0
O439 O 0.47779 0.49312 0.96409 0.0
O440 O 0.50095 0.48086 0.98792 0.0
O441 O 0.49623 0.4796 0.01489 0.0
O442 O 0.54016 0.50858 0.00819 0.0
O443 O 0.53392 0.52134 0.98525 0.0
C444 C 0.47344 0.50485 0.01628 0.0
O445 O 0.52306 0.49655 0.04261 0.0
O446 O 0.5353 0.52919 0.04508 0.0
C447 C 0.49268 0.50406 0.93927 0.0
C448 C 0.50586 0.49703 0.9094 0.0
C449 C 0.50883 0.51649 0.91452 0.0
C450 C 0.50223 0.51992 0.92924 0.0
C451 C 0.48935 0.48449 0.93406 0.0
C452 C 0.49581 0.48102 0.91928 0.0
C453 C 0.48701 0.5084 0.95527 0.0
H454 H 0.52704 0.49722 0.10585 0.0
H455 H 0.53968 0.49804 0.07913 0.0
H456 H 0.50468 0.52555 0.06141 0.0
H457 H 0.4926 0.52552 0.08813 0.0
H458 H 0.51673 0.52927 0.90737 0.0
H459 H 0.50497 0.53514 0.93294 0.0
H460 H 0.48195 0.47188 0.94146 0.0
H461 H 0.49292 0.46574 0.91561 0.0
Tb462 Tb 0.16474 0.33179 0.32967 0.0
Eu463 Eu 0.17889 0.35056 0.36866 0.0
C464 C 0.1818 0.31232 0.35452 0.0
C465 C 0.13361 0.312 0.35586 0.0
C466 C 0.16057 0.33009 0.28461 0.0
C467 C 0.16135 0.32856 0.25527 0.0
C468 C 0.15637 0.3187 0.26949 0.0
C469 C 0.16956 0.35149 0.28535 0.0
C470 C 0.17453 0.36138 0.27113 0.0
C471 C 0.17067 0.35005 0.25592 0.0
C472 C 0.15673 0.31969 0.29956 0.0
O473 O 0.1514 0.35124 0.33408 0.0
O474 O 0.17311 0.37307 0.35611 0.0
O475 O 0.2077 0.36498 0.35545 0.0
O476 O 0.19155 0.36223 0.33023 0.0
C477 C 0.15912 0.36839 0.34374 0.0
O478 O 0.17433 0.36424 0.39089 0.0
O479 O 0.1995 0.35775 0.39091 0.0
O480 O 0.17629 0.3197 0.36672 0.0
O481 O 0.18267 0.31886 0.34008 0.0
O482 O 0.14064 0.30865 0.34249 0.0
O483 O 0.14443 0.3288 0.36589 0.0
C484 C 0.20833 0.37026 0.34054 0.0
O485 O 0.17328 0.32283 0.30836 0.0
O486 O 0.14364 0.3211 0.30852 0.0
C487 C 0.18218 0.35276 0.41498 0.0
C488 C 0.16872 0.33288 0.44346 0.0
C489 C 0.16231 0.3465 0.43839 0.0
C490 C 0.16906 0.35639 0.42436 0.0
C491 C 0.18882 0.33934 0.42016 0.0
C492 C 0.18218 0.32955 0.43426 0.0
C493 C 0.18848 0.36275 0.39977 0.0
H494 H 0.15788 0.31934 0.24375 0.0
H495 H 0.14949 0.30218 0.2687 0.0
H496 H 0.17306 0.36055 0.29696 0.0
H497 H 0.1819 0.37794 0.27211 0.0
H498 H 0.15218 0.34961 0.44534 0.0
H499 H 0.16384 0.36679 0.42077 0.0
H500 H 0.19896 0.33619 0.41326 0.0
H501 H 0.18726 0.31903 0.43776 0.0
Tb502 Tb 0.68142 0.83415 0.32577 0.0
Eu503 Eu 0.66571 0.83181 0.36241 0.0
C504 C 0.70508 0.87169 0.35304 0.0
C505 C 0.7034 0.82416 0.35458 0.0
C506 C 0.68044 0.8299 0.28083 0.0
C507 C 0.68009 0.8332 0.25185 0.0
C508 C 0.69095 0.83821 0.26731 0.0
C509 C 0.65894 0.81634 0.27874 0.0
C510 C 0.64806 0.81123 0.26326 0.0
C511 C 0.65851 0.81976 0.24966 0.0
C512 C 0.6918 0.83658 0.29713 0.0
O513 O 0.6609 0.80169 0.32819 0.0
O514 O 0.64049 0.80456 0.34652 0.0
O515 O 0.65248 0.84763 0.34768 0.0
O516 O 0.65158 0.83268 0.32258 0.0
C517 C 0.64356 0.79383 0.33513 0.0
O518 O 0.65295 0.81436 0.38306 0.0
O519 O 0.65849 0.84543 0.38311 0.0
O520 O 0.69729 0.85979 0.36464 0.0
O521 O 0.69756 0.86543 0.33771 0.0
O522 O 0.70556 0.83349 0.34129 0.0
O523 O 0.68735 0.81898 0.36292 0.0
C524 C 0.64522 0.84235 0.33226 0.0
O525 O 0.68999 0.8507 0.30541 0.0
O526 O 0.68994 0.82218 0.30601 0.0
C527 C 0.66341 0.83448 0.40845 0.0
C528 C 0.68183 0.84242 0.44083 0.0
C529 C 0.66379 0.82362 0.43547 0.0
C530 C 0.65465 0.81974 0.41946 0.0
C531 C 0.68146 0.85326 0.4137 0.0
C532 C 0.6905 0.85723 0.42975 0.0
C533 C 0.65368 0.82986 0.39155 0.0
H534 H 0.68859 0.83981 0.24158 0.0
H535 H 0.70753 0.84881 0.26876 0.0
H536 H 0.65055 0.80999 0.28912 0.0
H537 H 0.63142 0.801 0.26197 0.0
H538 H 0.65688 0.81173 0.44357 0.0
H539 H 0.64079 0.80511 0.41563 0.0
H540 H 0.68861 0.8649 0.40544 0.0
H541 H 0.70421 0.87198 0.43349 0.0
Tb542 Tb 0.18413 0.84372 0.35718 0.0
Eu543 Eu 0.16511 0.84142 0.31951 0.0
C544 C 0.16155 0.80267 0.33483 0.0
C545 C 0.21116 0.84858 0.32822 0.0
C546 C 0.18855 0.84406 0.40228 0.0
C547 C 0.18724 0.8348 0.43 0.0
C548 C 0.19449 0.83561 0.4147 0.0
C549 C 0.17479 0.8512 0.40521 0.0
C550 C 0.16767 0.85055 0.42052 0.0
C551 C 0.17398 0.84256 0.4332 0.0
C552 C 0.19731 0.84597 0.38656 0.0
O553 O 0.19937 0.87437 0.34923 0.0
O554 O 0.17191 0.87099 0.33305 0.0
O555 O 0.13797 0.83063 0.33453 0.0
O556 O 0.156 0.84511 0.35979 0.0
C557 C 0.18935 0.88253 0.34228 0.0
O558 O 0.16623 0.85688 0.29781 0.0
O559 O 0.14332 0.82472 0.29795 0.0
O560 O 0.16663 0.81281 0.32199 0.0
O561 O 0.16196 0.81176 0.34898 0.0
O562 O 0.2059 0.84105 0.34224 0.0
O563 O 0.19938 0.85322 0.31904 0.0
C564 C 0.13862 0.83631 0.35001 0.0
O565 O 0.18944 0.82935 0.37652 0.0
O566 O 0.20004 0.86169 0.37909 0.0
C567 C 0.15792 0.83582 0.27306 0.0
C568 C 0.17064 0.82905 0.24289 0.0
C569 C 0.17327 0.84836 0.24806 0.0
C570 C 0.16689 0.85166 0.26293 0.0
C571 C 0.15498 0.81642 0.26784 0.0
C572 C 0.16122 0.81307 0.25291 0.0
C573 C 0.15231 0.84004 0.28912 0.0
H574 H 0.19213 0.82819 0.43934 0.0
H575 H 0.20497 0.82988 0.41263 0.0
H576 H 0.16991 0.85772 0.39579 0.0
H577 H 0.15772 0.85691 0.42253 0.0
H578 H 0.1807 0.86111 0.24081 0.0
H579 H 0.16932 0.86676 0.26664 0.0
H580 H 0.14803 0.80383 0.27532 0.0
H581 H 0.1586 0.7979 0.24922 0.0
Tb582 Tb 0.83321 0.66545 0.66353 0.0
Eu583 Eu 0.84731 0.68519 0.70228 0.0
C584 C 0.85181 0.64767 0.68876 0.0
C585 C 0.80276 0.64516 0.69012 0.0
C586 C 0.82872 0.6629 0.61841 0.0
C587 C 0.83218 0.66188 0.5894 0.0
C588 C 0.82771 0.65212 0.60369 0.0
C589 C 0.83409 0.68357 0.61867 0.0
C590 C 0.83848 0.69334 0.60436 0.0
C591 C 0.83774 0.68264 0.58957 0.0
C592 C 0.82549 0.65283 0.63353 0.0
O593 O 0.81851 0.68375 0.66762 0.0
O594 O 0.83982 0.70643 0.68944 0.0
O595 O 0.87584 0.70034 0.68882 0.0
O596 O 0.859 0.69646 0.66367 0.0
C597 C 0.82554 0.70092 0.67714 0.0
O598 O 0.84208 0.69851 0.72439 0.0
O599 O 0.86847 0.69388 0.72442 0.0
O600 O 0.84607 0.65495 0.70086 0.0
O601 O 0.85225 0.65384 0.6742 0.0
O602 O 0.80977 0.64199 0.67666 0.0
O603 O 0.81318 0.66225 0.69988 0.0
C604 C 0.87593 0.70531 0.67385 0.0
O605 O 0.84237 0.65694 0.64235 0.0
O606 O 0.812 0.65354 0.64243 0.0
C607 C 0.85112 0.68805 0.74848 0.0
C608 C 0.83789 0.66762 0.77679 0.0
C609 C 0.8332 0.68287 0.77291 0.0
C610 C 0.83981 0.693 0.75896 0.0
C611 C 0.85608 0.67302 0.75242 0.0
C612 C 0.84961 0.663 0.76643 0.0
C613 C 0.85689 0.69808 0.73326 0.0
H614 H 0.83122 0.65314 0.5782 0.0
H615 H 0.82372 0.63619 0.60329 0.0
H616 H 0.8352 0.69223 0.62998 0.0
H617 H 0.84293 0.70939 0.60495 0.0
H618 H 0.82399 0.68668 0.78044 0.0
H619 H 0.83575 0.70449 0.7562 0.0
H620 H 0.8648 0.66882 0.74463 0.0
H621 H 0.85385 0.65163 0.76915 0.0
Tb622 Tb 0.3462 0.16898 0.66175 0.0
Eu623 Eu 0.32972 0.16447 0.6982 0.0
C624 C 0.36831 0.20544 0.68958 0.0
C625 C 0.36753 0.15775 0.6901 0.0
C626 C 0.34733 0.16624 0.61699 0.0
C627 C 0.34757 0.17043 0.58815 0.0
C628 C 0.35788 0.17589 0.60385 0.0
C629 C 0.32636 0.15091 0.61429 0.0
C630 C 0.31604 0.14536 0.59857 0.0
C631 C 0.3265 0.1552 0.58535 0.0
C632 C 0.35796 0.17323 0.63353 0.0
O633 O 0.32528 0.1362 0.66244 0.0
O634 O 0.30522 0.13685 0.68221 0.0
O635 O 0.31519 0.17937 0.68369 0.0
O636 O 0.31585 0.16626 0.65824 0.0
C637 C 0.30837 0.12727 0.66993 0.0
O638 O 0.31668 0.14649 0.71847 0.0
O639 O 0.32295 0.17782 0.7194 0.0
O640 O 0.36124 0.19274 0.70078 0.0
O641 O 0.36024 0.19975 0.67434 0.0
O642 O 0.37029 0.16865 0.6777 0.0
O643 O 0.35082 0.15108 0.6978 0.0
C644 C 0.3085 0.17471 0.66813 0.0
O645 O 0.35437 0.18619 0.64172 0.0
O646 O 0.35709 0.15911 0.64234 0.0
C647 C 0.32705 0.16579 0.7441 0.0
C648 C 0.34543 0.17406 0.77643 0.0
C649 C 0.32481 0.16955 0.7731 0.0
C650 C 0.31572 0.16545 0.75706 0.0
C651 C 0.34762 0.17031 0.74729 0.0
C652 C 0.35673 0.17438 0.76333 0.0
C653 C 0.3174 0.16175 0.72732 0.0
H654 H 0.35609 0.17809 0.57818 0.0
H655 H 0.37405 0.18784 0.60577 0.0
H656 H 0.31791 0.14349 0.62437 0.0
H657 H 0.29977 0.13373 0.59681 0.0
H658 H 0.31578 0.16948 0.78288 0.0
H659 H 0.29985 0.16211 0.75476 0.0
H660 H 0.35659 0.17066 0.73737 0.0
H661 H 0.37254 0.17754 0.76548 0.0
Tb662 Tb 0.84528 0.16981 0.68838 0.0
Eu663 Eu 0.82891 0.17142 0.65082 0.0
C664 C 0.82668 0.13141 0.66261 0.0
C665 C 0.87444 0.17832 0.66075 0.0
C666 C 0.85206 0.17448 0.73349 0.0
C667 C 0.84989 0.17092 0.76238 0.0
C668 C 0.85486 0.16602 0.74738 0.0
C669 C 0.84441 0.18807 0.73476 0.0
C670 C 0.83954 0.19307 0.74978 0.0
C671 C 0.84206 0.1844 0.76374 0.0
C672 C 0.85571 0.16786 0.7176 0.0
O673 O 0.85877 0.20213 0.68467 0.0
O674 O 0.83424 0.19992 0.66534 0.0
O675 O 0.80096 0.15857 0.66515 0.0
O676 O 0.81831 0.17326 0.69045 0.0
C677 C 0.84969 0.21057 0.6767 0.0
O678 O 0.83211 0.18849 0.62975 0.0
O679 O 0.80746 0.15681 0.62879 0.0
O680 O 0.83147 0.14307 0.65065 0.0
O681 O 0.82595 0.13843 0.67728 0.0
O682 O 0.8676 0.16821 0.6735 0.0
O683 O 0.86361 0.18465 0.65228 0.0
C684 C 0.8011 0.16423 0.68053 0.0
O685 O 0.83919 0.15344 0.7089 0.0
O686 O 0.86748 0.18228 0.70886 0.0
C687 C 0.82338 0.16833 0.60451 0.0
C688 C 0.83643 0.16183 0.57443 0.0
C689 C 0.83801 0.18078 0.57927 0.0
C690 C 0.83148 0.18395 0.59411 0.0
C691 C 0.82155 0.1493 0.59965 0.0
C692 C 0.82791 0.14607 0.58476 0.0
C693 C 0.81769 0.17246 0.62053 0.0
H694 H 0.85222 0.16418 0.77294 0.0
H695 H 0.86061 0.15539 0.74657 0.0
H696 H 0.84188 0.19453 0.72409 0.0
H697 H 0.83332 0.20332 0.7504 0.0
H698 H 0.84474 0.19338 0.57179 0.0
H699 H 0.83311 0.19877 0.59761 0.0
H700 H 0.81539 0.13694 0.6074 0.0
H701 H 0.82612 0.13117 0.58133 0.0
C702 C 0.31444 0.85515 0.08315 0.0
C703 C 0.29994 0.83831 0.07229 0.0
C704 C 0.33164 0.87153 0.07755 0.0
C705 C 0.3539 0.89512 0.03996 0.0
H706 H 0.40596 0.91731 0.06721 0.0
C707 C 0.43463 0.9484 0.01808 0.0
C708 C 0.44839 0.96563 0.02893 0.0
C709 C 0.41587 0.93322 0.02293 0.0
C710 C 0.39151 0.91138 0.05952 0.0
H711 H 0.29163 0.8261 0.04685 0.0
H712 H 0.32195 0.85421 0.03719 0.0
H713 H 0.37425 0.89073 0.07655 0.0
H714 H 0.45314 0.98039 0.05341 0.0
H715 H 0.42066 0.95395 0.06179 0.0
H716 H 0.37149 0.9156 0.02277 0.0
C717 C 0.31996 0.85493 0.05002 0.0
C718 C 0.37328 0.89621 0.0649 0.0
C719 C 0.30267 0.83864 0.05561 0.0
C720 C 0.44294 0.96736 0.04469 0.0
C721 C 0.42436 0.95214 0.04956 0.0
C722 C 0.37222 0.9102 0.03451 0.0
C723 C 0.33488 0.87141 0.06096 0.0
C724 C 0.35419 0.88791 0.05524 0.0
C725 C 0.41066 0.93487 0.03878 0.0
C726 C 0.3912 0.91855 0.04428 0.0
H727 H 0.31294 0.85539 0.09609 0.0
H728 H 0.34257 0.88415 0.08629 0.0
H729 H 0.33947 0.88928 0.03226 0.0
H730 H 0.43833 0.94662 0.00585 0.0
H731 H 0.40564 0.92 0.01439 0.0
C732 C 0.19036 0.48649 0.077 0.0
C733 C 0.18724 0.46772 0.08196 0.0
C734 C 0.17366 0.48845 0.07087 0.0
C735 C 0.11742 0.45796 0.05497 0.0
H736 H 0.1208 0.51064 0.06348 0.0
C737 C 0.04857 0.4731 0.04247 0.0
C738 C 0.05299 0.48921 0.0328 0.0
C739 C 0.06442 0.4697 0.04855 0.0
C740 C 0.11969 0.49586 0.061 0.0
H741 H 0.16374 0.43616 0.08397 0.0
H742 H 0.13458 0.4399 0.07424 0.0
H743 H 0.14918 0.50609 0.07413 0.0
H744 H 0.07749 0.51458 0.02213 0.0
H745 H 0.10516 0.50898 0.03315 0.0
H746 H 0.08742 0.44772 0.04231 0.0
C747 C 0.15005 0.45303 0.07466 0.0
C748 C 0.13604 0.49324 0.06697 0.0
C749 C 0.16683 0.45095 0.08052 0.0
C750 C 0.07356 0.50196 0.02947 0.0
C751 C 0.08942 0.49884 0.03583 0.0
C752 C 0.10087 0.46049 0.04928 0.0
C753 C 0.15319 0.47185 0.06982 0.0
C754 C 0.13531 0.47433 0.06387 0.0
C755 C 0.085 0.48266 0.04538 0.0
C756 C 0.10198 0.47954 0.05208 0.0
H757 H 0.20571 0.49992 0.07814 0.0
H758 H 0.1769 0.50309 0.06696 0.0
H759 H 0.1163 0.44325 0.05208 0.0
H760 H 0.03286 0.463 0.04521 0.0
H761 H 0.06066 0.45717 0.05595 0.0
C762 C 0.54405 0.71424 0.04139 0.0
C763 C 0.56066 0.72974 0.05195 0.0
C764 C 0.54521 0.69765 0.03442 0.0
C765 C 0.55542 0.66858 0.0158 0.0
H766 H 0.56659 0.63805 0.04703 0.0
C767 C 0.52149 0.58185 0.00513 0.0
C768 C 0.53277 0.57298 0.01133 0.0
C769 C 0.52913 0.60286 0.00827 0.0
C770 C 0.56389 0.64656 0.03804 0.0
H771 H 0.59185 0.74021 0.06299 0.0
H772 H 0.59351 0.71065 0.05117 0.0
H773 H 0.57312 0.67236 0.05555 0.0
H774 H 0.56127 0.5793 0.02524 0.0
H775 H 0.57472 0.61609 0.03056 0.0
H776 H 0.5457 0.64264 0.99838 0.0
C777 C 0.57968 0.71158 0.04828 0.0
C778 C 0.56763 0.66621 0.04295 0.0
C779 C 0.57865 0.7284 0.05511 0.0
C780 C 0.55212 0.58565 0.02039 0.0
C781 C 0.55981 0.60672 0.02348 0.0
C782 C 0.55184 0.64901 0.01086 0.0
C783 C 0.56288 0.69599 0.03799 0.0
C784 C 0.56274 0.67709 0.03201 0.0
C785 C 0.54828 0.61552 0.01761 0.0
C786 C 0.55533 0.63748 0.02208 0.0
H787 H 0.52975 0.71444 0.03896 0.0
H788 H 0.53186 0.68564 0.02678 0.0
H789 H 0.55179 0.6768 0.00709 0.0
H790 H 0.50652 0.57252 0.99813 0.0
H791 H 0.51965 0.60904 0.00382 0.0
C792 C 0.82066 0.29914 0.95772 0.0
C793 C 0.82396 0.28353 0.95113 0.0
C794 C 0.83728 0.31775 0.96494 0.0
C795 C 0.89347 0.34396 0.98046 0.0
H796 H 0.8907 0.39274 0.9727 0.0
C797 C 0.9636 0.42744 0.99188 0.0
C798 C 0.95983 0.4415 1.00075 0.0
C799 C 0.94731 0.40763 0.98656 0.0
C800 C 0.89162 0.37923 0.97504 0.0
H801 H 0.84743 0.27508 0.94773 0.0
H802 H 0.87647 0.30785 0.95953 0.0
H803 H 0.86177 0.35915 0.96231 0.0
H804 H 0.93601 0.44583 0.01094 0.0
H805 H 0.90762 0.41147 1.00137 0.0
H806 H 0.9238 0.36442 0.99274 0.0
C807 C 0.86097 0.30561 0.95941 0.0
C808 C 0.87498 0.35993 0.96919 0.0
C809 C 0.8443 0.28685 0.95241 0.0
C810 C 0.93947 0.43535 0.00419 0.0
C811 C 0.92318 0.41572 0.99865 0.0
C812 C 0.91028 0.36334 0.9861 0.0
C813 C 0.85773 0.32145 0.96554 0.0
C814 C 0.87557 0.34199 0.97191 0.0
C815 C 0.92692 0.4017 0.98976 0.0
C816 C 0.90943 0.38113 0.98353 0.0
H817 H 0.80532 0.29734 0.95684 0.0
H818 H 0.83405 0.32936 0.96986 0.0
H819 H 0.89443 0.33053 0.98299 0.0
H820 H 0.97913 0.43171 0.98907 0.0
H821 H 0.95055 0.39711 0.97964 0.0
C822 C 0.71216 0.55694 0.94288 0.0
C823 C 0.71494 0.53978 0.94154 0.0
C824 C 0.69437 0.55546 0.94886 0.0
C825 C 0.65513 0.52854 0.97569 0.0
H826 H 0.61829 0.53925 0.94833 0.0
C827 C 0.57399 0.50798 0.99352 0.0
C828 C 0.56537 0.51988 0.98866 0.0
C829 C 0.59257 0.51109 0.98797 0.0
C830 C 0.62854 0.53659 0.95634 0.0
H831 H 0.70052 0.50741 0.94522 0.0
H832 H 0.67027 0.50535 0.95644 0.0
H833 H 0.65059 0.54437 0.93873 0.0
H834 H 0.56967 0.54471 0.97451 0.0
H835 H 0.60252 0.5509 0.96551 0.0
H836 H 0.63374 0.52145 0.99357 0.0
C837 C 0.68193 0.51987 0.95278 0.0
C838 C 0.647 0.53943 0.95073 0.0
C839 C 0.69942 0.52118 0.94647 0.0
C840 C 0.57584 0.53514 0.97833 0.0
C841 C 0.59465 0.53858 0.97307 0.0
C842 C 0.63692 0.52614 0.98146 0.0
C843 C 0.67919 0.53694 0.95395 0.0
C844 C 0.66031 0.53519 0.96028 0.0
C845 C 0.60327 0.52651 0.97771 0.0
C846 C 0.62317 0.52986 0.9718 0.0
H847 H 0.7238 0.57161 0.93947 0.0
H848 H 0.69259 0.56886 0.94973 0.0
H849 H 0.66527 0.52532 0.98331 0.0
H850 H 0.56615 0.49596 1.00136 0.0
H851 H 0.5983 0.50112 0.99157 0.0
C852 C 0.45388 0.17365 0.98379 0.0
C853 C 0.45204 0.17414 0.96682 0.0
C854 C 0.45426 0.15724 0.99039 0.0
C855 C 0.4427 0.10411 0.98153 0.0
H856 H 0.4921 0.12122 0.01103 0.0
C857 C 0.475 0.05059 0.99304 0.0
C858 C 0.48524 0.05236 0.00837 0.0
C859 C 0.46827 0.0643 0.98956 0.0
C860 C 0.47797 0.11606 0.00311 0.0
H861 H 0.44806 0.15719 0.9435 0.0
H862 H 0.44822 0.12832 0.95506 0.0
H863 H 0.48381 0.14673 0.00228 0.0
H864 H 0.49593 0.0695 0.03226 0.0
H865 H 0.48366 0.09316 0.02636 0.0
H866 H 0.43684 0.07344 0.98228 0.0
C867 C 0.44941 0.1407 0.96323 0.0
C868 C 0.47327 0.13072 0.99807 0.0
C869 C 0.44927 0.15722 0.95661 0.0
C870 C 0.48826 0.06789 0.02028 0.0
C871 C 0.48128 0.08148 0.01686 0.0
C872 C 0.44725 0.08938 0.98673 0.0
C873 C 0.4525 0.14085 0.98016 0.0
C874 C 0.45584 0.12493 0.98697 0.0
C875 C 0.47138 0.07998 1.0014 0.0
C876 C 0.46522 0.09524 0.99729 0.0
H877 H 0.45558 0.18623 0.992 0.0
H878 H 0.4564 0.15757 0.0035 0.0
H879 H 0.42906 0.09926 0.97308 0.0
H880 H 0.47258 0.03887 0.98355 0.0
H881 H 0.46112 0.06292 0.97742 0.0
C882 C 0.70492 0.17988 0.96619 0.0
C883 C 0.69952 0.18725 0.95263 0.0
C884 C 0.69004 0.16196 0.9722 0.0
C885 C 0.63858 0.11551 0.96159 0.0
H886 H 0.63172 0.12053 0.00742 0.0
C887 C 0.56171 0.063 0.98672 0.0
C888 C 0.56187 0.05648 0.00228 0.0
C889 C 0.58006 0.07747 0.98102 0.0
C890 C 0.63361 0.11867 0.99467 0.0
H891 H 0.67479 0.18125 0.9342 0.0
H892 H 0.64892 0.14988 0.94447 0.0
H893 H 0.66161 0.14785 0.9964 0.0
H894 H 0.58158 0.06011 0.02404 0.0
H895 H 0.61378 0.08534 0.01398 0.0
H896 H 0.61053 0.08651 0.95973 0.0
C897 C 0.66456 0.15789 0.95054 0.0
C898 C 0.65075 0.13435 0.98836 0.0
C899 C 0.67932 0.17589 0.9447 0.0
C900 C 0.58089 0.06486 0.01202 0.0
C901 C 0.59934 0.07936 0.00627 0.0
C902 C 0.62155 0.0998 0.9679 0.0
C903 C 0.66961 0.15097 0.96456 0.0
C904 C 0.65312 0.13315 0.97167 0.0
C905 C 0.59914 0.08578 0.99065 0.0
C906 C 0.61853 0.10142 0.98443 0.0
H907 H 0.72037 0.18846 0.97258 0.0
H908 H 0.69438 0.1569 0.98297 0.0
H909 H 0.64017 0.11403 0.94872 0.0
H910 H 0.54736 0.05699 0.97887 0.0
H911 H 0.57919 0.08237 0.96909 0.0
C912 C 0.81985 0.49811 0.93884 0.0
C913 C 0.81211 0.50882 0.94765 0.0
C914 C 0.83936 0.50081 0.94364 0.0
C915 C 0.8883 0.53314 0.97118 0.0
H916 H 0.89094 0.48307 0.96768 0.0
C917 C 0.9537 0.52355 0.00427 0.0
C918 C 0.96127 0.51291 0.99505 0.0
C919 C 0.9367 0.52497 0.9979 0.0
C920 C 0.89054 0.49723 0.96859 0.0
H921 H 0.81883 0.53125 0.96802 0.0
H922 H 0.8528 0.53561 0.9768 0.0
H923 H 0.85935 0.48227 0.95753 0.0
H924 H 0.9572 0.49591 0.97171 0.0
H925 H 0.92757 0.49827 0.96076 0.0
H926 H 0.91948 0.54783 0.98278 0.0
C927 C 0.84404 0.52543 0.96596 0.0
C928 C 0.87243 0.49683 0.96269 0.0
C929 C 0.82458 0.52294 0.96097 0.0
C930 C 0.95177 0.50416 0.97921 0.0
C931 C 0.93471 0.50542 0.97293 0.0
C932 C 0.90641 0.53348 0.97725 0.0
C933 C 0.85146 0.514 0.95758 0.0
C934 C 0.87105 0.51478 0.96379 0.0
C935 C 0.92681 0.5156 0.98227 0.0
C936 C 0.90773 0.51553 0.97593 0.0
H937 H 0.81057 0.48728 0.92842 0.0
H938 H 0.84476 0.49219 0.93658 0.0
H939 H 0.88791 0.5473 0.97212 0.0
H940 H 0.96069 0.53051 0.0165 0.0
H941 H 0.93087 0.53282 0.00541 0.0
C942 C 0.49037 0.30899 0.96935 0.0
C943 C 0.49836 0.30257 0.98206 0.0
C944 C 0.48721 0.32559 0.97225 0.0
C945 C 0.50405 0.3711 0.00181 0.0
H946 H 0.4596 0.37414 0.97778 0.0
C947 C 0.4914 0.43965 0.01341 0.0
C948 C 0.49096 0.44907 0.99935 0.0
C949 C 0.48935 0.42019 0.0121 0.0
C950 C 0.47205 0.37344 0.98457 0.0
H951 H 0.50848 0.30772 0.00785 0.0
H952 H 0.50239 0.33629 0.01309 0.0
H953 H 0.46159 0.34284 0.97423 0.0
H954 H 0.48687 0.44507 0.97294 0.0
H955 H 0.48305 0.41096 0.9707 0.0
H956 H 0.51442 0.40167 0.01219 0.0
C957 C 0.49918 0.32902 1.00076 0.0
C958 C 0.47329 0.35559 0.98249 0.0
C959 C 0.50261 0.31263 0.9978 0.0
C960 C 0.48738 0.43824 0.98399 0.0
C961 C 0.48507 0.41868 0.9827 0.0
C962 C 0.50265 0.3888 0.00404 0.0
C963 C 0.49172 0.33592 0.98798 0.0
C964 C 0.48949 0.35431 0.99092 0.0
C965 C 0.48654 0.4097 0.99674 0.0
C966 C 0.4868 0.39023 0.9953 0.0
H967 H 0.4871 0.30152 0.95708 0.0
H968 H 0.48178 0.33066 0.96206 0.0
H969 H 0.51698 0.37089 0.00827 0.0
H970 H 0.49414 0.44759 0.02542 0.0
H971 H 0.49038 0.4135 0.02311 0.0
C972 C 0.19843 0.70272 0.06836 0.0
C973 C 0.21242 0.70934 0.05649 0.0
C974 C 0.17861 0.68551 0.06471 0.0
C975 C 0.14971 0.6393 0.03477 0.0
H976 H 0.10163 0.63404 0.05432 0.0
C977 C 0.06746 0.57238 0.01456 0.0
C978 C 0.05619 0.56153 0.02711 0.0
C979 C 0.08567 0.59128 0.01817 0.0
C980 C 0.11498 0.63533 0.04883 0.0
H981 H 0.21646 0.70403 0.03133 0.0
H982 H 0.18172 0.67458 0.0247 0.0
H983 H 0.13501 0.66581 0.06027 0.0
H984 H 0.0548 0.56244 0.05325 0.0
H985 H 0.08657 0.59573 0.0595 0.0
H986 H 0.12956 0.60897 0.02311 0.0
C987 C 0.18616 0.68205 0.03702 0.0
C988 C 0.13412 0.65346 0.05228 0.0
C989 C 0.20603 0.69901 0.04075 0.0
C990 C 0.06316 0.57038 0.04331 0.0
C991 C 0.08127 0.58946 0.0469 0.0
C992 C 0.13057 0.62135 0.03116 0.0
C993 C 0.17231 0.67478 0.04903 0.0
C994 C 0.15176 0.65568 0.04529 0.0
C995 C 0.09288 0.59989 0.03437 0.0
C996 C 0.11302 0.61917 0.03816 0.0
H997 H 0.20308 0.71042 0.08062 0.0
H998 H 0.16851 0.68028 0.07432 0.0
H999 H 0.16298 0.64014 0.02947 0.0
H1000 H 0.06256 0.56602 0.00195 0.0
H1001 H 0.09425 0.59911 0.00827 0.0
C1002 C 0.31052 0.48471 0.06178 0.0
C1003 C 0.31392 0.49703 0.07632 0.0
C1004 C 0.32691 0.48321 0.05572 0.0
C1005 C 0.3844 0.51296 0.05876 0.0
H1006 H 0.37889 0.46488 0.03421 0.0
C1007 C 0.45553 0.51016 0.03917 0.0
C1008 C 0.45439 0.50221 0.02309 0.0
C1009 C 0.43784 0.50813 0.04565 0.0
C1010 C 0.3806 0.47847 0.04094 0.0
H1011 H 0.33655 0.51622 0.09648 0.0
H1012 H 0.36486 0.513 0.08635 0.0
H1013 H 0.34885 0.46299 0.04614 0.0
H1014 H 0.43348 0.4855 1.00132 0.0
H1015 H 0.40251 0.48199 0.01269 0.0
H1016 H 0.41607 0.52842 0.05367 0.0
C1017 C 0.34984 0.50505 0.07926 0.0
C1018 C 0.3634 0.4774 0.04778 0.0
C1019 C 0.33358 0.50673 0.08518 0.0
C1020 C 0.43497 0.49187 0.01373 0.0
C1021 C 0.41719 0.48974 0.02027 0.0
C1022 C 0.40154 0.51398 0.05204 0.0
C1023 C 0.34695 0.4939 0.06415 0.0
C1024 C 0.36511 0.49463 0.05687 0.0
C1025 C 0.41848 0.49803 0.03626 0.0
C1026 C 0.39992 0.49675 0.04311 0.0
H1027 H 0.29552 0.47724 0.05465 0.0
H1028 H 0.32408 0.47455 0.04402 0.0
H1029 H 0.38625 0.52674 0.06525 0.0
H1030 H 0.47015 0.51814 0.04681 0.0
H1031 H 0.43934 0.51445 0.05808 0.0
C1032 C 0.52857 0.82799 0.0246 0.0
C1033 C 0.52789 0.82148 0.04019 0.0
C1034 C 0.53172 0.84751 0.02263 0.0
C1035 C 0.54624 0.89802 0.0447 0.0
H1036 H 0.51007 0.89844 0.00924 0.0
C1037 C 0.52376 0.9609 0.03986 0.0
C1038 C 0.52278 0.96726 0.02435 0.0
C1039 C 0.52766 0.94483 0.0418 0.0
C1040 C 0.52049 0.89867 0.01905 0.0
H1041 H 0.53084 0.83028 0.06599 0.0
H1042 H 0.53567 0.86432 0.0626 0.0
H1043 H 0.51123 0.86734 0.01265 0.0
H1044 H 0.52585 0.96221 0.99881 0.0
H1045 H 0.53254 0.93412 0.00223 0.0
H1046 H 0.55481 0.92933 0.05136 0.0
C1047 C 0.53421 0.85457 0.05189 0.0
C1048 C 0.52124 0.88085 0.021 0.0
C1049 C 0.53137 0.83509 0.05386 0.0
C1050 C 0.52639 0.95763 0.01091 0.0
C1051 C 0.53016 0.9415 0.01285 0.0
C1052 C 0.54535 0.91587 0.04282 0.0
C1053 C 0.53386 0.86078 0.0362 0.0
C1054 C 0.53407 0.88025 0.03386 0.0
C1055 C 0.53051 0.93473 0.02826 0.0
C1056 C 0.53241 0.91631 0.02999 0.0
H1057 H 0.52619 0.81778 0.0139 0.0
H1058 H 0.53194 0.85198 0.01041 0.0
H1059 H 0.55645 0.89816 0.05464 0.0
H1060 H 0.52114 0.96806 0.05049 0.0
H1061 H 0.52769 0.93981 0.0538 0.0
C1062 C 0.96586 0.16987 0.38587 0.0
C1063 C 0.96383 0.17002 0.40267 0.0
C1064 C 0.98267 0.18608 0.37977 0.0
C1065 C 0.02422 0.24001 0.38918 0.0
H1066 H 0.05431 0.22456 0.36034 0.0
C1067 C 0.10713 0.29766 0.37574 0.0
C1068 C 0.11307 0.29623 0.36013 0.0
C1069 C 0.08794 0.28277 0.37999 0.0
C1070 C 0.04594 0.22921 0.36814 0.0
H1071 H 0.9776 0.18777 0.42614 0.0
H1072 H 0.00675 0.21624 0.41543 0.0
H1073 H 0.02216 0.1981 0.3693 0.0
H1074 H 0.10328 0.27811 0.33665 0.0
H1075 H 0.06955 0.2523 0.34395 0.0
H1076 H 0.04793 0.27111 0.38802 0.0
C1077 C 0.99527 0.20354 0.40699 0.0
C1078 C 0.02751 0.21401 0.37331 0.0
C1079 C 0.97853 0.18724 0.41313 0.0
C1080 C 0.09925 0.2796 0.34881 0.0
C1081 C 0.07993 0.26476 0.35303 0.0
C1082 C 0.04257 0.25523 0.38391 0.0
C1083 C 0.99776 0.20292 0.3903 0.0
C1084 C 0.01658 0.21923 0.38403 0.0
C1085 C 0.07406 0.26611 0.36871 0.0
C1086 C 0.05383 0.25002 0.37349 0.0
H1087 H 0.95459 0.15704 0.37743 0.0
H1088 H 0.98399 0.18534 0.36681 0.0
H1089 H 0.01599 0.2445 0.39729 0.0
H1090 H 0.11744 0.31016 0.38483 0.0
H1091 H 0.08418 0.28414 0.39227 0.0
C1092 C 0.85746 0.82029 0.41027 0.0
C1093 C 0.85488 0.80093 0.41274 0.0
C1094 C 0.84099 0.82208 0.40326 0.0
C1095 C 0.78348 0.79353 0.39533 0.0
H1096 H 0.79372 0.83624 0.36725 0.0
C1097 C 0.7207 0.81417 0.37635 0.0
C1098 C 0.72002 0.82011 0.36063 0.0
C1099 C 0.73685 0.81114 0.38222 0.0
C1100 C 0.79048 0.82406 0.37492 0.0
H1101 H 0.83311 0.76823 0.40935 0.0
H1102 H 0.80446 0.77127 0.39681 0.0
H1103 H 0.82231 0.83191 0.37761 0.0
H1104 H 0.73561 0.82701 0.33862 0.0
H1105 H 0.76339 0.82126 0.34867 0.0
H1106 H 0.75154 0.78532 0.39227 0.0
C1107 C 0.81908 0.78514 0.40063 0.0
C1108 C 0.80699 0.82176 0.38106 0.0
C1109 C 0.83553 0.78337 0.40776 0.0
C1110 C 0.73571 0.82261 0.35084 0.0
C1111 C 0.75175 0.81943 0.35666 0.0
C1112 C 0.76694 0.79575 0.3891 0.0
C1113 C 0.82151 0.80454 0.39843 0.0
C1114 C 0.80376 0.80655 0.39144 0.0
C1115 C 0.75267 0.81382 0.37248 0.0
C1116 C 0.77021 0.81112 0.37887 0.0
H1117 H 0.87206 0.83414 0.41423 0.0
H1118 H 0.84341 0.83729 0.40204 0.0
H1119 H 0.78038 0.7818 0.40343 0.0
H1120 H 0.70895 0.81222 0.38427 0.0
H1121 H 0.73715 0.80712 0.39455 0.0
C1122 C 0.24294 0.05993 0.38917 0.0
C1123 C 0.22443 0.06057 0.38715 0.0
C1124 C 0.24407 0.04336 0.3819 0.0
C1125 C 0.23285 0.99817 0.37643 0.0
H1126 H 0.20853 0.97403 0.33235 0.0
C1127 C 0.21747 0.91784 0.35335 0.0
C1128 C 0.1978 0.90491 0.34485 0.0
C1129 C 0.225 0.93889 0.35639 0.0
C1130 C 0.21534 0.98055 0.34469 0.0
H1131 H 0.19268 0.04425 0.3757 0.0
H1132 H 0.19496 0.01594 0.3627 0.0
H1133 H 0.21427 0.00795 0.34145 0.0
H1134 H 0.17079 0.90394 0.33257 0.0
H1135 H 0.18361 0.9404 0.3382 0.0
H1136 H 0.23278 0.97036 0.38007 0.0
C1137 C 0.20861 0.02831 0.3698 0.0
C1138 C 0.21873 -0.0 0.34985 0.0
C1139 C 0.20736 0.04462 0.37724 0.0
C1140 C 0.18602 0.91348 0.33913 0.0
C1141 C 0.19348 0.93446 0.34223 0.0
C1142 C 0.22927 0.97862 0.37133 0.0
C1143 C 0.22683 0.02734 0.37227 0.0
C1144 C 0.22692 0.00869 0.36591 0.0
C1145 C 0.21296 0.9474 0.35104 0.0
C1146 C 0.21985 0.96933 0.35556 0.0
H1147 H 0.25649 0.07209 0.39651 0.0
H1148 H 0.25832 0.04296 0.38393 0.0
H1149 H 0.23902 0.00448 0.38892 0.0
H1150 H 0.227 0.91171 0.35781 0.0
H1151 H 0.24017 0.94846 0.36304 0.0
C1152 C 0.51234 0.61654 0.28298 0.0
C1153 C 0.49203 0.61327 0.28116 0.0
C1154 C 0.52909 0.63576 0.28907 0.0
C1155 C 0.5435 0.69072 0.29617 0.0
H1156 H 0.59089 0.69576 0.32246 0.0
C1157 C 0.60618 0.76647 0.33231 0.0
C1158 C 0.62676 0.7727 0.32953 0.0
C1159 C 0.59012 0.74681 0.32651 0.0
C1160 C 0.57778 0.69452 0.31505 0.0
H1161 H 0.47362 0.62793 0.28449 0.0
H1162 H 0.50239 0.66076 0.296 0.0
H1163 H 0.56189 0.66172 0.3126 0.0
H1164 H 0.64671 0.76307 0.31879 0.0
H1165 H 0.61855 0.72839 0.309 0.0
H1166 H 0.5592 0.72356 0.29915 0.0
C1167 C 0.50557 0.64871 0.29227 0.0
C1168 C 0.56119 0.67504 0.30932 0.0
C1169 C 0.48891 0.62964 0.28593 0.0
C1170 C 0.631 0.75871 0.32109 0.0
C1171 C 0.61494 0.73888 0.31555 0.0
C1172 C 0.5599 0.71012 0.30214 0.0
C1173 C 0.52595 0.65216 0.29372 0.0
C1174 C 0.54378 0.67286 0.29981 0.0
C1175 C 0.59434 0.73285 0.31807 0.0
C1176 C 0.57716 0.71221 0.31164 0.0
H1177 H 0.51537 0.60426 0.27966 0.0
H1178 H 0.54453 0.6378 0.28983 0.0
H1179 H 0.5307 0.68979 0.28854 0.0
H1180 H 0.6024 0.77692 0.33871 0.0
H1181 H 0.57436 0.74247 0.32868 0.0
C1182 C 0.37743 0.88905 0.27616 0.0
C1183 C 0.3806 0.87212 0.27506 0.0
C1184 C 0.35956 0.88737 0.28215 0.0
C1185 C 0.32065 0.86046 0.30931 0.0
H1186 H 0.28349 0.8707 0.28192 0.0
C1187 C 0.2397 0.84026 0.3276 0.0
C1188 C 0.23097 0.852 0.32257 0.0
C1189 C 0.25822 0.84326 0.32198 0.0
C1190 C 0.29381 0.86817 0.28993 0.0
H1191 H 0.36678 0.83994 0.27924 0.0
H1192 H 0.3364 0.83755 0.29047 0.0
H1193 H 0.31574 0.87582 0.27223 0.0
H1194 H 0.23504 0.87647 0.30806 0.0
H1195 H 0.26778 0.8825 0.29896 0.0
H1196 H 0.29941 0.85354 0.32729 0.0
C1197 C 0.34781 0.85205 0.2866 0.0
C1198 C 0.31226 0.871 0.28428 0.0
C1199 C 0.36539 0.85355 0.28028 0.0
C1200 C 0.24129 0.86702 0.31202 0.0
C1201 C 0.26005 0.87036 0.30669 0.0
C1202 C 0.30246 0.85807 0.31514 0.0
C1203 C 0.34467 0.86889 0.2875 0.0
C1204 C 0.32571 0.86696 0.29384 0.0
C1205 C 0.26876 0.85842 0.31148 0.0
C1206 C 0.2886 0.86165 0.30547 0.0
H1207 H 0.38883 0.9037 0.27255 0.0
H1208 H 0.3575 0.9006 0.28282 0.0
H1209 H 0.3309 0.8574 0.31695 0.0
H1210 H 0.23198 0.82842 0.33561 0.0
H1211 H 0.26402 0.83338 0.32571 0.0
C1212 C 0.12084 0.50493 0.31764 0.0
C1213 C 0.11923 0.50604 0.30073 0.0
C1214 C 0.12134 0.48836 0.32381 0.0
C1215 C 0.11033 0.43562 0.31371 0.0
H1216 H 0.15913 0.45199 0.34371 0.0
C1217 C 0.14213 0.38155 0.32489 0.0
C1218 C 0.1519 0.3829 0.34033 0.0
C1219 C 0.13565 0.39547 0.32144 0.0
C1220 C 0.14517 0.44703 0.33564 0.0
H1221 H 0.11584 0.49003 0.27708 0.0
H1222 H 0.11622 0.46088 0.2879 0.0
H1223 H 0.15096 0.47774 0.33541 0.0
H1224 H 0.16203 0.39951 0.36443 0.0
H1225 H 0.15019 0.4235 0.35857 0.0
H1226 H 0.1045 0.4049 0.31389 0.0
C1227 C 0.11712 0.47289 0.29633 0.0
C1228 C 0.14053 0.46183 0.33085 0.0
C1229 C 0.11686 0.48958 0.29015 0.0
C1230 C 0.15473 0.39823 0.35236 0.0
C1231 C 0.148 0.41201 0.34898 0.0
C1232 C 0.11481 0.42075 0.31866 0.0
C1233 C 0.11995 0.47242 0.31321 0.0
C1234 C 0.12331 0.45632 0.31961 0.0
C1235 C 0.13854 0.41092 0.33342 0.0
C1236 C 0.13255 0.42634 0.32941 0.0
H1237 H 0.12223 0.51713 0.32612 0.0
H1238 H 0.12327 0.4882 0.33688 0.0
H1239 H 0.09685 0.43097 0.30514 0.0
H1240 H 0.13988 0.37 0.31531 0.0
H1241 H 0.12885 0.3944 0.30923 0.0
C1242 C 0.37225 0.50939 0.30054 0.0
C1243 C 0.36701 0.51721 0.2872 0.0
C1244 C 0.35718 0.49143 0.30635 0.0
C1245 C 0.30559 0.44548 0.29528 0.0
H1246 H 0.29837 0.44953 0.34112 0.0
C1247 C 0.22828 0.3928 0.31963 0.0
C1248 C 0.22815 0.38592 0.33508 0.0
C1249 C 0.24678 0.40729 0.31415 0.0
C1250 C 0.30037 0.44794 0.32836 0.0
H1251 H 0.34238 0.51201 0.26897 0.0
H1252 H 0.31618 0.48053 0.27891 0.0
H1253 H 0.3285 0.47704 0.33048 0.0
H1254 H 0.24751 0.3889 0.35687 0.0
H1255 H 0.28 0.41416 0.34718 0.0
H1256 H 0.27743 0.41655 0.29304 0.0
C1257 C 0.33183 0.48824 0.28494 0.0
C1258 C 0.31764 0.46372 0.32227 0.0
C1259 C 0.34677 0.50629 0.27931 0.0
C1260 C 0.24705 0.39394 0.34494 0.0
C1261 C 0.26566 0.40845 0.3394 0.0
C1262 C 0.28844 0.42965 0.30137 0.0
C1263 C 0.33674 0.48083 0.29873 0.0
C1264 C 0.32013 0.46288 0.30559 0.0
C1265 C 0.26574 0.41525 0.3239 0.0
C1266 C 0.28529 0.43094 0.3179 0.0
H1267 H 0.38773 0.51764 0.30688 0.0
H1268 H 0.3614 0.48599 0.31694 0.0
H1269 H 0.30728 0.44428 0.28241 0.0
H1270 H 0.21404 0.38708 0.31171 0.0
H1271 H 0.24613 0.41248 0.30232 0.0
C1272 C 0.49299 0.85981 0.29388 0.0
C1273 C 0.4801 0.84419 0.28153 0.0
C1274 C 0.51289 0.86331 0.2987 0.0
C1275 C 0.55427 0.85378 0.28613 0.0
H1276 H 0.56636 0.85321 0.33228 0.0
C1277 C 0.61746 0.83673 0.31056 0.0
C1278 C 0.62851 0.84607 0.32589 0.0
C1279 C 0.601 0.83932 0.30484 0.0
C1280 C 0.56352 0.85382 0.31939 0.0
H1281 H 0.4782 0.82075 0.26396 0.0
H1282 H 0.513 0.82707 0.27216 0.0
H1283 H 0.53518 0.85367 0.32253 0.0
H1284 H 0.63128 0.86602 0.34701 0.0
H1285 H 0.60294 0.87099 0.33686 0.0
H1286 H 0.58252 0.8539 0.28291 0.0
C1287 C 0.50777 0.83654 0.27819 0.0
C1288 C 0.54558 0.85405 0.31381 0.0
C1289 C 0.48782 0.83284 0.27355 0.0
C1290 C 0.623 0.85847 0.3352 0.0
C1291 C 0.60664 0.86122 0.32941 0.0
C1292 C 0.57232 0.85377 0.29172 0.0
C1293 C 0.52036 0.85149 0.29106 0.0
C1294 C 0.54056 0.85364 0.29709 0.0
C1295 C 0.59525 0.8515 0.31422 0.0
C1296 C 0.57699 0.85337 0.3084 0.0
H1297 H 0.48734 0.86868 0.30028 0.0
H1298 H 0.52231 0.87503 0.30859 0.0
H1299 H 0.55092 0.85369 0.2732 0.0
H1300 H 0.6212 0.82698 0.30308 0.0
H1301 H 0.59243 0.83127 0.29323 0.0
C1302 C 0.16802 0.6445 0.33348 0.0
C1303 C 0.16406 0.63445 0.31777 0.0
C1304 C 0.16458 0.66092 0.33626 0.0
C1305 C 0.13917 0.6876 0.31739 0.0
H1306 H 0.18001 0.7337 0.34722 0.0
C1307 C 0.1534 0.77026 0.31833 0.0
C1308 C 0.15683 0.78117 0.33363 0.0
C1309 C 0.15111 0.75071 0.31719 0.0
C1310 C 0.16831 0.72083 0.33904 0.0
H1311 H 0.15329 0.63343 0.29265 0.0
H1312 H 0.14793 0.66258 0.29732 0.0
H1313 H 0.18246 0.70283 0.34364 0.0
H1314 H 0.15978 0.77985 0.35974 0.0
H1315 H 0.15603 0.74577 0.35769 0.0
H1316 H 0.12566 0.70622 0.31232 0.0
C1317 C 0.15315 0.6575 0.30763 0.0
C1318 C 0.16966 0.70308 0.337 0.0
C1319 C 0.15632 0.64089 0.3049 0.0
C1320 C 0.15716 0.77184 0.34777 0.0
C1321 C 0.15512 0.75239 0.34662 0.0
C1322 C 0.13799 0.70549 0.31929 0.0
C1323 C 0.15739 0.66784 0.32332 0.0
C1324 C 0.1552 0.68628 0.32606 0.0
C1325 C 0.15244 0.74181 0.33132 0.0
C1326 C 0.15264 0.7223 0.33006 0.0
H1327 H 0.17369 0.63959 0.34365 0.0
H1328 H 0.16759 0.6682 0.34856 0.0
H1329 H 0.12755 0.67484 0.30909 0.0
H1330 H 0.15298 0.77702 0.30722 0.0
H1331 H 0.1492 0.74292 0.30525 0.0
C1332 C 0.86443 0.03412 0.40022 0.0
C1333 C 0.87871 0.04085 0.38856 0.0
C1334 C 0.84476 0.01674 0.39638 0.0
C1335 C 0.81685 0.97041 0.36643 0.0
H1336 H 0.76798 0.96472 0.38489 0.0
C1337 C 0.73509 0.90339 0.34486 0.0
C1338 C 0.72335 0.89244 0.35717 0.0
C1339 C 0.75325 0.92227 0.34877 0.0
C1340 C 0.78155 0.96612 0.37972 0.0
H1341 H 0.8834 0.03557 0.36357 0.0
H1342 H 0.84892 0.00583 0.35663 0.0
H1343 H 0.80115 0.99662 0.39128 0.0
H1344 H 0.72109 0.8931 0.38321 0.0
H1345 H 0.75279 0.92634 0.38999 0.0
H1346 H 0.79713 0.94008 0.35464 0.0
C1347 C 0.85302 0.01333 0.36893 0.0
C1348 C 0.80058 0.98434 0.38342 0.0
C1349 C 0.87274 0.03045 0.37284 0.0
C1350 C 0.72983 0.90112 0.37345 0.0
C1351 C 0.74789 0.92018 0.37734 0.0
C1352 C 0.79783 0.95239 0.36258 0.0
C1353 C 0.8389 0.00596 0.38073 0.0
C1354 C 0.81849 0.98672 0.3768 0.0
C1355 C 0.75996 0.93074 0.36505 0.0
C1356 C 0.78 0.95005 0.36917 0.0
H1357 H 0.86875 0.04187 0.41245 0.0
H1358 H 0.83442 0.01144 0.40584 0.0
H1359 H 0.83034 0.97139 0.36144 0.0
H1360 H 0.73057 0.89715 0.33221 0.0
H1361 H 0.76219 0.9302 0.33906 0.0
C1362 C 1.0005 0.83794 0.41954 0.0
C1363 C 0.9804 0.82866 0.41139 0.0
C1364 C 0.01583 0.83508 0.41308 0.0
C1365 C 0.03085 0.82446 0.37397 0.0
H1366 H 0.07199 0.81936 0.40096 0.0
C1367 C 0.09997 0.82228 0.34728 0.0
C1368 C 0.1193 0.83308 0.35673 0.0
C1369 C 0.08186 0.81925 0.35376 0.0
C1370 C 0.06076 0.82098 0.39325 0.0
H1371 H 0.96042 0.80853 0.39036 0.0
H1372 H 0.98734 0.80352 0.37896 0.0
H1373 H 0.0422 0.81771 0.41284 0.0
H1374 H 0.13461 0.84923 0.38047 0.0
H1375 H 0.10332 0.84436 0.39158 0.0
H1376 H 0.0497 0.82839 0.35449 0.0
C1377 C 0.99119 0.81307 0.39035 0.0
C1378 C 0.04361 0.81993 0.40007 0.0
C1379 C 0.97574 0.81575 0.39695 0.0
C1380 C 0.12003 0.84075 0.37282 0.0
C1381 C 0.10198 0.83781 0.37926 0.0
C1382 C 0.04808 0.82564 0.36716 0.0
C1383 C 0.01153 0.823 0.39821 0.0
C1384 C 0.0286 0.82196 0.39058 0.0
C1385 C 0.08262 0.827 0.36985 0.0
C1386 C 0.06347 0.82425 0.37677 0.0
H1387 H 0.00451 0.84793 0.43072 0.0
H1388 H 0.03134 0.84309 0.41939 0.0
H1389 H 0.01971 0.82634 0.36636 0.0
H1390 H 0.09878 0.81605 0.33487 0.0
H1391 H 0.06723 0.81065 0.3462 0.0
C1392 C 0.19295 0.16371 0.39037 0.0
C1393 C 0.18728 0.14865 0.37729 0.0
C1394 C 0.19587 0.18302 0.38757 0.0
C1395 C 0.18034 0.20738 0.35642 0.0
H1396 H 0.21869 0.25772 0.38337 0.0
C1397 C 0.18838 0.28473 0.34354 0.0
C1398 C 0.18657 0.29582 0.35697 0.0
C1399 C 0.19136 0.26816 0.34576 0.0
C1400 C 0.20791 0.24374 0.37578 0.0
H1401 H 0.18162 0.14211 0.35107 0.0
H1402 H 0.18753 0.17599 0.34606 0.0
H1403 H 0.21921 0.22617 0.38755 0.0
H1404 H 0.18738 0.29879 0.38331 0.0
H1405 H 0.19267 0.26985 0.38713 0.0
H1406 H 0.16909 0.22491 0.34465 0.0
C1407 C 0.18895 0.17281 0.35852 0.0
C1408 C 0.20814 0.22567 0.3782 0.0
C1409 C 0.1857 0.15346 0.36135 0.0
C1410 C 0.18859 0.29047 0.3727 0.0
C1411 C 0.19177 0.27401 0.37492 0.0
C1412 C 0.18029 0.22543 0.3539 0.0
C1413 C 0.19345 0.18764 0.37161 0.0
C1414 C 0.19422 0.20722 0.36862 0.0
C1415 C 0.1928 0.26248 0.36144 0.0
C1416 C 0.19394 0.24374 0.36363 0.0
H1417 H 0.19419 0.16023 0.40277 0.0
H1418 H 0.19915 0.19398 0.39795 0.0
H1419 H 0.16904 0.19341 0.34907 0.0
H1420 H 0.18695 0.28849 0.33127 0.0
H1421 H 0.19228 0.25961 0.33517 0.0
C1422 C 0.63667 0.50224 0.7219 0.0
C1423 C 0.6341 0.50199 0.73861 0.0
C1424 C 0.65414 0.51824 0.71624 0.0
C1425 C 0.70794 0.55889 0.73084 0.0
H1426 H 0.70604 0.57874 0.68894 0.0
C1427 C 0.77751 0.6303 0.71079 0.0
C1428 C 0.78284 0.62884 0.69495 0.0
C1429 C 0.75902 0.61493 0.71567 0.0
C1430 C 0.70681 0.5732 0.7006 0.0
H1431 H 0.64767 0.51892 0.76239 0.0
H1432 H 0.6776 0.5472 0.75248 0.0
H1433 H 0.67401 0.55252 0.69849 0.0
H1434 H 0.7727 0.61012 0.67173 0.0
H1435 H 0.74014 0.58323 0.68027 0.0
H1436 H 0.74067 0.57979 0.73304 0.0
C1437 C 0.66639 0.53472 0.74376 0.0
C1438 C 0.68847 0.55817 0.70609 0.0
C1439 C 0.64901 0.51862 0.74943 0.0
C1440 C 0.76908 0.61169 0.68402 0.0
C1441 C 0.7504 0.59636 0.68888 0.0
C1442 C 0.72619 0.57401 0.72543 0.0
C1443 C 0.66942 0.53453 0.72713 0.0
C1444 C 0.6888 0.55082 0.7213 0.0
C1445 C 0.74528 0.59777 0.7048 0.0
C1446 C 0.72584 0.58136 0.71027 0.0
H1447 H 0.62533 0.48986 0.71317 0.0
H1448 H 0.65595 0.51747 0.70338 0.0
H1449 H 0.70894 0.55329 0.74243 0.0
H1450 H 0.78772 0.64326 0.71957 0.0
H1451 H 0.7554 0.61656 0.72796 0.0
C1452 C 0.52124 0.151 0.74077 0.0
C1453 C 0.51813 0.13256 0.74651 0.0
C1454 C 0.50454 0.15252 0.73392 0.0
C1455 C 0.44942 0.1326 0.73502 0.0
H1456 H 0.45111 0.15332 0.69303 0.0
C1457 C 0.37995 0.1375 0.70544 0.0
C1458 C 0.3842 0.15377 0.69602 0.0
C1459 C 0.39579 0.13386 0.71104 0.0
C1460 C 0.45045 0.14782 0.7049 0.0
H1461 H 0.49467 0.10115 0.74918 0.0
H1462 H 0.46548 0.10421 0.73787 0.0
H1463 H 0.47978 0.14927 0.70391 0.0
H1464 H 0.4085 0.17927 0.68536 0.0
H1465 H 0.43619 0.17359 0.69566 0.0
H1466 H 0.42066 0.13196 0.73649 0.0
C1467 C 0.48099 0.11739 0.73864 0.0
C1468 C 0.46686 0.14537 0.71105 0.0
C1469 C 0.49774 0.11572 0.7452 0.0
C1470 C 0.40465 0.16643 0.69243 0.0
C1471 C 0.42055 0.16306 0.69828 0.0
C1472 C 0.43318 0.13542 0.72903 0.0
C1473 C 0.48424 0.1358 0.73292 0.0
C1474 C 0.46652 0.13778 0.72618 0.0
C1475 C 0.41638 0.14666 0.70762 0.0
C1476 C 0.43346 0.14314 0.71388 0.0
H1477 H 0.53653 0.1645 0.74188 0.0
H1478 H 0.50743 0.16697 0.72977 0.0
H1479 H 0.44889 0.1269 0.74681 0.0
H1480 H 0.36431 0.12738 0.70832 0.0
H1481 H 0.39178 0.12085 0.71791 0.0
C1482 C 0.86808 0.37456 0.71485 0.0
C1483 C 0.88562 0.39003 0.72467 0.0
C1484 C 0.86806 0.35734 0.7078 0.0
C1485 C 0.87647 0.32732 0.68821 0.0
H1486 H 0.88847 0.29641 0.71852 0.0
C1487 C 0.84517 0.24105 0.67481 0.0
C1488 C 0.85699 0.23258 0.68068 0.0
C1489 C 0.85175 0.26171 0.67888 0.0
C1490 C 0.88548 0.30499 0.70978 0.0
H1491 H 0.91716 0.39969 0.73432 0.0
H1492 H 0.91675 0.36905 0.72241 0.0
H1493 H 0.89524 0.33067 0.72756 0.0
H1494 H 0.88531 0.23927 0.69508 0.0
H1495 H 0.89704 0.27548 0.70189 0.0
H1496 H 0.86656 0.30169 0.67043 0.0
C1497 C 0.90312 0.3705 0.72017 0.0
C1498 C 0.88934 0.32461 0.71499 0.0
C1499 C 0.90327 0.38794 0.72704 0.0
C1500 C 0.87575 0.2453 0.69047 0.0
C1501 C 0.88244 0.26605 0.69442 0.0
C1502 C 0.87283 0.30781 0.68294 0.0
C1503 C 0.88544 0.355 0.71058 0.0
C1504 C 0.88434 0.3357 0.70437 0.0
C1505 C 0.87043 0.27446 0.68879 0.0
C1506 C 0.87673 0.29616 0.69379 0.0
H1507 H 0.85402 0.37534 0.71303 0.0
H1508 H 0.8541 0.34543 0.70068 0.0
H1509 H 0.87271 0.3357 0.67975 0.0
H1510 H 0.83059 0.23163 0.66731 0.0
H1511 H 0.84188 0.26753 0.67458 0.0
C1512 C 0.17505 0.95876 0.60408 0.0
C1513 C 0.1596 0.94618 0.61372 0.0
C1514 C 0.19181 0.97762 0.61078 0.0
C1515 C 0.20672 0.01825 0.64384 0.0
H1516 H 0.2629 0.03553 0.63421 0.0
C1517 C 0.2762 0.09446 0.67374 0.0
C1518 C 0.29214 0.10593 0.6641 0.0
C1519 C 0.26059 0.07449 0.66812 0.0
C1520 C 0.24728 0.03107 0.63687 0.0
H1521 H 0.15006 0.94349 0.63814 0.0
H1522 H 0.17912 0.97663 0.64974 0.0
H1523 H 0.23469 0.00153 0.62342 0.0
H1524 H 0.30415 0.10544 0.64096 0.0
H1525 H 0.27665 0.07085 0.63098 0.0
H1526 H 0.21906 0.04787 0.6569 0.0
C1527 C 0.17814 0.97186 0.63696 0.0
C1528 C 0.23114 0.01155 0.63073 0.0
C1529 C 0.16147 0.9529 0.63029 0.0
C1530 C 0.29218 0.09696 0.64875 0.0
C1531 C 0.27644 0.07705 0.64305 0.0
C1532 C 0.22281 0.03783 0.64985 0.0
C1533 C 0.19342 0.98446 0.62725 0.0
C1534 C 0.21069 0.00495 0.63413 0.0
C1535 C 0.26039 0.06557 0.65264 0.0
C1536 C 0.24332 0.04454 0.64643 0.0
H1537 H 0.17395 0.95434 0.59121 0.0
H1538 H 0.2032 0.98712 0.60295 0.0
H1539 H 0.19107 0.0137 0.64647 0.0
H1540 H 0.2758 0.10085 0.68569 0.0
H1541 H 0.24874 0.06602 0.67599 0.0
C1542 C 0.04191 0.22082 0.61009 0.0
C1543 C 0.04475 0.20374 0.6082 0.0
C1544 C 0.02404 0.21901 0.61618 0.0
C1545 C 0.98392 0.19003 0.6421 0.0
H1546 H 0.94895 0.20453 0.61631 0.0
C1547 C 0.90247 0.16939 0.65933 0.0
C1548 C 0.89455 0.18221 0.65546 0.0
C1549 C 0.92116 0.17269 0.6539 0.0
C1550 C 0.95867 0.20077 0.62389 0.0
H1551 H 0.03047 0.1712 0.61116 0.0
H1552 H 1.00002 0.16848 0.62252 0.0
H1553 H 0.98127 0.20978 0.60666 0.0
H1554 H 0.90027 0.20886 0.64324 0.0
H1555 H 0.9333 0.21529 0.63446 0.0
H1556 H 0.96195 0.18165 0.65963 0.0
C1557 C 0.01167 0.18322 0.61919 0.0
C1558 C 0.97715 0.20369 0.61826 0.0
C1559 C 0.02927 0.18488 0.61278 0.0
C1560 C 0.90589 0.1986 0.64629 0.0
C1561 C 0.92481 0.20218 0.64114 0.0
C1562 C 0.96568 0.1875 0.64792 0.0
C1563 C 0.00882 0.20021 0.62085 0.0
C1564 C 0.98982 0.19814 0.62723 0.0
C1565 C 0.93268 0.18917 0.64474 0.0
C1566 C 0.95261 0.19261 0.63882 0.0
H1567 H 0.05354 0.23569 0.607 0.0
H1568 H 0.02223 0.23238 0.61745 0.0
H1569 H 0.99355 0.18579 0.64931 0.0
H1570 H 0.89397 0.15649 0.66624 0.0
H1571 H 0.92633 0.16201 0.65666 0.0
C1572 C 0.77865 0.81743 0.62196 0.0
C1573 C 0.78115 0.83419 0.6322 0.0
C1574 C 0.77852 0.80076 0.62854 0.0
C1575 C 0.80187 0.7909 0.66374 0.0
H1576 H 0.76745 0.73372 0.64687 0.0
C1577 C 0.81919 0.7295 0.68566 0.0
C1578 C 0.81717 0.7145 0.67366 0.0
C1579 C 0.81148 0.7425 0.68222 0.0
C1580 C 0.7773 0.74964 0.65163 0.0
H1581 H 0.78369 0.84579 0.65737 0.0
H1582 H 0.78398 0.81685 0.66884 0.0
H1583 H 0.75881 0.75901 0.63776 0.0
H1584 H 0.80548 0.70131 0.64866 0.0
H1585 H 0.79277 0.72442 0.64247 0.0
H1586 H 0.82104 0.78197 0.67691 0.0
C1587 C 0.7823 0.81676 0.65573 0.0
C1588 C 0.77225 0.76406 0.64649 0.0
C1589 C 0.78221 0.83332 0.64915 0.0
C1590 C 0.80715 0.71264 0.65821 0.0
C1591 C 0.79969 0.7258 0.6547 0.0
C1592 C 0.80707 0.77656 0.66873 0.0
C1593 C 0.78105 0.80061 0.64548 0.0
C1594 C 0.78468 0.78486 0.65231 0.0
C1595 C 0.80185 0.74098 0.66664 0.0
C1596 C 0.79507 0.7558 0.66252 0.0
H1597 H 0.77802 0.81767 0.60886 0.0
H1598 H 0.77773 0.78859 0.62036 0.0
H1599 H 0.8119 0.8069 0.66824 0.0
H1600 H 0.82664 0.73114 0.69774 0.0
H1601 H 0.8131 0.75377 0.6918 0.0
C1602 C 0.03805 0.84656 0.63289 0.0
C1603 C 0.03297 0.85463 0.61964 0.0
C1604 C 0.02278 0.82879 0.63879 0.0
C1605 C 0.97087 0.78339 0.62778 0.0
H1606 H 0.96464 0.78645 0.67389 0.0
C1607 C 0.89471 0.72854 0.6529 0.0
C1608 C 0.89529 0.72157 0.66822 0.0
C1609 C 0.91279 0.7436 0.64728 0.0
C1610 C 0.96634 0.78514 0.66104 0.0
H1611 H 0.00828 0.85004 0.60172 0.0
H1612 H 0.98172 0.81891 0.61183 0.0
H1613 H 0.99439 0.81432 0.66318 0.0
H1614 H 0.91545 0.725 0.68961 0.0
H1615 H 0.94719 0.75118 0.67964 0.0
H1616 H 0.94288 0.75433 0.62553 0.0
C1617 C 0.99743 0.82631 0.61773 0.0
C1618 C 0.98339 0.80114 0.65491 0.0
C1619 C 0.01258 0.84418 0.612 0.0
C1620 C 0.91445 0.73009 0.67779 0.0
C1621 C 0.93263 0.74514 0.67209 0.0
C1622 C 0.95394 0.76734 0.63391 0.0
C1623 C 1.00226 0.81861 0.63136 0.0
C1624 C 0.98558 0.80062 0.63815 0.0
C1625 C 0.93203 0.75204 0.65673 0.0
C1626 C 0.95117 0.76822 0.65056 0.0
H1627 H 0.05364 0.85442 0.63906 0.0
H1628 H 0.02695 0.82312 0.64925 0.0
H1629 H 0.97232 0.78243 0.61485 0.0
H1630 H 0.88024 0.72244 0.64521 0.0
H1631 H 0.9116 0.74883 0.63556 0.0
C1632 C 0.15238 0.16529 0.60629 0.0
C1633 C 0.14398 0.17596 0.61431 0.0
C1634 C 0.1722 0.16902 0.61147 0.0
C1635 C 0.20808 0.18484 0.64815 0.0
H1636 H 0.24726 0.18749 0.61838 0.0
C1637 C 0.2852 0.18959 0.67121 0.0
C1638 C 0.29159 0.1781 0.6617 0.0
C1639 C 0.26884 0.19224 0.66523 0.0
C1640 C 0.23643 0.18656 0.62687 0.0
H1641 H 0.14989 0.19928 0.63373 0.0
H1642 H 0.18464 0.20568 0.64298 0.0
H1643 H 0.21589 0.18728 0.608 0.0
H1644 H 0.28577 0.16043 0.63839 0.0
H1645 H 0.25698 0.1645 0.62819 0.0
H1646 H 0.22801 0.18321 0.66693 0.0
C1647 C 0.17584 0.19448 0.63264 0.0
C1648 C 0.21851 0.18657 0.62091 0.0
C1649 C 0.15608 0.19095 0.62729 0.0
C1650 C 0.28135 0.16948 0.64603 0.0
C1651 C 0.26489 0.17195 0.64011 0.0
C1652 C 0.22588 0.1846 0.6541 0.0
C1653 C 0.18398 0.18331 0.62493 0.0
C1654 C 0.204 0.18543 0.63145 0.0
C1655 C 0.25833 0.1833 0.64964 0.0
C1656 C 0.24016 0.18515 0.64351 0.0
H1657 H 0.14338 0.15369 0.59623 0.0
H1658 H 0.17796 0.16006 0.60536 0.0
H1659 H 0.19705 0.18368 0.65655 0.0
H1660 H 0.29285 0.19657 0.68329 0.0
H1661 H 0.26448 0.20135 0.67283 0.0
C1662 C 0.82701 0.97095 0.63141 0.0
C1663 C 0.83331 0.96447 0.64509 0.0
C1664 C 0.8248 0.98827 0.63298 0.0
C1665 C 0.84077 0.03484 0.6612 0.0
H1666 H 0.79791 0.03798 0.63479 0.0
C1667 C 0.82323 0.09981 0.67339 0.0
C1668 C 0.82365 0.11055 0.65997 0.0
C1669 C 0.82269 0.0811 0.67121 0.0
C1670 C 0.80998 0.03728 0.64217 0.0
H1671 H 0.84149 0.97039 0.67117 0.0
H1672 H 0.837 0.00019 0.67409 0.0
H1673 H 0.80025 0.0068 0.63193 0.0
H1674 H 0.82284 0.10961 0.63365 0.0
H1675 H 0.82159 0.07661 0.62985 0.0
H1676 H 0.85017 0.06514 0.67166 0.0
C1677 C 0.83444 0.99242 0.66203 0.0
C1678 C 0.81141 0.0195 0.64051 0.0
C1679 C 0.83693 0.97531 0.66041 0.0
C1680 C 0.82259 0.10173 0.64423 0.0
C1681 C 0.8218 0.08284 0.64204 0.0
C1682 C 0.83914 0.05243 0.66301 0.0
C1683 C 0.82857 -0.00072 0.64832 0.0
C1684 C 0.82684 0.01807 0.65002 0.0
C1685 C 0.82233 0.07263 0.65556 0.0
C1686 C 0.82374 0.05381 0.65353 0.0
H1687 H 0.82425 0.96287 0.61944 0.0
H1688 H 0.82056 0.99324 0.62212 0.0
H1689 H 0.85317 0.03454 0.66845 0.0
H1690 H 0.82401 0.10614 0.68568 0.0
H1691 H 0.82289 0.07339 0.6818 0.0
C1692 C 0.53608 0.36378 0.70752 0.0
C1693 C 0.54313 0.37365 0.72338 0.0
C1694 C 0.51611 0.34692 0.704 0.0
C1695 C 0.46495 0.31742 0.72053 0.0
H1696 H 0.45947 0.27414 0.68939 0.0
C1697 C 0.39398 0.23405 0.71025 0.0
C1698 C 0.3865 0.22622 0.69389 0.0
C1699 C 0.41212 0.25307 0.71415 0.0
C1700 C 0.46073 0.28617 0.69802 0.0
H1701 H 0.53488 0.37406 0.74796 0.0
H1702 H 0.50013 0.34403 0.74203 0.0
H1703 H 0.49293 0.30524 0.69569 0.0
H1704 H 0.39199 0.23245 0.66882 0.0
H1705 H 0.42372 0.26537 0.67567 0.0
H1706 H 0.43266 0.29766 0.72317 0.0
C1707 C 0.50978 0.34956 0.73216 0.0
C1708 C 0.4799 0.30409 0.70158 0.0
C1709 C 0.52969 0.36671 0.73561 0.0
C1710 C 0.39728 0.23801 0.68154 0.0
C1711 C 0.41552 0.25682 0.68544 0.0
C1712 C 0.44578 0.29927 0.71712 0.0
C1713 C 0.50284 0.33923 0.71634 0.0
C1714 C 0.48227 0.32008 0.71277 0.0
C1715 C 0.42326 0.26441 0.70176 0.0
C1716 C 0.44348 0.28358 0.70572 0.0
H1717 H 0.5461 0.36906 0.69784 0.0
H1718 H 0.51118 0.33981 0.69158 0.0
H1719 H 0.46608 0.32944 0.72908 0.0
H1720 H 0.38601 0.22537 0.72004 0.0
H1721 H 0.41784 0.25856 0.72683 0.0
C1722 C 0.66349 0.1686 0.74797 0.0
C1723 C 0.64322 0.15879 0.7401 0.0
C1724 C 0.67864 0.16525 0.74174 0.0
C1725 C 0.69291 0.15243 0.70319 0.0
H1726 H 0.73421 0.14828 0.7308 0.0
C1727 C 0.76239 0.1499 0.67741 0.0
C1728 C 0.78164 0.16103 0.68693 0.0
C1729 C 0.74417 0.14691 0.68368 0.0
C1730 C 0.72293 0.14963 0.72291 0.0
H1731 H 0.62273 0.13735 0.71983 0.0
H1732 H 0.64938 0.13155 0.70878 0.0
H1733 H 0.70454 0.1472 0.74246 0.0
H1734 H 0.79675 0.17786 0.71053 0.0
H1735 H 0.76531 0.1731 0.72122 0.0
H1736 H 0.71164 0.15563 0.68376 0.0
C1737 C 0.65348 0.14181 0.7198 0.0
C1738 C 0.70586 0.14889 0.7296 0.0
C1739 C 0.6382 0.14496 0.72619 0.0
C1740 C 0.78222 0.16911 0.70283 0.0
C1741 C 0.76409 0.16622 0.70905 0.0
C1742 C 0.7101 0.15333 0.69651 0.0
C1743 C 0.67396 0.1522 0.72737 0.0
C1744 C 0.69082 0.15063 0.71989 0.0
C1745 C 0.74478 0.15503 0.69961 0.0
C1746 C 0.72555 0.15233 0.70635 0.0
H1747 H 0.66776 0.17936 0.75871 0.0
H1748 H 0.69428 0.17362 0.74779 0.0
H1749 H 0.68172 0.15405 0.69542 0.0
H1750 H 0.76136 0.14338 0.66513 0.0
H1751 H 0.72958 0.13804 0.6761 0.0
C1752 C 0.85777 0.49013 0.6968 0.0
C1753 C 0.8577 0.48482 0.71276 0.0
C1754 C 0.86165 0.50968 0.69394 0.0
C1755 C 0.87918 0.5621 0.71387 0.0
H1756 H 0.84232 0.56169 0.67856 0.0
C1757 C 0.85877 0.62613 0.70719 0.0
C1758 C 0.85723 0.63165 0.69143 0.0
C1759 C 0.86235 0.60995 0.70958 0.0
C1760 C 0.85295 0.56214 0.6883 0.0
H1761 H 0.86241 0.49572 0.73828 0.0
H1762 H 0.86851 0.52983 0.73335 0.0
H1763 H 0.84237 0.5303 0.68318 0.0
H1764 H 0.85903 0.62497 0.6659 0.0
H1765 H 0.86515 0.59665 0.67009 0.0
H1766 H 0.88903 0.59396 0.71931 0.0
C1767 C 0.86605 0.51912 0.72301 0.0
C1768 C 0.85305 0.54414 0.69094 0.0
C1769 C 0.86249 0.4996 0.72587 0.0
C1770 C 0.86004 0.62107 0.67818 0.0
C1771 C 0.86347 0.60481 0.68056 0.0
C1772 C 0.87892 0.58013 0.71131 0.0
C1773 C 0.86512 0.5242 0.70698 0.0
C1774 C 0.86609 0.54383 0.70379 0.0
C1775 C 0.86433 0.59887 0.69624 0.0
C1776 C 0.86572 0.58027 0.69853 0.0
H1777 H 0.85433 0.47896 0.68652 0.0
H1778 H 0.86138 0.51321 0.68146 0.0
H1779 H 0.88959 0.56248 0.72376 0.0
H1780 H 0.85678 0.63404 0.71768 0.0
H1781 H 0.86278 0.6056 0.72178 0.0
C1782 C 0.43799 0.89021 0.22093 0.0
C1783 C 0.43387 0.89875 0.23478 0.0
C1784 C 0.44559 0.90157 0.20771 0.0
C1785 C 0.47324 0.95437 0.19616 0.0
H1786 H 0.44931 0.92815 0.15248 0.0
C1787 C 0.49409 -0.00019 0.13958 0.0
C1788 C 0.49584 0.99016 0.12518 0.0
C1789 C 0.48657 0.98888 0.15304 0.0
C1790 C 0.4564 0.93566 0.16457 0.0
H1791 H 0.43475 0.92601 0.24568 0.0
H1792 H 0.44807 0.9459 0.22255 0.0
H1793 H 0.43639 0.90877 0.17576 0.0
H1794 H 0.49081 0.96122 0.11373 0.0
H1795 H 0.47844 0.94243 0.13729 0.0
H1796 H 0.49346 0.98118 0.185 0.0
C1797 C 0.44545 0.93041 0.22196 0.0
C1798 C 0.44893 0.92454 0.17792 0.0
C1799 C 0.43768 0.91898 0.23515 0.0
C1800 C 0.48996 0.96929 0.12465 0.0
C1801 C 0.48255 0.95839 0.13813 0.0
C1802 C 0.48082 0.96547 0.18279 0.0
C1803 C 0.44938 0.92179 0.20805 0.0
C1804 C 0.45727 0.93374 0.19388 0.0
C1805 C 0.48067 0.968 0.1525 0.0
C1806 C 0.47253 0.95626 0.1668 0.0
H1807 H 0.43501 0.8746 0.22019 0.0
H1808 H 0.44863 0.89455 0.19724 0.0
H1809 H 0.48016 0.96183 0.20829 0.0
H1810 H 0.49868 0.01591 0.14053 0.0
H1811 H 0.48514 0.99677 0.16381 0.0
C1812 C 0.08079 0.5263 0.25412 0.0
C1813 C 0.10209 0.54061 0.25739 0.0
C1814 C 0.07033 0.52399 0.23887 0.0
C1815 C 0.07384 0.54933 0.20127 0.0
H1816 H 0.03715 0.49377 0.18137 0.0
C1817 C 0.04412 0.53084 0.13291 0.0
C1818 C 0.02344 0.51531 0.12847 0.0
C1819 C 0.05299 0.53442 0.14898 0.0
C1820 C 0.04711 0.50939 0.18683 0.0
H1821 H 0.12902 0.56389 0.24724 0.0
H1822 H 0.11075 0.55992 0.22067 0.0
H1823 H 0.05367 0.49942 0.20895 0.0
H1824 H 0.9959 0.49132 0.13746 0.0
H1825 H 0.01125 0.49784 0.16556 0.0
H1826 H 0.0674 0.55929 0.17907 0.0
C1827 C 0.10208 0.55065 0.22996 0.0
C1828 C 0.05657 0.51263 0.20265 0.0
C1829 C 0.11255 0.55293 0.2452 0.0
C1830 C 0.01181 0.50353 0.1405 0.0
C1831 C 0.02068 0.50712 0.15657 0.0
C1832 C 0.06435 0.54609 0.18544 0.0
C1833 C 0.08091 0.53597 0.22655 0.0
C1834 C 0.07015 0.53263 0.21001 0.0
C1835 C 0.04139 0.52257 0.16099 0.0
C1836 C 0.05098 0.52608 0.178 0.0
H1837 H 0.07222 0.51679 0.26334 0.0
H1838 H 0.05394 0.51278 0.23671 0.0
H1839 H 0.084 0.56493 0.20669 0.0
H1840 H 0.05344 0.54034 0.12398 0.0
H1841 H 0.06905 0.54629 0.15194 0.0
C1842 C 0.44851 0.54601 0.22457 0.0
C1843 C 0.46276 0.55304 0.2386 0.0
C1844 C 0.4525 0.53829 0.21029 0.0
C1845 C 0.4964 0.54312 0.18952 0.0
H1846 H 0.45429 0.4971 0.16033 0.0
C1847 C 0.51659 0.51769 0.12973 0.0
C1848 C 0.50249 0.51255 0.11581 0.0
C1849 C 0.51113 0.52013 0.14522 0.0
C1850 C 0.4662 0.5101 0.16828 0.0
H1851 H 0.49176 0.55628 0.2489 0.0
H1852 H 0.49877 0.54294 0.22397 0.0
H1853 H 0.44559 0.50556 0.1866 0.0
H1854 H 0.4712 0.50512 0.10747 0.0
H1855 H 0.46195 0.51009 0.13439 0.0
H1856 H 0.51686 0.54814 0.17116 0.0
C1857 C 0.48466 0.5437 0.22394 0.0
C1858 C 0.46121 0.51489 0.18335 0.0
C1859 C 0.48064 0.55133 0.23822 0.0
C1860 C 0.48258 0.5094 0.11787 0.0
C1861 C 0.47717 0.51197 0.13336 0.0
C1862 C 0.50135 0.53842 0.17446 0.0
C1863 C 0.47086 0.5375 0.20972 0.0
C1864 C 0.47624 0.53153 0.1941 0.0
C1865 C 0.49147 0.51765 0.14722 0.0
C1866 C 0.4863 0.52192 0.16359 0.0
H1867 H 0.43472 0.54734 0.22435 0.0
H1868 H 0.44165 0.53382 0.1995 0.0
H1869 H 0.50824 0.55627 0.19739 0.0
H1870 H 0.53212 0.52045 0.12865 0.0
H1871 H 0.52244 0.52418 0.15562 0.0
C1872 C 0.91315 0.45826 0.78043 0.0
C1873 C 0.90054 0.4374 0.7748 0.0
C1874 C 0.92261 0.46415 0.79647 0.0
C1875 C 0.93837 0.44331 0.8304 0.0
H1876 H 0.94514 0.49106 0.85638 0.0
C1877 C 0.96786 0.46059 0.8986 0.0
C1878 C 0.98297 0.48094 0.90408 0.0
C1879 C 0.95743 0.45569 0.88296 0.0
C1880 C 0.9435 0.47778 0.84921 0.0
H1881 H 0.88681 0.40642 0.78172 0.0
H1882 H 0.90289 0.41661 0.80968 0.0
H1883 H 0.92724 0.48188 0.82885 0.0
H1884 H 0.99862 0.51219 0.89762 0.0
H1885 H 0.9805 0.50359 0.87024 0.0
H1886 H 0.95449 0.43912 0.85073 0.0
C1887 C 0.9061 0.42845 0.80165 0.0
C1888 C 0.93328 0.47254 0.83344 0.0
C1889 C 0.89682 0.4226 0.78566 0.0
C1890 C 0.98723 0.49633 0.89366 0.0
C1891 C 0.9767 0.49145 0.87806 0.0
C1892 C 0.94846 0.44848 0.84615 0.0
C1893 C 0.91947 0.44926 0.80718 0.0
C1894 C 0.93051 0.45517 0.82388 0.0
C1895 C 0.96179 0.47105 0.8725 0.0
C1896 C 0.95108 0.46572 0.85575 0.0
H1897 H 0.91629 0.46995 0.77226 0.0
H1898 H 0.9329 0.4803 0.80031 0.0
H1899 H 0.93696 0.43011 0.82326 0.0
H1900 H 0.96432 0.44838 0.90632 0.0
H1901 H 0.94587 0.43986 0.87908 0.0
C1902 C 0.57472 0.48576 0.77986 0.0
C1903 C 0.58161 0.47151 0.77896 0.0
C1904 C 0.56601 0.48839 0.79367 0.0
C1905 C 0.56521 0.48157 0.83731 0.0
H1906 H 0.5148 0.48451 0.83332 0.0
C1907 C 0.52258 0.48099 0.89322 0.0
C1908 C 0.51371 0.49362 0.89405 0.0
C1909 C 0.53044 0.47818 0.879 0.0
C1910 C 0.52904 0.484 0.83467 0.0
H1911 H 0.58497 0.449 0.79188 0.0
H1912 H 0.56977 0.45357 0.81595 0.0
H1913 H 0.52946 0.48014 0.80883 0.0
H1914 H 0.50588 0.51289 0.88033 0.0
H1915 H 0.52022 0.50856 0.85574 0.0
H1916 H 0.56509 0.48574 0.86308 0.0
C1917 C 0.5711 0.46271 0.80599 0.0
C1918 C 0.5374 0.48145 0.82063 0.0
C1919 C 0.57961 0.45995 0.79215 0.0
C1920 C 0.51282 0.50326 0.88022 0.0
C1921 C 0.52081 0.50055 0.86602 0.0
C1922 C 0.55696 0.48428 0.85134 0.0
C1923 C 0.56425 0.47699 0.80693 0.0
C1924 C 0.55551 0.48009 0.8218 0.0
C1925 C 0.52981 0.48804 0.86524 0.0
C1926 C 0.53869 0.48541 0.85022 0.0
H1927 H 0.57595 0.4948 0.76985 0.0
H1928 H 0.56099 0.49961 0.79409 0.0
H1929 H 0.57937 0.48091 0.83861 0.0
H1930 H 0.52379 0.47351 0.90366 0.0
H1931 H 0.53696 0.46818 0.87879 0.0
C1932 C 0.52957 0.08846 0.79072 0.0
C1933 C 0.54738 0.10772 0.7902 0.0
C1934 C 0.52588 0.07862 0.80497 0.0
C1935 C 0.53947 0.08957 0.84956 0.0
H1936 H 0.51421 0.03048 0.84817 0.0
C1937 C 0.50597 0.04588 0.90545 0.0
C1938 C 0.50898 0.0293 0.90821 0.0
C1939 C 0.51131 0.05544 0.8911 0.0
C1940 C 0.52143 0.04702 0.84881 0.0
H1941 H 0.57547 0.13155 0.80429 0.0
H1942 H 0.56928 0.11418 0.82904 0.0
H1943 H 0.52313 0.04689 0.82307 0.0
H1944 H 0.52046 0.01013 0.89815 0.0
H1945 H 0.5298 0.0268 0.87321 0.0
H1946 H 0.53805 0.08973 0.87534 0.0
C1947 C 0.558 0.1068 0.81846 0.0
C1948 C 0.52634 0.05642 0.83437 0.0
C1949 C 0.56169 0.11664 0.80419 0.0
C1950 C 0.51757 0.02261 0.8963 0.0
C1951 C 0.52294 0.03218 0.88198 0.0
C1952 C 0.53455 0.08017 0.864 0.0
C1953 C 0.53991 0.08778 0.8191 0.0
C1954 C 0.53535 0.07781 0.83454 0.0
C1955 C 0.51985 0.0487 0.87917 0.0
C1956 C 0.52539 0.05876 0.86382 0.0
H1957 H 0.51832 0.08106 0.78012 0.0
H1958 H 0.5117 0.06408 0.80503 0.0
H1959 H 0.54617 0.10605 0.85015 0.0
H1960 H 0.49915 0.05126 0.91426 0.0
H1961 H 0.50841 0.06791 0.88925 0.0
C1962 C 0.11982 0.24239 0.56692 0.0
C1963 C 0.09833 0.23185 0.56815 0.0
C1964 C 0.12793 0.25396 0.55387 0.0
C1965 C 0.1159 0.28008 0.52222 0.0
H1966 H 0.15763 0.27512 0.49995 0.0
C1967 C 0.14018 0.31332 0.46095 0.0
C1968 C 0.16114 0.32198 0.45817 0.0
C1969 C 0.13295 0.30283 0.47464 0.0
C1970 C 0.14621 0.27695 0.50616 0.0
H1971 H 0.06854 0.22509 0.55636 0.0
H1972 H 0.08272 0.2455 0.53382 0.0
H1973 H 0.14445 0.25624 0.52346 0.0
H1974 H 0.19101 0.32671 0.46775 0.0
H1975 H 0.17849 0.30868 0.49177 0.0
H1976 H 0.1177 0.30087 0.50504 0.0
C1977 C 0.09332 0.24499 0.54306 0.0
C1978 C 0.13863 0.26608 0.51963 0.0
C1979 C 0.08519 0.23332 0.55604 0.0
C1980 C 0.17472 0.31998 0.46944 0.0
C1981 C 0.16751 0.3096 0.4832 0.0
C1982 C 0.12356 0.29105 0.50881 0.0
C1983 C 0.11477 0.25538 0.54178 0.0
C1984 C 0.12329 0.26742 0.52776 0.0
C1985 C 0.14651 0.30083 0.48597 0.0
C1986 C 0.13873 0.28953 0.50052 0.0
H1987 H 0.13042 0.24183 0.57613 0.0
H1988 H 0.14455 0.26198 0.55334 0.0
H1989 H 0.10431 0.28169 0.52836 0.0
H1990 H 0.12925 0.3143 0.45237 0.0
H1991 H 0.11661 0.29597 0.47618 0.0
C1992 C 0.74709 0.8574 0.58374 0.0
C1993 C 0.76873 0.86954 0.5871 0.0
C1994 C 0.73752 0.85554 0.56818 0.0
C1995 C 0.748 0.85843 0.52556 0.0
H1996 H 0.69846 0.86254 0.51859 0.0
C1997 C 0.71344 0.85717 0.46112 0.0
C1998 C 0.69172 0.84646 0.45782 0.0
C1999 C 0.72275 0.86072 0.47703 0.0
C2000 C 0.71213 0.86108 0.52033 0.0
H2001 H 0.79732 0.88929 0.57688 0.0
H2002 H 0.7806 0.88601 0.54971 0.0
H2003 H 0.7147 0.86736 0.54624 0.0
H2004 H 0.66279 0.83143 0.46884 0.0
H2005 H 0.67902 0.8369 0.49647 0.0
H2006 H 0.74529 0.85168 0.49979 0.0
C2007 C 0.77106 0.87795 0.5591 0.0
C2008 C 0.72145 0.86391 0.53616 0.0
C2009 C 0.78059 0.87998 0.57468 0.0
C2010 C 0.67956 0.83948 0.47087 0.0
C2011 C 0.68888 0.84289 0.48678 0.0
C2012 C 0.73859 0.85541 0.50976 0.0
C2013 C 0.74945 0.86558 0.55566 0.0
C2014 C 0.73951 0.86268 0.53891 0.0
C2015 C 0.7106 0.8535 0.49005 0.0
C2016 C 0.72057 0.85675 0.50692 0.0
H2017 H 0.73758 0.84928 0.59313 0.0
H2018 H 0.72084 0.84581 0.56583 0.0
H2019 H 0.76173 0.85706 0.52735 0.0
H2020 H 0.72332 0.86256 0.45137 0.0
H2021 H 0.73952 0.86921 0.4791 0.0
C2022 C 0.14572 0.88181 0.57235 0.0
C2023 C 0.12846 0.88462 0.57234 0.0
C2024 C 0.14955 0.87363 0.55826 0.0
C2025 C 0.12631 0.84533 0.51747 0.0
H2026 H 0.18235 0.8775 0.50574 0.0
C2027 C 0.14773 0.84026 0.452 0.0
C2028 C 0.16755 0.84325 0.44984 0.0
C2029 C 0.14234 0.84258 0.46756 0.0
C2030 C 0.16672 0.86804 0.50891 0.0
H2031 H 0.10124 0.88019 0.5576 0.0
H2032 H 0.10778 0.86565 0.53312 0.0
H2033 H 0.17381 0.88568 0.53197 0.0
H2034 H 0.19703 0.85051 0.46259 0.0
H2035 H 0.18736 0.85371 0.48965 0.0
H2036 H 0.1192 0.82775 0.49433 0.0
C2037 C 0.1183 0.86972 0.54407 0.0
C2038 C 0.16182 0.87278 0.52398 0.0
C2039 C 0.11453 0.87802 0.55813 0.0
C2040 C 0.18156 0.84789 0.46372 0.0
C2041 C 0.17611 0.85004 0.47928 0.0
C2042 C 0.13126 0.84046 0.50241 0.0
C2043 C 0.13614 0.86793 0.54385 0.0
C2044 C 0.14152 0.86165 0.52837 0.0
C2045 C 0.15657 0.8478 0.4814 0.0
C2046 C 0.15148 0.85193 0.49785 0.0
H2047 H 0.15656 0.88638 0.58317 0.0
H2048 H 0.16324 0.87212 0.55854 0.0
H2049 H 0.11057 0.83634 0.52058 0.0
H2050 H 0.13639 0.83635 0.44164 0.0
H2051 H 0.12722 0.8409 0.46866 0.0
C2052 C 0.58163 0.79475 0.10876 0.0
C2053 C 0.56966 0.77404 0.10255 0.0
C2054 C 0.58989 0.80009 0.12512 0.0
C2055 C 0.60385 0.77821 0.15925 0.0
H2056 H 0.60934 0.82528 0.18541 0.0
C2057 C 0.63181 0.79451 0.22769 0.0
C2058 C 0.64697 0.81481 0.23326 0.0
C2059 C 0.62141 0.78977 0.21206 0.0
C2060 C 0.60801 0.81216 0.1782 0.0
H2061 H 0.55575 0.74271 0.10866 0.0
H2062 H 0.56968 0.75194 0.13718 0.0
H2063 H 0.59252 0.81664 0.15753 0.0
H2064 H 0.66266 0.84616 0.22702 0.0
H2065 H 0.64459 0.83785 0.19965 0.0
H2066 H 0.61926 0.77368 0.17987 0.0
C2067 C 0.57334 0.7641 0.12941 0.0
C2068 C 0.59842 0.80723 0.16223 0.0
C2069 C 0.56528 0.7588 0.1131 0.0
C2070 C 0.65123 0.83033 0.22299 0.0
C2071 C 0.64073 0.82562 0.20739 0.0
C2072 C 0.6133 0.78306 0.17519 0.0
C2073 C 0.58616 0.78479 0.13555 0.0
C2074 C 0.5962 0.79017 0.15257 0.0
C2075 C 0.62585 0.80526 0.2017 0.0
C2076 C 0.61548 0.80007 0.18485 0.0
H2077 H 0.58525 0.80677 0.10084 0.0
H2078 H 0.5998 0.81617 0.12943 0.0
H2079 H 0.60286 0.76525 0.15206 0.0
H2080 H 0.62827 0.78221 0.2353 0.0
H2081 H 0.60987 0.77397 0.20806 0.0
C2082 C 0.24515 0.79467 0.12531 0.0
C2083 C 0.24707 0.80619 0.11212 0.0
C2084 C 0.23593 0.79683 0.13891 0.0
C2085 C 0.22216 0.8323 0.16028 0.0
H2086 H 0.18844 0.78481 0.18278 0.0
C2087 C 0.17648 0.83517 0.21355 0.0
C2088 C 0.1781 0.82574 0.22731 0.0
C2089 C 0.18405 0.83253 0.19909 0.0
C2090 C 0.19793 0.79823 0.17668 0.0
H2091 H 0.24053 0.8288 0.10275 0.0
H2092 H 0.22407 0.83235 0.12639 0.0
H2093 H 0.20288 0.78063 0.15817 0.0
H2094 H 0.18919 0.80623 0.23656 0.0
H2095 H 0.202 0.80133 0.21127 0.0
H2096 H 0.21699 0.84984 0.17879 0.0
C2097 C 0.23008 0.82193 0.12638 0.0
C2098 C 0.20627 0.79587 0.16259 0.0
C2099 C 0.23945 0.81986 0.1128 0.0
C2100 C 0.1873 0.81342 0.22615 0.0
C2101 C 0.19471 0.81064 0.21166 0.0
C2102 C 0.21367 0.83463 0.17431 0.0
C2103 C 0.22825 0.81047 0.13964 0.0
C2104 C 0.21866 0.81289 0.15428 0.0
C2105 C 0.19326 0.82025 0.198 0.0
C2106 C 0.20162 0.81765 0.18274 0.0
H2107 H 0.25118 0.78426 0.12526 0.0
H2108 H 0.2352 0.78806 0.149 0.0
H2109 H 0.23187 0.84581 0.15437 0.0
H2110 H 0.16919 0.84448 0.21387 0.0
H2111 H 0.18249 0.83992 0.18869 0.0
C2112 C 0.23104 0.4502 0.13821 0.0
C2113 C 0.21685 0.44149 0.12414 0.0
C2114 C 0.2273 0.44 0.15229 0.0
C2115 C 0.19569 0.38915 0.16754 0.0
H2116 H 0.20638 0.42168 0.20876 0.0
C2117 C 0.18566 0.35419 0.22904 0.0
C2118 C 0.17669 0.36058 0.24083 0.0
C2119 C 0.19135 0.36404 0.21487 0.0
C2120 C 0.20317 0.41234 0.19735 0.0
H2121 H 0.18802 0.41482 0.11368 0.0
H2122 H 0.18133 0.3972 0.13828 0.0
H2123 H 0.21494 0.43851 0.18382 0.0
H2124 H 0.1665 0.38228 0.24683 0.0
H2125 H 0.17633 0.39941 0.22208 0.0
H2126 H 0.18338 0.36292 0.18101 0.0
C2127 C 0.19544 0.41186 0.13842 0.0
C2128 C 0.20835 0.42203 0.18306 0.0
C2129 C 0.19917 0.42205 0.12435 0.0
C2130 C 0.17362 0.37713 0.23811 0.0
C2131 C 0.17928 0.38697 0.22392 0.0
C2132 C 0.19052 0.37946 0.18184 0.0
C2133 C 0.2093 0.42083 0.15266 0.0
C2134 C 0.20458 0.41056 0.16795 0.0
C2135 C 0.18821 0.38055 0.2121 0.0
C2136 C 0.19409 0.39092 0.19692 0.0
H2137 H 0.24471 0.46523 0.13853 0.0
H2138 H 0.23845 0.44724 0.16296 0.0
H2139 H 0.19275 0.37985 0.15616 0.0
H2140 H 0.18859 0.34174 0.23087 0.0
H2141 H 0.19849 0.3589 0.20618 0.0
C2142 C 0.77273 0.58637 0.90189 0.0
C2143 C 0.76833 0.56594 0.90138 0.0
C2144 C 0.78055 0.59775 0.88869 0.0
C2145 C 0.78279 0.59164 0.84453 0.0
H2146 H 0.82894 0.64752 0.85125 0.0
C2147 C 0.82345 0.63522 0.79075 0.0
C2148 C 0.83025 0.6563 0.79135 0.0
C2149 C 0.81608 0.6245 0.80431 0.0
C2150 C 0.81586 0.63203 0.84914 0.0
H2151 H 0.76844 0.54136 0.88656 0.0
H2152 H 0.7821 0.5612 0.86355 0.0
H2153 H 0.81564 0.6284 0.87466 0.0
H2154 H 0.83475 0.68263 0.80694 0.0
H2155 H 0.82123 0.66381 0.83036 0.0
H2156 H 0.78269 0.59525 0.81909 0.0
C2157 C 0.77952 0.56843 0.87415 0.0
C2158 C 0.80828 0.62107 0.86258 0.0
C2159 C 0.7719 0.55714 0.88739 0.0
C2160 C 0.82944 0.66636 0.80592 0.0
C2161 C 0.82193 0.65561 0.81946 0.0
C2162 C 0.79024 0.60264 0.83112 0.0
C2163 C 0.7839 0.58885 0.87463 0.0
C2164 C 0.79174 0.6007 0.86041 0.0
C2165 C 0.81512 0.63452 0.81884 0.0
C2166 C 0.80696 0.62295 0.83321 0.0
H2167 H 0.77022 0.59359 0.91254 0.0
H2168 H 0.78364 0.6134 0.88937 0.0
H2169 H 0.76981 0.57609 0.84248 0.0
H2170 H 0.82355 0.62685 0.7797 0.0
H2171 H 0.81126 0.60835 0.8034 0.0
C2172 C 0.44539 0.21946 0.91004 0.0
C2173 C 0.435 0.20762 0.92249 0.0
C2174 C 0.4348 0.21674 0.89476 0.0
C2175 C 0.38911 0.17807 0.86803 0.0
H2176 H 0.39965 0.22383 0.84338 0.0
C2177 C 0.34368 0.16697 0.80576 0.0
C2178 C 0.35508 0.17843 0.79351 0.0
C2179 C 0.35276 0.17103 0.8218 0.0
C2180 C 0.39669 0.21088 0.85005 0.0
H2181 H 0.40514 0.18427 0.92885 0.0
H2182 H 0.38667 0.17949 0.90215 0.0
H2183 H 0.41651 0.23035 0.87101 0.0
H2184 H 0.38491 0.20336 0.78859 0.0
H2185 H 0.40091 0.21011 0.81649 0.0
H2186 H 0.36953 0.15858 0.84704 0.0
C2187 C 0.40308 0.19064 0.90415 0.0
C2188 C 0.40632 0.21462 0.86588 0.0
C2189 C 0.41366 0.19339 0.91944 0.0
C2190 C 0.37577 0.19409 0.79769 0.0
C2191 C 0.38486 0.19814 0.81373 0.0
C2192 C 0.37952 0.17433 0.85219 0.0
C2193 C 0.4136 0.2021 0.89158 0.0
C2194 C 0.40272 0.19825 0.87502 0.0
C2195 C 0.37347 0.18663 0.82598 0.0
C2196 C 0.38327 0.19068 0.84298 0.0
H2197 H 0.46188 0.23034 0.91191 0.0
H2198 H 0.44341 0.22562 0.88528 0.0
H2199 H 0.38628 0.16511 0.87464 0.0
H2200 H 0.32778 0.15466 0.80293 0.0
H2201 H 0.3435 0.16201 0.83097 0.0
C2202 C 0.7886 0.21149 0.89696 0.0
C2203 C 0.7967 0.23241 0.90192 0.0
C2204 C 0.79291 0.20534 0.88207 0.0
C2205 C 0.83052 0.22571 0.85129 0.0
H2206 H 0.78893 0.17796 0.8233 0.0
C2207 C 0.84189 0.20947 0.78494 0.0
C2208 C 0.83634 0.18922 0.77961 0.0
C2209 C 0.83671 0.21404 0.79996 0.0
C2210 C 0.80076 0.19122 0.83107 0.0
H2211 H 0.81462 0.26318 0.89482 0.0
H2212 H 0.82187 0.25254 0.86892 0.0
H2213 H 0.78025 0.18702 0.84937 0.0
H2214 H 0.82061 0.15781 0.7857 0.0
H2215 H 0.81165 0.16582 0.812 0.0
H2216 H 0.85093 0.23009 0.83293 0.0
C2217 C 0.81279 0.24087 0.87667 0.0
C2218 C 0.79581 0.19639 0.84602 0.0
C2219 C 0.8086 0.24698 0.89151 0.0
C2220 C 0.8253 0.1736 0.78956 0.0
C2221 C 0.81999 0.17814 0.80454 0.0
C2222 C 0.83541 0.22062 0.83635 0.0
C2223 C 0.80527 0.22001 0.87184 0.0
C2224 C 0.81059 0.21383 0.85624 0.0
C2225 C 0.82574 0.19844 0.80995 0.0
C2226 C 0.82056 0.20342 0.82601 0.0
H2227 H 0.77939 0.19996 0.90476 0.0
H2228 H 0.78696 0.18916 0.87877 0.0
H2229 H 0.84245 0.23897 0.859 0.0
H2230 H 0.85051 0.22186 0.7776 0.0
H2231 H 0.84118 0.22979 0.80372 0.0
C2232 C 0.23407 0.09042 0.44877 0.0
C2233 C 0.23627 0.10524 0.43834 0.0
C2234 C 0.24302 0.09625 0.46485 0.0
C2235 C 0.26563 0.13923 0.49765 0.0
H2236 H 0.29177 0.10978 0.51448 0.0
C2237 C 0.31831 0.16518 0.55869 0.0
C2238 C 0.31547 0.14976 0.56871 0.0
C2239 C 0.30813 0.16008 0.54295 0.0
C2240 C 0.28436 0.11801 0.51002 0.0
H2241 H 0.24902 0.13776 0.43665 0.0
H2242 H 0.26504 0.1481 0.46485 0.0
H2243 H 0.27501 0.10056 0.48673 0.0
H2244 H 0.29972 0.11691 0.57009 0.0
H2245 H 0.28186 0.10799 0.54261 0.0
H2246 H 0.27531 0.15686 0.521 0.0
C2247 C 0.25619 0.13192 0.46061 0.0
C2248 C 0.27471 0.11272 0.49412 0.0
C2249 C 0.24707 0.12604 0.44447 0.0
C2250 C 0.30212 0.12914 0.5627 0.0
C2251 C 0.29205 0.12403 0.54692 0.0
C2252 C 0.2754 0.14461 0.51357 0.0
C2253 C 0.25452 0.11708 0.4709 0.0
C2254 C 0.26509 0.12315 0.48777 0.0
C2255 C 0.29501 0.13944 0.53685 0.0
C2256 C 0.28475 0.13396 0.51995 0.0
H2257 H 0.22544 0.07424 0.44445 0.0
H2258 H 0.24095 0.08439 0.47255 0.0
H2259 H 0.25819 0.14744 0.4932 0.0
H2260 H 0.32833 0.18123 0.56306 0.0
H2261 H 0.31083 0.17229 0.53544 0.0
C2262 C 0.91104 0.12745 0.45696 0.0
C2263 C 0.9123 0.1384 0.44352 0.0
C2264 C 0.90194 0.12975 0.4706 0.0
C2265 C 0.88715 0.16478 0.49137 0.0
H2266 H 0.85523 0.11784 0.51499 0.0
C2267 C 0.8416 0.16737 0.54491 0.0
C2268 C 0.84404 0.15867 0.55888 0.0
C2269 C 0.84916 0.16473 0.53044 0.0
C2270 C 0.86421 0.13111 0.50857 0.0
H2271 H 0.90474 0.16014 0.43372 0.0
H2272 H 0.88847 0.1639 0.45741 0.0
H2273 H 0.86946 0.11345 0.49033 0.0
H2274 H 0.85665 0.14054 0.5685 0.0
H2275 H 0.8694 0.13561 0.54319 0.0
H2276 H 0.88163 0.18236 0.50962 0.0
C2277 C 0.8949 0.15384 0.45758 0.0
C2278 C 0.87244 0.12863 0.49445 0.0
C2279 C 0.90416 0.15165 0.44397 0.0
C2280 C 0.8541 0.14713 0.55793 0.0
C2281 C 0.86148 0.14434 0.54344 0.0
C2282 C 0.87875 0.16722 0.50543 0.0
C2283 C 0.89372 0.14295 0.4711 0.0
C2284 C 0.8842 0.14547 0.48575 0.0
C2285 C 0.85916 0.15317 0.52955 0.0
C2286 C 0.86736 0.15045 0.51426 0.0
H2287 H 0.91748 0.11739 0.45709 0.0
H2288 H 0.90173 0.12144 0.48089 0.0
H2289 H 0.89637 0.17816 0.48515 0.0
H2290 H 0.83365 0.17607 0.54508 0.0
H2291 H 0.84695 0.17152 0.51988 0.0
C2292 C 0.86681 0.77642 0.4687 0.0
C2293 C 0.88002 0.77499 0.45796 0.0
C2294 C 0.86259 0.76608 0.48266 0.0
C2295 C 0.88197 0.74138 0.51072 0.0
H2296 H 0.82627 0.71713 0.5238 0.0
C2297 C 0.85527 0.68986 0.56377 0.0
C2298 C 0.84295 0.69312 0.57441 0.0
C2299 C 0.86009 0.69961 0.54947 0.0
C2300 C 0.84195 0.72398 0.52041 0.0
H2301 H 0.89936 0.76168 0.4536 0.0
H2302 H 0.8918 0.74331 0.47798 0.0
H2303 H 0.83404 0.73409 0.49892 0.0
H2304 H 0.82601 0.70914 0.5783 0.0
H2305 H 0.83452 0.72624 0.55342 0.0
H2306 H 0.88976 0.73108 0.53223 0.0
C2307 C 0.88486 0.75266 0.47565 0.0
C2308 C 0.84643 0.73374 0.50613 0.0
C2309 C 0.88916 0.76313 0.46166 0.0
C2310 C 0.83564 0.70641 0.57043 0.0
C2311 C 0.84035 0.71604 0.55609 0.0
C2312 C 0.87744 0.73151 0.52498 0.0
C2313 C 0.87142 0.75393 0.48629 0.0
C2314 C 0.86655 0.74275 0.50116 0.0
C2315 C 0.85261 0.71274 0.54542 0.0
C2316 C 0.85741 0.72285 0.53007 0.0
H2317 H 0.85992 0.78585 0.46645 0.0
H2318 H 0.8526 0.76786 0.49074 0.0
H2319 H 0.89768 0.74835 0.5074 0.0
H2320 H 0.86135 0.6799 0.56655 0.0
H2321 H 0.86945 0.69661 0.54147 0.0
loop_
_geom_bond_atom_site_label_1
_geom_bond_atom_site_label_2
_geom_bond_distance
_geom_bond_site_symmetry_2
_ccdc_geom_bond_type
H0 C1 0.949 . S
C1 H0 0.949 . S
C1 C2 1.395 . S
C1 C3 1.391 . S
C2 C1 1.395 . S
C2 C5 1.390 . S
C3 C1 1.391 . S
C3 C7 1.387 . S
C3 C8 1.491 . S
H4 C5 0.950 . S
C5 C2 1.390 . S
C5 H4 0.950 . S
C5 C6 1.378 . S
C6 C5 1.378 . S
C6 C7 1.409 . S
C7 C3 1.387 . S
C7 C6 1.409 . S
C7 H9 0.951 . S
C8 C3 1.491 . S
C8 C10 1.382 . S
C8 C12 1.404 . S
H9 C7 0.951 . S
C10 C8 1.382 . S
C10 C11 1.390 . S
C10 H15 0.949 . S
C11 C10 1.390 . S
C11 C16 1.399 . S
C12 C8 1.404 . S
C12 H13 0.950 . S
C12 C14 1.375 . S
H13 C12 0.950 . S
C14 C12 1.375 . S
C14 C16 1.382 . S
C14 H18 0.950 . S
H15 C10 0.949 . S
C16 C11 1.399 . S
C16 C14 1.382 . S
C16 H17 0.952 . S
H17 C16 0.952 . S
H18 C14 0.950 . S
H19 C20 0.949 . S
C20 H19 0.949 . S
C20 C21 1.395 . S
C20 C22 1.391 . S
C21 C20 1.395 . S
C21 C24 1.390 . S
C22 C20 1.391 . S
C22 C26 1.387 . S
C22 C27 1.491 . S
H23 C24 0.950 . S
C24 C21 1.390 . S
C24 H23 0.950 . S
C24 C25 1.378 . S
C25 C24 1.378 . S
C25 C26 1.409 . S
C26 C22 1.387 . S
C26 C25 1.409 . S
C26 H28 0.951 . S
C27 C22 1.491 . S
C27 C29 1.382 . S
C27 C31 1.404 . S
H28 C26 0.951 . S
C29 C27 1.382 . S
C29 C30 1.390 . S
C29 H34 0.949 . S
C30 C29 1.390 . S
C30 C35 1.399 . S
C31 C27 1.404 . S
C31 H32 0.950 . S
C31 C33 1.375 . S
H32 C31 0.950 . S
C33 C31 1.375 . S
C33 C35 1.382 . S
C33 H37 0.950 . S
H34 C29 0.949 . S
C35 C30 1.399 . S
C35 C33 1.382 . S
C35 H36 0.952 . S
H36 C35 0.952 . S
H37 C33 0.950 . S
H38 C39 0.949 . S
C39 H38 0.949 . S
C39 C40 1.395 . S
C39 C41 1.391 . S
C40 C39 1.395 . S
C40 C43 1.390 . S
C41 C39 1.391 . S
C41 C45 1.387 . S
C41 C46 1.491 . S
H42 C43 0.950 . S
C43 C40 1.390 . S
C43 H42 0.950 . S
C43 C44 1.378 . S
C44 C43 1.378 . S
C44 C45 1.409 . S
C45 C41 1.387 . S
C45 C44 1.409 . S
C45 H47 0.951 . S
C46 C41 1.491 . S
C46 C48 1.382 . S
C46 C50 1.404 . S
H47 C45 0.951 . S
C48 C46 1.382 . S
C48 C49 1.390 . S
C48 H53 0.949 . S
C49 C48 1.390 . S
C49 C54 1.399 . S
C50 C46 1.404 . S
C50 H51 0.950 . S
C50 C52 1.375 . S
H51 C50 0.950 . S
C52 C50 1.375 . S
C52 C54 1.382 . S
C52 H56 0.950 . S
H53 C48 0.949 . S
C54 C49 1.399 . S
C54 C52 1.382 . S
C54 H55 0.952 . S
H55 C54 0.952 . S
H56 C52 0.950 . S
H57 C58 0.949 . S
C58 H57 0.949 . S
C58 C59 1.395 . S
C58 C60 1.391 . S
C59 C58 1.395 . S
C59 C62 1.390 . S
C60 C58 1.391 . S
C60 C64 1.387 . S
C60 C65 1.491 . S
H61 C62 0.950 . S
C62 C59 1.390 . S
C62 H61 0.950 . S
C62 C63 1.378 . S
C63 C62 1.378 . S
C63 C64 1.409 . S
C64 C60 1.387 . S
C64 C63 1.409 . S
C64 H66 0.951 . S
C65 C60 1.491 . S
C65 C67 1.382 . S
C65 C69 1.404 . S
H66 C64 0.951 . S
C67 C65 1.382 . S
C67 C68 1.390 . S
C67 H72 0.949 . S
C68 C67 1.390 . S
C68 C73 1.399 . S
C69 C65 1.404 . S
C69 H70 0.950 . S
C69 C71 1.375 . S
H70 C69 0.950 . S
C71 C69 1.375 . S
C71 C73 1.382 . S
C71 H75 0.950 . S
H72 C67 0.949 . S
C73 C68 1.399 . S
C73 C71 1.382 . S
C73 H74 0.952 . S
H74 C73 0.952 . S
H75 C71 0.950 . S
H76 C77 0.949 . S
C77 H76 0.949 . S
C77 C78 1.395 . S
C77 C79 1.391 . S
C78 C77 1.395 . S
C78 C81 1.390 . S
C79 C77 1.391 . S
C79 C83 1.387 . S
C79 C84 1.491 . S
H80 C81 0.950 . S
C81 C78 1.390 . S
C81 H80 0.950 . S
C81 C82 1.378 . S
C82 C81 1.378 . S
C82 C83 1.409 . S
C83 C79 1.387 . S
C83 C82 1.409 . S
C83 H85 0.951 . S
C84 C79 1.491 . S
C84 C86 1.382 . S
C84 C88 1.404 . S
H85 C83 0.951 . S
C86 C84 1.382 . S
C86 C87 1.390 . S
C86 H91 0.949 . S
C87 C86 1.390 . S
C87 C92 1.399 . S
C88 C84 1.404 . S
C88 H89 0.950 . S
C88 C90 1.375 . S
H89 C88 0.950 . S
C90 C88 1.375 . S
C90 C92 1.382 . S
C90 H94 0.950 . S
H91 C86 0.949 . S
C92 C87 1.399 . S
C92 C90 1.382 . S
C92 H93 0.952 . S
H93 C92 0.952 . S
H94 C90 0.950 . S
H95 C96 0.949 . S
C96 H95 0.949 . S
C96 C97 1.395 . S
C96 C98 1.391 . S
C97 C96 1.395 . S
C97 C100 1.390 . S
C98 C96 1.391 . S
C98 C102 1.387 . S
C98 C103 1.491 . S
H99 C100 0.950 . S
C100 C97 1.390 . S
C100 H99 0.950 . S
C100 C101 1.378 . S
C101 C100 1.378 . S
C101 C102 1.409 . S
C102 C98 1.387 . S
C102 C101 1.409 . S
C102 H104 0.951 . S
C103 C98 1.491 . S
C103 C105 1.382 . S
C103 C107 1.404 . S
H104 C102 0.951 . S
C105 C103 1.382 . S
C105 C106 1.390 . S
C105 H110 0.949 . S
C106 C105 1.390 . S
C106 C111 1.399 . S
C107 C103 1.404 . S
C107 H108 0.950 . S
C107 C109 1.375 . S
H108 C107 0.950 . S
C109 C107 1.375 . S
C109 C111 1.382 . S
C109 H113 0.950 . S
H110 C105 0.949 . S
C111 C106 1.399 . S
C111 C109 1.382 . S
C111 H112 0.952 . S
H112 C111 0.952 . S
H113 C109 0.950 . S
H114 C115 0.949 . S
C115 H114 0.949 . S
C115 C116 1.395 . S
C115 C117 1.391 . S
C116 C115 1.395 . S
C116 C119 1.390 . S
C117 C115 1.391 . S
C117 C121 1.387 . S
C117 C122 1.491 . S
H118 C119 0.950 . S
C119 C116 1.390 . S
C119 H118 0.950 . S
C119 C120 1.378 . S
C120 C119 1.378 . S
C120 C121 1.409 . S
C121 C117 1.387 . S
C121 C120 1.409 . S
C121 H123 0.951 . S
C122 C117 1.491 . S
C122 C124 1.382 . S
C122 C126 1.404 . S
H123 C121 0.951 . S
C124 C122 1.382 . S
C124 C125 1.390 . S
C124 H129 0.949 . S
C125 C124 1.390 . S
C125 C130 1.399 . S
C126 C122 1.404 . S
C126 H127 0.950 . S
C126 C128 1.375 . S
H127 C126 0.950 . S
C128 C126 1.375 . S
C128 C130 1.382 . S
C128 H132 0.950 . S
H129 C124 0.949 . S
C130 C125 1.399 . S
C130 C128 1.382 . S
C130 H131 0.952 . S
H131 C130 0.952 . S
H132 C128 0.950 . S
H133 C134 0.949 . S
C134 H133 0.949 . S
C134 C135 1.395 . S
C134 C136 1.391 . S
C135 C134 1.395 . S
C135 C138 1.390 . S
C136 C134 1.391 . S
C136 C140 1.387 . S
C136 C141 1.491 . S
H137 C138 0.950 . S
C138 C135 1.390 . S
C138 H137 0.950 . S
C138 C139 1.378 . S
C139 C138 1.378 . S
C139 C140 1.409 . S
C140 C136 1.387 . S
C140 C139 1.409 . S
C140 H142 0.951 . S
C141 C136 1.491 . S
C141 C143 1.382 . S
C141 C145 1.404 . S
H142 C140 0.951 . S
C143 C141 1.382 . S
C143 C144 1.390 . S
C143 H148 0.949 . S
C144 C143 1.390 . S
C144 C149 1.399 . S
C145 C141 1.404 . S
C145 H146 0.950 . S
C145 C147 1.375 . S
H146 C145 0.950 . S
C147 C145 1.375 . S
C147 C149 1.382 . S
C147 H151 0.950 . S
H148 C143 0.949 . S
C149 C144 1.399 . S
C149 C147 1.382 . S
C149 H150 0.952 . S
H150 C149 0.952 . S
H151 C147 0.950 . S
H152 C153 0.949 . S
C153 H152 0.949 . S
C153 C154 1.395 . S
C153 C155 1.391 . S
C154 C153 1.395 . S
C154 C157 1.390 . S
C155 C153 1.391 . S
C155 C159 1.387 . S
C155 C160 1.491 . S
H156 C157 0.950 . S
C157 C154 1.390 . S
C157 H156 0.950 . S
C157 C158 1.378 . S
C158 C157 1.378 . S
C158 C159 1.409 . S
C159 C155 1.387 . S
C159 C158 1.409 . S
C159 H161 0.951 . S
C160 C155 1.491 . S
C160 C162 1.382 . S
C160 C164 1.404 . S
H161 C159 0.951 . S
C162 C160 1.382 . S
C162 C163 1.390 . S
C162 H167 0.949 . S
C163 C162 1.390 . S
C163 C168 1.399 . S
C164 C160 1.404 . S
C164 H165 0.950 . S
C164 C166 1.375 . S
H165 C164 0.950 . S
C166 C164 1.375 . S
C166 C168 1.382 . S
C166 H170 0.950 . S
H167 C162 0.949 . S
C168 C163 1.399 . S
C168 C166 1.382 . S
C168 H169 0.952 . S
H169 C168 0.952 . S
H170 C166 0.950 . S
H171 C172 0.949 . S
C172 H171 0.949 . S
C172 C173 1.395 . S
C172 C174 1.391 . S
C173 C172 1.395 . S
C173 C176 1.390 . S
C174 C172 1.391 . S
C174 C178 1.387 . S
C174 C179 1.491 . S
H175 C176 0.950 . S
C176 C173 1.390 . S
C176 H175 0.950 . S
C176 C177 1.378 . S
C177 C176 1.378 . S
C177 C178 1.409 . S
C178 C174 1.387 . S
C178 C177 1.409 . S
C178 H180 0.951 . S
C179 C174 1.491 . S
C179 C181 1.382 . S
C179 C183 1.404 . S
H180 C178 0.951 . S
C181 C179 1.382 . S
C181 C182 1.390 . S
C181 H186 0.949 . S
C182 C181 1.390 . S
C182 C187 1.399 . S
C183 C179 1.404 . S
C183 H184 0.950 . S
C183 C185 1.375 . S
H184 C183 0.950 . S
C185 C183 1.375 . S
C185 C187 1.382 . S
C185 H189 0.950 . S
H186 C181 0.949 . S
C187 C182 1.399 . S
C187 C185 1.382 . S
C187 H188 0.952 . S
H188 C187 0.952 . S
H189 C185 0.950 . S
H190 C191 0.949 . S
C191 H190 0.949 . S
C191 C192 1.395 . S
C191 C193 1.391 . S
C192 C191 1.395 . S
C192 C195 1.390 . S
C193 C191 1.391 . S
C193 C197 1.387 . S
C193 C198 1.491 . S
H194 C195 0.950 . S
C195 C192 1.390 . S
C195 H194 0.950 . S
C195 C196 1.378 . S
C196 C195 1.378 . S
C196 C197 1.409 . S
C197 C193 1.387 . S
C197 C196 1.409 . S
C197 H199 0.951 1_556 S
C198 C193 1.491 . S
C198 C200 1.382 . S
C198 C202 1.404 1_556 S
H199 C197 0.951 1_554 S
C200 C198 1.382 . S
C200 C201 1.365 1_556 S
C200 H205 0.949 . S
C201 C200 1.365 1_554 S
C201 C206 1.432 . S
C202 C198 1.404 1_554 S
C202 H203 0.950 . S
C202 C204 1.375 . S
H203 C202 0.950 . S
C204 C202 1.375 . S
C204 C206 1.382 . S
C204 H208 0.950 . S
H205 C200 0.949 . S
C206 C201 1.432 . S
C206 C204 1.382 . S
C206 H207 0.952 . S
H207 C206 0.952 . S
H208 C204 0.950 . S
H209 C210 0.949 . S
C210 H209 0.949 . S
C210 C211 1.395 . S
C210 C212 1.391 . S
C211 C210 1.395 . S
C211 C214 1.390 . S
C212 C210 1.391 . S
C212 C216 1.387 . S
C212 C217 1.491 . S
H213 C214 0.950 . S
C214 C211 1.390 . S
C214 H213 0.950 . S
C214 C215 1.378 . S
C215 C214 1.378 . S
C215 C216 1.409 . S
C216 C212 1.387 . S
C216 C215 1.409 . S
C216 H218 0.951 . S
C217 C212 1.491 . S
C217 C219 1.382 . S
C217 C221 1.404 . S
H218 C216 0.951 . S
C219 C217 1.382 . S
C219 C220 1.390 . S
C219 H224 0.949 . S
C220 C219 1.390 . S
C220 C225 1.399 . S
C221 C217 1.404 . S
C221 H222 0.950 . S
C221 C223 1.375 . S
H222 C221 0.950 . S
C223 C221 1.375 . S
C223 C225 1.382 . S
C223 H227 0.950 . S
H224 C219 0.949 . S
C225 C220 1.399 . S
C225 C223 1.382 . S
C225 H226 0.952 . S
H226 C225 0.952 . S
H227 C223 0.950 . S
H228 C229 0.949 . S
C229 H228 0.949 . S
C229 C230 1.395 . S
C229 C231 1.391 . S
C230 C229 1.395 . S
C230 C233 1.390 . S
C231 C229 1.391 . S
C231 C235 1.387 . S
C231 C236 1.491 . S
H232 C233 0.950 . S
C233 C230 1.390 . S
C233 H232 0.950 . S
C233 C234 1.378 . S
C234 C233 1.378 . S
C234 C235 1.409 . S
C235 C231 1.387 . S
C235 C234 1.409 . S
C235 H237 0.951 . S
C236 C231 1.491 . S
C236 C238 1.382 . S
C236 C240 1.404 . S
H237 C235 0.951 . S
C238 C236 1.382 . S
C238 C239 1.390 . S
C238 H243 0.949 . S
C239 C238 1.390 . S
C239 C244 1.399 . S
C240 C236 1.404 . S
C240 H241 0.950 . S
C240 C242 1.375 . S
H241 C240 0.950 . S
C242 C240 1.375 . S
C242 C244 1.382 . S
C242 H246 0.950 . S
H243 C238 0.949 . S
C244 C239 1.399 . S
C244 C242 1.382 . S
C244 H245 0.952 . S
H245 C244 0.952 . S
H246 C242 0.950 . S
H247 C248 0.949 . S
C248 H247 0.949 . S
C248 C249 1.395 . S
C248 C250 1.391 . S
C249 C248 1.395 . S
C249 C252 1.390 . S
C250 C248 1.391 . S
C250 C254 1.387 . S
C250 C255 1.491 . S
H251 C252 0.950 . S
C252 C249 1.390 . S
C252 H251 0.950 . S
C252 C253 1.378 . S
C253 C252 1.378 . S
C253 C254 1.409 . S
C254 C250 1.387 . S
C254 C253 1.409 . S
C254 H256 0.951 . S
C255 C250 1.491 . S
C255 C257 1.382 . S
C255 C259 1.404 . S
H256 C254 0.951 . S
C257 C255 1.382 . S
C257 C258 1.390 . S
C257 H262 0.949 . S
C258 C257 1.390 . S
C258 C263 1.399 . S
C259 C255 1.404 . S
C259 H260 0.950 . S
C259 C261 1.375 . S
H260 C259 0.950 . S
C261 C259 1.375 . S
C261 C263 1.382 . S
C261 H265 0.950 . S
H262 C257 0.949 . S
C263 C258 1.399 . S
C263 C261 1.382 . S
C263 H264 0.952 . S
H264 C263 0.952 . S
H265 C261 0.950 . S
H266 C267 0.949 . S
C267 H266 0.949 . S
C267 C268 1.395 . S
C267 C269 1.391 . S
C268 C267 1.395 . S
C268 C271 1.390 . S
C269 C267 1.391 . S
C269 C273 1.387 . S
C269 C274 1.491 . S
H270 C271 0.950 . S
C271 C268 1.390 . S
C271 H270 0.950 . S
C271 C272 1.378 . S
C272 C271 1.378 . S
C272 C273 1.409 . S
C273 C269 1.387 . S
C273 C272 1.409 . S
C273 H275 0.951 . S
C274 C269 1.491 . S
C274 C276 1.382 . S
C274 C278 1.404 . S
H275 C273 0.951 . S
C276 C274 1.382 . S
C276 C277 1.390 . S
C276 H281 0.949 . S
C277 C276 1.390 . S
C277 C282 1.399 . S
C278 C274 1.404 . S
C278 H279 0.950 . S
C278 C280 1.375 . S
H279 C278 0.950 . S
C280 C278 1.375 . S
C280 C282 1.382 . S
C280 H284 0.950 . S
H281 C276 0.949 . S
C282 C277 1.399 . S
C282 C280 1.382 . S
C282 H283 0.952 . S
H283 C282 0.952 . S
H284 C280 0.950 . S
H285 C286 0.949 . S
C286 H285 0.949 . S
C286 C287 1.395 . S
C286 C288 1.391 . S
C287 C286 1.395 . S
C287 C290 1.390 . S
C288 C286 1.391 . S
C288 C292 1.387 . S
C288 C293 1.491 . S
H289 C290 0.950 . S
C290 C287 1.390 . S
C290 H289 0.950 . S
C290 C291 1.378 . S
C291 C290 1.378 . S
C291 C292 1.409 . S
C292 C288 1.387 . S
C292 C291 1.409 . S
C292 H294 0.951 . S
C293 C288 1.491 . S
C293 C295 1.382 . S
C293 C297 1.404 . S
H294 C292 0.951 . S
C295 C293 1.382 . S
C295 C296 1.390 . S
C295 H300 0.949 . S
C296 C295 1.390 . S
C296 C301 1.399 . S
C297 C293 1.404 . S
C297 H298 0.950 . S
C297 C299 1.375 . S
H298 C297 0.950 . S
C299 C297 1.375 . S
C299 C301 1.382 . S
C299 H303 0.950 . S
H300 C295 0.949 . S
C301 C296 1.399 . S
C301 C299 1.382 . S
C301 H302 0.952 . S
H302 C301 0.952 . S
H303 C299 0.950 . S
H304 C305 0.949 . S
C305 H304 0.949 . S
C305 C306 1.395 . S
C305 C307 1.391 . S
C306 C305 1.395 . S
C306 C309 1.390 . S
C307 C305 1.391 . S
C307 C311 1.387 . S
C307 C312 1.491 . S
H308 C309 0.950 . S
C309 C306 1.390 . S
C309 H308 0.950 . S
C309 C310 1.378 . S
C310 C309 1.378 . S
C310 C311 1.409 . S
C311 C307 1.387 . S
C311 C310 1.409 . S
C311 H313 0.951 . S
C312 C307 1.491 . S
C312 C314 1.382 . S
C312 C316 1.404 . S
H313 C311 0.951 . S
C314 C312 1.382 . S
C314 C315 1.390 . S
C314 H319 0.949 . S
C315 C314 1.390 . S
C315 C320 1.399 . S
C316 C312 1.404 . S
C316 H317 0.950 . S
C316 C318 1.375 . S
H317 C316 0.950 . S
C318 C316 1.375 . S
C318 C320 1.382 . S
C318 H322 0.950 . S
H319 C314 0.949 . S
C320 C315 1.399 . S
C320 C318 1.382 . S
C320 H321 0.952 . S
H321 C320 0.952 . S
H322 C318 0.950 . S
H323 C324 0.949 . S
C324 H323 0.949 . S
C324 C325 1.395 . S
C324 C326 1.391 . S
C325 C324 1.395 . S
C325 C328 1.390 . S
C326 C324 1.391 . S
C326 C330 1.387 . S
C326 C331 1.491 . S
H327 C328 0.950 . S
C328 C325 1.390 . S
C328 H327 0.950 . S
C328 C329 1.378 . S
C329 C328 1.378 . S
C329 C330 1.409 . S
C330 C326 1.387 . S
C330 C329 1.409 . S
C330 H332 0.951 . S
C331 C326 1.491 . S
C331 C333 1.382 . S
C331 C335 1.404 . S
H332 C330 0.951 . S
C333 C331 1.382 . S
C333 C334 1.390 . S
C333 H338 0.949 . S
C334 C333 1.390 . S
C334 C339 1.399 . S
C335 C331 1.404 . S
C335 H336 0.950 . S
C335 C337 1.375 . S
H336 C335 0.950 . S
C337 C335 1.375 . S
C337 C339 1.382 . S
C337 H341 0.950 . S
H338 C333 0.949 . S
C339 C334 1.399 . S
C339 C337 1.382 . S
C339 H340 0.952 . S
H340 C339 0.952 . S
H341 C337 0.950 . S
Tb342 C352 2.825 1_565 S
Tb342 O353 2.334 1_566 S
Tb342 O356 2.366 1_565 S
Tb342 O361 2.418 . S
Tb342 O362 2.429 . S
Tb342 O365 2.479 . S
Tb342 O366 2.471 1_565 S
Eu343 O354 2.418 . S
Eu343 O355 2.384 . S
Eu343 O358 2.479 . S
Eu343 O359 2.471 1_545 S
Eu343 O360 2.347 1_545 S
Eu343 O363 2.366 1_545 S
Eu343 C373 2.824 . S
C344 O360 1.259 . S
C344 O361 1.265 1_554 S
C345 O362 1.192 1_554 S
C345 O363 1.265 . S
C346 C348 1.380 . S
C346 C349 1.374 . S
C346 C352 1.507 . S
C347 C348 1.384 . S
C347 C351 1.387 . S
C347 H374 0.930 . S
C348 C346 1.380 . S
C348 C347 1.384 . S
C348 H375 0.931 1_545 S
C349 C346 1.374 . S
C349 C350 1.390 . S
C349 H376 0.930 . S
C350 C349 1.390 . S
C350 C351 1.391 . S
C350 H377 0.930 . S
C351 C347 1.387 . S
C351 C350 1.391 . S
C352 Tb342 2.825 1_545 S
C352 C346 1.507 . S
C352 O365 1.238 1_545 S
C352 O366 1.247 . S
O353 Tb342 2.334 1_544 S
O353 C357 1.271 . S
O354 Eu343 2.418 . S
O354 C357 1.265 . S
O355 Eu343 2.384 . S
O355 C364 1.231 1_554 S
O356 Tb342 2.366 1_545 S
O356 C364 1.281 . S
C357 O353 1.271 . S
C357 O354 1.265 . S
O358 Eu343 2.479 . S
O358 C373 1.234 . S
O359 Eu343 2.471 1_565 S
O359 C373 1.250 1_565 S
O360 Eu343 2.347 1_565 S
O360 C344 1.259 . S
O361 Tb342 2.418 . S
O361 C344 1.265 1_556 S
O362 Tb342 2.429 . S
O362 C345 1.192 1_556 S
O363 Eu343 2.366 1_565 S
O363 C345 1.265 . S
C364 O355 1.231 1_556 S
C364 O356 1.281 . S
O365 Tb342 2.479 . S
O365 C352 1.238 1_565 S
O366 Tb342 2.471 1_545 S
O366 C352 1.247 . S
C367 C370 1.380 1_565 S
C367 C371 1.374 . S
C367 C373 1.508 1_565 S
C368 C369 1.387 . S
C368 C372 1.391 . S
C369 C368 1.387 . S
C369 C370 1.384 1_565 S
C369 H378 0.889 1_565 S
C370 C367 1.380 1_545 S
C370 C369 1.384 1_545 S
C370 H379 0.931 . S
C371 C367 1.374 . S
C371 C372 1.390 . S
C371 H380 0.930 . S
C372 C368 1.391 . S
C372 C371 1.390 . S
C372 H381 0.930 . S
C373 Eu343 2.824 . S
C373 O358 1.234 . S
C373 O359 1.250 1_545 S
C373 C367 1.508 1_545 S
H374 C347 0.930 . S
H375 C348 0.931 1_565 S
H376 C349 0.930 . S
H377 C350 0.930 . S
H378 C369 0.889 1_545 S
H379 C370 0.931 . S
H380 C371 0.930 . S
H381 C372 0.930 . S
Tb382 C392 2.825 1_455 S
Tb382 O393 2.347 1_455 S
Tb382 O396 2.366 1_455 S
Tb382 O401 2.418 . S
Tb382 O402 2.384 1_556 S
Tb382 O405 2.479 . S
Tb382 O406 2.471 1_455 S
Eu383 O394 2.418 . S
Eu383 O395 2.384 . S
Eu383 O398 2.479 . S
Eu383 O399 2.471 1_655 S
Eu383 O400 2.347 1_655 S
Eu383 O403 2.366 1_655 S
Eu383 C413 2.825 1_655 S
C384 O400 1.259 . S
C384 O401 1.265 1_554 S
C385 O402 1.255 . S
C385 O403 1.265 . S
C386 C388 1.380 . S
C386 C389 1.374 . S
C386 C392 1.507 . S
C387 C388 1.384 . S
C387 C391 1.387 . S
C387 H414 0.930 . S
C388 C386 1.380 . S
C388 C387 1.384 . S
C388 H415 0.931 1_655 S
C389 C386 1.374 . S
C389 C390 1.390 . S
C389 H416 0.930 . S
C390 C389 1.390 . S
C390 C391 1.391 . S
C390 H417 0.930 . S
C391 C387 1.387 . S
C391 C390 1.391 . S
C392 Tb382 2.825 1_655 S
C392 C386 1.507 . S
C392 O405 1.238 1_655 S
C392 O406 1.247 . S
O393 Tb382 2.347 1_655 S
O393 C397 1.259 1_556 S
O394 Eu383 2.418 . S
O394 C397 1.265 . S
O395 Eu383 2.384 . S
O395 C404 1.255 1_554 S
O396 Tb382 2.366 1_655 S
O396 C404 1.265 . S
C397 O393 1.259 1_554 S
C397 O394 1.265 . S
O398 Eu383 2.479 . S
O398 C413 1.238 1_655 S
O399 Eu383 2.471 1_455 S
O399 C413 1.247 . S
O400 Eu383 2.347 1_455 S
O400 C384 1.259 . S
O401 Tb382 2.418 . S
O401 C384 1.265 1_556 S
O402 Tb382 2.384 1_554 S
O402 C385 1.255 . S
O403 Eu383 2.366 1_455 S
O403 C385 1.265 . S
C404 O395 1.255 1_556 S
C404 O396 1.265 . S
O405 Tb382 2.479 . S
O405 C392 1.238 1_455 S
O406 Tb382 2.471 1_655 S
O406 C392 1.247 . S
C407 C410 1.380 . S
C407 C411 1.374 . S
C407 C413 1.507 . S
C408 C409 1.387 . S
C408 C412 1.391 . S
C409 C408 1.387 . S
C409 C410 1.384 . S
C409 H418 0.930 . S
C410 C407 1.380 . S
C410 C409 1.384 . S
C410 H419 0.931 1_455 S
C411 C407 1.374 . S
C411 C412 1.390 . S
C411 H420 0.930 . S
C412 C408 1.391 . S
C412 C411 1.390 . S
C412 H421 0.930 . S
C413 Eu383 2.825 1_455 S
C413 O398 1.238 1_455 S
C413 O399 1.247 . S
C413 C407 1.507 . S
H414 C387 0.930 . S
H415 C388 0.931 1_455 S
H416 C389 0.930 . S
H417 C390 0.930 . S
H418 C409 0.930 . S
H419 C410 0.931 1_655 S
H420 C411 0.930 . S
H421 C412 0.930 . S
Tb422 C432 2.825 . S
Tb422 O433 2.347 . S
Tb422 O436 2.366 . S
Tb422 O441 2.418 . S
Tb422 O442 2.384 . S
Tb422 O445 2.479 . S
Tb422 O446 2.471 . S
Eu423 O434 2.428 . S
Eu423 O435 2.384 1_556 S
Eu423 O438 2.479 . S
Eu423 O439 2.471 . S
Eu423 O440 2.347 1_556 S
Eu423 O443 2.366 . S
Eu423 C453 2.825 . S
C424 O440 1.259 . S
C424 O441 1.265 . S
C425 O442 1.255 . S
C425 O443 1.265 1_554 S
C426 C428 1.380 . S
C426 C429 1.374 . S
C426 C432 1.507 . S
C427 C428 1.384 . S
C427 C431 1.387 . S
C427 H454 0.930 . S
C428 C426 1.380 . S
C428 C427 1.384 . S
C428 H455 0.931 . S
C429 C426 1.374 . S
C429 C430 1.390 . S
C429 H456 0.930 . S
C430 C429 1.390 . S
C430 C431 1.391 . S
C430 H457 0.930 . S
C431 C427 1.387 . S
C431 C430 1.391 . S
C432 Tb422 2.825 . S
C432 C426 1.507 . S
C432 O445 1.238 . S
C432 O446 1.247 . S
O433 Tb422 2.347 . S
O433 C437 1.259 . S
O434 Eu423 2.428 . S
O434 C437 1.205 1_556 S
O435 Eu423 2.384 1_554 S
O435 C444 1.255 . S
O436 Tb422 2.366 . S
O436 C444 1.265 . S
C437 O433 1.259 . S
C437 O434 1.205 1_554 S
O438 Eu423 2.479 . S
O438 C453 1.238 . S
O439 Eu423 2.471 . S
O439 C453 1.247 . S
O440 Eu423 2.347 1_554 S
O440 C424 1.259 . S
O441 Tb422 2.418 . S
O441 C424 1.265 . S
O442 Tb422 2.384 . S
O442 C425 1.255 . S
O443 Eu423 2.366 . S
O443 C425 1.265 1_556 S
C444 O435 1.255 . S
C444 O436 1.265 . S
O445 Tb422 2.479 . S
O445 C432 1.238 . S
O446 Tb422 2.471 . S
O446 C432 1.247 . S
C447 C450 1.380 . S
C447 C451 1.374 . S
C447 C453 1.507 . S
C448 C449 1.387 . S
C448 C452 1.391 . S
C449 C448 1.387 . S
C449 C450 1.384 . S
C449 H458 0.930 . S
C450 C447 1.380 . S
C450 C449 1.384 . S
C450 H459 0.931 . S
C451 C447 1.374 . S
C451 C452 1.390 . S
C451 H460 0.930 . S
C452 C448 1.391 . S
C452 C451 1.390 . S
C452 H461 0.930 . S
C453 Eu423 2.825 . S
C453 O438 1.238 . S
C453 O439 1.247 . S
C453 C447 1.507 . S
H454 C427 0.930 . S
H455 C428 0.931 . S
H456 C429 0.930 . S
H457 C430 0.930 . S
H458 C449 0.930 . S
H459 C450 0.931 . S
H460 C451 0.930 . S
H461 C452 0.930 . S
Tb462 C472 2.825 . S
Tb462 O473 2.347 . S
Tb462 O476 2.366 . S
Tb462 O481 2.418 . S
Tb462 O482 2.384 . S
Tb462 O485 2.479 . S
Tb462 O486 2.471 . S
Eu463 O474 2.418 . S
Eu463 O475 2.384 . S
Eu463 O478 2.479 . S
Eu463 O479 2.471 . S
Eu463 O480 2.347 . S
Eu463 O483 2.366 . S
Eu463 C493 2.825 . S
C464 O480 1.259 . S
C464 O481 1.265 . S
C465 O482 1.255 . S
C465 O483 1.265 . S
C466 C468 1.380 . S
C466 C469 1.374 . S
C466 C472 1.507 . S
C467 C468 1.384 . S
C467 C471 1.387 . S
C467 H494 0.930 . S
C468 C466 1.380 . S
C468 C467 1.384 . S
C468 H495 0.931 . S
C469 C466 1.374 . S
C469 C470 1.390 . S
C469 H496 0.930 . S
C470 C469 1.390 . S
C470 C471 1.391 . S
C470 H497 0.930 . S
C471 C467 1.387 . S
C471 C470 1.391 . S
C472 Tb462 2.825 . S
C472 C466 1.507 . S
C472 O485 1.238 . S
C472 O486 1.247 . S
O473 Tb462 2.347 . S
O473 C477 1.259 . S
O474 Eu463 2.418 . S
O474 C477 1.265 . S
O475 Eu463 2.384 . S
O475 C484 1.255 . S
O476 Tb462 2.366 . S
O476 C484 1.265 . S
C477 O473 1.259 . S
C477 O474 1.265 . S
O478 Eu463 2.479 . S
O478 C493 1.238 . S
O479 Eu463 2.471 . S
O479 C493 1.247 . S
O480 Eu463 2.347 . S
O480 C464 1.259 . S
O481 Tb462 2.418 . S
O481 C464 1.265 . S
O482 Tb462 2.384 . S
O482 C465 1.255 . S
O483 Eu463 2.366 . S
O483 C465 1.265 . S
C484 O475 1.255 . S
C484 O476 1.265 . S
O485 Tb462 2.479 . S
O485 C472 1.238 . S
O486 Tb462 2.471 . S
O486 C472 1.247 . S
C487 C490 1.380 . S
C487 C491 1.374 . S
C487 C493 1.507 . S
C488 C489 1.387 . S
C488 C492 1.391 . S
C489 C488 1.387 . S
C489 C490 1.384 . S
C489 H498 0.930 . S
C490 C487 1.380 . S
C490 C489 1.384 . S
C490 H499 0.931 . S
C491 C487 1.374 . S
C491 C492 1.390 . S
C491 H500 0.930 . S
C492 C488 1.391 . S
C492 C491 1.390 . S
C492 H501 0.930 . S
C493 Eu463 2.825 . S
C493 O478 1.238 . S
C493 O479 1.247 . S
C493 C487 1.507 . S
H494 C467 0.930 . S
H495 C468 0.931 . S
H496 C469 0.930 . S
H497 C470 0.930 . S
H498 C489 0.930 . S
H499 C490 0.931 . S
H500 C491 0.930 . S
H501 C492 0.930 . S
Tb502 C512 2.825 . S
Tb502 O513 2.347 . S
Tb502 O516 2.366 . S
Tb502 O521 2.418 . S
Tb502 O522 2.384 . S
Tb502 O525 2.479 . S
Tb502 O526 2.471 . S
Eu503 O514 2.418 . S
Eu503 O515 2.384 . S
Eu503 O518 2.479 . S
Eu503 O519 2.471 . S
Eu503 O520 2.347 . S
Eu503 O523 2.366 . S
Eu503 C533 2.825 . S
C504 O520 1.259 . S
C504 O521 1.265 . S
C505 O522 1.255 . S
C505 O523 1.265 . S
C506 C508 1.380 . S
C506 C509 1.374 . S
C506 C512 1.507 . S
C507 C508 1.384 . S
C507 C511 1.387 . S
C507 H534 0.930 . S
C508 C506 1.380 . S
C508 C507 1.384 . S
C508 H535 0.931 . S
C509 C506 1.374 . S
C509 C510 1.390 . S
C509 H536 0.930 . S
C510 C509 1.390 . S
C510 C511 1.391 . S
C510 H537 0.930 . S
C511 C507 1.387 . S
C511 C510 1.391 . S
C512 Tb502 2.825 . S
C512 C506 1.507 . S
C512 O525 1.238 . S
C512 O526 1.247 . S
O513 Tb502 2.347 . S
O513 C517 1.259 . S
O514 Eu503 2.418 . S
O514 C517 1.265 . S
O515 Eu503 2.384 . S
O515 C524 1.255 . S
O516 Tb502 2.366 . S
O516 C524 1.265 . S
C517 O513 1.259 . S
C517 O514 1.265 . S
O518 Eu503 2.479 . S
O518 C533 1.238 . S
O519 Eu503 2.471 . S
O519 C533 1.247 . S
O520 Eu503 2.347 . S
O520 C504 1.259 . S
O521 Tb502 2.418 . S
O521 C504 1.265 . S
O522 Tb502 2.384 . S
O522 C505 1.255 . S
O523 Eu503 2.366 . S
O523 C505 1.265 . S
C524 O515 1.255 . S
C524 O516 1.265 . S
O525 Tb502 2.479 . S
O525 C512 1.238 . S
O526 Tb502 2.471 . S
O526 C512 1.247 . S
C527 C530 1.380 . S
C527 C531 1.374 . S
C527 C533 1.507 . S
C528 C529 1.387 . S
C528 C532 1.391 . S
C529 C528 1.387 . S
C529 C530 1.384 . S
C529 H538 0.930 . S
C530 C527 1.380 . S
C530 C529 1.384 . S
C530 H539 0.931 . S
C531 C527 1.374 . S
C531 C532 1.390 . S
C531 H540 0.930 . S
C532 C528 1.391 . S
C532 C531 1.390 . S
C532 H541 0.930 . S
C533 Eu503 2.825 . S
C533 O518 1.238 . S
C533 O519 1.247 . S
C533 C527 1.507 . S
H534 C507 0.930 . S
H535 C508 0.931 . S
H536 C509 0.930 . S
H537 C510 0.930 . S
H538 C529 0.930 . S
H539 C530 0.931 . S
H540 C531 0.930 . S
H541 C532 0.930 . S
Tb542 C552 2.825 . S
Tb542 O553 2.347 . S
Tb542 O556 2.366 . S
Tb542 O561 2.418 . S
Tb542 O562 2.384 . S
Tb542 O565 2.479 . S
Tb542 O566 2.471 . S
Eu543 O554 2.418 . S
Eu543 O555 2.384 . S
Eu543 O558 2.479 . S
Eu543 O559 2.471 . S
Eu543 O560 2.347 . S
Eu543 O563 2.366 . S
Eu543 C573 2.825 . S
C544 O560 1.259 . S
C544 O561 1.265 . S
C545 O562 1.255 . S
C545 O563 1.265 . S
C546 C548 1.380 . S
C546 C549 1.374 . S
C546 C552 1.507 . S
C547 C548 1.384 . S
C547 C551 1.387 . S
C547 H574 0.930 . S
C548 C546 1.380 . S
C548 C547 1.384 . S
C548 H575 0.931 . S
C549 C546 1.374 . S
C549 C550 1.390 . S
C549 H576 0.930 . S
C550 C549 1.390 . S
C550 C551 1.391 . S
C550 H577 0.930 . S
C551 C547 1.387 . S
C551 C550 1.391 . S
C552 Tb542 2.825 . S
C552 C546 1.507 . S
C552 O565 1.238 . S
C552 O566 1.247 . S
O553 Tb542 2.347 . S
O553 C557 1.259 . S
O554 Eu543 2.418 . S
O554 C557 1.265 . S
O555 Eu543 2.384 . S
O555 C564 1.255 . S
O556 Tb542 2.366 . S
O556 C564 1.265 . S
C557 O553 1.259 . S
C557 O554 1.265 . S
O558 Eu543 2.479 . S
O558 C573 1.238 . S
O559 Eu543 2.471 . S
O559 C573 1.247 . S
O560 Eu543 2.347 . S
O560 C544 1.259 . S
O561 Tb542 2.418 . S
O561 C544 1.265 . S
O562 Tb542 2.384 . S
O562 C545 1.255 . S
O563 Eu543 2.366 . S
O563 C545 1.265 . S
C564 O555 1.255 . S
C564 O556 1.265 . S
O565 Tb542 2.479 . S
O565 C552 1.238 . S
O566 Tb542 2.471 . S
O566 C552 1.247 . S
C567 C570 1.380 . S
C567 C571 1.374 . S
C567 C573 1.507 . S
C568 C569 1.387 . S
C568 C572 1.391 . S
C569 C568 1.387 . S
C569 C570 1.384 . S
C569 H578 0.930 . S
C570 C567 1.380 . S
C570 C569 1.384 . S
C570 H579 0.931 . S
C571 C567 1.374 . S
C571 C572 1.390 . S
C571 H580 0.930 . S
C572 C568 1.391 . S
C572 C571 1.390 . S
C572 H581 0.930 . S
C573 Eu543 2.825 . S
C573 O558 1.238 . S
C573 O559 1.247 . S
C573 C567 1.507 . S
H574 C547 0.930 . S
H575 C548 0.931 . S
H576 C549 0.930 . S
H577 C550 0.930 . S
H578 C569 0.930 . S
H579 C570 0.931 . S
H580 C571 0.930 . S
H581 C572 0.930 . S
Tb582 C592 2.825 . S
Tb582 O593 2.347 . S
Tb582 O596 2.366 . S
Tb582 O601 2.418 . S
Tb582 O602 2.384 . S
Tb582 O605 2.479 . S
Tb582 O606 2.471 . S
Eu583 O594 2.418 . S
Eu583 O595 2.384 . S
Eu583 O598 2.479 . S
Eu583 O599 2.471 . S
Eu583 O600 2.347 . S
Eu583 O603 2.366 . S
Eu583 C613 2.825 . S
C584 O600 1.259 . S
C584 O601 1.265 . S
C585 O602 1.255 . S
C585 O603 1.265 . S
C586 C588 1.380 . S
C586 C589 1.374 . S
C586 C592 1.507 . S
C587 C588 1.384 . S
C587 C591 1.387 . S
C587 H614 0.930 . S
C588 C586 1.380 . S
C588 C587 1.384 . S
C588 H615 0.931 . S
C589 C586 1.374 . S
C589 C590 1.390 . S
C589 H616 0.930 . S
C590 C589 1.390 . S
C590 C591 1.391 . S
C590 H617 0.930 . S
C591 C587 1.387 . S
C591 C590 1.391 . S
C592 Tb582 2.825 . S
C592 C586 1.507 . S
C592 O605 1.238 . S
C592 O606 1.247 . S
O593 Tb582 2.347 . S
O593 C597 1.259 . S
O594 Eu583 2.418 . S
O594 C597 1.265 . S
O595 Eu583 2.384 . S
O595 C604 1.255 . S
O596 Tb582 2.366 . S
O596 C604 1.265 . S
C597 O593 1.259 . S
C597 O594 1.265 . S
O598 Eu583 2.479 . S
O598 C613 1.238 . S
O599 Eu583 2.471 . S
O599 C613 1.247 . S
O600 Eu583 2.347 . S
O600 C584 1.259 . S
O601 Tb582 2.418 . S
O601 C584 1.265 . S
O602 Tb582 2.384 . S
O602 C585 1.255 . S
O603 Eu583 2.366 . S
O603 C585 1.265 . S
C604 O595 1.255 . S
C604 O596 1.265 . S
O605 Tb582 2.479 . S
O605 C592 1.238 . S
O606 Tb582 2.471 . S
O606 C592 1.247 . S
C607 C610 1.380 . S
C607 C611 1.374 . S
C607 C613 1.507 . S
C608 C609 1.387 . S
C608 C612 1.391 . S
C609 C608 1.387 . S
C609 C610 1.384 . S
C609 H618 0.930 . S
C610 C607 1.380 . S
C610 C609 1.384 . S
C610 H619 0.931 . S
C611 C607 1.374 . S
C611 C612 1.390 . S
C611 H620 0.930 . S
C612 C608 1.391 . S
C612 C611 1.390 . S
C612 H621 0.930 . S
C613 Eu583 2.825 . S
C613 O598 1.238 . S
C613 O599 1.247 . S
C613 C607 1.507 . S
H614 C587 0.930 . S
H615 C588 0.931 . S
H616 C589 0.930 . S
H617 C590 0.930 . S
H618 C609 0.930 . S
H619 C610 0.931 . S
H620 C611 0.930 . S
H621 C612 0.930 . S
Tb622 C632 2.825 . S
Tb622 O633 2.347 . S
Tb622 O636 2.366 . S
Tb622 O641 2.418 . S
Tb622 O642 2.384 . S
Tb622 O645 2.479 . S
Tb622 O646 2.471 . S
Eu623 O634 2.418 . S
Eu623 O635 2.384 . S
Eu623 O638 2.479 . S
Eu623 O639 2.471 . S
Eu623 O640 2.347 . S
Eu623 O643 2.366 . S
Eu623 C653 2.825 . S
C624 O640 1.259 . S
C624 O641 1.265 . S
C625 O642 1.255 . S
C625 O643 1.265 . S
C626 C628 1.380 . S
C626 C629 1.374 . S
C626 C632 1.507 . S
C627 C628 1.384 . S
C627 C631 1.387 . S
C627 H654 0.930 . S
C628 C626 1.380 . S
C628 C627 1.384 . S
C628 H655 0.931 . S
C629 C626 1.374 . S
C629 C630 1.390 . S
C629 H656 0.930 . S
C630 C629 1.390 . S
C630 C631 1.391 . S
C630 H657 0.930 . S
C631 C627 1.387 . S
C631 C630 1.391 . S
C632 Tb622 2.825 . S
C632 C626 1.507 . S
C632 O645 1.238 . S
C632 O646 1.247 . S
O633 Tb622 2.347 . S
O633 C637 1.259 . S
O634 Eu623 2.418 . S
O634 C637 1.265 . S
O635 Eu623 2.384 . S
O635 C644 1.255 . S
O636 Tb622 2.366 . S
O636 C644 1.265 . S
C637 O633 1.259 . S
C637 O634 1.265 . S
O638 Eu623 2.479 . S
O638 C653 1.238 . S
O639 Eu623 2.471 . S
O639 C653 1.247 . S
O640 Eu623 2.347 . S
O640 C624 1.259 . S
O641 Tb622 2.418 . S
O641 C624 1.265 . S
O642 Tb622 2.384 . S
O642 C625 1.255 . S
O643 Eu623 2.366 . S
O643 C625 1.265 . S
C644 O635 1.255 . S
C644 O636 1.265 . S
O645 Tb622 2.479 . S
O645 C632 1.238 . S
O646 Tb622 2.471 . S
O646 C632 1.247 . S
C647 C650 1.380 . S
C647 C651 1.374 . S
C647 C653 1.507 . S
C648 C649 1.387 . S
C648 C652 1.391 . S
C649 C648 1.387 . S
C649 C650 1.384 . S
C649 H658 0.930 . S
C650 C647 1.380 . S
C650 C649 1.384 . S
C650 H659 0.931 . S
C651 C647 1.374 . S
C651 C652 1.390 . S
C651 H660 0.930 . S
C652 C648 1.391 . S
C652 C651 1.390 . S
C652 H661 0.930 . S
C653 Eu623 2.825 . S
C653 O638 1.238 . S
C653 O639 1.247 . S
C653 C647 1.507 . S
H654 C627 0.930 . S
H655 C628 0.931 . S
H656 C629 0.930 . S
H657 C630 0.930 . S
H658 C649 0.930 . S
H659 C650 0.931 . S
H660 C651 0.930 . S
H661 C652 0.930 . S
Tb662 C672 2.825 . S
Tb662 O673 2.347 . S
Tb662 O676 2.366 . S
Tb662 O681 2.418 . S
Tb662 O682 2.384 . S
Tb662 O685 2.479 . S
Tb662 O686 2.471 . S
Eu663 O674 2.418 . S
Eu663 O675 2.384 . S
Eu663 O678 2.479 . S
Eu663 O679 2.471 . S
Eu663 O680 2.347 . S
Eu663 O683 2.366 . S
Eu663 C693 2.825 . S
C664 O680 1.259 . S
C664 O681 1.265 . S
C665 O682 1.255 . S
C665 O683 1.265 . S
C666 C668 1.380 . S
C666 C669 1.374 . S
C666 C672 1.507 . S
C667 C668 1.384 . S
C667 C671 1.387 . S
C667 H694 0.930 . S
C668 C666 1.380 . S
C668 C667 1.384 . S
C668 H695 0.931 . S
C669 C666 1.374 . S
C669 C670 1.390 . S
C669 H696 0.930 . S
C670 C669 1.390 . S
C670 C671 1.391 . S
C670 H697 0.930 . S
C671 C667 1.387 . S
C671 C670 1.391 . S
C672 Tb662 2.825 . S
C672 C666 1.507 . S
C672 O685 1.238 . S
C672 O686 1.247 . S
O673 Tb662 2.347 . S
O673 C677 1.259 . S
O674 Eu663 2.418 . S
O674 C677 1.265 . S
O675 Eu663 2.384 . S
O675 C684 1.255 . S
O676 Tb662 2.366 . S
O676 C684 1.265 . S
C677 O673 1.259 . S
C677 O674 1.265 . S
O678 Eu663 2.479 . S
O678 C693 1.238 . S
O679 Eu663 2.471 . S
O679 C693 1.247 . S
O680 Eu663 2.347 . S
O680 C664 1.259 . S
O681 Tb662 2.418 . S
O681 C664 1.265 . S
O682 Tb662 2.384 . S
O682 C665 1.255 . S
O683 Eu663 2.366 . S
O683 C665 1.265 . S
C684 O675 1.255 . S
C684 O676 1.265 . S
O685 Tb662 2.479 . S
O685 C672 1.238 . S
O686 Tb662 2.471 . S
O686 C672 1.247 . S
C687 C690 1.380 . S
C687 C691 1.374 . S
C687 C693 1.507 . S
C688 C689 1.387 . S
C688 C692 1.391 . S
C689 C688 1.387 . S
C689 C690 1.384 . S
C689 H698 0.930 . S
C690 C687 1.380 . S
C690 C689 1.384 . S
C690 H699 0.931 . S
C691 C687 1.374 . S
C691 C692 1.390 . S
C691 H700 0.930 . S
C692 C688 1.391 . S
C692 C691 1.390 . S
C692 H701 0.930 . S
C693 Eu663 2.825 . S
C693 O678 1.238 . S
C693 O679 1.247 . S
C693 C687 1.507 . S
H694 C667 0.930 . S
H695 C668 0.931 . S
H696 C669 0.930 . S
H697 C670 0.930 . S
H698 C689 0.930 . S
H699 C690 0.931 . S
H700 C691 0.930 . S
H701 C692 0.930 . S
C702 C703 1.349 . S
C702 C704 1.327 . S
C702 H727 0.950 . S
C703 C702 1.349 . S
C703 C719 1.349 . S
C704 C702 1.327 . S
C704 C723 1.429 . S
C704 H728 0.950 . S
C705 C722 1.574 . S
C705 C724 1.368 . S
C705 H729 0.949 . S
H706 C710 0.949 . S
C707 C708 1.349 . S
C707 C709 1.327 . S
C707 H730 0.950 1_554 S
C708 C707 1.349 . S
C708 C720 1.349 . S
C709 C707 1.327 . S
C709 C725 1.429 . S
C709 H731 0.950 . S
C710 H706 0.949 . S
C710 C718 1.574 . S
C710 C726 1.368 . S
H711 C719 0.950 . S
H712 C717 0.950 . S
H713 C718 0.949 . S
H714 C720 0.950 . S
H715 C721 0.950 . S
H716 C722 0.949 . S
C717 H712 0.950 . S
C717 C719 1.327 . S
C717 C723 1.429 . S
C718 C710 1.574 . S
C718 H713 0.949 . S
C718 C724 1.368 . S
C719 C703 1.349 . S
C719 H711 0.950 . S
C719 C717 1.327 . S
C720 C708 1.349 . S
C720 H714 0.950 . S
C720 C721 1.327 . S
C721 H715 0.950 . S
C721 C720 1.327 . S
C721 C725 1.429 . S
C722 C705 1.574 . S
C722 H716 0.949 . S
C722 C726 1.368 . S
C723 C704 1.429 . S
C723 C717 1.429 . S
C723 C724 1.523 . S
C724 C705 1.368 . S
C724 C718 1.368 . S
C724 C723 1.523 . S
C725 C709 1.429 . S
C725 C721 1.429 . S
C725 C726 1.523 . S
C726 C710 1.368 . S
C726 C722 1.368 . S
C726 C725 1.523 . S
H727 C702 0.950 . S
H728 C704 0.950 . S
H729 C705 0.949 . S
H730 C707 0.950 1_556 S
H731 C709 0.950 . S
C732 C733 1.349 . S
C732 C734 1.327 . S
C732 H757 0.950 . S
C733 C732 1.349 . S
C733 C749 1.349 . S
C734 C732 1.327 . S
C734 C753 1.429 . S
C734 H758 0.950 . S
C735 C752 1.574 . S
C735 C754 1.368 . S
C735 H759 0.949 . S
H736 C740 0.949 . S
C737 C738 1.349 . S
C737 C739 1.327 . S
C737 H760 0.950 . S
C738 C737 1.349 . S
C738 C750 1.349 . S
C739 C737 1.327 . S
C739 C755 1.429 . S
C739 H761 0.950 . S
C740 H736 0.949 . S
C740 C748 1.574 . S
C740 C756 1.368 . S
H741 C749 0.950 . S
H742 C747 0.950 . S
H743 C748 0.949 . S
H744 C750 0.950 . S
H745 C751 0.950 . S
H746 C752 0.949 . S
C747 H742 0.950 . S
C747 C749 1.327 . S
C747 C753 1.429 . S
C748 C740 1.574 . S
C748 H743 0.949 . S
C748 C754 1.368 . S
C749 C733 1.349 . S
C749 H741 0.950 . S
C749 C747 1.327 . S
C750 C738 1.349 . S
C750 H744 0.950 . S
C750 C751 1.327 . S
C751 H745 0.950 . S
C751 C750 1.327 . S
C751 C755 1.429 . S
C752 C735 1.574 . S
C752 H746 0.949 . S
C752 C756 1.368 . S
C753 C734 1.429 . S
C753 C747 1.429 . S
C753 C754 1.523 . S
C754 C735 1.368 . S
C754 C748 1.368 . S
C754 C753 1.523 . S
C755 C739 1.429 . S
C755 C751 1.429 . S
C755 C756 1.523 . S
C756 C740 1.368 . S
C756 C752 1.368 . S
C756 C755 1.523 . S
H757 C732 0.950 . S
H758 C734 0.950 . S
H759 C735 0.949 . S
H760 C737 0.950 . S
H761 C739 0.950 . S
C762 C763 1.349 . S
C762 C764 1.327 . S
C762 H787 0.950 . S
C763 C762 1.349 . S
C763 C779 1.349 . S
C764 C762 1.327 . S
C764 C783 1.429 . S
C764 H788 0.950 . S
C765 C782 1.574 . S
C765 C784 1.368 . S
C765 H789 0.949 . S
H766 C770 0.949 . S
C767 C768 1.349 . S
C767 C769 1.327 . S
C767 H790 0.950 . S
C768 C767 1.349 . S
C768 C780 1.349 . S
C769 C767 1.327 . S
C769 C785 1.429 . S
C769 H791 0.950 . S
C770 H766 0.949 . S
C770 C778 1.574 . S
C770 C786 1.368 . S
H771 C779 0.950 . S
H772 C777 0.950 . S
H773 C778 0.949 . S
H774 C780 0.950 . S
H775 C781 0.950 . S
H776 C782 0.949 . S
C777 H772 0.950 . S
C777 C779 1.327 . S
C777 C783 1.429 . S
C778 C770 1.574 . S
C778 H773 0.949 . S
C778 C784 1.368 . S
C779 C763 1.349 . S
C779 H771 0.950 . S
C779 C777 1.327 . S
C780 C768 1.349 . S
C780 H774 0.950 . S
C780 C781 1.327 . S
C781 H775 0.950 . S
C781 C780 1.327 . S
C781 C785 1.429 . S
C782 C765 1.574 . S
C782 H776 0.949 . S
C782 C786 1.368 . S
C783 C764 1.429 . S
C783 C777 1.429 . S
C783 C784 1.523 . S
C784 C765 1.368 . S
C784 C778 1.368 . S
C784 C783 1.523 . S
C785 C769 1.429 . S
C785 C781 1.429 . S
C785 C786 1.523 . S
C786 C770 1.368 . S
C786 C782 1.368 . S
C786 C785 1.523 . S
H787 C762 0.950 . S
H788 C764 0.950 . S
H789 C765 0.949 . S
H790 C767 0.950 . S
H791 C769 0.950 . S
C792 C793 1.349 . S
C792 C794 1.327 . S
C792 H817 0.950 . S
C793 C792 1.349 . S
C793 C809 1.349 . S
C794 C792 1.327 . S
C794 C813 1.429 . S
C794 H818 0.950 . S
C795 C812 1.574 . S
C795 C814 1.368 . S
C795 H819 0.949 1_556 S
H796 C800 0.949 . S
C797 C798 1.349 1_554 S
C797 C799 1.327 . S
C797 H820 0.950 . S
C798 C797 1.349 1_556 S
C798 C810 1.349 . S
C799 C797 1.327 . S
C799 C815 1.429 1_554 S
C799 H821 0.950 . S
C800 H796 0.949 . S
C800 C808 1.574 . S
C800 C816 1.368 . S
H801 C809 0.950 . S
H802 C807 0.950 . S
H803 C808 0.949 . S
H804 C810 0.950 . S
H805 C811 0.950 . S
H806 C812 0.949 1_554 S
C807 H802 0.950 . S
C807 C809 1.327 . S
C807 C813 1.429 . S
C808 C800 1.574 . S
C808 H803 0.949 . S
C808 C814 1.368 . S
C809 C793 1.349 . S
C809 H801 0.950 . S
C809 C807 1.327 . S
C810 C798 1.349 . S
C810 H804 0.950 . S
C810 C811 1.327 . S
C811 H805 0.950 . S
C811 C810 1.327 . S
C811 C815 1.429 . S
C812 C795 1.574 . S
C812 H806 0.949 1_556 S
C812 C816 1.368 . S
C813 C794 1.429 . S
C813 C807 1.429 . S
C813 C814 1.523 . S
C814 C795 1.368 . S
C814 C808 1.368 . S
C814 C813 1.523 . S
C815 C799 1.429 1_556 S
C815 C811 1.429 . S
C815 C816 1.523 . S
C816 C800 1.368 . S
C816 C812 1.368 . S
C816 C815 1.523 . S
H817 C792 0.950 . S
H818 C794 0.950 . S
H819 C795 0.949 1_554 S
H820 C797 0.950 . S
H821 C799 0.950 . S
C822 C823 1.349 . S
C822 C824 1.327 . S
C822 H847 0.950 . S
C823 C822 1.349 . S
C823 C839 1.349 . S
C824 C822 1.327 . S
C824 C843 1.429 . S
C824 H848 0.950 . S
C825 C842 1.574 . S
C825 C844 1.368 . S
C825 H849 0.949 . S
H826 C830 0.949 . S
C827 C828 1.341 1_554 S
C827 C829 1.313 1_554 S
C827 H850 0.973 . S
C828 C827 1.341 1_556 S
C828 C840 1.349 . S
C829 C827 1.313 1_556 S
C829 C845 1.429 . S
C829 H851 0.950 . S
C830 H826 0.949 . S
C830 C838 1.574 . S
C830 C846 1.368 . S
H831 C839 0.950 . S
H832 C837 0.950 . S
H833 C838 0.949 . S
H834 C840 0.950 . S
H835 C841 0.950 . S
H836 C842 0.949 . S
C837 H832 0.950 . S
C837 C839 1.327 . S
C837 C843 1.429 . S
C838 C830 1.574 . S
C838 H833 0.949 . S
C838 C844 1.368 . S
C839 C823 1.349 . S
C839 H831 0.950 . S
C839 C837 1.327 . S
C840 C828 1.349 . S
C840 H834 0.950 . S
C840 C841 1.327 . S
C841 H835 0.950 . S
C841 C840 1.327 . S
C841 C845 1.429 . S
C842 C825 1.574 . S
C842 H836 0.949 . S
C842 C846 1.368 . S
C843 C824 1.429 . S
C843 C837 1.429 . S
C843 C844 1.523 . S
C844 C825 1.368 . S
C844 C838 1.368 . S
C844 C843 1.523 . S
C845 C829 1.429 . S
C845 C841 1.429 . S
C845 C846 1.523 . S
C846 C830 1.368 . S
C846 C842 1.368 . S
C846 C845 1.523 . S
H847 C822 0.950 . S
H848 C824 0.950 . S
H849 C825 0.949 . S
H850 C827 0.973 . S
H851 C829 0.950 . S
C852 C853 1.362 . S
C852 C854 1.324 1_556 S
C852 H877 0.940 1_556 S
C853 C852 1.362 . S
C853 C869 1.349 . S
C854 C852 1.324 1_554 S
C854 C873 1.429 1_554 S
C854 H878 0.950 . S
C855 C872 1.574 . S
C855 C874 1.368 . S
C855 H879 0.949 . S
H856 C860 0.949 . S
C857 C858 1.349 1_556 S
C857 C859 1.327 . S
C857 H880 0.950 . S
C858 C857 1.349 1_554 S
C858 C870 1.349 . S
C859 C857 1.327 . S
C859 C875 1.440 . S
C859 H881 0.950 . S
C860 H856 0.949 . S
C860 C868 1.574 . S
C860 C876 1.368 1_554 S
H861 C869 0.950 . S
H862 C867 0.950 . S
H863 C868 0.949 . S
H864 C870 0.950 . S
H865 C871 0.950 . S
H866 C872 0.949 . S
C867 H862 0.950 . S
C867 C869 1.327 . S
C867 C873 1.429 . S
C868 C860 1.574 . S
C868 H863 0.949 . S
C868 C874 1.368 1_554 S
C869 C853 1.349 . S
C869 H861 0.950 . S
C869 C867 1.327 . S
C870 C858 1.349 . S
C870 H864 0.950 . S
C870 C871 1.327 . S
C871 H865 0.950 . S
C871 C870 1.327 . S
C871 C875 1.414 1_554 S
C872 C855 1.574 . S
C872 H866 0.949 . S
C872 C876 1.368 . S
C873 C854 1.429 1_556 S
C873 C867 1.429 . S
C873 C874 1.523 . S
C874 C855 1.368 . S
C874 C868 1.368 1_556 S
C874 C873 1.523 . S
C875 C859 1.440 . S
C875 C871 1.414 1_556 S
C875 C876 1.526 . S
C876 C860 1.368 1_556 S
C876 C872 1.368 . S
C876 C875 1.526 . S
H877 C852 0.940 1_554 S
H878 C854 0.950 . S
H879 C855 0.949 . S
H880 C857 0.950 . S
H881 C859 0.950 . S
C882 C883 1.349 . S
C882 C884 1.327 . S
C882 H907 0.950 . S
C883 C882 1.349 . S
C883 C899 1.349 . S
C884 C882 1.327 . S
C884 C903 1.429 . S
C884 H908 0.950 . S
C885 C902 1.574 . S
C885 C904 1.368 . S
C885 H909 0.949 . S
H886 C890 0.949 1_554 S
C887 C888 1.349 . S
C887 C889 1.327 . S
C887 H910 0.950 . S
C888 C887 1.349 . S
C888 C900 1.349 1_556 S
C889 C887 1.327 . S
C889 C905 1.429 . S
C889 H911 0.950 . S
C890 H886 0.949 1_556 S
C890 C898 1.574 . S
C890 C906 1.368 . S
H891 C899 0.950 . S
H892 C897 0.950 . S
H893 C898 0.949 1_554 S
H894 C900 0.950 . S
H895 C901 0.950 . S
H896 C902 0.949 . S
C897 H892 0.950 . S
C897 C899 1.327 . S
C897 C903 1.429 . S
C898 C890 1.574 . S
C898 H893 0.949 1_556 S
C898 C904 1.368 . S
C899 C883 1.349 . S
C899 H891 0.950 . S
C899 C897 1.327 . S
C900 C888 1.349 1_554 S
C900 H894 0.950 . S
C900 C901 1.327 . S
C901 H895 0.950 . S
C901 C900 1.327 . S
C901 C905 1.429 1_554 S
C902 C885 1.574 . S
C902 H896 0.949 . S
C902 C906 1.368 . S
C903 C884 1.429 . S
C903 C897 1.429 . S
C903 C904 1.523 . S
C904 C885 1.368 . S
C904 C898 1.368 . S
C904 C903 1.523 . S
C905 C889 1.429 . S
C905 C901 1.429 1_556 S
C905 C906 1.523 . S
C906 C890 1.368 . S
C906 C902 1.368 . S
C906 C905 1.523 . S
H907 C882 0.950 . S
H908 C884 0.950 . S
H909 C885 0.949 . S
H910 C887 0.950 . S
H911 C889 0.950 . S
C912 C913 1.349 . S
C912 C914 1.327 . S
C912 H937 0.950 . S
C913 C912 1.349 . S
C913 C929 1.349 . S
C914 C912 1.327 . S
C914 C933 1.429 . S
C914 H938 0.950 . S
C915 C932 1.574 . S
C915 C934 1.368 . S
C915 H939 0.949 . S
H916 C920 0.949 . S
C917 C918 1.349 . S
C917 C919 1.327 . S
C917 H940 0.950 1_556 S
C918 C917 1.349 . S
C918 C930 1.349 . S
C919 C917 1.327 . S
C919 C935 1.429 . S
C919 H941 0.950 . S
C920 H916 0.949 . S
C920 C928 1.574 . S
C920 C936 1.368 . S
H921 C929 0.950 . S
H922 C927 0.950 . S
H923 C928 0.949 . S
H924 C930 0.950 . S
H925 C931 0.950 . S
H926 C932 0.949 . S
C927 H922 0.950 . S
C927 C929 1.327 . S
C927 C933 1.429 . S
C928 C920 1.574 . S
C928 H923 0.949 . S
C928 C934 1.368 . S
C929 C913 1.349 . S
C929 H921 0.950 . S
C929 C927 1.327 . S
C930 C918 1.349 . S
C930 H924 0.950 . S
C930 C931 1.327 . S
C931 H925 0.950 . S
C931 C930 1.327 . S
C931 C935 1.429 . S
C932 C915 1.574 . S
C932 H926 0.949 . S
C932 C936 1.368 . S
C933 C914 1.429 . S
C933 C927 1.429 . S
C933 C934 1.523 . S
C934 C915 1.368 . S
C934 C928 1.368 . S
C934 C933 1.523 . S
C935 C919 1.429 . S
C935 C931 1.429 . S
C935 C936 1.523 . S
C936 C920 1.368 . S
C936 C932 1.368 . S
C936 C935 1.523 . S
H937 C912 0.950 . S
H938 C914 0.950 . S
H939 C915 0.949 . S
H940 C917 0.950 1_554 S
H941 C919 0.950 . S
C942 C943 1.349 1_556 S
C942 C944 1.327 . S
C942 H967 0.950 . S
C943 C942 1.349 1_554 S
C943 C959 1.349 . S
C944 C942 1.327 . S
C944 C963 1.429 1_556 S
C944 H968 0.950 . S
C945 C962 1.574 . S
C945 C964 1.368 . S
C945 H969 0.949 . S
H946 C950 0.949 . S
C947 C948 1.349 . S
C947 C949 1.327 . S
C947 H970 0.950 . S
C948 C947 1.349 . S
C948 C960 1.349 1_554 S
C949 C947 1.327 . S
C949 C965 1.429 . S
C949 H971 0.950 . S
C950 H946 0.949 . S
C950 C958 1.574 . S
C950 C966 1.368 1_556 S
H951 C959 0.950 . S
H952 C957 0.950 . S
H953 C958 0.949 . S
H954 C960 0.950 . S
H955 C961 0.950 . S
H956 C962 0.949 . S
C957 H952 0.950 . S
C957 C959 1.327 . S
C957 C963 1.429 . S
C958 C950 1.574 . S
C958 H953 0.949 . S
C958 C964 1.368 1_556 S
C959 C943 1.349 . S
C959 H951 0.950 . S
C959 C957 1.327 . S
C960 C948 1.349 1_556 S
C960 H954 0.950 . S
C960 C961 1.327 . S
C961 H955 0.950 . S
C961 C960 1.327 . S
C961 C965 1.429 1_556 S
C962 C945 1.574 . S
C962 H956 0.949 . S
C962 C966 1.368 . S
C963 C944 1.429 1_554 S
C963 C957 1.429 . S
C963 C964 1.523 . S
C964 C945 1.368 . S
C964 C958 1.368 1_554 S
C964 C963 1.523 . S
C965 C949 1.429 . S
C965 C961 1.429 1_554 S
C965 C966 1.523 . S
C966 C950 1.368 1_554 S
C966 C962 1.368 . S
C966 C965 1.523 . S
H967 C942 0.950 . S
H968 C944 0.950 . S
H969 C945 0.949 . S
H970 C947 0.950 . S
H971 C949 0.950 . S
C972 C973 1.349 . S
C972 C974 1.327 . S
C972 H997 0.950 . S
C973 C972 1.349 . S
C973 C989 1.349 . S
C974 C972 1.327 . S
C974 C993 1.429 . S
C974 H998 0.950 . S
C975 C992 1.574 . S
C975 C994 1.368 . S
C975 H999 0.949 . S
H976 C980 0.949 . S
C977 C978 1.349 . S
C977 C979 1.327 . S
C977 H1000 0.950 1_554 S
C978 C977 1.349 . S
C978 C990 1.349 . S
C979 C977 1.327 . S
C979 C995 1.429 . S
C979 H1001 0.950 1_554 S
C980 H976 0.949 . S
C980 C988 1.574 . S
C980 C996 1.368 . S
H981 C989 0.950 . S
H982 C987 0.950 . S
H983 C988 0.949 . S
H984 C990 0.950 . S
H985 C991 0.950 . S
H986 C992 0.966 . S
C987 H982 0.950 . S
C987 C989 1.327 . S
C987 C993 1.429 . S
C988 C980 1.574 . S
C988 H983 0.949 . S
C988 C994 1.368 . S
C989 C973 1.349 . S
C989 H981 0.950 . S
C989 C987 1.327 . S
C990 C978 1.349 . S
C990 H984 0.950 . S
C990 C991 1.327 . S
C991 H985 0.950 . S
C991 C990 1.327 . S
C991 C995 1.429 . S
C992 C975 1.574 . S
C992 H986 0.966 . S
C992 C996 1.368 . S
C993 C974 1.429 . S
C993 C987 1.429 . S
C993 C994 1.523 . S
C994 C975 1.368 . S
C994 C988 1.368 . S
C994 C993 1.523 . S
C995 C979 1.429 . S
C995 C991 1.429 . S
C995 C996 1.523 . S
C996 C980 1.368 . S
C996 C992 1.368 . S
C996 C995 1.523 . S
H997 C972 0.950 . S
H998 C974 0.950 . S
H999 C975 0.949 . S
H1000 C977 0.950 1_556 S
H1001 C979 0.950 1_556 S
C1002 C1003 1.349 . S
C1002 C1004 1.327 . S
C1002 H1027 0.950 . S
C1003 C1002 1.349 . S
C1003 C1019 1.349 . S
C1004 C1002 1.327 . S
C1004 C1023 1.429 . S
C1004 H1028 0.950 . S
C1005 C1022 1.574 . S
C1005 C1024 1.368 . S
C1005 H1029 0.949 . S
H1006 C1010 0.949 . S
C1007 C1008 1.349 . S
C1007 C1009 1.327 . S
C1007 H1030 0.950 . S
C1008 C1007 1.349 . S
C1008 C1020 1.349 . S
C1009 C1007 1.327 . S
C1009 C1025 1.429 . S
C1009 H1031 0.950 . S
C1010 H1006 0.949 . S
C1010 C1018 1.574 . S
C1010 C1026 1.368 . S
H1011 C1019 0.950 . S
H1012 C1017 0.950 . S
H1013 C1018 0.949 . S
H1014 C1020 0.950 . S
H1015 C1021 0.950 . S
H1016 C1022 0.949 . S
C1017 H1012 0.950 . S
C1017 C1019 1.327 . S
C1017 C1023 1.429 . S
C1018 C1010 1.574 . S
C1018 H1013 0.949 . S
C1018 C1024 1.368 . S
C1019 C1003 1.349 . S
C1019 H1011 0.950 . S
C1019 C1017 1.327 . S
C1020 C1008 1.349 . S
C1020 H1014 0.950 . S
C1020 C1021 1.327 . S
C1021 H1015 0.950 . S
C1021 C1020 1.327 . S
C1021 C1025 1.429 . S
C1022 C1005 1.574 . S
C1022 H1016 0.949 . S
C1022 C1026 1.368 . S
C1023 C1004 1.429 . S
C1023 C1017 1.429 . S
C1023 C1024 1.523 . S
C1024 C1005 1.368 . S
C1024 C1018 1.368 . S
C1024 C1023 1.523 . S
C1025 C1009 1.429 . S
C1025 C1021 1.429 . S
C1025 C1026 1.523 . S
C1026 C1010 1.368 . S
C1026 C1022 1.368 . S
C1026 C1025 1.523 . S
H1027 C1002 0.950 . S
H1028 C1004 0.950 . S
H1029 C1005 0.949 . S
H1030 C1007 0.950 . S
H1031 C1009 0.950 . S
C1032 C1033 1.349 . S
C1032 C1034 1.327 . S
C1032 H1057 0.955 1_554 S
C1033 C1032 1.349 . S
C1033 C1049 1.349 . S
C1034 C1032 1.327 . S
C1034 C1053 1.429 . S
C1034 H1058 0.950 1_554 S
C1035 C1052 1.574 . S
C1035 C1054 1.368 . S
C1035 H1059 0.949 . S
H1036 C1040 0.907 1_556 S
C1037 C1038 1.349 . S
C1037 C1039 1.327 . S
C1037 H1060 0.950 . S
C1038 C1037 1.349 . S
C1038 C1050 1.349 1_554 S
C1039 C1037 1.327 . S
C1039 C1055 1.429 . S
C1039 H1061 0.950 . S
C1040 H1036 0.907 1_554 S
C1040 C1048 1.579 . S
C1040 C1056 1.410 . S
H1041 C1049 0.950 . S
H1042 C1047 0.950 . S
H1043 C1048 0.949 1_556 S
H1044 C1050 0.950 . S
H1045 C1051 0.950 . S
H1046 C1052 0.949 . S
C1047 H1042 0.950 . S
C1047 C1049 1.327 . S
C1047 C1053 1.429 . S
C1048 C1040 1.579 . S
C1048 H1043 0.949 1_554 S
C1048 C1054 1.368 . S
C1049 C1033 1.349 . S
C1049 H1041 0.950 . S
C1049 C1047 1.327 . S
C1050 C1038 1.349 1_556 S
C1050 H1044 0.950 . S
C1050 C1051 1.327 . S
C1051 H1045 0.950 . S
C1051 C1050 1.327 . S
C1051 C1055 1.429 1_556 S
C1052 C1035 1.574 . S
C1052 H1046 0.949 . S
C1052 C1056 1.368 . S
C1053 C1034 1.429 . S
C1053 C1047 1.429 . S
C1053 C1054 1.523 . S
C1054 C1035 1.368 . S
C1054 C1048 1.368 . S
C1054 C1053 1.523 . S
C1055 C1039 1.429 . S
C1055 C1051 1.429 1_554 S
C1055 C1056 1.523 . S
C1056 C1040 1.410 . S
C1056 C1052 1.368 . S
C1056 C1055 1.523 . S
H1057 C1032 0.955 1_556 S
H1058 C1034 0.950 1_556 S
H1059 C1035 0.949 . S
H1060 C1037 0.950 . S
H1061 C1039 0.950 . S
C1062 C1063 1.349 . S
C1062 C1064 1.327 . S
C1062 H1087 0.950 . S
C1063 C1062 1.349 . S
C1063 C1079 1.349 . S
C1064 C1062 1.327 . S
C1064 C1083 1.429 . S
C1064 H1088 0.950 . S
C1065 C1082 1.574 1_655 S
C1065 C1084 1.368 . S
C1065 H1089 0.949 . S
H1066 C1070 0.946 1_455 S
C1067 C1068 1.349 . S
C1067 C1069 1.327 . S
C1067 H1090 0.950 . S
C1068 C1067 1.349 . S
C1068 C1080 1.349 . S
C1069 C1067 1.327 . S
C1069 C1085 1.429 . S
C1069 H1091 0.950 . S
C1070 H1066 0.946 1_655 S
C1070 C1078 1.574 . S
C1070 C1086 1.368 1_655 S
H1071 C1079 0.950 . S
H1072 C1077 0.950 . S
H1073 C1078 0.949 . S
H1074 C1080 0.950 . S
H1075 C1081 0.950 . S
H1076 C1082 0.949 . S
C1077 H1072 0.950 . S
C1077 C1079 1.327 . S
C1077 C1083 1.429 . S
C1078 C1070 1.574 . S
C1078 H1073 0.949 . S
C1078 C1084 1.368 . S
C1079 C1063 1.349 . S
C1079 H1071 0.950 . S
C1079 C1077 1.327 . S
C1080 C1068 1.349 . S
C1080 H1074 0.950 . S
C1080 C1081 1.327 . S
C1081 H1075 0.950 . S
C1081 C1080 1.327 . S
C1081 C1085 1.429 . S
C1082 C1065 1.574 1_455 S
C1082 H1076 0.949 . S
C1082 C1086 1.368 . S
C1083 C1064 1.429 . S
C1083 C1077 1.429 . S
C1083 C1084 1.523 . S
C1084 C1065 1.368 . S
C1084 C1078 1.368 . S
C1084 C1083 1.523 . S
C1085 C1069 1.429 . S
C1085 C1081 1.429 . S
C1085 C1086 1.523 . S
C1086 C1070 1.368 1_455 S
C1086 C1082 1.368 . S
C1086 C1085 1.523 . S
H1087 C1062 0.950 . S
H1088 C1064 0.950 . S
H1089 C1065 0.949 . S
H1090 C1067 0.950 . S
H1091 C1069 0.950 . S
C1092 C1093 1.349 . S
C1092 C1094 1.327 . S
C1092 H1117 0.950 . S
C1093 C1092 1.349 . S
C1093 C1109 1.349 . S
C1094 C1092 1.327 . S
C1094 C1113 1.429 . S
C1094 H1118 0.950 . S
C1095 C1112 1.574 . S
C1095 C1114 1.368 . S
C1095 H1119 0.949 . S
H1096 C1100 0.949 . S
C1097 C1098 1.349 . S
C1097 C1099 1.327 . S
C1097 H1120 0.950 . S
C1098 C1097 1.349 . S
C1098 C1110 1.349 . S
C1099 C1097 1.327 . S
C1099 C1115 1.429 . S
C1099 H1121 0.950 . S
C1100 H1096 0.949 . S
C1100 C1108 1.574 . S
C1100 C1116 1.368 . S
H1101 C1109 0.950 . S
H1102 C1107 0.950 . S
H1103 C1108 0.949 . S
H1104 C1110 0.950 . S
H1105 C1111 0.950 . S
H1106 C1112 0.949 . S
C1107 H1102 0.950 . S
C1107 C1109 1.327 . S
C1107 C1113 1.429 . S
C1108 C1100 1.574 . S
C1108 H1103 0.949 . S
C1108 C1114 1.368 . S
C1109 C1093 1.349 . S
C1109 H1101 0.950 . S
C1109 C1107 1.327 . S
C1110 C1098 1.349 . S
C1110 H1104 0.950 . S
C1110 C1111 1.327 . S
C1111 H1105 0.950 . S
C1111 C1110 1.327 . S
C1111 C1115 1.429 . S
C1112 C1095 1.574 . S
C1112 H1106 0.949 . S
C1112 C1116 1.368 . S
C1113 C1094 1.429 . S
C1113 C1107 1.429 . S
C1113 C1114 1.523 . S
C1114 C1095 1.368 . S
C1114 C1108 1.368 . S
C1114 C1113 1.523 . S
C1115 C1099 1.429 . S
C1115 C1111 1.429 . S
C1115 C1116 1.523 . S
C1116 C1100 1.368 . S
C1116 C1112 1.368 . S
C1116 C1115 1.523 . S
H1117 C1092 0.950 . S
H1118 C1094 0.950 . S
H1119 C1095 0.949 . S
H1120 C1097 0.950 . S
H1121 C1099 0.950 . S
C1122 C1123 1.349 . S
C1122 C1124 1.327 . S
C1122 H1147 0.950 . S
C1123 C1122 1.349 . S
C1123 C1139 1.349 . S
C1124 C1122 1.327 . S
C1124 C1143 1.429 . S
C1124 H1148 0.950 . S
C1125 C1142 1.574 . S
C1125 C1144 1.368 . S
C1125 H1149 0.949 . S
H1126 C1130 0.949 . S
C1127 C1128 1.349 . S
C1127 C1129 1.327 . S
C1127 H1150 0.950 . S
C1128 C1127 1.349 . S
C1128 C1140 1.349 . S
C1129 C1127 1.327 . S
C1129 C1145 1.429 . S
C1129 H1151 0.950 . S
C1130 H1126 0.949 . S
C1130 C1138 1.574 . S
C1130 C1146 1.368 . S
H1131 C1139 0.950 . S
H1132 C1137 0.950 . S
H1133 C1138 0.949 . S
H1134 C1140 0.950 . S
H1135 C1141 0.950 . S
H1136 C1142 0.949 1_565 S
C1137 H1132 0.950 . S
C1137 C1139 1.327 . S
C1137 C1143 1.429 . S
C1138 C1130 1.574 . S
C1138 H1133 0.949 . S
C1138 C1144 1.368 . S
C1139 C1123 1.349 . S
C1139 H1131 0.950 . S
C1139 C1137 1.327 . S
C1140 C1128 1.349 . S
C1140 H1134 0.950 . S
C1140 C1141 1.327 . S
C1141 H1135 0.950 . S
C1141 C1140 1.327 . S
C1141 C1145 1.429 . S
C1142 C1125 1.574 . S
C1142 H1136 0.949 1_545 S
C1142 C1146 1.368 . S
C1143 C1124 1.429 . S
C1143 C1137 1.429 . S
C1143 C1144 1.523 . S
C1144 C1125 1.368 . S
C1144 C1138 1.368 . S
C1144 C1143 1.523 . S
C1145 C1129 1.429 . S
C1145 C1141 1.429 . S
C1145 C1146 1.523 1_565 S
C1146 C1130 1.368 . S
C1146 C1142 1.368 . S
C1146 C1145 1.523 1_545 S
H1147 C1122 0.950 . S
H1148 C1124 0.950 . S
H1149 C1125 0.949 . S
H1150 C1127 0.950 . S
H1151 C1129 0.950 . S
C1152 C1153 1.349 . S
C1152 C1154 1.327 . S
C1152 H1177 0.950 . S
C1153 C1152 1.349 . S
C1153 C1169 1.349 . S
C1154 C1152 1.327 . S
C1154 C1173 1.429 . S
C1154 H1178 0.950 . S
C1155 C1172 1.574 . S
C1155 C1174 1.368 . S
C1155 H1179 0.949 . S
H1156 C1160 0.949 . S
C1157 C1158 1.349 . S
C1157 C1159 1.327 . S
C1157 H1180 0.950 . S
C1158 C1157 1.349 . S
C1158 C1170 1.349 . S
C1159 C1157 1.327 . S
C1159 C1175 1.429 . S
C1159 H1181 0.950 . S
C1160 H1156 0.949 . S
C1160 C1168 1.574 . S
C1160 C1176 1.368 . S
H1161 C1169 0.950 . S
H1162 C1167 0.950 . S
H1163 C1168 0.949 . S
H1164 C1170 0.950 . S
H1165 C1171 0.950 . S
H1166 C1172 0.949 . S
C1167 H1162 0.950 . S
C1167 C1169 1.327 . S
C1167 C1173 1.429 . S
C1168 C1160 1.574 . S
C1168 H1163 0.949 . S
C1168 C1174 1.368 . S
C1169 C1153 1.349 . S
C1169 H1161 0.950 . S
C1169 C1167 1.327 . S
C1170 C1158 1.349 . S
C1170 H1164 0.950 . S
C1170 C1171 1.327 . S
C1171 H1165 0.950 . S
C1171 C1170 1.327 . S
C1171 C1175 1.429 . S
C1172 C1155 1.574 . S
C1172 H1166 0.949 . S
C1172 C1176 1.368 . S
C1173 C1154 1.429 . S
C1173 C1167 1.429 . S
C1173 C1174 1.523 . S
C1174 C1155 1.368 . S
C1174 C1168 1.368 . S
C1174 C1173 1.523 . S
C1175 C1159 1.429 . S
C1175 C1171 1.429 . S
C1175 C1176 1.523 . S
C1176 C1160 1.368 . S
C1176 C1172 1.368 . S
C1176 C1175 1.523 . S
H1177 C1152 0.950 . S
H1178 C1154 0.950 . S
H1179 C1155 0.949 . S
H1180 C1157 0.950 . S
H1181 C1159 0.950 . S
C1182 C1183 1.349 . S
C1182 C1184 1.327 . S
C1182 H1207 0.950 . S
C1183 C1182 1.349 . S
C1183 C1199 1.349 . S
C1184 C1182 1.327 . S
C1184 C1203 1.429 . S
C1184 H1208 0.950 . S
C1185 C1202 1.574 . S
C1185 C1204 1.368 . S
C1185 H1209 0.949 . S
H1186 C1190 0.949 . S
C1187 C1188 1.349 . S
C1187 C1189 1.327 . S
C1187 H1210 0.950 . S
C1188 C1187 1.349 . S
C1188 C1200 1.349 . S
C1189 C1187 1.327 . S
C1189 C1205 1.429 . S
C1189 H1211 0.950 . S
C1190 H1186 0.949 . S
C1190 C1198 1.574 . S
C1190 C1206 1.368 . S
H1191 C1199 0.950 . S
H1192 C1197 0.950 . S
H1193 C1198 0.949 . S
H1194 C1200 0.950 . S
H1195 C1201 0.950 . S
H1196 C1202 0.949 . S
C1197 H1192 0.950 . S
C1197 C1199 1.327 . S
C1197 C1203 1.429 . S
C1198 C1190 1.574 . S
C1198 H1193 0.949 . S
C1198 C1204 1.368 . S
C1199 C1183 1.349 . S
C1199 H1191 0.950 . S
C1199 C1197 1.327 . S
C1200 C1188 1.349 . S
C1200 H1194 0.950 . S
C1200 C1201 1.327 . S
C1201 H1195 0.950 . S
C1201 C1200 1.327 . S
C1201 C1205 1.429 . S
C1202 C1185 1.574 . S
C1202 H1196 0.949 . S
C1202 C1206 1.368 . S
C1203 C1184 1.429 . S
C1203 C1197 1.429 . S
C1203 C1204 1.523 . S
C1204 C1185 1.368 . S
C1204 C1198 1.368 . S
C1204 C1203 1.523 . S
C1205 C1189 1.429 . S
C1205 C1201 1.429 . S
C1205 C1206 1.523 . S
C1206 C1190 1.368 . S
C1206 C1202 1.368 . S
C1206 C1205 1.523 . S
H1207 C1182 0.950 . S
H1208 C1184 0.950 . S
H1209 C1185 0.949 . S
H1210 C1187 0.950 . S
H1211 C1189 0.950 . S
C1212 C1213 1.349 . S
C1212 C1214 1.327 . S
C1212 H1237 0.950 . S
C1213 C1212 1.349 . S
C1213 C1229 1.349 . S
C1214 C1212 1.327 . S
C1214 C1233 1.429 . S
C1214 H1238 0.950 . S
C1215 C1232 1.574 . S
C1215 C1234 1.368 . S
C1215 H1239 0.949 . S
H1216 C1220 0.949 . S
C1217 C1218 1.349 . S
C1217 C1219 1.327 . S
C1217 H1240 0.950 . S
C1218 C1217 1.349 . S
C1218 C1230 1.349 . S
C1219 C1217 1.327 . S
C1219 C1235 1.429 . S
C1219 H1241 0.950 . S
C1220 H1216 0.949 . S
C1220 C1228 1.574 . S
C1220 C1236 1.368 . S
H1221 C1229 0.950 . S
H1222 C1227 0.950 . S
H1223 C1228 0.949 . S
H1224 C1230 0.950 . S
H1225 C1231 0.950 . S
H1226 C1232 0.949 . S
C1227 H1222 0.950 . S
C1227 C1229 1.327 . S
C1227 C1233 1.429 . S
C1228 C1220 1.574 . S
C1228 H1223 0.949 . S
C1228 C1234 1.368 . S
C1229 C1213 1.349 . S
C1229 H1221 0.950 . S
C1229 C1227 1.327 . S
C1230 C1218 1.349 . S
C1230 H1224 0.950 . S
C1230 C1231 1.327 . S
C1231 H1225 0.950 . S
C1231 C1230 1.327 . S
C1231 C1235 1.429 . S
C1232 C1215 1.574 . S
C1232 H1226 0.949 . S
C1232 C1236 1.368 . S
C1233 C1214 1.429 . S
C1233 C1227 1.429 . S
C1233 C1234 1.523 . S
C1234 C1215 1.368 . S
C1234 C1228 1.368 . S
C1234 C1233 1.523 . S
C1235 C1219 1.429 . S
C1235 C1231 1.429 . S
C1235 C1236 1.523 . S
C1236 C1220 1.368 . S
C1236 C1232 1.368 . S
C1236 C1235 1.523 . S
H1237 C1212 0.950 . S
H1238 C1214 0.950 . S
H1239 C1215 0.949 . S
H1240 C1217 0.950 . S
H1241 C1219 0.950 . S
C1242 C1243 1.349 . S
C1242 C1244 1.327 . S
C1242 H1267 0.950 . S
C1243 C1242 1.349 . S
C1243 C1259 1.349 . S
C1244 C1242 1.327 . S
C1244 C1263 1.429 . S
C1244 H1268 0.950 . S
C1245 C1262 1.574 . S
C1245 C1264 1.368 . S
C1245 H1269 0.949 . S
H1246 C1250 0.949 . S
C1247 C1248 1.349 . S
C1247 C1249 1.327 . S
C1247 H1270 0.950 . S
C1248 C1247 1.349 . S
C1248 C1260 1.349 . S
C1249 C1247 1.327 . S
C1249 C1265 1.429 . S
C1249 H1271 0.950 . S
C1250 H1246 0.949 . S
C1250 C1258 1.574 . S
C1250 C1266 1.368 . S
H1251 C1259 0.950 . S
H1252 C1257 0.950 . S
H1253 C1258 0.949 . S
H1254 C1260 0.950 . S
H1255 C1261 0.950 . S
H1256 C1262 0.949 . S
C1257 H1252 0.950 . S
C1257 C1259 1.327 . S
C1257 C1263 1.429 . S
C1258 C1250 1.574 . S
C1258 H1253 0.949 . S
C1258 C1264 1.368 . S
C1259 C1243 1.349 . S
C1259 H1251 0.950 . S
C1259 C1257 1.327 . S
C1260 C1248 1.349 . S
C1260 H1254 0.950 . S
C1260 C1261 1.327 . S
C1261 H1255 0.950 . S
C1261 C1260 1.327 . S
C1261 C1265 1.429 . S
C1262 C1245 1.574 . S
C1262 H1256 0.949 . S
C1262 C1266 1.368 . S
C1263 C1244 1.429 . S
C1263 C1257 1.429 . S
C1263 C1264 1.523 . S
C1264 C1245 1.368 . S
C1264 C1258 1.368 . S
C1264 C1263 1.523 . S
C1265 C1249 1.429 . S
C1265 C1261 1.429 . S
C1265 C1266 1.523 . S
C1266 C1250 1.368 . S
C1266 C1262 1.368 . S
C1266 C1265 1.523 . S
H1267 C1242 0.950 . S
H1268 C1244 0.950 . S
H1269 C1245 0.949 . S
H1270 C1247 0.950 . S
H1271 C1249 0.950 . S
C1272 C1273 1.349 . S
C1272 C1274 1.327 . S
C1272 H1297 0.950 . S
C1273 C1272 1.349 . S
C1273 C1289 1.349 . S
C1274 C1272 1.327 . S
C1274 C1293 1.429 . S
C1274 H1298 0.950 . S
C1275 C1292 1.574 . S
C1275 C1294 1.368 . S
C1275 H1299 0.949 . S
H1276 C1280 0.949 . S
C1277 C1278 1.349 . S
C1277 C1279 1.327 . S
C1277 H1300 0.950 . S
C1278 C1277 1.349 . S
C1278 C1290 1.349 . S
C1279 C1277 1.327 . S
C1279 C1295 1.429 . S
C1279 H1301 0.950 . S
C1280 H1276 0.949 . S
C1280 C1288 1.574 . S
C1280 C1296 1.368 . S
H1281 C1289 0.950 . S
H1282 C1287 0.950 . S
H1283 C1288 0.949 . S
H1284 C1290 0.950 . S
H1285 C1291 0.950 . S
H1286 C1292 0.949 . S
C1287 H1282 0.950 . S
C1287 C1289 1.327 . S
C1287 C1293 1.429 . S
C1288 C1280 1.574 . S
C1288 H1283 0.949 . S
C1288 C1294 1.368 . S
C1289 C1273 1.349 . S
C1289 H1281 0.950 . S
C1289 C1287 1.327 . S
C1290 C1278 1.349 . S
C1290 H1284 0.950 . S
C1290 C1291 1.327 . S
C1291 H1285 0.950 . S
C1291 C1290 1.327 . S
C1291 C1295 1.429 . S
C1292 C1275 1.574 . S
C1292 H1286 0.949 . S
C1292 C1296 1.368 . S
C1293 C1274 1.429 . S
C1293 C1287 1.429 . S
C1293 C1294 1.523 . S
C1294 C1275 1.368 . S
C1294 C1288 1.368 . S
C1294 C1293 1.523 . S
C1295 C1279 1.429 . S
C1295 C1291 1.429 . S
C1295 C1296 1.523 . S
C1296 C1280 1.368 . S
C1296 C1292 1.368 . S
C1296 C1295 1.523 . S
H1297 C1272 0.950 . S
H1298 C1274 0.950 . S
H1299 C1275 0.949 . S
H1300 C1277 0.950 . S
H1301 C1279 0.950 . S
C1302 C1303 1.349 . S
C1302 C1304 1.327 . S
C1302 H1327 0.950 . S
C1303 C1302 1.349 . S
C1303 C1319 1.349 . S
C1304 C1302 1.327 . S
C1304 C1323 1.429 . S
C1304 H1328 0.950 . S
C1305 C1322 1.574 . S
C1305 C1324 1.368 . S
C1305 H1329 0.949 . S
H1306 C1310 0.949 . S
C1307 C1308 1.349 . S
C1307 C1309 1.327 . S
C1307 H1330 0.950 . S
C1308 C1307 1.349 . S
C1308 C1320 1.349 . S
C1309 C1307 1.327 . S
C1309 C1325 1.429 . S
C1309 H1331 0.950 . S
C1310 H1306 0.949 . S
C1310 C1318 1.574 . S
C1310 C1326 1.368 . S
H1311 C1319 0.950 . S
H1312 C1317 0.950 . S
H1313 C1318 0.949 . S
H1314 C1320 0.950 . S
H1315 C1321 0.950 . S
H1316 C1322 0.949 . S
C1317 H1312 0.950 . S
C1317 C1319 1.327 . S
C1317 C1323 1.429 . S
C1318 C1310 1.574 . S
C1318 H1313 0.949 . S
C1318 C1324 1.368 . S
C1319 C1303 1.349 . S
C1319 H1311 0.950 . S
C1319 C1317 1.327 . S
C1320 C1308 1.349 . S
C1320 H1314 0.950 . S
C1320 C1321 1.327 . S
C1321 H1315 0.950 . S
C1321 C1320 1.327 . S
C1321 C1325 1.429 . S
C1322 C1305 1.574 . S
C1322 H1316 0.949 . S
C1322 C1326 1.368 . S
C1323 C1304 1.429 . S
C1323 C1317 1.429 . S
C1323 C1324 1.523 . S
C1324 C1305 1.368 . S
C1324 C1318 1.368 . S
C1324 C1323 1.523 . S
C1325 C1309 1.429 . S
C1325 C1321 1.429 . S
C1325 C1326 1.523 . S
C1326 C1310 1.368 . S
C1326 C1322 1.368 . S
C1326 C1325 1.523 . S
H1327 C1302 0.950 . S
H1328 C1304 0.950 . S
H1329 C1305 0.949 . S
H1330 C1307 0.950 . S
H1331 C1309 0.950 . S
C1332 C1333 1.349 . S
C1332 C1334 1.327 . S
C1332 H1357 0.950 . S
C1333 C1332 1.349 . S
C1333 C1349 1.349 . S
C1334 C1332 1.327 . S
C1334 C1353 1.429 1_545 S
C1334 H1358 0.950 1_545 S
C1335 C1352 1.574 . S
C1335 C1354 1.368 . S
C1335 H1359 0.949 . S
H1336 C1340 0.949 . S
C1337 C1338 1.349 . S
C1337 C1339 1.327 . S
C1337 H1360 0.950 . S
C1338 C1337 1.349 . S
C1338 C1350 1.349 . S
C1339 C1337 1.327 . S
C1339 C1355 1.429 . S
C1339 H1361 0.950 . S
C1340 H1336 0.949 . S
C1340 C1348 1.574 . S
C1340 C1356 1.368 . S
H1341 C1349 0.950 . S
H1342 C1347 0.950 1_565 S
H1343 C1348 0.949 . S
H1344 C1350 0.950 . S
H1345 C1351 0.950 . S
H1346 C1352 0.949 . S
C1347 H1342 0.950 1_545 S
C1347 C1349 1.327 . S
C1347 C1353 1.429 1_545 S
C1348 C1340 1.574 . S
C1348 H1343 0.949 . S
C1348 C1354 1.368 . S
C1349 C1333 1.349 . S
C1349 H1341 0.950 . S
C1349 C1347 1.327 . S
C1350 C1338 1.349 . S
C1350 H1344 0.950 . S
C1350 C1351 1.327 . S
C1351 H1345 0.950 . S
C1351 C1350 1.327 . S
C1351 C1355 1.429 . S
C1352 C1335 1.574 . S
C1352 H1346 0.949 . S
C1352 C1356 1.368 . S
C1353 C1334 1.429 1_565 S
C1353 C1347 1.429 1_565 S
C1353 C1354 1.523 . S
C1354 C1335 1.368 . S
C1354 C1348 1.368 . S
C1354 C1353 1.523 . S
C1355 C1339 1.429 . S
C1355 C1351 1.429 . S
C1355 C1356 1.523 . S
C1356 C1340 1.368 . S
C1356 C1352 1.368 . S
C1356 C1355 1.523 . S
H1357 C1332 0.950 . S
H1358 C1334 0.950 1_565 S
H1359 C1335 0.949 . S
H1360 C1337 0.950 . S
H1361 C1339 0.950 . S
C1362 C1363 1.349 1_455 S
C1362 C1364 1.327 . S
C1362 H1387 0.950 . S
C1363 C1362 1.349 1_655 S
C1363 C1379 1.349 . S
C1364 C1362 1.327 . S
C1364 C1383 1.429 . S
C1364 H1388 0.950 . S
C1365 C1382 1.574 . S
C1365 C1384 1.368 . S
C1365 H1389 0.949 . S
H1366 C1370 0.949 . S
C1367 C1368 1.349 . S
C1367 C1369 1.327 . S
C1367 H1390 0.950 . S
C1368 C1367 1.349 . S
C1368 C1380 1.349 . S
C1369 C1367 1.327 . S
C1369 C1385 1.429 . S
C1369 H1391 0.950 . S
C1370 H1366 0.949 . S
C1370 C1378 1.574 . S
C1370 C1386 1.368 . S
H1371 C1379 0.950 . S
H1372 C1377 0.950 . S
H1373 C1378 0.949 . S
H1374 C1380 0.950 . S
H1375 C1381 0.950 . S
H1376 C1382 0.949 . S
C1377 H1372 0.950 . S
C1377 C1379 1.327 1_455 S
C1377 C1383 1.429 . S
C1378 C1370 1.574 . S
C1378 H1373 0.949 . S
C1378 C1384 1.368 . S
C1379 C1363 1.349 . S
C1379 H1371 0.950 . S
C1379 C1377 1.327 1_655 S
C1380 C1368 1.349 . S
C1380 H1374 0.950 . S
C1380 C1381 1.327 . S
C1381 H1375 0.950 . S
C1381 C1380 1.327 . S
C1381 C1385 1.429 . S
C1382 C1365 1.574 . S
C1382 H1376 0.949 . S
C1382 C1386 1.368 . S
C1383 C1364 1.429 . S
C1383 C1377 1.429 . S
C1383 C1384 1.523 . S
C1384 C1365 1.368 . S
C1384 C1378 1.368 . S
C1384 C1383 1.523 . S
C1385 C1369 1.429 . S
C1385 C1381 1.429 . S
C1385 C1386 1.523 . S
C1386 C1370 1.368 . S
C1386 C1382 1.368 . S
C1386 C1385 1.523 . S
H1387 C1362 0.950 . S
H1388 C1364 0.950 . S
H1389 C1365 0.949 . S
H1390 C1367 0.950 . S
H1391 C1369 0.950 . S
C1392 C1393 1.349 . S
C1392 C1394 1.327 . S
C1392 H1417 0.950 . S
C1393 C1392 1.349 . S
C1393 C1409 1.349 . S
C1394 C1392 1.327 . S
C1394 C1413 1.429 . S
C1394 H1418 0.950 . S
C1395 C1412 1.574 . S
C1395 C1414 1.368 . S
C1395 H1419 0.949 . S
H1396 C1400 0.949 . S
C1397 C1398 1.349 . S
C1397 C1399 1.327 . S
C1397 H1420 0.950 . S
C1398 C1397 1.349 . S
C1398 C1410 1.349 . S
C1399 C1397 1.327 . S
C1399 C1415 1.429 . S
C1399 H1421 0.950 . S
C1400 H1396 0.949 . S
C1400 C1408 1.574 . S
C1400 C1416 1.368 . S
H1401 C1409 0.950 . S
H1402 C1407 0.950 . S
H1403 C1408 0.949 . S
H1404 C1410 0.950 . S
H1405 C1411 0.950 . S
H1406 C1412 0.949 . S
C1407 H1402 0.950 . S
C1407 C1409 1.327 . S
C1407 C1413 1.429 . S
C1408 C1400 1.574 . S
C1408 H1403 0.949 . S
C1408 C1414 1.368 . S
C1409 C1393 1.349 . S
C1409 H1401 0.950 . S
C1409 C1407 1.327 . S
C1410 C1398 1.349 . S
C1410 H1404 0.950 . S
C1410 C1411 1.327 . S
C1411 H1405 0.950 . S
C1411 C1410 1.327 . S
C1411 C1415 1.429 . S
C1412 C1395 1.574 . S
C1412 H1406 0.949 . S
C1412 C1416 1.368 . S
C1413 C1394 1.429 . S
C1413 C1407 1.429 . S
C1413 C1414 1.523 . S
C1414 C1395 1.368 . S
C1414 C1408 1.368 . S
C1414 C1413 1.523 . S
C1415 C1399 1.429 . S
C1415 C1411 1.429 . S
C1415 C1416 1.523 . S
C1416 C1400 1.368 . S
C1416 C1412 1.368 . S
C1416 C1415 1.523 . S
H1417 C1392 0.950 . S
H1418 C1394 0.950 . S
H1419 C1395 0.949 . S
H1420 C1397 0.950 . S
H1421 C1399 0.950 . S
C1422 C1423 1.349 . S
C1422 C1424 1.327 . S
C1422 H1447 0.950 . S
C1423 C1422 1.349 . S
C1423 C1439 1.349 . S
C1424 C1422 1.327 . S
C1424 C1443 1.429 . S
C1424 H1448 0.950 . S
C1425 C1442 1.574 . S
C1425 C1444 1.368 . S
C1425 H1449 0.949 . S
H1426 C1430 0.949 . S
C1427 C1428 1.349 . S
C1427 C1429 1.327 . S
C1427 H1450 0.950 . S
C1428 C1427 1.349 . S
C1428 C1440 1.349 . S
C1429 C1427 1.327 . S
C1429 C1445 1.429 . S
C1429 H1451 0.950 . S
C1430 H1426 0.949 . S
C1430 C1438 1.574 . S
C1430 C1446 1.368 . S
H1431 C1439 0.950 . S
H1432 C1437 0.950 . S
H1433 C1438 0.949 . S
H1434 C1440 0.950 . S
H1435 C1441 0.950 . S
H1436 C1442 0.949 . S
C1437 H1432 0.950 . S
C1437 C1439 1.327 . S
C1437 C1443 1.429 . S
C1438 C1430 1.574 . S
C1438 H1433 0.949 . S
C1438 C1444 1.368 . S
C1439 C1423 1.349 . S
C1439 H1431 0.950 . S
C1439 C1437 1.327 . S
C1440 C1428 1.349 . S
C1440 H1434 0.950 . S
C1440 C1441 1.327 . S
C1441 H1435 0.950 . S
C1441 C1440 1.327 . S
C1441 C1445 1.429 . S
C1442 C1425 1.574 . S
C1442 H1436 0.949 . S
C1442 C1446 1.368 . S
C1443 C1424 1.429 . S
C1443 C1437 1.429 . S
C1443 C1444 1.523 . S
C1444 C1425 1.368 . S
C1444 C1438 1.368 . S
C1444 C1443 1.523 . S
C1445 C1429 1.429 . S
C1445 C1441 1.429 . S
C1445 C1446 1.523 . S
C1446 C1430 1.368 . S
C1446 C1442 1.368 . S
C1446 C1445 1.523 . S
H1447 C1422 0.950 . S
H1448 C1424 0.950 . S
H1449 C1425 0.949 . S
H1450 C1427 0.950 . S
H1451 C1429 0.950 . S
C1452 C1453 1.349 . S
C1452 C1454 1.327 . S
C1452 H1477 0.950 . S
C1453 C1452 1.349 . S
C1453 C1469 1.349 . S
C1454 C1452 1.327 . S
C1454 C1473 1.429 . S
C1454 H1478 0.950 . S
C1455 C1472 1.574 . S
C1455 C1474 1.368 . S
C1455 H1479 0.949 . S
H1456 C1460 0.949 . S
C1457 C1458 1.349 . S
C1457 C1459 1.327 . S
C1457 H1480 0.950 . S
C1458 C1457 1.349 . S
C1458 C1470 1.349 . S
C1459 C1457 1.327 . S
C1459 C1475 1.429 . S
C1459 H1481 0.950 . S
C1460 H1456 0.949 . S
C1460 C1468 1.574 . S
C1460 C1476 1.368 . S
H1461 C1469 0.950 . S
H1462 C1467 0.950 . S
H1463 C1468 0.949 . S
H1464 C1470 0.950 . S
H1465 C1471 0.950 . S
H1466 C1472 0.949 . S
C1467 H1462 0.950 . S
C1467 C1469 1.327 . S
C1467 C1473 1.429 . S
C1468 C1460 1.574 . S
C1468 H1463 0.949 . S
C1468 C1474 1.368 . S
C1469 C1453 1.349 . S
C1469 H1461 0.950 . S
C1469 C1467 1.327 . S
C1470 C1458 1.349 . S
C1470 H1464 0.950 . S
C1470 C1471 1.327 . S
C1471 H1465 0.950 . S
C1471 C1470 1.327 . S
C1471 C1475 1.429 . S
C1472 C1455 1.574 . S
C1472 H1466 0.949 . S
C1472 C1476 1.368 . S
C1473 C1454 1.429 . S
C1473 C1467 1.429 . S
C1473 C1474 1.523 . S
C1474 C1455 1.368 . S
C1474 C1468 1.368 . S
C1474 C1473 1.523 . S
C1475 C1459 1.429 . S
C1475 C1471 1.429 . S
C1475 C1476 1.523 . S
C1476 C1460 1.368 . S
C1476 C1472 1.368 . S
C1476 C1475 1.523 . S
H1477 C1452 0.950 . S
H1478 C1454 0.950 . S
H1479 C1455 0.949 . S
H1480 C1457 0.950 . S
H1481 C1459 0.950 . S
C1482 C1483 1.349 . S
C1482 C1484 1.327 . S
C1482 H1507 0.950 . S
C1483 C1482 1.349 . S
C1483 C1499 1.349 . S
C1484 C1482 1.327 . S
C1484 C1503 1.429 . S
C1484 H1508 0.950 . S
C1485 C1502 1.574 . S
C1485 C1504 1.368 . S
C1485 H1509 0.949 . S
H1486 C1490 0.949 . S
C1487 C1488 1.349 . S
C1487 C1489 1.327 . S
C1487 H1510 0.950 . S
C1488 C1487 1.349 . S
C1488 C1500 1.349 . S
C1489 C1487 1.327 . S
C1489 C1505 1.429 . S
C1489 H1511 0.950 . S
C1490 H1486 0.949 . S
C1490 C1498 1.574 . S
C1490 C1506 1.368 . S
H1491 C1499 0.950 . S
H1492 C1497 0.950 . S
H1493 C1498 0.949 . S
H1494 C1500 0.950 . S
H1495 C1501 0.950 . S
H1496 C1502 0.949 . S
C1497 H1492 0.950 . S
C1497 C1499 1.327 . S
C1497 C1503 1.429 . S
C1498 C1490 1.574 . S
C1498 H1493 0.949 . S
C1498 C1504 1.368 . S
C1499 C1483 1.349 . S
C1499 H1491 0.950 . S
C1499 C1497 1.327 . S
C1500 C1488 1.349 . S
C1500 H1494 0.950 . S
C1500 C1501 1.327 . S
C1501 H1495 0.950 . S
C1501 C1500 1.327 . S
C1501 C1505 1.429 . S
C1502 C1485 1.574 . S
C1502 H1496 0.949 . S
C1502 C1506 1.368 . S
C1503 C1484 1.429 . S
C1503 C1497 1.429 . S
C1503 C1504 1.523 . S
C1504 C1485 1.368 . S
C1504 C1498 1.368 . S
C1504 C1503 1.523 . S
C1505 C1489 1.429 . S
C1505 C1501 1.429 . S
C1505 C1506 1.523 . S
C1506 C1490 1.368 . S
C1506 C1502 1.368 . S
C1506 C1505 1.523 . S
H1507 C1482 0.950 . S
H1508 C1484 0.950 . S
H1509 C1485 0.949 . S
H1510 C1487 0.950 . S
H1511 C1489 0.950 . S
C1512 C1513 1.349 . S
C1512 C1514 1.327 . S
C1512 H1537 0.950 . S
C1513 C1512 1.349 . S
C1513 C1529 1.349 . S
C1514 C1512 1.327 . S
C1514 C1533 1.429 . S
C1514 H1538 0.950 . S
C1515 C1532 1.613 . S
C1515 C1534 1.368 . S
C1515 H1539 0.949 . S
H1516 C1520 0.949 . S
C1517 C1518 1.349 . S
C1517 C1519 1.327 . S
C1517 H1540 0.950 . S
C1518 C1517 1.349 . S
C1518 C1530 1.349 . S
C1519 C1517 1.327 . S
C1519 C1535 1.429 . S
C1519 H1541 0.950 . S
C1520 H1516 0.949 . S
C1520 C1528 1.574 1_545 S
C1520 C1536 1.368 . S
H1521 C1529 0.950 . S
H1522 C1527 0.950 . S
H1523 C1528 0.949 . S
H1524 C1530 0.950 . S
H1525 C1531 0.950 . S
H1526 C1532 0.956 1_545 S
C1527 H1522 0.950 . S
C1527 C1529 1.327 . S
C1527 C1533 1.429 . S
C1528 C1520 1.574 1_565 S
C1528 H1523 0.949 . S
C1528 C1534 1.368 . S
C1529 C1513 1.349 . S
C1529 H1521 0.950 . S
C1529 C1527 1.327 . S
C1530 C1518 1.349 . S
C1530 H1524 0.950 . S
C1530 C1531 1.327 . S
C1531 H1525 0.950 . S
C1531 C1530 1.327 . S
C1531 C1535 1.429 . S
C1532 C1515 1.613 . S
C1532 H1526 0.956 1_565 S
C1532 C1536 1.325 1_565 S
C1533 C1514 1.429 . S
C1533 C1527 1.429 . S
C1533 C1534 1.523 . S
C1534 C1515 1.368 . S
C1534 C1528 1.368 . S
C1534 C1533 1.523 . S
C1535 C1519 1.429 . S
C1535 C1531 1.429 . S
C1535 C1536 1.523 . S
C1536 C1520 1.368 . S
C1536 C1532 1.325 1_545 S
C1536 C1535 1.523 . S
H1537 C1512 0.950 . S
H1538 C1514 0.950 . S
H1539 C1515 0.949 . S
H1540 C1517 0.950 . S
H1541 C1519 0.950 . S
C1542 C1543 1.349 . S
C1542 C1544 1.327 . S
C1542 H1567 0.950 . S
C1543 C1542 1.349 . S
C1543 C1559 1.349 . S
C1544 C1542 1.327 . S
C1544 C1563 1.429 . S
C1544 H1568 0.950 . S
C1545 C1562 1.574 1_455 S
C1545 C1564 1.368 . S
C1545 H1569 0.949 . S
H1546 C1550 0.949 . S
C1547 C1548 1.349 . S
C1547 C1549 1.327 . S
C1547 H1570 0.950 . S
C1548 C1547 1.349 . S
C1548 C1560 1.349 . S
C1549 C1547 1.327 . S
C1549 C1565 1.429 . S
C1549 H1571 0.950 . S
C1550 H1546 0.949 . S
C1550 C1558 1.574 1_655 S
C1550 C1566 1.368 . S
H1551 C1559 0.950 . S
H1552 C1557 0.950 . S
H1553 C1558 0.949 . S
H1554 C1560 0.950 . S
H1555 C1561 0.950 . S
H1556 C1562 0.949 . S
C1557 H1552 0.950 . S
C1557 C1559 1.327 . S
C1557 C1563 1.429 . S
C1558 C1550 1.574 1_455 S
C1558 H1553 0.949 . S
C1558 C1564 1.368 . S
C1559 C1543 1.349 . S
C1559 H1551 0.950 . S
C1559 C1557 1.327 . S
C1560 C1548 1.349 . S
C1560 H1554 0.950 . S
C1560 C1561 1.327 . S
C1561 H1555 0.950 . S
C1561 C1560 1.327 . S
C1561 C1565 1.429 . S
C1562 C1545 1.574 1_655 S
C1562 H1556 0.949 . S
C1562 C1566 1.368 . S
C1563 C1544 1.429 . S
C1563 C1557 1.429 . S
C1563 C1564 1.523 . S
C1564 C1545 1.368 . S
C1564 C1558 1.368 . S
C1564 C1563 1.523 . S
C1565 C1549 1.429 . S
C1565 C1561 1.429 . S
C1565 C1566 1.523 . S
C1566 C1550 1.368 . S
C1566 C1562 1.368 . S
C1566 C1565 1.523 . S
H1567 C1542 0.950 . S
H1568 C1544 0.950 . S
H1569 C1545 0.949 . S
H1570 C1547 0.950 . S
H1571 C1549 0.950 . S
C1572 C1573 1.349 . S
C1572 C1574 1.327 . S
C1572 H1597 0.950 . S
C1573 C1572 1.349 . S
C1573 C1589 1.349 . S
C1574 C1572 1.327 . S
C1574 C1593 1.429 . S
C1574 H1598 0.950 . S
C1575 C1592 1.574 . S
C1575 C1594 1.368 . S
C1575 H1599 0.949 . S
H1576 C1580 0.949 . S
C1577 C1578 1.349 . S
C1577 C1579 1.327 . S
C1577 H1600 0.950 . S
C1578 C1577 1.349 . S
C1578 C1590 1.349 . S
C1579 C1577 1.327 . S
C1579 C1595 1.429 . S
C1579 H1601 0.950 . S
C1580 H1576 0.949 . S
C1580 C1588 1.574 . S
C1580 C1596 1.368 . S
H1581 C1589 0.950 . S
H1582 C1587 0.950 . S
H1583 C1588 0.949 . S
H1584 C1590 0.950 . S
H1585 C1591 0.950 . S
H1586 C1592 0.949 . S
C1587 H1582 0.950 . S
C1587 C1589 1.327 . S
C1587 C1593 1.429 . S
C1588 C1580 1.574 . S
C1588 H1583 0.949 . S
C1588 C1594 1.368 . S
C1589 C1573 1.349 . S
C1589 H1581 0.950 . S
C1589 C1587 1.327 . S
C1590 C1578 1.349 . S
C1590 H1584 0.950 . S
C1590 C1591 1.327 . S
C1591 H1585 0.950 . S
C1591 C1590 1.327 . S
C1591 C1595 1.429 . S
C1592 C1575 1.574 . S
C1592 H1586 0.949 . S
C1592 C1596 1.368 . S
C1593 C1574 1.429 . S
C1593 C1587 1.429 . S
C1593 C1594 1.523 . S
C1594 C1575 1.368 . S
C1594 C1588 1.368 . S
C1594 C1593 1.523 . S
C1595 C1579 1.429 . S
C1595 C1591 1.429 . S
C1595 C1596 1.523 . S
C1596 C1580 1.368 . S
C1596 C1592 1.368 . S
C1596 C1595 1.523 . S
H1597 C1572 0.950 . S
H1598 C1574 0.950 . S
H1599 C1575 0.949 . S
H1600 C1577 0.950 . S
H1601 C1579 0.950 . S
C1602 C1603 1.349 . S
C1602 C1604 1.327 . S
C1602 H1627 0.950 . S
C1603 C1602 1.349 . S
C1603 C1619 1.349 . S
C1604 C1602 1.327 . S
C1604 C1623 1.429 1_455 S
C1604 H1628 0.950 1_455 S
C1605 C1622 1.574 . S
C1605 C1624 1.368 . S
C1605 H1629 0.949 . S
H1606 C1610 0.949 . S
C1607 C1608 1.349 . S
C1607 C1609 1.327 . S
C1607 H1630 0.950 . S
C1608 C1607 1.349 . S
C1608 C1620 1.349 . S
C1609 C1607 1.327 . S
C1609 C1625 1.429 . S
C1609 H1631 0.950 . S
C1610 H1606 0.949 . S
C1610 C1618 1.574 . S
C1610 C1626 1.368 . S
H1611 C1619 0.950 . S
H1612 C1617 0.950 . S
H1613 C1618 0.949 . S
H1614 C1620 0.950 . S
H1615 C1621 0.950 . S
H1616 C1622 0.949 . S
C1617 H1612 0.950 . S
C1617 C1619 1.327 1_655 S
C1617 C1623 1.429 . S
C1618 C1610 1.574 . S
C1618 H1613 0.949 . S
C1618 C1624 1.368 . S
C1619 C1603 1.349 . S
C1619 H1611 0.950 . S
C1619 C1617 1.327 1_455 S
C1620 C1608 1.349 . S
C1620 H1614 0.950 . S
C1620 C1621 1.327 . S
C1621 H1615 0.950 . S
C1621 C1620 1.327 . S
C1621 C1625 1.429 . S
C1622 C1605 1.574 . S
C1622 H1616 0.949 . S
C1622 C1626 1.368 . S
C1623 C1604 1.429 1_655 S
C1623 C1617 1.429 . S
C1623 C1624 1.523 . S
C1624 C1605 1.368 . S
C1624 C1618 1.368 . S
C1624 C1623 1.523 . S
C1625 C1609 1.429 . S
C1625 C1621 1.429 . S
C1625 C1626 1.523 . S
C1626 C1610 1.368 . S
C1626 C1622 1.368 . S
C1626 C1625 1.523 . S
H1627 C1602 0.950 . S
H1628 C1604 0.950 1_655 S
H1629 C1605 0.949 . S
H1630 C1607 0.950 . S
H1631 C1609 0.950 . S
C1632 C1633 1.349 . S
C1632 C1634 1.327 . S
C1632 H1657 0.950 . S
C1633 C1632 1.349 . S
C1633 C1649 1.349 . S
C1634 C1632 1.327 . S
C1634 C1653 1.429 . S
C1634 H1658 0.950 . S
C1635 C1652 1.574 . S
C1635 C1654 1.368 . S
C1635 H1659 0.949 . S
H1636 C1640 0.949 . S
C1637 C1638 1.349 . S
C1637 C1639 1.327 . S
C1637 H1660 0.950 . S
C1638 C1637 1.349 . S
C1638 C1650 1.349 . S
C1639 C1637 1.327 . S
C1639 C1655 1.429 . S
C1639 H1661 0.950 . S
C1640 H1636 0.949 . S
C1640 C1648 1.574 . S
C1640 C1656 1.368 . S
H1641 C1649 0.950 . S
H1642 C1647 0.950 . S
H1643 C1648 0.949 . S
H1644 C1650 0.950 . S
H1645 C1651 0.950 . S
H1646 C1652 0.949 . S
C1647 H1642 0.950 . S
C1647 C1649 1.327 . S
C1647 C1653 1.429 . S
C1648 C1640 1.574 . S
C1648 H1643 0.949 . S
C1648 C1654 1.368 . S
C1649 C1633 1.349 . S
C1649 H1641 0.950 . S
C1649 C1647 1.327 . S
C1650 C1638 1.349 . S
C1650 H1644 0.950 . S
C1650 C1651 1.327 . S
C1651 H1645 0.950 . S
C1651 C1650 1.327 . S
C1651 C1655 1.429 . S
C1652 C1635 1.574 . S
C1652 H1646 0.949 . S
C1652 C1656 1.368 . S
C1653 C1634 1.429 . S
C1653 C1647 1.429 . S
C1653 C1654 1.523 . S
C1654 C1635 1.368 . S
C1654 C1648 1.368 . S
C1654 C1653 1.523 . S
C1655 C1639 1.429 . S
C1655 C1651 1.429 . S
C1655 C1656 1.523 . S
C1656 C1640 1.368 . S
C1656 C1652 1.368 . S
C1656 C1655 1.523 . S
H1657 C1632 0.950 . S
H1658 C1634 0.950 . S
H1659 C1635 0.949 . S
H1660 C1637 0.950 . S
H1661 C1639 0.950 . S
C1662 C1663 1.349 . S
C1662 C1664 1.327 1_565 S
C1662 H1687 0.950 . S
C1663 C1662 1.349 . S
C1663 C1679 1.349 . S
C1664 C1662 1.327 1_545 S
C1664 C1683 1.429 . S
C1664 H1688 0.950 . S
C1665 C1682 1.574 . S
C1665 C1684 1.368 . S
C1665 H1689 0.949 . S
H1666 C1670 0.949 . S
C1667 C1668 1.349 . S
C1667 C1669 1.327 . S
C1667 H1690 0.950 . S
C1668 C1667 1.349 . S
C1668 C1680 1.349 . S
C1669 C1667 1.327 . S
C1669 C1685 1.429 . S
C1669 H1691 0.950 . S
C1670 H1666 0.949 . S
C1670 C1678 1.574 . S
C1670 C1686 1.368 . S
H1671 C1679 0.950 . S
H1672 C1677 0.950 . S
H1673 C1678 0.949 . S
H1674 C1680 0.950 . S
H1675 C1681 0.950 . S
H1676 C1682 0.949 . S
C1677 H1672 0.950 . S
C1677 C1679 1.327 1_545 S
C1677 C1683 1.429 . S
C1678 C1670 1.574 . S
C1678 H1673 0.949 . S
C1678 C1684 1.368 . S
C1679 C1663 1.349 . S
C1679 H1671 0.950 . S
C1679 C1677 1.327 1_565 S
C1680 C1668 1.349 . S
C1680 H1674 0.950 . S
C1680 C1681 1.327 . S
C1681 H1675 0.950 . S
C1681 C1680 1.327 . S
C1681 C1685 1.429 . S
C1682 C1665 1.574 . S
C1682 H1676 0.949 . S
C1682 C1686 1.368 . S
C1683 C1664 1.429 . S
C1683 C1677 1.429 . S
C1683 C1684 1.523 . S
C1684 C1665 1.368 . S
C1684 C1678 1.368 . S
C1684 C1683 1.523 . S
C1685 C1669 1.429 . S
C1685 C1681 1.429 . S
C1685 C1686 1.523 . S
C1686 C1670 1.368 . S
C1686 C1682 1.368 . S
C1686 C1685 1.523 . S
H1687 C1662 0.950 . S
H1688 C1664 0.950 . S
H1689 C1665 0.949 . S
H1690 C1667 0.950 . S
H1691 C1669 0.950 . S
C1692 C1693 1.349 . S
C1692 C1694 1.327 . S
C1692 H1717 0.950 . S
C1693 C1692 1.349 . S
C1693 C1709 1.349 . S
C1694 C1692 1.327 . S
C1694 C1713 1.429 . S
C1694 H1718 0.950 . S
C1695 C1712 1.574 . S
C1695 C1714 1.368 . S
C1695 H1719 0.949 . S
H1696 C1700 0.949 . S
C1697 C1698 1.349 . S
C1697 C1699 1.327 . S
C1697 H1720 0.950 . S
C1698 C1697 1.349 . S
C1698 C1710 1.349 . S
C1699 C1697 1.327 . S
C1699 C1715 1.429 . S
C1699 H1721 0.950 . S
C1700 H1696 0.949 . S
C1700 C1708 1.574 . S
C1700 C1716 1.368 . S
H1701 C1709 0.950 . S
H1702 C1707 0.950 . S
H1703 C1708 0.949 . S
H1704 C1710 0.950 . S
H1705 C1711 0.950 . S
H1706 C1712 0.949 . S
C1707 H1702 0.950 . S
C1707 C1709 1.327 . S
C1707 C1713 1.429 . S
C1708 C1700 1.574 . S
C1708 H1703 0.949 . S
C1708 C1714 1.368 . S
C1709 C1693 1.349 . S
C1709 H1701 0.950 . S
C1709 C1707 1.327 . S
C1710 C1698 1.349 . S
C1710 H1704 0.950 . S
C1710 C1711 1.327 . S
C1711 H1705 0.950 . S
C1711 C1710 1.327 . S
C1711 C1715 1.429 . S
C1712 C1695 1.574 . S
C1712 H1706 0.949 . S
C1712 C1716 1.368 . S
C1713 C1694 1.429 . S
C1713 C1707 1.429 . S
C1713 C1714 1.523 . S
C1714 C1695 1.368 . S
C1714 C1708 1.368 . S
C1714 C1713 1.523 . S
C1715 C1699 1.429 . S
C1715 C1711 1.429 . S
C1715 C1716 1.523 . S
C1716 C1700 1.368 . S
C1716 C1712 1.368 . S
C1716 C1715 1.523 . S
H1717 C1692 0.950 . S
H1718 C1694 0.950 . S
H1719 C1695 0.949 . S
H1720 C1697 0.950 . S
H1721 C1699 0.950 . S
C1722 C1723 1.349 . S
C1722 C1724 1.327 . S
C1722 H1747 0.950 . S
C1723 C1722 1.349 . S
C1723 C1739 1.349 . S
C1724 C1722 1.327 . S
C1724 C1743 1.429 . S
C1724 H1748 0.950 . S
C1725 C1742 1.574 . S
C1725 C1744 1.368 . S
C1725 H1749 0.949 . S
H1726 C1730 0.949 . S
C1727 C1728 1.349 . S
C1727 C1729 1.327 . S
C1727 H1750 0.950 . S
C1728 C1727 1.349 . S
C1728 C1740 1.349 . S
C1729 C1727 1.327 . S
C1729 C1745 1.429 . S
C1729 H1751 0.950 . S
C1730 H1726 0.949 . S
C1730 C1738 1.574 . S
C1730 C1746 1.368 . S
H1731 C1739 0.950 . S
H1732 C1737 0.950 . S
H1733 C1738 0.949 . S
H1734 C1740 0.950 . S
H1735 C1741 0.950 . S
H1736 C1742 0.949 . S
C1737 H1732 0.950 . S
C1737 C1739 1.327 . S
C1737 C1743 1.429 . S
C1738 C1730 1.574 . S
C1738 H1733 0.949 . S
C1738 C1744 1.368 . S
C1739 C1723 1.349 . S
C1739 H1731 0.950 . S
C1739 C1737 1.327 . S
C1740 C1728 1.349 . S
C1740 H1734 0.950 . S
C1740 C1741 1.327 . S
C1741 H1735 0.950 . S
C1741 C1740 1.327 . S
C1741 C1745 1.429 . S
C1742 C1725 1.574 . S
C1742 H1736 0.949 . S
C1742 C1746 1.368 . S
C1743 C1724 1.429 . S
C1743 C1737 1.429 . S
C1743 C1744 1.523 . S
C1744 C1725 1.368 . S
C1744 C1738 1.368 . S
C1744 C1743 1.523 . S
C1745 C1729 1.429 . S
C1745 C1741 1.429 . S
C1745 C1746 1.523 . S
C1746 C1730 1.368 . S
C1746 C1742 1.368 . S
C1746 C1745 1.523 . S
H1747 C1722 0.950 . S
H1748 C1724 0.950 . S
H1749 C1725 0.949 . S
H1750 C1727 0.950 . S
H1751 C1729 0.950 . S
C1752 C1753 1.349 . S
C1752 C1754 1.327 . S
C1752 H1777 0.950 . S
C1753 C1752 1.349 . S
C1753 C1769 1.349 . S
C1754 C1752 1.327 . S
C1754 C1773 1.429 . S
C1754 H1778 0.950 . S
C1755 C1772 1.574 . S
C1755 C1774 1.368 . S
C1755 H1779 0.949 . S
H1756 C1760 0.949 . S
C1757 C1758 1.349 . S
C1757 C1759 1.327 . S
C1757 H1780 0.950 . S
C1758 C1757 1.349 . S
C1758 C1770 1.349 . S
C1759 C1757 1.327 . S
C1759 C1775 1.429 . S
C1759 H1781 0.950 . S
C1760 H1756 0.949 . S
C1760 C1768 1.574 . S
C1760 C1776 1.368 . S
H1761 C1769 0.950 . S
H1762 C1767 0.950 . S
H1763 C1768 0.949 . S
H1764 C1770 0.950 . S
H1765 C1771 0.950 . S
H1766 C1772 0.949 . S
C1767 H1762 0.950 . S
C1767 C1769 1.327 . S
C1767 C1773 1.429 . S
C1768 C1760 1.574 . S
C1768 H1763 0.949 . S
C1768 C1774 1.368 . S
C1769 C1753 1.349 . S
C1769 H1761 0.950 . S
C1769 C1767 1.327 . S
C1770 C1758 1.349 . S
C1770 H1764 0.950 . S
C1770 C1771 1.327 . S
C1771 H1765 0.950 . S
C1771 C1770 1.327 . S
C1771 C1775 1.429 . S
C1772 C1755 1.574 . S
C1772 H1766 0.949 . S
C1772 C1776 1.368 . S
C1773 C1754 1.429 . S
C1773 C1767 1.429 . S
C1773 C1774 1.523 . S
C1774 C1755 1.368 . S
C1774 C1768 1.368 . S
C1774 C1773 1.523 . S
C1775 C1759 1.429 . S
C1775 C1771 1.429 . S
C1775 C1776 1.523 . S
C1776 C1760 1.368 . S
C1776 C1772 1.368 . S
C1776 C1775 1.523 . S
H1777 C1752 0.950 . S
H1778 C1754 0.950 . S
H1779 C1755 0.949 . S
H1780 C1757 0.950 . S
H1781 C1759 0.950 . S
C1782 C1783 1.349 . S
C1782 C1784 1.327 . S
C1782 H1807 0.950 . S
C1783 C1782 1.349 . S
C1783 C1799 1.349 . S
C1784 C1782 1.327 . S
C1784 C1803 1.429 . S
C1784 H1808 0.950 . S
C1785 C1802 1.574 . S
C1785 C1804 1.368 . S
C1785 H1809 0.949 . S
H1786 C1790 0.949 . S
C1787 C1788 1.349 . S
C1787 C1789 1.327 . S
C1787 H1810 0.950 . S
C1788 C1787 1.349 . S
C1788 C1800 1.349 . S
C1789 C1787 1.327 . S
C1789 C1805 1.429 . S
C1789 H1811 0.950 . S
C1790 H1786 0.949 . S
C1790 C1798 1.574 . S
C1790 C1806 1.368 . S
H1791 C1799 0.950 . S
H1792 C1797 0.950 . S
H1793 C1798 0.949 . S
H1794 C1800 0.950 . S
H1795 C1801 0.950 . S
H1796 C1802 0.949 . S
C1797 H1792 0.950 . S
C1797 C1799 1.327 . S
C1797 C1803 1.429 . S
C1798 C1790 1.574 . S
C1798 H1793 0.949 . S
C1798 C1804 1.368 . S
C1799 C1783 1.349 . S
C1799 H1791 0.950 . S
C1799 C1797 1.327 . S
C1800 C1788 1.349 . S
C1800 H1794 0.950 . S
C1800 C1801 1.327 . S
C1801 H1795 0.950 . S
C1801 C1800 1.327 . S
C1801 C1805 1.429 . S
C1802 C1785 1.574 . S
C1802 H1796 0.949 . S
C1802 C1806 1.368 . S
C1803 C1784 1.429 . S
C1803 C1797 1.429 . S
C1803 C1804 1.523 . S
C1804 C1785 1.368 . S
C1804 C1798 1.368 . S
C1804 C1803 1.523 . S
C1805 C1789 1.429 . S
C1805 C1801 1.429 . S
C1805 C1806 1.523 . S
C1806 C1790 1.368 . S
C1806 C1802 1.368 . S
C1806 C1805 1.523 . S
H1807 C1782 0.950 . S
H1808 C1784 0.950 . S
H1809 C1785 0.949 . S
H1810 C1787 0.950 . S
H1811 C1789 0.950 . S
C1812 C1813 1.349 . S
C1812 C1814 1.327 . S
C1812 H1837 0.950 . S
C1813 C1812 1.349 . S
C1813 C1829 1.349 . S
C1814 C1812 1.327 . S
C1814 C1833 1.429 . S
C1814 H1838 0.950 . S
C1815 C1832 1.574 . S
C1815 C1834 1.368 . S
C1815 H1839 0.949 . S
H1816 C1820 0.949 . S
C1817 C1818 1.349 . S
C1817 C1819 1.327 . S
C1817 H1840 0.950 . S
C1818 C1817 1.349 . S
C1818 C1830 1.349 . S
C1819 C1817 1.327 . S
C1819 C1835 1.429 . S
C1819 H1841 0.950 . S
C1820 H1816 0.949 . S
C1820 C1828 1.574 . S
C1820 C1836 1.368 . S
H1821 C1829 0.950 . S
H1822 C1827 0.950 . S
H1823 C1828 0.949 . S
H1824 C1830 0.950 . S
H1825 C1831 0.950 . S
H1826 C1832 0.949 . S
C1827 H1822 0.950 . S
C1827 C1829 1.327 . S
C1827 C1833 1.429 . S
C1828 C1820 1.574 . S
C1828 H1823 0.949 . S
C1828 C1834 1.368 . S
C1829 C1813 1.349 . S
C1829 H1821 0.950 . S
C1829 C1827 1.327 . S
C1830 C1818 1.349 . S
C1830 H1824 0.950 . S
C1830 C1831 1.327 . S
C1831 H1825 0.950 . S
C1831 C1830 1.327 . S
C1831 C1835 1.429 . S
C1832 C1815 1.574 . S
C1832 H1826 0.949 . S
C1832 C1836 1.368 . S
C1833 C1814 1.429 . S
C1833 C1827 1.429 . S
C1833 C1834 1.523 . S
C1834 C1815 1.368 . S
C1834 C1828 1.368 . S
C1834 C1833 1.523 . S
C1835 C1819 1.429 . S
C1835 C1831 1.429 . S
C1835 C1836 1.523 . S
C1836 C1820 1.368 . S
C1836 C1832 1.368 . S
C1836 C1835 1.523 . S
H1837 C1812 0.950 . S
H1838 C1814 0.950 . S
H1839 C1815 0.949 . S
H1840 C1817 0.950 . S
H1841 C1819 0.950 . S
C1842 C1843 1.349 . S
C1842 C1844 1.327 . S
C1842 H1867 0.950 . S
C1843 C1842 1.349 . S
C1843 C1859 1.349 . S
C1844 C1842 1.327 . S
C1844 C1863 1.429 . S
C1844 H1868 0.950 . S
C1845 C1862 1.574 . S
C1845 C1864 1.368 . S
C1845 H1869 0.949 . S
H1846 C1850 0.949 . S
C1847 C1848 1.349 . S
C1847 C1849 1.327 . S
C1847 H1870 0.950 . S
C1848 C1847 1.349 . S
C1848 C1860 1.349 . S
C1849 C1847 1.327 . S
C1849 C1865 1.429 . S
C1849 H1871 0.950 . S
C1850 H1846 0.949 . S
C1850 C1858 1.574 . S
C1850 C1866 1.368 . S
H1851 C1859 0.950 . S
H1852 C1857 0.950 . S
H1853 C1858 0.949 . S
H1854 C1860 0.950 . S
H1855 C1861 0.950 . S
H1856 C1862 0.949 . S
C1857 H1852 0.950 . S
C1857 C1859 1.327 . S
C1857 C1863 1.429 . S
C1858 C1850 1.574 . S
C1858 H1853 0.949 . S
C1858 C1864 1.368 . S
C1859 C1843 1.349 . S
C1859 H1851 0.950 . S
C1859 C1857 1.327 . S
C1860 C1848 1.349 . S
C1860 H1854 0.950 . S
C1860 C1861 1.327 . S
C1861 H1855 0.950 . S
C1861 C1860 1.327 . S
C1861 C1865 1.429 . S
C1862 C1845 1.574 . S
C1862 H1856 0.949 . S
C1862 C1866 1.368 . S
C1863 C1844 1.429 . S
C1863 C1857 1.429 . S
C1863 C1864 1.523 . S
C1864 C1845 1.368 . S
C1864 C1858 1.368 . S
C1864 C1863 1.523 . S
C1865 C1849 1.429 . S
C1865 C1861 1.429 . S
C1865 C1866 1.523 . S
C1866 C1850 1.368 . S
C1866 C1862 1.368 . S
C1866 C1865 1.523 . S
H1867 C1842 0.950 . S
H1868 C1844 0.950 . S
H1869 C1845 0.949 . S
H1870 C1847 0.950 . S
H1871 C1849 0.950 . S
C1872 C1873 1.349 . S
C1872 C1874 1.327 . S
C1872 H1897 0.950 . S
C1873 C1872 1.349 . S
C1873 C1889 1.349 . S
C1874 C1872 1.327 . S
C1874 C1893 1.429 . S
C1874 H1898 0.950 . S
C1875 C1892 1.574 . S
C1875 C1894 1.368 . S
C1875 H1899 0.949 . S
H1876 C1880 0.949 . S
C1877 C1878 1.349 . S
C1877 C1879 1.327 . S
C1877 H1900 0.950 . S
C1878 C1877 1.349 . S
C1878 C1890 1.349 . S
C1879 C1877 1.327 . S
C1879 C1895 1.429 . S
C1879 H1901 0.950 . S
C1880 H1876 0.949 . S
C1880 C1888 1.574 . S
C1880 C1896 1.368 . S
H1881 C1889 0.950 . S
H1882 C1887 0.950 . S
H1883 C1888 0.949 . S
H1884 C1890 0.950 . S
H1885 C1891 0.950 . S
H1886 C1892 0.949 . S
C1887 H1882 0.950 . S
C1887 C1889 1.327 . S
C1887 C1893 1.429 . S
C1888 C1880 1.574 . S
C1888 H1883 0.949 . S
C1888 C1894 1.368 . S
C1889 C1873 1.349 . S
C1889 H1881 0.950 . S
C1889 C1887 1.327 . S
C1890 C1878 1.349 . S
C1890 H1884 0.950 . S
C1890 C1891 1.327 . S
C1891 H1885 0.950 . S
C1891 C1890 1.327 . S
C1891 C1895 1.429 . S
C1892 C1875 1.574 . S
C1892 H1886 0.949 . S
C1892 C1896 1.368 . S
C1893 C1874 1.429 . S
C1893 C1887 1.429 . S
C1893 C1894 1.523 . S
C1894 C1875 1.368 . S
C1894 C1888 1.368 . S
C1894 C1893 1.523 . S
C1895 C1879 1.429 . S
C1895 C1891 1.429 . S
C1895 C1896 1.523 . S
C1896 C1880 1.368 . S
C1896 C1892 1.368 . S
C1896 C1895 1.523 . S
H1897 C1872 0.950 . S
H1898 C1874 0.950 . S
H1899 C1875 0.949 . S
H1900 C1877 0.950 . S
H1901 C1879 0.950 . S
C1902 C1903 1.349 . S
C1902 C1904 1.327 . S
C1902 H1927 0.950 . S
C1903 C1902 1.349 . S
C1903 C1919 1.349 . S
C1904 C1902 1.327 . S
C1904 C1923 1.429 . S
C1904 H1928 0.950 . S
C1905 C1922 1.574 . S
C1905 C1924 1.368 . S
C1905 H1929 0.949 . S
H1906 C1910 0.949 . S
C1907 C1908 1.349 . S
C1907 C1909 1.327 . S
C1907 H1930 0.950 . S
C1908 C1907 1.349 . S
C1908 C1920 1.349 . S
C1909 C1907 1.327 . S
C1909 C1925 1.429 . S
C1909 H1931 0.950 . S
C1910 H1906 0.949 . S
C1910 C1918 1.574 . S
C1910 C1926 1.368 . S
H1911 C1919 0.950 . S
H1912 C1917 0.950 . S
H1913 C1918 0.949 . S
H1914 C1920 0.950 . S
H1915 C1921 0.950 . S
H1916 C1922 0.949 . S
C1917 H1912 0.950 . S
C1917 C1919 1.327 . S
C1917 C1923 1.429 . S
C1918 C1910 1.574 . S
C1918 H1913 0.949 . S
C1918 C1924 1.368 . S
C1919 C1903 1.349 . S
C1919 H1911 0.950 . S
C1919 C1917 1.327 . S
C1920 C1908 1.349 . S
C1920 H1914 0.950 . S
C1920 C1921 1.327 . S
C1921 H1915 0.950 . S
C1921 C1920 1.327 . S
C1921 C1925 1.429 . S
C1922 C1905 1.574 . S
C1922 H1916 0.949 . S
C1922 C1926 1.368 . S
C1923 C1904 1.429 . S
C1923 C1917 1.429 . S
C1923 C1924 1.523 . S
C1924 C1905 1.368 . S
C1924 C1918 1.368 . S
C1924 C1923 1.523 . S
C1925 C1909 1.429 . S
C1925 C1921 1.429 . S
C1925 C1926 1.523 . S
C1926 C1910 1.368 . S
C1926 C1922 1.368 . S
C1926 C1925 1.523 . S
H1927 C1902 0.950 . S
H1928 C1904 0.950 . S
H1929 C1905 0.949 . S
H1930 C1907 0.950 . S
H1931 C1909 0.950 . S
C1932 C1933 1.349 . S
C1932 C1934 1.327 . S
C1932 H1957 0.950 . S
C1933 C1932 1.349 . S
C1933 C1949 1.349 . S
C1934 C1932 1.327 . S
C1934 C1953 1.429 . S
C1934 H1958 0.950 . S
C1935 C1952 1.574 . S
C1935 C1954 1.368 . S
C1935 H1959 0.949 . S
H1936 C1940 0.949 . S
C1937 C1938 1.349 . S
C1937 C1939 1.327 . S
C1937 H1960 0.950 . S
C1938 C1937 1.349 . S
C1938 C1950 1.349 . S
C1939 C1937 1.327 . S
C1939 C1955 1.429 . S
C1939 H1961 0.950 . S
C1940 H1936 0.949 . S
C1940 C1948 1.574 . S
C1940 C1956 1.368 . S
H1941 C1949 0.950 . S
H1942 C1947 0.950 . S
H1943 C1948 0.949 . S
H1944 C1950 0.950 . S
H1945 C1951 0.950 . S
H1946 C1952 0.949 . S
C1947 H1942 0.950 . S
C1947 C1949 1.327 . S
C1947 C1953 1.429 . S
C1948 C1940 1.574 . S
C1948 H1943 0.949 . S
C1948 C1954 1.368 . S
C1949 C1933 1.349 . S
C1949 H1941 0.950 . S
C1949 C1947 1.327 . S
C1950 C1938 1.349 . S
C1950 H1944 0.950 . S
C1950 C1951 1.327 . S
C1951 H1945 0.950 . S
C1951 C1950 1.327 . S
C1951 C1955 1.429 . S
C1952 C1935 1.574 . S
C1952 H1946 0.949 . S
C1952 C1956 1.368 . S
C1953 C1934 1.429 . S
C1953 C1947 1.429 . S
C1953 C1954 1.523 . S
C1954 C1935 1.368 . S
C1954 C1948 1.368 . S
C1954 C1953 1.523 . S
C1955 C1939 1.429 . S
C1955 C1951 1.429 . S
C1955 C1956 1.523 . S
C1956 C1940 1.368 . S
C1956 C1952 1.368 . S
C1956 C1955 1.523 . S
H1957 C1932 0.950 . S
H1958 C1934 0.950 . S
H1959 C1935 0.949 . S
H1960 C1937 0.950 . S
H1961 C1939 0.950 . S
C1962 C1963 1.349 . S
C1962 C1964 1.327 . S
C1962 H1987 0.950 . S
C1963 C1962 1.349 . S
C1963 C1979 1.349 . S
C1964 C1962 1.327 . S
C1964 C1983 1.429 . S
C1964 H1988 0.950 . S
C1965 C1982 1.574 . S
C1965 C1984 1.368 . S
C1965 H1989 0.949 . S
H1966 C1970 0.949 . S
C1967 C1968 1.349 . S
C1967 C1969 1.327 . S
C1967 H1990 0.950 . S
C1968 C1967 1.349 . S
C1968 C1980 1.349 . S
C1969 C1967 1.327 . S
C1969 C1985 1.429 . S
C1969 H1991 0.950 . S
C1970 H1966 0.949 . S
C1970 C1978 1.574 . S
C1970 C1986 1.368 . S
H1971 C1979 0.950 . S
H1972 C1977 0.950 . S
H1973 C1978 0.949 . S
H1974 C1980 0.950 . S
H1975 C1981 0.950 . S
H1976 C1982 0.949 . S
C1977 H1972 0.950 . S
C1977 C1979 1.327 . S
C1977 C1983 1.429 . S
C1978 C1970 1.574 . S
C1978 H1973 0.949 . S
C1978 C1984 1.368 . S
C1979 C1963 1.349 . S
C1979 H1971 0.950 . S
C1979 C1977 1.327 . S
C1980 C1968 1.349 . S
C1980 H1974 0.950 . S
C1980 C1981 1.327 . S
C1981 H1975 0.950 . S
C1981 C1980 1.327 . S
C1981 C1985 1.429 . S
C1982 C1965 1.574 . S
C1982 H1976 0.949 . S
C1982 C1986 1.368 . S
C1983 C1964 1.429 . S
C1983 C1977 1.429 . S
C1983 C1984 1.523 . S
C1984 C1965 1.368 . S
C1984 C1978 1.368 . S
C1984 C1983 1.523 . S
C1985 C1969 1.429 . S
C1985 C1981 1.429 . S
C1985 C1986 1.523 . S
C1986 C1970 1.368 . S
C1986 C1982 1.368 . S
C1986 C1985 1.523 . S
H1987 C1962 0.950 . S
H1988 C1964 0.950 . S
H1989 C1965 0.949 . S
H1990 C1967 0.950 . S
H1991 C1969 0.950 . S
C1992 C1993 1.349 . S
C1992 C1994 1.327 . S
C1992 H2017 0.950 . S
C1993 C1992 1.349 . S
C1993 C2009 1.349 . S
C1994 C1992 1.327 . S
C1994 C2013 1.429 . S
C1994 H2018 0.950 . S
C1995 C2012 1.574 . S
C1995 C2014 1.368 . S
C1995 H2019 0.949 . S
H1996 C2000 0.949 . S
C1997 C1998 1.349 . S
C1997 C1999 1.327 . S
C1997 H2020 0.950 . S
C1998 C1997 1.349 . S
C1998 C2010 1.349 . S
C1999 C1997 1.327 . S
C1999 C2015 1.429 . S
C1999 H2021 0.950 . S
C2000 H1996 0.949 . S
C2000 C2008 1.574 . S
C2000 C2016 1.368 . S
H2001 C2009 0.950 . S
H2002 C2007 0.950 . S
H2003 C2008 0.949 . S
H2004 C2010 0.950 . S
H2005 C2011 0.950 . S
H2006 C2012 0.949 . S
C2007 H2002 0.950 . S
C2007 C2009 1.327 . S
C2007 C2013 1.429 . S
C2008 C2000 1.574 . S
C2008 H2003 0.949 . S
C2008 C2014 1.368 . S
C2009 C1993 1.349 . S
C2009 H2001 0.950 . S
C2009 C2007 1.327 . S
C2010 C1998 1.349 . S
C2010 H2004 0.950 . S
C2010 C2011 1.327 . S
C2011 H2005 0.950 . S
C2011 C2010 1.327 . S
C2011 C2015 1.429 . S
C2012 C1995 1.574 . S
C2012 H2006 0.949 . S
C2012 C2016 1.368 . S
C2013 C1994 1.429 . S
C2013 C2007 1.429 . S
C2013 C2014 1.523 . S
C2014 C1995 1.368 . S
C2014 C2008 1.368 . S
C2014 C2013 1.523 . S
C2015 C1999 1.429 . S
C2015 C2011 1.429 . S
C2015 C2016 1.523 . S
C2016 C2000 1.368 . S
C2016 C2012 1.368 . S
C2016 C2015 1.523 . S
H2017 C1992 0.950 . S
H2018 C1994 0.950 . S
H2019 C1995 0.949 . S
H2020 C1997 0.950 . S
H2021 C1999 0.950 . S
C2022 C2023 1.349 . S
C2022 C2024 1.327 . S
C2022 H2047 0.950 . S
C2023 C2022 1.349 . S
C2023 C2039 1.349 . S
C2024 C2022 1.327 . S
C2024 C2043 1.429 . S
C2024 H2048 0.950 . S
C2025 C2042 1.574 . S
C2025 C2044 1.368 . S
C2025 H2049 0.949 . S
H2026 C2030 0.949 . S
C2027 C2028 1.349 . S
C2027 C2029 1.327 . S
C2027 H2050 0.950 . S
C2028 C2027 1.349 . S
C2028 C2040 1.349 . S
C2029 C2027 1.327 . S
C2029 C2045 1.429 . S
C2029 H2051 0.950 . S
C2030 H2026 0.949 . S
C2030 C2038 1.574 . S
C2030 C2046 1.368 . S
H2031 C2039 0.950 . S
H2032 C2037 0.950 . S
H2033 C2038 0.949 . S
H2034 C2040 0.950 . S
H2035 C2041 0.950 . S
H2036 C2042 0.949 . S
C2037 H2032 0.950 . S
C2037 C2039 1.327 . S
C2037 C2043 1.429 . S
C2038 C2030 1.574 . S
C2038 H2033 0.949 . S
C2038 C2044 1.368 . S
C2039 C2023 1.349 . S
C2039 H2031 0.950 . S
C2039 C2037 1.327 . S
C2040 C2028 1.349 . S
C2040 H2034 0.950 . S
C2040 C2041 1.327 . S
C2041 H2035 0.950 . S
C2041 C2040 1.327 . S
C2041 C2045 1.429 . S
C2042 C2025 1.574 . S
C2042 H2036 0.949 . S
C2042 C2046 1.368 . S
C2043 C2024 1.429 . S
C2043 C2037 1.429 . S
C2043 C2044 1.523 . S
C2044 C2025 1.368 . S
C2044 C2038 1.368 . S
C2044 C2043 1.523 . S
C2045 C2029 1.429 . S
C2045 C2041 1.429 . S
C2045 C2046 1.523 . S
C2046 C2030 1.368 . S
C2046 C2042 1.368 . S
C2046 C2045 1.523 . S
H2047 C2022 0.950 . S
H2048 C2024 0.950 . S
H2049 C2025 0.949 . S
H2050 C2027 0.950 . S
H2051 C2029 0.950 . S
C2052 C2053 1.349 . S
C2052 C2054 1.327 . S
C2052 H2077 0.950 . S
C2053 C2052 1.349 . S
C2053 C2069 1.349 . S
C2054 C2052 1.327 . S
C2054 C2073 1.429 . S
C2054 H2078 0.950 . S
C2055 C2072 1.574 . S
C2055 C2074 1.368 . S
C2055 H2079 0.949 . S
H2056 C2060 0.949 . S
C2057 C2058 1.349 . S
C2057 C2059 1.327 . S
C2057 H2080 0.950 . S
C2058 C2057 1.349 . S
C2058 C2070 1.349 . S
C2059 C2057 1.327 . S
C2059 C2075 1.429 . S
C2059 H2081 0.950 . S
C2060 H2056 0.949 . S
C2060 C2068 1.574 . S
C2060 C2076 1.368 . S
H2061 C2069 0.950 . S
H2062 C2067 0.950 . S
H2063 C2068 0.949 . S
H2064 C2070 0.950 . S
H2065 C2071 0.950 . S
H2066 C2072 0.949 . S
C2067 H2062 0.950 . S
C2067 C2069 1.327 . S
C2067 C2073 1.429 . S
C2068 C2060 1.574 . S
C2068 H2063 0.949 . S
C2068 C2074 1.368 . S
C2069 C2053 1.349 . S
C2069 H2061 0.950 . S
C2069 C2067 1.327 . S
C2070 C2058 1.349 . S
C2070 H2064 0.950 . S
C2070 C2071 1.327 . S
C2071 H2065 0.950 . S
C2071 C2070 1.327 . S
C2071 C2075 1.429 . S
C2072 C2055 1.574 . S
C2072 H2066 0.949 . S
C2072 C2076 1.368 . S
C2073 C2054 1.429 . S
C2073 C2067 1.429 . S
C2073 C2074 1.523 . S
C2074 C2055 1.368 . S
C2074 C2068 1.368 . S
C2074 C2073 1.523 . S
C2075 C2059 1.429 . S
C2075 C2071 1.429 . S
C2075 C2076 1.523 . S
C2076 C2060 1.368 . S
C2076 C2072 1.368 . S
C2076 C2075 1.523 . S
H2077 C2052 0.950 . S
H2078 C2054 0.950 . S
H2079 C2055 0.949 . S
H2080 C2057 0.950 . S
H2081 C2059 0.950 . S
C2082 C2083 1.349 . S
C2082 C2084 1.327 . S
C2082 H2107 0.950 . S
C2083 C2082 1.349 . S
C2083 C2099 1.349 . S
C2084 C2082 1.327 . S
C2084 C2103 1.429 . S
C2084 H2108 0.950 . S
C2085 C2102 1.574 . S
C2085 C2104 1.368 . S
C2085 H2109 0.949 . S
H2086 C2090 0.949 . S
C2087 C2088 1.349 . S
C2087 C2089 1.327 . S
C2087 H2110 0.950 . S
C2088 C2087 1.349 . S
C2088 C2100 1.349 . S
C2089 C2087 1.327 . S
C2089 C2105 1.429 . S
C2089 H2111 0.950 . S
C2090 H2086 0.949 . S
C2090 C2098 1.574 . S
C2090 C2106 1.368 . S
H2091 C2099 0.950 . S
H2092 C2097 0.950 . S
H2093 C2098 0.949 . S
H2094 C2100 0.950 . S
H2095 C2101 0.950 . S
H2096 C2102 0.949 . S
C2097 H2092 0.950 . S
C2097 C2099 1.327 . S
C2097 C2103 1.429 . S
C2098 C2090 1.574 . S
C2098 H2093 0.949 . S
C2098 C2104 1.368 . S
C2099 C2083 1.349 . S
C2099 H2091 0.950 . S
C2099 C2097 1.327 . S
C2100 C2088 1.349 . S
C2100 H2094 0.950 . S
C2100 C2101 1.327 . S
C2101 H2095 0.950 . S
C2101 C2100 1.327 . S
C2101 C2105 1.429 . S
C2102 C2085 1.574 . S
C2102 H2096 0.949 . S
C2102 C2106 1.368 . S
C2103 C2084 1.429 . S
C2103 C2097 1.429 . S
C2103 C2104 1.523 . S
C2104 C2085 1.368 . S
C2104 C2098 1.368 . S
C2104 C2103 1.523 . S
C2105 C2089 1.429 . S
C2105 C2101 1.429 . S
C2105 C2106 1.523 . S
C2106 C2090 1.368 . S
C2106 C2102 1.368 . S
C2106 C2105 1.523 . S
H2107 C2082 0.950 . S
H2108 C2084 0.950 . S
H2109 C2085 0.949 . S
H2110 C2087 0.950 . S
H2111 C2089 0.950 . S
C2112 C2113 1.349 . S
C2112 C2114 1.327 . S
C2112 H2137 0.950 . S
C2113 C2112 1.349 . S
C2113 C2129 1.349 . S
C2114 C2112 1.327 . S
C2114 C2133 1.429 . S
C2114 H2138 0.950 . S
C2115 C2132 1.574 . S
C2115 C2134 1.368 . S
C2115 H2139 0.949 . S
H2116 C2120 0.949 . S
C2117 C2118 1.349 . S
C2117 C2119 1.327 . S
C2117 H2140 0.950 . S
C2118 C2117 1.349 . S
C2118 C2130 1.349 . S
C2119 C2117 1.327 . S
C2119 C2135 1.429 . S
C2119 H2141 0.950 . S
C2120 H2116 0.949 . S
C2120 C2128 1.574 . S
C2120 C2136 1.368 . S
H2121 C2129 0.950 . S
H2122 C2127 0.950 . S
H2123 C2128 0.949 . S
H2124 C2130 0.950 . S
H2125 C2131 0.950 . S
H2126 C2132 0.949 . S
C2127 H2122 0.950 . S
C2127 C2129 1.327 . S
C2127 C2133 1.429 . S
C2128 C2120 1.574 . S
C2128 H2123 0.949 . S
C2128 C2134 1.368 . S
C2129 C2113 1.349 . S
C2129 H2121 0.950 . S
C2129 C2127 1.327 . S
C2130 C2118 1.349 . S
C2130 H2124 0.950 . S
C2130 C2131 1.327 . S
C2131 H2125 0.950 . S
C2131 C2130 1.327 . S
C2131 C2135 1.429 . S
C2132 C2115 1.574 . S
C2132 H2126 0.949 . S
C2132 C2136 1.368 . S
C2133 C2114 1.429 . S
C2133 C2127 1.429 . S
C2133 C2134 1.523 . S
C2134 C2115 1.368 . S
C2134 C2128 1.368 . S
C2134 C2133 1.523 . S
C2135 C2119 1.429 . S
C2135 C2131 1.429 . S
C2135 C2136 1.523 . S
C2136 C2120 1.368 . S
C2136 C2132 1.368 . S
C2136 C2135 1.523 . S
H2137 C2112 0.950 . S
H2138 C2114 0.950 . S
H2139 C2115 0.949 . S
H2140 C2117 0.950 . S
H2141 C2119 0.950 . S
C2142 C2143 1.349 . S
C2142 C2144 1.327 . S
C2142 H2167 0.950 . S
C2143 C2142 1.349 . S
C2143 C2159 1.349 . S
C2144 C2142 1.327 . S
C2144 C2163 1.429 . S
C2144 H2168 0.950 . S
C2145 C2162 1.574 . S
C2145 C2164 1.368 . S
C2145 H2169 0.949 . S
H2146 C2150 0.949 . S
C2147 C2148 1.349 . S
C2147 C2149 1.327 . S
C2147 H2170 0.950 . S
C2148 C2147 1.349 . S
C2148 C2160 1.349 . S
C2149 C2147 1.327 . S
C2149 C2165 1.429 . S
C2149 H2171 0.950 . S
C2150 H2146 0.949 . S
C2150 C2158 1.574 . S
C2150 C2166 1.368 . S
H2151 C2159 0.950 . S
H2152 C2157 0.950 . S
H2153 C2158 0.949 . S
H2154 C2160 0.950 . S
H2155 C2161 0.950 . S
H2156 C2162 0.949 . S
C2157 H2152 0.950 . S
C2157 C2159 1.327 . S
C2157 C2163 1.429 . S
C2158 C2150 1.574 . S
C2158 H2153 0.949 . S
C2158 C2164 1.368 . S
C2159 C2143 1.349 . S
C2159 H2151 0.950 . S
C2159 C2157 1.327 . S
C2160 C2148 1.349 . S
C2160 H2154 0.950 . S
C2160 C2161 1.327 . S
C2161 H2155 0.950 . S
C2161 C2160 1.327 . S
C2161 C2165 1.429 . S
C2162 C2145 1.574 . S
C2162 H2156 0.949 . S
C2162 C2166 1.368 . S
C2163 C2144 1.429 . S
C2163 C2157 1.429 . S
C2163 C2164 1.523 . S
C2164 C2145 1.368 . S
C2164 C2158 1.368 . S
C2164 C2163 1.523 . S
C2165 C2149 1.429 . S
C2165 C2161 1.429 . S
C2165 C2166 1.523 . S
C2166 C2150 1.368 . S
C2166 C2162 1.368 . S
C2166 C2165 1.523 . S
H2167 C2142 0.950 . S
H2168 C2144 0.950 . S
H2169 C2145 0.949 . S
H2170 C2147 0.950 . S
H2171 C2149 0.950 . S
C2172 C2173 1.349 . S
C2172 C2174 1.327 . S
C2172 H2197 0.950 . S
C2173 C2172 1.349 . S
C2173 C2189 1.349 . S
C2174 C2172 1.327 . S
C2174 C2193 1.429 . S
C2174 H2198 0.950 . S
C2175 C2192 1.574 . S
C2175 C2194 1.368 . S
C2175 H2199 0.949 . S
H2176 C2180 0.949 . S
C2177 C2178 1.349 . S
C2177 C2179 1.327 . S
C2177 H2200 0.950 . S
C2178 C2177 1.349 . S
C2178 C2190 1.349 . S
C2179 C2177 1.327 . S
C2179 C2195 1.429 . S
C2179 H2201 0.950 . S
C2180 H2176 0.949 . S
C2180 C2188 1.574 . S
C2180 C2196 1.368 . S
H2181 C2189 0.950 . S
H2182 C2187 0.950 . S
H2183 C2188 0.949 . S
H2184 C2190 0.950 . S
H2185 C2191 0.950 . S
H2186 C2192 0.949 . S
C2187 H2182 0.950 . S
C2187 C2189 1.327 . S
C2187 C2193 1.429 . S
C2188 C2180 1.574 . S
C2188 H2183 0.949 . S
C2188 C2194 1.368 . S
C2189 C2173 1.349 . S
C2189 H2181 0.950 . S
C2189 C2187 1.327 . S
C2190 C2178 1.349 . S
C2190 H2184 0.950 . S
C2190 C2191 1.327 . S
C2191 H2185 0.950 . S
C2191 C2190 1.327 . S
C2191 C2195 1.429 . S
C2192 C2175 1.574 . S
C2192 H2186 0.949 . S
C2192 C2196 1.368 . S
C2193 C2174 1.429 . S
C2193 C2187 1.429 . S
C2193 C2194 1.523 . S
C2194 C2175 1.368 . S
C2194 C2188 1.368 . S
C2194 C2193 1.523 . S
C2195 C2179 1.429 . S
C2195 C2191 1.429 . S
C2195 C2196 1.523 . S
C2196 C2180 1.368 . S
C2196 C2192 1.368 . S
C2196 C2195 1.523 . S
H2197 C2172 0.950 . S
H2198 C2174 0.950 . S
H2199 C2175 0.949 . S
H2200 C2177 0.950 . S
H2201 C2179 0.950 . S
C2202 C2203 1.349 . S
C2202 C2204 1.327 . S
C2202 H2227 0.950 . S
C2203 C2202 1.349 . S
C2203 C2219 1.349 . S
C2204 C2202 1.327 . S
C2204 C2223 1.429 . S
C2204 H2228 0.950 . S
C2205 C2222 1.574 . S
C2205 C2224 1.368 . S
C2205 H2229 0.949 . S
H2206 C2210 0.949 . S
C2207 C2208 1.349 . S
C2207 C2209 1.327 . S
C2207 H2230 0.950 . S
C2208 C2207 1.349 . S
C2208 C2220 1.349 . S
C2209 C2207 1.327 . S
C2209 C2225 1.429 . S
C2209 H2231 0.950 . S
C2210 H2206 0.949 . S
C2210 C2218 1.574 . S
C2210 C2226 1.368 . S
H2211 C2219 0.950 . S
H2212 C2217 0.950 . S
H2213 C2218 0.949 . S
H2214 C2220 0.950 . S
H2215 C2221 0.950 . S
H2216 C2222 0.949 . S
C2217 H2212 0.950 . S
C2217 C2219 1.327 . S
C2217 C2223 1.429 . S
C2218 C2210 1.574 . S
C2218 H2213 0.949 . S
C2218 C2224 1.368 . S
C2219 C2203 1.349 . S
C2219 H2211 0.950 . S
C2219 C2217 1.327 . S
C2220 C2208 1.349 . S
C2220 H2214 0.950 . S
C2220 C2221 1.327 . S
C2221 H2215 0.950 . S
C2221 C2220 1.327 . S
C2221 C2225 1.429 . S
C2222 C2205 1.574 . S
C2222 H2216 0.949 . S
C2222 C2226 1.368 . S
C2223 C2204 1.429 . S
C2223 C2217 1.429 . S
C2223 C2224 1.523 . S
C2224 C2205 1.368 . S
C2224 C2218 1.368 . S
C2224 C2223 1.523 . S
C2225 C2209 1.429 . S
C2225 C2221 1.429 . S
C2225 C2226 1.523 . S
C2226 C2210 1.368 . S
C2226 C2222 1.368 . S
C2226 C2225 1.523 . S
H2227 C2202 0.950 . S
H2228 C2204 0.950 . S
H2229 C2205 0.949 . S
H2230 C2207 0.950 . S
H2231 C2209 0.950 . S
C2232 C2233 1.349 . S
C2232 C2234 1.327 . S
C2232 H2257 0.950 . S
C2233 C2232 1.349 . S
C2233 C2249 1.349 . S
C2234 C2232 1.327 . S
C2234 C2253 1.429 . S
C2234 H2258 0.950 . S
C2235 C2252 1.574 . S
C2235 C2254 1.368 . S
C2235 H2259 0.949 . S
H2236 C2240 0.949 . S
C2237 C2238 1.349 . S
C2237 C2239 1.327 . S
C2237 H2260 0.950 . S
C2238 C2237 1.349 . S
C2238 C2250 1.349 . S
C2239 C2237 1.327 . S
C2239 C2255 1.429 . S
C2239 H2261 0.950 . S
C2240 H2236 0.949 . S
C2240 C2248 1.574 . S
C2240 C2256 1.368 . S
H2241 C2249 0.950 . S
H2242 C2247 0.950 . S
H2243 C2248 0.949 . S
H2244 C2250 0.950 . S
H2245 C2251 0.950 . S
H2246 C2252 0.949 . S
C2247 H2242 0.950 . S
C2247 C2249 1.327 . S
C2247 C2253 1.429 . S
C2248 C2240 1.574 . S
C2248 H2243 0.949 . S
C2248 C2254 1.368 . S
C2249 C2233 1.349 . S
C2249 H2241 0.950 . S
C2249 C2247 1.327 . S
C2250 C2238 1.349 . S
C2250 H2244 0.950 . S
C2250 C2251 1.327 . S
C2251 H2245 0.950 . S
C2251 C2250 1.327 . S
C2251 C2255 1.429 . S
C2252 C2235 1.574 . S
C2252 H2246 0.949 . S
C2252 C2256 1.368 . S
C2253 C2234 1.429 . S
C2253 C2247 1.429 . S
C2253 C2254 1.523 . S
C2254 C2235 1.368 . S
C2254 C2248 1.368 . S
C2254 C2253 1.523 . S
C2255 C2239 1.429 . S
C2255 C2251 1.429 . S
C2255 C2256 1.523 . S
C2256 C2240 1.368 . S
C2256 C2252 1.368 . S
C2256 C2255 1.523 . S
H2257 C2232 0.950 . S
H2258 C2234 0.950 . S
H2259 C2235 0.949 . S
H2260 C2237 0.950 . S
H2261 C2239 0.950 . S
C2262 C2263 1.349 . S
C2262 C2264 1.327 . S
C2262 H2287 0.950 . S
C2263 C2262 1.349 . S
C2263 C2279 1.349 . S
C2264 C2262 1.327 . S
C2264 C2283 1.429 . S
C2264 H2288 0.950 . S
C2265 C2282 1.574 . S
C2265 C2284 1.368 . S
C2265 H2289 0.949 . S
H2266 C2270 0.949 . S
C2267 C2268 1.349 . S
C2267 C2269 1.327 . S
C2267 H2290 0.950 . S
C2268 C2267 1.349 . S
C2268 C2280 1.349 . S
C2269 C2267 1.327 . S
C2269 C2285 1.429 . S
C2269 H2291 0.950 . S
C2270 H2266 0.949 . S
C2270 C2278 1.574 . S
C2270 C2286 1.368 . S
H2271 C2279 0.950 . S
H2272 C2277 0.950 . S
H2273 C2278 0.949 . S
H2274 C2280 0.950 . S
H2275 C2281 0.950 . S
H2276 C2282 0.949 . S
C2277 H2272 0.950 . S
C2277 C2279 1.327 . S
C2277 C2283 1.429 . S
C2278 C2270 1.574 . S
C2278 H2273 0.949 . S
C2278 C2284 1.368 . S
C2279 C2263 1.349 . S
C2279 H2271 0.950 . S
C2279 C2277 1.327 . S
C2280 C2268 1.349 . S
C2280 H2274 0.950 . S
C2280 C2281 1.327 . S
C2281 H2275 0.950 . S
C2281 C2280 1.327 . S
C2281 C2285 1.429 . S
C2282 C2265 1.574 . S
C2282 H2276 0.949 . S
C2282 C2286 1.368 . S
C2283 C2264 1.429 . S
C2283 C2277 1.429 . S
C2283 C2284 1.523 . S
C2284 C2265 1.368 . S
C2284 C2278 1.368 . S
C2284 C2283 1.523 . S
C2285 C2269 1.429 . S
C2285 C2281 1.429 . S
C2285 C2286 1.523 . S
C2286 C2270 1.368 . S
C2286 C2282 1.368 . S
C2286 C2285 1.523 . S
H2287 C2262 0.950 . S
H2288 C2264 0.950 . S
H2289 C2265 0.949 . S
H2290 C2267 0.950 . S
H2291 C2269 0.950 . S
C2292 C2293 1.349 . S
C2292 C2294 1.327 . S
C2292 H2317 0.950 . S
C2293 C2292 1.349 . S
C2293 C2309 1.349 . S
C2294 C2292 1.327 . S
C2294 C2313 1.429 . S
C2294 H2318 0.950 . S
C2295 C2312 1.574 . S
C2295 C2314 1.368 . S
C2295 H2319 0.949 . S
H2296 C2300 0.949 . S
C2297 C2298 1.349 . S
C2297 C2299 1.327 . S
C2297 H2320 0.950 . S
C2298 C2297 1.349 . S
C2298 C2310 1.349 . S
C2299 C2297 1.327 . S
C2299 C2315 1.429 . S
C2299 H2321 0.950 . S
C2300 H2296 0.949 . S
C2300 C2308 1.574 . S
C2300 C2316 1.368 . S
H2301 C2309 0.950 . S
H2302 C2307 0.950 . S
H2303 C2308 0.949 . S
H2304 C2310 0.950 . S
H2305 C2311 0.950 . S
H2306 C2312 0.949 . S
C2307 H2302 0.950 . S
C2307 C2309 1.327 . S
C2307 C2313 1.429 . S
C2308 C2300 1.574 . S
C2308 H2303 0.949 . S
C2308 C2314 1.368 . S
C2309 C2293 1.349 . S
C2309 H2301 0.950 . S
C2309 C2307 1.327 . S
C2310 C2298 1.349 . S
C2310 H2304 0.950 . S
C2310 C2311 1.327 . S
C2311 H2305 0.950 . S
C2311 C2310 1.327 . S
C2311 C2315 1.429 . S
C2312 C2295 1.574 . S
C2312 H2306 0.949 . S
C2312 C2316 1.368 . S
C2313 C2294 1.429 . S
C2313 C2307 1.429 . S
C2313 C2314 1.523 . S
C2314 C2295 1.368 . S
C2314 C2308 1.368 . S
C2314 C2313 1.523 . S
C2315 C2299 1.429 . S
C2315 C2311 1.429 . S
C2315 C2316 1.523 . S
C2316 C2300 1.368 . S
C2316 C2312 1.368 . S
C2316 C2315 1.523 . S
H2317 C2292 0.950 . S
H2318 C2294 0.950 . S
H2319 C2295 0.949 . S
H2320 C2297 0.950 . S
H2321 C2299 0.950 . S
C703 C253 1.760 . S
C708 C345 1.772 . S
C733 C272 1.907 . S
C738 C385 1.902 . S
C763 C234 1.629 . S
C768 C437 1.617 . S
C793 C215 1.465 . S
C798 C397 1.444 1_556 S
C828 C425 1.549 1_556 S
C823 C177 1.554 . S
C853 C196 1.355 . S
C858 C357 1.351 . S
C888 C364 1.737 . S
C883 C220 1.570 . S
C918 C404 1.695 . S
C913 C182 1.586 . S
C943 C201 1.653 . S
C948 C424 1.769 . S
C973 C258 1.433 . S
C978 C384 1.533 . S
C1003 C277 1.316 . S
C1008 C444 1.443 . S
C1038 C344 1.512 . S
C1033 C239 1.384 . S
C1068 C465 1.773 . S
C1063 C25 1.760 . S
C1093 C44 1.906 . S
C1098 C505 1.902 . S
C1123 C6 1.629 . S
C1128 C557 1.617 . S
C1153 C329 1.465 . S
C1158 C517 1.443 . S
C1183 C291 1.554 . S
C1188 C545 1.549 . S
C1213 C310 1.355 . S
C1218 C477 1.352 . S
C1243 C334 1.570 . S
C1248 C484 1.729 . S
C1273 C296 1.586 . S
C1278 C524 1.695 . S
C1308 C544 1.769 . S
C1303 C315 1.655 . S
C1333 C30 1.433 . S
C1338 C504 1.533 . S
C1368 C564 1.443 . S
C1363 C49 1.317 . S
C1393 C11 1.384 . S
C1398 C464 1.512 . S
C1428 C585 1.773 . S
C1423 C139 1.760 . S
C1453 C158 1.907 . S
C1458 C625 1.902 . S
C1488 C677 1.617 . S
C1483 C120 1.628 . S
C1518 C637 1.444 . S
C1513 C101 1.466 . S
C1548 C665 1.549 . S
C1543 C63 1.554 . S
C1573 C82 1.355 . S
C1578 C597 1.352 . S
C1603 C106 1.570 . S
C1608 C604 1.730 . S
C1633 C68 1.586 . S
C1638 C644 1.695 . S
C1668 C664 1.769 . S
C1663 C87 1.655 . S
C1693 C144 1.433 . S
C1698 C624 1.533 . S
C1723 C163 1.316 . S
C1728 C684 1.443 . S
C1753 C125 1.384 . S
C1758 C584 1.512 . S
C1783 C287 1.512 . S
C1788 C368 1.491 . S
C1818 C408 2.126 . S
C1813 C306 2.154 . S
C1843 C325 1.641 . S
C1848 C431 1.672 . S
C1873 C116 1.922 . S
C1878 C391 1.941 . S
C1903 C135 1.834 . S
C1908 C448 1.818 . S
C1938 C351 1.278 . S
C1933 C154 1.257 . S
C1963 C59 1.512 . S
C1968 C488 1.491 . S
C1993 C78 2.154 . S
C1998 C528 2.126 . S
C2023 C97 1.641 . S
C2028 C551 1.672 . S
C2053 C230 1.922 . S
C2058 C511 1.941 . S
C2088 C568 1.818 . S
C2083 C249 1.834 . S
C2113 C268 1.257 . S
C2118 C471 1.278 . S
C2143 C173 1.512 . S
C2148 C608 1.491 . S
C2173 C192 2.154 . S
C2178 C648 2.126 . S
C2208 C671 1.672 . S
C2203 C211 1.641 . S
C2233 C2 1.922 . S
C2238 C631 1.941 . S
C2263 C21 1.834 . S
C2268 C688 1.818 . S
C2293 C40 1.257 . S
C2298 C591 1.278 . S
