# Generated by pormake.
# Topology wbl, (4,4)-cn, num edge types: 1
# Building blocks:
#     Node 0, Type 0, BuildingBlock: NAWXER_clean_linker_0, # of connection points: 4
#     Node 1, Type 0, BuildingBlock: NAWXER_clean_linker_0, # of connection points: 4
#     Node 2, Type 0, BuildingBlock: NAWXER_clean_linker_0, # of connection points: 4
#     Node 3, Type 0, BuildingBlock: NAWXER_clean_linker_0, # of connection points: 4
#     Node 4, Type 0, BuildingBlock: NAWXER_clean_linker_0, # of connection points: 4
#     Node 5, Type 0, BuildingBlock: NAWXER_clean_linker_0, # of connection points: 4
#     Node 6, Type 0, BuildingBlock: NAWXER_clean_linker_0, # of connection points: 4
#     Node 7, Type 0, BuildingBlock: NAWXER_clean_linker_0, # of connection points: 4
#     Node 8, Type 1, BuildingBlock: CEKHIL_clean_sbu_0, # of connection points: 4
#     Node 9, Type 1, BuildingBlock: CEKHIL_clean_sbu_0, # of connection points: 4
#     Node 10, Type 1, BuildingBlock: CEKHIL_clean_sbu_0, # of connection points: 4
#     Node 11, Type 1, BuildingBlock: CEKHIL_clean_sbu_0, # of connection points: 4
#     Node 12, Type 1, BuildingBlock: CEKHIL_clean_sbu_0, # of connection points: 4
#     Node 13, Type 1, BuildingBlock: CEKHIL_clean_sbu_0, # of connection points: 4
#     Node 14, Type 1, BuildingBlock: CEKHIL_clean_sbu_0, # of connection points: 4
#     Node 15, Type 1, BuildingBlock: CEKHIL_clean_sbu_0, # of connection points: 4
#     Edge 16, Type (0, 1), None
#     Edge 17, Type (0, 1), None
#     Edge 18, Type (0, 1), None
#     Edge 19, Type (0, 1), None
#     Edge 20, Type (0, 1), None
#     Edge 21, Type (0, 1), None
#     Edge 22, Type (0, 1), None
#     Edge 23, Type (0, 1), None
#     Edge 24, Type (0, 1), None
#     Edge 25, Type (0, 1), None
#     Edge 26, Type (0, 1), None
#     Edge 27, Type (0, 1), None
#     Edge 28, Type (0, 1), None
#     Edge 29, Type (0, 1), None
#     Edge 30, Type (0, 1), None
#     Edge 31, Type (0, 1), None
#     Edge 32, Type (0, 1), None
#     Edge 33, Type (0, 1), None
#     Edge 34, Type (0, 1), None
#     Edge 35, Type (0, 1), None
#     Edge 36, Type (0, 1), None
#     Edge 37, Type (0, 1), None
#     Edge 38, Type (0, 1), None
#     Edge 39, Type (0, 1), None
#     Edge 40, Type (0, 1), None
#     Edge 41, Type (0, 1), None
#     Edge 42, Type (0, 1), None
#     Edge 43, Type (0, 1), None
#     Edge 44, Type (0, 1), None
#     Edge 45, Type (0, 1), None
#     Edge 46, Type (0, 1), None
#     Edge 47, Type (0, 1), None
# Relax obj value: 0.167
# Max RMSD: 0.176
# Mean RMSD: 0.149
data_MOF--net-wbl--node1-CEKHIL_clean_sbu_0--node2-NAWXER_clean_linker_0--edge1-none
_symmetry_space_group_name_H-M    P1
_symmetry_Int_Tables_number       1
_symmetry_cell_setting            triclinic
loop_
_symmetry_equiv_pos_as_xyz
'x, y, z'
_cell_length_a     24.199678
_cell_length_b     24.263362
_cell_length_c     42.420398
_cell_angle_alpha  90.245791
_cell_angle_beta   90.021064
_cell_angle_gamma 89.907458
loop_
_atom_site_label
_atom_site_type_symbol
_atom_site_fract_x
_atom_site_fract_y
_atom_site_fract_z
_atom_type_partial_charge
C0 C 0.12019 0.8788 0.38679 0.0
C1 C 0.13286 0.90445 0.41558 0.0
C2 C 0.10081 0.91019 0.36146 0.0
C3 C 0.09563 0.9678 0.36436 0.0
C4 C 0.13146 0.96211 0.41771 0.0
C5 C 0.11358 0.99349 0.39224 0.0
C6 C 0.05973 0.99944 0.34269 0.0
C7 C 0.20357 0.96523 0.28181 0.0
C8 C 0.19877 0.9131 0.26755 0.0
C9 C 0.1576 0.99123 0.29479 0.0
C10 C 0.10558 0.96629 0.2932 0.0
C11 C 0.14658 0.88796 0.26574 0.0
C12 C 0.09989 0.91499 0.27805 0.0
C13 C 0.05904 0.99302 0.30967 0.0
C14 C 0.85589 0.13317 0.27839 0.0
C15 C 0.82106 0.09055 0.26803 0.0
C16 C 0.90965 0.12111 0.28862 0.0
C17 C 0.92887 0.06636 0.2888 0.0
C18 C 0.84279 0.03687 0.26515 0.0
C19 C 0.89615 0.02496 0.27541 0.0
C20 C 0.97841 0.04986 0.30684 0.0
C21 C 0.8804 0.08178 0.40436 0.0
C22 C 0.88777 0.13813 0.41036 0.0
C23 C 0.90573 0.05704 0.37838 0.0
C24 C 0.93977 0.08807 0.35848 0.0
C25 C 0.91767 0.17027 0.38892 0.0
C26 C 0.94461 0.14509 0.36346 0.0
C27 C 0.98149 0.0586 0.33967 0.0
H28 H 0.12065 0.83428 0.38473 0.0
H29 H 0.08533 0.88877 0.3409 0.0
H30 H 0.1416 0.98294 0.43956 0.0
H31 H 0.10981 0.03773 0.3952 0.0
H32 H 0.24333 0.98547 0.28369 0.0
H33 H 0.16277 0.03071 0.30647 0.0
H34 H 0.14191 0.84791 0.25471 0.0
H35 H 0.05991 0.89508 0.27683 0.0
H36 H 0.84063 0.17502 0.28047 0.0
H37 H 0.93514 0.15408 0.29773 0.0
H38 H 0.81746 0.00321 0.25659 0.0
H39 H 0.9103 0.98255 0.27499 0.0
H40 H 0.85775 0.05624 0.42074 0.0
H41 H 0.90271 0.01276 0.37541 0.0
H42 H 0.92458 0.21368 0.39351 0.0
H43 H 0.97264 0.16931 0.34926 0.0
N44 N 0.02133 0.03247 0.35618 0.0
N45 N 0.01779 0.01759 0.29281 0.0
C46 C 0.86034 0.40796 0.63809 0.0
C47 C 0.89148 0.38719 0.66332 0.0
C48 C 0.8869 0.43301 0.61259 0.0
C49 C 0.94485 0.43579 0.61159 0.0
C50 C 0.94929 0.38698 0.66137 0.0
C51 C 0.97571 0.4107 0.63562 0.0
C52 C 0.97319 0.47489 0.59053 0.0
C53 C 0.9589 0.33189 0.52314 0.0
C54 C 0.90183 0.32648 0.51771 0.0
C55 C 0.98067 0.38103 0.53479 0.0
C56 C 0.94606 0.42605 0.54093 0.0
C57 C 0.86721 0.37218 0.52304 0.0
C58 C 0.88936 0.42196 0.53428 0.0
C59 C 0.96962 0.47418 0.55739 0.0
C60 C 0.13913 0.65048 0.52463 0.0
C61 C 0.10564 0.68914 0.50911 0.0
C62 C 0.11566 0.6034 0.53805 0.0
C63 C 0.05836 0.59446 0.5363 0.0
C64 C 0.04896 0.67788 0.50542 0.0
C65 C 0.02561 0.63086 0.51881 0.0
C66 C 0.03134 0.55104 0.55513 0.0
C67 C 0.07968 0.64546 0.65196 0.0
C68 C 0.12494 0.61548 0.66356 0.0
C69 C 0.05416 0.62913 0.62378 0.0
C70 C 0.07449 0.58353 0.60689 0.0
C71 C 0.14876 0.57411 0.64479 0.0
C72 C 0.12381 0.55842 0.61657 0.0
C73 C 0.03617 0.5498 0.58818 0.0
H74 H 0.81564 0.40915 0.63934 0.0
H75 H 0.86207 0.45421 0.59525 0.0
H76 H 0.97416 0.37093 0.68049 0.0
H77 H 0.02045 0.41286 0.63553 0.0
H78 H 0.9868 0.29759 0.51921 0.0
H79 H 0.02448 0.38339 0.53993 0.0
H80 H 0.82319 0.36935 0.51872 0.0
H81 H 0.86212 0.45661 0.53865 0.0
H82 H 0.18298 0.6577 0.5276 0.0
H83 H 0.14201 0.57498 0.55068 0.0
H84 H 0.02208 0.7066 0.49332 0.0
H85 H 0.9814 0.62458 0.51699 0.0
H86 H 0.06032 0.67705 0.66634 0.0
H87 H 0.01532 0.64805 0.61709 0.0
H88 H 0.18347 0.5503 0.65347 0.0
H89 H 0.13934 0.52232 0.60429 0.0
N90 N 0.00667 0.51226 0.60445 0.0
N91 N 0.99846 0.51269 0.54071 0.0
C92 C 0.61966 0.37988 0.88672 0.0
C93 C 0.63401 0.4061 0.91508 0.0
C94 C 0.59913 0.41082 0.8615 0.0
C95 C 0.59447 0.4685 0.86405 0.0
C96 C 0.63305 0.4638 0.91681 0.0
C97 C 0.61402 0.49471 0.89143 0.0
C98 C 0.55777 0.49992 0.84272 0.0
C99 C 0.69943 0.46904 0.7796 0.0
C100 C 0.69593 0.41555 0.76698 0.0
C101 C 0.65314 0.49436 0.79268 0.0
C102 C 0.60212 0.46728 0.79281 0.0
C103 C 0.64458 0.38855 0.76661 0.0
C104 C 0.59756 0.41477 0.77901 0.0
C105 C 0.55577 0.49322 0.80977 0.0
C106 C 0.35302 0.63676 0.78151 0.0
C107 C 0.32095 0.59563 0.76707 0.0
C108 C 0.40601 0.62417 0.79272 0.0
C109 C 0.42722 0.57032 0.78971 0.0
C110 C 0.3448 0.54372 0.76113 0.0
C111 C 0.39749 0.53128 0.77224 0.0
C112 C 0.47606 0.55154 0.80769 0.0
C113 C 0.37701 0.59346 0.90196 0.0
C114 C 0.40461 0.63715 0.91695 0.0
C115 C 0.39707 0.5726 0.8733 0.0
C116 C 0.44425 0.59589 0.85948 0.0
C117 C 0.44742 0.66433 0.90114 0.0
C118 C 0.46693 0.64397 0.87248 0.0
C119 C 0.481 0.56103 0.84037 0.0
H120 H 0.61971 0.33532 0.88499 0.0
H121 H 0.5824 0.38907 0.84138 0.0
H122 H 0.64441 0.48503 0.93834 0.0
H123 H 0.61069 0.53903 0.89412 0.0
H124 H 0.73847 0.49081 0.78032 0.0
H125 H 0.65736 0.53487 0.80326 0.0
H126 H 0.64086 0.3474 0.75685 0.0
H127 H 0.55835 0.3933 0.77906 0.0
H128 H 0.33585 0.67725 0.78611 0.0
H129 H 0.42912 0.65568 0.80512 0.0
H130 H 0.3214 0.51147 0.7495 0.0
H131 H 0.41316 0.48973 0.76921 0.0
H132 H 0.34431 0.57158 0.91403 0.0
H133 H 0.37982 0.53475 0.86393 0.0
H134 H 0.46936 0.69794 0.91245 0.0
H135 H 0.50392 0.66187 0.86243 0.0
N136 N 0.52093 0.53429 0.85648 0.0
N137 N 0.51439 0.5184 0.79334 0.0
C138 C 0.47899 0.83732 0.02359 0.0
C139 C 0.42371 0.81924 0.02415 0.0
C140 C 0.49254 0.89106 0.03201 0.0
C141 C 0.45129 0.9282 0.04112 0.0
C142 C 0.38178 0.8578 0.0307 0.0
C143 C 0.39557 0.91217 0.03906 0.0
C144 C 0.46888 0.97922 0.05727 0.0
C145 C 0.35867 0.91301 0.1391 0.0
C146 C 0.39144 0.88931 0.16277 0.0
C147 C 0.38355 0.94022 0.11381 0.0
C148 C 0.44133 0.94179 0.11122 0.0
C149 C 0.44903 0.8887 0.15941 0.0
C150 C 0.47373 0.91426 0.13366 0.0
C151 C 0.46851 0.98208 0.09047 0.0
C152 C 0.57846 0.14728 0.15456 0.0
C153 C 0.62248 0.11494 0.16566 0.0
C154 C 0.5524 0.13349 0.1261 0.0
C155 C 0.57115 0.08827 0.10834 0.0
C156 C 0.64461 0.07357 0.14627 0.0
C157 C 0.61935 0.06061 0.11769 0.0
C158 C 0.53179 0.05683 0.08907 0.0
C159 C 0.64028 0.15451 0.02617 0.0
C160 C 0.60772 0.19264 0.0096 0.0
C161 C 0.61593 0.10807 0.03984 0.0
C162 C 0.5587 0.09924 0.03724 0.0
C163 C 0.55121 0.18143 0.00516 0.0
C164 C 0.52702 0.13506 0.01876 0.0
C165 C 0.53035 0.05645 0.05591 0.0
H166 H 0.51244 0.80926 0.01791 0.0
H167 H 0.53574 0.90262 0.03329 0.0
H168 H 0.33881 0.84541 0.03084 0.0
H169 H 0.36299 0.94088 0.0451 0.0
H170 H 0.31414 0.91476 0.14158 0.0
H171 H 0.35781 0.96363 0.09787 0.0
H172 H 0.47505 0.87074 0.17745 0.0
H173 H 0.51844 0.9159 0.13244 0.0
H174 H 0.56046 0.17899 0.16942 0.0
H175 H 0.51436 0.15427 0.11974 0.0
H176 H 0.67838 0.04802 0.15453 0.0
H177 H 0.63354 0.02463 0.10478 0.0
H178 H 0.68399 0.16174 0.02975 0.0
H179 H 0.64154 0.08002 0.05321 0.0
H180 H 0.52505 0.20972 0.99225 0.0
H181 H 0.4829 0.12882 0.01625 0.0
N182 N 0.49932 0.01714 0.04104 0.0
N183 N 0.50043 0.02022 0.10488 0.0
C184 C 0.11553 0.64636 0.85962 0.0
C185 C 0.13367 0.61704 0.83298 0.0
C186 C 0.09247 0.61821 0.88514 0.0
C187 C 0.08908 0.56036 0.88471 0.0
C188 C 0.13383 0.5593 0.83349 0.0
C189 C 0.11223 0.53122 0.85926 0.0
C190 C 0.05039 0.53113 0.90577 0.0
C191 C 0.18849 0.5555 0.97306 0.0
C192 C 0.18986 0.61163 0.98138 0.0
C193 C 0.14101 0.53219 0.96024 0.0
C194 C 0.09348 0.56411 0.95589 0.0
C195 C 0.14172 0.64355 0.97777 0.0
C196 C 0.0934 0.61962 0.96546 0.0
C197 C 0.04691 0.5392 0.93859 0.0
C198 C 0.84897 0.38998 0.96721 0.0
C199 C 0.81473 0.43004 0.98112 0.0
C200 C 0.90126 0.40463 0.95584 0.0
C201 C 0.91973 0.45951 0.95813 0.0
C202 C 0.83582 0.48337 0.98618 0.0
C203 C 0.88784 0.49786 0.97489 0.0
C204 C 0.96827 0.47953 0.94034 0.0
C205 C 0.87482 0.42642 0.84567 0.0
C206 C 0.90517 0.38279 0.83231 0.0
C207 C 0.89282 0.45095 0.87384 0.0
C208 C 0.94055 0.43126 0.88892 0.0
C209 C 0.94883 0.35937 0.84939 0.0
C210 C 0.9662 0.3833 0.8776 0.0
C211 C 0.97454 0.46908 0.90783 0.0
H212 H 0.11453 0.691 0.85954 0.0
H213 H 0.07283 0.64197 0.9036 0.0
H214 H 0.14803 0.53583 0.81327 0.0
H215 H 0.10979 0.48665 0.85823 0.0
H216 H 0.22477 0.52966 0.97551 0.0
H217 H 0.14182 0.48933 0.95293 0.0
H218 H 0.14156 0.68679 0.98421 0.0
H219 H 0.05686 0.64481 0.96226 0.0
H220 H 0.83405 0.34846 0.96325 0.0
H221 H 0.92608 0.37368 0.94402 0.0
H222 H 0.8108 0.51496 -0.00265 0.0
H223 H 0.90139 0.54022 0.97734 0.0
H224 H 0.84138 0.44544 0.83263 0.0
H225 H 0.87326 0.48867 0.88188 0.0
H226 H 0.97285 0.32584 0.83942 0.0
H227 H 0.00363 0.36811 0.88862 0.0
N228 N 0.01465 0.4958 0.89194 0.0
N229 N 0.00548 0.51373 0.95479 0.0
C230 C 0.35017 0.60024 0.10929 0.0
C231 C 0.38341 0.6241 0.08594 0.0
C232 C 0.37455 0.57205 0.13446 0.0
C233 C 0.4323 0.56966 0.13724 0.0
C234 C 0.44099 0.62371 0.08948 0.0
C235 C 0.46519 0.59717 0.11509 0.0
C236 C 0.45903 0.52886 0.15791 0.0
C237 C 0.47743 0.67409 0.22602 0.0
C238 C 0.42296 0.69464 0.22525 0.0
C239 C 0.48895 0.62014 0.217 0.0
C240 C 0.44646 0.58524 0.20703 0.0
C241 C 0.37967 0.65829 0.21777 0.0
C242 C 0.39141 0.60371 0.20878 0.0
C243 C 0.46228 0.53342 0.19103 0.0
C244 C 0.63609 0.36139 0.22202 0.0
C245 C 0.60469 0.32028 0.23677 0.0
C246 C 0.60997 0.40761 0.20906 0.0
C247 C 0.55219 0.41304 0.21049 0.0
C248 C 0.54731 0.328 0.24005 0.0
C249 C 0.52136 0.37397 0.22703 0.0
C250 C 0.52269 0.45527 0.19204 0.0
C251 C 0.56643 0.3632 0.09252 0.0
C252 C 0.61372 0.3924 0.08329 0.0
C253 C 0.53906 0.37754 0.12048 0.0
C254 C 0.55952 0.4203 0.13954 0.0
C255 C 0.63712 0.43097 0.10398 0.0
C256 C 0.61025 0.44474 0.13195 0.0
C257 C 0.52115 0.45286 0.15895 0.0
H258 H 0.30565 0.59925 0.10665 0.0
H259 H 0.34845 0.54879 0.15025 0.0
H260 H 0.4674 0.64172 0.07168 0.0
H261 H 0.50986 0.59485 0.11644 0.0
H262 H 0.51184 0.70042 0.23234 0.0
H263 H 0.53167 0.60669 0.21602 0.0
H264 H 0.33727 0.67261 0.2174 0.0
H265 H 0.35781 0.57669 0.2022 0.0
H266 H 0.68039 0.35689 0.21944 0.0
H267 H 0.63472 0.43816 0.19712 0.0
H268 H 0.52192 0.29739 0.25158 0.0
H269 H 0.47679 0.37754 0.2285 0.0
H270 H 0.54726 0.334 0.07652 0.0
H271 H 0.49914 0.35939 0.12545 0.0
H272 H 0.67311 0.45448 0.097 0.0
H273 H 0.62566 0.47927 0.14563 0.0
N274 N 0.48907 0.48925 0.14331 0.0
N275 N 0.49348 0.49576 0.20706 0.0
C276 C 0.4485 0.86512 0.34997 0.0
C277 C 0.40524 0.88679 0.33188 0.0
C278 C 0.46281 0.88975 0.37854 0.0
C279 C 0.4347 0.93692 0.38908 0.0
C280 C 0.3725 0.9295 0.34434 0.0
C281 C 0.38764 0.95498 0.37276 0.0
C282 C 0.46637 0.97603 0.40837 0.0
C283 C 0.33226 0.98086 0.48914 0.0
C284 C 0.31111 0.92804 0.48271 0.0
C285 C 0.38379 0.99652 0.47765 0.0
C286 C 0.41505 0.95989 0.4593 0.0
C287 C 0.34493 0.88935 0.46727 0.0
C288 C 0.39672 0.90518 0.45567 0.0
C289 C 0.46241 0.98204 0.44133 0.0
C290 C 0.65925 0.13202 0.46786 0.0
C291 C 0.69804 0.09079 0.47513 0.0
C292 C 0.60517 0.11742 0.45924 0.0
C293 C 0.58986 0.06161 0.45755 0.0
C294 C 0.68031 0.03563 0.47659 0.0
C295 C 0.62689 0.02127 0.46783 0.0
C296 C 0.54037 0.0427 0.44041 0.0
C297 C 0.63423 0.06261 0.33826 0.0
C298 C 0.63126 0.12001 0.33519 0.0
C299 C 0.60986 0.03676 0.36405 0.0
C300 C 0.58106 0.0678 0.38675 0.0
C301 C 0.60634 0.15153 0.35907 0.0
C302 C 0.5802 0.12547 0.38431 0.0
C303 C 0.54117 0.03931 0.40725 0.0
H304 H 0.4743 0.83232 0.34068 0.0
H305 H 0.49989 0.87593 0.3905 0.0
H306 H 0.33926 0.94711 0.33051 0.0
H307 H 0.36632 0.99214 0.38016 0.0
H308 H 0.30751 0.01134 0.50146 0.0
H309 H 0.39728 0.03868 0.48116 0.0
H310 H 0.32989 0.84822 0.46223 0.0
H311 H 0.42114 0.87542 0.44267 0.0
H312 H 0.67144 0.17492 0.46708 0.0
H313 H 0.57633 0.14938 0.45254 0.0
H314 H 0.70863 0.00288 0.48294 0.0
H315 H 0.61573 0.97803 0.46699 0.0
H316 H 0.65306 0.03758 0.31997 0.0
H317 H 0.60996 0.99214 0.36506 0.0
H318 H 0.60259 0.19583 0.35673 0.0
H319 H 0.55535 0.1501 0.4002 0.0
N320 N 0.50488 0.00543 0.39275 0.0
N321 N 0.50043 0.01449 0.45633 0.0
C322 C 0.13195 0.92551 0.60455 0.0
C323 C 0.10756 0.88839 0.58337 0.0
C324 C 0.10478 0.93997 0.63234 0.0
C325 C 0.05278 0.91762 0.63925 0.0
C326 C 0.05866 0.86125 0.59188 0.0
C327 C 0.03106 0.87623 0.61964 0.0
C328 C 0.01523 0.95101 0.65877 0.0
C329 C 0.04418 0.82816 0.73832 0.0
C330 C 0.1018 0.82151 0.73592 0.0
C331 C 0.01822 0.87435 0.72562 0.0
C332 C 0.04928 0.91481 0.71034 0.0
C333 C 0.13331 0.8639 0.72242 0.0
C334 C 0.10715 0.91041 0.70979 0.0
C335 C 0.01989 0.95661 0.69161 0.0
C336 C 0.87302 0.16062 0.71096 0.0
C337 C 0.91356 0.19233 0.72622 0.0
C338 C 0.88532 0.10673 0.70103 0.0
C339 C 0.9383 0.08429 0.70619 0.0
C340 C 0.96433 0.16769 0.734 0.0
C341 C 0.97644 0.11424 0.72422 0.0
C342 C 0.95784 0.03349 0.69017 0.0
C343 C 0.92034 0.13079 0.59622 0.0
C344 C 0.88029 0.102 0.57879 0.0
C345 C 0.93918 0.10944 0.62497 0.0
C346 C 0.91746 0.05975 0.63646 0.0
C347 C 0.85471 0.05576 0.59207 0.0
C348 C 0.87309 0.03487 0.62073 0.0
C349 C 0.95073 0.02496 0.65749 0.0
H350 H 0.1691 0.94762 0.59806 0.0
H351 H 0.12117 0.97368 0.64629 0.0
H352 H 0.03868 0.83333 0.57546 0.0
H353 H 0.99023 0.85975 0.62408 0.0
H354 H 0.01868 0.79654 0.74885 0.0
H355 H 0.97353 0.87705 0.72626 0.0
H356 H 0.17779 0.86021 0.72053 0.0
H357 H 0.13196 0.94186 0.69868 0.0
H358 H 0.83339 0.17852 0.70493 0.0
H359 H 0.85436 0.08371 0.68812 0.0
H360 H 0.99603 0.19087 0.74627 0.0
H361 H 0.01733 0.09788 0.72888 0.0
H362 H 0.94097 0.16619 0.58616 0.0
H363 H 0.97428 0.12852 0.63649 0.0
H364 H 0.82382 0.03294 0.57892 0.0
H365 H 0.85646 0.99607 0.62899 0.0
N366 N 0.98022 0.98463 0.64316 0.0
N367 N 0.99123 0.99782 0.70628 0.0
Co368 Co 0.32629 0.66655 0.00826 0.0
O369 O 0.28147 0.60257 0.0023 0.0
O370 O 0.25315 0.68781 0.99331 0.0
C371 C 0.35915 0.64156 0.05585 0.0
O372 O 0.36324 0.74233 0.013 0.0
Co373 Co 0.45423 0.64822 0.01337 0.0
O374 O 0.45331 0.72733 0.02398 0.0
C375 C 0.39979 0.64471 0.95116 0.0
C376 C 0.24234 0.63517 0.99314 0.0
C377 C 0.41228 0.75959 0.02006 0.0
O378 O 0.35331 0.65941 0.96326 0.0
O379 O 0.44332 0.63485 0.96731 0.0
O380 O 0.3112 0.66535 0.05374 0.0
O381 O 0.38239 0.6292 0.02943 0.0
Co382 Co 0.33154 0.85136 0.24035 0.0
O383 O 0.28944 0.91748 0.24538 0.0
O384 O 0.25739 0.83373 0.25496 0.0
C385 C 0.36656 0.87305 0.19286 0.0
O386 O 0.36551 0.77393 0.23656 0.0
Co387 Co 0.45997 0.86406 0.2369 0.0
O388 O 0.45628 0.78511 0.22615 0.0
C389 C 0.40327 0.87416 0.29804 0.0
C390 C 0.24908 0.88685 0.25485 0.0
C391 C 0.41394 0.75461 0.22975 0.0
O392 O 0.35732 0.85925 0.28547 0.0
O393 O 0.44778 0.88185 0.28241 0.0
O394 O 0.31758 0.85154 0.19484 0.0
O395 O 0.38966 0.88553 0.21933 0.0
Co396 Co 0.15819 0.82987 0.49045 0.0
O397 O 0.0948 0.78235 0.4906 0.0
O398 O 0.17996 0.75596 0.50236 0.0
C399 C 0.1406 0.87172 0.44433 0.0
O400 O 0.23373 0.86787 0.49113 0.0
Co401 Co 0.13939 0.95748 0.49315 0.0
O402 O 0.21982 0.95938 0.48577 0.0
C403 C 0.12347 0.89114 0.55012 0.0
C404 C 0.12787 0.74333 0.49955 0.0
C405 C 0.25161 0.91759 0.48757 0.0
O406 O 0.14375 0.84839 0.53632 0.0
O407 O 0.11457 0.93703 0.53633 0.0
O408 O 0.16399 0.82344 0.44443 0.0
O409 O 0.12326 0.88935 0.47128 0.0
Co410 Co 0.16264 0.68469 0.75632 0.0
O411 O 0.09648 0.72798 0.75425 0.0
O412 O 0.18017 0.75914 0.74319 0.0
C413 C 0.14472 0.64587 0.80327 0.0
O414 O 0.24031 0.6511 0.75752 0.0
Co415 Co 0.15156 0.55622 0.75692 0.0
O416 O 0.23155 0.55953 0.76528 0.0
C417 C 0.13778 0.61651 0.69736 0.0
C418 C 0.12728 0.76865 0.74531 0.0
C419 C 0.26091 0.60276 0.76245 0.0
O420 O 0.15181 0.66206 0.71072 0.0
O421 O 0.13194 0.57101 0.71207 0.0
O422 O 0.16574 0.69505 0.80215 0.0
O423 O 0.13011 0.62493 0.77656 0.0
Co424 Co 0.8501 0.18923 0.49027 0.0
O425 O 0.91345 0.23526 0.49637 0.0
O426 O 0.82761 0.26031 0.50737 0.0
C427 C 0.8731 0.16065 0.44138 0.0
O428 O 0.77475 0.15142 0.4858 0.0
Co429 Co 0.87057 0.06239 0.48083 0.0
O430 O 0.79032 0.06232 0.47297 0.0
C431 C 0.8742 0.11094 0.54475 0.0
C432 C 0.87994 0.27288 0.50668 0.0
C433 C 0.75776 0.10262 0.47834 0.0
O434 O 0.85957 0.15854 0.53433 0.0
O435 O 0.88385 0.06916 0.5271 0.0
O436 O 0.84877 0.20791 0.44523 0.0
O437 O 0.88748 0.13575 0.46684 0.0
Co438 Co 0.82856 0.35221 0.74068 0.0
O439 O 0.78783 0.41926 0.74596 0.0
O440 O 0.75413 0.33592 0.75498 0.0
C441 C 0.86469 0.37332 0.69333 0.0
O442 O 0.85975 0.27391 0.73657 0.0
Co443 Co 0.95751 0.35997 0.73698 0.0
O444 O 0.95141 0.28073 0.72737 0.0
C445 C 0.90152 0.37142 0.79834 0.0
C446 C 0.74668 0.38912 0.75499 0.0
C447 C 0.90745 0.25243 0.73047 0.0
O448 O 0.85471 0.35873 0.78592 0.0
O449 O 0.94606 0.37752 0.78253 0.0
O450 O 0.81499 0.35341 0.69509 0.0
O451 O 0.88793 0.38473 0.71991 0.0
Co452 Co 0.66133 0.33263 0.99011 0.0
O453 O 0.59763 0.28566 0.99082 0.0
O454 O 0.68273 0.2586 0.00218 0.0
C455 C 0.64288 0.37398 0.94395 0.0
O456 O 0.73713 0.37027 0.99019 0.0
Co457 Co 0.64331 0.46035 0.99244 0.0
O458 O 0.7235 0.46171 0.98427 0.0
C459 C 0.62882 0.39482 0.04989 0.0
C460 C 0.63047 0.24643 -0.00027 0.0
C461 C 0.75517 0.41984 0.98617 0.0
O462 O 0.64798 0.35167 0.03599 0.0
O463 O 0.62015 0.44072 0.03606 0.0
O464 O 0.6661 0.32563 0.94408 0.0
O465 O 0.62632 0.39207 0.97096 0.0
Co466 Co 0.66414 0.18314 0.25788 0.0
O467 O 0.59868 0.22744 0.25597 0.0
O468 O 0.68257 0.25715 0.24418 0.0
C469 C 0.6459 0.14582 0.30515 0.0
O470 O 0.74127 0.14787 0.25876 0.0
Co471 Co 0.65045 0.05526 0.25895 0.0
O472 O 0.73051 0.05676 0.26721 0.0
C473 C 0.63653 0.11516 0.19931 0.0
C474 C 0.62983 0.26745 0.24654 0.0
C475 C 0.76092 0.09916 0.26392 0.0
O476 O 0.65203 0.1603 0.21251 0.0
O477 O 0.63003 0.06982 0.21411 0.0
O478 O 0.66819 0.19438 0.30352 0.0
O479 O 0.63054 0.12444 0.27867 0.0
loop_
_geom_bond_atom_site_label_1
_geom_bond_atom_site_label_2
_geom_bond_distance
_geom_bond_site_symmetry_2
_ccdc_geom_bond_type
C0 C1 1.384 . S
C0 C2 1.384 . S
C0 H28 0.931 . S
C1 C0 1.384 . S
C1 C4 1.382 . S
C2 C0 1.384 . S
C2 C3 1.381 . S
C2 H29 0.930 . S
C3 C2 1.381 . S
C3 C5 1.381 . S
C3 C6 1.487 . S
C4 C1 1.382 . S
C4 C5 1.387 . S
C4 H30 0.930 . S
C5 C3 1.381 . S
C5 C4 1.387 . S
C5 H31 0.931 1_565 S
C6 C3 1.487 . S
C6 C13 1.399 . S
C6 N44 1.343 1_565 S
C7 C8 1.384 . S
C7 C9 1.384 . S
C7 H32 0.931 . S
C8 C7 1.384 . S
C8 C11 1.382 . S
C9 C7 1.384 . S
C9 C10 1.381 . S
C9 H33 0.930 . S
C10 C9 1.381 . S
C10 C12 1.381 . S
C10 C13 1.487 . S
C11 C8 1.382 . S
C11 C12 1.387 . S
C11 H34 0.930 . S
C12 C10 1.381 . S
C12 C11 1.387 . S
C12 H35 0.931 . S
C13 C6 1.399 . S
C13 C10 1.487 . S
C13 N45 1.343 1_565 S
C14 C15 1.384 . S
C14 C16 1.384 . S
C14 H36 0.931 . S
C15 C14 1.384 . S
C15 C18 1.382 . S
C16 C14 1.384 . S
C16 C17 1.381 . S
C16 H37 0.930 . S
C17 C16 1.381 . S
C17 C19 1.381 . S
C17 C20 1.487 . S
C18 C15 1.382 . S
C18 C19 1.387 . S
C18 H38 0.930 . S
C19 C17 1.381 . S
C19 C18 1.387 . S
C19 H39 0.939 . S
C20 C17 1.487 . S
C20 C27 1.399 . S
C20 N45 1.343 1_655 S
C21 C22 1.384 . S
C21 C23 1.384 . S
C21 H40 0.931 . S
C22 C21 1.384 . S
C22 C25 1.382 . S
C23 C21 1.384 . S
C23 C24 1.381 . S
C23 H41 0.930 . S
C24 C23 1.381 . S
C24 C26 1.381 . S
C24 C27 1.487 . S
C25 C22 1.382 . S
C25 C26 1.387 . S
C25 H42 0.930 . S
C26 C24 1.381 . S
C26 C25 1.387 . S
C26 H43 0.931 . S
C27 C20 1.399 . S
C27 C24 1.487 . S
C27 N44 1.343 1_655 S
H28 C0 0.931 . S
H29 C2 0.930 . S
H30 C4 0.930 . S
H31 C5 0.931 1_545 S
H32 C7 0.931 . S
H33 C9 0.930 . S
H34 C11 0.930 . S
H35 C12 0.931 . S
H36 C14 0.931 . S
H37 C16 0.930 . S
H38 C18 0.930 . S
H39 C19 0.939 . S
H40 C21 0.931 . S
H41 C23 0.930 . S
H42 C25 0.930 . S
H43 C26 0.931 . S
N44 C6 1.343 1_545 S
N44 C27 1.343 1_455 S
N45 C13 1.343 1_545 S
N45 C20 1.343 1_455 S
C46 C47 1.384 . S
C46 C48 1.384 . S
C46 H74 0.931 . S
C47 C46 1.384 . S
C47 C50 1.382 . S
C48 C46 1.384 . S
C48 C49 1.381 . S
C48 H75 0.930 . S
C49 C48 1.381 . S
C49 C51 1.381 . S
C49 C52 1.487 . S
C50 C47 1.382 . S
C50 C51 1.387 . S
C50 H76 0.930 . S
C51 C49 1.381 . S
C51 C50 1.387 . S
C51 H77 0.931 1_655 S
C52 C49 1.487 . S
C52 C59 1.399 . S
C52 N90 1.343 1_655 S
C53 C54 1.384 . S
C53 C55 1.384 . S
C53 H78 0.931 . S
C54 C53 1.384 . S
C54 C57 1.382 . S
C55 C53 1.384 . S
C55 C56 1.381 . S
C55 H79 0.930 . S
C56 C55 1.381 . S
C56 C58 1.381 . S
C56 C59 1.487 . S
C57 C54 1.382 . S
C57 C58 1.387 . S
C57 H80 0.930 . S
C58 C56 1.381 . S
C58 C57 1.387 . S
C58 H81 0.931 . S
C59 C52 1.399 . S
C59 C56 1.487 . S
C59 N91 1.343 1_655 S
C60 C61 1.384 . S
C60 C62 1.384 . S
C60 H82 0.931 . S
C61 C60 1.384 . S
C61 C64 1.382 . S
C62 C60 1.384 . S
C62 C63 1.381 . S
C62 H83 0.930 . S
C63 C62 1.381 . S
C63 C65 1.381 . S
C63 C66 1.487 . S
C64 C61 1.382 . S
C64 C65 1.387 . S
C64 H84 0.930 . S
C65 C63 1.381 . S
C65 C64 1.387 . S
C65 H85 0.934 . S
C66 C63 1.487 . S
C66 C73 1.399 . S
C66 N91 1.343 . S
C67 C68 1.384 . S
C67 C69 1.384 . S
C67 H86 0.931 . S
C68 C67 1.384 . S
C68 C71 1.382 . S
C69 C67 1.384 . S
C69 C70 1.381 . S
C69 H87 0.930 . S
C70 C69 1.381 . S
C70 C72 1.381 . S
C70 C73 1.487 . S
C71 C68 1.382 . S
C71 C72 1.387 . S
C71 H88 0.930 . S
C72 C70 1.381 . S
C72 C71 1.387 . S
C72 H89 0.931 . S
C73 C66 1.399 . S
C73 C70 1.487 . S
C73 N90 1.343 . S
H74 C46 0.931 . S
H75 C48 0.930 . S
H76 C50 0.930 . S
H77 C51 0.931 1_455 S
H78 C53 0.931 . S
H79 C55 0.930 . S
H80 C57 0.930 . S
H81 C58 0.931 . S
H82 C60 0.931 . S
H83 C62 0.930 . S
H84 C64 0.930 . S
H85 C65 0.934 . S
H86 C67 0.931 . S
H87 C69 0.930 . S
H88 C71 0.930 . S
H89 C72 0.931 . S
N90 C52 1.343 1_455 S
N90 C73 1.343 . S
N91 C59 1.343 1_455 S
N91 C66 1.343 . S
C92 C93 1.384 . S
C92 C94 1.384 . S
C92 H120 0.931 . S
C93 C92 1.384 . S
C93 C96 1.382 . S
C94 C92 1.384 . S
C94 C95 1.381 . S
C94 H121 0.930 . S
C95 C94 1.381 . S
C95 C97 1.381 . S
C95 C98 1.487 . S
C96 C93 1.382 . S
C96 C97 1.387 . S
C96 H122 0.930 . S
C97 C95 1.381 . S
C97 C96 1.387 . S
C97 H123 0.931 . S
C98 C95 1.487 . S
C98 C105 1.399 . S
C98 N136 1.343 . S
C99 C100 1.384 . S
C99 C101 1.384 . S
C99 H124 0.931 . S
C100 C99 1.384 . S
C100 C103 1.382 . S
C101 C99 1.384 . S
C101 C102 1.381 . S
C101 H125 0.930 . S
C102 C101 1.381 . S
C102 C104 1.381 . S
C102 C105 1.487 . S
C103 C100 1.382 . S
C103 C104 1.387 . S
C103 H126 0.930 . S
C104 C102 1.381 . S
C104 C103 1.387 . S
C104 H127 0.931 . S
C105 C98 1.399 . S
C105 C102 1.487 . S
C105 N137 1.343 . S
C106 C107 1.384 . S
C106 C108 1.384 . S
C106 H128 0.931 . S
C107 C106 1.384 . S
C107 C110 1.382 . S
C108 C106 1.384 . S
C108 C109 1.381 . S
C108 H129 0.930 . S
C109 C108 1.381 . S
C109 C111 1.381 . S
C109 C112 1.487 . S
C110 C107 1.382 . S
C110 C111 1.387 . S
C110 H130 0.930 . S
C111 C109 1.381 . S
C111 C110 1.387 . S
C111 H131 0.931 . S
C112 C109 1.487 . S
C112 C119 1.399 . S
C112 N137 1.343 . S
C113 C114 1.384 . S
C113 C115 1.384 . S
C113 H132 0.931 . S
C114 C113 1.384 . S
C114 C117 1.382 . S
C115 C113 1.384 . S
C115 C116 1.381 . S
C115 H133 0.930 . S
C116 C115 1.381 . S
C116 C118 1.381 . S
C116 C119 1.487 . S
C117 C114 1.382 . S
C117 C118 1.387 . S
C117 H134 0.930 . S
C118 C116 1.381 . S
C118 C117 1.387 . S
C118 H135 0.931 . S
C119 C112 1.399 . S
C119 C116 1.487 . S
C119 N136 1.343 . S
H120 C92 0.931 . S
H121 C94 0.930 . S
H122 C96 0.930 . S
H123 C97 0.931 . S
H124 C99 0.931 . S
H125 C101 0.930 . S
H126 C103 0.930 . S
H127 C104 0.931 . S
H128 C106 0.931 . S
H129 C108 0.930 . S
H130 C110 0.930 . S
H131 C111 0.931 . S
H132 C113 0.931 . S
H133 C115 0.930 . S
H134 C117 0.930 . S
H135 C118 0.931 . S
N136 C98 1.343 . S
N136 C119 1.343 . S
N137 C105 1.343 . S
N137 C112 1.343 . S
C138 C139 1.384 . S
C138 C140 1.384 . S
C138 H166 0.931 . S
C139 C138 1.384 . S
C139 C142 1.382 . S
C140 C138 1.384 . S
C140 C141 1.381 . S
C140 H167 0.930 . S
C141 C140 1.381 . S
C141 C143 1.381 . S
C141 C144 1.487 . S
C142 C139 1.382 . S
C142 C143 1.387 . S
C142 H168 0.930 1_554 S
C143 C141 1.381 . S
C143 C142 1.387 . S
C143 H169 0.931 . S
C144 C141 1.487 . S
C144 C151 1.399 . S
C144 N182 1.343 1_565 S
C145 C146 1.384 . S
C145 C147 1.384 . S
C145 H170 0.931 . S
C146 C145 1.384 . S
C146 C149 1.382 . S
C147 C145 1.384 . S
C147 C148 1.381 . S
C147 H171 0.930 . S
C148 C147 1.381 . S
C148 C150 1.381 . S
C148 C151 1.487 . S
C149 C146 1.382 . S
C149 C150 1.387 . S
C149 H172 0.930 . S
C150 C148 1.381 . S
C150 C149 1.387 . S
C150 H173 0.931 . S
C151 C144 1.399 . S
C151 C148 1.487 . S
C151 N183 1.343 . S
C152 C153 1.384 . S
C152 C154 1.384 . S
C152 H174 0.931 . S
C153 C152 1.384 . S
C153 C156 1.382 . S
C154 C152 1.384 . S
C154 C155 1.381 . S
C154 H175 0.930 . S
C155 C154 1.381 . S
C155 C157 1.381 . S
C155 C158 1.487 . S
C156 C153 1.382 . S
C156 C157 1.387 . S
C156 H176 0.930 . S
C157 C155 1.381 . S
C157 C156 1.387 . S
C157 H177 0.931 . S
C158 C155 1.487 . S
C158 C165 1.399 . S
C158 N183 1.343 1_545 S
C159 C160 1.384 . S
C159 C161 1.384 . S
C159 H178 0.931 . S
C160 C159 1.384 . S
C160 C163 1.382 . S
C161 C159 1.384 . S
C161 C162 1.381 . S
C161 H179 0.930 . S
C162 C161 1.381 . S
C162 C164 1.381 . S
C162 C165 1.487 . S
C163 C160 1.382 . S
C163 C164 1.387 . S
C163 H180 0.930 1_554 S
C164 C162 1.381 . S
C164 C163 1.387 . S
C164 H181 0.931 . S
C165 C158 1.399 . S
C165 C162 1.487 . S
C165 N182 1.343 . S
H166 C138 0.931 . S
H167 C140 0.930 . S
H168 C142 0.930 1_556 S
H169 C143 0.931 . S
H170 C145 0.931 . S
H171 C147 0.930 . S
H172 C149 0.930 . S
H173 C150 0.931 . S
H174 C152 0.931 . S
H175 C154 0.930 . S
H176 C156 0.930 . S
H177 C157 0.931 . S
H178 C159 0.931 . S
H179 C161 0.930 . S
H180 C163 0.930 1_556 S
H181 C164 0.931 . S
N182 C144 1.343 1_545 S
N182 C165 1.343 . S
N183 C151 1.343 . S
N183 C158 1.343 1_565 S
C184 C185 1.384 . S
C184 C186 1.384 . S
C184 H212 0.931 . S
C185 C184 1.384 . S
C185 C188 1.382 . S
C186 C184 1.384 . S
C186 C187 1.381 . S
C186 H213 0.930 . S
C187 C186 1.381 . S
C187 C189 1.381 . S
C187 C190 1.487 . S
C188 C185 1.382 . S
C188 C189 1.387 . S
C188 H214 0.930 . S
C189 C187 1.381 . S
C189 C188 1.387 . S
C189 H215 0.931 . S
C190 C187 1.487 . S
C190 C197 1.399 . S
C190 N228 1.343 . S
C191 C192 1.384 . S
C191 C193 1.384 . S
C191 H216 0.931 . S
C192 C191 1.384 . S
C192 C195 1.382 1_556 S
C193 C191 1.384 . S
C193 C194 1.381 . S
C193 H217 0.930 . S
C194 C193 1.381 . S
C194 C196 1.381 . S
C194 C197 1.487 . S
C195 C192 1.382 1_554 S
C195 C196 1.387 1_554 S
C195 H218 0.930 . S
C196 C194 1.381 . S
C196 C195 1.387 1_556 S
C196 H219 0.931 . S
C197 C190 1.399 . S
C197 C194 1.487 . S
C197 N229 1.343 1_455 S
C198 C199 1.384 . S
C198 C200 1.384 . S
C198 H220 0.931 . S
C199 C198 1.384 . S
C199 C202 1.382 1_556 S
C200 C198 1.384 . S
C200 C201 1.381 . S
C200 H221 0.930 . S
C201 C200 1.381 . S
C201 C203 1.381 . S
C201 C204 1.487 . S
C202 C199 1.382 1_554 S
C202 C203 1.387 1_554 S
C202 H222 0.930 . S
C203 C201 1.381 . S
C203 C202 1.387 1_556 S
C203 H223 0.931 . S
C204 C201 1.487 . S
C204 C211 1.399 . S
C204 N229 1.343 . S
C205 C206 1.384 . S
C205 C207 1.384 . S
C205 H224 0.931 . S
C206 C205 1.384 . S
C206 C209 1.382 . S
C207 C205 1.384 . S
C207 C208 1.381 . S
C207 H225 0.930 . S
C208 C207 1.381 . S
C208 C210 1.381 . S
C208 C211 1.487 . S
C209 C206 1.382 . S
C209 C210 1.387 . S
C209 H226 0.930 . S
C210 C208 1.381 . S
C210 C209 1.387 . S
C210 H227 0.931 . S
C211 C204 1.399 . S
C211 C208 1.487 . S
C211 N228 1.343 1_655 S
H212 C184 0.931 . S
H213 C186 0.930 . S
H214 C188 0.930 . S
H215 C189 0.931 . S
H216 C191 0.931 . S
H217 C193 0.930 . S
H218 C195 0.930 . S
H219 C196 0.931 . S
H220 C198 0.931 . S
H221 C200 0.930 . S
H222 C202 0.930 . S
H223 C203 0.931 . S
H224 C205 0.931 . S
H225 C207 0.930 . S
H226 C209 0.930 . S
H227 C210 0.931 . S
N228 C190 1.343 . S
N228 C211 1.343 1_455 S
N229 C197 1.343 1_655 S
N229 C204 1.343 . S
C230 C231 1.384 . S
C230 C232 1.384 . S
C230 H258 0.931 . S
C231 C230 1.384 . S
C231 C234 1.382 . S
C232 C230 1.384 . S
C232 C233 1.381 . S
C232 H259 0.930 . S
C233 C232 1.381 . S
C233 C235 1.381 . S
C233 C236 1.487 . S
C234 C231 1.382 . S
C234 C235 1.387 . S
C234 H260 0.930 . S
C235 C233 1.381 . S
C235 C234 1.387 . S
C235 H261 0.931 . S
C236 C233 1.487 . S
C236 C243 1.399 . S
C236 N274 1.343 . S
C237 C238 1.384 . S
C237 C239 1.384 . S
C237 H262 0.931 . S
C238 C237 1.384 . S
C238 C241 1.382 . S
C239 C237 1.384 . S
C239 C240 1.381 . S
C239 H263 0.930 . S
C240 C239 1.381 . S
C240 C242 1.381 . S
C240 C243 1.487 . S
C241 C238 1.382 . S
C241 C242 1.387 . S
C241 H264 0.930 . S
C242 C240 1.381 . S
C242 C241 1.387 . S
C242 H265 0.931 . S
C243 C236 1.399 . S
C243 C240 1.487 . S
C243 N275 1.343 . S
C244 C245 1.384 . S
C244 C246 1.384 . S
C244 H266 0.931 . S
C245 C244 1.384 . S
C245 C248 1.382 . S
C246 C244 1.384 . S
C246 C247 1.381 . S
C246 H267 0.930 . S
C247 C246 1.381 . S
C247 C249 1.381 . S
C247 C250 1.487 . S
C248 C245 1.382 . S
C248 C249 1.387 . S
C248 H268 0.930 . S
C249 C247 1.381 . S
C249 C248 1.387 . S
C249 H269 0.931 . S
C250 C247 1.487 . S
C250 C257 1.399 . S
C250 N275 1.343 . S
C251 C252 1.384 . S
C251 C253 1.384 . S
C251 H270 0.931 . S
C252 C251 1.384 . S
C252 C255 1.382 . S
C253 C251 1.384 . S
C253 C254 1.381 . S
C253 H271 0.930 . S
C254 C253 1.381 . S
C254 C256 1.381 . S
C254 C257 1.487 . S
C255 C252 1.382 . S
C255 C256 1.387 . S
C255 H272 0.930 . S
C256 C254 1.381 . S
C256 C255 1.387 . S
C256 H273 0.931 . S
C257 C250 1.399 . S
C257 C254 1.487 . S
C257 N274 1.343 . S
H258 C230 0.931 . S
H259 C232 0.930 . S
H260 C234 0.930 . S
H261 C235 0.931 . S
H262 C237 0.931 . S
H263 C239 0.930 . S
H264 C241 0.930 . S
H265 C242 0.931 . S
H266 C244 0.931 . S
H267 C246 0.930 . S
H268 C248 0.930 . S
H269 C249 0.931 . S
H270 C251 0.931 . S
H271 C253 0.930 . S
H272 C255 0.930 . S
H273 C256 0.931 . S
N274 C236 1.343 . S
N274 C257 1.343 . S
N275 C243 1.343 . S
N275 C250 1.343 . S
C276 C277 1.384 . S
C276 C278 1.384 . S
C276 H304 0.931 . S
C277 C276 1.384 . S
C277 C280 1.382 . S
C278 C276 1.384 . S
C278 C279 1.381 . S
C278 H305 0.930 . S
C279 C278 1.381 . S
C279 C281 1.381 . S
C279 C282 1.487 . S
C280 C277 1.382 . S
C280 C281 1.387 . S
C280 H306 0.930 . S
C281 C279 1.381 . S
C281 C280 1.387 . S
C281 H307 0.931 1_565 S
C282 C279 1.487 . S
C282 C289 1.399 . S
C282 N320 1.343 1_565 S
C283 C284 1.384 . S
C283 C285 1.384 . S
C283 H308 0.931 . S
C284 C283 1.384 . S
C284 C287 1.382 . S
C285 C283 1.384 . S
C285 C286 1.381 . S
C285 H309 0.930 . S
C286 C285 1.381 . S
C286 C288 1.381 . S
C286 C289 1.487 . S
C287 C284 1.382 . S
C287 C288 1.387 . S
C287 H310 0.930 . S
C288 C286 1.381 . S
C288 C287 1.387 . S
C288 H311 0.931 . S
C289 C282 1.399 . S
C289 C286 1.487 . S
C289 N321 1.337 1_565 S
C290 C291 1.384 . S
C290 C292 1.384 . S
C290 H312 0.931 . S
C291 C290 1.384 . S
C291 C294 1.382 . S
C292 C290 1.384 . S
C292 C293 1.381 . S
C292 H313 0.930 . S
C293 C292 1.381 . S
C293 C295 1.381 . S
C293 C296 1.487 . S
C294 C291 1.382 . S
C294 C295 1.387 . S
C294 H314 0.930 . S
C295 C293 1.381 . S
C295 C294 1.387 . S
C295 H315 0.917 1_545 S
C296 C293 1.487 . S
C296 C303 1.399 . S
C296 N321 1.351 . S
C297 C298 1.384 . S
C297 C299 1.384 . S
C297 H316 0.931 . S
C298 C297 1.384 . S
C298 C301 1.382 . S
C299 C297 1.384 . S
C299 C300 1.381 . S
C299 H317 0.930 . S
C300 C299 1.381 . S
C300 C302 1.381 . S
C300 C303 1.487 . S
C301 C298 1.382 . S
C301 C302 1.387 . S
C301 H318 0.930 . S
C302 C300 1.381 . S
C302 C301 1.387 . S
C302 H319 0.931 . S
C303 C296 1.399 . S
C303 C300 1.487 . S
C303 N320 1.343 . S
H304 C276 0.931 . S
H305 C278 0.930 . S
H306 C280 0.930 . S
H307 C281 0.931 1_545 S
H308 C283 0.931 . S
H309 C285 0.930 . S
H310 C287 0.930 . S
H311 C288 0.931 . S
H312 C290 0.931 . S
H313 C292 0.930 . S
H314 C294 0.930 . S
H315 C295 0.917 1_565 S
H316 C297 0.931 . S
H317 C299 0.930 . S
H318 C301 0.930 . S
H319 C302 0.931 . S
N320 C282 1.343 1_545 S
N320 C303 1.343 . S
N321 C289 1.337 1_545 S
N321 C296 1.351 . S
C322 C323 1.384 . S
C322 C324 1.384 . S
C322 H350 0.931 . S
C323 C322 1.384 . S
C323 C326 1.382 . S
C324 C322 1.384 . S
C324 C325 1.381 . S
C324 H351 0.930 . S
C325 C324 1.381 . S
C325 C327 1.381 . S
C325 C328 1.487 . S
C326 C323 1.382 . S
C326 C327 1.387 . S
C326 H352 0.930 . S
C327 C325 1.381 . S
C327 C326 1.387 . S
C327 H353 0.931 . S
C328 C325 1.487 . S
C328 C335 1.399 . S
C328 N366 1.343 1_565 S
C329 C330 1.384 . S
C329 C331 1.384 . S
C329 H354 0.931 . S
C330 C329 1.384 . S
C330 C333 1.382 . S
C331 C329 1.384 . S
C331 C332 1.381 . S
C331 H355 0.930 . S
C332 C331 1.381 . S
C332 C334 1.381 . S
C332 C335 1.487 . S
C333 C330 1.382 . S
C333 C334 1.387 . S
C333 H356 0.930 . S
C334 C332 1.381 . S
C334 C333 1.387 . S
C334 H357 0.931 . S
C335 C328 1.399 . S
C335 C332 1.487 . S
C335 N367 1.343 1_565 S
C336 C337 1.384 . S
C336 C338 1.384 . S
C336 H358 0.931 . S
C337 C336 1.384 . S
C337 C340 1.382 . S
C338 C336 1.384 . S
C338 C339 1.381 . S
C338 H359 0.930 . S
C339 C338 1.381 . S
C339 C341 1.381 . S
C339 C342 1.487 . S
C340 C337 1.382 . S
C340 C341 1.387 . S
C340 H360 0.930 . S
C341 C339 1.381 . S
C341 C340 1.387 . S
C341 H361 0.931 1_655 S
C342 C339 1.487 . S
C342 C349 1.399 . S
C342 N367 1.343 1_655 S
C343 C344 1.384 . S
C343 C345 1.384 . S
C343 H362 0.931 . S
C344 C343 1.384 . S
C344 C347 1.382 . S
C345 C343 1.384 . S
C345 C346 1.381 . S
C345 H363 0.930 . S
C346 C345 1.381 . S
C346 C348 1.381 . S
C346 C349 1.487 . S
C347 C344 1.382 . S
C347 C348 1.387 . S
C347 H364 0.930 . S
C348 C346 1.381 . S
C348 C347 1.387 . S
C348 H365 0.931 . S
C349 C342 1.399 . S
C349 C346 1.487 . S
C349 N366 1.343 1_655 S
H350 C322 0.931 . S
H351 C324 0.930 . S
H352 C326 0.930 . S
H353 C327 0.931 . S
H354 C329 0.931 . S
H355 C331 0.930 . S
H356 C333 0.930 . S
H357 C334 0.931 . S
H358 C336 0.931 . S
H359 C338 0.930 . S
H360 C340 0.930 . S
H361 C341 0.931 1_455 S
H362 C343 0.931 . S
H363 C345 0.930 . S
H364 C347 0.930 . S
H365 C348 0.931 . S
N366 C328 1.343 1_545 S
N366 C349 1.343 1_455 S
N367 C335 1.343 1_545 S
N367 C342 1.343 1_455 S
Co368 O369 2.216 1_554 S
Co368 O370 2.091 1_554 S
Co368 O372 2.004 . S
Co368 O378 2.021 1_554 S
Co368 O380 2.137 . S
Co368 O381 2.244 . S
O369 Co368 2.216 1_556 S
O369 C376 1.247 . S
O370 Co368 2.091 1_556 S
O370 C376 1.261 . S
C371 O380 1.247 . S
C371 O381 1.272 . S
O372 Co368 2.004 . S
O372 C377 1.259 . S
Co373 O374 2.061 . S
Co373 O379 2.052 1_554 S
Co373 O381 2.135 . S
O374 Co373 2.061 . S
O374 C377 1.235 . S
C375 O378 1.238 . S
C375 O379 1.241 . S
C376 O369 1.247 . S
C376 O370 1.261 . S
C377 O372 1.259 . S
C377 O374 1.235 . S
O378 Co368 2.021 1_556 S
O378 C375 1.238 . S
O379 Co373 2.052 1_556 S
O379 C375 1.241 . S
O380 Co368 2.137 . S
O380 C371 1.247 . S
O381 Co368 2.244 . S
O381 C371 1.272 . S
O381 Co373 2.135 . S
Co382 O383 2.216 . S
Co382 O384 2.091 . S
Co382 O386 2.004 . S
Co382 O392 2.021 . S
Co382 O394 2.137 . S
Co382 O395 2.244 . S
O383 Co382 2.216 . S
O383 C390 1.247 . S
O384 Co382 2.091 . S
O384 C390 1.261 . S
C385 O394 1.247 . S
C385 O395 1.272 . S
O386 Co382 2.004 . S
O386 C391 1.259 . S
Co387 O388 2.061 . S
Co387 O393 2.052 . S
Co387 O395 2.135 . S
O388 Co387 2.061 . S
O388 C391 1.235 . S
C389 O392 1.238 . S
C389 O393 1.241 . S
C390 O383 1.247 . S
C390 O384 1.261 . S
C391 O386 1.259 . S
C391 O388 1.235 . S
O392 Co382 2.021 . S
O392 C389 1.238 . S
O393 Co387 2.052 . S
O393 C389 1.241 . S
O394 Co382 2.137 . S
O394 C385 1.247 . S
O395 Co382 2.244 . S
O395 C385 1.272 . S
O395 Co387 2.135 . S
Co396 O397 2.216 . S
Co396 O398 2.091 . S
Co396 O400 2.004 . S
Co396 O406 2.021 . S
Co396 O408 2.137 . S
Co396 O409 2.244 . S
O397 Co396 2.216 . S
O397 C404 1.247 . S
O398 Co396 2.091 . S
O398 C404 1.261 . S
C399 O408 1.247 . S
C399 O409 1.272 . S
O400 Co396 2.004 . S
O400 C405 1.259 . S
Co401 O402 2.061 . S
Co401 O407 2.052 . S
Co401 O409 2.135 . S
O402 Co401 2.061 . S
O402 C405 1.235 . S
C403 O406 1.238 . S
C403 O407 1.241 . S
C404 O397 1.247 . S
C404 O398 1.261 . S
C405 O400 1.259 . S
C405 O402 1.235 . S
O406 Co396 2.021 . S
O406 C403 1.238 . S
O407 Co401 2.052 . S
O407 C403 1.241 . S
O408 Co396 2.137 . S
O408 C399 1.247 . S
O409 Co396 2.244 . S
O409 C399 1.272 . S
O409 Co401 2.135 . S
Co410 O411 2.216 . S
Co410 O412 2.091 . S
Co410 O414 2.004 . S
Co410 O420 2.021 . S
Co410 O422 2.137 . S
Co410 O423 2.244 . S
O411 Co410 2.216 . S
O411 C418 1.247 . S
O412 Co410 2.091 . S
O412 C418 1.261 . S
C413 O422 1.247 . S
C413 O423 1.272 . S
O414 Co410 2.004 . S
O414 C419 1.259 . S
Co415 O416 2.061 . S
Co415 O421 2.052 . S
Co415 O423 2.135 . S
O416 Co415 2.061 . S
O416 C419 1.235 . S
C417 O420 1.238 . S
C417 O421 1.241 . S
C418 O411 1.247 . S
C418 O412 1.261 . S
C419 O414 1.259 . S
C419 O416 1.235 . S
O420 Co410 2.021 . S
O420 C417 1.238 . S
O421 Co415 2.052 . S
O421 C417 1.241 . S
O422 Co410 2.137 . S
O422 C413 1.247 . S
O423 Co410 2.244 . S
O423 C413 1.272 . S
O423 Co415 2.135 . S
Co424 O425 2.216 . S
Co424 O426 2.091 . S
Co424 O428 2.004 . S
Co424 O434 2.021 . S
Co424 O436 2.137 . S
Co424 O437 2.244 . S
O425 Co424 2.216 . S
O425 C432 1.247 . S
O426 Co424 2.091 . S
O426 C432 1.261 . S
C427 O436 1.247 . S
C427 O437 1.272 . S
O428 Co424 2.004 . S
O428 C433 1.259 . S
Co429 O430 2.061 . S
Co429 O435 2.052 . S
Co429 O437 2.135 . S
O430 Co429 2.061 . S
O430 C433 1.235 . S
C431 O434 1.238 . S
C431 O435 1.241 . S
C432 O425 1.247 . S
C432 O426 1.261 . S
C433 O428 1.259 . S
C433 O430 1.235 . S
O434 Co424 2.021 . S
O434 C431 1.238 . S
O435 Co429 2.052 . S
O435 C431 1.241 . S
O436 Co424 2.137 . S
O436 C427 1.247 . S
O437 Co424 2.244 . S
O437 C427 1.272 . S
O437 Co429 2.135 . S
Co438 O439 2.216 . S
Co438 O440 2.091 . S
Co438 O442 2.004 . S
Co438 O448 2.021 . S
Co438 O450 2.137 . S
Co438 O451 2.244 . S
O439 Co438 2.216 . S
O439 C446 1.247 . S
O440 Co438 2.091 . S
O440 C446 1.261 . S
C441 O450 1.247 . S
C441 O451 1.272 . S
O442 Co438 2.004 . S
O442 C447 1.259 . S
Co443 O444 2.061 . S
Co443 O449 2.052 . S
Co443 O451 2.135 . S
O444 Co443 2.061 . S
O444 C447 1.235 . S
C445 O448 1.238 . S
C445 O449 1.241 . S
C446 O439 1.247 . S
C446 O440 1.261 . S
C447 O442 1.259 . S
C447 O444 1.235 . S
O448 Co438 2.021 . S
O448 C445 1.238 . S
O449 Co443 2.052 . S
O449 C445 1.241 . S
O450 Co438 2.137 . S
O450 C441 1.247 . S
O451 Co438 2.244 . S
O451 C441 1.272 . S
O451 Co443 2.135 . S
Co452 O453 2.216 1_556 S
Co452 O454 2.091 1_556 S
Co452 O456 2.004 . S
Co452 O462 2.021 1_556 S
Co452 O464 2.137 . S
Co452 O465 2.244 . S
O453 Co452 2.216 1_554 S
O453 C460 1.247 . S
O454 Co452 2.091 1_554 S
O454 C460 1.261 . S
C455 O464 1.247 . S
C455 O465 1.272 . S
O456 Co452 2.004 . S
O456 C461 1.259 . S
Co457 O458 2.061 . S
Co457 O463 2.052 1_556 S
Co457 O465 2.135 . S
O458 Co457 2.061 . S
O458 C461 1.235 . S
C459 O462 1.238 . S
C459 O463 1.241 . S
C460 O453 1.247 . S
C460 O454 1.261 . S
C461 O456 1.259 . S
C461 O458 1.235 . S
O462 Co452 2.021 1_554 S
O462 C459 1.238 . S
O463 Co457 2.052 1_554 S
O463 C459 1.241 . S
O464 Co452 2.137 . S
O464 C455 1.247 . S
O465 Co452 2.244 . S
O465 C455 1.272 . S
O465 Co457 2.135 . S
Co466 O467 2.216 . S
Co466 O468 2.091 . S
Co466 O470 2.004 . S
Co466 O476 2.021 . S
Co466 O478 2.137 . S
Co466 O479 2.244 . S
O467 Co466 2.216 . S
O467 C474 1.247 . S
O468 Co466 2.091 . S
O468 C474 1.261 . S
C469 O478 1.247 . S
C469 O479 1.272 . S
O470 Co466 2.004 . S
O470 C475 1.259 . S
Co471 O472 2.061 . S
Co471 O477 2.052 . S
Co471 O479 2.135 . S
O472 Co471 2.061 . S
O472 C475 1.235 . S
C473 O476 1.238 . S
C473 O477 1.241 . S
C474 O467 1.247 . S
C474 O468 1.261 . S
C475 O470 1.259 . S
C475 O472 1.235 . S
O476 Co466 2.021 . S
O476 C473 1.238 . S
O477 Co471 2.052 . S
O477 C473 1.241 . S
O478 Co466 2.137 . S
O478 C469 1.247 . S
O479 Co466 2.244 . S
O479 C469 1.272 . S
O479 Co471 2.135 . S
C390 C8 1.640 . S
C404 C61 1.618 . S
C419 C107 1.626 . S
C139 C377 1.623 . S
C192 C376 1.614 . S
C238 C391 1.613 . S
C405 C284 1.711 . S
C418 C330 1.634 . S
C100 C446 1.611 . S
C460 C160 1.654 . S
C15 C475 1.616 . S
C432 C54 1.586 . S
C291 C433 1.634 . S
C337 C447 1.602 . S
C461 C199 1.631 . S
C245 C474 1.645 . S
C399 C1 2.099 . S
C417 C68 2.165 . S
C114 C375 2.217 . S
C146 C385 2.179 . S
C185 C413 2.067 . S
C371 C231 2.120 . S
C389 C277 2.175 . S
C403 C323 2.152 . S
C455 C93 2.064 . S
C473 C153 2.092 . S
C22 C427 2.061 . S
C441 C47 2.084 . S
C469 C298 2.120 . S
C344 C431 2.244 . S
C445 C206 2.214 . S
C459 C252 2.152 . S
