# Generated by pormake.
# Topology zzz, (3,6)-cn, num edge types: 1
# Building blocks:
#     Node 0, Type 0, BuildingBlock: VETTIZ_charged_linker_0, # of connection points: 3
#     Node 1, Type 0, BuildingBlock: VETTIZ_charged_linker_0, # of connection points: 3
#     Node 2, Type 0, BuildingBlock: VETTIZ_charged_linker_0, # of connection points: 3
#     Node 3, Type 0, BuildingBlock: VETTIZ_charged_linker_0, # of connection points: 3
#     Node 4, Type 0, BuildingBlock: VETTIZ_charged_linker_0, # of connection points: 3
#     Node 5, Type 0, BuildingBlock: VETTIZ_charged_linker_0, # of connection points: 3
#     Node 6, Type 0, BuildingBlock: VETTIZ_charged_linker_0, # of connection points: 3
#     Node 7, Type 0, BuildingBlock: VETTIZ_charged_linker_0, # of connection points: 3
#     Node 8, Type 1, BuildingBlock: KUMJIN_clean_sbu_1, # of connection points: 6
#     Node 9, Type 1, BuildingBlock: KUMJIN_clean_sbu_1, # of connection points: 6
#     Node 10, Type 1, BuildingBlock: KUMJIN_clean_sbu_1, # of connection points: 6
#     Node 11, Type 1, BuildingBlock: KUMJIN_clean_sbu_1, # of connection points: 6
#     Edge 12, Type (0, 1), BuildingBlock: XUDNAN_clean_linker_2, # of connection points: 2
#     Edge 13, Type (0, 1), BuildingBlock: XUDNAN_clean_linker_2, # of connection points: 2
#     Edge 14, Type (0, 1), BuildingBlock: XUDNAN_clean_linker_2, # of connection points: 2
#     Edge 15, Type (0, 1), BuildingBlock: XUDNAN_clean_linker_2, # of connection points: 2
#     Edge 16, Type (0, 1), BuildingBlock: XUDNAN_clean_linker_2, # of connection points: 2
#     Edge 17, Type (0, 1), BuildingBlock: XUDNAN_clean_linker_2, # of connection points: 2
#     Edge 18, Type (0, 1), BuildingBlock: XUDNAN_clean_linker_2, # of connection points: 2
#     Edge 19, Type (0, 1), BuildingBlock: XUDNAN_clean_linker_2, # of connection points: 2
#     Edge 20, Type (0, 1), BuildingBlock: XUDNAN_clean_linker_2, # of connection points: 2
#     Edge 21, Type (0, 1), BuildingBlock: XUDNAN_clean_linker_2, # of connection points: 2
#     Edge 22, Type (0, 1), BuildingBlock: XUDNAN_clean_linker_2, # of connection points: 2
#     Edge 23, Type (0, 1), BuildingBlock: XUDNAN_clean_linker_2, # of connection points: 2
#     Edge 24, Type (0, 1), BuildingBlock: XUDNAN_clean_linker_2, # of connection points: 2
#     Edge 25, Type (0, 1), BuildingBlock: XUDNAN_clean_linker_2, # of connection points: 2
#     Edge 26, Type (0, 1), BuildingBlock: XUDNAN_clean_linker_2, # of connection points: 2
#     Edge 27, Type (0, 1), BuildingBlock: XUDNAN_clean_linker_2, # of connection points: 2
#     Edge 28, Type (0, 1), BuildingBlock: XUDNAN_clean_linker_2, # of connection points: 2
#     Edge 29, Type (0, 1), BuildingBlock: XUDNAN_clean_linker_2, # of connection points: 2
#     Edge 30, Type (0, 1), BuildingBlock: XUDNAN_clean_linker_2, # of connection points: 2
#     Edge 31, Type (0, 1), BuildingBlock: XUDNAN_clean_linker_2, # of connection points: 2
#     Edge 32, Type (0, 1), BuildingBlock: XUDNAN_clean_linker_2, # of connection points: 2
#     Edge 33, Type (0, 1), BuildingBlock: XUDNAN_clean_linker_2, # of connection points: 2
#     Edge 34, Type (0, 1), BuildingBlock: XUDNAN_clean_linker_2, # of connection points: 2
#     Edge 35, Type (0, 1), BuildingBlock: XUDNAN_clean_linker_2, # of connection points: 2
# Relax obj value: 0.319
# Max RMSD: 0.211
# Mean RMSD: 0.184
data_MOF--net-zzz--node1-KUMJIN_clean_sbu_1--node2-VETTIZ_charged_linker_0--edge1-XUDNAN_clean_linker_2
_symmetry_space_group_name_H-M    P1
_symmetry_Int_Tables_number       1
_symmetry_cell_setting            triclinic
loop_
_symmetry_equiv_pos_as_xyz
'x, y, z'
_cell_length_a     56.321031
_cell_length_b     56.394799
_cell_length_c     21.069701
_cell_angle_alpha  89.974219
_cell_angle_beta   89.952976
_cell_angle_gamma 90.328557
loop_
_atom_site_label
_atom_site_type_symbol
_atom_site_fract_x
_atom_site_fract_y
_atom_site_fract_z
_atom_type_partial_charge
C0 C 0.80389 0.52597 0.30287 0.0
C1 C 0.82885 0.52991 0.31065 0.0
C2 C 0.84175 0.5387 0.25858 0.0
C3 C 0.8059 0.54166 0.19506 0.0
C4 C 0.79279 0.53158 0.2436 0.0
C5 C 0.76707 0.5274 0.22141 0.0
H6 H 0.68371 0.55651 0.98789 0.0
C7 C 0.78971 0.5482 0.14259 0.0
C8 C 0.76644 0.54036 0.15691 0.0
H9 H 0.67394 0.50156 0.12778 0.0
H10 H 0.71274 0.51158 0.1749 0.0
H11 H 0.71355 0.5954 0.08015 0.0
H12 H 0.72303 0.5429 0.94067 0.0
H13 H 0.75166 0.55485 0.94046 0.0
H14 H 0.72672 0.57321 0.91934 0.0
H15 H 0.70815 0.59772 0.99643 0.0
H16 H 0.73649 0.60588 0.03055 0.0
C17 C 0.74934 0.53803 0.26879 0.0
C18 C 0.76354 0.50046 0.21328 0.0
C19 C 0.82277 0.58354 0.94008 0.0
C20 C 0.81131 0.59207 0.88513 0.0
C21 C 0.78764 0.59982 0.89032 0.0
C22 C 0.77455 0.59536 0.94557 0.0
C23 C 0.78523 0.58293 0.99566 0.0
C24 C 0.80936 0.57923 0.99494 0.0
C25 C 0.8178 0.56776 0.05536 0.0
C26 C 0.79421 0.56209 0.08767 0.0
C27 C 0.77529 0.57041 0.05131 0.0
C28 C 0.83261 0.58648 0.09258 0.0
C29 C 0.83153 0.54486 0.03834 0.0
C30 C 0.68944 0.54681 0.02951 0.0
C31 C 0.67536 0.52839 0.05382 0.0
C32 C 0.68433 0.51584 0.10723 0.0
C33 C 0.70697 0.52139 0.1341 0.0
C34 C 0.72144 0.539 0.10593 0.0
C35 C 0.71225 0.55112 0.05412 0.0
C36 C 0.73011 0.56702 0.02338 0.0
C37 C 0.75193 0.56209 0.0632 0.0
C38 C 0.74717 0.54634 0.11401 0.0
C39 C 0.72169 0.59292 0.03246 0.0
C40 C 0.73308 0.55934 0.95253 0.0
H41 H 0.84171 0.55138 0.16477 0.0
H42 H 0.79347 0.51875 0.34156 0.0
H43 H 0.77772 0.49295 0.18266 0.0
H44 H 0.74647 0.49602 0.19068 0.0
H45 H 0.76425 0.49137 0.26006 0.0
H46 H 0.75298 0.55726 0.27557 0.0
H47 H 0.75067 0.52909 0.31564 0.0
H48 H 0.73087 0.53599 0.25148 0.0
H49 H 0.84109 0.57789 0.93866 0.0
H50 H 0.77866 0.60744 0.84977 0.0
H51 H 0.75626 0.6004 0.94561 0.0
H52 H 0.82981 0.60481 0.07459 0.0
H53 H 0.85194 0.58289 0.08908 0.0
H54 H 0.82749 0.58727 0.14337 0.0
H55 H 0.82222 0.53494 0.99999 0.0
H56 H 0.83286 0.53231 0.0784 0.0
H57 H 0.84976 0.54908 0.02144 0.0
H58 H 0.86071 0.54176 0.26262 0.0
C59 C 0.83054 0.54466 0.20174 0.0
C60 C 0.93231 0.80286 0.91929 0.0
C61 C 0.91603 0.82151 0.92671 0.0
C62 C 0.90865 0.82755 0.98862 0.0
C63 C 0.93873 0.80171 0.03253 0.0
C64 C 0.9435 0.79338 0.97246 0.0
C65 C 0.96392 0.77637 0.97102 0.0
H66 H 0.9979 0.68603 0.12961 0.0
C67 C 0.95658 0.7916 0.07597 0.0
C68 C 0.97071 0.77596 0.04095 0.0
H69 H 0.00887 0.70121 0.92981 0.0
H70 H 1.00496 0.74302 0.95116 0.0
H71 H 0.03258 0.74544 0.17772 0.0
H72 H 0.95696 0.72907 0.17265 0.0
H73 H 0.97063 0.73954 0.24474 0.0
H74 H 0.97635 0.70988 0.21709 0.0
H75 H 0.0227 0.71753 0.21048 0.0
H76 H 0.01517 0.74456 0.24988 0.0
C77 C 0.98407 0.78735 0.93019 0.0
C78 C 0.95475 0.75215 0.9455 0.0
C79 C 0.97499 0.83463 0.27844 0.0
C80 C 0.99581 0.83561 0.31483 0.0
C81 C 0.01192 0.81642 0.30913 0.0
C82 C 1.00744 0.79719 0.26648 0.0
C83 C 0.98656 0.79695 0.22956 0.0
C84 C 0.97118 0.81604 0.23495 0.0
C85 C 0.95396 0.81715 0.18055 0.0
C86 C 0.96239 0.79661 0.13998 0.0
C87 C 0.97997 0.78325 0.17091 0.0
C88 C 0.95731 0.8415 0.14696 0.0
C89 C 0.9286 0.81275 0.20658 0.0
C90 C 0.9993 0.69838 0.09045 0.0
C91 C 1.0025 0.68985 0.02679 0.0
C92 C 1.0056 0.70677 0.97824 0.0
C93 C 1.00269 0.73093 0.99 0.0
C94 C 0.99631 0.73855 0.05067 0.0
C95 C 0.99749 0.72338 0.10155 0.0
C96 C 0.99478 0.73776 0.16336 0.0
C97 C 0.99019 0.76319 0.1385 0.0
C98 C 0.98776 0.76171 0.07218 0.0
C99 C 0.01769 0.73634 0.20258 0.0
C100 C 0.97341 0.72849 0.20173 0.0
H101 H 0.91454 0.82372 0.08774 0.0
H102 H 0.93856 0.79758 0.87283 0.0
H103 H 0.94981 0.73997 0.9849 0.0
H104 H 0.96788 0.74336 0.91445 0.0
H105 H 0.93874 0.75413 0.9152 0.0
H106 H 0.98532 0.80685 0.93766 0.0
H107 H 0.9809 0.78414 0.87885 0.0
H108 H 1.00173 0.78041 0.94298 0.0
H109 H 0.9628 0.84942 0.27959 0.0
H110 H 0.0286 0.81703 0.33458 0.0
H111 H 0.02096 0.78399 0.2594 0.0
H112 H 0.94922 0.85601 0.17511 0.0
H113 H 0.94975 0.8424 0.09907 0.0
H114 H 0.97652 0.84565 0.14095 0.0
H115 H 0.92891 0.80134 0.24968 0.0
H116 H 0.91725 0.80302 0.17242 0.0
H117 H 0.91988 0.82967 0.21969 0.0
H118 H 0.89583 0.84153 0.99587 0.0
C119 C 0.91976 0.81747 0.04176 0.0
C120 C 0.83247 1.00398 0.08581 0.0
C121 C 0.84171 0.99809 0.0246 0.0
C122 C 0.82717 0.98518 0.98283 0.0
C123 C 0.79649 0.9815 0.06288 0.0
C124 C 0.80918 0.99605 0.10325 0.0
C125 C 0.79481 1.00058 0.16417 0.0
H126 H 0.69467 0.96697 0.33761 0.0
C127 C 0.77507 0.9728 0.09593 0.0
C128 C 0.77241 0.98505 0.15363 0.0
H129 H 0.71819 0.03939 0.32019 0.0
H130 H 0.74871 0.02717 0.24383 0.0
H131 H 0.68652 0.96555 0.21587 0.0
H132 H 0.747 0.93488 0.30485 0.0
H133 H 0.73537 0.91457 0.24876 0.0
H134 H 0.71662 0.92531 0.31189 0.0
H135 H 0.68709 0.93456 0.23323 0.0
H136 H 0.6966 0.94627 0.1576 0.0
C137 C 0.78932 0.02723 0.16928 0.0
C138 C 0.80876 0.99194 0.22239 0.0
C139 C 0.72805 0.9063 0.99573 0.0
C140 C 0.70761 0.89405 0.01627 0.0
C141 C 0.70307 0.89272 0.08212 0.0
C142 C 0.71603 0.90684 0.12482 0.0
C143 C 0.73339 0.92251 0.10105 0.0
C144 C 0.74032 0.92074 0.0385 0.0
C145 C 0.75912 0.93858 0.02122 0.0
C146 C 0.76108 0.95245 0.08275 0.0
C147 C 0.74547 0.94347 0.1286 0.0
C148 C 0.74945 0.95451 0.96695 0.0
C149 C 0.78219 0.92486 1.00453 0.0
C150 C 0.70757 0.98002 0.3217 0.0
C151 C 0.70467 1.00391 0.33821 0.0
C152 C 0.72057 0.02067 0.31083 0.0
C153 C 0.73866 0.01362 0.26774 0.0
C154 C 0.74101 0.98959 0.25105 0.0
C155 C 0.72453 0.97357 0.27567 0.0
C156 C 0.72286 0.95148 0.23608 0.0
C157 C 0.74097 0.95673 0.18447 0.0
C158 C 0.75319 0.97825 0.19555 0.0
C159 C 0.69707 0.94912 0.2095 0.0
C160 C 0.73073 0.93029 0.27743 0.0
H161 H 0.79523 0.96672 0.96725 0.0
H162 H 0.84303 0.01431 0.11871 0.0
H163 H 0.81355 0.97295 0.21711 0.0
H164 H 0.79789 0.99384 0.26614 0.0
H165 H 0.82536 1.00245 0.22844 0.0
H166 H 0.77421 0.03213 0.13812 0.0
H167 H 0.80497 0.0381 0.1551 0.0
H168 H 0.78537 0.03233 0.21889 0.0
H169 H 0.73248 0.90758 0.94585 0.0
H170 H 0.68791 0.88279 0.09967 0.0
H171 H 0.71082 0.90646 0.17377 0.0
H172 H 0.73013 0.95785 0.97326 0.0
H173 H 0.75192 0.94604 0.91985 0.0
H174 H 0.7577 0.97235 0.96604 0.0
H175 H 0.78125 0.9059 0.01899 0.0
H176 H 0.79793 0.93204 0.0297 0.0
H177 H 0.78575 0.92511 0.95269 0.0
H178 H 0.83352 0.9806 0.93583 0.0
C179 C 0.80492 0.97687 1.00149 0.0
C180 C 0.52131 0.72116 0.29131 0.0
C181 C 0.53448 0.70398 0.3273 0.0
C182 C 0.55952 0.70528 0.32407 0.0
C183 C 0.55773 0.73507 0.24224 0.0
C184 C 0.53367 0.73725 0.25006 0.0
C185 C 0.52506 0.75889 0.2118 0.0
H186 H 0.55987 0.8442 0.98815 0.0
C187 C 0.56604 0.75103 0.19227 0.0
C188 C 0.54776 0.76674 0.17561 0.0
H189 H 0.49104 0.84118 0.07865 0.0
H190 H 0.50357 0.80624 0.13909 0.0
H191 H 0.59337 0.83081 0.10415 0.0
H192 H 0.56017 0.79721 0.94937 0.0
H193 H 0.57861 0.77398 0.97392 0.0
H194 H 0.59134 0.80176 0.94709 0.0
H195 H 0.60075 0.83285 0.0213 0.0
H196 H 0.61404 0.81072 0.07152 0.0
C197 C 0.5168 0.77805 0.25871 0.0
C198 C 0.50521 0.75131 0.16597 0.0
C199 C 0.62598 0.71747 0.04169 0.0
C200 C 0.63344 0.72574 0.98188 0.0
C201 C 0.63332 0.75035 0.97031 0.0
C202 C 0.62208 0.76575 0.0129 0.0
C203 C 0.61031 0.75623 0.06601 0.0
C204 C 0.61405 0.73291 0.08261 0.0
C205 C 0.60107 0.72612 0.14237 0.0
C206 C 0.58646 0.74861 0.15373 0.0
C207 C 0.59121 0.76558 0.10695 0.0
C208 C 0.61985 0.72114 0.19433 0.0
C209 C 0.58502 0.70424 0.1295 0.0
C210 C 0.54709 0.83634 0.02032 0.0
C211 C 0.52435 0.8461 0.02747 0.0
C212 C 0.5089 0.8347 0.07184 0.0
C213 C 0.51612 0.81436 0.10722 0.0
C214 C 0.53905 0.80501 0.09858 0.0
C215 C 0.55376 0.81606 0.05461 0.0
C216 C 0.57658 0.8032 0.04503 0.0
C217 C 0.57443 0.78371 0.09437 0.0
C218 C 0.55235 0.78431 0.1267 0.0
C219 C 0.5974 0.82026 0.0609 0.0
C220 C 0.57689 0.79355 0.97561 0.0
H221 H 0.5899 0.7229 0.28634 0.0
H222 H 0.50218 0.72201 0.29533 0.0
H223 H 0.51141 0.73672 0.13471 0.0
H224 H 0.49969 0.76622 0.13529 0.0
H225 H 0.4894 0.74493 0.19269 0.0
H226 H 0.53104 0.78206 0.29371 0.0
H227 H 0.50083 0.77192 0.28518 0.0
H228 H 0.51242 0.7948 0.23445 0.0
H229 H 0.6265 0.69875 0.05281 0.0
H230 H 0.63968 0.75731 0.92543 0.0
H231 H 0.62153 0.78418 1.0008 0.0
H232 H 0.63737 0.71629 0.17384 0.0
H233 H 0.61479 0.7057 0.22414 0.0
H234 H 0.62279 0.73695 0.22488 0.0
H235 H 0.57261 0.70782 0.08963 0.0
H236 H 0.57434 0.6993 0.17155 0.0
H237 H 0.59574 0.68842 0.11746 0.0
H238 H 0.57058 0.69348 0.35149 0.0
C239 C 0.571 0.72122 0.28364 0.0
C240 C 0.3299 0.50518 0.20591 0.0
C241 C 0.33753 0.50899 0.27021 0.0
C242 C 0.31987 0.51272 0.31658 0.0
C243 C 0.28918 0.50245 0.24176 0.0
C244 C 0.30504 0.50322 0.19239 0.0
C245 C 0.2914 0.4996 0.12969 0.0
H246 H 0.18435 0.4599 1.00115 0.0
C247 C 0.26651 0.49286 0.21927 0.0
C248 C 0.26567 0.49483 0.15276 0.0
H249 H 0.21427 0.52709 0.9438 0.0
H250 H 0.2449 0.52356 0.02835 0.0
H251 H 0.2324 0.43086 0.04007 0.0
H252 H 0.18456 0.47539 0.14606 0.0
H253 H 0.18836 0.44811 0.1856 0.0
H254 H 0.17576 0.44817 0.10817 0.0
H255 H 0.20443 0.41984 0.06874 0.0
H256 H 0.23081 0.41942 0.11762 0.0
C257 C 0.30128 0.47806 0.09373 0.0
C258 C 0.29306 0.52209 0.08883 0.0
C259 C 0.22971 0.43317 0.36998 0.0
C260 C 0.21214 0.4157 0.36188 0.0
C261 C 0.2064 0.4083 0.29975 0.0
C262 C 0.21545 0.42059 0.24697 0.0
C263 C 0.22991 0.44065 0.25691 0.0
C264 C 0.23806 0.44563 0.3172 0.0
C265 C 0.2533 0.46751 0.31957 0.0
C266 C 0.25322 0.47472 0.24984 0.0
C267 C 0.23872 0.4595 0.21412 0.0
C268 C 0.27813 0.46054 0.34539 0.0
C269 C 0.24059 0.48626 0.36098 0.0
C270 C 0.19787 0.47357 1.00473 0.0
C271 C 0.19706 0.49338 0.96421 0.0
C272 C 0.21456 0.51135 0.97322 0.0
C273 C 0.23257 0.50912 0.02067 0.0
C274 C 0.23318 0.48876 0.0595 0.0
C275 C 0.21519 0.47202 0.0527 0.0
C276 C 0.21443 0.45489 0.10742 0.0
C277 C 0.23388 0.46489 0.14972 0.0
C278 C 0.24644 0.48334 0.11952 0.0
C279 C 0.22066 0.42986 0.08251 0.0
C280 C 0.18953 0.45653 0.13867 0.0
H281 H 0.28314 0.51219 0.33976 0.0
H282 H 0.34282 0.50334 0.1682 0.0
H283 H 0.28397 0.53714 0.11247 0.0
H284 H 0.28485 0.51908 0.04168 0.0
H285 H 0.31194 0.52713 0.0809 0.0
H286 H 0.30043 0.46191 0.12394 0.0
H287 H 0.32008 0.48118 0.0798 0.0
H288 H 0.29079 0.47467 0.04997 0.0
H289 H 0.23444 0.43943 0.41694 0.0
H290 H 0.19295 0.39478 0.29232 0.0
H291 H 0.20935 0.41527 0.20089 0.0
H292 H 0.29071 0.45664 0.30614 0.0
H293 H 0.27734 0.44445 0.37584 0.0
H294 H 0.28579 0.4744 0.37649 0.0
H295 H 0.22108 0.48593 0.35255 0.0
H296 H 0.24634 0.50454 0.34965 0.0
H297 H 0.24367 0.48291 0.41227 0.0
H298 H 0.32463 0.51641 0.36541 0.0
C299 C 0.29586 0.50972 0.30245 0.0
C300 C 0.10153 0.23363 0.34422 0.0
C301 C 0.10329 0.20879 0.34646 0.0
C302 C 0.10242 0.19608 0.28886 0.0
C303 C 0.08945 0.23139 0.23412 0.0
C304 C 0.09375 0.24447 0.28815 0.0
C305 C 0.08591 0.26977 0.28128 0.0
H306 H 1.00222 0.34239 0.19158 0.0
C307 C 0.07553 0.24618 0.18991 0.0
C308 C 0.0737 0.26882 0.2162 0.0
H309 H 0.06524 0.35566 0.30555 0.0
H310 H 0.08317 0.32143 0.2615 0.0
H311 H 0.0435 0.31968 0.06362 0.0
H312 H 0.99724 0.28015 0.19182 0.0
H313 H 0.99348 0.27567 0.10791 0.0
H314 H 0.98512 0.30344 0.1432 0.0
H315 H 0.01227 0.32624 0.06656 0.0
H316 H 0.02257 0.29976 0.02868 0.0
C317 C 0.10848 0.28574 0.28221 0.0
C318 C 0.06822 0.27539 0.33566 0.0
C319 C 0.03754 0.20274 1.00708 0.0
C320 C 0.02212 0.20845 0.95761 0.0
C321 C 0.01195 0.23149 0.95799 0.0
C322 C 0.01717 0.24817 1.00739 0.0
C323 C 0.03339 0.24215 0.05583 0.0
C324 C 0.0432 0.21961 0.05381 0.0
C325 C 0.06087 0.21561 0.10509 0.0
C326 C 0.06127 0.23959 0.13729 0.0
C327 C 0.04474 0.25556 0.1105 0.0
C328 C 0.08519 0.21015 0.07357 0.0
C329 C 0.05097 0.19556 0.14888 0.0
C330 C 0.01954 0.33741 0.20911 0.0
C331 C 0.03161 0.35203 0.25512 0.0
C332 C 0.05491 0.34545 0.27193 0.0
C333 C 0.06524 0.32488 0.24858 0.0
C334 C 0.05204 0.30929 0.21116 0.0
C335 C 0.03062 0.31616 0.18631 0.0
C336 C 0.0235 0.29866 0.13316 0.0
C337 C 0.04244 0.27893 0.13907 0.0
C338 C 0.05823 0.28558 0.18804 0.0
C339 C 0.02551 0.31174 0.06927 0.0
C340 C 0.99835 0.2889 0.14462 0.0
H341 H 0.0942 0.19641 0.1913 0.0
H342 H 0.1034 0.24397 0.3872 0.0
H343 H 0.0533 0.26238 0.33585 0.0
H344 H 0.06045 0.29319 0.33205 0.0
H345 H 0.07711 0.27472 0.38261 0.0
H346 H 0.12499 0.27566 0.29214 0.0
H347 H 0.10745 0.29943 0.31998 0.0
H348 H 0.11137 0.29457 0.23566 0.0
H349 H 0.04601 0.18553 1.00805 0.0
H350 H 1.00007 0.23661 0.92008 0.0
H351 H 0.00872 0.2652 1.00625 0.0
H352 H 0.08766 0.22074 0.02943 0.0
H353 H 0.08656 0.19112 0.06056 0.0
H354 H 0.10048 0.21506 0.10385 0.0
H355 H 0.03169 0.19216 0.14115 0.0
H356 H 0.05219 0.20011 0.19988 0.0
H357 H 0.06019 0.17849 0.14049 0.0
H358 H 0.10415 0.17698 0.28801 0.0
C359 C 0.09587 0.20736 0.23255 0.0
C360 C 0.30702 0.04109 1.0038 0.0
C361 C 0.33155 0.04764 0.99461 0.0
C362 C 0.34263 0.06009 0.0446 0.0
C363 C 0.30591 0.06273 0.10413 0.0
C364 C 0.29459 0.04861 0.05993 0.0
C365 C 0.26909 0.04311 0.08271 0.0
H366 H 0.18538 0.06595 0.32158 0.0
C367 C 0.28897 0.06944 0.1547 0.0
C368 C 0.26697 0.05792 0.14422 0.0
H369 H 0.17388 0.01704 0.16789 0.0
H370 H 0.21387 0.02655 0.12498 0.0
H371 H 0.23426 0.05176 0.35615 0.0
H372 H 0.20651 0.10584 0.23589 0.0
H373 H 0.23118 0.11923 0.27208 0.0
H374 H 0.20705 0.10822 0.32071 0.0
H375 H 0.22379 0.07941 0.38679 0.0
H376 H 0.25449 0.07502 0.36584 0.0
C377 C 0.26705 0.0164 0.09663 0.0
C378 C 0.25107 0.05115 0.0325 0.0
C379 C 0.3192 0.1214 0.33388 0.0
C380 C 0.30877 0.12741 0.39232 0.0
C381 C 0.2839 0.127 0.39774 0.0
C382 C 0.26999 0.11719 0.34928 0.0
C383 C 0.28118 0.1073 0.29564 0.0
C384 C 0.30519 0.11077 0.28695 0.0
C385 C 0.31432 0.09799 0.22938 0.0
C386 C 0.29193 0.08555 0.206 0.0
C387 C 0.27287 0.09065 0.24583 0.0
C388 C 0.33335 0.07984 0.25162 0.0
C389 C 0.32335 0.11709 0.18199 0.0
C390 C 0.1914 0.05685 0.27923 0.0
C391 C 0.17664 0.0404 0.24946 0.0
C392 C 0.18516 0.02945 0.19311 0.0
C393 C 0.20825 0.03498 0.16822 0.0
C394 C 0.22288 0.05171 0.19975 0.0
C395 C 0.21379 0.06222 0.25414 0.0
C396 C 0.23016 0.07987 0.28286 0.0
C397 C 0.25121 0.07817 0.23897 0.0
C398 C 0.24764 0.06172 0.18895 0.0
C399 C 0.23597 0.07137 0.3515 0.0
C400 C 0.2182 0.1046 0.27833 0.0
H401 H 0.34017 0.0778 0.13132 0.0
H402 H 0.29776 0.03068 0.96842 0.0
H403 H 0.25371 0.07024 0.02119 0.0
H404 H 0.23262 0.04876 0.04962 0.0
H405 H 0.25319 0.04079 0.98802 0.0
H406 H 0.28107 0.01084 0.13057 0.0
H407 H 0.26919 1.00595 0.05229 0.0
H408 H 0.24972 0.01175 0.11793 0.0
H409 H 0.33835 0.12126 0.32866 0.0
H410 H 0.27553 0.13152 0.44242 0.0
H411 H 0.25135 0.11568 0.35859 0.0
H412 H 0.33016 0.074 0.30137 0.0
H413 H 0.35151 0.08758 0.24948 0.0
H414 H 0.33294 0.06313 0.22411 0.0
H415 H 0.31265 0.13357 0.18539 0.0
H416 H 0.32163 0.11163 0.13185 0.0
H417 H 0.34212 0.12199 0.19177 0.0
H418 H 0.36146 0.06389 0.04407 0.0
C419 C 0.3301 0.06794 0.09733 0.0
C420 C 0.49785 0.30974 0.98427 0.0
C421 C 0.49916 0.3351 0.98024 0.0
C422 C 0.49794 0.34803 0.03718 0.0
C423 C 0.49041 0.31218 0.09799 0.0
C424 C 0.49437 0.29855 0.04473 0.0
C425 C 0.49373 0.27205 0.06259 0.0
H426 H 0.46473 0.1914 0.30267 0.0
C427 C 0.48327 0.29655 0.15118 0.0
C428 C 0.48709 0.27269 0.13392 0.0
H429 H 0.52486 0.18201 0.17859 0.0
H430 H 0.51777 0.22133 0.13241 0.0
H431 H 0.48191 0.23053 0.34879 0.0
H432 H 0.42821 0.22537 0.20734 0.0
H433 H 0.4196 0.24796 0.2602 0.0
H434 H 0.42493 0.21842 0.29007 0.0
H435 H 0.45128 0.23232 0.37017 0.0
H436 H 0.46903 0.25834 0.35379 0.0
C437 C 0.5183 0.26116 0.05023 0.0
C438 C 0.47438 0.25915 0.02415 0.0
C439 C 0.44526 0.33305 0.34635 0.0
C440 C 0.43413 0.32294 0.40005 0.0
C441 C 0.42645 0.29915 0.39677 0.0
C442 C 0.43238 0.285 0.3445 0.0
C443 C 0.44642 0.29467 0.29555 0.0
C444 C 0.45114 0.31863 0.29479 0.0
C445 C 0.46487 0.32603 0.23671 0.0
C446 C 0.46982 0.30206 0.20632 0.0
C447 C 0.45937 0.28384 0.24193 0.0
C448 C 0.48808 0.3388 0.25769 0.0
C449 C 0.44793 0.34151 0.19651 0.0
C450 C 0.47554 0.19666 0.26248 0.0
C451 C 0.49485 0.18269 0.24375 0.0
C452 C 0.50946 0.19185 0.19405 0.0
C453 C 0.50505 0.21439 0.16567 0.0
C454 C 0.48573 0.22816 0.18616 0.0
C455 C 0.47212 0.21933 0.23604 0.0
C456 C 0.45769 0.23826 0.26711 0.0
C457 C 0.4651 0.25991 0.22913 0.0
C458 C 0.4801 0.2541 0.17787 0.0
C459 C 0.46509 0.24 0.33848 0.0
C460 C 0.43115 0.23224 0.25624 0.0
H461 H 0.49255 0.34804 0.13622 0.0
H462 H 0.49947 0.29909 0.9418 0.0
H463 H 0.45685 0.26772 0.03128 0.0
H464 H 0.47288 0.24034 0.03946 0.0
H465 H 0.47867 0.2595 0.97266 0.0
H466 H 0.531 0.26597 0.08851 0.0
H467 H 0.52572 0.26753 1.00436 0.0
H468 H 0.51711 0.24163 0.04604 0.0
H469 H 0.4514 0.35128 0.34641 0.0
H470 H 0.41722 0.29105 0.43642 0.0
H471 H 0.42705 0.26675 0.34602 0.0
H472 H 0.49376 0.33301 0.3058 0.0
H473 H 0.48575 0.35834 0.25904 0.0
H474 H 0.50335 0.3345 0.22672 0.0
H475 H 0.43028 0.33272 0.19173 0.0
H476 H 0.45406 0.3447 0.14772 0.0
H477 H 0.44515 0.35898 0.2196 0.0
H478 H 0.49924 0.36722 0.03651 0.0
C479 C 0.49367 0.33685 0.09529 0.0
Eu480 Eu 0.98609 0.03415 0.59226 0.0
C481 C 0.07589 0.04715 0.74028 0.0
N482 N 0.07228 0.03032 0.6952 0.0
C483 C 0.10923 0.0411 0.64565 0.0
C484 C 0.09568 0.06256 0.73775 0.0
C485 C 0.08949 0.02605 0.65098 0.0
C486 C 0.11205 0.05982 0.68835 0.0
C487 C 0.06482 0.06354 0.84231 0.0
C488 C 0.06081 0.04763 0.79185 0.0
C489 C 0.08363 0.07992 0.83828 0.0
C490 C 0.09903 0.07946 0.78598 0.0
Eu491 Eu 0.03642 1.00775 0.70276 0.0
N492 N 0.0426 0.03182 0.79368 0.0
C493 C 0.05017 0.06205 0.89591 0.0
C494 C 0.029 0.02943 0.84713 0.0
C495 C 0.03237 0.04471 0.89864 0.0
H496 H 0.08825 0.01089 0.62002 0.0
H497 H 0.02119 0.04318 0.94026 0.0
H498 H 0.94085 1.00068 0.64662 0.0
H499 H 0.01071 0.05328 0.34653 0.0
H500 H 0.01502 0.01624 0.84875 0.0
H501 H 0.05282 0.0738 0.93596 0.0
H502 H 0.0083 0.06075 0.46193 0.0
H503 H 0.12241 0.03801 0.60921 0.0
H504 H 0.08681 0.09256 0.8761 0.0
H505 H 0.11394 0.09168 0.7844 0.0
H506 H 0.91355 0.96958 0.60666 0.0
H507 H 0.12749 0.07129 0.68463 0.0
H508 H 0.98833 0.01973 0.29947 0.0
N509 N 0.95826 1.00533 0.55788 0.0
C510 C 0.95841 1.00008 0.49497 0.0
C511 C 0.92623 0.97787 0.57489 0.0
C512 C 0.94321 0.98246 0.47008 0.0
C513 C 0.94168 0.99545 0.5974 0.0
C514 C 0.92726 0.97106 0.51117 0.0
N515 N 0.98703 0.0304 0.48055 0.0
C516 C 0.99949 0.04545 0.44214 0.0
C517 C 0.97351 1.00835 0.38943 0.0
C518 C 0.97336 0.01288 0.45526 0.0
C519 C 0.98769 0.02264 0.35027 0.0
C520 C 1.00042 0.04154 0.37665 0.0
H521 H 0.91528 0.95743 0.49387 0.0
H522 H 0.93271 0.96351 0.38504 0.0
H523 H 0.95927 0.98616 0.31441 0.0
O524 O 0.96483 0.06023 0.541 0.0
O525 O 0.98979 0.99345 0.59733 0.0
O526 O 0.02924 0.98618 0.61272 0.0
O527 O 0.95998 0.05581 0.6418 0.0
O528 O 0.0242 0.04323 0.561 0.0
O529 O 0.04662 0.01188 0.59698 0.0
O530 O 0.033 0.98038 0.77451 0.0
O531 O 0.01743 0.04251 0.72842 0.0
O532 O 0.01437 0.05944 0.63178 0.0
O533 O 0.06563 0.98296 0.72212 0.0
O534 O 0.99829 0.99643 0.72819 0.0
O535 O 0.97478 0.0272 0.69426 0.0
C536 C 0.00881 0.98062 0.58635 0.0
C537 C 0.96156 0.09466 0.6043 0.0
C538 C 0.99059 0.12694 0.59644 0.0
C539 C 0.97861 0.13885 0.64563 0.0
C540 C 0.94977 0.10689 0.65277 0.0
C541 C 0.95813 0.12903 0.67273 0.0
C542 C 0.98136 0.10519 0.57496 0.0
C543 C 0.04292 0.02929 0.55611 0.0
C544 C 0.95631 0.06942 0.59293 0.0
C545 C 0.94405 0.97718 0.40497 0.0
C546 C 0.95918 0.99009 0.36474 0.0
C547 C 0.01737 0.06168 0.69332 0.0
C548 C 0.05089 0.94437 0.74591 0.0
C549 C 0.02624 0.90871 0.73497 0.0
C550 C 0.04689 0.89527 0.72542 0.0
C551 C 0.07129 0.93067 0.73669 0.0
C552 C 0.02847 0.93331 0.74319 0.0
C553 C 0.06923 0.90627 0.72573 0.0
C554 C 0.97915 0.00974 0.73387 0.0
C555 C 0.05276 0.96999 0.75997 0.0
H556 H 0.98539 0.15537 0.66471 0.0
H557 H 0.93471 0.0989 0.67682 0.0
H558 H 0.94923 0.1382 0.71098 0.0
H559 H 0.99016 0.09584 0.53687 0.0
H560 H 0.04589 0.87622 0.71941 0.0
H561 H 0.08875 0.93879 0.7383 0.0
H562 H 0.01256 0.94384 0.74843 0.0
H563 H 0.08504 0.89577 0.71881 0.0
Eu564 Eu 0.52705 0.03615 0.70501 0.0
C565 C 0.51901 0.94166 0.56724 0.0
N566 N 0.52253 0.96362 0.54163 0.0
C567 C 0.55221 0.9478 0.47159 0.0
C568 C 0.53286 0.92217 0.54757 0.0
C569 C 0.53773 0.96642 0.49136 0.0
C570 C 0.55006 0.92568 0.50053 0.0
C571 C 0.49617 0.91544 0.63625 0.0
C572 C 0.50072 0.93821 0.61104 0.0
C573 C 0.51025 0.89624 0.61742 0.0
C574 C 0.52863 0.89962 0.57362 0.0
Eu575 Eu 0.4968 0.99369 0.58029 0.0
N576 N 0.48725 0.95705 0.62874 0.0
C577 C 0.47744 0.91255 0.67936 0.0
C578 C 0.46858 0.95421 0.66949 0.0
C579 C 0.46356 0.93201 0.6959 0.0
H580 H 0.53858 0.98282 0.46503 0.0
H581 H 0.44899 0.92992 0.72899 0.0
H582 H 0.49635 0.04427 0.83905 0.0
H583 H 0.58657 0.09965 0.58919 0.0
H584 H 0.45784 0.96916 0.68261 0.0
H585 H 0.47344 0.89535 0.69978 0.0
H586 H 0.57185 0.05986 0.6203 0.0
H587 H 0.56464 0.9504 0.43298 0.0
H588 H 0.50699 0.87864 0.63631 0.0
H589 H 0.53916 0.88454 0.55912 0.0
H590 H 0.4808 0.07773 0.9029 0.0
H591 H 0.56107 0.91118 0.48437 0.0
H592 H 0.56702 0.13555 0.63147 0.0
N593 N 0.51179 0.06671 0.76924 0.0
C594 C 0.51726 0.08924 0.75167 0.0
C595 C 0.49048 0.08117 0.85953 0.0
C596 C 0.50845 0.1088 0.78583 0.0
C597 C 0.49943 0.06234 0.8237 0.0
C598 C 0.49445 0.10449 0.83958 0.0
N599 N 0.54357 0.07328 0.67636 0.0
C600 C 0.5632 0.07549 0.63858 0.0
C601 C 0.54165 0.11568 0.688 0.0
C602 C 0.53368 0.09264 0.70354 0.0
C603 C 0.56039 0.11816 0.6447 0.0
C604 C 0.57154 0.09795 0.62095 0.0
H605 H 0.48755 0.11902 0.86759 0.0
H606 H 0.50815 0.14716 0.7926 0.0
H607 H 0.5372 0.15319 0.70668 0.0
O608 O 0.5488 0.01008 0.75261 0.0
O609 O 0.52388 0.05126 0.60522 0.0
O610 O 0.49071 0.03391 0.56173 0.0
O611 O 0.553 0.04703 0.77738 0.0
O612 O 0.55243 0.01662 0.6364 0.0
O613 O 0.53108 0.01058 0.54495 0.0
O614 O 0.46483 0.97661 0.54487 0.0
O615 O 0.51563 0.97949 0.67059 0.0
O616 O 0.50524 1.00598 0.74613 0.0
O617 O 0.48894 0.99275 0.47823 0.0
O618 O 0.46842 0.0101 0.64392 0.0
O619 O 0.48597 0.0351 0.71907 0.0
C620 C 0.50654 0.05139 0.5635 0.0
C621 C 0.58715 0.02205 0.77636 0.0
C622 C 0.61981 0.99388 0.77931 0.0
C623 C 0.63466 0.01089 0.75057 0.0
C624 C 0.60214 0.03892 0.74772 0.0
C625 C 0.62583 0.03331 0.73511 0.0
C626 C 0.59617 0.99975 0.79239 0.0
C627 C 0.55148 0.01307 0.57457 0.0
C628 C 0.56146 0.02565 0.78302 0.0
C629 C 0.515 0.13189 0.76749 0.0
C630 C 0.53156 0.13533 0.71856 0.0
C631 C 0.50885 0.98394 0.7294 0.0
C632 C 0.44797 0.99273 0.45444 0.0
C633 C 0.41494 0.02024 0.45628 0.0
C634 C 0.40522 1.0088 0.40295 0.0
C635 C 0.43825 0.98155 0.40102 0.0
C636 C 0.4365 0.01232 0.48139 0.0
C637 C 0.41697 0.98967 0.3752 0.0
C638 C 0.467 0.02474 0.69288 0.0
C639 C 0.46849 0.9823 0.48607 0.0
H640 H 0.6531 1.00698 0.74077 0.0
H641 H 0.59551 0.05616 0.73409 0.0
H642 H 0.63735 0.0463 0.71281 0.0
H643 H 0.5844 0.98656 0.81317 0.0
H644 H 0.38872 0.01487 0.38231 0.0
H645 H 0.44684 0.96627 0.38021 0.0
H646 H 0.44392 0.02087 0.52306 0.0
H647 H 0.40943 0.98097 0.33405 0.0
Eu648 Eu 0.53492 0.50697 0.58509 0.0
C649 C 0.43332 0.51986 0.74964 0.0
N650 N 0.44502 0.5332 0.70612 0.0
C651 C 0.40822 0.54877 0.66794 0.0
C652 C 0.40834 0.52023 0.75367 0.0
C653 C 0.43302 0.54777 0.66586 0.0
C654 C 0.39579 0.5348 0.71173 0.0
C655 C 0.435 0.49282 0.83885 0.0
C656 C 0.44646 0.50638 0.79149 0.0
C657 C 0.41008 0.49265 0.84226 0.0
C658 C 0.39677 0.50634 0.79976 0.0
Eu659 Eu 0.48657 0.52941 0.7013 0.0
N660 N 0.47049 0.50705 0.78694 0.0
C661 C 0.44894 0.48009 0.88183 0.0
C662 C 0.48419 0.49539 0.83038 0.0
C663 C 0.47365 0.48152 0.8778 0.0
H664 H 0.44265 0.5586 0.63209 0.0
H665 H 0.4846 0.47188 0.91108 0.0
H666 H 0.58176 0.53355 0.6576 0.0
H667 H 0.49788 0.52263 0.3481 0.0
H668 H 0.5033 0.49605 0.82752 0.0
H669 H 0.44082 0.46938 0.91872 0.0
H670 H 0.50239 0.50189 0.44961 0.0
H671 H 0.39871 0.56032 0.63591 0.0
H672 H 0.40095 0.48225 0.87809 0.0
H673 H 0.37758 0.50628 0.80343 0.0
H674 H 0.61147 0.56434 0.63402 0.0
H675 H 0.37659 0.53561 0.7133 0.0
H676 H 0.52517 0.5555 0.32031 0.0
N677 N 0.56378 0.53709 0.56912 0.0
C678 C 0.56346 0.54794 0.51133 0.0
C679 C 0.59801 0.55995 0.59924 0.0
C680 C 0.58036 0.56559 0.49591 0.0
C681 C 0.58096 0.54256 0.61257 0.0
C682 C 0.59771 0.57154 0.54073 0.0
N683 N 0.52957 0.52476 0.48402 0.0
C684 C 0.51324 0.51721 0.44056 0.0
C685 C 0.54453 0.55352 0.40887 0.0
C686 C 0.54568 0.5419 0.46819 0.0
C687 C 0.52668 0.54694 0.36617 0.0
C688 C 0.51115 0.52851 0.38183 0.0
H689 H 0.61095 0.58504 0.53063 0.0
H690 H 0.5924 0.59024 0.42377 0.0
H691 H 0.56079 0.58006 0.34814 0.0
O692 O 0.5431 0.48194 0.5093 0.0
O693 O 0.52892 0.547 0.60196 0.0
O694 O 0.48907 0.54882 0.60677 0.0
O695 O 0.56915 0.48879 0.58168 0.0
O696 O 0.49665 0.4943 0.56109 0.0
O697 O 0.47303 0.52413 0.60017 0.0
O698 O 0.51097 0.55798 0.72623 0.0
O699 O 0.48717 0.48896 0.69979 0.0
O700 O 0.52408 0.47904 0.66 0.0
O701 O 0.47329 0.55943 0.75622 0.0
O702 O 0.52228 0.52234 0.75186 0.0
O703 O 0.55048 0.50646 0.68391 0.0
C704 C 0.50913 0.55767 0.58577 0.0
C705 C 0.56294 0.44929 0.55243 0.0
C706 C 0.5411 0.41384 0.58599 0.0
C707 C 0.56261 0.40119 0.58599 0.0
C708 C 0.58415 0.43652 0.55268 0.0
C709 C 0.58397 0.41256 0.56998 0.0
C710 C 0.54177 0.43805 0.57086 0.0
C711 C 0.47656 0.50647 0.56028 0.0
C712 C 0.56249 0.47465 0.5364 0.0
C713 C 0.57939 0.57684 0.4366 0.0
C714 C 0.56139 0.57103 0.39351 0.0
C715 C 0.50446 0.4737 0.69144 0.0
C716 C 0.49874 0.59286 0.78539 0.0
C717 C 0.52623 0.62482 0.81231 0.0
C718 C 0.50718 0.63783 0.83749 0.0
C719 C 0.47995 0.60603 0.81101 0.0
C720 C 0.52188 0.60229 0.78656 0.0
C721 C 0.48421 0.62841 0.83696 0.0
C722 C 0.54383 0.51421 0.73995 0.0
C723 C 0.49414 0.56984 0.75497 0.0
H724 H 0.56293 0.38238 0.59611 0.0
H725 H 0.60076 0.44503 0.53977 0.0
H726 H 0.60036 0.40265 0.56982 0.0
H727 H 0.52558 0.44825 0.57227 0.0
H728 H 0.51011 0.65513 0.8585 0.0
H729 H 0.46195 0.59917 0.81044 0.0
H730 H 0.53649 0.59231 0.76659 0.0
H731 H 0.46967 0.6385 0.85663 0.0
Eu732 Eu 0.01967 0.53817 0.6083 0.0
C733 C 0.03414 0.46002 0.79147 0.0
N734 N 0.0217 0.45914 0.73616 0.0
C735 C 0.04216 0.42381 0.70543 0.0
C736 C 0.05176 0.44307 0.80482 0.0
C737 C 0.0251 0.44118 0.69373 0.0
C738 C 0.05566 0.42483 0.76099 0.0
C739 C 0.04291 0.48014 0.89057 0.0
C740 C 0.02983 0.47851 0.83359 0.0
C741 C 0.06085 0.46361 0.90329 0.0
C742 C 0.06521 0.44509 0.86065 0.0
Eu743 Eu 0.99387 0.48967 0.71943 0.0
N744 N 0.01262 0.49458 0.81959 0.0
C745 C 0.03724 0.49806 0.93379 0.0
C746 C 1.00549 0.51044 0.86455 0.0
C747 C 0.01808 0.51292 0.92134 0.0
H748 H 0.01472 0.44036 0.6507 0.0
H749 H 0.01271 0.52602 0.95597 0.0
H750 H 0.03168 0.58953 0.68209 0.0
H751 H 0.96988 0.52265 0.38902 0.0
H752 H 0.98973 0.52081 0.85791 0.0
H753 H 0.04689 0.49994 0.97798 0.0
H754 H 0.99678 0.51252 0.47646 0.0
H755 H 0.04499 0.40972 0.67144 0.0
H756 H 0.07123 0.46479 0.94645 0.0
H757 H 0.07902 0.4324 0.87133 0.0
H758 H 0.01847 0.63124 0.67937 0.0
H759 H 0.06906 0.4115 0.76953 0.0
H760 H 0.95355 0.56315 0.38078 0.0
N761 N 0.01004 0.57892 0.60462 0.0
C762 C 0.99498 0.58589 0.55801 0.0
C763 C 0.01157 0.61862 0.6453 0.0
C764 C 0.9872 0.60957 0.55402 0.0
C765 C 0.01878 0.59494 0.64727 0.0
C766 C 0.99554 0.62594 0.5988 0.0
N767 N 0.99544 0.54667 0.51906 0.0
C768 C 0.9898 0.53018 0.47402 0.0
C769 C 0.97214 0.57595 0.46408 0.0
C770 C 0.9876 0.56933 0.51356 0.0
C771 C 0.96544 0.55881 0.41943 0.0
C772 C 0.97456 0.53591 0.42401 0.0
H773 H 0.99 0.64429 0.59734 0.0
H774 H 0.96525 0.63426 0.50175 0.0
H775 H 0.95201 0.60478 0.42306 0.0
O776 O 0.04788 0.52602 0.54633 0.0
O777 O 0.97889 0.53796 0.61276 0.0
O778 O 0.96833 0.49968 0.63869 0.0
O779 O 0.04822 0.56237 0.57916 0.0
O780 O 0.02049 0.49954 0.56774 0.0
O781 O 0.99087 0.47799 0.61733 0.0
O782 O 0.96363 0.48521 0.78357 0.0
O783 O 0.0337 0.49104 0.69292 0.0
O784 O 0.04113 0.53012 0.69742 0.0
O785 O 0.97686 0.45508 0.73262 0.0
O786 O 0.98515 0.52857 0.74637 0.0
O787 O 0.01842 0.54846 0.713 0.0
C788 C 0.9636 0.52022 0.61181 0.0
C789 C 0.08464 0.54126 0.5816 0.0
C790 C 0.11798 0.51434 0.59938 0.0
C791 C 0.12904 0.53178 0.63699 0.0
C792 C 0.09613 0.55854 0.61872 0.0
C793 C 0.11808 0.55368 0.64665 0.0
C794 C 0.09554 0.51918 0.57335 0.0
C795 C 1.00567 0.48114 0.56986 0.0
C796 C 0.06064 0.54516 0.55499 0.0
C797 C 0.97151 0.61618 0.50539 0.0
C798 C 0.96399 0.5994 0.46055 0.0
C799 C 0.048 0.5085 0.7093 0.0
C800 C 0.93571 0.46129 0.72867 0.0
C801 C 0.90144 0.482 0.68378 0.0
C802 C 0.89884 0.46359 0.63919 0.0
C803 C 0.93237 0.44291 0.6845 0.0
C804 C 0.91926 0.47987 0.73036 0.0
C805 C 0.91387 0.44398 0.64059 0.0
C806 C 0.99975 0.54701 0.75043 0.0
C807 C 0.95874 0.46406 0.76196 0.0
H808 H 0.1464 0.52886 0.65745 0.0
H809 H 0.08806 0.57566 0.62685 0.0
H810 H 0.12679 0.56707 0.67531 0.0
H811 H 0.08634 0.50555 0.54661 0.0
H812 H 0.88551 0.46434 0.6025 0.0
H813 H 0.94475 0.42831 0.6818 0.0
H814 H 0.92116 0.49324 0.76679 0.0
H815 H 0.91176 0.43002 0.60578 0.0
H816 H 0.15817 1.00591 0.33174 0.0
H817 H 0.1404 0.07103 0.23423 0.0
H818 H 0.10432 0.07481 0.30007 0.0
H819 H 0.09467 0.98457 0.35065 0.0
H820 H 0.10034 0.97199 0.42778 0.0
H821 H 0.12369 0.97317 0.36923 0.0
H822 H 0.15036 0.99571 0.44923 0.0
H823 H 0.12694 0.99504 0.5075 0.0
H824 H 0.13989 0.02296 0.48384 0.0
H825 H 0.07395 0.07529 0.38872 0.0
H826 H 0.04723 0.0686 0.47941 0.0
H827 H 0.07998 1.0003 0.51293 0.0
C828 C 0.14608 0.02034 0.32232 0.0
C829 C 0.15189 0.03784 0.27599 0.0
C830 C 0.13607 0.05705 0.26764 0.0
C831 C 0.11562 0.05949 0.30555 0.0
C832 C 0.11075 0.04243 0.35185 0.0
C833 C 0.12511 0.02281 0.35929 0.0
C834 C 0.11576 1.00732 0.41358 0.0
C835 C 0.10816 0.98281 0.38883 0.0
C836 C 0.13435 1.00513 0.46666 0.0
C837 C 0.09432 0.02153 0.43608 0.0
C838 C 0.09205 0.04191 0.40029 0.0
C839 C 0.07504 0.05892 0.41537 0.0
C840 C 0.05964 0.05482 0.46701 0.0
C841 C 0.06052 0.03351 0.50279 0.0
C842 C 0.07839 0.01671 0.48674 0.0
H843 H 0.4646 0.14991 0.30436 0.0
H844 H 0.53937 0.1657 0.275 0.0
H845 H 0.5498 0.13332 0.34837 0.0
H846 H 0.46932 0.13895 0.46821 0.0
H847 H 0.4487 0.11462 0.47339 0.0
H848 H 0.44499 0.13689 0.41282 0.0
H849 H 0.4464 0.10651 0.32253 0.0
H850 H 0.44799 0.08317 0.38062 0.0
H851 H 0.47021 0.08531 0.31939 0.0
H852 H 0.5523 0.10141 0.43335 0.0
H853 H 0.54701 0.07103 0.51549 0.0
H854 H 0.47083 0.07434 0.49259 0.0
C855 C 0.48324 0.14654 0.31266 0.0
C856 C 0.5011 0.16073 0.28249 0.0
C857 C 0.52518 0.15518 0.29552 0.0
C858 C 0.53133 0.13681 0.33798 0.0
C859 C 0.51331 0.12369 0.3676 0.0
C860 C 0.48974 0.12813 0.355 0.0
C861 C 0.47384 0.11182 0.39482 0.0
C862 C 0.45826 0.12646 0.43989 0.0
C863 C 0.45871 0.09575 0.35181 0.0
C864 C 0.4921 0.09745 0.43196 0.0
C865 C 0.51476 0.10484 0.41559 0.0
C866 C 0.53461 0.09537 0.44556 0.0
C867 C 0.53135 0.07802 0.49285 0.0
C868 C 0.50844 0.06961 0.51058 0.0
C869 C 0.48853 0.07964 0.47912 0.0
H870 H 0.36147 0.53922 0.35184 0.0
H871 H 0.37051 0.47395 0.24662 0.0
H872 H 0.40759 0.46603 0.30661 0.0
H873 H 0.42547 0.55467 0.36705 0.0
H874 H 0.42147 0.56629 0.44597 0.0
H875 H 0.39757 0.5678 0.38931 0.0
H876 H 0.37 0.54578 0.46862 0.0
H877 H 0.39393 0.54396 0.52489 0.0
H878 H 0.37886 0.51735 0.49948 0.0
H879 H 0.44233 0.46339 0.3899 0.0
H880 H 0.47177 0.4685 0.47655 0.0
H881 H 0.43932 0.53552 0.52612 0.0
C882 C 0.37156 0.52355 0.33997 0.0
C883 C 0.36294 0.50734 0.29345 0.0
C884 C 0.37678 0.48695 0.2806 0.0
C885 C 0.3978 0.48217 0.31526 0.0
C886 C 0.40513 0.49801 0.36273 0.0
C887 C 0.39253 0.51856 0.37405 0.0
C888 C 0.40336 0.5324 0.429 0.0
C889 C 0.41251 0.55673 0.40647 0.0
C890 C 0.38546 0.53502 0.48371 0.0
C891 C 0.4238 0.51638 0.44785 0.0
C892 C 0.42467 0.49658 0.40926 0.0
C893 C 0.44181 0.47906 0.4195 0.0
C894 C 0.45852 0.48206 0.46921 0.0
C895 C 0.45822 0.50246 0.50876 0.0
C896 C 0.44033 0.51964 0.49745 0.0
H897 H 0.05435 0.39332 0.29745 0.0
H898 H 0.98491 0.35958 0.29379 0.0
H899 H 0.96995 0.39059 0.36695 0.0
H900 H 0.05186 0.40225 0.46292 0.0
H901 H 0.06831 0.42957 0.46475 0.0
H902 H 0.07399 0.40801 0.40307 0.0
H903 H 0.06564 0.43799 0.3144 0.0
H904 H 0.06108 0.46084 0.37283 0.0
H905 H 0.03834 0.45454 0.31503 0.0
H906 H 0.964 0.42361 0.45207 0.0
H907 H 0.96708 0.45474 0.53392 0.0
H908 H 0.04112 0.4659 0.4856 0.0
C909 C 0.03587 0.39225 0.31128 0.0
C910 C 0.02095 0.37341 0.28908 0.0
C911 C 0.99682 0.37365 0.30859 0.0
C912 C 0.9882 0.39121 0.35093 0.0
C913 C 1.00383 0.40864 0.37407 0.0
C914 C 0.02717 0.40924 0.35447 0.0
C915 C 0.04112 0.4281 0.39081 0.0
C916 C 0.06 0.4163 0.43274 0.0
C917 C 0.0522 0.44645 0.34555 0.0
C918 C 0.02189 0.43906 0.43186 0.0
C919 C 1.00052 0.42729 0.42239 0.0
C920 C 0.98063 0.43299 0.45875 0.0
C921 C 0.98261 0.45081 0.50555 0.0
C922 C 1.00428 0.46329 0.51627 0.0
C923 C 0.02413 0.45729 0.47805 0.0
H924 H 0.85571 0.02511 0.92236 0.0
H925 H 0.88338 0.97998 0.07067 0.0
H926 H 0.92204 0.97817 0.01422 0.0
H927 H 0.88171 0.99655 0.79491 0.0
H928 H 0.88848 0.02276 0.74924 0.0
H929 H 0.86415 0.02293 0.80466 0.0
H930 H 0.88229 0.05928 0.86241 0.0
H931 H 0.90643 0.05957 0.8062 0.0
H932 H 0.91255 0.05809 0.89005 0.0
H933 H 0.95636 0.97699 0.93139 0.0
H934 H 0.98417 0.98142 0.84078 0.0
H935 H 0.93443 0.02887 0.74931 0.0
C936 C 0.87025 0.01571 0.94439 0.0
C937 C 0.86659 1.0032 1.00215 0.0
C938 C 0.88587 0.99033 0.02785 0.0
C939 C 0.90784 0.98895 0.99543 0.0
C940 C 0.91053 1.00075 0.93736 0.0
C941 C 0.89236 0.01441 0.913 0.0
C942 C 0.89934 0.02483 0.84894 0.0
C943 C 0.88241 0.01625 0.79636 0.0
C944 C 0.90021 0.05206 0.85211 0.0
C945 C 0.92404 0.01458 0.84018 0.0
C946 C 0.93021 1.00058 0.89136 0.0
C947 C 0.95176 0.98832 0.89186 0.0
C948 C 0.96748 0.99084 0.83979 0.0
C949 C 0.96185 1.00571 0.78759 0.0
C950 C 0.93964 0.01756 0.78835 0.0
H951 H 0.54052 0.86078 0.90723 0.0
H952 H 0.49253 0.88193 0.05831 0.0
H953 H 0.48287 0.91815 0.99801 0.0
H954 H 0.56336 0.9205 0.87775 0.0
H955 H 0.56668 0.91557 0.7938 0.0
H956 H 0.56915 0.89107 0.84828 0.0
H957 H 0.53579 0.86852 0.78742 0.0
H958 H 0.53419 0.89307 0.73318 0.0
H959 H 0.50779 0.88302 0.77406 0.0
H960 H 0.47972 0.95371 0.92223 0.0
H961 H 0.48232 0.98404 0.8378 0.0
H962 H 0.53266 0.94042 0.73565 0.0
C963 C 0.52814 0.87297 0.92868 0.0
C964 C 0.51743 0.86793 0.98882 0.0
C965 C 0.50087 0.88466 0.01261 0.0
C966 C 0.49539 0.90558 0.97867 0.0
C967 C 0.50657 0.90998 0.92046 0.0
C968 C 0.52266 0.89411 0.89576 0.0
C969 C 0.53271 0.90326 0.83295 0.0
C970 C 0.55957 0.90786 0.83855 0.0
C971 C 0.52724 0.88593 0.77867 0.0
C972 C 0.51931 0.92649 0.82503 0.0
C973 C 0.50456 0.93017 0.87664 0.0
C974 C 0.49113 0.95083 0.88165 0.0
C975 C 0.4928 0.96808 0.83331 0.0
C976 C 0.50758 0.96479 0.77947 0.0
C977 C 0.52095 0.9435 0.77553 0.0
H978 H 0.64001 0.55709 1.00196 0.0
H979 H 0.66071 0.48347 0.02047 0.0
H980 H 0.62846 0.47188 0.94689 0.0
H981 H 0.57523 0.54597 0.99219 0.0
H982 H 0.57047 0.56915 0.93477 0.0
H983 H 0.59429 0.57177 0.99144 0.0
H984 H 0.62415 0.57764 0.90017 0.0
H985 H 0.6009 0.57453 0.84204 0.0
H986 H 0.6264 0.55549 0.83883 0.0
H987 H 0.59757 0.46899 0.85826 0.0
H988 H 0.56722 0.47424 0.77501 0.0
H989 H 0.56247 0.54885 0.82095 0.0
C990 C 0.6375 0.53844 0.99159 0.0
C991 C 0.65309 0.52118 0.01798 0.0
C992 C 0.64901 0.49705 1.00233 0.0
C993 C 0.63077 0.49031 0.95988 0.0
C994 C 0.61619 0.50778 0.93369 0.0
C995 C 0.61901 0.53134 0.95004 0.0
C996 C 0.60108 0.54664 0.91442 0.0
C997 C 0.58427 0.55912 0.96099 0.0
C998 C 0.6139 0.56465 0.87136 0.0
C999 C 0.58783 0.52809 0.8751 0.0
C1000 C 0.59717 0.50582 0.88626 0.0
C1001 C 0.58964 0.48621 0.85101 0.0
C1002 C 0.57216 0.48931 0.80392 0.0
C1003 C 0.56144 0.51163 0.79324 0.0
C1004 C 0.5695 0.53132 0.82965 0.0
H1005 H 0.03386 0.66397 0.9531 0.0
H1006 H 0.96591 0.65828 0.04822 0.0
H1007 H 0.95786 0.62061 0.99105 0.0
H1008 H 0.01582 0.64383 0.80446 0.0
H1009 H 0.04231 0.62727 0.78682 0.0
H1010 H 0.04376 0.65224 0.83989 0.0
H1011 H 0.06194 0.62566 0.92738 0.0
H1012 H 0.06082 0.60072 0.874 0.0
H1013 H 0.04673 0.59881 0.95068 0.0
H1014 H 0.9552 0.58555 0.91021 0.0
H1015 H 0.96046 0.55499 0.82691 0.0
H1016 H 0.03137 0.58205 0.79024 0.0
C1017 C 0.01762 0.65438 0.96365 0.0
C1018 C 1.00068 0.66413 1.00646 0.0
C1019 C 0.97945 0.6511 0.0173 0.0
C1020 C 0.97461 0.62975 0.98418 0.0
C1021 C 0.99129 0.62117 0.94058 0.0
C1022 C 0.01268 0.63287 0.93161 0.0
C1023 C 0.02749 0.62036 0.88122 0.0
C1024 C 0.03264 0.63692 0.82477 0.0
C1025 C 0.05061 0.61082 0.91005 0.0
C1026 C 0.01096 0.60015 0.8619 0.0
C1027 C 0.99008 0.60092 0.89633 0.0
C1028 C 0.97172 0.58469 0.88405 0.0
C1029 C 0.97486 0.5673 0.83631 0.0
C1030 C 0.99631 0.56582 0.80104 0.0
C1031 C 0.01456 0.5826 0.81499 0.0
H1032 H 0.07397 0.22269 0.44208 0.0
H1033 H 0.1203 0.16523 0.38525 0.0
H1034 H 0.09932 0.13856 0.45929 0.0
H1035 H 0.06394 0.2006 0.61608 0.0
H1036 H 0.03378 0.211 0.61207 0.0
H1037 H 0.05712 0.22701 0.57159 0.0
H1038 H 0.03307 0.22371 0.46736 0.0
H1039 H 0.01022 0.20686 0.50615 0.0
H1040 H 0.025 0.19478 0.43759 0.0
H1041 H 0.06628 0.11643 0.50887 0.0
H1042 H 0.02868 0.10135 0.55074 0.0
H1043 H 1.00432 0.17354 0.57953 0.0
C1044 C 0.08091 0.20499 0.44802 0.0
C1045 C 0.09864 0.19602 0.40699 0.0
C1046 C 0.10654 0.17244 0.41541 0.0
C1047 C 0.09476 0.15717 0.45759 0.0
C1048 C 0.0757 0.16602 0.49241 0.0
C1049 C 0.06942 0.18965 0.49011 0.0
C1050 C 0.04628 0.19404 0.52491 0.0
C1051 C 0.05055 0.20905 0.58473 0.0
C1052 C 0.02757 0.2055 0.48136 0.0
C1053 C 0.03948 0.16891 0.54211 0.0
C1054 C 0.05683 0.15307 0.52377 0.0
C1055 C 0.05303 0.12872 0.52594 0.0
C1056 C 0.03124 0.12035 0.54876 0.0
C1057 C 0.01344 0.13621 0.57024 0.0
C1058 C 0.01779 0.16085 0.56643 0.0
H1059 H 0.30252 0.09321 0.47713 0.0
H1060 H 0.34929 0.15127 0.42798 0.0
H1061 H 0.38228 0.13126 0.48199 0.0
H1062 H 0.33994 0.06647 0.62192 0.0
H1063 H 0.33307 0.03733 0.59181 0.0
H1064 H 0.31124 0.06056 0.58736 0.0
H1065 H 0.30757 0.05302 0.4667 0.0
H1066 H 0.32974 0.0306 0.46989 0.0
H1067 H 0.33367 0.05556 0.41732 0.0
H1068 H 0.41139 0.10071 0.49842 0.0
H1069 H 0.43335 0.06407 0.47389 0.0
H1070 H 0.36923 0.02286 0.49742 0.0
C1071 C 0.31929 0.10246 0.48255 0.0
C1072 C 0.32344 0.12381 0.4494 0.0
C1073 C 0.34574 0.13516 0.45441 0.0
C1074 C 0.3646 0.12371 0.48477 0.0
C1075 C 0.36086 0.10086 0.50882 0.0
C1076 C 0.3385 0.09043 0.50889 0.0
C1077 C 0.33999 0.06377 0.51801 0.0
C1078 C 0.33051 0.05662 0.5837 0.0
C1079 C 0.32702 0.04999 0.46478 0.0
C1080 C 0.36655 0.06051 0.51456 0.0
C1081 C 0.37831 0.08214 0.51355 0.0
C1082 C 0.40258 0.08369 0.5013 0.0
C1083 C 0.41492 0.06289 0.48722 0.0
C1084 C 0.4029 0.04093 0.48407 0.0
C1085 C 0.37869 0.03959 0.5003 0.0
H1086 H 0.42881 0.37035 0.42305 0.0
H1087 H 0.44464 0.30387 0.51611 0.0
H1088 H 0.46386 0.32527 0.60285 0.0
H1089 H 0.47963 0.3902 0.42462 0.0
H1090 H 0.47492 0.4213 0.44008 0.0
H1091 H 0.45156 0.40394 0.40668 0.0
H1092 H 0.42376 0.41603 0.49862 0.0
H1093 H 0.44733 0.43354 0.53315 0.0
H1094 H 0.43263 0.41105 0.57973 0.0
H1095 H 0.4941 0.35002 0.65322 0.0
H1096 H 0.53008 0.37487 0.66099 0.0
H1097 H 0.49915 0.42451 0.52761 0.0
C1098 C 0.43529 0.3605 0.4635 0.0
C1099 C 0.43558 0.33551 0.46204 0.0
C1100 C 0.44395 0.32304 0.51587 0.0
C1101 C 0.45506 0.33516 0.56575 0.0
C1102 C 0.45758 0.35971 0.56143 0.0
C1103 C 0.44729 0.37242 0.51224 0.0
C1104 C 0.45748 0.39731 0.50851 0.0
C1105 C 0.46646 0.40347 0.44109 0.0
C1106 C 0.43921 0.41555 0.53138 0.0
C1107 C 0.47756 0.39518 0.55578 0.0
C1108 C 0.47637 0.37409 0.58905 0.0
C1109 C 0.49489 0.36683 0.62849 0.0
C1110 C 0.51551 0.38086 0.63172 0.0
C1111 C 0.51775 0.40161 0.59429 0.0
C1112 C 0.498 0.4092 0.55829 0.0
H1113 H 0.16583 0.42389 0.35208 0.0
H1114 H 0.21997 0.4054 0.48852 0.0
H1115 H 0.19565 0.42268 0.57437 0.0
H1116 H 0.16394 0.47786 0.40007 0.0
H1117 H 0.13296 0.4835 0.38521 0.0
H1118 H 0.14801 0.46114 0.34071 0.0
H1119 H 0.11754 0.42938 0.37599 0.0
H1120 H 0.10174 0.45179 0.41969 0.0
H1121 H 0.11152 0.42514 0.4593 0.0
H1122 H 0.17141 0.45212 0.63789 0.0
H1123 H 0.14923 0.48762 0.67213 0.0
H1124 H 0.11552 0.49052 0.48708 0.0
C1125 C 0.17179 0.4218 0.40061 0.0
C1126 C 0.19462 0.41314 0.41377 0.0
C1127 C 0.20229 0.41166 0.47769 0.0
C1128 C 0.18865 0.42169 0.52662 0.0
C1129 C 0.16753 0.43305 0.51051 0.0
C1130 C 0.15908 0.43284 0.44876 0.0
C1131 C 0.1397 0.45082 0.43917 0.0
C1132 C 0.1466 0.4694 0.38839 0.0
C1133 C 0.11621 0.43853 0.42256 0.0
C1134 C 0.13888 0.46168 0.5044 0.0
C1135 C 0.15461 0.45103 0.54561 0.0
C1136 C 0.15858 0.46013 0.60637 0.0
C1137 C 0.14611 0.48051 0.62515 0.0
C1138 C 0.13015 0.49178 0.58287 0.0
C1139 C 0.12662 0.48194 0.522 0.0
H1140 H 0.91851 0.8695 0.9324 0.0
H1141 H 0.90953 0.81165 0.79965 0.0
H1142 H 0.93151 0.83427 0.71903 0.0
H1143 H 0.92339 0.92043 0.79664 0.0
H1144 H 0.94451 0.93552 0.84679 0.0
H1145 H 0.91924 0.92059 0.88149 0.0
H1146 H 0.94782 0.89719 0.95342 0.0
H1147 H 0.97317 0.9109 0.91771 0.0
H1148 H 0.9705 0.87902 0.91777 0.0
H1149 H 0.96912 0.85131 0.68165 0.0
H1150 H 0.00836 0.86989 0.66982 0.0
H1151 H 0.99107 0.91988 0.81864 0.0
C1152 C 0.9194 0.86238 0.8848 0.0
C1153 C 0.91339 0.83843 0.87309 0.0
C1154 C 0.9147 0.82976 0.81016 0.0
C1155 C 0.92728 0.84251 0.76399 0.0
C1156 C 0.93692 0.86447 0.78064 0.0
C1157 C 0.93172 0.87517 0.83819 0.0
C1158 C 0.94732 0.89684 0.8489 0.0
C1159 C 0.93274 0.9197 0.84307 0.0
C1160 C 0.96047 0.89586 0.91316 0.0
C1161 C 0.96426 0.89442 0.79365 0.0
C1162 C 0.95779 0.87591 0.75419 0.0
C1163 C 0.97353 0.86692 0.70917 0.0
C1164 C 0.996 0.87751 0.70309 0.0
C1165 C 1.00241 0.89734 0.74053 0.0
C1166 C 0.98618 0.90576 0.78633 0.0
H1167 H 0.66138 0.90515 0.03319 0.0
H1168 H 0.71012 0.87773 0.89259 0.0
H1169 H 0.68521 0.8943 0.80778 0.0
H1170 H 0.60425 0.90419 0.9241 0.0
H1171 H 0.59501 0.93147 0.96108 0.0
H1172 H 0.61002 0.90915 1.00711 0.0
H1173 H 0.64093 0.94055 0.04136 0.0
H1174 H 0.62701 0.96281 0.99416 0.0
H1175 H 0.65792 0.95608 0.98157 0.0
H1176 H 0.66576 0.92615 0.74592 0.0
H1177 H 0.64833 0.96402 0.71006 0.0
H1178 H 0.61224 0.97086 0.89072 0.0
C1179 C 0.66593 0.90101 0.98458 0.0
C1180 C 0.68805 0.89073 0.96964 0.0
C1181 C 0.69344 0.88594 0.90523 0.0
C1182 C 0.67936 0.89538 0.85662 0.0
C1183 C 0.6595 0.90867 0.87336 0.0
C1184 C 0.65216 0.91058 0.93592 0.0
C1185 C 0.63321 0.92934 0.94333 0.0
C1186 C 0.60919 0.91786 0.95983 0.0
C1187 C 0.64023 0.94828 0.99293 0.0
C1188 C 0.63302 0.93947 0.87697 0.0
C1189 C 0.64776 0.92697 0.83668 0.0
C1190 C 0.65341 0.93547 0.77619 0.0
C1191 C 0.64377 0.95718 0.75657 0.0
C1192 C 0.62881 0.97021 0.79755 0.0
C1193 C 0.62306 0.9609 0.85778 0.0
H1194 H 0.60924 0.73079 0.87286 0.0
H1195 H 0.65397 0.68152 0.97428 0.0
H1196 H 0.63649 0.64844 0.91358 0.0
H1197 H 0.56186 0.70348 0.89391 0.0
H1198 H 0.54689 0.70835 0.81948 0.0
H1199 H 0.56936 0.7287 0.84495 0.0
H1200 H 0.59332 0.72227 0.74172 0.0
H1201 H 0.57037 0.70236 0.71406 0.0
H1202 H 0.60078 0.69263 0.71698 0.0
H1203 H 0.60552 0.62111 0.87395 0.0
H1204 H 0.56646 0.6026 0.85281 0.0
H1205 H 0.54055 0.66934 0.77965 0.0
C1206 C 0.61667 0.71328 0.87884 0.0
C1207 C 0.63294 0.70872 0.92822 0.0
C1208 C 0.6416 0.68541 0.93639 0.0
C1209 C 0.63167 0.66648 0.90209 0.0
C1210 C 0.61343 0.67126 0.85918 0.0
C1211 C 0.60646 0.69428 0.84605 0.0
C1212 C 0.58323 0.6947 0.80981 0.0
C1213 C 0.56426 0.70966 0.84416 0.0
C1214 C 0.58717 0.70351 0.74158 0.0
C1215 C 0.57696 0.66863 0.81059 0.0
C1216 C 0.59497 0.65524 0.83693 0.0
C1217 C 0.59171 0.63125 0.851 0.0
C1218 C 0.56946 0.62088 0.83913 0.0
C1219 C 0.55064 0.63462 0.81459 0.0
C1220 C 0.55476 0.6585 0.79817 0.0
H1221 H 0.85806 0.59546 0.84797 0.0
H1222 H 0.78809 0.57519 0.78086 0.0
H1223 H 0.80597 0.55225 0.6954 0.0
H1224 H 0.89055 0.58885 0.67939 0.0
H1225 H 0.91601 0.57752 0.72116 0.0
H1226 H 0.89828 0.60054 0.75634 0.0
H1227 H 0.89362 0.57395 0.85614 0.0
H1228 H 0.91013 0.55065 0.81957 0.0
H1229 H 0.88045 0.54486 0.84803 0.0
H1230 H 0.82891 0.52015 0.64982 0.0
H1231 H 0.85537 0.48618 0.63871 0.0
H1232 H 0.91233 0.52731 0.7252 0.0
C1233 C 0.84659 0.58721 0.8131 0.0
C1234 C 0.82172 0.58704 0.8217 0.0
C1235 C 0.80718 0.57599 0.77529 0.0
C1236 C 0.81724 0.56272 0.72628 0.0
C1237 C 0.84185 0.56098 0.72334 0.0
C1238 C 0.85648 0.57368 0.76407 0.0
C1239 C 0.88193 0.56528 0.75918 0.0
C1240 C 0.89761 0.58417 0.72704 0.0
C1241 C 0.89207 0.55825 0.82457 0.0
C1242 C 0.8786 0.54395 0.71645 0.0
C1243 C 0.85559 0.54223 0.69442 0.0
C1244 C 0.84728 0.5218 0.66426 0.0
C1245 C 0.86258 0.50242 0.65825 0.0
C1246 C 0.88611 0.50356 0.68192 0.0
C1247 C 0.89433 0.52519 0.70833 0.0
H1248 H 0.99973 0.1643 0.95951 0.0
H1249 H 0.03987 0.21138 0.837 0.0
H1250 H 0.0431 0.17932 0.75695 0.0
H1251 H 0.03034 0.11195 0.92771 0.0
H1252 H 1.00495 0.0923 0.92583 0.0
H1253 H 1.00399 0.11912 0.9721 0.0
H1254 H 0.96648 0.13283 0.91273 0.0
H1255 H 0.96674 0.10584 0.86693 0.0
H1256 H 0.96665 0.13416 0.82725 0.0
H1257 H 0.04719 0.13963 0.69733 0.0
H1258 H 0.04494 0.09874 0.65427 0.0
H1259 H 0.99777 0.07832 0.80657 0.0
C1260 C 0.00856 0.16807 0.91494 0.0
C1261 C 0.0192 0.19071 0.9043 0.0
C1262 C 0.03112 0.19455 0.8459 0.0
C1263 C 0.03325 0.17627 0.80035 0.0
C1264 C 0.02305 0.15406 0.8129 0.0
C1265 C 0.0103 0.15011 0.86802 0.0
C1266 C 1.00084 0.12465 0.86951 0.0
C1267 C 0.01062 0.1112 0.92722 0.0
C1268 C 0.97355 0.12436 0.86908 0.0
C1269 C 0.01075 0.11468 0.8076 0.0
C1270 C 0.02376 0.13191 0.77605 0.0
C1271 C 0.03615 0.12644 0.72045 0.0
C1272 C 0.03441 0.10328 0.6953 0.0
C1273 C 0.01984 0.08578 0.72378 0.0
C1274 C 0.00839 0.0915 0.782 0.0
H1275 H 0.37112 0.07213 0.94698 0.0
H1276 H 0.32736 0.01027 0.9065 0.0
H1277 H 0.35517 0.99966 0.81964 0.0
H1278 H 0.39285 0.08572 0.79111 0.0
H1279 H 0.42236 0.09266 0.81877 0.0
H1280 H 0.39722 0.09703 0.87029 0.0
H1281 H 0.41659 0.07027 0.95535 0.0
H1282 H 0.44167 0.06577 0.90406 0.0
H1283 H 0.42548 0.04061 0.93436 0.0
H1284 H 0.38973 0.996 0.73558 0.0
H1285 H 0.42715 0.99673 0.67509 0.0
H1286 H 0.4513 0.05718 0.78504 0.0
C1287 C 0.36718 0.056 0.92136 0.0
C1288 C 0.3467 0.04188 0.93612 0.0
C1289 C 0.3425 0.02168 0.89732 0.0
C1290 C 0.35843 0.01541 0.84771 0.0
C1291 C 0.37888 0.02925 0.8372 0.0
C1292 C 0.38326 0.04902 0.87376 0.0
C1293 C 0.40742 0.05987 0.8581 0.0
C1294 C 0.40479 0.08533 0.83308 0.0
C1295 C 0.42375 0.05907 0.91647 0.0
C1296 C 0.41618 0.04333 0.80623 0.0
C1297 C 0.39926 0.02604 0.79382 0.0
C1298 C 0.40308 0.00929 0.74617 0.0
C1299 C 0.42467 0.00986 0.71185 0.0
C1300 C 0.44299 0.0266 0.72574 0.0
C1301 C 0.43823 0.04377 0.77345 0.0
H1302 H 0.53124 0.37023 0.945 0.0
H1303 H 0.4679 0.3339 0.8798 0.0
H1304 H 0.46335 0.3639 0.79444 0.0
H1305 H 0.51212 0.42798 0.92374 0.0
H1306 H 0.5399 0.43997 0.89541 0.0
H1307 H 0.53974 0.41433 0.94628 0.0
H1308 H 0.56355 0.39071 0.86225 0.0
H1309 H 0.56401 0.41652 0.81173 0.0
H1310 H 0.5525 0.38877 0.78211 0.0
H1311 H 0.46236 0.40246 0.72622 0.0
H1312 H 0.46825 0.44155 0.67411 0.0
H1313 H 0.53371 0.45131 0.77807 0.0
C1314 C 0.51685 0.36808 0.91138 0.0
C1315 C 0.5001 0.34925 0.91903 0.0
C1316 C 0.48128 0.34762 0.87454 0.0
C1317 C 0.47842 0.36485 0.82616 0.0
C1318 C 0.49475 0.38363 0.82156 0.0
C1319 C 0.51401 0.38492 0.86209 0.0
C1320 C 0.5288 0.4071 0.84827 0.0
C1321 C 0.53021 0.42329 0.90692 0.0
C1322 C 0.5537 0.40037 0.8247 0.0
C1323 C 0.51447 0.41862 0.79542 0.0
C1324 C 0.4948 0.40489 0.78071 0.0
C1325 C 0.47801 0.41295 0.73683 0.0
C1326 C 0.48146 0.43528 0.7074 0.0
C1327 C 0.50175 0.44943 0.72065 0.0
C1328 C 0.51846 0.44071 0.76516 0.0
H1329 H 0.16237 0.52829 0.94048 0.0
H1330 H 0.18699 0.45979 0.87544 0.0
H1331 H 0.15306 0.45714 0.80171 0.0
H1332 H 0.10013 0.51378 0.93754 0.0
H1333 H 0.09048 0.54237 0.90983 0.0
H1334 H 0.11752 0.53993 0.95494 0.0
H1335 H 0.14046 0.56087 0.86438 0.0
H1336 H 0.11363 0.56304 0.81813 0.0
H1337 H 0.13941 0.54872 0.78533 0.0
H1338 H 0.11466 0.46013 0.73972 0.0
H1339 H 0.07609 0.46971 0.69056 0.0
H1340 H 0.07486 0.53638 0.79266 0.0
C1341 C 0.1609 0.513 0.90967 0.0
C1342 C 0.17779 0.4943 0.9138 0.0
C1343 C 0.17461 0.47439 0.87339 0.0
C1344 C 0.15524 0.47269 0.83125 0.0
C1345 C 0.13871 0.49101 0.82934 0.0
C1346 C 0.14134 0.51091 0.86709 0.0
C1347 C 0.12037 0.52764 0.85659 0.0
C1348 C 0.1063 0.53114 0.91842 0.0
C1349 C 0.12898 0.55149 0.8295 0.0
C1350 C 0.10562 0.51398 0.80768 0.0
C1351 C 0.11657 0.49284 0.79289 0.0
C1352 C 0.10608 0.47674 0.75084 0.0
C1353 C 0.084 0.48228 0.72321 0.0
C1354 C 0.07215 0.50372 0.73756 0.0
C1355 C 0.08342 0.51989 0.78007 0.0
H1356 H 0.99865 0.8466 0.44526 0.0
H1357 H 1.00513 0.87776 0.25804 0.0
H1358 H 0.00973 0.91749 0.3061 0.0
H1359 H 0.96459 0.8912 0.51253 0.0
H1360 H 0.9782 0.89364 0.58917 0.0
H1361 H 0.97877 0.86573 0.54734 0.0
H1362 H 0.02326 0.86317 0.55264 0.0
H1363 H 0.02699 0.89131 0.59277 0.0
H1364 H 0.04167 0.88616 0.51879 0.0
H1365 H 0.01294 0.95473 0.37514 0.0
H1366 H 0.01426 0.98553 0.45879 0.0
H1367 H 1.00361 0.93169 0.60251 0.0
C1368 C 1.00156 0.86172 0.41453 0.0
C1369 C 1.00189 0.8588 0.34742 0.0
C1370 C 1.00514 0.87933 0.30929 0.0
C1371 C 1.00768 0.90209 0.33628 0.0
C1372 C 1.00689 0.90447 0.40219 0.0
C1373 C 1.00406 0.88483 0.44092 0.0
C1374 C 1.00346 0.89259 0.51034 0.0
C1375 C 0.97989 0.8853 0.54176 0.0
C1376 C 0.02505 0.88264 0.54583 0.0
C1377 C 1.00545 0.91952 0.50463 0.0
C1378 C 1.00783 0.92596 0.44168 0.0
C1379 C 0.01076 0.94975 0.42441 0.0
C1380 C 0.0112 0.96725 0.47229 0.0
C1381 C 0.00808 0.9613 0.53707 0.0
C1382 C 1.00546 0.93695 0.55331 0.0
H1383 H 0.68634 0.98809 0.45455 0.0
H1384 H 0.67136 0.03521 0.29715 0.0
H1385 H 0.63153 0.0429 0.34151 0.0
H1386 H 0.62867 0.96295 0.47118 0.0
H1387 H 0.62841 0.96238 0.55671 0.0
H1388 H 0.65619 0.96092 0.51449 0.0
H1389 H 0.67174 0.99765 0.57608 0.0
H1390 H 0.64404 0.99862 0.61878 0.0
H1391 H 0.65442 0.02445 0.57645 0.0
H1392 H 0.5912 0.04068 0.39367 0.0
H1393 H 0.55573 0.03513 0.46057 0.0
H1394 H 0.59715 0.99488 0.59579 0.0
C1395 C 0.67484 1.00045 0.43027 0.0
C1396 C 0.68226 0.01123 0.37226 0.0
C1397 C 0.66645 0.02704 0.34185 0.0
C1398 C 0.64362 0.03136 0.36653 0.0
C1399 C 0.63673 0.0202 0.42288 0.0
C1400 C 0.65208 1.00558 0.45553 0.0
C1401 C 0.6401 0.99621 0.51585 0.0
C1402 C 0.63824 0.969 0.51444 0.0
C1403 C 0.65338 1.00476 0.57531 0.0
C1404 C 0.61556 1.00752 0.51135 0.0
C1405 C 0.61397 0.02085 0.45643 0.0
C1406 C 0.59255 0.03099 0.43785 0.0
C1407 C 0.57241 0.02782 0.47651 0.0
C1408 C 0.57364 0.01545 0.53498 0.0
C1409 C 0.59569 1.00513 0.55252 0.0
H1410 H 0.55055 0.68401 0.44084 0.0
H1411 H 0.49387 0.67745 0.30247 0.0
H1412 H 0.4806 0.64031 0.35499 0.0
H1413 H 0.56635 0.62531 0.43937 0.0
H1414 H 0.57305 0.62182 0.52271 0.0
H1415 H 0.57625 0.65036 0.48521 0.0
H1416 H 0.5478 0.67038 0.56291 0.0
H1417 H 0.54534 0.64277 0.60559 0.0
H1418 H 0.51898 0.65747 0.57776 0.0
H1419 H 0.47479 0.60195 0.4213 0.0
H1420 H 0.47695 0.56719 0.49272 0.0
H1421 H 0.54024 0.59643 0.5802 0.0
C1422 C 0.53522 0.67499 0.42127 0.0
C1423 C 0.52344 0.68403 0.36638 0.0
C1424 C 0.50316 0.67144 0.34441 0.0
C1425 C 0.49561 0.65008 0.37383 0.0
C1426 C 0.50841 0.64123 0.42565 0.0
C1427 C 0.52769 0.6535 0.44947 0.0
C1428 C 0.53939 0.63966 0.50319 0.0
C1429 C 0.5653 0.63391 0.4867 0.0
C1430 C 0.53778 0.65339 0.56608 0.0
C1431 C 0.52405 0.61732 0.50527 0.0
C1432 C 0.50595 0.61881 0.46102 0.0
C1433 C 0.48896 0.60075 0.45578 0.0
C1434 C 0.49032 0.581 0.49678 0.0
C1435 C 0.50881 0.57884 0.54208 0.0
C1436 C 0.52603 0.5973 0.54571 0.0
H1437 H 0.86466 0.49811 0.33983 0.0
H1438 H 0.8257 0.5574 0.41715 0.0
H1439 H 0.85506 0.56077 0.50442 0.0
H1440 H 0.88086 0.47225 0.49409 0.0
H1441 H 0.91034 0.46322 0.47107 0.0
H1442 H 0.88676 0.46402 0.41324 0.0
H1443 H 0.90977 0.49215 0.3404 0.0
H1444 H 0.93459 0.49095 0.3941 0.0
H1445 H 0.92222 0.51919 0.372 0.0
H1446 H 0.89359 0.5625 0.57071 0.0
H1447 H 0.93204 0.5565 0.62554 0.0
H1448 H 0.94333 0.49243 0.51714 0.0
C1449 C 0.86178 0.51119 0.37661 0.0
C1450 C 0.84234 0.52716 0.37215 0.0
C1451 C 0.83986 0.54454 0.42022 0.0
C1452 C 0.85674 0.54678 0.46959 0.0
C1453 C 0.87604 0.53126 0.47142 0.0
C1454 C 0.87822 0.51329 0.42724 0.0
C1455 C 0.90065 0.49894 0.43994 0.0
C1456 C 0.89431 0.47306 0.45558 0.0
C1457 C 0.91781 0.5004 0.38323 0.0
C1458 C 0.91093 0.51177 0.49756 0.0
C1459 C 0.8968 0.53081 0.51379 0.0
C1460 C 0.90425 0.54714 0.55971 0.0
C1461 C 0.92621 0.54365 0.59066 0.0
C1462 C 0.94033 0.5235 0.57786 0.0
C1463 C 0.93247 0.50742 0.53026 0.0
loop_
_geom_bond_atom_site_label_1
_geom_bond_atom_site_label_2
_geom_bond_distance
_geom_bond_site_symmetry_2
_ccdc_geom_bond_type
C0 C1 1.391 . S
C0 C4 1.391 . S
C0 H42 0.948 . S
C1 C0 1.391 . S
C1 C2 1.391 . S
C2 C1 1.391 . S
C2 H58 0.947 . S
C2 C59 1.392 . S
C3 C4 1.391 . S
C3 C7 1.397 . S
C3 C59 1.419 . S
C4 C0 1.391 . S
C4 C3 1.391 . S
C4 C5 1.399 . S
C5 C4 1.399 . S
C5 C8 1.396 . S
C5 C17 1.453 . S
C5 C18 1.684 . S
H6 C30 0.948 . S
C7 C3 1.397 . S
C7 C8 1.394 . S
C7 C26 1.723 . S
C8 C5 1.396 . S
C8 C7 1.394 . S
C8 C38 1.723 . S
H9 C32 0.947 . S
H10 C33 0.948 . S
H11 C39 0.982 . S
H12 C40 0.979 . S
H13 C40 0.980 . S
H14 C40 0.983 . S
H15 C39 0.979 . S
H16 C39 0.977 . S
C17 C5 1.453 . S
C17 H46 0.982 . S
C17 H47 0.979 . S
C17 H48 0.977 . S
C18 C5 1.684 . S
C18 H43 0.979 . S
C18 H44 0.980 . S
C18 H45 0.983 . S
C19 C20 1.391 . S
C19 C24 1.391 . S
C19 H49 0.948 . S
C20 C19 1.391 . S
C20 C21 1.391 . S
C21 C20 1.391 . S
C21 C22 1.392 . S
C21 H50 0.947 1_554 S
C22 C21 1.392 . S
C22 C23 1.419 . S
C22 H51 0.948 . S
C23 C22 1.419 . S
C23 C24 1.391 . S
C23 C27 1.397 . S
C24 C19 1.391 . S
C24 C23 1.391 . S
C24 C25 1.399 . S
C25 C24 1.399 . S
C25 C26 1.396 . S
C25 C28 1.453 . S
C25 C29 1.684 . S
C26 C7 1.723 . S
C26 C25 1.396 . S
C26 C27 1.394 . S
C27 C23 1.397 . S
C27 C26 1.394 . S
C27 C37 1.723 . S
C28 C25 1.453 . S
C28 H52 0.982 . S
C28 H53 0.979 . S
C28 H54 0.977 . S
C29 C25 1.684 . S
C29 H55 0.979 . S
C29 H56 0.980 . S
C29 H57 0.983 . S
C30 H6 0.948 . S
C30 C31 1.391 . S
C30 C35 1.391 . S
C31 C30 1.391 . S
C31 C32 1.391 . S
C32 H9 0.947 . S
C32 C31 1.391 . S
C32 C33 1.392 . S
C33 H10 0.948 . S
C33 C32 1.392 . S
C33 C34 1.419 . S
C34 C33 1.419 . S
C34 C35 1.391 . S
C34 C38 1.397 . S
C35 C30 1.391 . S
C35 C34 1.391 . S
C35 C36 1.399 . S
C36 C35 1.399 . S
C36 C37 1.396 . S
C36 C39 1.453 . S
C36 C40 1.684 . S
C37 C27 1.723 . S
C37 C36 1.396 . S
C37 C38 1.394 . S
C38 C8 1.723 . S
C38 C34 1.397 . S
C38 C37 1.394 . S
C39 H11 0.982 . S
C39 H15 0.979 . S
C39 H16 0.977 . S
C39 C36 1.453 . S
C40 H12 0.979 . S
C40 H13 0.980 . S
C40 H14 0.983 . S
C40 C36 1.684 . S
H41 C59 0.948 . S
H42 C0 0.948 . S
H43 C18 0.979 . S
H44 C18 0.980 . S
H45 C18 0.983 . S
H46 C17 0.982 . S
H47 C17 0.979 . S
H48 C17 0.977 . S
H49 C19 0.948 . S
H50 C21 0.947 1_556 S
H51 C22 0.948 . S
H52 C28 0.982 . S
H53 C28 0.979 . S
H54 C28 0.977 . S
H55 C29 0.979 . S
H56 C29 0.980 . S
H57 C29 0.983 . S
H58 C2 0.947 . S
C59 C2 1.392 . S
C59 C3 1.419 . S
C59 H41 0.948 . S
C60 C61 1.391 . S
C60 C64 1.391 . S
C60 H102 0.948 . S
C61 C60 1.391 . S
C61 C62 1.391 . S
C62 C61 1.391 . S
C62 H118 0.947 . S
C62 C119 1.392 . S
C63 C64 1.391 . S
C63 C67 1.397 . S
C63 C119 1.419 . S
C64 C60 1.391 . S
C64 C63 1.391 . S
C64 C65 1.399 . S
C65 C64 1.399 . S
C65 C68 1.396 . S
C65 C77 1.453 . S
C65 C78 1.684 . S
H66 C90 0.948 . S
C67 C63 1.397 . S
C67 C68 1.394 . S
C67 C86 1.723 . S
C68 C65 1.396 . S
C68 C67 1.394 . S
C68 C98 1.723 . S
H69 C92 0.947 . S
H70 C93 0.948 . S
H71 C99 0.982 . S
H72 C100 0.979 . S
H73 C100 0.980 . S
H74 C100 0.983 . S
H75 C99 0.979 . S
H76 C99 0.977 . S
C77 C65 1.453 . S
C77 H106 0.982 . S
C77 H107 0.979 . S
C77 H108 0.977 . S
C78 C65 1.684 . S
C78 H103 0.979 . S
C78 H104 0.980 . S
C78 H105 0.983 . S
C79 C80 1.391 . S
C79 C84 1.391 . S
C79 H109 0.948 . S
C80 C79 1.391 . S
C80 C81 1.391 . S
C81 C80 1.391 . S
C81 C82 1.392 . S
C81 H110 0.947 . S
C82 C81 1.392 . S
C82 C83 1.419 . S
C82 H111 0.948 . S
C83 C82 1.419 . S
C83 C84 1.391 . S
C83 C87 1.397 . S
C84 C79 1.391 . S
C84 C83 1.391 . S
C84 C85 1.399 . S
C85 C84 1.399 . S
C85 C86 1.396 . S
C85 C88 1.453 . S
C85 C89 1.684 . S
C86 C67 1.723 . S
C86 C85 1.396 . S
C86 C87 1.394 . S
C87 C83 1.397 . S
C87 C86 1.394 . S
C87 C97 1.723 . S
C88 C85 1.453 . S
C88 H112 0.982 . S
C88 H113 0.979 . S
C88 H114 0.977 . S
C89 C85 1.684 . S
C89 H115 0.979 . S
C89 H116 0.980 . S
C89 H117 0.983 . S
C90 H66 0.948 . S
C90 C91 1.391 . S
C90 C95 1.391 . S
C91 C90 1.391 . S
C91 C92 1.391 . S
C92 H69 0.947 . S
C92 C91 1.391 . S
C92 C93 1.392 . S
C93 H70 0.948 . S
C93 C92 1.392 . S
C93 C94 1.419 . S
C94 C93 1.419 . S
C94 C95 1.391 . S
C94 C98 1.397 . S
C95 C90 1.391 . S
C95 C94 1.391 . S
C95 C96 1.399 . S
C96 C95 1.399 . S
C96 C97 1.396 . S
C96 C99 1.453 . S
C96 C100 1.684 . S
C97 C87 1.723 . S
C97 C96 1.396 . S
C97 C98 1.394 . S
C98 C68 1.723 . S
C98 C94 1.397 . S
C98 C97 1.394 . S
C99 H71 0.982 . S
C99 H75 0.979 . S
C99 H76 0.977 . S
C99 C96 1.453 . S
C100 H72 0.979 . S
C100 H73 0.980 . S
C100 H74 0.983 . S
C100 C96 1.684 . S
H101 C119 0.948 . S
H102 C60 0.948 . S
H103 C78 0.979 . S
H104 C78 0.980 . S
H105 C78 0.983 . S
H106 C77 0.982 . S
H107 C77 0.979 . S
H108 C77 0.977 . S
H109 C79 0.948 . S
H110 C81 0.947 . S
H111 C82 0.948 . S
H112 C88 0.982 . S
H113 C88 0.979 . S
H114 C88 0.977 . S
H115 C89 0.979 . S
H116 C89 0.980 . S
H117 C89 0.983 . S
H118 C62 0.947 . S
C119 C62 1.392 . S
C119 C63 1.419 . S
C119 H101 0.948 . S
C120 C121 1.391 . S
C120 C124 1.391 . S
C120 H162 0.948 . S
C121 C120 1.391 . S
C121 C122 1.391 . S
C122 C121 1.391 . S
C122 H178 0.947 . S
C122 C179 1.392 . S
C123 C124 1.391 . S
C123 C127 1.397 . S
C123 C179 1.419 . S
C124 C120 1.391 . S
C124 C123 1.391 . S
C124 C125 1.399 . S
C125 C124 1.399 . S
C125 C128 1.396 . S
C125 C137 1.453 . S
C125 C138 1.684 . S
H126 C150 0.948 . S
C127 C123 1.397 . S
C127 C128 1.394 . S
C127 C146 1.723 . S
C128 C125 1.396 . S
C128 C127 1.394 . S
C128 C158 1.723 . S
H129 C152 0.947 . S
H130 C153 0.948 . S
H131 C159 0.955 1_545 S
H132 C160 0.979 . S
H133 C160 0.980 . S
H134 C160 0.983 . S
H135 C159 0.979 . S
H136 C159 0.977 . S
C137 C125 1.453 . S
C137 H166 0.955 1_565 S
C137 H167 0.979 . S
C137 H168 0.977 . S
C138 C125 1.684 . S
C138 H163 0.979 . S
C138 H164 0.980 . S
C138 H165 0.983 . S
C139 C140 1.391 . S
C139 C144 1.391 . S
C139 H169 0.948 . S
C140 C139 1.391 . S
C140 C141 1.391 . S
C141 C140 1.391 . S
C141 C142 1.392 . S
C141 H170 0.947 . S
C142 C141 1.392 . S
C142 C143 1.419 . S
C142 H171 0.948 . S
C143 C142 1.419 . S
C143 C144 1.391 . S
C143 C147 1.397 . S
C144 C139 1.391 . S
C144 C143 1.391 . S
C144 C145 1.399 . S
C145 C144 1.399 . S
C145 C146 1.396 . S
C145 C148 1.453 . S
C145 C149 1.684 . S
C146 C127 1.723 . S
C146 C145 1.396 . S
C146 C147 1.394 . S
C147 C143 1.397 . S
C147 C146 1.394 . S
C147 C157 1.723 . S
C148 C145 1.453 . S
C148 H172 0.955 1_565 S
C148 H173 0.979 . S
C148 H174 0.977 . S
C149 C145 1.684 . S
C149 H175 0.979 . S
C149 H176 0.980 . S
C149 H177 0.983 . S
C150 H126 0.948 . S
C150 C151 1.391 . S
C150 C155 1.391 . S
C151 C150 1.391 . S
C151 C152 1.391 . S
C152 H129 0.947 . S
C152 C151 1.391 . S
C152 C153 1.392 . S
C153 H130 0.948 . S
C153 C152 1.392 . S
C153 C154 1.419 . S
C154 C153 1.419 . S
C154 C155 1.391 . S
C154 C158 1.397 . S
C155 C150 1.391 . S
C155 C154 1.391 . S
C155 C156 1.399 . S
C156 C155 1.399 . S
C156 C157 1.396 . S
C156 C159 1.453 . S
C156 C160 1.684 . S
C157 C147 1.723 . S
C157 C156 1.396 . S
C157 C158 1.394 . S
C158 C128 1.723 . S
C158 C154 1.397 . S
C158 C157 1.394 . S
C159 H131 0.955 1_565 S
C159 H135 0.979 . S
C159 H136 0.977 . S
C159 C156 1.453 . S
C160 H132 0.979 . S
C160 H133 0.980 . S
C160 H134 0.983 . S
C160 C156 1.684 . S
H161 C179 0.948 . S
H162 C120 0.948 . S
H163 C138 0.979 . S
H164 C138 0.980 . S
H165 C138 0.983 . S
H166 C137 0.955 1_545 S
H167 C137 0.979 . S
H168 C137 0.977 . S
H169 C139 0.948 . S
H170 C141 0.947 . S
H171 C142 0.948 . S
H172 C148 0.955 1_545 S
H173 C148 0.979 . S
H174 C148 0.977 . S
H175 C149 0.979 . S
H176 C149 0.980 . S
H177 C149 0.983 . S
H178 C122 0.947 . S
C179 C122 1.392 . S
C179 C123 1.419 . S
C179 H161 0.948 . S
C180 C181 1.391 . S
C180 C184 1.391 . S
C180 H222 0.948 . S
C181 C180 1.391 . S
C181 C182 1.391 . S
C182 C181 1.391 . S
C182 H238 0.947 . S
C182 C239 1.392 . S
C183 C184 1.391 . S
C183 C187 1.397 . S
C183 C239 1.419 . S
C184 C180 1.391 . S
C184 C183 1.391 . S
C184 C185 1.399 . S
C185 C184 1.399 . S
C185 C188 1.396 . S
C185 C197 1.453 . S
C185 C198 1.684 . S
H186 C210 0.948 . S
C187 C183 1.397 . S
C187 C188 1.394 . S
C187 C206 1.723 . S
C188 C185 1.396 . S
C188 C187 1.394 . S
C188 C218 1.723 . S
H189 C212 0.947 . S
H190 C213 0.948 . S
H191 C219 0.982 . S
H192 C220 0.979 . S
H193 C220 0.980 . S
H194 C220 0.983 . S
H195 C219 0.979 . S
H196 C219 0.977 . S
C197 C185 1.453 . S
C197 H226 0.982 . S
C197 H227 0.979 . S
C197 H228 0.977 . S
C198 C185 1.684 . S
C198 H223 0.979 . S
C198 H224 0.980 . S
C198 H225 0.983 . S
C199 C200 1.391 . S
C199 C204 1.391 . S
C199 H229 0.948 . S
C200 C199 1.391 . S
C200 C201 1.391 . S
C201 C200 1.391 . S
C201 C202 1.392 . S
C201 H230 0.947 1_554 S
C202 C201 1.392 . S
C202 C203 1.419 . S
C202 H231 0.948 . S
C203 C202 1.419 . S
C203 C204 1.391 . S
C203 C207 1.397 . S
C204 C199 1.391 . S
C204 C203 1.391 . S
C204 C205 1.399 . S
C205 C204 1.399 . S
C205 C206 1.396 . S
C205 C208 1.453 . S
C205 C209 1.684 . S
C206 C187 1.723 . S
C206 C205 1.396 . S
C206 C207 1.394 . S
C207 C203 1.397 . S
C207 C206 1.394 . S
C207 C217 1.723 . S
C208 C205 1.453 . S
C208 H232 0.982 . S
C208 H233 0.979 . S
C208 H234 0.977 . S
C209 C205 1.684 . S
C209 H235 0.979 . S
C209 H236 0.980 . S
C209 H237 0.983 . S
C210 H186 0.948 . S
C210 C211 1.391 . S
C210 C215 1.391 . S
C211 C210 1.391 . S
C211 C212 1.391 . S
C212 H189 0.947 . S
C212 C211 1.391 . S
C212 C213 1.392 . S
C213 H190 0.948 . S
C213 C212 1.392 . S
C213 C214 1.419 . S
C214 C213 1.419 . S
C214 C215 1.391 . S
C214 C218 1.397 . S
C215 C210 1.391 . S
C215 C214 1.391 . S
C215 C216 1.399 . S
C216 C215 1.399 . S
C216 C217 1.396 . S
C216 C219 1.453 . S
C216 C220 1.684 . S
C217 C207 1.723 . S
C217 C216 1.396 . S
C217 C218 1.394 . S
C218 C188 1.723 . S
C218 C214 1.397 . S
C218 C217 1.394 . S
C219 H191 0.982 . S
C219 H195 0.979 . S
C219 H196 0.977 . S
C219 C216 1.453 . S
C220 H192 0.979 . S
C220 H193 0.980 . S
C220 H194 0.983 . S
C220 C216 1.684 . S
H221 C239 0.948 . S
H222 C180 0.948 . S
H223 C198 0.979 . S
H224 C198 0.980 . S
H225 C198 0.983 . S
H226 C197 0.982 . S
H227 C197 0.979 . S
H228 C197 0.977 . S
H229 C199 0.948 . S
H230 C201 0.947 1_556 S
H231 C202 0.948 . S
H232 C208 0.982 . S
H233 C208 0.979 . S
H234 C208 0.977 . S
H235 C209 0.979 . S
H236 C209 0.980 . S
H237 C209 0.983 . S
H238 C182 0.947 . S
C239 C182 1.392 . S
C239 C183 1.419 . S
C239 H221 0.948 . S
C240 C241 1.391 . S
C240 C244 1.391 . S
C240 H282 0.948 . S
C241 C240 1.391 . S
C241 C242 1.391 . S
C242 C241 1.391 . S
C242 H298 0.947 . S
C242 C299 1.392 . S
C243 C244 1.391 . S
C243 C247 1.397 . S
C243 C299 1.419 . S
C244 C240 1.391 . S
C244 C243 1.391 . S
C244 C245 1.399 1_554 S
C245 C244 1.399 1_556 S
C245 C248 1.396 1_556 S
C245 C257 1.453 . S
C245 C258 1.684 . S
H246 C270 0.948 . S
C247 C243 1.397 . S
C247 C248 1.394 . S
C247 C266 1.723 . S
C248 C245 1.396 1_554 S
C248 C247 1.394 . S
C248 C278 1.723 1_554 S
H249 C272 0.947 . S
H250 C273 0.948 . S
H251 C279 0.982 . S
H252 C280 0.979 . S
H253 C280 0.980 1_554 S
H254 C280 0.983 . S
H255 C279 0.979 . S
H256 C279 0.977 1_554 S
C257 C245 1.453 . S
C257 H286 0.982 . S
C257 H287 0.979 . S
C257 H288 0.977 . S
C258 C245 1.684 . S
C258 H283 0.979 . S
C258 H284 0.980 . S
C258 H285 0.983 . S
C259 C260 1.391 . S
C259 C264 1.391 . S
C259 H289 0.948 . S
C260 C259 1.391 . S
C260 C261 1.391 . S
C261 C260 1.391 . S
C261 C262 1.392 . S
C261 H290 0.947 . S
C262 C261 1.392 . S
C262 C263 1.419 . S
C262 H291 0.948 . S
C263 C262 1.419 . S
C263 C264 1.391 . S
C263 C267 1.397 . S
C264 C259 1.391 . S
C264 C263 1.391 . S
C264 C265 1.399 . S
C265 C264 1.399 . S
C265 C266 1.396 . S
C265 C268 1.453 . S
C265 C269 1.684 . S
C266 C247 1.723 . S
C266 C265 1.396 . S
C266 C267 1.394 . S
C267 C263 1.397 . S
C267 C266 1.394 . S
C267 C277 1.723 . S
C268 C265 1.453 . S
C268 H292 0.982 . S
C268 H293 0.979 . S
C268 H294 0.977 . S
C269 C265 1.684 . S
C269 H295 0.979 . S
C269 H296 0.980 . S
C269 H297 0.983 . S
C270 H246 0.948 . S
C270 C271 1.391 . S
C270 C275 1.391 . S
C271 C270 1.391 . S
C271 C272 1.391 . S
C272 H249 0.947 . S
C272 C271 1.391 . S
C272 C273 1.392 . S
C273 H250 0.948 . S
C273 C272 1.392 . S
C273 C274 1.419 . S
C274 C273 1.419 . S
C274 C275 1.391 . S
C274 C278 1.397 . S
C275 C270 1.391 . S
C275 C274 1.391 . S
C275 C276 1.399 . S
C276 C275 1.399 . S
C276 C277 1.396 1_556 S
C276 C279 1.453 . S
C276 C280 1.684 . S
C277 C267 1.723 . S
C277 C276 1.396 1_554 S
C277 C278 1.394 1_554 S
C278 C248 1.723 1_556 S
C278 C274 1.397 . S
C278 C277 1.394 1_556 S
C279 H251 0.982 . S
C279 H255 0.979 . S
C279 H256 0.977 1_556 S
C279 C276 1.453 . S
C280 H252 0.979 . S
C280 H253 0.980 1_556 S
C280 H254 0.983 . S
C280 C276 1.684 . S
H281 C299 0.948 . S
H282 C240 0.948 . S
H283 C258 0.979 . S
H284 C258 0.980 . S
H285 C258 0.983 . S
H286 C257 0.982 . S
H287 C257 0.979 . S
H288 C257 0.977 . S
H289 C259 0.948 . S
H290 C261 0.947 . S
H291 C262 0.948 . S
H292 C268 0.982 . S
H293 C268 0.979 . S
H294 C268 0.977 . S
H295 C269 0.979 . S
H296 C269 0.980 . S
H297 C269 0.983 . S
H298 C242 0.947 . S
C299 C242 1.392 . S
C299 C243 1.419 . S
C299 H281 0.948 . S
C300 C301 1.391 . S
C300 C304 1.391 . S
C300 H342 0.948 . S
C301 C300 1.391 . S
C301 C302 1.391 . S
C302 C301 1.391 . S
C302 H358 0.947 . S
C302 C359 1.392 . S
C303 C304 1.391 . S
C303 C307 1.397 . S
C303 C359 1.419 . S
C304 C300 1.391 . S
C304 C303 1.391 . S
C304 C305 1.399 . S
C305 C304 1.399 . S
C305 C308 1.396 . S
C305 C317 1.453 . S
C305 C318 1.684 . S
H306 C330 0.948 . S
C307 C303 1.397 . S
C307 C308 1.394 . S
C307 C326 1.723 . S
C308 C305 1.396 . S
C308 C307 1.394 . S
C308 C338 1.723 . S
H309 C332 0.947 . S
H310 C333 0.948 . S
H311 C339 0.982 . S
H312 C340 0.979 . S
H313 C340 0.980 . S
H314 C340 0.983 . S
H315 C339 0.979 . S
H316 C339 0.977 . S
C317 C305 1.453 . S
C317 H346 0.982 . S
C317 H347 0.979 . S
C317 H348 0.977 . S
C318 C305 1.684 . S
C318 H343 0.979 . S
C318 H344 0.980 . S
C318 H345 0.983 . S
C319 C320 1.391 . S
C319 C324 1.391 . S
C319 H349 0.948 . S
C320 C319 1.391 . S
C320 C321 1.391 . S
C321 C320 1.391 . S
C321 C322 1.392 . S
C321 H350 0.947 . S
C322 C321 1.392 . S
C322 C323 1.419 . S
C322 H351 0.948 . S
C323 C322 1.419 . S
C323 C324 1.391 . S
C323 C327 1.397 . S
C324 C319 1.391 . S
C324 C323 1.391 . S
C324 C325 1.399 . S
C325 C324 1.399 . S
C325 C326 1.396 1_556 S
C325 C328 1.453 . S
C325 C329 1.684 . S
C326 C307 1.723 . S
C326 C325 1.396 1_554 S
C326 C327 1.394 1_554 S
C327 C323 1.397 . S
C327 C326 1.394 1_556 S
C327 C337 1.723 1_556 S
C328 C325 1.453 . S
C328 H352 0.982 . S
C328 H353 0.979 . S
C328 H354 0.977 1_556 S
C329 C325 1.684 . S
C329 H355 0.979 . S
C329 H356 0.980 1_556 S
C329 H357 0.983 . S
C330 H306 0.948 . S
C330 C331 1.391 . S
C330 C335 1.391 . S
C331 C330 1.391 . S
C331 C332 1.391 . S
C332 H309 0.947 . S
C332 C331 1.391 . S
C332 C333 1.392 . S
C333 H310 0.948 . S
C333 C332 1.392 . S
C333 C334 1.419 . S
C334 C333 1.419 . S
C334 C335 1.391 . S
C334 C338 1.397 . S
C335 C330 1.391 . S
C335 C334 1.391 . S
C335 C336 1.399 1_554 S
C336 C335 1.399 1_556 S
C336 C337 1.396 1_556 S
C336 C339 1.453 . S
C336 C340 1.684 . S
C337 C327 1.723 1_554 S
C337 C336 1.396 1_554 S
C337 C338 1.394 . S
C338 C308 1.723 . S
C338 C334 1.397 . S
C338 C337 1.394 . S
C339 H311 0.982 . S
C339 H315 0.979 . S
C339 H316 0.977 . S
C339 C336 1.453 . S
C340 H312 0.979 . S
C340 H313 0.980 . S
C340 H314 0.983 . S
C340 C336 1.684 . S
H341 C359 0.948 . S
H342 C300 0.948 . S
H343 C318 0.979 . S
H344 C318 0.980 . S
H345 C318 0.983 . S
H346 C317 0.982 . S
H347 C317 0.979 . S
H348 C317 0.977 . S
H349 C319 0.948 . S
H350 C321 0.947 . S
H351 C322 0.948 . S
H352 C328 0.982 . S
H353 C328 0.979 . S
H354 C328 0.977 1_554 S
H355 C329 0.979 . S
H356 C329 0.980 1_554 S
H357 C329 0.983 . S
H358 C302 0.947 . S
C359 C302 1.392 . S
C359 C303 1.419 . S
C359 H341 0.948 . S
C360 C361 1.391 . S
C360 C364 1.391 . S
C360 H402 0.948 . S
C361 C360 1.391 . S
C361 C362 1.391 . S
C362 C361 1.391 . S
C362 H418 0.947 . S
C362 C419 1.392 . S
C363 C364 1.391 . S
C363 C367 1.397 . S
C363 C419 1.419 . S
C364 C360 1.391 . S
C364 C363 1.391 . S
C364 C365 1.399 . S
C365 C364 1.399 . S
C365 C368 1.396 . S
C365 C377 1.453 . S
C365 C378 1.684 . S
H366 C390 0.948 . S
C367 C363 1.397 . S
C367 C368 1.394 . S
C367 C386 1.723 1_556 S
C368 C365 1.396 . S
C368 C367 1.394 . S
C368 C398 1.723 1_556 S
H369 C392 0.947 . S
H370 C393 0.948 1_556 S
H371 C399 0.982 . S
H372 C400 0.979 . S
H373 C400 0.980 . S
H374 C400 0.983 . S
H375 C399 0.979 . S
H376 C399 0.977 . S
C377 C365 1.453 . S
C377 H406 0.982 . S
C377 H407 0.979 . S
C377 H408 0.977 . S
C378 C365 1.684 . S
C378 H403 0.979 . S
C378 H404 0.980 . S
C378 H405 0.983 . S
C379 C380 1.391 . S
C379 C384 1.391 . S
C379 H409 0.948 . S
C380 C379 1.391 . S
C380 C381 1.391 . S
C381 C380 1.391 . S
C381 C382 1.392 . S
C381 H410 0.947 . S
C382 C381 1.392 . S
C382 C383 1.419 . S
C382 H411 0.948 . S
C383 C382 1.419 . S
C383 C384 1.391 . S
C383 C387 1.397 . S
C384 C379 1.391 . S
C384 C383 1.391 . S
C384 C385 1.399 . S
C385 C384 1.399 . S
C385 C386 1.396 . S
C385 C388 1.453 . S
C385 C389 1.684 . S
C386 C367 1.723 1_554 S
C386 C385 1.396 . S
C386 C387 1.394 . S
C387 C383 1.397 . S
C387 C386 1.394 . S
C387 C397 1.723 . S
C388 C385 1.453 . S
C388 H412 0.982 . S
C388 H413 0.979 . S
C388 H414 0.977 1_554 S
C389 C385 1.684 . S
C389 H415 0.979 . S
C389 H416 0.980 1_554 S
C389 H417 0.983 . S
C390 H366 0.948 . S
C390 C391 1.391 . S
C390 C395 1.391 . S
C391 C390 1.391 . S
C391 C392 1.391 . S
C392 H369 0.947 . S
C392 C391 1.391 . S
C392 C393 1.392 . S
C393 H370 0.948 1_554 S
C393 C392 1.392 . S
C393 C394 1.419 . S
C394 C393 1.419 . S
C394 C395 1.391 . S
C394 C398 1.397 . S
C395 C390 1.391 . S
C395 C394 1.391 . S
C395 C396 1.399 . S
C396 C395 1.399 . S
C396 C397 1.396 . S
C396 C399 1.453 . S
C396 C400 1.684 . S
C397 C387 1.723 . S
C397 C396 1.396 . S
C397 C398 1.394 . S
C398 C368 1.723 1_554 S
C398 C394 1.397 . S
C398 C397 1.394 . S
C399 H371 0.982 . S
C399 H375 0.979 . S
C399 H376 0.977 . S
C399 C396 1.453 . S
C400 H372 0.979 . S
C400 H373 0.980 . S
C400 H374 0.983 . S
C400 C396 1.684 . S
H401 C419 0.948 . S
H402 C360 0.948 . S
H403 C378 0.979 . S
H404 C378 0.980 . S
H405 C378 0.983 . S
H406 C377 0.982 . S
H407 C377 0.979 . S
H408 C377 0.977 . S
H409 C379 0.948 . S
H410 C381 0.947 . S
H411 C382 0.948 . S
H412 C388 0.982 . S
H413 C388 0.979 . S
H414 C388 0.977 1_556 S
H415 C389 0.979 . S
H416 C389 0.980 1_556 S
H417 C389 0.983 . S
H418 C362 0.947 . S
C419 C362 1.392 . S
C419 C363 1.419 . S
C419 H401 0.948 . S
C420 C421 1.391 . S
C420 C424 1.391 . S
C420 H462 0.948 . S
C421 C420 1.391 . S
C421 C422 1.391 . S
C422 C421 1.391 . S
C422 H478 0.947 . S
C422 C479 1.392 . S
C423 C424 1.391 . S
C423 C427 1.397 . S
C423 C479 1.419 . S
C424 C420 1.391 . S
C424 C423 1.391 . S
C424 C425 1.399 . S
C425 C424 1.399 . S
C425 C428 1.396 . S
C425 C437 1.453 . S
C425 C438 1.684 . S
H426 C450 0.948 . S
C427 C423 1.397 . S
C427 C428 1.394 . S
C427 C446 1.723 1_556 S
C428 C425 1.396 . S
C428 C427 1.394 . S
C428 C458 1.723 1_556 S
H429 C452 0.947 1_556 S
H430 C453 0.948 1_556 S
H431 C459 0.982 . S
H432 C460 0.979 . S
H433 C460 0.980 . S
H434 C460 0.983 . S
H435 C459 0.979 . S
H436 C459 0.977 . S
C437 C425 1.453 . S
C437 H466 0.982 . S
C437 H467 0.979 . S
C437 H468 0.977 . S
C438 C425 1.684 . S
C438 H463 0.979 . S
C438 H464 0.980 . S
C438 H465 0.983 . S
C439 C440 1.391 . S
C439 C444 1.391 . S
C439 H469 0.948 . S
C440 C439 1.391 . S
C440 C441 1.391 . S
C441 C440 1.391 . S
C441 C442 1.392 . S
C441 H470 0.947 . S
C442 C441 1.392 . S
C442 C443 1.419 . S
C442 H471 0.948 . S
C443 C442 1.419 . S
C443 C444 1.391 . S
C443 C447 1.397 . S
C444 C439 1.391 . S
C444 C443 1.391 . S
C444 C445 1.399 . S
C445 C444 1.399 . S
C445 C446 1.396 . S
C445 C448 1.453 . S
C445 C449 1.684 . S
C446 C427 1.723 1_554 S
C446 C445 1.396 . S
C446 C447 1.394 . S
C447 C443 1.397 . S
C447 C446 1.394 . S
C447 C457 1.723 . S
C448 C445 1.453 . S
C448 H472 0.982 . S
C448 H473 0.979 . S
C448 H474 0.977 1_554 S
C449 C445 1.684 . S
C449 H475 0.979 . S
C449 H476 0.980 1_554 S
C449 H477 0.983 . S
C450 H426 0.948 . S
C450 C451 1.391 . S
C450 C455 1.391 . S
C451 C450 1.391 . S
C451 C452 1.391 . S
C452 H429 0.947 1_554 S
C452 C451 1.391 . S
C452 C453 1.392 . S
C453 H430 0.948 1_554 S
C453 C452 1.392 . S
C453 C454 1.419 . S
C454 C453 1.419 . S
C454 C455 1.391 . S
C454 C458 1.397 . S
C455 C450 1.391 . S
C455 C454 1.391 . S
C455 C456 1.399 . S
C456 C455 1.399 . S
C456 C457 1.396 . S
C456 C459 1.453 . S
C456 C460 1.684 . S
C457 C447 1.723 . S
C457 C456 1.396 . S
C457 C458 1.394 . S
C458 C428 1.723 1_554 S
C458 C454 1.397 . S
C458 C457 1.394 . S
C459 H431 0.982 . S
C459 H435 0.979 . S
C459 H436 0.977 . S
C459 C456 1.453 . S
C460 H432 0.979 . S
C460 H433 0.980 . S
C460 H434 0.983 . S
C460 C456 1.684 . S
H461 C479 0.948 . S
H462 C420 0.948 . S
H463 C438 0.979 . S
H464 C438 0.980 . S
H465 C438 0.983 . S
H466 C437 0.982 . S
H467 C437 0.979 . S
H468 C437 0.977 . S
H469 C439 0.948 . S
H470 C441 0.947 . S
H471 C442 0.948 . S
H472 C448 0.982 . S
H473 C448 0.979 . S
H474 C448 0.977 1_556 S
H475 C449 0.979 . S
H476 C449 0.980 1_556 S
H477 C449 0.983 . S
H478 C422 0.947 . S
C479 C422 1.392 . S
C479 C423 1.419 . S
C479 H461 0.948 . S
Eu480 N509 2.600 . S
Eu480 N515 2.562 . S
Eu480 O524 2.462 . S
Eu480 O525 2.373 1_545 S
Eu480 O527 2.432 . S
Eu480 O528 2.291 1_655 S
Eu480 O532 2.335 1_655 S
Eu480 O535 2.372 . S
Eu480 C544 2.787 . S
C481 N482 1.365 . S
C481 C484 1.405 . S
C481 C488 1.448 . S
N482 C481 1.365 . S
N482 C485 1.314 1_545 S
N482 Eu491 2.600 1_545 S
C483 C485 1.382 1_545 S
C483 C486 1.367 . S
C483 H503 0.931 . S
C484 C481 1.405 . S
C484 C486 1.403 . S
C484 C490 1.439 . S
C485 N482 1.314 1_565 S
C485 C483 1.382 1_565 S
C485 H496 0.954 . S
C486 C483 1.367 . S
C486 C484 1.403 . S
C486 H507 0.929 . S
C487 C488 1.430 . S
C487 C489 1.387 . S
C487 C493 1.404 . S
C488 C481 1.448 . S
C488 C487 1.430 . S
C488 N492 1.351 . S
C489 C487 1.387 . S
C489 C490 1.374 . S
C489 H504 0.931 . S
C490 C484 1.439 . S
C490 C489 1.374 . S
C490 H505 0.931 . S
Eu491 N482 2.600 1_565 S
Eu491 N492 2.562 1_565 S
Eu491 O526 2.335 . S
Eu491 O529 2.372 . S
Eu491 O530 2.462 . S
Eu491 O531 2.373 1_565 S
Eu491 O533 2.432 . S
Eu491 O534 2.291 1_465 S
Eu491 C555 2.787 . S
N492 C488 1.351 . S
N492 Eu491 2.562 1_545 S
N492 C494 1.325 . S
C493 C487 1.404 . S
C493 C495 1.366 . S
C493 H501 0.930 . S
C494 N492 1.325 . S
C494 C495 1.416 . S
C494 H500 0.910 1_455 S
C495 C493 1.366 . S
C495 C494 1.416 . S
C495 H497 0.930 . S
H496 C485 0.954 . S
H497 C495 0.930 . S
H498 C513 0.930 . S
H499 C520 0.930 1_455 S
H500 C494 0.910 1_655 S
H501 C493 0.930 . S
H502 C516 0.929 1_455 S
H503 C483 0.931 . S
H504 C489 0.931 . S
H505 C490 0.931 . S
H506 C511 0.931 . S
H507 C486 0.929 . S
H508 C519 0.930 . S
N509 Eu480 2.600 . S
N509 C510 1.365 . S
N509 C513 1.319 . S
C510 N509 1.365 . S
C510 C512 1.405 1_545 S
C510 C518 1.448 . S
C511 H506 0.931 . S
C511 C513 1.397 . S
C511 C514 1.369 1_545 S
C512 C510 1.405 1_565 S
C512 C514 1.403 . S
C512 C545 1.439 . S
C513 H498 0.930 . S
C513 N509 1.319 . S
C513 C511 1.397 . S
C514 C511 1.369 1_565 S
C514 C512 1.403 . S
C514 H521 0.928 . S
N515 Eu480 2.562 . S
N515 C516 1.325 . S
N515 C518 1.351 . S
C516 H502 0.929 1_655 S
C516 N515 1.325 . S
C516 C520 1.416 1_545 S
C517 C518 1.430 1_565 S
C517 C519 1.404 . S
C517 C546 1.387 . S
C518 C510 1.448 . S
C518 N515 1.351 . S
C518 C517 1.430 1_545 S
C519 H508 0.930 . S
C519 C517 1.404 . S
C519 C520 1.366 . S
C520 H499 0.930 1_655 S
C520 C516 1.416 1_565 S
C520 C519 1.366 . S
H521 C514 0.928 . S
H522 C545 0.931 . S
H523 C546 0.931 . S
O524 Eu480 2.462 . S
O524 C544 1.252 . S
O525 Eu480 2.373 1_565 S
O525 C536 1.249 . S
O526 Eu491 2.335 . S
O526 C536 1.264 1_455 S
O527 Eu480 2.432 . S
O527 C544 1.268 . S
O528 Eu480 2.291 1_455 S
O528 C543 1.255 . S
O529 Eu491 2.372 . S
O529 C543 1.257 1_565 S
O530 Eu491 2.462 . S
O530 C555 1.252 . S
O531 Eu491 2.373 1_545 S
O531 C547 1.249 . S
O532 Eu480 2.335 1_455 S
O532 C547 1.264 . S
O533 Eu491 2.432 . S
O533 C555 1.268 . S
O534 Eu491 2.291 1_645 S
O534 C554 1.255 . S
O535 Eu480 2.372 . S
O535 C554 1.257 . S
C536 O525 1.249 . S
C536 O526 1.264 1_655 S
C537 C540 1.382 . S
C537 C542 1.390 . S
C537 C544 1.506 . S
C538 C539 1.398 . S
C538 C542 1.392 . S
C539 C538 1.398 . S
C539 C541 1.372 . S
C539 H556 0.931 . S
C540 C537 1.382 . S
C540 C541 1.390 . S
C540 H557 0.931 . S
C541 C539 1.372 . S
C541 C540 1.390 . S
C541 H558 0.929 . S
C542 C537 1.390 . S
C542 C538 1.392 . S
C542 H559 0.930 1_655 S
C543 O528 1.255 . S
C543 O529 1.257 1_545 S
C544 Eu480 2.787 . S
C544 O524 1.252 . S
C544 O527 1.268 . S
C544 C537 1.506 . S
C545 C512 1.439 . S
C545 H522 0.931 . S
C545 C546 1.374 . S
C546 C517 1.387 . S
C546 H523 0.931 . S
C546 C545 1.374 . S
C547 O531 1.249 . S
C547 O532 1.264 . S
C548 C551 1.382 . S
C548 C552 1.390 . S
C548 C555 1.506 . S
C549 C550 1.398 . S
C549 C552 1.392 . S
C550 C549 1.398 . S
C550 C553 1.372 . S
C550 H560 0.931 . S
C551 C548 1.382 . S
C551 C553 1.390 . S
C551 H561 0.931 . S
C552 C548 1.390 . S
C552 C549 1.392 . S
C552 H562 0.930 . S
C553 C550 1.372 . S
C553 C551 1.390 . S
C553 H563 0.929 . S
C554 O534 1.255 . S
C554 O535 1.257 . S
C555 Eu491 2.787 . S
C555 O530 1.252 . S
C555 O533 1.268 . S
C555 C548 1.506 . S
H556 C539 0.931 . S
H557 C540 0.931 . S
H558 C541 0.929 . S
H559 C542 0.930 1_455 S
H560 C550 0.931 . S
H561 C551 0.931 . S
H562 C552 0.930 . S
H563 C553 0.929 . S
Eu564 N593 2.600 . S
Eu564 N599 2.562 . S
Eu564 O608 2.462 . S
Eu564 O609 2.373 . S
Eu564 O611 2.432 . S
Eu564 O612 2.291 . S
Eu564 O616 2.335 1_545 S
Eu564 O619 2.372 . S
Eu564 C628 2.787 . S
C565 N566 1.365 . S
C565 C568 1.405 . S
C565 C572 1.448 . S
N566 C565 1.365 . S
N566 C569 1.319 . S
N566 Eu575 2.600 . S
C567 C569 1.397 . S
C567 C570 1.367 . S
C567 H587 0.931 . S
C568 C565 1.405 . S
C568 C570 1.403 . S
C568 C574 1.439 . S
C569 N566 1.319 . S
C569 C567 1.397 . S
C569 H580 0.930 . S
C570 C567 1.367 . S
C570 C568 1.403 . S
C570 H591 0.929 . S
C571 C572 1.430 . S
C571 C573 1.387 . S
C571 C577 1.404 . S
C572 C565 1.448 . S
C572 C571 1.430 . S
C572 N576 1.351 . S
C573 C571 1.387 . S
C573 C574 1.374 . S
C573 H588 0.931 . S
C574 C568 1.439 . S
C574 C573 1.374 . S
C574 H589 0.931 . S
Eu575 N566 2.600 . S
Eu575 N576 2.562 . S
Eu575 O610 2.335 1_565 S
Eu575 O613 2.372 . S
Eu575 O614 2.462 . S
Eu575 O615 2.373 . S
Eu575 O617 2.432 . S
Eu575 O618 2.291 1_565 S
Eu575 C639 2.787 . S
N576 C572 1.351 . S
N576 Eu575 2.562 . S
N576 C578 1.325 . S
C577 C571 1.404 . S
C577 C579 1.366 . S
C577 H585 0.930 . S
C578 N576 1.325 . S
C578 C579 1.416 . S
C578 H584 0.929 . S
C579 C577 1.366 . S
C579 C578 1.416 . S
C579 H581 0.930 . S
H580 C569 0.930 . S
H581 C579 0.930 . S
H582 C597 0.930 . S
H583 C604 0.930 . S
H584 C578 0.929 . S
H585 C577 0.930 . S
H586 C600 0.929 . S
H587 C567 0.931 . S
H588 C573 0.931 . S
H589 C574 0.931 . S
H590 C595 0.931 . S
H591 C570 0.929 . S
H592 C603 0.930 . S
N593 Eu564 2.600 . S
N593 C594 1.365 . S
N593 C597 1.319 . S
C594 N593 1.365 . S
C594 C596 1.405 . S
C594 C602 1.448 . S
C595 H590 0.931 . S
C595 C597 1.397 . S
C595 C598 1.367 . S
C596 C594 1.405 . S
C596 C598 1.403 . S
C596 C629 1.439 . S
C597 H582 0.930 . S
C597 N593 1.319 . S
C597 C595 1.397 . S
C598 C595 1.367 . S
C598 C596 1.403 . S
C598 H605 0.929 . S
N599 Eu564 2.562 . S
N599 C600 1.325 . S
N599 C602 1.351 . S
C600 H586 0.929 . S
C600 N599 1.325 . S
C600 C604 1.416 . S
C601 C602 1.430 . S
C601 C603 1.404 . S
C601 C630 1.387 . S
C602 C594 1.448 . S
C602 N599 1.351 . S
C602 C601 1.430 . S
C603 H592 0.930 . S
C603 C601 1.404 . S
C603 C604 1.366 . S
C604 H583 0.930 . S
C604 C600 1.416 . S
C604 C603 1.366 . S
H605 C598 0.929 . S
H606 C629 0.931 . S
H607 C630 0.931 . S
O608 Eu564 2.462 . S
O608 C628 1.252 . S
O609 Eu564 2.373 . S
O609 C620 1.249 . S
O610 Eu575 2.335 1_545 S
O610 C620 1.264 . S
O611 Eu564 2.432 . S
O611 C628 1.268 . S
O612 Eu564 2.291 . S
O612 C627 1.232 1_545 S
O613 Eu575 2.372 . S
O613 C627 1.272 . S
O614 Eu575 2.462 . S
O614 C639 1.252 . S
O615 Eu575 2.373 . S
O615 C631 1.249 . S
O616 Eu564 2.335 1_565 S
O616 C631 1.264 . S
O617 Eu575 2.432 . S
O617 C639 1.268 . S
O618 Eu575 2.291 1_545 S
O618 C638 1.255 . S
O619 Eu564 2.372 . S
O619 C638 1.257 . S
C620 O609 1.249 . S
C620 O610 1.264 . S
C621 C624 1.382 . S
C621 C626 1.390 . S
C621 C628 1.506 . S
C622 C623 1.398 . S
C622 C626 1.392 . S
C623 C622 1.398 . S
C623 C625 1.372 . S
C623 H640 0.931 . S
C624 C621 1.382 . S
C624 C625 1.390 . S
C624 H641 0.931 . S
C625 C623 1.372 . S
C625 C624 1.390 . S
C625 H642 0.929 . S
C626 C621 1.390 . S
C626 C622 1.392 . S
C626 H643 0.930 . S
C627 O612 1.232 1_565 S
C627 O613 1.272 . S
C628 Eu564 2.787 . S
C628 O608 1.252 . S
C628 O611 1.268 . S
C628 C621 1.506 . S
C629 C596 1.439 . S
C629 H606 0.931 . S
C629 C630 1.374 . S
C630 C601 1.387 . S
C630 H607 0.931 . S
C630 C629 1.374 . S
C631 O615 1.249 . S
C631 O616 1.264 . S
C632 C635 1.382 . S
C632 C636 1.381 1_565 S
C632 C639 1.506 . S
C633 C634 1.387 1_545 S
C633 C636 1.392 . S
C634 C633 1.387 1_565 S
C634 C637 1.372 . S
C634 H644 0.931 . S
C635 C632 1.382 . S
C635 C637 1.390 . S
C635 H645 0.931 . S
C636 C632 1.381 1_545 S
C636 C633 1.392 . S
C636 H646 0.939 . S
C637 C634 1.372 . S
C637 C635 1.390 . S
C637 H647 0.929 . S
C638 O618 1.255 . S
C638 O619 1.257 . S
C639 Eu575 2.787 . S
C639 O614 1.252 . S
C639 O617 1.268 . S
C639 C632 1.506 . S
H640 C623 0.931 . S
H641 C624 0.931 . S
H642 C625 0.929 . S
H643 C626 0.930 . S
H644 C634 0.931 . S
H645 C635 0.931 . S
H646 C636 0.939 . S
H647 C637 0.929 . S
Eu648 N677 2.600 . S
Eu648 N683 2.562 . S
Eu648 O692 2.462 . S
Eu648 O693 2.373 . S
Eu648 O695 2.432 . S
Eu648 O696 2.291 . S
Eu648 O700 2.335 . S
Eu648 O703 2.372 . S
Eu648 C712 2.787 . S
C649 N650 1.365 . S
C649 C652 1.405 . S
C649 C656 1.448 . S
N650 C649 1.365 . S
N650 C653 1.319 . S
N650 Eu659 2.600 . S
C651 C653 1.397 . S
C651 C654 1.367 . S
C651 H671 0.931 . S
C652 C649 1.405 . S
C652 C654 1.403 . S
C652 C658 1.439 . S
C653 N650 1.319 . S
C653 C651 1.397 . S
C653 H664 0.930 . S
C654 C651 1.367 . S
C654 C652 1.403 . S
C654 H675 0.929 . S
C655 C656 1.430 . S
C655 C657 1.387 . S
C655 C661 1.404 . S
C656 C649 1.448 . S
C656 C655 1.430 . S
C656 N660 1.351 . S
C657 C655 1.387 . S
C657 C658 1.374 . S
C657 H672 0.931 . S
C658 C652 1.439 . S
C658 C657 1.374 . S
C658 H673 0.931 . S
Eu659 N650 2.600 . S
Eu659 N660 2.562 . S
Eu659 O694 2.335 . S
Eu659 O697 2.372 . S
Eu659 O698 2.462 . S
Eu659 O699 2.373 . S
Eu659 O701 2.432 . S
Eu659 O702 2.291 . S
Eu659 C723 2.787 . S
N660 C656 1.351 . S
N660 Eu659 2.562 . S
N660 C662 1.325 . S
C661 C655 1.404 . S
C661 C663 1.366 . S
C661 H669 0.930 . S
C662 N660 1.325 . S
C662 C663 1.416 . S
C662 H668 0.929 . S
C663 C661 1.366 . S
C663 C662 1.416 . S
C663 H665 0.930 . S
H664 C653 0.930 . S
H665 C663 0.930 . S
H666 C681 0.930 . S
H667 C688 0.930 . S
H668 C662 0.929 . S
H669 C661 0.930 . S
H670 C684 0.929 . S
H671 C651 0.931 . S
H672 C657 0.931 . S
H673 C658 0.931 . S
H674 C679 0.931 . S
H675 C654 0.929 . S
H676 C687 0.930 . S
N677 Eu648 2.600 . S
N677 C678 1.365 . S
N677 C681 1.319 . S
C678 N677 1.365 . S
C678 C680 1.405 . S
C678 C686 1.448 . S
C679 H674 0.931 . S
C679 C681 1.397 . S
C679 C682 1.367 . S
C680 C678 1.405 . S
C680 C682 1.403 . S
C680 C713 1.439 . S
C681 H666 0.930 . S
C681 N677 1.319 . S
C681 C679 1.397 . S
C682 C679 1.367 . S
C682 C680 1.403 . S
C682 H689 0.929 . S
N683 Eu648 2.562 . S
N683 C684 1.325 . S
N683 C686 1.351 . S
C684 H670 0.929 . S
C684 N683 1.325 . S
C684 C688 1.416 . S
C685 C686 1.430 . S
C685 C687 1.404 . S
C685 C714 1.387 . S
C686 C678 1.448 . S
C686 N683 1.351 . S
C686 C685 1.430 . S
C687 H676 0.930 . S
C687 C685 1.404 . S
C687 C688 1.366 . S
C688 H667 0.930 . S
C688 C684 1.416 . S
C688 C687 1.366 . S
H689 C682 0.929 . S
H690 C713 0.931 . S
H691 C714 0.931 . S
O692 Eu648 2.462 . S
O692 C712 1.252 . S
O693 Eu648 2.373 . S
O693 C704 1.249 . S
O694 Eu659 2.335 . S
O694 C704 1.264 . S
O695 Eu648 2.432 . S
O695 C712 1.268 . S
O696 Eu648 2.291 . S
O696 C711 1.255 . S
O697 Eu659 2.372 . S
O697 C711 1.257 . S
O698 Eu659 2.462 . S
O698 C723 1.252 . S
O699 Eu659 2.373 . S
O699 C715 1.249 . S
O700 Eu648 2.335 . S
O700 C715 1.264 . S
O701 Eu659 2.432 . S
O701 C723 1.268 . S
O702 Eu659 2.291 . S
O702 C722 1.255 . S
O703 Eu648 2.372 . S
O703 C722 1.257 . S
C704 O693 1.249 . S
C704 O694 1.264 . S
C705 C708 1.382 . S
C705 C710 1.390 . S
C705 C712 1.506 . S
C706 C707 1.398 . S
C706 C710 1.392 . S
C707 C706 1.398 . S
C707 C709 1.372 . S
C707 H724 0.931 . S
C708 C705 1.382 . S
C708 C709 1.390 . S
C708 H725 0.931 . S
C709 C707 1.372 . S
C709 C708 1.390 . S
C709 H726 0.929 . S
C710 C705 1.390 . S
C710 C706 1.392 . S
C710 H727 0.930 . S
C711 O696 1.255 . S
C711 O697 1.257 . S
C712 Eu648 2.787 . S
C712 O692 1.252 . S
C712 O695 1.268 . S
C712 C705 1.506 . S
C713 C680 1.439 . S
C713 H690 0.931 . S
C713 C714 1.374 . S
C714 C685 1.387 . S
C714 H691 0.931 . S
C714 C713 1.374 . S
C715 O699 1.249 . S
C715 O700 1.264 . S
C716 C719 1.382 . S
C716 C720 1.390 . S
C716 C723 1.506 . S
C717 C718 1.398 . S
C717 C720 1.392 . S
C718 C717 1.398 . S
C718 C721 1.372 . S
C718 H728 0.931 . S
C719 C716 1.382 . S
C719 C721 1.390 . S
C719 H729 0.931 . S
C720 C716 1.390 . S
C720 C717 1.392 . S
C720 H730 0.930 . S
C721 C718 1.372 . S
C721 C719 1.390 . S
C721 H731 0.929 . S
C722 O702 1.255 . S
C722 O703 1.257 . S
C723 Eu659 2.787 . S
C723 O698 1.252 . S
C723 O701 1.268 . S
C723 C716 1.506 . S
H724 C707 0.931 . S
H725 C708 0.931 . S
H726 C709 0.929 . S
H727 C710 0.930 . S
H728 C718 0.931 . S
H729 C719 0.931 . S
H730 C720 0.930 . S
H731 C721 0.929 . S
Eu732 N761 2.600 . S
Eu732 N767 2.562 . S
Eu732 O776 2.462 . S
Eu732 O777 2.373 1_455 S
Eu732 O779 2.432 . S
Eu732 O780 2.291 . S
Eu732 O784 2.335 . S
Eu732 O787 2.372 . S
Eu732 C796 2.787 . S
C733 N734 1.365 1_455 S
C733 C736 1.405 . S
C733 C740 1.448 . S
N734 C733 1.365 1_655 S
N734 C737 1.319 . S
N734 Eu743 2.600 . S
C735 C737 1.397 1_455 S
C735 C738 1.367 . S
C735 H755 0.931 . S
C736 C733 1.405 . S
C736 C738 1.403 . S
C736 C742 1.439 . S
C737 N734 1.319 . S
C737 C735 1.397 1_655 S
C737 H748 0.930 . S
C738 C735 1.367 . S
C738 C736 1.403 . S
C738 H759 0.929 . S
C739 C740 1.430 . S
C739 C741 1.387 . S
C739 C745 1.404 . S
C740 C733 1.448 . S
C740 C739 1.430 . S
C740 N744 1.351 . S
C741 C739 1.387 . S
C741 C742 1.374 . S
C741 H756 0.931 . S
C742 C736 1.439 . S
C742 C741 1.374 . S
C742 H757 0.931 . S
Eu743 N734 2.600 . S
Eu743 N744 2.562 1_655 S
Eu743 O778 2.335 . S
Eu743 O781 2.372 . S
Eu743 O782 2.462 . S
Eu743 O783 2.373 1_655 S
Eu743 O785 2.432 . S
Eu743 O786 2.291 . S
Eu743 C807 2.787 . S
N744 C740 1.351 . S
N744 Eu743 2.562 1_455 S
N744 C746 1.325 . S
C745 C739 1.404 . S
C745 C747 1.366 . S
C745 H753 0.930 . S
C746 N744 1.325 . S
C746 C747 1.416 . S
C746 H752 0.929 1_455 S
C747 C745 1.366 . S
C747 C746 1.416 . S
C747 H749 0.930 . S
H748 C737 0.930 . S
H749 C747 0.930 . S
H750 C765 0.930 . S
H751 C772 0.930 . S
H752 C746 0.929 1_655 S
H753 C745 0.930 . S
H754 C768 0.929 . S
H755 C735 0.931 . S
H756 C741 0.931 . S
H757 C742 0.931 . S
H758 C763 0.931 . S
H759 C738 0.929 . S
H760 C771 0.930 . S
N761 Eu732 2.600 . S
N761 C762 1.365 . S
N761 C765 1.319 . S
C762 N761 1.365 . S
C762 C764 1.405 1_455 S
C762 C770 1.449 . S
C763 H758 0.931 . S
C763 C765 1.397 . S
C763 C766 1.367 1_455 S
C764 C762 1.405 1_655 S
C764 C766 1.403 . S
C764 C797 1.439 . S
C765 H750 0.930 . S
C765 N761 1.319 . S
C765 C763 1.397 . S
C766 C763 1.367 1_655 S
C766 C764 1.403 . S
C766 H773 0.929 . S
N767 Eu732 2.562 . S
N767 C768 1.325 . S
N767 C770 1.355 . S
C768 H754 0.929 . S
C768 N767 1.325 . S
C768 C772 1.416 1_455 S
C769 C770 1.425 1_655 S
C769 C771 1.404 . S
C769 C798 1.387 . S
C770 C762 1.449 . S
C770 N767 1.355 . S
C770 C769 1.425 1_455 S
C771 H760 0.930 . S
C771 C769 1.404 . S
C771 C772 1.366 . S
C772 H751 0.930 . S
C772 C768 1.416 1_655 S
C772 C771 1.366 . S
H773 C766 0.929 . S
H774 C797 0.931 . S
H775 C798 0.931 . S
O776 Eu732 2.462 . S
O776 C796 1.252 . S
O777 Eu732 2.373 1_655 S
O777 C788 1.249 . S
O778 Eu743 2.335 . S
O778 C788 1.264 . S
O779 Eu732 2.432 . S
O779 C796 1.268 . S
O780 Eu732 2.291 . S
O780 C795 1.255 . S
O781 Eu743 2.372 . S
O781 C795 1.257 1_655 S
O782 Eu743 2.462 . S
O782 C807 1.252 . S
O783 Eu743 2.373 1_455 S
O783 C799 1.249 . S
O784 Eu732 2.335 . S
O784 C799 1.264 . S
O785 Eu743 2.432 . S
O785 C807 1.268 . S
O786 Eu743 2.291 . S
O786 C806 1.255 1_655 S
O787 Eu732 2.372 . S
O787 C806 1.257 . S
C788 O777 1.249 . S
C788 O778 1.264 . S
C789 C792 1.382 . S
C789 C794 1.390 . S
C789 C796 1.506 . S
C790 C791 1.398 . S
C790 C794 1.392 . S
C791 C790 1.398 . S
C791 C793 1.372 . S
C791 H808 0.931 . S
C792 C789 1.382 . S
C792 C793 1.390 . S
C792 H809 0.931 . S
C793 C791 1.372 . S
C793 C792 1.390 . S
C793 H810 0.929 . S
C794 C789 1.390 . S
C794 C790 1.392 . S
C794 H811 0.930 . S
C795 O780 1.255 . S
C795 O781 1.257 1_455 S
C796 Eu732 2.787 . S
C796 O776 1.252 . S
C796 O779 1.268 . S
C796 C789 1.506 . S
C797 C764 1.439 . S
C797 H774 0.931 . S
C797 C798 1.374 . S
C798 C769 1.387 . S
C798 H775 0.931 . S
C798 C797 1.374 . S
C799 O783 1.249 . S
C799 O784 1.264 . S
C800 C803 1.382 . S
C800 C804 1.390 . S
C800 C807 1.506 . S
C801 C802 1.398 . S
C801 C804 1.392 . S
C802 C801 1.398 . S
C802 C805 1.372 . S
C802 H812 0.931 . S
C803 C800 1.382 . S
C803 C805 1.390 . S
C803 H813 0.931 . S
C804 C800 1.390 . S
C804 C801 1.392 . S
C804 H814 0.930 . S
C805 C802 1.372 . S
C805 C803 1.390 . S
C805 H815 0.929 . S
C806 O786 1.255 1_455 S
C806 O787 1.257 . S
C807 Eu743 2.787 . S
C807 O782 1.252 . S
C807 O785 1.268 . S
C807 C800 1.506 . S
H808 C791 0.931 . S
H809 C792 0.931 . S
H810 C793 0.929 . S
H811 C794 0.930 . S
H812 C802 0.931 . S
H813 C803 0.931 . S
H814 C804 0.930 . S
H815 C805 0.929 . S
H816 C828 0.930 . S
H817 C830 0.930 . S
H818 C831 0.930 . S
H819 C835 0.959 . S
H820 C835 0.959 1_565 S
H821 C835 0.961 1_565 S
H822 C836 0.960 . S
H823 C836 0.961 . S
H824 C836 0.959 . S
H825 C839 0.929 . S
H826 C840 0.931 . S
H827 C842 0.930 1_565 S
C828 H816 0.930 . S
C828 C829 1.399 . S
C828 C833 1.399 . S
C829 C828 1.399 . S
C829 C830 1.376 . S
C830 H817 0.930 . S
C830 C829 1.376 . S
C830 C831 1.388 . S
C831 H818 0.930 . S
C831 C830 1.388 . S
C831 C832 1.390 . S
C832 C831 1.390 . S
C832 C833 1.394 . S
C832 C838 1.465 . S
C833 C828 1.399 . S
C833 C832 1.394 . S
C833 C834 1.516 . S
C834 C833 1.516 . S
C834 C835 1.502 . S
C834 C836 1.561 1_545 S
C834 C837 1.526 . S
C835 H819 0.959 . S
C835 H820 0.959 1_545 S
C835 H821 0.961 1_545 S
C835 C834 1.502 . S
C836 H822 0.960 . S
C836 H823 0.961 . S
C836 H824 0.959 . S
C836 C834 1.561 1_565 S
C837 C834 1.526 . S
C837 C838 1.396 . S
C837 C842 1.390 . S
C838 C832 1.465 . S
C838 C837 1.396 . S
C838 C839 1.399 . S
C839 H825 0.929 . S
C839 C838 1.399 . S
C839 C840 1.385 . S
C840 H826 0.931 . S
C840 C839 1.385 . S
C840 C841 1.389 . S
C841 C840 1.389 . S
C841 C842 1.387 . S
C842 H827 0.930 1_545 S
C842 C837 1.390 . S
C842 C841 1.387 . S
H843 C855 0.930 . S
H844 C857 0.930 . S
H845 C858 0.930 . S
H846 C862 0.959 . S
H847 C862 0.959 . S
H848 C862 0.961 . S
H849 C863 0.960 . S
H850 C863 0.961 . S
H851 C863 0.959 . S
H852 C866 0.929 . S
H853 C867 0.931 . S
H854 C869 0.930 . S
C855 H843 0.930 . S
C855 C856 1.399 . S
C855 C860 1.399 . S
C856 C855 1.399 . S
C856 C857 1.376 . S
C857 H844 0.930 . S
C857 C856 1.376 . S
C857 C858 1.388 . S
C858 H845 0.930 . S
C858 C857 1.388 . S
C858 C859 1.390 . S
C859 C858 1.390 . S
C859 C860 1.394 . S
C859 C865 1.465 . S
C860 C855 1.399 . S
C860 C859 1.394 . S
C860 C861 1.516 . S
C861 C860 1.516 . S
C861 C862 1.502 . S
C861 C863 1.561 . S
C861 C864 1.526 . S
C862 H846 0.959 . S
C862 H847 0.959 . S
C862 H848 0.961 . S
C862 C861 1.502 . S
C863 H849 0.960 . S
C863 H850 0.961 . S
C863 H851 0.959 . S
C863 C861 1.561 . S
C864 C861 1.526 . S
C864 C865 1.396 . S
C864 C869 1.390 . S
C865 C859 1.465 . S
C865 C864 1.396 . S
C865 C866 1.399 . S
C866 H852 0.929 . S
C866 C865 1.399 . S
C866 C867 1.385 . S
C867 H853 0.931 . S
C867 C866 1.385 . S
C867 C868 1.389 . S
C868 C867 1.389 . S
C868 C869 1.387 . S
C869 H854 0.930 . S
C869 C864 1.390 . S
C869 C868 1.387 . S
H870 C882 0.930 . S
H871 C884 0.930 . S
H872 C885 0.930 . S
H873 C889 0.959 . S
H874 C889 0.959 . S
H875 C889 0.961 . S
H876 C890 0.960 . S
H877 C890 0.961 . S
H878 C890 0.959 . S
H879 C893 0.929 . S
H880 C894 0.931 . S
H881 C896 0.930 . S
C882 H870 0.930 . S
C882 C883 1.399 . S
C882 C887 1.399 . S
C883 C882 1.399 . S
C883 C884 1.376 . S
C884 H871 0.930 . S
C884 C883 1.376 . S
C884 C885 1.388 . S
C885 H872 0.930 . S
C885 C884 1.388 . S
C885 C886 1.390 . S
C886 C885 1.390 . S
C886 C887 1.394 . S
C886 C892 1.465 . S
C887 C882 1.399 . S
C887 C886 1.394 . S
C887 C888 1.516 . S
C888 C887 1.516 . S
C888 C889 1.502 . S
C888 C890 1.561 . S
C888 C891 1.526 . S
C889 H873 0.959 . S
C889 H874 0.959 . S
C889 H875 0.961 . S
C889 C888 1.502 . S
C890 H876 0.960 . S
C890 H877 0.961 . S
C890 H878 0.959 . S
C890 C888 1.561 . S
C891 C888 1.526 . S
C891 C892 1.396 . S
C891 C896 1.390 . S
C892 C886 1.465 . S
C892 C891 1.396 . S
C892 C893 1.399 . S
C893 H879 0.929 . S
C893 C892 1.399 . S
C893 C894 1.385 . S
C894 H880 0.931 . S
C894 C893 1.385 . S
C894 C895 1.389 . S
C895 C894 1.389 . S
C895 C896 1.387 . S
C896 H881 0.930 . S
C896 C891 1.390 . S
C896 C895 1.387 . S
H897 C909 0.930 . S
H898 C911 0.930 . S
H899 C912 0.930 . S
H900 C916 0.959 . S
H901 C916 0.959 . S
H902 C916 0.961 . S
H903 C917 0.960 . S
H904 C917 0.961 . S
H905 C917 0.959 1_655 S
H906 C920 0.929 . S
H907 C921 0.931 . S
H908 C923 0.930 . S
C909 H897 0.930 . S
C909 C910 1.399 . S
C909 C914 1.399 . S
C910 C909 1.399 . S
C910 C911 1.376 . S
C911 H898 0.930 . S
C911 C910 1.376 . S
C911 C912 1.388 . S
C912 H899 0.930 . S
C912 C911 1.388 . S
C912 C913 1.390 . S
C913 C912 1.390 . S
C913 C914 1.394 . S
C913 C919 1.465 . S
C914 C909 1.399 . S
C914 C913 1.394 . S
C914 C915 1.516 . S
C915 C914 1.516 . S
C915 C916 1.502 . S
C915 C917 1.561 . S
C915 C918 1.526 . S
C916 H900 0.959 . S
C916 H901 0.959 . S
C916 H902 0.961 . S
C916 C915 1.502 . S
C917 H903 0.960 . S
C917 H904 0.961 . S
C917 H905 0.959 1_455 S
C917 C915 1.561 . S
C918 C915 1.526 . S
C918 C919 1.396 . S
C918 C923 1.390 . S
C919 C913 1.465 . S
C919 C918 1.396 . S
C919 C920 1.399 . S
C920 H906 0.929 . S
C920 C919 1.399 . S
C920 C921 1.385 . S
C921 H907 0.931 . S
C921 C920 1.385 . S
C921 C922 1.389 . S
C922 C921 1.389 . S
C922 C923 1.387 . S
C923 H908 0.930 . S
C923 C918 1.390 . S
C923 C922 1.387 . S
H924 C936 0.930 1_545 S
H925 C938 0.930 . S
H926 C939 0.930 . S
H927 C943 0.959 . S
H928 C943 0.959 . S
H929 C943 0.961 . S
H930 C944 0.960 1_554 S
H931 C944 0.961 . S
H932 C944 0.959 . S
H933 C947 0.929 . S
H934 C948 0.931 . S
H935 C950 0.930 . S
C936 H924 0.930 1_565 S
C936 C937 1.399 . S
C936 C941 1.399 . S
C937 C936 1.399 . S
C937 C938 1.376 . S
C938 H925 0.930 . S
C938 C937 1.376 . S
C938 C939 1.388 . S
C939 H926 0.930 . S
C939 C938 1.388 . S
C939 C940 1.390 1_554 S
C940 C939 1.390 1_556 S
C940 C941 1.394 1_556 S
C940 C946 1.465 . S
C941 C936 1.399 . S
C941 C940 1.394 1_554 S
C941 C942 1.516 1_564 S
C942 C941 1.516 1_546 S
C942 C943 1.502 . S
C942 C944 1.561 . S
C942 C945 1.537 . S
C943 H927 0.959 . S
C943 H928 0.959 . S
C943 H929 0.961 . S
C943 C942 1.502 . S
C944 H930 0.960 1_556 S
C944 H931 0.961 . S
C944 H932 0.959 . S
C944 C942 1.561 . S
C945 C942 1.537 . S
C945 C946 1.374 1_545 S
C945 C950 1.398 . S
C946 C940 1.465 . S
C946 C945 1.374 1_565 S
C946 C947 1.399 . S
C947 H933 0.929 . S
C947 C946 1.399 . S
C947 C948 1.385 . S
C948 H934 0.931 . S
C948 C947 1.385 . S
C948 C949 1.389 . S
C949 C948 1.389 . S
C949 C950 1.387 1_565 S
C950 H935 0.930 . S
C950 C945 1.398 . S
C950 C949 1.387 1_545 S
H951 C963 0.930 . S
H952 C965 0.930 . S
H953 C966 0.930 . S
H954 C970 0.959 . S
H955 C970 0.959 . S
H956 C970 0.961 . S
H957 C971 0.960 . S
H958 C971 0.961 . S
H959 C971 0.959 . S
H960 C974 0.929 . S
H961 C975 0.931 . S
H962 C977 0.930 . S
C963 H951 0.930 . S
C963 C964 1.399 . S
C963 C968 1.399 1_554 S
C964 C963 1.399 . S
C964 C965 1.376 . S
C965 H952 0.930 . S
C965 C964 1.376 . S
C965 C966 1.388 . S
C966 H953 0.930 . S
C966 C965 1.388 . S
C966 C967 1.390 1_554 S
C967 C966 1.390 1_556 S
C967 C968 1.394 . S
C967 C973 1.465 . S
C968 C963 1.399 1_556 S
C968 C967 1.394 . S
C968 C969 1.516 . S
C969 C968 1.516 . S
C969 C970 1.502 . S
C969 C971 1.561 . S
C969 C972 1.526 . S
C970 H954 0.959 . S
C970 H955 0.959 . S
C970 H956 0.961 . S
C970 C969 1.502 . S
C971 H957 0.960 . S
C971 H958 0.961 . S
C971 H959 0.959 . S
C971 C969 1.561 . S
C972 C969 1.526 . S
C972 C973 1.396 . S
C972 C977 1.390 . S
C973 C967 1.465 . S
C973 C972 1.396 . S
C973 C974 1.399 . S
C974 H960 0.929 . S
C974 C973 1.399 . S
C974 C975 1.385 . S
C975 H961 0.931 . S
C975 C974 1.385 . S
C975 C976 1.389 . S
C976 C975 1.389 . S
C976 C977 1.387 . S
C977 H962 0.930 . S
C977 C972 1.390 . S
C977 C976 1.387 . S
H978 C990 0.930 . S
H979 C992 0.930 . S
H980 C993 0.930 1_556 S
H981 C997 0.959 . S
H982 C997 0.959 . S
H983 C997 0.961 1_554 S
H984 C998 0.960 . S
H985 C998 0.961 . S
H986 C998 0.959 . S
H987 C1001 0.929 . S
H988 C1002 0.931 . S
H989 C1004 0.930 . S
C990 H978 0.930 . S
C990 C991 1.399 . S
C990 C995 1.399 . S
C991 C990 1.399 . S
C991 C992 1.376 . S
C992 H979 0.930 . S
C992 C991 1.376 . S
C992 C993 1.388 . S
C993 H980 0.930 1_554 S
C993 C992 1.388 . S
C993 C994 1.390 1_554 S
C994 C993 1.390 1_556 S
C994 C995 1.394 1_556 S
C994 C1000 1.465 . S
C995 C990 1.399 . S
C995 C994 1.394 1_554 S
C995 C996 1.516 1_554 S
C996 C995 1.516 1_556 S
C996 C997 1.502 . S
C996 C998 1.561 . S
C996 C999 1.526 . S
C997 H981 0.959 . S
C997 H982 0.959 . S
C997 H983 0.961 1_556 S
C997 C996 1.502 . S
C998 H984 0.960 . S
C998 H985 0.961 . S
C998 H986 0.959 . S
C998 C996 1.561 . S
C999 C996 1.526 . S
C999 C1000 1.396 . S
C999 C1004 1.390 . S
C1000 C994 1.465 . S
C1000 C999 1.396 . S
C1000 C1001 1.399 . S
C1001 H987 0.929 . S
C1001 C1000 1.399 . S
C1001 C1002 1.385 . S
C1002 H988 0.931 . S
C1002 C1001 1.385 . S
C1002 C1003 1.389 . S
C1003 C1002 1.389 . S
C1003 C1004 1.387 . S
C1004 H989 0.930 . S
C1004 C999 1.390 . S
C1004 C1003 1.387 . S
H1005 C1017 0.930 . S
H1006 C1019 0.930 . S
H1007 C1020 0.930 . S
H1008 C1024 0.959 . S
H1009 C1024 0.959 . S
H1010 C1024 0.961 1_554 S
H1011 C1025 0.960 . S
H1012 C1025 0.961 1_556 S
H1013 C1025 0.959 1_556 S
H1014 C1028 0.929 . S
H1015 C1029 0.931 . S
H1016 C1031 0.905 1_455 S
C1017 H1005 0.930 . S
C1017 C1018 1.399 . S
C1017 C1022 1.399 . S
C1018 C1017 1.399 . S
C1018 C1019 1.376 . S
C1019 H1006 0.930 . S
C1019 C1018 1.376 . S
C1019 C1020 1.388 1_554 S
C1020 H1007 0.930 . S
C1020 C1019 1.388 1_556 S
C1020 C1021 1.390 . S
C1021 C1020 1.390 . S
C1021 C1022 1.394 1_556 S
C1021 C1027 1.465 . S
C1022 C1017 1.399 . S
C1022 C1021 1.394 1_554 S
C1022 C1023 1.516 1_554 S
C1023 C1022 1.516 1_556 S
C1023 C1024 1.502 1_655 S
C1023 C1025 1.561 1_556 S
C1023 C1026 1.526 . S
C1024 H1008 0.959 . S
C1024 H1009 0.959 . S
C1024 H1010 0.961 1_556 S
C1024 C1023 1.502 1_455 S
C1025 H1011 0.960 . S
C1025 H1012 0.961 1_554 S
C1025 H1013 0.959 1_554 S
C1025 C1023 1.561 1_554 S
C1026 C1023 1.526 . S
C1026 C1027 1.396 . S
C1026 C1031 1.403 . S
C1027 C1021 1.465 . S
C1027 C1026 1.396 . S
C1027 C1028 1.399 . S
C1028 H1014 0.929 . S
C1028 C1027 1.399 . S
C1028 C1029 1.385 . S
C1029 H1015 0.931 . S
C1029 C1028 1.385 . S
C1029 C1030 1.389 . S
C1030 C1029 1.389 . S
C1030 C1031 1.400 . S
C1031 H1016 0.905 1_655 S
C1031 C1026 1.403 . S
C1031 C1030 1.400 . S
H1032 C1044 0.930 . S
H1033 C1046 0.930 . S
H1034 C1047 0.930 . S
H1035 C1051 0.959 . S
H1036 C1051 0.959 . S
H1037 C1051 0.961 . S
H1038 C1052 0.960 . S
H1039 C1052 0.961 1_655 S
H1040 C1052 0.959 . S
H1041 C1055 0.929 . S
H1042 C1056 0.931 . S
H1043 C1058 0.930 . S
C1044 H1032 0.930 . S
C1044 C1045 1.399 . S
C1044 C1049 1.399 . S
C1045 C1044 1.399 . S
C1045 C1046 1.376 . S
C1046 H1033 0.930 . S
C1046 C1045 1.376 . S
C1046 C1047 1.388 . S
C1047 H1034 0.930 . S
C1047 C1046 1.388 . S
C1047 C1048 1.390 . S
C1048 C1047 1.390 . S
C1048 C1049 1.394 . S
C1048 C1054 1.465 . S
C1049 C1044 1.399 . S
C1049 C1048 1.394 . S
C1049 C1050 1.516 . S
C1050 C1049 1.516 . S
C1050 C1051 1.502 1_455 S
C1050 C1052 1.561 . S
C1050 C1053 1.526 . S
C1051 H1035 0.959 . S
C1051 H1036 0.959 . S
C1051 H1037 0.961 . S
C1051 C1050 1.502 1_655 S
C1052 H1038 0.960 . S
C1052 H1039 0.961 1_455 S
C1052 H1040 0.959 . S
C1052 C1050 1.561 . S
C1053 C1050 1.526 . S
C1053 C1054 1.396 . S
C1053 C1058 1.390 1_455 S
C1054 C1048 1.465 . S
C1054 C1053 1.396 . S
C1054 C1055 1.399 . S
C1055 H1041 0.929 . S
C1055 C1054 1.399 . S
C1055 C1056 1.385 . S
C1056 H1042 0.931 . S
C1056 C1055 1.385 . S
C1056 C1057 1.388 . S
C1057 C1056 1.388 . S
C1057 C1058 1.387 1_455 S
C1058 H1043 0.930 . S
C1058 C1053 1.390 1_655 S
C1058 C1057 1.387 1_655 S
H1059 C1071 0.930 . S
H1060 C1073 0.930 . S
H1061 C1074 0.930 . S
H1062 C1078 0.959 . S
H1063 C1078 0.959 . S
H1064 C1078 0.961 . S
H1065 C1079 0.960 . S
H1066 C1079 0.961 . S
H1067 C1079 0.959 1_545 S
H1068 C1082 0.929 . S
H1069 C1083 0.931 . S
H1070 C1085 0.930 . S
C1071 H1059 0.930 . S
C1071 C1072 1.399 . S
C1071 C1076 1.399 . S
C1072 C1071 1.399 . S
C1072 C1073 1.376 . S
C1073 H1060 0.930 . S
C1073 C1072 1.376 . S
C1073 C1074 1.388 . S
C1074 H1061 0.930 . S
C1074 C1073 1.388 . S
C1074 C1075 1.390 . S
C1075 C1074 1.390 . S
C1075 C1076 1.394 . S
C1075 C1081 1.465 . S
C1076 C1071 1.399 . S
C1076 C1075 1.394 . S
C1076 C1077 1.553 . S
C1077 C1076 1.553 . S
C1077 C1078 1.473 1_545 S
C1077 C1079 1.547 1_545 S
C1077 C1080 1.537 . S
C1078 H1062 0.959 . S
C1078 H1063 0.959 . S
C1078 H1064 0.961 . S
C1078 C1077 1.473 1_565 S
C1079 H1065 0.960 . S
C1079 H1066 0.961 . S
C1079 H1067 0.959 1_565 S
C1079 C1077 1.547 1_565 S
C1080 C1077 1.537 . S
C1080 C1081 1.396 . S
C1080 C1085 1.390 1_545 S
C1081 C1075 1.465 . S
C1081 C1080 1.396 . S
C1081 C1082 1.399 . S
C1082 H1068 0.929 . S
C1082 C1081 1.399 . S
C1082 C1083 1.385 . S
C1083 H1069 0.931 . S
C1083 C1082 1.385 . S
C1083 C1084 1.389 . S
C1084 C1083 1.389 . S
C1084 C1085 1.387 1_545 S
C1085 H1070 0.930 . S
C1085 C1080 1.390 1_565 S
C1085 C1084 1.387 1_565 S
H1086 C1098 0.930 . S
H1087 C1100 0.930 . S
H1088 C1101 0.930 . S
H1089 C1105 0.959 . S
H1090 C1105 0.959 . S
H1091 C1105 0.961 . S
H1092 C1106 0.960 . S
H1093 C1106 0.961 . S
H1094 C1106 0.959 . S
H1095 C1109 0.929 . S
H1096 C1110 0.931 . S
H1097 C1112 0.930 . S
C1098 H1086 0.930 . S
C1098 C1099 1.399 . S
C1098 C1103 1.399 . S
C1099 C1098 1.399 . S
C1099 C1100 1.376 . S
C1100 H1087 0.930 . S
C1100 C1099 1.376 . S
C1100 C1101 1.388 . S
C1101 H1088 0.930 . S
C1101 C1100 1.388 . S
C1101 C1102 1.390 . S
C1102 C1101 1.390 . S
C1102 C1103 1.394 . S
C1102 C1108 1.465 . S
C1103 C1098 1.399 . S
C1103 C1102 1.394 . S
C1103 C1104 1.516 . S
C1104 C1103 1.516 . S
C1104 C1105 1.502 . S
C1104 C1106 1.561 . S
C1104 C1107 1.526 . S
C1105 H1089 0.959 . S
C1105 H1090 0.959 . S
C1105 H1091 0.961 . S
C1105 C1104 1.502 . S
C1106 H1092 0.960 . S
C1106 H1093 0.961 . S
C1106 H1094 0.959 . S
C1106 C1104 1.561 . S
C1107 C1104 1.526 . S
C1107 C1108 1.396 . S
C1107 C1112 1.390 . S
C1108 C1102 1.465 . S
C1108 C1107 1.396 . S
C1108 C1109 1.399 . S
C1109 H1095 0.929 . S
C1109 C1108 1.399 . S
C1109 C1110 1.385 . S
C1110 H1096 0.931 . S
C1110 C1109 1.385 . S
C1110 C1111 1.389 . S
C1111 C1110 1.389 . S
C1111 C1112 1.387 . S
C1112 H1097 0.930 . S
C1112 C1107 1.390 . S
C1112 C1111 1.387 . S
H1113 C1125 0.930 . S
H1114 C1127 0.930 . S
H1115 C1128 0.930 . S
H1116 C1132 0.959 . S
H1117 C1132 0.959 . S
H1118 C1132 0.961 . S
H1119 C1133 0.960 . S
H1120 C1133 0.961 . S
H1121 C1133 0.959 . S
H1122 C1136 0.929 . S
H1123 C1137 0.931 . S
H1124 C1139 0.930 . S
C1125 H1113 0.930 . S
C1125 C1126 1.399 . S
C1125 C1130 1.399 . S
C1126 C1125 1.399 . S
C1126 C1127 1.376 . S
C1127 H1114 0.930 . S
C1127 C1126 1.376 . S
C1127 C1128 1.388 . S
C1128 H1115 0.930 . S
C1128 C1127 1.388 . S
C1128 C1129 1.390 . S
C1129 C1128 1.390 . S
C1129 C1130 1.394 . S
C1129 C1135 1.465 . S
C1130 C1125 1.399 . S
C1130 C1129 1.394 . S
C1130 C1131 1.516 . S
C1131 C1130 1.516 . S
C1131 C1132 1.502 . S
C1131 C1133 1.561 . S
C1131 C1134 1.526 . S
C1132 H1116 0.959 . S
C1132 H1117 0.959 . S
C1132 H1118 0.961 . S
C1132 C1131 1.502 . S
C1133 H1119 0.960 . S
C1133 H1120 0.961 . S
C1133 H1121 0.959 . S
C1133 C1131 1.561 . S
C1134 C1131 1.526 . S
C1134 C1135 1.396 . S
C1134 C1139 1.390 . S
C1135 C1129 1.465 . S
C1135 C1134 1.396 . S
C1135 C1136 1.399 . S
C1136 H1122 0.929 . S
C1136 C1135 1.399 . S
C1136 C1137 1.385 . S
C1137 H1123 0.931 . S
C1137 C1136 1.385 . S
C1137 C1138 1.389 . S
C1138 C1137 1.389 . S
C1138 C1139 1.387 . S
C1139 H1124 0.930 . S
C1139 C1134 1.390 . S
C1139 C1138 1.387 . S
H1140 C1152 0.930 . S
H1141 C1154 0.930 . S
H1142 C1155 0.930 . S
H1143 C1159 0.971 . S
H1144 C1159 0.959 . S
H1145 C1159 0.961 . S
H1146 C1160 0.960 . S
H1147 C1160 0.961 . S
H1148 C1160 0.959 . S
H1149 C1163 0.929 . S
H1150 C1164 0.931 . S
H1151 C1166 0.930 . S
C1152 H1140 0.930 . S
C1152 C1153 1.399 . S
C1152 C1157 1.399 . S
C1153 C1152 1.399 . S
C1153 C1154 1.376 1_554 S
C1154 H1141 0.930 . S
C1154 C1153 1.376 1_556 S
C1154 C1155 1.388 . S
C1155 H1142 0.930 . S
C1155 C1154 1.388 . S
C1155 C1156 1.390 . S
C1156 C1155 1.390 . S
C1156 C1157 1.394 1_556 S
C1156 C1162 1.465 . S
C1157 C1152 1.399 . S
C1157 C1156 1.394 1_554 S
C1157 C1158 1.516 . S
C1158 C1157 1.516 . S
C1158 C1159 1.502 . S
C1158 C1160 1.561 1_655 S
C1158 C1161 1.526 1_554 S
C1159 H1143 0.971 . S
C1159 H1144 0.959 . S
C1159 H1145 0.961 . S
C1159 C1158 1.502 . S
C1160 H1146 0.960 . S
C1160 H1147 0.961 . S
C1160 H1148 0.959 . S
C1160 C1158 1.561 1_455 S
C1161 C1158 1.526 1_556 S
C1161 C1162 1.396 . S
C1161 C1166 1.390 1_655 S
C1162 C1156 1.465 . S
C1162 C1161 1.396 . S
C1162 C1163 1.399 1_655 S
C1163 H1149 0.929 . S
C1163 C1162 1.399 1_455 S
C1163 C1164 1.385 . S
C1164 H1150 0.931 . S
C1164 C1163 1.385 . S
C1164 C1165 1.389 . S
C1165 C1164 1.389 . S
C1165 C1166 1.387 . S
C1166 H1151 0.930 . S
C1166 C1161 1.390 1_455 S
C1166 C1165 1.387 . S
H1167 C1179 0.930 . S
H1168 C1181 0.930 . S
H1169 C1182 0.930 . S
H1170 C1186 0.959 . S
H1171 C1186 0.959 . S
H1172 C1186 0.961 . S
H1173 C1187 0.960 . S
H1174 C1187 0.961 . S
H1175 C1187 0.959 . S
H1176 C1190 0.929 . S
H1177 C1191 0.931 . S
H1178 C1193 0.930 . S
C1179 H1167 0.930 . S
C1179 C1180 1.399 . S
C1179 C1184 1.399 . S
C1180 C1179 1.399 . S
C1180 C1181 1.376 1_554 S
C1181 H1168 0.930 . S
C1181 C1180 1.376 1_556 S
C1181 C1182 1.388 . S
C1182 H1169 0.930 . S
C1182 C1181 1.388 . S
C1182 C1183 1.390 . S
C1183 C1182 1.390 . S
C1183 C1184 1.394 1_556 S
C1183 C1189 1.465 . S
C1184 C1179 1.399 . S
C1184 C1183 1.394 1_554 S
C1184 C1185 1.533 . S
C1185 C1184 1.533 . S
C1185 C1186 1.519 . S
C1185 C1187 1.531 1_565 S
C1185 C1188 1.521 1_564 S
C1186 H1170 0.959 . S
C1186 H1171 0.959 . S
C1186 H1172 0.961 . S
C1186 C1185 1.519 . S
C1187 H1173 0.960 . S
C1187 H1174 0.961 . S
C1187 H1175 0.959 . S
C1187 C1185 1.531 1_545 S
C1188 C1185 1.521 1_546 S
C1188 C1189 1.396 1_545 S
C1188 C1193 1.390 . S
C1189 C1183 1.465 . S
C1189 C1188 1.396 1_565 S
C1189 C1190 1.399 . S
C1190 H1176 0.929 . S
C1190 C1189 1.399 . S
C1190 C1191 1.385 1_565 S
C1191 H1177 0.931 . S
C1191 C1190 1.385 1_545 S
C1191 C1192 1.389 . S
C1192 C1191 1.389 . S
C1192 C1193 1.387 . S
C1193 H1178 0.930 . S
C1193 C1188 1.390 . S
C1193 C1192 1.387 . S
H1194 C1206 0.930 . S
H1195 C1208 0.930 . S
H1196 C1209 0.930 . S
H1197 C1213 0.959 . S
H1198 C1213 0.959 . S
H1199 C1213 0.961 . S
H1200 C1214 0.960 . S
H1201 C1214 0.961 . S
H1202 C1214 0.959 . S
H1203 C1217 0.929 . S
H1204 C1218 0.931 . S
H1205 C1220 0.930 . S
C1206 H1194 0.930 . S
C1206 C1207 1.399 1_556 S
C1206 C1211 1.399 . S
C1207 C1206 1.399 1_554 S
C1207 C1208 1.376 . S
C1208 H1195 0.930 . S
C1208 C1207 1.376 . S
C1208 C1209 1.388 . S
C1209 H1196 0.930 . S
C1209 C1208 1.388 . S
C1209 C1210 1.390 1_554 S
C1210 C1209 1.390 1_556 S
C1210 C1211 1.394 . S
C1210 C1216 1.465 . S
C1211 C1206 1.399 . S
C1211 C1210 1.394 . S
C1211 C1212 1.516 . S
C1212 C1211 1.516 . S
C1212 C1213 1.502 . S
C1212 C1214 1.561 . S
C1212 C1215 1.526 . S
C1213 H1197 0.959 . S
C1213 H1198 0.959 . S
C1213 H1199 0.961 . S
C1213 C1212 1.502 . S
C1214 H1200 0.960 . S
C1214 H1201 0.961 . S
C1214 H1202 0.959 . S
C1214 C1212 1.561 . S
C1215 C1212 1.526 . S
C1215 C1216 1.396 . S
C1215 C1220 1.390 . S
C1216 C1210 1.465 . S
C1216 C1215 1.396 . S
C1216 C1217 1.399 . S
C1217 H1203 0.929 . S
C1217 C1216 1.399 . S
C1217 C1218 1.385 . S
C1218 H1204 0.931 . S
C1218 C1217 1.385 . S
C1218 C1219 1.389 . S
C1219 C1218 1.389 . S
C1219 C1220 1.387 . S
C1220 H1205 0.930 . S
C1220 C1215 1.390 . S
C1220 C1219 1.387 . S
H1221 C1233 0.930 . S
H1222 C1235 0.930 . S
H1223 C1236 0.930 . S
H1224 C1240 0.959 . S
H1225 C1240 0.959 . S
H1226 C1240 0.961 . S
H1227 C1241 0.960 . S
H1228 C1241 0.961 . S
H1229 C1241 0.959 . S
H1230 C1244 0.929 1_554 S
H1231 C1245 0.931 . S
H1232 C1247 0.930 . S
C1233 H1221 0.930 . S
C1233 C1234 1.399 1_556 S
C1233 C1238 1.399 . S
C1234 C1233 1.399 1_554 S
C1234 C1235 1.376 . S
C1235 H1222 0.930 . S
C1235 C1234 1.376 . S
C1235 C1236 1.388 . S
C1236 H1223 0.930 . S
C1236 C1235 1.388 . S
C1236 C1237 1.390 1_554 S
C1237 C1236 1.390 1_556 S
C1237 C1238 1.394 . S
C1237 C1243 1.465 . S
C1238 C1233 1.399 . S
C1238 C1237 1.394 . S
C1238 C1239 1.516 . S
C1239 C1238 1.516 . S
C1239 C1240 1.502 . S
C1239 C1241 1.561 . S
C1239 C1242 1.526 . S
C1240 H1224 0.959 . S
C1240 H1225 0.959 . S
C1240 H1226 0.961 . S
C1240 C1239 1.502 . S
C1241 H1227 0.960 . S
C1241 H1228 0.961 . S
C1241 H1229 0.959 . S
C1241 C1239 1.561 . S
C1242 C1239 1.526 . S
C1242 C1243 1.396 . S
C1242 C1247 1.390 . S
C1243 C1237 1.465 . S
C1243 C1242 1.396 . S
C1243 C1244 1.399 . S
C1244 H1230 0.929 1_556 S
C1244 C1243 1.399 . S
C1244 C1245 1.385 . S
C1245 H1231 0.931 . S
C1245 C1244 1.385 . S
C1245 C1246 1.389 . S
C1246 C1245 1.389 . S
C1246 C1247 1.387 . S
C1247 H1232 0.930 . S
C1247 C1242 1.390 . S
C1247 C1246 1.387 . S
H1248 C1260 0.930 . S
H1249 C1262 0.930 . S
H1250 C1263 0.930 . S
H1251 C1267 0.941 1_655 S
H1252 C1267 0.954 1_655 S
H1253 C1267 0.959 1_655 S
H1254 C1268 0.960 . S
H1255 C1268 0.961 . S
H1256 C1268 0.959 . S
H1257 C1271 0.929 . S
H1258 C1272 0.931 . S
H1259 C1274 0.930 . S
C1260 H1248 0.930 . S
C1260 C1261 1.399 . S
C1260 C1265 1.399 . S
C1261 C1260 1.399 . S
C1261 C1262 1.376 . S
C1262 H1249 0.930 . S
C1262 C1261 1.376 . S
C1262 C1263 1.388 . S
C1263 H1250 0.930 . S
C1263 C1262 1.388 . S
C1263 C1264 1.390 . S
C1264 C1263 1.390 . S
C1264 C1265 1.394 . S
C1264 C1270 1.465 . S
C1265 C1260 1.399 . S
C1265 C1264 1.394 . S
C1265 C1266 1.516 . S
C1266 C1265 1.516 . S
C1266 C1267 1.527 . S
C1266 C1268 1.561 . S
C1266 C1269 1.526 . S
C1267 H1251 0.941 1_455 S
C1267 H1252 0.954 1_455 S
C1267 H1253 0.959 1_455 S
C1267 C1266 1.527 . S
C1268 H1254 0.960 . S
C1268 H1255 0.961 . S
C1268 H1256 0.959 . S
C1268 C1266 1.561 . S
C1269 C1266 1.526 . S
C1269 C1270 1.396 . S
C1269 C1274 1.390 . S
C1270 C1264 1.465 . S
C1270 C1269 1.396 . S
C1270 C1271 1.399 . S
C1271 H1257 0.929 . S
C1271 C1270 1.399 . S
C1271 C1272 1.385 . S
C1272 H1258 0.931 . S
C1272 C1271 1.385 . S
C1272 C1273 1.389 . S
C1273 C1272 1.389 . S
C1273 C1274 1.387 . S
C1274 H1259 0.930 . S
C1274 C1269 1.390 . S
C1274 C1273 1.387 . S
H1275 C1287 0.930 . S
H1276 C1289 0.930 . S
H1277 C1290 0.930 . S
H1278 C1294 0.959 . S
H1279 C1294 0.959 . S
H1280 C1294 0.961 . S
H1281 C1295 0.960 . S
H1282 C1295 0.961 . S
H1283 C1295 0.959 . S
H1284 C1298 0.929 1_565 S
H1285 C1299 0.958 . S
H1286 C1301 0.930 . S
C1287 H1275 0.930 . S
C1287 C1288 1.399 . S
C1287 C1292 1.399 . S
C1288 C1287 1.399 . S
C1288 C1289 1.376 . S
C1289 H1276 0.930 . S
C1289 C1288 1.376 . S
C1289 C1290 1.388 . S
C1290 H1277 0.930 . S
C1290 C1289 1.388 . S
C1290 C1291 1.390 . S
C1291 C1290 1.390 . S
C1291 C1292 1.394 . S
C1291 C1297 1.465 . S
C1292 C1287 1.399 . S
C1292 C1291 1.394 . S
C1292 C1293 1.516 . S
C1293 C1292 1.516 . S
C1293 C1294 1.502 . S
C1293 C1295 1.561 . S
C1293 C1296 1.526 . S
C1294 H1278 0.959 . S
C1294 H1279 0.959 . S
C1294 H1280 0.961 . S
C1294 C1293 1.502 . S
C1295 H1281 0.960 . S
C1295 H1282 0.961 . S
C1295 H1283 0.959 . S
C1295 C1293 1.561 . S
C1296 C1293 1.526 . S
C1296 C1297 1.396 . S
C1296 C1301 1.390 . S
C1297 C1291 1.465 . S
C1297 C1296 1.396 . S
C1297 C1298 1.399 . S
C1298 H1284 0.929 1_545 S
C1298 C1297 1.399 . S
C1298 C1299 1.385 . S
C1299 H1285 0.958 . S
C1299 C1298 1.385 . S
C1299 C1300 1.389 . S
C1300 C1299 1.389 . S
C1300 C1301 1.387 . S
C1301 H1286 0.930 . S
C1301 C1296 1.390 . S
C1301 C1300 1.387 . S
H1302 C1314 0.930 . S
H1303 C1316 0.930 . S
H1304 C1317 0.930 . S
H1305 C1321 0.959 . S
H1306 C1321 0.959 . S
H1307 C1321 0.961 . S
H1308 C1322 0.960 . S
H1309 C1322 0.961 . S
H1310 C1322 0.959 . S
H1311 C1325 0.929 . S
H1312 C1326 0.931 . S
H1313 C1328 0.930 . S
C1314 H1302 0.930 . S
C1314 C1315 1.399 . S
C1314 C1319 1.399 . S
C1315 C1314 1.399 . S
C1315 C1316 1.376 . S
C1316 H1303 0.930 . S
C1316 C1315 1.376 . S
C1316 C1317 1.388 . S
C1317 H1304 0.930 . S
C1317 C1316 1.388 . S
C1317 C1318 1.390 . S
C1318 C1317 1.390 . S
C1318 C1319 1.394 . S
C1318 C1324 1.465 . S
C1319 C1314 1.399 . S
C1319 C1318 1.394 . S
C1319 C1320 1.516 . S
C1320 C1319 1.516 . S
C1320 C1321 1.502 . S
C1320 C1322 1.561 . S
C1320 C1323 1.526 . S
C1321 H1305 0.959 . S
C1321 H1306 0.959 . S
C1321 H1307 0.961 . S
C1321 C1320 1.502 . S
C1322 H1308 0.960 . S
C1322 H1309 0.961 . S
C1322 H1310 0.959 . S
C1322 C1320 1.561 . S
C1323 C1320 1.526 . S
C1323 C1324 1.396 . S
C1323 C1328 1.390 . S
C1324 C1318 1.465 . S
C1324 C1323 1.396 . S
C1324 C1325 1.399 . S
C1325 H1311 0.929 . S
C1325 C1324 1.399 . S
C1325 C1326 1.385 . S
C1326 H1312 0.931 . S
C1326 C1325 1.385 . S
C1326 C1327 1.389 . S
C1327 C1326 1.389 . S
C1327 C1328 1.387 . S
C1328 H1313 0.930 . S
C1328 C1323 1.390 . S
C1328 C1327 1.387 . S
H1329 C1341 0.930 . S
H1330 C1343 0.930 . S
H1331 C1344 0.930 . S
H1332 C1348 0.959 . S
H1333 C1348 0.959 . S
H1334 C1348 0.961 . S
H1335 C1349 0.960 . S
H1336 C1349 0.961 . S
H1337 C1349 0.959 . S
H1338 C1352 0.929 . S
H1339 C1353 0.931 . S
H1340 C1355 0.930 . S
C1341 H1329 0.930 . S
C1341 C1342 1.399 . S
C1341 C1346 1.399 . S
C1342 C1341 1.399 . S
C1342 C1343 1.376 . S
C1343 H1330 0.930 . S
C1343 C1342 1.376 . S
C1343 C1344 1.388 . S
C1344 H1331 0.930 . S
C1344 C1343 1.388 . S
C1344 C1345 1.390 . S
C1345 C1344 1.390 . S
C1345 C1346 1.394 . S
C1345 C1351 1.465 . S
C1346 C1341 1.399 . S
C1346 C1345 1.394 . S
C1346 C1347 1.516 . S
C1347 C1346 1.516 . S
C1347 C1348 1.502 . S
C1347 C1349 1.561 . S
C1347 C1350 1.526 . S
C1348 H1332 0.959 . S
C1348 H1333 0.959 . S
C1348 H1334 0.961 . S
C1348 C1347 1.502 . S
C1349 H1335 0.960 . S
C1349 H1336 0.961 . S
C1349 H1337 0.959 . S
C1349 C1347 1.561 . S
C1350 C1347 1.526 . S
C1350 C1351 1.396 . S
C1350 C1355 1.390 . S
C1351 C1345 1.465 . S
C1351 C1350 1.396 . S
C1351 C1352 1.399 . S
C1352 H1338 0.929 . S
C1352 C1351 1.399 . S
C1352 C1353 1.385 . S
C1353 H1339 0.931 . S
C1353 C1352 1.385 . S
C1353 C1354 1.389 . S
C1354 C1353 1.389 . S
C1354 C1355 1.387 . S
C1355 H1340 0.930 . S
C1355 C1350 1.390 . S
C1355 C1354 1.387 . S
H1356 C1368 0.930 . S
H1357 C1370 0.930 . S
H1358 C1371 0.930 . S
H1359 C1375 0.959 . S
H1360 C1375 0.959 . S
H1361 C1375 0.961 . S
H1362 C1376 0.960 . S
H1363 C1376 0.961 . S
H1364 C1376 0.959 . S
H1365 C1379 0.929 . S
H1366 C1380 0.931 . S
H1367 C1382 0.930 . S
C1368 H1356 0.930 . S
C1368 C1369 1.399 . S
C1368 C1373 1.399 . S
C1369 C1368 1.399 . S
C1369 C1370 1.376 . S
C1370 H1357 0.930 . S
C1370 C1369 1.376 . S
C1370 C1371 1.388 . S
C1371 H1358 0.930 . S
C1371 C1370 1.388 . S
C1371 C1372 1.390 . S
C1372 C1371 1.390 . S
C1372 C1373 1.394 . S
C1372 C1378 1.465 . S
C1373 C1368 1.399 . S
C1373 C1372 1.394 . S
C1373 C1374 1.516 . S
C1374 C1373 1.516 . S
C1374 C1375 1.502 . S
C1374 C1376 1.561 1_655 S
C1374 C1377 1.526 . S
C1375 H1359 0.959 . S
C1375 H1360 0.959 . S
C1375 H1361 0.961 . S
C1375 C1374 1.502 . S
C1376 H1362 0.960 . S
C1376 H1363 0.961 . S
C1376 H1364 0.959 . S
C1376 C1374 1.561 1_455 S
C1377 C1374 1.526 . S
C1377 C1378 1.396 . S
C1377 C1382 1.390 . S
C1378 C1372 1.465 . S
C1378 C1377 1.396 . S
C1378 C1379 1.399 . S
C1379 H1365 0.929 . S
C1379 C1378 1.399 . S
C1379 C1380 1.385 . S
C1380 H1366 0.931 . S
C1380 C1379 1.385 . S
C1380 C1381 1.389 . S
C1381 C1380 1.389 . S
C1381 C1382 1.387 . S
C1382 H1367 0.930 . S
C1382 C1377 1.390 . S
C1382 C1381 1.387 . S
H1383 C1395 0.930 . S
H1384 C1397 0.930 . S
H1385 C1398 0.930 . S
H1386 C1402 0.959 . S
H1387 C1402 0.959 . S
H1388 C1402 0.961 . S
H1389 C1403 0.960 1_565 S
H1390 C1403 0.961 . S
H1391 C1403 0.962 . S
H1392 C1406 0.929 . S
H1393 C1407 0.934 . S
H1394 C1409 0.930 . S
C1395 H1383 0.930 . S
C1395 C1396 1.399 . S
C1395 C1400 1.399 . S
C1396 C1395 1.399 . S
C1396 C1397 1.376 . S
C1397 H1384 0.930 . S
C1397 C1396 1.376 . S
C1397 C1398 1.388 . S
C1398 H1385 0.930 . S
C1398 C1397 1.388 . S
C1398 C1399 1.390 . S
C1399 C1398 1.390 . S
C1399 C1400 1.394 . S
C1399 C1405 1.465 . S
C1400 C1395 1.399 . S
C1400 C1399 1.394 . S
C1400 C1401 1.516 . S
C1401 C1400 1.516 . S
C1401 C1402 1.502 . S
C1401 C1403 1.558 1_565 S
C1401 C1404 1.526 . S
C1402 H1386 0.959 . S
C1402 H1387 0.959 . S
C1402 H1388 0.961 . S
C1402 C1401 1.502 . S
C1403 H1389 0.960 1_545 S
C1403 H1390 0.961 . S
C1403 H1391 0.962 . S
C1403 C1401 1.558 1_545 S
C1404 C1401 1.526 . S
C1404 C1405 1.396 . S
C1404 C1409 1.390 . S
C1405 C1399 1.465 . S
C1405 C1404 1.396 . S
C1405 C1406 1.399 . S
C1406 H1392 0.929 . S
C1406 C1405 1.399 . S
C1406 C1407 1.385 . S
C1407 H1393 0.934 . S
C1407 C1406 1.385 . S
C1407 C1408 1.389 . S
C1408 C1407 1.389 . S
C1408 C1409 1.387 . S
C1409 H1394 0.930 . S
C1409 C1404 1.390 . S
C1409 C1408 1.387 . S
H1410 C1422 0.930 . S
H1411 C1424 0.930 . S
H1412 C1425 0.930 . S
H1413 C1429 0.959 . S
H1414 C1429 0.959 . S
H1415 C1429 0.961 . S
H1416 C1430 0.960 . S
H1417 C1430 0.961 . S
H1418 C1430 0.959 . S
H1419 C1433 0.929 . S
H1420 C1434 0.931 . S
H1421 C1436 0.930 . S
C1422 H1410 0.930 . S
C1422 C1423 1.399 . S
C1422 C1427 1.399 . S
C1423 C1422 1.399 . S
C1423 C1424 1.376 . S
C1424 H1411 0.930 . S
C1424 C1423 1.376 . S
C1424 C1425 1.388 . S
C1425 H1412 0.930 . S
C1425 C1424 1.388 . S
C1425 C1426 1.390 . S
C1426 C1425 1.390 . S
C1426 C1427 1.394 . S
C1426 C1432 1.465 . S
C1427 C1422 1.399 . S
C1427 C1426 1.394 . S
C1427 C1428 1.516 . S
C1428 C1427 1.516 . S
C1428 C1429 1.502 . S
C1428 C1430 1.561 . S
C1428 C1431 1.526 . S
C1429 H1413 0.959 . S
C1429 H1414 0.959 . S
C1429 H1415 0.961 . S
C1429 C1428 1.502 . S
C1430 H1416 0.960 . S
C1430 H1417 0.961 . S
C1430 H1418 0.959 . S
C1430 C1428 1.561 . S
C1431 C1428 1.526 . S
C1431 C1432 1.396 . S
C1431 C1436 1.390 . S
C1432 C1426 1.465 . S
C1432 C1431 1.396 . S
C1432 C1433 1.399 . S
C1433 H1419 0.929 . S
C1433 C1432 1.399 . S
C1433 C1434 1.385 . S
C1434 H1420 0.931 . S
C1434 C1433 1.385 . S
C1434 C1435 1.389 . S
C1435 C1434 1.389 . S
C1435 C1436 1.387 . S
C1436 H1421 0.930 . S
C1436 C1431 1.390 . S
C1436 C1435 1.387 . S
H1437 C1449 0.930 . S
H1438 C1451 0.930 . S
H1439 C1452 0.930 . S
H1440 C1456 0.959 . S
H1441 C1456 0.959 . S
H1442 C1456 0.961 . S
H1443 C1457 0.960 . S
H1444 C1457 0.961 . S
H1445 C1457 0.959 . S
H1446 C1460 0.929 . S
H1447 C1461 0.931 . S
H1448 C1463 0.930 . S
C1449 H1437 0.930 . S
C1449 C1450 1.399 . S
C1449 C1454 1.399 . S
C1450 C1449 1.399 . S
C1450 C1451 1.376 . S
C1451 H1438 0.930 . S
C1451 C1450 1.376 . S
C1451 C1452 1.388 . S
C1452 H1439 0.930 . S
C1452 C1451 1.388 . S
C1452 C1453 1.390 . S
C1453 C1452 1.390 . S
C1453 C1454 1.394 . S
C1453 C1459 1.465 . S
C1454 C1449 1.399 . S
C1454 C1453 1.394 . S
C1454 C1455 1.516 . S
C1455 C1454 1.516 . S
C1455 C1456 1.502 . S
C1455 C1457 1.561 . S
C1455 C1458 1.526 . S
C1456 H1440 0.959 . S
C1456 H1441 0.959 . S
C1456 H1442 0.961 . S
C1456 C1455 1.502 . S
C1457 H1443 0.960 . S
C1457 H1444 0.961 . S
C1457 H1445 0.959 . S
C1457 C1455 1.561 . S
C1458 C1455 1.526 . S
C1458 C1459 1.396 . S
C1458 C1463 1.390 . S
C1459 C1453 1.465 . S
C1459 C1458 1.396 . S
C1459 C1460 1.399 . S
C1460 H1446 0.929 . S
C1460 C1459 1.399 . S
C1460 C1461 1.385 . S
C1461 H1447 0.931 . S
C1461 C1460 1.385 . S
C1461 C1462 1.389 . S
C1462 C1461 1.389 . S
C1462 C1463 1.387 . S
C1463 H1448 0.930 . S
C1463 C1458 1.390 . S
C1463 C1462 1.387 . S
C829 C391 2.372 . S
C841 C543 2.454 . S
C868 C620 2.462 . S
C856 C451 2.386 . S
C895 C711 2.452 . S
C883 C241 2.044 . S
C922 C795 2.429 . S
C910 C331 2.016 . S
C949 C554 2.438 1_565 S
C937 C121 2.147 . S
C964 C211 2.372 . S
C976 C631 2.431 . S
C991 C31 2.328 . S
C1003 C722 2.438 . S
C1018 C91 2.075 . S
C1030 C806 2.436 1_655 S
C1057 C538 0.554 1_455 S
C1045 C301 0.682 . S
C1084 C633 0.557 . S
C1072 C380 0.488 . S
C1111 C706 0.523 . S
C1099 C440 0.501 . S
C1126 C260 0.679 . S
C1138 C790 0.419 . S
C1153 C61 0.583 . S
C1165 C549 0.418 . S
C1192 C622 0.663 . S
C1180 C140 0.596 . S
C1219 C717 0.595 . S
C1207 C200 0.633 . S
C1234 C20 0.474 . S
C1246 C801 0.467 . S
C1261 C320 2.718 . S
C1273 C547 2.919 . S
C1288 C361 2.435 . S
C1300 C638 2.951 . S
C1327 C715 2.939 . S
C1315 C421 2.386 . S
C1354 C799 2.915 . S
C1342 C271 2.786 . S
C1369 C80 2.732 . S
C1381 C536 2.921 . S
C1408 C627 2.961 . S
C1396 C151 2.741 . S
C1435 C704 2.937 . S
C1423 C181 2.365 . S
C1450 C1 2.395 . S
C1462 C788 2.927 . S
