# Generated by pormake.
# Topology pyr, (3,6)-cn, num edge types: 1
# Building blocks:
#     Node 0, Type 0, BuildingBlock: BELTOD_clean_linker_0, # of connection points: 3
#     Node 1, Type 0, BuildingBlock: BELTOD_clean_linker_0, # of connection points: 3
#     Node 2, Type 0, BuildingBlock: BELTOD_clean_linker_0, # of connection points: 3
#     Node 3, Type 0, BuildingBlock: BELTOD_clean_linker_0, # of connection points: 3
#     Node 4, Type 0, BuildingBlock: BELTOD_clean_linker_0, # of connection points: 3
#     Node 5, Type 0, BuildingBlock: BELTOD_clean_linker_0, # of connection points: 3
#     Node 6, Type 0, BuildingBlock: BELTOD_clean_linker_0, # of connection points: 3
#     Node 7, Type 0, BuildingBlock: BELTOD_clean_linker_0, # of connection points: 3
#     Node 8, Type 1, BuildingBlock: PAMTUU_clean_sbu_0, # of connection points: 6
#     Node 9, Type 1, BuildingBlock: PAMTUU_clean_sbu_0, # of connection points: 6
#     Node 10, Type 1, BuildingBlock: PAMTUU_clean_sbu_0, # of connection points: 6
#     Node 11, Type 1, BuildingBlock: PAMTUU_clean_sbu_0, # of connection points: 6
#     Edge 12, Type (0, 1), BuildingBlock: EZIPEK_clean_linker_0, # of connection points: 2
#     Edge 13, Type (0, 1), BuildingBlock: EZIPEK_clean_linker_0, # of connection points: 2
#     Edge 14, Type (0, 1), BuildingBlock: EZIPEK_clean_linker_0, # of connection points: 2
#     Edge 15, Type (0, 1), BuildingBlock: EZIPEK_clean_linker_0, # of connection points: 2
#     Edge 16, Type (0, 1), BuildingBlock: EZIPEK_clean_linker_0, # of connection points: 2
#     Edge 17, Type (0, 1), BuildingBlock: EZIPEK_clean_linker_0, # of connection points: 2
#     Edge 18, Type (0, 1), BuildingBlock: EZIPEK_clean_linker_0, # of connection points: 2
#     Edge 19, Type (0, 1), BuildingBlock: EZIPEK_clean_linker_0, # of connection points: 2
#     Edge 20, Type (0, 1), BuildingBlock: EZIPEK_clean_linker_0, # of connection points: 2
#     Edge 21, Type (0, 1), BuildingBlock: EZIPEK_clean_linker_0, # of connection points: 2
#     Edge 22, Type (0, 1), BuildingBlock: EZIPEK_clean_linker_0, # of connection points: 2
#     Edge 23, Type (0, 1), BuildingBlock: EZIPEK_clean_linker_0, # of connection points: 2
#     Edge 24, Type (0, 1), BuildingBlock: EZIPEK_clean_linker_0, # of connection points: 2
#     Edge 25, Type (0, 1), BuildingBlock: EZIPEK_clean_linker_0, # of connection points: 2
#     Edge 26, Type (0, 1), BuildingBlock: EZIPEK_clean_linker_0, # of connection points: 2
#     Edge 27, Type (0, 1), BuildingBlock: EZIPEK_clean_linker_0, # of connection points: 2
#     Edge 28, Type (0, 1), BuildingBlock: EZIPEK_clean_linker_0, # of connection points: 2
#     Edge 29, Type (0, 1), BuildingBlock: EZIPEK_clean_linker_0, # of connection points: 2
#     Edge 30, Type (0, 1), BuildingBlock: EZIPEK_clean_linker_0, # of connection points: 2
#     Edge 31, Type (0, 1), BuildingBlock: EZIPEK_clean_linker_0, # of connection points: 2
#     Edge 32, Type (0, 1), BuildingBlock: EZIPEK_clean_linker_0, # of connection points: 2
#     Edge 33, Type (0, 1), BuildingBlock: EZIPEK_clean_linker_0, # of connection points: 2
#     Edge 34, Type (0, 1), BuildingBlock: EZIPEK_clean_linker_0, # of connection points: 2
#     Edge 35, Type (0, 1), BuildingBlock: EZIPEK_clean_linker_0, # of connection points: 2
# Relax obj value: 0.148
# Max RMSD: 0.149
# Mean RMSD: 0.061
data_MOF--net-pyr--node1-PAMTUU_clean_sbu_0--node2-BELTOD_clean_linker_0--edge1-EZIPEK_clean_linker_0
_symmetry_space_group_name_H-M    P1
_symmetry_Int_Tables_number       1
_symmetry_cell_setting            triclinic
loop_
_symmetry_equiv_pos_as_xyz
'x, y, z'
_cell_length_a     33.063716
_cell_length_b     34.970508
_cell_length_c     33.528326
_cell_angle_alpha  90.089706
_cell_angle_beta   89.591191
_cell_angle_gamma 101.41275
loop_
_atom_site_label
_atom_site_type_symbol
_atom_site_fract_x
_atom_site_fract_y
_atom_site_fract_z
_atom_type_partial_charge
P0 P 0.3936 0.31378 0.22177 0.0
H1 H 0.41466 0.29036 0.14065 0.0
H2 H 0.44703 0.23668 0.1177 0.0
H3 H 0.47667 0.21337 0.23914 0.0
H4 H 0.44429 0.26682 0.26218 0.0
H5 H 0.35365 0.37982 0.20748 0.0
H6 H 0.28916 0.38455 0.17361 0.0
H7 H 0.27724 0.26603 0.13249 0.0
H8 H 0.34106 0.26096 0.1668 0.0
H9 H 0.37449 0.34229 0.30129 0.0
H10 H 0.35083 0.23431 0.23501 0.0
O11 O 0.423 0.35654 0.23419 0.0
H12 H 0.33216 0.30961 0.35705 0.0
H13 H 0.30884 0.20219 0.29011 0.0
C14 C 0.42568 0.28149 0.20322 0.0
C15 C 0.42856 0.27409 0.1623 0.0
C16 C 0.44717 0.24367 0.14919 0.0
C17 C 0.46359 0.22092 0.17689 0.0
C18 C 0.46389 0.23055 0.21747 0.0
C19 C 0.44534 0.26093 0.2305 0.0
C20 C 0.35298 0.32048 0.18859 0.0
C21 C 0.33791 0.35526 0.19014 0.0
C22 C 0.30102 0.35789 0.17113 0.0
C23 C 0.27865 0.32564 0.15061 0.0
C24 C 0.29432 0.29127 0.14799 0.0
C25 C 0.33097 0.28857 0.16724 0.0
C26 C 0.36631 0.29047 0.26444 0.0
C27 C 0.36075 0.3116 0.29897 0.0
C28 C 0.33665 0.29311 0.33059 0.0
C29 C 0.31774 0.25359 0.32745 0.0
C30 C 0.32347 0.23265 0.29296 0.0
C31 C 0.34745 0.25098 0.26165 0.0
P32 P 0.21681 0.85041 0.72198 0.0
H33 H 0.27302 0.89482 0.77873 0.0
H34 H 0.2769 0.89355 0.85118 0.0
H35 H 0.1727 0.79734 0.85548 0.0
H36 H 0.16814 0.79917 0.78194 0.0
H37 H 0.29446 0.85491 0.67958 0.0
H38 H 0.33227 0.80553 0.65746 0.0
H39 H 0.23148 0.71472 0.69569 0.0
H40 H 0.19312 0.7647 0.71837 0.0
H41 H 0.15725 0.89359 0.7514 0.0
H42 H 0.16439 0.81085 0.65733 0.0
O43 O 0.24397 0.89375 0.70773 0.0
H44 H 0.10163 0.91567 0.71644 0.0
H45 H 0.10705 0.83166 0.62324 0.0
C46 C 0.21982 0.84759 0.77518 0.0
C47 C 0.2508 0.87352 0.79501 0.0
C48 C 0.25313 0.87269 0.83633 0.0
C49 C 0.22485 0.8456 0.85849 0.0
C50 C 0.19452 0.81862 0.83872 0.0
C51 C 0.19197 0.81969 0.79702 0.0
C52 C 0.24077 0.81344 0.70026 0.0
C53 C 0.27992 0.82449 0.68268 0.0
C54 C 0.30165 0.79634 0.67014 0.0
C55 C 0.28468 0.75667 0.67515 0.0
C56 C 0.24494 0.74533 0.69167 0.0
C57 C 0.22314 0.77371 0.70444 0.0
C58 C 0.16504 0.85078 0.70683 0.0
C59 C 0.14524 0.87857 0.7244 0.0
C60 C 0.11343 0.8912 0.70449 0.0
C61 C 0.1008 0.87575 0.66698 0.0
C62 C 0.11655 0.84394 0.65217 0.0
C63 C 0.14926 0.83204 0.67164 0.0
P64 P 0.67693 0.35069 0.84324 0.0
H65 H 0.74722 0.32619 0.88104 0.0
H66 H 0.80663 0.35922 0.91985 0.0
H67 H 0.76041 0.46589 0.91579 0.0
H68 H 0.70056 0.43265 0.87643 0.0
H69 H 0.62222 0.27625 0.82012 0.0
H70 H 0.58913 0.21777 0.85757 0.0
H71 H 0.62696 0.27673 0.96789 0.0
H72 H 0.6602 0.33524 0.93046 0.0
H73 H 0.70913 0.42228 0.79627 0.0
H74 H 0.59185 0.34395 0.80896 0.0
O75 O 0.70153 0.32635 0.8114 0.0
H76 H 0.68179 0.45549 0.74098 0.0
H77 H 0.56437 0.37728 0.75351 0.0
C78 C 0.71914 0.37674 0.87501 0.0
C79 C 0.7495 0.35669 0.88847 0.0
C80 C 0.78362 0.37559 0.91087 0.0
C81 C 0.78854 0.41526 0.92106 0.0
C82 C 0.75764 0.4353 0.90857 0.0
C83 C 0.72334 0.41627 0.88592 0.0
C84 C 0.6437 0.31101 0.87199 0.0
C85 C 0.62271 0.27718 0.8524 0.0
C86 C 0.60397 0.2434 0.87391 0.0
C87 C 0.60543 0.24212 0.91593 0.0
C88 C 0.62514 0.27642 0.93566 0.0
C89 C 0.64402 0.31021 0.91409 0.0
C90 C 0.65251 0.38105 0.80862 0.0
C91 C 0.67706 0.41279 0.78821 0.0
C92 C 0.66146 0.43168 0.75597 0.0
C93 C 0.62064 0.4194 0.7423 0.0
C94 C 0.59582 0.38793 0.76301 0.0
C95 C 0.61153 0.36895 0.79526 0.0
P96 P 0.8495 0.6976 0.33149 0.0
H97 H 0.87988 0.77854 0.30413 0.0
H98 H 0.91108 0.83932 0.33783 0.0
H99 H 0.92088 0.77525 0.44576 0.0
H100 H 0.88791 0.71421 0.41221 0.0
H101 H 0.8179 0.62941 0.28122 0.0
H102 H 0.84784 0.59552 0.22778 0.0
H103 H 0.96788 0.66473 0.25261 0.0
H104 H 0.9374 0.69967 0.30543 0.0
H105 H 0.77769 0.71843 0.37093 0.0
H106 H 0.83505 0.61809 0.36997 0.0
O107 O 0.82059 0.71637 0.29914 0.0
H108 H 0.72125 0.68307 0.41256 0.0
H109 H 0.77865 0.58274 0.4128 0.0
C110 C 0.88114 0.74114 0.35531 0.0
C111 C 0.88902 0.77714 0.33495 0.0
C112 C 0.90691 0.81222 0.35435 0.0
C113 C 0.91843 0.81269 0.39479 0.0
C114 C 0.91229 0.77632 0.41473 0.0
C115 C 0.89367 0.74117 0.39539 0.0
C116 C 0.87519 0.66684 0.29857 0.0
C117 C 0.85088 0.6369 0.27596 0.0
C118 C 0.86806 0.61754 0.24498 0.0
C119 C 0.9105 0.62707 0.23539 0.0
C120 C 0.93515 0.65636 0.25885 0.0
C121 C 0.91772 0.67622 0.28953 0.0
C122 C 0.81087 0.6711 0.36673 0.0
C123 C 0.77849 0.68887 0.37996 0.0
C124 C 0.74603 0.66859 0.40385 0.0
C125 C 0.74505 0.62991 0.41594 0.0
C126 C 0.77829 0.61244 0.40397 0.0
C127 C 0.81067 0.6327 0.37949 0.0
P128 P 0.72809 0.86287 0.86088 0.0
H129 H 0.69601 0.87135 0.93999 0.0
H130 H 0.63276 0.89153 0.96221 0.0
H131 H 0.58434 0.87583 0.84293 0.0
H132 H 0.64804 0.85647 0.82035 0.0
H133 H 0.81355 0.86588 0.88059 0.0
H134 H 0.85055 0.81735 0.90646 0.0
H135 H 0.73583 0.73421 0.91751 0.0
H136 H 0.69833 0.7833 0.89166 0.0
H137 H 0.75284 0.91616 0.79489 0.0
H138 H 0.70562 0.79287 0.81066 0.0
O139 O 0.75537 0.9073 0.87088 0.0
H140 H 0.75983 0.90613 0.72347 0.0
H141 H 0.7122 0.78287 0.73817 0.0
C142 C 0.67678 0.86256 0.87862 0.0
C143 C 0.67125 0.87088 0.91889 0.0
C144 C 0.63529 0.88251 0.93151 0.0
C145 C 0.60443 0.8858 0.90396 0.0
C146 C 0.60808 0.87367 0.86444 0.0
C147 C 0.64441 0.86253 0.85168 0.0
C148 C 0.75319 0.82832 0.88499 0.0
C149 C 0.79612 0.83755 0.88934 0.0
C150 C 0.81726 0.8099 0.90393 0.0
C151 C 0.7958 0.77246 0.91389 0.0
C152 C 0.75269 0.76317 0.91012 0.0
C153 C 0.73143 0.79106 0.89555 0.0
C154 C 0.72962 0.85513 0.80807 0.0
C155 C 0.7438 0.88694 0.78301 0.0
C156 C 0.74758 0.88126 0.74224 0.0
C157 C 0.73688 0.84374 0.72582 0.0
C158 C 0.72082 0.81195 0.75053 0.0
C159 C 0.71727 0.81766 0.79168 0.0
P160 P 0.901 0.31283 0.32143 0.0
H161 H 0.89152 0.33858 0.4045 0.0
H162 H 0.83382 0.36024 0.43885 0.0
H163 H 0.77002 0.35859 0.32697 0.0
H164 H 0.82742 0.3377 0.2927 0.0
H165 H 0.97866 0.28623 0.31564 0.0
H166 H 1.0032 0.23203 0.34756 0.0
H167 H 0.8955 0.21131 0.42382 0.0
H168 H 0.87008 0.26417 0.39076 0.0
H169 H 0.92023 0.301 0.23671 0.0
H170 H 0.82618 0.25397 0.32311 0.0
O171 O 0.93767 0.34758 0.30192 0.0
H172 H 0.88484 0.25494 0.18635 0.0
H173 H 0.7909 0.20874 0.27304 0.0
C174 C 0.86286 0.33486 0.34639 0.0
C175 C 0.86525 0.34313 0.38738 0.0
C176 C 0.83252 0.35555 0.40691 0.0
C177 C 0.79748 0.3601 0.38541 0.0
C178 C 0.79659 0.35459 0.34404 0.0
C179 C 0.82928 0.34253 0.3246 0.0
C180 C 0.92339 0.28034 0.35193 0.0
C181 C 0.96092 0.27079 0.34002 0.0
C182 C 0.97474 0.23972 0.35794 0.0
C183 C 0.95126 0.21791 0.38818 0.0
C184 C 0.91422 0.22808 0.40079 0.0
C185 C 0.90004 0.25865 0.38231 0.0
C186 C 0.8752 0.28135 0.28324 0.0
C187 C 0.89183 0.2812 0.24465 0.0
C188 C 0.87181 0.25502 0.21607 0.0
C189 C 0.83514 0.22894 0.22609 0.0
C190 C 0.81896 0.22897 0.2648 0.0
C191 C 0.839 0.25479 0.29323 0.0
P192 P 0.37654 0.67687 0.21214 0.0
H193 H 0.34436 0.67925 0.13122 0.0
H194 H 0.27945 0.65009 0.09833 0.0
H195 H 0.2297 0.60226 0.21068 0.0
H196 H 0.29485 0.63191 0.24386 0.0
H197 H 0.45831 0.72758 0.19764 0.0
H198 H 0.48067 0.79383 0.17085 0.0
H199 H 0.3549 0.8099 0.17354 0.0
H200 H 0.33239 0.74315 0.19969 0.0
H201 H 0.35721 0.59909 0.25068 0.0
H202 H 0.42292 0.7132 0.28424 0.0
O203 O 0.40762 0.65614 0.18348 0.0
H204 H 0.38033 0.57157 0.31184 0.0
H205 H 0.44624 0.68558 0.34569 0.0
C206 C 0.32517 0.65806 0.19031 0.0
C207 C 0.31948 0.66285 0.14911 0.0
C208 C 0.28226 0.64596 0.13012 0.0
C209 C 0.24919 0.62347 0.1516 0.0
C210 C 0.25447 0.61921 0.19307 0.0
C211 C 0.29188 0.63628 0.21216 0.0
C212 C 0.39344 0.72965 0.20111 0.0
C213 C 0.4354 0.74538 0.19322 0.0
C214 C 0.44827 0.78345 0.17757 0.0
C215 C 0.41973 0.80754 0.16951 0.0
C216 C 0.37788 0.79239 0.17906 0.0
C217 C 0.36495 0.75409 0.19441 0.0
C218 C 0.38665 0.65887 0.26271 0.0
C219 C 0.3755 0.61868 0.27169 0.0
C220 C 0.38923 0.60268 0.30676 0.0
C221 C 0.41525 0.62608 0.33431 0.0
C222 C 0.42612 0.66644 0.32561 0.0
C223 C 0.41237 0.68245 0.29037 0.0
P224 P 0.17898 0.34844 0.72832 0.0
H225 H 0.20657 0.29235 0.67531 0.0
H226 H 0.17226 0.23502 0.63772 0.0
H227 H 0.05389 0.25724 0.67397 0.0
H228 H 0.08844 0.31535 0.71146 0.0
H229 H 0.26415 0.38692 0.74816 0.0
H230 H 0.32365 0.41954 0.70836 0.0
H231 H 0.24788 0.40798 0.60341 0.0
H232 H 0.18809 0.37502 0.64334 0.0
H233 H 0.1049 0.32873 0.78111 0.0
H234 H 0.1985 0.42987 0.7581 0.0
O235 O 0.20281 0.32419 0.7605 0.0
H236 H 0.07706 0.36287 0.83414 0.0
H237 H 0.17292 0.46352 0.81193 0.0
C238 C 0.15051 0.30893 0.69647 0.0
C239 C 0.17316 0.28548 0.6749 0.0
C240 C 0.15349 0.25235 0.65343 0.0
C241 C 0.11022 0.24112 0.65277 0.0
C242 C 0.08726 0.26487 0.67379 0.0
C243 C 0.10711 0.29829 0.69535 0.0
C244 C 0.22122 0.37809 0.69903 0.0
C245 C 0.25995 0.39165 0.71668 0.0
C246 C 0.29416 0.4103 0.69386 0.0
C247 C 0.29073 0.41623 0.6526 0.0
C248 C 0.25165 0.40383 0.63506 0.0
C249 C 0.21735 0.38507 0.65799 0.0
C250 C 0.15161 0.37743 0.76184 0.0
C251 C 0.11773 0.35942 0.78526 0.0
C252 C 0.10128 0.37981 0.81607 0.0
C253 C 0.11694 0.41995 0.82475 0.0
C254 C 0.15402 0.43601 0.80369 0.0
C255 C 0.17007 0.4158 0.77254 0.0
Tb256 Tb 0.05571 0.03557 0.49838 0.0
Tb257 Tb 0.96521 0.02745 0.53866 0.0
C258 C 0.98241 0.96461 0.47528 0.0
C259 C 0.15701 0.07763 0.45483 0.0
C260 C 0.21053 0.14327 0.42375 0.0
C261 C 0.21229 0.10585 0.40958 0.0
C262 C 0.18562 0.07317 0.42505 0.0
C263 C 0.15579 0.11506 0.46955 0.0
C264 C 0.18257 0.14773 0.45419 0.0
C265 C 0.12733 0.04344 0.469 0.0
O266 O 0.02221 0.06588 0.45758 0.0
O267 O 0.97221 0.07849 0.50064 0.0
O268 O 1.00613 0.07218 0.57474 0.0
O269 O 0.05848 0.09163 0.52938 0.0
O270 O 0.902 0.02632 0.53186 0.0
O271 O 0.92808 1.02086 0.59013 0.0
O272 O 0.99061 0.97852 0.56049 0.0
O273 O 0.05716 1.01053 0.55723 0.0
O274 O 0.0224 0.97661 0.48107 0.0
O275 O 0.956 0.9854 0.48883 0.0
C276 C 0.99363 0.0853 0.4675 0.0
O277 O 0.11946 0.04244 0.50711 0.0
O278 O 0.09377 0.03405 0.44812 0.0
C279 C 0.03899 0.0976 0.56255 0.0
C280 C 0.86215 0.98364 0.57831 0.0
C281 C 0.80785 0.91476 0.60072 0.0
C282 C 0.81717 0.94614 0.62744 0.0
C283 C 0.84407 0.98032 0.61631 0.0
C284 C 0.85154 0.95283 0.55082 0.0
C285 C 0.82434 0.91849 0.56198 0.0
C286 C 0.89434 1.01802 0.56943 0.0
C287 C 0.02927 0.98148 0.57044 0.0
H288 H 0.23377 0.10208 0.38603 0.0
H289 H 0.18683 0.04453 0.41331 0.0
H290 H 0.13379 0.11909 0.49248 0.0
H291 H 0.1809 0.17648 0.46533 0.0
H292 H 0.80455 0.94364 0.65747 0.0
H293 H 0.85186 1.0037 0.63786 0.0
H294 H 0.86511 0.95482 0.52123 0.0
H295 H 0.81729 0.89451 0.54104 0.0
Tb296 Tb 0.55416 0.02909 0.06481 0.0
Tb297 Tb 0.46085 0.02886 0.03352 0.0
C298 C 0.51796 0.98043 0.99071 0.0
C299 C 0.65967 0.05837 0.10571 0.0
C300 C 0.72426 0.11459 0.13674 0.0
C301 C 0.73278 0.08653 0.10969 0.0
C302 C 0.70062 0.05841 0.09444 0.0
C303 C 0.6511 0.0871 0.13199 0.0
C304 C 0.68326 0.11489 0.14757 0.0
C305 C 0.62627 0.02897 0.08886 0.0
O306 O 0.56091 0.08565 0.03399 0.0
O307 O 0.50039 0.07568 0.99812 0.0
O308 O 0.47494 0.07877 0.07245 0.0
O309 O 0.52822 0.0634 0.10888 0.0
O310 O 0.41909 0.02779 0.98655 0.0
O311 O 0.39923 0.02981 0.04802 0.0
O312 O 0.45358 0.98571 0.08242 0.0
O313 O 0.51782 0.9708 0.08042 0.0
O314 O 0.54978 1.00405 1.00576 0.0
O315 O 0.48018 0.9809 1.00227 0.0
C316 C 0.53759 0.09642 1.00595 0.0
O317 O 0.59322 1.01861 0.11084 0.0
O318 O 0.61729 0.03458 0.05189 0.0
C319 C 0.50024 0.08457 0.10264 0.0
C320 C 0.35332 0.99181 1.00266 0.0
C321 C 0.29463 0.92561 0.98112 0.0
C322 C 0.30612 0.95662 0.95423 0.0
C323 C 0.33509 0.98949 0.96495 0.0
C324 C 0.34055 0.96146 1.03035 0.0
C325 C 0.31105 0.92859 1.01969 0.0
C326 C 0.38766 1.02453 1.01096 0.0
C327 C 0.47852 0.96176 0.09089 0.0
H328 H 0.76429 0.08615 0.10089 0.0
H329 H 0.70767 0.03671 0.07382 0.0
H330 H 0.61965 0.088 0.14056 0.0
H331 H 0.67624 0.13657 0.16823 0.0
H332 H 0.29352 0.95481 0.92437 0.0
H333 H 0.34438 1.01254 0.94324 0.0
H334 H 0.35417 0.96253 0.05971 0.0
H335 H 0.30225 0.90496 0.04082 0.0
Tb336 Tb 0.52035 0.4831 0.51127 0.0
Tb337 Tb 0.51914 0.5615 0.56174 0.0
C338 C 0.48086 0.55249 0.47476 0.0
C339 C 0.56552 0.40823 0.46272 0.0
C340 C 0.64243 0.38991 0.44388 0.0
C341 C 0.61276 0.38944 0.41409 0.0
C342 C 0.57449 0.39851 0.42348 0.0
C343 C 0.59495 0.40763 0.49272 0.0
C344 C 0.63309 0.39831 0.48337 0.0
C345 C 0.52822 0.42407 0.4709 0.0
O346 O 0.58419 0.51558 0.50765 0.0
O347 O 0.57348 0.57679 0.52211 0.0
O348 O 0.55837 0.53071 0.59819 0.0
O349 O 0.54061 0.46933 0.5714 0.0
O350 O 0.52213 0.62212 0.56271 0.0
O351 O 0.51563 0.58893 0.61705 0.0
O352 O 0.46402 0.5204 0.5826 0.0
O353 O 0.45638 0.47354 0.53353 0.0
O354 O 0.50097 0.52401 0.46827 0.0
O355 O 0.47721 0.56535 0.51137 0.0
C356 C 0.59626 0.55372 0.50619 0.0
O357 O 0.51482 0.4222 0.5076 0.0
O358 O 0.52873 0.45823 0.45549 0.0
C359 C 0.55731 0.49276 0.60031 0.0
C360 C 0.47812 0.63878 0.61192 0.0
C361 C 0.40885 0.67006 0.63228 0.0
C362 C 0.44875 0.69102 0.64037 0.0
C363 C 0.48327 0.67543 0.63021 0.0
C364 C 0.43822 0.61779 0.60401 0.0
C365 C 0.40372 0.63325 0.61424 0.0
C366 C 0.51409 0.62232 0.60073 0.0
C367 C 0.44263 0.48887 0.56566 0.0
H368 H 0.61963 0.38294 0.38347 0.0
H369 H 0.55247 0.39933 0.39987 0.0
H370 H 0.58904 0.41557 0.52312 0.0
H371 H 0.65575 0.39878 0.50664 0.0
H372 H 0.45309 0.71946 0.65438 0.0
H373 H 0.51387 0.69196 0.6365 0.0
H374 H 0.4339 0.5895 0.58987 0.0
H375 H 0.37313 0.61671 0.6079 0.0
Tb376 Tb 0.01903 0.56127 1.01092 0.0
Tb377 Tb 0.01911 0.48169 0.06051 0.0
C378 C 0.05616 0.49139 0.97077 0.0
C379 C 0.98134 0.64314 0.96735 0.0
C380 C 0.91442 0.67948 0.95334 0.0
C381 C 0.95368 0.69574 0.93804 0.0
C382 C 0.98704 0.67764 0.94506 0.0
C383 C 0.94202 0.62685 0.98261 0.0
C384 C 0.9087 0.64494 0.97563 0.0
C385 C 0.01611 0.62389 0.9746 0.0
O386 O 0.96225 0.52303 0.99082 0.0
O387 O 0.95629 0.47173 0.03488 0.0
O388 O 0.99799 0.52167 0.10375 0.0
O389 O 0.97604 0.56396 0.0609 0.0
O390 O 1.00627 0.42049 0.06464 0.0
O391 O 0.03208 0.45576 0.11422 0.0
O392 O 0.08299 0.514 0.06562 0.0
O393 O 0.07351 0.57525 0.04977 0.0
O394 O 0.05358 0.52867 0.97092 0.0
O395 O 0.04455 0.46907 1.00211 0.0
C396 C 0.94197 0.48947 1.00477 0.0
O397 O 0.02671 0.62235 1.01173 0.0
O398 O 1.01391 0.5904 0.95699 0.0
C399 C 0.9787 0.55072 0.09738 0.0
C400 C 0.05766 0.39914 0.10139 0.0
C401 C 0.12344 0.35754 0.10502 0.0
C402 C 0.08894 0.34908 0.13131 0.0
C403 C 0.05621 0.36895 0.12882 0.0
C404 C 0.09282 0.41025 0.07748 0.0
C405 C 0.12547 0.39044 0.07989 0.0
C406 C 0.02392 0.42079 0.09923 0.0
C407 C 0.09566 0.55213 0.06621 0.0
H408 H 0.9584 0.72238 0.9207 0.0
H409 H 0.01718 0.69048 0.93308 0.0
H410 H 0.93714 0.60012 0.99981 0.0
H411 H 0.87852 0.63206 0.98749 0.0
H412 H 0.08692 0.32826 0.15519 0.0
H413 H 0.03012 0.36125 0.149 0.0
H414 H 0.09545 0.43488 0.0574 0.0
H415 H 0.15268 0.40239 0.06264 0.0
C416 C 0.30703 0.21266 0.38922 0.0
C417 C 0.29042 0.23341 0.35921 0.0
C418 C 0.22044 0.19931 0.37581 0.0
C419 C 0.2371 0.17774 0.40516 0.0
N420 N 0.29388 0.16994 0.44687 0.0
N421 N 0.23206 0.25443 0.33036 0.0
C422 C 0.27974 0.18653 0.41424 0.0
C423 C 0.24723 0.22947 0.35486 0.0
N424 N 0.34885 0.21665 0.39245 0.0
N425 N 0.17951 0.18944 0.36637 0.0
H426 H 0.25115 0.27655 0.31433 0.0
H427 H 0.2009 0.25558 0.32861 0.0
H428 H 0.15871 0.1678 0.38133 0.0
H429 H 0.16649 0.20088 0.34207 0.0
H430 H 0.36303 0.19891 0.4103 0.0
H431 H 0.36961 0.23677 0.37563 0.0
H432 H 0.32397 0.17768 0.4573 0.0
H433 H 0.27445 0.15062 0.46565 0.0
C434 C 0.207 0.87252 0.92349 0.0
C435 C 0.22827 0.84738 0.90243 0.0
C436 C 0.28452 0.85944 0.95023 0.0
C437 C 0.26691 0.88985 0.96661 0.0
N438 N 0.20636 0.9156 0.98053 0.0
N439 N 0.27697 0.80511 0.90353 0.0
C440 C 0.22586 0.89244 0.95757 0.0
C441 C 0.26324 0.83628 0.91922 0.0
N442 N 0.17085 0.87968 0.90875 0.0
N443 N 0.3229 0.8552 0.9618 0.0
H444 H 0.26136 0.78865 0.88029 0.0
H445 H 0.3011 0.79376 0.91541 0.0
H446 H 0.3386 0.87123 0.98515 0.0
H447 H 0.33958 0.83661 0.94786 0.0
H448 H 0.15581 0.90091 0.91996 0.0
H449 H 0.15624 0.86437 0.8844 0.0
H450 H 0.17559 0.91761 0.97711 0.0
H451 H 0.22063 0.93041 1.00536 0.0
C452 C 0.61913 0.43283 0.66652 0.0
C453 C 0.60458 0.43866 0.70586 0.0
C454 C 0.55761 0.47839 0.67588 0.0
C455 C 0.57462 0.47522 0.637 0.0
N456 N 0.62706 0.45431 0.59721 0.0
N457 N 0.56423 0.47275 0.74793 0.0
C458 C 0.60684 0.45366 0.63296 0.0
C459 C 0.57498 0.46307 0.71038 0.0
N460 N 0.64374 0.40615 0.66084 0.0
N461 N 0.52336 0.49449 0.67983 0.0
H462 H 0.57586 0.46214 0.77359 0.0
H463 H 0.54666 0.49381 0.7537 0.0
H464 H 0.50955 0.50562 0.65578 0.0
H465 H 0.50644 0.49372 0.70623 0.0
H466 H 0.65173 0.39705 0.6328 0.0
H467 H 0.6533 0.39047 0.6842 0.0
H468 H 0.65353 0.44284 0.59298 0.0
H469 H 0.61962 0.46961 0.57252 0.0
C470 C 0.94802 0.62974 0.16733 0.0
C471 C 0.9284 0.60738 0.20015 0.0
C472 C 0.93676 0.54756 0.1631 0.0
C473 C 0.96079 0.57016 0.13269 0.0
N474 N 0.99725 0.6342 0.11275 0.0
N475 N 0.91208 0.54427 0.23178 0.0
C476 C 0.96852 0.61165 0.13673 0.0
C477 C 0.92505 0.56605 0.19865 0.0
N478 N 0.94581 0.6682 0.16422 0.0
N479 N 0.92328 0.50844 0.15747 0.0
H480 H 0.90448 0.55654 0.25849 0.0
H481 H 0.91298 0.51474 0.23401 0.0
H482 H 0.92945 0.49407 0.13153 0.0
H483 H 0.90228 0.49112 0.17653 0.0
H484 H 0.95568 0.68488 0.13895 0.0
H485 H 0.93016 0.68234 0.18487 0.0
H486 H 1.00717 0.66411 0.117 0.0
H487 H 1.01473 0.62258 0.09169 0.0
C488 C 0.44675 0.14884 0.16504 0.0
C489 C 0.47614 0.18444 0.16381 0.0
C490 C 0.52584 0.15202 0.12963 0.0
C491 C 0.49604 0.11666 0.13012 0.0
N492 N 0.43329 0.07847 0.15688 0.0
N493 N 0.54601 0.21875 0.15336 0.0
C494 C 0.45812 0.1142 0.15074 0.0
C495 C 0.51657 0.1856 0.14887 0.0
N496 N 0.40744 0.14851 0.17828 0.0
N497 N 0.56202 0.15402 0.10905 0.0
H498 H 0.53983 0.24396 0.16674 0.0
H499 H 0.57711 0.22044 0.14673 0.0
H500 H 0.57089 0.12963 0.09661 0.0
H501 H 0.58256 0.17999 0.10287 0.0
H502 H 0.38328 0.12459 0.17546 0.0
H503 H 0.39807 0.17306 0.18993 0.0
H504 H 0.40694 0.07399 0.1748 0.0
H505 H 0.44132 0.05261 0.14703 0.0
C506 C 0.10073 0.9176 0.60656 0.0
C507 C 0.07921 0.89869 0.64008 0.0
C508 C 0.02324 0.9341 0.62868 0.0
C509 C 0.04333 0.95002 0.59302 0.0
N510 N 0.09407 0.94481 0.54181 0.0
N511 N 0.01626 0.88273 0.67844 0.0
C512 C 0.07975 0.93789 0.57996 0.0
C513 C 0.0391 0.90484 0.64959 0.0
N514 N 0.14196 0.91851 0.60115 0.0
N515 N 0.9908 0.94836 0.64402 0.0
H516 H 0.02719 0.86111 0.69409 0.0
H517 H 0.98538 0.88337 0.6841 0.0
H518 H 0.97923 0.97082 0.63075 0.0
H519 H 0.97784 0.9404 0.67194 0.0
H520 H 0.15941 0.93541 0.57914 0.0
H521 H 0.15987 0.90637 0.62112 0.0
H522 H 0.1185 0.93332 0.53026 0.0
H523 H 0.07863 0.95778 0.52036 0.0
C524 C 0.86397 0.45045 0.92112 0.0
C525 C 0.82714 0.43574 0.94293 0.0
C526 C 0.86432 0.4589 1.00539 0.0
C527 C 0.90215 0.4704 0.98388 0.0
N528 N 0.93858 0.4705 0.92113 0.0
N529 N 0.79363 0.42174 1.00664 0.0
C530 C 0.90199 0.46452 0.94167 0.0
C531 C 0.8278 0.43879 0.98533 0.0
N532 N 0.86256 0.4517 0.88042 0.0
N533 N 0.86264 0.46888 0.0447 0.0
H534 H 0.76626 0.40803 0.99309 0.0
H535 H 0.79328 0.41874 0.03754 0.0
H536 H 0.88813 0.48413 0.06006 0.0
H537 H 0.83534 0.46521 0.06117 0.0
H538 H 0.8868 0.46627 0.86277 0.0
H539 H 0.83583 0.44101 0.8643 0.0
H540 H 0.94122 0.46221 0.89153 0.0
H541 H 0.96708 0.48034 0.93448 0.0
C542 C 0.70379 0.61665 0.48124 0.0
C543 C 0.70853 0.60795 0.44009 0.0
C544 C 0.63979 0.56385 0.44229 0.0
C545 C 0.63574 0.57133 0.48385 0.0
N546 N 0.66731 0.59965 0.54421 0.0
N547 N 0.68332 0.5688 0.38294 0.0
C548 C 0.66871 0.59644 0.50361 0.0
C549 C 0.67728 0.58 0.42125 0.0
N550 N 0.7328 0.64465 0.49898 0.0
N551 N 0.60677 0.54311 0.42213 0.0
H552 H 0.70869 0.58154 0.3656 0.0
H553 H 0.66473 0.54503 0.36913 0.0
H554 H 0.57888 0.53096 0.4359 0.0
H555 H 0.60551 0.54067 0.39121 0.0
H556 H 0.72908 0.65616 0.52711 0.0
H557 H 0.76 0.65807 0.48463 0.0
H558 H 0.69187 0.61397 0.56128 0.0
H559 H 0.64264 0.58504 0.5614 0.0
C560 C 0.20128 0.30805 0.15449 0.0
C561 C 0.23747 0.32689 0.13398 0.0
C562 C 0.19427 0.34596 0.08158 0.0
C563 C 0.15955 0.33636 0.10738 0.0
N564 N 0.12928 0.27985 0.14587 0.0
N565 N 0.26875 0.3609 0.0754 0.0
C566 C 0.16223 0.309 0.13783 0.0
C567 C 0.23412 0.34468 0.09646 0.0
N568 N 0.20384 0.29011 0.19027 0.0
N569 N 0.18836 0.35075 0.04183 0.0
H570 H 0.29841 0.35915 0.08462 0.0
H571 H 0.26794 0.37791 0.05003 0.0
H572 H 0.15874 0.3461 1.02977 0.0
H573 H 0.21211 0.35427 1.02074 0.0
H574 H 0.17788 0.27929 0.20774 0.0
H575 H 0.23184 0.28864 0.20373 0.0
H576 H 0.13071 0.257 0.16542 0.0
H577 H 0.10278 0.27577 0.12833 0.0
C578 C 0.55022 0.20101 0.96121 0.0
C579 C 0.58769 0.20464 0.93897 0.0
C580 C 0.58989 0.13613 0.95739 0.0
C581 C 0.55428 0.1336 0.98223 0.0
N582 N 0.50457 0.16672 1.01254 0.0
N583 N 0.64657 0.17705 0.92131 0.0
C584 C 0.53551 0.1669 0.98527 0.0
C585 C 0.60835 0.17248 0.93857 0.0
N586 N 0.5278 0.22978 0.95842 0.0
N587 N 0.60535 0.10324 0.95046 0.0
H588 H 0.66099 0.20281 0.90729 0.0
H589 H 0.6655 0.15667 0.9238 0.0
H590 H 0.59286 0.07635 0.96339 0.0
H591 H 0.62813 0.10167 0.92926 0.0
H592 H 0.49808 0.22725 0.96998 0.0
H593 H 0.53757 0.25504 0.94161 0.0
H594 H 0.49284 0.19136 1.01989 0.0
H595 H 0.49292 0.14266 1.03039 0.0
C596 C 0.97214 0.87662 0.4021 0.0
C597 C 0.93558 0.85126 0.41609 0.0
C598 C 0.93322 0.89769 0.47171 0.0
C599 C 0.9664 0.92545 0.45476 0.0
N600 N 1.01191 0.94288 0.39826 0.0
N601 N 0.87645 0.84332 0.46014 0.0
C602 C 0.98438 0.91524 0.41844 0.0
C603 C 0.91481 0.86344 0.44977 0.0
N604 N 0.99625 0.86345 0.37407 0.0
N605 N 0.92037 0.90266 0.50982 0.0
H606 H 0.86116 0.81906 0.44439 0.0
H607 H 0.85811 0.8532 0.48172 0.0
H608 H 0.93387 0.92594 0.52778 0.0
H609 H 0.89943 0.88141 0.52509 0.0
H610 H 0.02528 0.87894 0.36564 0.0
H611 H 0.98921 0.83531 0.3623 0.0
H612 H 0.02284 0.93837 0.36977 0.0
H613 H 0.02045 0.97164 0.40803 0.0
C614 C 0.3179 0.72139 0.62346 0.0
C615 C 0.31018 0.72774 0.66431 0.0
C616 C 0.36012 0.68789 0.68328 0.0
C617 C 0.37245 0.68697 0.64277 0.0
N618 N 0.36539 0.70476 0.57402 0.0
N619 N 0.32565 0.71971 0.73371 0.0
C620 C 0.35164 0.70384 0.61263 0.0
C621 C 0.33135 0.71128 0.69448 0.0
N622 N 0.29273 0.73206 0.59514 0.0
N623 N 0.37564 0.66604 0.7109 0.0
H624 H 0.30445 0.73628 0.74328 0.0
H625 H 0.34387 0.71252 0.75663 0.0
H626 H 0.3969 0.64867 0.70362 0.0
H627 H 0.36475 0.66234 0.74014 0.0
H628 H 0.29422 0.72499 0.56506 0.0
H629 H 0.26768 0.74489 0.60236 0.0
H630 H 0.35457 0.72054 0.55155 0.0
H631 H 0.38985 0.69198 0.56483 0.0
C632 C 0.7207 0.85512 0.65563 0.0
C633 C 0.74535 0.83932 0.68288 0.0
C634 C 0.80347 0.85227 0.63634 0.0
C635 C 0.78271 0.87783 0.61577 0.0
N636 N 0.71964 0.89706 0.59787 0.0
N637 N 0.80639 0.81421 0.6965 0.0
C638 C 0.74008 0.87607 0.62212 0.0
C639 C 0.78515 0.83386 0.67158 0.0
N640 N 0.67968 0.85196 0.66373 0.0
N641 N 0.84142 0.84777 0.6232 0.0
H642 H 0.79273 0.7997 0.72184 0.0
H643 H 0.8372 0.81247 0.69257 0.0
H644 H 0.85494 0.86158 0.59746 0.0
H645 H 0.85794 0.82838 0.63562 0.0
H646 H 0.65908 0.86189 0.64494 0.0
H647 H 0.66597 0.83671 0.68871 0.0
H648 H 0.68927 0.90008 0.60234 0.0
H649 H 0.7339 0.91169 0.57279 0.0
C650 C 0.81424 0.1604 0.20245 0.0
C651 C 0.81346 0.20039 0.19696 0.0
C652 C 0.76249 0.18349 0.14401 0.0
C653 C 0.7581 0.1436 0.15449 0.0
N654 N 0.77714 0.09376 0.19615 0.0
N655 N 0.78547 0.25076 0.16434 0.0
C656 C 0.78366 0.13181 0.18401 0.0
C657 C 0.78761 0.21227 0.16782 0.0
N658 N 0.84429 0.14991 0.22539 0.0
N659 N 0.74288 0.1937 0.11109 0.0
H660 H 0.8039 0.27278 0.1808 0.0
H661 H 0.76357 0.26062 0.14705 0.0
H662 H 0.72442 0.17318 0.09293 0.0
H663 H 0.74792 0.22195 0.09971 0.0
H664 H 0.84891 0.12138 0.22753 0.0
H665 H 0.86718 0.17037 0.23923 0.0
H666 H 0.79165 0.08439 0.22072 0.0
H667 H 0.7548 0.07183 0.18372 0.0
C668 C 0.47496 0.607 0.37414 0.0
C669 C 0.43213 0.60798 0.37105 0.0
C670 C 0.42056 0.5699 0.43448 0.0
C671 C 0.46377 0.57195 0.43925 0.0
N672 N 0.53252 0.59959 0.41641 0.0
N673 N 0.36526 0.59542 0.40279 0.0
C674 C 0.49099 0.59247 0.40975 0.0
C675 C 0.40531 0.59078 0.40256 0.0
N676 N 0.50042 0.61852 0.34228 0.0
N677 N 0.39373 0.54651 0.4595 0.0
H678 H 0.35313 0.61053 0.38049 0.0
H679 H 0.34514 0.58746 0.42673 0.0
H680 H 0.40366 0.53035 0.48224 0.0
H681 H 0.36191 0.54023 0.45544 0.0
H682 H 0.53076 0.61447 0.34066 0.0
H683 H 0.49017 0.62884 0.3158 0.0
H684 H 0.55392 0.61783 0.3985 0.0
H685 H 0.54534 0.59033 0.4421 0.0
C686 C 0.05805 0.42676 0.87578 0.0
C687 C 0.09738 0.44232 0.85825 0.0
C688 C 0.10686 0.49287 0.91171 0.0
C689 C 0.07101 0.47354 0.93274 0.0
N690 N 1.01263 0.41916 0.93343 0.0
N691 N 0.13544 0.50759 0.84608 0.0
C692 C 0.04693 0.4395 0.91453 0.0
C693 C 0.11605 0.48028 0.87244 0.0
N694 N 0.02811 0.40552 0.85241 0.0
N695 N 0.13308 0.52319 0.92921 0.0
H696 H 0.13209 0.50338 0.81538 0.0
H697 H 0.1471 0.53647 0.85409 0.0
H698 H 0.12856 0.53281 0.95804 0.0
H699 H 0.16139 0.53589 0.9164 0.0
H700 H 0.99754 0.39652 0.86159 0.0
H701 H 0.03225 0.40267 0.82174 0.0
H702 H 0.99766 0.39155 0.92412 0.0
H703 H 1.00014 0.42852 0.95936 0.0
C704 C 0.57476 0.9465 0.90608 0.0
C705 C 0.57142 0.90656 0.91626 0.0
C706 C 0.52133 0.91239 0.96874 0.0
C707 C 0.52648 0.95277 0.95995 0.0
N708 N 0.54609 1.00496 0.91293 0.0
N709 N 0.53305 0.84889 0.94781 0.0
C710 C 0.54895 0.96853 0.92578 0.0
C711 C 0.54144 0.88859 0.94426 0.0
N712 N 0.60466 0.9642 0.88004 0.0
N713 N 0.50003 0.89745 1.00207 0.0
H714 H 0.54772 0.83111 0.93006 0.0
H715 H 0.50913 0.83361 0.96536 0.0
H716 H 0.48461 0.91395 1.02035 0.0
H717 H 0.49945 0.86942 1.01279 0.0
H718 H 0.61179 0.99423 0.87545 0.0
H719 H 0.62435 0.94933 0.86478 0.0
H720 H 0.55903 1.01704 0.88627 0.0
H721 H 0.52714 1.02145 0.92717 0.0
C722 C 1.00085 0.18752 0.42811 0.0
C723 C 0.96427 0.18308 0.40527 0.0
C724 C 0.94861 0.11304 0.42028 0.0
C725 C 0.98608 0.11736 0.44162 0.0
N726 N 0.0532 0.15628 0.45613 0.0
N727 N 0.90904 0.14033 0.37105 0.0
C728 C 1.01404 0.15379 0.44222 0.0
C729 C 0.93978 0.14539 0.39877 0.0
N730 N 0.02184 0.22392 0.43821 0.0
N731 N 0.92129 0.07815 0.42087 0.0
H732 H 0.90242 0.16318 0.35394 0.0
H733 H 0.89279 0.11305 0.36225 0.0
H734 H 0.92787 0.05317 0.43423 0.0
H735 H 0.89135 0.07454 0.40998 0.0
H736 H 0.04597 0.22872 0.45858 0.0
H737 H 1.01272 0.24946 0.42925 0.0
H738 H 0.07599 0.18145 0.45384 0.0
H739 H 0.06419 0.13215 0.4662 0.0
C740 C 0.17212 0.6179 0.13696 0.0
C741 C 0.20952 0.6044 0.13038 0.0
C742 C 0.17334 0.55866 0.07928 0.0
C743 C 0.13514 0.56993 0.08827 0.0
N744 N 0.09732 0.60434 0.13302 0.0
N745 N 0.24328 0.55654 0.10001 0.0
C746 C 0.13439 0.59801 0.1191 0.0
C747 C 0.20934 0.57324 0.10282 0.0
N748 N 0.17271 0.65067 0.15936 0.0
N749 N 0.17582 0.53519 0.04711 0.0
H750 H 0.26986 0.56604 0.11674 0.0
H751 H 0.24377 0.53112 0.08396 0.0
H752 H 0.15063 0.52434 1.02902 0.0
H753 H 0.20352 0.52933 0.03617 0.0
H754 H 0.14771 0.66462 0.16156 0.0
H755 H 0.19937 0.66601 0.17288 0.0
H756 H 0.09438 0.62125 0.15808 0.0
H757 H 0.06908 0.58938 0.12227 0.0
C758 C 0.35928 0.41218 0.61901 0.0
C759 C 0.32845 0.43422 0.62794 0.0
C760 C 0.36947 0.48972 0.59026 0.0
C761 C 0.40228 0.46915 0.58509 0.0
N762 N 0.43055 0.41246 0.60061 0.0
N763 N 0.30686 0.49602 0.62614 0.0
C764 C 0.39761 0.43071 0.6009 0.0
C765 C 0.33428 0.47354 0.61453 0.0
N766 N 0.35156 0.3731 0.62703 0.0
N767 N 0.37121 0.52426 0.57074 0.0
H768 H 0.28069 0.48522 0.64333 0.0
H769 H 0.31168 0.52602 0.62146 0.0
H770 H 0.39596 0.53653 0.55241 0.0
H771 H 0.34674 0.53892 0.5697 0.0
H772 H 0.37057 0.35446 0.61734 0.0
H773 H 0.32417 0.35858 0.6403 0.0
H774 H 0.43077 0.38654 0.61577 0.0
H775 H 0.45911 0.42485 0.58818 0.0
C776 C 0.83186 0.71789 0.89705 0.0
C777 C 0.81965 0.74289 0.92619 0.0
C778 C 0.86699 0.72367 0.97461 0.0
C779 C 0.8792 0.69868 0.94546 0.0
N780 N 0.86715 0.6648 0.88272 0.0
N781 N 0.8179 0.76351 0.99457 0.0
C782 C 0.85955 0.69344 0.90785 0.0
C783 C 0.83472 0.74369 0.9657 0.0
N784 N 0.81851 0.71892 0.85863 0.0
N785 N 0.88748 0.72952 1.01008 0.0
H786 H 0.79428 0.77853 0.9887 0.0
H787 H 0.82465 0.76235 1.02476 0.0
H788 H 0.91076 0.71478 1.01794 0.0
H789 H 0.88334 0.75069 1.03073 0.0
H790 H 0.83027 0.70512 0.83494 0.0
H791 H 0.79724 0.7356 0.84979 0.0
H792 H 0.85073 0.65682 0.85663 0.0
H793 H 0.88759 0.64661 0.88965 0.0
C794 C 0.41984 0.85547 0.11121 0.0
C795 C 0.43359 0.84779 0.15007 0.0
C796 C 0.47775 0.91441 0.1498 0.0
C797 C 0.46184 0.92297 0.11207 0.0
N798 N 0.41132 0.90279 0.06056 0.0
N799 N 0.47006 0.87341 0.20921 0.0
C800 C 0.43074 0.89393 0.09415 0.0
C801 C 0.46118 0.87825 0.17002 0.0
N802 N 0.3982 0.82535 0.08928 0.0
N803 N 0.50868 0.94106 0.16675 0.0
H804 H 0.45801 0.84808 0.22513 0.0
H805 H 0.48617 0.89562 0.22705 0.0
H806 H 0.51912 0.96892 0.1551 0.0
H807 H 0.52552 0.9349 0.19122 0.0
H808 H 0.39142 0.82773 0.05921 0.0
H809 H 0.39045 0.79682 0.09992 0.0
H810 H 0.38493 0.88494 0.0492 0.0
H811 H 0.41966 0.92917 0.04543 0.0
C812 C 0.09301 0.16661 0.64549 0.0
C813 C 0.08963 0.20411 0.63076 0.0
C814 C 0.04798 0.17117 0.57461 0.0
C815 C 0.05506 0.13412 0.58705 0.0
N816 N 0.08859 0.09734 0.63237 0.0
N817 N 0.06835 0.24192 0.57772 0.0
C818 C 0.07868 0.13213 0.62206 0.0
C819 C 0.06817 0.20626 0.59438 0.0
N820 N 0.1088 0.16377 0.68268 0.0
N821 N 0.02067 0.17281 0.5446 0.0
H822 H 0.08242 0.26804 0.59117 0.0
H823 H 0.05758 0.24558 0.54915 0.0
H824 H 1.00494 0.14792 0.53019 0.0
H825 H 1.01071 0.19814 0.53652 0.0
H826 H 0.10824 0.13736 0.69715 0.0
H827 H 0.11924 0.18802 0.70069 0.0
H828 H 0.10969 0.09452 0.65454 0.0
H829 H 0.07797 0.07155 0.61672 0.0
C830 C 0.75349 0.4074 0.4067 0.0
C831 C 0.76035 0.36863 0.40589 0.0
C832 C 0.6907 0.34398 0.43231 0.0
C833 C 0.68388 0.38275 0.43324 0.0
N834 N 0.70976 0.45204 0.42785 0.0
N835 N 0.73921 0.30075 0.42354 0.0
C836 C 0.7157 0.41473 0.42253 0.0
C837 C 0.73009 0.33714 0.42064 0.0
N838 N 0.78267 0.43695 0.39111 0.0
N839 N 0.65896 0.31365 0.44128 0.0
H840 H 0.76724 0.29436 0.41405 0.0
H841 H 0.72037 0.27736 0.43784 0.0
H842 H 0.63018 0.31768 0.45141 0.0
H843 H 0.66008 0.28445 0.43671 0.0
H844 H 0.7779 0.46509 0.38625 0.0
H845 H 0.81146 0.43285 0.38111 0.0
H846 H 0.73292 0.47675 0.42456 0.0
H847 H 0.68205 0.45845 0.43826 0.0
loop_
_geom_bond_atom_site_label_1
_geom_bond_atom_site_label_2
_geom_bond_distance
_geom_bond_site_symmetry_2
_ccdc_geom_bond_type
P0 O11 1.490 . S
P0 C14 1.812 . S
P0 C20 1.803 . S
P0 C26 1.819 . S
H1 C15 0.941 . S
H2 C16 0.939 . S
H3 C18 0.940 . S
H4 C19 0.940 . S
H5 C21 0.939 . S
H6 C22 0.942 . S
H7 C24 0.940 . S
H8 C25 0.939 . S
H9 C27 0.941 . S
H10 C31 0.939 . S
O11 P0 1.490 . S
H12 C28 0.939 . S
H13 C30 0.940 . S
C14 P0 1.812 . S
C14 C15 1.389 . S
C14 C19 1.391 . S
C15 H1 0.941 . S
C15 C14 1.389 . S
C15 C16 1.397 . S
C16 H2 0.939 . S
C16 C15 1.397 . S
C16 C17 1.378 . S
C17 C16 1.378 . S
C17 C18 1.378 . S
C18 H3 0.940 . S
C18 C17 1.378 . S
C18 C19 1.396 . S
C19 H4 0.940 . S
C19 C14 1.391 . S
C19 C18 1.396 . S
C20 P0 1.803 . S
C20 C21 1.378 . S
C20 C25 1.400 . S
C21 H5 0.939 . S
C21 C20 1.378 . S
C21 C22 1.361 . S
C22 H6 0.942 . S
C22 C21 1.361 . S
C22 C23 1.369 . S
C23 C22 1.369 . S
C23 C24 1.404 . S
C24 H7 0.940 . S
C24 C23 1.404 . S
C24 C25 1.389 . S
C25 H8 0.939 . S
C25 C20 1.400 . S
C25 C24 1.389 . S
C26 P0 1.819 . S
C26 C27 1.391 . S
C26 C31 1.391 . S
C27 H9 0.941 . S
C27 C26 1.391 . S
C27 C28 1.396 . S
C28 H12 0.939 . S
C28 C27 1.396 . S
C28 C29 1.397 . S
C29 C28 1.397 . S
C29 C30 1.385 . S
C30 H13 0.940 . S
C30 C29 1.385 . S
C30 C31 1.388 . S
C31 H10 0.939 . S
C31 C26 1.391 . S
C31 C30 1.388 . S
P32 O43 1.490 . S
P32 C46 1.812 . S
P32 C52 1.803 . S
P32 C58 1.819 . S
H33 C47 0.941 . S
H34 C48 0.939 . S
H35 C50 0.940 . S
H36 C51 0.940 . S
H37 C53 0.939 . S
H38 C54 0.942 . S
H39 C56 0.940 . S
H40 C57 0.939 . S
H41 C59 0.941 . S
H42 C63 0.939 . S
O43 P32 1.490 . S
H44 C60 0.939 . S
H45 C62 0.940 . S
C46 P32 1.812 . S
C46 C47 1.389 . S
C46 C51 1.391 . S
C47 H33 0.941 . S
C47 C46 1.389 . S
C47 C48 1.397 . S
C48 H34 0.939 . S
C48 C47 1.397 . S
C48 C49 1.378 . S
C49 C48 1.378 . S
C49 C50 1.378 . S
C50 H35 0.940 . S
C50 C49 1.378 . S
C50 C51 1.396 . S
C51 H36 0.940 . S
C51 C46 1.391 . S
C51 C50 1.396 . S
C52 P32 1.803 . S
C52 C53 1.378 . S
C52 C57 1.400 . S
C53 H37 0.939 . S
C53 C52 1.378 . S
C53 C54 1.361 . S
C54 H38 0.942 . S
C54 C53 1.361 . S
C54 C55 1.369 . S
C55 C54 1.369 . S
C55 C56 1.404 . S
C56 H39 0.940 . S
C56 C55 1.404 . S
C56 C57 1.389 . S
C57 H40 0.939 . S
C57 C52 1.400 . S
C57 C56 1.389 . S
C58 P32 1.819 . S
C58 C59 1.391 . S
C58 C63 1.391 . S
C59 H41 0.941 . S
C59 C58 1.391 . S
C59 C60 1.396 . S
C60 H44 0.939 . S
C60 C59 1.396 . S
C60 C61 1.397 . S
C61 C60 1.397 . S
C61 C62 1.385 . S
C62 H45 0.940 . S
C62 C61 1.385 . S
C62 C63 1.388 . S
C63 H42 0.939 . S
C63 C58 1.391 . S
C63 C62 1.388 . S
P64 O75 1.490 . S
P64 C78 1.812 . S
P64 C84 1.803 . S
P64 C90 1.819 . S
H65 C79 0.941 . S
H66 C80 0.939 . S
H67 C82 0.940 . S
H68 C83 0.940 . S
H69 C85 0.939 . S
H70 C86 0.942 . S
H71 C88 0.940 . S
H72 C89 0.939 . S
H73 C91 0.941 . S
H74 C95 0.939 . S
O75 P64 1.490 . S
H76 C92 0.939 . S
H77 C94 0.940 . S
C78 P64 1.812 . S
C78 C79 1.389 . S
C78 C83 1.391 . S
C79 H65 0.941 . S
C79 C78 1.389 . S
C79 C80 1.397 . S
C80 H66 0.939 . S
C80 C79 1.397 . S
C80 C81 1.378 . S
C81 C80 1.378 . S
C81 C82 1.378 . S
C82 H67 0.940 . S
C82 C81 1.378 . S
C82 C83 1.396 . S
C83 H68 0.940 . S
C83 C78 1.391 . S
C83 C82 1.396 . S
C84 P64 1.803 . S
C84 C85 1.378 . S
C84 C89 1.400 . S
C85 H69 0.939 . S
C85 C84 1.378 . S
C85 C86 1.361 . S
C86 H70 0.942 . S
C86 C85 1.361 . S
C86 C87 1.369 . S
C87 C86 1.369 . S
C87 C88 1.404 . S
C88 H71 0.940 . S
C88 C87 1.404 . S
C88 C89 1.389 . S
C89 H72 0.939 . S
C89 C84 1.400 . S
C89 C88 1.389 . S
C90 P64 1.819 . S
C90 C91 1.391 . S
C90 C95 1.391 . S
C91 H73 0.941 . S
C91 C90 1.391 . S
C91 C92 1.396 . S
C92 H76 0.939 . S
C92 C91 1.396 . S
C92 C93 1.397 . S
C93 C92 1.397 . S
C93 C94 1.385 . S
C94 H77 0.940 . S
C94 C93 1.385 . S
C94 C95 1.388 . S
C95 H74 0.939 . S
C95 C90 1.391 . S
C95 C94 1.388 . S
P96 O107 1.490 . S
P96 C110 1.812 . S
P96 C116 1.803 . S
P96 C122 1.819 . S
H97 C111 0.941 . S
H98 C112 0.939 . S
H99 C114 0.940 . S
H100 C115 0.940 . S
H101 C117 0.939 . S
H102 C118 0.942 . S
H103 C120 0.940 . S
H104 C121 0.939 . S
H105 C123 0.941 . S
H106 C127 0.939 . S
O107 P96 1.490 . S
H108 C124 0.939 . S
H109 C126 0.940 . S
C110 P96 1.812 . S
C110 C111 1.389 . S
C110 C115 1.391 . S
C111 H97 0.941 . S
C111 C110 1.389 . S
C111 C112 1.397 . S
C112 H98 0.939 . S
C112 C111 1.397 . S
C112 C113 1.378 . S
C113 C112 1.378 . S
C113 C114 1.378 . S
C114 H99 0.940 . S
C114 C113 1.378 . S
C114 C115 1.396 . S
C115 H100 0.940 . S
C115 C110 1.391 . S
C115 C114 1.396 . S
C116 P96 1.803 . S
C116 C117 1.378 . S
C116 C121 1.400 . S
C117 H101 0.939 . S
C117 C116 1.378 . S
C117 C118 1.361 . S
C118 H102 0.942 . S
C118 C117 1.361 . S
C118 C119 1.369 . S
C119 C118 1.369 . S
C119 C120 1.404 . S
C120 H103 0.940 . S
C120 C119 1.404 . S
C120 C121 1.389 . S
C121 H104 0.939 . S
C121 C116 1.400 . S
C121 C120 1.389 . S
C122 P96 1.819 . S
C122 C123 1.391 . S
C122 C127 1.391 . S
C123 H105 0.941 . S
C123 C122 1.391 . S
C123 C124 1.396 . S
C124 H108 0.939 . S
C124 C123 1.396 . S
C124 C125 1.397 . S
C125 C124 1.397 . S
C125 C126 1.385 . S
C126 H109 0.940 . S
C126 C125 1.385 . S
C126 C127 1.388 . S
C127 H106 0.939 . S
C127 C122 1.391 . S
C127 C126 1.388 . S
P128 O139 1.490 . S
P128 C142 1.812 . S
P128 C148 1.803 . S
P128 C154 1.819 . S
H129 C143 0.941 . S
H130 C144 0.939 . S
H131 C146 0.940 . S
H132 C147 0.940 . S
H133 C149 0.939 . S
H134 C150 0.942 . S
H135 C152 0.940 . S
H136 C153 0.939 . S
H137 C155 0.941 . S
H138 C159 0.939 . S
O139 P128 1.490 . S
H140 C156 0.939 . S
H141 C158 0.940 . S
C142 P128 1.812 . S
C142 C143 1.389 . S
C142 C147 1.391 . S
C143 H129 0.941 . S
C143 C142 1.389 . S
C143 C144 1.397 . S
C144 H130 0.939 . S
C144 C143 1.397 . S
C144 C145 1.378 . S
C145 C144 1.378 . S
C145 C146 1.378 . S
C146 H131 0.940 . S
C146 C145 1.378 . S
C146 C147 1.396 . S
C147 H132 0.940 . S
C147 C142 1.391 . S
C147 C146 1.396 . S
C148 P128 1.803 . S
C148 C149 1.378 . S
C148 C153 1.400 . S
C149 H133 0.939 . S
C149 C148 1.378 . S
C149 C150 1.361 . S
C150 H134 0.942 . S
C150 C149 1.361 . S
C150 C151 1.369 . S
C151 C150 1.369 . S
C151 C152 1.404 . S
C152 H135 0.940 . S
C152 C151 1.404 . S
C152 C153 1.389 . S
C153 H136 0.939 . S
C153 C148 1.400 . S
C153 C152 1.389 . S
C154 P128 1.819 . S
C154 C155 1.391 . S
C154 C159 1.391 . S
C155 H137 0.941 . S
C155 C154 1.391 . S
C155 C156 1.396 . S
C156 H140 0.939 . S
C156 C155 1.396 . S
C156 C157 1.397 . S
C157 C156 1.397 . S
C157 C158 1.385 . S
C158 H141 0.940 . S
C158 C157 1.385 . S
C158 C159 1.388 . S
C159 H138 0.939 . S
C159 C154 1.391 . S
C159 C158 1.388 . S
P160 O171 1.490 . S
P160 C174 1.812 . S
P160 C180 1.803 . S
P160 C186 1.819 . S
H161 C175 0.941 . S
H162 C176 0.939 . S
H163 C178 0.940 . S
H164 C179 0.940 . S
H165 C181 0.939 . S
H166 C182 0.942 1_455 S
H167 C184 0.940 . S
H168 C185 0.939 . S
H169 C187 0.941 . S
H170 C191 0.939 . S
O171 P160 1.490 . S
H172 C188 0.939 . S
H173 C190 0.940 . S
C174 P160 1.812 . S
C174 C175 1.389 . S
C174 C179 1.391 . S
C175 H161 0.941 . S
C175 C174 1.389 . S
C175 C176 1.397 . S
C176 H162 0.939 . S
C176 C175 1.397 . S
C176 C177 1.378 . S
C177 C176 1.378 . S
C177 C178 1.378 . S
C178 H163 0.940 . S
C178 C177 1.378 . S
C178 C179 1.396 . S
C179 H164 0.940 . S
C179 C174 1.391 . S
C179 C178 1.396 . S
C180 P160 1.803 . S
C180 C181 1.378 . S
C180 C185 1.400 . S
C181 H165 0.939 . S
C181 C180 1.378 . S
C181 C182 1.361 . S
C182 H166 0.942 1_655 S
C182 C181 1.361 . S
C182 C183 1.369 . S
C183 C182 1.369 . S
C183 C184 1.404 . S
C184 H167 0.940 . S
C184 C183 1.404 . S
C184 C185 1.389 . S
C185 H168 0.939 . S
C185 C180 1.400 . S
C185 C184 1.389 . S
C186 P160 1.819 . S
C186 C187 1.391 . S
C186 C191 1.391 . S
C187 H169 0.941 . S
C187 C186 1.391 . S
C187 C188 1.396 . S
C188 H172 0.939 . S
C188 C187 1.396 . S
C188 C189 1.397 . S
C189 C188 1.397 . S
C189 C190 1.385 . S
C190 H173 0.940 . S
C190 C189 1.385 . S
C190 C191 1.388 . S
C191 H170 0.939 . S
C191 C186 1.391 . S
C191 C190 1.388 . S
P192 O203 1.490 . S
P192 C206 1.812 . S
P192 C212 1.803 . S
P192 C218 1.819 . S
H193 C207 0.941 . S
H194 C208 0.939 . S
H195 C210 0.940 . S
H196 C211 0.940 . S
H197 C213 0.939 . S
H198 C214 0.942 . S
H199 C216 0.940 . S
H200 C217 0.939 . S
H201 C219 0.941 . S
H202 C223 0.939 . S
O203 P192 1.490 . S
H204 C220 0.939 . S
H205 C222 0.940 . S
C206 P192 1.812 . S
C206 C207 1.389 . S
C206 C211 1.391 . S
C207 H193 0.941 . S
C207 C206 1.389 . S
C207 C208 1.397 . S
C208 H194 0.939 . S
C208 C207 1.397 . S
C208 C209 1.378 . S
C209 C208 1.378 . S
C209 C210 1.378 . S
C210 H195 0.940 . S
C210 C209 1.378 . S
C210 C211 1.396 . S
C211 H196 0.940 . S
C211 C206 1.391 . S
C211 C210 1.396 . S
C212 P192 1.803 . S
C212 C213 1.378 . S
C212 C217 1.400 . S
C213 H197 0.939 . S
C213 C212 1.378 . S
C213 C214 1.361 . S
C214 H198 0.942 . S
C214 C213 1.361 . S
C214 C215 1.369 . S
C215 C214 1.369 . S
C215 C216 1.404 . S
C216 H199 0.940 . S
C216 C215 1.404 . S
C216 C217 1.389 . S
C217 H200 0.939 . S
C217 C212 1.400 . S
C217 C216 1.389 . S
C218 P192 1.819 . S
C218 C219 1.391 . S
C218 C223 1.391 . S
C219 H201 0.941 . S
C219 C218 1.391 . S
C219 C220 1.396 . S
C220 H204 0.939 . S
C220 C219 1.396 . S
C220 C221 1.397 . S
C221 C220 1.397 . S
C221 C222 1.385 . S
C222 H205 0.940 . S
C222 C221 1.385 . S
C222 C223 1.388 . S
C223 H202 0.939 . S
C223 C218 1.391 . S
C223 C222 1.388 . S
P224 O235 1.490 . S
P224 C238 1.812 . S
P224 C244 1.803 . S
P224 C250 1.819 . S
H225 C239 0.941 . S
H226 C240 0.939 . S
H227 C242 0.940 . S
H228 C243 0.940 . S
H229 C245 0.939 . S
H230 C246 0.942 . S
H231 C248 0.940 . S
H232 C249 0.939 . S
H233 C251 0.941 . S
H234 C255 0.939 . S
O235 P224 1.490 . S
H236 C252 0.939 . S
H237 C254 0.940 . S
C238 P224 1.812 . S
C238 C239 1.389 . S
C238 C243 1.391 . S
C239 H225 0.941 . S
C239 C238 1.389 . S
C239 C240 1.397 . S
C240 H226 0.939 . S
C240 C239 1.397 . S
C240 C241 1.378 . S
C241 C240 1.378 . S
C241 C242 1.378 . S
C242 H227 0.940 . S
C242 C241 1.378 . S
C242 C243 1.396 . S
C243 H228 0.940 . S
C243 C238 1.391 . S
C243 C242 1.396 . S
C244 P224 1.803 . S
C244 C245 1.378 . S
C244 C249 1.400 . S
C245 H229 0.939 . S
C245 C244 1.378 . S
C245 C246 1.361 . S
C246 H230 0.942 . S
C246 C245 1.361 . S
C246 C247 1.369 . S
C247 C246 1.369 . S
C247 C248 1.404 . S
C248 H231 0.940 . S
C248 C247 1.404 . S
C248 C249 1.389 . S
C249 H232 0.939 . S
C249 C244 1.400 . S
C249 C248 1.389 . S
C250 P224 1.819 . S
C250 C251 1.391 . S
C250 C255 1.391 . S
C251 H233 0.941 . S
C251 C250 1.391 . S
C251 C252 1.396 . S
C252 H236 0.939 . S
C252 C251 1.396 . S
C252 C253 1.397 . S
C253 C252 1.397 . S
C253 C254 1.385 . S
C254 H237 0.940 . S
C254 C253 1.385 . S
C254 C255 1.388 . S
C255 H234 0.939 . S
C255 C250 1.391 . S
C255 C254 1.388 . S
Tb256 C265 2.764 . S
Tb256 O266 2.325 . S
Tb256 O269 2.303 . S
Tb256 O273 2.322 1_545 S
Tb256 O274 2.349 1_545 S
Tb256 O277 2.415 . S
Tb256 O278 2.399 . S
Tb257 O267 2.322 . S
Tb257 O268 2.349 . S
Tb257 O270 2.415 1_545 S
Tb257 O271 2.399 1_545 S
Tb257 O272 2.325 1_645 S
Tb257 O275 2.303 1_545 S
Tb257 C286 2.764 1_545 S
C258 O274 1.261 1_655 S
C258 O275 1.257 . S
C259 C262 1.358 . S
C259 C263 1.332 . S
C259 C265 1.504 . S
C260 C261 1.373 . S
C260 C264 1.308 . S
C261 C260 1.373 . S
C261 C262 1.429 . S
C261 H288 0.932 . S
C262 C259 1.358 . S
C262 C261 1.429 . S
C262 H289 0.930 . S
C263 C259 1.332 . S
C263 C264 1.394 . S
C263 H290 0.932 . S
C264 C260 1.308 . S
C264 C263 1.394 . S
C264 H291 0.929 . S
C265 Tb256 2.764 . S
C265 C259 1.504 . S
C265 O277 1.239 . S
C265 O278 1.263 . S
O266 Tb256 2.325 . S
O266 C276 1.236 1_455 S
O267 Tb257 2.322 . S
O267 C276 1.257 . S
O268 Tb257 2.349 . S
O268 C279 1.261 1_655 S
O269 Tb256 2.303 . S
O269 C279 1.257 . S
O270 Tb257 2.415 1_565 S
O270 C286 1.239 . S
O271 Tb257 2.399 1_565 S
O271 C286 1.263 . S
O272 Tb257 2.325 1_465 S
O272 C287 1.236 . S
O273 Tb256 2.322 1_565 S
O273 C287 1.257 . S
O274 Tb256 2.349 1_565 S
O274 C258 1.261 1_455 S
O275 Tb257 2.303 1_565 S
O275 C258 1.257 . S
C276 O266 1.236 1_655 S
C276 O267 1.257 . S
O277 Tb256 2.415 . S
O277 C265 1.239 . S
O278 Tb256 2.399 . S
O278 C265 1.263 . S
C279 O268 1.261 1_455 S
C279 O269 1.257 . S
C280 C283 1.358 . S
C280 C284 1.332 . S
C280 C286 1.504 . S
C281 C282 1.373 . S
C281 C285 1.308 . S
C282 C281 1.373 . S
C282 C283 1.429 . S
C282 H292 0.932 . S
C283 C280 1.358 . S
C283 C282 1.429 . S
C283 H293 0.930 . S
C284 C280 1.332 . S
C284 C285 1.394 . S
C284 H294 0.932 . S
C285 C281 1.308 . S
C285 C284 1.394 . S
C285 H295 0.929 . S
C286 Tb257 2.764 1_565 S
C286 O270 1.239 . S
C286 O271 1.263 . S
C286 C280 1.504 . S
C287 O272 1.236 . S
C287 O273 1.257 . S
H288 C261 0.932 . S
H289 C262 0.930 . S
H290 C263 0.932 . S
H291 C264 0.929 . S
H292 C282 0.932 . S
H293 C283 0.930 . S
H294 C284 0.932 . S
H295 C285 0.929 . S
Tb296 C305 2.764 . S
Tb296 O306 2.325 1_554 S
Tb296 O309 2.303 . S
Tb296 O313 2.322 1_545 S
Tb296 O314 2.365 1_545 S
Tb296 O317 2.415 . S
Tb296 O318 2.399 . S
Tb297 O307 2.322 . S
Tb297 O308 2.349 1_556 S
Tb297 O310 2.415 1_545 S
Tb297 O311 2.399 1_545 S
Tb297 O312 2.325 1_546 S
Tb297 O315 2.303 1_545 S
Tb297 C326 2.764 1_545 S
C298 O314 1.243 1_556 S
C298 O315 1.257 . S
C299 C302 1.358 . S
C299 C303 1.332 . S
C299 C305 1.504 . S
C300 C301 1.373 . S
C300 C304 1.308 . S
C301 C300 1.373 . S
C301 C302 1.429 . S
C301 H328 0.932 . S
C302 C299 1.358 . S
C302 C301 1.429 . S
C302 H329 0.930 . S
C303 C299 1.332 . S
C303 C304 1.394 . S
C303 H330 0.932 . S
C304 C300 1.308 . S
C304 C303 1.394 . S
C304 H331 0.929 . S
C305 Tb296 2.764 . S
C305 C299 1.504 . S
C305 O317 1.239 . S
C305 O318 1.263 . S
O306 Tb296 2.325 1_556 S
O306 C316 1.236 . S
O307 Tb297 2.322 . S
O307 C316 1.257 . S
O308 Tb297 2.349 1_554 S
O308 C319 1.261 . S
O309 Tb296 2.303 . S
O309 C319 1.257 . S
O310 Tb297 2.415 1_565 S
O310 C326 1.239 . S
O311 Tb297 2.399 1_565 S
O311 C326 1.263 . S
O312 Tb297 2.325 1_564 S
O312 C327 1.236 . S
O313 Tb296 2.322 1_565 S
O313 C327 1.257 . S
O314 Tb296 2.365 1_565 S
O314 C298 1.243 1_554 S
O315 Tb297 2.303 1_565 S
O315 C298 1.257 . S
C316 O306 1.236 . S
C316 O307 1.257 . S
O317 Tb296 2.415 . S
O317 C305 1.239 . S
O318 Tb296 2.399 . S
O318 C305 1.263 . S
C319 O308 1.261 . S
C319 O309 1.257 . S
C320 C323 1.358 . S
C320 C324 1.332 . S
C320 C326 1.504 . S
C321 C322 1.373 . S
C321 C325 1.308 . S
C322 C321 1.373 . S
C322 C323 1.429 . S
C322 H332 0.932 . S
C323 C320 1.358 . S
C323 C322 1.429 . S
C323 H333 0.930 . S
C324 C320 1.332 . S
C324 C325 1.394 . S
C324 H334 0.932 . S
C325 C321 1.308 . S
C325 C324 1.394 . S
C325 H335 0.929 . S
C326 Tb297 2.764 1_565 S
C326 O310 1.239 . S
C326 O311 1.263 . S
C326 C320 1.504 . S
C327 O312 1.236 . S
C327 O313 1.257 . S
H328 C301 0.932 . S
H329 C302 0.930 . S
H330 C303 0.932 . S
H331 C304 0.929 . S
H332 C322 0.932 . S
H333 C323 0.930 . S
H334 C324 0.932 . S
H335 C325 0.929 . S
Tb336 C345 2.764 . S
Tb336 O346 2.325 . S
Tb336 O349 2.303 . S
Tb336 O353 2.322 . S
Tb336 O354 2.349 . S
Tb336 O357 2.415 . S
Tb336 O358 2.399 . S
Tb337 O347 2.322 . S
Tb337 O348 2.349 . S
Tb337 O350 2.415 . S
Tb337 O351 2.399 . S
Tb337 O352 2.325 . S
Tb337 O355 2.303 . S
Tb337 C366 2.764 . S
C338 O354 1.261 . S
C338 O355 1.257 . S
C339 C342 1.358 . S
C339 C343 1.332 . S
C339 C345 1.504 . S
C340 C341 1.373 . S
C340 C344 1.308 . S
C341 C340 1.373 . S
C341 C342 1.429 . S
C341 H368 0.932 . S
C342 C339 1.358 . S
C342 C341 1.429 . S
C342 H369 0.930 . S
C343 C339 1.332 . S
C343 C344 1.394 . S
C343 H370 0.932 . S
C344 C340 1.308 . S
C344 C343 1.394 . S
C344 H371 0.929 . S
C345 Tb336 2.764 . S
C345 C339 1.504 . S
C345 O357 1.239 . S
C345 O358 1.263 . S
O346 Tb336 2.325 . S
O346 C356 1.236 . S
O347 Tb337 2.322 . S
O347 C356 1.257 . S
O348 Tb337 2.349 . S
O348 C359 1.261 . S
O349 Tb336 2.303 . S
O349 C359 1.257 . S
O350 Tb337 2.415 . S
O350 C366 1.239 . S
O351 Tb337 2.399 . S
O351 C366 1.263 . S
O352 Tb337 2.325 . S
O352 C367 1.236 . S
O353 Tb336 2.322 . S
O353 C367 1.257 . S
O354 Tb336 2.349 . S
O354 C338 1.261 . S
O355 Tb337 2.303 . S
O355 C338 1.257 . S
C356 O346 1.236 . S
C356 O347 1.257 . S
O357 Tb336 2.415 . S
O357 C345 1.239 . S
O358 Tb336 2.399 . S
O358 C345 1.263 . S
C359 O348 1.261 . S
C359 O349 1.257 . S
C360 C363 1.358 . S
C360 C364 1.332 . S
C360 C366 1.504 . S
C361 C362 1.373 . S
C361 C365 1.308 . S
C362 C361 1.373 . S
C362 C363 1.429 . S
C362 H372 0.932 . S
C363 C360 1.358 . S
C363 C362 1.429 . S
C363 H373 0.930 . S
C364 C360 1.332 . S
C364 C365 1.394 . S
C364 H374 0.932 . S
C365 C361 1.308 . S
C365 C364 1.394 . S
C365 H375 0.929 . S
C366 Tb337 2.764 . S
C366 O350 1.239 . S
C366 O351 1.263 . S
C366 C360 1.504 . S
C367 O352 1.236 . S
C367 O353 1.257 . S
H368 C341 0.932 . S
H369 C342 0.930 . S
H370 C343 0.932 . S
H371 C344 0.929 . S
H372 C362 0.932 . S
H373 C363 0.930 . S
H374 C364 0.932 . S
H375 C365 0.929 . S
Tb376 C385 2.764 . S
Tb376 O386 2.325 . S
Tb376 O389 2.303 1_556 S
Tb376 O393 2.323 1_655 S
Tb376 O394 2.349 1_655 S
Tb376 O397 2.415 . S
Tb376 O398 2.399 . S
Tb377 O387 2.322 1_455 S
Tb377 O388 2.349 1_455 S
Tb377 O390 2.415 . S
Tb377 O391 2.399 . S
Tb377 O392 2.325 . S
Tb377 O395 2.303 1_554 S
Tb377 C406 2.764 . S
C378 O394 1.261 . S
C378 O395 1.257 . S
C379 C382 1.358 . S
C379 C383 1.332 . S
C379 C385 1.504 . S
C380 C381 1.373 . S
C380 C384 1.308 . S
C381 C380 1.373 . S
C381 C382 1.429 . S
C381 H408 0.932 . S
C382 C379 1.358 . S
C382 C381 1.429 . S
C382 H409 0.930 . S
C383 C379 1.332 . S
C383 C384 1.394 . S
C383 H410 0.932 . S
C384 C380 1.308 . S
C384 C383 1.394 . S
C384 H411 0.929 . S
C385 Tb376 2.764 . S
C385 C379 1.504 . S
C385 O397 1.239 . S
C385 O398 1.263 . S
O386 Tb376 2.325 . S
O386 C396 1.236 . S
O387 Tb377 2.322 1_655 S
O387 C396 1.257 1_554 S
O388 Tb377 2.349 1_655 S
O388 C399 1.261 . S
O389 Tb376 2.303 1_554 S
O389 C399 1.257 . S
O390 Tb377 2.415 . S
O390 C406 1.239 . S
O391 Tb377 2.399 . S
O391 C406 1.263 . S
O392 Tb377 2.325 . S
O392 C407 1.236 . S
O393 Tb376 2.323 1_455 S
O393 C407 1.256 1_556 S
O394 Tb376 2.349 1_455 S
O394 C378 1.261 . S
O395 Tb377 2.303 1_556 S
O395 C378 1.257 . S
C396 O386 1.236 . S
C396 O387 1.257 1_556 S
O397 Tb376 2.415 . S
O397 C385 1.239 . S
O398 Tb376 2.399 . S
O398 C385 1.263 . S
C399 O388 1.261 . S
C399 O389 1.257 . S
C400 C403 1.358 . S
C400 C404 1.332 . S
C400 C406 1.504 . S
C401 C402 1.373 . S
C401 C405 1.308 . S
C402 C401 1.373 . S
C402 C403 1.429 . S
C402 H412 0.932 . S
C403 C400 1.358 . S
C403 C402 1.429 . S
C403 H413 0.930 . S
C404 C400 1.332 . S
C404 C405 1.394 . S
C404 H414 0.932 . S
C405 C401 1.308 . S
C405 C404 1.394 . S
C405 H415 0.929 . S
C406 Tb377 2.764 . S
C406 O390 1.239 . S
C406 O391 1.263 . S
C406 C400 1.504 . S
C407 O392 1.236 . S
C407 O393 1.256 1_554 S
H408 C381 0.932 . S
H409 C382 0.930 . S
H410 C383 0.932 . S
H411 C384 0.929 . S
H412 C402 0.932 . S
H413 C403 0.930 . S
H414 C404 0.932 . S
H415 C405 0.929 . S
C416 C417 1.363 . S
C416 C422 1.379 . S
C416 N424 1.356 . S
C417 C416 1.363 . S
C417 C423 1.363 . S
C418 C419 1.363 . S
C418 C423 1.379 . S
C418 N425 1.356 . S
C419 C418 1.363 . S
C419 C422 1.363 . S
N420 C422 1.356 . S
N420 H432 0.984 . S
N420 H433 0.985 . S
N421 C423 1.356 . S
N421 H426 0.984 . S
N421 H427 0.985 . S
C422 C416 1.379 . S
C422 C419 1.363 . S
C422 N420 1.356 . S
C423 C417 1.363 . S
C423 C418 1.379 . S
C423 N421 1.356 . S
N424 C416 1.356 . S
N424 H430 0.984 . S
N424 H431 0.984 . S
N425 C418 1.356 . S
N425 H428 0.984 . S
N425 H429 0.985 . S
H426 N421 0.984 . S
H427 N421 0.985 . S
H428 N425 0.984 . S
H429 N425 0.985 . S
H430 N424 0.984 . S
H431 N424 0.984 . S
H432 N420 0.984 . S
H433 N420 0.985 . S
C434 C435 1.363 . S
C434 C440 1.379 . S
C434 N442 1.356 . S
C435 C434 1.363 . S
C435 C441 1.363 . S
C436 C437 1.363 . S
C436 C441 1.379 . S
C436 N443 1.356 . S
C437 C436 1.363 . S
C437 C440 1.363 . S
N438 C440 1.356 . S
N438 H450 0.984 . S
N438 H451 0.985 . S
N439 C441 1.356 . S
N439 H444 0.984 . S
N439 H445 0.985 . S
C440 C434 1.379 . S
C440 C437 1.363 . S
C440 N438 1.356 . S
C441 C435 1.363 . S
C441 C436 1.379 . S
C441 N439 1.356 . S
N442 C434 1.356 . S
N442 H448 0.984 . S
N442 H449 0.984 . S
N443 C436 1.356 . S
N443 H446 0.984 . S
N443 H447 0.985 . S
H444 N439 0.984 . S
H445 N439 0.985 . S
H446 N443 0.984 . S
H447 N443 0.985 . S
H448 N442 0.984 . S
H449 N442 0.984 . S
H450 N438 0.984 . S
H451 N438 0.985 . S
C452 C453 1.363 . S
C452 C458 1.379 . S
C452 N460 1.356 . S
C453 C452 1.363 . S
C453 C459 1.363 . S
C454 C455 1.363 . S
C454 C459 1.379 . S
C454 N461 1.356 . S
C455 C454 1.363 . S
C455 C458 1.363 . S
N456 C458 1.356 . S
N456 H468 0.984 . S
N456 H469 0.985 . S
N457 C459 1.356 . S
N457 H462 0.984 . S
N457 H463 0.985 . S
C458 C452 1.379 . S
C458 C455 1.363 . S
C458 N456 1.356 . S
C459 C453 1.363 . S
C459 C454 1.379 . S
C459 N457 1.356 . S
N460 C452 1.356 . S
N460 H466 0.984 . S
N460 H467 0.984 . S
N461 C454 1.356 . S
N461 H464 0.984 . S
N461 H465 0.985 . S
H462 N457 0.984 . S
H463 N457 0.985 . S
H464 N461 0.984 . S
H465 N461 0.985 . S
H466 N460 0.984 . S
H467 N460 0.984 . S
H468 N456 0.984 . S
H469 N456 0.985 . S
C470 C471 1.363 . S
C470 C476 1.379 . S
C470 N478 1.356 . S
C471 C470 1.363 . S
C471 C477 1.363 . S
C472 C473 1.363 . S
C472 C477 1.379 . S
C472 N479 1.356 . S
C473 C472 1.363 . S
C473 C476 1.363 . S
N474 C476 1.356 . S
N474 H486 0.984 . S
N474 H487 0.985 . S
N475 C477 1.356 . S
N475 H480 0.984 . S
N475 H481 0.985 . S
C476 C470 1.379 . S
C476 C473 1.363 . S
C476 N474 1.356 . S
C477 C471 1.363 . S
C477 C472 1.379 . S
C477 N475 1.356 . S
N478 C470 1.356 . S
N478 H484 0.984 . S
N478 H485 0.984 . S
N479 C472 1.356 . S
N479 H482 0.984 . S
N479 H483 0.985 . S
H480 N475 0.984 . S
H481 N475 0.985 . S
H482 N479 0.984 . S
H483 N479 0.985 . S
H484 N478 0.984 . S
H485 N478 0.984 . S
H486 N474 0.984 . S
H487 N474 0.985 . S
C488 C489 1.363 . S
C488 C494 1.379 . S
C488 N496 1.356 . S
C489 C488 1.363 . S
C489 C495 1.363 . S
C490 C491 1.363 . S
C490 C495 1.379 . S
C490 N497 1.356 . S
C491 C490 1.363 . S
C491 C494 1.363 . S
N492 C494 1.356 . S
N492 H504 0.984 . S
N492 H505 0.985 . S
N493 C495 1.356 . S
N493 H498 0.984 . S
N493 H499 0.985 . S
C494 C488 1.379 . S
C494 C491 1.363 . S
C494 N492 1.356 . S
C495 C489 1.363 . S
C495 C490 1.379 . S
C495 N493 1.356 . S
N496 C488 1.356 . S
N496 H502 0.984 . S
N496 H503 0.984 . S
N497 C490 1.356 . S
N497 H500 0.984 . S
N497 H501 0.985 . S
H498 N493 0.984 . S
H499 N493 0.985 . S
H500 N497 0.984 . S
H501 N497 0.985 . S
H502 N496 0.984 . S
H503 N496 0.984 . S
H504 N492 0.984 . S
H505 N492 0.985 . S
C506 C507 1.363 . S
C506 C512 1.379 . S
C506 N514 1.356 . S
C507 C506 1.363 . S
C507 C513 1.363 . S
C508 C509 1.363 . S
C508 C513 1.379 . S
C508 N515 1.356 . S
C509 C508 1.363 . S
C509 C512 1.363 . S
N510 C512 1.356 . S
N510 H522 0.984 . S
N510 H523 0.985 . S
N511 C513 1.356 . S
N511 H516 0.984 . S
N511 H517 0.985 1_455 S
C512 C506 1.379 . S
C512 C509 1.363 . S
C512 N510 1.356 . S
C513 C507 1.363 . S
C513 C508 1.379 . S
C513 N511 1.356 . S
N514 C506 1.356 . S
N514 H520 0.984 . S
N514 H521 0.984 . S
N515 C508 1.356 . S
N515 H518 0.984 . S
N515 H519 0.985 1_455 S
H516 N511 0.984 . S
H517 N511 0.985 1_655 S
H518 N515 0.984 . S
H519 N515 0.985 1_655 S
H520 N514 0.984 . S
H521 N514 0.984 . S
H522 N510 0.984 . S
H523 N510 0.985 . S
C524 C525 1.363 . S
C524 C530 1.379 . S
C524 N532 1.356 . S
C525 C524 1.363 . S
C525 C531 1.363 . S
C526 C527 1.363 . S
C526 C531 1.379 . S
C526 N533 1.356 1_556 S
C527 C526 1.363 . S
C527 C530 1.363 . S
N528 C530 1.356 . S
N528 H540 0.984 . S
N528 H541 0.985 . S
N529 C531 1.356 . S
N529 H534 0.984 . S
N529 H535 0.985 . S
C530 C524 1.379 . S
C530 C527 1.363 . S
C530 N528 1.356 . S
C531 C525 1.363 . S
C531 C526 1.379 . S
C531 N529 1.356 . S
N532 C524 1.356 . S
N532 H538 0.984 . S
N532 H539 0.984 . S
N533 C526 1.356 1_554 S
N533 H536 0.984 . S
N533 H537 0.985 . S
H534 N529 0.984 . S
H535 N529 0.985 . S
H536 N533 0.984 . S
H537 N533 0.985 . S
H538 N532 0.984 . S
H539 N532 0.984 . S
H540 N528 0.984 . S
H541 N528 0.985 . S
C542 C543 1.363 . S
C542 C548 1.379 . S
C542 N550 1.356 . S
C543 C542 1.363 . S
C543 C549 1.363 . S
C544 C545 1.363 . S
C544 C549 1.379 . S
C544 N551 1.356 . S
C545 C544 1.363 . S
C545 C548 1.363 . S
N546 C548 1.356 . S
N546 H558 0.984 . S
N546 H559 0.985 . S
N547 C549 1.356 . S
N547 H552 0.984 . S
N547 H553 0.985 . S
C548 C542 1.379 . S
C548 C545 1.363 . S
C548 N546 1.356 . S
C549 C543 1.363 . S
C549 C544 1.379 . S
C549 N547 1.356 . S
N550 C542 1.356 . S
N550 H556 0.984 . S
N550 H557 0.984 . S
N551 C544 1.356 . S
N551 H554 0.984 . S
N551 H555 0.985 . S
H552 N547 0.984 . S
H553 N547 0.985 . S
H554 N551 0.984 . S
H555 N551 0.985 . S
H556 N550 0.984 . S
H557 N550 0.984 . S
H558 N546 0.984 . S
H559 N546 0.985 . S
C560 C561 1.363 . S
C560 C566 1.379 . S
C560 N568 1.356 . S
C561 C560 1.363 . S
C561 C567 1.363 . S
C562 C563 1.363 . S
C562 C567 1.379 . S
C562 N569 1.356 . S
C563 C562 1.363 . S
C563 C566 1.363 . S
N564 C566 1.356 . S
N564 H576 0.984 . S
N564 H577 0.985 . S
N565 C567 1.356 . S
N565 H570 0.984 . S
N565 H571 0.985 . S
C566 C560 1.379 . S
C566 C563 1.363 . S
C566 N564 1.356 . S
C567 C561 1.363 . S
C567 C562 1.379 . S
C567 N565 1.356 . S
N568 C560 1.356 . S
N568 H574 0.984 . S
N568 H575 0.984 . S
N569 C562 1.356 . S
N569 H572 0.984 . S
N569 H573 0.985 . S
H570 N565 0.984 . S
H571 N565 0.985 . S
H572 N569 0.984 . S
H573 N569 0.985 . S
H574 N568 0.984 . S
H575 N568 0.984 . S
H576 N564 0.984 . S
H577 N564 0.985 . S
C578 C579 1.363 . S
C578 C584 1.379 . S
C578 N586 1.356 . S
C579 C578 1.363 . S
C579 C585 1.363 . S
C580 C581 1.363 . S
C580 C585 1.379 . S
C580 N587 1.356 . S
C581 C580 1.363 . S
C581 C584 1.363 . S
N582 C584 1.356 . S
N582 H594 0.984 . S
N582 H595 0.985 . S
N583 C585 1.356 . S
N583 H588 0.984 . S
N583 H589 0.985 . S
C584 C578 1.379 . S
C584 C581 1.363 . S
C584 N582 1.356 . S
C585 C579 1.363 . S
C585 C580 1.379 . S
C585 N583 1.356 . S
N586 C578 1.356 . S
N586 H592 0.984 . S
N586 H593 0.984 . S
N587 C580 1.356 . S
N587 H590 0.984 . S
N587 H591 0.985 . S
H588 N583 0.984 . S
H589 N583 0.985 . S
H590 N587 0.984 . S
H591 N587 0.985 . S
H592 N586 0.984 . S
H593 N586 0.984 . S
H594 N582 0.984 . S
H595 N582 0.985 . S
C596 C597 1.363 . S
C596 C602 1.379 . S
C596 N604 1.356 . S
C597 C596 1.363 . S
C597 C603 1.363 . S
C598 C599 1.363 . S
C598 C603 1.379 . S
C598 N605 1.356 . S
C599 C598 1.363 . S
C599 C602 1.363 . S
N600 C602 1.356 . S
N600 H612 0.984 1_655 S
N600 H613 0.985 . S
N601 C603 1.356 . S
N601 H606 0.984 . S
N601 H607 0.985 . S
C602 C596 1.379 . S
C602 C599 1.363 . S
C602 N600 1.356 . S
C603 C597 1.363 . S
C603 C598 1.379 . S
C603 N601 1.356 . S
N604 C596 1.356 . S
N604 H610 0.984 . S
N604 H611 0.984 . S
N605 C598 1.356 . S
N605 H608 0.984 . S
N605 H609 0.985 . S
H606 N601 0.984 . S
H607 N601 0.985 . S
H608 N605 0.984 . S
H609 N605 0.985 . S
H610 N604 0.984 . S
H611 N604 0.984 . S
H612 N600 0.984 1_455 S
H613 N600 0.985 . S
C614 C615 1.363 . S
C614 C620 1.379 . S
C614 N622 1.356 . S
C615 C614 1.363 . S
C615 C621 1.363 . S
C616 C617 1.363 . S
C616 C621 1.379 . S
C616 N623 1.356 . S
C617 C616 1.363 . S
C617 C620 1.363 . S
N618 C620 1.356 . S
N618 H630 0.984 . S
N618 H631 0.985 . S
N619 C621 1.356 . S
N619 H624 0.984 . S
N619 H625 0.985 . S
C620 C614 1.379 . S
C620 C617 1.363 . S
C620 N618 1.356 . S
C621 C615 1.363 . S
C621 C616 1.379 . S
C621 N619 1.356 . S
N622 C614 1.356 . S
N622 H628 0.984 . S
N622 H629 0.984 . S
N623 C616 1.356 . S
N623 H626 0.984 . S
N623 H627 0.985 . S
H624 N619 0.984 . S
H625 N619 0.985 . S
H626 N623 0.984 . S
H627 N623 0.985 . S
H628 N622 0.984 . S
H629 N622 0.984 . S
H630 N618 0.984 . S
H631 N618 0.985 . S
C632 C633 1.363 . S
C632 C638 1.379 . S
C632 N640 1.356 . S
C633 C632 1.363 . S
C633 C639 1.363 . S
C634 C635 1.363 . S
C634 C639 1.379 . S
C634 N641 1.356 . S
C635 C634 1.363 . S
C635 C638 1.363 . S
N636 C638 1.356 . S
N636 H648 0.984 . S
N636 H649 0.985 . S
N637 C639 1.356 . S
N637 H642 0.984 . S
N637 H643 0.985 . S
C638 C632 1.379 . S
C638 C635 1.363 . S
C638 N636 1.356 . S
C639 C633 1.363 . S
C639 C634 1.379 . S
C639 N637 1.356 . S
N640 C632 1.356 . S
N640 H646 0.984 . S
N640 H647 0.984 . S
N641 C634 1.356 . S
N641 H644 0.984 . S
N641 H645 0.985 . S
H642 N637 0.984 . S
H643 N637 0.985 . S
H644 N641 0.984 . S
H645 N641 0.985 . S
H646 N640 0.984 . S
H647 N640 0.984 . S
H648 N636 0.984 . S
H649 N636 0.985 . S
C650 C651 1.363 . S
C650 C656 1.379 . S
C650 N658 1.356 . S
C651 C650 1.363 . S
C651 C657 1.363 . S
C652 C653 1.363 . S
C652 C657 1.379 . S
C652 N659 1.356 . S
C653 C652 1.363 . S
C653 C656 1.363 . S
N654 C656 1.356 . S
N654 H666 0.984 . S
N654 H667 0.985 . S
N655 C657 1.356 . S
N655 H660 0.984 . S
N655 H661 0.985 . S
C656 C650 1.379 . S
C656 C653 1.363 . S
C656 N654 1.356 . S
C657 C651 1.363 . S
C657 C652 1.379 . S
C657 N655 1.356 . S
N658 C650 1.356 . S
N658 H664 0.984 . S
N658 H665 0.984 . S
N659 C652 1.356 . S
N659 H662 0.984 . S
N659 H663 0.985 . S
H660 N655 0.984 . S
H661 N655 0.985 . S
H662 N659 0.984 . S
H663 N659 0.985 . S
H664 N658 0.984 . S
H665 N658 0.984 . S
H666 N654 0.984 . S
H667 N654 0.985 . S
C668 C669 1.363 . S
C668 C674 1.379 . S
C668 N676 1.356 . S
C669 C668 1.363 . S
C669 C675 1.363 . S
C670 C671 1.363 . S
C670 C675 1.379 . S
C670 N677 1.356 . S
C671 C670 1.363 . S
C671 C674 1.363 . S
N672 C674 1.356 . S
N672 H684 0.984 . S
N672 H685 0.985 . S
N673 C675 1.356 . S
N673 H678 0.984 . S
N673 H679 0.985 . S
C674 C668 1.379 . S
C674 C671 1.363 . S
C674 N672 1.356 . S
C675 C669 1.363 . S
C675 C670 1.379 . S
C675 N673 1.356 . S
N676 C668 1.356 . S
N676 H682 0.984 . S
N676 H683 0.984 . S
N677 C670 1.356 . S
N677 H680 0.984 . S
N677 H681 0.985 . S
H678 N673 0.984 . S
H679 N673 0.985 . S
H680 N677 0.984 . S
H681 N677 0.985 . S
H682 N676 0.984 . S
H683 N676 0.984 . S
H684 N672 0.984 . S
H685 N672 0.985 . S
C686 C687 1.363 . S
C686 C692 1.379 . S
C686 N694 1.356 . S
C687 C686 1.363 . S
C687 C693 1.363 . S
C688 C689 1.363 . S
C688 C693 1.379 . S
C688 N695 1.356 . S
C689 C688 1.363 . S
C689 C692 1.363 . S
N690 C692 1.356 . S
N690 H702 0.984 . S
N690 H703 0.985 . S
N691 C693 1.356 . S
N691 H696 0.984 . S
N691 H697 0.985 . S
C692 C686 1.379 . S
C692 C689 1.363 . S
C692 N690 1.356 . S
C693 C687 1.363 . S
C693 C688 1.379 . S
C693 N691 1.356 . S
N694 C686 1.356 . S
N694 H700 0.984 . S
N694 H701 0.984 . S
N695 C688 1.356 . S
N695 H698 0.984 . S
N695 H699 0.985 . S
H696 N691 0.984 . S
H697 N691 0.985 . S
H698 N695 0.984 . S
H699 N695 0.985 . S
H700 N694 0.984 . S
H701 N694 0.984 . S
H702 N690 0.984 . S
H703 N690 0.985 . S
C704 C705 1.363 . S
C704 C710 1.379 . S
C704 N712 1.356 . S
C705 C704 1.363 . S
C705 C711 1.363 . S
C706 C707 1.363 . S
C706 C711 1.379 . S
C706 N713 1.356 . S
C707 C706 1.363 . S
C707 C710 1.363 . S
N708 C710 1.356 . S
N708 H720 0.984 . S
N708 H721 0.985 . S
N709 C711 1.356 . S
N709 H714 0.984 . S
N709 H715 0.985 . S
C710 C704 1.379 . S
C710 C707 1.363 . S
C710 N708 1.356 . S
C711 C705 1.363 . S
C711 C706 1.379 . S
C711 N709 1.356 . S
N712 C704 1.356 . S
N712 H718 0.984 . S
N712 H719 0.984 . S
N713 C706 1.356 . S
N713 H716 0.984 . S
N713 H717 0.985 . S
H714 N709 0.984 . S
H715 N709 0.985 . S
H716 N713 0.984 . S
H717 N713 0.985 . S
H718 N712 0.984 . S
H719 N712 0.984 . S
H720 N708 0.984 . S
H721 N708 0.985 . S
C722 C723 1.368 . S
C722 C728 1.378 . S
C722 N730 1.353 1_655 S
C723 C722 1.368 . S
C723 C729 1.363 . S
C724 C725 1.363 . S
C724 C729 1.379 . S
C724 N731 1.356 . S
C725 C724 1.363 . S
C725 C728 1.363 . S
N726 C728 1.356 1_455 S
N726 H738 0.984 . S
N726 H739 0.985 . S
N727 C729 1.356 . S
N727 H732 0.984 . S
N727 H733 0.985 . S
C728 C722 1.378 . S
C728 C725 1.363 . S
C728 N726 1.356 1_655 S
C729 C723 1.363 . S
C729 C724 1.379 . S
C729 N727 1.356 . S
N730 C722 1.353 1_455 S
N730 H736 0.984 . S
N730 H737 0.984 . S
N731 C724 1.356 . S
N731 H734 0.984 . S
N731 H735 0.985 . S
H732 N727 0.984 . S
H733 N727 0.985 . S
H734 N731 0.984 . S
H735 N731 0.985 . S
H736 N730 0.984 . S
H737 N730 0.984 . S
H738 N726 0.984 . S
H739 N726 0.985 . S
C740 C741 1.363 . S
C740 C746 1.379 . S
C740 N748 1.356 . S
C741 C740 1.363 . S
C741 C747 1.363 . S
C742 C743 1.363 . S
C742 C747 1.379 . S
C742 N749 1.356 . S
C743 C742 1.363 . S
C743 C746 1.363 . S
N744 C746 1.356 . S
N744 H756 0.984 . S
N744 H757 0.985 . S
N745 C747 1.356 . S
N745 H750 0.984 . S
N745 H751 0.985 . S
C746 C740 1.379 . S
C746 C743 1.363 . S
C746 N744 1.356 . S
C747 C741 1.363 . S
C747 C742 1.379 . S
C747 N745 1.356 . S
N748 C740 1.356 . S
N748 H754 0.984 . S
N748 H755 0.984 . S
N749 C742 1.356 . S
N749 H752 0.984 1_554 S
N749 H753 0.985 1_554 S
H750 N745 0.984 . S
H751 N745 0.985 . S
H752 N749 0.984 1_556 S
H753 N749 0.985 1_556 S
H754 N748 0.984 . S
H755 N748 0.984 . S
H756 N744 0.984 . S
H757 N744 0.985 . S
C758 C759 1.363 . S
C758 C764 1.379 . S
C758 N766 1.356 . S
C759 C758 1.363 . S
C759 C765 1.363 . S
C760 C761 1.363 . S
C760 C765 1.379 . S
C760 N767 1.356 . S
C761 C760 1.363 . S
C761 C764 1.363 . S
N762 C764 1.356 . S
N762 H774 0.984 . S
N762 H775 0.985 . S
N763 C765 1.356 . S
N763 H768 0.984 . S
N763 H769 0.985 . S
C764 C758 1.379 . S
C764 C761 1.363 . S
C764 N762 1.356 . S
C765 C759 1.363 . S
C765 C760 1.379 . S
C765 N763 1.356 . S
N766 C758 1.356 . S
N766 H772 0.984 . S
N766 H773 0.984 . S
N767 C760 1.356 . S
N767 H770 0.984 . S
N767 H771 0.985 . S
H768 N763 0.984 . S
H769 N763 0.985 . S
H770 N767 0.984 . S
H771 N767 0.985 . S
H772 N766 0.984 . S
H773 N766 0.984 . S
H774 N762 0.984 . S
H775 N762 0.985 . S
C776 C777 1.363 . S
C776 C782 1.379 . S
C776 N784 1.356 . S
C777 C776 1.363 . S
C777 C783 1.363 . S
C778 C779 1.363 . S
C778 C783 1.379 . S
C778 N785 1.356 . S
C779 C778 1.363 . S
C779 C782 1.363 . S
N780 C782 1.356 . S
N780 H792 0.984 . S
N780 H793 0.985 . S
N781 C783 1.356 . S
N781 H786 0.984 . S
N781 H787 0.985 . S
C782 C776 1.379 . S
C782 C779 1.363 . S
C782 N780 1.356 . S
C783 C777 1.363 . S
C783 C778 1.379 . S
C783 N781 1.356 . S
N784 C776 1.356 . S
N784 H790 0.984 . S
N784 H791 0.984 . S
N785 C778 1.356 . S
N785 H788 0.984 . S
N785 H789 0.985 . S
H786 N781 0.984 . S
H787 N781 0.985 . S
H788 N785 0.984 . S
H789 N785 0.985 . S
H790 N784 0.984 . S
H791 N784 0.984 . S
H792 N780 0.984 . S
H793 N780 0.985 . S
C794 C795 1.363 . S
C794 C800 1.379 . S
C794 N802 1.356 . S
C795 C794 1.363 . S
C795 C801 1.363 . S
C796 C797 1.363 . S
C796 C801 1.379 . S
C796 N803 1.356 . S
C797 C796 1.363 . S
C797 C800 1.363 . S
N798 C800 1.356 . S
N798 H810 0.984 1_554 S
N798 H811 0.985 . S
N799 C801 1.356 . S
N799 H804 0.984 . S
N799 H805 0.985 . S
C800 C794 1.379 . S
C800 C797 1.363 . S
C800 N798 1.356 . S
C801 C795 1.363 . S
C801 C796 1.379 . S
C801 N799 1.356 . S
N802 C794 1.356 . S
N802 H808 0.984 . S
N802 H809 0.984 . S
N803 C796 1.356 . S
N803 H806 0.984 . S
N803 H807 0.985 . S
H804 N799 0.984 . S
H805 N799 0.985 . S
H806 N803 0.984 . S
H807 N803 0.985 . S
H808 N802 0.984 . S
H809 N802 0.984 . S
H810 N798 0.984 1_556 S
H811 N798 0.985 . S
C812 C813 1.363 . S
C812 C818 1.379 . S
C812 N820 1.356 . S
C813 C812 1.363 . S
C813 C819 1.363 . S
C814 C815 1.363 . S
C814 C819 1.379 . S
C814 N821 1.356 1_455 S
C815 C814 1.363 . S
C815 C818 1.363 . S
N816 C818 1.356 . S
N816 H828 0.984 . S
N816 H829 0.985 . S
N817 C819 1.356 . S
N817 H822 0.984 . S
N817 H823 0.985 1_455 S
C818 C812 1.379 . S
C818 C815 1.363 . S
C818 N816 1.356 . S
C819 C813 1.363 . S
C819 C814 1.379 . S
C819 N817 1.356 . S
N820 C812 1.356 . S
N820 H826 0.984 . S
N820 H827 0.984 . S
N821 C814 1.356 1_655 S
N821 H824 0.984 . S
N821 H825 0.985 . S
H822 N817 0.984 . S
H823 N817 0.985 1_655 S
H824 N821 0.984 . S
H825 N821 0.985 . S
H826 N820 0.984 . S
H827 N820 0.984 . S
H828 N816 0.984 . S
H829 N816 0.985 . S
C830 C831 1.363 . S
C830 C836 1.379 . S
C830 N838 1.356 . S
C831 C830 1.363 . S
C831 C837 1.363 . S
C832 C833 1.363 . S
C832 C837 1.379 . S
C832 N839 1.356 . S
C833 C832 1.363 . S
C833 C836 1.363 . S
N834 C836 1.356 . S
N834 H846 0.984 . S
N834 H847 0.985 . S
N835 C837 1.356 . S
N835 H840 0.984 . S
N835 H841 0.985 . S
C836 C830 1.379 . S
C836 C833 1.363 . S
C836 N834 1.356 . S
C837 C831 1.363 . S
C837 C832 1.379 . S
C837 N835 1.356 . S
N838 C830 1.356 . S
N838 H844 0.984 . S
N838 H845 0.984 . S
N839 C832 1.356 . S
N839 H842 0.984 . S
N839 H843 0.985 . S
H840 N835 0.984 . S
H841 N835 0.985 . S
H842 N839 0.984 . S
H843 N839 0.985 . S
H844 N838 0.984 . S
H845 N838 0.984 . S
H846 N834 0.984 . S
H847 N834 0.985 . S
C417 C29 1.058 . S
C419 C260 1.064 . S
C435 C49 1.031 . S
C437 C321 1.169 . S
C455 C359 2.572 . S
C453 C93 2.565 . S
C471 C119 2.337 . S
C473 C399 2.336 . S
C491 C319 1.371 . S
C489 C17 1.349 . S
C509 C287 2.129 . S
C507 C61 1.771 . S
C527 C396 1.823 . S
C525 C81 1.793 . S
C545 C356 1.955 . S
C543 C125 1.941 . S
C561 C23 1.309 . S
C563 C401 1.294 . S
C581 C316 2.379 . S
C579 C87 2.305 . S
C597 C113 2.243 . S
C599 C258 2.246 . S
C615 C55 1.379 . S
C617 C361 1.632 . S
C635 C281 1.070 . S
C633 C157 0.940 . S
C651 C189 1.195 . S
C653 C300 1.203 . S
C669 C221 2.595 . S
C671 C338 2.545 . S
C687 C253 2.390 . S
C689 C378 2.413 . S
C705 C145 1.246 . S
C707 C298 1.459 . S
C725 C276 2.118 . S
C723 C183 2.078 . S
C743 C407 1.853 . S
C741 C209 1.839 . S
C761 C367 1.916 . S
C759 C247 1.899 . S
C777 C151 1.224 . S
C779 C380 1.332 . S
C797 C327 2.377 . S
C795 C215 2.361 . S
C815 C279 2.223 . S
C813 C241 2.206 . S
C831 C177 1.636 . S
C833 C340 1.618 . S
