# Generated by pormake.
# Topology zzz, (3,6)-cn, num edge types: 1
# Building blocks:
#     Node 0, Type 0, BuildingBlock: CUQRIR_clean_linker_1, # of connection points: 3
#     Node 1, Type 0, BuildingBlock: CUQRIR_clean_linker_1, # of connection points: 3
#     Node 2, Type 0, BuildingBlock: CUQRIR_clean_linker_1, # of connection points: 3
#     Node 3, Type 0, BuildingBlock: CUQRIR_clean_linker_1, # of connection points: 3
#     Node 4, Type 0, BuildingBlock: CUQRIR_clean_linker_1, # of connection points: 3
#     Node 5, Type 0, BuildingBlock: CUQRIR_clean_linker_1, # of connection points: 3
#     Node 6, Type 0, BuildingBlock: CUQRIR_clean_linker_1, # of connection points: 3
#     Node 7, Type 0, BuildingBlock: CUQRIR_clean_linker_1, # of connection points: 3
#     Node 8, Type 1, BuildingBlock: FUNLAD_clean_sbu_0, # of connection points: 6
#     Node 9, Type 1, BuildingBlock: FUNLAD_clean_sbu_0, # of connection points: 6
#     Node 10, Type 1, BuildingBlock: FUNLAD_clean_sbu_0, # of connection points: 6
#     Node 11, Type 1, BuildingBlock: FUNLAD_clean_sbu_0, # of connection points: 6
#     Edge 12, Type (0, 1), BuildingBlock: ZUJKAS_clean_linker_0, # of connection points: 2
#     Edge 13, Type (0, 1), BuildingBlock: ZUJKAS_clean_linker_0, # of connection points: 2
#     Edge 14, Type (0, 1), BuildingBlock: ZUJKAS_clean_linker_0, # of connection points: 2
#     Edge 15, Type (0, 1), BuildingBlock: ZUJKAS_clean_linker_0, # of connection points: 2
#     Edge 16, Type (0, 1), BuildingBlock: ZUJKAS_clean_linker_0, # of connection points: 2
#     Edge 17, Type (0, 1), BuildingBlock: ZUJKAS_clean_linker_0, # of connection points: 2
#     Edge 18, Type (0, 1), BuildingBlock: ZUJKAS_clean_linker_0, # of connection points: 2
#     Edge 19, Type (0, 1), BuildingBlock: ZUJKAS_clean_linker_0, # of connection points: 2
#     Edge 20, Type (0, 1), BuildingBlock: ZUJKAS_clean_linker_0, # of connection points: 2
#     Edge 21, Type (0, 1), BuildingBlock: ZUJKAS_clean_linker_0, # of connection points: 2
#     Edge 22, Type (0, 1), BuildingBlock: ZUJKAS_clean_linker_0, # of connection points: 2
#     Edge 23, Type (0, 1), BuildingBlock: ZUJKAS_clean_linker_0, # of connection points: 2
#     Edge 24, Type (0, 1), BuildingBlock: ZUJKAS_clean_linker_0, # of connection points: 2
#     Edge 25, Type (0, 1), BuildingBlock: ZUJKAS_clean_linker_0, # of connection points: 2
#     Edge 26, Type (0, 1), BuildingBlock: ZUJKAS_clean_linker_0, # of connection points: 2
#     Edge 27, Type (0, 1), BuildingBlock: ZUJKAS_clean_linker_0, # of connection points: 2
#     Edge 28, Type (0, 1), BuildingBlock: ZUJKAS_clean_linker_0, # of connection points: 2
#     Edge 29, Type (0, 1), BuildingBlock: ZUJKAS_clean_linker_0, # of connection points: 2
#     Edge 30, Type (0, 1), BuildingBlock: ZUJKAS_clean_linker_0, # of connection points: 2
#     Edge 31, Type (0, 1), BuildingBlock: ZUJKAS_clean_linker_0, # of connection points: 2
#     Edge 32, Type (0, 1), BuildingBlock: ZUJKAS_clean_linker_0, # of connection points: 2
#     Edge 33, Type (0, 1), BuildingBlock: ZUJKAS_clean_linker_0, # of connection points: 2
#     Edge 34, Type (0, 1), BuildingBlock: ZUJKAS_clean_linker_0, # of connection points: 2
#     Edge 35, Type (0, 1), BuildingBlock: ZUJKAS_clean_linker_0, # of connection points: 2
# Relax obj value: 0.138
# Max RMSD: 0.180
# Mean RMSD: 0.101
data_MOF--net-zzz--node1-FUNLAD_clean_sbu_0--node2-CUQRIR_clean_linker_1--edge1-ZUJKAS_clean_linker_0
_symmetry_space_group_name_H-M    P1
_symmetry_Int_Tables_number       1
_symmetry_cell_setting            triclinic
loop_
_symmetry_equiv_pos_as_xyz
'x, y, z'
_cell_length_a     63.218111
_cell_length_b     68.961914
_cell_length_c     20.572739
_cell_angle_alpha  86.032772
_cell_angle_beta   85.636486
_cell_angle_gamma 89.832351
loop_
_atom_site_label
_atom_site_type_symbol
_atom_site_fract_x
_atom_site_fract_y
_atom_site_fract_z
_atom_type_partial_charge
C0 C 0.77897 0.48624 0.25854 0.0
N1 N 0.79939 0.48087 0.26429 0.0
N2 N 0.77182 0.47949 0.204 0.0
C3 C 0.76596 0.49785 0.306 0.0
C4 C 0.78863 0.47006 0.17637 0.0
N5 N 0.80538 0.47078 0.21328 0.0
C6 C 0.7894 0.46206 0.10992 0.0
H7 H 0.77105 0.49499 0.35621 0.0
H8 H 0.74884 0.4944 0.3054 0.0
H9 H 0.76826 0.51355 0.29148 0.0
H10 H 0.777 0.46859 0.07996 0.0
H11 H 0.78676 0.44612 0.11617 0.0
H12 H 0.80515 0.46474 0.08322 0.0
C13 C 0.95512 0.7625 0.1486 0.0
N14 N 0.95804 0.78198 0.14503 0.0
N15 N 0.96291 0.75509 0.0923 0.0
C16 C 0.946 0.75069 0.20813 0.0
C17 C 0.97062 0.77075 0.05466 0.0
N18 N 0.96764 0.78704 0.08677 0.0
C19 C 0.98201 0.76996 0.98802 0.0
H20 H 0.95913 0.74597 0.2384 0.0
H21 H 0.93787 0.73751 0.19448 0.0
H22 H 0.93473 0.75948 0.23786 0.0
H23 H 0.97984 0.78365 0.95774 0.0
H24 H 0.97629 0.75754 0.96256 0.0
H25 H 0.99923 0.76804 0.99355 0.0
C26 C 0.75509 0.0004 0.16066 0.0
N27 N 0.73408 0.00459 0.16139 0.0
N28 N 0.76462 0.0038 0.09942 0.0
C29 C 0.76606 0.99235 0.21881 0.0
C30 C 0.74866 0.01029 0.0633 0.0
N31 N 0.73021 0.01083 0.10091 0.0
C32 C 0.75094 0.01494 0.99054 0.0
H33 H 0.78321 0.99597 0.21367 0.0
H34 H 0.76441 0.97629 0.22274 0.0
H35 H 0.75864 0.998 0.26434 0.0
H36 H 0.74796 0.00153 0.96578 0.0
H37 H 0.7672 0.02019 0.97443 0.0
H38 H 0.73933 0.02607 0.97505 0.0
C39 C 0.54101 0.71618 0.16179 0.0
N40 N 0.53828 0.6967 0.16253 0.0
N41 N 0.53582 0.72485 0.10406 0.0
C42 C 0.54972 0.72658 0.21574 0.0
C43 C 0.52965 0.71 0.07009 0.0
N44 N 0.53121 0.69288 0.10554 0.0
C45 C 0.52063 0.71245 0.0044 0.0
H46 H 0.53637 0.73058 0.25038 0.0
H47 H 0.55812 0.74009 0.19609 0.0
H48 H 0.5607 0.71706 0.24294 0.0
H49 H 0.53372 0.71162 0.96558 0.0
H50 H 0.51279 0.72679 0.99771 0.0
H51 H 0.50898 0.7008 0.99871 0.0
C52 C 0.24574 0.51405 0.14437 0.0
N53 N 0.22498 0.51819 0.139 0.0
N54 N 0.25225 0.52064 0.2001 0.0
C55 C 0.25973 0.50403 0.09485 0.0
C56 C 0.23468 0.52872 0.2287 0.0
N57 N 0.21816 0.5274 0.19122 0.0
C58 C 0.23304 0.53575 0.29666 0.0
H59 H 0.25866 0.48809 0.10644 0.0
H60 H 0.27652 0.50854 0.09621 0.0
H61 H 0.2545 0.50728 0.04498 0.0
H62 H 0.23632 0.5516 0.29338 0.0
H63 H 0.2447 0.52835 0.32746 0.0
H64 H 0.21692 0.53324 0.32096 0.0
C65 C 0.08065 0.23581 0.2435 0.0
N66 N 0.07638 0.21658 0.24506 0.0
N67 N 0.0778 0.24223 0.30432 0.0
C68 C 0.08569 0.24858 0.18224 0.0
C69 C 0.07138 0.22626 0.34263 0.0
N70 N 0.07042 0.21069 0.30651 0.0
C71 C 0.0647 0.22624 0.41442 0.0
H72 H 0.09327 0.26235 0.19321 0.0
H73 H 0.07073 0.25204 0.15901 0.0
H74 H 0.09629 0.2409 0.14705 0.0
H75 H 0.04829 0.23196 0.42051 0.0
H76 H 0.07516 0.23583 0.43892 0.0
H77 H 0.06512 0.21138 0.43862 0.0
C78 C 0.2708 0.99729 0.23799 0.0
N79 N 0.29204 0.99412 0.23701 0.0
N80 N 0.26132 0.99263 0.29859 0.0
C81 C 0.25924 0.00403 0.17951 0.0
C82 C 0.27758 0.98669 0.33432 0.0
N83 N 0.29613 0.98749 0.29692 0.0
C84 C 0.27555 0.98161 0.40689 0.0
H85 H 0.2591 0.02015 0.17522 0.0
H86 H 0.24258 -0.00123 0.18483 0.0
H87 H 0.26737 -0.00109 0.13414 0.0
H88 H 0.27319 0.96568 0.41578 0.0
H89 H 0.26177 0.98905 0.43073 0.0
H90 H 0.29013 0.98565 0.42963 0.0
C91 C 0.4917 0.28083 0.22217 0.0
N92 N 0.49641 0.30003 0.21908 0.0
N93 N 0.49672 0.27213 0.27999 0.0
C94 C 0.48243 0.27057 0.16882 0.0
C95 C 0.50482 0.28662 0.31167 0.0
N96 N 0.5048 0.30356 0.27442 0.0
C97 C 0.5125 0.28429 0.37925 0.0
H98 H 0.48602 0.2548 0.17278 0.0
H99 H 0.48859 0.27701 0.12014 0.0
H100 H 0.46495 0.27239 0.17312 0.0
H101 H 0.53005 0.28308 0.37512 0.0
H102 H 0.50592 0.27104 0.40705 0.0
H103 H 0.50817 0.29718 0.40679 0.0
C104 C 0.02174 0.96796 0.78127 0.0
N105 N 0.99709 0.97076 0.59799 0.0
C106 C 0.00982 0.9552 0.58714 0.0
C107 C 0.00372 0.94088 0.5478 0.0
C108 C 0.98429 0.94251 0.51911 0.0
C109 C 0.97148 0.9588 0.53068 0.0
C110 C 0.97824 0.97286 0.57046 0.0
Zn111 Zn 0.00677 0.99012 0.66052 0.0
C112 C 0.97197 3e-05 0.75983 0.0
N113 N 0.02836 0.0279 0.79695 0.0
C114 C 0.04749 0.02637 0.82305 0.0
C115 C 0.01535 0.04327 0.80781 0.0
C116 C 0.0215 0.05804 0.84519 0.0
C117 C 0.04128 0.05709 0.87195 0.0
C118 C 0.05432 0.04091 0.86089 0.0
Zn119 Zn 0.01874 0.00842 0.73478 0.0
O120 O 0.014 0.96659 0.72655 0.0
C121 C 0.05352 0.9985 0.63544 0.0
O122 O 0.02595 0.98465 0.79963 0.0
H123 H 1.00032 0.04437 0.78602 0.0
H124 H 0.02465 0.95369 0.60996 0.0
H125 H 0.05761 0.01405 0.81357 0.0
O126 O 0.03816 0.98955 0.61431 0.0
O127 O 0.05014 0.00777 0.68663 0.0
H128 H 0.96836 0.98533 0.57988 0.0
O129 O 0.01131 0.03187 0.66948 0.0
O130 O 0.99999 0.01402 0.59489 0.0
O131 O 0.98739 0.00874 0.78151 0.0
O132 O 0.97529 0.99099 0.70812 0.0
C133 C 0.00399 0.03065 0.61413 0.0
H134 H 0.01393 0.92842 0.54121 0.0
H135 H 0.95645 0.96069 0.50907 0.0
H136 H 0.01109 0.07039 0.85132 0.0
H137 H 0.06963 0.03955 0.88102 0.0
C138 C 0.48664 0.98819 0.60884 0.0
N139 N 0.5086 0.0431 0.64711 0.0
C140 C 0.51095 0.04629 0.58095 0.0
C141 C 0.50922 0.06498 0.55162 0.0
C142 C 0.50498 0.08067 0.59057 0.0
C143 C 0.50243 0.07699 0.6588 0.0
C144 C 0.50437 0.05798 0.68624 0.0
Zn145 Zn 0.51152 0.01507 0.68475 0.0
C146 C 0.47738 0.00313 0.78689 0.0
N147 N 0.51755 0.95567 0.75345 0.0
C148 C 0.52105 0.94069 0.71432 0.0
C149 C 0.51586 0.95259 0.81967 0.0
C150 C 0.51769 0.93392 0.8491 0.0
C151 C 0.52119 0.91811 0.8102 0.0
C152 C 0.52293 0.92168 0.74183 0.0
Zn153 Zn 0.51466 0.9837 0.71574 0.0
O154 O 0.49148 0.00581 0.61492 0.0
C155 C 0.54873 0.99559 0.61328 0.0
O156 O 0.49441 0.97488 0.64569 0.0
H157 H 0.51313 0.96468 0.84999 0.0
H158 H 0.51414 0.03427 0.55061 0.0
H159 H 0.52232 0.94347 0.66178 0.0
O160 O 0.53887 0.01158 0.61869 0.0
O161 O 0.542 0.98064 0.64848 0.0
H162 H 0.50257 0.05511 0.73872 0.0
O163 O 0.53477 0.99297 0.78529 0.0
O164 O 0.5317 0.02392 0.75514 0.0
O165 O 0.48733 0.98718 0.78188 0.0
O166 O 0.48411 0.01809 0.75168 0.0
C167 C 0.53953 0.01058 0.79176 0.0
H168 H 0.51094 0.06709 0.49882 0.0
H169 H 0.4993 0.08871 0.69062 0.0
H170 H 0.51663 0.93195 0.90193 0.0
H171 H 0.52543 0.9099 0.70993 0.0
C172 C 0.52676 0.47499 0.59685 0.0
N173 N 0.46888 0.50178 0.64232 0.0
C174 C 0.46971 0.50494 0.57617 0.0
C175 C 0.4512 0.50617 0.54384 0.0
C176 C 0.43146 0.50421 0.57962 0.0
C177 C 0.43094 0.50086 0.64795 0.0
C178 C 0.45 0.49973 0.67858 0.0
Zn179 Zn 0.49755 0.49988 0.68178 0.0
C180 C 0.50192 0.466 0.77335 0.0
N181 N 0.55977 0.49583 0.74693 0.0
C182 C 0.57837 0.50017 0.71115 0.0
C183 C 0.55932 0.49078 0.81215 0.0
C184 C 0.57798 0.48973 0.84381 0.0
C185 C 0.59736 0.49424 0.80849 0.0
C186 C 0.59751 0.49962 0.74135 0.0
Zn187 Zn 0.53101 0.49771 0.70789 0.0
O188 O 0.50808 0.48139 0.60825 0.0
C189 C 0.52656 0.5315 0.6157 0.0
O190 O 0.5413 0.47975 0.63213 0.0
H191 H 0.5444 0.48783 0.84023 0.0
H192 H 0.48483 0.50638 0.54799 0.0
H193 H 0.57835 0.50426 0.65945 0.0
O194 O 0.50786 0.52461 0.62136 0.0
O195 O 0.54077 0.52307 0.64785 0.0
H196 H 0.44973 0.49718 0.73111 0.0
O197 O 0.52028 0.51541 0.7839 0.0
O198 O 0.48753 0.51845 0.75568 0.0
O199 O 0.52079 0.47251 0.76605 0.0
O200 O 0.48751 0.47494 0.74345 0.0
C201 C 0.50173 0.5223 0.7934 0.0
H202 H 0.4524 0.50834 0.49104 0.0
H203 H 0.416 0.49933 0.67734 0.0
H204 H 0.57721 0.48587 0.8959 0.0
H205 H 0.61223 0.50322 0.71269 0.0
C206 C 0.03541 0.51252 0.59662 0.0
N207 N 0.02058 0.45464 0.65532 0.0
C208 C 0.0181 0.45296 0.59084 0.0
C209 C 0.02256 0.43549 0.56258 0.0
C210 C 0.02966 0.41949 0.60092 0.0
C211 C 0.03191 0.42155 0.66756 0.0
C212 C 0.02724 0.43936 0.69392 0.0
Zn213 Zn 0.01504 0.48117 0.69134 0.0
C214 C 0.049 0.49355 0.76989 0.0
N215 N 0.00393 0.53787 0.75618 0.0
C216 C 0.9977 0.55335 0.71761 0.0
C217 C 0.00601 0.53931 0.82102 0.0
C218 C 1.0014 0.55667 0.84979 0.0
C219 C 0.99466 0.57281 0.81153 0.0
C220 C 0.99304 0.5711 0.74442 0.0
Zn221 Zn 0.00944 0.51137 0.71992 0.0
O222 O 0.03273 0.49434 0.60865 0.0
C223 C 0.9756 0.49914 0.64086 0.0
O224 O 0.02704 0.52416 0.63636 0.0
H225 H 0.01108 0.52687 0.8508 0.0
H226 H 0.01292 0.46531 0.56087 0.0
H227 H 0.99609 0.55186 0.66623 0.0
O228 O 0.98689 0.48386 0.64187 0.0
O229 O 0.98129 0.51361 0.67041 0.0
H230 H 0.02911 0.44103 0.74506 0.0
O231 O 0.99187 0.49813 0.8029 0.0
O232 O 0.99725 0.46835 0.77442 0.0
O233 O 0.03773 0.50883 0.76847 0.0
O234 O 0.04315 0.4789 0.74146 0.0
C235 C 0.98899 0.47995 0.81445 0.0
H236 H 0.02092 0.43467 0.51082 0.0
H237 H 0.03714 0.40952 0.699 0.0
H238 H 0.0032 0.55747 0.90148 0.0
H239 H 0.98778 0.58321 0.71334 0.0
H240 H 0.23589 0.02428 0.29595 0.0
H241 H 0.19989 0.0266 0.35002 0.0
H242 H 0.20122 0.96531 0.40794 0.0
H243 H 0.23713 0.96315 0.35459 0.0
H244 H 0.16133 0.00819 0.33747 0.0
H245 H 0.18957 0.98947 0.58234 0.0
H246 H 0.20746 0.99569 0.51143 0.0
H247 H 0.19646 0.97159 0.52501 0.0
C248 C 0.22825 0.01131 0.31934 0.0
C249 C 0.2392 0.99356 0.32158 0.0
C250 C 0.20778 0.01263 0.35048 0.0
C251 C 0.19801 0.99622 0.38448 0.0
C252 C 0.20859 0.97828 0.38359 0.0
H253 H 0.06606 0.97891 0.52775 0.0
H254 H 0.10081 0.97934 0.46699 0.0
C255 C 0.229 0.977 0.35275 0.0
C256 C 0.17704 0.99783 0.42231 0.0
H257 H 0.15215 0.98958 0.57526 0.0
C258 C 0.15934 0.00421 0.38951 0.0
C259 C 0.17446 0.993 0.49055 0.0
C260 C 0.19303 0.98725 0.52961 0.0
C261 C 0.13907 0.00531 0.42262 0.0
C262 C 0.1363 -0.00043 0.49026 0.0
C263 C 0.15414 0.99376 0.52335 0.0
C264 C 0.11507 -0.00066 0.52754 0.0
C265 C 0.12086 0.01287 0.38489 0.0
C266 C 0.11157 0.00991 0.5834 0.0
C267 C 0.0917 0.00954 0.61885 0.0
C268 C 0.07488 0.9985 0.5994 0.0
C269 C 0.07855 0.98769 0.54401 0.0
C270 C 0.09842 0.98804 0.50876 0.0
H271 H 0.12654 0.02192 0.34023 0.0
H272 H 0.1119 0.0004 0.36935 0.0
H273 H 0.10981 0.02167 0.4154 0.0
H274 H 0.12419 0.01862 0.59928 0.0
H275 H 0.08948 0.01803 0.66122 0.0
H276 H 0.46731 0.25655 0.36902 0.0
H277 H 0.46714 0.22321 0.42042 0.0
H278 H 0.52198 0.20962 0.29381 0.0
H279 H 0.52218 0.24306 0.24345 0.0
H280 H 0.46546 0.18598 0.36978 0.0
H281 H 0.54146 0.19857 0.47917 0.0
H282 H 0.52603 0.21812 0.44395 0.0
H283 H 0.54253 0.20339 0.39207 0.0
C284 C 0.47901 0.24621 0.35179 0.0
C285 C 0.49475 0.25206 0.30273 0.0
C286 C 0.47898 0.2273 0.38102 0.0
C287 C 0.49477 0.21409 0.36164 0.0
C288 C 0.50988 0.21971 0.31021 0.0
H289 H 0.53043 0.09777 0.48967 0.0
H290 H 0.52689 0.1301 0.43508 0.0
C291 C 0.50992 0.23864 0.28114 0.0
C292 C 0.49601 0.19475 0.39717 0.0
H293 H 0.52797 0.1664 0.49073 0.0
C294 C 0.47907 0.18169 0.39647 0.0
C295 C 0.51373 0.1893 0.43232 0.0
C296 C 0.5319 0.20312 0.43762 0.0
C297 C 0.47965 0.16306 0.42857 0.0
C298 C 0.4975 0.15754 0.46296 0.0
C299 C 0.51433 0.17068 0.46417 0.0
C300 C 0.49936 0.13799 0.49657 0.0
C301 C 0.46143 0.14925 0.42409 0.0
C302 C 0.48525 0.13185 0.54995 0.0
C303 C 0.4872 0.11332 0.58123 0.0
C304 C 0.50331 0.10066 0.55959 0.0
C305 C 0.51764 0.10705 0.50683 0.0
C306 C 0.51571 0.12555 0.47579 0.0
H307 H 0.45123 0.15413 0.38445 0.0
H308 H 0.46735 0.13441 0.41533 0.0
H309 H 0.45146 0.14841 0.47099 0.0
H310 H 0.47275 0.14139 0.56744 0.0
H311 H 0.47587 0.10879 0.62152 0.0
H312 H 0.27176 0.48646 0.22554 0.0
H313 H 0.30287 0.48125 0.2896 0.0
H314 H 0.30807 0.54315 0.30376 0.0
H315 H 0.27717 0.54829 0.23918 0.0
H316 H 0.34651 0.4989 0.27105 0.0
H317 H 0.29909 0.51741 0.497 0.0
H318 H 0.28709 0.51048 0.42507 0.0
H319 H 0.29754 0.53457 0.42761 0.0
C320 C 0.27998 0.49889 0.24096 0.0
C321 C 0.27228 0.51775 0.22782 0.0
C322 C 0.29756 0.49594 0.27777 0.0
C323 C 0.30745 0.51182 0.30209 0.0
C324 C 0.30042 0.53072 0.28605 0.0
H325 H 0.42262 0.52987 0.47847 0.0
H326 H 0.39203 0.52982 0.41289 0.0
C327 C 0.28294 0.53366 0.24911 0.0
C328 C 0.32451 0.50871 0.34677 0.0
H329 H 0.3364 0.51461 0.50332 0.0
C330 C 0.34431 0.50216 0.32194 0.0
C331 C 0.32138 0.51272 0.4133 0.0
C332 C 0.30009 0.51904 0.44274 0.0
C333 C 0.36141 0.5003 0.36154 0.0
C334 C 0.35855 0.50523 0.42723 0.0
C335 C 0.33851 0.51099 0.45276 0.0
C336 C 0.37651 0.50551 0.46898 0.0
C337 C 0.38249 0.49328 0.33278 0.0
C338 C 0.37747 0.49225 0.52355 0.0
C339 C 0.39503 0.49215 0.56109 0.0
C340 C 0.41178 0.50541 0.54465 0.0
C341 C 0.41021 0.51919 0.49153 0.0
C342 C 0.39277 0.5192 0.45403 0.0
H343 H 0.38081 0.4858 0.28731 0.0
H344 H 0.39324 0.50593 0.32065 0.0
H345 H 0.39007 0.48318 0.36843 0.0
H346 H 0.36491 0.48168 0.536 0.0
H347 H 0.39583 0.48131 0.60149 0.0
H348 H 0.04871 0.26844 0.26931 0.0
H349 H 0.04248 0.30027 0.31425 0.0
H350 H 0.09673 0.29137 0.42801 0.0
H351 H 0.103 0.25968 0.38206 0.0
H352 H 0.0341 0.30362 0.44971 0.0
H353 H 0.10402 0.34801 0.35119 0.0
H354 H 0.09617 0.3263 0.31479 0.0
H355 H 0.1101 0.32444 0.38788 0.0
C356 C 0.05957 0.27367 0.30244 0.0
C357 C 0.07635 0.26192 0.32233 0.0
C358 C 0.05599 0.29168 0.3283 0.0
C359 C 0.06925 0.29821 0.37404 0.0
C360 C 0.08655 0.28676 0.39192 0.0
H361 H 0.06347 0.39554 0.62185 0.0
H362 H 0.07282 0.3656 0.56895 0.0
C363 C 0.0901 0.26872 0.36604 0.0
C364 C 0.06371 0.31599 0.40781 0.0
H365 H 0.08159 0.36115 0.43497 0.0
C366 C 0.04441 0.31626 0.44621 0.0
C367 C 0.07733 0.33231 0.40365 0.0
C368 C 0.098 0.33291 0.36176 0.0
C369 C 0.0384 0.33238 0.48115 0.0
C370 C 0.0519 0.34881 0.47648 0.0
C371 C 0.07129 0.34851 0.43841 0.0
C372 C 0.04595 0.36661 0.50968 0.0
C373 C 0.01786 0.33153 0.52378 0.0
C374 C 0.02778 0.37707 0.49371 0.0
C375 C 0.0223 0.39402 0.5242 0.0
C376 C 0.035 0.40096 0.57088 0.0
C377 C 0.0532 0.39043 0.58683 0.0
C378 C 0.05866 0.37343 0.55629 0.0
H379 H 0.01247 0.31631 0.5362 0.0
H380 H 0.01952 0.33869 0.56984 0.0
H381 H 0.00535 0.33924 0.49719 0.0
H382 H 0.01794 0.37221 0.45711 0.0
H383 H 0.00809 0.4017 0.5112 0.0
H384 H 0.79945 0.02282 0.12946 0.0
H385 H 0.83546 0.02083 0.07528 0.0
H386 H 0.81424 0.97605 0.95894 0.0
H387 H 0.77838 0.9781 0.01328 0.0
H388 H 0.86478 0.98878 0.05922 0.0
H389 H 0.83762 0.01919 0.82276 0.0
H390 H 0.82184 0.02054 0.89923 0.0
H391 H 0.82311 0.99826 0.85875 0.0
C392 C 0.80272 0.01228 0.0934 0.0
C393 C 0.78631 0.00053 0.07561 0.0
C394 C 0.82319 0.01121 0.06219 0.0
C395 C 0.82748 0.99852 0.01221 0.0
C396 C 0.81125 0.98618 0.99651 0.0
H397 H 0.9361 0.9803 0.73451 0.0
H398 H 0.90147 0.97946 0.79698 0.0
C399 C 0.79086 0.98723 0.02779 0.0
C400 C 0.84863 -0.00134 0.97478 0.0
H401 H 0.87315 0.00833 0.82198 0.0
C402 C 0.86664 0.9931 0.0074 0.0
C403 C 0.85106 0.00427 0.90708 0.0
C404 C 0.83245 0.01107 0.8698 0.0
C405 C 0.88691 0.99266 0.97397 0.0
C406 C 0.88938 0.99838 0.90626 0.0
C407 C 0.87133 0.00392 0.87373 0.0
C408 C 0.91051 -0.00109 0.86834 0.0
C409 C 0.90542 0.98558 0.01129 0.0
C410 C 0.92708 0.0104 0.88666 0.0
C411 C 0.94691 0.01086 0.85116 0.0
C412 C 0.95061 -0.0 0.79592 0.0
C413 C 0.93386 0.98882 0.77677 0.0
C414 C 0.91403 0.98832 0.81252 0.0
H415 H 0.90008 0.97649 0.05621 0.0
H416 H 0.91662 0.97697 0.98065 0.0
H417 H 0.91409 0.99829 0.02637 0.0
H418 H 0.92467 0.01914 0.92834 0.0
H419 H 0.95935 0.01976 0.86713 0.0
H420 H 0.51553 0.75437 0.16124 0.0
H421 H 0.51409 0.78838 0.11652 0.0
H422 H 0.55654 0.77449 0.95213 0.0
H423 H 0.55803 0.74062 0.99721 0.0
H424 H 0.56521 0.81103 0.01155 0.0
H425 H 0.48172 0.80289 0.94896 0.0
H426 H 0.48714 0.79579 0.03183 0.0
H427 H 0.49854 0.78227 0.96643 0.0
C428 C 0.52477 0.75878 0.11622 0.0
C429 C 0.53681 0.74509 0.08224 0.0
C430 C 0.52385 0.77806 0.09052 0.0
C431 C 0.535 0.78382 0.03066 0.0
C432 C 0.54777 0.77029 0.99823 0.0
H433 H 0.54856 0.88918 0.77324 0.0
H434 H 0.55202 0.85664 0.82679 0.0
C435 C 0.5486 0.75104 0.02375 0.0
C436 C 0.53271 0.80369 1.00012 0.0
H437 H 0.49743 0.83379 0.92628 0.0
C438 C 0.55041 0.81607 0.99296 0.0
C439 C 0.51338 0.81011 0.97587 0.0
C440 C 0.4941 0.79709 0.98054 0.0
C441 C 0.54921 0.83491 0.96281 0.0
C442 C 0.52992 0.84127 0.93784 0.0
C443 C 0.5122 0.82887 0.94535 0.0
C444 C 0.52765 0.86082 0.9043 0.0
C445 C 0.56846 0.84793 0.95918 0.0
C446 C 0.51227 0.87369 0.92864 0.0
C447 C 0.50999 0.89213 0.89753 0.0
C448 C 0.52306 0.89812 0.84131 0.0
C449 C 0.53817 0.88502 0.81622 0.0
C450 C 0.54038 0.86651 0.8473 0.0
H451 H 0.57973 0.84298 0.99575 0.0
H452 H 0.5769 0.84766 0.90994 0.0
H453 H 0.56387 0.86318 0.96726 0.0
H454 H 0.50211 0.8695 0.97213 0.0
H455 H 0.49791 0.90169 0.91746 0.0
H456 H 0.75767 0.51438 0.16017 0.0
H457 H 0.7267 0.52041 0.09574 0.0
H458 H 0.71138 0.45928 0.11862 0.0
H459 H 0.74243 0.45336 0.18222 0.0
H460 H 0.72207 0.4986 0.97465 0.0
H461 H 0.65411 0.49005 0.16248 0.0
H462 H 0.68035 0.49702 0.18163 0.0
H463 H 0.67482 0.47218 0.16811 0.0
C464 C 0.74727 0.50243 0.15262 0.0
C465 C 0.75204 0.48348 0.17614 0.0
C466 C 0.72978 0.50581 0.11574 0.0
C467 C 0.71677 0.49029 0.10299 0.0
C468 C 0.72111 0.47145 0.12875 0.0
H469 H 0.61118 0.46485 0.88909 0.0
H470 H 0.64124 0.46532 0.95703 0.0
C471 C 0.73871 0.46807 0.16493 0.0
C472 C 0.69973 0.49329 0.0582 0.0
H473 H 0.6462 0.48993 0.05162 0.0
C474 C 0.70543 0.49697 0.99126 0.0
C475 C 0.67817 0.49103 0.08044 0.0
C476 C 0.67136 0.48749 0.15214 0.0
C477 C 0.69007 0.49761 0.94533 0.0
C478 C 0.66847 0.49494 0.96743 0.0
C479 C 0.66278 0.49188 0.03474 0.0
C480 C 0.65149 0.49435 0.9218 0.0
C481 C 0.69722 0.50023 0.87359 0.0
C482 C 0.64752 0.51038 0.87854 0.0
C483 C 0.63049 0.51002 0.83897 0.0
C484 C 0.61702 0.49375 0.84307 0.0
C485 C 0.62132 0.47759 0.88529 0.0
C486 C 0.63842 0.47787 0.92415 0.0
H487 H 0.7144 0.49712 0.86435 0.0
H488 H 0.68812 0.49062 0.84467 0.0
H489 H 0.69447 0.51552 0.85574 0.0
H490 H 0.65713 0.5234 0.87689 0.0
H491 H 0.62728 0.52275 0.80745 0.0
H492 H 0.99877 0.73496 0.07099 0.0
H493 H 1.00198 0.7026 0.0285 0.0
H494 H 0.93373 0.69818 0.0359 0.0
H495 H 0.93069 0.73087 0.07679 0.0
H496 H 0.98709 0.66626 0.07568 0.0
H497 H 0.95199 0.69062 0.84428 0.0
H498 H 0.96013 0.70742 0.90109 0.0
H499 H 0.93547 0.69443 0.91723 0.0
C500 C 0.98454 0.72687 0.06415 0.0
C501 C 0.96451 0.73516 0.0769 0.0
C502 C 0.98633 0.70848 0.04 0.0
C503 C 0.96809 0.69815 0.02804 0.0
C504 C 0.948 0.70607 0.0437 0.0
H505 H 0.97127 0.57737 0.92648 0.0
H506 H 0.96388 0.60754 0.97977 0.0
C507 C 0.94623 0.72454 0.06768 0.0
C508 C 0.97032 0.67947 0.99688 0.0
H509 H 0.96071 0.65734 0.85861 0.0
C510 C 0.98124 0.66425 0.02836 0.0
C511 C 0.963 0.67706 0.93461 0.0
C512 C 0.95216 0.69328 0.89689 0.0
C513 C 0.98507 0.64664 0.99925 0.0
C514 C 0.97736 0.64409 0.93759 0.0
C515 C 0.96643 0.6593 0.90611 0.0
C516 C 0.98102 0.62592 0.9041 0.0
C517 C 0.99787 0.63118 0.0339 0.0
C518 C 0.99244 0.62636 0.84274 0.0
C519 C 0.99655 0.60915 0.81193 0.0
C520 C 0.98933 0.59123 0.84208 0.0
C521 C 0.9774 0.59093 0.90271 0.0
C522 C 0.97319 0.60813 0.93325 0.0
H523 H 0.00715 0.63725 0.07157 0.0
H524 H 0.98697 0.61994 0.05876 0.0
H525 H 0.00899 0.62399 0.99875 0.0
H526 H 0.99853 0.63997 0.8193 0.0
H527 H 0.00587 0.60982 0.7654 0.0
H528 H 0.09026 0.17651 0.29293 0.0
H529 H 0.07583 0.14398 0.32638 0.0
H530 H 0.01756 0.16992 0.40147 0.0
H531 H 0.03175 0.20228 0.36553 0.0
H532 H 0.06429 0.13041 0.44923 0.0
H533 H 0.99525 0.12698 0.30053 0.0
H534 H 0.01601 0.14496 0.28304 0.0
H535 H 0.99498 0.14844 0.34518 0.0
C536 C 0.07432 0.17511 0.31609 0.0
C537 C 0.06214 0.19171 0.32767 0.0
C538 C 0.06608 0.15663 0.33496 0.0
C539 C 0.04549 0.15452 0.36549 0.0
C540 C 0.03328 0.17117 0.37664 0.0
H541 H 0.99936 0.06757 0.64997 0.0
H542 H 0.0072 0.09729 0.58098 0.0
C543 C 0.04149 0.18961 0.35735 0.0
C544 C 0.03753 0.13511 0.39123 0.0
H545 H 0.99517 0.10423 0.3953 0.0
C546 C 0.04933 0.12458 0.43663 0.0
C547 C 0.01812 0.12739 0.3742 0.0
C548 C 0.00547 0.13744 0.32252 0.0
C549 C 0.04181 0.10699 0.46775 0.0
C550 C 0.02177 0.09993 0.454 0.0
C551 C 0.01037 0.1099 0.40636 0.0
C552 C 0.01233 0.08266 0.49151 0.0
C553 C 0.0552 0.09623 0.51616 0.0
C554 C 0.01136 0.0648 0.46305 0.0
C555 C 0.00666 0.04774 0.5024 0.0
C556 C 0.00308 0.04845 0.57049 0.0
C557 C 0.00225 0.0666 0.59769 0.0
C558 C 0.00674 0.08357 0.55844 0.0
H559 H 0.07205 0.10098 0.50951 0.0
H560 H 0.04902 0.09914 0.5665 0.0
H561 H 0.05449 0.0803 0.51149 0.0
H562 H 0.0156 0.0639 0.41133 0.0
H563 H 0.00748 0.03392 0.48028 0.0
H564 H 0.3103 0.95425 0.35498 0.0
H565 H 0.3453 0.9488 0.39766 0.0
H566 H 0.36353 0.00752 0.33092 0.0
H567 H 0.32862 0.0128 0.28805 0.0
H568 H 0.39558 0.98031 0.30639 0.0
H569 H 0.36149 0.97202 0.56429 0.0
H570 H 0.35125 0.95554 0.51045 0.0
H571 H 0.34622 0.98114 0.49821 0.0
C572 C 0.3219 0.96588 0.3496 0.0
C573 C 0.31693 0.98395 0.31902 0.0
C574 C 0.34178 0.96281 0.37387 0.0
C575 C 0.35686 0.97787 0.36836 0.0
C576 C 0.3521 0.99573 0.3358 0.0
H577 H 0.47117 0.0126 0.51408 0.0
H578 H 0.44142 0.00682 0.44917 0.0
C579 C 0.33226 -0.00124 0.31141 0.0
C580 C 0.37729 0.97543 0.39874 0.0
H581 H 0.3985 0.96957 0.54649 0.0
C582 C 0.39625 0.97779 0.35883 0.0
C583 C 0.37809 0.9721 0.46716 0.0
C584 C 0.35821 0.9702 0.51275 0.0
C585 C 0.41602 0.97729 0.38572 0.0
C586 C 0.41677 0.9746 0.45426 0.0
C587 C 0.39786 0.97152 0.4939 0.0
C588 C 0.43664 0.97693 0.48669 0.0
C589 C 0.43592 0.97988 0.34064 0.0
C590 C 0.44388 0.96201 0.52933 0.0
C591 C 0.46093 0.96529 0.56682 0.0
C592 C 0.47076 0.98364 0.56288 0.0
C593 C 0.46393 0.9983 0.51833 0.0
C594 C 0.44702 0.99498 0.48073 0.0
H595 H 0.43331 0.97564 0.29071 0.0
H596 H 0.44067 0.99542 0.33672 0.0
H597 H 0.44919 0.97115 0.3596 0.0
H598 H 0.43594 0.94803 0.53499 0.0
H599 H 0.46577 0.95373 0.60085 0.0
H600 H 0.54258 0.31426 0.31336 0.0
H601 H 0.5509 0.34529 0.35808 0.0
H602 H 0.48829 0.36631 0.32115 0.0
H603 H 0.47982 0.3351 0.27869 0.0
H604 H 0.5496 0.38525 0.30745 0.0
H605 H 0.49147 0.36868 0.52002 0.0
H606 H 0.50065 0.35054 0.46538 0.0
H607 H 0.4805 0.36759 0.44238 0.0
C608 C 0.53071 0.3256 0.31486 0.0
C609 C 0.5105 0.32238 0.29371 0.0
C610 C 0.53549 0.34329 0.33978 0.0
C611 C 0.52008 0.35792 0.34378 0.0
C612 C 0.50027 0.35506 0.31931 0.0
H613 H 0.50149 0.46779 0.50034 0.0
H614 H 0.50335 0.44016 0.43243 0.0
C615 C 0.49549 0.33736 0.29476 0.0
C616 C 0.52409 0.37564 0.37755 0.0
H617 H 0.50571 0.40065 0.50754 0.0
C618 C 0.54015 0.3886 0.35146 0.0
C619 C 0.51189 0.37977 0.43545 0.0
C620 C 0.4953 0.36584 0.46793 0.0
C621 C 0.54373 0.40604 0.38061 0.0
C622 C 0.53096 0.41042 0.43695 0.0
C623 C 0.51534 0.39723 0.46391 0.0
C624 C 0.53264 0.42899 0.46782 0.0
C625 C 0.56061 0.41996 0.35035 0.0
C626 C 0.5489 0.43211 0.50874 0.0
C627 C 0.5479 0.44796 0.54795 0.0
C628 C 0.53049 0.46069 0.54698 0.0
C629 C 0.51501 0.45815 0.50267 0.0
C630 C 0.51606 0.44241 0.46363 0.0
H631 H 0.56824 0.41502 0.30394 0.0
H632 H 0.55361 0.43457 0.34064 0.0
H633 H 0.573 0.42146 0.38514 0.0
H634 H 0.5617 0.42172 0.513 0.0
H635 H 0.56001 0.44953 0.58175 0.0
H636 H 0.18603 0.50173 0.20588 0.0
H637 H 0.15003 0.50734 0.25302 0.0
H638 H 0.16546 0.5676 0.27031 0.0
H639 H 0.20163 0.56186 0.22251 0.0
H640 H 0.15059 0.54897 0.38549 0.0
H641 H 0.09668 0.53416 0.19571 0.0
H642 H 0.11589 0.51521 0.20538 0.0
H643 H 0.12456 0.53937 0.17683 0.0
C644 C 0.18143 0.51628 0.21779 0.0
C645 C 0.19635 0.53142 0.21057 0.0
C646 C 0.16089 0.51952 0.24443 0.0
C647 C 0.15495 0.53798 0.26418 0.0
C648 C 0.16966 0.55332 0.2547 0.0
H649 H 0.04774 0.55011 0.55971 0.0
H650 H 0.07411 0.56087 0.47095 0.0
C651 C 0.19023 0.55006 0.22778 0.0
C652 C 0.13461 0.54028 0.30342 0.0
H653 H 0.08194 0.52921 0.30833 0.0
C654 C 0.13544 0.54519 0.36824 0.0
C655 C 0.11493 0.53532 0.28066 0.0
C656 C 0.11292 0.53091 0.21059 0.0
C657 C 0.11745 0.5437 0.41251 0.0
C658 C 0.09801 0.53755 0.3908 0.0
C659 C 0.09687 0.5339 0.32483 0.0
C660 C 0.07974 0.53208 0.43768 0.0
C661 C 0.1198 0.54728 0.48321 0.0
C662 C 0.07351 0.51253 0.44624 0.0
C663 C 0.05845 0.50638 0.49631 0.0
C664 C 0.0493 0.51969 0.53896 0.0
C665 C 0.05466 0.53949 0.52804 0.0
C666 C 0.06975 0.54565 0.47755 0.0
H667 H 0.13666 0.54887 0.49372 0.0
H668 H 0.11137 0.56086 0.49527 0.0
H669 H 0.11264 0.53517 0.51593 0.0
H670 H 0.081 0.50183 0.41593 0.0
H671 H 0.05454 0.49105 0.5029 0.0
H672 H 1.00073 0.80374 0.13511 0.0
H673 H 0.01522 0.83648 0.1035 0.0
H674 H 0.96787 0.84532 0.96398 0.0
H675 H 0.95353 0.81261 0.99589 0.0
H676 H 0.03087 0.85068 0.97282 0.0
H677 H 0.964 0.894 0.07508 0.0
H678 H 0.96784 0.86867 0.1 0.0
H679 H 0.95568 0.87538 0.02554 0.0
C680 C 0.99357 0.81282 0.09772 0.0
C681 C 0.97627 0.80593 0.06719 0.0
C682 C 1.00174 0.83139 0.0799 0.0
C683 C 0.99243 0.84331 0.032 0.0
C684 C 0.97505 0.83639 0.00169 0.0
H685 H 0.02306 0.93071 0.74649 0.0
H686 H 0.02067 0.90118 0.81875 0.0
C687 C 0.96701 0.81778 0.01927 0.0
C688 C 1.00136 0.86269 0.01102 0.0
H689 H 0.98739 0.91036 0.99073 0.0
C690 C 0.02158 0.86382 0.97779 0.0
C691 C 0.98938 0.8798 0.01886 0.0
C692 C 0.9681 0.87949 0.05741 0.0
C693 C 0.02944 0.88149 0.94769 0.0
C694 C 0.01663 0.89828 0.95056 0.0
C695 C 0.99713 0.89742 0.98818 0.0
C696 C 0.02161 0.91604 0.90778 0.0
C697 C 0.05105 0.88188 0.91114 0.0
C698 C 0.02308 0.93423 0.93389 0.0
C699 C 0.02448 0.95123 0.89247 0.0
C700 C 0.024 0.95024 0.82456 0.0
C701 C 0.02342 0.93194 0.79862 0.0
C702 C 0.02223 0.91503 0.83984 0.0
H703 H 0.06144 0.87032 0.93146 0.0
H704 H 0.04931 0.87924 0.85922 0.0
H705 H 0.05893 0.89619 0.9129 0.0
H706 H 0.02242 0.93528 0.9863 0.0
H707 H 0.02479 0.96515 0.9138 0.0
H708 H 0.6989 0.98472 0.10125 0.0
H709 H 0.66369 0.9902 0.06034 0.0
H710 H 0.67962 0.05054 0.01166 0.0
H711 H 0.71489 0.04488 0.05259 0.0
H712 H 0.63072 0.01638 0.09464 0.0
H713 H 0.66395 0.0309 0.8374 0.0
H714 H 0.67954 0.02029 0.90058 0.0
H715 H 0.674 0.04588 0.8962 0.0
C716 C 0.69472 -0.0009 0.08184 0.0
C717 C 0.70947 0.01432 0.0785 0.0
C718 C 0.6747 0.00226 0.05881 0.0
C719 C 0.66921 0.0207 0.03201 0.0
C720 C 0.68372 0.03612 0.03094 0.0
H721 H 0.55948 0.04534 0.80329 0.0
H722 H 0.58907 0.0511 0.87008 0.0
C723 C 0.70376 0.03293 0.05405 0.0
C724 C 0.64863 0.0234 0.00278 0.0
H725 H 0.62692 0.03146 0.85649 0.0
C726 C 0.62984 0.01988 0.04268 0.0
C727 C 0.64757 0.02804 0.93504 0.0
C728 C 0.6673 0.03136 0.88951 0.0
C729 C 0.60999 0.02041 0.01628 0.0
C730 C 0.609 0.02427 0.94815 0.0
C731 C 0.62772 0.02859 0.90875 0.0
C732 C 0.58919 0.02183 0.91542 0.0
C733 C 0.5903 0.0166 0.06147 0.0
C734 C 0.57933 0.00356 0.91932 0.0
C735 C 0.56254 0.00022 0.88127 0.0
C736 C 0.55532 0.01507 0.83813 0.0
C737 C 0.56464 0.03362 0.83615 0.0
C738 C 0.58154 0.03693 0.87422 0.0
H739 H 0.59281 0.0204 0.11193 0.0
H740 H 0.57656 0.02497 0.04395 0.0
H741 H 0.58634 0.00089 0.06359 0.0
H742 H 0.58526 0.99157 0.94956 0.0
H743 H 0.55572 0.98576 0.88402 0.0
H744 H 0.50463 0.66649 0.17136 0.0
H745 H 0.4965 0.63383 0.13897 0.0
H746 H 0.53712 0.64463 0.96188 0.0
H747 H 0.54605 0.6767 0.9961 0.0
H748 H 0.47783 0.62246 0.034 0.0
H749 H 0.55914 0.59314 0.03167 0.0
H750 H 0.55174 0.61536 0.0689 0.0
H751 H 0.55865 0.61554 0.9822 0.0
C752 C 0.51197 0.66167 0.12603 0.0
C753 C 0.52601 0.67392 0.08616 0.0
C754 C 0.50725 0.64314 0.1074 0.0
C755 C 0.51649 0.63667 0.04856 0.0
C756 C 0.53021 0.64911 0.00825 0.0
H757 H 0.47885 0.55575 0.78693 0.0
H758 H 0.47947 0.58184 0.86134 0.0
C759 C 0.5351 0.66749 0.02723 0.0
C760 C 0.51151 0.61716 0.02779 0.0
H761 H 0.53521 0.57726 0.96634 0.0
C762 C 0.49031 0.61237 0.02021 0.0
C763 C 0.5277 0.60376 0.01172 0.0
C764 C 0.55054 0.60712 0.0248 0.0
C765 C 0.48502 0.59505 0.99302 0.0
C766 C 0.50146 0.58256 0.9709 0.0
C767 C 0.52253 0.58687 0.98228 0.0
C768 C 0.49766 0.56567 0.93208 0.0
C769 C 0.46191 0.59042 0.98834 0.0
C770 C 0.5076 0.54781 0.94669 0.0
C771 C 0.50787 0.5332 0.903 0.0
C772 C 0.49775 0.53597 0.84469 0.0
C773 C 0.48647 0.55319 0.83216 0.0
C774 C 0.48671 0.56807 0.87501 0.0
H775 H 0.45192 0.59651 0.0288 0.0
H776 H 0.45668 0.59722 0.94178 0.0
H777 H 0.45905 0.57452 0.98983 0.0
H778 H 0.51611 0.54554 0.99033 0.0
H779 H 0.51668 0.52 0.91358 0.0
H780 H 0.8198 0.4355 0.18205 0.0
H781 H 0.8556 0.42794 0.13489 0.0
H782 H 0.8747 0.48727 0.15239 0.0
H783 H 0.83905 0.49476 0.19811 0.0
H784 H 0.87217 0.44595 0.01979 0.0
H785 H 0.92585 0.45727 0.21302 0.0
H786 H 0.89757 0.45401 0.23023 0.0
H787 H 0.90836 0.47754 0.20211 0.0
C788 C 0.83188 0.44672 0.17673 0.0
C789 C 0.82689 0.46564 0.19371 0.0
C790 C 0.85225 0.44242 0.15024 0.0
C791 C 0.86791 0.45696 0.14119 0.0
C792 C 0.86307 0.47568 0.1606 0.0
H793 H 0.97033 0.50124 0.90941 0.0
H794 H 0.9433 0.49061 0.99489 0.0
C795 C 0.84272 0.47999 0.18655 0.0
C796 C 0.88823 0.45363 0.10298 0.0
H797 H 0.94133 0.46252 0.10076 0.0
C798 C 0.88741 0.44899 0.03787 0.0
C799 C 0.90803 0.4576 0.12682 0.0
C800 C 0.91002 0.46168 0.19716 0.0
C801 C 0.90561 0.44994 0.99433 0.0
C802 C 0.9252 0.45527 0.0171 0.0
C803 C 0.92628 0.45848 0.08341 0.0
C804 C 0.94376 0.46053 0.97109 0.0
C805 C 0.90338 0.44677 0.92326 0.0
C806 C 0.95349 0.44698 0.9306 0.0
C807 C 0.96893 0.45307 0.88101 0.0
C808 C 0.97488 0.47276 0.87157 0.0
C809 C 0.96598 0.486 0.91487 0.0
C810 C 0.95058 0.47993 0.96406 0.0
H811 H 0.88653 0.44564 0.9121 0.0
H812 H 0.91095 0.45886 0.89137 0.0
H813 H 0.91149 0.43308 0.91076 0.0
H814 H 0.94867 0.43187 0.93601 0.0
H815 H 0.97562 0.44249 0.84877 0.0
H816 H 0.10912 0.2036 0.1692 0.0
H817 H 0.10742 0.1785 0.0901 0.0
H818 H 0.03922 0.17708 0.12465 0.0
H819 H 0.04108 0.20233 0.20219 0.0
H820 H 0.09166 0.14176 0.12337 0.0
H821 H 0.04681 0.177 0.92714 0.0
H822 H 0.05927 0.19069 0.98557 0.0
H823 H 0.03373 0.17952 0.00657 0.0
C824 C 0.09383 0.19832 0.1577 0.0
C825 C 0.0752 0.20487 0.19046 0.0
C826 C 0.09284 0.18395 0.11322 0.0
C827 C 0.07317 0.17612 0.10084 0.0
C828 C 0.05451 0.18325 0.1321 0.0
H829 H 0.01763 0.07731 0.96107 0.0
H830 H 0.02807 0.1062 0.01324 0.0
C831 C 0.05553 0.19758 0.17636 0.0
C832 C 0.07207 0.15915 0.06089 0.0
H833 H 0.04648 0.14192 0.93646 0.0
C834 C 0.08216 0.14188 0.0816 0.0
C835 C 0.05965 0.15935 0.00651 0.0
C836 C 0.04943 0.17771 0.97972 0.0
C837 C 0.0792 0.12453 0.05149 0.0
C838 C 0.06591 0.12457 0.99936 0.0
C839 C 0.05655 0.14198 0.97688 0.0
C840 C 0.06036 0.10646 0.97019 0.0
C841 C 0.08941 0.10607 0.07743 0.0
C842 C 0.07519 0.09698 0.92935 0.0
C843 C 0.06924 0.08051 0.89897 0.0
C844 C 0.04833 0.07334 0.90894 0.0
C845 C 0.03375 0.08263 0.95151 0.0
C846 C 0.03968 0.09908 0.98154 0.0
H847 H 0.0975 0.10812 0.12257 0.0
H848 H 0.07729 0.09443 0.08805 0.0
H849 H 0.1013 0.10106 0.03976 0.0
H850 H 0.09119 0.1026 0.91971 0.0
H851 H 0.08077 0.07384 0.86587 0.0
H852 H 0.31777 0.9661 0.1927 0.0
H853 H 0.34782 0.96999 0.11005 0.0
H854 H 0.33202 0.03051 0.07511 0.0
H855 H 0.30206 0.02657 0.159 0.0
H856 H 0.35003 0.98257 0.9766 0.0
H857 H 0.39445 0.0321 0.11964 0.0
H858 H 0.37201 0.01789 0.15522 0.0
H859 H 0.36793 0.03953 0.10398 0.0
C860 C 0.32064 0.98015 0.16671 0.0
C861 C 0.30769 0.99603 0.18194 0.0
C862 C 0.33778 0.98239 0.11963 0.0
C863 C 0.34243 0.00061 0.087 0.0
C864 C 0.32898 0.01638 0.10038 0.0
H865 H 0.45149 0.03451 0.81022 0.0
H866 H 0.41829 0.03489 0.88035 0.0
C867 C 0.31174 0.01411 0.14755 0.0
C868 C 0.3616 0.00296 0.04018 0.0
H869 H 0.41039 0.02483 0.01677 0.0
C870 C 0.36317 0.99189 0.98524 0.0
C871 C 0.37881 0.0151 0.05142 0.0
C872 C 0.37842 0.02674 0.11097 0.0
C873 C 0.38143 0.99255 0.94151 0.0
C874 C 0.39882 0.00436 0.95348 0.0
C875 C 0.39708 0.01579 0.00757 0.0
C876 C 0.41923 0.00435 0.91196 0.0
C877 C 0.38191 0.98063 0.88263 0.0
C878 C 0.43107 0.98718 0.90744 0.0
C879 C 0.45004 0.98692 0.86768 0.0
C880 C 0.45771 0.00387 0.83149 0.0
C881 C 0.44606 0.02118 0.83718 0.0
C882 C 0.42706 0.02143 0.87726 0.0
H883 H 0.36566 0.97685 0.87051 0.0
H884 H 0.39025 0.98852 0.83925 0.0
H885 H 0.39053 0.96687 0.89318 0.0
H886 H 0.42563 0.9739 0.93476 0.0
H887 H 0.45859 0.97333 0.86494 0.0
H888 H 0.46022 0.31002 0.16365 0.0
H889 H 0.45598 0.33603 0.07727 0.0
H890 H 0.52302 0.34832 0.07041 0.0
H891 H 0.52718 0.32225 0.15575 0.0
H892 H 0.46627 0.37594 0.08423 0.0
H893 H 0.51198 0.34425 0.87717 0.0
H894 H 0.50207 0.3298 0.94965 0.0
H895 H 0.52611 0.34369 0.94972 0.0
C896 C 0.47402 0.31809 0.14243 0.0
C897 C 0.49405 0.31417 0.16538 0.0
C898 C 0.4716 0.33295 0.09365 0.0
C899 C 0.48924 0.34389 0.06681 0.0
C900 C 0.50928 0.3398 0.08949 0.0
H901 H 0.52981 0.44453 0.84238 0.0
H902 H 0.52319 0.41445 0.90972 0.0
C903 C 0.51165 0.32505 0.1383 0.0
C904 C 0.48679 0.36035 0.01777 0.0
H905 H 0.5068 0.37885 0.86761 0.0
C906 C 0.47474 0.37648 0.03628 0.0
C907 C 0.49779 0.36093 0.95523 0.0
C908 C 0.51005 0.34366 0.93141 0.0
C909 C 0.47458 0.39368 0.99545 0.0
C910 C 0.48658 0.3946 0.93445 0.0
C911 C 0.49768 0.37811 0.91458 0.0
C912 C 0.48983 0.41308 0.89378 0.0
C913 C 0.46263 0.41111 0.0193 0.0
C914 C 0.47318 0.42233 0.8624 0.0
C915 C 0.47691 0.43969 0.82351 0.0
C916 C 0.49734 0.44797 0.81546 0.0
C917 C 0.51387 0.43861 0.84734 0.0
C918 C 0.51015 0.42136 0.88585 0.0
H919 H 0.45635 0.40875 0.07116 0.0
H920 H 0.47308 0.42413 0.01421 0.0
H921 H 0.44907 0.41422 0.98898 0.0
H922 H 0.45742 0.41604 0.86741 0.0
H923 H 0.46388 0.44651 0.79943 0.0
H924 H 0.20163 0.54288 0.06821 0.0
H925 H 0.1748 0.53428 0.99497 0.0
H926 H 0.19173 0.4738 0.02379 0.0
H927 H 0.21833 0.48249 0.09825 0.0
H928 H 0.17719 0.5135 0.8787 0.0
H929 H 0.12776 0.47603 0.08554 0.0
H930 H 0.14931 0.49212 0.09812 0.0
H931 H 0.1548 0.46805 0.07343 0.0
C932 C 0.19979 0.52782 0.05778 0.0
C933 C 0.21192 0.51332 0.08827 0.0
C934 C 0.18454 0.52291 0.01616 0.0
C935 C 0.18115 0.50339 0.00469 0.0
C936 C 0.19399 0.48893 0.03266 0.0
H937 H 0.07491 0.46237 0.79557 0.0
H938 H 0.1084 0.46243 0.84883 0.0
C939 C 0.20929 0.49388 0.07436 0.0
C940 C 0.1633 0.49833 0.96658 0.0
H941 H 0.11368 0.47826 0.98276 0.0
C942 C 0.16342 0.50556 0.90112 0.0
C943 C 0.14533 0.48807 0.99628 0.0
C944 C 0.14408 0.4807 0.06731 0.0
C945 C 0.14578 0.50321 0.86495 0.0
C946 C 0.1276 0.49351 0.89526 0.0
C947 C 0.12776 0.48559 0.95982 0.0
C948 C 0.10757 0.49322 0.86285 0.0
C949 C 0.14644 0.51154 0.79507 0.0
C950 C 0.09601 0.51045 0.85427 0.0
C951 C 0.0769 0.51045 0.82465 0.0
C952 C 0.06902 0.4932 0.80276 0.0
C953 C 0.0806 0.47589 0.81176 0.0
C954 C 0.0997 0.47589 0.84206 0.0
H955 H 0.16294 0.51469 0.77455 0.0
H956 H 0.13899 0.50137 0.76394 0.0
H957 H 0.13735 0.52533 0.79296 0.0
H958 H 0.10177 0.52391 0.87078 0.0
H959 H 0.06839 0.52403 0.81849 0.0
H960 H 0.97518 0.78304 0.26037 0.0
H961 H 0.97311 0.81042 0.33085 0.0
H962 H 0.92836 0.83893 0.20786 0.0
H963 H 0.93095 0.81169 0.13704 0.0
H964 H 0.96142 0.86159 0.22066 0.0
H965 H 0.93116 0.83148 0.46625 0.0
H966 H 0.9533 0.81797 0.43342 0.0
H967 H 0.92889 0.81859 0.3936 0.0
C968 C 0.96432 0.79485 0.25034 0.0
C969 C 0.953 0.79535 0.19432 0.0
C970 C 0.96311 0.81046 0.29037 0.0
C971 C 0.95037 0.82664 0.27508 0.0
C972 C 0.93817 0.82656 0.22086 0.0
H973 H 0.94465 0.92647 0.5186 0.0
H974 H 0.93412 0.89954 0.45618 0.0
C975 C 0.93952 0.81103 0.18075 0.0
C976 C 0.95195 0.84462 0.31 0.0
H977 H 0.94965 0.8621 0.46158 0.0
C978 C 0.95851 0.86176 0.27324 0.0
C979 C 0.94799 0.8449 0.3785 0.0
C980 C 0.93973 0.82729 0.42016 0.0
C981 C 0.96199 0.87897 0.30328 0.0
C982 C 0.95932 0.87894 0.37215 0.0
C983 C 0.95191 0.86204 0.40879 0.0
C984 C 0.96526 0.89593 0.40721 0.0
C985 C 0.96862 0.89699 0.26085 0.0
C986 C 0.98622 0.90281 0.4003 0.0
C987 C 0.99222 0.91824 0.43531 0.0
C988 C 0.97742 0.92701 0.4786 0.0
C989 C 0.95635 0.92021 0.48502 0.0
C990 C 0.95035 0.90474 0.44981 0.0
H991 H 0.96335 0.8964 0.21071 0.0
H992 H 0.96207 0.91032 0.28208 0.0
H993 H 0.98619 0.89808 0.25664 0.0
H994 H 0.99808 0.89599 0.36863 0.0
H995 H 0.00852 0.92323 0.42879 0.0
H996 H 0.72285 0.97216 0.23828 0.0
H997 H 0.69186 0.96851 0.31853 0.0
H998 H 0.67784 0.02943 0.28423 0.0
H999 H 0.70873 0.03298 0.20464 0.0
H1000 H 0.6793 0.98789 0.43473 0.0
H1001 H 0.62307 0.00213 0.24289 0.0
H1002 H 0.65067 0.99649 0.22406 0.0
H1003 H 0.64295 0.02063 0.24368 0.0
C1004 C 0.71339 0.98479 0.2493 0.0
C1005 C 0.71813 0.00287 0.21568 0.0
C1006 C 0.69562 0.9827 0.2946 0.0
C1007 C 0.68226 0.99862 0.30648 0.0
C1008 C 0.68762 0.01685 0.27498 0.0
H1009 H 0.56652 0.02503 0.53128 0.0
H1010 H 0.59879 0.02425 0.45838 0.0
C1011 C 0.70533 0.01892 0.22997 0.0
C1012 C 0.66241 0.99624 0.35033 0.0
H1013 H 0.60862 0.00207 0.35329 0.0
C1014 C 0.66381 0.99079 0.41692 0.0
C1015 C 0.64219 -2e-05 0.32698 0.0
C1016 C 0.63952 0.00495 0.25541 0.0
C1017 C 0.64564 0.98975 0.4612 0.0
C1018 C 0.62545 0.99392 0.43809 0.0
C1019 C 0.62405 -0.00106 0.37118 0.0
C1020 C 0.60567 0.99399 0.48272 0.0
C1021 C 0.64832 0.98492 0.53276 0.0
C1022 C 0.5985 0.97715 0.52032 0.0
C1023 C 0.57995 0.97754 0.56237 0.0
C1024 C 0.56811 0.99477 0.56746 0.0
C1025 C 0.5752 0.0115 0.52891 0.0
C1026 C 0.59369 0.01109 0.48702 0.0
H1027 H 0.66504 0.98662 0.54458 0.0
H1028 H 0.6381 0.99433 0.56361 0.0
H1029 H 0.64355 0.96959 0.54576 0.0
H1030 H 0.60719 0.96366 0.51694 0.0
H1031 H 0.57493 0.96436 0.59102 0.0
H1032 H 0.56584 0.66714 0.15244 0.0
H1033 H 0.56947 0.63957 0.23302 0.0
H1034 H 0.5239 0.66598 0.36654 0.0
H1035 H 0.52056 0.69366 0.28591 0.0
H1036 H 0.55784 0.64766 0.42843 0.0
H1037 H 0.52129 0.59963 0.26153 0.0
H1038 H 0.54482 0.61217 0.22714 0.0
H1039 H 0.52132 0.62576 0.24851 0.0
C1040 C 0.55696 0.66711 0.19959 0.0
C1041 C 0.54286 0.68228 0.21339 0.0
C1042 C 0.55893 0.6514 0.24531 0.0
C1043 C 0.54665 0.65058 0.30522 0.0
C1044 C 0.53348 0.66633 0.32052 0.0
H1045 H 0.4986 0.5533 0.54799 0.0
H1046 H 0.50576 0.58207 0.47446 0.0
C1047 C 0.53161 0.6821 0.27482 0.0
C1048 C 0.54625 0.63273 0.34977 0.0
H1049 H 0.53169 0.58492 0.36083 0.0
C1050 C 0.55227 0.63389 0.41369 0.0
C1051 C 0.53872 0.61486 0.33042 0.0
C1052 C 0.53099 0.61297 0.26341 0.0
C1053 C 0.55075 0.61766 0.45911 0.0
C1054 C 0.54329 0.59979 0.43965 0.0
C1055 C 0.53759 0.5986 0.37541 0.0
C1056 C 0.53945 0.58256 0.48631 0.0
C1057 C 0.55635 0.61995 0.52816 0.0
C1058 C 0.55607 0.5732 0.51758 0.0
C1059 C 0.55201 0.55665 0.56025 0.0
C1060 C 0.53129 0.54916 0.57182 0.0
C1061 C 0.51476 0.55862 0.54027 0.0
C1062 C 0.51881 0.5751 0.49807 0.0
H1063 H 0.55771 0.63547 0.53858 0.0
H1064 H 0.54425 0.61284 0.56391 0.0
H1065 H 0.57183 0.61284 0.53567 0.0
H1066 H 0.57219 0.57853 0.50832 0.0
H1067 H 0.56509 0.54965 0.58356 0.0
H1068 H 0.80897 0.51634 0.30205 0.0
H1069 H 0.83678 0.52365 0.37446 0.0
H1070 H 0.84862 0.46232 0.40868 0.0
H1071 H 0.82076 0.45507 0.33702 0.0
H1072 H 0.84517 0.50079 0.52248 0.0
H1073 H 0.90392 0.49645 0.30786 0.0
H1074 H 0.87695 0.50436 0.29915 0.0
H1075 H 0.88236 0.47919 0.31826 0.0
C1076 C 0.81708 0.5045 0.32696 0.0
C1077 C 0.81283 0.48517 0.31473 0.0
C1078 C 0.83295 0.50865 0.36778 0.0
C1079 C 0.84463 0.49348 0.39659 0.0
C1080 C 0.83965 0.47416 0.38693 0.0
H1081 H 0.95954 0.47068 0.57312 0.0
H1082 H 0.92724 0.47165 0.51532 0.0
C1083 C 0.82384 0.47004 0.34624 0.0
C1084 C 0.86345 0.49762 0.43137 0.0
H1085 H 0.91747 0.49804 0.41107 0.0
C1086 C 0.86101 0.5005 0.49827 0.0
C1087 C 0.88395 0.49713 0.39916 0.0
C1088 C 0.88714 0.4942 0.32705 0.0
C1089 C 0.87878 0.50217 0.53463 0.0
C1090 C 0.89935 0.50113 0.50272 0.0
C1091 C 0.90167 0.49885 0.4353 0.0
C1092 C 0.91869 0.50087 0.53894 0.0
C1093 C 0.87546 0.50414 0.60727 0.0
C1094 C 0.92465 0.51708 0.57101 0.0
C1095 C 0.94316 0.51659 0.60431 0.0
C1096 C 0.95602 0.49989 0.60573 0.0
C1097 C 0.95 0.48376 0.57313 0.0
C1098 C 0.93155 0.48428 0.53999 0.0
H1099 H 0.85876 0.50116 0.62614 0.0
H1100 H 0.88601 0.49404 0.63403 0.0
H1101 H 0.87948 0.51917 0.61804 0.0
H1102 H 0.9151 0.53014 0.5698 0.0
H1103 H 0.94741 0.52928 0.62872 0.0
loop_
_geom_bond_atom_site_label_1
_geom_bond_atom_site_label_2
_geom_bond_distance
_geom_bond_site_symmetry_2
_ccdc_geom_bond_type
C0 N1 1.317 . S
C0 N2 1.348 . S
C0 C3 1.485 . S
N1 C0 1.317 . S
N1 N5 1.370 . S
N2 C0 1.348 . S
N2 C4 1.346 . S
C3 C0 1.485 . S
C3 H7 0.960 . S
C3 H8 0.961 . S
C3 H9 0.960 . S
C4 N2 1.346 . S
C4 N5 1.307 . S
C4 C6 1.486 1_554 S
N5 N1 1.370 . S
N5 C4 1.307 . S
C6 C4 1.486 1_556 S
C6 H10 0.960 . S
C6 H11 0.960 . S
C6 H12 0.959 . S
H7 C3 0.960 . S
H8 C3 0.961 . S
H9 C3 0.960 . S
H10 C6 0.960 . S
H11 C6 0.960 . S
H12 C6 0.959 . S
C13 N14 1.317 . S
C13 N15 1.348 1_554 S
C13 C16 1.485 . S
N14 C13 1.317 . S
N14 N18 1.370 1_554 S
N15 C13 1.348 1_556 S
N15 C17 1.346 . S
C16 C13 1.485 . S
C16 H20 0.960 . S
C16 H21 0.961 . S
C16 H22 0.960 . S
C17 N15 1.346 . S
C17 N18 1.307 . S
C17 C19 1.486 . S
N18 N14 1.370 1_556 S
N18 C17 1.307 . S
C19 C17 1.486 . S
C19 H23 0.960 . S
C19 H24 0.960 . S
C19 H25 0.959 . S
H20 C16 0.960 . S
H21 C16 0.961 . S
H22 C16 0.960 . S
H23 C19 0.960 . S
H24 C19 0.960 . S
H25 C19 0.959 . S
C26 N27 1.317 . S
C26 N28 1.348 . S
C26 C29 1.485 . S
N27 C26 1.317 . S
N27 N31 1.370 . S
N28 C26 1.348 . S
N28 C30 1.347 1_565 S
C29 C26 1.485 . S
C29 H33 0.960 1_565 S
C29 H34 0.961 . S
C29 H35 0.960 . S
C30 N28 1.347 1_545 S
C30 N31 1.307 1_545 S
C30 C32 1.488 1_554 S
N31 N27 1.370 . S
N31 C30 1.307 1_565 S
C32 C30 1.488 1_556 S
C32 H36 0.924 1_545 S
C32 H37 0.988 . S
C32 H38 0.966 . S
H33 C29 0.960 1_545 S
H34 C29 0.961 . S
H35 C29 0.960 . S
H36 C32 0.924 1_565 S
H37 C32 0.988 . S
H38 C32 0.966 . S
C39 N40 1.317 . S
C39 N41 1.348 . S
C39 C42 1.485 . S
N40 C39 1.317 . S
N40 N44 1.370 . S
N41 C39 1.348 . S
N41 C43 1.346 . S
C42 C39 1.485 . S
C42 H46 0.960 . S
C42 H47 0.961 . S
C42 H48 0.960 . S
C43 N41 1.346 . S
C43 N44 1.307 . S
C43 C45 1.486 1_554 S
N44 N40 1.370 . S
N44 C43 1.307 . S
C45 C43 1.486 1_556 S
C45 H49 0.960 . S
C45 H50 0.960 . S
C45 H51 0.959 . S
H46 C42 0.960 . S
H47 C42 0.961 . S
H48 C42 0.960 . S
H49 C45 0.960 . S
H50 C45 0.960 . S
H51 C45 0.959 . S
C52 N53 1.317 . S
C52 N54 1.348 . S
C52 C55 1.485 . S
N53 C52 1.317 . S
N53 N57 1.370 . S
N54 C52 1.348 . S
N54 C56 1.346 . S
C55 C52 1.485 . S
C55 H59 0.960 . S
C55 H60 0.961 . S
C55 H61 0.960 . S
C56 N54 1.346 . S
C56 N57 1.307 . S
C56 C58 1.486 . S
N57 N53 1.370 . S
N57 C56 1.307 . S
C58 C56 1.486 . S
C58 H62 0.960 . S
C58 H63 0.960 . S
C58 H64 0.959 . S
H59 C55 0.960 . S
H60 C55 0.961 . S
H61 C55 0.960 . S
H62 C58 0.960 . S
H63 C58 0.960 . S
H64 C58 0.959 . S
C65 N66 1.317 . S
C65 N67 1.348 . S
C65 C68 1.485 . S
N66 C65 1.317 . S
N66 N70 1.370 . S
N67 C65 1.348 . S
N67 C69 1.346 . S
C68 C65 1.485 . S
C68 H72 0.960 . S
C68 H73 0.961 . S
C68 H74 0.960 . S
C69 N67 1.346 . S
C69 N70 1.307 . S
C69 C71 1.486 . S
N70 N66 1.370 . S
N70 C69 1.307 . S
C71 C69 1.486 . S
C71 H75 0.960 . S
C71 H76 0.960 . S
C71 H77 0.959 . S
H72 C68 0.960 . S
H73 C68 0.961 . S
H74 C68 0.960 . S
H75 C71 0.960 . S
H76 C71 0.960 . S
H77 C71 0.959 . S
C78 N79 1.320 . S
C78 N80 1.351 . S
C78 C81 1.485 . S
N79 C78 1.320 . S
N79 N83 1.365 . S
N80 C78 1.351 . S
N80 C82 1.344 1_565 S
C81 C78 1.485 . S
C81 H85 0.960 1_565 S
C81 H86 0.961 . S
C81 H87 0.960 . S
C82 N80 1.344 1_545 S
C82 N83 1.306 1_545 S
C82 C84 1.483 . S
N83 N79 1.365 . S
N83 C82 1.306 1_565 S
C84 C82 1.483 . S
C84 H88 0.915 1_545 S
C84 H89 1.000 . S
C84 H90 0.971 . S
H85 C81 0.960 1_545 S
H86 C81 0.961 . S
H87 C81 0.960 . S
H88 C84 0.915 1_565 S
H89 C84 1.000 . S
H90 C84 0.971 . S
C91 N92 1.317 . S
C91 N93 1.348 . S
C91 C94 1.485 . S
N92 C91 1.317 . S
N92 N96 1.370 . S
N93 C91 1.348 . S
N93 C95 1.346 . S
C94 C91 1.485 . S
C94 H98 0.960 . S
C94 H99 0.961 . S
C94 H100 0.960 . S
C95 N93 1.346 . S
C95 N96 1.307 . S
C95 C97 1.486 . S
N96 N92 1.370 . S
N96 C95 1.307 . S
C97 C95 1.486 . S
C97 H101 0.960 . S
C97 H102 0.960 . S
C97 H103 0.959 . S
H98 C94 0.960 . S
H99 C94 0.961 . S
H100 C94 0.960 . S
H101 C97 0.960 . S
H102 C97 0.960 . S
H103 C97 0.959 . S
C104 O120 1.251 . S
C104 O122 1.254 . S
N105 C106 1.339 . S
N105 C110 1.293 1_455 S
N105 Zn111 2.025 . S
C106 N105 1.339 . S
C106 C107 1.379 . S
C106 H124 0.952 . S
C107 C106 1.379 . S
C107 C108 1.390 1_455 S
C107 H134 0.949 . S
C108 C107 1.390 1_655 S
C108 C109 1.357 . S
C109 C108 1.357 . S
C109 C110 1.370 . S
C109 H135 0.950 . S
C110 N105 1.293 1_655 S
C110 C109 1.370 . S
C110 H128 0.948 . S
Zn111 N105 2.025 . S
Zn111 O120 2.039 . S
Zn111 O126 2.034 . S
Zn111 O130 2.025 1_565 S
Zn111 O132 2.024 1_455 S
C112 O131 1.246 . S
C112 O132 1.249 1_545 S
N113 C114 1.307 . S
N113 C115 1.333 . S
N113 Zn119 2.020 . S
C114 N113 1.307 . S
C114 C118 1.370 . S
C114 H125 0.948 . S
C115 N113 1.333 . S
C115 C116 1.379 . S
C115 H123 0.952 . S
C116 C115 1.379 . S
C116 C117 1.390 . S
C116 H136 0.949 . S
C117 C116 1.390 . S
C117 C118 1.357 . S
C118 C114 1.370 . S
C118 C117 1.357 . S
C118 H137 0.950 . S
Zn119 N113 2.020 . S
Zn119 O122 2.025 1_545 S
Zn119 O127 2.024 . S
Zn119 O129 2.039 . S
Zn119 O131 2.034 1_455 S
O120 C104 1.251 . S
O120 Zn111 2.039 . S
C121 O126 1.246 . S
C121 O127 1.249 1_565 S
O122 C104 1.254 . S
O122 Zn119 2.025 1_565 S
H123 C115 0.952 . S
H124 C106 0.952 . S
H125 C114 0.948 . S
O126 Zn111 2.034 . S
O126 C121 1.246 . S
O127 Zn119 2.024 . S
O127 C121 1.249 1_545 S
H128 C110 0.948 . S
O129 Zn119 2.039 . S
O129 C133 1.251 . S
O130 Zn111 2.025 1_545 S
O130 C133 1.254 . S
O131 C112 1.246 . S
O131 Zn119 2.034 1_655 S
O132 Zn111 2.024 1_655 S
O132 C112 1.249 1_565 S
C133 O129 1.251 . S
C133 O130 1.254 . S
H134 C107 0.949 . S
H135 C109 0.950 . S
H136 C116 0.949 . S
H137 C118 0.950 . S
C138 O154 1.251 1_565 S
C138 O156 1.254 . S
N139 C140 1.333 . S
N139 C144 1.307 . S
N139 Zn145 2.020 . S
C140 N139 1.333 . S
C140 C141 1.379 . S
C140 H158 0.952 . S
C141 C140 1.379 . S
C141 C142 1.390 . S
C141 H168 0.949 . S
C142 C141 1.390 . S
C142 C143 1.357 . S
C143 C142 1.357 . S
C143 C144 1.370 . S
C143 H169 0.950 . S
C144 N139 1.307 . S
C144 C143 1.370 . S
C144 H162 0.948 . S
Zn145 N139 2.020 . S
Zn145 O154 2.039 . S
Zn145 O160 2.034 . S
Zn145 O164 2.025 . S
Zn145 O166 2.024 . S
C146 O165 1.246 1_545 S
C146 O166 1.249 . S
N147 C148 1.307 . S
N147 C149 1.333 . S
N147 Zn153 2.020 . S
C148 N147 1.307 . S
C148 C152 1.370 . S
C148 H159 0.948 . S
C149 N147 1.333 . S
C149 C150 1.379 . S
C149 H157 0.952 . S
C150 C149 1.379 . S
C150 C151 1.390 . S
C150 H170 0.949 . S
C151 C150 1.390 . S
C151 C152 1.357 . S
C152 C148 1.370 . S
C152 C151 1.357 . S
C152 H171 0.950 . S
Zn153 N147 2.020 . S
Zn153 O156 2.025 . S
Zn153 O161 2.024 . S
Zn153 O163 2.039 . S
Zn153 O165 2.034 . S
O154 C138 1.251 1_545 S
O154 Zn145 2.039 . S
C155 O160 1.246 1_565 S
C155 O161 1.249 . S
O156 C138 1.254 . S
O156 Zn153 2.025 . S
H157 C149 0.952 . S
H158 C140 0.952 . S
H159 C148 0.948 . S
O160 Zn145 2.034 . S
O160 C155 1.246 1_545 S
O161 Zn153 2.024 . S
O161 C155 1.249 . S
H162 C144 0.948 . S
O163 Zn153 2.039 . S
O163 C167 1.251 1_565 S
O164 Zn145 2.025 . S
O164 C167 1.254 . S
O165 C146 1.246 1_565 S
O165 Zn153 2.034 . S
O166 Zn145 2.024 . S
O166 C146 1.249 . S
C167 O163 1.251 1_545 S
C167 O164 1.254 . S
H168 C141 0.949 . S
H169 C143 0.950 . S
H170 C150 0.949 . S
H171 C152 0.950 . S
C172 O188 1.251 . S
C172 O190 1.254 . S
N173 C174 1.333 . S
N173 C178 1.307 . S
N173 Zn179 2.020 . S
C174 N173 1.333 . S
C174 C175 1.379 . S
C174 H192 0.952 . S
C175 C174 1.379 . S
C175 C176 1.390 . S
C175 H202 0.949 . S
C176 C175 1.390 . S
C176 C177 1.357 . S
C177 C176 1.357 . S
C177 C178 1.370 . S
C177 H203 0.950 . S
C178 N173 1.307 . S
C178 C177 1.370 . S
C178 H196 0.948 . S
Zn179 N173 2.020 . S
Zn179 O188 2.039 . S
Zn179 O194 2.034 . S
Zn179 O198 2.025 . S
Zn179 O200 2.024 . S
C180 O199 1.246 . S
C180 O200 1.249 . S
N181 C182 1.307 . S
N181 C183 1.333 . S
N181 Zn187 2.020 . S
C182 N181 1.307 . S
C182 C186 1.370 . S
C182 H193 0.948 . S
C183 N181 1.333 . S
C183 C184 1.379 . S
C183 H191 0.952 . S
C184 C183 1.379 . S
C184 C185 1.390 . S
C184 H204 0.949 . S
C185 C184 1.390 . S
C185 C186 1.357 . S
C186 C182 1.370 . S
C186 C185 1.357 . S
C186 H205 0.950 . S
Zn187 N181 2.020 . S
Zn187 O190 2.025 . S
Zn187 O195 2.024 . S
Zn187 O197 2.039 . S
Zn187 O199 2.034 . S
O188 C172 1.251 . S
O188 Zn179 2.039 . S
C189 O194 1.246 . S
C189 O195 1.249 . S
O190 C172 1.254 . S
O190 Zn187 2.025 . S
H191 C183 0.952 . S
H192 C174 0.952 . S
H193 C182 0.948 . S
O194 Zn179 2.034 . S
O194 C189 1.246 . S
O195 Zn187 2.024 . S
O195 C189 1.249 . S
H196 C178 0.948 . S
O197 Zn187 2.039 . S
O197 C201 1.251 . S
O198 Zn179 2.025 . S
O198 C201 1.254 . S
O199 C180 1.246 . S
O199 Zn187 2.034 . S
O200 Zn179 2.024 . S
O200 C180 1.249 . S
C201 O197 1.251 . S
C201 O198 1.254 . S
H202 C175 0.949 . S
H203 C177 0.950 . S
H204 C184 0.949 . S
H205 C186 0.950 . S
C206 O222 1.251 . S
C206 O224 1.254 . S
N207 C208 1.333 . S
N207 C212 1.307 . S
N207 Zn213 2.020 . S
C208 N207 1.333 . S
C208 C209 1.379 . S
C208 H226 0.952 . S
C209 C208 1.379 . S
C209 C210 1.390 . S
C209 H236 0.949 . S
C210 C209 1.390 . S
C210 C211 1.357 . S
C211 C210 1.357 . S
C211 C212 1.370 . S
C211 H237 0.950 . S
C212 N207 1.307 . S
C212 C211 1.370 . S
C212 H230 0.948 . S
Zn213 N207 2.020 . S
Zn213 O222 2.039 . S
Zn213 O228 2.034 1_455 S
Zn213 O232 2.025 1_455 S
Zn213 O234 2.024 . S
C214 O233 1.246 . S
C214 O234 1.249 . S
N215 C216 1.307 . S
N215 C217 1.333 1_455 S
N215 Zn221 2.020 . S
C216 N215 1.307 . S
C216 C220 1.370 . S
C216 H227 0.948 . S
C217 N215 1.333 1_655 S
C217 C218 1.379 . S
C217 H225 0.952 . S
C218 C217 1.379 . S
C218 C219 1.390 1_655 S
C218 H238 0.949 . S
C219 C218 1.390 1_455 S
C219 C220 1.357 . S
C220 C216 1.370 . S
C220 C219 1.357 . S
C220 H239 0.950 . S
Zn221 N215 2.020 . S
Zn221 O224 2.025 . S
Zn221 O229 2.024 1_455 S
Zn221 O231 2.039 1_455 S
Zn221 O233 2.034 . S
O222 C206 1.251 . S
O222 Zn213 2.039 . S
C223 O228 1.246 . S
C223 O229 1.249 . S
O224 C206 1.254 . S
O224 Zn221 2.025 . S
H225 C217 0.952 . S
H226 C208 0.952 . S
H227 C216 0.948 . S
O228 Zn213 2.034 1_655 S
O228 C223 1.246 . S
O229 Zn221 2.024 1_655 S
O229 C223 1.249 . S
H230 C212 0.948 . S
O231 Zn221 2.039 1_655 S
O231 C235 1.251 . S
O232 Zn213 2.025 1_655 S
O232 C235 1.254 . S
O233 C214 1.246 . S
O233 Zn221 2.034 . S
O234 Zn213 2.024 . S
O234 C214 1.249 . S
C235 O231 1.251 . S
C235 O232 1.254 . S
H236 C209 0.949 . S
H237 C211 0.950 . S
H238 C218 0.949 . S
H239 C220 0.950 . S
H240 C248 0.929 . S
H241 C250 0.930 . S
H242 C252 0.930 . S
H243 C255 0.929 . S
H244 C258 0.930 . S
H245 C260 0.960 . S
H246 C260 0.960 1_545 S
H247 C260 0.960 . S
C248 H240 0.929 . S
C248 C249 1.380 . S
C248 C250 1.384 . S
C249 C248 1.380 . S
C249 C255 1.388 1_545 S
C250 H241 0.930 . S
C250 C248 1.384 . S
C250 C251 1.385 . S
C251 C250 1.385 . S
C251 C252 1.386 1_545 S
C251 C256 1.490 . S
C252 H242 0.930 . S
C252 C251 1.386 1_565 S
C252 C255 1.386 . S
H253 C269 0.930 . S
H254 C270 0.931 . S
C255 H243 0.929 . S
C255 C249 1.388 1_565 S
C255 C252 1.386 . S
C256 C251 1.490 . S
C256 C258 1.395 . S
C256 C259 1.403 1_545 S
H257 C263 0.930 . S
C258 H244 0.930 . S
C258 C256 1.395 . S
C258 C261 1.405 . S
C259 C256 1.403 1_565 S
C259 C260 1.524 . S
C259 C263 1.400 . S
C260 H245 0.960 . S
C260 H246 0.960 1_565 S
C260 H247 0.960 . S
C260 C259 1.524 . S
C261 C258 1.405 . S
C261 C262 1.394 1_545 S
C261 C265 1.497 . S
C262 C261 1.394 1_565 S
C262 C263 1.386 . S
C262 C264 1.478 . S
C263 H257 0.930 . S
C263 C259 1.400 . S
C263 C262 1.386 . S
C264 C262 1.478 . S
C264 C266 1.381 1_565 S
C264 C270 1.383 . S
C265 C261 1.497 . S
C265 H271 0.959 . S
C265 H272 0.961 1_545 S
C265 H273 0.960 . S
C266 C264 1.381 1_545 S
C266 C267 1.394 . S
C266 H274 0.930 . S
C267 C266 1.394 . S
C267 C268 1.383 1_545 S
C267 H275 0.929 . S
C268 C267 1.383 1_565 S
C268 C269 1.377 . S
C269 H253 0.930 . S
C269 C268 1.377 . S
C269 C270 1.379 . S
C270 H254 0.931 . S
C270 C264 1.383 . S
C270 C269 1.379 . S
H271 C265 0.959 . S
H272 C265 0.961 1_565 S
H273 C265 0.960 . S
H274 C266 0.930 . S
H275 C267 0.929 . S
H276 C284 0.929 . S
H277 C286 0.930 . S
H278 C288 0.930 . S
H279 C291 0.929 . S
H280 C294 0.930 . S
H281 C296 0.960 . S
H282 C296 0.960 . S
H283 C296 0.960 . S
C284 H276 0.929 . S
C284 C285 1.377 . S
C284 C286 1.384 . S
C285 C284 1.377 . S
C285 C291 1.390 . S
C286 H277 0.930 . S
C286 C284 1.384 . S
C286 C287 1.372 . S
C287 C286 1.372 . S
C287 C288 1.400 . S
C287 C292 1.490 . S
C288 H278 0.930 . S
C288 C287 1.400 . S
C288 C291 1.386 . S
H289 C305 0.930 . S
H290 C306 0.931 . S
C291 H279 0.929 . S
C291 C285 1.390 . S
C291 C288 1.386 . S
C292 C287 1.490 . S
C292 C294 1.395 . S
C292 C295 1.403 . S
H293 C299 0.930 . S
C294 H280 0.930 . S
C294 C292 1.395 . S
C294 C297 1.403 . S
C295 C292 1.403 . S
C295 C296 1.524 . S
C295 C299 1.400 . S
C296 H281 0.960 . S
C296 H282 0.960 . S
C296 H283 0.960 . S
C296 C295 1.524 . S
C297 C294 1.403 . S
C297 C298 1.392 . S
C297 C301 1.495 . S
C298 C297 1.392 . S
C298 C299 1.385 . S
C298 C300 1.478 . S
C299 H293 0.930 . S
C299 C295 1.400 . S
C299 C298 1.385 . S
C300 C298 1.478 . S
C300 C302 1.381 . S
C300 C306 1.383 . S
C301 C297 1.495 . S
C301 H307 0.959 . S
C301 H308 0.961 . S
C301 H309 0.960 . S
C302 C300 1.381 . S
C302 C303 1.394 . S
C302 H310 0.930 . S
C303 C302 1.394 . S
C303 C304 1.383 . S
C303 H311 0.929 . S
C304 C303 1.383 . S
C304 C305 1.377 . S
C305 H289 0.930 . S
C305 C304 1.377 . S
C305 C306 1.379 . S
C306 H290 0.931 . S
C306 C300 1.383 . S
C306 C305 1.379 . S
H307 C301 0.959 . S
H308 C301 0.961 . S
H309 C301 0.960 . S
H310 C302 0.930 . S
H311 C303 0.929 . S
H312 C320 0.929 . S
H313 C322 0.930 . S
H314 C324 0.930 . S
H315 C327 0.929 . S
H316 C330 0.930 . S
H317 C332 0.960 . S
H318 C332 0.960 . S
H319 C332 0.960 . S
C320 H312 0.929 . S
C320 C321 1.377 . S
C320 C322 1.384 . S
C321 C320 1.377 . S
C321 C327 1.390 . S
C322 H313 0.930 . S
C322 C320 1.384 . S
C322 C323 1.372 . S
C323 C322 1.372 . S
C323 C324 1.400 . S
C323 C328 1.490 . S
C324 H314 0.930 . S
C324 C323 1.400 . S
C324 C327 1.386 . S
H325 C341 0.930 . S
H326 C342 0.931 . S
C327 H315 0.929 . S
C327 C321 1.390 . S
C327 C324 1.386 . S
C328 C323 1.490 . S
C328 C330 1.395 . S
C328 C331 1.403 . S
H329 C335 0.930 . S
C330 H316 0.930 . S
C330 C328 1.395 . S
C330 C333 1.403 . S
C331 C328 1.403 . S
C331 C332 1.524 . S
C331 C335 1.400 . S
C332 H317 0.960 . S
C332 H318 0.960 . S
C332 H319 0.960 . S
C332 C331 1.524 . S
C333 C330 1.403 . S
C333 C334 1.392 . S
C333 C337 1.495 . S
C334 C333 1.392 . S
C334 C335 1.385 . S
C334 C336 1.478 . S
C335 H329 0.930 . S
C335 C331 1.400 . S
C335 C334 1.385 . S
C336 C334 1.478 . S
C336 C338 1.381 . S
C336 C342 1.383 . S
C337 C333 1.495 . S
C337 H343 0.959 . S
C337 H344 0.961 . S
C337 H345 0.960 . S
C338 C336 1.381 . S
C338 C339 1.394 . S
C338 H346 0.930 . S
C339 C338 1.394 . S
C339 C340 1.383 . S
C339 H347 0.929 . S
C340 C339 1.383 . S
C340 C341 1.377 . S
C341 H325 0.930 . S
C341 C340 1.377 . S
C341 C342 1.379 . S
C342 H326 0.931 . S
C342 C336 1.383 . S
C342 C341 1.379 . S
H343 C337 0.959 . S
H344 C337 0.961 . S
H345 C337 0.960 . S
H346 C338 0.930 . S
H347 C339 0.929 . S
H348 C356 0.929 . S
H349 C358 0.930 . S
H350 C360 0.930 . S
H351 C363 0.929 . S
H352 C366 0.930 . S
H353 C368 0.960 . S
H354 C368 0.960 . S
H355 C368 0.960 . S
C356 H348 0.929 . S
C356 C357 1.377 . S
C356 C358 1.384 . S
C357 C356 1.377 . S
C357 C363 1.390 . S
C358 H349 0.930 . S
C358 C356 1.384 . S
C358 C359 1.372 . S
C359 C358 1.372 . S
C359 C360 1.400 . S
C359 C364 1.490 . S
C360 H350 0.930 . S
C360 C359 1.400 . S
C360 C363 1.386 . S
H361 C377 0.930 . S
H362 C378 0.931 . S
C363 H351 0.929 . S
C363 C357 1.390 . S
C363 C360 1.386 . S
C364 C359 1.490 . S
C364 C366 1.395 . S
C364 C367 1.403 . S
H365 C371 0.930 . S
C366 H352 0.930 . S
C366 C364 1.395 . S
C366 C369 1.403 . S
C367 C364 1.403 . S
C367 C368 1.524 . S
C367 C371 1.400 . S
C368 H353 0.960 . S
C368 H354 0.960 . S
C368 H355 0.960 . S
C368 C367 1.524 . S
C369 C366 1.403 . S
C369 C370 1.392 . S
C369 C373 1.495 1_455 S
C370 C369 1.392 . S
C370 C371 1.385 . S
C370 C372 1.478 . S
C371 H365 0.930 . S
C371 C367 1.400 . S
C371 C370 1.385 . S
C372 C370 1.478 . S
C372 C374 1.381 . S
C372 C378 1.383 . S
C373 C369 1.495 1_655 S
C373 H379 0.959 . S
C373 H380 0.961 . S
C373 H381 0.960 . S
C374 C372 1.381 . S
C374 C375 1.394 . S
C374 H382 0.930 . S
C375 C374 1.394 . S
C375 C376 1.383 . S
C375 H383 0.929 . S
C376 C375 1.383 . S
C376 C377 1.377 . S
C377 H361 0.930 . S
C377 C376 1.377 . S
C377 C378 1.379 . S
C378 H362 0.931 . S
C378 C372 1.383 . S
C378 C377 1.379 . S
H379 C373 0.959 . S
H380 C373 0.961 . S
H381 C373 0.960 . S
H382 C374 0.930 . S
H383 C375 0.929 . S
H384 C392 0.929 . S
H385 C394 0.930 1_554 S
H386 C396 0.930 . S
H387 C399 0.929 . S
H388 C402 0.931 1_564 S
H389 C404 0.960 . S
H390 C404 0.960 . S
H391 C404 0.960 1_565 S
C392 H384 0.929 . S
C392 C393 1.404 . S
C392 C394 1.384 1_554 S
C393 C392 1.404 . S
C393 C399 1.363 1_544 S
C394 H385 0.930 1_556 S
C394 C392 1.384 1_556 S
C394 C395 1.372 . S
C395 C394 1.372 . S
C395 C396 1.400 1_545 S
C395 C400 1.490 . S
C396 H386 0.930 . S
C396 C395 1.400 1_565 S
C396 C399 1.386 . S
H397 C413 0.930 . S
H398 C414 0.931 . S
C399 H387 0.929 . S
C399 C393 1.363 1_566 S
C399 C396 1.386 . S
C400 C395 1.490 . S
C400 C402 1.396 . S
C400 C403 1.403 . S
H401 C407 0.930 . S
C402 H388 0.931 1_546 S
C402 C400 1.396 . S
C402 C405 1.403 . S
C403 C400 1.403 . S
C403 C404 1.524 . S
C403 C407 1.400 . S
C404 H389 0.960 . S
C404 H390 0.960 . S
C404 H391 0.960 1_545 S
C404 C403 1.524 . S
C405 C402 1.403 . S
C405 C406 1.393 . S
C405 C409 1.494 1_545 S
C406 C405 1.393 . S
C406 C407 1.385 . S
C406 C408 1.478 . S
C407 H401 0.930 . S
C407 C403 1.400 . S
C407 C406 1.385 . S
C408 C406 1.478 . S
C408 C410 1.381 . S
C408 C414 1.383 1_545 S
C409 C405 1.494 1_565 S
C409 H415 0.959 1_556 S
C409 H416 0.961 . S
C409 H417 0.960 1_565 S
C410 C408 1.381 . S
C410 C411 1.394 . S
C410 H418 0.930 . S
C411 C410 1.394 . S
C411 C412 1.383 . S
C411 H419 0.929 . S
C412 C411 1.383 . S
C412 C413 1.377 1_545 S
C413 H397 0.930 . S
C413 C412 1.377 1_565 S
C413 C414 1.379 . S
C414 H398 0.931 . S
C414 C408 1.383 1_565 S
C414 C413 1.379 . S
H415 C409 0.959 1_554 S
H416 C409 0.961 . S
H417 C409 0.960 1_545 S
H418 C410 0.930 . S
H419 C411 0.929 . S
H420 C428 0.929 . S
H421 C430 0.930 . S
H422 C432 0.930 . S
H423 C435 0.929 . S
H424 C438 0.930 1_554 S
H425 C440 0.960 . S
H426 C440 0.960 . S
H427 C440 0.960 . S
C428 H420 0.929 . S
C428 C429 1.377 . S
C428 C430 1.384 . S
C429 C428 1.377 . S
C429 C435 1.390 1_554 S
C430 H421 0.930 . S
C430 C428 1.384 . S
C430 C431 1.372 1_554 S
C431 C430 1.372 1_556 S
C431 C432 1.400 . S
C431 C436 1.490 . S
C432 H422 0.930 . S
C432 C431 1.400 . S
C432 C435 1.386 . S
H433 C449 0.930 . S
H434 C450 0.931 . S
C435 H423 0.929 . S
C435 C429 1.390 1_556 S
C435 C432 1.386 . S
C436 C431 1.490 . S
C436 C438 1.395 . S
C436 C439 1.403 . S
H437 C443 0.930 . S
C438 H424 0.930 1_556 S
C438 C436 1.395 . S
C438 C441 1.403 . S
C439 C436 1.403 . S
C439 C440 1.524 . S
C439 C443 1.400 . S
C440 H425 0.960 . S
C440 H426 0.960 . S
C440 H427 0.960 . S
C440 C439 1.524 . S
C441 C438 1.403 . S
C441 C442 1.392 . S
C441 C445 1.495 . S
C442 C441 1.392 . S
C442 C443 1.385 . S
C442 C444 1.478 . S
C443 H437 0.930 . S
C443 C439 1.400 . S
C443 C442 1.385 . S
C444 C442 1.478 . S
C444 C446 1.381 . S
C444 C450 1.383 . S
C445 C441 1.495 . S
C445 H451 0.959 1_556 S
C445 H452 0.961 . S
C445 H453 0.960 . S
C446 C444 1.381 . S
C446 C447 1.394 . S
C446 H454 0.930 . S
C447 C446 1.394 . S
C447 C448 1.383 . S
C447 H455 0.929 . S
C448 C447 1.383 . S
C448 C449 1.377 . S
C449 H433 0.930 . S
C449 C448 1.377 . S
C449 C450 1.379 . S
C450 H434 0.931 . S
C450 C444 1.383 . S
C450 C449 1.379 . S
H451 C445 0.959 1_554 S
H452 C445 0.961 . S
H453 C445 0.960 . S
H454 C446 0.930 . S
H455 C447 0.929 . S
H456 C464 0.929 . S
H457 C466 0.930 . S
H458 C468 0.930 . S
H459 C471 0.929 . S
H460 C474 0.930 . S
H461 C476 0.960 . S
H462 C476 0.960 . S
H463 C476 0.960 . S
C464 H456 0.929 . S
C464 C465 1.377 . S
C464 C466 1.384 . S
C465 C464 1.377 . S
C465 C471 1.390 . S
C466 H457 0.930 . S
C466 C464 1.384 . S
C466 C467 1.372 . S
C467 C466 1.372 . S
C467 C468 1.400 . S
C467 C472 1.490 1_554 S
C468 H458 0.930 . S
C468 C467 1.400 . S
C468 C471 1.386 . S
H469 C485 0.930 . S
H470 C486 0.931 . S
C471 H459 0.929 . S
C471 C465 1.390 . S
C471 C468 1.386 . S
C472 C467 1.490 1_556 S
C472 C474 1.395 . S
C472 C475 1.403 . S
H473 C479 0.930 . S
C474 H460 0.930 . S
C474 C472 1.395 . S
C474 C477 1.403 . S
C475 C472 1.403 . S
C475 C476 1.524 1_556 S
C475 C479 1.400 . S
C476 H461 0.960 . S
C476 H462 0.960 . S
C476 H463 0.960 . S
C476 C475 1.524 1_554 S
C477 C474 1.403 . S
C477 C478 1.392 . S
C477 C481 1.495 . S
C478 C477 1.392 . S
C478 C479 1.385 . S
C478 C480 1.478 . S
C479 H473 0.930 . S
C479 C475 1.400 . S
C479 C478 1.385 . S
C480 C478 1.478 . S
C480 C482 1.381 . S
C480 C486 1.383 . S
C481 C477 1.495 . S
C481 H487 0.959 . S
C481 H488 0.961 . S
C481 H489 0.960 . S
C482 C480 1.381 . S
C482 C483 1.394 . S
C482 H490 0.930 . S
C483 C482 1.394 . S
C483 C484 1.383 . S
C483 H491 0.929 . S
C484 C483 1.383 . S
C484 C485 1.377 . S
C485 H469 0.930 . S
C485 C484 1.377 . S
C485 C486 1.379 . S
C486 H470 0.931 . S
C486 C480 1.383 . S
C486 C485 1.379 . S
H487 C481 0.959 . S
H488 C481 0.961 . S
H489 C481 0.960 . S
H490 C482 0.930 . S
H491 C483 0.929 . S
H492 C500 0.929 . S
H493 C502 0.930 . S
H494 C504 0.930 . S
H495 C507 0.929 1_554 S
H496 C510 0.930 . S
H497 C512 0.960 . S
H498 C512 0.960 . S
H499 C512 0.960 . S
C500 H492 0.929 . S
C500 C501 1.377 . S
C500 C502 1.384 . S
C501 C500 1.377 . S
C501 C507 1.390 . S
C502 H493 0.930 . S
C502 C500 1.384 . S
C502 C503 1.372 . S
C503 C502 1.372 . S
C503 C504 1.400 . S
C503 C508 1.490 . S
C504 H494 0.930 . S
C504 C503 1.400 . S
C504 C507 1.386 . S
H505 C521 0.930 . S
H506 C522 0.931 . S
C507 H495 0.929 1_556 S
C507 C501 1.390 . S
C507 C504 1.386 . S
C508 C503 1.490 . S
C508 C510 1.395 1_655 S
C508 C511 1.403 . S
H509 C515 0.930 . S
C510 H496 0.930 . S
C510 C508 1.395 1_455 S
C510 C513 1.403 . S
C511 C508 1.403 . S
C511 C512 1.524 . S
C511 C515 1.400 . S
C512 H497 0.960 . S
C512 H498 0.960 . S
C512 H499 0.960 . S
C512 C511 1.524 . S
C513 C510 1.403 . S
C513 C514 1.392 1_455 S
C513 C517 1.495 . S
C514 C513 1.392 1_655 S
C514 C515 1.385 . S
C514 C516 1.478 . S
C515 H509 0.930 . S
C515 C511 1.400 . S
C515 C514 1.385 . S
C516 C514 1.478 . S
C516 C518 1.381 1_655 S
C516 C522 1.383 . S
C517 C513 1.495 . S
C517 H523 0.959 . S
C517 H524 0.961 . S
C517 H525 0.960 . S
C518 C516 1.381 1_455 S
C518 C519 1.394 . S
C518 H526 0.930 . S
C519 C518 1.394 . S
C519 C520 1.402 . S
C519 H527 0.929 . S
C520 C519 1.402 . S
C520 C521 1.356 1_455 S
C521 H505 0.930 . S
C521 C520 1.356 1_655 S
C521 C522 1.379 . S
C522 H506 0.931 . S
C522 C516 1.383 . S
C522 C521 1.379 . S
H523 C517 0.959 . S
H524 C517 0.961 . S
H525 C517 0.960 . S
H526 C518 0.930 . S
H527 C519 0.929 . S
H528 C536 0.929 . S
H529 C538 0.930 . S
H530 C540 0.930 . S
H531 C543 0.929 . S
H532 C546 0.930 . S
H533 C548 0.960 1_655 S
H534 C548 0.960 . S
H535 C548 0.957 1_655 S
C536 H528 0.929 . S
C536 C537 1.377 . S
C536 C538 1.384 . S
C537 C536 1.377 . S
C537 C543 1.390 . S
C538 H529 0.930 . S
C538 C536 1.384 . S
C538 C539 1.372 . S
C539 C538 1.372 . S
C539 C540 1.400 . S
C539 C544 1.490 . S
C540 H530 0.930 . S
C540 C539 1.400 . S
C540 C543 1.386 . S
H541 C557 0.930 1_655 S
H542 C558 0.931 . S
C543 H531 0.929 . S
C543 C537 1.390 . S
C543 C540 1.386 . S
C544 C539 1.490 . S
C544 C546 1.395 . S
C544 C547 1.403 . S
H545 C551 0.930 . S
C546 H532 0.930 . S
C546 C544 1.395 . S
C546 C549 1.403 . S
C547 C544 1.403 . S
C547 C548 1.524 . S
C547 C551 1.400 . S
C548 H533 0.960 1_455 S
C548 H534 0.960 . S
C548 H535 0.957 1_455 S
C548 C547 1.524 . S
C549 C546 1.403 . S
C549 C550 1.392 . S
C549 C553 1.495 . S
C550 C549 1.392 . S
C550 C551 1.385 . S
C550 C552 1.478 . S
C551 H545 0.930 . S
C551 C547 1.400 . S
C551 C550 1.385 . S
C552 C550 1.478 . S
C552 C554 1.381 . S
C552 C558 1.383 . S
C553 C549 1.495 . S
C553 H559 0.959 . S
C553 H560 0.961 . S
C553 H561 0.960 . S
C554 C552 1.381 . S
C554 C555 1.394 . S
C554 H562 0.930 . S
C555 C554 1.394 . S
C555 C556 1.383 . S
C555 H563 0.929 . S
C556 C555 1.383 . S
C556 C557 1.377 . S
C557 H541 0.930 1_455 S
C557 C556 1.377 . S
C557 C558 1.379 . S
C558 H542 0.931 . S
C558 C552 1.383 . S
C558 C557 1.379 . S
H559 C553 0.959 . S
H560 C553 0.961 . S
H561 C553 0.960 . S
H562 C554 0.930 . S
H563 C555 0.929 . S
H564 C572 0.929 . S
H565 C574 0.930 . S
H566 C576 0.930 . S
H567 C579 0.929 . S
H568 C582 0.930 . S
H569 C584 0.960 . S
H570 C584 0.960 . S
H571 C584 0.960 . S
C572 H564 0.929 . S
C572 C573 1.381 . S
C572 C574 1.384 . S
C573 C572 1.381 . S
C573 C579 1.386 1_565 S
C574 H565 0.930 . S
C574 C572 1.384 . S
C574 C575 1.372 . S
C575 C574 1.372 . S
C575 C576 1.400 1_565 S
C575 C580 1.490 . S
C576 H566 0.930 . S
C576 C575 1.400 1_545 S
C576 C579 1.386 . S
H577 C593 0.930 . S
H578 C594 0.931 . S
C579 H567 0.929 . S
C579 C573 1.386 1_545 S
C579 C576 1.386 . S
C580 C575 1.490 . S
C580 C582 1.395 1_565 S
C580 C583 1.403 . S
H581 C587 0.930 . S
C582 H568 0.930 . S
C582 C580 1.395 1_545 S
C582 C585 1.403 . S
C583 C580 1.403 . S
C583 C584 1.524 . S
C583 C587 1.400 . S
C584 H569 0.960 . S
C584 H570 0.960 . S
C584 H571 0.960 . S
C584 C583 1.524 . S
C585 C582 1.403 . S
C585 C586 1.392 1_545 S
C585 C589 1.495 . S
C586 C585 1.392 1_565 S
C586 C587 1.385 . S
C586 C588 1.478 . S
C587 H581 0.930 . S
C587 C583 1.400 . S
C587 C586 1.385 . S
C588 C586 1.478 . S
C588 C590 1.381 . S
C588 C594 1.383 1_565 S
C589 C585 1.495 . S
C589 H595 0.959 . S
C589 H596 0.961 . S
C589 H597 0.960 1_545 S
C590 C588 1.381 . S
C590 C591 1.394 . S
C590 H598 0.930 . S
C591 C590 1.394 . S
C591 C592 1.383 . S
C591 H599 0.929 . S
C592 C591 1.383 . S
C592 C593 1.377 1_565 S
C593 H577 0.930 . S
C593 C592 1.377 1_545 S
C593 C594 1.379 . S
C594 H578 0.931 . S
C594 C588 1.383 1_545 S
C594 C593 1.379 . S
H595 C589 0.959 . S
H596 C589 0.961 . S
H597 C589 0.960 1_565 S
H598 C590 0.930 . S
H599 C591 0.929 . S
H600 C608 0.929 . S
H601 C610 0.930 . S
H602 C612 0.930 . S
H603 C615 0.929 . S
H604 C618 0.930 . S
H605 C620 0.960 . S
H606 C620 0.960 . S
H607 C620 0.960 . S
C608 H600 0.929 . S
C608 C609 1.377 . S
C608 C610 1.384 . S
C609 C608 1.377 . S
C609 C615 1.390 . S
C610 H601 0.930 . S
C610 C608 1.384 . S
C610 C611 1.372 . S
C611 C610 1.372 . S
C611 C612 1.400 . S
C611 C616 1.490 . S
C612 H602 0.930 . S
C612 C611 1.400 . S
C612 C615 1.386 . S
H613 C629 0.930 . S
H614 C630 0.931 . S
C615 H603 0.929 . S
C615 C609 1.390 . S
C615 C612 1.386 . S
C616 C611 1.490 . S
C616 C618 1.395 . S
C616 C619 1.403 . S
H617 C623 0.930 . S
C618 H604 0.930 . S
C618 C616 1.395 . S
C618 C621 1.403 . S
C619 C616 1.403 . S
C619 C620 1.524 . S
C619 C623 1.400 . S
C620 H605 0.960 . S
C620 H606 0.960 . S
C620 H607 0.960 . S
C620 C619 1.524 . S
C621 C618 1.403 . S
C621 C622 1.392 . S
C621 C625 1.495 . S
C622 C621 1.392 . S
C622 C623 1.385 . S
C622 C624 1.478 . S
C623 H617 0.930 . S
C623 C619 1.400 . S
C623 C622 1.385 . S
C624 C622 1.478 . S
C624 C626 1.381 . S
C624 C630 1.383 . S
C625 C621 1.495 . S
C625 H631 0.959 . S
C625 H632 0.961 . S
C625 H633 0.960 . S
C626 C624 1.381 . S
C626 C627 1.394 . S
C626 H634 0.930 . S
C627 C626 1.394 . S
C627 C628 1.383 . S
C627 H635 0.929 . S
C628 C627 1.383 . S
C628 C629 1.377 . S
C629 H613 0.930 . S
C629 C628 1.377 . S
C629 C630 1.379 . S
C630 H614 0.931 . S
C630 C624 1.383 . S
C630 C629 1.379 . S
H631 C625 0.959 . S
H632 C625 0.961 . S
H633 C625 0.960 . S
H634 C626 0.930 . S
H635 C627 0.929 . S
H636 C644 0.929 . S
H637 C646 0.930 . S
H638 C648 0.930 . S
H639 C651 0.929 . S
H640 C654 0.930 . S
H641 C656 0.960 . S
H642 C656 0.960 . S
H643 C656 0.960 . S
C644 H636 0.929 . S
C644 C645 1.377 . S
C644 C646 1.384 . S
C645 C644 1.377 . S
C645 C651 1.390 . S
C646 H637 0.930 . S
C646 C644 1.384 . S
C646 C647 1.372 . S
C647 C646 1.372 . S
C647 C648 1.400 . S
C647 C652 1.490 . S
C648 H638 0.930 . S
C648 C647 1.400 . S
C648 C651 1.386 . S
H649 C665 0.930 . S
H650 C666 0.931 . S
C651 H639 0.929 . S
C651 C645 1.390 . S
C651 C648 1.386 . S
C652 C647 1.490 . S
C652 C654 1.395 . S
C652 C655 1.403 . S
H653 C659 0.930 . S
C654 H640 0.930 . S
C654 C652 1.395 . S
C654 C657 1.403 . S
C655 C652 1.403 . S
C655 C656 1.524 . S
C655 C659 1.400 . S
C656 H641 0.960 . S
C656 H642 0.960 . S
C656 H643 0.960 . S
C656 C655 1.524 . S
C657 C654 1.403 . S
C657 C658 1.392 . S
C657 C661 1.495 . S
C658 C657 1.392 . S
C658 C659 1.385 . S
C658 C660 1.478 . S
C659 H653 0.930 . S
C659 C655 1.400 . S
C659 C658 1.385 . S
C660 C658 1.478 . S
C660 C662 1.381 . S
C660 C666 1.383 . S
C661 C657 1.495 . S
C661 H667 0.959 . S
C661 H668 0.961 . S
C661 H669 0.960 . S
C662 C660 1.381 . S
C662 C663 1.394 . S
C662 H670 0.930 . S
C663 C662 1.394 . S
C663 C664 1.383 . S
C663 H671 0.929 . S
C664 C663 1.383 . S
C664 C665 1.377 . S
C665 H649 0.930 . S
C665 C664 1.377 . S
C665 C666 1.379 . S
C666 H650 0.931 . S
C666 C660 1.383 . S
C666 C665 1.379 . S
H667 C661 0.959 . S
H668 C661 0.961 . S
H669 C661 0.960 . S
H670 C662 0.930 . S
H671 C663 0.929 . S
H672 C680 0.929 . S
H673 C682 0.930 1_554 S
H674 C684 0.930 . S
H675 C687 0.929 . S
H676 C690 0.930 . S
H677 C692 0.960 . S
H678 C692 0.960 . S
H679 C692 0.960 . S
C680 H672 0.929 . S
C680 C681 1.377 1_554 S
C680 C682 1.384 1_554 S
C681 C680 1.377 1_556 S
C681 C687 1.390 . S
C682 H673 0.930 1_556 S
C682 C680 1.384 1_556 S
C682 C683 1.372 . S
C683 C682 1.372 . S
C683 C684 1.400 . S
C683 C688 1.490 . S
C684 H674 0.930 . S
C684 C683 1.400 . S
C684 C687 1.386 . S
H685 C701 0.930 . S
H686 C702 0.929 . S
C687 H675 0.929 . S
C687 C681 1.390 . S
C687 C684 1.386 . S
C688 C683 1.490 . S
C688 C690 1.395 1_655 S
C688 C691 1.403 . S
H689 C695 0.930 . S
C690 H676 0.930 . S
C690 C688 1.395 1_455 S
C690 C693 1.403 . S
C691 C688 1.403 . S
C691 C692 1.524 . S
C691 C695 1.400 . S
C692 H677 0.960 . S
C692 H678 0.960 . S
C692 H679 0.960 . S
C692 C691 1.524 . S
C693 C690 1.403 . S
C693 C694 1.374 1_455 S
C693 C697 1.495 . S
C694 C693 1.374 1_655 S
C694 C695 1.411 . S
C694 C696 1.471 1_655 S
C695 H689 0.930 . S
C695 C691 1.400 . S
C695 C694 1.411 . S
C696 C694 1.471 1_455 S
C696 C698 1.381 . S
C696 C702 1.383 . S
C697 C693 1.495 . S
C697 H703 0.959 . S
C697 H704 0.961 . S
C697 H705 0.960 . S
C698 C696 1.381 . S
C698 C699 1.394 . S
C698 H706 0.930 . S
C699 C698 1.394 . S
C699 C700 1.383 . S
C699 H707 0.929 . S
C700 C699 1.383 . S
C700 C701 1.377 . S
C701 H685 0.930 . S
C701 C700 1.377 . S
C701 C702 1.379 . S
C702 H686 0.929 . S
C702 C696 1.383 . S
C702 C701 1.379 . S
H703 C697 0.959 . S
H704 C697 0.961 . S
H705 C697 0.960 . S
H706 C698 0.930 . S
H707 C699 0.929 . S
H708 C716 0.929 . S
H709 C718 0.930 . S
H710 C720 0.930 . S
H711 C723 0.929 . S
H712 C726 0.930 1_554 S
H713 C728 0.960 . S
H714 C728 0.960 . S
H715 C728 0.960 1_545 S
C716 H708 0.929 . S
C716 C717 1.383 . S
C716 C718 1.384 . S
C717 C716 1.383 . S
C717 C723 1.384 1_564 S
C718 H709 0.930 . S
C718 C716 1.384 . S
C718 C719 1.365 1_564 S
C719 C718 1.365 1_546 S
C719 C720 1.407 . S
C719 C724 1.490 . S
C720 H710 0.930 . S
C720 C719 1.407 . S
C720 C723 1.386 . S
H721 C737 0.930 . S
H722 C738 0.931 . S
C723 H711 0.929 . S
C723 C717 1.384 1_546 S
C723 C720 1.386 . S
C724 C719 1.490 . S
C724 C726 1.395 . S
C724 C727 1.403 1_545 S
H725 C731 0.939 . S
C726 H712 0.930 1_556 S
C726 C724 1.395 . S
C726 C729 1.403 . S
C727 C724 1.403 1_565 S
C727 C728 1.524 . S
C727 C731 1.402 . S
C728 H713 0.960 . S
C728 H714 0.960 . S
C728 H715 0.960 1_565 S
C728 C727 1.524 . S
C729 C726 1.403 . S
C729 C730 1.392 . S
C729 C733 1.495 . S
C730 C729 1.392 . S
C730 C731 1.377 1_545 S
C730 C732 1.478 . S
C731 H725 0.939 . S
C731 C727 1.402 . S
C731 C730 1.377 1_565 S
C732 C730 1.478 . S
C732 C734 1.381 1_545 S
C732 C738 1.383 . S
C733 C729 1.495 . S
C733 H739 0.959 1_556 S
C733 H740 0.961 . S
C733 H741 0.956 1_545 S
C734 C732 1.381 1_565 S
C734 C735 1.394 . S
C734 H742 0.930 . S
C735 C734 1.394 . S
C735 C736 1.383 1_565 S
C735 H743 0.929 . S
C736 C735 1.383 1_545 S
C736 C737 1.377 . S
C737 H721 0.930 . S
C737 C736 1.377 . S
C737 C738 1.379 . S
C738 H722 0.931 . S
C738 C732 1.383 . S
C738 C737 1.379 . S
H739 C733 0.959 1_554 S
H740 C733 0.961 . S
H741 C733 0.956 1_565 S
H742 C734 0.930 . S
H743 C735 0.929 . S
H744 C752 0.929 . S
H745 C754 0.930 . S
H746 C756 0.930 . S
H747 C759 0.929 . S
H748 C762 0.930 . S
H749 C764 0.960 . S
H750 C764 0.960 . S
H751 C764 0.960 . S
C752 H744 0.929 . S
C752 C753 1.377 . S
C752 C754 1.384 . S
C753 C752 1.377 . S
C753 C759 1.390 1_554 S
C754 H745 0.930 . S
C754 C752 1.384 . S
C754 C755 1.372 1_554 S
C755 C754 1.372 1_556 S
C755 C756 1.400 . S
C755 C760 1.490 . S
C756 H746 0.930 . S
C756 C755 1.400 . S
C756 C759 1.386 . S
H757 C773 0.930 . S
H758 C774 0.931 . S
C759 H747 0.929 . S
C759 C753 1.390 1_556 S
C759 C756 1.386 . S
C760 C755 1.490 . S
C760 C762 1.395 . S
C760 C763 1.403 . S
H761 C767 0.930 . S
C762 H748 0.930 . S
C762 C760 1.395 . S
C762 C765 1.403 . S
C763 C760 1.403 . S
C763 C764 1.524 . S
C763 C767 1.400 . S
C764 H749 0.960 . S
C764 H750 0.960 . S
C764 H751 0.960 . S
C764 C763 1.524 . S
C765 C762 1.403 . S
C765 C766 1.392 . S
C765 C769 1.495 . S
C766 C765 1.392 . S
C766 C767 1.385 . S
C766 C768 1.478 . S
C767 H761 0.930 . S
C767 C763 1.400 . S
C767 C766 1.385 . S
C768 C766 1.478 . S
C768 C770 1.381 . S
C768 C774 1.383 . S
C769 C765 1.495 . S
C769 H775 0.959 . S
C769 H776 0.961 . S
C769 H777 0.960 . S
C770 C768 1.381 . S
C770 C771 1.394 . S
C770 H778 0.930 . S
C771 C770 1.394 . S
C771 C772 1.383 . S
C771 H779 0.929 . S
C772 C771 1.383 . S
C772 C773 1.377 . S
C773 H757 0.930 . S
C773 C772 1.377 . S
C773 C774 1.379 . S
C774 H758 0.931 . S
C774 C768 1.383 . S
C774 C773 1.379 . S
H775 C769 0.959 . S
H776 C769 0.961 . S
H777 C769 0.960 . S
H778 C770 0.930 . S
H779 C771 0.929 . S
H780 C788 0.929 . S
H781 C790 0.930 . S
H782 C792 0.930 . S
H783 C795 0.929 . S
H784 C798 0.930 . S
H785 C800 0.960 . S
H786 C800 0.960 . S
H787 C800 0.960 . S
C788 H780 0.929 . S
C788 C789 1.377 . S
C788 C790 1.384 . S
C789 C788 1.377 . S
C789 C795 1.390 . S
C790 H781 0.930 . S
C790 C788 1.384 . S
C790 C791 1.372 . S
C791 C790 1.372 . S
C791 C792 1.400 . S
C791 C796 1.490 1_554 S
C792 H782 0.930 . S
C792 C791 1.400 . S
C792 C795 1.386 . S
H793 C809 0.930 . S
H794 C810 0.931 . S
C795 H783 0.929 . S
C795 C789 1.390 . S
C795 C792 1.386 . S
C796 C791 1.490 1_556 S
C796 C798 1.395 . S
C796 C799 1.403 . S
H797 C803 0.930 . S
C798 H784 0.930 . S
C798 C796 1.395 . S
C798 C801 1.403 . S
C799 C796 1.403 . S
C799 C800 1.524 1_556 S
C799 C803 1.400 . S
C800 H785 0.960 . S
C800 H786 0.960 . S
C800 H787 0.960 . S
C800 C799 1.524 1_554 S
C801 C798 1.403 . S
C801 C802 1.392 . S
C801 C805 1.495 . S
C802 C801 1.392 . S
C802 C803 1.385 . S
C802 C804 1.478 . S
C803 H797 0.930 . S
C803 C799 1.400 . S
C803 C802 1.385 . S
C804 C802 1.478 . S
C804 C806 1.381 . S
C804 C810 1.383 . S
C805 C801 1.495 . S
C805 H811 0.959 . S
C805 H812 0.961 . S
C805 H813 0.960 . S
C806 C804 1.381 . S
C806 C807 1.394 . S
C806 H814 0.930 . S
C807 C806 1.394 . S
C807 C808 1.383 . S
C807 H815 0.929 . S
C808 C807 1.383 . S
C808 C809 1.377 . S
C809 H793 0.930 . S
C809 C808 1.377 . S
C809 C810 1.379 . S
C810 H794 0.931 . S
C810 C804 1.383 . S
C810 C809 1.379 . S
H811 C805 0.959 . S
H812 C805 0.961 . S
H813 C805 0.960 . S
H814 C806 0.930 . S
H815 C807 0.929 . S
H816 C824 0.929 . S
H817 C826 0.930 . S
H818 C828 0.930 . S
H819 C831 0.929 . S
H820 C834 0.930 . S
H821 C836 0.960 . S
H822 C836 0.960 . S
H823 C836 0.960 . S
C824 H816 0.929 . S
C824 C825 1.377 . S
C824 C826 1.384 . S
C825 C824 1.377 . S
C825 C831 1.390 . S
C826 H817 0.930 . S
C826 C824 1.384 . S
C826 C827 1.372 . S
C827 C826 1.372 . S
C827 C828 1.400 . S
C827 C832 1.490 . S
C828 H818 0.930 . S
C828 C827 1.400 . S
C828 C831 1.386 . S
H829 C845 0.934 . S
H830 C846 0.931 . S
C831 H819 0.929 . S
C831 C825 1.390 . S
C831 C828 1.386 . S
C832 C827 1.490 . S
C832 C834 1.395 . S
C832 C835 1.403 . S
H833 C839 0.930 . S
C834 H820 0.930 . S
C834 C832 1.395 . S
C834 C837 1.403 . S
C835 C832 1.403 . S
C835 C836 1.524 . S
C835 C839 1.400 . S
C836 H821 0.960 . S
C836 H822 0.960 . S
C836 H823 0.960 . S
C836 C835 1.524 . S
C837 C834 1.403 . S
C837 C838 1.392 . S
C837 C841 1.495 . S
C838 C837 1.392 . S
C838 C839 1.385 . S
C838 C840 1.478 . S
C839 H833 0.930 . S
C839 C835 1.400 . S
C839 C838 1.385 . S
C840 C838 1.478 . S
C840 C842 1.381 . S
C840 C846 1.383 . S
C841 C837 1.495 . S
C841 H847 0.959 . S
C841 H848 0.961 . S
C841 H849 0.960 . S
C842 C840 1.381 . S
C842 C843 1.394 . S
C842 H850 0.930 . S
C843 C842 1.394 . S
C843 C844 1.383 1_554 S
C843 H851 0.929 1_554 S
C844 C843 1.383 1_556 S
C844 C845 1.379 . S
C845 H829 0.934 . S
C845 C844 1.379 . S
C845 C846 1.372 1_556 S
C846 H830 0.931 . S
C846 C840 1.383 . S
C846 C845 1.372 1_554 S
H847 C841 0.959 . S
H848 C841 0.961 . S
H849 C841 0.960 . S
H850 C842 0.930 . S
H851 C843 0.929 1_556 S
H852 C860 0.929 . S
H853 C862 0.930 . S
H854 C864 0.930 . S
H855 C867 0.929 . S
H856 C870 0.930 . S
H857 C872 0.960 . S
H858 C872 0.960 . S
H859 C872 0.960 . S
C860 H852 0.929 . S
C860 C861 1.368 1_565 S
C860 C862 1.384 . S
C861 C860 1.368 1_545 S
C861 C867 1.399 . S
C862 H853 0.930 . S
C862 C860 1.384 . S
C862 C863 1.366 1_565 S
C863 C862 1.366 1_545 S
C863 C864 1.406 . S
C863 C868 1.490 . S
C864 H854 0.930 . S
C864 C863 1.406 . S
C864 C867 1.386 . S
H865 C881 0.930 . S
H866 C882 0.931 . S
C867 H855 0.929 . S
C867 C861 1.399 . S
C867 C864 1.386 . S
C868 C863 1.490 . S
C868 C870 1.392 1_545 S
C868 C871 1.405 . S
H869 C875 0.930 . S
C870 H856 0.930 . S
C870 C868 1.392 1_565 S
C870 C873 1.403 1_554 S
C871 C868 1.405 . S
C871 C872 1.524 . S
C871 C875 1.400 . S
C872 H857 0.960 . S
C872 H858 0.960 . S
C872 H859 0.960 . S
C872 C871 1.524 . S
C873 C870 1.403 1_556 S
C873 C874 1.411 . S
C873 C877 1.495 . S
C874 C873 1.411 . S
C874 C875 1.365 1_566 S
C874 C876 1.478 1_565 S
C875 H869 0.930 . S
C875 C871 1.400 . S
C875 C874 1.365 1_544 S
C876 C874 1.478 1_545 S
C876 C878 1.375 1_545 S
C876 C882 1.388 . S
C877 C873 1.495 . S
C877 H883 0.959 . S
C877 H884 0.961 . S
C877 H885 0.960 . S
C878 C876 1.375 1_565 S
C878 C879 1.394 . S
C878 H886 0.930 . S
C879 C878 1.394 . S
C879 C880 1.383 1_565 S
C879 H887 0.929 . S
C880 C879 1.383 1_545 S
C880 C881 1.377 . S
C881 H865 0.930 . S
C881 C880 1.377 . S
C881 C882 1.379 . S
C882 H866 0.931 . S
C882 C876 1.388 . S
C882 C881 1.379 . S
H883 C877 0.959 . S
H884 C877 0.961 . S
H885 C877 0.960 . S
H886 C878 0.930 . S
H887 C879 0.929 . S
H888 C896 0.929 . S
H889 C898 0.930 . S
H890 C900 0.930 . S
H891 C903 0.929 . S
H892 C906 0.930 . S
H893 C908 0.960 1_556 S
H894 C908 0.963 . S
H895 C908 0.960 . S
C896 H888 0.929 . S
C896 C897 1.377 . S
C896 C898 1.384 . S
C897 C896 1.377 . S
C897 C903 1.390 . S
C898 H889 0.930 . S
C898 C896 1.384 . S
C898 C899 1.372 . S
C899 C898 1.372 . S
C899 C900 1.400 . S
C899 C904 1.490 . S
C900 H890 0.930 . S
C900 C899 1.400 . S
C900 C903 1.386 . S
H901 C917 0.930 . S
H902 C918 0.931 . S
C903 H891 0.929 . S
C903 C897 1.390 . S
C903 C900 1.386 . S
C904 C899 1.490 . S
C904 C906 1.395 . S
C904 C907 1.403 . S
H905 C911 0.930 . S
C906 H892 0.930 . S
C906 C904 1.395 . S
C906 C909 1.403 . S
C907 C904 1.403 . S
C907 C908 1.524 . S
C907 C911 1.400 1_554 S
C908 H893 0.960 1_554 S
C908 H894 0.963 . S
C908 H895 0.960 . S
C908 C907 1.524 . S
C909 C906 1.403 . S
C909 C910 1.392 1_554 S
C909 C913 1.495 . S
C910 C909 1.392 1_556 S
C910 C911 1.385 . S
C910 C912 1.478 . S
C911 H905 0.930 . S
C911 C907 1.400 1_556 S
C911 C910 1.385 . S
C912 C910 1.478 . S
C912 C914 1.381 . S
C912 C918 1.383 . S
C913 C909 1.495 . S
C913 H919 0.959 . S
C913 H920 0.961 . S
C913 H921 0.960 . S
C914 C912 1.381 . S
C914 C915 1.394 . S
C914 H922 0.930 . S
C915 C914 1.394 . S
C915 C916 1.383 . S
C915 H923 0.929 . S
C916 C915 1.383 . S
C916 C917 1.377 . S
C917 H901 0.930 . S
C917 C916 1.377 . S
C917 C918 1.379 . S
C918 H902 0.931 . S
C918 C912 1.383 . S
C918 C917 1.379 . S
H919 C913 0.959 . S
H920 C913 0.961 . S
H921 C913 0.960 . S
H922 C914 0.930 . S
H923 C915 0.929 . S
H924 C932 0.929 . S
H925 C934 0.930 . S
H926 C936 0.930 . S
H927 C939 0.929 . S
H928 C942 0.930 . S
H929 C944 0.960 . S
H930 C944 0.960 . S
H931 C944 0.960 . S
C932 H924 0.929 . S
C932 C933 1.377 . S
C932 C934 1.384 . S
C933 C932 1.377 . S
C933 C939 1.390 . S
C934 H925 0.930 . S
C934 C932 1.384 . S
C934 C935 1.372 . S
C935 C934 1.372 . S
C935 C936 1.400 . S
C935 C940 1.490 . S
C936 H926 0.930 . S
C936 C935 1.400 . S
C936 C939 1.386 . S
H937 C953 0.930 . S
H938 C954 0.931 . S
C939 H927 0.929 . S
C939 C933 1.390 . S
C939 C936 1.386 . S
C940 C935 1.490 . S
C940 C942 1.395 1_554 S
C940 C943 1.403 . S
H941 C947 0.930 . S
C942 H928 0.930 . S
C942 C940 1.395 1_556 S
C942 C945 1.403 . S
C943 C940 1.403 . S
C943 C944 1.524 . S
C943 C947 1.400 . S
C944 H929 0.960 . S
C944 H930 0.960 . S
C944 H931 0.960 . S
C944 C943 1.524 . S
C945 C942 1.403 . S
C945 C946 1.392 . S
C945 C949 1.495 . S
C946 C945 1.392 . S
C946 C947 1.385 1_556 S
C946 C948 1.478 . S
C947 H941 0.930 . S
C947 C943 1.400 . S
C947 C946 1.385 1_554 S
C948 C946 1.478 . S
C948 C950 1.381 . S
C948 C954 1.383 . S
C949 C945 1.495 . S
C949 H955 0.959 . S
C949 H956 0.961 . S
C949 H957 0.960 . S
C950 C948 1.381 . S
C950 C951 1.394 . S
C950 H958 0.930 . S
C951 C950 1.394 . S
C951 C952 1.383 . S
C951 H959 0.929 . S
C952 C951 1.383 . S
C952 C953 1.377 . S
C953 H937 0.930 . S
C953 C952 1.377 . S
C953 C954 1.379 . S
C954 H938 0.931 . S
C954 C948 1.383 . S
C954 C953 1.379 . S
H955 C949 0.959 . S
H956 C949 0.961 . S
H957 C949 0.960 . S
H958 C950 0.930 . S
H959 C951 0.929 . S
H960 C968 0.929 . S
H961 C970 0.930 1_455 S
H962 C972 0.930 . S
H963 C975 0.929 . S
H964 C978 0.930 1_455 S
H965 C980 0.960 . S
H966 C980 0.960 . S
H967 C980 0.960 . S
C968 H960 0.929 . S
C968 C969 1.377 . S
C968 C970 1.384 . S
C969 C968 1.377 . S
C969 C975 1.390 . S
C970 H961 0.930 1_655 S
C970 C968 1.384 . S
C970 C971 1.372 . S
C971 C970 1.372 . S
C971 C972 1.400 . S
C971 C976 1.490 . S
C972 H962 0.930 . S
C972 C971 1.400 . S
C972 C975 1.386 . S
H973 C989 0.930 . S
H974 C990 0.931 . S
C975 H963 0.929 . S
C975 C969 1.390 . S
C975 C972 1.386 . S
C976 C971 1.490 . S
C976 C978 1.395 . S
C976 C979 1.403 . S
H977 C983 0.930 . S
C978 H964 0.930 1_655 S
C978 C976 1.395 . S
C978 C981 1.395 1_655 S
C979 C976 1.403 . S
C979 C980 1.524 . S
C979 C983 1.400 . S
C980 H965 0.960 . S
C980 H966 0.960 . S
C980 H967 0.960 . S
C980 C979 1.524 . S
C981 C978 1.395 1_455 S
C981 C982 1.366 1_455 S
C981 C985 1.530 . S
C982 C981 1.366 1_655 S
C982 C983 1.385 . S
C982 C984 1.478 . S
C983 H977 0.930 . S
C983 C979 1.400 . S
C983 C982 1.385 . S
C984 C982 1.478 . S
C984 C986 1.381 1_655 S
C984 C990 1.383 . S
C985 C981 1.530 . S
C985 H991 0.959 . S
C985 H992 0.961 . S
C985 H993 0.960 . S
C986 C984 1.381 1_455 S
C986 C987 1.394 . S
C986 H994 0.930 . S
C987 C986 1.394 . S
C987 C988 1.383 1_455 S
C987 H995 0.929 . S
C988 C987 1.383 1_655 S
C988 C989 1.377 . S
C989 H973 0.930 . S
C989 C988 1.377 . S
C989 C990 1.379 . S
C990 H974 0.931 . S
C990 C984 1.383 . S
C990 C989 1.379 . S
H991 C985 0.959 . S
H992 C985 0.961 . S
H993 C985 0.960 . S
H994 C986 0.930 . S
H995 C987 0.929 . S
H996 C1004 0.929 . S
H997 C1006 0.930 . S
H998 C1008 0.930 . S
H999 C1011 0.929 . S
H1000 C1014 0.930 . S
H1001 C1016 0.960 . S
H1002 C1016 0.960 . S
H1003 C1016 0.960 . S
C1004 H996 0.929 . S
C1004 C1005 1.389 . S
C1004 C1006 1.384 . S
C1005 C1004 1.389 . S
C1005 C1011 1.379 1_565 S
C1006 H997 0.930 . S
C1006 C1004 1.384 . S
C1006 C1007 1.372 . S
C1007 C1006 1.372 . S
C1007 C1008 1.400 1_565 S
C1007 C1012 1.490 . S
C1008 H998 0.930 . S
C1008 C1007 1.400 1_545 S
C1008 C1011 1.386 . S
H1009 C1025 0.930 . S
H1010 C1026 0.931 . S
C1011 H999 0.929 . S
C1011 C1005 1.379 1_545 S
C1011 C1008 1.386 . S
C1012 C1007 1.490 . S
C1012 C1014 1.395 1_565 S
C1012 C1015 1.403 . S
H1013 C1019 0.930 . S
C1014 H1000 0.930 . S
C1014 C1012 1.395 1_545 S
C1014 C1017 1.403 . S
C1015 C1012 1.403 . S
C1015 C1016 1.524 . S
C1015 C1019 1.400 . S
C1016 H1001 0.960 . S
C1016 H1002 0.960 . S
C1016 H1003 0.960 . S
C1016 C1015 1.524 . S
C1017 C1014 1.403 . S
C1017 C1018 1.372 1_545 S
C1017 C1021 1.495 . S
C1018 C1017 1.372 1_565 S
C1018 C1019 1.410 . S
C1018 C1020 1.477 . S
C1019 H1013 0.930 . S
C1019 C1015 1.400 . S
C1019 C1018 1.410 . S
C1020 C1018 1.477 . S
C1020 C1022 1.403 . S
C1020 C1026 1.362 1_565 S
C1021 C1017 1.495 . S
C1021 H1027 0.959 . S
C1021 H1028 0.961 . S
C1021 H1029 0.960 . S
C1022 C1020 1.403 . S
C1022 C1023 1.394 . S
C1022 H1030 0.930 . S
C1023 C1022 1.394 . S
C1023 C1024 1.383 . S
C1023 H1031 0.929 . S
C1024 C1023 1.383 . S
C1024 C1025 1.377 1_565 S
C1025 H1009 0.930 . S
C1025 C1024 1.377 1_545 S
C1025 C1026 1.379 . S
C1026 H1010 0.931 . S
C1026 C1020 1.362 1_545 S
C1026 C1025 1.379 . S
H1027 C1021 0.959 . S
H1028 C1021 0.961 . S
H1029 C1021 0.960 . S
H1030 C1022 0.930 . S
H1031 C1023 0.929 . S
H1032 C1040 0.929 . S
H1033 C1042 0.930 . S
H1034 C1044 0.930 . S
H1035 C1047 0.929 . S
H1036 C1050 0.930 . S
H1037 C1052 0.960 . S
H1038 C1052 0.960 . S
H1039 C1052 0.960 . S
C1040 H1032 0.929 . S
C1040 C1041 1.377 . S
C1040 C1042 1.384 . S
C1041 C1040 1.377 . S
C1041 C1047 1.390 . S
C1042 H1033 0.930 . S
C1042 C1040 1.384 . S
C1042 C1043 1.372 . S
C1043 C1042 1.372 . S
C1043 C1044 1.400 . S
C1043 C1048 1.490 . S
C1044 H1034 0.930 . S
C1044 C1043 1.400 . S
C1044 C1047 1.386 . S
H1045 C1061 0.930 . S
H1046 C1062 0.931 . S
C1047 H1035 0.929 . S
C1047 C1041 1.390 . S
C1047 C1044 1.386 . S
C1048 C1043 1.490 . S
C1048 C1050 1.395 . S
C1048 C1051 1.403 . S
H1049 C1055 0.930 . S
C1050 H1036 0.930 . S
C1050 C1048 1.395 . S
C1050 C1053 1.403 . S
C1051 C1048 1.403 . S
C1051 C1052 1.524 . S
C1051 C1055 1.400 . S
C1052 H1037 0.960 . S
C1052 H1038 0.960 . S
C1052 H1039 0.960 . S
C1052 C1051 1.524 . S
C1053 C1050 1.403 . S
C1053 C1054 1.392 . S
C1053 C1057 1.495 . S
C1054 C1053 1.392 . S
C1054 C1055 1.385 . S
C1054 C1056 1.478 . S
C1055 H1049 0.930 . S
C1055 C1051 1.400 . S
C1055 C1054 1.385 . S
C1056 C1054 1.478 . S
C1056 C1058 1.381 . S
C1056 C1062 1.383 . S
C1057 C1053 1.495 . S
C1057 H1063 0.959 . S
C1057 H1064 0.961 . S
C1057 H1065 0.960 . S
C1058 C1056 1.381 . S
C1058 C1059 1.394 . S
C1058 H1066 0.930 . S
C1059 C1058 1.394 . S
C1059 C1060 1.383 . S
C1059 H1067 0.929 . S
C1060 C1059 1.383 . S
C1060 C1061 1.377 . S
C1061 H1045 0.930 . S
C1061 C1060 1.377 . S
C1061 C1062 1.379 . S
C1062 H1046 0.931 . S
C1062 C1056 1.383 . S
C1062 C1061 1.379 . S
H1063 C1057 0.959 . S
H1064 C1057 0.961 . S
H1065 C1057 0.960 . S
H1066 C1058 0.930 . S
H1067 C1059 0.929 . S
H1068 C1076 0.929 . S
H1069 C1078 0.930 . S
H1070 C1080 0.930 . S
H1071 C1083 0.929 . S
H1072 C1086 0.930 . S
H1073 C1088 0.960 . S
H1074 C1088 0.960 . S
H1075 C1088 0.960 . S
C1076 H1068 0.929 . S
C1076 C1077 1.377 . S
C1076 C1078 1.384 . S
C1077 C1076 1.377 . S
C1077 C1083 1.390 . S
C1078 H1069 0.930 . S
C1078 C1076 1.384 . S
C1078 C1079 1.372 . S
C1079 C1078 1.372 . S
C1079 C1080 1.400 . S
C1079 C1084 1.490 . S
C1080 H1070 0.930 . S
C1080 C1079 1.400 . S
C1080 C1083 1.386 . S
H1081 C1097 0.930 . S
H1082 C1098 0.931 . S
C1083 H1071 0.929 . S
C1083 C1077 1.390 . S
C1083 C1080 1.386 . S
C1084 C1079 1.490 . S
C1084 C1086 1.395 . S
C1084 C1087 1.403 . S
H1085 C1091 0.930 . S
C1086 H1072 0.930 . S
C1086 C1084 1.395 . S
C1086 C1089 1.403 . S
C1087 C1084 1.403 . S
C1087 C1088 1.524 . S
C1087 C1091 1.400 . S
C1088 H1073 0.960 . S
C1088 H1074 0.960 . S
C1088 H1075 0.960 . S
C1088 C1087 1.524 . S
C1089 C1086 1.403 . S
C1089 C1090 1.392 . S
C1089 C1093 1.495 . S
C1090 C1089 1.392 . S
C1090 C1091 1.385 . S
C1090 C1092 1.478 . S
C1091 H1085 0.930 . S
C1091 C1087 1.400 . S
C1091 C1090 1.385 . S
C1092 C1090 1.478 . S
C1092 C1094 1.381 . S
C1092 C1098 1.383 . S
C1093 C1089 1.495 . S
C1093 H1099 0.959 . S
C1093 H1100 0.961 . S
C1093 H1101 0.960 . S
C1094 C1092 1.381 . S
C1094 C1095 1.394 . S
C1094 H1102 0.930 . S
C1095 C1094 1.394 . S
C1095 C1096 1.383 . S
C1095 H1103 0.929 . S
C1096 C1095 1.383 . S
C1096 C1097 1.377 . S
C1097 H1081 0.930 . S
C1097 C1096 1.377 . S
C1097 C1098 1.379 . S
C1098 H1082 0.931 . S
C1098 C1092 1.383 . S
C1098 C1097 1.379 . S
H1099 C1093 0.959 . S
H1100 C1093 0.961 . S
H1101 C1093 0.960 . S
H1102 C1094 0.930 . S
H1103 C1095 0.929 . S
C249 N80 1.888 1_545 S
C268 C121 1.891 . S
C304 C142 1.552 . S
C285 N93 1.537 . S
C340 C176 1.320 . S
C321 N54 1.316 . S
C376 C210 1.530 . S
C357 N67 1.529 . S
C412 C112 1.891 . S
C393 N28 1.890 1_545 S
C429 N41 1.550 . S
C448 C151 1.552 . S
C465 N2 1.323 . S
C484 C185 1.339 . S
C501 N15 1.533 . S
C520 C219 1.535 . S
C556 C133 0.162 . S
C537 N70 0.222 . S
C592 C138 0.697 . S
C573 N83 0.688 . S
C628 C172 0.637 . S
C609 N96 0.607 . S
C645 N57 0.190 . S
C664 C206 0.114 . S
C681 N18 0.221 . S
C700 C104 0.308 . S
C736 C167 0.705 . S
C717 N31 0.689 . S
C772 C201 0.640 . S
C753 N44 0.614 . S
C789 N5 0.187 . S
C808 C235 0.184 . S
C825 N66 1.300 . S
C844 C117 1.303 . S
C861 N79 1.746 1_545 S
C880 C146 1.744 . S
C916 C180 1.558 . S
C897 N92 1.555 . S
C952 C214 1.612 . S
C933 N53 1.611 . S
C969 N14 1.305 . S
C988 C108 1.301 . S
C1024 C155 1.744 . S
C1005 N27 1.746 . S
C1060 C189 1.557 . S
C1041 N40 1.556 . S
C1077 N1 1.607 . S
C1096 C223 1.614 . S
