# Generated by pormake.
# Topology anh, (6,3)-cn, num edge types: 1
# Building blocks:
#     Node 0, Type 0, BuildingBlock: HISSIN_clean_sbu_0, # of connection points: 6
#     Node 1, Type 0, BuildingBlock: HISSIN_clean_sbu_0, # of connection points: 6
#     Node 2, Type 0, BuildingBlock: HISSIN_clean_sbu_0, # of connection points: 6
#     Node 3, Type 1, BuildingBlock: BETDAH_clean_linker_0, # of connection points: 3
#     Node 4, Type 1, BuildingBlock: BETDAH_clean_linker_0, # of connection points: 3
#     Node 5, Type 1, BuildingBlock: BETDAH_clean_linker_0, # of connection points: 3
#     Node 6, Type 1, BuildingBlock: BETDAH_clean_linker_0, # of connection points: 3
#     Node 7, Type 1, BuildingBlock: BETDAH_clean_linker_0, # of connection points: 3
#     Node 8, Type 1, BuildingBlock: BETDAH_clean_linker_0, # of connection points: 3
#     Edge 9, Type (0, 1), BuildingBlock: XIVTED_clean_linker_0, # of connection points: 2
#     Edge 10, Type (0, 1), BuildingBlock: XIVTED_clean_linker_0, # of connection points: 2
#     Edge 11, Type (0, 1), BuildingBlock: XIVTED_clean_linker_0, # of connection points: 2
#     Edge 12, Type (0, 1), BuildingBlock: XIVTED_clean_linker_0, # of connection points: 2
#     Edge 13, Type (0, 1), BuildingBlock: XIVTED_clean_linker_0, # of connection points: 2
#     Edge 14, Type (0, 1), BuildingBlock: XIVTED_clean_linker_0, # of connection points: 2
#     Edge 15, Type (0, 1), BuildingBlock: XIVTED_clean_linker_0, # of connection points: 2
#     Edge 16, Type (0, 1), BuildingBlock: XIVTED_clean_linker_0, # of connection points: 2
#     Edge 17, Type (0, 1), BuildingBlock: XIVTED_clean_linker_0, # of connection points: 2
#     Edge 18, Type (0, 1), BuildingBlock: XIVTED_clean_linker_0, # of connection points: 2
#     Edge 19, Type (0, 1), BuildingBlock: XIVTED_clean_linker_0, # of connection points: 2
#     Edge 20, Type (0, 1), BuildingBlock: XIVTED_clean_linker_0, # of connection points: 2
#     Edge 21, Type (0, 1), BuildingBlock: XIVTED_clean_linker_0, # of connection points: 2
#     Edge 22, Type (0, 1), BuildingBlock: XIVTED_clean_linker_0, # of connection points: 2
#     Edge 23, Type (0, 1), BuildingBlock: XIVTED_clean_linker_0, # of connection points: 2
#     Edge 24, Type (0, 1), BuildingBlock: XIVTED_clean_linker_0, # of connection points: 2
#     Edge 25, Type (0, 1), BuildingBlock: XIVTED_clean_linker_0, # of connection points: 2
#     Edge 26, Type (0, 1), BuildingBlock: XIVTED_clean_linker_0, # of connection points: 2
# Relax obj value: 0.237
# Max RMSD: 0.145
# Mean RMSD: 0.106
data_MOF--net-anh--node1-HISSIN_clean_sbu_0--node2-BETDAH_clean_linker_0--edge1-XIVTED_clean_linker_0
_symmetry_space_group_name_H-M    P1
_symmetry_Int_Tables_number       1
_symmetry_cell_setting            triclinic
loop_
_symmetry_equiv_pos_as_xyz
'x, y, z'
_cell_length_a     32.211147
_cell_length_b     31.882168
_cell_length_c     49.877098
_cell_angle_alpha  95.311188
_cell_angle_beta   92.005756
_cell_angle_gamma 119.59843
loop_
_atom_site_label
_atom_site_type_symbol
_atom_site_fract_x
_atom_site_fract_y
_atom_site_fract_z
_atom_type_partial_charge
Eu0 Eu 1.02801 0.5445 0.16072 0.0
Eu1 Eu 1.08153 0.65994 0.17471 0.0
C2 C 1.0547 0.59455 0.22325 0.0
C3 C 0.94952 0.40482 0.13382 0.0
C4 C 0.90242 0.38175 0.1413 0.0
C5 C 0.93061 0.33168 0.10402 0.0
C6 C 0.87034 0.33336 0.13107 0.0
C7 C 0.96265 0.38004 0.11422 0.0
C8 C 0.88495 0.30715 0.11335 0.0
C9 C 0.9874 0.4502 0.14949 0.0
O10 O 0.14733 0.64643 0.174 0.0
O11 O 0.10814 0.56462 0.15966 0.0
C12 C 0.14918 0.60617 0.16611 0.0
O13 O 1.03108 0.57234 0.12028 0.0
O14 O 0.13278 0.72916 0.19846 0.0
O15 O 0.08653 0.72727 0.16509 0.0
O16 O 0.09739 0.64626 0.1328 0.0
C17 C 1.06804 0.61185 0.114 0.0
O18 O 0.96209 0.55715 0.16202 0.0
O19 O 1.00191 0.63998 0.16407 0.0
O20 O 1.05819 0.63374 0.2148 0.0
O21 O 1.02202 0.48084 0.13666 0.0
O22 O 0.97594 0.47163 0.16905 0.0
O23 O 1.0508 0.55887 0.20591 0.0
C24 C 0.16518 0.79426 0.17226 0.0
C25 C 0.17194 0.79283 0.14456 0.0
C26 C 0.24274 0.86749 0.18151 0.0
C27 C 0.21431 0.82799 0.13549 0.0
C28 C 0.20023 0.83259 0.19051 0.0
C29 C 0.25088 0.86485 0.15399 0.0
C30 C 0.12353 0.75452 0.1826 0.0
C31 C 0.96059 0.59815 0.16179 0.0
H32 H 0.89128 0.39983 0.15643 0.0
H33 H 0.94265 0.31257 0.09016 0.0
H34 H 0.83555 0.31541 0.13887 0.0
H35 H 0.99883 0.39694 0.10817 0.0
H36 H 0.14526 0.76369 0.12998 0.0
H37 H 0.27031 0.89475 0.19648 0.0
H38 H 0.21911 0.8252 0.11415 0.0
H39 H 0.19564 0.83433 0.21193 0.0
Eu40 Eu 0.60918 1.04429 0.49994 0.0
Eu41 Eu 0.5491 0.09807 0.49637 0.0
C42 C 0.57748 0.07579 0.5547 0.0
C43 C 0.67315 0.96916 0.5136 0.0
C44 C 0.68378 0.97319 0.54161 0.0
C45 C 0.70467 0.9144 0.50613 0.0
C46 C 0.70653 0.9495 0.55168 0.0
C47 C 0.68213 0.9382 0.49607 0.0
C48 C 0.71895 0.92148 0.53391 0.0
C49 C 0.66176 1.00333 0.50193 0.0
O50 O 0.62599 0.16051 0.48948 0.0
O51 O 0.66938 0.1265 0.50369 0.0
C52 C 0.66861 0.16491 0.49575 0.0
O53 O 0.61826 0.06795 0.45888 0.0
O54 O 0.528 0.14929 0.51387 0.0
O55 O 0.49724 0.11027 0.47409 0.0
O56 O 0.54801 0.06758 0.45332 0.0
C57 C 0.58462 0.06695 0.44317 0.0
O58 O 0.52941 0.97942 0.49016 0.0
O59 O 0.4887 1.01946 0.50125 0.0
O60 O 0.57025 0.10583 0.5415 0.0
O61 O 0.6241 0.98667 0.48457 0.0
O62 O 0.67024 1.04231 0.51763 0.0
O63 O 0.58545 1.04322 0.54181 0.0
C64 C 0.51779 0.19259 0.4815 0.0
C65 C 0.54937 0.20761 0.46117 0.0
C66 C 0.5284 0.27352 0.48962 0.0
C67 C 0.57145 0.25573 0.45568 0.0
C68 C 0.50604 0.22528 0.49493 0.0
C69 C 0.56294 0.28979 0.47076 0.0
C70 C 0.50342 0.14607 0.49173 0.0
C71 C 0.48791 0.97765 0.49469 0.0
H72 H 0.67725 0.99694 0.55559 0.0
H73 H 0.71274 0.89206 0.49201 0.0
H74 H 0.71706 0.95568 0.57318 0.0
H75 H 0.67434 0.93471 0.4744 0.0
H76 H 0.55919 0.18297 0.45063 0.0
H77 H 0.52134 0.29874 0.5019 0.0
H78 H 0.59728 0.26687 0.44076 0.0
H79 H 0.48205 0.21438 0.51082 0.0
Eu80 Eu 0.54653 0.55741 0.82595 0.0
Eu81 Eu 0.65718 0.61529 0.84463 0.0
C82 C 0.58373 0.58886 0.89006 0.0
C83 C 0.43433 0.52752 0.78591 0.0
C84 C 0.45867 0.57585 0.78058 0.0
C85 C 0.3629 0.51533 0.76059 0.0
C86 C 0.43445 0.59484 0.76712 0.0
C87 C 0.3871 0.4966 0.77472 0.0
C88 C 0.38525 0.56558 0.75836 0.0
C89 C 0.45809 0.51126 0.80446 0.0
O90 O 0.64026 0.53529 0.84611 0.0
O91 O 0.56411 0.49482 0.82497 0.0
C92 C 0.60225 0.4938 0.835 0.0
O93 O 0.58744 0.58953 0.78995 0.0
O94 O 0.72171 0.63397 0.87015 0.0
O95 O 0.72673 0.67111 0.83493 0.0
O96 O 0.64647 0.57649 0.80347 0.0
C97 C 0.62353 0.58347 0.78414 0.0
O98 O 0.56014 0.63653 0.83033 0.0
O99 O 0.64201 0.67671 0.83376 0.0
O100 O 0.62495 0.6212 0.8827 0.0
O101 O 0.49189 0.50515 0.79455 0.0
O102 O 0.47128 0.5355 0.82872 0.0
O103 O 0.55 0.55539 0.87191 0.0
C104 C 0.78484 0.64984 0.84311 0.0
C105 C 0.76964 0.60243 0.83091 0.0
C106 C 0.86583 0.67449 0.83278 0.0
C107 C 0.80263 0.59084 0.82017 0.0
C108 C 0.83285 0.68594 0.84367 0.0
C109 C 0.85111 0.62672 0.82119 0.0
C110 C 0.74988 0.66218 0.85345 0.0
C111 C 0.60134 0.67781 0.83092 0.0
H112 H 0.49571 0.59989 0.78841 0.0
H113 H 0.32574 0.49103 0.75315 0.0
H114 H 0.45365 0.63355 0.76603 0.0
H115 H 0.36829 0.45871 0.77799 0.0
H116 H 0.7323 0.57437 0.82981 0.0
H117 H 0.90318 0.70267 0.83432 0.0
H118 H 0.79043 0.55383 0.81136 0.0
H119 H 0.84486 0.72283 0.85265 0.0
H120 H 0.54537 1.00835 0.23227 0.0
H121 H 0.66975 0.99528 0.25109 0.0
H122 H 0.61428 0.97467 0.16849 0.0
C123 C 0.57375 1.00197 0.22578 0.0
C124 C 0.57601 0.99166 0.19808 0.0
C125 C 0.60694 1.00296 0.24521 0.0
C126 C 0.64357 0.99449 0.23651 0.0
C127 C 0.64715 0.98578 0.20886 0.0
C128 C 0.6127 0.98338 0.18979 0.0
N129 N 0.6864 0.98111 0.2004 0.0
C130 C 0.70864 1.00196 0.17799 0.0
H131 H 0.71479 0.57626 0.58691 0.0
H132 H 0.84475 0.6983 0.62667 0.0
H133 H 0.84101 0.64419 0.54406 0.0
C134 C 0.75179 0.60434 0.58635 0.0
C135 C 0.77461 0.60649 0.56259 0.0
C136 C 0.77691 0.63661 0.60976 0.0
C137 C 0.82521 0.67193 0.60907 0.0
C138 C 0.84831 0.67448 0.58546 0.0
C139 C 0.82323 0.64133 0.56241 0.0
N140 N 0.89432 0.71452 0.58369 0.0
C141 C 0.89746 0.75932 0.58323 0.0
H142 H 0.09457 0.62385 0.91015 0.0
H143 H 0.24487 0.71584 0.93642 0.0
H144 H 0.19335 0.70173 0.85373 0.0
C145 C 0.13111 0.64699 0.90558 0.0
C146 C 0.13995 0.65859 0.87916 0.0
C147 C 0.1684 0.66785 0.92655 0.0
C148 C 0.21544 0.70003 0.92065 0.0
C149 C 0.22485 0.71114 0.89421 0.0
C150 C 0.18671 0.69126 0.87382 0.0
N151 N 0.27274 0.7416 0.88821 0.0
C152 C 0.28599 0.73768 0.86226 0.0
H153 H 0.16391 0.6659 0.4253 0.0
H154 H 1.03031 0.53573 0.43244 0.0
H155 H 0.12806 0.61879 0.50375 0.0
C156 C 0.13973 0.64057 0.43811 0.0
C157 C 0.15353 0.6492 0.46604 0.0
C158 C 0.09577 0.60071 0.42601 0.0
C159 C 1.06374 0.56613 0.44199 0.0
C160 C 1.07381 0.57121 0.4702 0.0
C161 C 0.11925 0.61379 0.48213 0.0
N162 N 1.03983 0.5353 0.4868 0.0
C163 C 0.99359 0.49071 0.48069 0.0
H164 H 0.59216 0.17639 0.76 0.0
H165 H 0.60025 1.04627 0.76604 0.0
H166 H 0.60301 0.13443 0.83826 0.0
C167 C 0.59562 0.15191 0.77239 0.0
C168 C 0.59825 0.16236 0.80061 0.0
C169 C 0.59718 0.1112 0.75963 0.0
C170 C 0.59923 0.07756 0.77568 0.0
C171 C 0.60104 0.08456 0.80415 0.0
C172 C 0.60136 0.12803 0.81646 0.0
N173 N 0.60282 1.04969 0.82083 0.0
C174 C 0.60172 1.00396 0.81434 0.0
H175 H 0.65018 0.59674 0.09195 0.0
H176 H 0.5165 0.59494 0.10044 0.0
H177 H 0.60058 0.59767 0.17108 0.0
C178 C 0.62408 0.59691 0.10505 0.0
C179 C 0.63246 0.59732 0.133 0.0
C180 C 0.58271 0.59555 0.09322 0.0
C181 C 0.54761 0.59527 0.10969 0.0
C182 C 0.55285 0.59662 0.13796 0.0
C183 C 0.59565 0.59689 0.14943 0.0
N184 N 0.5168 0.59799 0.15505 0.0
C185 C 0.47277 0.59923 0.14935 0.0
H186 H 0.24599 0.68377 0.17636 0.0
H187 H 0.37744 0.52383 0.13732 0.0
H188 H 0.16765 0.52994 0.1501 0.0
H189 H 0.45718 0.67733 0.16402 0.0
H190 H 0.30203 0.52582 0.14126 0.0
H191 H 0.32183 0.68279 0.17182 0.0
C192 C 0.24408 0.64953 0.16968 0.0
C193 C 0.19833 0.60686 0.1638 0.0
C194 C 0.33582 0.55936 0.14618 0.0
C195 C 0.28848 0.60548 0.15826 0.0
C196 C 0.37962 0.55829 0.14378 0.0
C197 C 0.42548 0.60054 0.14991 0.0
C198 C 0.336 0.60311 0.15504 0.0
C199 C 0.42382 0.64351 0.15863 0.0
C200 C 0.2882 0.64904 0.16703 0.0
C201 C 0.20068 0.5642 0.15511 0.0
N202 N 0.38089 0.64358 0.16084 0.0
N203 N 0.2438 0.56474 0.1527 0.0
H204 H 0.76518 0.18845 0.50582 0.0
H205 H 0.8984 0.46988 0.46934 0.0
H206 H 0.68577 0.25568 0.48001 0.0
H207 H 0.97575 0.40001 0.49399 0.0
H208 H 0.82204 0.39411 0.47274 0.0
H209 H 0.84054 0.26402 0.50163 0.0
C210 C 0.76293 0.21878 0.4993 0.0
C211 C 0.71697 0.21362 0.49344 0.0
C212 C 0.85552 0.39487 0.47731 0.0
C213 C 0.80696 0.30401 0.48833 0.0
C214 C 0.89989 0.43878 0.47524 0.0
C215 C 0.94542 0.44293 0.48097 0.0
C216 C 0.85481 0.35296 0.48543 0.0
C217 C 0.94277 0.39995 0.48894 0.0
C218 C 0.80685 0.2627 0.49684 0.0
C219 C 0.71898 0.25614 0.48497 0.0
N220 N 0.8994 0.358 0.49086 0.0
N221 N 0.7621 0.29832 0.48277 0.0
H222 H 0.67918 0.77321 0.83246 0.0
H223 H 0.52387 0.90943 0.80968 0.0
H224 H 0.52494 0.69635 0.82229 0.0
H225 H 0.6779 0.98604 0.82059 0.0
H226 H 0.52343 0.83235 0.81332 0.0
H227 H 0.67937 0.84965 0.82765 0.0
C228 C 0.64511 0.77187 0.82925 0.0
C229 C 0.60197 0.72658 0.82798 0.0
C230 C 0.55752 0.8658 0.81478 0.0
C231 C 0.60199 0.81702 0.82219 0.0
C232 C 0.55782 0.91039 0.81253 0.0
C233 C 0.60102 0.95562 0.81438 0.0
C234 C 0.60081 0.86493 0.81914 0.0
C235 C 0.64345 0.95293 0.81862 0.0
C236 C 0.64531 0.81623 0.82646 0.0
C237 C 0.55946 0.72926 0.82363 0.0
N238 N 0.6422 0.90928 0.8208 0.0
N239 N 0.56065 0.77275 0.82097 0.0
H240 H 0.94198 0.67302 0.15139 0.0
H241 H 0.65005 0.53067 0.15914 0.0
H242 H 0.86409 0.5232 0.1653 0.0
H243 H 0.72742 0.66621 0.12663 0.0
H244 H 0.72625 0.52958 0.16619 0.0
H245 H 0.86565 0.67324 0.14665 0.0
C246 C 0.90915 0.63988 0.15356 0.0
C247 C 0.91151 0.59798 0.15879 0.0
C248 C 0.72696 0.56005 0.15784 0.0
C249 C 0.82029 0.59827 0.15356 0.0
C250 C 0.68287 0.56104 0.15408 0.0
C251 C 0.68066 0.59929 0.14274 0.0
C252 C 0.771 0.59776 0.1505 0.0
C253 C 0.72586 0.63615 0.1359 0.0
C254 C 0.86479 0.6401 0.15078 0.0
C255 C 0.86582 0.55674 0.16122 0.0
N256 N 0.76787 0.63453 0.13994 0.0
N257 N 0.82328 0.5581 0.15878 0.0
H258 H 0.46512 0.88217 0.47358 0.0
H259 H 0.17993 0.73622 0.50135 0.0
H260 H 0.39571 0.95613 0.50957 0.0
H261 H 0.24461 0.67234 0.45081 0.0
H262 H 0.25812 0.81329 0.50868 0.0
H263 H 0.38777 0.80504 0.46892 0.0
C264 C 0.43405 0.88279 0.4807 0.0
C265 C 0.43899 0.92778 0.49208 0.0
C266 C 0.25569 0.78233 0.49626 0.0
C267 C 0.34677 0.83583 0.48685 0.0
C268 C 0.21048 0.73737 0.49231 0.0
C269 C 0.20406 0.69534 0.47586 0.0
C270 C 0.2967 0.78706 0.4839 0.0
C271 C 0.24642 0.70209 0.46414 0.0
C272 C 0.38909 0.83793 0.47794 0.0
C273 C 0.39542 0.92375 0.50061 0.0
N274 N 0.28962 0.7457 0.46841 0.0
N275 N 0.35243 0.87972 0.49797 0.0
H276 H 0.67361 0.47223 0.85241 0.0
H277 H 0.52808 0.18587 0.78876 0.0
H278 H 0.53133 0.40069 0.81156 0.0
H279 H 0.66518 0.24869 0.83472 0.0
H280 H 0.52936 0.26354 0.79796 0.0
H281 H 0.67243 0.39364 0.84704 0.0
C282 C 0.64188 0.44032 0.8424 0.0
C283 C 0.6024 0.44468 0.83263 0.0
C284 C 0.55912 0.26067 0.80643 0.0
C285 C 0.60097 0.35201 0.82608 0.0
C286 C 0.55826 0.21557 0.80133 0.0
C287 C 0.59601 0.20876 0.81131 0.0
C288 C 0.59856 0.30161 0.82153 0.0
C289 C 0.63439 0.25049 0.82695 0.0
C290 C 0.64129 0.39489 0.8393 0.0
C291 C 0.56287 0.4006 0.81969 0.0
N292 N 0.63472 0.29435 0.83134 0.0
N293 N 0.56334 0.35727 0.81685 0.0
H294 H 0.7154 0.88033 0.58045 0.0
H295 H 0.91878 0.81693 0.54361 0.0
H296 H 0.79472 0.92259 0.51042 0.0
H297 H 0.84688 0.78331 0.61639 0.0
H298 H 0.88063 0.86469 0.53384 0.0
H299 H 0.76846 0.85154 0.59633 0.0
C300 C 0.74405 0.88369 0.56847 0.0
C301 C 0.75017 0.90321 0.54388 0.0
C302 C 0.87395 0.8478 0.55227 0.0
C303 C 0.81101 0.87045 0.56189 0.0
C304 C 0.89611 0.82108 0.55793 0.0
C305 C 0.88611 0.79706 0.58091 0.0
C306 C 0.84104 0.84946 0.56955 0.0
C307 C 0.85572 0.80211 0.59862 0.0
C308 C 0.77436 0.8673 0.57754 0.0
C309 C 0.78786 0.90662 0.52915 0.0
N310 N 0.83369 0.82735 0.59241 0.0
N311 N 0.81666 0.89017 0.5383 0.0
H312 H 0.92706 0.67543 0.79164 0.0
H313 H 1.0611 0.56696 0.86908 0.0
H314 H 0.85843 0.54896 0.83361 0.0
H315 H 0.12689 0.70762 0.84044 0.0
H316 H 0.98791 0.54304 0.84033 0.0
H317 H 0.99918 0.66831 0.79225 0.0
C318 C 0.92681 0.6454 0.80033 0.0
C319 C 0.88759 0.61382 0.81348 0.0
C320 C 1.01887 0.57867 0.83984 0.0
C321 C 0.96976 0.60594 0.81468 0.0
C322 C 1.06044 0.5925 0.85643 0.0
C323 C 0.09961 0.6399 0.85784 0.0
C324 C 1.01651 0.61262 0.82477 0.0
C325 C 0.09751 0.67088 0.84029 0.0
C326 C 0.96788 0.64128 0.80065 0.0
C327 C 0.88835 0.57467 0.82371 0.0
N328 N 1.05628 0.65702 0.82489 0.0
N329 N 0.92942 0.57261 0.8248 0.0
H330 H 0.29833 0.83947 0.11696 0.0
H331 H 0.52865 0.91976 0.1558 0.0
H332 H 0.31543 0.96097 0.1719 0.0
H333 H 0.53529 1.04927 0.19548 0.0
H334 H 0.45378 0.89886 0.13111 0.0
H335 H 0.38383 0.88171 0.11342 0.0
C336 C 0.31991 0.87552 0.12795 0.0
C337 C 0.29973 0.89574 0.14573 0.0
C338 C 0.47172 0.93265 0.1445 0.0
C339 C 0.39884 0.94314 0.14328 0.0
C340 C 0.51497 0.94465 0.15868 0.0
C341 C 0.53745 0.98553 0.17831 0.0
C342 C 0.45059 0.96162 0.15023 0.0
C343 C 0.51816 1.01647 0.18116 0.0
C344 C 0.36933 0.89941 0.12635 0.0
C345 C 0.3297 0.94292 0.15897 0.0
N346 N 0.47529 1.00331 0.16775 0.0
N347 N 0.37788 0.96444 0.15805 0.0
H348 H 0.65979 0.33757 0.46682 0.0
H349 H 0.68466 0.57884 0.54039 0.0
H350 H 0.54085 0.36324 0.47498 0.0
H351 H 0.80295 0.55307 0.53018 0.0
H352 H 0.63493 0.50903 0.50653 0.0
H353 H 0.71497 0.42401 0.47853 0.0
C354 C 0.64506 0.36146 0.47023 0.0
C355 C 0.59541 0.34276 0.47054 0.0
C356 C 0.67201 0.51913 0.51127 0.0
C357 C 0.65889 0.442 0.48499 0.0
C358 C 0.70031 0.55882 0.53068 0.0
C359 C 0.74754 0.57086 0.53852 0.0
C360 C 0.69094 0.49093 0.49991 0.0
C361 C 0.76653 0.54465 0.52489 0.0
C362 C 0.67681 0.41099 0.47722 0.0
C363 C 0.57886 0.37583 0.47535 0.0
N364 N 0.73785 0.50526 0.50662 0.0
N365 N 0.61054 0.42372 0.483 0.0
H366 H 0.4114 0.65282 0.73766 0.0
H367 H 0.36569 0.78096 0.8353 0.0
H368 H 0.29114 0.53374 0.76817 0.0
H369 H 0.22153 0.65943 0.82878 0.0
H370 H 0.38022 0.7443 0.79394 0.0
H371 H 0.37944 0.70565 0.75222 0.0
C372 C 0.37792 0.63733 0.74693 0.0
C373 C 0.35626 0.58951 0.75372 0.0
C374 C 0.34465 0.72675 0.80074 0.0
C375 C 0.31923 0.64946 0.76981 0.0
C376 C 0.33664 0.74752 0.82453 0.0
C377 C 0.29253 0.723 0.83531 0.0
C378 C 0.30822 0.68099 0.78813 0.0
C379 C 0.25598 0.67967 0.82101 0.0
C380 C 0.3598 0.66771 0.75526 0.0
C381 C 0.31086 0.5707 0.76354 0.0
N382 N 0.26492 0.65962 0.79841 0.0
N383 N 0.29461 0.6011 0.77198 0.0
H384 H 0.78734 0.24862 0.10225 0.0
H385 H 0.79974 1.03715 0.16506 0.0
H386 H 0.91758 0.2431 0.11554 0.0
H387 H 0.66816 1.03612 0.14461 0.0
H388 H 0.84138 0.10303 0.13731 0.0
H389 H 0.74094 0.16231 0.10751 0.0
C390 C 0.80611 0.22896 0.10565 0.0
C391 C 0.85637 0.25331 0.10899 0.0
C392 C 0.80313 0.0876 0.1383 0.0
C393 C 0.80372 0.15488 0.11546 0.0
C394 C 0.77947 1.04996 0.15405 0.0
C395 C 0.7308 1.03173 0.15706 0.0
C396 C 0.77783 0.10746 0.12609 0.0
C397 C 0.70586 1.04946 0.14276 0.0
C398 C 0.77965 0.17968 0.10864 0.0
C399 C 0.87889 0.22593 0.1129 0.0
N400 N 0.72984 0.08699 0.12822 0.0
N401 N 0.85244 0.17845 0.11663 0.0
H402 H 1.02903 0.54393 0.06838 0.0
H403 H 0.20424 0.73233 0.97286 0.0
H404 H 0.13454 0.69394 0.09525 0.0
H405 H 0.10586 0.58109 0.94429 0.0
H406 H 0.17927 0.71748 0.01818 0.0
H407 H 1.05492 0.55581 0.02254 0.0
C408 C 1.05725 0.57933 0.06463 0.0
C409 C 1.07963 0.61792 0.0857 0.0
C410 C 0.16321 0.68739 0.00205 0.0
C411 C 0.10963 0.63163 0.03365 0.0
C412 C 0.17788 0.69582 0.97618 0.0
C413 C 0.15704 0.658 0.95469 0.0
C414 C 0.12729 0.64082 0.00655 0.0
C415 C 0.12237 0.61153 0.9602 0.0
C416 C 1.07222 0.58604 0.03855 0.0
C417 C 0.11625 0.66299 0.07974 0.0
N418 N 0.10838 0.60428 0.98556 0.0
N419 N 0.13006 0.66851 0.05437 0.0
H420 H 0.66502 0.09128 0.41755 0.0
H421 H 0.52539 0.9701 0.27183 0.0
H422 H 0.51267 1.03363 0.40186 0.0
H423 H 0.6795 0.05934 0.28527 0.0
H424 H 0.51951 0.99023 0.31944 0.0
H425 H 0.67061 0.0779 0.36929 0.0
C426 C 0.6327 0.07599 0.40389 0.0
C427 C 0.5882 0.06317 0.41373 0.0
C428 C 0.55458 1.00553 0.31194 0.0
C429 C 0.59435 1.04734 0.35834 0.0
C430 C 0.55803 0.99417 0.28473 0.0
C431 C 0.60307 1.0132 0.27443 0.0
C432 C 0.59647 1.03577 0.32913 0.0
C433 C 0.64408 1.04329 0.29232 0.0
C434 C 0.63596 0.06845 0.37631 0.0
C435 C 0.54765 1.044 0.39508 0.0
N436 N 0.63979 1.05356 0.31879 0.0
N437 N 0.5516 1.03615 0.36823 0.0
H438 H 0.70128 0.5779 0.77008 0.0
H439 H 0.68669 0.62263 0.61656 0.0
H440 H 0.59069 0.60325 0.73747 0.0
H441 H 0.81284 0.63945 0.66056 0.0
H442 H 0.64682 0.60952 0.6586 0.0
H443 H 0.73746 0.59258 0.72783 0.0
C444 C 0.68432 0.58638 0.75396 0.0
C445 C 0.64282 0.58951 0.75743 0.0
C446 C 0.68332 0.61644 0.659 0.0
C447 C 0.68477 0.60668 0.70857 0.0
C448 C 0.706 0.6237 0.63507 0.0
C449 C 0.75314 0.63204 0.63511 0.0
C450 C 0.7078 0.61688 0.68294 0.0
C451 C 0.7767 0.63359 0.65963 0.0
C452 C 0.70532 0.59504 0.72978 0.0
C453 C 0.62269 0.60053 0.73564 0.0
N454 N 0.75367 0.62573 0.68246 0.0
N455 N 0.64391 0.60873 0.712 0.0
H456 H 0.5655 1.00621 0.58709 0.0
H457 H 0.63988 0.18201 0.72589 0.0
H458 H 0.59208 0.15328 0.59127 0.0
H459 H 0.55386 1.02612 0.72329 0.0
H460 H 0.6328 0.17266 0.67666 0.0
H461 H 0.5704 1.01333 0.63664 0.0
C462 C 0.5723 1.04003 0.59838 0.0
C463 C 0.57833 0.07923 0.58483 0.0
C464 C 0.61537 0.14049 0.68684 0.0
C465 C 0.5848 0.08776 0.64182 0.0
C466 C 0.61913 0.14569 0.71511 0.0
C467 C 0.59654 0.10486 0.72922 0.0
C468 C 0.58975 0.09401 0.6721 0.0
C469 C 0.57201 0.05878 0.71362 0.0
C470 C 0.57497 1.04394 0.62671 0.0
C471 C 0.58695 0.12202 0.60071 0.0
N472 N 0.5693 1.05463 0.68599 0.0
N473 N 0.59037 0.12527 0.62827 0.0
H474 H 0.64374 0.65991 0.93006 0.0
H475 H 0.50415 0.53599 0.05622 0.0
H476 H 0.51107 0.52266 0.91845 0.0
H477 H 0.64965 0.65482 0.06159 0.0
H478 H 0.49991 0.53401 0.00656 0.0
H479 H 0.63983 0.66211 0.97848 0.0
C480 C 0.61346 0.63005 0.9376 0.0
C481 C 0.57783 0.59073 0.91977 0.0
C482 C 0.53263 0.56055 0.01866 0.0
C483 C 0.57328 0.59324 0.9763 0.0
C484 C 0.53501 0.56194 0.04702 0.0
C485 C 0.57746 0.59548 0.0632 0.0
C486 C 0.57281 0.59342 0.0064 0.0
C487 C 0.61638 0.62797 0.05007 0.0
C488 C 0.61137 0.63142 0.96552 0.0
C489 C 0.53942 0.55366 0.93125 0.0
N490 N 0.61306 0.62609 0.02266 0.0
N491 N 0.53826 0.55571 0.95879 0.0
H492 H 1.04622 0.5189 0.25033 0.0
H493 H 0.10162 0.67199 0.39721 0.0
H494 H 1.06797 0.66426 0.26454 0.0
H495 H 1.06302 0.52097 0.38677 0.0
H496 H 0.08897 0.6685 0.34837 0.0
H497 H 1.05201 0.51758 0.29953 0.0
C498 C 1.05207 0.55047 0.26369 0.0
C499 C 1.05668 0.5918 0.25305 0.0
C500 C 0.08299 0.63592 0.35662 0.0
C501 C 1.06349 0.59053 0.30956 0.0
C502 C 0.09034 0.63794 0.38461 0.0
C503 C 0.08373 0.59681 0.39623 0.0
C504 C 1.06915 0.59247 0.33971 0.0
C505 C 1.06841 0.55353 0.37875 0.0
C506 C 1.0553 0.54964 0.29183 0.0
C507 C 1.06418 0.63153 0.27155 0.0
N508 N 1.06204 0.55258 0.3514 0.0
N509 N 1.06751 0.62992 0.29868 0.0
loop_
_geom_bond_atom_site_label_1
_geom_bond_atom_site_label_2
_geom_bond_distance
_geom_bond_site_symmetry_2
_ccdc_geom_bond_type
Eu0 C9 2.828 . S
Eu0 O11 2.392 1_655 S
Eu0 O13 2.418 . S
Eu0 O18 2.373 . S
Eu0 O21 2.488 . S
Eu0 O22 2.471 . S
Eu0 O23 2.349 1_655 S
Eu1 O10 2.373 . S
Eu1 O14 2.488 . S
Eu1 O15 2.471 . S
Eu1 O16 2.349 . S
Eu1 O19 2.392 1_455 S
Eu1 O20 2.418 . S
Eu1 C30 2.828 . S
C2 O20 1.244 . S
C2 O23 1.265 . S
C3 C4 1.379 . S
C3 C7 1.373 . S
C3 C9 1.505 . S
C4 C3 1.379 . S
C4 C6 1.369 . S
C4 H32 0.930 . S
C5 C7 1.383 . S
C5 C8 1.382 . S
C5 H33 0.930 . S
C6 C4 1.369 . S
C6 C8 1.392 . S
C6 H34 0.930 . S
C7 C3 1.373 . S
C7 C5 1.383 . S
C7 H35 0.931 . S
C8 C5 1.382 . S
C8 C6 1.392 . S
C9 Eu0 2.828 . S
C9 C3 1.505 . S
C9 O21 1.249 . S
C9 O22 1.244 . S
O10 Eu1 2.373 . S
O10 C12 1.258 . S
O11 Eu0 2.392 1_455 S
O11 C12 1.242 . S
C12 O10 1.258 . S
C12 O11 1.242 . S
O13 Eu0 2.418 . S
O13 C17 1.244 1_655 S
O14 Eu1 2.488 . S
O14 C30 1.249 . S
O15 Eu1 2.471 . S
O15 C30 1.244 . S
O16 Eu1 2.349 . S
O16 C17 1.265 . S
C17 O13 1.244 1_455 S
C17 O16 1.265 . S
O18 Eu0 2.373 . S
O18 C31 1.258 . S
O19 Eu1 2.392 1_655 S
O19 C31 1.242 . S
O20 Eu1 2.418 . S
O20 C2 1.244 . S
O21 Eu0 2.488 . S
O21 C9 1.249 . S
O22 Eu0 2.471 . S
O22 C9 1.244 . S
O23 Eu0 2.349 1_455 S
O23 C2 1.265 . S
C24 C25 1.379 . S
C24 C28 1.373 . S
C24 C30 1.505 . S
C25 C24 1.379 . S
C25 C27 1.369 . S
C25 H36 0.930 . S
C26 C28 1.383 . S
C26 C29 1.382 . S
C26 H37 0.930 . S
C27 C25 1.369 . S
C27 C29 1.392 . S
C27 H38 0.930 . S
C28 C24 1.373 . S
C28 C26 1.383 . S
C28 H39 0.931 . S
C29 C26 1.382 . S
C29 C27 1.392 . S
C30 Eu1 2.828 . S
C30 O14 1.249 . S
C30 O15 1.244 . S
C30 C24 1.505 . S
C31 O18 1.258 . S
C31 O19 1.242 . S
H32 C4 0.930 . S
H33 C5 0.930 . S
H34 C6 0.930 . S
H35 C7 0.931 . S
H36 C25 0.930 . S
H37 C26 0.930 . S
H38 C27 0.930 . S
H39 C28 0.931 . S
Eu40 C49 2.828 . S
Eu40 O51 2.392 1_565 S
Eu40 O53 2.418 . S
Eu40 O58 2.373 . S
Eu40 O61 2.488 . S
Eu40 O62 2.471 . S
Eu40 O63 2.349 1_565 S
Eu41 O50 2.373 . S
Eu41 O54 2.488 . S
Eu41 O55 2.471 . S
Eu41 O56 2.349 . S
Eu41 O59 2.392 1_545 S
Eu41 O60 2.418 . S
Eu41 C70 2.828 . S
C42 O60 1.244 . S
C42 O63 1.265 . S
C43 C44 1.379 . S
C43 C47 1.373 . S
C43 C49 1.505 . S
C44 C43 1.379 . S
C44 C46 1.369 . S
C44 H72 0.930 . S
C45 C47 1.383 . S
C45 C48 1.382 . S
C45 H73 0.930 . S
C46 C44 1.369 . S
C46 C48 1.392 . S
C46 H74 0.930 . S
C47 C43 1.373 . S
C47 C45 1.383 . S
C47 H75 0.931 . S
C48 C45 1.382 . S
C48 C46 1.392 . S
C49 Eu40 2.828 . S
C49 C43 1.505 . S
C49 O61 1.249 . S
C49 O62 1.244 . S
O50 Eu41 2.373 . S
O50 C52 1.258 . S
O51 Eu40 2.392 1_545 S
O51 C52 1.242 . S
C52 O50 1.258 . S
C52 O51 1.242 . S
O53 Eu40 2.418 . S
O53 C57 1.244 1_565 S
O54 Eu41 2.488 . S
O54 C70 1.249 . S
O55 Eu41 2.471 . S
O55 C70 1.244 . S
O56 Eu41 2.349 . S
O56 C57 1.265 . S
C57 O53 1.244 1_545 S
C57 O56 1.265 . S
O58 Eu40 2.373 . S
O58 C71 1.258 . S
O59 Eu41 2.392 1_565 S
O59 C71 1.242 . S
O60 Eu41 2.418 . S
O60 C42 1.244 . S
O61 Eu40 2.488 . S
O61 C49 1.249 . S
O62 Eu40 2.471 . S
O62 C49 1.244 . S
O63 Eu40 2.349 1_545 S
O63 C42 1.265 . S
C64 C65 1.379 . S
C64 C68 1.373 . S
C64 C70 1.505 . S
C65 C64 1.379 . S
C65 C67 1.369 . S
C65 H76 0.930 . S
C66 C68 1.383 . S
C66 C69 1.382 . S
C66 H77 0.930 . S
C67 C65 1.369 . S
C67 C69 1.392 . S
C67 H78 0.930 . S
C68 C64 1.373 . S
C68 C66 1.383 . S
C68 H79 0.931 . S
C69 C66 1.382 . S
C69 C67 1.392 . S
C70 Eu41 2.828 . S
C70 O54 1.249 . S
C70 O55 1.244 . S
C70 C64 1.505 . S
C71 O58 1.258 . S
C71 O59 1.242 . S
H72 C44 0.930 . S
H73 C45 0.930 . S
H74 C46 0.930 . S
H75 C47 0.931 . S
H76 C65 0.930 . S
H77 C66 0.930 . S
H78 C67 0.930 . S
H79 C68 0.931 . S
Eu80 C89 2.828 . S
Eu80 O91 2.392 . S
Eu80 O93 2.418 . S
Eu80 O98 2.373 . S
Eu80 O101 2.488 . S
Eu80 O102 2.471 . S
Eu80 O103 2.349 . S
Eu81 O90 2.373 . S
Eu81 O94 2.488 . S
Eu81 O95 2.471 . S
Eu81 O96 2.349 . S
Eu81 O99 2.392 . S
Eu81 O100 2.418 . S
Eu81 C110 2.828 . S
C82 O100 1.244 . S
C82 O103 1.265 . S
C83 C84 1.379 . S
C83 C87 1.373 . S
C83 C89 1.505 . S
C84 C83 1.379 . S
C84 C86 1.369 . S
C84 H112 0.930 . S
C85 C87 1.383 . S
C85 C88 1.382 . S
C85 H113 0.930 . S
C86 C84 1.369 . S
C86 C88 1.392 . S
C86 H114 0.930 . S
C87 C83 1.373 . S
C87 C85 1.383 . S
C87 H115 0.931 . S
C88 C85 1.382 . S
C88 C86 1.392 . S
C89 Eu80 2.828 . S
C89 C83 1.505 . S
C89 O101 1.249 . S
C89 O102 1.244 . S
O90 Eu81 2.373 . S
O90 C92 1.258 . S
O91 Eu80 2.392 . S
O91 C92 1.242 . S
C92 O90 1.258 . S
C92 O91 1.242 . S
O93 Eu80 2.418 . S
O93 C97 1.244 . S
O94 Eu81 2.488 . S
O94 C110 1.249 . S
O95 Eu81 2.471 . S
O95 C110 1.244 . S
O96 Eu81 2.349 . S
O96 C97 1.265 . S
C97 O93 1.244 . S
C97 O96 1.265 . S
O98 Eu80 2.373 . S
O98 C111 1.258 . S
O99 Eu81 2.392 . S
O99 C111 1.242 . S
O100 Eu81 2.418 . S
O100 C82 1.244 . S
O101 Eu80 2.488 . S
O101 C89 1.249 . S
O102 Eu80 2.471 . S
O102 C89 1.244 . S
O103 Eu80 2.349 . S
O103 C82 1.265 . S
C104 C105 1.379 . S
C104 C108 1.373 . S
C104 C110 1.505 . S
C105 C104 1.379 . S
C105 C107 1.369 . S
C105 H116 0.930 . S
C106 C108 1.383 . S
C106 C109 1.382 . S
C106 H117 0.930 . S
C107 C105 1.369 . S
C107 C109 1.392 . S
C107 H118 0.930 . S
C108 C104 1.373 . S
C108 C106 1.383 . S
C108 H119 0.931 . S
C109 C106 1.382 . S
C109 C107 1.392 . S
C110 Eu81 2.828 . S
C110 O94 1.249 . S
C110 O95 1.244 . S
C110 C104 1.505 . S
C111 O98 1.258 . S
C111 O99 1.242 . S
H112 C84 0.930 . S
H113 C85 0.930 . S
H114 C86 0.930 . S
H115 C87 0.931 . S
H116 C105 0.930 . S
H117 C106 0.930 . S
H118 C107 0.930 . S
H119 C108 0.931 . S
H120 C123 0.929 1_565 S
H121 C126 0.929 . S
H122 C128 0.930 . S
C123 H120 0.929 1_545 S
C123 C124 1.398 1_545 S
C123 C125 1.396 . S
C124 C123 1.398 1_565 S
C124 C128 1.407 1_565 S
C125 C123 1.396 . S
C125 C126 1.394 . S
C126 H121 0.929 . S
C126 C125 1.394 . S
C126 C127 1.382 . S
C127 C126 1.382 . S
C127 C128 1.392 . S
C127 N129 1.420 . S
C128 H122 0.930 . S
C128 C124 1.407 1_545 S
C128 C127 1.392 . S
N129 C127 1.420 . S
N129 C130 1.244 . S
C130 N129 1.244 . S
H131 C134 0.929 . S
H132 C137 0.929 . S
H133 C139 0.930 . S
C134 H131 0.929 . S
C134 C135 1.398 . S
C134 C136 1.396 . S
C135 C134 1.398 . S
C135 C139 1.407 . S
C136 C134 1.396 . S
C136 C137 1.394 . S
C137 H132 0.929 . S
C137 C136 1.394 . S
C137 C138 1.382 . S
C138 C137 1.382 . S
C138 C139 1.392 . S
C138 N140 1.420 . S
C139 H133 0.930 . S
C139 C135 1.407 . S
C139 C138 1.392 . S
N140 C138 1.420 . S
N140 C141 1.244 . S
C141 N140 1.244 . S
H142 C145 0.929 1_655 S
H143 C148 0.929 . S
H144 C150 0.930 . S
C145 H142 0.929 1_455 S
C145 C146 1.399 . S
C145 C147 1.396 . S
C146 C145 1.399 . S
C146 C150 1.427 . S
C147 C145 1.396 . S
C147 C148 1.394 . S
C148 H143 0.929 . S
C148 C147 1.394 . S
C148 C149 1.382 . S
C149 C148 1.382 . S
C149 C150 1.392 . S
C149 N151 1.420 . S
C150 H144 0.930 . S
C150 C146 1.427 . S
C150 C149 1.392 . S
N151 C149 1.420 . S
N151 C152 1.244 . S
C152 N151 1.244 . S
H153 C156 0.929 . S
H154 C159 0.930 . S
H155 C161 0.930 . S
C156 H153 0.929 . S
C156 C157 1.398 . S
C156 C158 1.396 . S
C157 C156 1.398 . S
C157 C161 1.407 . S
C158 C156 1.396 . S
C158 C159 1.394 1_455 S
C159 H154 0.930 . S
C159 C158 1.394 1_655 S
C159 C160 1.381 1_655 S
C160 C159 1.381 1_455 S
C160 C161 1.392 . S
C160 N162 1.420 1_455 S
C161 H155 0.930 . S
C161 C157 1.407 . S
C161 C160 1.392 . S
N162 C160 1.420 1_655 S
N162 C163 1.244 . S
C163 N162 1.244 . S
H164 C167 0.929 . S
H165 C170 0.929 1_565 S
H166 C172 0.930 . S
C167 H164 0.929 . S
C167 C168 1.398 . S
C167 C169 1.396 . S
C168 C167 1.398 . S
C168 C172 1.407 . S
C169 C167 1.396 . S
C169 C170 1.394 . S
C170 H165 0.929 1_545 S
C170 C169 1.394 . S
C170 C171 1.382 . S
C171 C170 1.382 . S
C171 C172 1.392 . S
C171 N173 1.420 1_545 S
C172 H166 0.930 . S
C172 C168 1.407 . S
C172 C171 1.392 . S
N173 C171 1.420 1_565 S
N173 C174 1.244 . S
C174 N173 1.244 . S
H175 C178 0.929 . S
H176 C181 0.929 . S
H177 C183 0.930 . S
C178 H175 0.929 . S
C178 C179 1.398 . S
C178 C180 1.396 . S
C179 C178 1.398 . S
C179 C183 1.407 . S
C180 C178 1.396 . S
C180 C181 1.394 . S
C181 H176 0.929 . S
C181 C180 1.394 . S
C181 C182 1.382 . S
C182 C181 1.382 . S
C182 C183 1.392 . S
C182 N184 1.420 . S
C183 H177 0.930 . S
C183 C179 1.407 . S
C183 C182 1.392 . S
N184 C182 1.420 . S
N184 C185 1.244 . S
C185 N184 1.244 . S
H186 C192 0.930 . S
H187 C196 0.930 . S
H188 C201 0.929 . S
H189 C199 0.929 . S
H190 C194 0.929 . S
H191 C200 0.929 . S
C192 H186 0.930 . S
C192 C193 1.367 . S
C192 C200 1.378 . S
C193 C192 1.367 . S
C193 C201 1.433 . S
C194 H190 0.929 . S
C194 C196 1.378 . S
C194 C198 1.350 . S
C195 C198 1.463 . S
C195 C200 1.350 . S
C195 N203 1.427 . S
C196 H187 0.930 . S
C196 C194 1.378 . S
C196 C197 1.367 . S
C197 C196 1.367 . S
C197 C199 1.433 . S
C198 C194 1.350 . S
C198 C195 1.463 . S
C198 N202 1.427 . S
C199 H189 0.929 . S
C199 C197 1.433 . S
C199 N202 1.384 . S
C200 H191 0.929 . S
C200 C192 1.378 . S
C200 C195 1.350 . S
C201 H188 0.929 . S
C201 C193 1.433 . S
C201 N203 1.384 . S
N202 C198 1.427 . S
N202 C199 1.384 . S
N203 C195 1.427 . S
N203 C201 1.384 . S
H204 C210 0.930 . S
H205 C214 0.930 . S
H206 C219 0.929 . S
H207 C217 0.929 . S
H208 C212 0.929 . S
H209 C218 0.929 . S
C210 H204 0.930 . S
C210 C211 1.367 . S
C210 C218 1.378 . S
C211 C210 1.367 . S
C211 C219 1.433 . S
C212 H208 0.929 . S
C212 C214 1.378 . S
C212 C216 1.350 . S
C213 C216 1.463 . S
C213 C218 1.350 . S
C213 N221 1.427 . S
C214 H205 0.930 . S
C214 C212 1.378 . S
C214 C215 1.367 . S
C215 C214 1.367 . S
C215 C217 1.433 . S
C216 C212 1.350 . S
C216 C213 1.463 . S
C216 N220 1.427 . S
C217 H207 0.929 . S
C217 C215 1.433 . S
C217 N220 1.384 . S
C218 H209 0.929 . S
C218 C210 1.378 . S
C218 C213 1.350 . S
C219 H206 0.929 . S
C219 C211 1.433 . S
C219 N221 1.384 . S
N220 C216 1.427 . S
N220 C217 1.384 . S
N221 C213 1.427 . S
N221 C219 1.384 . S
H222 C228 0.930 . S
H223 C232 0.930 . S
H224 C237 0.929 . S
H225 C235 0.929 . S
H226 C230 0.929 . S
H227 C236 0.929 . S
C228 H222 0.930 . S
C228 C229 1.367 . S
C228 C236 1.378 . S
C229 C228 1.367 . S
C229 C237 1.433 . S
C230 H226 0.929 . S
C230 C232 1.378 . S
C230 C234 1.350 . S
C231 C234 1.463 . S
C231 C236 1.350 . S
C231 N239 1.427 . S
C232 H223 0.930 . S
C232 C230 1.378 . S
C232 C233 1.367 . S
C233 C232 1.367 . S
C233 C235 1.433 . S
C234 C230 1.350 . S
C234 C231 1.463 . S
C234 N238 1.427 . S
C235 H225 0.929 . S
C235 C233 1.433 . S
C235 N238 1.384 . S
C236 H227 0.929 . S
C236 C228 1.378 . S
C236 C231 1.350 . S
C237 H224 0.929 . S
C237 C229 1.433 . S
C237 N239 1.384 . S
N238 C234 1.427 . S
N238 C235 1.384 . S
N239 C231 1.427 . S
N239 C237 1.384 . S
H240 C246 0.930 . S
H241 C250 0.930 . S
H242 C255 0.929 . S
H243 C253 0.929 . S
H244 C248 0.929 . S
H245 C254 0.929 . S
C246 H240 0.930 . S
C246 C247 1.367 . S
C246 C254 1.378 . S
C247 C246 1.367 . S
C247 C255 1.433 . S
C248 H244 0.929 . S
C248 C250 1.378 . S
C248 C252 1.350 . S
C249 C252 1.463 . S
C249 C254 1.350 . S
C249 N257 1.427 . S
C250 H241 0.930 . S
C250 C248 1.378 . S
C250 C251 1.367 . S
C251 C250 1.367 . S
C251 C253 1.433 . S
C252 C248 1.350 . S
C252 C249 1.463 . S
C252 N256 1.427 . S
C253 H243 0.929 . S
C253 C251 1.433 . S
C253 N256 1.384 . S
C254 H245 0.929 . S
C254 C246 1.378 . S
C254 C249 1.350 . S
C255 H242 0.929 . S
C255 C247 1.433 . S
C255 N257 1.384 . S
N256 C252 1.427 . S
N256 C253 1.384 . S
N257 C249 1.427 . S
N257 C255 1.384 . S
H258 C264 0.930 . S
H259 C268 0.930 . S
H260 C273 0.929 . S
H261 C271 0.929 . S
H262 C266 0.929 . S
H263 C272 0.929 . S
C264 H258 0.930 . S
C264 C265 1.367 . S
C264 C272 1.378 . S
C265 C264 1.367 . S
C265 C273 1.433 . S
C266 H262 0.929 . S
C266 C268 1.378 . S
C266 C270 1.350 . S
C267 C270 1.463 . S
C267 C272 1.350 . S
C267 N275 1.427 . S
C268 H259 0.930 . S
C268 C266 1.378 . S
C268 C269 1.367 . S
C269 C268 1.367 . S
C269 C271 1.433 . S
C270 C266 1.350 . S
C270 C267 1.463 . S
C270 N274 1.427 . S
C271 H261 0.929 . S
C271 C269 1.433 . S
C271 N274 1.384 . S
C272 H263 0.929 . S
C272 C264 1.378 . S
C272 C267 1.350 . S
C273 H260 0.929 . S
C273 C265 1.433 . S
C273 N275 1.384 . S
N274 C270 1.427 . S
N274 C271 1.384 . S
N275 C267 1.427 . S
N275 C273 1.384 . S
H276 C282 0.930 . S
H277 C286 0.930 . S
H278 C291 0.929 . S
H279 C289 0.929 . S
H280 C284 0.929 . S
H281 C290 0.929 . S
C282 H276 0.930 . S
C282 C283 1.367 . S
C282 C290 1.378 . S
C283 C282 1.367 . S
C283 C291 1.433 . S
C284 H280 0.929 . S
C284 C286 1.378 . S
C284 C288 1.350 . S
C285 C288 1.463 . S
C285 C290 1.350 . S
C285 N293 1.427 . S
C286 H277 0.930 . S
C286 C284 1.378 . S
C286 C287 1.367 . S
C287 C286 1.367 . S
C287 C289 1.433 . S
C288 C284 1.350 . S
C288 C285 1.463 . S
C288 N292 1.427 . S
C289 H279 0.929 . S
C289 C287 1.433 . S
C289 N292 1.384 . S
C290 H281 0.929 . S
C290 C282 1.378 . S
C290 C285 1.350 . S
C291 H278 0.929 . S
C291 C283 1.433 . S
C291 N293 1.384 . S
N292 C288 1.427 . S
N292 C289 1.384 . S
N293 C285 1.427 . S
N293 C291 1.384 . S
H294 C300 0.930 . S
H295 C304 0.930 . S
H296 C309 0.929 . S
H297 C307 0.929 . S
H298 C302 0.929 . S
H299 C308 0.929 . S
C300 H294 0.930 . S
C300 C301 1.367 . S
C300 C308 1.378 . S
C301 C300 1.367 . S
C301 C309 1.433 . S
C302 H298 0.929 . S
C302 C304 1.378 . S
C302 C306 1.350 . S
C303 C306 1.463 . S
C303 C308 1.350 . S
C303 N311 1.427 . S
C304 H295 0.930 . S
C304 C302 1.378 . S
C304 C305 1.367 . S
C305 C304 1.367 . S
C305 C307 1.433 . S
C306 C302 1.350 . S
C306 C303 1.463 . S
C306 N310 1.427 . S
C307 H297 0.929 . S
C307 C305 1.433 . S
C307 N310 1.384 . S
C308 H299 0.929 . S
C308 C300 1.378 . S
C308 C303 1.350 . S
C309 H296 0.929 . S
C309 C301 1.433 . S
C309 N311 1.384 . S
N310 C306 1.427 . S
N310 C307 1.384 . S
N311 C303 1.427 . S
N311 C309 1.384 . S
H312 C318 0.930 . S
H313 C322 0.930 . S
H314 C327 0.929 . S
H315 C325 0.929 1_455 S
H316 C320 0.929 . S
H317 C326 0.929 . S
C318 H312 0.930 . S
C318 C319 1.367 . S
C318 C326 1.378 . S
C319 C318 1.367 . S
C319 C327 1.433 . S
C320 H316 0.929 . S
C320 C322 1.378 . S
C320 C324 1.350 . S
C321 C324 1.463 . S
C321 C326 1.350 . S
C321 N329 1.427 . S
C322 H313 0.930 . S
C322 C320 1.378 . S
C322 C323 1.367 . S
C323 C322 1.367 . S
C323 C325 1.433 . S
C324 C320 1.350 . S
C324 C321 1.463 . S
C324 N328 1.427 . S
C325 H315 0.929 1_655 S
C325 C323 1.433 . S
C325 N328 1.384 . S
C326 H317 0.929 . S
C326 C318 1.378 . S
C326 C321 1.350 . S
C327 H314 0.929 . S
C327 C319 1.433 . S
C327 N329 1.384 . S
N328 C324 1.427 . S
N328 C325 1.384 . S
N329 C321 1.427 . S
N329 C327 1.384 . S
H330 C336 0.930 . S
H331 C340 0.930 . S
H332 C345 0.929 . S
H333 C343 0.929 . S
H334 C338 0.929 . S
H335 C344 0.929 . S
C336 H330 0.930 . S
C336 C337 1.367 . S
C336 C344 1.378 . S
C337 C336 1.367 . S
C337 C345 1.433 . S
C338 H334 0.929 . S
C338 C340 1.378 . S
C338 C342 1.350 . S
C339 C342 1.463 . S
C339 C344 1.350 . S
C339 N347 1.427 . S
C340 H331 0.930 . S
C340 C338 1.378 . S
C340 C341 1.367 . S
C341 C340 1.367 . S
C341 C343 1.433 . S
C342 C338 1.350 . S
C342 C339 1.463 . S
C342 N346 1.427 . S
C343 H333 0.929 . S
C343 C341 1.433 . S
C343 N346 1.384 . S
C344 H335 0.929 . S
C344 C336 1.378 . S
C344 C339 1.350 . S
C345 H332 0.929 . S
C345 C337 1.433 . S
C345 N347 1.384 . S
N346 C342 1.427 . S
N346 C343 1.384 . S
N347 C339 1.427 . S
N347 C345 1.384 . S
H348 C354 0.930 . S
H349 C358 0.930 . S
H350 C363 0.929 . S
H351 C361 0.929 . S
H352 C356 0.929 . S
H353 C362 0.929 . S
C354 H348 0.930 . S
C354 C355 1.367 . S
C354 C362 1.378 . S
C355 C354 1.367 . S
C355 C363 1.433 . S
C356 H352 0.929 . S
C356 C358 1.378 . S
C356 C360 1.350 . S
C357 C360 1.463 . S
C357 C362 1.350 . S
C357 N365 1.427 . S
C358 H349 0.930 . S
C358 C356 1.378 . S
C358 C359 1.367 . S
C359 C358 1.367 . S
C359 C361 1.433 . S
C360 C356 1.350 . S
C360 C357 1.463 . S
C360 N364 1.427 . S
C361 H351 0.929 . S
C361 C359 1.433 . S
C361 N364 1.384 . S
C362 H353 0.929 . S
C362 C354 1.378 . S
C362 C357 1.350 . S
C363 H350 0.929 . S
C363 C355 1.433 . S
C363 N365 1.384 . S
N364 C360 1.427 . S
N364 C361 1.384 . S
N365 C357 1.427 . S
N365 C363 1.384 . S
H366 C372 0.930 . S
H367 C376 0.930 . S
H368 C381 0.929 . S
H369 C379 0.929 . S
H370 C374 0.929 . S
H371 C380 0.929 . S
C372 H366 0.930 . S
C372 C373 1.367 . S
C372 C380 1.378 . S
C373 C372 1.367 . S
C373 C381 1.433 . S
C374 H370 0.929 . S
C374 C376 1.378 . S
C374 C378 1.350 . S
C375 C378 1.463 . S
C375 C380 1.350 . S
C375 N383 1.427 . S
C376 H367 0.930 . S
C376 C374 1.378 . S
C376 C377 1.367 . S
C377 C376 1.367 . S
C377 C379 1.433 . S
C378 C374 1.350 . S
C378 C375 1.463 . S
C378 N382 1.427 . S
C379 H369 0.929 . S
C379 C377 1.433 . S
C379 N382 1.384 . S
C380 H371 0.929 . S
C380 C372 1.378 . S
C380 C375 1.350 . S
C381 H368 0.929 . S
C381 C373 1.433 . S
C381 N383 1.384 . S
N382 C378 1.427 . S
N382 C379 1.384 . S
N383 C375 1.427 . S
N383 C381 1.384 . S
H384 C390 0.930 . S
H385 C394 0.930 . S
H386 C399 0.929 . S
H387 C397 0.929 . S
H388 C392 0.929 . S
H389 C398 0.929 . S
C390 H384 0.930 . S
C390 C391 1.367 . S
C390 C398 1.378 . S
C391 C390 1.367 . S
C391 C399 1.433 . S
C392 H388 0.929 . S
C392 C394 1.378 . S
C392 C396 1.350 . S
C393 C396 1.463 . S
C393 C398 1.350 . S
C393 N401 1.427 . S
C394 H385 0.930 . S
C394 C392 1.378 . S
C394 C395 1.367 . S
C395 C394 1.367 . S
C395 C397 1.433 . S
C396 C392 1.350 . S
C396 C393 1.463 . S
C396 N400 1.427 . S
C397 H387 0.929 . S
C397 C395 1.433 . S
C397 N400 1.384 . S
C398 H389 0.929 . S
C398 C390 1.378 . S
C398 C393 1.350 . S
C399 H386 0.929 . S
C399 C391 1.433 . S
C399 N401 1.384 . S
N400 C396 1.427 . S
N400 C397 1.384 . S
N401 C393 1.427 . S
N401 C399 1.384 . S
H402 C408 0.930 . S
H403 C412 0.930 . S
H404 C417 0.929 . S
H405 C415 0.929 1_655 S
H406 C410 0.929 1_554 S
H407 C416 0.929 . S
C408 H402 0.930 . S
C408 C409 1.367 1_655 S
C408 C416 1.378 . S
C409 C408 1.367 1_455 S
C409 C417 1.433 . S
C410 H406 0.929 1_556 S
C410 C412 1.378 . S
C410 C414 1.350 1_556 S
C411 C414 1.463 . S
C411 C416 1.350 1_455 S
C411 N419 1.427 . S
C412 H403 0.930 . S
C412 C410 1.378 . S
C412 C413 1.367 . S
C413 C412 1.367 . S
C413 C415 1.433 . S
C414 C410 1.350 1_554 S
C414 C411 1.463 . S
C414 N418 1.427 1_454 S
C415 H405 0.929 1_455 S
C415 C413 1.433 . S
C415 N418 1.384 1_455 S
C416 H407 0.929 . S
C416 C408 1.378 . S
C416 C411 1.350 1_655 S
C417 H404 0.929 . S
C417 C409 1.433 . S
C417 N419 1.384 . S
N418 C414 1.427 1_656 S
N418 C415 1.384 1_655 S
N419 C411 1.427 . S
N419 C417 1.384 . S
H420 C426 0.930 . S
H421 C430 0.930 1_565 S
H422 C435 0.929 . S
H423 C433 0.929 . S
H424 C428 0.929 1_565 S
H425 C434 0.929 . S
C426 H420 0.930 . S
C426 C427 1.367 . S
C426 C434 1.378 . S
C427 C426 1.367 . S
C427 C435 1.433 1_545 S
C428 H424 0.929 1_545 S
C428 C430 1.378 . S
C428 C432 1.350 . S
C429 C432 1.463 . S
C429 C434 1.350 . S
C429 N437 1.427 . S
C430 H421 0.930 1_545 S
C430 C428 1.378 . S
C430 C431 1.367 . S
C431 C430 1.367 . S
C431 C433 1.433 . S
C432 C428 1.350 . S
C432 C429 1.463 . S
C432 N436 1.427 . S
C433 H423 0.929 . S
C433 C431 1.433 . S
C433 N436 1.384 . S
C434 H425 0.929 . S
C434 C426 1.378 . S
C434 C429 1.350 . S
C435 H422 0.929 . S
C435 C427 1.433 1_565 S
C435 N437 1.384 1_565 S
N436 C432 1.427 . S
N436 C433 1.384 . S
N437 C429 1.427 . S
N437 C435 1.384 1_545 S
H438 C444 0.930 . S
H439 C448 0.930 . S
H440 C453 0.929 . S
H441 C451 0.929 . S
H442 C446 0.929 . S
H443 C452 0.929 . S
C444 H438 0.930 . S
C444 C445 1.367 . S
C444 C452 1.378 . S
C445 C444 1.367 . S
C445 C453 1.433 . S
C446 H442 0.929 . S
C446 C448 1.378 . S
C446 C450 1.350 . S
C447 C450 1.463 . S
C447 C452 1.350 . S
C447 N455 1.427 . S
C448 H439 0.930 . S
C448 C446 1.378 . S
C448 C449 1.367 . S
C449 C448 1.367 . S
C449 C451 1.433 . S
C450 C446 1.350 . S
C450 C447 1.463 . S
C450 N454 1.427 . S
C451 H441 0.929 . S
C451 C449 1.433 . S
C451 N454 1.384 . S
C452 H443 0.929 . S
C452 C444 1.378 . S
C452 C447 1.350 . S
C453 H440 0.929 . S
C453 C445 1.433 . S
C453 N455 1.384 . S
N454 C450 1.427 . S
N454 C451 1.384 . S
N455 C447 1.427 . S
N455 C453 1.384 . S
H456 C462 0.930 1_565 S
H457 C466 0.930 . S
H458 C471 0.929 . S
H459 C469 0.929 1_565 S
H460 C464 0.929 . S
H461 C470 0.929 1_565 S
C462 H456 0.930 1_545 S
C462 C463 1.367 . S
C462 C470 1.378 . S
C463 C462 1.367 . S
C463 C471 1.433 . S
C464 H460 0.929 . S
C464 C466 1.378 . S
C464 C468 1.350 . S
C465 C468 1.463 . S
C465 C470 1.350 . S
C465 N473 1.427 . S
C466 H457 0.930 . S
C466 C464 1.378 . S
C466 C467 1.367 . S
C467 C466 1.367 . S
C467 C469 1.433 . S
C468 C464 1.350 . S
C468 C465 1.463 . S
C468 N472 1.427 . S
C469 H459 0.929 1_545 S
C469 C467 1.433 . S
C469 N472 1.384 . S
C470 H461 0.929 1_545 S
C470 C462 1.378 . S
C470 C465 1.350 . S
C471 H458 0.929 . S
C471 C463 1.433 . S
C471 N473 1.384 . S
N472 C468 1.427 . S
N472 C469 1.384 . S
N473 C465 1.427 . S
N473 C471 1.384 . S
H474 C480 0.930 . S
H475 C484 0.930 . S
H476 C489 0.929 . S
H477 C487 0.929 . S
H478 C482 0.929 . S
H479 C488 0.929 . S
C480 H474 0.930 . S
C480 C481 1.367 . S
C480 C488 1.378 . S
C481 C480 1.367 . S
C481 C489 1.433 . S
C482 H478 0.929 . S
C482 C484 1.378 . S
C482 C486 1.350 . S
C483 C486 1.463 1_556 S
C483 C488 1.350 . S
C483 N491 1.427 . S
C484 H475 0.930 . S
C484 C482 1.378 . S
C484 C485 1.367 . S
C485 C484 1.367 . S
C485 C487 1.433 . S
C486 C482 1.350 . S
C486 C483 1.463 1_554 S
C486 N490 1.427 . S
C487 H477 0.929 . S
C487 C485 1.433 . S
C487 N490 1.384 . S
C488 H479 0.929 . S
C488 C480 1.378 . S
C488 C483 1.350 . S
C489 H476 0.929 . S
C489 C481 1.433 . S
C489 N491 1.384 . S
N490 C486 1.427 . S
N490 C487 1.384 . S
N491 C483 1.427 . S
N491 C489 1.384 . S
H492 C498 0.930 . S
H493 C502 0.930 . S
H494 C507 0.929 . S
H495 C505 0.929 . S
H496 C500 0.929 . S
H497 C506 0.929 . S
C498 H492 0.930 . S
C498 C499 1.367 . S
C498 C506 1.378 . S
C499 C498 1.367 . S
C499 C507 1.433 . S
C500 H496 0.929 . S
C500 C502 1.378 . S
C500 C504 1.350 . S
C501 C504 1.463 . S
C501 C506 1.350 . S
C501 N509 1.427 . S
C502 H493 0.930 . S
C502 C500 1.378 . S
C502 C503 1.367 . S
C503 C502 1.367 . S
C503 C505 1.433 . S
C504 C500 1.350 . S
C504 C501 1.463 . S
C504 N508 1.427 . S
C505 H495 0.929 . S
C505 C503 1.433 . S
C505 N508 1.384 . S
C506 H497 0.929 . S
C506 C498 1.378 . S
C506 C501 1.350 . S
C507 H494 0.929 . S
C507 C499 1.433 . S
C507 N509 1.384 . S
N508 C504 1.427 . S
N508 C505 1.384 . S
N509 C501 1.427 . S
N509 C507 1.384 . S
C193 C12 3.032 . S
C197 C185 2.971 . S
C211 C52 3.030 . S
C215 C163 2.970 . S
C229 C111 3.051 . S
C233 C174 2.987 . S
C247 C31 3.022 . S
C251 C179 2.970 . S
C269 C157 2.974 . S
C265 C71 3.027 . S
C287 C168 2.943 . S
C283 C92 2.989 . S
C301 C48 0.631 . S
C305 C141 0.618 . S
C319 C109 0.440 . S
C323 C146 0.248 1_655 S
C337 C29 0.329 . S
C341 C124 0.224 . S
C359 C135 0.276 . S
C355 C69 0.345 . S
C377 C152 0.335 . S
C373 C88 0.365 . S
C391 C8 0.422 . S
C395 C130 0.398 . S
C413 C147 1.224 . S
C409 C17 1.186 . S
C427 C57 1.174 . S
C431 C125 1.200 . S
C445 C97 1.220 . S
C449 C136 1.230 . S
C467 C169 1.729 . S
C463 C42 1.707 . S
C485 C180 1.750 . S
C481 C82 1.720 . S
C499 C2 1.738 . S
C503 C158 1.753 . S
