# Generated by pormake.
# Topology rtl, (3,6)-cn, num edge types: 1
# Building blocks:
#     Node 0, Type 0, BuildingBlock: VETTIZ_charged_linker_0, # of connection points: 3
#     Node 1, Type 0, BuildingBlock: VETTIZ_charged_linker_0, # of connection points: 3
#     Node 2, Type 0, BuildingBlock: VETTIZ_charged_linker_0, # of connection points: 3
#     Node 3, Type 0, BuildingBlock: VETTIZ_charged_linker_0, # of connection points: 3
#     Node 4, Type 1, BuildingBlock: LEVNOQ01_clean_sbu_1, # of connection points: 6
#     Node 5, Type 1, BuildingBlock: LEVNOQ01_clean_sbu_1, # of connection points: 6
#     Edge 6, Type (0, 1), BuildingBlock: FUNLAD_clean_linker_0, # of connection points: 2
#     Edge 7, Type (0, 1), BuildingBlock: FUNLAD_clean_linker_0, # of connection points: 2
#     Edge 8, Type (0, 1), BuildingBlock: FUNLAD_clean_linker_0, # of connection points: 2
#     Edge 9, Type (0, 1), BuildingBlock: FUNLAD_clean_linker_0, # of connection points: 2
#     Edge 10, Type (0, 1), BuildingBlock: FUNLAD_clean_linker_0, # of connection points: 2
#     Edge 11, Type (0, 1), BuildingBlock: FUNLAD_clean_linker_0, # of connection points: 2
#     Edge 12, Type (0, 1), BuildingBlock: FUNLAD_clean_linker_0, # of connection points: 2
#     Edge 13, Type (0, 1), BuildingBlock: FUNLAD_clean_linker_0, # of connection points: 2
#     Edge 14, Type (0, 1), BuildingBlock: FUNLAD_clean_linker_0, # of connection points: 2
#     Edge 15, Type (0, 1), BuildingBlock: FUNLAD_clean_linker_0, # of connection points: 2
#     Edge 16, Type (0, 1), BuildingBlock: FUNLAD_clean_linker_0, # of connection points: 2
#     Edge 17, Type (0, 1), BuildingBlock: FUNLAD_clean_linker_0, # of connection points: 2
# Relax obj value: 0.027
# Max RMSD: 0.061
# Mean RMSD: 0.048
data_MOF--net-rtl--node1-LEVNOQ01_clean_sbu_1--node2-VETTIZ_charged_linker_0--edge1-FUNLAD_clean_linker_0
_symmetry_space_group_name_H-M    P1
_symmetry_Int_Tables_number       1
_symmetry_cell_setting            triclinic
loop_
_symmetry_equiv_pos_as_xyz
'x, y, z'
_cell_length_a     42.08079
_cell_length_b     48.237833
_cell_length_c     33.716888
_cell_angle_alpha  89.857104
_cell_angle_beta   97.559366
_cell_angle_gamma 90.229453
loop_
_atom_site_label
_atom_site_type_symbol
_atom_site_fract_x
_atom_site_fract_y
_atom_site_fract_z
_atom_type_partial_charge
C0 C 0.21471 0.89009 0.95558 0.0
C1 C 0.19474 0.91326 0.94778 0.0
C2 C 0.18612 0.92865 0.98021 0.0
C3 C 0.21683 0.89757 0.02714 0.0
C4 C 0.22524 0.88256 0.99525 0.0
C5 C 0.24516 0.85761 0.00855 0.0
H6 H 0.31051 0.77371 0.15816 0.0
C7 C 0.23102 0.88369 0.06448 0.0
C8 C 0.24748 0.86016 0.05369 0.0
H9 H 0.30968 0.76327 0.03065 0.0
H10 H 0.28288 0.80704 0.01846 0.0
H11 H 0.32941 0.83956 0.15861 0.0
H12 H 0.24001 0.79546 0.1546 0.0
H13 H 0.23836 0.82357 0.18721 0.0
H14 H 0.26859 0.79738 0.199 0.0
H15 H 0.31745 0.82265 0.20176 0.0
H16 H 0.30595 0.8579 0.18894 0.0
C17 C 0.27831 0.8611 0.99384 0.0
C18 C 0.22628 0.83134 0.99261 0.0
C19 C 0.21311 0.92258 0.20016 0.0
C20 C 0.2223 0.91342 0.23974 0.0
C21 C 0.2413 0.88935 0.24602 0.0
C22 C 0.2507 0.87462 0.21382 0.0
C23 C 0.24083 0.88372 0.17458 0.0
C24 C 0.22256 0.90745 0.1682 0.0
C25 C 0.21393 0.91367 0.12429 0.0
C26 C 0.23018 0.88984 0.10555 0.0
C27 C 0.24578 0.87233 0.13523 0.0
C28 C 0.2289 0.94202 0.11542 0.0
C29 C 0.17693 0.91239 0.11421 0.0
C30 C 0.30486 0.78101 0.12766 0.0
C31 C 0.31185 0.76475 0.09532 0.0
C32 C 0.30394 0.77505 0.05607 0.0
C33 C 0.28847 0.80057 0.04902 0.0
C34 C 0.28061 0.8161 0.08152 0.0
C35 C 0.28925 0.80649 0.12006 0.0
C36 C 0.27885 0.82584 0.15081 0.0
C37 C 0.26198 0.84829 0.1243 0.0
C38 C 0.26304 0.8424 0.08377 0.0
C39 C 0.30932 0.83704 0.17674 0.0
C40 C 0.25539 0.80989 0.17452 0.0
H41 H 0.1898 0.93356 0.04316 0.0
H42 H 0.22137 0.87763 0.93131 0.0
H43 H 0.19997 0.83457 0.99093 0.0
H44 H 0.23114 0.81316 0.01241 0.0
H45 H 0.23144 0.82592 0.96211 0.0
H46 H 0.28631 0.88313 0.99603 0.0
H47 H 0.27737 0.85471 0.96208 0.0
H48 H 0.29749 0.84944 0.01216 0.0
H49 H 0.19874 0.94105 0.19407 0.0
H50 H 0.24826 0.88134 0.27592 0.0
H51 H 0.26484 0.85638 0.22078 0.0
H52 H 0.25344 0.94406 0.13207 0.0
H53 H 0.21428 0.95939 0.1247 0.0
H54 H 0.23189 0.94474 0.08362 0.0
H55 H 0.16652 0.89669 0.13307 0.0
H56 H 0.16896 0.90578 0.08315 0.0
H57 H 0.1659 0.9327 0.11953 0.0
H58 H 0.17097 0.94674 0.97489 0.0
C59 C 0.19717 0.92102 0.0198 0.0
C60 C 0.71431 0.6163 0.71284 0.0
C61 C 0.69549 0.59203 0.71281 0.0
C62 C 0.68303 0.58021 0.67571 0.0
C63 C 0.70701 0.61684 0.64013 0.0
C64 C 0.71964 0.62834 0.67632 0.0
C65 C 0.73796 0.65471 0.6709 0.0
H66 H 0.78362 0.75283 0.54505 0.0
C67 C 0.71579 0.6349 0.60775 0.0
C68 C 0.73397 0.65718 0.62555 0.0
H69 H 0.80388 0.75115 0.67403 0.0
H70 H 0.77689 0.70669 0.67545 0.0
H71 H 0.80032 0.68946 0.53227 0.0
H72 H 0.71177 0.73217 0.53915 0.0
H73 H 0.70411 0.70778 0.50052 0.0
H74 H 0.73322 0.73484 0.49667 0.0
H75 H 0.7811 0.71004 0.49172 0.0
H76 H 0.77156 0.67379 0.49685 0.0
C77 C 0.7734 0.65021 0.68861 0.0
C78 C 0.72129 0.6787 0.69043 0.0
C79 C 0.67635 0.61133 0.46239 0.0
C80 C 0.67967 0.62469 0.42597 0.0
C81 C 0.69772 0.64941 0.42672 0.0
C82 C 0.71198 0.66074 0.46299 0.0
C83 C 0.70814 0.64735 0.49913 0.0
C84 C 0.69071 0.62299 0.49844 0.0
C85 C 0.68903 0.61178 0.53983 0.0
C86 C 0.70844 0.63339 0.56543 0.0
C87 C 0.71946 0.65416 0.54139 0.0
C88 C 0.70547 0.58304 0.54312 0.0
C89 C 0.65337 0.61143 0.54699 0.0
C90 C 0.78202 0.74303 0.57368 0.0
C91 C 0.79543 0.75572 0.60952 0.0
C92 C 0.79364 0.74183 0.64602 0.0
C93 C 0.77783 0.7161 0.64676 0.0
C94 C 0.76378 0.70408 0.61059 0.0
C95 C 0.76649 0.71745 0.57488 0.0
C96 C 0.75077 0.70167 0.53922 0.0
C97 C 0.73766 0.67676 0.55927 0.0
C98 C 0.74514 0.67823 0.6011 0.0
C99 C 0.77706 0.69338 0.51331 0.0
C100 C 0.72365 0.71995 0.51736 0.0
H101 H 0.6783 0.58245 0.61251 0.0
H102 H 0.72455 0.62586 0.74065 0.0
H103 H 0.69476 0.67646 0.68446 0.0
H104 H 0.72651 0.69925 0.67839 0.0
H105 H 0.72816 0.67885 0.72339 0.0
H106 H 0.78111 0.6287 0.68293 0.0
H107 H 0.77692 0.65352 0.72149 0.0
H108 H 0.79012 0.66372 0.67477 0.0
H109 H 0.66237 0.59246 0.46294 0.0
H110 H 0.7011 0.6599 0.39914 0.0
H111 H 0.72536 0.6796 0.46142 0.0
H112 H 0.72673 0.58288 0.52667 0.0
H113 H 0.6888 0.56653 0.53014 0.0
H114 H 0.71492 0.57736 0.57417 0.0
H115 H 0.63998 0.62895 0.53117 0.0
H116 H 0.65024 0.61426 0.57874 0.0
H117 H 0.64131 0.5919 0.53585 0.0
H118 H 0.66796 0.56191 0.67446 0.0
C119 C 0.68878 0.59237 0.63956 0.0
C120 C 0.80377 0.12794 0.13171 0.0
C121 C 0.82478 0.10535 0.1396 0.0
C122 C 0.8307 0.0882 0.10752 0.0
C123 C 0.79616 0.11656 0.0609 0.0
C124 C 0.78974 0.13309 0.09229 0.0
C125 C 0.76715 0.15634 0.07846 0.0
H126 H 0.67932 0.22428 0.92549 0.0
C127 C 0.77807 0.1275 0.0237 0.0
C128 C 0.76071 0.15068 0.03377 0.0
H129 H 0.69243 0.24568 0.05106 0.0
H130 H 0.72528 0.20515 0.06612 0.0
H131 H 0.75408 0.20524 0.92203 0.0
H132 H 0.66704 0.16144 0.93644 0.0
H133 H 0.68991 0.13863 0.91128 0.0
H134 H 0.6764 0.17101 0.88787 0.0
H135 H 0.71956 0.20355 0.88458 0.0
H136 H 0.74947 0.17698 0.88868 0.0
C137 C 0.78511 0.18416 0.08777 0.0
C138 C 0.7365 0.15284 0.09888 0.0
C139 C 0.79422 0.08601 0.88922 0.0
C140 C 0.77995 0.09127 0.84967 0.0
C141 C 0.75377 0.10977 0.84374 0.0
C142 C 0.74373 0.12421 0.87583 0.0
C143 C 0.75964 0.12002 0.91459 0.0
C144 C 0.78341 0.10027 0.92106 0.0
C145 C 0.7955 0.09684 0.96486 0.0
C146 C 0.77633 0.11897 0.98317 0.0
C147 C 0.75588 0.13284 0.95343 0.0
C148 C 0.83187 0.10334 0.97122 0.0
C149 C 0.78672 0.06719 0.97784 0.0
C150 C 0.68909 0.22015 0.95627 0.0
C151 C 0.68342 0.23838 0.98704 0.0
C152 C 0.69687 0.23228 0.02666 0.0
C153 C 0.7158 0.20863 0.0354 0.0
C154 C 0.72159 0.19083 0.00421 0.0
C155 C 0.70819 0.1967 0.96546 0.0
C156 C 0.71713 0.17568 0.93602 0.0
C157 C 0.73843 0.1564 0.96343 0.0
C158 C 0.74095 0.16535 0.00335 0.0
C159 C 0.73594 0.19098 0.90597 0.0
C160 C 0.68614 0.16096 0.91655 0.0
H161 H 0.82235 0.08002 0.04538 0.0
H162 H 0.79882 0.14166 0.15551 0.0
H163 H 0.72968 0.13058 0.10022 0.0
H164 H 0.71538 0.16313 0.08237 0.0
H165 H 0.7403 0.16084 0.13002 0.0
H166 H 0.81103 0.18209 0.08486 0.0
H167 H 0.78327 0.19111 0.11876 0.0
H168 H 0.77654 0.20087 0.06664 0.0
H169 H 0.81411 0.07183 0.89543 0.0
H170 H 0.74115 0.11346 0.81413 0.0
H171 H 0.72424 0.13843 0.8691 0.0
H172 H 0.8371 0.12226 0.95425 0.0
H173 H 0.84578 0.08596 0.96062 0.0
H174 H 0.84126 0.10764 0.00271 0.0
H175 H 0.76599 0.0585 0.95776 0.0
H176 H 0.77894 0.06679 0.00796 0.0
H177 H 0.80712 0.0527 0.97731 0.0
H178 H 0.84618 0.07032 0.1127 0.0
C179 C 0.8166 0.0937 0.06837 0.0
C180 C 0.26593 0.41509 0.35328 0.0
C181 C 0.28562 0.43881 0.35335 0.0
C182 C 0.29736 0.45107 0.3904 0.0
C183 C 0.27144 0.41554 0.42591 0.0
C184 C 0.25938 0.40377 0.38971 0.0
C185 C 0.24062 0.37766 0.39497 0.0
H186 H 0.19161 0.28038 0.5191 0.0
C187 C 0.26169 0.39792 0.45821 0.0
C188 C 0.24362 0.37565 0.44028 0.0
H189 H 0.17581 0.28178 0.38976 0.0
H190 H 0.20205 0.32639 0.38958 0.0
H191 H 0.26335 0.30117 0.52822 0.0
H192 H 0.17494 0.34529 0.5308 0.0
H193 H 0.20316 0.35958 0.56827 0.0
H194 H 0.19198 0.32355 0.57131 0.0
H195 H 0.24062 0.29885 0.56958 0.0
H196 H 0.2701 0.32575 0.56674 0.0
C197 C 0.25757 0.35331 0.37651 0.0
C198 C 0.20548 0.38237 0.37607 0.0
C199 C 0.29838 0.42267 0.60357 0.0
C200 C 0.29421 0.40987 0.64009 0.0
C201 C 0.27609 0.38519 0.63944 0.0
C202 C 0.26242 0.37345 0.60311 0.0
C203 C 0.267 0.3864 0.56688 0.0
C204 C 0.28465 0.41065 0.56755 0.0
C205 C 0.28733 0.42139 0.52618 0.0
C206 C 0.26817 0.3997 0.50056 0.0
C207 C 0.25642 0.37923 0.52454 0.0
C208 C 0.32326 0.42133 0.52021 0.0
C209 C 0.27121 0.45024 0.52175 0.0
C210 C 0.19394 0.2902 0.4907 0.0
C211 C 0.18188 0.27733 0.45438 0.0
C212 C 0.18476 0.29123 0.41816 0.0
C213 C 0.20024 0.31706 0.41812 0.0
C214 C 0.2131 0.32918 0.45467 0.0
C215 C 0.20938 0.31593 0.49015 0.0
C216 C 0.22439 0.33186 0.52616 0.0
C217 C 0.23827 0.35662 0.50646 0.0
C218 C 0.23168 0.35494 0.46458 0.0
C219 C 0.25089 0.31357 0.54926 0.0
C220 C 0.19744 0.34046 0.55079 0.0
H221 H 0.30036 0.44982 0.45357 0.0
H222 H 0.25614 0.40522 0.32551 0.0
H223 H 0.19793 0.40404 0.38097 0.0
H224 H 0.18822 0.36926 0.38964 0.0
H225 H 0.20256 0.3787 0.34328 0.0
H226 H 0.28407 0.35596 0.38179 0.0
H227 H 0.25032 0.35212 0.34367 0.0
H228 H 0.25308 0.33306 0.39002 0.0
H229 H 0.3125 0.44145 0.60293 0.0
H230 H 0.27217 0.37508 0.66712 0.0
H231 H 0.24889 0.35467 0.60468 0.0
H232 H 0.33627 0.40405 0.53713 0.0
H233 H 0.33525 0.44099 0.53086 0.0
H234 H 0.32702 0.41779 0.48882 0.0
H235 H 0.24935 0.45068 0.53706 0.0
H236 H 0.26278 0.4558 0.49035 0.0
H237 H 0.28772 0.46669 0.53527 0.0
H238 H 0.313 0.46901 0.3917 0.0
C239 C 0.29028 0.43968 0.4265 0.0
O240 O 0.98579 0.06463 0.62006 0.0
Mg241 Mg 0.0326 0.06171 0.6055 0.0
O242 O 0.96724 0.02792 0.58453 0.0
Mg243 Mg 0.00742 0.01382 0.54619 0.0
O244 O 0.03127 0.05716 0.54538 0.0
O245 O 0.05129 0.09478 0.57844 0.0
O246 O 0.05019 0.00411 0.50766 0.0
O247 O 0.97464 0.02925 0.48952 0.0
Mg248 Mg 0.00532 0.97196 0.50148 0.0
O249 O 0.97954 0.97 0.54885 0.0
O250 O 0.05336 0.95915 0.5096 0.0
O251 O 0.98953 -0.00318 0.45047 0.0
O252 O 0.9769 0.93855 0.49932 0.0
C253 C 0.06054 0.00724 0.63182 0.0
C254 C 0.9634 0.04761 0.60881 0.0
C255 C 0.04464 0.08146 0.54524 0.0
C256 C 0.06555 0.98207 0.50178 0.0
C257 C 0.97519 0.01942 0.45462 0.0
C258 C 0.96847 0.9467 0.53275 0.0
O259 O 0.0638 0.03312 0.63715 0.0
O260 O 0.04078 -0.00246 0.60309 0.0
O261 O 0.52913 0.47848 0.13214 0.0
Mg262 Mg 0.50111 0.45833 0.08445 0.0
O263 O 0.52867 0.51685 0.09651 0.0
Mg264 Mg 0.49617 0.50658 0.03614 0.0
O265 O 0.51677 0.46105 0.02957 0.0
O266 O 0.5204 0.42294 0.06877 0.0
O267 O 0.46334 0.49621 0.97609 0.0
O268 O 0.54064 0.5187 0.00255 0.0
Mg269 Mg 0.48336 0.55822 0.98296 0.0
O270 O 0.47695 0.55157 0.04123 0.0
O271 O 0.45196 0.53489 0.94201 0.0
O272 O 0.53158 0.56011 0.97495 0.0
O273 O 0.46586 0.59176 0.00884 0.0
C274 C 0.4374 0.47508 0.08256 0.0
C275 C 0.53761 0.50347 0.12876 0.0
C276 C 0.52523 0.43523 0.03607 0.0
C277 C 0.4489 0.50891 0.94565 0.0
C278 C 0.54989 0.53967 0.98366 0.0
C279 C 0.46667 0.57699 0.04091 0.0
O280 O 0.45252 0.45258 0.08651 0.0
O281 O 0.45058 0.49644 0.06917 0.0
C282 C 0.13955 0.24233 0.42835 0.0
C283 C 0.16735 0.24916 0.45445 0.0
C284 C 0.12564 0.21594 0.42948 0.0
C285 C 0.13929 0.1958 0.45688 0.0
C286 C 0.16759 0.20249 0.48202 0.0
C287 C 0.18139 0.22878 0.48092 0.0
C288 C 0.12467 0.16798 0.46168 0.0
C289 C 0.09393 0.16124 0.44851 0.0
C290 C 0.07849 0.13607 0.46319 0.0
C291 C 0.04651 0.13782 0.4706 0.0
C292 C 0.03362 0.11755 0.49359 0.0
C293 C 0.0523 0.09494 0.50869 0.0
H294 H 0.12023 0.10925 0.46803 0.0
C295 C 0.08289 0.09141 0.49735 0.0
C296 C 0.0959 0.11177 0.47452 0.0
H297 H 0.09781 0.07425 0.50916 0.0
H298 H 0.12818 0.25757 0.40755 0.0
H299 H 0.10429 0.2116 0.40891 0.0
H300 H 0.17886 0.18744 0.50323 0.0
H301 H 0.2032 0.23312 0.50083 0.0
H302 H 0.13909 0.15342 0.48093 0.0
H303 H 0.07833 0.17629 0.43192 0.0
H304 H 0.03243 0.15612 0.46183 0.0
H305 H 0.01015 0.12087 0.50262 0.0
C306 C 0.35182 0.73214 0.13287 0.0
C307 C 0.32651 0.73685 0.10201 0.0
C308 C 0.36648 0.70608 0.13752 0.0
C309 C 0.35611 0.6842 0.11126 0.0
C310 C 0.3299 0.68873 0.08163 0.0
C311 C 0.31536 0.71468 0.07697 0.0
C312 C 0.37266 0.6569 0.11168 0.0
C313 C 0.4031 0.65248 0.12858 0.0
C314 C 0.42197 0.62849 0.11699 0.0
C315 C 0.45428 0.63294 0.1125 0.0
C316 C 0.47058 0.61393 0.09151 0.0
C317 C 0.45511 0.58985 0.07564 0.0
H318 H 0.38314 0.59834 0.10929 0.0
C319 C 0.42423 0.58361 0.08442 0.0
C320 C 0.4077 0.60283 0.10507 0.0
H321 H 0.41177 0.56525 0.07203 0.0
H322 H 0.36085 0.74878 0.15278 0.0
H323 H 0.38601 0.70342 0.16144 0.0
H324 H 0.32112 0.6723 0.06116 0.0
H325 H 0.29541 0.71741 0.05351 0.0
H326 H 0.36066 0.64093 0.0925 0.0
H327 H 0.41635 0.66894 0.14533 0.0
H328 H 0.46599 0.65234 0.12178 0.0
H329 H 0.4943 0.61925 0.08461 0.0
C330 C 0.84105 0.78895 0.62982 0.0
C331 C 0.81082 0.78343 0.60814 0.0
C332 C 0.8569 0.81407 0.62444 0.0
C333 C 0.84256 0.8342 0.59749 0.0
C334 C 0.81171 0.82905 0.57746 0.0
C335 C 0.79603 0.80406 0.58274 0.0
C336 C 0.85997 0.85913 0.58546 0.0
C337 C 0.88745 0.8694 0.60518 0.0
C338 C 0.90648 0.89084 0.58675 0.0
C339 C 0.92526 0.91025 0.61065 0.0
C340 C 0.94465 0.92939 0.59329 0.0
C341 C 0.9461 0.92886 0.55188 0.0
H342 H 0.89443 0.87568 0.52596 0.0
C343 C 0.92714 0.90955 0.52817 0.0
C344 C 0.90767 0.89082 0.54528 0.0
H345 H 0.92766 0.90853 0.49617 0.0
H346 H 0.85311 0.77335 0.64942 0.0
H347 H 0.88085 0.81695 0.63994 0.0
H348 H 0.80004 0.84409 0.55653 0.0
H349 H 0.77252 0.80061 0.56611 0.0
H350 H 0.84994 0.86909 0.55767 0.0
H351 H 0.89664 0.86175 0.63474 0.0
H352 H 0.92506 0.91048 0.64274 0.0
H353 H 0.95921 0.94391 0.61233 0.0
C354 C 0.67203 0.28885 0.99693 0.0
C355 C 0.66337 0.26351 0.97794 0.0
C356 C 0.65242 0.31216 0.98975 0.0
C357 C 0.62367 0.31067 0.96319 0.0
C358 C 0.6154 0.28546 0.94368 0.0
C359 C 0.63504 0.2622 0.9508 0.0
C360 C 0.59993 0.33365 0.95891 0.0
C361 C 0.60692 0.36017 0.9695 0.0
C362 C 0.58207 0.38099 0.9762 0.0
C363 C 0.59074 0.40917 0.98057 0.0
C364 C 0.57039 0.4282 0.99595 0.0
C365 C 0.54131 0.41913 0.00763 0.0
H366 H 0.54381 0.35135 0.98263 0.0
C367 C 0.53149 0.39162 0.00021 0.0
C368 C 0.55152 0.37275 0.98463 0.0
H369 H 0.50924 0.38415 0.00938 0.0
H370 H 0.69387 0.29063 0.01772 0.0
H371 H 0.65937 0.33086 0.00632 0.0
H372 H 0.59321 0.28354 0.92354 0.0
H373 H 0.62746 0.24292 0.936 0.0
H374 H 0.57532 0.32795 0.94822 0.0
H375 H 0.6318 0.36654 0.97638 0.0
H376 H 0.61414 0.41612 0.9745 0.0
H377 H 0.57865 0.44926 0.00201 0.0
C378 C 0.17972 0.93846 0.27161 0.0
C379 C 0.21104 0.92782 0.2744 0.0
C380 C 0.16803 0.94927 0.30534 0.0
C381 C 0.1874 0.94963 0.34271 0.0
C382 C 0.21894 0.93984 0.34523 0.0
C383 C 0.23075 0.92935 0.31146 0.0
C384 C 0.17435 0.95708 0.38016 0.0
C385 C 0.14983 0.97479 0.38137 0.0
C386 C 0.13313 0.97831 0.41729 0.0
C387 C 0.11616 0.00286 0.42189 0.0
C388 C 0.09615 0.00506 0.45178 0.0
C389 C 0.09218 0.98246 0.47712 0.0
H390 H 0.14281 0.93688 0.44135 0.0
C391 C 0.11045 0.95844 0.47387 0.0
C392 C 0.13072 0.95637 0.44437 0.0
H393 H 0.10781 0.94063 0.49283 0.0
H394 H 0.16364 0.93725 0.24382 0.0
H395 H 0.14331 0.95595 0.3024 0.0
H396 H 0.23434 0.93982 0.37364 0.0
H397 H 0.25519 0.9219 0.31465 0.0
H398 H 0.18516 0.94719 0.40762 0.0
H399 H 0.14104 0.98673 0.35485 0.0
H400 H 0.11744 0.02001 0.40134 0.0
H401 H 0.08223 0.02379 0.45329 0.0
C402 C 0.68049 0.59695 0.78234 0.0
C403 C 0.68728 0.57977 0.7509 0.0
C404 C 0.66975 0.58565 0.81647 0.0
C405 C 0.66553 0.55681 0.82006 0.0
C406 C 0.673 0.5396 0.78912 0.0
C407 C 0.68404 0.55088 0.75515 0.0
C408 C 0.65007 0.5445 0.85333 0.0
C409 C 0.65167 0.55627 0.88978 0.0
C410 C 0.6301 0.54862 0.91978 0.0
C411 C 0.62285 0.56925 0.94641 0.0
C412 C 0.59838 0.56524 0.97001 0.0
C413 C 0.58109 0.54025 0.96827 0.0
H414 H 0.62022 0.5059 0.90132 0.0
C415 C 0.5903 0.51849 0.94473 0.0
C416 C 0.61459 0.52266 0.92046 0.0
H417 H 0.57717 0.49907 0.94276 0.0
H418 H 0.68203 0.61929 0.7799 0.0
H419 H 0.66324 0.59975 0.83896 0.0
H420 H 0.66979 0.51736 0.79093 0.0
H421 H 0.68952 0.53693 0.7319 0.0
H422 H 0.63539 0.52617 0.84638 0.0
H423 H 0.66688 0.57437 0.89632 0.0
H424 H 0.6346 0.58931 0.94697 0.0
H425 H 0.59167 0.58235 0.98792 0.0
C426 C 0.87295 0.09076 0.1867 0.0
C427 C 0.84093 0.09965 0.18079 0.0
C428 C 0.88796 0.084 0.22485 0.0
C429 C 0.87151 0.08636 0.2585 0.0
C430 C 0.83959 0.09562 0.25266 0.0
C431 C 0.82448 0.10228 0.21429 0.0
C432 C 0.88607 0.07768 0.29944 0.0
C433 C 0.91775 0.07356 0.30968 0.0
C434 C 0.93181 0.06061 0.34791 0.0
C435 C 0.95845 0.04334 0.34735 0.0
C436 C 0.97228 0.03006 0.38207 0.0
C437 C 0.96031 0.03428 0.41855 0.0
H438 H 0.89964 0.07878 0.38591 0.0
C439 C 0.9342 0.05224 0.4196 0.0
C440 C 0.9198 0.06511 0.38441 0.0
H441 H 0.92459 0.0559 0.44739 0.0
H442 H 0.8865 0.08882 0.16168 0.0
H443 H 0.91216 0.07623 0.22716 0.0
H444 H 0.82614 0.09738 0.27781 0.0
H445 H 0.79966 0.10878 0.21079 0.0
H446 H 0.86988 0.07342 0.32131 0.0
H447 H 0.93429 0.07775 0.28833 0.0
H448 H 0.96828 0.03967 0.31969 0.0
H449 H 0.99258 0.01658 0.38037 0.0
C450 C 0.32378 0.40549 0.70971 0.0
C451 C 0.30871 0.42225 0.67863 0.0
C452 C 0.33804 0.41731 0.74562 0.0
C453 C 0.33754 0.44623 0.75116 0.0
C454 C 0.32189 0.46282 0.72035 0.0
C455 C 0.30778 0.45103 0.68449 0.0
C456 C 0.35281 0.46017 0.78824 0.0
C457 C 0.37604 0.4489 0.81477 0.0
C458 C 0.3932 0.46464 0.84915 0.0
C459 C 0.40865 0.45016 0.88243 0.0
C460 C 0.42629 0.46439 0.91429 0.0
C461 C 0.42907 0.49344 0.91329 0.0
H462 H 0.38569 0.50573 0.82276 0.0
C463 C 0.41355 0.50786 0.88001 0.0
C464 C 0.39604 0.49371 0.84831 0.0
H465 H 0.41535 0.53021 0.87794 0.0
H466 H 0.32497 0.38323 0.70607 0.0
H467 H 0.34911 0.40363 0.76882 0.0
H468 H 0.32086 0.48511 0.72382 0.0
H469 H 0.29592 0.46449 0.66142 0.0
H470 H 0.34517 0.48125 0.79282 0.0
H471 H 0.38346 0.42766 0.81111 0.0
H472 H 0.4072 0.42775 0.8837 0.0
H473 H 0.43808 0.45261 0.93937 0.0
C474 C 0.66503 0.58441 0.38005 0.0
C475 C 0.66433 0.61304 0.38731 0.0
C476 C 0.65068 0.57344 0.34367 0.0
C477 C 0.6349 0.59088 0.3138 0.0
C478 C 0.63467 0.61954 0.32088 0.0
C479 C 0.6491 0.63051 0.35723 0.0
C480 C 0.61897 0.58005 0.27479 0.0
C481 C 0.60768 0.5539 0.27012 0.0
C482 C 0.59114 0.54207 0.23206 0.0
C483 C 0.58593 0.51333 0.23053 0.0
C484 C 0.56923 0.50094 0.1967 0.0
C485 C 0.55712 0.51696 0.16326 0.0
H486 H 0.58249 0.58046 0.19814 0.0
C487 C 0.56276 0.54571 0.16421 0.0
C488 C 0.57953 0.5582 0.1983 0.0
H489 H 0.55359 0.55866 0.13901 0.0
H490 H 0.67719 0.57047 0.40225 0.0
H491 H 0.65261 0.55138 0.33899 0.0
H492 H 0.62293 0.6335 0.29839 0.0
H493 H 0.64793 0.65266 0.36198 0.0
H494 H 0.61583 0.59444 0.24987 0.0
H495 H 0.6103 0.5401 0.29579 0.0
H496 H 0.59456 0.5003 0.25587 0.0
H497 H 0.56552 0.47871 0.19706 0.0
C498 C 0.7925 0.09422 0.7788 0.0
C499 C 0.79349 0.07913 0.81473 0.0
C500 C 0.80747 0.08433 0.74714 0.0
C501 C 0.82496 0.05941 0.75083 0.0
C502 C 0.82468 0.04362 0.78588 0.0
C503 C 0.80905 0.05325 0.81735 0.0
C504 C 0.84519 0.05006 0.72013 0.0
C505 C 0.85471 0.06725 0.69229 0.0
C506 C 0.8801 0.06068 0.66701 0.0
C507 C 0.89701 0.08302 0.65313 0.0
C508 C 0.92315 0.07849 0.63271 0.0
C509 C 0.93275 0.05146 0.62487 0.0
H510 H 0.87561 0.01574 0.66682 0.0
C511 C 0.91474 0.02891 0.63632 0.0
C512 C 0.88864 0.03347 0.65754 0.0
H513 H 0.92171 0.00786 0.63056 0.0
H514 H 0.78112 0.11431 0.77531 0.0
H515 H 0.80556 0.09678 0.72028 0.0
H516 H 0.83742 0.02411 0.78947 0.0
H517 H 0.80965 0.04053 0.84391 0.0
H518 H 0.85522 0.02936 0.72342 0.0
H519 H 0.84654 0.08853 0.69077 0.0
H520 H 0.89083 0.10419 0.65953 0.0
H521 H 0.93643 0.09627 0.62389 0.0
C522 C 0.30243 0.43138 0.28529 0.0
C523 C 0.29562 0.44972 0.31541 0.0
C524 C 0.31443 0.44124 0.25118 0.0
C525 C 0.32001 0.46976 0.24626 0.0
C526 C 0.31278 0.48815 0.27596 0.0
C527 C 0.30043 0.47831 0.30994 0.0
C528 C 0.33656 0.48034 0.21284 0.0
C529 C 0.33436 0.46764 0.17702 0.0
C530 C 0.35678 0.47292 0.14713 0.0
C531 C 0.3624 0.45112 0.12152 0.0
C532 C 0.38722 0.45281 0.09801 0.0
C533 C 0.4066 0.47661 0.09889 0.0
H534 H 0.37017 0.51534 0.16391 0.0
C535 C 0.39914 0.49957 0.12144 0.0
C536 C 0.37447 0.49772 0.1456 0.0
H537 H 0.41376 0.51816 0.12264 0.0
H538 H 0.29984 0.4092 0.28875 0.0
H539 H 0.32079 0.42625 0.22975 0.0
H540 H 0.3171 0.51018 0.27312 0.0
H541 H 0.29507 0.49313 0.33217 0.0
H542 H 0.3525 0.49797 0.21923 0.0
H543 H 0.31781 0.45034 0.1711 0.0
H544 H 0.34894 0.43192 0.12162 0.0
H545 H 0.39237 0.43486 0.08069 0.0
C546 C 0.15016 0.92753 0.89492 0.0
C547 C 0.18267 0.92113 0.90596 0.0
C548 C 0.13881 0.93498 0.85551 0.0
C549 C 0.15984 0.93633 0.82635 0.0
C550 C 0.19233 0.93006 0.83748 0.0
C551 C 0.2036 0.92227 0.87677 0.0
C552 C 0.14919 0.94656 0.78518 0.0
C553 C 0.11893 0.94384 0.76672 0.0
C554 C 0.10714 0.95802 0.72841 0.0
C555 C 0.07988 0.94771 0.70427 0.0
C556 C 0.06576 0.96273 0.67093 0.0
C557 C 0.07833 0.98864 0.66174 0.0
H558 H 0.14105 0.99236 0.73604 0.0
C559 C 0.10633 -0.00164 0.68491 0.0
C560 C 0.12059 0.98328 0.7178 0.0
H561 H 0.11659 0.01827 0.67856 0.0
H562 H 0.13348 0.9267 0.91678 0.0
H563 H 0.11379 0.94046 0.84833 0.0
H564 H 0.20911 0.93134 0.81576 0.0
H565 H 0.22884 0.91769 0.88453 0.0
H566 H 0.16708 0.95675 0.7697 0.0
H567 H 0.10187 0.93126 0.78046 0.0
H568 H 0.0689 0.92841 0.71194 0.0
H569 H 0.04404 0.95484 0.65379 0.0
loop_
_geom_bond_atom_site_label_1
_geom_bond_atom_site_label_2
_geom_bond_distance
_geom_bond_site_symmetry_2
_ccdc_geom_bond_type
C0 C1 1.391 . S
C0 C4 1.391 . S
C0 H42 0.948 . S
C1 C0 1.391 . S
C1 C2 1.391 . S
C2 C1 1.391 . S
C2 H58 0.947 . S
C2 C59 1.392 1_556 S
C3 C4 1.391 1_554 S
C3 C7 1.397 . S
C3 C59 1.419 . S
C4 C0 1.391 . S
C4 C3 1.391 1_556 S
C4 C5 1.399 . S
C5 C4 1.399 . S
C5 C8 1.396 1_556 S
C5 C17 1.453 . S
C5 C18 1.684 . S
H6 C30 0.948 . S
C7 C3 1.397 . S
C7 C8 1.394 . S
C7 C26 1.723 . S
C8 C5 1.396 1_554 S
C8 C7 1.394 . S
C8 C38 1.723 . S
H9 C32 0.947 . S
H10 C33 0.948 . S
H11 C39 0.982 . S
H12 C40 0.979 . S
H13 C40 0.980 . S
H14 C40 0.983 . S
H15 C39 0.979 . S
H16 C39 0.977 . S
C17 C5 1.453 . S
C17 H46 0.982 . S
C17 H47 0.979 . S
C17 H48 0.977 . S
C18 C5 1.684 . S
C18 H43 0.979 . S
C18 H44 0.980 . S
C18 H45 0.983 . S
C19 C20 1.391 . S
C19 C24 1.391 . S
C19 H49 0.948 . S
C20 C19 1.391 . S
C20 C21 1.391 . S
C21 C20 1.391 . S
C21 C22 1.392 . S
C21 H50 0.947 . S
C22 C21 1.392 . S
C22 C23 1.419 . S
C22 H51 0.948 . S
C23 C22 1.419 . S
C23 C24 1.391 . S
C23 C27 1.397 . S
C24 C19 1.391 . S
C24 C23 1.391 . S
C24 C25 1.399 . S
C25 C24 1.399 . S
C25 C26 1.396 . S
C25 C28 1.453 . S
C25 C29 1.684 . S
C26 C7 1.723 . S
C26 C25 1.396 . S
C26 C27 1.394 . S
C27 C23 1.397 . S
C27 C26 1.394 . S
C27 C37 1.723 . S
C28 C25 1.453 . S
C28 H52 0.982 . S
C28 H53 0.979 . S
C28 H54 0.977 . S
C29 C25 1.684 . S
C29 H55 0.979 . S
C29 H56 0.980 . S
C29 H57 0.983 . S
C30 H6 0.948 . S
C30 C31 1.391 . S
C30 C35 1.391 . S
C31 C30 1.391 . S
C31 C32 1.391 . S
C32 H9 0.947 . S
C32 C31 1.391 . S
C32 C33 1.392 . S
C33 H10 0.948 . S
C33 C32 1.392 . S
C33 C34 1.419 . S
C34 C33 1.419 . S
C34 C35 1.391 . S
C34 C38 1.397 . S
C35 C30 1.391 . S
C35 C34 1.391 . S
C35 C36 1.399 . S
C36 C35 1.399 . S
C36 C37 1.396 . S
C36 C39 1.453 . S
C36 C40 1.684 . S
C37 C27 1.723 . S
C37 C36 1.396 . S
C37 C38 1.394 . S
C38 C8 1.723 . S
C38 C34 1.397 . S
C38 C37 1.394 . S
C39 H11 0.982 . S
C39 H15 0.979 . S
C39 H16 0.977 . S
C39 C36 1.453 . S
C40 H12 0.979 . S
C40 H13 0.980 . S
C40 H14 0.983 . S
C40 C36 1.684 . S
H41 C59 0.948 . S
H42 C0 0.948 . S
H43 C18 0.979 . S
H44 C18 0.980 . S
H45 C18 0.983 . S
H46 C17 0.982 . S
H47 C17 0.979 . S
H48 C17 0.977 . S
H49 C19 0.948 . S
H50 C21 0.947 . S
H51 C22 0.948 . S
H52 C28 0.982 . S
H53 C28 0.979 . S
H54 C28 0.977 . S
H55 C29 0.979 . S
H56 C29 0.980 . S
H57 C29 0.983 . S
H58 C2 0.947 . S
C59 C2 1.392 1_554 S
C59 C3 1.419 . S
C59 H41 0.948 . S
C60 C61 1.391 . S
C60 C64 1.391 . S
C60 H102 0.948 . S
C61 C60 1.391 . S
C61 C62 1.391 . S
C62 C61 1.391 . S
C62 H118 0.947 . S
C62 C119 1.392 . S
C63 C64 1.391 . S
C63 C67 1.397 . S
C63 C119 1.419 . S
C64 C60 1.391 . S
C64 C63 1.391 . S
C64 C65 1.399 . S
C65 C64 1.399 . S
C65 C68 1.396 . S
C65 C77 1.453 . S
C65 C78 1.684 . S
H66 C90 0.948 . S
C67 C63 1.397 . S
C67 C68 1.394 . S
C67 C86 1.723 . S
C68 C65 1.396 . S
C68 C67 1.394 . S
C68 C98 1.723 . S
H69 C92 0.947 . S
H70 C93 0.948 . S
H71 C99 0.982 . S
H72 C100 0.979 . S
H73 C100 0.980 . S
H74 C100 0.983 . S
H75 C99 0.979 . S
H76 C99 0.977 . S
C77 C65 1.453 . S
C77 H106 0.982 . S
C77 H107 0.979 . S
C77 H108 0.977 . S
C78 C65 1.684 . S
C78 H103 0.979 . S
C78 H104 0.980 . S
C78 H105 0.983 . S
C79 C80 1.391 . S
C79 C84 1.391 . S
C79 H109 0.948 . S
C80 C79 1.391 . S
C80 C81 1.391 . S
C81 C80 1.391 . S
C81 C82 1.392 . S
C81 H110 0.947 . S
C82 C81 1.392 . S
C82 C83 1.419 . S
C82 H111 0.948 . S
C83 C82 1.419 . S
C83 C84 1.391 . S
C83 C87 1.397 . S
C84 C79 1.391 . S
C84 C83 1.391 . S
C84 C85 1.399 . S
C85 C84 1.399 . S
C85 C86 1.396 . S
C85 C88 1.453 . S
C85 C89 1.684 . S
C86 C67 1.723 . S
C86 C85 1.396 . S
C86 C87 1.394 . S
C87 C83 1.397 . S
C87 C86 1.394 . S
C87 C97 1.723 . S
C88 C85 1.453 . S
C88 H112 0.982 . S
C88 H113 0.979 . S
C88 H114 0.977 . S
C89 C85 1.684 . S
C89 H115 0.979 . S
C89 H116 0.980 . S
C89 H117 0.983 . S
C90 H66 0.948 . S
C90 C91 1.391 . S
C90 C95 1.391 . S
C91 C90 1.391 . S
C91 C92 1.391 . S
C92 H69 0.947 . S
C92 C91 1.391 . S
C92 C93 1.392 . S
C93 H70 0.948 . S
C93 C92 1.392 . S
C93 C94 1.419 . S
C94 C93 1.419 . S
C94 C95 1.391 . S
C94 C98 1.397 . S
C95 C90 1.391 . S
C95 C94 1.391 . S
C95 C96 1.399 . S
C96 C95 1.399 . S
C96 C97 1.396 . S
C96 C99 1.453 . S
C96 C100 1.684 . S
C97 C87 1.723 . S
C97 C96 1.396 . S
C97 C98 1.394 . S
C98 C68 1.723 . S
C98 C94 1.397 . S
C98 C97 1.394 . S
C99 H71 0.982 . S
C99 H75 0.979 . S
C99 H76 0.977 . S
C99 C96 1.453 . S
C100 H72 0.979 . S
C100 H73 0.980 . S
C100 H74 0.983 . S
C100 C96 1.684 . S
H101 C119 0.948 . S
H102 C60 0.948 . S
H103 C78 0.979 . S
H104 C78 0.980 . S
H105 C78 0.983 . S
H106 C77 0.982 . S
H107 C77 0.979 . S
H108 C77 0.977 . S
H109 C79 0.948 . S
H110 C81 0.947 . S
H111 C82 0.948 . S
H112 C88 0.982 . S
H113 C88 0.979 . S
H114 C88 0.977 . S
H115 C89 0.979 . S
H116 C89 0.980 . S
H117 C89 0.983 . S
H118 C62 0.947 . S
C119 C62 1.392 . S
C119 C63 1.419 . S
C119 H101 0.948 . S
C120 C121 1.391 . S
C120 C124 1.391 . S
C120 H162 0.948 . S
C121 C120 1.391 . S
C121 C122 1.391 . S
C122 C121 1.391 . S
C122 H178 0.947 . S
C122 C179 1.392 . S
C123 C124 1.391 . S
C123 C127 1.397 . S
C123 C179 1.419 . S
C124 C120 1.391 . S
C124 C123 1.391 . S
C124 C125 1.399 . S
C125 C124 1.399 . S
C125 C128 1.396 . S
C125 C137 1.453 . S
C125 C138 1.684 . S
H126 C150 0.948 . S
C127 C123 1.397 . S
C127 C128 1.394 . S
C127 C146 1.723 1_554 S
C128 C125 1.396 . S
C128 C127 1.394 . S
C128 C158 1.723 . S
H129 C152 0.947 . S
H130 C153 0.948 . S
H131 C159 0.982 . S
H132 C160 0.979 . S
H133 C160 0.980 . S
H134 C160 0.983 . S
H135 C159 0.979 . S
H136 C159 0.977 . S
C137 C125 1.453 . S
C137 H166 0.982 . S
C137 H167 0.979 . S
C137 H168 0.977 . S
C138 C125 1.684 . S
C138 H163 0.979 . S
C138 H164 0.980 . S
C138 H165 0.983 . S
C139 C140 1.391 . S
C139 C144 1.391 . S
C139 H169 0.948 . S
C140 C139 1.391 . S
C140 C141 1.391 . S
C141 C140 1.391 . S
C141 C142 1.392 . S
C141 H170 0.947 . S
C142 C141 1.392 . S
C142 C143 1.419 . S
C142 H171 0.948 . S
C143 C142 1.419 . S
C143 C144 1.391 . S
C143 C147 1.397 . S
C144 C139 1.391 . S
C144 C143 1.391 . S
C144 C145 1.399 . S
C145 C144 1.399 . S
C145 C146 1.396 . S
C145 C148 1.453 . S
C145 C149 1.684 . S
C146 C127 1.723 1_556 S
C146 C145 1.396 . S
C146 C147 1.394 . S
C147 C143 1.397 . S
C147 C146 1.394 . S
C147 C157 1.723 . S
C148 C145 1.453 . S
C148 H172 0.982 . S
C148 H173 0.979 . S
C148 H174 0.977 1_556 S
C149 C145 1.684 . S
C149 H175 0.979 . S
C149 H176 0.980 1_556 S
C149 H177 0.983 . S
C150 H126 0.948 . S
C150 C151 1.398 . S
C150 C155 1.391 . S
C151 C150 1.398 . S
C151 C152 1.384 1_556 S
C152 H129 0.947 . S
C152 C151 1.384 1_554 S
C152 C153 1.392 . S
C153 H130 0.948 . S
C153 C152 1.392 . S
C153 C154 1.419 . S
C154 C153 1.419 . S
C154 C155 1.391 1_554 S
C154 C158 1.397 . S
C155 C150 1.391 . S
C155 C154 1.391 1_556 S
C155 C156 1.399 . S
C156 C155 1.399 . S
C156 C157 1.396 . S
C156 C159 1.453 . S
C156 C160 1.684 . S
C157 C147 1.723 . S
C157 C156 1.396 . S
C157 C158 1.394 1_556 S
C158 C128 1.723 . S
C158 C154 1.397 . S
C158 C157 1.394 1_554 S
C159 H131 0.982 . S
C159 H135 0.979 . S
C159 H136 0.977 . S
C159 C156 1.453 . S
C160 H132 0.979 . S
C160 H133 0.980 . S
C160 H134 0.983 . S
C160 C156 1.684 . S
H161 C179 0.948 . S
H162 C120 0.948 . S
H163 C138 0.979 . S
H164 C138 0.980 . S
H165 C138 0.983 . S
H166 C137 0.982 . S
H167 C137 0.979 . S
H168 C137 0.977 . S
H169 C139 0.948 . S
H170 C141 0.947 . S
H171 C142 0.948 . S
H172 C148 0.982 . S
H173 C148 0.979 . S
H174 C148 0.977 1_554 S
H175 C149 0.979 . S
H176 C149 0.980 1_554 S
H177 C149 0.983 . S
H178 C122 0.947 . S
C179 C122 1.392 . S
C179 C123 1.419 . S
C179 H161 0.948 . S
C180 C181 1.391 . S
C180 C184 1.391 . S
C180 H222 0.948 . S
C181 C180 1.391 . S
C181 C182 1.391 . S
C182 C181 1.391 . S
C182 H238 0.947 . S
C182 C239 1.392 . S
C183 C184 1.391 . S
C183 C187 1.397 . S
C183 C239 1.419 . S
C184 C180 1.391 . S
C184 C183 1.391 . S
C184 C185 1.399 . S
C185 C184 1.399 . S
C185 C188 1.396 . S
C185 C197 1.453 . S
C185 C198 1.684 . S
H186 C210 0.948 . S
C187 C183 1.397 . S
C187 C188 1.394 . S
C187 C206 1.723 . S
C188 C185 1.396 . S
C188 C187 1.394 . S
C188 C218 1.723 . S
H189 C212 0.947 . S
H190 C213 0.948 . S
H191 C219 0.982 . S
H192 C220 0.979 . S
H193 C220 0.980 . S
H194 C220 0.983 . S
H195 C219 0.979 . S
H196 C219 0.977 . S
C197 C185 1.453 . S
C197 H226 0.982 . S
C197 H227 0.979 . S
C197 H228 0.977 . S
C198 C185 1.684 . S
C198 H223 0.979 . S
C198 H224 0.980 . S
C198 H225 0.983 . S
C199 C200 1.391 . S
C199 C204 1.391 . S
C199 H229 0.948 . S
C200 C199 1.391 . S
C200 C201 1.391 . S
C201 C200 1.391 . S
C201 C202 1.392 . S
C201 H230 0.947 . S
C202 C201 1.392 . S
C202 C203 1.419 . S
C202 H231 0.948 . S
C203 C202 1.419 . S
C203 C204 1.391 . S
C203 C207 1.397 . S
C204 C199 1.391 . S
C204 C203 1.391 . S
C204 C205 1.399 . S
C205 C204 1.399 . S
C205 C206 1.396 . S
C205 C208 1.453 . S
C205 C209 1.684 . S
C206 C187 1.723 . S
C206 C205 1.396 . S
C206 C207 1.394 . S
C207 C203 1.397 . S
C207 C206 1.394 . S
C207 C217 1.723 . S
C208 C205 1.453 . S
C208 H232 0.982 . S
C208 H233 0.979 . S
C208 H234 0.977 . S
C209 C205 1.684 . S
C209 H235 0.979 . S
C209 H236 0.980 . S
C209 H237 0.983 . S
C210 H186 0.948 . S
C210 C211 1.391 . S
C210 C215 1.391 . S
C211 C210 1.391 . S
C211 C212 1.391 . S
C212 H189 0.947 . S
C212 C211 1.391 . S
C212 C213 1.392 . S
C213 H190 0.948 . S
C213 C212 1.392 . S
C213 C214 1.419 . S
C214 C213 1.419 . S
C214 C215 1.391 . S
C214 C218 1.397 . S
C215 C210 1.391 . S
C215 C214 1.391 . S
C215 C216 1.399 . S
C216 C215 1.399 . S
C216 C217 1.396 . S
C216 C219 1.453 . S
C216 C220 1.684 . S
C217 C207 1.723 . S
C217 C216 1.396 . S
C217 C218 1.394 . S
C218 C188 1.723 . S
C218 C214 1.397 . S
C218 C217 1.394 . S
C219 H191 0.982 . S
C219 H195 0.979 . S
C219 H196 0.977 . S
C219 C216 1.453 . S
C220 H192 0.979 . S
C220 H193 0.980 . S
C220 H194 0.983 . S
C220 C216 1.684 . S
H221 C239 0.948 . S
H222 C180 0.948 . S
H223 C198 0.979 . S
H224 C198 0.980 . S
H225 C198 0.983 . S
H226 C197 0.982 . S
H227 C197 0.979 . S
H228 C197 0.977 . S
H229 C199 0.948 . S
H230 C201 0.947 . S
H231 C202 0.948 . S
H232 C208 0.982 . S
H233 C208 0.979 . S
H234 C208 0.977 . S
H235 C209 0.979 . S
H236 C209 0.980 . S
H237 C209 0.983 . S
H238 C182 0.947 . S
C239 C182 1.392 . S
C239 C183 1.419 . S
C239 H221 0.948 . S
O240 Mg241 1.990 1_655 S
O240 C254 1.253 . S
Mg241 O240 1.990 1_455 S
Mg241 O244 2.180 . S
Mg241 O245 2.117 . S
Mg241 O259 2.030 . S
O242 Mg243 2.072 1_655 S
O242 C254 1.260 . S
Mg243 O242 2.072 1_455 S
Mg243 O244 2.099 . S
Mg243 O246 2.079 1_545 S
Mg243 O247 2.072 1_455 S
Mg243 O249 2.099 1_445 S
Mg243 O260 2.079 1_545 S
O244 Mg241 2.180 . S
O244 Mg243 2.099 . S
O244 C255 1.279 . S
O245 Mg241 2.117 . S
O245 C255 1.250 . S
O246 Mg243 2.079 1_565 S
O246 C256 1.264 . S
O247 Mg243 2.072 1_655 S
O247 C257 1.260 . S
Mg248 O249 2.180 . S
Mg248 O250 2.030 1_655 S
Mg248 O251 1.990 1_565 S
Mg248 O252 2.117 . S
O249 Mg243 2.099 1_665 S
O249 Mg248 2.180 . S
O249 C258 1.279 . S
O250 Mg248 2.030 1_455 S
O250 C256 1.248 . S
O251 Mg248 1.990 1_545 S
O251 C257 1.253 . S
O252 Mg248 2.117 . S
O252 C258 1.250 . S
C253 O259 1.248 1_565 S
C253 O260 1.264 . S
C254 O240 1.253 . S
C254 O242 1.260 . S
C255 O244 1.279 . S
C255 O245 1.250 . S
C256 O246 1.264 . S
C256 O250 1.248 . S
C257 O247 1.260 . S
C257 O251 1.253 . S
C258 O249 1.279 . S
C258 O252 1.250 . S
O259 Mg241 2.030 . S
O259 C253 1.248 1_545 S
O260 Mg243 2.079 1_565 S
O260 C253 1.264 . S
O261 Mg262 1.990 . S
O261 C275 1.253 . S
Mg262 O261 1.990 . S
Mg262 O265 2.180 . S
Mg262 O266 2.117 . S
Mg262 O280 2.030 . S
O263 Mg264 2.072 . S
O263 C275 1.260 . S
Mg264 O263 2.072 . S
Mg264 O265 2.099 . S
Mg264 O267 2.079 1_554 S
Mg264 O268 2.082 . S
Mg264 O270 2.099 . S
Mg264 O281 2.079 . S
O265 Mg262 2.180 . S
O265 Mg264 2.099 . S
O265 C276 1.279 . S
O266 Mg262 2.117 . S
O266 C276 1.250 . S
O267 Mg264 2.079 1_556 S
O267 C277 1.264 . S
O268 Mg264 2.082 . S
O268 C278 1.249 1_554 S
Mg269 O270 2.180 1_556 S
Mg269 O271 2.030 . S
Mg269 O272 1.990 . S
Mg269 O273 2.117 1_556 S
O270 Mg264 2.099 . S
O270 Mg269 2.180 1_554 S
O270 C279 1.279 . S
O271 Mg269 2.030 . S
O271 C277 1.248 . S
O272 Mg269 1.990 . S
O272 C278 1.253 . S
O273 Mg269 2.117 1_554 S
O273 C279 1.250 . S
C274 O280 1.248 . S
C274 O281 1.264 . S
C275 O261 1.253 . S
C275 O263 1.260 . S
C276 O265 1.279 . S
C276 O266 1.250 . S
C277 O267 1.264 . S
C277 O271 1.248 . S
C278 O268 1.249 1_556 S
C278 O272 1.253 . S
C279 O270 1.279 . S
C279 O273 1.250 . S
O280 Mg262 2.030 . S
O280 C274 1.248 . S
O281 Mg264 2.079 . S
O281 C274 1.264 . S
C282 C283 1.386 . S
C282 C284 1.383 . S
C282 H298 0.951 . S
C283 C282 1.386 . S
C283 C287 1.383 . S
C284 C282 1.383 . S
C284 C285 1.402 . S
C284 H299 0.951 . S
C285 C284 1.402 . S
C285 C286 1.375 . S
C285 C288 1.481 . S
C286 C285 1.375 . S
C286 C287 1.367 . S
C286 H300 0.951 . S
C287 C283 1.383 . S
C287 C286 1.367 . S
C287 H301 0.950 . S
C288 C285 1.481 . S
C288 C289 1.297 . S
C288 H302 0.950 . S
C289 C288 1.297 . S
C289 C290 1.479 . S
C289 H303 0.950 . S
C290 C289 1.479 . S
C290 C291 1.375 . S
C290 C296 1.404 . S
C291 C290 1.375 . S
C291 C292 1.369 . S
C291 H304 0.950 . S
C292 C291 1.369 . S
C292 C293 1.392 . S
C292 H305 0.951 . S
C293 C292 1.392 . S
C293 C295 1.384 . S
H294 C296 0.949 . S
C295 C293 1.384 . S
C295 C296 1.385 . S
C295 H297 0.950 . S
C296 C290 1.404 . S
C296 H294 0.949 . S
C296 C295 1.385 . S
H297 C295 0.950 . S
H298 C282 0.951 . S
H299 C284 0.951 . S
H300 C286 0.951 . S
H301 C287 0.950 . S
H302 C288 0.950 . S
H303 C289 0.950 . S
H304 C291 0.950 . S
H305 C292 0.951 . S
C306 C307 1.386 . S
C306 C308 1.383 . S
C306 H322 0.951 . S
C307 C306 1.386 . S
C307 C311 1.383 . S
C308 C306 1.383 . S
C308 C309 1.402 . S
C308 H323 0.951 . S
C309 C308 1.402 . S
C309 C310 1.375 . S
C309 C312 1.481 . S
C310 C309 1.375 . S
C310 C311 1.367 . S
C310 H324 0.951 . S
C311 C307 1.383 . S
C311 C310 1.367 . S
C311 H325 0.950 . S
C312 C309 1.481 . S
C312 C313 1.297 . S
C312 H326 0.950 . S
C313 C312 1.297 . S
C313 C314 1.479 . S
C313 H327 0.950 . S
C314 C313 1.479 . S
C314 C315 1.375 . S
C314 C320 1.404 . S
C315 C314 1.375 . S
C315 C316 1.369 . S
C315 H328 0.950 . S
C316 C315 1.369 . S
C316 C317 1.392 . S
C316 H329 0.951 . S
C317 C316 1.392 . S
C317 C319 1.384 . S
H318 C320 0.949 . S
C319 C317 1.384 . S
C319 C320 1.385 . S
C319 H321 0.950 . S
C320 C314 1.404 . S
C320 H318 0.949 . S
C320 C319 1.385 . S
H321 C319 0.950 . S
H322 C306 0.951 . S
H323 C308 0.951 . S
H324 C310 0.951 . S
H325 C311 0.950 . S
H326 C312 0.950 . S
H327 C313 0.950 . S
H328 C315 0.950 . S
H329 C316 0.951 . S
C330 C331 1.386 . S
C330 C332 1.383 . S
C330 H346 0.951 . S
C331 C330 1.386 . S
C331 C335 1.383 . S
C332 C330 1.383 . S
C332 C333 1.402 . S
C332 H347 0.951 . S
C333 C332 1.402 . S
C333 C334 1.375 . S
C333 C336 1.481 . S
C334 C333 1.375 . S
C334 C335 1.367 . S
C334 H348 0.951 . S
C335 C331 1.383 . S
C335 C334 1.367 . S
C335 H349 0.950 . S
C336 C333 1.481 . S
C336 C337 1.297 . S
C336 H350 0.950 . S
C337 C336 1.297 . S
C337 C338 1.479 . S
C337 H351 0.950 . S
C338 C337 1.479 . S
C338 C339 1.375 . S
C338 C344 1.404 . S
C339 C338 1.375 . S
C339 C340 1.369 . S
C339 H352 0.950 . S
C340 C339 1.369 . S
C340 C341 1.392 . S
C340 H353 0.951 . S
C341 C340 1.392 . S
C341 C343 1.384 . S
H342 C344 0.949 . S
C343 C341 1.384 . S
C343 C344 1.385 . S
C343 H345 0.950 . S
C344 C338 1.404 . S
C344 H342 0.949 . S
C344 C343 1.385 . S
H345 C343 0.950 . S
H346 C330 0.951 . S
H347 C332 0.951 . S
H348 C334 0.951 . S
H349 C335 0.950 . S
H350 C336 0.950 . S
H351 C337 0.950 . S
H352 C339 0.950 . S
H353 C340 0.951 . S
C354 C355 1.386 1_554 S
C354 C356 1.383 . S
C354 H370 0.951 . S
C355 C354 1.386 1_556 S
C355 C359 1.383 . S
C356 C354 1.383 . S
C356 C357 1.402 1_554 S
C356 H371 0.951 . S
C357 C356 1.402 1_556 S
C357 C358 1.375 . S
C357 C360 1.481 . S
C358 C357 1.375 . S
C358 C359 1.367 . S
C358 H372 0.951 . S
C359 C355 1.383 . S
C359 C358 1.367 . S
C359 H373 0.950 . S
C360 C357 1.481 . S
C360 C361 1.297 1_556 S
C360 H374 0.950 . S
C361 C360 1.297 1_554 S
C361 C362 1.479 . S
C361 H375 0.950 . S
C362 C361 1.479 . S
C362 C363 1.375 . S
C362 C368 1.404 1_554 S
C363 C362 1.375 . S
C363 C364 1.369 . S
C363 H376 0.950 . S
C364 C363 1.369 . S
C364 C365 1.392 . S
C364 H377 0.951 . S
C365 C364 1.392 . S
C365 C367 1.384 1_554 S
H366 C368 0.949 . S
C367 C365 1.384 1_556 S
C367 C368 1.385 . S
C367 H369 0.950 . S
C368 C362 1.404 1_556 S
C368 H366 0.949 . S
C368 C367 1.385 . S
H369 C367 0.950 . S
H370 C354 0.951 . S
H371 C356 0.951 . S
H372 C358 0.951 . S
H373 C359 0.950 . S
H374 C360 0.950 . S
H375 C361 0.950 . S
H376 C363 0.950 . S
H377 C364 0.951 . S
C378 C379 1.386 . S
C378 C380 1.383 . S
C378 H394 0.951 . S
C379 C378 1.386 . S
C379 C383 1.383 . S
C380 C378 1.383 . S
C380 C381 1.402 . S
C380 H395 0.951 . S
C381 C380 1.402 . S
C381 C382 1.375 . S
C381 C384 1.481 . S
C382 C381 1.375 . S
C382 C383 1.367 . S
C382 H396 0.951 . S
C383 C379 1.383 . S
C383 C382 1.367 . S
C383 H397 0.950 . S
C384 C381 1.481 . S
C384 C385 1.297 . S
C384 H398 0.950 . S
C385 C384 1.297 . S
C385 C386 1.479 . S
C385 H399 0.950 . S
C386 C385 1.479 . S
C386 C387 1.375 . S
C386 C392 1.404 . S
C387 C386 1.375 . S
C387 C388 1.369 . S
C387 H400 0.950 . S
C388 C387 1.369 . S
C388 C389 1.392 . S
C388 H401 0.951 . S
C389 C388 1.392 . S
C389 C391 1.384 . S
H390 C392 0.949 . S
C391 C389 1.384 . S
C391 C392 1.385 . S
C391 H393 0.950 . S
C392 C386 1.404 . S
C392 H390 0.949 . S
C392 C391 1.385 . S
H393 C391 0.950 . S
H394 C378 0.951 . S
H395 C380 0.951 . S
H396 C382 0.951 . S
H397 C383 0.950 . S
H398 C384 0.950 . S
H399 C385 0.950 . S
H400 C387 0.950 . S
H401 C388 0.951 . S
C402 C403 1.386 . S
C402 C404 1.383 . S
C402 H418 0.951 . S
C403 C402 1.386 . S
C403 C407 1.383 . S
C404 C402 1.383 . S
C404 C405 1.402 . S
C404 H419 0.951 . S
C405 C404 1.402 . S
C405 C406 1.375 . S
C405 C408 1.481 . S
C406 C405 1.375 . S
C406 C407 1.367 . S
C406 H420 0.951 . S
C407 C403 1.383 . S
C407 C406 1.367 . S
C407 H421 0.950 . S
C408 C405 1.481 . S
C408 C409 1.297 . S
C408 H422 0.950 . S
C409 C408 1.297 . S
C409 C410 1.479 . S
C409 H423 0.950 . S
C410 C409 1.479 . S
C410 C411 1.375 . S
C410 C416 1.404 . S
C411 C410 1.375 . S
C411 C412 1.369 . S
C411 H424 0.950 . S
C412 C411 1.369 . S
C412 C413 1.392 . S
C412 H425 0.951 . S
C413 C412 1.392 . S
C413 C415 1.384 . S
H414 C416 0.949 . S
C415 C413 1.384 . S
C415 C416 1.385 . S
C415 H417 0.950 . S
C416 C410 1.404 . S
C416 H414 0.949 . S
C416 C415 1.385 . S
H417 C415 0.950 . S
H418 C402 0.951 . S
H419 C404 0.951 . S
H420 C406 0.951 . S
H421 C407 0.950 . S
H422 C408 0.950 . S
H423 C409 0.950 . S
H424 C411 0.950 . S
H425 C412 0.951 . S
C426 C427 1.386 . S
C426 C428 1.383 . S
C426 H442 0.951 . S
C427 C426 1.386 . S
C427 C431 1.383 . S
C428 C426 1.383 . S
C428 C429 1.402 . S
C428 H443 0.951 . S
C429 C428 1.402 . S
C429 C430 1.375 . S
C429 C432 1.481 . S
C430 C429 1.375 . S
C430 C431 1.367 . S
C430 H444 0.951 . S
C431 C427 1.383 . S
C431 C430 1.367 . S
C431 H445 0.950 . S
C432 C429 1.481 . S
C432 C433 1.297 . S
C432 H446 0.950 . S
C433 C432 1.297 . S
C433 C434 1.479 . S
C433 H447 0.950 . S
C434 C433 1.479 . S
C434 C435 1.375 . S
C434 C440 1.404 . S
C435 C434 1.375 . S
C435 C436 1.369 . S
C435 H448 0.950 . S
C436 C435 1.369 . S
C436 C437 1.392 . S
C436 H449 0.951 . S
C437 C436 1.392 . S
C437 C439 1.384 . S
H438 C440 0.949 . S
C439 C437 1.384 . S
C439 C440 1.385 . S
C439 H441 0.950 . S
C440 C434 1.404 . S
C440 H438 0.949 . S
C440 C439 1.385 . S
H441 C439 0.950 . S
H442 C426 0.951 . S
H443 C428 0.951 . S
H444 C430 0.951 . S
H445 C431 0.950 . S
H446 C432 0.950 . S
H447 C433 0.950 . S
H448 C435 0.950 . S
H449 C436 0.951 . S
C450 C451 1.386 . S
C450 C452 1.383 . S
C450 H466 0.951 . S
C451 C450 1.386 . S
C451 C455 1.383 . S
C452 C450 1.383 . S
C452 C453 1.402 . S
C452 H467 0.951 . S
C453 C452 1.402 . S
C453 C454 1.375 . S
C453 C456 1.481 . S
C454 C453 1.375 . S
C454 C455 1.367 . S
C454 H468 0.951 . S
C455 C451 1.383 . S
C455 C454 1.367 . S
C455 H469 0.950 . S
C456 C453 1.481 . S
C456 C457 1.297 . S
C456 H470 0.950 . S
C457 C456 1.297 . S
C457 C458 1.479 . S
C457 H471 0.950 . S
C458 C457 1.479 . S
C458 C459 1.375 . S
C458 C464 1.404 . S
C459 C458 1.375 . S
C459 C460 1.369 . S
C459 H472 0.950 . S
C460 C459 1.369 . S
C460 C461 1.392 . S
C460 H473 0.951 . S
C461 C460 1.392 . S
C461 C463 1.384 . S
H462 C464 0.949 . S
C463 C461 1.384 . S
C463 C464 1.385 . S
C463 H465 0.950 . S
C464 C458 1.404 . S
C464 H462 0.949 . S
C464 C463 1.385 . S
H465 C463 0.950 . S
H466 C450 0.951 . S
H467 C452 0.951 . S
H468 C454 0.951 . S
H469 C455 0.950 . S
H470 C456 0.950 . S
H471 C457 0.950 . S
H472 C459 0.950 . S
H473 C460 0.951 . S
C474 C475 1.386 . S
C474 C476 1.383 . S
C474 H490 0.951 . S
C475 C474 1.386 . S
C475 C479 1.383 . S
C476 C474 1.383 . S
C476 C477 1.402 . S
C476 H491 0.951 . S
C477 C476 1.402 . S
C477 C478 1.375 . S
C477 C480 1.481 . S
C478 C477 1.375 . S
C478 C479 1.367 . S
C478 H492 0.951 . S
C479 C475 1.383 . S
C479 C478 1.367 . S
C479 H493 0.950 . S
C480 C477 1.481 . S
C480 C481 1.297 . S
C480 H494 0.950 . S
C481 C480 1.297 . S
C481 C482 1.479 . S
C481 H495 0.950 . S
C482 C481 1.479 . S
C482 C483 1.375 . S
C482 C488 1.404 . S
C483 C482 1.375 . S
C483 C484 1.369 . S
C483 H496 0.950 . S
C484 C483 1.369 . S
C484 C485 1.392 . S
C484 H497 0.951 . S
C485 C484 1.392 . S
C485 C487 1.384 . S
H486 C488 0.949 . S
C487 C485 1.384 . S
C487 C488 1.385 . S
C487 H489 0.950 . S
C488 C482 1.404 . S
C488 H486 0.949 . S
C488 C487 1.385 . S
H489 C487 0.950 . S
H490 C474 0.951 . S
H491 C476 0.951 . S
H492 C478 0.951 . S
H493 C479 0.950 . S
H494 C480 0.950 . S
H495 C481 0.950 . S
H496 C483 0.950 . S
H497 C484 0.951 . S
C498 C499 1.386 . S
C498 C500 1.383 . S
C498 H514 0.951 . S
C499 C498 1.386 . S
C499 C503 1.383 . S
C500 C498 1.383 . S
C500 C501 1.402 . S
C500 H515 0.951 . S
C501 C500 1.402 . S
C501 C502 1.375 . S
C501 C504 1.481 . S
C502 C501 1.375 . S
C502 C503 1.367 . S
C502 H516 0.951 . S
C503 C499 1.383 . S
C503 C502 1.367 . S
C503 H517 0.950 . S
C504 C501 1.481 . S
C504 C505 1.297 . S
C504 H518 0.950 . S
C505 C504 1.297 . S
C505 C506 1.479 . S
C505 H519 0.950 . S
C506 C505 1.479 . S
C506 C507 1.375 . S
C506 C512 1.404 . S
C507 C506 1.375 . S
C507 C508 1.369 . S
C507 H520 0.950 . S
C508 C507 1.369 . S
C508 C509 1.392 . S
C508 H521 0.951 . S
C509 C508 1.392 . S
C509 C511 1.384 . S
H510 C512 0.949 . S
C511 C509 1.384 . S
C511 C512 1.385 . S
C511 H513 0.947 . S
C512 C506 1.404 . S
C512 H510 0.949 . S
C512 C511 1.385 . S
H513 C511 0.947 . S
H514 C498 0.951 . S
H515 C500 0.951 . S
H516 C502 0.951 . S
H517 C503 0.950 . S
H518 C504 0.950 . S
H519 C505 0.950 . S
H520 C507 0.950 . S
H521 C508 0.951 . S
C522 C523 1.386 . S
C522 C524 1.383 . S
C522 H538 0.951 . S
C523 C522 1.386 . S
C523 C527 1.383 . S
C524 C522 1.383 . S
C524 C525 1.402 . S
C524 H539 0.951 . S
C525 C524 1.402 . S
C525 C526 1.375 . S
C525 C528 1.481 . S
C526 C525 1.375 . S
C526 C527 1.367 . S
C526 H540 0.951 . S
C527 C523 1.383 . S
C527 C526 1.367 . S
C527 H541 0.950 . S
C528 C525 1.481 . S
C528 C529 1.297 . S
C528 H542 0.950 . S
C529 C528 1.297 . S
C529 C530 1.479 . S
C529 H543 0.950 . S
C530 C529 1.479 . S
C530 C531 1.375 . S
C530 C536 1.404 . S
C531 C530 1.375 . S
C531 C532 1.369 . S
C531 H544 0.950 . S
C532 C531 1.369 . S
C532 C533 1.392 . S
C532 H545 0.951 . S
C533 C532 1.392 . S
C533 C535 1.384 . S
H534 C536 0.949 . S
C535 C533 1.384 . S
C535 C536 1.385 . S
C535 H537 0.950 . S
C536 C530 1.404 . S
C536 H534 0.949 . S
C536 C535 1.385 . S
H537 C535 0.950 . S
H538 C522 0.951 . S
H539 C524 0.951 . S
H540 C526 0.951 . S
H541 C527 0.950 . S
H542 C528 0.950 . S
H543 C529 0.950 . S
H544 C531 0.950 . S
H545 C532 0.951 . S
C546 C547 1.386 . S
C546 C548 1.383 . S
C546 H562 0.951 . S
C547 C546 1.386 . S
C547 C551 1.383 . S
C548 C546 1.383 . S
C548 C549 1.402 . S
C548 H563 0.951 . S
C549 C548 1.402 . S
C549 C550 1.375 . S
C549 C552 1.481 . S
C550 C549 1.375 . S
C550 C551 1.367 . S
C550 H564 0.951 . S
C551 C547 1.383 . S
C551 C550 1.367 . S
C551 H565 0.950 . S
C552 C549 1.481 . S
C552 C553 1.297 . S
C552 H566 0.950 . S
C553 C552 1.297 . S
C553 C554 1.479 . S
C553 H567 0.950 . S
C554 C553 1.479 . S
C554 C555 1.375 . S
C554 C560 1.405 1_565 S
C555 C554 1.375 . S
C555 C556 1.369 . S
C555 H568 0.950 . S
C556 C555 1.369 . S
C556 C557 1.392 . S
C556 H569 0.951 . S
C557 C556 1.392 . S
C557 C559 1.384 1_565 S
H558 C560 0.948 . S
C559 C557 1.384 1_545 S
C559 C560 1.385 . S
C559 H561 0.950 . S
C560 C554 1.405 1_545 S
C560 H558 0.948 . S
C560 C559 1.385 . S
H561 C559 0.950 . S
H562 C546 0.951 . S
H563 C548 0.951 . S
H564 C550 0.951 . S
H565 C551 0.950 . S
H566 C552 0.950 . S
H567 C553 0.950 . S
H568 C555 0.950 . S
H569 C556 0.951 . S
C293 C255 1.413 . S
C283 C211 1.510 . S
C307 C31 1.408 . S
C317 C279 1.388 . S
C331 C91 1.636 . S
C341 C258 1.392 . S
C355 C151 1.663 . S
C365 C276 1.478 . S
C389 C256 1.562 . S
C379 C20 1.559 . S
C413 C278 1.517 . S
C403 C61 1.504 . S
C427 C121 1.589 . S
C437 C257 1.557 . S
C451 C200 1.607 . S
C461 C277 1.541 . S
C485 C275 1.505 . S
C475 C80 1.518 . S
C509 C254 1.533 . S
C499 C140 1.625 . S
C533 C274 1.612 . S
C523 C181 1.599 . S
C547 C1 1.549 . S
C557 C253 1.481 . S
