# Generated by pormake.
# Topology eea, (3,6)-cn, num edge types: 1
# Building blocks:
#     Node 0, Type 0, BuildingBlock: MIDCAF_clean_linker_0, # of connection points: 3
#     Node 1, Type 0, BuildingBlock: MIDCAF_clean_linker_0, # of connection points: 3
#     Node 2, Type 0, BuildingBlock: MIDCAF_clean_linker_0, # of connection points: 3
#     Node 3, Type 0, BuildingBlock: MIDCAF_clean_linker_0, # of connection points: 3
#     Node 4, Type 0, BuildingBlock: MIDCAF_clean_linker_0, # of connection points: 3
#     Node 5, Type 0, BuildingBlock: MIDCAF_clean_linker_0, # of connection points: 3
#     Node 6, Type 0, BuildingBlock: MIDCAF_clean_linker_0, # of connection points: 3
#     Node 7, Type 0, BuildingBlock: MIDCAF_clean_linker_0, # of connection points: 3
#     Node 8, Type 0, BuildingBlock: MIDCAF_clean_linker_0, # of connection points: 3
#     Node 9, Type 0, BuildingBlock: MIDCAF_clean_linker_0, # of connection points: 3
#     Node 10, Type 0, BuildingBlock: MIDCAF_clean_linker_0, # of connection points: 3
#     Node 11, Type 0, BuildingBlock: MIDCAF_clean_linker_0, # of connection points: 3
#     Node 12, Type 0, BuildingBlock: MIDCAF_clean_linker_0, # of connection points: 3
#     Node 13, Type 0, BuildingBlock: MIDCAF_clean_linker_0, # of connection points: 3
#     Node 14, Type 0, BuildingBlock: MIDCAF_clean_linker_0, # of connection points: 3
#     Node 15, Type 0, BuildingBlock: MIDCAF_clean_linker_0, # of connection points: 3
#     Node 16, Type 0, BuildingBlock: MIDCAF_clean_linker_0, # of connection points: 3
#     Node 17, Type 0, BuildingBlock: MIDCAF_clean_linker_0, # of connection points: 3
#     Node 18, Type 1, BuildingBlock: NUHQIS_clean_sbu_0, # of connection points: 6
#     Node 19, Type 1, BuildingBlock: NUHQIS_clean_sbu_0, # of connection points: 6
#     Node 20, Type 1, BuildingBlock: NUHQIS_clean_sbu_0, # of connection points: 6
#     Node 21, Type 1, BuildingBlock: NUHQIS_clean_sbu_0, # of connection points: 6
#     Node 22, Type 1, BuildingBlock: NUHQIS_clean_sbu_0, # of connection points: 6
#     Node 23, Type 1, BuildingBlock: NUHQIS_clean_sbu_0, # of connection points: 6
#     Node 24, Type 1, BuildingBlock: NUHQIS_clean_sbu_0, # of connection points: 6
#     Node 25, Type 1, BuildingBlock: NUHQIS_clean_sbu_0, # of connection points: 6
#     Node 26, Type 1, BuildingBlock: NUHQIS_clean_sbu_0, # of connection points: 6
#     Edge 27, Type (0, 1), BuildingBlock: CIFDUS_clean_linker_0, # of connection points: 2
#     Edge 28, Type (0, 1), BuildingBlock: CIFDUS_clean_linker_0, # of connection points: 2
#     Edge 29, Type (0, 1), BuildingBlock: CIFDUS_clean_linker_0, # of connection points: 2
#     Edge 30, Type (0, 1), BuildingBlock: CIFDUS_clean_linker_0, # of connection points: 2
#     Edge 31, Type (0, 1), BuildingBlock: CIFDUS_clean_linker_0, # of connection points: 2
#     Edge 32, Type (0, 1), BuildingBlock: CIFDUS_clean_linker_0, # of connection points: 2
#     Edge 33, Type (0, 1), BuildingBlock: CIFDUS_clean_linker_0, # of connection points: 2
#     Edge 34, Type (0, 1), BuildingBlock: CIFDUS_clean_linker_0, # of connection points: 2
#     Edge 35, Type (0, 1), BuildingBlock: CIFDUS_clean_linker_0, # of connection points: 2
#     Edge 36, Type (0, 1), BuildingBlock: CIFDUS_clean_linker_0, # of connection points: 2
#     Edge 37, Type (0, 1), BuildingBlock: CIFDUS_clean_linker_0, # of connection points: 2
#     Edge 38, Type (0, 1), BuildingBlock: CIFDUS_clean_linker_0, # of connection points: 2
#     Edge 39, Type (0, 1), BuildingBlock: CIFDUS_clean_linker_0, # of connection points: 2
#     Edge 40, Type (0, 1), BuildingBlock: CIFDUS_clean_linker_0, # of connection points: 2
#     Edge 41, Type (0, 1), BuildingBlock: CIFDUS_clean_linker_0, # of connection points: 2
#     Edge 42, Type (0, 1), BuildingBlock: CIFDUS_clean_linker_0, # of connection points: 2
#     Edge 43, Type (0, 1), BuildingBlock: CIFDUS_clean_linker_0, # of connection points: 2
#     Edge 44, Type (0, 1), BuildingBlock: CIFDUS_clean_linker_0, # of connection points: 2
#     Edge 45, Type (0, 1), BuildingBlock: CIFDUS_clean_linker_0, # of connection points: 2
#     Edge 46, Type (0, 1), BuildingBlock: CIFDUS_clean_linker_0, # of connection points: 2
#     Edge 47, Type (0, 1), BuildingBlock: CIFDUS_clean_linker_0, # of connection points: 2
#     Edge 48, Type (0, 1), BuildingBlock: CIFDUS_clean_linker_0, # of connection points: 2
#     Edge 49, Type (0, 1), BuildingBlock: CIFDUS_clean_linker_0, # of connection points: 2
#     Edge 50, Type (0, 1), BuildingBlock: CIFDUS_clean_linker_0, # of connection points: 2
#     Edge 51, Type (0, 1), BuildingBlock: CIFDUS_clean_linker_0, # of connection points: 2
#     Edge 52, Type (0, 1), BuildingBlock: CIFDUS_clean_linker_0, # of connection points: 2
#     Edge 53, Type (0, 1), BuildingBlock: CIFDUS_clean_linker_0, # of connection points: 2
#     Edge 54, Type (0, 1), BuildingBlock: CIFDUS_clean_linker_0, # of connection points: 2
#     Edge 55, Type (0, 1), BuildingBlock: CIFDUS_clean_linker_0, # of connection points: 2
#     Edge 56, Type (0, 1), BuildingBlock: CIFDUS_clean_linker_0, # of connection points: 2
#     Edge 57, Type (0, 1), BuildingBlock: CIFDUS_clean_linker_0, # of connection points: 2
#     Edge 58, Type (0, 1), BuildingBlock: CIFDUS_clean_linker_0, # of connection points: 2
#     Edge 59, Type (0, 1), BuildingBlock: CIFDUS_clean_linker_0, # of connection points: 2
#     Edge 60, Type (0, 1), BuildingBlock: CIFDUS_clean_linker_0, # of connection points: 2
#     Edge 61, Type (0, 1), BuildingBlock: CIFDUS_clean_linker_0, # of connection points: 2
#     Edge 62, Type (0, 1), BuildingBlock: CIFDUS_clean_linker_0, # of connection points: 2
#     Edge 63, Type (0, 1), BuildingBlock: CIFDUS_clean_linker_0, # of connection points: 2
#     Edge 64, Type (0, 1), BuildingBlock: CIFDUS_clean_linker_0, # of connection points: 2
#     Edge 65, Type (0, 1), BuildingBlock: CIFDUS_clean_linker_0, # of connection points: 2
#     Edge 66, Type (0, 1), BuildingBlock: CIFDUS_clean_linker_0, # of connection points: 2
#     Edge 67, Type (0, 1), BuildingBlock: CIFDUS_clean_linker_0, # of connection points: 2
#     Edge 68, Type (0, 1), BuildingBlock: CIFDUS_clean_linker_0, # of connection points: 2
#     Edge 69, Type (0, 1), BuildingBlock: CIFDUS_clean_linker_0, # of connection points: 2
#     Edge 70, Type (0, 1), BuildingBlock: CIFDUS_clean_linker_0, # of connection points: 2
#     Edge 71, Type (0, 1), BuildingBlock: CIFDUS_clean_linker_0, # of connection points: 2
#     Edge 72, Type (0, 1), BuildingBlock: CIFDUS_clean_linker_0, # of connection points: 2
#     Edge 73, Type (0, 1), BuildingBlock: CIFDUS_clean_linker_0, # of connection points: 2
#     Edge 74, Type (0, 1), BuildingBlock: CIFDUS_clean_linker_0, # of connection points: 2
#     Edge 75, Type (0, 1), BuildingBlock: CIFDUS_clean_linker_0, # of connection points: 2
#     Edge 76, Type (0, 1), BuildingBlock: CIFDUS_clean_linker_0, # of connection points: 2
#     Edge 77, Type (0, 1), BuildingBlock: CIFDUS_clean_linker_0, # of connection points: 2
#     Edge 78, Type (0, 1), BuildingBlock: CIFDUS_clean_linker_0, # of connection points: 2
#     Edge 79, Type (0, 1), BuildingBlock: CIFDUS_clean_linker_0, # of connection points: 2
#     Edge 80, Type (0, 1), BuildingBlock: CIFDUS_clean_linker_0, # of connection points: 2
# Relax obj value: 0.035
# Max RMSD: 0.132
# Mean RMSD: 0.081
data_MOF--net-eea--node1-NUHQIS_clean_sbu_0--node2-MIDCAF_clean_linker_0--edge1-CIFDUS_clean_linker_0
_symmetry_space_group_name_H-M    P1
_symmetry_Int_Tables_number       1
_symmetry_cell_setting            triclinic
loop_
_symmetry_equiv_pos_as_xyz
'x, y, z'
_cell_length_a     55.54432
_cell_length_b     55.891053
_cell_length_c     82.748107
_cell_angle_alpha  93.232658
_cell_angle_beta   93.246026
_cell_angle_gamma 119.90854
loop_
_atom_site_label
_atom_site_type_symbol
_atom_site_fract_x
_atom_site_fract_y
_atom_site_fract_z
_atom_type_partial_charge
C0 C 0.279 0.05078 0.40132 0.0
C1 C 0.26714 0.04343 0.38509 0.0
C2 C 0.26223 0.06225 0.37699 0.0
C3 C 0.2679 0.08733 0.38516 0.0
H4 H 0.27918 0.1674 0.37968 0.0
H5 H 0.26426 0.19512 0.36509 0.0
H6 H 0.24005 0.21731 0.40974 0.0
H7 H 0.25622 0.19065 0.42441 0.0
H8 H 0.29599 0.18752 0.45795 0.0
H9 H 0.30441 0.19139 0.48761 0.0
H10 H 0.30027 0.11204 0.4844 0.0
H11 H 0.29176 0.10796 0.45505 0.0
H12 H 0.29307 0.08044 0.42214 0.0
H13 H 0.28352 0.03694 0.40779 0.0
H14 H 0.25288 0.05711 0.36453 0.0
H15 H 0.26298 0.10091 0.37868 0.0
N16 N 0.276 0.13694 0.40323 0.0
N17 N 0.2821 0.16219 0.42828 0.0
N18 N 0.2871 0.12289 0.42724 0.0
C19 C 0.2764 0.15859 0.41181 0.0
C20 C 0.28766 0.14441 0.43607 0.0
C21 C 0.28133 0.11899 0.41086 0.0
C22 C 0.26891 0.17685 0.40322 0.0
C23 C 0.27088 0.1784 0.3864 0.0
C24 C 0.2621 0.19414 0.378 0.0
C25 C 0.25078 0.20842 0.38616 0.0
C26 C 0.24911 0.20705 0.40305 0.0
C27 C 0.2583 0.19166 0.41149 0.0
C28 C 0.29314 0.14742 0.45406 0.0
C29 C 0.29685 0.1709 0.46358 0.0
C30 C 0.30178 0.17319 0.48055 0.0
C31 C 0.3028 0.15192 0.48832 0.0
C32 C 0.29917 0.12857 0.47879 0.0
C33 C 0.29448 0.12637 0.46191 0.0
C34 C 0.2785 0.09408 0.40163 0.0
C35 C 0.2846 0.0758 0.40951 0.0
C36 C 0.986 0.2199 0.4121 0.0
C37 C 0.99683 0.21033 0.39994 0.0
C38 C 0.98232 0.18183 0.3946 0.0
C39 C 0.95777 0.16353 0.40117 0.0
H40 H 0.87782 0.0924 0.3866 0.0
H41 H 0.84417 0.04763 0.37197 0.0
H42 H 0.80308 0.02117 0.41572 0.0
H43 H 0.83594 0.06587 0.43015 0.0
H44 H 0.85649 0.1028 0.46103 0.0
H45 H 0.84744 0.10994 0.48865 0.0
H46 H 0.90894 0.19692 0.49057 0.0
H47 H 0.91833 0.18988 0.46255 0.0
H48 H 0.95405 0.20957 0.42824 0.0
H49 H 0.99611 0.24172 0.41633 0.0
H50 H 0.99013 0.17342 0.38555 0.0
H51 H 0.94733 0.14173 0.39682 0.0
N52 N 0.90309 0.12864 0.41212 0.0
N53 N 0.87545 0.11616 0.43386 0.0
N54 N 0.91664 0.15935 0.43589 0.0
C55 C 0.87986 0.10997 0.41865 0.0
C56 C 0.89355 0.14063 0.4426 0.0
C57 C 0.92157 0.15337 0.42064 0.0
C58 C 0.85964 0.08284 0.40956 0.0
C59 C 0.86156 0.07705 0.39308 0.0
C60 C 0.84232 0.05133 0.38471 0.0
C61 C 0.82082 0.03078 0.39264 0.0
C62 C 0.81898 0.03664 0.40911 0.0
C63 C 0.83805 0.06231 0.41744 0.0
C64 C 0.88824 0.14578 0.45949 0.0
C65 C 0.86817 0.12356 0.4672 0.0
C66 C 0.86304 0.12756 0.48312 0.0
C67 C 0.87762 0.15392 0.4918 0.0
C68 C 0.89738 0.17638 0.48412 0.0
C69 C 0.90282 0.1723 0.46813 0.0
C70 C 0.94728 0.17309 0.41348 0.0
C71 C 0.96171 0.20148 0.41889 0.0
C72 C 0.81055 0.76846 0.4096 0.0
C73 C 0.81604 0.78035 0.39473 0.0
C74 C 0.84152 0.78729 0.38853 0.0
C75 C 0.861 0.78247 0.39694 0.0
H76 H 0.9316 0.7791 0.3908 0.0
H77 H 0.97343 0.7882 0.37819 0.0
H78 H 0.0088 0.77831 0.42345 0.0
H79 H 0.96649 0.76826 0.43594 0.0
H80 H 0.92157 0.73305 0.46129 0.0
H81 H 0.91229 0.71295 0.48718 0.0
H82 H 0.83853 0.72024 0.48776 0.0
H83 H 0.84784 0.74061 0.46193 0.0
H84 H 0.82505 0.75441 0.42943 0.0
H85 H 0.79098 0.76253 0.41465 0.0
H86 H 0.84665 0.79685 0.37725 0.0
H87 H 0.88041 0.78821 0.39175 0.0
N88 N 0.90032 0.77117 0.41409 0.0
N89 N 0.91472 0.75621 0.43664 0.0
N90 N 0.87182 0.75508 0.43539 0.0
C91 C 0.91961 0.76665 0.42195 0.0
C92 C 0.89086 0.75033 0.44346 0.0
C93 C 0.8764 0.76552 0.42069 0.0
C94 C 0.94553 0.77282 0.41441 0.0
C95 C 0.94828 0.77889 0.39811 0.0
C96 C 0.97243 0.78432 0.39088 0.0
C97 C 0.99462 0.78404 0.39976 0.0
C98 C 0.992 0.77827 0.41613 0.0
C99 C 0.96773 0.77262 0.42334 0.0
C100 C 0.88546 0.73848 0.45942 0.0
C101 C 0.90339 0.73048 0.46692 0.0
C102 C 0.89799 0.71877 0.48174 0.0
C103 C 0.87463 0.71491 0.48954 0.0
C104 C 0.85686 0.72317 0.48216 0.0
C105 C 0.86214 0.73472 0.46728 0.0
C106 C 0.85557 0.77061 0.41182 0.0
C107 C 0.83007 0.76367 0.41805 0.0
C108 C 0.02013 0.21397 0.59449 0.0
C109 C 0.02026 0.20805 0.61081 0.0
C110 C 0.04433 0.20948 0.61833 0.0
C111 C 0.06745 0.2162 0.60975 0.0
H112 H 0.13448 0.20634 0.61134 0.0
H113 H 0.16955 0.19707 0.6233 0.0
H114 H 0.21933 0.23076 0.58336 0.0
H115 H 0.18388 0.23961 0.5711 0.0
H116 H 0.1611 0.25965 0.5431 0.0
H117 H 0.16765 0.27961 0.51732 0.0
H118 H 0.08943 0.27843 0.51845 0.0
H119 H 0.08247 0.25789 0.5443 0.0
H120 H 0.04254 0.2251 0.57333 0.0
H121 H 1.00185 0.21278 0.58824 0.0
H122 H 0.04548 0.20566 0.63096 0.0
H123 H 0.08554 0.21703 0.61603 0.0
N124 N 0.11195 0.22363 0.59084 0.0
N125 N 0.13737 0.24005 0.56844 0.0
N126 N 0.09477 0.2391 0.56977 0.0
C127 C 0.1347 0.2293 0.58297 0.0
C128 C 0.11757 0.24505 0.56173 0.0
C129 C 0.09189 0.22841 0.58439 0.0
C130 C 0.1563 0.22379 0.59023 0.0
C131 C 0.15286 0.21183 0.60505 0.0
C132 C 0.17309 0.20665 0.61199 0.0
C133 C 0.19734 0.21334 0.60434 0.0
C134 C 0.20077 0.22516 0.58949 0.0
C135 C 0.18049 0.23035 0.58251 0.0
C136 C 0.12123 0.25713 0.54588 0.0
C137 C 0.14519 0.26358 0.53793 0.0
C138 C 0.14909 0.27524 0.52315 0.0
C139 C 0.12918 0.28082 0.51586 0.0
C140 C 0.10509 0.27421 0.52369 0.0
C141 C 0.10117 0.26254 0.53855 0.0
C142 C 0.0673 0.22192 0.59341 0.0
C143 C 0.04343 0.22093 0.58591 0.0
C144 C 0.73869 0.77824 0.61535 0.0
C145 C 0.7535 0.78831 0.63085 0.0
C146 C 0.75711 0.8132 0.63837 0.0
C147 C 0.74687 0.82814 0.63035 0.0
H148 H 0.73504 0.89964 0.63515 0.0
H149 H 0.74996 0.94745 0.64504 0.0
H150 H 0.74966 0.96767 0.59534 0.0
H151 H 0.7333 0.91988 0.58565 0.0
H152 H 0.67331 0.86147 0.56542 0.0
H153 H 0.6529 0.84872 0.53737 0.0
H154 H 0.67618 0.78573 0.53295 0.0
H155 H 0.69698 0.79865 0.56121 0.0
H156 H 0.71744 0.78487 0.59532 0.0
H157 H 0.7352 0.75889 0.60935 0.0
H158 H 0.76858 0.82156 0.65027 0.0
H159 H 0.75052 0.84752 0.63639 0.0
N160 N 0.73058 0.86113 0.612 0.0
N161 N 0.70921 0.867 0.58855 0.0
N162 N 0.70919 0.8254 0.59063 0.0
C163 C 0.72356 0.87715 0.60344 0.0
C164 C 0.70176 0.84116 0.58208 0.0
C165 C 0.72348 0.83519 0.60567 0.0
C166 C 0.73282 0.906 0.60966 0.0
C167 C 0.73807 0.91437 0.62641 0.0
C168 C 0.74679 0.94182 0.63204 0.0
C169 C 0.75096 0.96156 0.62101 0.0
C170 C 0.746 0.95305 0.60425 0.0
C171 C 0.73677 0.92559 0.59866 0.0
C172 C 0.687 0.83123 0.56553 0.0
C173 C 0.67392 0.84473 0.55856 0.0
C174 C 0.66199 0.83727 0.5425 0.0
C175 C 0.66297 0.81625 0.53297 0.0
C176 C 0.67532 0.80215 0.54002 0.0
C177 C 0.68707 0.80945 0.5562 0.0
C178 C 0.73268 0.81845 0.61465 0.0
C179 C 0.72836 0.7931 0.60735 0.0
C180 C 0.19741 0.95829 0.59143 0.0
C181 C 0.19128 0.97381 0.60272 0.0
C182 C 0.16352 0.9629 0.60643 0.0
C183 C 0.14263 0.93684 0.59946 0.0
H184 H 0.07086 0.87159 0.61069 0.0
H185 H 0.03249 0.84596 0.62681 0.0
H186 H 1.00056 0.77384 0.59205 0.0
H187 H 0.03956 0.79941 0.5759 0.0
H188 H 0.07018 0.81003 0.54054 0.0
H189 H 0.07586 0.79395 0.51363 0.0
H190 H 0.16028 0.86307 0.51692 0.0
H191 H 0.155 0.87869 0.54362 0.0
H192 H 0.18179 0.92076 0.57574 0.0
H193 H 0.21857 0.96584 0.58841 0.0
H194 H 0.1578 0.97452 0.61471 0.0
H195 H 0.12153 0.92903 0.6027 0.0
N196 N 0.10355 0.87885 0.589 0.0
N197 N 0.0857 0.84222 0.56824 0.0
N198 N 0.12919 0.88226 0.56695 0.0
C199 C 0.08303 0.85321 0.58271 0.0
C200 C 0.10883 0.85678 0.56027 0.0
C201 C 0.12666 0.89346 0.58124 0.0
C202 C 0.0585 0.83757 0.59195 0.0
C203 C 0.05571 0.85028 0.60636 0.0
C204 C 0.03352 0.83563 0.61562 0.0
C205 C 0.01344 0.80784 0.61076 0.0
C206 C 0.0159 0.79515 0.59624 0.0
C207 C 0.03816 0.80987 0.58692 0.0
C208 C 0.11207 0.84571 0.54429 0.0
C209 C 0.09002 0.8216 0.53557 0.0
C210 C 0.09322 0.81248 0.52011 0.0
C211 C 0.11857 0.82716 0.51314 0.0
C212 C 0.14063 0.85096 0.522 0.0
C213 C 0.13746 0.86006 0.53733 0.0
C214 C 0.14882 0.92125 0.58834 0.0
C215 C 0.17635 0.93236 0.58423 0.0
C216 C 0.93298 0.3828 0.74154 0.0
C217 C 0.92177 0.37574 0.7252 0.0
C218 C 0.91695 0.39457 0.71706 0.0
C219 C 0.92281 0.41977 0.72518 0.0
H220 H 0.92215 0.49172 0.71865 0.0
H221 H 0.9113 0.52319 0.70502 0.0
H222 H 0.92869 0.57275 0.75076 0.0
H223 H 0.94017 0.5418 0.76435 0.0
H224 H 0.97417 0.5309 0.79434 0.0
H225 H 0.98898 0.53932 0.82339 0.0
H226 H 0.96235 0.45246 0.82489 0.0
H227 H 0.94867 0.44433 0.79583 0.0
H228 H 0.94706 0.41245 0.76234 0.0
H229 H 0.93661 0.36857 0.7482 0.0
H230 H 0.90861 0.38982 0.7044 0.0
H231 H 0.9186 0.43369 0.71858 0.0
N232 N 0.93398 0.47106 0.74281 0.0
N233 N 0.94684 0.49992 0.7672 0.0
N234 N 0.94723 0.45816 0.76668 0.0
C235 C 0.93804 0.49472 0.75105 0.0
C236 C 0.95146 0.4817 0.77509 0.0
C237 C 0.93861 0.45271 0.75054 0.0
C238 C 0.93206 0.51418 0.74263 0.0
C239 C 0.92378 0.50938 0.72582 0.0
C240 C 0.91739 0.52733 0.718 0.0
C241 C 0.91911 0.55046 0.7268 0.0
C242 C 0.92754 0.55534 0.74357 0.0
C243 C 0.93399 0.53747 0.75138 0.0
C244 C 0.96033 0.48698 0.79274 0.0
C245 C 0.97154 0.51363 0.80088 0.0
C246 C 0.9799 0.51842 0.81756 0.0
C247 C 0.97693 0.49659 0.82652 0.0
C248 C 0.96552 0.46991 0.81836 0.0
C249 C 0.9575 0.4652 0.80167 0.0
C250 C 0.93353 0.42661 0.74164 0.0
C251 C 0.93879 0.40792 0.74967 0.0
C252 C 0.65368 0.55312 0.7447 0.0
C253 C 0.65959 0.5445 0.72988 0.0
C254 C 0.6399 0.51855 0.7218 0.0
C255 C 0.61506 0.50148 0.72845 0.0
H256 H 0.54472 0.42631 0.71963 0.0
H257 H 0.51158 0.38127 0.70532 0.0
H258 H 0.45621 0.36562 0.74301 0.0
H259 H 0.48951 0.41031 0.75755 0.0
H260 H 0.51129 0.44838 0.78961 0.0
H261 H 0.50323 0.45875 0.81692 0.0
H262 H 0.57834 0.53898 0.8202 0.0
H263 H 0.58692 0.52837 0.79282 0.0
H264 H 0.62506 0.54326 0.76285 0.0
H265 H 0.66823 0.57317 0.75112 0.0
H266 H 0.64395 0.51109 0.71049 0.0
H267 H 0.60058 0.4815 0.72192 0.0
N268 N 0.56411 0.46662 0.74232 0.0
N269 N 0.536 0.45612 0.76384 0.0
N270 N 0.57852 0.49809 0.76567 0.0
C271 C 0.54041 0.44898 0.74882 0.0
C272 C 0.55487 0.48058 0.77237 0.0
C273 C 0.58325 0.49122 0.75061 0.0
C274 C 0.51989 0.42197 0.7398 0.0
C275 C 0.52547 0.41333 0.72488 0.0
C276 C 0.5064 0.38754 0.71661 0.0
C277 C 0.48131 0.36983 0.72305 0.0
C278 C 0.47557 0.37859 0.73786 0.0
C279 C 0.49464 0.40432 0.74615 0.0
C280 C 0.5498 0.48753 0.78894 0.0
C281 C 0.52613 0.46831 0.79606 0.0
C282 C 0.52137 0.47432 0.81174 0.0
C283 C 0.54004 0.49976 0.82073 0.0
C284 C 0.56368 0.51908 0.81364 0.0
C285 C 0.56851 0.51303 0.79791 0.0
C286 C 0.60929 0.50989 0.74339 0.0
C287 C 0.62884 0.53601 0.75138 0.0
C288 C 0.47868 0.11192 0.74413 0.0
C289 C 0.48108 0.11797 0.72781 0.0
C290 C 0.50176 0.11634 0.71962 0.0
C291 C 0.52 0.1095 0.72758 0.0
H292 H 0.58062 0.08618 0.7201 0.0
H293 H 0.62031 0.09628 0.70501 0.0
H294 H 0.67481 0.12845 0.74987 0.0
H295 H 0.63444 0.11659 0.76504 0.0
H296 H 0.58785 0.07116 0.79407 0.0
H297 H 0.5803 0.05346 0.82067 0.0
H298 H 0.50612 0.06001 0.8214 0.0
H299 H 0.51381 0.07813 0.79494 0.0
H300 H 0.49486 0.10093 0.76477 0.0
H301 H 0.4631 0.11318 0.75083 0.0
H302 H 0.50385 0.12031 0.70696 0.0
H303 H 0.53574 0.10869 0.72081 0.0
N304 N 0.56076 0.10103 0.74491 0.0
N305 N 0.57763 0.08913 0.76788 0.0
N306 N 0.5359 0.09038 0.76787 0.0
C307 C 0.58037 0.09671 0.75246 0.0
C308 C 0.55523 0.08566 0.77565 0.0
C309 C 0.53858 0.09813 0.75249 0.0
C310 C 0.60447 0.10073 0.74374 0.0
C311 C 0.60107 0.09515 0.72675 0.0
C312 C 0.62396 0.10123 0.71808 0.0
C313 C 0.65107 0.11374 0.7261 0.0
C314 C 0.65433 0.1186 0.74321 0.0
C315 C 0.63121 0.1119 0.75195 0.0
C316 C 0.55141 0.07603 0.79224 0.0
C317 C 0.57 0.06901 0.7999 0.0
C318 C 0.56558 0.05868 0.81515 0.0
C319 C 0.54252 0.05516 0.82317 0.0
C320 C 0.52425 0.0627 0.81567 0.0
C321 C 0.52861 0.07296 0.8004 0.0
C322 C 0.51806 0.104 0.744 0.0
C323 C 0.49697 0.10499 0.75214 0.0
C324 C 0.6902 0.55148 0.92915 0.0
C325 C 0.69019 0.54637 0.94565 0.0
C326 C 0.71432 0.54819 0.95341 0.0
C327 C 0.73749 0.55435 0.94491 0.0
H328 H 0.82026 0.56933 0.95075 0.0
H329 H 0.85604 0.56174 0.96355 0.0
H330 H 0.87235 0.53935 0.91618 0.0
H331 H 0.8378 0.54885 0.90344 0.0
H332 H 0.82899 0.58824 0.87689 0.0
H333 H 0.83551 0.60565 0.85034 0.0
H334 H 0.75883 0.60764 0.85071 0.0
H335 H 0.75193 0.58969 0.87736 0.0
H336 H 0.7126 0.56122 0.90792 0.0
H337 H 0.67194 0.55 0.92267 0.0
H338 H 0.71545 0.54503 0.96616 0.0
H339 H 0.75552 0.55538 0.9514 0.0
N340 N 0.78224 0.56054 0.92638 0.0
N341 N 0.80633 0.57281 0.90314 0.0
N342 N 0.76421 0.57299 0.90409 0.0
C343 C 0.80439 0.56449 0.91834 0.0
C344 C 0.78653 0.57735 0.89592 0.0
C345 C 0.76192 0.5645 0.91936 0.0
C346 C 0.82617 0.55968 0.92609 0.0
C347 C 0.83157 0.56285 0.94309 0.0
C348 C 0.85202 0.55824 0.95043 0.0
C349 C 0.8672 0.54962 0.941 0.0
C350 C 0.86164 0.54642 0.92394 0.0
C351 C 0.84162 0.55168 0.91658 0.0
C352 C 0.7899 0.58752 0.87942 0.0
C353 C 0.81339 0.5923 0.87139 0.0
C354 C 0.81729 0.60253 0.85614 0.0
C355 C 0.79785 0.6083 0.84837 0.0
C356 C 0.77416 0.60325 0.85626 0.0
C357 C 0.77025 0.59304 0.8716 0.0
C358 C 0.73742 0.55908 0.92838 0.0
C359 C 0.71353 0.55782 0.92064 0.0
C360 C 0.40698 0.11233 0.94192 0.0
C361 C 0.42063 0.11996 0.95775 0.0
C362 C 0.42616 0.14519 0.96595 0.0
C363 C 0.41855 0.16255 0.95838 0.0
H364 H 0.43546 0.24514 0.96043 0.0
H365 H 0.45439 0.29388 0.97016 0.0
H366 H 0.40693 0.30247 0.93004 0.0
H367 H 0.3884 0.25428 0.92019 0.0
H368 H 0.369 0.21343 0.88956 0.0
H369 H 0.35049 0.20068 0.86121 0.0
H370 H 0.33801 0.11847 0.86473 0.0
H371 H 0.35729 0.13142 0.89313 0.0
H372 H 0.38913 0.12298 0.92212 0.0
H373 H 0.40283 0.09331 0.93512 0.0
H374 H 0.43635 0.15153 0.97823 0.0
H375 H 0.42331 0.18193 0.96498 0.0
N376 N 0.40634 0.19964 0.9408 0.0
N377 N 0.3867 0.208 0.91749 0.0
N378 N 0.38417 0.16518 0.91885 0.0
C379 C 0.40059 0.21692 0.93259 0.0
C380 C 0.37838 0.18221 0.91053 0.0
C381 C 0.39804 0.17363 0.93398 0.0
C382 C 0.4106 0.24578 0.93943 0.0
C383 C 0.42893 0.25738 0.95374 0.0
C384 C 0.43973 0.28528 0.95935 0.0
C385 C 0.43241 0.30209 0.95074 0.0
C386 C 0.41345 0.29024 0.93674 0.0
C387 C 0.40271 0.26248 0.93115 0.0
C388 C 0.36484 0.17353 0.89365 0.0
C389 C 0.36212 0.19253 0.8844 0.0
C390 C 0.35131 0.18516 0.86812 0.0
C391 C 0.34278 0.15855 0.8607 0.0
C392 C 0.34475 0.13926 0.87005 0.0
C393 C 0.35568 0.14666 0.88635 0.0
C394 C 0.40518 0.15498 0.94246 0.0
C395 C 0.39928 0.12953 0.93441 0.0
C396 C 0.87404 0.28874 0.92904 0.0
C397 C 0.87187 0.29663 0.94507 0.0
C398 C 0.8494 0.27787 0.9532 0.0
C399 C 0.82933 0.25204 0.94539 0.0
H400 H 0.75133 0.18731 0.94927 0.0
H401 H 0.70863 0.15932 0.96176 0.0
H402 H 0.67977 0.09595 0.92141 0.0
H403 H 0.72226 0.12426 0.90864 0.0
H404 H 0.75739 0.13785 0.87693 0.0
H405 H 0.76421 0.12605 0.84931 0.0
H406 H 0.84334 0.20252 0.85261 0.0
H407 H 0.83698 0.21402 0.88006 0.0
H408 H 0.85625 0.25768 0.90882 0.0
H409 H 0.89089 0.3028 0.92236 0.0
H410 H 0.84735 0.28311 0.96565 0.0
H411 H 0.81225 0.23822 0.95202 0.0
N412 N 0.78622 0.20043 0.92788 0.0
N413 N 0.76941 0.16813 0.90477 0.0
N414 N 0.81261 0.20918 0.90563 0.0
C415 C 0.76602 0.17586 0.91999 0.0
C416 C 0.79275 0.18474 0.89751 0.0
C417 C 0.80959 0.2172 0.92079 0.0
C418 C 0.74031 0.15816 0.92786 0.0
C419 C 0.73598 0.16738 0.94303 0.0
C420 C 0.7115 0.15122 0.95028 0.0
C421 C 0.69071 0.12537 0.94261 0.0
C422 C 0.69517 0.11595 0.92756 0.0
C423 C 0.71964 0.13215 0.92026 0.0
C424 C 0.79662 0.17689 0.88081 0.0
C425 C 0.77631 0.15206 0.87179 0.0
C426 C 0.78015 0.14534 0.85593 0.0
C427 C 0.80441 0.16325 0.84877 0.0
C428 C 0.82467 0.18796 0.85783 0.0
C429 C 0.82087 0.19466 0.8736 0.0
C430 C 0.83129 0.24427 0.92928 0.0
C431 C 0.85404 0.26287 0.92125 0.0
C432 C 0.60726 0.72212 0.0706 0.0
C433 C 0.59368 0.71465 0.05476 0.0
C434 C 0.58742 0.73322 0.0474 0.0
C435 C 0.59406 0.75845 0.05584 0.0
H436 H 0.57968 0.82292 0.0537 0.0
H437 H 0.56207 0.85113 0.04243 0.0
H438 H 0.59902 0.90979 0.08524 0.0
H439 H 0.6161 0.8813 0.09675 0.0
H440 H 0.63428 0.86145 0.12866 0.0
H441 H 0.65199 0.86914 0.15728 0.0
H442 H 0.66751 0.801 0.15049 0.0
H443 H 0.65034 0.79351 0.12197 0.0
H444 H 0.62395 0.75209 0.09132 0.0
H445 H 0.61205 0.70813 0.07669 0.0
H446 H 0.5773 0.72822 0.03512 0.0
H447 H 0.58863 0.7721 0.04987 0.0
N448 N 0.60476 0.8086 0.07463 0.0
N449 N 0.62071 0.83782 0.09901 0.0
N450 N 0.62459 0.79792 0.09677 0.0
C451 C 0.60878 0.8318 0.08341 0.0
C452 C 0.62874 0.82096 0.10577 0.0
C453 C 0.61266 0.79157 0.08121 0.0
C454 C 0.59922 0.84971 0.07621 0.0
C455 C 0.58418 0.84188 0.06073 0.0
C456 C 0.57418 0.85814 0.05419 0.0
C457 C 0.57903 0.88266 0.06295 0.0
C458 C 0.59451 0.89077 0.07829 0.0
C459 C 0.60444 0.87448 0.08485 0.0
C460 C 0.64076 0.82679 0.12297 0.0
C461 C 0.64167 0.84823 0.13323 0.0
C462 C 0.65166 0.85256 0.14966 0.0
C463 C 0.66111 0.83565 0.15615 0.0
C464 C 0.6607 0.8146 0.14583 0.0
C465 C 0.65065 0.8102 0.12946 0.0
C466 C 0.6071 0.76565 0.07184 0.0
C467 C 0.61392 0.74731 0.07903 0.0
C468 C 0.32465 0.88662 0.07822 0.0
C469 C 0.32656 0.88265 0.0615 0.0
C470 C 0.3043 0.85945 0.05224 0.0
C471 C 0.28076 0.84079 0.0595 0.0
H472 H 0.21574 0.75775 0.05416 0.0
H473 H 0.18194 0.71227 0.04046 0.0
H474 H 0.12654 0.70012 0.07773 0.0
H475 H 0.16044 0.74503 0.09164 0.0
H476 H 0.18613 0.78067 0.1249 0.0
H477 H 0.17712 0.7923 0.15175 0.0
H478 H 0.24607 0.87593 0.15205 0.0
H479 H 0.25511 0.86445 0.12495 0.0
H480 H 0.30038 0.87191 0.09836 0.0
H481 H 0.34157 0.90392 0.08583 0.0
H482 H 0.30482 0.8559 0.03929 0.0
H483 H 0.26397 0.82327 0.05195 0.0
N484 N 0.23468 0.80043 0.07579 0.0
N485 N 0.2077 0.78959 0.09789 0.0
N486 N 0.24933 0.83221 0.09906 0.0
C487 C 0.21163 0.78241 0.08275 0.0
C488 C 0.22635 0.81437 0.10615 0.0
C489 C 0.25365 0.82539 0.08387 0.0
C490 C 0.19093 0.75509 0.07406 0.0
C491 C 0.19635 0.7454 0.05943 0.0
C492 C 0.1769 0.71935 0.05153 0.0
C493 C 0.15155 0.70245 0.05802 0.0
C494 C 0.14605 0.71232 0.07254 0.0
C495 C 0.1655 0.73823 0.08048 0.0
C496 C 0.22138 0.82162 0.12269 0.0
C497 C 0.19947 0.80158 0.13062 0.0
C498 C 0.19437 0.80817 0.14609 0.0
C499 C 0.21093 0.83499 0.15404 0.0
C500 C 0.23282 0.85512 0.14616 0.0
C501 C 0.23808 0.84848 0.13068 0.0
C502 C 0.27877 0.84498 0.07618 0.0
C503 C 0.30103 0.86812 0.08545 0.0
C504 C 0.15103 0.4508 0.08322 0.0
C505 C 0.15454 0.45858 0.06724 0.0
C506 C 0.17721 0.45987 0.05973 0.0
C507 C 0.19611 0.45412 0.06802 0.0
H508 H 0.27377 0.46558 0.06559 0.0
H509 H 0.31628 0.47652 0.05326 0.0
H510 H 0.34185 0.44441 0.09286 0.0
H511 H 0.29945 0.43401 0.10549 0.0
H512 H 0.26311 0.41697 0.13592 0.0
H513 H 0.25539 0.39964 0.16259 0.0
H514 H 0.17521 0.39481 0.15978 0.0
H515 H 0.18265 0.41176 0.13296 0.0
H516 H 0.16672 0.43933 0.10385 0.0
H517 H 0.13402 0.44985 0.08948 0.0
H518 H 0.18034 0.46522 0.04735 0.0
H519 H 0.21332 0.4555 0.06177 0.0
N520 N 0.23747 0.44681 0.08627 0.0
N521 N 0.25217 0.43237 0.10895 0.0
N522 N 0.20929 0.43139 0.10777 0.0
C523 C 0.25688 0.44243 0.09414 0.0
C524 C 0.22842 0.42676 0.11587 0.0
C525 C 0.21364 0.44138 0.09293 0.0
C526 C 0.28298 0.44883 0.08659 0.0
C527 C 0.28836 0.46077 0.07173 0.0
C528 C 0.31277 0.46692 0.06456 0.0
C529 C 0.33257 0.46125 0.07197 0.0
C530 C 0.32727 0.44936 0.08686 0.0
C531 C 0.30281 0.44324 0.09407 0.0
C532 C 0.22356 0.4159 0.13218 0.0
C533 C 0.24377 0.4122 0.14092 0.0
C534 C 0.23942 0.40238 0.15631 0.0
C535 C 0.2147 0.39587 0.16342 0.0
C536 C 0.19436 0.39931 0.15464 0.0
C537 C 0.19874 0.40923 0.13925 0.0
C538 C 0.19288 0.44671 0.08407 0.0
C539 C 0.16992 0.4449 0.09151 0.0
C540 C 0.35283 0.87647 0.25677 0.0
C541 C 0.35279 0.87857 0.27382 0.0
C542 C 0.37781 0.88641 0.28344 0.0
C543 C 0.40205 0.89196 0.27622 0.0
H544 H 0.47489 0.8873 0.28401 0.0
H545 H 0.50993 0.8796 0.29784 0.0
H546 H 0.55191 0.89235 0.25404 0.0
H547 H 0.51737 0.90084 0.24033 0.0
H548 H 0.49935 0.92421 0.21143 0.0
H549 H 0.50673 0.94185 0.18487 0.0
H550 H 0.42796 0.93999 0.18329 0.0
H551 H 0.4202 0.9218 0.20976 0.0
H552 H 0.3764 0.88078 0.23643 0.0
H553 H 0.33395 0.86983 0.24887 0.0
H554 H 0.37892 0.88879 0.29658 0.0
H555 H 0.42095 0.89807 0.28399 0.0
N556 N 0.44804 0.89357 0.25951 0.0
N557 N 0.47479 0.90775 0.23734 0.0
N558 N 0.4314 0.90543 0.23637 0.0
C559 C 0.47153 0.89891 0.25245 0.0
C560 C 0.45493 0.91121 0.22922 0.0
C561 C 0.42783 0.89666 0.25152 0.0
C562 C 0.49319 0.89467 0.26102 0.0
C563 C 0.49161 0.88854 0.27731 0.0
C564 C 0.51166 0.88395 0.28523 0.0
C565 C 0.53374 0.88521 0.27706 0.0
C566 C 0.53544 0.89156 0.2608 0.0
C567 C 0.51547 0.89629 0.2529 0.0
C568 C 0.45916 0.92155 0.21284 0.0
C569 C 0.48351 0.92747 0.20546 0.0
C570 C 0.48786 0.93779 0.19023 0.0
C571 C 0.46802 0.94249 0.18195 0.0
C572 C 0.44356 0.93636 0.18924 0.0
C573 C 0.43918 0.92603 0.20449 0.0
C574 C 0.40208 0.89035 0.25921 0.0
C575 C 0.3772 0.88258 0.24957 0.0
C576 C 0.05895 0.43208 0.27578 0.0
C577 C 0.08414 0.44394 0.28591 0.0
C578 C 0.0986 0.47272 0.29035 0.0
C579 C 0.08808 0.48918 0.28494 0.0
H580 H 0.09906 0.56641 0.29241 0.0
H581 H 0.11833 0.61321 0.30522 0.0
H582 H 0.05285 0.62019 0.27901 0.0
H583 H 0.03419 0.57357 0.26562 0.0
H584 H 0.02259 0.53819 0.22728 0.0
H585 H 1.00378 0.52669 0.19894 0.0
H586 H 0.97918 0.44084 0.20292 0.0
H587 H 0.99897 0.45255 0.23119 0.0
H588 H 0.02926 0.43897 0.26228 0.0
H589 H 0.04704 0.40995 0.27231 0.0
H590 H 0.11839 0.48274 0.2978 0.0
H591 H 0.09996 0.5113 0.28848 0.0
N592 N 0.06204 0.5208 0.27597 0.0
N593 N 0.03734 0.52974 0.2556 0.0
N594 N 0.03602 0.48705 0.25425 0.0
C595 C 0.05413 0.53807 0.26978 0.0
C596 C 0.02819 0.50421 0.24777 0.0
C597 C 0.05294 0.49522 0.26834 0.0
C598 C 0.06508 0.56624 0.27797 0.0
C599 C 0.08866 0.57784 0.2894 0.0
C600 C 0.09965 0.60469 0.29684 0.0
C601 C 0.08712 0.62052 0.29321 0.0
C602 C 0.06331 0.60878 0.28191 0.0
C603 C 0.05251 0.58199 0.27429 0.0
C604 C 0.01263 0.49636 0.23145 0.0
C605 C 0.01276 0.51676 0.22222 0.0
C606 C 1.00183 0.51012 0.20594 0.0
C607 C 0.99021 0.48287 0.19858 0.0
C608 C 0.98854 0.46215 0.20811 0.0
C609 C 0.99975 0.46884 0.22435 0.0
C610 C 0.06311 0.47737 0.27468 0.0
C611 C 0.04865 0.44867 0.27012 0.0
C612 C 0.53397 0.62246 0.26098 0.0
C613 C 0.53 0.63201 0.27611 0.0
C614 C 0.50624 0.61443 0.28374 0.0
C615 C 0.48665 0.58809 0.27628 0.0
H616 H 0.42309 0.5028 0.28429 0.0
H617 H 0.38243 0.4721 0.29775 0.0
H618 H 0.33202 0.4451 0.25141 0.0
H619 H 0.3732 0.47438 0.23796 0.0
H620 H 0.41581 0.47335 0.20817 0.0
H621 H 0.42241 0.46178 0.18044 0.0
H622 H 0.50136 0.5384 0.18364 0.0
H623 H 0.49519 0.54976 0.21119 0.0
H624 H 0.51812 0.5897 0.24179 0.0
H625 H 0.55228 0.6353 0.2549 0.0
H626 H 0.5024 0.62126 0.29532 0.0
H627 H 0.46838 0.5753 0.2824 0.0
N628 N 0.44627 0.53395 0.25997 0.0
N629 N 0.42874 0.50261 0.23637 0.0
N630 N 0.47137 0.54419 0.2371 0.0
C631 C 0.4261 0.50952 0.25195 0.0
C632 C 0.45151 0.51984 0.2289 0.0
C633 C 0.46893 0.55149 0.25258 0.0
C634 C 0.40132 0.49088 0.26007 0.0
C635 C 0.40329 0.49016 0.27701 0.0
C636 C 0.37984 0.47268 0.28474 0.0
C637 C 0.35366 0.45596 0.27576 0.0
C638 C 0.3518 0.45704 0.25878 0.0
C639 C 0.37541 0.474 0.25102 0.0
C640 C 0.45498 0.51247 0.212 0.0
C641 C 0.43461 0.48769 0.20297 0.0
C642 C 0.43832 0.48109 0.18705 0.0
C643 C 0.46251 0.49906 0.17988 0.0
C644 C 0.48274 0.52382 0.1889 0.0
C645 C 0.47905 0.53043 0.20472 0.0
C646 C 0.49036 0.57876 0.26099 0.0
C647 C 0.5144 0.5962 0.25351 0.0
Tb648 Tb 0.50203 0.99135 0.98749 0.0
Eu649 Eu 0.52295 0.0256 0.02416 0.0
C650 C 0.52641 0.9716 0.01579 0.0
C651 C 0.462 0.97137 0.01506 0.0
C652 C 0.49472 0.98146 0.94228 0.0
C653 C 0.52245 0.9956 0.91914 0.0
C654 C 0.51724 0.98409 0.93402 0.0
C655 C 0.47716 0.99016 0.9351 0.0
C656 C 0.48232 0.0016 0.92017 0.0
C657 C 0.50512 0.0046 0.91202 0.0
C658 C 0.49003 0.96998 0.95832 0.0
O659 O 0.48364 0.01783 0.98965 0.0
O660 O 0.51625 0.05304 0.00801 0.0
O661 O 0.56111 0.03985 0.01041 0.0
O662 O 0.53831 0.03127 0.98506 0.0
C663 C 0.49562 0.04348 0.99647 0.0
O664 O 0.51702 0.04773 0.04474 0.0
O665 O 0.55239 0.04127 0.04597 0.0
O666 O 0.51905 0.98428 0.02647 0.0
O667 O 0.52639 0.97602 1.00034 0.0
O668 O 0.4711 0.9635 1.00264 0.0
O669 O 0.47645 0.99648 0.02268 0.0
C670 C 0.56146 0.04313 0.99481 0.0
O671 O 0.5123 0.97488 0.96736 0.0
O672 O 0.47254 0.9729 0.96694 0.0
C673 C 0.5308 0.03844 0.06997 0.0
C674 C 0.51916 0.01771 0.10066 0.0
C675 C 0.5366 0.04629 0.09945 0.0
C676 C 0.54236 0.05653 0.08424 0.0
C677 C 0.51315 0.00998 0.07106 0.0
C678 C 0.50737 0.9997 0.08626 0.0
C679 C 0.53759 0.04915 0.05401 0.0
H680 H 0.54039 0.99787 0.91336 0.0
H681 H 0.5311 0.97748 0.93916 0.0
H682 H 0.45947 0.98824 0.94102 0.0
H683 H 0.46826 0.00788 0.91494 0.0
H684 H 0.54572 0.06078 0.11027 0.0
H685 H 0.55597 0.07856 0.08361 0.0
H686 H 0.50409 0.99567 0.06013 0.0
H687 H 0.49415 0.97758 0.08672 0.0
Tb688 Tb 0.01769 0.50371 0.99596 0.0
Eu689 Eu 0.97949 0.48795 0.02689 0.0
C690 C 0.03519 0.54586 0.02734 0.0
C691 C 0.03273 0.47996 0.02612 0.0
C692 C 0.03992 0.51117 0.95399 0.0
C693 C 0.04218 0.53006 0.92802 0.0
C694 C 0.04873 0.534 0.94485 0.0
C695 C 0.02485 0.48421 0.94597 0.0
C696 C 0.01855 0.48028 0.92909 0.0
C697 C 0.02694 0.50317 0.91999 0.0
C698 C 0.04608 0.51609 0.97184 0.0
O699 O 0.98818 0.45914 0.99173 0.0
O700 O 0.95304 0.45665 0.00607 0.0
O701 O 0.96755 0.51294 0.01146 0.0
O702 O 0.97999 0.50374 0.98695 0.0
C703 C 0.962 0.4461 0.99503 0.0
O704 O 0.95388 0.45817 0.04341 0.0
O705 O 0.95873 0.49925 0.04473 0.0
O706 O 0.02038 0.52561 0.03612 0.0
O707 O 0.03203 0.54221 0.01137 0.0
O708 O 0.04233 0.49837 0.01544 0.0
O709 O 0.00688 0.46902 0.02985 0.0
C710 C 0.96562 0.51177 0.99553 0.0
O711 O 0.0383 0.53207 0.97906 0.0
O712 O 0.04068 0.49477 0.97983 0.0
C713 C 0.95211 0.47765 0.06929 0.0
C714 C 0.95543 0.48 0.10351 0.0
C715 C 0.94397 0.45441 0.09405 0.0
C716 C 0.94219 0.45324 0.07709 0.0
C717 C 0.96364 0.50327 0.07877 0.0
C718 C 0.96525 0.50441 0.09571 0.0
C719 C 0.94904 0.47595 0.05137 0.0
H720 H 0.04913 0.54806 0.92127 0.0
H721 H 0.06046 0.55496 0.95077 0.0
H722 H 0.01765 0.46618 0.9527 0.0
H723 H 0.00659 0.45933 0.92319 0.0
H724 H 0.93603 0.43526 0.09977 0.0
H725 H 0.93287 0.43321 0.07007 0.0
H726 H 0.97135 0.52248 0.07315 0.0
H727 H 0.9745 0.52445 0.10272 0.0
Tb728 Tb 0.52003 0.50595 0.01783 0.0
Eu729 Eu 0.48966 0.51103 0.98404 0.0
C730 C 0.48798 0.45569 0.99164 0.0
C731 C 0.55285 0.52273 0.98663 0.0
C732 C 0.53162 0.49771 0.0611 0.0
C733 C 0.53484 0.48394 0.08808 0.0
C734 C 0.54289 0.48712 0.07226 0.0
C735 C 0.51155 0.5043 0.06578 0.0
C736 C 0.50355 0.50123 0.08158 0.0
C737 C 0.51541 0.49141 0.09302 0.0
C738 C 0.54149 0.50273 0.04483 0.0
O739 O 0.53692 0.54957 0.01441 0.0
O740 O 0.4978 0.54648 1.00195 0.0
O741 O 0.45537 0.49009 1.00034 0.0
O742 O 0.48184 0.50411 0.02506 0.0
C743 C 0.52161 0.56076 0.01097 0.0
O744 O 0.48765 0.53653 0.96562 0.0
O745 O 0.4578 0.49243 0.96338 0.0
O746 O 0.49348 0.47299 0.9805 0.0
O747 O 0.49044 0.46415 0.00706 0.0
O748 O 0.54806 0.50859 0.99948 0.0
O749 O 0.53537 0.53022 0.98081 0.0
C750 C 0.45755 0.49346 0.01632 0.0
O751 O 0.52848 0.48207 0.03357 0.0
O752 O 0.54556 0.52583 0.03956 0.0
C753 C 0.47391 0.51328 0.93938 0.0
C754 C 0.48585 0.51003 0.90695 0.0
C755 C 0.46615 0.51777 0.91085 0.0
C756 C 0.46025 0.51938 0.92695 0.0
C757 C 0.49364 0.50568 0.93562 0.0
C758 C 0.49954 0.50403 0.91954 0.0
C759 C 0.46799 0.51535 0.95629 0.0
H760 H 0.54406 0.47591 0.09649 0.0
H761 H 0.55826 0.48174 0.06882 0.0
H762 H 0.5026 0.51255 0.05735 0.0
H763 H 0.48883 0.50753 0.08497 0.0
H764 H 0.4555 0.52286 0.90148 0.0
H765 H 0.4451 0.52547 0.9297 0.0
H766 H 0.50443 0.50097 0.94513 0.0
H767 H 0.51451 0.49764 0.91695 0.0
Tb768 Tb 0.16869 0.32002 0.32312 0.0
Eu769 Eu 0.18823 0.3586 0.35899 0.0
C770 C 0.19605 0.30639 0.35338 0.0
C771 C 0.12885 0.30134 0.35118 0.0
C772 C 0.16111 0.30637 0.27831 0.0
C773 C 0.15316 0.29728 0.24882 0.0
C774 C 0.1494 0.28765 0.26428 0.0
C775 C 0.17657 0.33493 0.27666 0.0
C776 C 0.18048 0.34458 0.26121 0.0
C777 C 0.16884 0.32588 0.24706 0.0
C778 C 0.15766 0.29604 0.29457 0.0
O779 O 0.14868 0.34513 0.32296 0.0
O780 O 0.17861 0.38213 0.34136 0.0
O781 O 0.22662 0.37442 0.34546 0.0
O782 O 0.20384 0.36021 0.31976 0.0
C783 C 0.1586 0.37073 0.32942 0.0
O784 O 0.18061 0.38213 0.37792 0.0
O785 O 0.21702 0.3775 0.381 0.0
O786 O 0.18822 0.3197 0.36328 0.0
O787 O 0.19393 0.30712 0.3375 0.0
O788 O 0.13776 0.29326 0.33872 0.0
O789 O 0.14267 0.32673 0.35844 0.0
C790 C 0.22668 0.37494 0.32961 0.0
O791 O 0.18072 0.30384 0.30369 0.0
O792 O 0.1394 0.29822 0.30279 0.0
C793 C 0.19369 0.37564 0.40409 0.0
C794 C 0.18068 0.35673 0.43507 0.0
C795 C 0.1986 0.38508 0.43345 0.0
C796 C 0.20503 0.39444 0.41808 0.0
C797 C 0.17557 0.34742 0.40559 0.0
C798 C 0.16907 0.33805 0.42093 0.0
C799 C 0.20115 0.38521 0.38797 0.0
H800 H 0.14415 0.28226 0.23822 0.0
H801 H 0.13748 0.26554 0.26528 0.0
H802 H 0.18569 0.34978 0.28733 0.0
H803 H 0.19234 0.36672 0.26036 0.0
H804 H 0.20763 0.40005 0.44407 0.0
H805 H 0.21902 0.4163 0.41712 0.0
H806 H 0.16673 0.33259 0.39489 0.0
H807 H 0.15552 0.31606 0.42172 0.0
Tb808 Tb 0.68193 0.83479 0.32848 0.0
Eu809 Eu 0.6456 0.81895 0.36016 0.0
C810 C 0.69767 0.87943 0.35769 0.0
C811 C 0.70207 0.81752 0.36014 0.0
C812 C 0.70056 0.84631 0.28623 0.0
C813 C 0.71424 0.86043 0.2595 0.0
C814 C 0.72139 0.86029 0.27594 0.0
C815 C 0.67243 0.83253 0.27996 0.0
C816 C 0.66523 0.83256 0.2635 0.0
C817 C 0.68607 0.84652 0.25306 0.0
C818 C 0.70834 0.84692 0.30355 0.0
O819 O 0.64381 0.79582 0.32089 0.0
O820 O 0.6366 0.77951 0.34582 0.0
O821 O 0.61766 0.81985 0.3399 0.0
O822 O 0.65198 0.84911 0.3248 0.0
C823 C 0.6325 0.77513 0.32993 0.0
O824 O 0.62202 0.78816 0.37658 0.0
O825 O 0.62576 0.82861 0.37953 0.0
O826 O 0.67208 0.86561 0.36184 0.0
O827 O 0.70707 0.86799 0.34746 0.0
O828 O 0.69908 0.81531 0.3441 0.0
O829 O 0.68705 0.82439 0.36884 0.0
C830 C 0.626 0.83692 0.32853 0.0
O831 O 0.70607 0.8648 0.31317 0.0
O832 O 0.69824 0.8229 0.30936 0.0
C833 C 0.62472 0.80645 0.40314 0.0
C834 C 0.63867 0.80588 0.43631 0.0
C835 C 0.61084 0.78984 0.42939 0.0
C836 C 0.60395 0.79014 0.41293 0.0
C837 C 0.65249 0.82258 0.40993 0.0
C838 C 0.6594 0.82238 0.4264 0.0
C839 C 0.61753 0.80505 0.38566 0.0
H840 H 0.73077 0.87173 0.25187 0.0
H841 H 0.7432 0.87126 0.28065 0.0
H842 H 0.65606 0.82175 0.28779 0.0
H843 H 0.64338 0.82137 0.25892 0.0
H844 H 0.59444 0.77662 0.43661 0.0
H845 H 0.58247 0.7773 0.40779 0.0
H846 H 0.66883 0.8351 0.40246 0.0
H847 H 0.68096 0.83526 0.43138 0.0
Tb848 Tb 0.18214 0.82186 0.35308 0.0
Eu849 Eu 0.16571 0.84426 0.3203 0.0
C850 C 0.15066 0.78111 0.32181 0.0
C851 C 0.22086 0.83981 0.32416 0.0
C852 C 0.18425 0.80581 0.39561 0.0
C853 C 0.18527 0.7946 0.42346 0.0
C854 C 0.19264 0.79408 0.40762 0.0
C855 C 0.16803 0.81774 0.39953 0.0
C856 C 0.16066 0.81831 0.41537 0.0
C857 C 0.16937 0.80692 0.42757 0.0
C858 C 0.19231 0.80542 0.37904 0.0
O859 O 0.18707 0.86198 0.3608 0.0
O860 O 0.19771 0.88127 0.33674 0.0
O861 O 0.13728 0.84383 0.3388 0.0
O862 O 0.13861 0.81079 0.35346 0.0
C863 C 0.19849 0.88381 0.35262 0.0
O864 O 0.17874 0.87531 0.3029 0.0
O865 O 0.13636 0.84071 0.30028 0.0
O866 O 0.14226 0.79771 0.31656 0.0
O867 O 0.17052 0.78916 0.33373 0.0
O868 O 0.21957 0.83944 0.34001 0.0
O869 O 0.19976 0.83592 0.31417 0.0
C870 C 0.12708 0.82552 0.34947 0.0
O871 O 0.17194 0.78957 0.36797 0.0
O872 O 0.20892 0.82957 0.37413 0.0
C873 C 0.15887 0.85603 0.27617 0.0
C874 C 0.17031 0.84581 0.24444 0.0
C875 C 0.1841 0.87285 0.25239 0.0
C876 C 0.17835 0.87789 0.26804 0.0
C877 C 0.14447 0.82911 0.26808 0.0
C878 C 0.15004 0.8241 0.25238 0.0
C879 C 0.15557 0.86132 0.29339 0.0
H880 H 0.19198 0.7853 0.43249 0.0
H881 H 0.20499 0.78459 0.40475 0.0
H882 H 0.1613 0.82683 0.39036 0.0
H883 H 0.14871 0.82825 0.41814 0.0
H884 H 0.20005 0.89002 0.24676 0.0
H885 H 0.18979 0.89881 0.27403 0.0
H886 H 0.12933 0.81176 0.27399 0.0
H887 H 0.13861 0.80311 0.24652 0.0
Tb888 Tb 0.83065 0.64958 0.65245 0.0
Eu889 Eu 0.85147 0.68605 0.68862 0.0
C890 C 0.85656 0.6318 0.68032 0.0
C891 C 0.7918 0.6317 0.681 0.0
C892 C 0.82479 0.63935 0.60791 0.0
C893 C 0.82159 0.63418 0.57836 0.0
C894 C 0.81527 0.62239 0.59316 0.0
C895 C 0.841 0.66822 0.60771 0.0
C896 C 0.84716 0.68002 0.59296 0.0
C897 C 0.83739 0.66317 0.57808 0.0
C898 C 0.81735 0.62718 0.62349 0.0
O899 O 0.83424 0.68948 0.64943 0.0
O900 O 0.82447 0.6989 0.67461 0.0
O901 O 0.88273 0.71256 0.67173 0.0
O902 O 0.87585 0.67567 0.65443 0.0
C903 C 0.82475 0.70171 0.65898 0.0
O904 O 0.84232 0.70536 0.70919 0.0
O905 O 0.88138 0.70551 0.71029 0.0
O906 O 0.86891 0.65737 0.68726 0.0
O907 O 0.83648 0.62285 0.66839 0.0
O908 O 0.7932 0.63454 0.66534 0.0
O909 O 0.81397 0.64511 0.69147 0.0
C910 C 0.89076 0.70194 0.66007 0.0
O911 O 0.83782 0.62884 0.63294 0.0
O912 O 0.80196 0.63414 0.63159 0.0
C913 C 0.8592 0.69959 0.73458 0.0
C914 C 0.84832 0.67972 0.76563 0.0
C915 C 0.86646 0.70807 0.76409 0.0
C916 C 0.87178 0.71789 0.74872 0.0
C917 C 0.84117 0.67129 0.73601 0.0
C918 C 0.83569 0.66146 0.75137 0.0
C919 C 0.86439 0.71014 0.71841 0.0
H920 H 0.81358 0.62064 0.56712 0.0
H921 H 0.80271 0.60007 0.59308 0.0
H922 H 0.84874 0.68168 0.61898 0.0
H923 H 0.8597 0.70236 0.5932 0.0
H924 H 0.87631 0.72278 0.77478 0.0
H925 H 0.88564 0.73981 0.74788 0.0
H926 H 0.83132 0.65679 0.72523 0.0
H927 H 0.82191 0.63949 0.75206 0.0
Tb928 Tb 0.34984 0.17189 0.65856 0.0
Eu929 Eu 0.31236 0.15711 0.68999 0.0
C930 C 0.3693 0.21304 0.69053 0.0
C931 C 0.36353 0.1459 0.68808 0.0
C932 C 0.3698 0.18235 0.6165 0.0
C933 C 0.38382 0.19333 0.58941 0.0
C934 C 0.39078 0.19408 0.60601 0.0
C935 C 0.34171 0.16961 0.61025 0.0
C936 C 0.33471 0.16885 0.59365 0.0
C937 C 0.35571 0.18086 0.58305 0.0
C938 C 0.37738 0.18497 0.63405 0.0
O939 O 0.31909 0.12778 0.654 0.0
O940 O 0.28509 0.12556 0.66952 0.0
O941 O 0.3032 0.18469 0.67518 0.0
O942 O 0.31227 0.17247 0.65043 0.0
C943 C 0.2934 0.11486 0.65815 0.0
O944 O 0.28558 0.12782 0.70631 0.0
O945 O 0.29403 0.17021 0.70859 0.0
O946 O 0.3546 0.19252 0.69914 0.0
O947 O 0.36527 0.21003 0.67457 0.0
O948 O 0.37359 0.1639 0.6772 0.0
O949 O 0.33821 0.13657 0.69243 0.0
C950 C 0.30027 0.18298 0.65925 0.0
O951 O 0.37206 0.20165 0.64271 0.0
O952 O 0.36975 0.16193 0.64067 0.0
C953 C 0.28721 0.14775 0.73284 0.0
C954 C 0.29408 0.14975 0.76703 0.0
C955 C 0.2866 0.12522 0.75725 0.0
C956 C 0.28308 0.12419 0.74033 0.0
C957 C 0.29445 0.17218 0.74264 0.0
C958 C 0.29792 0.17319 0.75954 0.0
C959 C 0.28302 0.14658 0.71494 0.0
H960 H 0.40046 0.2024 0.58154 0.0
H961 H 0.41257 0.20409 0.61067 0.0
H962 H 0.32524 0.16065 0.61824 0.0
H963 H 0.31289 0.15937 0.58919 0.0
H964 H 0.28317 0.10673 0.7627 0.0
H965 H 0.27703 0.10492 0.73312 0.0
H966 H 0.29748 0.19061 0.73728 0.0
H967 H 0.304 0.19247 0.76675 0.0
Tb968 Tb 0.85623 0.16906 0.68609 0.0
Eu969 Eu 0.82342 0.17422 0.6529 0.0
C970 C 0.82171 0.11829 0.66022 0.0
C971 C 0.88631 0.18579 0.65438 0.0
C972 C 0.87133 0.16289 0.72915 0.0
C973 C 0.87609 0.15019 0.75624 0.0
C974 C 0.88343 0.15299 0.74026 0.0
C975 C 0.85129 0.16934 0.73408 0.0
C976 C 0.84401 0.16665 0.75004 0.0
C977 C 0.85654 0.15732 0.76139 0.0
C978 C 0.87987 0.1668 0.71254 0.0
O979 O 0.87094 0.21262 0.68325 0.0
O980 O 0.83095 0.20861 0.67136 0.0
O981 O 0.78997 0.15438 0.66993 0.0
O982 O 0.81793 0.16523 0.69411 0.0
C983 C 0.85475 0.22308 0.68035 0.0
O984 O 0.8209 0.20059 0.63524 0.0
O985 O 0.79289 0.15618 0.63152 0.0
O986 O 0.82516 0.1351 0.64902 0.0
O987 O 0.82708 0.12698 0.67574 0.0
O988 O 0.88194 0.1708 0.66674 0.0
O989 O 0.8692 0.19441 0.64972 0.0
C990 C 0.79338 0.15582 0.68592 0.0
O991 O 0.86555 0.14567 0.70173 0.0
O992 O 0.88402 0.18973 0.70698 0.0
C993 C 0.81213 0.17951 0.60866 0.0
C994 C 0.83084 0.18043 0.57755 0.0
C995 C 0.80815 0.18454 0.57981 0.0
C996 C 0.79888 0.18408 0.59526 0.0
C997 C 0.83481 0.17554 0.60648 0.0
C998 C 0.84409 0.17602 0.5911 0.0
C999 C 0.80312 0.17966 0.62502 0.0
H1000 H 0.88584 0.14255 0.76458 0.0
H1001 H 0.89876 0.14769 0.73663 0.0
H1002 H 0.84165 0.177 0.72568 0.0
H1003 H 0.82919 0.17271 0.75359 0.0
H1004 H 0.79731 0.18771 0.56961 0.0
H1005 H 0.78141 0.18729 0.59674 0.0
H1006 H 0.84546 0.17221 0.61673 0.0
H1007 H 0.86186 0.17322 0.58987 0.0
H1008 H 0.35303 0.87175 0.03767 0.0
H1009 H 0.35638 0.93914 0.06788 0.0
H1010 H 0.39817 0.9722 0.05613 0.0
H1011 H 0.43407 0.98212 0.0376 0.0
H1012 H 0.43025 0.9153 0.0066 0.0
H1013 H 0.38794 0.88203 0.01808 0.0
C1014 C 0.36264 0.89369 0.04155 0.0
C1015 C 0.35157 0.90279 0.05379 0.0
C1016 C 0.38655 0.91276 0.03455 0.0
C1017 C 0.36466 0.93136 0.05876 0.0
C1018 C 0.38849 0.95037 0.05195 0.0
C1019 C 0.42399 0.9603 0.03328 0.0
C1020 C 0.43545 0.95127 0.02128 0.0
C1021 C 0.3997 0.9413 0.03992 0.0
C1022 C 0.42191 0.92289 0.0158 0.0
C1023 C 0.39774 0.90381 0.0224 0.0
H1024 H 0.09769 0.43391 0.06747 0.0
H1025 H 0.16761 0.50001 0.04729 0.0
H1026 H 0.1363 0.51175 0.03252 0.0
H1027 H 0.08916 0.50378 0.02544 0.0
H1028 H 0.0193 0.43879 0.04628 0.0
H1029 H 0.0505 0.42645 0.06074 0.0
C1030 C 0.10616 0.45106 0.05997 0.0
C1031 C 0.13509 0.46587 0.05848 0.0
C1032 C 0.08801 0.45799 0.05159 0.0
C1033 C 0.14547 0.48782 0.04849 0.0
C1034 C 0.12757 0.49472 0.04009 0.0
C1035 C 0.08068 0.48685 0.0331 0.0
C1036 C 0.05182 0.47225 0.03469 0.0
C1037 C 0.0988 0.47994 0.04151 0.0
C1038 C 0.04138 0.45047 0.04479 0.0
C1039 C 0.05923 0.44336 0.05309 0.0
H1040 H 0.54452 0.6793 0.0368 0.0
H1041 H 0.62371 0.68806 0.05376 0.0
H1042 H 0.60848 0.64138 0.04147 0.0
H1043 H 0.57226 0.59769 0.0267 0.0
H1044 H 0.49324 0.58902 0.00936 0.0
H1045 H 0.50906 0.63632 0.02081 0.0
C1046 C 0.55862 0.67118 0.03758 0.0
C1047 C 0.58516 0.68711 0.04625 0.0
C1048 C 0.54976 0.64436 0.03046 0.0
C1049 C 0.60302 0.67608 0.04736 0.0
C1050 C 0.59438 0.64944 0.04028 0.0
C1051 C 0.55849 0.60614 0.02537 0.0
C1052 C 0.53156 0.58978 0.01725 0.0
C1053 C 0.56769 0.6333 0.03197 0.0
C1054 C 0.51408 0.60115 0.01555 0.0
C1055 C 0.52309 0.62819 0.02212 0.0
H1056 H 0.86161 0.3311 0.96412 0.0
H1057 H 0.92866 0.32512 0.94404 0.0
H1058 H 0.96244 0.37123 0.95718 0.0
H1059 H 0.973 0.41296 0.97488 0.0
H1060 H 0.90554 0.41766 0.99548 0.0
H1061 H 0.87203 0.37225 0.98179 0.0
C1062 C 0.88365 0.3397 0.96276 0.0
C1063 C 0.89255 0.32457 0.95316 0.0
C1064 C 0.90295 0.36604 0.97047 0.0
C1065 C 0.92116 0.33639 0.95124 0.0
C1066 C 0.94052 0.36271 0.95882 0.0
C1067 C 0.95096 0.40408 0.97634 0.0
C1068 C 0.94189 0.41874 0.98626 0.0
C1069 C 0.93166 0.37772 0.9685 0.0
C1070 C 0.91322 0.40686 0.98801 0.0
C1071 C 0.89396 0.38085 0.98017 0.0
H1072 H 0.65449 0.56683 0.94347 0.0
H1073 H 0.66929 0.50892 0.96842 0.0
H1074 H 0.62925 0.49736 0.98374 0.0
H1075 H 0.58927 0.50308 0.98989 0.0
H1076 H 0.57372 0.5597 0.96397 0.0
H1077 H 0.61434 0.57192 0.94919 0.0
C1078 C 0.64885 0.55145 0.95211 0.0
C1079 C 0.66518 0.53895 0.95475 0.0
C1080 C 0.62549 0.54457 0.96079 0.0
C1081 C 0.65756 0.51934 0.96626 0.0
C1082 C 0.63448 0.51254 0.97499 0.0
C1083 C 0.59485 0.51819 0.98108 0.0
C1084 C 0.57833 0.53042 0.97814 0.0
C1085 C 0.61826 0.52503 0.97239 0.0
C1086 C 0.58587 0.54982 0.96653 0.0
C1087 C 0.60918 0.55689 0.95803 0.0
H1088 H 0.46953 0.13588 0.97607 0.0
H1089 H 0.39216 0.06335 0.95637 0.0
H1090 H 0.40867 0.03344 0.96653 0.0
H1091 H 0.44549 0.02781 0.98022 0.0
H1092 H 0.52216 0.10005 1.00096 0.0
H1093 H 0.50527 0.13015 0.99138 0.0
C1094 C 0.45607 0.11354 0.97424 0.0
C1095 C 0.42975 0.10193 0.96531 0.0
C1096 C 0.46558 0.0964 0.98024 0.0
C1097 C 0.41273 0.07289 0.96291 0.0
C1098 C 0.42209 0.05574 0.96877 0.0
C1099 C 0.45853 0.05014 0.98265 0.0
C1100 C 0.48513 0.06169 0.99116 0.0
C1101 C 0.44861 0.06727 0.97726 0.0
C1102 C 0.5016 0.09065 0.99441 0.0
C1103 C 0.49197 0.10787 0.98893 0.0
H1104 H 0.68374 0.11727 0.97471 0.0
H1105 H 0.63783 0.09603 0.92726 0.0
H1106 H 0.59416 0.06896 0.93926 0.0
H1107 H 0.56895 0.05163 0.96307 0.0
H1108 H 0.61422 0.07308 0.01073 0.0
H1109 H 0.65817 0.10021 0.99879 0.0
C1110 C 0.66417 0.10693 0.967 0.0
C1111 C 0.66418 0.10867 0.95007 0.0
C1112 C 0.639 0.09158 0.97402 0.0
C1113 C 0.63858 0.09473 0.94027 0.0
C1114 C 0.61353 0.07941 0.94714 0.0
C1115 C 0.58837 0.06231 0.97092 0.0
C1116 C 0.5882 0.06036 0.98782 0.0
C1117 C 0.6135 0.07772 0.96398 0.0
C1118 C 0.61367 0.07426 0.99771 0.0
C1119 C 0.63884 0.08975 0.99088 0.0
H1120 H 0.86651 0.52878 0.97027 0.0
H1121 H 0.91616 0.55717 0.92971 0.0
H1122 H 0.95008 0.54675 0.94246 0.0
H1123 H 0.96639 0.53033 0.96552 0.0
H1124 H 0.91856 0.50642 0.00698 0.0
H1125 H 0.88379 0.51511 0.99367 0.0
C1126 C 0.88494 0.53327 0.96426 0.0
C1127 C 0.88843 0.54376 0.94894 0.0
C1128 C 0.90495 0.52814 0.9719 0.0
C1129 C 0.91234 0.5486 0.94132 0.0
C1130 C 0.93201 0.54288 0.94868 0.0
C1131 C 0.94835 0.52705 0.97161 0.0
C1132 C 0.94511 0.51774 0.98722 0.0
C1133 C 0.92857 0.53266 0.964 0.0
C1134 C 0.92171 0.51377 0.99502 0.0
C1135 C 0.90172 0.51864 0.98738 0.0
H1136 H 0.4403 0.32641 0.98157 0.0
H1137 H 0.45229 0.345 0.93174 0.0
H1138 H 0.47063 0.39405 0.93999 0.0
H1139 H 0.48248 0.43153 0.9612 0.0
H1140 H 0.47108 0.41334 0.01115 0.0
H1141 H 0.45362 0.36436 1.00301 0.0
C1142 C 0.44722 0.34126 0.97256 0.0
C1143 C 0.44472 0.33202 0.95606 0.0
C1144 C 0.45781 0.3695 0.97738 0.0
C1145 C 0.45354 0.35149 0.94449 0.0
C1146 C 0.46416 0.37957 0.9492 0.0
C1147 C 0.47622 0.41689 0.97033 0.0
C1148 C 0.47799 0.42612 0.98675 0.0
C1149 C 0.46618 0.38877 0.96559 0.0
C1150 C 0.4699 0.40683 0.99841 0.0
C1151 C 0.45989 0.37879 0.99378 0.0
H1152 H 0.12011 0.65483 0.07206 0.0
H1153 H 0.13642 0.68751 0.02535 0.0
H1154 H 0.10222 0.64197 0.01179 0.0
H1155 H 0.06725 0.59313 0.0132 0.0
H1156 H 0.04997 0.5608 0.05999 0.0
H1157 H 0.08464 0.60616 0.0735 0.0
C1158 C 0.116 0.65211 0.05892 0.0
C1159 C 0.13086 0.67464 0.04976 0.0
C1160 C 0.09603 0.62597 0.05121 0.0
C1161 C 0.1256 0.6705 0.03271 0.0
C1162 C 0.10588 0.6445 0.02494 0.0
C1163 C 0.07101 0.59595 0.02636 0.0
C1164 C 0.05595 0.57352 0.03554 0.0
C1165 C 0.09095 0.62211 0.03407 0.0
C1166 C 0.06116 0.57766 0.05259 0.0
C1167 C 0.08104 0.60361 0.06035 0.0
H1168 H 0.33808 0.45481 0.03967 0.0
H1169 H 0.38583 0.48248 0.08669 0.0
H1170 H 0.42842 0.49419 0.07383 0.0
H1171 H 0.45245 0.49785 0.04906 0.0
H1172 H 0.40423 0.47089 1.00213 0.0
H1173 H 0.36181 0.45818 0.01514 0.0
C1174 C 0.35781 0.46365 0.04714 0.0
C1175 C 0.35858 0.46782 0.06416 0.0
C1176 C 0.38231 0.47066 0.03966 0.0
C1177 C 0.3844 0.47873 0.07359 0.0
C1178 C 0.40887 0.48564 0.06622 0.0
C1179 C 0.43269 0.48918 0.04166 0.0
C1180 C 0.43177 0.48548 0.02458 0.0
C1181 C 0.40812 0.48185 0.04924 0.0
C1182 C 0.4058 0.47411 0.01527 0.0
C1183 C 0.38141 0.46678 0.0227 0.0
H1184 H 0.57691 0.89525 0.03166 0.0
H1185 H 0.55474 0.90742 0.07937 0.0
H1186 H 0.53616 0.93543 0.06885 0.0
H1187 H 0.52662 0.95676 0.04637 0.0
H1188 H 0.54793 0.94451 0.99841 0.0
H1189 H 0.56589 0.91567 0.00875 0.0
C1190 C 0.56776 0.9038 0.03972 0.0
C1191 C 0.56744 0.89939 0.05632 0.0
C1192 C 0.55686 0.91975 0.03356 0.0
C1193 C 0.55578 0.91091 0.06662 0.0
C1194 C 0.54494 0.92676 0.0606 0.0
C1195 C 0.5351 0.94776 0.03811 0.0
C1196 C 0.53599 0.9529 0.02163 0.0
C1197 C 0.54549 0.9314 0.04412 0.0
C1198 C 0.54697 0.9409 0.01115 0.0
C1199 C 0.55731 0.92447 0.01706 0.0
H1200 H 0.0109 0.20852 0.36873 0.0
H1201 H 0.04303 0.25625 0.41567 0.0
H1202 H 0.08584 0.2886 0.40458 0.0
H1203 H 0.1145 0.30338 0.38175 0.0
H1204 H 0.08451 0.25405 0.33537 0.0
H1205 H 0.04082 0.22188 0.34622 0.0
C1206 C 0.02733 0.22573 0.37665 0.0
C1207 C 0.0233 0.22987 0.39305 0.0
C1208 C 0.05241 0.24396 0.37031 0.0
C1209 C 0.04495 0.25272 0.40294 0.0
C1210 C 0.06968 0.27118 0.39664 0.0
C1211 C 0.0984 0.28562 0.37398 0.0
C1212 C 0.10267 0.28125 0.35772 0.0
C1213 C 0.0736 0.26705 0.38036 0.0
C1214 C 0.08176 0.25789 0.34792 0.0
C1215 C 0.05675 0.23954 0.35411 0.0
H1216 H 0.78439 0.80019 0.40736 0.0
H1217 H 0.80131 0.77261 0.36186 0.0
H1218 H 0.76818 0.78218 0.3471 0.0
H1219 H 0.73402 0.79808 0.3471 0.0
H1220 H 0.71657 0.82454 0.39284 0.0
H1221 H 0.74994 0.81536 0.40742 0.0
C1222 C 0.78063 0.79596 0.39423 0.0
C1223 C 0.79541 0.78571 0.38577 0.0
C1224 C 0.76138 0.8013 0.38581 0.0
C1225 C 0.79055 0.78085 0.3687 0.0
C1226 C 0.77147 0.78617 0.36024 0.0
C1227 C 0.73753 0.80189 0.36025 0.0
C1228 C 0.72272 0.81202 0.36879 0.0
C1229 C 0.75677 0.79644 0.36866 0.0
C1230 C 0.72756 0.81672 0.38587 0.0
C1231 C 0.7467 0.81149 0.39427 0.0
H1232 H 0.24102 0.99424 0.39813 0.0
H1233 H 0.27272 0.02996 0.35374 0.0
H1234 H 0.25463 0.98364 0.33987 0.0
H1235 H 0.22857 0.93313 0.34016 0.0
H1236 H 0.19741 0.89748 0.3847 0.0
H1237 H 0.21703 0.94382 0.39879 0.0
C1238 C 0.24444 0.99195 0.3855 0.0
C1239 C 0.25818 0.01553 0.37698 0.0
C1240 C 0.23402 0.96531 0.37763 0.0
C1241 C 0.26194 0.01213 0.36053 0.0
C1242 C 0.25168 0.98567 0.35261 0.0
C1243 C 0.2261 0.93545 0.35297 0.0
C1244 C 0.21137 0.91185 0.36133 0.0
C1245 C 0.23741 0.96213 0.36099 0.0
C1246 C 0.2086 0.91528 0.37795 0.0
C1247 C 0.21978 0.94177 0.38602 0.0
H1248 H 0.54991 0.64811 0.30804 0.0
H1249 H 0.55562 0.67984 0.26119 0.0
H1250 H 0.58859 0.72664 0.27357 0.0
H1251 H 0.61488 0.75877 0.29777 0.0
H1252 H 0.60816 0.72718 0.34476 0.0
H1253 H 0.57631 0.68023 0.33224 0.0
C1254 C 0.5582 0.66529 0.30055 0.0
C1255 C 0.55029 0.66042 0.28371 0.0
C1256 C 0.57694 0.69222 0.30777 0.0
C1257 C 0.56162 0.6829 0.27415 0.0
C1258 C 0.58035 0.70972 0.28123 0.0
C1259 C 0.60656 0.74163 0.30528 0.0
C1260 C 0.61391 0.74656 0.32219 0.0
C1261 C 0.58808 0.71464 0.29803 0.0
C1262 C 0.60284 0.72405 0.33172 0.0
C1263 C 0.5846 0.69715 0.32458 0.0
H1264 H 0.33491 0.85566 0.30247 0.0
H1265 H 0.31206 0.88935 0.26252 0.0
H1266 H 0.26918 0.87916 0.27419 0.0
H1267 H 0.2382 0.8613 0.29576 0.0
H1268 H 0.26231 0.83132 0.33699 0.0
H1269 H 0.305 0.84016 0.32498 0.0
C1270 C 0.32085 0.86119 0.29638 0.0
C1271 C 0.32687 0.87299 0.28144 0.0
C1272 C 0.29641 0.85605 0.30343 0.0
C1273 C 0.3079 0.87956 0.27375 0.0
C1274 C 0.28338 0.874 0.28051 0.0
C1275 C 0.25273 0.85659 0.30211 0.0
C1276 C 0.24697 0.84543 0.31718 0.0
C1277 C 0.27739 0.86219 0.2953 0.0
C1278 C 0.26626 0.83991 0.32537 0.0
C1279 C 0.29063 0.84491 0.31849 0.0
H1280 H 0.11104 0.44952 0.31559 0.0
H1281 H 0.08295 0.39924 0.26944 0.0
H1282 H 0.10266 0.37154 0.27903 0.0
H1283 H 0.12912 0.36247 0.30027 0.0
H1284 H 0.15996 0.4152 0.34554 0.0
H1285 H 0.13859 0.4416 0.3363 0.0
C1286 C 0.10952 0.43277 0.30749 0.0
C1287 C 0.09554 0.42659 0.29179 0.0
C1288 C 0.12159 0.41748 0.31288 0.0
C1289 C 0.0932 0.40428 0.28168 0.0
C1290 C 0.10469 0.38855 0.28709 0.0
C1291 C 0.13109 0.37971 0.30811 0.0
C1292 C 0.14606 0.38686 0.32355 0.0
C1293 C 0.11906 0.39506 0.30264 0.0
C1294 C 0.14869 0.40939 0.33354 0.0
C1295 C 0.13639 0.42443 0.3283 0.0
H1296 H 0.3409 0.46464 0.30639 0.0
H1297 H 0.30934 0.40509 0.26384 0.0
H1298 H 0.26734 0.37577 0.27657 0.0
H1299 H 0.2395 0.36662 0.29969 0.0
H1300 H 0.2723 0.4234 0.34328 0.0
H1301 H 0.31439 0.45378 0.33038 0.0
C1302 C 0.32517 0.44505 0.29994 0.0
C1303 C 0.32844 0.43749 0.28399 0.0
C1304 C 0.30131 0.42765 0.30757 0.0
C1305 C 0.30733 0.41208 0.27588 0.0
C1306 C 0.28331 0.39504 0.28323 0.0
C1307 C 0.25586 0.38568 0.30638 0.0
C1308 C 0.25273 0.39294 0.32235 0.0
C1309 C 0.28006 0.40267 0.29902 0.0
C1310 C 0.27427 0.4174 0.33097 0.0
C1311 C 0.29826 0.43478 0.32358 0.0
H1312 H 0.52447 0.84602 0.29787 0.0
H1313 H 0.59027 0.91165 0.2749 0.0
H1314 H 0.62443 0.90204 0.28831 0.0
H1315 H 0.6358 0.87545 0.30697 0.0
H1316 H 0.56983 0.81094 0.33054 0.0
H1317 H 0.53579 0.82002 0.31668 0.0
C1318 C 0.54632 0.8585 0.29593 0.0
C1319 C 0.55468 0.87957 0.28538 0.0
C1320 C 0.56593 0.85311 0.30384 0.0
C1321 C 0.58309 0.89507 0.28278 0.0
C1322 C 0.60271 0.8897 0.29054 0.0
C1323 C 0.61399 0.86335 0.30907 0.0
C1324 C 0.60551 0.84258 0.31984 0.0
C1325 C 0.59438 0.86879 0.30111 0.0
C1326 C 0.57709 0.82715 0.32239 0.0
C1327 C 0.55752 0.83229 0.31445 0.0
H1328 H 0.09136 0.66563 0.27954 0.0
H1329 H 0.11008 0.64014 0.32463 0.0
H1330 H 0.13223 0.68768 0.33714 0.0
H1331 H 0.14639 0.73646 0.33535 0.0
H1332 H 0.12498 0.76162 0.291 0.0
H1333 H 0.10327 0.71403 0.27821 0.0
C1334 C 0.09987 0.67032 0.29218 0.0
C1335 C 0.09922 0.64927 0.30105 0.0
C1336 C 0.11211 0.69764 0.29944 0.0
C1337 C 0.11077 0.65596 0.31736 0.0
C1338 C 0.1233 0.68313 0.32459 0.0
C1339 C 0.13706 0.73153 0.32286 0.0
C1340 C 0.13744 0.75247 0.31408 0.0
C1341 C 0.12424 0.70414 0.31571 0.0
C1342 C 0.1249 0.74577 0.298 0.0
C1343 C 0.11253 0.71862 0.29069 0.0
H1344 H 0.76487 0.99947 0.39515 0.0
H1345 H 0.8316 0.99964 0.3707 0.0
H1346 H 0.79918 0.95341 0.35736 0.0
H1347 H 0.75248 0.91234 0.35342 0.0
H1348 H 0.68599 0.91121 0.37863 0.0
H1349 H 0.71794 0.95829 0.39111 0.0
C1350 C 0.77241 0.98934 0.38699 0.0
C1351 C 0.80071 0.00309 0.38398 0.0
C1352 C 0.75375 0.96252 0.37958 0.0
C1353 C 0.8099 0.98979 0.3731 0.0
C1354 C 0.79142 0.96323 0.36556 0.0
C1355 C 0.74488 0.92234 0.36162 0.0
C1356 C 0.71683 0.90815 0.3651 0.0
C1357 C 0.76337 0.94932 0.36882 0.0
C1358 C 0.70745 0.92155 0.37576 0.0
C1359 C 0.72572 0.94851 0.38289 0.0
H1360 H 0.0215 0.82112 0.37769 0.0
H1361 H 0.02515 0.75826 0.40402 0.0
H1362 H 0.06647 0.76602 0.3911 0.0
H1363 H 0.10101 0.78981 0.37201 0.0
H1364 H 0.09681 0.85162 0.34488 0.0
H1365 H 0.05594 0.84464 0.35822 0.0
C1366 C 0.03112 0.80889 0.3805 0.0
C1367 C 0.0201 0.78915 0.39189 0.0
C1368 C 0.05471 0.81312 0.3728 0.0
C1369 C 0.03331 0.77391 0.39555 0.0
C1370 C 0.05685 0.77816 0.38805 0.0
C1371 C 0.09118 0.80175 0.36894 0.0
C1372 C 0.10201 0.82115 0.35737 0.0
C1373 C 0.06767 0.79762 0.37662 0.0
C1374 C 0.08895 0.83648 0.35367 0.0
C1375 C 0.06556 0.83253 0.36132 0.0
H1376 H 0.25443 0.25728 0.39659 0.0
H1377 H 0.22374 0.19554 0.35528 0.0
H1378 H 0.20581 0.22126 0.3409 0.0
H1379 H 0.19681 0.26046 0.34057 0.0
H1380 H 0.2245 0.31946 0.38309 0.0
H1381 H 0.24503 0.29535 0.39651 0.0
C1382 C 0.24352 0.24916 0.38453 0.0
C1383 C 0.24043 0.22439 0.37713 0.0
C1384 C 0.23252 0.26354 0.37652 0.0
C1385 C 0.22684 0.21474 0.36127 0.0
C1386 C 0.21634 0.22933 0.35305 0.0
C1387 C 0.20748 0.26803 0.35272 0.0
C1388 C 0.20901 0.29161 0.36083 0.0
C1389 C 0.21883 0.25366 0.36061 0.0
C1390 C 0.22276 0.30116 0.37663 0.0
C1391 C 0.23461 0.28745 0.38433 0.0
H1392 H 0.66839 0.55392 0.69813 0.0
H1393 H 0.71142 0.57451 0.74641 0.0
H1394 H 0.75583 0.60302 0.73546 0.0
H1395 H 0.7824 0.62168 0.71236 0.0
H1396 H 0.74013 0.60096 0.66387 0.0
H1397 H 0.69543 0.57235 0.67475 0.0
C1398 C 0.68751 0.56445 0.70624 0.0
C1399 C 0.6865 0.56212 0.72309 0.0
C1400 C 0.71309 0.5806 0.69984 0.0
C1401 C 0.71147 0.57627 0.73344 0.0
C1402 C 0.73692 0.59241 0.72718 0.0
C1403 C 0.76349 0.61091 0.7041 0.0
C1404 C 0.76469 0.6135 0.68729 0.0
C1405 C 0.73796 0.59468 0.71042 0.0
C1406 C 0.73986 0.59931 0.67684 0.0
C1407 C 0.71428 0.583 0.68306 0.0
H1408 H 0.42502 0.09637 0.72911 0.0
H1409 H 0.49563 0.15889 0.70747 0.0
H1410 H 0.46551 0.17234 0.69292 0.0
H1411 H 0.41925 0.16673 0.68645 0.0
H1412 H 0.3487 0.10509 0.70859 0.0
H1413 H 0.3787 0.09117 0.72288 0.0
C1414 C 0.43386 0.11311 0.72133 0.0
C1415 C 0.46255 0.12646 0.71935 0.0
C1416 C 0.41642 0.12092 0.71305 0.0
C1417 C 0.47356 0.14791 0.70904 0.0
C1418 C 0.45637 0.15574 0.70077 0.0
C1419 C 0.41036 0.15016 0.69434 0.0
C1420 C 0.38171 0.13698 0.69638 0.0
C1421 C 0.42776 0.14236 0.70264 0.0
C1422 C 0.37067 0.11566 0.70677 0.0
C1423 C 0.38782 0.10766 0.71497 0.0
H1424 H 0.87451 0.34061 0.70572 0.0
H1425 H 0.95192 0.34929 0.7263 0.0
H1426 H 0.93814 0.30292 0.71404 0.0
H1427 H 0.90364 0.25959 0.69811 0.0
H1428 H 0.82625 0.25101 0.67742 0.0
H1429 H 0.8407 0.29787 0.68895 0.0
C1430 C 0.88854 0.33252 0.70732 0.0
C1431 C 0.91417 0.34833 0.71692 0.0
C1432 C 0.88048 0.30587 0.70027 0.0
C1433 C 0.93193 0.33738 0.71911 0.0
C1434 C 0.92412 0.31092 0.71207 0.0
C1435 C 0.88994 0.26797 0.69606 0.0
C1436 C 0.86388 0.25176 0.68694 0.0
C1437 C 0.89833 0.2949 0.70275 0.0
C1438 C 0.84643 0.263 0.6844 0.0
C1439 C 0.85466 0.28981 0.691 0.0
H1440 H 0.19626 0.99441 0.63403 0.0
H1441 H 0.23693 0.01449 0.58977 0.0
H1442 H 0.27314 0.05928 0.60327 0.0
H1443 H 0.29229 0.09358 0.62748 0.0
H1444 H 0.24886 0.0742 0.67076 0.0
H1445 H 0.21434 0.02855 0.65766 0.0
C1446 C 0.21275 0.00867 0.6272 0.0
C1447 C 0.21366 0.00102 0.61086 0.0
C1448 C 0.23299 0.03464 0.63485 0.0
C1449 C 0.23578 0.0196 0.60242 0.0
C1450 C 0.25642 0.04534 0.61009 0.0
C1451 C 0.27532 0.07926 0.63402 0.0
C1452 C 0.27308 0.0872 0.65004 0.0
C1453 C 0.25514 0.05316 0.62629 0.0
C1454 C 0.25089 0.06862 0.65837 0.0
C1455 C 0.23118 0.04249 0.65091 0.0
H1456 H 0.98563 0.22959 0.60979 0.0
H1457 H 0.99911 0.16913 0.63265 0.0
H1458 H 0.95976 0.15769 0.64855 0.0
H1459 H 0.92118 0.16454 0.65591 0.0
H1460 H 0.90652 0.22349 0.63203 0.0
H1461 H 0.94631 0.23541 0.61649 0.0
C1462 C 0.97979 0.21365 0.61809 0.0
C1463 C 0.99553 0.20042 0.62004 0.0
C1464 C 0.95685 0.20685 0.62707 0.0
C1465 C 0.98777 0.18008 0.63107 0.0
C1466 C 0.96512 0.17337 0.64012 0.0
C1467 C 0.92676 0.18009 0.64736 0.0
C1468 C 0.91092 0.19318 0.64525 0.0
C1469 C 0.94955 0.18668 0.63827 0.0
C1470 C 0.91831 0.21307 0.63396 0.0
C1471 C 0.9411 0.21993 0.62504 0.0
H1472 H 0.78195 0.76618 0.617 0.0
H1473 H 0.75333 0.77725 0.66269 0.0
H1474 H 0.77384 0.75239 0.67569 0.0
H1475 H 0.79887 0.72641 0.67381 0.0
H1476 H 0.82673 0.71519 0.62777 0.0
H1477 H 0.80741 0.74106 0.6152 0.0
C1478 C 0.77997 0.76294 0.62977 0.0
C1479 C 0.76596 0.77334 0.63884 0.0
C1480 C 0.79171 0.74862 0.63712 0.0
C1481 C 0.76413 0.76953 0.65547 0.0
C1482 C 0.77577 0.75525 0.66289 0.0
C1483 C 0.80086 0.72977 0.66106 0.0
C1484 C 0.8142 0.71878 0.65178 0.0
C1485 C 0.78952 0.7446 0.65381 0.0
C1486 C 0.81653 0.7233 0.63524 0.0
C1487 C 0.80545 0.7381 0.628 0.0
H1488 H 0.99306 0.75483 0.61832 0.0
H1489 H 0.98232 0.82572 0.62651 0.0
H1490 H 0.94522 0.80024 0.64385 0.0
H1491 H 0.91432 0.75692 0.65583 0.0
H1492 H 0.92406 0.68566 0.64639 0.0
H1493 H 0.96295 0.71213 0.63048 0.0
C1494 C 0.98244 0.76464 0.62376 0.0
C1495 C 0.99044 0.79212 0.62105 0.0
C1496 C 0.96099 0.74982 0.63361 0.0
C1497 C 0.97677 0.80466 0.62849 0.0
C1498 C 0.95548 0.79008 0.63838 0.0
C1499 C 0.92532 0.74741 0.65051 0.0
C1500 C 0.91643 0.71944 0.65234 0.0
C1501 C 0.94732 0.76259 0.641 0.0
C1502 C 0.93051 0.70718 0.64515 0.0
C1503 C 0.9527 0.72226 0.636 0.0
H1504 H 0.21671 0.2225 0.63626 0.0
H1505 H 0.22627 0.19197 0.5894 0.0
H1506 H 0.26005 0.18112 0.60213 0.0
H1507 H 0.2852 0.17837 0.62676 0.0
H1508 H 0.27424 0.2078 0.67364 0.0
H1509 H 0.24245 0.2207 0.66069 0.0
C1510 C 0.22603 0.2133 0.62883 0.0
C1511 C 0.21881 0.20788 0.61192 0.0
C1512 C 0.24511 0.2068 0.63624 0.0
C1513 C 0.2316 0.19655 0.60243 0.0
C1514 C 0.25079 0.19018 0.60972 0.0
C1515 C 0.27597 0.18772 0.63415 0.0
C1516 C 0.28203 0.19195 0.65117 0.0
C1517 C 0.25748 0.19496 0.62663 0.0
C1518 C 0.26989 0.20415 0.66053 0.0
C1519 C 0.25168 0.21157 0.65314 0.0
H1520 H 0.78756 0.99272 0.64746 0.0
H1521 H 0.73628 0.99685 0.60767 0.0
H1522 H 0.75473 0.04582 0.61583 0.0
H1523 H 0.78554 0.08768 0.63413 0.0
H1524 H 0.83327 0.08275 0.67542 0.0
H1525 H 0.81561 0.03368 0.66698 0.0
C1526 C 0.77998 0.0041 0.6407 0.0
C1527 C 0.7608 0.99099 0.6268 0.0
C1528 C 0.79005 0.03217 0.64573 0.0
C1529 C 0.75159 0.00641 0.61815 0.0
C1530 C 0.76196 0.03444 0.62287 0.0
C1531 C 0.79211 0.07583 0.64123 0.0
C1532 C 0.81084 0.08872 0.65525 0.0
C1533 C 0.78135 0.04757 0.63655 0.0
C1534 C 0.81885 0.07315 0.66456 0.0
C1535 C 0.80879 0.04516 0.65973 0.0
H1536 H 0.45237 0.32109 0.73636 0.0
H1537 H 0.46537 0.35647 0.6904 0.0
H1538 H 0.43247 0.31096 0.67626 0.0
H1539 H 0.39947 0.26138 0.67701 0.0
H1540 H 0.38561 0.22629 0.72311 0.0
H1541 H 0.41917 0.27159 0.73714 0.0
C1542 C 0.4478 0.31892 0.72326 0.0
C1543 C 0.46128 0.34217 0.71446 0.0
C1544 C 0.42868 0.29277 0.71524 0.0
C1545 C 0.45552 0.33886 0.69746 0.0
C1546 C 0.4366 0.31288 0.68937 0.0
C1547 C 0.4038 0.26358 0.69013 0.0
C1548 C 0.38998 0.24044 0.69898 0.0
C1549 C 0.42303 0.28971 0.69814 0.0
C1550 C 0.39586 0.24374 0.71598 0.0
C1551 C 0.41507 0.26964 0.72403 0.0
H1552 H 0.6998 0.114 0.73443 0.0
H1553 H 0.65831 0.13371 0.69611 0.0
H1554 H 0.69763 0.1469 0.68008 0.0
H1555 H 0.74436 0.15376 0.67693 0.0
H1556 H 0.78748 0.13788 0.71614 0.0
H1557 H 0.74736 0.123 0.73187 0.0
C1558 C 0.69939 0.12149 0.72267 0.0
C1559 C 0.6757 0.1224 0.71652 0.0
C1560 C 0.72254 0.12993 0.71363 0.0
C1561 C 0.67573 0.13193 0.7011 0.0
C1562 C 0.69841 0.1398 0.69192 0.0
C1563 C 0.74491 0.14694 0.68889 0.0
C1564 C 0.76884 0.14686 0.69531 0.0
C1565 C 0.72192 0.13886 0.69804 0.0
C1566 C 0.76937 0.13828 0.71092 0.0
C1567 C 0.74638 0.12968 0.71993 0.0
H1568 H 0.87578 0.53652 0.70386 0.0
H1569 H 0.94636 0.60698 0.73139 0.0
H1570 H 0.93338 0.63815 0.71919 0.0
H1571 H 0.90161 0.64537 0.70135 0.0
H1572 H 0.8313 0.57542 0.67331 0.0
H1573 H 0.84494 0.54408 0.68487 0.0
C1574 C 0.88854 0.55872 0.70702 0.0
C1575 C 0.91189 0.56936 0.71863 0.0
C1576 C 0.88104 0.5766 0.69989 0.0
C1577 C 0.928 0.59818 0.72272 0.0
C1578 C 0.92069 0.61605 0.71569 0.0
C1579 C 0.88922 0.62328 0.6977 0.0
C1580 C 0.86535 0.61276 0.68655 0.0
C1581 C 0.89713 0.60546 0.70439 0.0
C1582 C 0.84977 0.58408 0.68188 0.0
C1583 C 0.85752 0.56615 0.68851 0.0
H1584 H 0.51661 0.98357 0.17246 0.0
H1585 H 0.43035 0.92696 0.1551 0.0
H1586 H 0.43835 0.94544 0.12863 0.0
H1587 H 0.46996 0.9775 0.1103 0.0
H1588 H 0.55651 0.03312 0.12755 0.0
H1589 H 0.54824 0.01519 0.15412 0.0
C1590 C 0.4996 0.97506 0.16285 0.0
C1591 C 0.47292 0.95384 0.16581 0.0
C1592 C 0.50437 0.98567 0.14761 0.0
C1593 C 0.45103 0.94349 0.15326 0.0
C1594 C 0.45562 0.95394 0.13807 0.0
C1595 C 0.48707 0.98555 0.11982 0.0
C1596 C 0.51382 0.00671 0.11688 0.0
C1597 C 0.48222 0.975 0.13509 0.0
C1598 C 0.53562 0.01715 0.1295 0.0
C1599 C 0.53096 0.00677 0.14468 0.0
H1600 H 0.96407 0.50322 0.17966 0.0
H1601 H 0.99841 0.44888 0.17739 0.0
H1602 H 0.98881 0.4417 0.1479 0.0
H1603 H 0.974 0.45357 0.1226 0.0
H1604 H 0.94193 0.50973 0.12464 0.0
H1605 H 0.94798 0.51405 0.15436 0.0
C1606 C 0.96951 0.48985 0.17272 0.0
C1607 C 0.98197 0.47666 0.18078 0.0
C1608 C 0.96468 0.48641 0.1557 0.0
C1609 C 0.9884 0.45898 0.17158 0.0
C1610 C 0.98319 0.45507 0.15468 0.0
C1611 C 0.96798 0.46644 0.12957 0.0
C1612 C 0.95763 0.48138 0.12148 0.0
C1613 C 0.97175 0.46902 0.1466 0.0
C1614 C 0.95026 0.49829 0.13063 0.0
C1615 C 0.9536 0.50067 0.1476 0.0
H1616 H 0.51027 0.50555 0.16872 0.0
H1617 H 0.42425 0.47793 0.15303 0.0
H1618 H 0.43246 0.47108 0.12486 0.0
H1619 H 0.46491 0.47584 0.10451 0.0
H1620 H 0.5515 0.50598 0.12038 0.0
H1621 H 0.54214 0.5087 0.14862 0.0
C1622 C 0.49331 0.49808 0.15913 0.0
C1623 C 0.46676 0.49253 0.16297 0.0
C1624 C 0.49829 0.49464 0.14297 0.0
C1625 C 0.44486 0.48222 0.15044 0.0
C1626 C 0.44959 0.47849 0.13431 0.0
C1627 C 0.48174 0.48303 0.11414 0.0
C1628 C 0.5089 0.49075 0.11025 0.0
C1629 C 0.47635 0.48509 0.1304 0.0
C1630 C 0.53033 0.49953 0.12295 0.0
C1631 C 0.52506 0.50134 0.13913 0.0
H1632 H 1.00186 0.47349 0.844 0.0
H1633 H 0.97117 0.53067 0.84917 0.0
H1634 H 0.98481 0.53838 0.87836 0.0
H1635 H 0.00429 0.52797 0.90257 0.0
H1636 H 0.03267 0.46905 0.89763 0.0
H1637 H 0.02033 0.46232 0.86821 0.0
C1638 C 0.99781 0.4874 0.8515 0.0
C1639 C 0.9855 0.50148 0.84431 0.0
C1640 C 0.00512 0.49128 0.86834 0.0
C1641 C 0.98101 0.51987 0.85426 0.0
C1642 C 0.98859 0.52414 0.87101 0.0
C1643 C 0.00793 0.51381 0.89501 0.0
C1644 C 0.01944 0.49909 0.9022 0.0
C1645 C 1.00058 0.5099 0.87817 0.0
C1646 C 0.02366 0.48047 0.89235 0.0
C1647 C 0.01672 0.47671 0.87555 0.0
H1648 H 0.49051 0.48824 0.83178 0.0
H1649 H 0.57812 0.52458 0.84751 0.0
H1650 H 0.56927 0.53202 0.87541 0.0
H1651 H 0.53637 0.52661 0.8955 0.0
H1652 H 0.44849 0.48823 0.87984 0.0
H1653 H 0.45777 0.48318 0.85176 0.0
C1654 C 0.50767 0.49764 0.84132 0.0
C1655 C 0.53492 0.50569 0.83754 0.0
C1656 C 0.50238 0.50146 0.85736 0.0
C1657 C 0.55698 0.51841 0.85002 0.0
C1658 C 0.55191 0.5225 0.86601 0.0
C1659 C 0.51922 0.51698 0.88596 0.0
C1660 C 0.49176 0.50776 0.88981 0.0
C1661 C 0.52465 0.51382 0.86984 0.0
C1662 C 0.46986 0.49581 0.87723 0.0
C1663 C 0.47512 0.49274 0.86117 0.0
H1664 H 0.52522 0.07122 0.84986 0.0
H1665 H 0.54746 0.01137 0.8322 0.0
H1666 H 0.53808 0.9907 0.85797 0.0
H1667 H 0.52263 0.98888 0.88532 0.0
H1668 H 0.50083 0.04898 0.90318 0.0
H1669 H 0.51023 0.06971 0.87742 0.0
C1670 C 0.52784 0.05354 0.85161 0.0
C1671 C 0.53711 0.04296 0.83907 0.0
C1672 C 0.52226 0.0416 0.86647 0.0
C1673 C 0.54075 0.02025 0.84168 0.0
C1674 C 0.5352 0.00826 0.85639 0.0
C1675 C 0.52019 0.00669 0.88368 0.0
C1676 C 0.51093 0.01723 0.89624 0.0
C1677 C 0.52592 0.01874 0.86887 0.0
C1678 C 0.50748 0.04008 0.89369 0.0
C1679 C 0.51306 0.05211 0.87898 0.0
H1680 H 0.17738 0.32289 0.50685 0.0
H1681 H 0.09102 0.26691 0.48947 0.0
H1682 H 0.09901 0.2861 0.46317 0.0
H1683 H 0.13097 0.31778 0.44481 0.0
H1684 H 0.21766 0.37262 0.46213 0.0
H1685 H 0.20905 0.3549 0.48873 0.0
C1686 C 0.16032 0.31476 0.49729 0.0
C1687 C 0.13368 0.29336 0.50012 0.0
C1688 C 0.16512 0.32571 0.48217 0.0
C1689 C 0.11168 0.28351 0.48768 0.0
C1690 C 0.11628 0.29436 0.4726 0.0
C1691 C 0.14801 0.32577 0.45439 0.0
C1692 C 0.17494 0.34652 0.45143 0.0
C1693 C 0.14298 0.31529 0.46966 0.0
C1694 C 0.19666 0.35693 0.46409 0.0
C1695 C 0.1918 0.34667 0.47929 0.0
H1696 H 0.68885 0.81006 0.50755 0.0
H1697 H 0.61423 0.8103 0.51918 0.0
H1698 H 0.59977 0.80638 0.49025 0.0
H1699 H 0.60979 0.80581 0.46181 0.0
H1700 H 0.68418 0.80505 0.4501 0.0
H1701 H 0.69737 0.80645 0.47894 0.0
C1702 C 0.66917 0.80871 0.50373 0.0
C1703 C 0.65267 0.81054 0.51547 0.0
C1704 C 0.66114 0.80676 0.4871 0.0
C1705 C 0.62742 0.8092 0.51035 0.0
C1706 C 0.61914 0.80695 0.49383 0.0
C1707 C 0.62867 0.80551 0.46553 0.0
C1708 C 0.64604 0.80551 0.4538 0.0
C1709 C 0.63607 0.80619 0.48211 0.0
C1710 C 0.67066 0.80556 0.45889 0.0
C1711 C 0.67814 0.80616 0.47537 0.0
H1712 H 0.16381 0.82635 0.50286 0.0
H1713 H 0.08127 0.80901 0.4859 0.0
H1714 H 0.08907 0.79971 0.45802 0.0
H1715 H 0.12053 0.79939 0.43824 0.0
H1716 H 0.20388 0.81916 0.45538 0.0
H1717 H 0.19455 0.82465 0.48335 0.0
C1718 C 0.14752 0.82057 0.49307 0.0
C1719 C 0.12209 0.81863 0.49647 0.0
C1720 C 0.15234 0.81582 0.47706 0.0
C1721 C 0.10097 0.81047 0.48367 0.0
C1722 C 0.10551 0.80539 0.46769 0.0
C1723 C 0.13668 0.80498 0.44809 0.0
C1724 C 0.1629 0.8089 0.44465 0.0
C1725 C 0.13131 0.80849 0.4642 0.0
C1726 C 0.1834 0.81567 0.45763 0.0
C1727 C 0.17816 0.81901 0.47365 0.0
H1728 H 0.63703 0.8445 0.18182 0.0
H1729 H 0.70639 0.83456 0.16991 0.0
H1730 H 0.72029 0.83726 0.19878 0.0
H1731 H 0.71182 0.8408 0.22733 0.0
H1732 H 0.64314 0.85184 0.23935 0.0
H1733 H 0.62984 0.85023 0.2105 0.0
C1734 C 0.65543 0.84334 0.18555 0.0
C1735 C 0.67058 0.83924 0.17372 0.0
C1736 C 0.66328 0.84486 0.20218 0.0
C1737 C 0.69414 0.83736 0.17876 0.0
C1738 C 0.70216 0.83899 0.19527 0.0
C1739 C 0.69417 0.84325 0.22367 0.0
C1740 C 0.67847 0.84635 0.23552 0.0
C1741 C 0.68674 0.84248 0.20707 0.0
C1742 C 0.65535 0.849 0.2305 0.0
C1743 C 0.64783 0.84826 0.214 0.0
H1744 H 0.19964 0.80428 0.1798 0.0
H1745 H 0.20896 0.88102 0.16503 0.0
H1746 H 0.19727 0.89122 0.19165 0.0
H1747 H 0.18291 0.87753 0.21879 0.0
H1748 H 0.17489 0.80122 0.23363 0.0
H1749 H 0.18677 0.79134 0.20715 0.0
C1750 C 0.19899 0.82319 0.18239 0.0
C1751 C 0.20504 0.8418 0.17044 0.0
C1752 C 0.19217 0.82885 0.19766 0.0
C1753 C 0.20461 0.86645 0.17407 0.0
C1754 C 0.19775 0.8722 0.18924 0.0
C1755 C 0.18402 0.85887 0.21631 0.0
C1756 C 0.17772 0.84006 0.22821 0.0
C1757 C 0.19134 0.85347 0.20111 0.0
C1758 C 0.17899 0.81581 0.22464 0.0
C1759 C 0.18604 0.81023 0.20953 0.0
H1760 H 0.16694 0.35472 0.17406 0.0
H1761 H 0.25287 0.41471 0.19022 0.0
H1762 H 0.2464 0.39849 0.21727 0.0
H1763 H 0.21644 0.36715 0.23645 0.0
H1764 H 0.13033 0.30759 0.22044 0.0
H1765 H 0.1368 0.32377 0.19336 0.0
C1766 C 0.18421 0.36444 0.18353 0.0
C1767 C 0.2104 0.38592 0.18 0.0
C1768 C 0.18034 0.35502 0.19915 0.0
C1769 C 0.23259 0.39791 0.19244 0.0
C1770 C 0.22887 0.38874 0.20798 0.0
C1771 C 0.199 0.35786 0.22709 0.0
C1772 C 0.17292 0.33611 0.23056 0.0
C1773 C 0.20285 0.3673 0.21149 0.0
C1774 C 0.15073 0.32409 0.21813 0.0
C1775 C 0.15437 0.33345 0.20263 0.0
H1776 H 0.84669 0.64764 0.83799 0.0
H1777 H 0.75924 0.59412 0.82209 0.0
H1778 H 0.76693 0.61149 0.79529 0.0
H1779 H 0.79871 0.6415 0.77614 0.0
H1780 H 0.88626 0.69434 0.79213 0.0
H1781 H 0.87828 0.67754 0.81899 0.0
C1782 C 0.82931 0.63958 0.82864 0.0
C1783 C 0.80241 0.61947 0.83212 0.0
C1784 C 0.8339 0.64957 0.81321 0.0
C1785 C 0.7801 0.60976 0.81988 0.0
C1786 C 0.78452 0.61957 0.80448 0.0
C1787 C 0.81609 0.64921 0.78547 0.0
C1788 C 0.84307 0.66925 0.78204 0.0
C1789 C 0.81136 0.6394 0.80097 0.0
C1790 C 0.86522 0.67923 0.79441 0.0
C1791 C 0.86071 0.66951 0.80979 0.0
H1792 H 0.30872 0.17193 0.84347 0.0
H1793 H 0.35555 0.12975 0.83832 0.0
H1794 H 0.34302 0.12168 0.80897 0.0
H1795 H 0.32173 0.12968 0.7846 0.0
H1796 H 0.27615 0.17313 0.78969 0.0
H1797 H 0.28581 0.17823 0.81923 0.0
C1798 C 0.31623 0.16102 0.83592 0.0
C1799 C 0.33316 0.1516 0.84308 0.0
C1800 C 0.30947 0.15698 0.81904 0.0
C1801 C 0.34225 0.13699 0.83316 0.0
C1802 C 0.3353 0.13257 0.81636 0.0
C1803 C 0.31356 0.13989 0.79219 0.0
C1804 C 0.29839 0.15115 0.78497 0.0
C1805 C 0.31929 0.14285 0.80914 0.0
C1806 C 0.28823 0.16464 0.79495 0.0
C1807 C 0.29363 0.16745 0.81184 0.0
H1808 H 0.85229 0.17049 0.83728 0.0
H1809 H 0.76585 0.14177 0.82206 0.0
H1810 H 0.77384 0.13538 0.79379 0.0
H1811 H 0.80614 0.14091 0.77322 0.0
H1812 H 0.89317 0.17238 0.78857 0.0
H1813 H 0.88411 0.17456 0.81692 0.0
C1814 C 0.83519 0.16289 0.82778 0.0
C1815 C 0.80857 0.15688 0.8318 0.0
C1816 C 0.84005 0.1598 0.81154 0.0
C1817 C 0.7865 0.1464 0.81936 0.0
C1818 C 0.79111 0.14294 0.80316 0.0
C1819 C 0.82315 0.14831 0.78276 0.0
C1820 C 0.85033 0.15655 0.77869 0.0
C1821 C 0.81792 0.15006 0.79908 0.0
C1822 C 0.87198 0.16556 0.79128 0.0
C1823 C 0.86687 0.16704 0.80752 0.0
H1824 H 0.34186 0.19628 0.50857 0.0
H1825 H 0.27506 0.11168 0.50832 0.0
H1826 H 0.28517 0.11332 0.53759 0.0
H1827 H 0.31413 0.13809 0.56304 0.0
H1828 H 0.38085 0.2228 0.56348 0.0
H1829 H 0.36973 0.22177 0.53437 0.0
C1830 C 0.3293 0.17836 0.51498 0.0
C1831 C 0.30783 0.15387 0.50628 0.0
C1832 C 0.33537 0.17936 0.53181 0.0
C1833 C 0.29193 0.13067 0.51471 0.0
C1834 C 0.29765 0.13161 0.53145 0.0
C1835 C 0.32603 0.15645 0.55682 0.0
C1836 C 0.34836 0.18043 0.56544 0.0
C1837 C 0.31951 0.15573 0.54009 0.0
C1838 C 0.36382 0.20391 0.5571 0.0
C1839 C 0.35736 0.2034 0.54047 0.0
H1840 H 0.86664 0.19256 0.50565 0.0
H1841 H 0.87571 0.12257 0.51612 0.0
H1842 H 0.8625 0.12489 0.54355 0.0
H1843 H 0.8463 0.14526 0.5641 0.0
H1844 H 0.83685 0.21518 0.554 0.0
H1845 H 0.85192 0.21424 0.52687 0.0
C1846 C 0.86607 0.1781 0.51405 0.0
C1847 C 0.87204 0.15737 0.50886 0.0
C1848 C 0.85806 0.17931 0.52979 0.0
C1849 C 0.87095 0.13855 0.51979 0.0
C1850 C 0.86341 0.13987 0.53547 0.0
C1851 C 0.84788 0.16055 0.55606 0.0
C1852 C 0.84043 0.18025 0.56111 0.0
C1853 C 0.85659 0.15992 0.54053 0.0
C1854 C 0.84211 0.19956 0.55037 0.0
C1855 C 0.85091 0.19915 0.53488 0.0
H1856 H 0.85811 0.73095 0.51651 0.0
H1857 H 0.87774 0.66974 0.49775 0.0
H1858 H 0.86797 0.64834 0.52332 0.0
H1859 H 0.8538 0.64694 0.5511 0.0
H1860 H 0.83414 0.70815 0.56979 0.0
H1861 H 0.8439 0.72951 0.54422 0.0
C1862 C 0.86005 0.7128 0.51797 0.0
C1863 C 0.86865 0.702 0.50519 0.0
C1864 C 0.85442 0.70059 0.53274 0.0
C1865 C 0.87146 0.6787 0.50742 0.0
C1866 C 0.86573 0.66635 0.52202 0.0
C1867 C 0.85146 0.66482 0.54952 0.0
C1868 C 0.84326 0.67591 0.56238 0.0
C1869 C 0.85718 0.67709 0.53477 0.0
C1870 C 0.84072 0.69936 0.56019 0.0
C1871 C 0.84617 0.71153 0.54553 0.0
loop_
_geom_bond_atom_site_label_1
_geom_bond_atom_site_label_2
_geom_bond_distance
_geom_bond_site_symmetry_2
_ccdc_geom_bond_type
C0 C1 1.384 . S
C0 H13 0.947 . S
C0 C35 1.382 . S
C1 C0 1.384 . S
C1 C2 1.378 . S
C2 C1 1.378 . S
C2 C3 1.378 . S
C2 H14 0.952 . S
C3 C2 1.378 . S
C3 H15 0.950 . S
C3 C34 1.383 . S
H4 C23 0.947 . S
H5 C24 0.946 . S
H6 C26 0.953 . S
H7 C27 0.945 . S
H8 C29 0.952 . S
H9 C30 0.949 . S
H10 C32 0.950 . S
H11 C33 0.948 . S
H12 C35 0.951 . S
H13 C0 0.947 . S
H14 C2 0.952 . S
H15 C3 0.950 . S
N16 C19 1.382 . S
N16 C21 1.363 . S
N17 C19 1.371 . S
N17 C20 1.372 . S
N18 C20 1.361 . S
N18 C21 1.377 . S
C19 N16 1.382 . S
C19 N17 1.371 . S
C19 C22 1.480 . S
C20 N17 1.372 . S
C20 N18 1.361 . S
C20 C28 1.457 . S
C21 N16 1.363 . S
C21 N18 1.377 . S
C21 C34 1.479 . S
C22 C19 1.480 . S
C22 C23 1.383 . S
C22 C27 1.385 . S
C23 H4 0.947 . S
C23 C22 1.383 . S
C23 C24 1.388 . S
C24 H5 0.946 . S
C24 C23 1.388 . S
C24 C25 1.384 . S
C25 C24 1.384 . S
C25 C26 1.377 . S
C26 H6 0.953 . S
C26 C25 1.377 . S
C26 C27 1.369 . S
C27 H7 0.945 . S
C27 C22 1.385 . S
C27 C26 1.369 . S
C28 C20 1.457 . S
C28 C29 1.372 . S
C28 C33 1.364 . S
C29 H8 0.952 . S
C29 C28 1.372 . S
C29 C30 1.389 . S
C30 H9 0.949 . S
C30 C29 1.389 . S
C30 C31 1.387 . S
C31 C30 1.387 . S
C31 C32 1.372 . S
C32 H10 0.950 . S
C32 C31 1.372 . S
C32 C33 1.379 . S
C33 H11 0.948 . S
C33 C28 1.364 . S
C33 C32 1.379 . S
C34 C3 1.383 . S
C34 C21 1.479 . S
C34 C35 1.398 . S
C35 C0 1.382 . S
C35 H12 0.951 . S
C35 C34 1.398 . S
C36 C37 1.384 . S
C36 H49 0.947 . S
C36 C71 1.382 . S
C37 C36 1.384 . S
C37 C38 1.378 . S
C38 C37 1.378 . S
C38 C39 1.378 . S
C38 H50 0.952 . S
C39 C38 1.378 . S
C39 H51 0.950 . S
C39 C70 1.383 . S
H40 C59 0.947 . S
H41 C60 0.946 . S
H42 C62 0.953 . S
H43 C63 0.945 . S
H44 C65 0.952 . S
H45 C66 0.949 . S
H46 C68 0.950 . S
H47 C69 0.948 . S
H48 C71 0.951 . S
H49 C36 0.947 . S
H50 C38 0.952 . S
H51 C39 0.950 . S
N52 C55 1.382 . S
N52 C57 1.363 . S
N53 C55 1.371 . S
N53 C56 1.372 . S
N54 C56 1.361 . S
N54 C57 1.377 . S
C55 N52 1.382 . S
C55 N53 1.371 . S
C55 C58 1.480 . S
C56 N53 1.372 . S
C56 N54 1.361 . S
C56 C64 1.457 . S
C57 N52 1.363 . S
C57 N54 1.377 . S
C57 C70 1.479 . S
C58 C55 1.480 . S
C58 C59 1.383 . S
C58 C63 1.385 . S
C59 H40 0.947 . S
C59 C58 1.383 . S
C59 C60 1.388 . S
C60 H41 0.946 . S
C60 C59 1.388 . S
C60 C61 1.384 . S
C61 C60 1.384 . S
C61 C62 1.377 . S
C62 H42 0.953 . S
C62 C61 1.377 . S
C62 C63 1.369 . S
C63 H43 0.945 . S
C63 C58 1.385 . S
C63 C62 1.369 . S
C64 C56 1.457 . S
C64 C65 1.372 . S
C64 C69 1.364 . S
C65 H44 0.952 . S
C65 C64 1.372 . S
C65 C66 1.389 . S
C66 H45 0.949 . S
C66 C65 1.389 . S
C66 C67 1.387 . S
C67 C66 1.387 . S
C67 C68 1.372 . S
C68 H46 0.950 . S
C68 C67 1.372 . S
C68 C69 1.379 . S
C69 H47 0.948 . S
C69 C64 1.364 . S
C69 C68 1.379 . S
C70 C39 1.383 . S
C70 C57 1.479 . S
C70 C71 1.398 . S
C71 C36 1.382 . S
C71 H48 0.951 . S
C71 C70 1.398 . S
C72 C73 1.384 . S
C72 H85 0.947 . S
C72 C107 1.382 . S
C73 C72 1.384 . S
C73 C74 1.378 . S
C74 C73 1.378 . S
C74 C75 1.378 . S
C74 H86 0.952 . S
C75 C74 1.378 . S
C75 H87 0.950 . S
C75 C106 1.383 . S
H76 C95 0.947 . S
H77 C96 0.946 . S
H78 C98 0.953 . S
H79 C99 0.945 . S
H80 C101 0.952 . S
H81 C102 0.949 . S
H82 C104 0.950 . S
H83 C105 0.948 . S
H84 C107 0.951 . S
H85 C72 0.947 . S
H86 C74 0.952 . S
H87 C75 0.950 . S
N88 C91 1.382 . S
N88 C93 1.363 . S
N89 C91 1.371 . S
N89 C92 1.372 . S
N90 C92 1.361 . S
N90 C93 1.377 . S
C91 N88 1.382 . S
C91 N89 1.371 . S
C91 C94 1.480 . S
C92 N89 1.372 . S
C92 N90 1.361 . S
C92 C100 1.457 . S
C93 N88 1.363 . S
C93 N90 1.377 . S
C93 C106 1.479 . S
C94 C91 1.480 . S
C94 C95 1.383 . S
C94 C99 1.385 . S
C95 H76 0.947 . S
C95 C94 1.383 . S
C95 C96 1.388 . S
C96 H77 0.946 . S
C96 C95 1.388 . S
C96 C97 1.384 . S
C97 C96 1.384 . S
C97 C98 1.377 . S
C98 H78 0.953 . S
C98 C97 1.377 . S
C98 C99 1.369 . S
C99 H79 0.945 . S
C99 C94 1.385 . S
C99 C98 1.369 . S
C100 C92 1.457 . S
C100 C101 1.372 . S
C100 C105 1.364 . S
C101 H80 0.952 . S
C101 C100 1.372 . S
C101 C102 1.389 . S
C102 H81 0.949 . S
C102 C101 1.389 . S
C102 C103 1.387 . S
C103 C102 1.387 . S
C103 C104 1.372 . S
C104 H82 0.950 . S
C104 C103 1.372 . S
C104 C105 1.379 . S
C105 H83 0.948 . S
C105 C100 1.364 . S
C105 C104 1.379 . S
C106 C75 1.383 . S
C106 C93 1.479 . S
C106 C107 1.398 . S
C107 C72 1.382 . S
C107 H84 0.951 . S
C107 C106 1.398 . S
C108 C109 1.384 . S
C108 H121 0.947 . S
C108 C143 1.382 . S
C109 C108 1.384 . S
C109 C110 1.378 . S
C110 C109 1.378 . S
C110 C111 1.378 . S
C110 H122 0.952 . S
C111 C110 1.378 . S
C111 H123 0.950 . S
C111 C142 1.383 . S
H112 C131 0.947 . S
H113 C132 0.946 . S
H114 C134 0.953 . S
H115 C135 0.945 . S
H116 C137 0.952 . S
H117 C138 0.949 . S
H118 C140 0.950 . S
H119 C141 0.948 . S
H120 C143 0.951 . S
H121 C108 0.947 . S
H122 C110 0.952 . S
H123 C111 0.950 . S
N124 C127 1.382 . S
N124 C129 1.363 . S
N125 C127 1.371 . S
N125 C128 1.372 . S
N126 C128 1.361 . S
N126 C129 1.377 . S
C127 N124 1.382 . S
C127 N125 1.371 . S
C127 C130 1.480 . S
C128 N125 1.372 . S
C128 N126 1.361 . S
C128 C136 1.457 . S
C129 N124 1.363 . S
C129 N126 1.377 . S
C129 C142 1.479 . S
C130 C127 1.480 . S
C130 C131 1.383 . S
C130 C135 1.385 . S
C131 H112 0.947 . S
C131 C130 1.383 . S
C131 C132 1.388 . S
C132 H113 0.946 . S
C132 C131 1.388 . S
C132 C133 1.384 . S
C133 C132 1.384 . S
C133 C134 1.377 . S
C134 H114 0.953 . S
C134 C133 1.377 . S
C134 C135 1.369 . S
C135 H115 0.945 . S
C135 C130 1.385 . S
C135 C134 1.369 . S
C136 C128 1.457 . S
C136 C137 1.372 . S
C136 C141 1.364 . S
C137 H116 0.952 . S
C137 C136 1.372 . S
C137 C138 1.389 . S
C138 H117 0.949 . S
C138 C137 1.389 . S
C138 C139 1.387 . S
C139 C138 1.387 . S
C139 C140 1.372 . S
C140 H118 0.950 . S
C140 C139 1.372 . S
C140 C141 1.379 . S
C141 H119 0.948 . S
C141 C136 1.364 . S
C141 C140 1.379 . S
C142 C111 1.383 . S
C142 C129 1.479 . S
C142 C143 1.398 . S
C143 C108 1.382 . S
C143 H120 0.951 . S
C143 C142 1.398 . S
C144 C145 1.384 . S
C144 H157 0.947 . S
C144 C179 1.382 . S
C145 C144 1.384 . S
C145 C146 1.378 . S
C146 C145 1.378 . S
C146 C147 1.378 . S
C146 H158 0.952 . S
C147 C146 1.378 . S
C147 H159 0.950 . S
C147 C178 1.383 . S
H148 C167 0.947 . S
H149 C168 0.946 . S
H150 C170 0.953 . S
H151 C171 0.945 . S
H152 C173 0.952 . S
H153 C174 0.949 . S
H154 C176 0.950 . S
H155 C177 0.948 . S
H156 C179 0.951 . S
H157 C144 0.947 . S
H158 C146 0.952 . S
H159 C147 0.950 . S
N160 C163 1.382 . S
N160 C165 1.363 . S
N161 C163 1.371 . S
N161 C164 1.372 . S
N162 C164 1.361 . S
N162 C165 1.377 . S
C163 N160 1.382 . S
C163 N161 1.371 . S
C163 C166 1.480 . S
C164 N161 1.372 . S
C164 N162 1.361 . S
C164 C172 1.457 . S
C165 N160 1.363 . S
C165 N162 1.377 . S
C165 C178 1.479 . S
C166 C163 1.480 . S
C166 C167 1.383 . S
C166 C171 1.385 . S
C167 H148 0.947 . S
C167 C166 1.383 . S
C167 C168 1.388 . S
C168 H149 0.946 . S
C168 C167 1.388 . S
C168 C169 1.384 . S
C169 C168 1.384 . S
C169 C170 1.377 . S
C170 H150 0.953 . S
C170 C169 1.377 . S
C170 C171 1.369 . S
C171 H151 0.945 . S
C171 C166 1.385 . S
C171 C170 1.369 . S
C172 C164 1.457 . S
C172 C173 1.372 . S
C172 C177 1.364 . S
C173 H152 0.952 . S
C173 C172 1.372 . S
C173 C174 1.389 . S
C174 H153 0.949 . S
C174 C173 1.389 . S
C174 C175 1.387 . S
C175 C174 1.387 . S
C175 C176 1.372 . S
C176 H154 0.950 . S
C176 C175 1.372 . S
C176 C177 1.379 . S
C177 H155 0.948 . S
C177 C172 1.364 . S
C177 C176 1.379 . S
C178 C147 1.383 . S
C178 C165 1.479 . S
C178 C179 1.398 . S
C179 C144 1.382 . S
C179 H156 0.951 . S
C179 C178 1.398 . S
C180 C181 1.384 . S
C180 H193 0.947 . S
C180 C215 1.382 . S
C181 C180 1.384 . S
C181 C182 1.378 . S
C182 C181 1.378 . S
C182 C183 1.378 . S
C182 H194 0.952 . S
C183 C182 1.378 . S
C183 H195 0.950 . S
C183 C214 1.383 . S
H184 C203 0.947 . S
H185 C204 0.946 . S
H186 C206 0.953 . S
H187 C207 0.945 . S
H188 C209 0.952 . S
H189 C210 0.949 . S
H190 C212 0.950 . S
H191 C213 0.948 . S
H192 C215 0.951 . S
H193 C180 0.947 . S
H194 C182 0.952 . S
H195 C183 0.950 . S
N196 C199 1.382 . S
N196 C201 1.363 . S
N197 C199 1.371 . S
N197 C200 1.372 . S
N198 C200 1.361 . S
N198 C201 1.377 . S
C199 N196 1.382 . S
C199 N197 1.371 . S
C199 C202 1.480 . S
C200 N197 1.372 . S
C200 N198 1.361 . S
C200 C208 1.457 . S
C201 N196 1.363 . S
C201 N198 1.377 . S
C201 C214 1.479 . S
C202 C199 1.480 . S
C202 C203 1.383 . S
C202 C207 1.385 . S
C203 H184 0.947 . S
C203 C202 1.383 . S
C203 C204 1.388 . S
C204 H185 0.946 . S
C204 C203 1.388 . S
C204 C205 1.384 . S
C205 C204 1.384 . S
C205 C206 1.377 . S
C206 H186 0.953 . S
C206 C205 1.377 . S
C206 C207 1.369 . S
C207 H187 0.945 . S
C207 C202 1.385 . S
C207 C206 1.369 . S
C208 C200 1.457 . S
C208 C209 1.372 . S
C208 C213 1.364 . S
C209 H188 0.952 . S
C209 C208 1.372 . S
C209 C210 1.389 . S
C210 H189 0.949 . S
C210 C209 1.389 . S
C210 C211 1.387 . S
C211 C210 1.387 . S
C211 C212 1.372 . S
C212 H190 0.950 . S
C212 C211 1.372 . S
C212 C213 1.379 . S
C213 H191 0.948 . S
C213 C208 1.364 . S
C213 C212 1.379 . S
C214 C183 1.383 . S
C214 C201 1.479 . S
C214 C215 1.398 . S
C215 C180 1.382 . S
C215 H192 0.951 . S
C215 C214 1.398 . S
C216 C217 1.384 . S
C216 H229 0.947 . S
C216 C251 1.382 . S
C217 C216 1.384 . S
C217 C218 1.378 . S
C218 C217 1.378 . S
C218 C219 1.378 . S
C218 H230 0.952 . S
C219 C218 1.378 . S
C219 H231 0.950 . S
C219 C250 1.383 . S
H220 C239 0.947 . S
H221 C240 0.946 . S
H222 C242 0.953 . S
H223 C243 0.945 . S
H224 C245 0.952 . S
H225 C246 0.949 . S
H226 C248 0.932 1_455 S
H227 C249 0.948 . S
H228 C251 0.951 . S
H229 C216 0.947 . S
H230 C218 0.952 . S
H231 C219 0.950 . S
N232 C235 1.382 . S
N232 C237 1.363 . S
N233 C235 1.371 . S
N233 C236 1.372 . S
N234 C236 1.361 . S
N234 C237 1.377 . S
C235 N232 1.382 . S
C235 N233 1.371 . S
C235 C238 1.480 . S
C236 N233 1.372 . S
C236 N234 1.361 . S
C236 C244 1.457 . S
C237 N232 1.363 . S
C237 N234 1.377 . S
C237 C250 1.479 . S
C238 C235 1.480 . S
C238 C239 1.383 . S
C238 C243 1.385 . S
C239 H220 0.947 . S
C239 C238 1.383 . S
C239 C240 1.388 . S
C240 H221 0.946 . S
C240 C239 1.388 . S
C240 C241 1.384 . S
C241 C240 1.384 . S
C241 C242 1.377 . S
C242 H222 0.953 . S
C242 C241 1.377 . S
C242 C243 1.369 . S
C243 H223 0.945 . S
C243 C238 1.385 . S
C243 C242 1.369 . S
C244 C236 1.457 . S
C244 C245 1.372 . S
C244 C249 1.364 . S
C245 H224 0.952 . S
C245 C244 1.372 . S
C245 C246 1.389 . S
C246 H225 0.949 . S
C246 C245 1.389 . S
C246 C247 1.387 . S
C247 C246 1.387 . S
C247 C248 1.372 . S
C248 H226 0.932 1_655 S
C248 C247 1.372 . S
C248 C249 1.379 . S
C249 H227 0.948 . S
C249 C244 1.364 . S
C249 C248 1.379 . S
C250 C219 1.383 . S
C250 C237 1.479 . S
C250 C251 1.398 . S
C251 C216 1.382 . S
C251 H228 0.951 . S
C251 C250 1.398 . S
C252 C253 1.384 . S
C252 H265 0.947 . S
C252 C287 1.382 . S
C253 C252 1.384 . S
C253 C254 1.378 . S
C254 C253 1.378 . S
C254 C255 1.378 . S
C254 H266 0.952 . S
C255 C254 1.378 . S
C255 H267 0.950 . S
C255 C286 1.383 . S
H256 C275 0.947 . S
H257 C276 0.946 . S
H258 C278 0.953 . S
H259 C279 0.945 . S
H260 C281 0.952 . S
H261 C282 0.949 . S
H262 C284 0.950 . S
H263 C285 0.948 . S
H264 C287 0.951 . S
H265 C252 0.947 . S
H266 C254 0.952 . S
H267 C255 0.950 . S
N268 C271 1.382 . S
N268 C273 1.363 . S
N269 C271 1.371 . S
N269 C272 1.372 . S
N270 C272 1.361 . S
N270 C273 1.377 . S
C271 N268 1.382 . S
C271 N269 1.371 . S
C271 C274 1.480 . S
C272 N269 1.372 . S
C272 N270 1.361 . S
C272 C280 1.457 . S
C273 N268 1.363 . S
C273 N270 1.377 . S
C273 C286 1.479 . S
C274 C271 1.480 . S
C274 C275 1.383 . S
C274 C279 1.385 . S
C275 H256 0.947 . S
C275 C274 1.383 . S
C275 C276 1.388 . S
C276 H257 0.946 . S
C276 C275 1.388 . S
C276 C277 1.384 . S
C277 C276 1.384 . S
C277 C278 1.377 . S
C278 H258 0.953 . S
C278 C277 1.377 . S
C278 C279 1.369 . S
C279 H259 0.945 . S
C279 C274 1.385 . S
C279 C278 1.369 . S
C280 C272 1.457 . S
C280 C281 1.372 . S
C280 C285 1.364 . S
C281 H260 0.952 . S
C281 C280 1.372 . S
C281 C282 1.389 . S
C282 H261 0.949 . S
C282 C281 1.389 . S
C282 C283 1.387 . S
C283 C282 1.387 . S
C283 C284 1.372 . S
C284 H262 0.950 . S
C284 C283 1.372 . S
C284 C285 1.379 . S
C285 H263 0.948 . S
C285 C280 1.364 . S
C285 C284 1.379 . S
C286 C255 1.383 . S
C286 C273 1.479 . S
C286 C287 1.398 . S
C287 C252 1.382 . S
C287 H264 0.951 . S
C287 C286 1.398 . S
C288 C289 1.384 . S
C288 H301 0.947 . S
C288 C323 1.382 . S
C289 C288 1.384 . S
C289 C290 1.378 . S
C290 C289 1.378 . S
C290 C291 1.378 . S
C290 H302 0.952 . S
C291 C290 1.378 . S
C291 H303 0.950 . S
C291 C322 1.383 . S
H292 C311 0.947 . S
H293 C312 0.946 . S
H294 C314 0.953 . S
H295 C315 0.945 . S
H296 C317 0.952 . S
H297 C318 0.949 . S
H298 C320 0.950 . S
H299 C321 0.948 . S
H300 C323 0.951 . S
H301 C288 0.947 . S
H302 C290 0.952 . S
H303 C291 0.950 . S
N304 C307 1.382 . S
N304 C309 1.363 . S
N305 C307 1.371 . S
N305 C308 1.372 . S
N306 C308 1.361 . S
N306 C309 1.377 . S
C307 N304 1.382 . S
C307 N305 1.371 . S
C307 C310 1.480 . S
C308 N305 1.372 . S
C308 N306 1.361 . S
C308 C316 1.457 . S
C309 N304 1.363 . S
C309 N306 1.377 . S
C309 C322 1.479 . S
C310 C307 1.480 . S
C310 C311 1.383 . S
C310 C315 1.385 . S
C311 H292 0.947 . S
C311 C310 1.383 . S
C311 C312 1.388 . S
C312 H293 0.946 . S
C312 C311 1.388 . S
C312 C313 1.384 . S
C313 C312 1.384 . S
C313 C314 1.377 . S
C314 H294 0.953 . S
C314 C313 1.377 . S
C314 C315 1.369 . S
C315 H295 0.945 . S
C315 C310 1.385 . S
C315 C314 1.369 . S
C316 C308 1.457 . S
C316 C317 1.372 . S
C316 C321 1.364 . S
C317 H296 0.952 . S
C317 C316 1.372 . S
C317 C318 1.389 . S
C318 H297 0.949 . S
C318 C317 1.389 . S
C318 C319 1.387 . S
C319 C318 1.387 . S
C319 C320 1.372 . S
C320 H298 0.950 . S
C320 C319 1.372 . S
C320 C321 1.379 . S
C321 H299 0.948 . S
C321 C316 1.364 . S
C321 C320 1.379 . S
C322 C291 1.383 . S
C322 C309 1.479 . S
C322 C323 1.398 . S
C323 C288 1.382 . S
C323 H300 0.951 . S
C323 C322 1.398 . S
C324 C325 1.384 . S
C324 H337 0.947 . S
C324 C359 1.382 . S
C325 C324 1.384 . S
C325 C326 1.378 . S
C326 C325 1.378 . S
C326 C327 1.378 . S
C326 H338 0.952 . S
C327 C326 1.378 . S
C327 H339 0.950 . S
C327 C358 1.383 . S
H328 C347 0.947 . S
H329 C348 0.946 . S
H330 C350 0.953 . S
H331 C351 0.945 . S
H332 C353 0.952 . S
H333 C354 0.949 . S
H334 C356 0.950 . S
H335 C357 0.948 . S
H336 C359 0.951 . S
H337 C324 0.947 . S
H338 C326 0.952 . S
H339 C327 0.950 . S
N340 C343 1.382 . S
N340 C345 1.363 . S
N341 C343 1.371 . S
N341 C344 1.372 . S
N342 C344 1.361 . S
N342 C345 1.377 . S
C343 N340 1.382 . S
C343 N341 1.371 . S
C343 C346 1.480 . S
C344 N341 1.372 . S
C344 N342 1.361 . S
C344 C352 1.457 . S
C345 N340 1.363 . S
C345 N342 1.377 . S
C345 C358 1.479 . S
C346 C343 1.480 . S
C346 C347 1.383 . S
C346 C351 1.385 . S
C347 H328 0.947 . S
C347 C346 1.383 . S
C347 C348 1.388 . S
C348 H329 0.946 . S
C348 C347 1.388 . S
C348 C349 1.384 . S
C349 C348 1.384 . S
C349 C350 1.377 . S
C350 H330 0.953 . S
C350 C349 1.377 . S
C350 C351 1.369 . S
C351 H331 0.945 . S
C351 C346 1.385 . S
C351 C350 1.369 . S
C352 C344 1.457 . S
C352 C353 1.372 . S
C352 C357 1.364 . S
C353 H332 0.952 . S
C353 C352 1.372 . S
C353 C354 1.389 . S
C354 H333 0.949 . S
C354 C353 1.389 . S
C354 C355 1.387 . S
C355 C354 1.387 . S
C355 C356 1.372 . S
C356 H334 0.950 . S
C356 C355 1.372 . S
C356 C357 1.379 . S
C357 H335 0.948 . S
C357 C352 1.364 . S
C357 C356 1.379 . S
C358 C327 1.383 . S
C358 C345 1.479 . S
C358 C359 1.398 . S
C359 C324 1.382 . S
C359 H336 0.951 . S
C359 C358 1.398 . S
C360 C361 1.384 . S
C360 H373 0.947 . S
C360 C395 1.382 . S
C361 C360 1.384 . S
C361 C362 1.378 . S
C362 C361 1.378 . S
C362 C363 1.378 . S
C362 H374 0.952 . S
C363 C362 1.378 . S
C363 H375 0.950 . S
C363 C394 1.383 . S
H364 C383 0.947 . S
H365 C384 0.946 . S
H366 C386 0.953 . S
H367 C387 0.945 . S
H368 C389 0.952 . S
H369 C390 0.949 . S
H370 C392 0.950 . S
H371 C393 0.948 . S
H372 C395 0.951 . S
H373 C360 0.947 . S
H374 C362 0.952 . S
H375 C363 0.950 . S
N376 C379 1.382 . S
N376 C381 1.363 . S
N377 C379 1.371 . S
N377 C380 1.372 . S
N378 C380 1.361 . S
N378 C381 1.377 . S
C379 N376 1.382 . S
C379 N377 1.371 . S
C379 C382 1.480 . S
C380 N377 1.372 . S
C380 N378 1.361 . S
C380 C388 1.457 . S
C381 N376 1.363 . S
C381 N378 1.377 . S
C381 C394 1.479 . S
C382 C379 1.480 . S
C382 C383 1.383 . S
C382 C387 1.385 . S
C383 H364 0.947 . S
C383 C382 1.383 . S
C383 C384 1.388 . S
C384 H365 0.946 . S
C384 C383 1.388 . S
C384 C385 1.384 . S
C385 C384 1.384 . S
C385 C386 1.377 . S
C386 H366 0.953 . S
C386 C385 1.377 . S
C386 C387 1.369 . S
C387 H367 0.945 . S
C387 C382 1.385 . S
C387 C386 1.369 . S
C388 C380 1.457 . S
C388 C389 1.372 . S
C388 C393 1.364 . S
C389 H368 0.952 . S
C389 C388 1.372 . S
C389 C390 1.389 . S
C390 H369 0.949 . S
C390 C389 1.389 . S
C390 C391 1.387 . S
C391 C390 1.387 . S
C391 C392 1.372 . S
C392 H370 0.950 . S
C392 C391 1.372 . S
C392 C393 1.379 . S
C393 H371 0.948 . S
C393 C388 1.364 . S
C393 C392 1.379 . S
C394 C363 1.383 . S
C394 C381 1.479 . S
C394 C395 1.398 . S
C395 C360 1.382 . S
C395 H372 0.951 . S
C395 C394 1.398 . S
C396 C397 1.384 . S
C396 H409 0.947 . S
C396 C431 1.382 . S
C397 C396 1.384 . S
C397 C398 1.378 . S
C398 C397 1.378 . S
C398 C399 1.378 . S
C398 H410 0.952 . S
C399 C398 1.378 . S
C399 H411 0.950 . S
C399 C430 1.383 . S
H400 C419 0.947 . S
H401 C420 0.946 . S
H402 C422 0.953 . S
H403 C423 0.945 . S
H404 C425 0.952 . S
H405 C426 0.949 . S
H406 C428 0.950 . S
H407 C429 0.948 . S
H408 C431 0.951 . S
H409 C396 0.947 . S
H410 C398 0.952 . S
H411 C399 0.950 . S
N412 C415 1.382 . S
N412 C417 1.363 . S
N413 C415 1.371 . S
N413 C416 1.372 . S
N414 C416 1.361 . S
N414 C417 1.377 . S
C415 N412 1.382 . S
C415 N413 1.371 . S
C415 C418 1.480 . S
C416 N413 1.372 . S
C416 N414 1.361 . S
C416 C424 1.457 . S
C417 N412 1.363 . S
C417 N414 1.377 . S
C417 C430 1.479 . S
C418 C415 1.480 . S
C418 C419 1.383 . S
C418 C423 1.385 . S
C419 H400 0.947 . S
C419 C418 1.383 . S
C419 C420 1.388 . S
C420 H401 0.946 . S
C420 C419 1.388 . S
C420 C421 1.384 . S
C421 C420 1.384 . S
C421 C422 1.377 . S
C422 H402 0.953 . S
C422 C421 1.377 . S
C422 C423 1.369 . S
C423 H403 0.945 . S
C423 C418 1.385 . S
C423 C422 1.369 . S
C424 C416 1.457 . S
C424 C425 1.372 . S
C424 C429 1.364 . S
C425 H404 0.952 . S
C425 C424 1.372 . S
C425 C426 1.389 . S
C426 H405 0.949 . S
C426 C425 1.389 . S
C426 C427 1.387 . S
C427 C426 1.387 . S
C427 C428 1.372 . S
C428 H406 0.950 . S
C428 C427 1.372 . S
C428 C429 1.379 . S
C429 H407 0.948 . S
C429 C424 1.364 . S
C429 C428 1.379 . S
C430 C399 1.383 . S
C430 C417 1.479 . S
C430 C431 1.398 . S
C431 C396 1.382 . S
C431 H408 0.951 . S
C431 C430 1.398 . S
C432 C433 1.384 . S
C432 H445 0.947 . S
C432 C467 1.382 . S
C433 C432 1.384 . S
C433 C434 1.378 . S
C434 C433 1.378 . S
C434 C435 1.378 . S
C434 H446 0.952 . S
C435 C434 1.378 . S
C435 H447 0.950 . S
C435 C466 1.383 . S
H436 C455 0.947 . S
H437 C456 0.946 . S
H438 C458 0.953 . S
H439 C459 0.945 . S
H440 C461 0.952 . S
H441 C462 0.949 . S
H442 C464 0.950 . S
H443 C465 0.948 . S
H444 C467 0.951 . S
H445 C432 0.947 . S
H446 C434 0.952 . S
H447 C435 0.950 . S
N448 C451 1.382 . S
N448 C453 1.363 . S
N449 C451 1.371 . S
N449 C452 1.372 . S
N450 C452 1.361 . S
N450 C453 1.377 . S
C451 N448 1.382 . S
C451 N449 1.371 . S
C451 C454 1.480 . S
C452 N449 1.372 . S
C452 N450 1.361 . S
C452 C460 1.457 . S
C453 N448 1.363 . S
C453 N450 1.377 . S
C453 C466 1.479 . S
C454 C451 1.480 . S
C454 C455 1.383 . S
C454 C459 1.385 . S
C455 H436 0.947 . S
C455 C454 1.383 . S
C455 C456 1.388 . S
C456 H437 0.946 . S
C456 C455 1.388 . S
C456 C457 1.384 . S
C457 C456 1.384 . S
C457 C458 1.377 . S
C458 H438 0.953 . S
C458 C457 1.377 . S
C458 C459 1.369 . S
C459 H439 0.945 . S
C459 C454 1.385 . S
C459 C458 1.369 . S
C460 C452 1.457 . S
C460 C461 1.372 . S
C460 C465 1.364 . S
C461 H440 0.952 . S
C461 C460 1.372 . S
C461 C462 1.389 . S
C462 H441 0.949 . S
C462 C461 1.389 . S
C462 C463 1.387 . S
C463 C462 1.387 . S
C463 C464 1.372 . S
C464 H442 0.950 . S
C464 C463 1.372 . S
C464 C465 1.379 . S
C465 H443 0.948 . S
C465 C460 1.364 . S
C465 C464 1.379 . S
C466 C435 1.383 . S
C466 C453 1.479 . S
C466 C467 1.398 . S
C467 C432 1.382 . S
C467 H444 0.951 . S
C467 C466 1.398 . S
C468 C469 1.384 . S
C468 H481 0.947 . S
C468 C503 1.382 . S
C469 C468 1.384 . S
C469 C470 1.378 . S
C470 C469 1.378 . S
C470 C471 1.378 . S
C470 H482 0.952 . S
C471 C470 1.378 . S
C471 H483 0.950 . S
C471 C502 1.383 . S
H472 C491 0.947 . S
H473 C492 0.946 . S
H474 C494 0.953 . S
H475 C495 0.945 . S
H476 C497 0.952 . S
H477 C498 0.949 . S
H478 C500 0.950 . S
H479 C501 0.948 . S
H480 C503 0.951 . S
H481 C468 0.947 . S
H482 C470 0.952 . S
H483 C471 0.950 . S
N484 C487 1.382 . S
N484 C489 1.363 . S
N485 C487 1.371 . S
N485 C488 1.372 . S
N486 C488 1.361 . S
N486 C489 1.377 . S
C487 N484 1.382 . S
C487 N485 1.371 . S
C487 C490 1.480 . S
C488 N485 1.372 . S
C488 N486 1.361 . S
C488 C496 1.457 . S
C489 N484 1.363 . S
C489 N486 1.377 . S
C489 C502 1.479 . S
C490 C487 1.480 . S
C490 C491 1.383 . S
C490 C495 1.385 . S
C491 H472 0.947 . S
C491 C490 1.383 . S
C491 C492 1.388 . S
C492 H473 0.946 . S
C492 C491 1.388 . S
C492 C493 1.384 . S
C493 C492 1.384 . S
C493 C494 1.377 . S
C494 H474 0.953 . S
C494 C493 1.377 . S
C494 C495 1.369 . S
C495 H475 0.945 . S
C495 C490 1.385 . S
C495 C494 1.369 . S
C496 C488 1.457 . S
C496 C497 1.372 . S
C496 C501 1.364 . S
C497 H476 0.952 . S
C497 C496 1.372 . S
C497 C498 1.389 . S
C498 H477 0.949 . S
C498 C497 1.389 . S
C498 C499 1.387 . S
C499 C498 1.387 . S
C499 C500 1.372 . S
C500 H478 0.950 . S
C500 C499 1.372 . S
C500 C501 1.379 . S
C501 H479 0.948 . S
C501 C496 1.364 . S
C501 C500 1.379 . S
C502 C471 1.383 . S
C502 C489 1.479 . S
C502 C503 1.398 . S
C503 C468 1.382 . S
C503 H480 0.951 . S
C503 C502 1.398 . S
C504 C505 1.384 . S
C504 H517 0.947 . S
C504 C539 1.382 . S
C505 C504 1.384 . S
C505 C506 1.378 . S
C506 C505 1.378 . S
C506 C507 1.378 . S
C506 H518 0.952 . S
C507 C506 1.378 . S
C507 H519 0.950 . S
C507 C538 1.383 . S
H508 C527 0.947 . S
H509 C528 0.946 . S
H510 C530 0.953 . S
H511 C531 0.945 . S
H512 C533 0.952 . S
H513 C534 0.949 . S
H514 C536 0.950 . S
H515 C537 0.948 . S
H516 C539 0.951 . S
H517 C504 0.947 . S
H518 C506 0.952 . S
H519 C507 0.950 . S
N520 C523 1.382 . S
N520 C525 1.363 . S
N521 C523 1.371 . S
N521 C524 1.372 . S
N522 C524 1.361 . S
N522 C525 1.377 . S
C523 N520 1.382 . S
C523 N521 1.371 . S
C523 C526 1.480 . S
C524 N521 1.372 . S
C524 N522 1.361 . S
C524 C532 1.457 . S
C525 N520 1.363 . S
C525 N522 1.377 . S
C525 C538 1.479 . S
C526 C523 1.480 . S
C526 C527 1.383 . S
C526 C531 1.385 . S
C527 H508 0.947 . S
C527 C526 1.383 . S
C527 C528 1.388 . S
C528 H509 0.946 . S
C528 C527 1.388 . S
C528 C529 1.384 . S
C529 C528 1.384 . S
C529 C530 1.377 . S
C530 H510 0.953 . S
C530 C529 1.377 . S
C530 C531 1.369 . S
C531 H511 0.945 . S
C531 C526 1.385 . S
C531 C530 1.369 . S
C532 C524 1.457 . S
C532 C533 1.372 . S
C532 C537 1.364 . S
C533 H512 0.952 . S
C533 C532 1.372 . S
C533 C534 1.389 . S
C534 H513 0.949 . S
C534 C533 1.389 . S
C534 C535 1.387 . S
C535 C534 1.387 . S
C535 C536 1.372 . S
C536 H514 0.950 . S
C536 C535 1.372 . S
C536 C537 1.379 . S
C537 H515 0.948 . S
C537 C532 1.364 . S
C537 C536 1.379 . S
C538 C507 1.383 . S
C538 C525 1.479 . S
C538 C539 1.398 . S
C539 C504 1.382 . S
C539 H516 0.951 . S
C539 C538 1.398 . S
C540 C541 1.384 . S
C540 H553 0.947 . S
C540 C575 1.382 . S
C541 C540 1.384 . S
C541 C542 1.378 . S
C542 C541 1.378 . S
C542 C543 1.378 . S
C542 H554 0.952 . S
C543 C542 1.378 . S
C543 H555 0.950 . S
C543 C574 1.383 . S
H544 C563 0.947 . S
H545 C564 0.946 . S
H546 C566 0.953 . S
H547 C567 0.945 . S
H548 C569 0.952 . S
H549 C570 0.949 . S
H550 C572 0.950 . S
H551 C573 0.948 . S
H552 C575 0.951 . S
H553 C540 0.947 . S
H554 C542 0.952 . S
H555 C543 0.950 . S
N556 C559 1.382 . S
N556 C561 1.363 . S
N557 C559 1.371 . S
N557 C560 1.372 . S
N558 C560 1.361 . S
N558 C561 1.377 . S
C559 N556 1.382 . S
C559 N557 1.371 . S
C559 C562 1.480 . S
C560 N557 1.372 . S
C560 N558 1.361 . S
C560 C568 1.457 . S
C561 N556 1.363 . S
C561 N558 1.377 . S
C561 C574 1.479 . S
C562 C559 1.480 . S
C562 C563 1.383 . S
C562 C567 1.385 . S
C563 H544 0.947 . S
C563 C562 1.383 . S
C563 C564 1.388 . S
C564 H545 0.946 . S
C564 C563 1.388 . S
C564 C565 1.384 . S
C565 C564 1.384 . S
C565 C566 1.377 . S
C566 H546 0.953 . S
C566 C565 1.377 . S
C566 C567 1.369 . S
C567 H547 0.945 . S
C567 C562 1.385 . S
C567 C566 1.369 . S
C568 C560 1.457 . S
C568 C569 1.372 . S
C568 C573 1.364 . S
C569 H548 0.952 . S
C569 C568 1.372 . S
C569 C570 1.389 . S
C570 H549 0.949 . S
C570 C569 1.389 . S
C570 C571 1.387 . S
C571 C570 1.387 . S
C571 C572 1.372 . S
C572 H550 0.950 . S
C572 C571 1.372 . S
C572 C573 1.379 . S
C573 H551 0.948 . S
C573 C568 1.364 . S
C573 C572 1.379 . S
C574 C543 1.383 . S
C574 C561 1.479 . S
C574 C575 1.398 . S
C575 C540 1.382 . S
C575 H552 0.951 . S
C575 C574 1.398 . S
C576 C577 1.384 . S
C576 H589 0.947 . S
C576 C611 1.382 . S
C577 C576 1.384 . S
C577 C578 1.378 . S
C578 C577 1.378 . S
C578 C579 1.378 . S
C578 H590 0.952 . S
C579 C578 1.378 . S
C579 H591 0.950 . S
C579 C610 1.383 . S
H580 C599 0.947 . S
H581 C600 0.946 . S
H582 C602 0.953 . S
H583 C603 0.945 . S
H584 C605 0.952 . S
H585 C606 0.949 . S
H586 C608 0.950 1_655 S
H587 C609 0.948 . S
H588 C611 0.951 . S
H589 C576 0.947 . S
H590 C578 0.952 . S
H591 C579 0.950 . S
N592 C595 1.382 . S
N592 C597 1.363 . S
N593 C595 1.371 . S
N593 C596 1.372 . S
N594 C596 1.361 . S
N594 C597 1.377 . S
C595 N592 1.382 . S
C595 N593 1.371 . S
C595 C598 1.480 . S
C596 N593 1.372 . S
C596 N594 1.361 . S
C596 C604 1.457 . S
C597 N592 1.363 . S
C597 N594 1.377 . S
C597 C610 1.479 . S
C598 C595 1.480 . S
C598 C599 1.383 . S
C598 C603 1.385 . S
C599 H580 0.947 . S
C599 C598 1.383 . S
C599 C600 1.388 . S
C600 H581 0.946 . S
C600 C599 1.388 . S
C600 C601 1.384 . S
C601 C600 1.384 . S
C601 C602 1.377 . S
C602 H582 0.953 . S
C602 C601 1.377 . S
C602 C603 1.369 . S
C603 H583 0.945 . S
C603 C598 1.385 . S
C603 C602 1.369 . S
C604 C596 1.457 . S
C604 C605 1.372 . S
C604 C609 1.364 . S
C605 H584 0.952 . S
C605 C604 1.372 . S
C605 C606 1.389 . S
C606 H585 0.949 . S
C606 C605 1.389 . S
C606 C607 1.387 . S
C607 C606 1.387 . S
C607 C608 1.372 . S
C608 H586 0.950 1_455 S
C608 C607 1.372 . S
C608 C609 1.379 . S
C609 H587 0.948 . S
C609 C604 1.364 . S
C609 C608 1.379 . S
C610 C579 1.383 . S
C610 C597 1.479 . S
C610 C611 1.398 . S
C611 C576 1.382 . S
C611 H588 0.951 . S
C611 C610 1.398 . S
C612 C613 1.384 . S
C612 H625 0.947 . S
C612 C647 1.382 . S
C613 C612 1.384 . S
C613 C614 1.378 . S
C614 C613 1.378 . S
C614 C615 1.378 . S
C614 H626 0.952 . S
C615 C614 1.378 . S
C615 H627 0.950 . S
C615 C646 1.383 . S
H616 C635 0.947 . S
H617 C636 0.946 . S
H618 C638 0.953 . S
H619 C639 0.945 . S
H620 C641 0.952 . S
H621 C642 0.949 . S
H622 C644 0.950 . S
H623 C645 0.948 . S
H624 C647 0.951 . S
H625 C612 0.947 . S
H626 C614 0.952 . S
H627 C615 0.950 . S
N628 C631 1.382 . S
N628 C633 1.363 . S
N629 C631 1.371 . S
N629 C632 1.372 . S
N630 C632 1.361 . S
N630 C633 1.377 . S
C631 N628 1.382 . S
C631 N629 1.371 . S
C631 C634 1.480 . S
C632 N629 1.372 . S
C632 N630 1.361 . S
C632 C640 1.457 . S
C633 N628 1.363 . S
C633 N630 1.377 . S
C633 C646 1.479 . S
C634 C631 1.480 . S
C634 C635 1.383 . S
C634 C639 1.385 . S
C635 H616 0.947 . S
C635 C634 1.383 . S
C635 C636 1.388 . S
C636 H617 0.946 . S
C636 C635 1.388 . S
C636 C637 1.384 . S
C637 C636 1.384 . S
C637 C638 1.377 . S
C638 H618 0.953 . S
C638 C637 1.377 . S
C638 C639 1.369 . S
C639 H619 0.945 . S
C639 C634 1.385 . S
C639 C638 1.369 . S
C640 C632 1.457 . S
C640 C641 1.372 . S
C640 C645 1.364 . S
C641 H620 0.952 . S
C641 C640 1.372 . S
C641 C642 1.389 . S
C642 H621 0.949 . S
C642 C641 1.389 . S
C642 C643 1.387 . S
C643 C642 1.387 . S
C643 C644 1.372 . S
C644 H622 0.950 . S
C644 C643 1.372 . S
C644 C645 1.379 . S
C645 H623 0.948 . S
C645 C640 1.364 . S
C645 C644 1.379 . S
C646 C615 1.383 . S
C646 C633 1.479 . S
C646 C647 1.398 . S
C647 C612 1.382 . S
C647 H624 0.951 . S
C647 C646 1.398 . S
Tb648 C658 2.825 . S
Tb648 O659 2.347 1_565 S
Tb648 O662 2.366 1_565 S
Tb648 O667 2.418 . S
Tb648 O668 2.435 . S
Tb648 O671 2.479 . S
Tb648 O672 2.457 1_565 S
Eu649 O660 2.418 . S
Eu649 O661 2.384 . S
Eu649 O664 2.479 . S
Eu649 O665 2.465 1_545 S
Eu649 O666 2.347 1_545 S
Eu649 O669 2.366 1_545 S
Eu649 C679 2.825 . S
C650 O666 1.259 . S
C650 O667 1.265 1_554 S
C651 O668 1.195 1_554 S
C651 O669 1.265 . S
C652 C654 1.380 . S
C652 C655 1.374 1_565 S
C652 C658 1.507 . S
C653 C654 1.384 . S
C653 C657 1.387 1_565 S
C653 H680 0.930 . S
C654 C652 1.380 . S
C654 C653 1.384 . S
C654 H681 0.931 . S
C655 C652 1.374 1_545 S
C655 C656 1.390 . S
C655 H682 0.930 . S
C656 C655 1.390 . S
C656 C657 1.391 . S
C656 H683 0.930 . S
C657 C653 1.387 1_545 S
C657 C656 1.391 . S
C658 Tb648 2.825 . S
C658 C652 1.507 . S
C658 O671 1.238 . S
C658 O672 1.225 1_565 S
O659 Tb648 2.347 1_545 S
O659 C663 1.259 . S
O660 Eu649 2.418 . S
O660 C663 1.265 1_554 S
O661 Eu649 2.384 . S
O661 C670 1.255 1_554 S
O662 Tb648 2.366 1_545 S
O662 C670 1.265 . S
C663 O659 1.259 . S
C663 O660 1.265 1_556 S
O664 Eu649 2.479 . S
O664 C679 1.238 . S
O665 Eu649 2.465 1_565 S
O665 C679 1.237 1_565 S
O666 Eu649 2.347 1_565 S
O666 C650 1.259 . S
O667 Tb648 2.418 . S
O667 C650 1.265 1_556 S
O668 Tb648 2.435 . S
O668 C651 1.195 1_556 S
O669 Eu649 2.366 1_565 S
O669 C651 1.265 . S
C670 O661 1.255 1_556 S
C670 O662 1.265 . S
O671 Tb648 2.479 . S
O671 C658 1.238 . S
O672 Tb648 2.457 1_545 S
O672 C658 1.225 1_545 S
C673 C676 1.380 . S
C673 C677 1.374 1_545 S
C673 C679 1.507 . S
C674 C675 1.387 1_565 S
C674 C678 1.391 . S
C675 C674 1.387 1_545 S
C675 C676 1.384 . S
C675 H684 0.930 . S
C676 C673 1.380 . S
C676 C675 1.384 . S
C676 H685 0.931 . S
C677 C673 1.374 1_565 S
C677 C678 1.390 . S
C677 H686 0.930 . S
C678 C674 1.391 . S
C678 C677 1.390 . S
C678 H687 0.930 . S
C679 Eu649 2.825 . S
C679 O664 1.238 . S
C679 O665 1.237 1_545 S
C679 C673 1.507 . S
H680 C653 0.930 . S
H681 C654 0.931 . S
H682 C655 0.930 . S
H683 C656 0.930 . S
H684 C675 0.930 . S
H685 C676 0.931 . S
H686 C677 0.930 . S
H687 C678 0.930 . S
Tb688 C698 2.825 . S
Tb688 O699 2.347 1_455 S
Tb688 O702 2.366 1_455 S
Tb688 O707 2.418 . S
Tb688 O708 2.384 1_556 S
Tb688 O711 2.479 . S
Tb688 O712 2.471 1_455 S
Eu689 O700 2.418 . S
Eu689 O701 2.338 1_554 S
Eu689 O704 2.479 . S
Eu689 O705 2.471 1_655 S
Eu689 O706 2.347 1_655 S
Eu689 O709 2.366 1_655 S
Eu689 C719 2.825 . S
C690 O706 1.259 . S
C690 O707 1.265 1_554 S
C691 O708 1.255 . S
C691 O709 1.265 . S
C692 C694 1.380 . S
C692 C695 1.374 1_455 S
C692 C698 1.507 . S
C693 C694 1.384 . S
C693 C697 1.387 1_455 S
C693 H720 0.930 . S
C694 C692 1.380 . S
C694 C693 1.384 . S
C694 H721 0.931 . S
C695 C692 1.374 1_655 S
C695 C696 1.390 . S
C695 H722 0.930 . S
C696 C695 1.390 . S
C696 C697 1.391 . S
C696 H723 0.930 . S
C697 C693 1.387 1_655 S
C697 C696 1.391 . S
C698 Tb688 2.825 . S
C698 C692 1.507 . S
C698 O711 1.238 . S
C698 O712 1.247 1_455 S
O699 Tb688 2.347 1_655 S
O699 C703 1.259 . S
O700 Eu689 2.418 . S
O700 C703 1.265 1_554 S
O701 Eu689 2.338 1_556 S
O701 C710 1.312 . S
O702 Tb688 2.366 1_655 S
O702 C710 1.265 . S
C703 O699 1.259 . S
C703 O700 1.265 1_556 S
O704 Eu689 2.479 . S
O704 C719 1.238 . S
O705 Eu689 2.471 1_455 S
O705 C719 1.247 1_455 S
O706 Eu689 2.347 1_455 S
O706 C690 1.259 . S
O707 Tb688 2.418 . S
O707 C690 1.265 1_556 S
O708 Tb688 2.384 1_554 S
O708 C691 1.255 . S
O709 Eu689 2.366 1_455 S
O709 C691 1.265 . S
C710 O701 1.312 . S
C710 O702 1.265 . S
O711 Tb688 2.479 . S
O711 C698 1.238 . S
O712 Tb688 2.471 1_655 S
O712 C698 1.247 1_655 S
C713 C716 1.380 . S
C713 C717 1.374 1_655 S
C713 C719 1.507 . S
C714 C715 1.387 1_455 S
C714 C718 1.391 . S
C715 C714 1.387 1_655 S
C715 C716 1.384 . S
C715 H724 0.930 . S
C716 C713 1.380 . S
C716 C715 1.384 . S
C716 H725 0.931 . S
C717 C713 1.374 1_455 S
C717 C718 1.390 . S
C717 H726 0.930 . S
C718 C714 1.391 . S
C718 C717 1.390 . S
C718 H727 0.930 . S
C719 Eu689 2.825 . S
C719 O704 1.238 . S
C719 O705 1.247 1_655 S
C719 C713 1.507 . S
H720 C693 0.930 . S
H721 C694 0.931 . S
H722 C695 0.930 . S
H723 C696 0.930 . S
H724 C715 0.930 . S
H725 C716 0.931 . S
H726 C717 0.930 . S
H727 C718 0.930 . S
Tb728 C738 2.825 . S
Tb728 O739 2.347 . S
Tb728 O742 2.366 . S
Tb728 O747 2.418 . S
Tb728 O748 2.384 . S
Tb728 O751 2.479 . S
Tb728 O752 2.471 . S
Eu729 O740 2.418 . S
Eu729 O741 2.384 1_556 S
Eu729 O744 2.479 . S
Eu729 O745 2.471 . S
Eu729 O746 2.347 . S
Eu729 O749 2.366 . S
Eu729 C759 2.825 . S
C730 O746 1.259 . S
C730 O747 1.265 1_556 S
C731 O748 1.255 1_556 S
C731 O749 1.265 . S
C732 C734 1.380 . S
C732 C735 1.374 . S
C732 C738 1.507 . S
C733 C734 1.384 . S
C733 C737 1.387 . S
C733 H760 0.930 . S
C734 C732 1.380 . S
C734 C733 1.384 . S
C734 H761 0.931 . S
C735 C732 1.374 . S
C735 C736 1.390 . S
C735 H762 0.930 . S
C736 C735 1.390 . S
C736 C737 1.391 . S
C736 H763 0.930 . S
C737 C733 1.387 . S
C737 C736 1.391 . S
C738 Tb728 2.825 . S
C738 C732 1.507 . S
C738 O751 1.238 . S
C738 O752 1.247 . S
O739 Tb728 2.347 . S
O739 C743 1.259 . S
O740 Eu729 2.418 . S
O740 C743 1.265 1_556 S
O741 Eu729 2.384 1_554 S
O741 C750 1.255 . S
O742 Tb728 2.366 . S
O742 C750 1.265 . S
C743 O739 1.259 . S
C743 O740 1.265 1_554 S
O744 Eu729 2.479 . S
O744 C759 1.238 . S
O745 Eu729 2.471 . S
O745 C759 1.247 . S
O746 Eu729 2.347 . S
O746 C730 1.259 . S
O747 Tb728 2.418 . S
O747 C730 1.265 1_554 S
O748 Tb728 2.384 . S
O748 C731 1.255 1_554 S
O749 Eu729 2.366 . S
O749 C731 1.265 . S
C750 O741 1.255 . S
C750 O742 1.265 . S
O751 Tb728 2.479 . S
O751 C738 1.238 . S
O752 Tb728 2.471 . S
O752 C738 1.247 . S
C753 C756 1.380 . S
C753 C757 1.374 . S
C753 C759 1.507 . S
C754 C755 1.387 . S
C754 C758 1.391 . S
C755 C754 1.387 . S
C755 C756 1.384 . S
C755 H764 0.930 . S
C756 C753 1.380 . S
C756 C755 1.384 . S
C756 H765 0.931 . S
C757 C753 1.374 . S
C757 C758 1.390 . S
C757 H766 0.930 . S
C758 C754 1.391 . S
C758 C757 1.390 . S
C758 H767 0.930 . S
C759 Eu729 2.825 . S
C759 O744 1.238 . S
C759 O745 1.247 . S
C759 C753 1.507 . S
H760 C733 0.930 . S
H761 C734 0.931 . S
H762 C735 0.930 . S
H763 C736 0.930 . S
H764 C755 0.930 . S
H765 C756 0.931 . S
H766 C757 0.930 . S
H767 C758 0.930 . S
Tb768 C778 2.825 . S
Tb768 O779 2.347 . S
Tb768 O782 2.366 . S
Tb768 O787 2.418 . S
Tb768 O788 2.384 . S
Tb768 O791 2.479 . S
Tb768 O792 2.471 . S
Eu769 O780 2.418 . S
Eu769 O781 2.384 . S
Eu769 O784 2.479 . S
Eu769 O785 2.471 . S
Eu769 O786 2.347 . S
Eu769 O789 2.366 . S
Eu769 C799 2.825 . S
C770 O786 1.259 . S
C770 O787 1.265 . S
C771 O788 1.255 . S
C771 O789 1.265 . S
C772 C774 1.380 . S
C772 C775 1.374 . S
C772 C778 1.507 . S
C773 C774 1.384 . S
C773 C777 1.387 . S
C773 H800 0.930 . S
C774 C772 1.380 . S
C774 C773 1.384 . S
C774 H801 0.931 . S
C775 C772 1.374 . S
C775 C776 1.390 . S
C775 H802 0.930 . S
C776 C775 1.390 . S
C776 C777 1.391 . S
C776 H803 0.930 . S
C777 C773 1.387 . S
C777 C776 1.391 . S
C778 Tb768 2.825 . S
C778 C772 1.507 . S
C778 O791 1.238 . S
C778 O792 1.247 . S
O779 Tb768 2.347 . S
O779 C783 1.259 . S
O780 Eu769 2.418 . S
O780 C783 1.265 . S
O781 Eu769 2.384 . S
O781 C790 1.255 . S
O782 Tb768 2.366 . S
O782 C790 1.265 . S
C783 O779 1.259 . S
C783 O780 1.265 . S
O784 Eu769 2.479 . S
O784 C799 1.238 . S
O785 Eu769 2.471 . S
O785 C799 1.247 . S
O786 Eu769 2.347 . S
O786 C770 1.259 . S
O787 Tb768 2.418 . S
O787 C770 1.265 . S
O788 Tb768 2.384 . S
O788 C771 1.255 . S
O789 Eu769 2.366 . S
O789 C771 1.265 . S
C790 O781 1.255 . S
C790 O782 1.265 . S
O791 Tb768 2.479 . S
O791 C778 1.238 . S
O792 Tb768 2.471 . S
O792 C778 1.247 . S
C793 C796 1.380 . S
C793 C797 1.374 . S
C793 C799 1.507 . S
C794 C795 1.387 . S
C794 C798 1.391 . S
C795 C794 1.387 . S
C795 C796 1.384 . S
C795 H804 0.930 . S
C796 C793 1.380 . S
C796 C795 1.384 . S
C796 H805 0.931 . S
C797 C793 1.374 . S
C797 C798 1.390 . S
C797 H806 0.930 . S
C798 C794 1.391 . S
C798 C797 1.390 . S
C798 H807 0.930 . S
C799 Eu769 2.825 . S
C799 O784 1.238 . S
C799 O785 1.247 . S
C799 C793 1.507 . S
H800 C773 0.930 . S
H801 C774 0.931 . S
H802 C775 0.930 . S
H803 C776 0.930 . S
H804 C795 0.930 . S
H805 C796 0.931 . S
H806 C797 0.930 . S
H807 C798 0.930 . S
Tb808 C818 2.825 . S
Tb808 O819 2.347 . S
Tb808 O822 2.366 . S
Tb808 O827 2.418 . S
Tb808 O828 2.384 . S
Tb808 O831 2.479 . S
Tb808 O832 2.471 . S
Eu809 O820 2.418 . S
Eu809 O821 2.384 . S
Eu809 O824 2.479 . S
Eu809 O825 2.471 . S
Eu809 O826 2.347 . S
Eu809 O829 2.366 . S
Eu809 C839 2.825 . S
C810 O826 1.259 . S
C810 O827 1.265 . S
C811 O828 1.255 . S
C811 O829 1.265 . S
C812 C814 1.380 . S
C812 C815 1.374 . S
C812 C818 1.507 . S
C813 C814 1.384 . S
C813 C817 1.387 . S
C813 H840 0.930 . S
C814 C812 1.380 . S
C814 C813 1.384 . S
C814 H841 0.931 . S
C815 C812 1.374 . S
C815 C816 1.390 . S
C815 H842 0.930 . S
C816 C815 1.390 . S
C816 C817 1.391 . S
C816 H843 0.930 . S
C817 C813 1.387 . S
C817 C816 1.391 . S
C818 Tb808 2.825 . S
C818 C812 1.507 . S
C818 O831 1.238 . S
C818 O832 1.247 . S
O819 Tb808 2.347 . S
O819 C823 1.259 . S
O820 Eu809 2.418 . S
O820 C823 1.265 . S
O821 Eu809 2.384 . S
O821 C830 1.255 . S
O822 Tb808 2.366 . S
O822 C830 1.265 . S
C823 O819 1.259 . S
C823 O820 1.265 . S
O824 Eu809 2.479 . S
O824 C839 1.238 . S
O825 Eu809 2.471 . S
O825 C839 1.247 . S
O826 Eu809 2.347 . S
O826 C810 1.259 . S
O827 Tb808 2.418 . S
O827 C810 1.265 . S
O828 Tb808 2.384 . S
O828 C811 1.255 . S
O829 Eu809 2.366 . S
O829 C811 1.265 . S
C830 O821 1.255 . S
C830 O822 1.265 . S
O831 Tb808 2.479 . S
O831 C818 1.238 . S
O832 Tb808 2.471 . S
O832 C818 1.247 . S
C833 C836 1.380 . S
C833 C837 1.374 . S
C833 C839 1.507 . S
C834 C835 1.387 . S
C834 C838 1.391 . S
C835 C834 1.387 . S
C835 C836 1.384 . S
C835 H844 0.930 . S
C836 C833 1.380 . S
C836 C835 1.384 . S
C836 H845 0.931 . S
C837 C833 1.374 . S
C837 C838 1.390 . S
C837 H846 0.930 . S
C838 C834 1.391 . S
C838 C837 1.390 . S
C838 H847 0.930 . S
C839 Eu809 2.825 . S
C839 O824 1.238 . S
C839 O825 1.247 . S
C839 C833 1.507 . S
H840 C813 0.930 . S
H841 C814 0.931 . S
H842 C815 0.930 . S
H843 C816 0.930 . S
H844 C835 0.930 . S
H845 C836 0.931 . S
H846 C837 0.930 . S
H847 C838 0.930 . S
Tb848 C858 2.825 . S
Tb848 O859 2.347 . S
Tb848 O862 2.366 . S
Tb848 O867 2.418 . S
Tb848 O868 2.384 . S
Tb848 O871 2.479 . S
Tb848 O872 2.471 . S
Eu849 O860 2.418 . S
Eu849 O861 2.384 . S
Eu849 O864 2.479 . S
Eu849 O865 2.471 . S
Eu849 O866 2.347 . S
Eu849 O869 2.366 . S
Eu849 C879 2.825 . S
C850 O866 1.259 . S
C850 O867 1.265 . S
C851 O868 1.255 . S
C851 O869 1.265 . S
C852 C854 1.380 . S
C852 C855 1.374 . S
C852 C858 1.507 . S
C853 C854 1.384 . S
C853 C857 1.387 . S
C853 H880 0.930 . S
C854 C852 1.380 . S
C854 C853 1.384 . S
C854 H881 0.931 . S
C855 C852 1.374 . S
C855 C856 1.390 . S
C855 H882 0.930 . S
C856 C855 1.390 . S
C856 C857 1.391 . S
C856 H883 0.930 . S
C857 C853 1.387 . S
C857 C856 1.391 . S
C858 Tb848 2.825 . S
C858 C852 1.507 . S
C858 O871 1.238 . S
C858 O872 1.247 . S
O859 Tb848 2.347 . S
O859 C863 1.259 . S
O860 Eu849 2.418 . S
O860 C863 1.265 . S
O861 Eu849 2.384 . S
O861 C870 1.255 . S
O862 Tb848 2.366 . S
O862 C870 1.265 . S
C863 O859 1.259 . S
C863 O860 1.265 . S
O864 Eu849 2.479 . S
O864 C879 1.238 . S
O865 Eu849 2.471 . S
O865 C879 1.247 . S
O866 Eu849 2.347 . S
O866 C850 1.259 . S
O867 Tb848 2.418 . S
O867 C850 1.265 . S
O868 Tb848 2.384 . S
O868 C851 1.255 . S
O869 Eu849 2.366 . S
O869 C851 1.265 . S
C870 O861 1.255 . S
C870 O862 1.265 . S
O871 Tb848 2.479 . S
O871 C858 1.238 . S
O872 Tb848 2.471 . S
O872 C858 1.247 . S
C873 C876 1.380 . S
C873 C877 1.374 . S
C873 C879 1.507 . S
C874 C875 1.387 . S
C874 C878 1.391 . S
C875 C874 1.387 . S
C875 C876 1.384 . S
C875 H884 0.930 . S
C876 C873 1.380 . S
C876 C875 1.384 . S
C876 H885 0.931 . S
C877 C873 1.374 . S
C877 C878 1.390 . S
C877 H886 0.930 . S
C878 C874 1.391 . S
C878 C877 1.390 . S
C878 H887 0.930 . S
C879 Eu849 2.825 . S
C879 O864 1.238 . S
C879 O865 1.247 . S
C879 C873 1.507 . S
H880 C853 0.930 . S
H881 C854 0.931 . S
H882 C855 0.930 . S
H883 C856 0.930 . S
H884 C875 0.930 . S
H885 C876 0.931 . S
H886 C877 0.930 . S
H887 C878 0.930 . S
Tb888 C898 2.825 . S
Tb888 O899 2.347 . S
Tb888 O902 2.366 . S
Tb888 O907 2.418 . S
Tb888 O908 2.384 . S
Tb888 O911 2.479 . S
Tb888 O912 2.471 . S
Eu889 O900 2.418 . S
Eu889 O901 2.384 . S
Eu889 O904 2.479 . S
Eu889 O905 2.471 . S
Eu889 O906 2.347 . S
Eu889 O909 2.366 . S
Eu889 C919 2.825 . S
C890 O906 1.259 . S
C890 O907 1.265 . S
C891 O908 1.255 . S
C891 O909 1.265 . S
C892 C894 1.380 . S
C892 C895 1.374 . S
C892 C898 1.507 . S
C893 C894 1.384 . S
C893 C897 1.387 . S
C893 H920 0.930 . S
C894 C892 1.380 . S
C894 C893 1.384 . S
C894 H921 0.931 . S
C895 C892 1.374 . S
C895 C896 1.390 . S
C895 H922 0.930 . S
C896 C895 1.390 . S
C896 C897 1.391 . S
C896 H923 0.930 . S
C897 C893 1.387 . S
C897 C896 1.391 . S
C898 Tb888 2.825 . S
C898 C892 1.507 . S
C898 O911 1.238 . S
C898 O912 1.247 . S
O899 Tb888 2.347 . S
O899 C903 1.259 . S
O900 Eu889 2.418 . S
O900 C903 1.265 . S
O901 Eu889 2.384 . S
O901 C910 1.255 . S
O902 Tb888 2.366 . S
O902 C910 1.265 . S
C903 O899 1.259 . S
C903 O900 1.265 . S
O904 Eu889 2.479 . S
O904 C919 1.238 . S
O905 Eu889 2.471 . S
O905 C919 1.247 . S
O906 Eu889 2.347 . S
O906 C890 1.259 . S
O907 Tb888 2.418 . S
O907 C890 1.265 . S
O908 Tb888 2.384 . S
O908 C891 1.255 . S
O909 Eu889 2.366 . S
O909 C891 1.265 . S
C910 O901 1.255 . S
C910 O902 1.265 . S
O911 Tb888 2.479 . S
O911 C898 1.238 . S
O912 Tb888 2.471 . S
O912 C898 1.247 . S
C913 C916 1.380 . S
C913 C917 1.374 . S
C913 C919 1.507 . S
C914 C915 1.387 . S
C914 C918 1.391 . S
C915 C914 1.387 . S
C915 C916 1.384 . S
C915 H924 0.930 . S
C916 C913 1.380 . S
C916 C915 1.384 . S
C916 H925 0.931 . S
C917 C913 1.374 . S
C917 C918 1.390 . S
C917 H926 0.930 . S
C918 C914 1.391 . S
C918 C917 1.390 . S
C918 H927 0.930 . S
C919 Eu889 2.825 . S
C919 O904 1.238 . S
C919 O905 1.247 . S
C919 C913 1.507 . S
H920 C893 0.930 . S
H921 C894 0.931 . S
H922 C895 0.930 . S
H923 C896 0.930 . S
H924 C915 0.930 . S
H925 C916 0.931 . S
H926 C917 0.930 . S
H927 C918 0.930 . S
Tb928 C938 2.825 . S
Tb928 O939 2.347 . S
Tb928 O942 2.366 . S
Tb928 O947 2.418 . S
Tb928 O948 2.384 . S
Tb928 O951 2.479 . S
Tb928 O952 2.471 . S
Eu929 O940 2.418 . S
Eu929 O941 2.384 . S
Eu929 O944 2.479 . S
Eu929 O945 2.471 . S
Eu929 O946 2.347 . S
Eu929 O949 2.366 . S
Eu929 C959 2.825 . S
C930 O946 1.259 . S
C930 O947 1.265 . S
C931 O948 1.255 . S
C931 O949 1.265 . S
C932 C934 1.380 . S
C932 C935 1.374 . S
C932 C938 1.507 . S
C933 C934 1.384 . S
C933 C937 1.387 . S
C933 H960 0.930 . S
C934 C932 1.380 . S
C934 C933 1.384 . S
C934 H961 0.931 . S
C935 C932 1.374 . S
C935 C936 1.390 . S
C935 H962 0.930 . S
C936 C935 1.390 . S
C936 C937 1.391 . S
C936 H963 0.930 . S
C937 C933 1.387 . S
C937 C936 1.391 . S
C938 Tb928 2.825 . S
C938 C932 1.507 . S
C938 O951 1.238 . S
C938 O952 1.247 . S
O939 Tb928 2.347 . S
O939 C943 1.259 . S
O940 Eu929 2.418 . S
O940 C943 1.265 . S
O941 Eu929 2.384 . S
O941 C950 1.255 . S
O942 Tb928 2.366 . S
O942 C950 1.265 . S
C943 O939 1.259 . S
C943 O940 1.265 . S
O944 Eu929 2.479 . S
O944 C959 1.238 . S
O945 Eu929 2.471 . S
O945 C959 1.247 . S
O946 Eu929 2.347 . S
O946 C930 1.259 . S
O947 Tb928 2.418 . S
O947 C930 1.265 . S
O948 Tb928 2.384 . S
O948 C931 1.255 . S
O949 Eu929 2.366 . S
O949 C931 1.265 . S
C950 O941 1.255 . S
C950 O942 1.265 . S
O951 Tb928 2.479 . S
O951 C938 1.238 . S
O952 Tb928 2.471 . S
O952 C938 1.247 . S
C953 C956 1.380 . S
C953 C957 1.374 . S
C953 C959 1.507 . S
C954 C955 1.387 . S
C954 C958 1.391 . S
C955 C954 1.387 . S
C955 C956 1.384 . S
C955 H964 0.930 . S
C956 C953 1.380 . S
C956 C955 1.384 . S
C956 H965 0.931 . S
C957 C953 1.374 . S
C957 C958 1.390 . S
C957 H966 0.930 . S
C958 C954 1.391 . S
C958 C957 1.390 . S
C958 H967 0.930 . S
C959 Eu929 2.825 . S
C959 O944 1.238 . S
C959 O945 1.247 . S
C959 C953 1.507 . S
H960 C933 0.930 . S
H961 C934 0.931 . S
H962 C935 0.930 . S
H963 C936 0.930 . S
H964 C955 0.930 . S
H965 C956 0.931 . S
H966 C957 0.930 . S
H967 C958 0.930 . S
Tb968 C978 2.825 . S
Tb968 O979 2.347 . S
Tb968 O982 2.366 . S
Tb968 O987 2.418 . S
Tb968 O988 2.384 . S
Tb968 O991 2.479 . S
Tb968 O992 2.471 . S
Eu969 O980 2.418 . S
Eu969 O981 2.384 . S
Eu969 O984 2.479 . S
Eu969 O985 2.471 . S
Eu969 O986 2.347 . S
Eu969 O989 2.366 . S
Eu969 C999 2.825 . S
C970 O986 1.259 . S
C970 O987 1.265 . S
C971 O988 1.255 . S
C971 O989 1.265 . S
C972 C974 1.380 . S
C972 C975 1.374 . S
C972 C978 1.507 . S
C973 C974 1.384 . S
C973 C977 1.387 . S
C973 H1000 0.930 . S
C974 C972 1.380 . S
C974 C973 1.384 . S
C974 H1001 0.931 . S
C975 C972 1.374 . S
C975 C976 1.390 . S
C975 H1002 0.930 . S
C976 C975 1.390 . S
C976 C977 1.391 . S
C976 H1003 0.930 . S
C977 C973 1.387 . S
C977 C976 1.391 . S
C978 Tb968 2.825 . S
C978 C972 1.507 . S
C978 O991 1.238 . S
C978 O992 1.247 . S
O979 Tb968 2.347 . S
O979 C983 1.259 . S
O980 Eu969 2.418 . S
O980 C983 1.265 . S
O981 Eu969 2.384 . S
O981 C990 1.255 . S
O982 Tb968 2.366 . S
O982 C990 1.265 . S
C983 O979 1.259 . S
C983 O980 1.265 . S
O984 Eu969 2.479 . S
O984 C999 1.238 . S
O985 Eu969 2.471 . S
O985 C999 1.247 . S
O986 Eu969 2.347 . S
O986 C970 1.259 . S
O987 Tb968 2.418 . S
O987 C970 1.265 . S
O988 Tb968 2.384 . S
O988 C971 1.255 . S
O989 Eu969 2.366 . S
O989 C971 1.265 . S
C990 O981 1.255 . S
C990 O982 1.265 . S
O991 Tb968 2.479 . S
O991 C978 1.238 . S
O992 Tb968 2.471 . S
O992 C978 1.247 . S
C993 C996 1.380 . S
C993 C997 1.374 . S
C993 C999 1.507 . S
C994 C995 1.387 . S
C994 C998 1.391 . S
C995 C994 1.387 . S
C995 C996 1.384 . S
C995 H1004 0.930 . S
C996 C993 1.380 . S
C996 C995 1.384 . S
C996 H1005 0.931 . S
C997 C993 1.374 . S
C997 C998 1.390 . S
C997 H1006 0.930 . S
C998 C994 1.391 . S
C998 C997 1.390 . S
C998 H1007 0.930 . S
C999 Eu969 2.825 . S
C999 O984 1.238 . S
C999 O985 1.247 . S
C999 C993 1.507 . S
H1000 C973 0.930 . S
H1001 C974 0.931 . S
H1002 C975 0.930 . S
H1003 C976 0.930 . S
H1004 C995 0.930 . S
H1005 C996 0.931 . S
H1006 C997 0.930 . S
H1007 C998 0.930 . S
H1008 C1014 0.930 . S
H1009 C1017 0.930 . S
H1010 C1018 0.930 . S
H1011 C1019 0.930 . S
H1012 C1022 0.930 . S
H1013 C1023 0.930 . S
C1014 H1008 0.930 . S
C1014 C1015 1.355 . S
C1014 C1016 1.415 . S
C1015 C1014 1.355 . S
C1015 C1017 1.419 . S
C1016 C1014 1.415 . S
C1016 C1021 1.425 . S
C1016 C1023 1.409 . S
C1017 H1009 0.930 . S
C1017 C1015 1.419 . S
C1017 C1018 1.362 . S
C1018 H1010 0.930 . S
C1018 C1017 1.362 . S
C1018 C1021 1.409 . S
C1019 H1011 0.930 . S
C1019 C1020 1.355 . S
C1019 C1021 1.415 . S
C1020 C1019 1.355 . S
C1020 C1022 1.419 . S
C1021 C1016 1.425 . S
C1021 C1018 1.409 . S
C1021 C1019 1.415 . S
C1022 H1012 0.930 . S
C1022 C1020 1.419 . S
C1022 C1023 1.362 . S
C1023 H1013 0.930 . S
C1023 C1016 1.409 . S
C1023 C1022 1.362 . S
H1024 C1030 0.930 . S
H1025 C1033 0.930 . S
H1026 C1034 0.930 . S
H1027 C1035 0.930 . S
H1028 C1038 0.930 . S
H1029 C1039 0.930 . S
C1030 H1024 0.930 . S
C1030 C1031 1.355 . S
C1030 C1032 1.415 . S
C1031 C1030 1.355 . S
C1031 C1033 1.419 . S
C1032 C1030 1.415 . S
C1032 C1037 1.425 . S
C1032 C1039 1.409 . S
C1033 H1025 0.930 . S
C1033 C1031 1.419 . S
C1033 C1034 1.362 . S
C1034 H1026 0.930 . S
C1034 C1033 1.362 . S
C1034 C1037 1.409 . S
C1035 H1027 0.930 . S
C1035 C1036 1.355 . S
C1035 C1037 1.415 . S
C1036 C1035 1.355 . S
C1036 C1038 1.419 . S
C1037 C1032 1.425 . S
C1037 C1034 1.409 . S
C1037 C1035 1.415 . S
C1038 H1028 0.930 . S
C1038 C1036 1.419 . S
C1038 C1039 1.362 . S
C1039 H1029 0.930 . S
C1039 C1032 1.409 . S
C1039 C1038 1.362 . S
H1040 C1046 0.930 . S
H1041 C1049 0.930 . S
H1042 C1050 0.930 . S
H1043 C1051 0.930 . S
H1044 C1054 0.930 . S
H1045 C1055 0.930 . S
C1046 H1040 0.930 . S
C1046 C1047 1.355 . S
C1046 C1048 1.415 . S
C1047 C1046 1.355 . S
C1047 C1049 1.419 . S
C1048 C1046 1.415 . S
C1048 C1053 1.425 . S
C1048 C1055 1.409 . S
C1049 H1041 0.930 . S
C1049 C1047 1.419 . S
C1049 C1050 1.362 . S
C1050 H1042 0.930 . S
C1050 C1049 1.362 . S
C1050 C1053 1.409 . S
C1051 H1043 0.930 . S
C1051 C1052 1.355 . S
C1051 C1053 1.415 . S
C1052 C1051 1.355 . S
C1052 C1054 1.419 . S
C1053 C1048 1.425 . S
C1053 C1050 1.409 . S
C1053 C1051 1.415 . S
C1054 H1044 0.930 . S
C1054 C1052 1.419 . S
C1054 C1055 1.362 . S
C1055 H1045 0.930 . S
C1055 C1048 1.409 . S
C1055 C1054 1.362 . S
H1056 C1062 0.930 . S
H1057 C1065 0.930 . S
H1058 C1066 0.930 . S
H1059 C1067 0.930 . S
H1060 C1070 0.930 . S
H1061 C1071 0.930 . S
C1062 H1056 0.930 . S
C1062 C1063 1.355 . S
C1062 C1064 1.415 . S
C1063 C1062 1.355 . S
C1063 C1065 1.419 . S
C1064 C1062 1.415 . S
C1064 C1069 1.425 . S
C1064 C1071 1.409 . S
C1065 H1057 0.930 . S
C1065 C1063 1.419 . S
C1065 C1066 1.362 . S
C1066 H1058 0.930 . S
C1066 C1065 1.362 . S
C1066 C1069 1.409 . S
C1067 H1059 0.930 . S
C1067 C1068 1.355 . S
C1067 C1069 1.415 . S
C1068 C1067 1.355 . S
C1068 C1070 1.419 . S
C1069 C1064 1.425 . S
C1069 C1066 1.409 . S
C1069 C1067 1.415 . S
C1070 H1060 0.930 . S
C1070 C1068 1.419 . S
C1070 C1071 1.362 . S
C1071 H1061 0.930 . S
C1071 C1064 1.409 . S
C1071 C1070 1.362 . S
H1072 C1078 0.930 . S
H1073 C1081 0.930 . S
H1074 C1082 0.930 . S
H1075 C1083 0.930 . S
H1076 C1086 0.930 . S
H1077 C1087 0.930 . S
C1078 H1072 0.930 . S
C1078 C1079 1.355 . S
C1078 C1080 1.415 . S
C1079 C1078 1.355 . S
C1079 C1081 1.419 . S
C1080 C1078 1.415 . S
C1080 C1085 1.425 . S
C1080 C1087 1.409 . S
C1081 H1073 0.930 . S
C1081 C1079 1.419 . S
C1081 C1082 1.362 . S
C1082 H1074 0.930 . S
C1082 C1081 1.362 . S
C1082 C1085 1.409 . S
C1083 H1075 0.930 . S
C1083 C1084 1.355 . S
C1083 C1085 1.415 . S
C1084 C1083 1.355 . S
C1084 C1086 1.419 . S
C1085 C1080 1.425 . S
C1085 C1082 1.409 . S
C1085 C1083 1.415 . S
C1086 H1076 0.930 . S
C1086 C1084 1.419 . S
C1086 C1087 1.362 . S
C1087 H1077 0.930 . S
C1087 C1080 1.409 . S
C1087 C1086 1.362 . S
H1088 C1094 0.930 . S
H1089 C1097 0.930 . S
H1090 C1098 0.930 . S
H1091 C1099 0.930 . S
H1092 C1102 0.930 . S
H1093 C1103 0.936 . S
C1094 H1088 0.930 . S
C1094 C1095 1.355 . S
C1094 C1096 1.415 . S
C1095 C1094 1.355 . S
C1095 C1097 1.419 . S
C1096 C1094 1.415 . S
C1096 C1101 1.425 . S
C1096 C1103 1.402 1_556 S
C1097 H1089 0.930 . S
C1097 C1095 1.419 . S
C1097 C1098 1.362 . S
C1098 H1090 0.930 . S
C1098 C1097 1.362 . S
C1098 C1101 1.409 . S
C1099 H1091 0.930 . S
C1099 C1100 1.355 . S
C1099 C1101 1.415 . S
C1100 C1099 1.355 . S
C1100 C1102 1.419 1_556 S
C1101 C1096 1.425 . S
C1101 C1098 1.409 . S
C1101 C1099 1.415 . S
C1102 H1092 0.930 . S
C1102 C1100 1.419 1_554 S
C1102 C1103 1.363 . S
C1103 H1093 0.936 . S
C1103 C1096 1.402 1_554 S
C1103 C1102 1.363 . S
H1104 C1110 0.930 . S
H1105 C1113 0.930 . S
H1106 C1114 0.930 . S
H1107 C1115 0.930 . S
H1108 C1118 0.930 . S
H1109 C1119 0.930 . S
C1110 H1104 0.930 . S
C1110 C1111 1.355 . S
C1110 C1112 1.415 . S
C1111 C1110 1.355 . S
C1111 C1113 1.419 . S
C1112 C1110 1.415 . S
C1112 C1117 1.425 . S
C1112 C1119 1.409 . S
C1113 H1105 0.930 . S
C1113 C1111 1.419 . S
C1113 C1114 1.362 . S
C1114 H1106 0.930 . S
C1114 C1113 1.362 . S
C1114 C1117 1.409 . S
C1115 H1107 0.930 . S
C1115 C1116 1.355 . S
C1115 C1117 1.415 . S
C1116 C1115 1.355 . S
C1116 C1118 1.419 . S
C1117 C1112 1.425 . S
C1117 C1114 1.409 . S
C1117 C1115 1.415 . S
C1118 H1108 0.930 . S
C1118 C1116 1.419 . S
C1118 C1119 1.362 . S
C1119 H1109 0.930 . S
C1119 C1112 1.409 . S
C1119 C1118 1.362 . S
H1120 C1126 0.930 . S
H1121 C1129 0.930 . S
H1122 C1130 0.930 . S
H1123 C1131 0.930 . S
H1124 C1134 0.930 . S
H1125 C1135 0.930 . S
C1126 H1120 0.930 . S
C1126 C1127 1.355 . S
C1126 C1128 1.415 . S
C1127 C1126 1.355 . S
C1127 C1129 1.419 . S
C1128 C1126 1.415 . S
C1128 C1133 1.425 . S
C1128 C1135 1.409 . S
C1129 H1121 0.930 . S
C1129 C1127 1.419 . S
C1129 C1130 1.362 . S
C1130 H1122 0.930 . S
C1130 C1129 1.362 . S
C1130 C1133 1.409 . S
C1131 H1123 0.930 . S
C1131 C1132 1.355 . S
C1131 C1133 1.415 . S
C1132 C1131 1.355 . S
C1132 C1134 1.419 . S
C1133 C1128 1.425 . S
C1133 C1130 1.409 . S
C1133 C1131 1.415 . S
C1134 H1124 0.930 . S
C1134 C1132 1.419 . S
C1134 C1135 1.362 . S
C1135 H1125 0.930 . S
C1135 C1128 1.409 . S
C1135 C1134 1.362 . S
H1136 C1142 0.930 1_554 S
H1137 C1145 0.930 . S
H1138 C1146 0.930 . S
H1139 C1147 0.930 . S
H1140 C1150 0.930 . S
H1141 C1151 0.930 . S
C1142 H1136 0.930 1_556 S
C1142 C1143 1.355 . S
C1142 C1144 1.415 . S
C1143 C1142 1.355 . S
C1143 C1145 1.419 . S
C1144 C1142 1.415 . S
C1144 C1149 1.425 . S
C1144 C1151 1.409 1_556 S
C1145 H1137 0.930 . S
C1145 C1143 1.419 . S
C1145 C1146 1.362 . S
C1146 H1138 0.930 . S
C1146 C1145 1.362 . S
C1146 C1149 1.409 . S
C1147 H1139 0.930 . S
C1147 C1148 1.355 . S
C1147 C1149 1.415 . S
C1148 C1147 1.355 . S
C1148 C1150 1.419 1_556 S
C1149 C1144 1.425 . S
C1149 C1146 1.409 . S
C1149 C1147 1.415 . S
C1150 H1140 0.930 . S
C1150 C1148 1.419 1_554 S
C1150 C1151 1.362 . S
C1151 H1141 0.930 . S
C1151 C1144 1.409 1_554 S
C1151 C1150 1.362 . S
H1152 C1158 0.930 . S
H1153 C1161 0.930 . S
H1154 C1162 0.930 1_556 S
H1155 C1163 0.930 1_556 S
H1156 C1166 0.930 . S
H1157 C1167 0.930 . S
C1158 H1152 0.930 . S
C1158 C1159 1.355 . S
C1158 C1160 1.415 . S
C1159 C1158 1.355 . S
C1159 C1161 1.419 . S
C1160 C1158 1.415 . S
C1160 C1165 1.425 . S
C1160 C1167 1.409 . S
C1161 H1153 0.930 . S
C1161 C1159 1.419 . S
C1161 C1162 1.362 . S
C1162 H1154 0.930 1_554 S
C1162 C1161 1.362 . S
C1162 C1165 1.409 . S
C1163 H1155 0.930 1_554 S
C1163 C1164 1.355 . S
C1163 C1165 1.415 . S
C1164 C1163 1.355 . S
C1164 C1166 1.419 . S
C1165 C1160 1.425 . S
C1165 C1162 1.409 . S
C1165 C1163 1.415 . S
C1166 H1156 0.930 . S
C1166 C1164 1.419 . S
C1166 C1167 1.362 . S
C1167 H1157 0.930 . S
C1167 C1160 1.409 . S
C1167 C1166 1.362 . S
H1168 C1174 0.930 . S
H1169 C1177 0.930 . S
H1170 C1178 0.930 . S
H1171 C1179 0.930 . S
H1172 C1182 0.930 . S
H1173 C1183 0.930 . S
C1174 H1168 0.930 . S
C1174 C1175 1.355 . S
C1174 C1176 1.415 . S
C1175 C1174 1.355 . S
C1175 C1177 1.419 . S
C1176 C1174 1.415 . S
C1176 C1181 1.425 . S
C1176 C1183 1.409 . S
C1177 H1169 0.930 . S
C1177 C1175 1.419 . S
C1177 C1178 1.362 . S
C1178 H1170 0.930 . S
C1178 C1177 1.362 . S
C1178 C1181 1.409 . S
C1179 H1171 0.930 . S
C1179 C1180 1.355 . S
C1179 C1181 1.415 . S
C1180 C1179 1.355 . S
C1180 C1182 1.419 . S
C1181 C1176 1.425 . S
C1181 C1178 1.409 . S
C1181 C1179 1.415 . S
C1182 H1172 0.930 . S
C1182 C1180 1.419 . S
C1182 C1183 1.362 . S
C1183 H1173 0.930 . S
C1183 C1176 1.409 . S
C1183 C1182 1.362 . S
H1184 C1190 0.930 . S
H1185 C1193 0.930 . S
H1186 C1194 0.930 . S
H1187 C1195 0.930 . S
H1188 C1198 0.930 1_556 S
H1189 C1199 0.930 1_556 S
C1190 H1184 0.930 . S
C1190 C1191 1.355 . S
C1190 C1192 1.415 . S
C1191 C1190 1.355 . S
C1191 C1193 1.419 . S
C1192 C1190 1.415 . S
C1192 C1197 1.425 . S
C1192 C1199 1.409 . S
C1193 H1185 0.930 . S
C1193 C1191 1.419 . S
C1193 C1194 1.362 . S
C1194 H1186 0.930 . S
C1194 C1193 1.362 . S
C1194 C1197 1.409 . S
C1195 H1187 0.930 . S
C1195 C1196 1.355 . S
C1195 C1197 1.415 . S
C1196 C1195 1.355 . S
C1196 C1198 1.419 . S
C1197 C1192 1.425 . S
C1197 C1194 1.409 . S
C1197 C1195 1.415 . S
C1198 H1188 0.930 1_554 S
C1198 C1196 1.419 . S
C1198 C1199 1.362 . S
C1199 H1189 0.930 1_554 S
C1199 C1192 1.409 . S
C1199 C1198 1.362 . S
H1200 C1206 0.938 . S
H1201 C1209 0.930 . S
H1202 C1210 0.930 . S
H1203 C1211 0.930 . S
H1204 C1214 0.930 . S
H1205 C1215 0.930 . S
C1206 H1200 0.938 . S
C1206 C1207 1.359 . S
C1206 C1208 1.401 1_655 S
C1207 C1206 1.359 . S
C1207 C1209 1.419 1_655 S
C1208 C1206 1.401 1_455 S
C1208 C1213 1.425 . S
C1208 C1215 1.409 . S
C1209 H1201 0.930 . S
C1209 C1207 1.419 1_455 S
C1209 C1210 1.362 . S
C1210 H1202 0.930 . S
C1210 C1209 1.362 . S
C1210 C1213 1.409 . S
C1211 H1203 0.930 . S
C1211 C1212 1.355 . S
C1211 C1213 1.415 . S
C1212 C1211 1.355 . S
C1212 C1214 1.419 . S
C1213 C1208 1.425 . S
C1213 C1210 1.409 . S
C1213 C1211 1.415 . S
C1214 H1204 0.930 . S
C1214 C1212 1.419 . S
C1214 C1215 1.362 . S
C1215 H1205 0.930 . S
C1215 C1208 1.409 . S
C1215 C1214 1.362 . S
H1216 C1222 0.930 . S
H1217 C1225 0.930 . S
H1218 C1226 0.930 . S
H1219 C1227 0.930 . S
H1220 C1230 0.930 . S
H1221 C1231 0.930 . S
C1222 H1216 0.930 . S
C1222 C1223 1.355 . S
C1222 C1224 1.415 . S
C1223 C1222 1.355 . S
C1223 C1225 1.419 . S
C1224 C1222 1.415 . S
C1224 C1229 1.425 . S
C1224 C1231 1.409 . S
C1225 H1217 0.930 . S
C1225 C1223 1.419 . S
C1225 C1226 1.362 . S
C1226 H1218 0.930 . S
C1226 C1225 1.362 . S
C1226 C1229 1.409 . S
C1227 H1219 0.930 . S
C1227 C1228 1.355 . S
C1227 C1229 1.415 . S
C1228 C1227 1.355 . S
C1228 C1230 1.419 . S
C1229 C1224 1.425 . S
C1229 C1226 1.409 . S
C1229 C1227 1.415 . S
C1230 H1220 0.930 . S
C1230 C1228 1.419 . S
C1230 C1231 1.362 . S
C1231 H1221 0.930 . S
C1231 C1224 1.409 . S
C1231 C1230 1.362 . S
H1232 C1238 0.930 . S
H1233 C1241 0.930 . S
H1234 C1242 0.930 . S
H1235 C1243 0.930 . S
H1236 C1246 0.930 . S
H1237 C1247 0.930 . S
C1238 H1232 0.930 . S
C1238 C1239 1.355 . S
C1238 C1240 1.415 1_545 S
C1239 C1238 1.355 . S
C1239 C1241 1.419 . S
C1240 C1238 1.415 1_565 S
C1240 C1245 1.425 . S
C1240 C1247 1.409 . S
C1241 H1233 0.930 . S
C1241 C1239 1.419 . S
C1241 C1242 1.362 1_545 S
C1242 H1234 0.930 . S
C1242 C1241 1.362 1_565 S
C1242 C1245 1.409 . S
C1243 H1235 0.930 . S
C1243 C1244 1.355 . S
C1243 C1245 1.415 . S
C1244 C1243 1.355 . S
C1244 C1246 1.419 . S
C1245 C1240 1.425 . S
C1245 C1242 1.409 . S
C1245 C1243 1.415 . S
C1246 H1236 0.930 . S
C1246 C1244 1.419 . S
C1246 C1247 1.362 . S
C1247 H1237 0.930 . S
C1247 C1240 1.409 . S
C1247 C1246 1.362 . S
H1248 C1254 0.930 . S
H1249 C1257 0.930 . S
H1250 C1258 0.930 . S
H1251 C1259 0.930 . S
H1252 C1262 0.930 . S
H1253 C1263 0.930 . S
C1254 H1248 0.930 . S
C1254 C1255 1.355 . S
C1254 C1256 1.415 . S
C1255 C1254 1.355 . S
C1255 C1257 1.419 . S
C1256 C1254 1.415 . S
C1256 C1261 1.425 . S
C1256 C1263 1.409 . S
C1257 H1249 0.930 . S
C1257 C1255 1.419 . S
C1257 C1258 1.362 . S
C1258 H1250 0.930 . S
C1258 C1257 1.362 . S
C1258 C1261 1.409 . S
C1259 H1251 0.930 . S
C1259 C1260 1.355 . S
C1259 C1261 1.415 . S
C1260 C1259 1.355 . S
C1260 C1262 1.419 . S
C1261 C1256 1.425 . S
C1261 C1258 1.409 . S
C1261 C1259 1.415 . S
C1262 H1252 0.930 . S
C1262 C1260 1.419 . S
C1262 C1263 1.362 . S
C1263 H1253 0.930 . S
C1263 C1256 1.409 . S
C1263 C1262 1.362 . S
H1264 C1270 0.930 . S
H1265 C1273 0.930 . S
H1266 C1274 0.930 . S
H1267 C1275 0.930 . S
H1268 C1278 0.930 . S
H1269 C1279 0.930 . S
C1270 H1264 0.930 . S
C1270 C1271 1.355 . S
C1270 C1272 1.415 . S
C1271 C1270 1.355 . S
C1271 C1273 1.419 . S
C1272 C1270 1.415 . S
C1272 C1277 1.425 . S
C1272 C1279 1.409 . S
C1273 H1265 0.930 . S
C1273 C1271 1.419 . S
C1273 C1274 1.362 . S
C1274 H1266 0.930 . S
C1274 C1273 1.362 . S
C1274 C1277 1.409 . S
C1275 H1267 0.930 . S
C1275 C1276 1.355 . S
C1275 C1277 1.415 . S
C1276 C1275 1.355 . S
C1276 C1278 1.419 . S
C1277 C1272 1.425 . S
C1277 C1274 1.409 . S
C1277 C1275 1.415 . S
C1278 H1268 0.930 . S
C1278 C1276 1.419 . S
C1278 C1279 1.362 . S
C1279 H1269 0.930 . S
C1279 C1272 1.409 . S
C1279 C1278 1.362 . S
H1280 C1286 0.930 . S
H1281 C1289 0.930 . S
H1282 C1290 0.930 . S
H1283 C1291 0.930 . S
H1284 C1294 0.930 . S
H1285 C1295 0.930 . S
C1286 H1280 0.930 . S
C1286 C1287 1.355 . S
C1286 C1288 1.415 . S
C1287 C1286 1.355 . S
C1287 C1289 1.419 . S
C1288 C1286 1.415 . S
C1288 C1293 1.425 . S
C1288 C1295 1.409 . S
C1289 H1281 0.930 . S
C1289 C1287 1.419 . S
C1289 C1290 1.362 . S
C1290 H1282 0.930 . S
C1290 C1289 1.362 . S
C1290 C1293 1.409 . S
C1291 H1283 0.930 . S
C1291 C1292 1.355 . S
C1291 C1293 1.415 . S
C1292 C1291 1.355 . S
C1292 C1294 1.419 . S
C1293 C1288 1.425 . S
C1293 C1290 1.409 . S
C1293 C1291 1.415 . S
C1294 H1284 0.930 . S
C1294 C1292 1.419 . S
C1294 C1295 1.362 . S
C1295 H1285 0.930 . S
C1295 C1288 1.409 . S
C1295 C1294 1.362 . S
H1296 C1302 0.930 . S
H1297 C1305 0.930 . S
H1298 C1306 0.930 . S
H1299 C1307 0.930 . S
H1300 C1310 0.930 . S
H1301 C1311 0.930 . S
C1302 H1296 0.930 . S
C1302 C1303 1.355 . S
C1302 C1304 1.415 . S
C1303 C1302 1.355 . S
C1303 C1305 1.419 . S
C1304 C1302 1.415 . S
C1304 C1309 1.425 . S
C1304 C1311 1.409 . S
C1305 H1297 0.930 . S
C1305 C1303 1.419 . S
C1305 C1306 1.362 . S
C1306 H1298 0.930 . S
C1306 C1305 1.362 . S
C1306 C1309 1.409 . S
C1307 H1299 0.930 . S
C1307 C1308 1.355 . S
C1307 C1309 1.415 . S
C1308 C1307 1.355 . S
C1308 C1310 1.419 . S
C1309 C1304 1.425 . S
C1309 C1306 1.409 . S
C1309 C1307 1.415 . S
C1310 H1300 0.930 . S
C1310 C1308 1.419 . S
C1310 C1311 1.362 . S
C1311 H1301 0.930 . S
C1311 C1304 1.409 . S
C1311 C1310 1.362 . S
H1312 C1318 0.930 . S
H1313 C1321 0.930 . S
H1314 C1322 0.930 . S
H1315 C1323 0.930 . S
H1316 C1326 0.930 . S
H1317 C1327 0.930 . S
C1318 H1312 0.930 . S
C1318 C1319 1.355 . S
C1318 C1320 1.415 . S
C1319 C1318 1.355 . S
C1319 C1321 1.419 . S
C1320 C1318 1.415 . S
C1320 C1325 1.425 . S
C1320 C1327 1.409 . S
C1321 H1313 0.930 . S
C1321 C1319 1.419 . S
C1321 C1322 1.362 . S
C1322 H1314 0.930 . S
C1322 C1321 1.362 . S
C1322 C1325 1.409 . S
C1323 H1315 0.930 . S
C1323 C1324 1.355 . S
C1323 C1325 1.415 . S
C1324 C1323 1.355 . S
C1324 C1326 1.419 . S
C1325 C1320 1.425 . S
C1325 C1322 1.409 . S
C1325 C1323 1.415 . S
C1326 H1316 0.930 . S
C1326 C1324 1.419 . S
C1326 C1327 1.362 . S
C1327 H1317 0.930 . S
C1327 C1320 1.409 . S
C1327 C1326 1.362 . S
H1328 C1334 0.930 . S
H1329 C1337 0.930 . S
H1330 C1338 0.930 . S
H1331 C1339 0.930 . S
H1332 C1342 0.930 . S
H1333 C1343 0.930 . S
C1334 H1328 0.930 . S
C1334 C1335 1.355 . S
C1334 C1336 1.415 . S
C1335 C1334 1.355 . S
C1335 C1337 1.419 . S
C1336 C1334 1.415 . S
C1336 C1341 1.425 . S
C1336 C1343 1.409 . S
C1337 H1329 0.930 . S
C1337 C1335 1.419 . S
C1337 C1338 1.362 . S
C1338 H1330 0.930 . S
C1338 C1337 1.362 . S
C1338 C1341 1.409 . S
C1339 H1331 0.930 . S
C1339 C1340 1.355 . S
C1339 C1341 1.415 . S
C1340 C1339 1.355 . S
C1340 C1342 1.419 . S
C1341 C1336 1.425 . S
C1341 C1338 1.409 . S
C1341 C1339 1.415 . S
C1342 H1332 0.930 . S
C1342 C1340 1.419 . S
C1342 C1343 1.362 . S
C1343 H1333 0.930 . S
C1343 C1336 1.409 . S
C1343 C1342 1.362 . S
H1344 C1350 0.930 . S
H1345 C1353 0.930 . S
H1346 C1354 0.930 . S
H1347 C1355 0.930 . S
H1348 C1358 0.930 . S
H1349 C1359 0.930 . S
C1350 H1344 0.930 . S
C1350 C1351 1.355 . S
C1350 C1352 1.415 1_545 S
C1351 C1350 1.355 . S
C1351 C1353 1.419 . S
C1352 C1350 1.415 1_565 S
C1352 C1357 1.425 . S
C1352 C1359 1.409 . S
C1353 H1345 0.930 . S
C1353 C1351 1.419 . S
C1353 C1354 1.362 1_545 S
C1354 H1346 0.930 . S
C1354 C1353 1.362 1_565 S
C1354 C1357 1.409 . S
C1355 H1347 0.930 . S
C1355 C1356 1.355 . S
C1355 C1357 1.415 . S
C1356 C1355 1.355 . S
C1356 C1358 1.419 . S
C1357 C1352 1.425 . S
C1357 C1354 1.409 . S
C1357 C1355 1.415 . S
C1358 H1348 0.930 . S
C1358 C1356 1.419 . S
C1358 C1359 1.362 . S
C1359 H1349 0.930 . S
C1359 C1352 1.409 . S
C1359 C1358 1.362 . S
H1360 C1366 0.930 1_655 S
H1361 C1369 0.930 . S
H1362 C1370 0.930 . S
H1363 C1371 0.930 . S
H1364 C1374 0.930 . S
H1365 C1375 0.930 . S
C1366 H1360 0.930 1_455 S
C1366 C1367 1.355 . S
C1366 C1368 1.415 . S
C1367 C1366 1.355 . S
C1367 C1369 1.419 . S
C1368 C1366 1.415 . S
C1368 C1373 1.425 . S
C1368 C1375 1.409 . S
C1369 H1361 0.930 . S
C1369 C1367 1.419 . S
C1369 C1370 1.362 . S
C1370 H1362 0.930 . S
C1370 C1369 1.362 . S
C1370 C1373 1.409 . S
C1371 H1363 0.930 . S
C1371 C1372 1.355 . S
C1371 C1373 1.415 . S
C1372 C1371 1.355 . S
C1372 C1374 1.419 . S
C1373 C1368 1.425 . S
C1373 C1370 1.409 . S
C1373 C1371 1.415 . S
C1374 H1364 0.930 . S
C1374 C1372 1.419 . S
C1374 C1375 1.362 . S
C1375 H1365 0.930 . S
C1375 C1368 1.409 . S
C1375 C1374 1.362 . S
H1376 C1382 0.930 . S
H1377 C1385 0.930 . S
H1378 C1386 0.930 . S
H1379 C1387 0.930 . S
H1380 C1390 0.930 . S
H1381 C1391 0.930 . S
C1382 H1376 0.930 . S
C1382 C1383 1.355 . S
C1382 C1384 1.415 . S
C1383 C1382 1.355 . S
C1383 C1385 1.419 . S
C1384 C1382 1.415 . S
C1384 C1389 1.425 . S
C1384 C1391 1.409 . S
C1385 H1377 0.930 . S
C1385 C1383 1.419 . S
C1385 C1386 1.362 . S
C1386 H1378 0.930 . S
C1386 C1385 1.362 . S
C1386 C1389 1.409 . S
C1387 H1379 0.930 . S
C1387 C1388 1.355 . S
C1387 C1389 1.415 . S
C1388 C1387 1.355 . S
C1388 C1390 1.419 . S
C1389 C1384 1.425 . S
C1389 C1386 1.409 . S
C1389 C1387 1.415 . S
C1390 H1380 0.930 . S
C1390 C1388 1.419 . S
C1390 C1391 1.362 . S
C1391 H1381 0.930 . S
C1391 C1384 1.409 . S
C1391 C1390 1.362 . S
H1392 C1398 0.930 . S
H1393 C1401 0.930 . S
H1394 C1402 0.930 . S
H1395 C1403 0.930 . S
H1396 C1406 0.930 . S
H1397 C1407 0.930 . S
C1398 H1392 0.930 . S
C1398 C1399 1.355 . S
C1398 C1400 1.415 . S
C1399 C1398 1.355 . S
C1399 C1401 1.419 . S
C1400 C1398 1.415 . S
C1400 C1405 1.425 . S
C1400 C1407 1.409 . S
C1401 H1393 0.930 . S
C1401 C1399 1.419 . S
C1401 C1402 1.362 . S
C1402 H1394 0.930 . S
C1402 C1401 1.362 . S
C1402 C1405 1.409 . S
C1403 H1395 0.930 . S
C1403 C1404 1.355 . S
C1403 C1405 1.415 . S
C1404 C1403 1.355 . S
C1404 C1406 1.419 . S
C1405 C1400 1.425 . S
C1405 C1402 1.409 . S
C1405 C1403 1.415 . S
C1406 H1396 0.930 . S
C1406 C1404 1.419 . S
C1406 C1407 1.362 . S
C1407 H1397 0.930 . S
C1407 C1400 1.409 . S
C1407 C1406 1.362 . S
H1408 C1414 0.930 . S
H1409 C1417 0.930 . S
H1410 C1418 0.930 . S
H1411 C1419 0.930 . S
H1412 C1422 0.930 . S
H1413 C1423 0.930 . S
C1414 H1408 0.930 . S
C1414 C1415 1.355 . S
C1414 C1416 1.415 . S
C1415 C1414 1.355 . S
C1415 C1417 1.419 . S
C1416 C1414 1.415 . S
C1416 C1421 1.425 . S
C1416 C1423 1.409 . S
C1417 H1409 0.930 . S
C1417 C1415 1.419 . S
C1417 C1418 1.362 . S
C1418 H1410 0.930 . S
C1418 C1417 1.362 . S
C1418 C1421 1.409 . S
C1419 H1411 0.930 . S
C1419 C1420 1.355 . S
C1419 C1421 1.415 . S
C1420 C1419 1.355 . S
C1420 C1422 1.419 . S
C1421 C1416 1.425 . S
C1421 C1418 1.409 . S
C1421 C1419 1.415 . S
C1422 H1412 0.930 . S
C1422 C1420 1.419 . S
C1422 C1423 1.362 . S
C1423 H1413 0.930 . S
C1423 C1416 1.409 . S
C1423 C1422 1.362 . S
H1424 C1430 0.930 . S
H1425 C1433 0.930 . S
H1426 C1434 0.930 . S
H1427 C1435 0.930 . S
H1428 C1438 0.930 . S
H1429 C1439 0.930 . S
C1430 H1424 0.930 . S
C1430 C1431 1.355 . S
C1430 C1432 1.415 . S
C1431 C1430 1.355 . S
C1431 C1433 1.419 . S
C1432 C1430 1.415 . S
C1432 C1437 1.425 . S
C1432 C1439 1.409 . S
C1433 H1425 0.930 . S
C1433 C1431 1.419 . S
C1433 C1434 1.362 . S
C1434 H1426 0.930 . S
C1434 C1433 1.362 . S
C1434 C1437 1.409 . S
C1435 H1427 0.930 . S
C1435 C1436 1.355 . S
C1435 C1437 1.415 . S
C1436 C1435 1.355 . S
C1436 C1438 1.419 . S
C1437 C1432 1.425 . S
C1437 C1434 1.409 . S
C1437 C1435 1.415 . S
C1438 H1428 0.930 . S
C1438 C1436 1.419 . S
C1438 C1439 1.362 . S
C1439 H1429 0.930 . S
C1439 C1432 1.409 . S
C1439 C1438 1.362 . S
H1440 C1446 0.930 . S
H1441 C1449 0.930 . S
H1442 C1450 0.930 . S
H1443 C1451 0.930 . S
H1444 C1454 0.930 . S
H1445 C1455 0.930 . S
C1446 H1440 0.930 . S
C1446 C1447 1.355 . S
C1446 C1448 1.415 1_565 S
C1447 C1446 1.355 . S
C1447 C1449 1.419 . S
C1448 C1446 1.415 1_545 S
C1448 C1453 1.425 . S
C1448 C1455 1.409 . S
C1449 H1441 0.930 . S
C1449 C1447 1.419 . S
C1449 C1450 1.362 1_565 S
C1450 H1442 0.930 . S
C1450 C1449 1.362 1_545 S
C1450 C1453 1.409 . S
C1451 H1443 0.930 . S
C1451 C1452 1.355 . S
C1451 C1453 1.415 . S
C1452 C1451 1.355 . S
C1452 C1454 1.419 . S
C1453 C1448 1.425 . S
C1453 C1450 1.409 . S
C1453 C1451 1.415 . S
C1454 H1444 0.930 . S
C1454 C1452 1.419 . S
C1454 C1455 1.362 . S
C1455 H1445 0.930 . S
C1455 C1448 1.409 . S
C1455 C1454 1.362 . S
H1456 C1462 0.930 . S
H1457 C1465 0.930 1_455 S
H1458 C1466 0.930 . S
H1459 C1467 0.930 . S
H1460 C1470 0.930 . S
H1461 C1471 0.930 . S
C1462 H1456 0.930 . S
C1462 C1463 1.355 . S
C1462 C1464 1.415 . S
C1463 C1462 1.355 . S
C1463 C1465 1.419 . S
C1464 C1462 1.415 . S
C1464 C1469 1.425 . S
C1464 C1471 1.409 . S
C1465 H1457 0.930 1_655 S
C1465 C1463 1.419 . S
C1465 C1466 1.362 . S
C1466 H1458 0.930 . S
C1466 C1465 1.362 . S
C1466 C1469 1.409 . S
C1467 H1459 0.930 . S
C1467 C1468 1.355 . S
C1467 C1469 1.415 . S
C1468 C1467 1.355 . S
C1468 C1470 1.419 . S
C1469 C1464 1.425 . S
C1469 C1466 1.409 . S
C1469 C1467 1.415 . S
C1470 H1460 0.930 . S
C1470 C1468 1.419 . S
C1470 C1471 1.362 . S
C1471 H1461 0.930 . S
C1471 C1464 1.409 . S
C1471 C1470 1.362 . S
H1472 C1478 0.930 . S
H1473 C1481 0.930 . S
H1474 C1482 0.930 . S
H1475 C1483 0.930 . S
H1476 C1486 0.930 . S
H1477 C1487 0.930 . S
C1478 H1472 0.930 . S
C1478 C1479 1.355 . S
C1478 C1480 1.415 . S
C1479 C1478 1.355 . S
C1479 C1481 1.419 . S
C1480 C1478 1.415 . S
C1480 C1485 1.425 . S
C1480 C1487 1.409 . S
C1481 H1473 0.930 . S
C1481 C1479 1.419 . S
C1481 C1482 1.362 . S
C1482 H1474 0.930 . S
C1482 C1481 1.362 . S
C1482 C1485 1.409 . S
C1483 H1475 0.930 . S
C1483 C1484 1.355 . S
C1483 C1485 1.415 . S
C1484 C1483 1.355 . S
C1484 C1486 1.419 . S
C1485 C1480 1.425 . S
C1485 C1482 1.409 . S
C1485 C1483 1.415 . S
C1486 H1476 0.930 . S
C1486 C1484 1.419 . S
C1486 C1487 1.362 . S
C1487 H1477 0.930 . S
C1487 C1480 1.409 . S
C1487 C1486 1.362 . S
H1488 C1494 0.930 . S
H1489 C1497 0.930 . S
H1490 C1498 0.930 . S
H1491 C1499 0.930 . S
H1492 C1502 0.930 . S
H1493 C1503 0.930 . S
C1494 H1488 0.930 . S
C1494 C1495 1.355 1_655 S
C1494 C1496 1.415 . S
C1495 C1494 1.355 1_455 S
C1495 C1497 1.419 . S
C1496 C1494 1.415 . S
C1496 C1501 1.425 . S
C1496 C1503 1.409 . S
C1497 H1489 0.930 . S
C1497 C1495 1.419 . S
C1497 C1498 1.362 1_455 S
C1498 H1490 0.930 . S
C1498 C1497 1.362 1_655 S
C1498 C1501 1.409 . S
C1499 H1491 0.930 . S
C1499 C1500 1.355 . S
C1499 C1501 1.415 . S
C1500 C1499 1.355 . S
C1500 C1502 1.419 . S
C1501 C1496 1.425 . S
C1501 C1498 1.409 . S
C1501 C1499 1.415 . S
C1502 H1492 0.930 . S
C1502 C1500 1.419 . S
C1502 C1503 1.362 . S
C1503 H1493 0.930 . S
C1503 C1496 1.409 . S
C1503 C1502 1.362 . S
H1504 C1510 0.930 . S
H1505 C1513 0.930 . S
H1506 C1514 0.930 . S
H1507 C1515 0.930 . S
H1508 C1518 0.930 . S
H1509 C1519 0.930 . S
C1510 H1504 0.930 . S
C1510 C1511 1.355 . S
C1510 C1512 1.415 . S
C1511 C1510 1.355 . S
C1511 C1513 1.419 . S
C1512 C1510 1.415 . S
C1512 C1517 1.425 . S
C1512 C1519 1.409 . S
C1513 H1505 0.930 . S
C1513 C1511 1.419 . S
C1513 C1514 1.362 . S
C1514 H1506 0.930 . S
C1514 C1513 1.362 . S
C1514 C1517 1.409 . S
C1515 H1507 0.930 . S
C1515 C1516 1.355 . S
C1515 C1517 1.415 . S
C1516 C1515 1.355 . S
C1516 C1518 1.419 . S
C1517 C1512 1.425 . S
C1517 C1514 1.409 . S
C1517 C1515 1.415 . S
C1518 H1508 0.930 . S
C1518 C1516 1.419 . S
C1518 C1519 1.362 . S
C1519 H1509 0.930 . S
C1519 C1512 1.409 . S
C1519 C1518 1.362 . S
H1520 C1526 0.930 . S
H1521 C1529 0.930 . S
H1522 C1530 0.930 . S
H1523 C1531 0.930 . S
H1524 C1534 0.930 . S
H1525 C1535 0.930 . S
C1526 H1520 0.930 . S
C1526 C1527 1.355 . S
C1526 C1528 1.415 1_565 S
C1527 C1526 1.355 . S
C1527 C1529 1.419 . S
C1528 C1526 1.415 1_545 S
C1528 C1533 1.425 . S
C1528 C1535 1.409 . S
C1529 H1521 0.930 . S
C1529 C1527 1.419 . S
C1529 C1530 1.362 1_565 S
C1530 H1522 0.930 . S
C1530 C1529 1.362 1_545 S
C1530 C1533 1.409 . S
C1531 H1523 0.930 . S
C1531 C1532 1.355 . S
C1531 C1533 1.415 . S
C1532 C1531 1.355 . S
C1532 C1534 1.419 . S
C1533 C1528 1.425 . S
C1533 C1530 1.409 . S
C1533 C1531 1.415 . S
C1534 H1524 0.930 . S
C1534 C1532 1.419 . S
C1534 C1535 1.362 . S
C1535 H1525 0.930 . S
C1535 C1528 1.409 . S
C1535 C1534 1.362 . S
H1536 C1542 0.930 . S
H1537 C1545 0.930 . S
H1538 C1546 0.930 . S
H1539 C1547 0.930 . S
H1540 C1550 0.930 . S
H1541 C1551 0.930 . S
C1542 H1536 0.930 . S
C1542 C1543 1.355 . S
C1542 C1544 1.415 . S
C1543 C1542 1.355 . S
C1543 C1545 1.419 . S
C1544 C1542 1.415 . S
C1544 C1549 1.425 . S
C1544 C1551 1.409 . S
C1545 H1537 0.930 . S
C1545 C1543 1.419 . S
C1545 C1546 1.362 . S
C1546 H1538 0.930 . S
C1546 C1545 1.362 . S
C1546 C1549 1.409 . S
C1547 H1539 0.930 . S
C1547 C1548 1.355 . S
C1547 C1549 1.415 . S
C1548 C1547 1.355 . S
C1548 C1550 1.419 . S
C1549 C1544 1.425 . S
C1549 C1546 1.409 . S
C1549 C1547 1.415 . S
C1550 H1540 0.930 . S
C1550 C1548 1.419 . S
C1550 C1551 1.362 . S
C1551 H1541 0.930 . S
C1551 C1544 1.409 . S
C1551 C1550 1.362 . S
H1552 C1558 0.930 . S
H1553 C1561 0.930 . S
H1554 C1562 0.930 . S
H1555 C1563 0.930 . S
H1556 C1566 0.930 . S
H1557 C1567 0.930 . S
C1558 H1552 0.930 . S
C1558 C1559 1.355 . S
C1558 C1560 1.415 . S
C1559 C1558 1.355 . S
C1559 C1561 1.419 . S
C1560 C1558 1.415 . S
C1560 C1565 1.425 . S
C1560 C1567 1.409 . S
C1561 H1553 0.930 . S
C1561 C1559 1.419 . S
C1561 C1562 1.362 . S
C1562 H1554 0.930 . S
C1562 C1561 1.362 . S
C1562 C1565 1.409 . S
C1563 H1555 0.930 . S
C1563 C1564 1.355 . S
C1563 C1565 1.415 . S
C1564 C1563 1.355 . S
C1564 C1566 1.419 . S
C1565 C1560 1.425 . S
C1565 C1562 1.409 . S
C1565 C1563 1.415 . S
C1566 H1556 0.930 . S
C1566 C1564 1.419 . S
C1566 C1567 1.362 . S
C1567 H1557 0.930 . S
C1567 C1560 1.409 . S
C1567 C1566 1.362 . S
H1568 C1574 0.930 . S
H1569 C1577 0.930 . S
H1570 C1578 0.930 . S
H1571 C1579 0.930 . S
H1572 C1582 0.930 . S
H1573 C1583 0.930 . S
C1574 H1568 0.930 . S
C1574 C1575 1.355 . S
C1574 C1576 1.415 . S
C1575 C1574 1.355 . S
C1575 C1577 1.419 . S
C1576 C1574 1.415 . S
C1576 C1581 1.425 . S
C1576 C1583 1.409 . S
C1577 H1569 0.930 . S
C1577 C1575 1.419 . S
C1577 C1578 1.362 . S
C1578 H1570 0.930 . S
C1578 C1577 1.362 . S
C1578 C1581 1.409 . S
C1579 H1571 0.930 . S
C1579 C1580 1.355 . S
C1579 C1581 1.415 . S
C1580 C1579 1.355 . S
C1580 C1582 1.419 . S
C1581 C1576 1.425 . S
C1581 C1578 1.409 . S
C1581 C1579 1.415 . S
C1582 H1572 0.930 . S
C1582 C1580 1.419 . S
C1582 C1583 1.362 . S
C1583 H1573 0.930 . S
C1583 C1576 1.409 . S
C1583 C1582 1.362 . S
H1584 C1590 0.930 . S
H1585 C1593 0.930 . S
H1586 C1594 0.930 . S
H1587 C1595 0.930 . S
H1588 C1598 0.930 . S
H1589 C1599 0.930 . S
C1590 H1584 0.930 . S
C1590 C1591 1.355 . S
C1590 C1592 1.415 . S
C1591 C1590 1.355 . S
C1591 C1593 1.419 . S
C1592 C1590 1.415 . S
C1592 C1597 1.425 . S
C1592 C1599 1.409 1_565 S
C1593 H1585 0.930 . S
C1593 C1591 1.419 . S
C1593 C1594 1.362 . S
C1594 H1586 0.930 . S
C1594 C1593 1.362 . S
C1594 C1597 1.409 . S
C1595 H1587 0.930 . S
C1595 C1596 1.355 . S
C1595 C1597 1.415 . S
C1596 C1595 1.355 . S
C1596 C1598 1.419 1_565 S
C1597 C1592 1.425 . S
C1597 C1594 1.409 . S
C1597 C1595 1.415 . S
C1598 H1588 0.930 . S
C1598 C1596 1.419 1_545 S
C1598 C1599 1.362 . S
C1599 H1589 0.930 . S
C1599 C1592 1.409 1_545 S
C1599 C1598 1.362 . S
H1600 C1606 0.930 . S
H1601 C1609 0.930 . S
H1602 C1610 0.930 . S
H1603 C1611 0.930 . S
H1604 C1614 0.930 . S
H1605 C1615 0.930 . S
C1606 H1600 0.930 . S
C1606 C1607 1.355 1_655 S
C1606 C1608 1.409 1_655 S
C1607 C1606 1.355 1_455 S
C1607 C1609 1.419 . S
C1608 C1606 1.409 1_455 S
C1608 C1613 1.441 . S
C1608 C1615 1.400 1_455 S
C1609 H1601 0.930 . S
C1609 C1607 1.419 . S
C1609 C1610 1.362 . S
C1610 H1602 0.930 . S
C1610 C1609 1.362 . S
C1610 C1613 1.409 . S
C1611 H1603 0.930 . S
C1611 C1612 1.355 . S
C1611 C1613 1.415 . S
C1612 C1611 1.355 . S
C1612 C1614 1.419 1_455 S
C1613 C1608 1.441 . S
C1613 C1610 1.409 . S
C1613 C1611 1.415 . S
C1614 H1604 0.930 . S
C1614 C1612 1.419 1_655 S
C1614 C1615 1.362 . S
C1615 H1605 0.930 . S
C1615 C1608 1.400 1_655 S
C1615 C1614 1.362 . S
H1616 C1622 0.930 . S
H1617 C1625 0.930 . S
H1618 C1626 0.930 . S
H1619 C1627 0.930 . S
H1620 C1630 0.930 . S
H1621 C1631 0.930 . S
C1622 H1616 0.930 . S
C1622 C1623 1.355 . S
C1622 C1624 1.415 . S
C1623 C1622 1.355 . S
C1623 C1625 1.419 . S
C1624 C1622 1.415 . S
C1624 C1629 1.425 . S
C1624 C1631 1.409 . S
C1625 H1617 0.930 . S
C1625 C1623 1.419 . S
C1625 C1626 1.362 . S
C1626 H1618 0.930 . S
C1626 C1625 1.362 . S
C1626 C1629 1.409 . S
C1627 H1619 0.930 . S
C1627 C1628 1.355 . S
C1627 C1629 1.415 . S
C1628 C1627 1.355 . S
C1628 C1630 1.419 . S
C1629 C1624 1.425 . S
C1629 C1626 1.409 . S
C1629 C1627 1.415 . S
C1630 H1620 0.930 . S
C1630 C1628 1.419 . S
C1630 C1631 1.362 . S
C1631 H1621 0.930 . S
C1631 C1624 1.409 . S
C1631 C1630 1.362 . S
H1632 C1638 0.930 . S
H1633 C1641 0.930 . S
H1634 C1642 0.930 . S
H1635 C1643 0.930 . S
H1636 C1646 0.930 . S
H1637 C1647 0.937 . S
C1638 H1632 0.930 . S
C1638 C1639 1.355 . S
C1638 C1640 1.415 . S
C1639 C1638 1.355 . S
C1639 C1641 1.419 . S
C1640 C1638 1.415 . S
C1640 C1645 1.425 . S
C1640 C1647 1.409 . S
C1641 H1633 0.930 . S
C1641 C1639 1.419 . S
C1641 C1642 1.362 . S
C1642 H1634 0.930 . S
C1642 C1641 1.362 . S
C1642 C1645 1.409 . S
C1643 H1635 0.930 . S
C1643 C1644 1.355 . S
C1643 C1645 1.415 . S
C1644 C1643 1.355 . S
C1644 C1646 1.419 . S
C1645 C1640 1.425 . S
C1645 C1642 1.409 . S
C1645 C1643 1.415 . S
C1646 H1636 0.930 . S
C1646 C1644 1.419 . S
C1646 C1647 1.362 . S
C1647 H1637 0.937 . S
C1647 C1640 1.409 . S
C1647 C1646 1.362 . S
H1648 C1654 0.930 . S
H1649 C1657 0.930 . S
H1650 C1658 0.930 . S
H1651 C1659 0.930 . S
H1652 C1662 0.930 . S
H1653 C1663 0.930 . S
C1654 H1648 0.930 . S
C1654 C1655 1.355 . S
C1654 C1656 1.415 . S
C1655 C1654 1.355 . S
C1655 C1657 1.419 . S
C1656 C1654 1.415 . S
C1656 C1661 1.425 . S
C1656 C1663 1.409 . S
C1657 H1649 0.930 . S
C1657 C1655 1.419 . S
C1657 C1658 1.362 . S
C1658 H1650 0.930 . S
C1658 C1657 1.362 . S
C1658 C1661 1.409 . S
C1659 H1651 0.930 . S
C1659 C1660 1.355 . S
C1659 C1661 1.415 . S
C1660 C1659 1.355 . S
C1660 C1662 1.419 . S
C1661 C1656 1.425 . S
C1661 C1658 1.409 . S
C1661 C1659 1.415 . S
C1662 H1652 0.930 . S
C1662 C1660 1.419 . S
C1662 C1663 1.362 . S
C1663 H1653 0.930 . S
C1663 C1656 1.409 . S
C1663 C1662 1.362 . S
H1664 C1670 0.930 . S
H1665 C1673 0.930 1_565 S
H1666 C1674 0.930 . S
H1667 C1675 0.930 . S
H1668 C1678 0.930 . S
H1669 C1679 0.930 . S
C1670 H1664 0.930 . S
C1670 C1671 1.355 . S
C1670 C1672 1.415 . S
C1671 C1670 1.355 . S
C1671 C1673 1.419 . S
C1672 C1670 1.415 . S
C1672 C1677 1.425 . S
C1672 C1679 1.409 . S
C1673 H1665 0.930 1_545 S
C1673 C1671 1.419 . S
C1673 C1674 1.362 1_545 S
C1674 H1666 0.930 . S
C1674 C1673 1.362 1_565 S
C1674 C1677 1.409 1_565 S
C1675 H1667 0.930 . S
C1675 C1676 1.355 1_565 S
C1675 C1677 1.415 1_565 S
C1676 C1675 1.355 1_545 S
C1676 C1678 1.419 . S
C1677 C1672 1.425 . S
C1677 C1674 1.409 1_545 S
C1677 C1675 1.415 1_545 S
C1678 H1668 0.930 . S
C1678 C1676 1.419 . S
C1678 C1679 1.362 . S
C1679 H1669 0.930 . S
C1679 C1672 1.409 . S
C1679 C1678 1.362 . S
H1680 C1686 0.930 . S
H1681 C1689 0.930 . S
H1682 C1690 0.930 . S
H1683 C1691 0.930 . S
H1684 C1694 0.930 . S
H1685 C1695 0.930 . S
C1686 H1680 0.930 . S
C1686 C1687 1.355 . S
C1686 C1688 1.415 . S
C1687 C1686 1.355 . S
C1687 C1689 1.419 . S
C1688 C1686 1.415 . S
C1688 C1693 1.425 . S
C1688 C1695 1.409 . S
C1689 H1681 0.930 . S
C1689 C1687 1.419 . S
C1689 C1690 1.362 . S
C1690 H1682 0.930 . S
C1690 C1689 1.362 . S
C1690 C1693 1.409 . S
C1691 H1683 0.930 . S
C1691 C1692 1.355 . S
C1691 C1693 1.415 . S
C1692 C1691 1.355 . S
C1692 C1694 1.419 . S
C1693 C1688 1.425 . S
C1693 C1690 1.409 . S
C1693 C1691 1.415 . S
C1694 H1684 0.930 . S
C1694 C1692 1.419 . S
C1694 C1695 1.362 . S
C1695 H1685 0.930 . S
C1695 C1688 1.409 . S
C1695 C1694 1.362 . S
H1696 C1702 0.930 . S
H1697 C1705 0.930 . S
H1698 C1706 0.930 . S
H1699 C1707 0.930 . S
H1700 C1710 0.930 . S
H1701 C1711 0.930 . S
C1702 H1696 0.930 . S
C1702 C1703 1.355 . S
C1702 C1704 1.415 . S
C1703 C1702 1.355 . S
C1703 C1705 1.419 . S
C1704 C1702 1.415 . S
C1704 C1709 1.425 . S
C1704 C1711 1.409 . S
C1705 H1697 0.930 . S
C1705 C1703 1.419 . S
C1705 C1706 1.362 . S
C1706 H1698 0.930 . S
C1706 C1705 1.362 . S
C1706 C1709 1.409 . S
C1707 H1699 0.930 . S
C1707 C1708 1.355 . S
C1707 C1709 1.415 . S
C1708 C1707 1.355 . S
C1708 C1710 1.419 . S
C1709 C1704 1.425 . S
C1709 C1706 1.409 . S
C1709 C1707 1.415 . S
C1710 H1700 0.930 . S
C1710 C1708 1.419 . S
C1710 C1711 1.362 . S
C1711 H1701 0.930 . S
C1711 C1704 1.409 . S
C1711 C1710 1.362 . S
H1712 C1718 0.930 . S
H1713 C1721 0.930 . S
H1714 C1722 0.930 . S
H1715 C1723 0.930 . S
H1716 C1726 0.930 . S
H1717 C1727 0.930 . S
C1718 H1712 0.930 . S
C1718 C1719 1.355 . S
C1718 C1720 1.415 . S
C1719 C1718 1.355 . S
C1719 C1721 1.419 . S
C1720 C1718 1.415 . S
C1720 C1725 1.425 . S
C1720 C1727 1.409 . S
C1721 H1713 0.930 . S
C1721 C1719 1.419 . S
C1721 C1722 1.362 . S
C1722 H1714 0.930 . S
C1722 C1721 1.362 . S
C1722 C1725 1.409 . S
C1723 H1715 0.930 . S
C1723 C1724 1.355 . S
C1723 C1725 1.415 . S
C1724 C1723 1.355 . S
C1724 C1726 1.419 . S
C1725 C1720 1.425 . S
C1725 C1722 1.409 . S
C1725 C1723 1.415 . S
C1726 H1716 0.930 . S
C1726 C1724 1.419 . S
C1726 C1727 1.362 . S
C1727 H1717 0.930 . S
C1727 C1720 1.409 . S
C1727 C1726 1.362 . S
H1728 C1734 0.930 . S
H1729 C1737 0.930 . S
H1730 C1738 0.930 . S
H1731 C1739 0.930 . S
H1732 C1742 0.930 . S
H1733 C1743 0.930 . S
C1734 H1728 0.930 . S
C1734 C1735 1.355 . S
C1734 C1736 1.415 . S
C1735 C1734 1.355 . S
C1735 C1737 1.419 . S
C1736 C1734 1.415 . S
C1736 C1741 1.425 . S
C1736 C1743 1.409 . S
C1737 H1729 0.930 . S
C1737 C1735 1.419 . S
C1737 C1738 1.362 . S
C1738 H1730 0.930 . S
C1738 C1737 1.362 . S
C1738 C1741 1.409 . S
C1739 H1731 0.930 . S
C1739 C1740 1.355 . S
C1739 C1741 1.415 . S
C1740 C1739 1.355 . S
C1740 C1742 1.419 . S
C1741 C1736 1.425 . S
C1741 C1738 1.409 . S
C1741 C1739 1.415 . S
C1742 H1732 0.930 . S
C1742 C1740 1.419 . S
C1742 C1743 1.362 . S
C1743 H1733 0.930 . S
C1743 C1736 1.409 . S
C1743 C1742 1.362 . S
H1744 C1750 0.930 . S
H1745 C1753 0.930 . S
H1746 C1754 0.930 . S
H1747 C1755 0.930 . S
H1748 C1758 0.930 . S
H1749 C1759 0.930 . S
C1750 H1744 0.930 . S
C1750 C1751 1.355 . S
C1750 C1752 1.415 . S
C1751 C1750 1.355 . S
C1751 C1753 1.419 . S
C1752 C1750 1.415 . S
C1752 C1757 1.425 . S
C1752 C1759 1.409 . S
C1753 H1745 0.930 . S
C1753 C1751 1.419 . S
C1753 C1754 1.362 . S
C1754 H1746 0.930 . S
C1754 C1753 1.362 . S
C1754 C1757 1.409 . S
C1755 H1747 0.930 . S
C1755 C1756 1.355 . S
C1755 C1757 1.415 . S
C1756 C1755 1.355 . S
C1756 C1758 1.419 . S
C1757 C1752 1.425 . S
C1757 C1754 1.409 . S
C1757 C1755 1.415 . S
C1758 H1748 0.930 . S
C1758 C1756 1.419 . S
C1758 C1759 1.362 . S
C1759 H1749 0.930 . S
C1759 C1752 1.409 . S
C1759 C1758 1.362 . S
H1760 C1766 0.930 . S
H1761 C1769 0.930 . S
H1762 C1770 0.930 . S
H1763 C1771 0.930 . S
H1764 C1774 0.930 . S
H1765 C1775 0.930 . S
C1766 H1760 0.930 . S
C1766 C1767 1.355 . S
C1766 C1768 1.415 . S
C1767 C1766 1.355 . S
C1767 C1769 1.419 . S
C1768 C1766 1.415 . S
C1768 C1773 1.425 . S
C1768 C1775 1.409 . S
C1769 H1761 0.930 . S
C1769 C1767 1.419 . S
C1769 C1770 1.362 . S
C1770 H1762 0.930 . S
C1770 C1769 1.362 . S
C1770 C1773 1.409 . S
C1771 H1763 0.930 . S
C1771 C1772 1.355 . S
C1771 C1773 1.415 . S
C1772 C1771 1.355 . S
C1772 C1774 1.419 . S
C1773 C1768 1.425 . S
C1773 C1770 1.409 . S
C1773 C1771 1.415 . S
C1774 H1764 0.930 . S
C1774 C1772 1.419 . S
C1774 C1775 1.362 . S
C1775 H1765 0.930 . S
C1775 C1768 1.409 . S
C1775 C1774 1.362 . S
H1776 C1782 0.930 . S
H1777 C1785 0.930 . S
H1778 C1786 0.930 . S
H1779 C1787 0.930 . S
H1780 C1790 0.930 . S
H1781 C1791 0.930 . S
C1782 H1776 0.930 . S
C1782 C1783 1.355 . S
C1782 C1784 1.415 . S
C1783 C1782 1.355 . S
C1783 C1785 1.419 . S
C1784 C1782 1.415 . S
C1784 C1789 1.425 . S
C1784 C1791 1.409 . S
C1785 H1777 0.930 . S
C1785 C1783 1.419 . S
C1785 C1786 1.362 . S
C1786 H1778 0.930 . S
C1786 C1785 1.362 . S
C1786 C1789 1.409 . S
C1787 H1779 0.930 . S
C1787 C1788 1.355 . S
C1787 C1789 1.415 . S
C1788 C1787 1.355 . S
C1788 C1790 1.419 . S
C1789 C1784 1.425 . S
C1789 C1786 1.409 . S
C1789 C1787 1.415 . S
C1790 H1780 0.930 . S
C1790 C1788 1.419 . S
C1790 C1791 1.362 . S
C1791 H1781 0.930 . S
C1791 C1784 1.409 . S
C1791 C1790 1.362 . S
H1792 C1798 0.930 . S
H1793 C1801 0.930 . S
H1794 C1802 0.930 . S
H1795 C1803 0.930 . S
H1796 C1806 0.930 . S
H1797 C1807 0.930 . S
C1798 H1792 0.930 . S
C1798 C1799 1.355 . S
C1798 C1800 1.415 . S
C1799 C1798 1.355 . S
C1799 C1801 1.419 . S
C1800 C1798 1.415 . S
C1800 C1805 1.425 . S
C1800 C1807 1.409 . S
C1801 H1793 0.930 . S
C1801 C1799 1.419 . S
C1801 C1802 1.362 . S
C1802 H1794 0.930 . S
C1802 C1801 1.362 . S
C1802 C1805 1.409 . S
C1803 H1795 0.930 . S
C1803 C1804 1.355 . S
C1803 C1805 1.415 . S
C1804 C1803 1.355 . S
C1804 C1806 1.419 . S
C1805 C1800 1.425 . S
C1805 C1802 1.409 . S
C1805 C1803 1.415 . S
C1806 H1796 0.930 . S
C1806 C1804 1.419 . S
C1806 C1807 1.362 . S
C1807 H1797 0.930 . S
C1807 C1800 1.409 . S
C1807 C1806 1.362 . S
H1808 C1814 0.930 . S
H1809 C1817 0.930 . S
H1810 C1818 0.930 . S
H1811 C1819 0.930 . S
H1812 C1822 0.930 . S
H1813 C1823 0.930 . S
C1814 H1808 0.930 . S
C1814 C1815 1.355 . S
C1814 C1816 1.415 . S
C1815 C1814 1.355 . S
C1815 C1817 1.419 . S
C1816 C1814 1.415 . S
C1816 C1821 1.425 . S
C1816 C1823 1.409 . S
C1817 H1809 0.930 . S
C1817 C1815 1.419 . S
C1817 C1818 1.362 . S
C1818 H1810 0.930 . S
C1818 C1817 1.362 . S
C1818 C1821 1.409 . S
C1819 H1811 0.930 . S
C1819 C1820 1.355 . S
C1819 C1821 1.415 . S
C1820 C1819 1.355 . S
C1820 C1822 1.419 . S
C1821 C1816 1.425 . S
C1821 C1818 1.409 . S
C1821 C1819 1.415 . S
C1822 H1812 0.930 . S
C1822 C1820 1.419 . S
C1822 C1823 1.362 . S
C1823 H1813 0.930 . S
C1823 C1816 1.409 . S
C1823 C1822 1.362 . S
H1824 C1830 0.930 . S
H1825 C1833 0.930 . S
H1826 C1834 0.930 . S
H1827 C1835 0.930 . S
H1828 C1838 0.930 . S
H1829 C1839 0.930 . S
C1830 H1824 0.930 . S
C1830 C1831 1.355 . S
C1830 C1832 1.415 . S
C1831 C1830 1.355 . S
C1831 C1833 1.419 . S
C1832 C1830 1.415 . S
C1832 C1837 1.425 . S
C1832 C1839 1.409 . S
C1833 H1825 0.930 . S
C1833 C1831 1.419 . S
C1833 C1834 1.362 . S
C1834 H1826 0.930 . S
C1834 C1833 1.362 . S
C1834 C1837 1.409 . S
C1835 H1827 0.930 . S
C1835 C1836 1.355 . S
C1835 C1837 1.415 . S
C1836 C1835 1.355 . S
C1836 C1838 1.419 . S
C1837 C1832 1.425 . S
C1837 C1834 1.409 . S
C1837 C1835 1.415 . S
C1838 H1828 0.930 . S
C1838 C1836 1.419 . S
C1838 C1839 1.362 . S
C1839 H1829 0.930 . S
C1839 C1832 1.409 . S
C1839 C1838 1.362 . S
H1840 C1846 0.930 . S
H1841 C1849 0.930 . S
H1842 C1850 0.930 . S
H1843 C1851 0.930 . S
H1844 C1854 0.930 . S
H1845 C1855 0.930 . S
C1846 H1840 0.930 . S
C1846 C1847 1.355 . S
C1846 C1848 1.415 . S
C1847 C1846 1.355 . S
C1847 C1849 1.419 . S
C1848 C1846 1.415 . S
C1848 C1853 1.425 . S
C1848 C1855 1.409 . S
C1849 H1841 0.930 . S
C1849 C1847 1.419 . S
C1849 C1850 1.362 . S
C1850 H1842 0.930 . S
C1850 C1849 1.362 . S
C1850 C1853 1.409 . S
C1851 H1843 0.930 . S
C1851 C1852 1.355 . S
C1851 C1853 1.415 . S
C1852 C1851 1.355 . S
C1852 C1854 1.419 . S
C1853 C1848 1.425 . S
C1853 C1850 1.409 . S
C1853 C1851 1.415 . S
C1854 H1844 0.930 . S
C1854 C1852 1.419 . S
C1854 C1855 1.362 . S
C1855 H1845 0.930 . S
C1855 C1848 1.409 . S
C1855 C1854 1.362 . S
H1856 C1862 0.930 . S
H1857 C1865 0.930 . S
H1858 C1866 0.930 . S
H1859 C1867 0.930 . S
H1860 C1870 0.930 . S
H1861 C1871 0.930 . S
C1862 H1856 0.930 . S
C1862 C1863 1.355 . S
C1862 C1864 1.415 . S
C1863 C1862 1.355 . S
C1863 C1865 1.419 . S
C1864 C1862 1.415 . S
C1864 C1869 1.425 . S
C1864 C1871 1.409 . S
C1865 H1857 0.930 . S
C1865 C1863 1.419 . S
C1865 C1866 1.362 . S
C1866 H1858 0.930 . S
C1866 C1865 1.362 . S
C1866 C1869 1.409 . S
C1867 H1859 0.930 . S
C1867 C1868 1.355 . S
C1867 C1869 1.415 . S
C1868 C1867 1.355 . S
C1868 C1870 1.419 . S
C1869 C1864 1.425 . S
C1869 C1866 1.409 . S
C1869 C1867 1.415 . S
C1870 H1860 0.930 . S
C1870 C1868 1.419 . S
C1870 C1871 1.362 . S
C1871 H1861 0.930 . S
C1871 C1864 1.409 . S
C1871 C1870 1.362 . S
C1015 C469 1.708 . S
C1020 C651 1.711 . S
C1031 C505 1.783 . S
C1036 C691 1.781 . S
C1047 C433 1.795 . S
C1052 C743 1.773 . S
C1063 C397 1.606 . S
C1068 C703 1.570 . S
C1084 C731 1.495 . S
C1079 C325 1.479 . S
C1095 C361 1.481 . S
C1100 C663 1.475 . S
C1116 C670 1.690 . S
C1111 C421 1.691 . S
C1132 C710 1.788 . S
C1127 C349 1.789 . S
C1143 C385 1.756 . S
C1148 C730 1.751 . S
C1159 C493 1.611 . S
C1164 C690 1.613 . S
C1175 C529 1.485 . S
C1180 C750 1.479 . S
C1196 C650 1.467 . S
C1191 C457 1.455 . S
C1212 C771 1.693 . S
C1207 C37 1.686 . S
C1223 C73 1.797 . S
C1228 C811 1.797 . S
C1239 C1 1.804 . S
C1244 C863 1.793 . S
C1255 C613 1.584 . S
C1260 C823 1.561 . S
C1271 C541 1.502 . S
C1276 C851 1.499 . S
C1287 C577 1.447 . S
C1292 C783 1.473 . S
C1303 C637 1.730 . S
C1308 C790 1.729 . S
C1319 C565 1.793 . S
C1324 C830 1.792 . S
C1340 C850 1.802 . S
C1335 C601 1.798 . S
C1351 C61 1.593 . S
C1356 C810 1.595 . S
C1372 C870 1.503 . S
C1367 C97 1.505 1_455 S
C1383 C25 1.465 . S
C1388 C770 1.488 . S
C1404 C891 1.688 . S
C1399 C253 1.679 . S
C1415 C289 1.783 . S
C1420 C931 1.783 . S
C1436 C983 1.763 . S
C1431 C217 1.787 . S
C1452 C943 1.572 . S
C1447 C181 1.580 . S
C1468 C971 1.486 . S
C1463 C109 1.470 1_655 S
C1479 C145 1.492 . S
C1484 C903 1.518 . S
C1495 C205 1.691 . S
C1500 C910 1.690 . S
C1511 C133 1.776 . S
C1516 C950 1.769 . S
C1532 C970 1.764 . S
C1527 C169 1.772 . S
C1543 C277 1.612 . S
C1548 C930 1.614 . S
C1559 C313 1.486 . S
C1564 C990 1.481 . S
C1575 C241 1.503 . S
C1580 C890 1.500 . S
C1591 C571 1.351 . S
C1596 C674 1.326 . S
C1612 C714 1.814 . S
C1607 C607 1.852 . S
C1623 C643 1.567 . S
C1628 C737 1.557 . S
C1639 C247 1.854 . S
C1644 C697 1.811 . S
C1655 C283 1.575 . S
C1660 C754 1.558 . S
C1676 C657 1.327 . S
C1671 C319 1.349 . S
C1687 C139 1.349 . S
C1692 C794 1.323 . S
C1703 C175 1.873 . S
C1708 C834 1.856 . S
C1719 C211 1.569 . S
C1724 C857 1.556 . S
C1735 C463 1.871 . S
C1740 C817 1.855 . S
C1756 C874 1.586 . S
C1751 C499 1.585 . S
C1767 C535 1.359 . S
C1772 C777 1.344 . S
C1783 C355 1.352 . S
C1788 C914 1.326 . S
C1799 C391 1.859 . S
C1804 C954 1.825 . S
C1820 C977 1.559 . S
C1815 C427 1.566 . S
C1831 C31 1.859 . S
C1836 C937 1.846 . S
C1847 C67 1.571 . S
C1852 C994 1.566 . S
C1863 C103 1.352 . S
C1868 C897 1.322 . S
