# Generated by pormake.
# Topology nom, (4,4)-cn, num edge types: 1
# Building blocks:
#     Node 0, Type 0, BuildingBlock: MIFKUJ_clean_linker_1, # of connection points: 4
#     Node 1, Type 0, BuildingBlock: MIFKUJ_clean_linker_1, # of connection points: 4
#     Node 2, Type 0, BuildingBlock: MIFKUJ_clean_linker_1, # of connection points: 4
#     Node 3, Type 0, BuildingBlock: MIFKUJ_clean_linker_1, # of connection points: 4
#     Node 4, Type 0, BuildingBlock: MIFKUJ_clean_linker_1, # of connection points: 4
#     Node 5, Type 0, BuildingBlock: MIFKUJ_clean_linker_1, # of connection points: 4
#     Node 6, Type 1, BuildingBlock: QUQFOY_clean_sbu_3, # of connection points: 4
#     Node 7, Type 1, BuildingBlock: QUQFOY_clean_sbu_3, # of connection points: 4
#     Node 8, Type 1, BuildingBlock: QUQFOY_clean_sbu_3, # of connection points: 4
#     Node 9, Type 1, BuildingBlock: QUQFOY_clean_sbu_3, # of connection points: 4
#     Node 10, Type 1, BuildingBlock: QUQFOY_clean_sbu_3, # of connection points: 4
#     Node 11, Type 1, BuildingBlock: QUQFOY_clean_sbu_3, # of connection points: 4
#     Edge 12, Type (0, 1), BuildingBlock: EYOCIG_clean_linker_4, # of connection points: 2
#     Edge 13, Type (0, 1), BuildingBlock: EYOCIG_clean_linker_4, # of connection points: 2
#     Edge 14, Type (0, 1), BuildingBlock: EYOCIG_clean_linker_4, # of connection points: 2
#     Edge 15, Type (0, 1), BuildingBlock: EYOCIG_clean_linker_4, # of connection points: 2
#     Edge 16, Type (0, 1), BuildingBlock: EYOCIG_clean_linker_4, # of connection points: 2
#     Edge 17, Type (0, 1), BuildingBlock: EYOCIG_clean_linker_4, # of connection points: 2
#     Edge 18, Type (0, 1), BuildingBlock: EYOCIG_clean_linker_4, # of connection points: 2
#     Edge 19, Type (0, 1), BuildingBlock: EYOCIG_clean_linker_4, # of connection points: 2
#     Edge 20, Type (0, 1), BuildingBlock: EYOCIG_clean_linker_4, # of connection points: 2
#     Edge 21, Type (0, 1), BuildingBlock: EYOCIG_clean_linker_4, # of connection points: 2
#     Edge 22, Type (0, 1), BuildingBlock: EYOCIG_clean_linker_4, # of connection points: 2
#     Edge 23, Type (0, 1), BuildingBlock: EYOCIG_clean_linker_4, # of connection points: 2
#     Edge 24, Type (0, 1), BuildingBlock: EYOCIG_clean_linker_4, # of connection points: 2
#     Edge 25, Type (0, 1), BuildingBlock: EYOCIG_clean_linker_4, # of connection points: 2
#     Edge 26, Type (0, 1), BuildingBlock: EYOCIG_clean_linker_4, # of connection points: 2
#     Edge 27, Type (0, 1), BuildingBlock: EYOCIG_clean_linker_4, # of connection points: 2
#     Edge 28, Type (0, 1), BuildingBlock: EYOCIG_clean_linker_4, # of connection points: 2
#     Edge 29, Type (0, 1), BuildingBlock: EYOCIG_clean_linker_4, # of connection points: 2
#     Edge 30, Type (0, 1), BuildingBlock: EYOCIG_clean_linker_4, # of connection points: 2
#     Edge 31, Type (0, 1), BuildingBlock: EYOCIG_clean_linker_4, # of connection points: 2
#     Edge 32, Type (0, 1), BuildingBlock: EYOCIG_clean_linker_4, # of connection points: 2
#     Edge 33, Type (0, 1), BuildingBlock: EYOCIG_clean_linker_4, # of connection points: 2
#     Edge 34, Type (0, 1), BuildingBlock: EYOCIG_clean_linker_4, # of connection points: 2
#     Edge 35, Type (0, 1), BuildingBlock: EYOCIG_clean_linker_4, # of connection points: 2
# Relax obj value: 0.002
# Max RMSD: 0.100
# Mean RMSD: 0.065
data_MOF--net-nom--node1-QUQFOY_clean_sbu_3--node2-MIFKUJ_clean_linker_1--edge1-EYOCIG_clean_linker_4
_symmetry_space_group_name_H-M    P1
_symmetry_Int_Tables_number       1
_symmetry_cell_setting            triclinic
loop_
_symmetry_equiv_pos_as_xyz
'x, y, z'
_cell_length_a     44.50545
_cell_length_b     45.63585
_cell_length_c     47.603028
_cell_angle_alpha  89.979734
_cell_angle_beta   90.01501
_cell_angle_gamma 120.08132
loop_
_atom_site_label
_atom_site_type_symbol
_atom_site_fract_x
_atom_site_fract_y
_atom_site_fract_z
_atom_type_partial_charge
H0 H 0.97419 0.46449 0.2585 0.0
H1 H 0.93391 0.44228 0.21867 0.0
H2 H 0.8915 0.50568 0.24161 0.0
H3 H 0.93202 0.52816 0.28155 0.0
H4 H 0.02459 0.52891 0.26951 0.0
H5 H 0.91856 0.44414 0.31178 0.0
H6 H 0.85696 0.41553 0.32511 0.0
H7 H 0.87498 0.50407 0.37145 0.0
H8 H 0.93624 0.53312 0.35758 0.0
H9 H 0.03655 0.58473 0.38039 0.0
H10 H 0.07456 0.60262 0.42188 0.0
H11 H 0.11481 0.53817 0.39649 0.0
H12 H 0.07679 0.52013 0.35508 0.0
H13 H 0.98551 0.52079 0.3682 0.0
H14 H 0.08909 0.60558 0.32679 0.0
H15 H 0.15016 0.63735 0.31293 0.0
H16 H 0.13769 0.55148 0.26549 0.0
H17 H 0.0764 0.519 0.27999 0.0
C18 C 0.95579 0.49764 0.27313 0.0
C19 C 0.95629 0.47368 0.25496 0.0
C20 C 0.93336 0.46101 0.23232 0.0
C21 C 0.90978 0.47225 0.22751 0.0
C22 C 0.90948 0.49661 0.24526 0.0
C23 C 0.93241 0.50927 0.26802 0.0
C24 C 0.98039 0.51091 0.29699 0.0
C25 C 0.01606 0.5267 0.29115 0.0
C26 C 0.96916 0.5088 0.32512 0.0
C27 C 0.93191 0.49111 0.33311 0.0
C28 C 0.90922 0.4576 0.32448 0.0
C29 C 0.87423 0.44115 0.33231 0.0
C30 C 0.86172 0.4579 0.34908 0.0
C31 C 0.88436 0.49091 0.35837 0.0
C32 C 0.91923 0.50743 0.35044 0.0
C33 C 0.05403 0.55124 0.36465 0.0
C34 C 0.05365 0.57455 0.38372 0.0
C35 C 0.07522 0.58471 0.4073 0.0
C36 C 0.09715 0.57148 0.41207 0.0
C37 C 0.0979 0.54853 0.39298 0.0
C38 C 0.07643 0.53843 0.36937 0.0
C39 C 0.02959 0.53886 0.34069 0.0
C40 C -0.006 0.52302 0.34654 0.0
C41 C 0.04088 0.54093 0.31261 0.0
C42 C 0.07823 0.55965 0.30488 0.0
C43 C 0.09952 0.59318 0.31396 0.0
C44 C 0.1343 0.61138 0.30594 0.0
C45 C 0.14823 0.59654 0.28847 0.0
C46 C 0.12728 0.56312 0.27926 0.0
C47 C 0.09238 0.54474 0.28741 0.0
H48 H 0.41795 0.94028 0.51881 0.0
H49 H 0.38558 0.88069 0.53289 0.0
H50 H 0.46431 0.86432 0.49565 0.0
H51 H 0.49706 0.92437 0.48151 0.0
H52 H 0.4825 0.9877 0.53473 0.0
H53 H 0.42292 0.93394 0.44984 0.0
H54 H 0.40549 0.89483 0.40985 0.0
H55 H 0.51161 0.94432 0.38109 0.0
H56 H 0.52939 0.98287 0.42146 0.0
H57 H 0.57781 0.08134 0.45137 0.0
H58 H 0.60299 0.14079 0.4365 0.0
H59 H 0.51878 0.14542 0.477 0.0
H60 H 0.49357 0.08626 0.4917 0.0
H61 H 0.51414 0.02843 0.4367 0.0
H62 H 0.57334 0.08206 0.52105 0.0
H63 H 0.59151 0.11967 0.562 0.0
H64 H 0.48567 0.07039 0.59144 0.0
H65 H 0.46713 0.03312 0.55011 0.0
C66 C 0.4597 0.93663 0.4989 0.0
C67 C 0.42831 0.92394 0.51364 0.0
C68 C 0.4099 0.89005 0.52168 0.0
C69 C 0.42269 0.86842 0.51526 0.0
C70 C 0.45414 0.88085 0.5007 0.0
C71 C 0.47263 0.91491 0.49253 0.0
C72 C 0.47935 0.97298 0.4914 0.0
C73 C 0.48909 -0.00337 0.51324 0.0
C74 C 0.48864 0.98446 0.4634 0.0
C75 C 0.47766 0.96086 0.43911 0.0
C76 C 0.44259 0.9361 0.43524 0.0
C77 C 0.43257 0.91399 0.41232 0.0
C78 C 0.45741 0.91663 0.39285 0.0
C79 C 0.4922 0.94182 0.39614 0.0
C80 C 0.50228 0.96379 0.41912 0.0
C81 C 0.53391 0.07948 0.47274 0.0
C82 C 0.56496 0.09528 0.45721 0.0
C83 C 0.57934 0.12909 0.44883 0.0
C84 C 0.56257 0.14718 0.45571 0.0
C85 C 0.53205 0.13171 0.47165 0.0
C86 C 0.51775 0.09806 0.48007 0.0
C87 C 0.51719 0.04308 0.48005 0.0
C88 C 0.50778 0.01945 0.45818 0.0
C89 C 0.50795 0.03151 0.508 0.0
C90 C 0.5188 0.05503 0.53229 0.0
C91 C 0.5539 0.07962 0.53603 0.0
C92 C 0.56433 0.10086 0.55947 0.0
C93 C 0.53987 0.09758 0.57955 0.0
C94 C 0.50484 0.07313 0.57603 0.0
C95 C 0.49434 0.05193 0.55252 0.0
H96 H 0.51959 0.55388 0.70833 0.0
H97 H 0.50057 0.57444 0.74833 0.0
H98 H 0.3938 0.51027 0.72351 0.0
H99 H 0.41278 0.48946 0.68344 0.0
H100 H 0.50501 0.48992 0.6965 0.0
H101 H 0.48565 0.57458 0.65438 0.0
H102 H 0.45244 0.60235 0.64154 0.0
H103 H 0.38068 0.51383 0.59454 0.0
H104 H 0.41311 0.48564 0.60787 0.0
H105 H 0.46126 0.43512 0.58515 0.0
H106 H 0.48145 0.41743 0.54391 0.0
H107 H 0.58761 0.48192 0.57015 0.0
H108 H 0.56755 0.49974 0.61135 0.0
H109 H 0.47547 0.4988 0.5976 0.0
H110 H 0.49169 0.41394 0.63873 0.0
H111 H 0.51833 0.38114 0.6543 0.0
H112 H 0.59304 0.46618 0.70315 0.0
H113 H 0.56697 0.4997 0.68692 0.0
C114 C 0.46763 0.52047 0.69275 0.0
C115 C 0.49209 0.5442 0.71148 0.0
C116 C 0.48128 0.55593 0.73422 0.0
C117 C 0.44591 0.54397 0.7386 0.0
C118 C 0.42128 0.51991 0.72023 0.0
C119 C 0.43209 0.5082 0.69738 0.0
C120 C 0.47947 0.50797 0.66888 0.0
C121 C 0.49909 0.49237 0.67481 0.0
C122 C 0.47078 0.51031 0.64068 0.0
C123 C 0.45141 0.52768 0.63266 0.0
C124 C 0.46256 0.56097 0.64158 0.0
C125 C 0.4439 0.57695 0.63405 0.0
C126 C 0.41417 0.55992 0.6173 0.0
C127 C 0.40358 0.5272 0.60762 0.0
C128 C 0.42206 0.51116 0.61524 0.0
C129 C 0.51294 0.4686 0.60133 0.0
C130 C 0.48887 0.44539 0.58205 0.0
C131 C 0.50032 0.43535 0.5586 0.0
C132 C 0.53591 0.44861 0.55414 0.0
C133 C 0.56 0.47156 0.57339 0.0
C134 C 0.54858 0.48152 0.5969 0.0
C135 C 0.50089 0.48074 0.62523 0.0
C136 C 0.48147 0.49646 0.61929 0.0
C137 C 0.50973 0.47846 0.65339 0.0
C138 C 0.52756 0.45951 0.66132 0.0
C139 C 0.51433 0.42598 0.65219 0.0
C140 C 0.52935 0.40715 0.66123 0.0
C141 C 0.5575 0.42134 0.6798 0.0
C142 C 0.57131 0.45493 0.6887 0.0
C143 C 0.55637 0.47393 0.67952 0.0
H144 H 0.03073 0.5466 0.75861 0.0
H145 H 0.0707 0.5687 0.71859 0.0
H146 H 0.11324 0.50532 0.74128 0.0
H147 H 0.07305 0.48297 0.78143 0.0
H148 H 0.98046 0.48204 0.76947 0.0
H149 H 0.08628 0.56695 0.81181 0.0
H150 H 0.14784 0.59583 0.82531 0.0
H151 H 0.13016 0.5074 0.8717 0.0
H152 H 0.06894 0.47809 0.85768 0.0
H153 H 0.96805 0.42651 0.8808 0.0
H154 H 0.93009 0.40941 0.92231 0.0
H155 H 0.89062 0.47421 0.89596 0.0
H156 H 0.92859 0.49146 0.85456 0.0
H157 H 0.01947 0.4902 0.86821 0.0
H158 H 0.91584 0.40547 0.82681 0.0
H159 H 0.85474 0.37384 0.81297 0.0
H160 H 0.86746 0.45981 0.76546 0.0
H161 H 0.92879 0.49212 0.77991 0.0
C162 C 0.04923 0.51347 0.77314 0.0
C163 C 0.04861 0.53742 0.75499 0.0
C164 C 0.07135 0.55001 0.73224 0.0
C165 C 0.09486 0.53871 0.72728 0.0
C166 C 0.09531 0.51443 0.74504 0.0
C167 C 0.07257 0.50184 0.76792 0.0
C168 C 0.02465 0.5001 0.79699 0.0
C169 C 0.98899 0.48425 0.79112 0.0
C170 C 0.03587 0.5022 0.82513 0.0
C171 C 0.07311 0.52002 0.83315 0.0
C172 C 0.09569 0.55356 0.82455 0.0
C173 C 0.13066 0.57018 0.83248 0.0
C174 C 0.14325 0.55354 0.84932 0.0
C175 C 0.12072 0.52048 0.85857 0.0
C176 C 0.08588 0.50381 0.85054 0.0
C177 C 0.95096 0.46012 0.8646 0.0
C178 C 0.95113 0.43693 0.88393 0.0
C179 C 0.92959 0.42722 0.90752 0.0
C180 C 0.90791 0.44079 0.91202 0.0
C181 C 0.90735 0.4636 0.89266 0.0
C182 C 0.92879 0.47325 0.86905 0.0
C183 C 0.97542 0.47215 0.84066 0.0
C184 C 0.011 0.48794 0.84653 0.0
C185 C 0.96416 0.47005 0.81257 0.0
C186 C 0.92683 0.45141 0.80483 0.0
C187 C 0.90546 0.4179 0.81394 0.0
C188 C 0.87067 0.39979 0.80595 0.0
C189 C 0.85681 0.41472 0.78848 0.0
C190 C 0.87783 0.44811 0.77924 0.0
C191 C 0.91274 0.46639 0.78735 0.0
H192 H 0.58684 0.0707 0.01879 0.0
H193 H 0.61963 0.13048 0.03224 0.0
H194 H 0.54111 0.14695 -0.00533 0.0
H195 H 0.50792 0.08671 0.98118 0.0
H196 H 0.52247 0.02344 0.03472 0.0
H197 H 0.58197 0.07683 0.94988 0.0
H198 H 0.59956 0.11606 0.90996 0.0
H199 H 0.49353 0.0668 0.881 0.0
H200 H 0.47557 0.02813 0.92132 0.0
H201 H 0.42705 0.92972 0.95152 0.0
H202 H 0.40179 0.87029 0.93659 0.0
H203 H 0.48588 0.86544 0.9771 0.0
H204 H 0.51119 0.92457 -0.00816 0.0
H205 H 0.49063 0.98243 0.93679 0.0
H206 H 0.43194 0.92872 0.0216 0.0
H207 H 0.41438 0.89171 0.06294 0.0
H208 H 0.52056 0.94184 0.09165 0.0
H209 H 0.53847 0.97849 0.04994 0.0
C210 C 0.54516 0.07439 -0.00124 0.0
C211 C 0.5766 0.0871 0.01344 0.0
C212 C 0.59526 0.1211 0.02111 0.0
C213 C 0.58269 0.14283 0.01437 0.0
C214 C 0.55113 0.13036 -6e-05 0.0
C215 C 0.53239 0.09618 -0.00785 0.0
C216 C 0.52546 0.03802 -0.00862 0.0
C217 C 0.51582 0.01443 0.01326 0.0
C218 C 0.51617 0.02646 0.9634 0.0
C219 C 0.52725 0.05002 0.93906 0.0
C220 C 0.56235 0.07474 0.93525 0.0
C221 C 0.57246 0.09692 0.91237 0.0
C222 C 0.5477 0.09438 0.89287 0.0
C223 C 0.51288 0.06922 0.89608 0.0
C224 C 0.5027 0.04718 0.91903 0.0
C225 C 0.47088 0.93147 0.97292 0.0
C226 C 0.43984 0.91573 0.95737 0.0
C227 C 0.42542 0.88194 0.94894 0.0
C228 C 0.44214 0.86378 0.95581 0.0
C229 C 0.47265 0.87918 0.97176 0.0
C230 C 0.487 0.91282 0.98023 0.0
C231 C 0.48768 0.96787 0.98018 0.0
C232 C 0.49702 0.99146 0.95826 0.0
C233 C 0.49707 0.97953 0.0081 0.0
C234 C 0.48659 0.95614 0.03246 0.0
C235 C 0.45158 0.93146 0.0365 0.0
C236 C 0.44151 0.91057 0.06017 0.0
C237 C 0.46623 0.91429 0.08018 0.0
C238 C 0.50118 0.93878 0.07632 0.0
C239 C 0.51133 0.95962 0.05259 0.0
H240 H 0.48522 0.45715 0.20834 0.0
H241 H 0.50422 0.43677 0.24849 0.0
H242 H 0.61101 0.50088 0.2237 0.0
H243 H 0.59206 0.52149 0.18346 0.0
H244 H 0.49988 0.5211 0.1964 0.0
H245 H 0.51864 0.43619 0.15456 0.0
H246 H 0.55153 0.408 0.14208 0.0
H247 H 0.62389 0.49612 0.09493 0.0
H248 H 0.59176 0.52473 0.10791 0.0
H249 H 0.54403 0.57594 0.08517 0.0
H250 H 0.52413 0.59377 0.04382 0.0
H251 H 0.4178 0.52942 0.0697 0.0
H252 H 0.43758 0.51147 0.11102 0.0
H253 H 0.52953 0.51211 0.09757 0.0
H254 H 0.51322 0.59708 0.1386 0.0
H255 H 0.4866 0.62987 0.15424 0.0
H256 H 0.41193 0.54476 0.20306 0.0
H257 H 0.43797 0.51126 0.18677 0.0
C258 C 0.53719 0.49052 0.19276 0.0
C259 C 0.51272 0.46684 0.21152 0.0
C260 C 0.52352 0.45522 0.23435 0.0
C261 C 0.55889 0.46723 0.23879 0.0
C262 C 0.58354 0.49121 0.22038 0.0
C263 C 0.57274 0.50281 0.19744 0.0
C264 C 0.52538 0.50298 0.16885 0.0
C265 C 0.50581 0.51863 0.17472 0.0
C266 C 0.53406 0.50056 0.14068 0.0
C267 C 0.55321 0.48292 0.13276 0.0
C268 C 0.54179 0.44962 0.1418 0.0
C269 C 0.56027 0.43341 0.13448 0.0
C270 C 0.59008 0.45021 0.1178 0.0
C271 C 0.60093 0.48293 0.10797 0.0
C272 C 0.58262 0.4992 0.11538 0.0
C273 C 0.49224 0.54253 0.10119 0.0
C274 C 0.51645 0.56574 0.08197 0.0
C275 C 0.50516 0.57585 0.05846 0.0
C276 C 0.4696 0.56267 0.05387 0.0
C277 C 0.44538 0.53973 0.07305 0.0
C278 C 0.45664 0.52969 0.09662 0.0
C279 C 0.50414 0.53029 0.12513 0.0
C280 C 0.5235 0.51448 0.11925 0.0
C281 C 0.49522 0.53255 0.15326 0.0
C282 C 0.47735 0.55148 0.16116 0.0
C283 C 0.49058 0.58502 0.15206 0.0
C284 C 0.47558 0.60384 0.16114 0.0
C285 C 0.44745 0.58964 0.17972 0.0
C286 C 0.43364 0.55603 0.1886 0.0
C287 C 0.44856 0.53704 0.17938 0.0
C288 C 0.7042 0.41955 0.38897 0.0
O289 O 0.70596 0.44647 0.39806 0.0
Cd290 Cd 0.65613 0.44993 0.41212 0.0
O291 O 0.67568 0.39165 0.38853 0.0
Cd292 Cd 0.61496 0.36866 0.40342 0.0
C293 C 0.60602 0.41529 0.35274 0.0
O294 O 0.62373 0.40451 0.44386 0.0
O295 O 0.57077 0.37447 0.4288 0.0
O296 O 0.62386 0.3271 0.42763 0.0
C297 C 0.59183 0.395 0.44672 0.0
O298 O 0.62362 0.44055 0.36874 0.0
C299 C 0.59881 0.30153 0.4161 0.0
O300 O 0.59989 0.38564 0.35905 0.0
O301 O 0.58038 0.30665 0.39853 0.0
C302 C 0.29262 0.59427 0.57879 0.0
O303 O 0.26717 0.56749 0.56899 0.0
Cd304 Cd 0.2137 0.56401 0.55485 0.0
O305 O 0.2922 0.62184 0.57991 0.0
Cd306 Cd 0.25452 0.64421 0.56538 0.0
C307 C 0.19708 0.59603 0.61474 0.0
O308 O 0.22722 0.61003 0.52386 0.0
O309 O 0.20436 0.63875 0.54046 0.0
O310 O 0.30576 0.68682 0.54172 0.0
C311 C 0.20497 0.61949 0.5216 0.0
O312 O 0.18937 0.57138 0.5982 0.0
C313 C 0.30654 0.71185 0.55389 0.0
O314 O 0.22139 0.62596 0.60923 0.0
O315 O 0.28283 0.7059 0.57168 0.0
C316 C 0.70278 0.29219 0.74855 0.0
O317 O 0.70569 0.26728 0.7404 0.0
Cd318 Cd 0.65684 0.21468 0.72522 0.0
O319 O 0.67387 0.29137 0.74761 0.0
Cd320 Cd 0.61409 0.25374 0.73139 0.0
C321 C 0.60241 0.19736 0.78199 0.0
O322 O 0.62537 0.22736 0.6913 0.0
O323 O 0.5717 0.2051 0.70469 0.0
O324 O 0.62214 0.30385 0.70731 0.0
C325 C 0.59363 0.20563 0.68744 0.0
O326 O 0.62143 0.19009 0.767 0.0
C327 C 0.59657 0.30415 0.71864 0.0
O328 O 0.59651 0.22103 0.77524 0.0
O329 O 0.57819 0.28055 0.73585 0.0
C330 C 0.30074 0.59189 0.88919 0.0
O331 O 0.29896 0.56491 0.89818 0.0
Cd332 Cd 0.34886 0.56133 0.91185 0.0
O333 O 0.32931 0.61973 0.88867 0.0
Cd334 Cd 0.39008 0.64253 0.90333 0.0
C335 C 0.39872 0.59607 0.85237 0.0
O336 O 0.3816 0.60657 0.94367 0.0
O337 O 0.43447 0.63669 0.92839 0.0
O338 O 0.3812 0.68391 0.92782 0.0
C339 C 0.41353 0.61609 0.94636 0.0
O340 O 0.38114 0.57076 0.86833 0.0
C341 C 0.4061 0.70955 0.91623 0.0
O342 O 0.40494 0.62572 0.85878 0.0
O343 O 0.42448 0.70455 0.89853 0.0
C344 C 0.71139 0.41569 0.07968 0.0
O345 O 0.73664 0.44278 0.07011 0.0
Cd346 Cd 0.79051 0.44737 0.05576 0.0
O347 O 0.7122 0.38829 0.08041 0.0
Cd348 Cd 0.75061 0.36702 0.06522 0.0
C349 C 0.80741 0.4147 0.11513 0.0
O350 O 0.77772 0.40218 0.02409 0.0
O351 O 0.80116 0.37372 0.04017 0.0
O352 O 0.6997 0.32458 0.04112 0.0
C353 C 0.80028 0.39315 0.02159 0.0
O354 O 0.81485 0.43958 0.09892 0.0
C355 C 0.69929 0.29944 0.05274 0.0
O356 O 0.78346 0.38474 0.10925 0.0
O357 O 0.72307 0.30523 0.07043 0.0
C358 C 0.30231 0.7191 0.24827 0.0
O359 O 0.29954 0.74406 0.24001 0.0
Cd360 Cd 0.34861 0.79667 0.22503 0.0
O361 O 0.33119 0.71984 0.2475 0.0
Cd362 Cd 0.39111 0.75736 0.23147 0.0
C363 C 0.40264 0.81363 0.28204 0.0
O364 O 0.38063 0.78438 0.1914 0.0
O365 O 0.43405 0.80636 0.20543 0.0
O366 O 0.38318 0.70749 0.20704 0.0
C367 C 0.41245 0.80617 0.18799 0.0
O368 O 0.38381 0.82104 0.26693 0.0
C369 C 0.40846 0.70686 0.21863 0.0
O370 O 0.40844 0.78987 0.27539 0.0
O371 O 0.42663 0.73018 0.23611 0.0
C372 C 0.21294 0.63704 0.27275 0.0
C373 C 0.18342 0.61682 0.2789 0.0
C374 C 0.24568 0.66417 0.26504 0.0
C375 C 0.27203 0.68886 0.25751 0.0
C376 C 0.58255 0.20898 0.43779 0.0
C377 C 0.57502 0.18089 0.44522 0.0
C378 C 0.58807 0.24093 0.42936 0.0
C379 C 0.59213 0.26816 0.42275 0.0
C380 C 0.37358 0.58449 0.60415 0.0
C381 C 0.39333 0.57497 0.61093 0.0
C382 C 0.34718 0.59108 0.59587 0.0
C383 C 0.32277 0.59358 0.58829 0.0
C384 C 0.79204 0.37438 0.77289 0.0
C385 C 0.82159 0.39455 0.77897 0.0
C386 C 0.75928 0.34724 0.76526 0.0
C387 C 0.73297 0.32251 0.75776 0.0
C388 C 0.42208 0.80199 0.93789 0.0
C389 C 0.42963 0.83008 0.94532 0.0
C390 C 0.4166 0.77005 0.92949 0.0
C391 C 0.41262 0.74285 0.9229 0.0
C392 C 0.63031 0.42509 0.10508 0.0
C393 C 0.61073 0.43488 0.11167 0.0
C394 C 0.65659 0.41827 0.09694 0.0
C395 C 0.68101 0.41584 0.08931 0.0
C396 C 0.38279 0.8052 0.53141 0.0
C397 C 0.4026 0.83344 0.52331 0.0
C398 C 0.3567 0.77303 0.54055 0.0
C399 C 0.33335 0.74555 0.54728 0.0
C400 C 0.57847 0.37999 0.69816 0.0
C401 C 0.57039 0.40033 0.69072 0.0
C402 C 0.58471 0.35376 0.70618 0.0
C403 C 0.58937 0.33074 0.71235 0.0
C404 C 0.20905 0.58 0.86353 0.0
C405 C 0.17947 0.5695 0.85632 0.0
C406 C 0.24252 0.58777 0.87207 0.0
C407 C 0.26979 0.59095 0.87965 0.0
C408 C 0.6232 0.20622 0.02976 0.0
C409 C 0.60309 0.17791 0.02198 0.0
C410 C 0.64942 0.23835 0.03883 0.0
C411 C 0.67265 0.26578 0.0458 0.0
C412 C 0.42645 0.63095 0.19812 0.0
C413 C 0.43455 0.61062 0.19066 0.0
C414 C 0.42019 0.65717 0.20614 0.0
C415 C 0.41555 0.6802 0.21231 0.0
C416 C 0.7959 0.43166 0.36311 0.0
C417 C 0.82549 0.44209 0.356 0.0
C418 C 0.76242 0.42387 0.37165 0.0
C419 C 0.73516 0.42059 0.37932 0.0
C420 C 0.13736 0.58905 0.45686 0.0
C421 C 0.11887 0.5813 0.43655 0.0
C422 C 0.16025 0.59882 0.47984 0.0
C423 C 0.18076 0.60817 0.49887 0.0
C424 C 0.56099 0.13833 0.62352 0.0
C425 C 0.55088 0.11954 0.60362 0.0
C426 C 0.57304 0.16145 0.64604 0.0
C427 C 0.58288 0.18181 0.66484 0.0
C428 C 0.42772 0.56829 0.78164 0.0
C429 C 0.43525 0.55676 0.76186 0.0
C430 C 0.41927 0.5813 0.80532 0.0
C431 C 0.4109 0.59018 0.82629 0.0
C432 C 0.86781 0.42409 0.95682 0.0
C433 C 0.88624 0.43146 0.9365 0.0
C434 C 0.84493 0.41446 0.97978 0.0
C435 C 0.82439 0.40489 -0.00122 0.0
C436 C 0.44568 0.87417 0.12455 0.0
C437 C 0.45559 0.89271 0.10448 0.0
C438 C 0.43365 0.85104 0.14708 0.0
C439 C 0.42363 0.83041 0.16567 0.0
C440 C 0.57701 0.44312 0.28202 0.0
C441 C 0.56953 0.45456 0.26216 0.0
C442 C 0.58543 0.43015 0.30576 0.0
C443 C 0.59383 0.42125 0.32671 0.0
C444 C 0.4388 0.87374 0.35032 0.0
C445 C 0.44732 0.8933 0.36969 0.0
C446 C 0.42803 0.85118 0.32736 0.0
C447 C 0.41744 0.83295 0.30711 0.0
C448 C 0.55807 0.43017 0.50987 0.0
C449 C 0.54778 0.43846 0.53 0.0
C450 C 0.57013 0.41899 0.4873 0.0
C451 C 0.58015 0.40809 0.46879 0.0
C452 C 0.13805 0.56504 0.68451 0.0
C453 C 0.11869 0.55259 0.70415 0.0
C454 C 0.16013 0.5792 0.66114 0.0
C455 C 0.17816 0.58902 0.64052 0.0
C456 C 0.56633 0.13733 0.85035 0.0
C457 C 0.55786 0.11777 0.86973 0.0
C458 C 0.57701 0.15984 0.82734 0.0
C459 C 0.58759 0.17805 0.80707 0.0
C460 C 0.44772 0.58119 0.00945 0.0
C461 C 0.45791 0.57288 0.02964 0.0
C462 C 0.4356 0.59231 0.98686 0.0
C463 C 0.42542 0.60312 0.96838 0.0
C464 C 0.86626 0.44566 0.18496 0.0
C465 C 0.88574 0.45826 0.20451 0.0
C466 C 0.84416 0.43135 0.16162 0.0
C467 C 0.8262 0.42151 0.14096 0.0
loop_
_geom_bond_atom_site_label_1
_geom_bond_atom_site_label_2
_geom_bond_distance
_geom_bond_site_symmetry_2
_ccdc_geom_bond_type
H0 C19 0.949 . S
H1 C20 0.950 . S
H2 C22 0.950 . S
H3 C23 0.950 . S
H4 C25 0.950 . S
H5 C28 0.950 . S
H6 C29 0.950 . S
H7 C31 0.951 . S
H8 C32 0.949 . S
H9 C34 0.949 . S
H10 C35 0.950 . S
H11 C37 0.950 . S
H12 C38 0.950 . S
H13 C40 0.950 1_655 S
H14 C43 0.950 . S
H15 C44 0.950 . S
H16 C46 0.951 . S
H17 C47 0.949 . S
C18 C19 1.376 . S
C18 C23 1.386 . S
C18 C24 1.483 . S
C19 H0 0.949 . S
C19 C18 1.376 . S
C19 C20 1.397 . S
C20 H1 0.950 . S
C20 C19 1.397 . S
C20 C21 1.391 . S
C21 C20 1.391 . S
C21 C22 1.405 . S
C22 H2 0.950 . S
C22 C21 1.405 . S
C22 C23 1.367 . S
C23 H3 0.950 . S
C23 C18 1.386 . S
C23 C22 1.367 . S
C24 C18 1.483 . S
C24 C25 1.382 1_655 S
C24 C26 1.403 . S
C25 H4 0.950 . S
C25 C24 1.382 1_455 S
C25 C41 1.411 . S
C26 C24 1.403 . S
C26 C27 1.489 . S
C26 C40 1.411 1_655 S
C27 C26 1.489 . S
C27 C28 1.383 . S
C27 C32 1.382 . S
C28 H5 0.950 . S
C28 C27 1.383 . S
C28 C29 1.395 . S
C29 H6 0.950 . S
C29 C28 1.395 . S
C29 C30 1.288 . S
C30 C29 1.288 . S
C30 C31 1.392 . S
C31 H7 0.951 . S
C31 C30 1.392 . S
C31 C32 1.392 . S
C32 H8 0.949 . S
C32 C27 1.382 . S
C32 C31 1.392 . S
C33 C34 1.376 . S
C33 C38 1.386 . S
C33 C39 1.483 . S
C34 H9 0.949 . S
C34 C33 1.376 . S
C34 C35 1.397 . S
C35 H10 0.950 . S
C35 C34 1.397 . S
C35 C36 1.391 . S
C36 C35 1.391 . S
C36 C37 1.405 . S
C37 H11 0.950 . S
C37 C36 1.405 . S
C37 C38 1.367 . S
C38 H12 0.950 . S
C38 C33 1.386 . S
C38 C37 1.367 . S
C39 C33 1.483 . S
C39 C40 1.382 . S
C39 C41 1.403 . S
C40 H13 0.950 1_455 S
C40 C26 1.411 1_455 S
C40 C39 1.382 . S
C41 C25 1.411 . S
C41 C39 1.403 . S
C41 C42 1.489 . S
C42 C41 1.489 . S
C42 C43 1.383 . S
C42 C47 1.382 . S
C43 H14 0.950 . S
C43 C42 1.383 . S
C43 C44 1.395 . S
C44 H15 0.950 . S
C44 C43 1.395 . S
C44 C45 1.288 . S
C45 C44 1.288 . S
C45 C46 1.392 . S
C46 H16 0.951 . S
C46 C45 1.392 . S
C46 C47 1.392 . S
C47 H17 0.949 . S
C47 C42 1.382 . S
C47 C46 1.392 . S
H48 C67 0.949 . S
H49 C68 0.950 . S
H50 C70 0.950 . S
H51 C71 0.950 . S
H52 C73 0.947 1_565 S
H53 C76 0.950 . S
H54 C77 0.950 . S
H55 C79 0.951 . S
H56 C80 0.949 . S
H57 C82 0.949 . S
H58 C83 0.950 . S
H59 C85 0.950 . S
H60 C86 0.950 . S
H61 C88 0.950 . S
H62 C91 0.950 . S
H63 C92 0.950 . S
H64 C94 0.951 . S
H65 C95 0.949 . S
C66 C67 1.376 . S
C66 C71 1.386 . S
C66 C72 1.483 . S
C67 H48 0.949 . S
C67 C66 1.376 . S
C67 C68 1.397 . S
C68 H49 0.950 . S
C68 C67 1.397 . S
C68 C69 1.391 . S
C69 C68 1.391 . S
C69 C70 1.405 . S
C70 H50 0.950 . S
C70 C69 1.405 . S
C70 C71 1.367 . S
C71 H51 0.950 . S
C71 C66 1.386 . S
C71 C70 1.367 . S
C72 C66 1.483 . S
C72 C73 1.371 1_565 S
C72 C74 1.403 . S
C73 H52 0.947 1_545 S
C73 C72 1.371 1_545 S
C73 C89 1.425 . S
C74 C72 1.403 . S
C74 C75 1.489 . S
C74 C88 1.411 1_565 S
C75 C74 1.489 . S
C75 C76 1.383 . S
C75 C80 1.382 . S
C76 H53 0.950 . S
C76 C75 1.383 . S
C76 C77 1.395 . S
C77 H54 0.950 . S
C77 C76 1.395 . S
C77 C78 1.288 . S
C78 C77 1.288 . S
C78 C79 1.392 . S
C79 H55 0.951 . S
C79 C78 1.392 . S
C79 C80 1.392 . S
C80 H56 0.949 . S
C80 C75 1.382 . S
C80 C79 1.392 . S
C81 C82 1.376 . S
C81 C86 1.386 . S
C81 C87 1.483 . S
C82 H57 0.949 . S
C82 C81 1.376 . S
C82 C83 1.397 . S
C83 H58 0.950 . S
C83 C82 1.397 . S
C83 C84 1.391 . S
C84 C83 1.391 . S
C84 C85 1.405 . S
C85 H59 0.950 . S
C85 C84 1.405 . S
C85 C86 1.367 . S
C86 H60 0.950 . S
C86 C81 1.386 . S
C86 C85 1.367 . S
C87 C81 1.483 . S
C87 C88 1.382 . S
C87 C89 1.403 . S
C88 H61 0.950 . S
C88 C74 1.411 1_545 S
C88 C87 1.382 . S
C89 C73 1.425 . S
C89 C87 1.403 . S
C89 C90 1.489 . S
C90 C89 1.489 . S
C90 C91 1.383 . S
C90 C95 1.382 . S
C91 H62 0.950 . S
C91 C90 1.383 . S
C91 C92 1.395 . S
C92 H63 0.950 . S
C92 C91 1.395 . S
C92 C93 1.288 . S
C93 C92 1.288 . S
C93 C94 1.392 . S
C94 H64 0.951 . S
C94 C93 1.392 . S
C94 C95 1.392 . S
C95 H65 0.949 . S
C95 C90 1.382 . S
C95 C94 1.392 . S
H96 C115 0.949 . S
H97 C116 0.950 . S
H98 C118 0.950 . S
H99 C119 0.950 . S
H100 C121 0.950 . S
H101 C124 0.950 . S
H102 C125 0.950 . S
H103 C127 0.951 . S
H104 C128 0.949 . S
H105 C130 0.949 . S
H106 C131 0.950 . S
H107 C133 0.950 . S
H108 C134 0.950 . S
H109 C136 0.950 . S
H110 C139 0.950 . S
H111 C140 0.950 . S
H112 C142 0.951 . S
H113 C143 0.949 . S
C114 C115 1.376 . S
C114 C119 1.386 . S
C114 C120 1.483 . S
C115 H96 0.949 . S
C115 C114 1.376 . S
C115 C116 1.397 . S
C116 H97 0.950 . S
C116 C115 1.397 . S
C116 C117 1.391 . S
C117 C116 1.391 . S
C117 C118 1.405 . S
C118 H98 0.950 . S
C118 C117 1.405 . S
C118 C119 1.367 . S
C119 H99 0.950 . S
C119 C114 1.386 . S
C119 C118 1.367 . S
C120 C114 1.483 . S
C120 C121 1.382 . S
C120 C122 1.403 . S
C121 H100 0.950 . S
C121 C120 1.382 . S
C121 C137 1.411 . S
C122 C120 1.403 . S
C122 C123 1.489 . S
C122 C136 1.411 . S
C123 C122 1.489 . S
C123 C124 1.383 . S
C123 C128 1.382 . S
C124 H101 0.950 . S
C124 C123 1.383 . S
C124 C125 1.395 . S
C125 H102 0.950 . S
C125 C124 1.395 . S
C125 C126 1.288 . S
C126 C125 1.288 . S
C126 C127 1.392 . S
C127 H103 0.951 . S
C127 C126 1.392 . S
C127 C128 1.392 . S
C128 H104 0.949 . S
C128 C123 1.382 . S
C128 C127 1.392 . S
C129 C130 1.376 . S
C129 C134 1.386 . S
C129 C135 1.483 . S
C130 H105 0.949 . S
C130 C129 1.376 . S
C130 C131 1.397 . S
C131 H106 0.950 . S
C131 C130 1.397 . S
C131 C132 1.391 . S
C132 C131 1.391 . S
C132 C133 1.405 . S
C133 H107 0.950 . S
C133 C132 1.405 . S
C133 C134 1.367 . S
C134 H108 0.950 . S
C134 C129 1.386 . S
C134 C133 1.367 . S
C135 C129 1.483 . S
C135 C136 1.382 . S
C135 C137 1.403 . S
C136 H109 0.950 . S
C136 C122 1.411 . S
C136 C135 1.382 . S
C137 C121 1.411 . S
C137 C135 1.403 . S
C137 C138 1.489 . S
C138 C137 1.489 . S
C138 C139 1.383 . S
C138 C143 1.382 . S
C139 H110 0.950 . S
C139 C138 1.383 . S
C139 C140 1.395 . S
C140 H111 0.950 . S
C140 C139 1.395 . S
C140 C141 1.288 . S
C141 C140 1.288 . S
C141 C142 1.392 . S
C142 H112 0.951 . S
C142 C141 1.392 . S
C142 C143 1.392 . S
C143 H113 0.949 . S
C143 C138 1.382 . S
C143 C142 1.392 . S
H144 C163 0.949 . S
H145 C164 0.950 . S
H146 C166 0.950 . S
H147 C167 0.950 . S
H148 C169 0.950 . S
H149 C172 0.950 . S
H150 C173 0.950 . S
H151 C175 0.951 . S
H152 C176 0.949 . S
H153 C178 0.949 . S
H154 C179 0.950 . S
H155 C181 0.950 . S
H156 C182 0.950 . S
H157 C184 0.950 . S
H158 C187 0.950 . S
H159 C188 0.950 . S
H160 C190 0.951 . S
H161 C191 0.949 . S
C162 C163 1.376 . S
C162 C167 1.386 . S
C162 C168 1.483 . S
C163 H144 0.949 . S
C163 C162 1.376 . S
C163 C164 1.397 . S
C164 H145 0.950 . S
C164 C163 1.397 . S
C164 C165 1.391 . S
C165 C164 1.391 . S
C165 C166 1.405 . S
C166 H146 0.950 . S
C166 C165 1.405 . S
C166 C167 1.367 . S
C167 H147 0.950 . S
C167 C162 1.386 . S
C167 C166 1.367 . S
C168 C162 1.483 . S
C168 C169 1.382 1_455 S
C168 C170 1.403 . S
C169 H148 0.950 . S
C169 C168 1.382 1_655 S
C169 C185 1.411 . S
C170 C168 1.403 . S
C170 C171 1.489 . S
C170 C184 1.411 . S
C171 C170 1.489 . S
C171 C172 1.383 . S
C171 C176 1.382 . S
C172 H149 0.950 . S
C172 C171 1.383 . S
C172 C173 1.395 . S
C173 H150 0.950 . S
C173 C172 1.395 . S
C173 C174 1.288 . S
C174 C173 1.288 . S
C174 C175 1.392 . S
C175 H151 0.951 . S
C175 C174 1.392 . S
C175 C176 1.392 . S
C176 H152 0.949 . S
C176 C171 1.382 . S
C176 C175 1.392 . S
C177 C178 1.376 . S
C177 C182 1.386 . S
C177 C183 1.483 . S
C178 H153 0.949 . S
C178 C177 1.376 . S
C178 C179 1.397 . S
C179 H154 0.950 . S
C179 C178 1.397 . S
C179 C180 1.391 . S
C180 C179 1.391 . S
C180 C181 1.405 . S
C181 H155 0.950 . S
C181 C180 1.405 . S
C181 C182 1.367 . S
C182 H156 0.950 . S
C182 C177 1.386 . S
C182 C181 1.367 . S
C183 C177 1.483 . S
C183 C184 1.382 1_655 S
C183 C185 1.403 . S
C184 H157 0.950 . S
C184 C170 1.411 . S
C184 C183 1.382 1_455 S
C185 C169 1.411 . S
C185 C183 1.403 . S
C185 C186 1.489 . S
C186 C185 1.489 . S
C186 C187 1.383 . S
C186 C191 1.382 . S
C187 H158 0.950 . S
C187 C186 1.383 . S
C187 C188 1.395 . S
C188 H159 0.950 . S
C188 C187 1.395 . S
C188 C189 1.288 . S
C189 C188 1.288 . S
C189 C190 1.392 . S
C190 H160 0.951 . S
C190 C189 1.392 . S
C190 C191 1.392 . S
C191 H161 0.949 . S
C191 C186 1.382 . S
C191 C190 1.392 . S
H192 C211 0.949 . S
H193 C212 0.950 . S
H194 C214 0.950 . S
H195 C215 0.950 1_556 S
H196 C217 0.950 . S
H197 C220 0.950 . S
H198 C221 0.950 . S
H199 C223 0.951 . S
H200 C224 0.949 . S
H201 C226 0.949 . S
H202 C227 0.950 . S
H203 C229 0.950 . S
H204 C230 0.972 . S
H205 C232 0.950 . S
H206 C235 0.950 . S
H207 C236 0.950 . S
H208 C238 0.951 . S
H209 C239 0.949 . S
C210 C211 1.376 . S
C210 C215 1.386 . S
C210 C216 1.483 . S
C211 H192 0.949 . S
C211 C210 1.376 . S
C211 C212 1.397 . S
C212 H193 0.950 . S
C212 C211 1.397 . S
C212 C213 1.391 . S
C213 C212 1.391 . S
C213 C214 1.405 . S
C214 H194 0.950 . S
C214 C213 1.405 . S
C214 C215 1.367 . S
C215 H195 0.950 1_554 S
C215 C210 1.386 . S
C215 C214 1.367 . S
C216 C210 1.483 . S
C216 C217 1.383 . S
C216 C218 1.401 1_554 S
C217 H196 0.950 . S
C217 C216 1.383 . S
C217 C233 1.411 1_545 S
C218 C216 1.401 1_556 S
C218 C219 1.489 . S
C218 C232 1.411 1_545 S
C219 C218 1.489 . S
C219 C220 1.383 . S
C219 C224 1.382 . S
C220 H197 0.950 . S
C220 C219 1.383 . S
C220 C221 1.395 . S
C221 H198 0.950 . S
C221 C220 1.395 . S
C221 C222 1.288 . S
C222 C221 1.288 . S
C222 C223 1.392 . S
C223 H199 0.951 . S
C223 C222 1.392 . S
C223 C224 1.392 . S
C224 H200 0.949 . S
C224 C219 1.382 . S
C224 C223 1.392 . S
C225 C226 1.376 . S
C225 C230 1.386 . S
C225 C231 1.483 . S
C226 H201 0.949 . S
C226 C225 1.376 . S
C226 C227 1.397 . S
C227 H202 0.950 . S
C227 C226 1.397 . S
C227 C228 1.391 . S
C228 C227 1.391 . S
C228 C229 1.405 . S
C229 H203 0.950 . S
C229 C228 1.405 . S
C229 C230 1.367 . S
C230 H204 0.972 . S
C230 C225 1.386 . S
C230 C229 1.367 . S
C231 C225 1.483 . S
C231 C232 1.382 . S
C231 C233 1.403 1_556 S
C232 H205 0.950 . S
C232 C218 1.411 1_565 S
C232 C231 1.382 . S
C233 C217 1.411 1_565 S
C233 C231 1.403 1_554 S
C233 C234 1.489 . S
C234 C233 1.489 . S
C234 C235 1.383 . S
C234 C239 1.382 . S
C235 H206 0.950 . S
C235 C234 1.383 . S
C235 C236 1.395 . S
C236 H207 0.950 . S
C236 C235 1.395 . S
C236 C237 1.288 . S
C237 C236 1.288 . S
C237 C238 1.392 . S
C238 H208 0.951 . S
C238 C237 1.392 . S
C238 C239 1.392 . S
C239 H209 0.949 . S
C239 C234 1.382 . S
C239 C238 1.392 . S
H240 C259 0.949 . S
H241 C260 0.950 . S
H242 C262 0.950 . S
H243 C263 0.950 . S
H244 C265 0.950 . S
H245 C268 0.950 . S
H246 C269 0.950 . S
H247 C271 0.951 . S
H248 C272 0.949 . S
H249 C274 0.949 . S
H250 C275 0.950 . S
H251 C277 0.950 . S
H252 C278 0.950 . S
H253 C280 0.950 . S
H254 C283 0.950 . S
H255 C284 0.950 . S
H256 C286 0.951 . S
H257 C287 0.949 . S
C258 C259 1.376 . S
C258 C263 1.386 . S
C258 C264 1.483 . S
C259 H240 0.949 . S
C259 C258 1.376 . S
C259 C260 1.397 . S
C260 H241 0.950 . S
C260 C259 1.397 . S
C260 C261 1.391 . S
C261 C260 1.391 . S
C261 C262 1.405 . S
C262 H242 0.950 . S
C262 C261 1.405 . S
C262 C263 1.367 . S
C263 H243 0.950 . S
C263 C258 1.386 . S
C263 C262 1.367 . S
C264 C258 1.483 . S
C264 C265 1.382 . S
C264 C266 1.403 . S
C265 H244 0.950 . S
C265 C264 1.382 . S
C265 C281 1.411 . S
C266 C264 1.403 . S
C266 C267 1.489 . S
C266 C280 1.411 . S
C267 C266 1.489 . S
C267 C268 1.383 . S
C267 C272 1.382 . S
C268 H245 0.950 . S
C268 C267 1.383 . S
C268 C269 1.395 . S
C269 H246 0.950 . S
C269 C268 1.395 . S
C269 C270 1.288 . S
C270 C269 1.288 . S
C270 C271 1.392 . S
C271 H247 0.951 . S
C271 C270 1.392 . S
C271 C272 1.392 . S
C272 H248 0.949 . S
C272 C267 1.382 . S
C272 C271 1.392 . S
C273 C274 1.376 . S
C273 C278 1.386 . S
C273 C279 1.483 . S
C274 H249 0.949 . S
C274 C273 1.376 . S
C274 C275 1.397 . S
C275 H250 0.950 . S
C275 C274 1.397 . S
C275 C276 1.391 . S
C276 C275 1.391 . S
C276 C277 1.405 . S
C277 H251 0.950 . S
C277 C276 1.405 . S
C277 C278 1.367 . S
C278 H252 0.950 . S
C278 C273 1.386 . S
C278 C277 1.367 . S
C279 C273 1.483 . S
C279 C280 1.382 . S
C279 C281 1.403 . S
C280 H253 0.950 . S
C280 C266 1.411 . S
C280 C279 1.382 . S
C281 C265 1.411 . S
C281 C279 1.403 . S
C281 C282 1.489 . S
C282 C281 1.489 . S
C282 C283 1.383 . S
C282 C287 1.382 . S
C283 H254 0.950 . S
C283 C282 1.383 . S
C283 C284 1.395 . S
C284 H255 0.950 . S
C284 C283 1.395 . S
C284 C285 1.288 . S
C285 C284 1.288 . S
C285 C286 1.392 . S
C286 H256 0.951 . S
C286 C285 1.392 . S
C286 C287 1.392 . S
C287 H257 0.949 . S
C287 C282 1.382 . S
C287 C286 1.392 . S
C288 O289 1.306 . S
C288 O291 1.160 . S
O289 C288 1.306 . S
O289 Cd290 2.228 . S
Cd290 O289 2.228 . S
Cd290 O294 2.273 . S
Cd290 O298 2.277 . S
O291 C288 1.160 . S
O291 Cd292 2.203 . S
Cd292 O291 2.203 . S
Cd292 O294 2.411 . S
Cd292 O295 2.333 . S
Cd292 O296 2.352 . S
Cd292 O300 2.277 . S
Cd292 O301 2.356 . S
C293 O298 1.209 . S
C293 O300 1.226 . S
O294 Cd290 2.273 . S
O294 Cd292 2.411 . S
O294 C297 1.320 . S
O295 Cd292 2.333 . S
O295 C297 1.214 . S
O296 Cd292 2.352 . S
O296 C299 1.258 . S
C297 O294 1.320 . S
C297 O295 1.214 . S
O298 Cd290 2.277 . S
O298 C293 1.209 . S
C299 O296 1.258 . S
C299 O301 1.282 . S
O300 Cd292 2.277 . S
O300 C293 1.226 . S
O301 Cd292 2.356 . S
O301 C299 1.282 . S
C302 O303 1.306 . S
C302 O305 1.160 . S
O303 C302 1.306 . S
O303 Cd304 2.228 . S
Cd304 O303 2.228 . S
Cd304 O308 2.273 . S
Cd304 O312 2.277 . S
O305 C302 1.160 . S
O305 Cd306 2.203 . S
Cd306 O305 2.203 . S
Cd306 O308 2.411 . S
Cd306 O309 2.333 . S
Cd306 O310 2.352 . S
Cd306 O314 2.277 . S
Cd306 O315 2.356 . S
C307 O312 1.209 . S
C307 O314 1.226 . S
O308 Cd304 2.273 . S
O308 Cd306 2.411 . S
O308 C311 1.320 . S
O309 Cd306 2.333 . S
O309 C311 1.214 . S
O310 Cd306 2.352 . S
O310 C313 1.258 . S
C311 O308 1.320 . S
C311 O309 1.214 . S
O312 Cd304 2.277 . S
O312 C307 1.209 . S
C313 O310 1.258 . S
C313 O315 1.282 . S
O314 Cd306 2.277 . S
O314 C307 1.226 . S
O315 Cd306 2.356 . S
O315 C313 1.282 . S
C316 O317 1.306 . S
C316 O319 1.160 . S
O317 C316 1.306 . S
O317 Cd318 2.228 . S
Cd318 O317 2.228 . S
Cd318 O322 2.273 . S
Cd318 O326 2.277 . S
O319 C316 1.160 . S
O319 Cd320 2.203 . S
Cd320 O319 2.203 . S
Cd320 O322 2.411 . S
Cd320 O323 2.333 . S
Cd320 O324 2.352 . S
Cd320 O328 2.277 . S
Cd320 O329 2.356 . S
C321 O326 1.209 . S
C321 O328 1.226 . S
O322 Cd318 2.273 . S
O322 Cd320 2.411 . S
O322 C325 1.320 . S
O323 Cd320 2.333 . S
O323 C325 1.214 . S
O324 Cd320 2.352 . S
O324 C327 1.258 . S
C325 O322 1.320 . S
C325 O323 1.214 . S
O326 Cd318 2.277 . S
O326 C321 1.209 . S
C327 O324 1.258 . S
C327 O329 1.282 . S
O328 Cd320 2.277 . S
O328 C321 1.226 . S
O329 Cd320 2.356 . S
O329 C327 1.282 . S
C330 O331 1.306 . S
C330 O333 1.160 . S
O331 C330 1.306 . S
O331 Cd332 2.228 . S
Cd332 O331 2.228 . S
Cd332 O336 2.273 . S
Cd332 O340 2.277 . S
O333 C330 1.160 . S
O333 Cd334 2.203 . S
Cd334 O333 2.203 . S
Cd334 O336 2.411 . S
Cd334 O337 2.333 . S
Cd334 O338 2.352 . S
Cd334 O342 2.277 . S
Cd334 O343 2.356 . S
C335 O340 1.209 . S
C335 O342 1.226 . S
O336 Cd332 2.273 . S
O336 Cd334 2.411 . S
O336 C339 1.320 . S
O337 Cd334 2.333 . S
O337 C339 1.214 . S
O338 Cd334 2.352 . S
O338 C341 1.258 . S
C339 O336 1.320 . S
C339 O337 1.214 . S
O340 Cd332 2.277 . S
O340 C335 1.209 . S
C341 O338 1.258 . S
C341 O343 1.282 . S
O342 Cd334 2.277 . S
O342 C335 1.226 . S
O343 Cd334 2.356 . S
O343 C341 1.282 . S
C344 O345 1.306 . S
C344 O347 1.160 . S
O345 C344 1.306 . S
O345 Cd346 2.228 . S
Cd346 O345 2.228 . S
Cd346 O350 2.273 . S
Cd346 O354 2.277 . S
O347 C344 1.160 . S
O347 Cd348 2.203 . S
Cd348 O347 2.203 . S
Cd348 O350 2.411 . S
Cd348 O351 2.333 . S
Cd348 O352 2.352 . S
Cd348 O356 2.277 . S
Cd348 O357 2.356 . S
C349 O354 1.209 . S
C349 O356 1.226 . S
O350 Cd346 2.273 . S
O350 Cd348 2.411 . S
O350 C353 1.320 . S
O351 Cd348 2.333 . S
O351 C353 1.214 . S
O352 Cd348 2.352 . S
O352 C355 1.258 . S
C353 O350 1.320 . S
C353 O351 1.214 . S
O354 Cd346 2.277 . S
O354 C349 1.209 . S
C355 O352 1.258 . S
C355 O357 1.282 . S
O356 Cd348 2.277 . S
O356 C349 1.226 . S
O357 Cd348 2.356 . S
O357 C355 1.282 . S
C358 O359 1.306 . S
C358 O361 1.160 . S
O359 C358 1.306 . S
O359 Cd360 2.228 . S
Cd360 O359 2.228 . S
Cd360 O364 2.273 . S
Cd360 O368 2.277 . S
O361 C358 1.160 . S
O361 Cd362 2.203 . S
Cd362 O361 2.203 . S
Cd362 O364 2.411 . S
Cd362 O365 2.333 . S
Cd362 O366 2.352 . S
Cd362 O370 2.277 . S
Cd362 O371 2.356 . S
C363 O368 1.209 . S
C363 O370 1.226 . S
O364 Cd360 2.273 . S
O364 Cd362 2.411 . S
O364 C367 1.320 . S
O365 Cd362 2.333 . S
O365 C367 1.214 . S
O366 Cd362 2.352 . S
O366 C369 1.258 . S
C367 O364 1.320 . S
C367 O365 1.214 . S
O368 Cd360 2.277 . S
O368 C363 1.209 . S
C369 O366 1.258 . S
C369 O371 1.282 . S
O370 Cd362 2.277 . S
O370 C363 1.226 . S
O371 Cd362 2.356 . S
O371 C369 1.282 . S
C372 C373 1.170 . S
C372 C374 1.380 . S
C373 C372 1.170 . S
C374 C372 1.380 . S
C374 C375 1.170 . S
C375 C374 1.170 . S
C376 C377 1.170 . S
C376 C378 1.380 . S
C377 C376 1.170 . S
C378 C376 1.380 . S
C378 C379 1.170 . S
C379 C378 1.170 . S
C380 C381 1.170 . S
C380 C382 1.380 . S
C381 C380 1.170 . S
C382 C380 1.380 . S
C382 C383 1.170 . S
C383 C382 1.170 . S
C384 C385 1.170 . S
C384 C386 1.380 . S
C385 C384 1.170 . S
C386 C384 1.380 . S
C386 C387 1.170 . S
C387 C386 1.170 . S
C388 C389 1.170 . S
C388 C390 1.380 . S
C389 C388 1.170 . S
C390 C388 1.380 . S
C390 C391 1.170 . S
C391 C390 1.170 . S
C392 C393 1.170 . S
C392 C394 1.380 . S
C393 C392 1.170 . S
C394 C392 1.380 . S
C394 C395 1.170 . S
C395 C394 1.170 . S
C396 C397 1.170 . S
C396 C398 1.380 . S
C397 C396 1.170 . S
C398 C396 1.380 . S
C398 C399 1.170 . S
C399 C398 1.170 . S
C400 C401 1.170 . S
C400 C402 1.380 . S
C401 C400 1.170 . S
C402 C400 1.380 . S
C402 C403 1.170 . S
C403 C402 1.170 . S
C404 C405 1.170 . S
C404 C406 1.380 . S
C405 C404 1.170 . S
C406 C404 1.380 . S
C406 C407 1.170 . S
C407 C406 1.170 . S
C408 C409 1.170 . S
C408 C410 1.380 . S
C409 C408 1.170 . S
C410 C408 1.380 . S
C410 C411 1.170 . S
C411 C410 1.170 . S
C412 C413 1.170 . S
C412 C414 1.380 . S
C413 C412 1.170 . S
C414 C412 1.380 . S
C414 C415 1.170 . S
C415 C414 1.170 . S
C416 C417 1.170 . S
C416 C418 1.380 . S
C417 C416 1.170 . S
C418 C416 1.380 . S
C418 C419 1.170 . S
C419 C418 1.170 . S
C420 C421 1.170 . S
C420 C422 1.380 . S
C421 C420 1.170 . S
C422 C420 1.380 . S
C422 C423 1.170 . S
C423 C422 1.170 . S
C424 C425 1.170 . S
C424 C426 1.380 . S
C425 C424 1.170 . S
C426 C424 1.380 . S
C426 C427 1.170 . S
C427 C426 1.170 . S
C428 C429 1.170 . S
C428 C430 1.380 . S
C429 C428 1.170 . S
C430 C428 1.380 . S
C430 C431 1.170 . S
C431 C430 1.170 . S
C432 C433 1.170 . S
C432 C434 1.380 . S
C433 C432 1.170 . S
C434 C432 1.380 . S
C434 C435 1.170 1_556 S
C435 C434 1.170 1_554 S
C436 C437 1.170 . S
C436 C438 1.380 . S
C437 C436 1.170 . S
C438 C436 1.380 . S
C438 C439 1.170 . S
C439 C438 1.170 . S
C440 C441 1.170 . S
C440 C442 1.380 . S
C441 C440 1.170 . S
C442 C440 1.380 . S
C442 C443 1.170 . S
C443 C442 1.170 . S
C444 C445 1.170 . S
C444 C446 1.380 . S
C445 C444 1.170 . S
C446 C444 1.380 . S
C446 C447 1.170 . S
C447 C446 1.170 . S
C448 C449 1.170 . S
C448 C450 1.380 . S
C449 C448 1.170 . S
C450 C448 1.380 . S
C450 C451 1.170 . S
C451 C450 1.170 . S
C452 C453 1.170 . S
C452 C454 1.380 . S
C453 C452 1.170 . S
C454 C452 1.380 . S
C454 C455 1.170 . S
C455 C454 1.170 . S
C456 C457 1.170 . S
C456 C458 1.380 . S
C457 C456 1.170 . S
C458 C456 1.380 . S
C458 C459 1.170 . S
C459 C458 1.170 . S
C460 C461 1.170 . S
C460 C462 1.380 1_554 S
C461 C460 1.170 . S
C462 C460 1.380 1_556 S
C462 C463 1.170 . S
C463 C462 1.170 . S
C464 C465 1.170 . S
C464 C466 1.380 . S
C465 C464 1.170 . S
C466 C464 1.380 . S
C466 C467 1.170 . S
C467 C466 1.170 . S
C375 C358 1.621 . S
C373 C45 1.617 . S
C377 C84 1.611 . S
C379 C299 1.636 . S
C381 C126 1.547 . S
C383 C302 1.613 . S
C385 C189 1.618 . S
C387 C316 1.621 . S
C391 C341 1.635 . S
C389 C228 1.614 . S
C393 C270 1.573 . S
C395 C344 1.616 . S
C397 C69 1.579 . S
C399 C313 1.599 . S
C401 C141 1.606 . S
C403 C327 1.603 . S
C405 C174 1.545 . S
C407 C330 1.589 . S
C411 C355 1.604 . S
C409 C213 1.571 . S
C415 C369 1.603 . S
C413 C285 1.606 . S
C419 C288 1.588 . S
C417 C30 1.533 . S
C421 C36 1.497 . S
C423 C311 1.478 . S
C425 C93 1.494 . S
C427 C325 1.493 . S
C431 C335 1.498 . S
C429 C117 1.500 . S
C433 C180 1.491 . S
C435 C353 1.493 . S
C439 C367 1.486 . S
C437 C237 1.490 . S
C443 C293 1.497 . S
C441 C261 1.501 . S
C447 C363 1.517 . S
C445 C78 1.505 . S
C449 C132 1.506 . S
C451 C297 1.508 . S
C455 C307 1.514 . S
C453 C165 1.500 . S
C457 C222 1.507 . S
C459 C321 1.517 . S
C461 C276 1.509 . S
C463 C339 1.503 . S
C465 C21 1.499 . S
C467 C349 1.515 . S
