# Generated by pormake.
# Topology apo, (3,6)-cn, num edge types: 1
# Building blocks:
#     Node 0, Type 0, BuildingBlock: CUQRIR_clean_linker_1, # of connection points: 3
#     Node 1, Type 0, BuildingBlock: CUQRIR_clean_linker_1, # of connection points: 3
#     Node 2, Type 0, BuildingBlock: CUQRIR_clean_linker_1, # of connection points: 3
#     Node 3, Type 0, BuildingBlock: CUQRIR_clean_linker_1, # of connection points: 3
#     Node 4, Type 0, BuildingBlock: CUQRIR_clean_linker_1, # of connection points: 3
#     Node 5, Type 0, BuildingBlock: CUQRIR_clean_linker_1, # of connection points: 3
#     Node 6, Type 0, BuildingBlock: CUQRIR_clean_linker_1, # of connection points: 3
#     Node 7, Type 0, BuildingBlock: CUQRIR_clean_linker_1, # of connection points: 3
#     Node 8, Type 1, BuildingBlock: KUMBOL_clean_sbu_1, # of connection points: 6
#     Node 9, Type 1, BuildingBlock: KUMBOL_clean_sbu_1, # of connection points: 6
#     Node 10, Type 1, BuildingBlock: KUMBOL_clean_sbu_1, # of connection points: 6
#     Node 11, Type 1, BuildingBlock: KUMBOL_clean_sbu_1, # of connection points: 6
#     Edge 12, Type (0, 1), BuildingBlock: OJICUG_clean_linker_0, # of connection points: 2
#     Edge 13, Type (0, 1), BuildingBlock: OJICUG_clean_linker_0, # of connection points: 2
#     Edge 14, Type (0, 1), BuildingBlock: OJICUG_clean_linker_0, # of connection points: 2
#     Edge 15, Type (0, 1), BuildingBlock: OJICUG_clean_linker_0, # of connection points: 2
#     Edge 16, Type (0, 1), BuildingBlock: OJICUG_clean_linker_0, # of connection points: 2
#     Edge 17, Type (0, 1), BuildingBlock: OJICUG_clean_linker_0, # of connection points: 2
#     Edge 18, Type (0, 1), BuildingBlock: OJICUG_clean_linker_0, # of connection points: 2
#     Edge 19, Type (0, 1), BuildingBlock: OJICUG_clean_linker_0, # of connection points: 2
#     Edge 20, Type (0, 1), BuildingBlock: OJICUG_clean_linker_0, # of connection points: 2
#     Edge 21, Type (0, 1), BuildingBlock: OJICUG_clean_linker_0, # of connection points: 2
#     Edge 22, Type (0, 1), BuildingBlock: OJICUG_clean_linker_0, # of connection points: 2
#     Edge 23, Type (0, 1), BuildingBlock: OJICUG_clean_linker_0, # of connection points: 2
#     Edge 24, Type (0, 1), BuildingBlock: OJICUG_clean_linker_0, # of connection points: 2
#     Edge 25, Type (0, 1), BuildingBlock: OJICUG_clean_linker_0, # of connection points: 2
#     Edge 26, Type (0, 1), BuildingBlock: OJICUG_clean_linker_0, # of connection points: 2
#     Edge 27, Type (0, 1), BuildingBlock: OJICUG_clean_linker_0, # of connection points: 2
#     Edge 28, Type (0, 1), BuildingBlock: OJICUG_clean_linker_0, # of connection points: 2
#     Edge 29, Type (0, 1), BuildingBlock: OJICUG_clean_linker_0, # of connection points: 2
#     Edge 30, Type (0, 1), BuildingBlock: OJICUG_clean_linker_0, # of connection points: 2
#     Edge 31, Type (0, 1), BuildingBlock: OJICUG_clean_linker_0, # of connection points: 2
#     Edge 32, Type (0, 1), BuildingBlock: OJICUG_clean_linker_0, # of connection points: 2
#     Edge 33, Type (0, 1), BuildingBlock: OJICUG_clean_linker_0, # of connection points: 2
#     Edge 34, Type (0, 1), BuildingBlock: OJICUG_clean_linker_0, # of connection points: 2
#     Edge 35, Type (0, 1), BuildingBlock: OJICUG_clean_linker_0, # of connection points: 2
# Relax obj value: 0.043
# Max RMSD: 0.252
# Mean RMSD: 0.193
data_MOF--net-apo--node1-KUMBOL_clean_sbu_1--node2-CUQRIR_clean_linker_1--edge1-OJICUG_clean_linker_0
_symmetry_space_group_name_H-M    P1
_symmetry_Int_Tables_number       1
_symmetry_cell_setting            triclinic
loop_
_symmetry_equiv_pos_as_xyz
'x, y, z'
_cell_length_a     18.91532
_cell_length_b     27.660442
_cell_length_c     34.916106
_cell_angle_alpha  89.845083
_cell_angle_beta   90.006746
_cell_angle_gamma 90.650598
loop_
_atom_site_label
_atom_site_type_symbol
_atom_site_fract_x
_atom_site_fract_y
_atom_site_fract_z
_atom_type_partial_charge
C0 C 0.23525 0.33998 0.43329 0.0
N1 N 0.27734 0.38004 0.43579 0.0
N2 N 0.22986 0.32497 0.39656 0.0
C3 C 0.19825 0.31576 0.46648 0.0
C4 C 0.26921 0.35732 0.37659 0.0
N5 N 0.29746 0.39116 0.4002 0.0
C6 C 0.28036 0.35537 0.33398 0.0
H7 H 0.23417 0.28886 0.47947 0.0
H8 H 0.14977 0.29633 0.45704 0.0
H9 H 0.18388 0.34259 0.48864 0.0
H10 H 0.23236 0.34106 0.31943 0.0
H11 H 0.3246 0.33058 0.32781 0.0
H12 H 0.29406 0.39153 0.32226 0.0
C13 C 0.22783 0.18561 0.93261 0.0
N14 N 0.191 0.14306 0.93356 0.0
N15 N 0.25151 0.19506 0.89672 0.0
C16 C 0.24574 0.21611 0.96691 0.0
C17 C 0.22855 0.15693 0.87594 0.0
N18 N 0.1926 0.12513 0.89823 0.0
C19 C 0.23947 0.15149 0.83356 0.0
H20 H 0.20195 0.24159 0.97219 0.0
H21 H 0.29479 0.23761 0.96193 0.0
H22 H 0.25258 0.19324 0.99277 0.0
H23 H 0.28676 0.12897 0.82892 0.0
H24 H 0.24856 0.18703 0.81954 0.0
H25 H 0.1933 0.13324 0.8201 0.0
C26 C 0.6739 0.17144 0.64539 0.0
N27 N 0.71706 0.13302 0.64147 0.0
N28 N 0.66131 0.18056 0.68284 0.0
C29 C 0.64159 0.19873 0.61255 0.0
C30 C 0.69816 0.14611 0.70162 0.0
N31 N 0.73192 0.11704 0.67649 0.0
C32 C 0.70231 0.14197 0.74468 0.0
H33 H 0.67925 0.22724 0.60282 0.0
H34 H 0.59156 0.21608 0.62135 0.0
H35 H 0.63098 0.17418 0.58807 0.0
H36 H 0.65224 0.12582 0.7555 0.0
H37 H 0.70878 0.17832 0.75767 0.0
H38 H 0.7457 0.11864 0.75461 0.0
C39 C 0.77938 0.31298 0.15092 0.0
N40 N 0.73484 0.35048 0.14543 0.0
N41 N 0.81212 0.31665 0.18533 0.0
C42 C 0.78459 0.26997 0.12475 0.0
C43 C 0.78609 0.35774 0.20038 0.0
N44 N 0.73822 0.37787 0.17662 0.0
C45 C 0.80979 0.37973 0.23769 0.0
H46 H 0.7918 0.23622 0.14146 0.0
H47 H 0.83111 0.27496 0.10574 0.0
H48 H 0.73662 0.26596 0.10671 0.0
H49 H 0.86423 0.36838 0.24504 0.0
H50 H 0.77352 0.36808 0.26098 0.0
H51 H 0.80817 0.41971 0.23571 0.0
C52 C 0.75317 0.67638 0.63717 0.0
N53 N 0.71291 0.6354 0.63616 0.0
N54 N 0.77691 0.68486 0.6731 0.0
C55 C 0.77244 0.70712 0.60307 0.0
C56 C 0.75004 0.64785 0.69402 0.0
N57 N 0.71185 0.61749 0.67158 0.0
C58 C 0.75716 0.64292 0.73676 0.0
H59 H 0.77806 0.68459 0.57703 0.0
H60 H 0.82254 0.72734 0.60819 0.0
H61 H 0.72999 0.73374 0.59806 0.0
H62 H 0.70472 0.63478 0.74967 0.0
H63 H 0.77963 0.6761 0.74998 0.0
H64 H 0.7923 0.61212 0.7433 0.0
C65 C 0.77167 0.82683 0.13607 0.0
N66 N 0.80942 0.86898 0.13558 0.0
N67 N 0.74461 0.81829 0.17137 0.0
C68 C 0.75714 0.79541 0.10184 0.0
C69 C 0.76661 0.85656 0.19231 0.0
N70 N 0.80524 0.88757 0.17062 0.0
C71 C 0.75313 0.8628 0.2344 0.0
H72 H 0.7082 0.77352 0.106 0.0
H73 H 0.80187 0.77031 0.09792 0.0
H74 H 0.75185 0.81767 0.07553 0.0
H75 H 0.7309 0.82956 0.24772 0.0
H76 H 0.71512 0.89261 0.23818 0.0
H77 H 0.80293 0.8731 0.24923 0.0
C78 C 0.33892 0.84167 0.42476 0.0
N79 N 0.29472 0.87942 0.42931 0.0
N80 N 0.35198 0.83376 0.38715 0.0
C81 C 0.37195 0.81396 0.45716 0.0
C82 C 0.31456 0.86838 0.36895 0.0
N83 N 0.2799 0.89626 0.39453 0.0
C84 C 0.30992 0.87356 0.32595 0.0
H85 H 0.42214 0.79713 0.44799 0.0
H86 H 0.33483 0.78502 0.4667 0.0
H87 H 0.38247 0.83813 0.48188 0.0
H88 H 0.30129 0.83763 0.31257 0.0
H89 H 0.36058 0.88866 0.31503 0.0
H90 H 0.26776 0.89826 0.31653 0.0
C91 C 0.19392 0.67919 0.92297 0.0
N92 N 0.2351 0.63998 0.92879 0.0
N93 N 0.17351 0.68192 0.88579 0.0
C94 C 0.17719 0.71596 0.95327 0.0
C95 C 0.2031 0.64277 0.86949 0.0
N96 N 0.24057 0.61725 0.89542 0.0
C97 C 0.1956 0.62926 0.82792 0.0
H98 H 0.16188 0.69743 0.98031 0.0
H99 H 0.13452 0.74067 0.94458 0.0
H100 H 0.22527 0.73807 0.95908 0.0
H101 H 0.23956 0.646 0.81134 0.0
H102 H 0.14482 0.6424 0.81612 0.0
H103 H 0.19837 0.58945 0.82437 0.0
C104 C 0.81343 0.02252 0.31124 0.0
C105 C 0.83701 0.94152 0.33425 0.0
C106 C 0.85873 0.99007 0.32887 0.0
C107 C 0.77102 0.92582 0.32031 0.0
C108 C 0.7465 0.00714 0.29794 0.0
C109 C 0.72587 0.95856 0.30226 0.0
N110 N 0.83422 0.06956 0.3079 0.0
C111 C 0.7903 0.10326 0.29255 0.0
C112 C 0.70179 0.04127 0.28123 0.0
C113 C 0.72371 0.08957 0.27866 0.0
Gd114 Gd 0.10065 0.09256 0.2531 0.0
Gd115 Gd 0.94458 0.08974 0.33402 0.0
N116 N 0.92163 0.00661 0.34304 0.0
C117 C 0.88067 0.91073 0.3552 0.0
C118 C 0.96005 0.97802 0.367 0.0
C119 C 0.94167 0.92937 0.37237 0.0
H120 H 0.00369 0.99277 0.38317 0.0
H121 H 0.9736 0.90663 0.39059 0.0
H122 H 0.09619 0.21288 0.24356 0.0
H123 H 0.80682 0.14062 0.29109 0.0
H124 H 0.17898 0.28256 0.24827 0.0
H125 H 0.86589 0.87322 0.35996 0.0
H126 H 0.75367 0.88864 0.32415 0.0
H127 H 0.19743 0.993 0.26547 0.0
H128 H 0.65001 0.03081 0.27063 0.0
H129 H 0.6892 0.1163 0.2662 0.0
H130 H 0.4023 0.21047 0.27819 0.0
H131 H 0.67458 0.9461 0.29231 0.0
H132 H 0.41076 0.03763 0.28866 0.0
H133 H 0.32118 0.97256 0.28088 0.0
N134 N 0.2167 0.06886 0.26601 0.0
C135 C 0.26532 0.10517 0.26937 0.0
C136 C 0.236 0.02168 0.26947 0.0
C137 C 0.35651 0.04685 0.28221 0.0
C138 C 0.30604 0.00998 0.27792 0.0
C139 C 0.33661 0.09514 0.27764 0.0
H140 H 0.44063 0.12647 0.28736 0.0
N141 N 0.17424 0.16106 0.25738 0.0
C142 C 0.24377 0.1526 0.26426 0.0
C143 C 0.26889 0.2384 0.26164 0.0
C144 C 0.29284 0.19114 0.26715 0.0
C145 C 0.15101 0.20679 0.25039 0.0
C146 C 0.19777 0.24621 0.25296 0.0
O147 O 0.92408 0.06536 0.2724 0.0
O148 O 0.0274 0.02851 0.2571 0.0
O149 O 0.07103 0.11283 0.19512 0.0
O150 O 0.15835 0.06427 0.20433 0.0
O151 O 0.05346 0.06172 0.34875 0.0
O152 O 0.0851 0.02794 0.29154 0.0
O153 O 0.12318 0.13549 0.30706 0.0
O154 O 0.01785 0.1546 0.33787 0.0
O155 O 0.93744 0.08306 0.3961 0.0
O156 O 0.86575 0.12961 0.366 0.0
O157 O 0.00657 0.14085 0.2431 0.0
O158 O 0.94535 0.15826 0.2995 0.0
C159 C 0.95892 0.03245 0.25321 0.0
C160 C 0.0923 0.03194 0.32875 0.0
C161 C 0.09923 0.05977 0.14438 0.0
C162 C 0.09651 0.05518 0.07436 0.0
C163 C 0.05177 0.98822 0.1131 0.0
C164 C 0.06881 0.01345 0.14657 0.0
C165 C 0.06612 0.00867 0.07719 0.0
C166 C 0.11228 0.08068 0.10826 0.0
C167 C 0.11961 0.0866 0.17917 0.0
C168 C 0.36383 0.18132 0.27565 0.0
C169 C 0.38564 0.13347 0.28092 0.0
H170 H 0.30487 0.26904 0.2638 0.0
C171 C 0.0858 0.16137 0.33116 0.0
C172 C 0.96213 0.1668 0.26341 0.0
C173 C 0.82345 0.09159 0.42265 0.0
C174 C 0.7692 0.08079 0.486 0.0
C175 C 0.70907 0.05176 0.42856 0.0
C176 C 0.76463 0.06876 0.40588 0.0
C177 C 0.71095 0.0579 0.46819 0.0
C178 C 0.8258 0.0972 0.46273 0.0
C179 C 0.88217 0.11031 0.39876 0.0
H180 H 0.02814 0.95246 0.11499 0.0
H181 H 0.05923 0.99674 0.1741 0.0
H182 H 0.05342 0.98818 0.05167 0.0
H183 H 0.13673 0.11628 0.10659 0.0
H184 H 0.66367 0.03451 0.41529 0.0
H185 H 0.76094 0.06461 0.37524 0.0
H186 H 0.66549 0.04594 0.48464 0.0
H187 H 0.87156 0.11457 0.4756 0.0
C188 C 0.72078 0.43038 0.81028 0.0
C189 C 0.73917 0.51741 0.81332 0.0
C190 C 0.69443 0.4765 0.81661 0.0
C191 C 0.81064 0.51138 0.80373 0.0
C192 C 0.79232 0.42429 0.80029 0.0
C193 C 0.83711 0.46499 0.79721 0.0
N194 N 0.67598 0.3917 0.81278 0.0
C195 C 0.69915 0.34597 0.80614 0.0
C196 C 0.8165 0.37747 0.79323 0.0
C197 C 0.7697 0.33817 0.79616 0.0
Gd198 Gd 0.40125 0.4152 0.75179 0.0
Gd199 Gd 0.55962 0.40898 0.83001 0.0
N200 N 0.62425 0.48141 0.82418 0.0
C201 C 0.71047 0.5632 0.81931 0.0
C202 C 0.5964 0.52576 0.83108 0.0
C203 C 0.63885 0.56736 0.82834 0.0
H204 H 0.54176 0.52919 0.83896 0.0
H205 H 0.61641 0.60259 0.83343 0.0
H206 H 0.44106 0.31681 0.69825 0.0
H207 H 0.66349 0.31538 0.80904 0.0
H208 H 0.39772 0.23338 0.69028 0.0
H209 H 0.74316 0.59552 0.81719 0.0
H210 H 0.84575 0.54242 0.80096 0.0
H211 H 0.27428 0.47436 0.79772 0.0
H212 H 0.8711 0.37129 0.78544 0.0
H213 H 0.78799 0.30186 0.79087 0.0
H214 H 0.18184 0.22796 0.76204 0.0
H215 H 0.89224 0.461 0.78954 0.0
H216 H 0.10447 0.3746 0.82084 0.0
H217 H 0.15659 0.45685 0.82589 0.0
N218 N 0.28868 0.40257 0.77812 0.0
C219 C 0.26015 0.35754 0.77384 0.0
C220 C 0.25195 0.43834 0.79578 0.0
C221 C 0.15599 0.38211 0.80849 0.0
C222 C 0.1853 0.42857 0.81149 0.0
C223 C 0.19325 0.34595 0.78935 0.0
H224 H 0.11487 0.28908 0.79744 0.0
N225 N 0.36311 0.33529 0.73957 0.0
C226 C 0.29896 0.32277 0.7546 0.0
C227 C 0.30794 0.24289 0.72729 0.0
C228 C 0.27035 0.27589 0.74946 0.0
C229 C 0.39595 0.30483 0.71472 0.0
C230 C 0.37023 0.25778 0.70917 0.0
O231 O 0.58521 0.44253 0.77197 0.0
O232 O 0.48111 0.47612 0.75188 0.0
O233 O 0.39564 0.41549 0.68867 0.0
O234 O 0.32566 0.46051 0.72282 0.0
O235 O 0.46123 0.45014 0.84571 0.0
O236 O 0.41609 0.481 0.78915 0.0
O237 O 0.37869 0.38488 0.81156 0.0
O238 O 0.48125 0.34717 0.82926 0.0
O239 O 0.55576 0.43332 0.88888 0.0
O240 O 0.61681 0.37027 0.87445 0.0
O241 O 0.50281 0.37594 0.73685 0.0
O242 O 0.53997 0.34272 0.79425 0.0
C243 C 0.54995 0.47219 0.74971 0.0
C244 C 0.42251 0.4811 0.82667 0.0
C245 C 0.3105 0.46648 0.65393 0.0
C246 C 0.29071 0.4673 0.58416 0.0
C247 C 0.22286 0.51966 0.62625 0.0
C248 C 0.25854 0.50194 0.65805 0.0
C249 C 0.23797 0.50225 0.58983 0.0
C250 C 0.32723 0.44973 0.61681 0.0
C251 C 0.3448 0.44686 0.68883 0.0
C252 C 0.20429 0.26391 0.76549 0.0
C253 C 0.16594 0.2988 0.78546 0.0
H254 H 0.28774 0.20662 0.72255 0.0
C255 C 0.41202 0.34999 0.82939 0.0
C256 C 0.53578 0.34236 0.75667 0.0
C257 C 0.56657 0.37367 0.93644 0.0
C258 C 0.57668 0.35784 1.00527 0.0
C259 C 0.47894 0.32334 0.96843 0.0
C260 C 0.5048 0.34528 0.93514 0.0
C261 C 0.51457 0.32936 1.00323 0.0
C262 C 0.60188 0.38022 0.97146 0.0
C263 C 0.5938 0.39787 0.90182 0.0
H264 H 0.18216 0.54645 0.62994 0.0
H265 H 0.24464 0.51574 0.68603 0.0
H266 H 0.20634 0.51551 0.56632 0.0
H267 H 0.36809 0.42297 0.6136 0.0
H268 H 0.43139 0.30123 0.96722 0.0
H269 H 0.47662 0.34023 0.90847 0.0
H270 H 0.49424 0.31075 1.02829 0.0
H271 H 0.64881 0.40304 0.97227 0.0
C272 C 0.7383 0.91576 0.7973 0.0
C273 C 0.6987 0.83211 0.79357 0.0
C274 C 0.75269 0.86678 0.79963 0.0
C275 C 0.63036 0.84749 0.78408 0.0
C276 C 0.66945 0.9314 0.78868 0.0
C277 C 0.61578 0.89701 0.78162 0.0
N278 N 0.79116 0.94807 0.80459 0.0
C279 C 0.77846 0.9965 0.8052 0.0
C280 C 0.65643 0.98114 0.78802 0.0
C281 C 0.71103 0.01378 0.79669 0.0
Gd282 Gd 0.06285 0.91972 0.73622 0.0
Gd283 Gd 0.90307 0.9157 0.81581 0.0
N284 N 0.81958 0.85307 0.8082 0.0
C285 C 0.71497 0.78306 0.79763 0.0
C286 C 0.83503 0.80552 0.81415 0.0
C287 C 0.78324 0.76977 0.80839 0.0
H288 H 0.88783 0.79516 0.82217 0.0
H289 H 0.79605 0.73201 0.81213 0.0
H290 H -1e-05 0.01047 0.68125 0.0
H291 H 0.82045 0.0218 0.81224 0.0
H292 H 0.02314 0.09699 0.67051 0.0
H293 H 0.67505 0.75527 0.79306 0.0
H294 H 0.58823 0.8214 0.77905 0.0
H295 H 0.20575 0.87689 0.77975 0.0
H296 H 0.60423 0.99466 0.78153 0.0
H297 H 0.70106 0.05219 0.79707 0.0
H298 H 0.23558 0.12885 0.74068 0.0
H299 H 0.5626 0.90833 0.77475 0.0
H300 H 0.35086 0.99421 0.79889 0.0
H301 H 0.32029 0.90728 0.80457 0.0
N302 N 0.1711 0.94603 0.76184 0.0
C303 C 0.18733 0.9937 0.75768 0.0
C304 C 0.21835 0.91489 0.77775 0.0
C305 C 0.30029 0.98109 0.78838 0.0
C306 C 0.28327 0.932 0.79162 0.0
C307 C 0.25254 0.01251 0.77084 0.0
H308 H 0.31883 0.0766 0.77492 0.0
N309 N 0.07978 0.00298 0.72388 0.0
C310 C 0.13996 0.02312 0.73852 0.0
C311 C 0.11303 0.09945 0.70827 0.0
C312 C 0.1577 0.07206 0.73145 0.0
C313 C 0.04113 0.0281 0.69762 0.0
C314 C 0.0555 0.077 0.69047 0.0
O315 O 0.88378 0.87332 0.76143 0.0
O316 O 0.99092 0.85405 0.73244 0.0
O317 O 0.07045 0.92289 0.67397 0.0
O318 O 0.1445 0.88036 0.70584 0.0
O319 O 0.98739 0.85908 0.8225 0.0
O320 O 0.07231 0.85406 0.77374 0.0
O321 O 0.08116 0.94351 0.79822 0.0
O322 O 0.97678 0.97955 0.81277 0.0
O323 O 0.94393 0.89798 0.8723 0.0
O324 O 0.84421 0.93502 0.86689 0.0
O325 O 0.95285 0.94643 0.72137 0.0
O326 O 0.92196 0.98063 0.77832 0.0
C327 C 0.9228 0.84705 0.73842 0.0
C328 C 0.04306 0.83943 0.80619 0.0
C329 C 0.18553 0.91739 0.64846 0.0
C330 C 0.2393 0.92945 0.58509 0.0
C331 C 0.297 0.96099 0.64243 0.0
C332 C 0.24255 0.94241 0.66515 0.0
C333 C 0.29577 0.95441 0.60284 0.0
C334 C 0.18386 0.91127 0.6084 0.0
C335 C 0.12765 0.89752 0.67242 0.0
C336 C 0.22145 0.09133 0.74566 0.0
C337 C 0.26886 0.06158 0.76517 0.0
H338 H 0.12483 0.13712 0.70215 0.0
C339 C 0.04516 0.97589 0.81738 0.0
C340 C 0.91475 0.97691 0.74116 0.0
C341 C 0.90797 0.94619 0.92466 0.0
C342 C 0.90794 0.95367 0.99455 0.0
C343 C 0.94908 0.02047 0.95448 0.0
C344 C 0.93481 0.99341 0.92155 0.0
C345 C 0.93523 1.00097 0.99076 0.0
C346 C 0.89514 0.92633 0.96116 0.0
C347 C 0.89103 0.91746 0.89032 0.0
H348 H 0.34101 0.97993 0.65564 0.0
H349 H 0.24565 0.94721 0.69575 0.0
H350 H 0.34036 0.9678 0.58636 0.0
H351 H 0.13943 0.8923 0.59555 0.0
H352 H 0.97009 0.0569 0.95186 0.0
H353 H 0.94371 0.00935 0.89369 0.0
H354 H 0.94579 0.02286 1.01583 0.0
H355 H 0.87311 0.89008 0.96349 0.0
C356 C 0.76587 0.61348 0.29453 0.0
C357 C 0.78778 0.7002 0.29606 0.0
C358 C 0.74182 0.66014 0.30078 0.0
C359 C 0.85807 0.69275 0.28477 0.0
C360 C 0.83656 0.60588 0.28352 0.0
C361 C 0.8824 0.64573 0.27855 0.0
N362 N 0.72012 0.57561 0.29914 0.0
C363 C 0.74192 0.5292 0.29419 0.0
C364 C 0.85915 0.55838 0.27798 0.0
C365 C 0.81175 0.51991 0.28361 0.0
Gd366 Gd 0.44291 0.5984 0.24215 0.0
Gd367 Gd 0.605 0.59533 0.3175 0.0
N368 N 0.67288 0.66634 0.31056 0.0
C369 C 0.76162 0.74656 0.3028 0.0
C370 C 0.648 0.71114 0.31886 0.0
C371 C 0.69156 0.752 0.31453 0.0
H372 H 0.59492 0.71542 0.32912 0.0
H373 H 0.67126 0.78762 0.32053 0.0
H374 H 0.47298 0.48453 0.21165 0.0
H375 H 0.70584 0.49928 0.29916 0.0
H376 H 0.41592 0.40445 0.21576 0.0
H377 H 0.79527 0.77827 0.29952 0.0
H378 H 0.89409 0.7231 0.28086 0.0
H379 H 0.3276 0.67697 0.27808 0.0
H380 H 0.91318 0.55099 0.26972 0.0
H381 H 0.82924 0.48311 0.28018 0.0
H382 H 0.19415 0.43482 0.27725 0.0
H383 H 0.93686 0.64057 0.27 0.0
H384 H 0.14129 0.5982 0.3115 0.0
H385 H 0.20768 0.67553 0.30616 0.0
N386 N 0.32954 0.60113 0.26876 0.0
C387 C 0.29372 0.55827 0.27092 0.0
C388 C 0.29945 0.64296 0.28085 0.0
C389 C 0.19401 0.59856 0.29936 0.0
C390 C 0.23138 0.6423 0.29648 0.0
C391 C 0.22497 0.55585 0.28643 0.0
H392 H 0.13689 0.5084 0.30077 0.0
N393 N 0.39349 0.52001 0.24362 0.0
C394 C 0.32667 0.51655 0.25808 0.0
C395 C 0.32417 0.43075 0.24528 0.0
C396 C 0.29072 0.47165 0.25983 0.0
C397 C 0.42415 0.48087 0.22712 0.0
C398 C 0.39079 0.43552 0.22843 0.0
O399 O 0.62634 0.63021 0.25938 0.0
O400 O 0.52016 0.66088 0.2382 0.0
O401 O 0.43995 0.58396 0.18087 0.0
O402 O 0.37248 0.63848 0.2049 0.0
O403 O 0.50825 0.63956 0.33181 0.0
O404 O 0.46044 0.66753 0.27484 0.0
O405 O 0.42467 0.5701 0.30315 0.0
O406 O 0.52812 0.53269 0.31903 0.0
O407 O 0.59478 0.61846 0.37671 0.0
O408 O 0.66775 0.56172 0.36212 0.0
O409 O 0.54365 0.56007 0.22529 0.0
O410 O 0.58369 0.52868 0.28238 0.0
C411 C 0.58961 0.66064 0.23853 0.0
C412 C 0.4727 0.67145 0.31179 0.0
C413 C 0.33084 0.59745 0.14974 0.0
C414 C 0.27771 0.58906 0.08593 0.0
C415 C 0.21417 0.56137 0.14285 0.0
C416 C 0.27032 0.57613 0.16597 0.0
C417 C 0.2174 0.56804 0.10329 0.0
C418 C 0.33467 0.6035 0.10969 0.0
C419 C 0.3895 0.61452 0.17428 0.0
C420 C 0.22236 0.46908 0.27549 0.0
C421 C 0.18964 0.51101 0.2888 0.0
H422 H 0.29826 0.39561 0.24599 0.0
C423 C 0.45939 0.53688 0.32234 0.0
C424 C 0.58106 0.52868 0.24475 0.0
C425 C 0.6178 0.55985 0.42433 0.0
C426 C 0.61579 0.55364 0.49424 0.0
C427 C 0.56495 0.48944 0.4551 0.0
C428 C 0.58332 0.51484 0.42184 0.0
C429 C 0.58149 0.50848 0.49111 0.0
C430 C 0.63331 0.57932 0.46056 0.0
C431 C 0.63923 0.58661 0.38957 0.0
H432 H 0.16734 0.54541 0.15573 0.0
H433 H 0.26583 0.57152 0.19652 0.0
H434 H 0.17153 0.5578 0.08653 0.0
H435 H 0.38186 0.61958 0.09725 0.0
H436 H 0.53829 0.45472 0.45294 0.0
H437 H 0.57137 0.49925 0.39421 0.0
H438 H 0.56709 0.48808 0.51652 0.0
H439 H 0.66061 0.61391 0.4625 0.0
C440 C 0.16581 0.91483 0.36538 0.0
C441 C 0.22652 0.93075 0.38494 0.0
H442 H 0.07892 0.93457 0.32947 0.0
C443 C 0.24073 0.9805 0.38774 0.0
H444 H 0.15512 0.8765 0.36222 0.0
C445 C 0.19511 0.01385 0.3708 0.0
C446 C 0.13705 0.99752 0.34924 0.0
H447 H 0.28884 0.99341 0.40115 0.0
H448 H 0.20729 0.05214 0.37266 0.0
C449 C 0.12286 0.94784 0.34649 0.0
C450 C 0.34954 0.5992 0.86088 0.0
C451 C 0.29451 0.5835 0.8851 0.0
H452 H 0.43178 0.57866 0.82209 0.0
C453 C 0.28562 0.53391 0.89229 0.0
H454 H 0.35632 0.63733 0.85456 0.0
C455 C 0.33028 0.50052 0.87482 0.0
C456 C 0.38204 0.51634 0.84867 0.0
H457 H 0.24189 0.52078 0.90943 0.0
H458 H 0.3215 0.46223 0.8798 0.0
C459 C 0.39208 0.56586 0.84218 0.0
C460 C 0.59645 0.58021 0.6867 0.0
C461 C 0.67026 0.57712 0.68511 0.0
H462 H 0.5001 0.54961 0.70872 0.0
C463 C 0.70373 0.53742 0.70186 0.0
H464 H 0.57005 0.611 0.6742 0.0
C465 C 0.66425 0.50212 0.72127 0.0
C466 C 0.59057 0.50657 0.7252 0.0
H467 H 0.76077 0.53467 0.70089 0.0
H468 H 0.69187 0.4721 0.73407 0.0
C469 C 0.55681 0.54528 0.70668 0.0
C470 C 0.8134 0.97027 0.1961 0.0
C471 C 0.84641 0.92722 0.18544 0.0
H472 H 0.82412 0.03851 0.22458 0.0
C473 C 0.917 0.91982 0.19559 0.0
H474 H 0.75835 0.97595 0.18909 0.0
C475 C 0.95355 0.95423 0.21737 0.0
C476 C 0.92055 0.99724 0.22868 0.0
H477 H 0.94243 0.88617 0.18837 0.0
H478 H 0.00716 0.94648 0.22616 0.0
C479 C 0.85059 0.00544 0.21697 0.0
C480 C 0.84459 0.09591 0.70637 0.0
C481 C 0.78357 0.0814 0.68645 0.0
H482 H 0.93072 0.07399 0.742 0.0
C483 C 0.76805 0.03189 0.68271 0.0
H484 H 0.85654 0.13399 0.71011 0.0
C485 C 0.81273 0.99742 0.69904 0.0
C486 C 0.87124 0.01234 0.72086 0.0
H487 H 0.71974 0.01999 0.66896 0.0
H488 H 0.79948 0.95935 0.69648 0.0
C489 C 0.88652 0.06177 0.72466 0.0
C490 C 0.6878 0.45968 0.17157 0.0
C491 C 0.68826 0.41362 0.18838 0.0
H492 H 0.6523 0.53303 0.17653 0.0
C493 C 0.64797 0.40483 0.22148 0.0
H494 H 0.7191 0.46706 0.14622 0.0
C495 C 0.61254 0.44226 0.23945 0.0
C496 C 0.61484 0.48896 0.22392 0.0
H497 H 0.64746 0.36931 0.23461 0.0
H498 H 0.58419 0.43485 0.26583 0.0
C499 C 0.65042 0.49718 0.18908 0.0
C500 C 0.31056 0.47499 0.37751 0.0
C501 C 0.34154 0.43106 0.38803 0.0
H502 H 0.32437 0.54392 0.35025 0.0
C503 C 0.41222 0.42289 0.37823 0.0
H504 H 0.25512 0.48106 0.38324 0.0
C505 C 0.45091 0.45763 0.35754 0.0
C506 C 0.41977 0.50153 0.34653 0.0
H507 H 0.43607 0.38844 0.38478 0.0
H508 H 0.50438 0.44925 0.34895 0.0
C509 C 0.34968 0.51031 0.3577 0.0
C510 C 0.18784 0.04171 0.87409 0.0
C511 C 0.15302 0.08434 0.88414 0.0
H512 H 0.18002 0.97272 0.84647 0.0
C513 C 0.08238 0.09033 0.87358 0.0
H514 H 0.24307 0.03722 0.88128 0.0
C515 C 0.0475 0.05491 0.85207 0.0
C516 C 0.08218 0.0122 0.8415 0.0
H517 H 0.05563 0.1237 0.8802 0.0
H518 H -0.00622 0.06165 0.84293 0.0
C519 C 0.15226 0.00545 0.85357 0.0
C520 C 0.11947 0.14557 0.99295 0.0
C521 C 0.16062 0.11948 0.96683 0.0
H522 H 0.06721 0.14584 0.04751 0.0
C523 C 0.17584 0.07095 0.97502 0.0
H524 H 0.10571 0.18269 0.98696 0.0
C525 C 0.15262 0.0495 1.00925 0.0
C526 C 0.11465 0.0764 0.03631 0.0
H527 H 0.20833 0.05022 0.95574 0.0
H528 H 0.16713 0.01249 1.01531 0.0
C529 C 0.09734 0.12445 1.02749 0.0
C530 C 0.32071 0.37832 0.50256 0.0
C531 C 0.29694 0.40482 0.47073 0.0
H532 H 0.33505 0.37591 0.56317 0.0
C533 C 0.28269 0.454 0.47549 0.0
H534 H 0.33358 0.3405 0.4995 0.0
C535 C 0.287 0.47529 0.51177 0.0
C536 C 0.30258 0.44741 0.54464 0.0
H537 H 0.26369 0.47538 0.45181 0.0
H538 H 0.27459 0.51325 0.51408 0.0
C539 C 0.32238 0.39899 0.53914 0.0
C540 C 0.62065 0.36169 0.11203 0.0
C541 C 0.69465 0.35983 0.11121 0.0
H542 H 0.52495 0.36357 0.0792 0.0
C543 C 0.72955 0.36147 0.07579 0.0
H544 H 0.5927 0.36005 0.13906 0.0
C545 C 0.69136 0.36227 0.04161 0.0
C546 C 0.61698 0.36197 0.04197 0.0
H547 H 0.7867 0.36 0.07467 0.0
H548 H 0.72041 0.36087 1.01493 0.0
C549 C 0.5821 0.36292 0.07771 0.0
C550 C 0.72029 0.07044 0.59152 0.0
C551 C 0.7441 0.115 0.60574 0.0
H552 H 0.71237 0.02343 0.54321 0.0
C553 C 0.78349 0.14581 0.58168 0.0
H554 H 0.68774 0.04688 0.60907 0.0
C555 C 0.79506 0.13367 0.54331 0.0
C556 C 0.76782 0.09011 0.52822 0.0
H557 H 0.80139 0.18072 0.59205 0.0
H558 H 0.82148 0.15988 0.52505 0.0
C559 C 0.73291 0.05776 0.55337 0.0
C560 C 0.88449 0.8656 0.07753 0.0
C561 C 0.84192 0.89207 0.1027 0.0
H562 H 0.93864 0.8642 1.02355 0.0
C563 C 0.82665 0.94033 0.09367 0.0
H564 H 0.89839 0.8287 0.08426 0.0
C565 C 0.85057 0.96098 0.05928 0.0
C566 C 0.88961 0.93356 1.03298 0.0
H567 H 0.79335 0.96136 0.11234 0.0
H568 H 0.83561 0.99769 0.05245 0.0
C569 C 0.90755 0.88594 0.04288 0.0
C570 C 0.64251 0.6412 0.57665 0.0
C571 C 0.6815 0.61332 0.60269 0.0
H572 H 0.59174 0.64433 0.52177 0.0
C573 C 0.6942 0.56464 0.5941 0.0
H574 H 0.63069 0.67851 0.58303 0.0
C575 C 0.67086 0.54477 0.5594 0.0
C576 C 0.63512 0.57343 0.53244 0.0
H577 H 0.7247 0.54256 0.61353 0.0
H578 H 0.68328 0.50753 0.55298 0.0
C579 C 0.62022 0.62165 0.54171 0.0
C580 C 0.30094 0.6519 0.98927 0.0
C581 C 0.25917 0.62244 0.96541 0.0
H582 H 0.33863 0.66533 0.04608 0.0
C583 C 0.23092 0.5793 0.98023 0.0
H584 H 0.32313 0.68546 0.97839 0.0
C585 C 0.24141 0.56676 1.0186 0.0
C586 C 0.27839 0.59803 0.04357 0.0
H587 H 0.1966 0.55687 0.96282 0.0
H588 H 0.21766 0.53344 1.029 0.0
C589 C 0.31013 0.64005 1.02801 0.0
C590 C 0.23007 0.86399 0.4894 0.0
C591 C 0.26692 0.89621 0.46528 0.0
H592 H 0.19332 0.84855 0.54607 0.0
C593 C 0.28703 0.9416 0.47948 0.0
H594 H 0.21471 0.82855 0.47901 0.0
C595 C 0.27359 0.95374 0.51767 0.0
C596 C 0.24141 0.92014 0.54286 0.0
H597 H 0.31734 0.96643 0.46186 0.0
H598 H 0.29131 0.98878 0.52782 0.0
C599 C 0.21765 0.87566 0.52779 0.0
C600 C 0.2317 0.24341 0.36892 0.0
C601 C 0.19335 0.28309 0.38199 0.0
H602 H 0.22759 0.17286 0.34409 0.0
C603 C 0.11937 0.28212 0.37968 0.0
H604 H 0.28888 0.24375 0.37059 0.0
C605 C 0.08405 0.24203 0.36403 0.0
C606 C 0.12238 0.20236 0.35034 0.0
H607 H 0.08923 0.31277 0.38945 0.0
H608 H 0.02695 0.24266 0.36182 0.0
C609 C 0.19656 0.2032 0.35357 0.0
C610 C 0.2655 0.28178 0.8815 0.0
C611 C 0.29366 0.23513 0.88319 0.0
H612 H 0.28122 0.35527 0.86298 0.0
C613 C 0.36124 0.22689 0.86837 0.0
H614 H 0.21304 0.2885 0.89253 0.0
C615 C 0.39994 0.26456 0.85153 0.0
C616 C 0.37127 0.31109 0.8487 0.0
H617 H 0.38333 0.19096 0.86927 0.0
H618 H 0.45165 0.25692 0.83983 0.0
C619 C 0.30402 0.31957 0.86426 0.0
C620 C 0.57685 0.2143 0.72921 0.0
C621 C 0.62558 0.22123 0.69933 0.0
H622 H 0.51178 0.24776 0.7716 0.0
C623 C 0.64246 0.26855 0.6874 0.0
H624 H 0.56147 0.17824 0.73818 0.0
C625 C 0.61179 0.30823 0.70541 0.0
C626 C 0.56571 0.30104 0.73636 0.0
H627 H 0.68072 0.27481 0.66484 0.0
H628 H 0.62586 0.34447 0.69607 0.0
C629 C 0.54832 0.25391 0.74813 0.0
C630 C 0.91017 0.25846 0.18768 0.0
C631 C 0.85205 0.28038 0.20513 0.0
H632 H 0.99063 0.20502 0.19226 0.0
C633 C 0.8319 0.26586 0.24211 0.0
H634 H 0.92688 0.26948 0.15929 0.0
C635 C 0.86933 0.23037 0.26152 0.0
C636 C 0.92624 0.20715 0.24379 0.0
H637 H 0.78624 0.28144 0.25582 0.0
H638 H 0.85242 0.22053 0.29014 0.0
C639 C 0.94665 0.22182 0.2067 0.0
C640 C 0.88738 0.72384 0.69478 0.0
C641 C 0.8149 0.72649 0.68685 0.0
H642 H 0.97912 0.76058 0.71697 0.0
C643 C 0.77878 0.76935 0.69418 0.0
H644 H 0.91557 0.69069 0.6894 0.0
C645 C 0.8144 0.80897 0.71012 0.0
C646 C 0.88693 0.80639 0.71872 0.0
H647 H 0.72269 0.77162 0.68834 0.0
H648 H 0.78499 0.84148 0.71608 0.0
C649 C 0.92342 0.76371 0.71033 0.0
C650 C 0.63301 0.78281 0.19472 0.0
C651 C 0.7041 0.77732 0.18458 0.0
H652 H 0.54065 0.74992 0.21941 0.0
C653 C 0.73685 0.73275 0.19058 0.0
H654 H 0.60747 0.81728 0.19061 0.0
C655 C 0.6993 0.69433 0.20744 0.0
C656 C 0.6282 0.6999 0.21824 0.0
H657 H 0.79204 0.72831 0.1833 0.0
H658 H 0.72615 0.66052 0.21249 0.0
C659 C 0.59512 0.74432 0.21111 0.0
C660 C 0.36917 0.74576 0.38179 0.0
C661 C 0.38651 0.79304 0.36999 0.0
H662 H 0.38438 0.66984 0.37273 0.0
C663 C 0.43407 0.79982 0.33951 0.0
H664 H 0.33153 0.73955 0.40466 0.0
C665 C 0.46112 0.76012 0.32001 0.0
C666 C 0.44372 0.71308 0.33196 0.0
H667 H 0.4498 0.83581 0.33055 0.0
H668 H 0.4966 0.76609 0.29604 0.0
C669 C 0.39861 0.70604 0.36334 0.0
C670 C 0.07216 0.73624 0.87631 0.0
C671 C 0.14013 0.72131 0.86612 0.0
H672 H 0.98849 0.78595 0.86599 0.0
C673 C 0.17491 0.74416 0.83546 0.0
H674 H 0.04386 0.71825 0.89933 0.0
C675 C 0.14247 0.78137 0.81526 0.0
C676 C 0.07525 0.79766 0.82606 0.0
H677 H 0.2275 0.73319 0.8272 0.0
H678 H 0.17076 0.79769 0.79154 0.0
C679 C 0.04039 0.77459 0.85687 0.0
loop_
_geom_bond_atom_site_label_1
_geom_bond_atom_site_label_2
_geom_bond_distance
_geom_bond_site_symmetry_2
_ccdc_geom_bond_type
C0 N1 1.317 . S
C0 N2 1.348 . S
C0 C3 1.485 . S
N1 C0 1.317 . S
N1 N5 1.370 . S
N2 C0 1.348 . S
N2 C4 1.346 . S
C3 C0 1.485 . S
C3 H7 0.960 . S
C3 H8 0.961 . S
C3 H9 0.960 . S
C4 N2 1.346 . S
C4 N5 1.307 . S
C4 C6 1.486 . S
N5 N1 1.370 . S
N5 C4 1.307 . S
C6 C4 1.486 . S
C6 H10 0.960 . S
C6 H11 0.960 . S
C6 H12 0.959 . S
H7 C3 0.960 . S
H8 C3 0.961 . S
H9 C3 0.960 . S
H10 C6 0.960 . S
H11 C6 0.960 . S
H12 C6 0.959 . S
C13 N14 1.317 . S
C13 N15 1.348 . S
C13 C16 1.485 . S
N14 C13 1.317 . S
N14 N18 1.370 . S
N15 C13 1.348 . S
N15 C17 1.346 . S
C16 C13 1.485 . S
C16 H20 0.960 . S
C16 H21 0.961 . S
C16 H22 0.960 . S
C17 N15 1.346 . S
C17 N18 1.307 . S
C17 C19 1.486 . S
N18 N14 1.370 . S
N18 C17 1.307 . S
C19 C17 1.486 . S
C19 H23 0.960 . S
C19 H24 0.960 . S
C19 H25 0.959 . S
H20 C16 0.960 . S
H21 C16 0.961 . S
H22 C16 0.960 . S
H23 C19 0.960 . S
H24 C19 0.960 . S
H25 C19 0.959 . S
C26 N27 1.317 . S
C26 N28 1.348 . S
C26 C29 1.485 . S
N27 C26 1.317 . S
N27 N31 1.370 . S
N28 C26 1.348 . S
N28 C30 1.346 . S
C29 C26 1.485 . S
C29 H33 0.960 . S
C29 H34 0.961 . S
C29 H35 0.960 . S
C30 N28 1.346 . S
C30 N31 1.307 . S
C30 C32 1.486 . S
N31 N27 1.370 . S
N31 C30 1.307 . S
C32 C30 1.486 . S
C32 H36 0.960 . S
C32 H37 0.960 . S
C32 H38 0.959 . S
H33 C29 0.960 . S
H34 C29 0.961 . S
H35 C29 0.960 . S
H36 C32 0.960 . S
H37 C32 0.960 . S
H38 C32 0.959 . S
C39 N40 1.317 . S
C39 N41 1.348 . S
C39 C42 1.485 . S
N40 C39 1.317 . S
N40 N44 1.370 . S
N41 C39 1.348 . S
N41 C43 1.346 . S
C42 C39 1.485 . S
C42 H46 0.960 . S
C42 H47 0.961 . S
C42 H48 0.960 . S
C43 N41 1.346 . S
C43 N44 1.307 . S
C43 C45 1.486 . S
N44 N40 1.370 . S
N44 C43 1.307 . S
C45 C43 1.486 . S
C45 H49 0.960 . S
C45 H50 0.960 . S
C45 H51 0.959 . S
H46 C42 0.960 . S
H47 C42 0.961 . S
H48 C42 0.960 . S
H49 C45 0.960 . S
H50 C45 0.960 . S
H51 C45 0.959 . S
C52 N53 1.317 . S
C52 N54 1.348 . S
C52 C55 1.485 . S
N53 C52 1.317 . S
N53 N57 1.370 . S
N54 C52 1.348 . S
N54 C56 1.346 . S
C55 C52 1.485 . S
C55 H59 0.960 . S
C55 H60 0.961 . S
C55 H61 0.960 . S
C56 N54 1.346 . S
C56 N57 1.307 . S
C56 C58 1.486 . S
N57 N53 1.370 . S
N57 C56 1.307 . S
C58 C56 1.486 . S
C58 H62 0.960 . S
C58 H63 0.960 . S
C58 H64 0.959 . S
H59 C55 0.960 . S
H60 C55 0.961 . S
H61 C55 0.960 . S
H62 C58 0.960 . S
H63 C58 0.960 . S
H64 C58 0.959 . S
C65 N66 1.317 . S
C65 N67 1.348 . S
C65 C68 1.485 . S
N66 C65 1.317 . S
N66 N70 1.370 . S
N67 C65 1.348 . S
N67 C69 1.346 . S
C68 C65 1.485 . S
C68 H72 0.960 . S
C68 H73 0.961 . S
C68 H74 0.960 . S
C69 N67 1.346 . S
C69 N70 1.307 . S
C69 C71 1.486 . S
N70 N66 1.370 . S
N70 C69 1.307 . S
C71 C69 1.486 . S
C71 H75 0.960 . S
C71 H76 0.960 . S
C71 H77 0.959 . S
H72 C68 0.960 . S
H73 C68 0.961 . S
H74 C68 0.960 . S
H75 C71 0.960 . S
H76 C71 0.960 . S
H77 C71 0.959 . S
C78 N79 1.317 . S
C78 N80 1.348 . S
C78 C81 1.485 . S
N79 C78 1.317 . S
N79 N83 1.370 . S
N80 C78 1.348 . S
N80 C82 1.346 . S
C81 C78 1.485 . S
C81 H85 0.960 . S
C81 H86 0.961 . S
C81 H87 0.960 . S
C82 N80 1.346 . S
C82 N83 1.307 . S
C82 C84 1.486 . S
N83 N79 1.370 . S
N83 C82 1.307 . S
C84 C82 1.486 . S
C84 H88 0.960 . S
C84 H89 0.960 . S
C84 H90 0.959 . S
H85 C81 0.960 . S
H86 C81 0.961 . S
H87 C81 0.960 . S
H88 C84 0.960 . S
H89 C84 0.960 . S
H90 C84 0.959 . S
C91 N92 1.317 . S
C91 N93 1.348 . S
C91 C94 1.485 . S
N92 C91 1.317 . S
N92 N96 1.370 . S
N93 C91 1.348 . S
N93 C95 1.346 . S
C94 C91 1.485 . S
C94 H98 0.960 . S
C94 H99 0.961 . S
C94 H100 0.960 . S
C95 N93 1.346 . S
C95 N96 1.307 . S
C95 C97 1.486 . S
N96 N92 1.370 . S
N96 C95 1.307 . S
C97 C95 1.486 . S
C97 H101 0.960 . S
C97 H102 0.960 . S
C97 H103 0.959 . S
H98 C94 0.960 . S
H99 C94 0.961 . S
H100 C94 0.960 . S
H101 C97 0.960 . S
H102 C97 0.960 . S
H103 C97 0.959 . S
C104 C106 1.422 . S
C104 C108 1.415 . S
C104 N110 1.369 . S
C105 C106 1.421 1_565 S
C105 C107 1.417 . S
C105 C117 1.422 . S
C106 C104 1.422 . S
C106 C105 1.421 1_545 S
C106 N116 1.359 . S
C107 C105 1.417 . S
C107 C109 1.329 1_565 S
C107 H126 0.930 . S
C108 C104 1.415 . S
C108 C109 1.437 . S
C108 C112 1.413 . S
C109 C107 1.329 1_545 S
C109 C108 1.437 . S
C109 H131 0.929 . S
N110 C104 1.369 . S
N110 C111 1.338 . S
N110 Gd115 2.622 . S
C111 N110 1.338 . S
C111 C113 1.378 . S
C111 H123 0.929 . S
C112 C108 1.413 . S
C112 C113 1.348 . S
C112 H128 0.931 . S
C113 C111 1.378 . S
C113 C112 1.348 . S
C113 H129 0.930 . S
Gd114 N134 2.622 . S
Gd114 N141 2.570 . S
Gd114 O148 2.353 1_455 S
Gd114 O149 2.468 . S
Gd114 O150 2.427 . S
Gd114 O152 2.388 . S
Gd114 O153 2.386 . S
Gd114 O157 2.307 1_455 S
Gd114 C167 2.805 . S
Gd115 N110 2.622 . S
Gd115 N116 2.570 . S
Gd115 O147 2.386 . S
Gd115 O151 2.307 1_655 S
Gd115 O154 2.353 1_655 S
Gd115 O155 2.468 . S
Gd115 O156 2.427 . S
Gd115 O158 2.388 . S
Gd115 C179 2.805 . S
N116 C106 1.359 . S
N116 Gd115 2.570 . S
N116 C118 1.343 1_545 S
C117 C105 1.422 . S
C117 C119 1.321 . S
C117 H125 0.931 . S
C118 N116 1.343 1_565 S
C118 C119 1.390 . S
C118 H120 0.931 . S
C119 C117 1.321 . S
C119 C118 1.390 . S
C119 H121 0.930 . S
H120 C118 0.931 . S
H121 C119 0.930 . S
H122 C145 0.931 . S
H123 C111 0.929 . S
H124 C146 0.930 . S
H125 C117 0.931 . S
H126 C107 0.930 . S
H127 C136 0.929 . S
H128 C112 0.931 . S
H129 C113 0.930 . S
H130 C168 0.930 . S
H131 C109 0.929 . S
H132 C137 0.931 . S
H133 C138 0.930 . S
N134 Gd114 2.622 . S
N134 C135 1.369 . S
N134 C136 1.338 . S
C135 N134 1.369 . S
C135 C139 1.415 . S
C135 C142 1.422 . S
C136 H127 0.929 . S
C136 N134 1.338 . S
C136 C138 1.378 . S
C137 H132 0.931 . S
C137 C138 1.348 . S
C137 C139 1.413 . S
C138 H133 0.930 . S
C138 C136 1.378 . S
C138 C137 1.348 . S
C139 C135 1.415 . S
C139 C137 1.413 . S
C139 C169 1.437 . S
H140 C169 0.929 . S
N141 Gd114 2.570 . S
N141 C142 1.359 . S
N141 C145 1.343 . S
C142 C135 1.422 . S
C142 N141 1.359 . S
C142 C144 1.421 . S
C143 C144 1.422 . S
C143 C146 1.321 . S
C143 H170 0.931 . S
C144 C142 1.421 . S
C144 C143 1.422 . S
C144 C168 1.417 . S
C145 H122 0.931 . S
C145 N141 1.343 . S
C145 C146 1.390 . S
C146 H124 0.930 . S
C146 C143 1.321 . S
C146 C145 1.390 . S
O147 Gd115 2.386 . S
O147 C159 1.265 . S
O148 Gd114 2.353 1_655 S
O148 C159 1.242 . S
O149 Gd114 2.468 . S
O149 C167 1.263 . S
O150 Gd114 2.427 . S
O150 C167 1.252 . S
O151 Gd115 2.307 1_455 S
O151 C160 1.261 . S
O152 Gd114 2.388 . S
O152 C160 1.252 . S
O153 Gd114 2.386 . S
O153 C171 1.265 . S
O154 Gd115 2.353 1_455 S
O154 C171 1.242 . S
O155 Gd115 2.468 . S
O155 C179 1.263 . S
O156 Gd115 2.427 . S
O156 C179 1.252 . S
O157 Gd114 2.307 1_655 S
O157 C172 1.261 . S
O158 Gd115 2.388 . S
O158 C172 1.252 . S
C159 O147 1.265 . S
C159 O148 1.242 . S
C160 O151 1.261 . S
C160 O152 1.252 . S
C161 C164 1.394 . S
C161 C166 1.370 . S
C161 C167 1.500 . S
C162 C165 1.383 . S
C162 C166 1.395 . S
C163 C164 1.396 . S
C163 C165 1.365 . S
C163 H180 0.929 1_545 S
C164 C161 1.394 . S
C164 C163 1.396 . S
C164 H181 0.930 . S
C165 C162 1.383 . S
C165 C163 1.365 . S
C165 H182 0.931 . S
C166 C161 1.370 . S
C166 C162 1.395 . S
C166 H183 0.930 . S
C167 Gd114 2.805 . S
C167 O149 1.263 . S
C167 O150 1.252 . S
C167 C161 1.500 . S
C168 H130 0.930 . S
C168 C144 1.417 . S
C168 C169 1.329 . S
C169 C139 1.437 . S
C169 H140 0.929 . S
C169 C168 1.329 . S
H170 C143 0.931 . S
C171 O153 1.265 . S
C171 O154 1.242 . S
C172 O157 1.261 . S
C172 O158 1.252 . S
C173 C176 1.394 . S
C173 C178 1.370 . S
C173 C179 1.500 . S
C174 C177 1.383 . S
C174 C178 1.395 . S
C175 C176 1.396 . S
C175 C177 1.365 . S
C175 H184 0.929 . S
C176 C173 1.394 . S
C176 C175 1.396 . S
C176 H185 0.930 . S
C177 C174 1.383 . S
C177 C175 1.365 . S
C177 H186 0.931 . S
C178 C173 1.370 . S
C178 C174 1.395 . S
C178 H187 0.930 . S
C179 Gd115 2.805 . S
C179 O155 1.263 . S
C179 O156 1.252 . S
C179 C173 1.500 . S
H180 C163 0.929 1_565 S
H181 C164 0.930 . S
H182 C165 0.931 . S
H183 C166 0.930 . S
H184 C175 0.929 . S
H185 C176 0.930 . S
H186 C177 0.931 . S
H187 C178 0.930 . S
C188 C190 1.422 . S
C188 C192 1.415 . S
C188 N194 1.369 . S
C189 C190 1.421 . S
C189 C191 1.417 . S
C189 C201 1.422 . S
C190 C188 1.422 . S
C190 C189 1.421 . S
C190 N200 1.359 . S
C191 C189 1.417 . S
C191 C193 1.329 . S
C191 H210 0.930 . S
C192 C188 1.415 . S
C192 C193 1.437 . S
C192 C196 1.413 . S
C193 C191 1.329 . S
C193 C192 1.437 . S
C193 H215 0.929 . S
N194 C188 1.369 . S
N194 C195 1.338 . S
N194 Gd199 2.622 . S
C195 N194 1.338 . S
C195 C197 1.378 . S
C195 H207 0.929 . S
C196 C192 1.413 . S
C196 C197 1.348 . S
C196 H212 0.931 . S
C197 C195 1.378 . S
C197 C196 1.348 . S
C197 H213 0.930 . S
Gd198 N218 2.622 . S
Gd198 N225 2.570 . S
Gd198 O232 2.353 . S
Gd198 O233 2.468 . S
Gd198 O234 2.427 . S
Gd198 O236 2.388 . S
Gd198 O237 2.386 . S
Gd198 O241 2.307 . S
Gd198 C251 2.805 . S
Gd199 N194 2.622 . S
Gd199 N200 2.570 . S
Gd199 O231 2.386 . S
Gd199 O235 2.307 . S
Gd199 O238 2.353 . S
Gd199 O239 2.468 . S
Gd199 O240 2.427 . S
Gd199 O242 2.388 . S
Gd199 C263 2.805 . S
N200 C190 1.359 . S
N200 Gd199 2.570 . S
N200 C202 1.343 . S
C201 C189 1.422 . S
C201 C203 1.321 . S
C201 H209 0.931 . S
C202 N200 1.343 . S
C202 C203 1.390 . S
C202 H204 0.931 . S
C203 C201 1.321 . S
C203 C202 1.390 . S
C203 H205 0.930 . S
H204 C202 0.931 . S
H205 C203 0.930 . S
H206 C229 0.931 . S
H207 C195 0.929 . S
H208 C230 0.930 . S
H209 C201 0.931 . S
H210 C191 0.930 . S
H211 C220 0.929 . S
H212 C196 0.931 . S
H213 C197 0.930 . S
H214 C252 0.930 . S
H215 C193 0.929 . S
H216 C221 0.931 . S
H217 C222 0.930 . S
N218 Gd198 2.622 . S
N218 C219 1.369 . S
N218 C220 1.338 . S
C219 N218 1.369 . S
C219 C223 1.415 . S
C219 C226 1.422 . S
C220 H211 0.929 . S
C220 N218 1.338 . S
C220 C222 1.378 . S
C221 H216 0.931 . S
C221 C222 1.348 . S
C221 C223 1.413 . S
C222 H217 0.930 . S
C222 C220 1.378 . S
C222 C221 1.348 . S
C223 C219 1.415 . S
C223 C221 1.413 . S
C223 C253 1.437 . S
H224 C253 0.929 . S
N225 Gd198 2.570 . S
N225 C226 1.359 . S
N225 C229 1.343 . S
C226 C219 1.422 . S
C226 N225 1.359 . S
C226 C228 1.421 . S
C227 C228 1.422 . S
C227 C230 1.321 . S
C227 H254 0.931 . S
C228 C226 1.421 . S
C228 C227 1.422 . S
C228 C252 1.417 . S
C229 H206 0.931 . S
C229 N225 1.343 . S
C229 C230 1.390 . S
C230 H208 0.930 . S
C230 C227 1.321 . S
C230 C229 1.390 . S
O231 Gd199 2.386 . S
O231 C243 1.265 . S
O232 Gd198 2.353 . S
O232 C243 1.242 . S
O233 Gd198 2.468 . S
O233 C251 1.263 . S
O234 Gd198 2.427 . S
O234 C251 1.252 . S
O235 Gd199 2.307 . S
O235 C244 1.261 . S
O236 Gd198 2.388 . S
O236 C244 1.252 . S
O237 Gd198 2.386 . S
O237 C255 1.265 . S
O238 Gd199 2.353 . S
O238 C255 1.242 . S
O239 Gd199 2.468 . S
O239 C263 1.263 . S
O240 Gd199 2.427 . S
O240 C263 1.252 . S
O241 Gd198 2.307 . S
O241 C256 1.261 . S
O242 Gd199 2.388 . S
O242 C256 1.252 . S
C243 O231 1.265 . S
C243 O232 1.242 . S
C244 O235 1.261 . S
C244 O236 1.252 . S
C245 C248 1.394 . S
C245 C250 1.370 . S
C245 C251 1.500 . S
C246 C249 1.383 . S
C246 C250 1.395 . S
C247 C248 1.396 . S
C247 C249 1.365 . S
C247 H264 0.929 . S
C248 C245 1.394 . S
C248 C247 1.396 . S
C248 H265 0.930 . S
C249 C246 1.383 . S
C249 C247 1.365 . S
C249 H266 0.931 . S
C250 C245 1.370 . S
C250 C246 1.395 . S
C250 H267 0.930 . S
C251 Gd198 2.805 . S
C251 O233 1.263 . S
C251 O234 1.252 . S
C251 C245 1.500 . S
C252 H214 0.930 . S
C252 C228 1.417 . S
C252 C253 1.329 . S
C253 C223 1.437 . S
C253 H224 0.929 . S
C253 C252 1.329 . S
H254 C227 0.931 . S
C255 O237 1.265 . S
C255 O238 1.242 . S
C256 O241 1.261 . S
C256 O242 1.252 . S
C257 C260 1.394 . S
C257 C262 1.370 . S
C257 C263 1.500 . S
C258 C261 1.383 . S
C258 C262 1.395 . S
C259 C260 1.396 . S
C259 C261 1.365 . S
C259 H268 0.929 . S
C260 C257 1.394 . S
C260 C259 1.396 . S
C260 H269 0.930 . S
C261 C258 1.383 . S
C261 C259 1.365 . S
C261 H270 0.931 . S
C262 C257 1.370 . S
C262 C258 1.395 . S
C262 H271 0.930 . S
C263 Gd199 2.805 . S
C263 O239 1.263 . S
C263 O240 1.252 . S
C263 C257 1.500 . S
H264 C247 0.929 . S
H265 C248 0.930 . S
H266 C249 0.931 . S
H267 C250 0.930 . S
H268 C259 0.929 . S
H269 C260 0.930 . S
H270 C261 0.931 . S
H271 C262 0.930 . S
C272 C274 1.422 . S
C272 C276 1.415 . S
C272 N278 1.369 . S
C273 C274 1.421 . S
C273 C275 1.417 . S
C273 C285 1.422 . S
C274 C272 1.422 . S
C274 C273 1.421 . S
C274 N284 1.359 . S
C275 C273 1.417 . S
C275 C277 1.329 . S
C275 H294 0.930 . S
C276 C272 1.415 . S
C276 C277 1.437 . S
C276 C280 1.413 . S
C277 C275 1.329 . S
C277 C276 1.437 . S
C277 H299 0.929 . S
N278 C272 1.369 . S
N278 C279 1.338 . S
N278 Gd283 2.622 . S
C279 N278 1.338 . S
C279 C281 1.378 . S
C279 H291 0.929 . S
C280 C276 1.413 . S
C280 C281 1.348 . S
C280 H296 0.931 . S
C281 C279 1.378 . S
C281 C280 1.348 . S
C281 H297 0.930 . S
Gd282 N302 2.622 . S
Gd282 N309 2.570 . S
Gd282 O316 2.349 1_455 S
Gd282 O317 2.468 . S
Gd282 O318 2.427 . S
Gd282 O320 2.388 . S
Gd282 O321 2.386 . S
Gd282 O325 2.294 1_455 S
Gd282 C335 2.805 . S
Gd283 N278 2.622 . S
Gd283 N284 2.570 . S
Gd283 O315 2.386 . S
Gd283 O319 2.307 1_655 S
Gd283 O322 2.353 1_655 S
Gd283 O323 2.468 . S
Gd283 O324 2.427 . S
Gd283 O326 2.388 . S
Gd283 C347 2.805 . S
N284 C274 1.359 . S
N284 Gd283 2.570 . S
N284 C286 1.343 . S
C285 C273 1.422 . S
C285 C287 1.321 . S
C285 H293 0.931 . S
C286 N284 1.343 . S
C286 C287 1.390 . S
C286 H288 0.931 . S
C287 C285 1.321 . S
C287 C286 1.390 . S
C287 H289 0.930 . S
H288 C286 0.931 . S
H289 C287 0.930 . S
H290 C313 0.931 . S
H291 C279 0.929 . S
H292 C314 0.930 . S
H293 C285 0.931 . S
H294 C275 0.930 . S
H295 C304 0.929 . S
H296 C280 0.931 . S
H297 C281 0.930 . S
H298 C336 0.930 . S
H299 C277 0.929 . S
H300 C305 0.931 . S
H301 C306 0.930 . S
N302 Gd282 2.622 . S
N302 C303 1.369 . S
N302 C304 1.338 . S
C303 N302 1.369 . S
C303 C307 1.415 . S
C303 C310 1.422 . S
C304 H295 0.929 . S
C304 N302 1.338 . S
C304 C306 1.378 . S
C305 H300 0.931 . S
C305 C306 1.348 . S
C305 C307 1.413 . S
C306 H301 0.930 . S
C306 C304 1.378 . S
C306 C305 1.348 . S
C307 C303 1.415 . S
C307 C305 1.413 . S
C307 C337 1.437 . S
H308 C337 0.929 . S
N309 Gd282 2.570 . S
N309 C310 1.359 . S
N309 C313 1.343 1_565 S
C310 C303 1.422 . S
C310 N309 1.359 . S
C310 C312 1.421 1_565 S
C311 C312 1.422 . S
C311 C314 1.321 . S
C311 H338 0.931 . S
C312 C310 1.421 1_545 S
C312 C311 1.422 . S
C312 C336 1.417 . S
C313 H290 0.931 . S
C313 N309 1.343 1_545 S
C313 C314 1.390 . S
C314 H292 0.930 . S
C314 C311 1.321 . S
C314 C313 1.390 . S
O315 Gd283 2.386 . S
O315 C327 1.265 . S
O316 Gd282 2.349 1_655 S
O316 C327 1.246 . S
O317 Gd282 2.468 . S
O317 C335 1.263 . S
O318 Gd282 2.427 . S
O318 C335 1.252 . S
O319 Gd283 2.307 1_455 S
O319 C328 1.261 . S
O320 Gd282 2.388 . S
O320 C328 1.252 . S
O321 Gd282 2.386 . S
O321 C339 1.265 . S
O322 Gd283 2.353 1_455 S
O322 C339 1.242 . S
O323 Gd283 2.468 . S
O323 C347 1.263 . S
O324 Gd283 2.427 . S
O324 C347 1.252 . S
O325 Gd282 2.294 1_655 S
O325 C340 1.276 . S
O326 Gd283 2.388 . S
O326 C340 1.252 . S
C327 O315 1.265 . S
C327 O316 1.246 . S
C328 O319 1.261 . S
C328 O320 1.252 . S
C329 C332 1.394 . S
C329 C334 1.370 . S
C329 C335 1.500 . S
C330 C333 1.383 . S
C330 C334 1.395 . S
C331 C332 1.396 . S
C331 C333 1.365 . S
C331 H348 0.929 . S
C332 C329 1.394 . S
C332 C331 1.396 . S
C332 H349 0.930 . S
C333 C330 1.383 . S
C333 C331 1.365 . S
C333 H350 0.931 . S
C334 C329 1.370 . S
C334 C330 1.395 . S
C334 H351 0.930 . S
C335 Gd282 2.805 . S
C335 O317 1.263 . S
C335 O318 1.252 . S
C335 C329 1.500 . S
C336 H298 0.930 . S
C336 C312 1.417 . S
C336 C337 1.329 1_545 S
C337 C307 1.437 . S
C337 H308 0.929 . S
C337 C336 1.329 1_565 S
H338 C311 0.931 . S
C339 O321 1.265 . S
C339 O322 1.242 . S
C340 O325 1.276 . S
C340 O326 1.252 . S
C341 C344 1.394 . S
C341 C346 1.370 . S
C341 C347 1.500 . S
C342 C345 1.383 . S
C342 C346 1.395 . S
C343 C344 1.396 . S
C343 C345 1.365 . S
C343 H352 0.929 1_565 S
C344 C341 1.394 . S
C344 C343 1.396 . S
C344 H353 0.930 . S
C345 C342 1.383 . S
C345 C343 1.365 . S
C345 H354 0.931 . S
C346 C341 1.370 . S
C346 C342 1.395 . S
C346 H355 0.930 . S
C347 Gd283 2.805 . S
C347 O323 1.263 . S
C347 O324 1.252 . S
C347 C341 1.500 . S
H348 C331 0.929 . S
H349 C332 0.930 . S
H350 C333 0.931 . S
H351 C334 0.930 . S
H352 C343 0.929 1_545 S
H353 C344 0.930 . S
H354 C345 0.931 . S
H355 C346 0.930 . S
C356 C358 1.422 . S
C356 C360 1.415 . S
C356 N362 1.369 . S
C357 C358 1.421 . S
C357 C359 1.417 . S
C357 C369 1.422 . S
C358 C356 1.422 . S
C358 C357 1.421 . S
C358 N368 1.359 . S
C359 C357 1.417 . S
C359 C361 1.329 . S
C359 H378 0.930 . S
C360 C356 1.415 . S
C360 C361 1.437 . S
C360 C364 1.413 . S
C361 C359 1.329 . S
C361 C360 1.437 . S
C361 H383 0.929 . S
N362 C356 1.369 . S
N362 C363 1.338 . S
N362 Gd367 2.622 . S
C363 N362 1.338 . S
C363 C365 1.378 . S
C363 H375 0.929 . S
C364 C360 1.413 . S
C364 C365 1.348 . S
C364 H380 0.931 . S
C365 C363 1.378 . S
C365 C364 1.348 . S
C365 H381 0.930 . S
Gd366 N386 2.622 . S
Gd366 N393 2.570 . S
Gd366 O400 2.353 . S
Gd366 O401 2.468 . S
Gd366 O402 2.427 . S
Gd366 O404 2.388 . S
Gd366 O405 2.386 . S
Gd366 O409 2.307 . S
Gd366 C419 2.805 . S
Gd367 N362 2.622 . S
Gd367 N368 2.570 . S
Gd367 O399 2.386 . S
Gd367 O403 2.307 . S
Gd367 O406 2.353 . S
Gd367 O407 2.468 . S
Gd367 O408 2.427 . S
Gd367 O410 2.388 . S
Gd367 C431 2.805 . S
N368 C358 1.359 . S
N368 Gd367 2.570 . S
N368 C370 1.343 . S
C369 C357 1.422 . S
C369 C371 1.321 . S
C369 H377 0.931 . S
C370 N368 1.343 . S
C370 C371 1.390 . S
C370 H372 0.931 . S
C371 C369 1.321 . S
C371 C370 1.390 . S
C371 H373 0.930 . S
H372 C370 0.931 . S
H373 C371 0.930 . S
H374 C397 0.931 . S
H375 C363 0.929 . S
H376 C398 0.930 . S
H377 C369 0.931 . S
H378 C359 0.930 . S
H379 C388 0.929 . S
H380 C364 0.931 . S
H381 C365 0.930 . S
H382 C420 0.930 . S
H383 C361 0.929 . S
H384 C389 0.931 . S
H385 C390 0.930 . S
N386 Gd366 2.622 . S
N386 C387 1.369 . S
N386 C388 1.338 . S
C387 N386 1.369 . S
C387 C391 1.415 . S
C387 C394 1.422 . S
C388 H379 0.929 . S
C388 N386 1.338 . S
C388 C390 1.378 . S
C389 H384 0.931 . S
C389 C390 1.348 . S
C389 C391 1.413 . S
C390 H385 0.930 . S
C390 C388 1.378 . S
C390 C389 1.348 . S
C391 C387 1.415 . S
C391 C389 1.413 . S
C391 C421 1.437 . S
H392 C421 0.929 . S
N393 Gd366 2.570 . S
N393 C394 1.359 . S
N393 C397 1.343 . S
C394 C387 1.422 . S
C394 N393 1.359 . S
C394 C396 1.421 . S
C395 C396 1.422 . S
C395 C398 1.321 . S
C395 H422 0.931 . S
C396 C394 1.421 . S
C396 C395 1.422 . S
C396 C420 1.417 . S
C397 H374 0.931 . S
C397 N393 1.343 . S
C397 C398 1.390 . S
C398 H376 0.930 . S
C398 C395 1.321 . S
C398 C397 1.390 . S
O399 Gd367 2.386 . S
O399 C411 1.265 . S
O400 Gd366 2.353 . S
O400 C411 1.242 . S
O401 Gd366 2.468 . S
O401 C419 1.263 . S
O402 Gd366 2.427 . S
O402 C419 1.252 . S
O403 Gd367 2.307 . S
O403 C412 1.261 . S
O404 Gd366 2.388 . S
O404 C412 1.252 . S
O405 Gd366 2.386 . S
O405 C423 1.265 . S
O406 Gd367 2.353 . S
O406 C423 1.242 . S
O407 Gd367 2.468 . S
O407 C431 1.263 . S
O408 Gd367 2.427 . S
O408 C431 1.252 . S
O409 Gd366 2.307 . S
O409 C424 1.261 . S
O410 Gd367 2.388 . S
O410 C424 1.252 . S
C411 O399 1.265 . S
C411 O400 1.242 . S
C412 O403 1.261 . S
C412 O404 1.252 . S
C413 C416 1.394 . S
C413 C418 1.370 . S
C413 C419 1.500 . S
C414 C417 1.383 . S
C414 C418 1.395 . S
C415 C416 1.396 . S
C415 C417 1.365 . S
C415 H432 0.929 . S
C416 C413 1.394 . S
C416 C415 1.396 . S
C416 H433 0.930 . S
C417 C414 1.383 . S
C417 C415 1.365 . S
C417 H434 0.931 . S
C418 C413 1.370 . S
C418 C414 1.395 . S
C418 H435 0.930 . S
C419 Gd366 2.805 . S
C419 O401 1.263 . S
C419 O402 1.252 . S
C419 C413 1.500 . S
C420 H382 0.930 . S
C420 C396 1.417 . S
C420 C421 1.329 . S
C421 C391 1.437 . S
C421 H392 0.929 . S
C421 C420 1.329 . S
H422 C395 0.931 . S
C423 O405 1.265 . S
C423 O406 1.242 . S
C424 O409 1.261 . S
C424 O410 1.252 . S
C425 C428 1.394 . S
C425 C430 1.370 . S
C425 C431 1.500 . S
C426 C429 1.383 . S
C426 C430 1.395 . S
C427 C428 1.396 . S
C427 C429 1.365 . S
C427 H436 0.929 . S
C428 C425 1.394 . S
C428 C427 1.396 . S
C428 H437 0.930 . S
C429 C426 1.383 . S
C429 C427 1.365 . S
C429 H438 0.931 . S
C430 C425 1.370 . S
C430 C426 1.395 . S
C430 H439 0.930 . S
C431 Gd367 2.805 . S
C431 O407 1.263 . S
C431 O408 1.252 . S
C431 C425 1.500 . S
H432 C415 0.929 . S
H433 C416 0.930 . S
H434 C417 0.931 . S
H435 C418 0.930 . S
H436 C427 0.929 . S
H437 C428 0.930 . S
H438 C429 0.931 . S
H439 C430 0.930 . S
C440 C441 1.387 . S
C440 H444 0.950 . S
C440 C449 1.390 . S
C441 C440 1.387 . S
C441 C443 1.387 . S
H442 C449 0.950 . S
C443 C441 1.387 . S
C443 C445 1.390 . S
C443 H447 0.950 . S
H444 C440 0.950 . S
C445 C443 1.390 . S
C445 C446 1.387 . S
C445 H448 0.950 1_565 S
C446 C445 1.387 . S
C446 C449 1.387 . S
H447 C443 0.950 . S
H448 C445 0.950 1_545 S
C449 C440 1.390 . S
C449 H442 0.950 . S
C449 C446 1.387 . S
C450 C451 1.387 . S
C450 H454 0.950 . S
C450 C459 1.390 . S
C451 C450 1.387 . S
C451 C453 1.387 . S
H452 C459 0.950 . S
C453 C451 1.387 . S
C453 C455 1.390 . S
C453 H457 0.950 . S
H454 C450 0.950 . S
C455 C453 1.390 . S
C455 C456 1.387 . S
C455 H458 0.950 . S
C456 C455 1.387 . S
C456 C459 1.387 . S
H457 C453 0.950 . S
H458 C455 0.950 . S
C459 C450 1.390 . S
C459 H452 0.950 . S
C459 C456 1.387 . S
C460 C461 1.387 . S
C460 H464 0.950 . S
C460 C469 1.390 . S
C461 C460 1.387 . S
C461 C463 1.387 . S
H462 C469 0.950 . S
C463 C461 1.387 . S
C463 C465 1.390 . S
C463 H467 0.950 . S
H464 C460 0.950 . S
C465 C463 1.390 . S
C465 C466 1.387 . S
C465 H468 0.950 . S
C466 C465 1.387 . S
C466 C469 1.387 . S
H467 C463 0.950 . S
H468 C465 0.950 . S
C469 C460 1.390 . S
C469 H462 0.950 . S
C469 C466 1.387 . S
C470 C471 1.387 . S
C470 H474 0.950 . S
C470 C479 1.390 1_565 S
C471 C470 1.387 . S
C471 C473 1.387 . S
H472 C479 0.950 . S
C473 C471 1.387 . S
C473 C475 1.390 . S
C473 H477 0.950 . S
H474 C470 0.950 . S
C475 C473 1.390 . S
C475 C476 1.387 . S
C475 H478 0.950 . S
C476 C475 1.387 . S
C476 C479 1.387 1_565 S
H477 C473 0.950 . S
H478 C475 0.950 . S
C479 C470 1.390 1_545 S
C479 H472 0.950 . S
C479 C476 1.387 1_545 S
C480 C481 1.387 . S
C480 H484 0.950 . S
C480 C489 1.390 . S
C481 C480 1.387 . S
C481 C483 1.387 . S
H482 C489 0.950 . S
C483 C481 1.387 . S
C483 C485 1.390 1_545 S
C483 H487 0.950 . S
H484 C480 0.950 . S
C485 C483 1.390 1_565 S
C485 C486 1.387 1_565 S
C485 H488 0.950 . S
C486 C485 1.387 1_545 S
C486 C489 1.387 . S
H487 C483 0.950 . S
H488 C485 0.950 . S
C489 C480 1.390 . S
C489 H482 0.950 . S
C489 C486 1.387 . S
C490 C491 1.387 . S
C490 H494 0.950 . S
C490 C499 1.390 . S
C491 C490 1.387 . S
C491 C493 1.387 . S
H492 C499 0.950 . S
C493 C491 1.387 . S
C493 C495 1.390 . S
C493 H497 0.950 . S
H494 C490 0.950 . S
C495 C493 1.390 . S
C495 C496 1.387 . S
C495 H498 0.950 . S
C496 C495 1.387 . S
C496 C499 1.387 . S
H497 C493 0.950 . S
H498 C495 0.950 . S
C499 C490 1.390 . S
C499 H492 0.950 . S
C499 C496 1.387 . S
C500 C501 1.387 . S
C500 H504 0.950 . S
C500 C509 1.390 . S
C501 C500 1.387 . S
C501 C503 1.387 . S
H502 C509 0.950 . S
C503 C501 1.387 . S
C503 C505 1.390 . S
C503 H507 0.950 . S
H504 C500 0.950 . S
C505 C503 1.390 . S
C505 C506 1.387 . S
C505 H508 0.950 . S
C506 C505 1.387 . S
C506 C509 1.387 . S
H507 C503 0.950 . S
H508 C505 0.950 . S
C509 C500 1.390 . S
C509 H502 0.950 . S
C509 C506 1.387 . S
C510 C511 1.387 . S
C510 H514 0.950 . S
C510 C519 1.390 . S
C511 C510 1.387 . S
C511 C513 1.387 . S
H512 C519 0.950 . S
C513 C511 1.387 . S
C513 C515 1.390 . S
C513 H517 0.950 . S
H514 C510 0.950 . S
C515 C513 1.390 . S
C515 C516 1.387 . S
C515 H518 0.950 1_545 S
C516 C515 1.387 . S
C516 C519 1.387 . S
H517 C513 0.950 . S
H518 C515 0.950 1_565 S
C519 C510 1.390 . S
C519 H512 0.950 . S
C519 C516 1.387 . S
C520 C521 1.387 . S
C520 H524 0.950 . S
C520 C529 1.390 . S
C521 C520 1.387 . S
C521 C523 1.387 . S
H522 C529 0.950 1_554 S
C523 C521 1.387 . S
C523 C525 1.390 . S
C523 H527 0.950 . S
H524 C520 0.950 . S
C525 C523 1.390 . S
C525 C526 1.387 1_556 S
C525 H528 0.947 1_556 S
C526 C525 1.387 1_554 S
C526 C529 1.387 1_554 S
H527 C523 0.950 . S
H528 C525 0.947 1_554 S
C529 C520 1.390 . S
C529 H522 0.950 1_556 S
C529 C526 1.387 1_556 S
C530 C531 1.387 . S
C530 H534 0.950 . S
C530 C539 1.390 . S
C531 C530 1.387 . S
C531 C533 1.387 . S
H532 C539 0.950 . S
C533 C531 1.387 . S
C533 C535 1.390 . S
C533 H537 0.950 . S
H534 C530 0.950 . S
C535 C533 1.390 . S
C535 C536 1.387 . S
C535 H538 0.950 . S
C536 C535 1.387 . S
C536 C539 1.387 . S
H537 C533 0.950 . S
H538 C535 0.950 . S
C539 C530 1.390 . S
C539 H532 0.950 . S
C539 C536 1.387 . S
C540 C541 1.387 . S
C540 H544 0.950 . S
C540 C549 1.390 . S
C541 C540 1.387 . S
C541 C543 1.387 . S
H542 C549 0.950 1_556 S
C543 C541 1.387 . S
C543 C545 1.390 . S
C543 H547 0.950 . S
H544 C540 0.950 . S
C545 C543 1.390 . S
C545 C546 1.387 1_554 S
C545 H548 0.950 . S
C546 C545 1.387 1_556 S
C546 C549 1.387 1_556 S
H547 C543 0.950 . S
H548 C545 0.950 . S
C549 C540 1.390 . S
C549 H542 0.950 1_554 S
C549 C546 1.387 1_554 S
C550 C551 1.387 . S
C550 H554 0.950 . S
C550 C559 1.390 . S
C551 C550 1.387 . S
C551 C553 1.387 . S
H552 C559 0.950 . S
C553 C551 1.387 . S
C553 C555 1.390 . S
C553 H557 0.950 . S
H554 C550 0.950 . S
C555 C553 1.390 . S
C555 C556 1.387 . S
C555 H558 0.950 . S
C556 C555 1.387 . S
C556 C559 1.387 . S
H557 C553 0.950 . S
H558 C555 0.950 . S
C559 C550 1.390 . S
C559 H552 0.950 . S
C559 C556 1.387 . S
C560 C561 1.387 . S
C560 H564 0.950 . S
C560 C569 1.390 . S
C561 C560 1.387 . S
C561 C563 1.387 . S
H562 C569 0.950 1_556 S
C563 C561 1.387 . S
C563 C565 1.390 . S
C563 H567 0.950 . S
H564 C560 0.950 . S
C565 C563 1.390 . S
C565 C566 1.387 1_554 S
C565 H568 0.950 . S
C566 C565 1.387 1_556 S
C566 C569 1.387 1_556 S
H567 C563 0.950 . S
H568 C565 0.950 . S
C569 C560 1.390 . S
C569 H562 0.950 1_554 S
C569 C566 1.387 1_554 S
C570 C571 1.387 . S
C570 H574 0.950 . S
C570 C579 1.390 . S
C571 C570 1.387 . S
C571 C573 1.387 . S
H572 C579 0.950 . S
C573 C571 1.387 . S
C573 C575 1.390 . S
C573 H577 0.950 . S
H574 C570 0.950 . S
C575 C573 1.390 . S
C575 C576 1.387 . S
C575 H578 0.950 . S
C576 C575 1.387 . S
C576 C579 1.387 . S
H577 C573 0.950 . S
H578 C575 0.950 . S
C579 C570 1.390 . S
C579 H572 0.950 . S
C579 C576 1.387 . S
C580 C581 1.387 . S
C580 H584 0.950 . S
C580 C589 1.367 1_556 S
C581 C580 1.387 . S
C581 C583 1.387 . S
H582 C589 0.969 . S
C583 C581 1.387 . S
C583 C585 1.390 . S
C583 H587 0.950 . S
H584 C580 0.950 . S
C585 C583 1.390 . S
C585 C586 1.387 1_556 S
C585 H588 0.950 . S
C586 C585 1.387 1_554 S
C586 C589 1.391 . S
H587 C583 0.950 . S
H588 C585 0.950 . S
C589 C580 1.367 1_554 S
C589 H582 0.969 . S
C589 C586 1.391 . S
C590 C591 1.387 . S
C590 H594 0.950 . S
C590 C599 1.390 . S
C591 C590 1.387 . S
C591 C593 1.387 . S
H592 C599 0.950 . S
C593 C591 1.387 . S
C593 C595 1.390 . S
C593 H597 0.950 . S
H594 C590 0.950 . S
C595 C593 1.390 . S
C595 C596 1.387 . S
C595 H598 0.950 . S
C596 C595 1.387 . S
C596 C599 1.387 . S
H597 C593 0.950 . S
H598 C595 0.950 . S
C599 C590 1.390 . S
C599 H592 0.950 . S
C599 C596 1.387 . S
C600 C601 1.387 . S
C600 H604 0.950 . S
C600 C609 1.390 . S
C601 C600 1.387 . S
C601 C603 1.387 . S
H602 C609 0.950 . S
C603 C601 1.387 . S
C603 C605 1.390 . S
C603 H607 0.950 . S
H604 C600 0.950 . S
C605 C603 1.390 . S
C605 C606 1.387 . S
C605 H608 0.950 . S
C606 C605 1.387 . S
C606 C609 1.387 . S
H607 C603 0.950 . S
H608 C605 0.950 . S
C609 C600 1.390 . S
C609 H602 0.950 . S
C609 C606 1.387 . S
C610 C611 1.387 . S
C610 H614 0.950 . S
C610 C619 1.390 . S
C611 C610 1.387 . S
C611 C613 1.387 . S
H612 C619 0.950 . S
C613 C611 1.387 . S
C613 C615 1.390 . S
C613 H617 0.950 . S
H614 C610 0.950 . S
C615 C613 1.390 . S
C615 C616 1.387 . S
C615 H618 0.950 . S
C616 C615 1.387 . S
C616 C619 1.387 . S
H617 C613 0.950 . S
H618 C615 0.950 . S
C619 C610 1.390 . S
C619 H612 0.950 . S
C619 C616 1.387 . S
C620 C621 1.387 . S
C620 H624 0.950 . S
C620 C629 1.390 . S
C621 C620 1.387 . S
C621 C623 1.387 . S
H622 C629 0.950 . S
C623 C621 1.387 . S
C623 C625 1.390 . S
C623 H627 0.950 . S
H624 C620 0.950 . S
C625 C623 1.390 . S
C625 C626 1.387 . S
C625 H628 0.950 . S
C626 C625 1.387 . S
C626 C629 1.387 . S
H627 C623 0.950 . S
H628 C625 0.950 . S
C629 C620 1.390 . S
C629 H622 0.950 . S
C629 C626 1.387 . S
C630 C631 1.387 . S
C630 H634 0.950 . S
C630 C639 1.390 . S
C631 C630 1.387 . S
C631 C633 1.387 . S
H632 C639 0.950 . S
C633 C631 1.387 . S
C633 C635 1.390 . S
C633 H637 0.950 . S
H634 C630 0.950 . S
C635 C633 1.390 . S
C635 C636 1.387 . S
C635 H638 0.950 . S
C636 C635 1.387 . S
C636 C639 1.387 . S
H637 C633 0.950 . S
H638 C635 0.950 . S
C639 C630 1.390 . S
C639 H632 0.950 . S
C639 C636 1.387 . S
C640 C641 1.387 . S
C640 H644 0.950 . S
C640 C649 1.390 . S
C641 C640 1.387 . S
C641 C643 1.387 . S
H642 C649 0.950 . S
C643 C641 1.387 . S
C643 C645 1.390 . S
C643 H647 0.950 . S
H644 C640 0.950 . S
C645 C643 1.390 . S
C645 C646 1.387 . S
C645 H648 0.950 . S
C646 C645 1.387 . S
C646 C649 1.387 . S
H647 C643 0.950 . S
H648 C645 0.950 . S
C649 C640 1.390 . S
C649 H642 0.950 . S
C649 C646 1.387 . S
C650 C651 1.387 . S
C650 H654 0.950 . S
C650 C659 1.390 . S
C651 C650 1.387 . S
C651 C653 1.387 . S
H652 C659 0.950 . S
C653 C651 1.387 . S
C653 C655 1.390 . S
C653 H657 0.950 . S
H654 C650 0.950 . S
C655 C653 1.390 . S
C655 C656 1.387 . S
C655 H658 0.950 . S
C656 C655 1.387 . S
C656 C659 1.387 . S
H657 C653 0.950 . S
H658 C655 0.950 . S
C659 C650 1.390 . S
C659 H652 0.950 . S
C659 C656 1.387 . S
C660 C661 1.387 . S
C660 H664 0.950 . S
C660 C669 1.390 . S
C661 C660 1.387 . S
C661 C663 1.387 . S
H662 C669 0.950 . S
C663 C661 1.387 . S
C663 C665 1.390 . S
C663 H667 0.950 . S
H664 C660 0.950 . S
C665 C663 1.390 . S
C665 C666 1.387 . S
C665 H668 0.950 . S
C666 C665 1.387 . S
C666 C669 1.387 . S
H667 C663 0.950 . S
H668 C665 0.950 . S
C669 C660 1.390 . S
C669 H662 0.950 . S
C669 C666 1.387 . S
C670 C671 1.387 . S
C670 H674 0.950 . S
C670 C679 1.390 . S
C671 C670 1.387 . S
C671 C673 1.387 . S
H672 C679 0.950 . S
C673 C671 1.387 . S
C673 C675 1.390 . S
C673 H677 0.950 . S
H674 C670 0.950 . S
C675 C673 1.390 . S
C675 C676 1.387 . S
C675 H678 0.950 . S
C676 C675 1.387 . S
C676 C679 1.387 . S
H677 C673 0.950 . S
H678 C675 0.950 . S
C679 C670 1.390 . S
C679 H672 0.950 . S
C679 C676 1.387 . S
C441 N83 1.624 . S
C446 C160 1.629 1_565 S
C456 C244 1.629 . S
C451 N96 1.625 . S
C466 C243 1.639 . S
C461 N57 1.619 . S
C471 N70 1.619 . S
C476 C159 1.638 1_565 S
C486 C340 1.628 1_545 S
C481 N31 1.628 . S
C496 C424 1.629 . S
C491 N44 1.627 . S
C501 N5 1.621 . S
C506 C423 1.639 . S
C511 N18 1.620 . S
C516 C339 1.637 1_545 S
C526 C162 1.448 . S
C521 N14 1.626 . S
C536 C246 1.448 . S
C531 N1 1.626 . S
C546 C258 1.349 . S
C541 N40 1.614 . S
C556 C174 1.345 . S
C551 N27 1.615 . S
C566 C342 1.444 . S
C561 N66 1.616 . S
C571 N53 1.617 . S
C576 C426 1.447 . S
C586 C414 1.345 . S
C581 N92 1.606 . S
C591 N79 1.607 . S
C596 C330 1.344 . S
C606 C171 1.524 . S
C601 N2 1.523 . S
C616 C255 1.525 . S
C611 N15 1.523 . S
C621 N28 1.519 . S
C626 C256 1.494 . S
C636 C172 1.494 . S
C631 N41 1.519 . S
C646 C327 1.525 . S
C641 N54 1.518 . S
C651 N67 1.517 . S
C656 C411 1.525 . S
C661 N80 1.515 . S
C666 C412 1.494 . S
C671 N93 1.515 . S
C676 C328 1.494 . S
