# Generated by pormake.
# Topology nom, (4,4)-cn, num edge types: 1
# Building blocks:
#     Node 0, Type 0, BuildingBlock: GIZVER_clean_linker_0, # of connection points: 4
#     Node 1, Type 0, BuildingBlock: GIZVER_clean_linker_0, # of connection points: 4
#     Node 2, Type 0, BuildingBlock: GIZVER_clean_linker_0, # of connection points: 4
#     Node 3, Type 0, BuildingBlock: GIZVER_clean_linker_0, # of connection points: 4
#     Node 4, Type 0, BuildingBlock: GIZVER_clean_linker_0, # of connection points: 4
#     Node 5, Type 0, BuildingBlock: GIZVER_clean_linker_0, # of connection points: 4
#     Node 6, Type 1, BuildingBlock: QUQFOY_clean_sbu_1, # of connection points: 4
#     Node 7, Type 1, BuildingBlock: QUQFOY_clean_sbu_1, # of connection points: 4
#     Node 8, Type 1, BuildingBlock: QUQFOY_clean_sbu_1, # of connection points: 4
#     Node 9, Type 1, BuildingBlock: QUQFOY_clean_sbu_1, # of connection points: 4
#     Node 10, Type 1, BuildingBlock: QUQFOY_clean_sbu_1, # of connection points: 4
#     Node 11, Type 1, BuildingBlock: QUQFOY_clean_sbu_1, # of connection points: 4
#     Edge 12, Type (0, 1), BuildingBlock: AJUNOK_clean_linker_0, # of connection points: 2
#     Edge 13, Type (0, 1), BuildingBlock: AJUNOK_clean_linker_0, # of connection points: 2
#     Edge 14, Type (0, 1), BuildingBlock: AJUNOK_clean_linker_0, # of connection points: 2
#     Edge 15, Type (0, 1), BuildingBlock: AJUNOK_clean_linker_0, # of connection points: 2
#     Edge 16, Type (0, 1), BuildingBlock: AJUNOK_clean_linker_0, # of connection points: 2
#     Edge 17, Type (0, 1), BuildingBlock: AJUNOK_clean_linker_0, # of connection points: 2
#     Edge 18, Type (0, 1), BuildingBlock: AJUNOK_clean_linker_0, # of connection points: 2
#     Edge 19, Type (0, 1), BuildingBlock: AJUNOK_clean_linker_0, # of connection points: 2
#     Edge 20, Type (0, 1), BuildingBlock: AJUNOK_clean_linker_0, # of connection points: 2
#     Edge 21, Type (0, 1), BuildingBlock: AJUNOK_clean_linker_0, # of connection points: 2
#     Edge 22, Type (0, 1), BuildingBlock: AJUNOK_clean_linker_0, # of connection points: 2
#     Edge 23, Type (0, 1), BuildingBlock: AJUNOK_clean_linker_0, # of connection points: 2
#     Edge 24, Type (0, 1), BuildingBlock: AJUNOK_clean_linker_0, # of connection points: 2
#     Edge 25, Type (0, 1), BuildingBlock: AJUNOK_clean_linker_0, # of connection points: 2
#     Edge 26, Type (0, 1), BuildingBlock: AJUNOK_clean_linker_0, # of connection points: 2
#     Edge 27, Type (0, 1), BuildingBlock: AJUNOK_clean_linker_0, # of connection points: 2
#     Edge 28, Type (0, 1), BuildingBlock: AJUNOK_clean_linker_0, # of connection points: 2
#     Edge 29, Type (0, 1), BuildingBlock: AJUNOK_clean_linker_0, # of connection points: 2
#     Edge 30, Type (0, 1), BuildingBlock: AJUNOK_clean_linker_0, # of connection points: 2
#     Edge 31, Type (0, 1), BuildingBlock: AJUNOK_clean_linker_0, # of connection points: 2
#     Edge 32, Type (0, 1), BuildingBlock: AJUNOK_clean_linker_0, # of connection points: 2
#     Edge 33, Type (0, 1), BuildingBlock: AJUNOK_clean_linker_0, # of connection points: 2
#     Edge 34, Type (0, 1), BuildingBlock: AJUNOK_clean_linker_0, # of connection points: 2
#     Edge 35, Type (0, 1), BuildingBlock: AJUNOK_clean_linker_0, # of connection points: 2
# Relax obj value: 0.004
# Max RMSD: 0.080
# Mean RMSD: 0.078
data_MOF--net-nom--node1-QUQFOY_clean_sbu_1--node2-GIZVER_clean_linker_0--edge1-AJUNOK_clean_linker_0
_symmetry_space_group_name_H-M    P1
_symmetry_Int_Tables_number       1
_symmetry_cell_setting            triclinic
loop_
_symmetry_equiv_pos_as_xyz
'x, y, z'
_cell_length_a     35.719519
_cell_length_b     35.697298
_cell_length_c     34.554653
_cell_angle_alpha  89.956239
_cell_angle_beta   89.937542
_cell_angle_gamma 120.1762
loop_
_atom_site_label
_atom_site_type_symbol
_atom_site_fract_x
_atom_site_fract_y
_atom_site_fract_z
_atom_type_partial_charge
H0 H 0.97877 0.59887 0.33795 0.0
H1 H 1.01659 0.58794 0.22203 0.0
H2 H 0.89288 0.49156 0.26618 0.0
H3 H 0.04158 0.65909 0.30985 0.0
H4 H 0.04385 0.66105 0.25821 0.0
H5 H 0.07165 0.61408 0.3435 0.0
H6 H 0.19536 0.64633 0.29644 0.0
H7 H 0.10646 0.66656 0.22825 0.0
C8 C 0.97261 0.58062 0.31136 0.0
C9 C 0.93305 0.54169 0.30659 0.0
C10 C 1.00313 0.59722 0.28097 0.0
C11 C 0.99388 0.57451 0.24591 0.0
C12 C 0.95417 0.53629 0.24063 0.0
C13 C 0.92456 0.51966 0.27125 0.0
C14 C 0.04292 0.64158 0.28374 0.0
C15 C 0.08376 0.63896 0.28514 0.0
C16 C 0.09394 0.62465 0.31923 0.0
C17 C 0.13384 0.62645 0.32299 0.0
C18 C 0.16335 0.64207 0.29225 0.0
C19 C 0.15419 0.65701 0.25805 0.0
C20 C 0.11378 0.65459 0.25431 0.0
H21 H 0.41125 0.97234 0.50152 0.0
H22 H 0.46464 1.0075 0.38663 0.0
H23 H 0.43268 0.88384 0.43381 0.0
H24 H 0.41508 0.03441 0.47049 0.0
H25 H 0.41973 0.03719 0.41895 0.0
H26 H 0.48802 0.06162 0.50855 0.0
H27 H 0.58404 0.1868 0.46679 0.0
H28 H 0.47891 0.10136 0.39287 0.0
C29 C 0.42359 0.96515 0.47563 0.0
C30 C 0.42145 0.92481 0.472 0.0
C31 C 0.43945 0.99528 0.44487 0.0
C32 C 0.45406 0.9852 0.41091 0.0
C33 C 0.45248 0.94536 0.40723 0.0
C34 C 0.43677 0.91581 0.43794 0.0
C35 C 0.43585 0.03562 0.44595 0.0
C36 C 0.47967 0.07602 0.44966 0.0
C37 C 0.50166 0.08486 0.48507 0.0
C38 C 0.53936 0.12479 0.49122 0.0
C39 C 0.55631 0.15504 0.4611 0.0
C40 C 0.53506 0.14697 0.4254 0.0
C41 C 0.49656 0.10721 0.41977 0.0
H42 H 0.41695 0.46853 0.56083 0.0
H43 H 0.45904 0.47992 0.67916 0.0
H44 H 0.42878 0.57268 0.63206 0.0
H45 H 0.41884 0.4088 0.59104 0.0
H46 H 0.4197 0.40753 0.64269 0.0
H47 H 0.49301 0.45639 0.55656 0.0
H48 H 0.58905 0.43066 0.60296 0.0
H49 H 0.47901 0.40589 0.67221 0.0
C50 C 0.4262 0.48624 0.58788 0.0
C51 C 0.42262 0.52355 0.59215 0.0
C52 C 0.43952 0.47044 0.61927 0.0
C53 C 0.4501 0.49271 0.65461 0.0
C54 C 0.44656 0.52979 0.65909 0.0
C55 C 0.43379 0.54542 0.62767 0.0
C56 C 0.43743 0.42725 0.61694 0.0
C57 C 0.48207 0.43261 0.61525 0.0
C58 C 0.50602 0.44733 0.58085 0.0
C59 C 0.54506 0.44741 0.57665 0.0
C60 C 0.56071 0.43383 0.60749 0.0
C61 C 0.53747 0.41906 0.64222 0.0
C62 C 0.49809 0.41878 0.64608 0.0
H63 H 0.97466 0.40463 0.72552 0.0
H64 H 1.01213 0.45398 0.84127 0.0
H65 H 0.88929 0.42727 0.79653 0.0
H66 H 0.0364 0.40615 0.75445 0.0
H67 H 0.03919 0.40813 0.80604 0.0
H68 H 0.06889 0.47897 0.71783 0.0
H69 H 0.1923 0.5724 0.76429 0.0
H70 H 0.10038 0.46777 0.83595 0.0
C71 C 0.9686 0.4171 0.75192 0.0
C72 C 0.92926 0.41677 0.75645 0.0
C73 C 0.99893 0.43109 0.78237 0.0
C74 C 0.98976 0.44499 0.81722 0.0
C75 C 0.95054 0.4444 0.8221 0.0
C76 C 0.92093 0.43089 0.79154 0.0
C77 C 0.03829 0.426 0.77998 0.0
C78 C 0.07949 0.46933 0.77752 0.0
C79 C 0.09082 0.49183 0.74224 0.0
C80 C 0.1314 0.52918 0.73759 0.0
C81 C 0.16005 0.54493 0.76884 0.0
C82 C 0.14958 0.52301 0.80441 0.0
C83 C 0.10871 0.48544 0.80884 0.0
H84 H 0.67528 0.09467 0.00163 0.0
H85 H 0.62261 0.06178 0.88653 0.0
H86 H 0.6559 0.18521 0.93487 0.0
H87 H 0.67059 0.03254 -0.02999 0.0
H88 H 0.66618 0.03039 0.91846 0.0
H89 H 0.59886 1.00486 0.0088 0.0
H90 H 0.49953 0.8828 -0.0353 0.0
H91 H 0.60491 0.96906 0.89093 0.0
C92 C 0.66342 0.10253 -0.02418 0.0
C93 C 0.6662 0.14319 -0.02739 0.0
C94 C 0.64748 0.07291 0.94478 0.0
C95 C 0.63337 0.08377 0.91098 0.0
C96 C 0.63552 0.12391 0.90772 0.0
C97 C 0.65139 0.15302 0.93867 0.0
C98 C 0.65017 0.03208 0.94551 0.0
C99 C 0.60587 0.9923 0.94899 0.0
C100 C 0.58436 0.98268 -0.01526 0.0
C101 C 0.54592 0.94324 -0.00966 0.0
C102 C 0.52784 0.91432 -0.04055 0.0
C103 C 0.54857 0.92326 0.92336 0.0
C104 C 0.58773 0.96255 0.91821 0.0
H105 H 0.66743 0.59462 0.05852 0.0
H106 H 0.62068 0.58567 0.17495 0.0
H107 H 0.652 0.49155 0.13345 0.0
H108 H 0.66582 0.65526 0.08597 0.0
H109 H 0.6654 0.65799 0.13746 0.0
H110 H 0.5927 0.61426 0.05101 0.0
H111 H 0.50091 0.64561 0.09849 0.0
H112 H 0.60599 0.65842 0.16879 0.0
C113 C 0.65684 0.57732 0.08575 0.0
C114 C 0.66005 0.54001 0.0918 0.0
C115 C 0.6426 0.59392 0.11576 0.0
C116 C 0.63024 0.57219 0.1514 0.0
C117 C 0.63331 0.53506 0.15767 0.0
C118 C 0.64722 0.51873 0.12761 0.0
C119 C 0.64684 0.63799 0.11219 0.0
C120 C 0.6033 0.63515 0.11051 0.0
C121 C 0.58029 0.62359 0.07557 0.0
C122 C 0.54319 0.62713 0.07135 0.0
C123 C 0.52811 0.64052 0.10276 0.0
C124 C 0.55054 0.6523 0.13799 0.0
C125 C 0.58785 0.64871 0.14199 0.0
O126 O 0.59913 0.41054 0.40944 0.0
Cd127 Cd 0.61448 0.38874 0.36013 0.0
Cd128 Cd 0.69299 0.46432 0.37478 0.0
O129 O 0.66375 0.46385 0.42593 0.0
O130 O 0.56621 0.32762 0.35507 0.0
O131 O 0.63418 0.34508 0.36472 0.0
C132 C 0.59404 0.31532 0.3609 0.0
C133 C 0.76616 0.48398 0.37343 0.0
C134 C 0.62355 0.44034 0.43284 0.0
C135 C 0.64157 0.45938 0.30295 0.0
O136 O 0.67232 0.48194 0.32618 0.0
O137 O 0.616 0.41935 0.30941 0.0
O138 O 0.75429 0.51204 0.3799 0.0
O139 O 0.73611 0.444 0.36935 0.0
O140 O 0.228 0.58836 0.57057 0.0
Cd141 Cd 0.26646 0.60668 0.52193 0.0
Cd142 Cd 0.26248 0.68231 0.53882 0.0
O143 O 0.23408 0.65023 0.58929 0.0
O144 O 0.27682 0.5571 0.51539 0.0
O145 O 0.32934 0.62374 0.527 0.0
C146 C 0.3172 0.5833 0.52224 0.0
C147 C 0.3123 0.75692 0.53843 0.0
C148 C 0.21973 0.61007 0.59469 0.0
C149 C 0.22039 0.63148 0.4654 0.0
O150 O 0.22508 0.66024 0.48969 0.0
O151 O 0.23795 0.60865 0.47117 0.0
O152 O 0.2717 0.74199 0.54484 0.0
O153 O 0.32511 0.72913 0.53418 0.0
O154 O 0.66792 0.21577 0.74114 0.0
Cd155 Cd 0.68845 0.25312 0.6918 0.0
Cd156 Cd 0.61313 0.25512 0.70844 0.0
O157 O 0.61496 0.22666 0.75936 0.0
O158 O 0.74946 0.26648 0.68546 0.0
O159 O 0.73195 0.31674 0.69617 0.0
C160 C 0.76171 0.30663 0.6916 0.0
C161 C 0.59382 0.30878 0.70798 0.0
C162 C 0.63876 0.21024 0.76537 0.0
C163 C 0.61678 0.2088 0.63595 0.0
O164 O 0.59456 0.21658 0.65991 0.0
O165 O 0.65698 0.22383 0.64151 0.0
O166 O 0.56575 0.26877 0.71477 0.0
O167 O 0.63364 0.31872 0.70306 0.0
O168 O 0.48422 0.66398 0.90393 0.0
Cd169 Cd 0.46482 0.6831 0.85545 0.0
Cd170 Cd 0.3891 0.60689 0.87497 0.0
O171 O 0.42147 0.61137 0.92528 0.0
O172 O 0.51274 0.74391 0.84762 0.0
O173 O 0.44561 0.72707 0.86096 0.0
C174 C 0.48551 0.75657 0.85517 0.0
C175 C 0.31499 0.58364 0.87495 0.0
C176 C 0.46211 0.63565 0.92935 0.0
C177 C 0.43712 0.61015 0.80121 0.0
O178 O 0.40885 0.58789 0.82661 0.0
O179 O 0.46103 0.65086 0.80523 0.0
O180 O 0.32903 0.55759 0.88276 0.0
O181 O 0.34347 0.62395 0.8693 0.0
O182 O 0.86314 0.4066 -0.00864 0.0
Cd183 Cd 0.82665 0.38388 0.04106 0.0
Cd184 Cd 0.82018 0.45814 0.02564 0.0
O185 O 0.8485 0.45741 -0.02569 0.0
O186 O 0.81697 0.32399 0.04627 0.0
O187 O 0.76385 0.33765 0.03703 0.0
C188 C 0.77634 0.30953 0.04053 0.0
C189 C 0.76891 0.48089 0.02652 0.0
C190 C 0.8667 0.43537 -0.03246 0.0
C191 C 0.86876 0.4554 0.09728 0.0
O192 O 0.85909 0.47668 0.07389 0.0
O193 O 0.85557 0.41556 0.09139 0.0
O194 O 0.80924 0.50739 0.01969 0.0
O195 O 0.7571 0.44052 0.03119 0.0
O196 O 0.49003 0.85031 0.15927 0.0
Cd197 Cd 0.47181 0.81228 0.20819 0.0
Cd198 Cd 0.39643 0.81627 0.19166 0.0
O199 O 0.42812 0.84433 0.14104 0.0
O200 O 0.52071 0.80092 0.21449 0.0
O201 O 0.45367 0.74906 0.20331 0.0
C202 C 0.49396 0.7606 0.20782 0.0
C203 C 0.32195 0.76636 0.19201 0.0
C204 C 0.46814 0.85842 0.13524 0.0
C205 C 0.44757 0.85876 0.2648 0.0
O206 O 0.4186 0.85385 0.24069 0.0
O207 O 0.47045 0.84128 0.25891 0.0
O208 O 0.3368 0.80698 0.18566 0.0
O209 O 0.34975 0.75361 0.19635 0.0
C210 C 0.2179 0.66507 0.22066 0.0
C211 C 0.1904 0.68135 0.23025 0.0
C212 C 0.25943 0.69211 0.20547 0.0
C213 C 0.27495 0.73642 0.1989 0.0
H214 H 0.20844 0.63186 0.22766 0.0
H215 H 0.28038 0.67867 0.20109 0.0
S216 S 0.21282 0.79334 0.21281 0.0
N217 N 0.17972 0.74338 0.22774 0.0
N218 N 0.25702 0.79388 0.19797 0.0
C219 C 0.24604 0.75201 0.20449 0.0
C220 C 0.2039 0.72453 0.22038 0.0
C221 C 0.51999 0.1975 0.38762 0.0
C222 C 0.5493 0.18389 0.39809 0.0
C223 C 0.53468 0.23912 0.37262 0.0
C224 C 0.57925 0.2688 0.36775 0.0
H225 H 0.48581 0.17732 0.39406 0.0
H226 H 0.51098 0.249 0.36744 0.0
S227 S 0.66821 0.2452 0.3829 0.0
N228 N 0.62406 0.20037 0.39646 0.0
N229 N 0.65187 0.27884 0.3687 0.0
C230 C 0.60846 0.25394 0.3744 0.0
C231 C 0.59342 0.21142 0.38944 0.0
C232 C 0.41693 0.58089 0.55536 0.0
C233 C 0.40053 0.53657 0.56311 0.0
C234 C 0.39074 0.59567 0.53909 0.0
C235 C 0.34723 0.56664 0.52961 0.0
H236 H 0.44926 0.60465 0.56473 0.0
H237 H 0.40395 0.6303 0.53632 0.0
S238 S 0.29121 0.44659 0.53733 0.0
N239 N 0.33984 0.46338 0.55539 0.0
N240 N 0.29106 0.4908 0.52358 0.0
C241 C 0.33199 0.52187 0.53317 0.0
C242 C 0.35857 0.50689 0.55014 0.0
C243 C 0.87916 0.35084 0.71865 0.0
C244 C 0.89278 0.39393 0.72881 0.0
C245 C 0.83771 0.32372 0.70349 0.0
C246 C 0.8082 0.33857 0.69821 0.0
H247 H 0.89912 0.33682 0.7255 0.0
H248 H 0.82777 0.29001 0.69864 0.0
S249 S 0.83203 0.45155 0.71212 0.0
N250 N 0.87664 0.45239 0.72612 0.0
N251 N 0.79839 0.40128 0.69825 0.0
C252 C 0.82312 0.38281 0.70445 0.0
C253 C 0.86551 0.41051 0.71956 0.0
C254 C 0.56162 0.87352 0.88229 0.0
C255 C 0.5331 0.88735 0.89486 0.0
C256 C 0.54593 0.83226 0.8662 0.0
C257 C 0.50111 0.80316 0.86235 0.0
H258 H 0.59601 0.89308 0.88799 0.0
H259 H 0.56909 0.82206 0.85955 0.0
S260 S 0.41382 0.82802 0.88247 0.0
N261 N 0.45871 0.87211 0.89585 0.0
N262 N 0.42902 0.79421 0.86617 0.0
C263 C 0.47262 0.81845 0.8709 0.0
C264 C 0.48868 0.86064 0.88699 0.0
C265 C 0.66797 0.48238 0.05786 0.0
C266 C 0.68364 0.52675 0.0646 0.0
C267 C 0.69488 0.46782 0.04276 0.0
C268 C 0.73844 0.49712 0.03351 0.0
H269 H 0.6355 0.45848 0.06688 0.0
H270 H 0.68209 0.43322 0.04053 0.0
S271 S 0.79322 0.61719 0.03965 0.0
N272 N 0.7441 0.60012 0.05675 0.0
N273 N 0.79418 0.57309 0.02712 0.0
C274 C 0.75318 0.54183 0.03639 0.0
C275 C 0.72588 0.55658 0.05217 0.0
C276 C 0.4134 0.86109 0.50948 0.0
C277 C 0.39704 0.8885 0.49975 0.0
C278 C 0.38644 0.81956 0.52478 0.0
C279 C 0.34213 0.80394 0.53134 0.0
H280 H 0.44662 0.87062 0.50256 0.0
H281 H 0.39996 0.7987 0.5293 0.0
S282 S 0.28497 0.86576 0.51694 0.0
N283 N 0.33489 0.89894 0.50201 0.0
N284 N 0.28457 0.82167 0.532 0.0
C285 C 0.32645 0.83275 0.52555 0.0
C286 C 0.35384 0.87488 0.50954 0.0
C287 C 0.52098 0.3529 0.67997 0.0
C288 C 0.55071 0.3961 0.67007 0.0
C289 C 0.53507 0.32575 0.69534 0.0
C290 C 0.57944 0.34068 0.70108 0.0
H291 H 0.48703 0.33883 0.67275 0.0
H292 H 0.51114 0.29198 0.69998 0.0
S293 S 0.66909 0.45387 0.68808 0.0
N294 N 0.62547 0.45471 0.67359 0.0
N295 N 0.65216 0.40349 0.70178 0.0
C296 C 0.60896 0.38498 0.6951 0.0
C297 C 0.59452 0.41273 0.67981 0.0
C298 C 0.21288 0.58072 0.84086 0.0
C299 C 0.18488 0.53633 0.83338 0.0
C300 C 0.25384 0.5957 0.85736 0.0
C301 C 0.26823 0.56681 0.86737 0.0
H302 H 0.20438 0.60437 0.8312 0.0
H303 H 0.27533 0.63035 0.85994 0.0
S304 S 0.20404 0.44672 0.86032 0.0
N305 N 0.17228 0.46328 0.84176 0.0
N306 N 0.24841 0.49108 0.87402 0.0
C307 C 0.23862 0.522 0.86401 0.0
C308 C 0.1971 0.50682 0.84678 0.0
C309 C 0.67472 0.20658 0.0108 0.0
C310 C 0.69065 0.1789 0.00075 0.0
C311 C 0.70194 0.24774 0.02655 0.0
C312 C 0.74608 0.26268 0.03322 0.0
H313 H 0.64169 0.19761 0.00378 0.0
H314 H 0.68881 0.2689 0.03126 0.0
S315 S 0.80194 0.19967 0.01836 0.0
N316 N 0.75208 0.1673 0.00301 0.0
N317 N 0.80287 0.24386 0.03383 0.0
C318 C 0.76125 0.23349 0.02719 0.0
C319 C 0.73359 0.19174 0.01074 0.0
C320 C 0.49421 0.65958 0.17497 0.0
C321 C 0.53831 0.67527 0.16684 0.0
C322 C 0.48022 0.68644 0.19124 0.0
C323 C 0.50984 0.72993 0.20035 0.0
H324 H 0.47 0.62725 0.16596 0.0
H325 H 0.44572 0.67374 0.19433 0.0
S326 S 0.62962 0.78437 0.19141 0.0
N327 N 0.61194 0.73541 0.17368 0.0
N328 N 0.58599 0.78538 0.20553 0.0
C329 C 0.5544 0.74452 0.19636 0.0
C330 C 0.56858 0.71728 0.17936 0.0
C331 C 0.88339 0.55737 0.34505 0.0
C332 C 0.89663 0.52781 0.3344 0.0
C333 C 0.84214 0.54299 0.3607 0.0
C334 C 0.81246 0.49849 0.36603 0.0
H335 H 0.9035 0.59149 0.33827 0.0
H336 H 0.8325 0.56686 0.36597 0.0
S337 S 0.83534 0.40902 0.35081 0.0
N338 N 0.87997 0.45293 0.33652 0.0
N339 N 0.8021 0.4257 0.36539 0.0
C340 C 0.827 0.46905 0.35922 0.0
C341 C 0.86918 0.48378 0.34356 0.0
C342 C 0.14902 0.64509 0.39253 0.0
C343 C 0.14882 0.62026 0.36098 0.0
C344 C 0.17133 0.6475 0.42647 0.0
C345 C 0.19425 0.62509 0.43019 0.0
H346 H 0.13387 0.66476 0.39023 0.0
H347 H 0.17156 0.66818 0.4495 0.0
S348 S 0.19916 0.55145 0.35702 0.0
N349 N 0.16989 0.56985 0.33635 0.0
N350 N 0.21201 0.57411 0.40026 0.0
C351 C 0.19216 0.5981 0.39953 0.0
C352 C 0.16943 0.59578 0.3649 0.0
C353 C 0.60228 0.15868 0.53638 0.0
C354 C 0.55739 0.13884 0.53046 0.0
C355 C 0.62109 0.18 0.57111 0.0
C356 C 0.59569 0.18263 0.60101 0.0
H357 H 0.62316 0.15907 0.51341 0.0
H358 H 0.65597 0.19583 0.57388 0.0
S359 S 0.47596 0.13339 0.60039 0.0
N360 N 0.48768 0.12135 0.55765 0.0
N361 N 0.52267 0.16079 0.62316 0.0
C362 C 0.55041 0.16112 0.596 0.0
C363 C 0.53134 0.13933 0.56069 0.0
C364 C 0.47409 0.59372 0.7029 0.0
C365 C 0.44903 0.54868 0.69764 0.0
C366 C 0.47085 0.61322 0.73688 0.0
C367 C 0.44206 0.58838 0.76669 0.0
H368 H 0.49535 0.61413 0.68002 0.0
H369 H 0.4902 0.64815 0.73924 0.0
S370 S 0.37034 0.4686 0.76716 0.0
N371 N 0.39545 0.47951 0.72502 0.0
N372 N 0.38942 0.51574 0.78915 0.0
C373 C 0.4179 0.54298 0.76221 0.0
C374 C 0.4214 0.52323 0.72764 0.0
C375 C 0.93609 0.42322 0.89132 0.0
C376 C 0.93614 0.44931 0.86088 0.0
C377 C 0.9145 0.41992 0.92599 0.0
C378 C 0.89211 0.44261 0.9316 0.0
H379 H 0.95081 0.40331 0.88758 0.0
H380 H 0.91437 0.39831 0.94809 0.0
S381 S 0.88702 0.5193 0.86194 0.0
N382 N 0.91551 0.50117 0.83935 0.0
N383 N 0.87465 0.49514 0.90462 0.0
C384 C 0.894 0.47077 0.90206 0.0
C385 C 0.91605 0.47404 0.86668 0.0
C386 C 0.48347 0.91028 0.03623 0.0
C387 C 0.52805 0.92821 0.02951 0.0
C388 C 0.46455 0.88882 0.07095 0.0
C389 C 0.48949 0.88413 0.10005 0.0
H390 H 0.46289 0.91169 0.01394 0.0
H391 H 0.42989 0.87471 0.07443 0.0
S392 S 0.6083 0.92707 0.09675 0.0
N393 N 0.59697 0.94116 0.0548 0.0
N394 N 0.56184 0.90137 0.12029 0.0
C395 C 0.53452 0.9034 0.0941 0.0
C396 C 0.5537 0.92534 0.0588 0.0
C397 C 0.60514 0.4724 0.20327 0.0
C398 C 0.62984 0.51733 0.19699 0.0
C399 C 0.608 0.45402 0.23815 0.0
C400 C 0.63607 0.47992 0.26782 0.0
H401 H 0.58464 0.45119 0.18048 0.0
H402 H 0.58923 0.41912 0.24124 0.0
S403 S 0.70573 0.59989 0.26621 0.0
N404 N 0.68177 0.58756 0.22357 0.0
N405 N 0.6869 0.55339 0.28937 0.0
C406 C 0.65952 0.52521 0.26243 0.0
C407 C 0.65642 0.54383 0.22697 0.0
C408 C 0.43415 0.93037 0.33761 0.0
C409 C 0.45879 0.9304 0.36924 0.0
C410 C 0.43179 0.90807 0.30366 0.0
C411 C 0.45404 0.88499 0.29999 0.0
H412 H 0.41457 0.94562 0.33985 0.0
H413 H 0.41125 0.90797 0.28058 0.0
S414 S 0.52719 0.87963 0.37335 0.0
N415 N 0.5089 0.90903 0.39398 0.0
N416 N 0.5047 0.86691 0.33005 0.0
C417 C 0.48087 0.88693 0.33071 0.0
C418 C 0.48314 0.90965 0.36537 0.0
C419 C 0.53997 0.42686 0.50745 0.0
C420 C 0.56529 0.45294 0.53819 0.0
C421 C 0.55916 0.42399 0.4732 0.0
C422 C 0.60446 0.44715 0.46832 0.0
H423 H 0.5052 0.40659 0.51066 0.0
H424 H 0.53822 0.40238 0.45085 0.0
S425 S 0.6846 0.52394 0.53899 0.0
N426 N 0.63734 0.50524 0.56077 0.0
N427 N 0.67387 0.50005 0.49627 0.0
C428 C 0.63001 0.47532 0.49813 0.0
C429 C 0.61031 0.47813 0.53309 0.0
C430 C 0.16727 0.59324 0.69359 0.0
C431 C 0.14753 0.54823 0.69894 0.0
C432 C 0.18955 0.61288 0.65935 0.0
C433 C 0.19331 0.5882 0.62942 0.0
H434 H 0.16659 0.61354 0.71656 0.0
H435 H 0.20504 0.64779 0.65692 0.0
S436 S 0.14555 0.46854 0.62903 0.0
N437 N 0.13184 0.47925 0.67145 0.0
N438 N 0.17322 0.51573 0.60687 0.0
C439 C 0.17229 0.54283 0.63401 0.0
C440 C 0.14947 0.52293 0.6688 0.0
C441 C 0.65351 0.13931 0.83802 0.0
C442 C 0.62927 0.13937 0.86998 0.0
C443 C 0.65541 0.16145 0.80407 0.0
C444 C 0.63303 0.18443 0.80073 0.0
H445 H 0.67304 0.12398 0.83994 0.0
H446 H 0.67558 0.16141 0.78065 0.0
S447 S 0.56113 0.19038 0.87523 0.0
N448 N 0.57964 0.16101 0.89555 0.0
N449 N 0.58297 0.20284 0.83159 0.0
C450 C 0.60674 0.18275 0.83187 0.0
C451 C 0.60496 0.16021 0.86654 0.0
C452 C 0.47891 0.59962 0.02798 0.0
C453 C 0.524 0.62441 0.03289 0.0
C454 C 0.45926 0.60266 -0.00597 0.0
C455 C 0.48398 0.63097 -0.0361 0.0
H456 H 0.45861 0.57873 0.0511 0.0
H457 H 0.42431 0.58353 -0.00807 0.0
S458 S 0.60379 0.70182 -0.03757 0.0
N459 N 0.59307 0.67724 0.00483 0.0
N460 N 0.55653 0.68284 0.94076 0.0
C461 C 0.5294 0.65486 -0.03195 0.0
C462 C 0.54931 0.65157 0.00258 0.0
C463 C 0.92031 0.47239 0.19644 0.0
C464 C 0.93955 0.51737 0.20175 0.0
C465 C 0.8987 0.45272 0.16204 0.0
C466 C 0.89514 0.47731 0.1319 0.0
H467 H 0.92067 0.45213 0.21963 0.0
H468 H 0.88336 0.41781 0.1597 0.0
S469 S 0.94242 0.59688 0.13093 0.0
N470 N 0.95539 0.58626 0.17372 0.0
N471 N 0.9154 0.54968 0.10883 0.0
C472 C 0.91597 0.52267 0.1363 0.0
C473 C 0.93807 0.54261 0.17127 0.0
loop_
_geom_bond_atom_site_label_1
_geom_bond_atom_site_label_2
_geom_bond_distance
_geom_bond_site_symmetry_2
_ccdc_geom_bond_type
H0 C8 0.930 . S
H1 C11 0.930 . S
H2 C13 0.930 . S
H3 C14 0.970 . S
H4 C14 0.970 . S
H5 C16 0.930 . S
H6 C18 0.930 . S
H7 C20 0.930 . S
C8 H0 0.930 . S
C8 C9 1.382 . S
C8 C10 1.426 . S
C9 C8 1.382 . S
C9 C13 1.389 . S
C10 C8 1.426 . S
C10 C11 1.375 . S
C10 C14 1.532 1_655 S
C11 H1 0.930 . S
C11 C10 1.375 . S
C11 C12 1.416 . S
C12 C11 1.416 . S
C12 C13 1.371 . S
C13 H2 0.930 . S
C13 C9 1.389 . S
C13 C12 1.371 . S
C14 H3 0.970 . S
C14 H4 0.970 . S
C14 C10 1.532 1_455 S
C14 C15 1.499 . S
C15 C14 1.499 . S
C15 C16 1.370 . S
C15 C20 1.415 . S
C16 H5 0.930 . S
C16 C15 1.370 . S
C16 C17 1.407 . S
C17 C16 1.407 . S
C17 C18 1.365 . S
C18 H6 0.930 . S
C18 C17 1.365 . S
C18 C19 1.393 . S
C19 C18 1.393 . S
C19 C20 1.387 . S
C20 H7 0.930 . S
C20 C15 1.415 . S
C20 C19 1.387 . S
H21 C29 0.930 . S
H22 C32 0.930 . S
H23 C34 0.930 . S
H24 C35 0.970 . S
H25 C35 0.970 . S
H26 C37 0.930 . S
H27 C39 0.930 . S
H28 C41 0.930 . S
C29 H21 0.930 . S
C29 C30 1.382 . S
C29 C31 1.426 . S
C30 C29 1.382 . S
C30 C34 1.389 . S
C31 C29 1.426 . S
C31 C32 1.375 . S
C31 C35 1.532 1_565 S
C32 H22 0.930 . S
C32 C31 1.375 . S
C32 C33 1.416 . S
C33 C32 1.416 . S
C33 C34 1.371 . S
C34 H23 0.930 . S
C34 C30 1.389 . S
C34 C33 1.371 . S
C35 H24 0.970 . S
C35 H25 0.970 . S
C35 C31 1.532 1_545 S
C35 C36 1.499 . S
C36 C35 1.499 . S
C36 C37 1.370 . S
C36 C41 1.415 . S
C37 H26 0.930 . S
C37 C36 1.370 . S
C37 C38 1.407 . S
C38 C37 1.407 . S
C38 C39 1.365 . S
C39 H27 0.930 . S
C39 C38 1.365 . S
C39 C40 1.393 . S
C40 C39 1.393 . S
C40 C41 1.387 . S
C41 H28 0.930 . S
C41 C36 1.415 . S
C41 C40 1.387 . S
H42 C50 0.930 . S
H43 C53 0.930 . S
H44 C55 0.930 . S
H45 C56 0.970 . S
H46 C56 0.970 . S
H47 C58 0.930 . S
H48 C60 0.930 . S
H49 C62 0.930 . S
C50 H42 0.930 . S
C50 C51 1.382 . S
C50 C52 1.426 . S
C51 C50 1.382 . S
C51 C55 1.389 . S
C52 C50 1.426 . S
C52 C53 1.375 . S
C52 C56 1.532 . S
C53 H43 0.930 . S
C53 C52 1.375 . S
C53 C54 1.416 . S
C54 C53 1.416 . S
C54 C55 1.371 . S
C55 H44 0.930 . S
C55 C51 1.389 . S
C55 C54 1.371 . S
C56 H45 0.970 . S
C56 H46 0.970 . S
C56 C52 1.532 . S
C56 C57 1.499 . S
C57 C56 1.499 . S
C57 C58 1.370 . S
C57 C62 1.415 . S
C58 H47 0.930 . S
C58 C57 1.370 . S
C58 C59 1.407 . S
C59 C58 1.407 . S
C59 C60 1.365 . S
C60 H48 0.930 . S
C60 C59 1.365 . S
C60 C61 1.393 . S
C61 C60 1.393 . S
C61 C62 1.387 . S
C62 H49 0.930 . S
C62 C57 1.415 . S
C62 C61 1.387 . S
H63 C71 0.930 . S
H64 C74 0.930 . S
H65 C76 0.930 . S
H66 C77 0.970 . S
H67 C77 0.970 . S
H68 C79 0.930 . S
H69 C81 0.930 . S
H70 C83 0.930 . S
C71 H63 0.930 . S
C71 C72 1.382 . S
C71 C73 1.426 . S
C72 C71 1.382 . S
C72 C76 1.389 . S
C73 C71 1.426 . S
C73 C74 1.375 . S
C73 C77 1.532 1_655 S
C74 H64 0.930 . S
C74 C73 1.375 . S
C74 C75 1.416 . S
C75 C74 1.416 . S
C75 C76 1.371 . S
C76 H65 0.930 . S
C76 C72 1.389 . S
C76 C75 1.371 . S
C77 H66 0.970 . S
C77 H67 0.970 . S
C77 C73 1.532 1_455 S
C77 C78 1.499 . S
C78 C77 1.499 . S
C78 C79 1.370 . S
C78 C83 1.415 . S
C79 H68 0.930 . S
C79 C78 1.370 . S
C79 C80 1.407 . S
C80 C79 1.407 . S
C80 C81 1.365 . S
C81 H69 0.930 . S
C81 C80 1.365 . S
C81 C82 1.393 . S
C82 C81 1.393 . S
C82 C83 1.387 . S
C83 H70 0.930 . S
C83 C78 1.415 . S
C83 C82 1.387 . S
H84 C92 0.930 . S
H85 C95 0.930 . S
H86 C97 0.930 . S
H87 C98 0.970 1_554 S
H88 C98 0.970 . S
H89 C100 0.930 . S
H90 C102 0.930 . S
H91 C104 0.930 . S
C92 H84 0.930 . S
C92 C93 1.382 . S
C92 C94 1.426 1_554 S
C93 C92 1.382 . S
C93 C97 1.389 1_554 S
C94 C92 1.426 1_556 S
C94 C95 1.375 . S
C94 C98 1.532 . S
C95 H85 0.930 . S
C95 C94 1.375 . S
C95 C96 1.416 . S
C96 C95 1.416 . S
C96 C97 1.371 . S
C97 H86 0.930 . S
C97 C93 1.389 1_556 S
C97 C96 1.371 . S
C98 H87 0.970 1_556 S
C98 H88 0.970 . S
C98 C94 1.532 . S
C98 C99 1.499 1_546 S
C99 C98 1.499 1_564 S
C99 C100 1.370 . S
C99 C104 1.415 1_554 S
C100 H89 0.930 . S
C100 C99 1.370 . S
C100 C101 1.407 . S
C101 C100 1.407 . S
C101 C102 1.365 . S
C102 H90 0.930 . S
C102 C101 1.365 . S
C102 C103 1.393 1_554 S
C103 C102 1.393 1_556 S
C103 C104 1.387 . S
C104 H91 0.930 . S
C104 C99 1.415 1_556 S
C104 C103 1.387 . S
H105 C113 0.930 . S
H106 C116 0.930 . S
H107 C118 0.930 . S
H108 C119 0.970 . S
H109 C119 0.970 . S
H110 C121 0.930 . S
H111 C123 0.930 . S
H112 C125 0.930 . S
C113 H105 0.930 . S
C113 C114 1.382 . S
C113 C115 1.426 . S
C114 C113 1.382 . S
C114 C118 1.389 . S
C115 C113 1.426 . S
C115 C116 1.375 . S
C115 C119 1.532 . S
C116 H106 0.930 . S
C116 C115 1.375 . S
C116 C117 1.416 . S
C117 C116 1.416 . S
C117 C118 1.371 . S
C118 H107 0.930 . S
C118 C114 1.389 . S
C118 C117 1.371 . S
C119 H108 0.970 . S
C119 H109 0.970 . S
C119 C115 1.532 . S
C119 C120 1.499 . S
C120 C119 1.499 . S
C120 C121 1.370 . S
C120 C125 1.415 . S
C121 H110 0.930 . S
C121 C120 1.370 . S
C121 C122 1.407 . S
C122 C121 1.407 . S
C122 C123 1.365 . S
C123 H111 0.930 . S
C123 C122 1.365 . S
C123 C124 1.393 . S
C124 C123 1.393 . S
C124 C125 1.387 . S
C125 H112 0.930 . S
C125 C120 1.415 . S
C125 C124 1.387 . S
O126 Cd127 2.223 . S
O126 C134 1.315 . S
Cd127 O126 2.223 . S
Cd127 O130 2.297 . S
Cd127 O131 2.439 . S
Cd127 O137 2.240 . S
Cd128 O129 2.240 . S
Cd128 O136 2.223 . S
Cd128 O138 2.297 . S
Cd128 O139 2.439 . S
O129 Cd128 2.240 . S
O129 C134 1.279 . S
O130 Cd127 2.297 . S
O130 C132 1.247 . S
O131 Cd127 2.439 . S
O131 C132 1.208 . S
C132 O130 1.247 . S
C132 O131 1.208 . S
C133 O138 1.247 . S
C133 O139 1.208 . S
C134 O126 1.315 . S
C134 O129 1.279 . S
C135 O136 1.315 . S
C135 O137 1.279 . S
O136 Cd128 2.223 . S
O136 C135 1.315 . S
O137 Cd127 2.240 . S
O137 C135 1.279 . S
O138 Cd128 2.297 . S
O138 C133 1.247 . S
O139 Cd128 2.439 . S
O139 C133 1.208 . S
O140 Cd141 2.223 . S
O140 C148 1.315 . S
Cd141 O140 2.223 . S
Cd141 O144 2.297 . S
Cd141 O145 2.439 . S
Cd141 O151 2.240 . S
Cd142 O143 2.240 . S
Cd142 O150 2.223 . S
Cd142 O152 2.297 . S
Cd142 O153 2.439 . S
O143 Cd142 2.240 . S
O143 C148 1.279 . S
O144 Cd141 2.297 . S
O144 C146 1.247 . S
O145 Cd141 2.439 . S
O145 C146 1.208 . S
C146 O144 1.247 . S
C146 O145 1.208 . S
C147 O152 1.247 . S
C147 O153 1.208 . S
C148 O140 1.315 . S
C148 O143 1.279 . S
C149 O150 1.315 . S
C149 O151 1.279 . S
O150 Cd142 2.223 . S
O150 C149 1.315 . S
O151 Cd141 2.240 . S
O151 C149 1.279 . S
O152 Cd142 2.297 . S
O152 C147 1.247 . S
O153 Cd142 2.439 . S
O153 C147 1.208 . S
O154 Cd155 2.223 . S
O154 C162 1.315 . S
Cd155 O154 2.223 . S
Cd155 O158 2.297 . S
Cd155 O159 2.439 . S
Cd155 O165 2.240 . S
Cd156 O157 2.240 . S
Cd156 O164 2.223 . S
Cd156 O166 2.297 . S
Cd156 O167 2.439 . S
O157 Cd156 2.240 . S
O157 C162 1.279 . S
O158 Cd155 2.297 . S
O158 C160 1.247 . S
O159 Cd155 2.439 . S
O159 C160 1.208 . S
C160 O158 1.247 . S
C160 O159 1.208 . S
C161 O166 1.247 . S
C161 O167 1.208 . S
C162 O154 1.315 . S
C162 O157 1.279 . S
C163 O164 1.315 . S
C163 O165 1.279 . S
O164 Cd156 2.223 . S
O164 C163 1.315 . S
O165 Cd155 2.240 . S
O165 C163 1.279 . S
O166 Cd156 2.297 . S
O166 C161 1.247 . S
O167 Cd156 2.439 . S
O167 C161 1.208 . S
O168 Cd169 2.223 . S
O168 C176 1.315 . S
Cd169 O168 2.223 . S
Cd169 O172 2.297 . S
Cd169 O173 2.439 . S
Cd169 O179 2.240 . S
Cd170 O171 2.240 . S
Cd170 O178 2.223 . S
Cd170 O180 2.297 . S
Cd170 O181 2.439 . S
O171 Cd170 2.240 . S
O171 C176 1.279 . S
O172 Cd169 2.297 . S
O172 C174 1.247 . S
O173 Cd169 2.439 . S
O173 C174 1.208 . S
C174 O172 1.247 . S
C174 O173 1.208 . S
C175 O180 1.247 . S
C175 O181 1.208 . S
C176 O168 1.315 . S
C176 O171 1.279 . S
C177 O178 1.315 . S
C177 O179 1.279 . S
O178 Cd170 2.223 . S
O178 C177 1.315 . S
O179 Cd169 2.240 . S
O179 C177 1.279 . S
O180 Cd170 2.297 . S
O180 C175 1.247 . S
O181 Cd170 2.439 . S
O181 C175 1.208 . S
O182 Cd183 2.223 . S
O182 C190 1.315 . S
Cd183 O182 2.223 . S
Cd183 O186 2.297 . S
Cd183 O187 2.439 . S
Cd183 O193 2.240 . S
Cd184 O185 2.240 . S
Cd184 O192 2.223 . S
Cd184 O194 2.297 . S
Cd184 O195 2.439 . S
O185 Cd184 2.240 . S
O185 C190 1.279 . S
O186 Cd183 2.297 . S
O186 C188 1.247 . S
O187 Cd183 2.439 . S
O187 C188 1.208 . S
C188 O186 1.247 . S
C188 O187 1.208 . S
C189 O194 1.247 . S
C189 O195 1.208 . S
C190 O182 1.315 . S
C190 O185 1.279 . S
C191 O192 1.315 . S
C191 O193 1.279 . S
O192 Cd184 2.223 . S
O192 C191 1.315 . S
O193 Cd183 2.240 . S
O193 C191 1.279 . S
O194 Cd184 2.297 . S
O194 C189 1.247 . S
O195 Cd184 2.439 . S
O195 C189 1.208 . S
O196 Cd197 2.223 . S
O196 C204 1.315 . S
Cd197 O196 2.223 . S
Cd197 O200 2.297 . S
Cd197 O201 2.439 . S
Cd197 O207 2.240 . S
Cd198 O199 2.240 . S
Cd198 O206 2.223 . S
Cd198 O208 2.297 . S
Cd198 O209 2.439 . S
O199 Cd198 2.240 . S
O199 C204 1.279 . S
O200 Cd197 2.297 . S
O200 C202 1.247 . S
O201 Cd197 2.439 . S
O201 C202 1.208 . S
C202 O200 1.247 . S
C202 O201 1.208 . S
C203 O208 1.247 . S
C203 O209 1.208 . S
C204 O196 1.315 . S
C204 O199 1.279 . S
C205 O206 1.315 . S
C205 O207 1.279 . S
O206 Cd198 2.223 . S
O206 C205 1.315 . S
O207 Cd197 2.240 . S
O207 C205 1.279 . S
O208 Cd198 2.297 . S
O208 C203 1.247 . S
O209 Cd198 2.439 . S
O209 C203 1.208 . S
C210 C211 1.369 . S
C210 C212 1.419 . S
C210 H214 0.930 . S
C211 C210 1.369 . S
C211 C220 1.429 . S
C212 C210 1.419 . S
C212 C213 1.363 . S
C212 H215 0.929 . S
C213 C212 1.363 . S
C213 C219 1.428 . S
H214 C210 0.930 . S
H215 C212 0.929 . S
S216 N217 1.613 . S
S216 N218 1.610 . S
N217 S216 1.613 . S
N217 C220 1.350 . S
N218 S216 1.610 . S
N218 C219 1.351 . S
C219 C213 1.428 . S
C219 N218 1.351 . S
C219 C220 1.434 . S
C220 C211 1.429 . S
C220 N217 1.350 . S
C220 C219 1.434 . S
C221 C222 1.369 . S
C221 C223 1.419 . S
C221 H225 0.930 . S
C222 C221 1.369 . S
C222 C231 1.429 . S
C223 C221 1.419 . S
C223 C224 1.363 . S
C223 H226 0.929 . S
C224 C223 1.363 . S
C224 C230 1.428 . S
H225 C221 0.930 . S
H226 C223 0.929 . S
S227 N228 1.613 . S
S227 N229 1.610 . S
N228 S227 1.613 . S
N228 C231 1.350 . S
N229 S227 1.610 . S
N229 C230 1.351 . S
C230 C224 1.428 . S
C230 N229 1.351 . S
C230 C231 1.434 . S
C231 C222 1.429 . S
C231 N228 1.350 . S
C231 C230 1.434 . S
C232 C233 1.369 . S
C232 C234 1.419 . S
C232 H236 0.930 . S
C233 C232 1.369 . S
C233 C242 1.429 . S
C234 C232 1.419 . S
C234 C235 1.363 . S
C234 H237 0.929 . S
C235 C234 1.363 . S
C235 C241 1.428 . S
H236 C232 0.930 . S
H237 C234 0.929 . S
S238 N239 1.613 . S
S238 N240 1.610 . S
N239 S238 1.613 . S
N239 C242 1.350 . S
N240 S238 1.610 . S
N240 C241 1.351 . S
C241 C235 1.428 . S
C241 N240 1.351 . S
C241 C242 1.434 . S
C242 C233 1.429 . S
C242 N239 1.350 . S
C242 C241 1.434 . S
C243 C244 1.369 . S
C243 C245 1.419 . S
C243 H247 0.930 . S
C244 C243 1.369 . S
C244 C253 1.429 . S
C245 C243 1.419 . S
C245 C246 1.363 . S
C245 H248 0.929 . S
C246 C245 1.363 . S
C246 C252 1.428 . S
H247 C243 0.930 . S
H248 C245 0.929 . S
S249 N250 1.613 . S
S249 N251 1.610 . S
N250 S249 1.613 . S
N250 C253 1.350 . S
N251 S249 1.610 . S
N251 C252 1.351 . S
C252 C246 1.428 . S
C252 N251 1.351 . S
C252 C253 1.434 . S
C253 C244 1.429 . S
C253 N250 1.350 . S
C253 C252 1.434 . S
C254 C255 1.369 . S
C254 C256 1.419 . S
C254 H258 0.930 . S
C255 C254 1.369 . S
C255 C264 1.429 . S
C256 C254 1.419 . S
C256 C257 1.363 . S
C256 H259 0.929 . S
C257 C256 1.363 . S
C257 C263 1.428 . S
H258 C254 0.930 . S
H259 C256 0.929 . S
S260 N261 1.613 . S
S260 N262 1.610 . S
N261 S260 1.613 . S
N261 C264 1.350 . S
N262 S260 1.610 . S
N262 C263 1.351 . S
C263 C257 1.428 . S
C263 N262 1.351 . S
C263 C264 1.434 . S
C264 C255 1.429 . S
C264 N261 1.350 . S
C264 C263 1.434 . S
C265 C266 1.369 . S
C265 C267 1.419 . S
C265 H269 0.930 . S
C266 C265 1.369 . S
C266 C275 1.429 . S
C267 C265 1.419 . S
C267 C268 1.363 . S
C267 H270 0.929 . S
C268 C267 1.363 . S
C268 C274 1.428 . S
H269 C265 0.930 . S
H270 C267 0.929 . S
S271 N272 1.613 . S
S271 N273 1.610 . S
N272 S271 1.613 . S
N272 C275 1.350 . S
N273 S271 1.610 . S
N273 C274 1.351 . S
C274 C268 1.428 . S
C274 N273 1.351 . S
C274 C275 1.434 . S
C275 C266 1.429 . S
C275 N272 1.350 . S
C275 C274 1.434 . S
C276 C277 1.369 . S
C276 C278 1.419 . S
C276 H280 0.930 . S
C277 C276 1.369 . S
C277 C286 1.429 . S
C278 C276 1.419 . S
C278 C279 1.363 . S
C278 H281 0.929 . S
C279 C278 1.363 . S
C279 C285 1.428 . S
H280 C276 0.930 . S
H281 C278 0.929 . S
S282 N283 1.613 . S
S282 N284 1.610 . S
N283 S282 1.613 . S
N283 C286 1.350 . S
N284 S282 1.610 . S
N284 C285 1.351 . S
C285 C279 1.428 . S
C285 N284 1.351 . S
C285 C286 1.434 . S
C286 C277 1.429 . S
C286 N283 1.350 . S
C286 C285 1.434 . S
C287 C288 1.369 . S
C287 C289 1.419 . S
C287 H291 0.930 . S
C288 C287 1.369 . S
C288 C297 1.429 . S
C289 C287 1.419 . S
C289 C290 1.363 . S
C289 H292 0.929 . S
C290 C289 1.363 . S
C290 C296 1.428 . S
H291 C287 0.930 . S
H292 C289 0.929 . S
S293 N294 1.613 . S
S293 N295 1.610 . S
N294 S293 1.613 . S
N294 C297 1.350 . S
N295 S293 1.610 . S
N295 C296 1.351 . S
C296 C290 1.428 . S
C296 N295 1.351 . S
C296 C297 1.434 . S
C297 C288 1.429 . S
C297 N294 1.350 . S
C297 C296 1.434 . S
C298 C299 1.369 . S
C298 C300 1.419 . S
C298 H302 0.930 . S
C299 C298 1.369 . S
C299 C308 1.429 . S
C300 C298 1.419 . S
C300 C301 1.363 . S
C300 H303 0.929 . S
C301 C300 1.363 . S
C301 C307 1.428 . S
H302 C298 0.930 . S
H303 C300 0.929 . S
S304 N305 1.613 . S
S304 N306 1.610 . S
N305 S304 1.613 . S
N305 C308 1.350 . S
N306 S304 1.610 . S
N306 C307 1.351 . S
C307 C301 1.428 . S
C307 N306 1.351 . S
C307 C308 1.434 . S
C308 C299 1.429 . S
C308 N305 1.350 . S
C308 C307 1.434 . S
C309 C310 1.369 . S
C309 C311 1.419 . S
C309 H313 0.930 . S
C310 C309 1.369 . S
C310 C319 1.429 1_554 S
C311 C309 1.419 . S
C311 C312 1.363 . S
C311 H314 0.929 . S
C312 C311 1.363 . S
C312 C318 1.428 1_554 S
H313 C309 0.930 . S
H314 C311 0.929 . S
S315 N316 1.613 . S
S315 N317 1.610 . S
N316 S315 1.613 . S
N316 C319 1.350 . S
N317 S315 1.610 . S
N317 C318 1.351 . S
C318 C312 1.428 1_556 S
C318 N317 1.351 . S
C318 C319 1.434 . S
C319 C310 1.429 1_556 S
C319 N316 1.350 . S
C319 C318 1.434 . S
C320 C321 1.369 . S
C320 C322 1.419 . S
C320 H324 0.930 . S
C321 C320 1.369 . S
C321 C330 1.429 . S
C322 C320 1.419 . S
C322 C323 1.363 . S
C322 H325 0.929 . S
C323 C322 1.363 . S
C323 C329 1.428 . S
H324 C320 0.930 . S
H325 C322 0.929 . S
S326 N327 1.613 . S
S326 N328 1.610 . S
N327 S326 1.613 . S
N327 C330 1.350 . S
N328 S326 1.610 . S
N328 C329 1.351 . S
C329 C323 1.428 . S
C329 N328 1.351 . S
C329 C330 1.434 . S
C330 C321 1.429 . S
C330 N327 1.350 . S
C330 C329 1.434 . S
C331 C332 1.369 . S
C331 C333 1.419 . S
C331 H335 0.930 . S
C332 C331 1.369 . S
C332 C341 1.429 . S
C333 C331 1.419 . S
C333 C334 1.363 . S
C333 H336 0.929 . S
C334 C333 1.363 . S
C334 C340 1.428 . S
H335 C331 0.930 . S
H336 C333 0.929 . S
S337 N338 1.613 . S
S337 N339 1.610 . S
N338 S337 1.613 . S
N338 C341 1.350 . S
N339 S337 1.610 . S
N339 C340 1.351 . S
C340 C334 1.428 . S
C340 N339 1.351 . S
C340 C341 1.434 . S
C341 C332 1.429 . S
C341 N338 1.350 . S
C341 C340 1.434 . S
C342 C343 1.369 . S
C342 C344 1.419 . S
C342 H346 0.930 . S
C343 C342 1.369 . S
C343 C352 1.429 . S
C344 C342 1.419 . S
C344 C345 1.363 . S
C344 H347 0.929 . S
C345 C344 1.363 . S
C345 C351 1.428 . S
H346 C342 0.930 . S
H347 C344 0.929 . S
S348 N349 1.613 . S
S348 N350 1.610 . S
N349 S348 1.613 . S
N349 C352 1.350 . S
N350 S348 1.610 . S
N350 C351 1.351 . S
C351 C345 1.428 . S
C351 N350 1.351 . S
C351 C352 1.434 . S
C352 C343 1.429 . S
C352 N349 1.350 . S
C352 C351 1.434 . S
C353 C354 1.369 . S
C353 C355 1.419 . S
C353 H357 0.930 . S
C354 C353 1.369 . S
C354 C363 1.429 . S
C355 C353 1.419 . S
C355 C356 1.363 . S
C355 H358 0.929 . S
C356 C355 1.363 . S
C356 C362 1.428 . S
H357 C353 0.930 . S
H358 C355 0.929 . S
S359 N360 1.613 . S
S359 N361 1.610 . S
N360 S359 1.613 . S
N360 C363 1.350 . S
N361 S359 1.610 . S
N361 C362 1.351 . S
C362 C356 1.428 . S
C362 N361 1.351 . S
C362 C363 1.434 . S
C363 C354 1.429 . S
C363 N360 1.350 . S
C363 C362 1.434 . S
C364 C365 1.369 . S
C364 C366 1.419 . S
C364 H368 0.930 . S
C365 C364 1.369 . S
C365 C374 1.429 . S
C366 C364 1.419 . S
C366 C367 1.363 . S
C366 H369 0.929 . S
C367 C366 1.363 . S
C367 C373 1.428 . S
H368 C364 0.930 . S
H369 C366 0.929 . S
S370 N371 1.613 . S
S370 N372 1.610 . S
N371 S370 1.613 . S
N371 C374 1.350 . S
N372 S370 1.610 . S
N372 C373 1.351 . S
C373 C367 1.428 . S
C373 N372 1.351 . S
C373 C374 1.434 . S
C374 C365 1.429 . S
C374 N371 1.350 . S
C374 C373 1.434 . S
C375 C376 1.369 . S
C375 C377 1.419 . S
C375 H379 0.930 . S
C376 C375 1.369 . S
C376 C385 1.429 . S
C377 C375 1.419 . S
C377 C378 1.363 . S
C377 H380 0.929 . S
C378 C377 1.363 . S
C378 C384 1.428 1_556 S
H379 C375 0.930 . S
H380 C377 0.929 . S
S381 N382 1.613 1_554 S
S381 N383 1.610 . S
N382 S381 1.613 1_556 S
N382 C385 1.350 . S
N383 S381 1.610 . S
N383 C384 1.351 . S
C384 C378 1.428 1_554 S
C384 N383 1.351 . S
C384 C385 1.434 1_554 S
C385 C376 1.429 . S
C385 N382 1.350 . S
C385 C384 1.434 1_556 S
C386 C387 1.369 . S
C386 C388 1.419 . S
C386 H390 0.930 . S
C387 C386 1.369 . S
C387 C396 1.429 . S
C388 C386 1.419 . S
C388 C389 1.363 . S
C388 H391 0.929 . S
C389 C388 1.363 . S
C389 C395 1.428 . S
H390 C386 0.930 . S
H391 C388 0.929 . S
S392 N393 1.613 . S
S392 N394 1.610 . S
N393 S392 1.613 . S
N393 C396 1.350 . S
N394 S392 1.610 . S
N394 C395 1.351 . S
C395 C389 1.428 . S
C395 N394 1.351 . S
C395 C396 1.434 . S
C396 C387 1.429 . S
C396 N393 1.350 . S
C396 C395 1.434 . S
C397 C398 1.369 . S
C397 C399 1.419 . S
C397 H401 0.930 . S
C398 C397 1.369 . S
C398 C407 1.429 . S
C399 C397 1.419 . S
C399 C400 1.363 . S
C399 H402 0.929 . S
C400 C399 1.363 . S
C400 C406 1.428 . S
H401 C397 0.930 . S
H402 C399 0.929 . S
S403 N404 1.613 . S
S403 N405 1.610 . S
N404 S403 1.613 . S
N404 C407 1.350 . S
N405 S403 1.610 . S
N405 C406 1.351 . S
C406 C400 1.428 . S
C406 N405 1.351 . S
C406 C407 1.434 . S
C407 C398 1.429 . S
C407 N404 1.350 . S
C407 C406 1.434 . S
C408 C409 1.369 . S
C408 C410 1.419 . S
C408 H412 0.930 . S
C409 C408 1.369 . S
C409 C418 1.429 . S
C410 C408 1.419 . S
C410 C411 1.363 . S
C410 H413 0.929 . S
C411 C410 1.363 . S
C411 C417 1.428 . S
H412 C408 0.930 . S
H413 C410 0.929 . S
S414 N415 1.613 . S
S414 N416 1.610 . S
N415 S414 1.613 . S
N415 C418 1.350 . S
N416 S414 1.610 . S
N416 C417 1.351 . S
C417 C411 1.428 . S
C417 N416 1.351 . S
C417 C418 1.434 . S
C418 C409 1.429 . S
C418 N415 1.350 . S
C418 C417 1.434 . S
C419 C420 1.369 . S
C419 C421 1.419 . S
C419 H423 0.930 . S
C420 C419 1.369 . S
C420 C429 1.429 . S
C421 C419 1.419 . S
C421 C422 1.363 . S
C421 H424 0.929 . S
C422 C421 1.363 . S
C422 C428 1.428 . S
H423 C419 0.930 . S
H424 C421 0.929 . S
S425 N426 1.613 . S
S425 N427 1.610 . S
N426 S425 1.613 . S
N426 C429 1.350 . S
N427 S425 1.610 . S
N427 C428 1.351 . S
C428 C422 1.428 . S
C428 N427 1.351 . S
C428 C429 1.434 . S
C429 C420 1.429 . S
C429 N426 1.350 . S
C429 C428 1.434 . S
C430 C431 1.369 . S
C430 C432 1.419 . S
C430 H434 0.930 . S
C431 C430 1.369 . S
C431 C440 1.429 . S
C432 C430 1.419 . S
C432 C433 1.363 . S
C432 H435 0.929 . S
C433 C432 1.363 . S
C433 C439 1.428 . S
H434 C430 0.930 . S
H435 C432 0.929 . S
S436 N437 1.613 . S
S436 N438 1.610 . S
N437 S436 1.613 . S
N437 C440 1.350 . S
N438 S436 1.610 . S
N438 C439 1.351 . S
C439 C433 1.428 . S
C439 N438 1.351 . S
C439 C440 1.434 . S
C440 C431 1.429 . S
C440 N437 1.350 . S
C440 C439 1.434 . S
C441 C442 1.369 . S
C441 C443 1.419 . S
C441 H445 0.930 . S
C442 C441 1.369 . S
C442 C451 1.429 . S
C443 C441 1.419 . S
C443 C444 1.363 . S
C443 H446 0.929 . S
C444 C443 1.363 . S
C444 C450 1.428 . S
H445 C441 0.930 . S
H446 C443 0.929 . S
S447 N448 1.613 . S
S447 N449 1.610 . S
N448 S447 1.613 . S
N448 C451 1.350 . S
N449 S447 1.610 . S
N449 C450 1.351 . S
C450 C444 1.428 . S
C450 N449 1.351 . S
C450 C451 1.434 . S
C451 C442 1.429 . S
C451 N448 1.350 . S
C451 C450 1.434 . S
C452 C453 1.369 . S
C452 C454 1.419 . S
C452 H456 0.930 . S
C453 C452 1.369 . S
C453 C462 1.429 . S
C454 C452 1.419 . S
C454 C455 1.363 1_554 S
C454 H457 0.929 . S
C455 C454 1.363 1_556 S
C455 C461 1.428 . S
H456 C452 0.930 . S
H457 C454 0.929 . S
S458 N459 1.613 1_556 S
S458 N460 1.610 . S
N459 S458 1.613 1_554 S
N459 C462 1.350 . S
N460 S458 1.610 . S
N460 C461 1.351 . S
C461 C455 1.428 . S
C461 N460 1.351 . S
C461 C462 1.434 1_556 S
C462 C453 1.429 . S
C462 N459 1.350 . S
C462 C461 1.434 1_554 S
C463 C464 1.369 . S
C463 C465 1.419 . S
C463 H467 0.930 . S
C464 C463 1.369 . S
C464 C473 1.429 . S
C465 C463 1.419 . S
C465 C466 1.363 . S
C465 H468 0.929 . S
C466 C465 1.363 . S
C466 C472 1.428 . S
H467 C463 0.930 . S
H468 C465 0.929 . S
S469 N470 1.613 . S
S469 N471 1.610 . S
N470 S469 1.613 . S
N470 C473 1.350 . S
N471 S469 1.610 . S
N471 C472 1.351 . S
C472 C466 1.428 . S
C472 N471 1.351 . S
C472 C473 1.434 . S
C473 C464 1.429 . S
C473 N470 1.350 . S
C473 C472 1.434 . S
C213 C203 1.475 . S
C211 C19 1.421 . S
C222 C40 1.431 . S
C224 C132 1.478 . S
C233 C51 1.417 . S
C235 C146 1.486 . S
C244 C72 1.410 . S
C246 C160 1.485 . S
C257 C174 1.482 . S
C255 C103 1.422 . S
C266 C114 1.419 . S
C268 C189 1.480 . S
C277 C30 1.413 . S
C279 C147 1.489 . S
C288 C61 1.430 . S
C290 C161 1.481 . S
C299 C82 1.417 . S
C301 C175 1.477 . S
C312 C188 1.483 . S
C310 C93 1.408 . S
C323 C202 1.476 . S
C321 C124 1.424 . S
C334 C133 1.481 . S
C332 C9 1.419 . S
C343 C17 1.478 . S
C345 C149 1.533 . S
C354 C38 1.475 . S
C356 C163 1.525 . S
C367 C177 1.526 . S
C365 C54 1.472 . S
C376 C75 1.481 . S
C378 C190 1.528 1_556 S
C389 C204 1.527 . S
C387 C101 1.472 . S
C400 C135 1.523 . S
C398 C117 1.471 . S
C411 C205 1.527 . S
C409 C33 1.475 . S
C420 C59 1.481 . S
C422 C134 1.527 . S
C433 C148 1.529 . S
C431 C80 1.482 . S
C442 C96 1.480 . S
C444 C162 1.525 . S
C453 C122 1.474 . S
C455 C176 1.524 . S
C464 C12 1.478 . S
C466 C191 1.527 . S
