# Generated by pormake.
# Topology zzz, (3,6)-cn, num edge types: 1
# Building blocks:
#     Node 0, Type 0, BuildingBlock: BETDIP_clean_linker_0, # of connection points: 3
#     Node 1, Type 0, BuildingBlock: BETDIP_clean_linker_0, # of connection points: 3
#     Node 2, Type 0, BuildingBlock: BETDIP_clean_linker_0, # of connection points: 3
#     Node 3, Type 0, BuildingBlock: BETDIP_clean_linker_0, # of connection points: 3
#     Node 4, Type 0, BuildingBlock: BETDIP_clean_linker_0, # of connection points: 3
#     Node 5, Type 0, BuildingBlock: BETDIP_clean_linker_0, # of connection points: 3
#     Node 6, Type 0, BuildingBlock: BETDIP_clean_linker_0, # of connection points: 3
#     Node 7, Type 0, BuildingBlock: BETDIP_clean_linker_0, # of connection points: 3
#     Node 8, Type 1, BuildingBlock: CUKXOW_clean_sbu_0, # of connection points: 6
#     Node 9, Type 1, BuildingBlock: CUKXOW_clean_sbu_0, # of connection points: 6
#     Node 10, Type 1, BuildingBlock: CUKXOW_clean_sbu_0, # of connection points: 6
#     Node 11, Type 1, BuildingBlock: CUKXOW_clean_sbu_0, # of connection points: 6
#     Edge 12, Type (0, 1), BuildingBlock: XIVTED_clean_linker_0, # of connection points: 2
#     Edge 13, Type (0, 1), BuildingBlock: XIVTED_clean_linker_0, # of connection points: 2
#     Edge 14, Type (0, 1), BuildingBlock: XIVTED_clean_linker_0, # of connection points: 2
#     Edge 15, Type (0, 1), BuildingBlock: XIVTED_clean_linker_0, # of connection points: 2
#     Edge 16, Type (0, 1), BuildingBlock: XIVTED_clean_linker_0, # of connection points: 2
#     Edge 17, Type (0, 1), BuildingBlock: XIVTED_clean_linker_0, # of connection points: 2
#     Edge 18, Type (0, 1), BuildingBlock: XIVTED_clean_linker_0, # of connection points: 2
#     Edge 19, Type (0, 1), BuildingBlock: XIVTED_clean_linker_0, # of connection points: 2
#     Edge 20, Type (0, 1), BuildingBlock: XIVTED_clean_linker_0, # of connection points: 2
#     Edge 21, Type (0, 1), BuildingBlock: XIVTED_clean_linker_0, # of connection points: 2
#     Edge 22, Type (0, 1), BuildingBlock: XIVTED_clean_linker_0, # of connection points: 2
#     Edge 23, Type (0, 1), BuildingBlock: XIVTED_clean_linker_0, # of connection points: 2
#     Edge 24, Type (0, 1), BuildingBlock: XIVTED_clean_linker_0, # of connection points: 2
#     Edge 25, Type (0, 1), BuildingBlock: XIVTED_clean_linker_0, # of connection points: 2
#     Edge 26, Type (0, 1), BuildingBlock: XIVTED_clean_linker_0, # of connection points: 2
#     Edge 27, Type (0, 1), BuildingBlock: XIVTED_clean_linker_0, # of connection points: 2
#     Edge 28, Type (0, 1), BuildingBlock: XIVTED_clean_linker_0, # of connection points: 2
#     Edge 29, Type (0, 1), BuildingBlock: XIVTED_clean_linker_0, # of connection points: 2
#     Edge 30, Type (0, 1), BuildingBlock: XIVTED_clean_linker_0, # of connection points: 2
#     Edge 31, Type (0, 1), BuildingBlock: XIVTED_clean_linker_0, # of connection points: 2
#     Edge 32, Type (0, 1), BuildingBlock: XIVTED_clean_linker_0, # of connection points: 2
#     Edge 33, Type (0, 1), BuildingBlock: XIVTED_clean_linker_0, # of connection points: 2
#     Edge 34, Type (0, 1), BuildingBlock: XIVTED_clean_linker_0, # of connection points: 2
#     Edge 35, Type (0, 1), BuildingBlock: XIVTED_clean_linker_0, # of connection points: 2
# Relax obj value: 0.064
# Max RMSD: 0.115
# Mean RMSD: 0.081
data_MOF--net-zzz--node1-CUKXOW_clean_sbu_0--node2-BETDIP_clean_linker_0--edge1-XIVTED_clean_linker_0
_symmetry_space_group_name_H-M    P1
_symmetry_Int_Tables_number       1
_symmetry_cell_setting            triclinic
loop_
_symmetry_equiv_pos_as_xyz
'x, y, z'
_cell_length_a     50.95263
_cell_length_b     53.12434
_cell_length_c     15.890697
_cell_angle_alpha  93.088443
_cell_angle_beta   87.100266
_cell_angle_gamma 93.982502
loop_
_atom_site_label
_atom_site_type_symbol
_atom_site_fract_x
_atom_site_fract_y
_atom_site_fract_z
_atom_type_partial_charge
H0 H 0.74224 0.49102 0.25804 0.0
H1 H 0.77664 0.49393 0.00388 0.0
H2 H 0.82631 0.49587 0.21369 0.0
H3 H 0.74106 0.51746 -0.00681 0.0
C4 C 0.72566 0.50487 0.02098 0.0
C5 C 0.75933 0.49191 0.21462 0.0
C6 C 0.78477 0.49308 0.2455 0.0
C7 C 0.75614 0.49278 0.12723 0.0
C8 C 0.77864 0.49392 0.07138 0.0
C9 C 0.80392 0.49556 0.10262 0.0
C10 C 0.80672 0.4949 0.1893 0.0
N11 N 0.73039 0.49299 0.09642 0.0
H12 H 0.96192 0.7582 0.15877 0.0
H13 H 0.98978 0.77623 0.90636 0.0
H14 H 0.99346 0.83314 0.10833 0.0
H15 H 0.95958 0.74184 0.87367 0.0
C16 C 0.96532 0.72928 0.92023 0.0
C17 C 0.97065 0.77164 0.11475 0.0
C18 C 0.97724 0.79653 0.14268 0.0
C19 C 0.97494 0.76413 0.0295 0.0
C20 C 0.98609 0.78177 0.97221 0.0
C21 C 0.99327 0.8066 0.00099 0.0
C22 C 0.98877 0.81374 0.08614 0.0
N23 N 0.96912 0.73844 0.00448 0.0
H24 H 0.74448 0.9788 0.25708 0.0
H25 H 0.72383 0.97856 -0.00309 0.0
H26 H 0.66356 0.97949 0.19525 0.0
H27 H 0.76034 0.95406 0.98366 0.0
C28 C 0.77354 0.96701 0.01952 0.0
C29 C 0.72974 0.97827 0.2101 0.0
C30 C 0.70299 0.97836 0.23513 0.0
C31 C 0.73738 0.97747 0.12385 0.0
C32 C 0.71807 0.97794 0.06332 0.0
C33 C 0.69132 0.97842 0.08849 0.0
C34 C 0.68407 0.97823 0.17445 0.0
N35 N 0.76456 0.97746 0.09906 0.0
H36 H 0.57814 0.74302 0.23369 0.0
H37 H 0.55763 0.74232 0.9738 0.0
H38 H 0.56986 0.6728 0.08649 0.0
H39 H 0.59935 0.78182 0.01691 0.0
C40 C 0.58178 0.78816 0.05109 0.0
C41 C 0.57468 0.73269 0.17416 0.0
C42 C 0.57577 0.70631 0.16771 0.0
C43 C 0.56931 0.74581 0.10324 0.0
C44 C 0.56336 0.73239 0.02705 0.0
C45 C 0.56365 0.70603 0.02133 0.0
C46 C 0.57056 0.6933 0.09075 0.0
N47 N 0.56817 0.77238 0.11037 0.0
H48 H 0.26317 0.52061 0.13886 0.0
H49 H 0.2328 0.5147 0.39675 0.0
H50 H 0.18192 0.49744 0.19234 0.0
H51 H 0.26656 0.54247 0.42353 0.0
C52 C 0.28239 0.53589 0.38147 0.0
C53 C 0.24711 0.5162 0.18414 0.0
C54 C 0.22212 0.50807 0.15597 0.0
C55 C 0.25128 0.51884 0.27121 0.0
C56 C 0.23006 0.51329 0.32959 0.0
C57 C 0.20506 0.50537 0.30132 0.0
C58 C 0.20143 0.50269 0.2147 0.0
N59 N 0.277 0.52637 0.29824 0.0
H60 H 0.05349 0.2476 0.20577 0.0
H61 H 0.02606 0.22913 0.45816 0.0
H62 H 0.02163 0.17266 0.25495 0.0
H63 H 0.05747 0.26294 0.49027 0.0
C64 C 0.05093 0.27568 0.44558 0.0
C65 C 0.04486 0.23408 0.24966 0.0
C66 C 0.03799 0.20927 0.22121 0.0
C67 C 0.04083 0.2414 0.33521 0.0
C68 C 0.02967 0.22368 0.39218 0.0
C69 C 0.02224 0.19895 0.36298 0.0
C70 C 0.02654 0.19198 0.2776 0.0
N71 N 0.04675 0.26701 0.36105 0.0
H72 H 0.27293 0.03818 0.16002 0.0
H73 H 0.28781 0.02908 0.42082 0.0
H74 H 0.35209 0.04492 0.24169 0.0
H75 H 0.25233 0.99571 0.38457 0.0
C76 C 0.23966 0.00986 0.36571 0.0
C77 C 0.28654 0.03873 0.21045 0.0
C78 C 0.3136 0.0432 0.19277 0.0
C79 C 0.27717 0.03357 0.29269 0.0
C80 C 0.29505 0.0331 0.35736 0.0
C81 C 0.32222 0.03762 0.33993 0.0
C82 C 0.33112 0.04296 0.25758 0.0
N83 N 0.24979 0.02829 0.30898 0.0
H84 H 0.45403 0.26971 0.13068 0.0
H85 H 0.4578 0.27472 0.40188 0.0
H86 H 0.45971 0.3422 0.26436 0.0
H87 H 0.42064 0.23595 0.35632 0.0
C88 C 0.43844 0.22841 0.32743 0.0
C89 C 0.45462 0.28095 0.1896 0.0
C90 C 0.45614 0.30738 0.18919 0.0
C91 C 0.4542 0.26905 0.26662 0.0
C92 C 0.45652 0.28375 0.34281 0.0
C93 C 0.45849 0.31015 0.3417 0.0
C94 C 0.45763 0.32172 0.26523 0.0
N95 N 0.45363 0.24236 0.26638 0.0
Tb96 Tb 0.99456 0.98288 0.61583 0.0
C97 C 0.05503 0.0024 0.6121 0.0
Tb98 Tb 0.01417 0.02318 0.75056 0.0
O99 O 0.97733 0.01166 0.54446 0.0
O100 O 0.00894 0.02087 0.6202 0.0
O101 O 0.0373 0.98411 0.58868 0.0
C102 C 0.0233 0.0681 0.82914 0.0
O103 O 0.04902 0.02161 0.66514 0.0
C104 C 0.01701 0.97601 0.78668 0.0
C105 C 0.95359 0.00301 0.75509 0.0
O106 O 0.03604 0.04825 0.83998 0.0
O107 O 0.00492 0.0624 0.7765 0.0
O108 O 0.03194 0.99434 0.82033 0.0
O109 O 0.99991 0.98522 0.74607 0.0
O110 O 0.97137 0.02092 0.78158 0.0
O111 O 0.95966 0.98444 0.69965 0.0
C112 C 0.98536 0.93815 0.53604 0.0
O113 O 0.97236 0.95793 0.52691 0.0
O114 O 0.00401 0.94382 0.58764 0.0
C115 C 0.99201 0.03003 0.57876 0.0
Tb116 Tb 0.50802 0.03589 0.66684 0.0
C117 C 0.55172 0.99939 0.60986 0.0
Tb118 Tb 0.50902 0.98555 0.75718 0.0
O119 O 0.54535 0.04967 0.71868 0.0
O120 O 0.51988 0.02418 0.78354 0.0
O121 O 0.53769 0.01779 0.5863 0.0
C122 C 0.52138 0.94631 0.84183 0.0
O123 O 0.54484 0.98561 0.67574 0.0
C124 C 0.47428 0.98607 0.64219 0.0
C125 C 0.46559 0.02247 0.81529 0.0
O126 O 0.50723 0.94492 0.77604 0.0
O127 O 0.52851 0.96976 0.86027 0.0
O128 O 0.47169 0.9717 0.70599 0.0
O129 O 0.49704 0.99723 0.64064 0.0
O130 O 0.47905 0.00345 0.83731 0.0
O131 O 0.47273 0.03654 0.75029 0.0
C132 C 0.49583 0.0749 0.58054 0.0
O133 O 0.51143 0.07625 0.64275 0.0
O134 O 0.48712 0.05164 0.56679 0.0
C135 C 0.54261 0.03532 0.78252 0.0
Tb136 Tb 0.52046 0.52373 0.61251 0.0
C137 C 0.45705 0.52009 0.62933 0.0
Tb138 Tb 0.49111 0.49525 0.75862 0.0
O139 O 0.53037 0.48804 0.54495 0.0
O140 O 0.49736 0.49 0.62723 0.0
O141 O 0.47908 0.52912 0.58938 0.0
C142 C 0.4731 0.45684 0.85132 0.0
O143 O 0.45687 0.50561 0.69518 0.0
C144 C 0.50038 0.54389 0.78477 0.0
C145 C 0.55395 0.49856 0.73983 0.0
O146 O 0.46863 0.45907 0.77269 0.0
O147 O 0.48717 0.47665 0.87876 0.0
O148 O 0.48084 0.53126 0.82316 0.0
O149 O 0.51458 0.52872 0.74387 0.0
O150 O 0.53224 0.48518 0.76568 0.0
O151 O 0.55326 0.5174 0.68861 0.0
C152 C 0.53826 0.56377 0.52787 0.0
O153 O 0.54591 0.54102 0.51282 0.0
O154 O 0.52027 0.56366 0.58842 0.0
C155 C 0.51146 0.47507 0.58494 0.0
Tb156 Tb 0.97899 0.49906 0.64252 0.0
C157 C 0.01237 0.45205 0.63858 0.0
Tb158 Tb 0.02903 0.50218 0.74881 0.0
O159 O 0.00346 0.49651 0.5249 0.0
O160 O 0.01792 0.5151 0.63345 0.0
O161 O 0.98866 0.45994 0.6278 0.0
C162 C 0.07822 0.50175 0.7988 0.0
O163 O 0.0315 0.46644 0.67463 0.0
C164 C 0.98394 0.49391 0.83216 0.0
C165 C 0.99602 0.54941 0.75129 0.0
O166 O 0.05894 0.48549 0.81813 0.0
O167 O 0.0697 0.51859 0.75265 0.0
O168 O 0.00474 0.50476 0.86652 0.0
O169 O 0.99006 0.48624 0.75814 0.0
O170 O 0.01964 0.54136 0.76235 0.0
O171 O 0.97676 0.53508 0.71559 0.0
C172 C 0.9296 0.49921 0.59367 0.0
O173 O 0.94884 0.51535 0.57281 0.0
O174 O 0.93829 0.48267 0.64062 0.0
C175 C 0.02416 0.5075 0.55949 0.0
H176 H 0.2046 0.04672 0.36455 0.0
H177 H 0.08137 0.96231 0.54447 0.0
H178 H 0.21165 0.97037 0.43595 0.0
H179 H 0.08943 0.04331 0.58848 0.0
H180 H 0.12622 0.96365 0.47972 0.0
H181 H 0.15894 0.04447 0.4214 0.0
C182 C 0.19644 0.02942 0.39151 0.0
C183 C 0.21178 0.00866 0.39575 0.0
C184 C 0.11807 0.98108 0.50363 0.0
C185 C 0.15976 0.00594 0.46002 0.0
C186 C 0.09253 0.98035 0.54018 0.0
C187 C 0.08179 0.00272 0.57216 0.0
C188 C 0.13262 0.00439 0.49752 0.0
C189 C 0.09707 0.0256 0.56529 0.0
C190 C 0.17049 0.0282 0.42425 0.0
C191 C 0.20036 0.98676 0.43181 0.0
N192 N 0.12167 0.02587 0.52821 0.0
N193 N 0.17493 0.98589 0.46232 0.0
H194 H 0.40748 0.19037 0.3955 0.0
H195 H 0.52249 0.12083 0.56882 0.0
H196 H 0.48818 0.21175 0.32128 0.0
H197 H 0.45214 0.07795 0.49038 0.0
H198 H 0.50889 0.15725 0.49705 0.0
H199 H 0.4218 0.15123 0.44915 0.0
C200 C 0.42815 0.18666 0.38997 0.0
C201 C 0.44668 0.20408 0.35367 0.0
C202 C 0.49658 0.13979 0.49518 0.0
C203 C 0.46315 0.16009 0.4165 0.0
C204 C 0.50423 0.11913 0.53627 0.0
C205 C 0.48837 0.09651 0.5352 0.0
C206 C 0.47257 0.13794 0.45501 0.0
C207 C 0.4649 0.09513 0.4922 0.0
C208 C 0.43626 0.16441 0.42025 0.0
C209 C 0.47327 0.19863 0.34819 0.0
N210 N 0.45747 0.11574 0.45467 0.0
N211 N 0.48081 0.17723 0.38054 0.0
H212 H 0.3296 0.52793 0.29474 0.0
H213 H 0.4082 0.51705 0.70949 0.0
H214 H 0.29521 0.54283 0.54454 0.0
H215 H 0.44768 0.53333 0.46985 0.0
H216 H 0.36595 0.52252 0.64853 0.0
H217 H 0.37267 0.52595 0.35572 0.0
C218 C 0.33114 0.53084 0.36234 0.0
C219 C 0.30888 0.53549 0.41494 0.0
C220 C 0.38389 0.52505 0.6095 0.0
C221 C 0.35782 0.53298 0.48484 0.0
C222 C 0.408 0.52186 0.64415 0.0
C223 C 0.43151 0.52474 0.5947 0.0
C224 C 0.38323 0.53071 0.52436 0.0
C225 C 0.43006 0.53106 0.51042 0.0
C226 C 0.3557 0.52979 0.39702 0.0
C227 C 0.31196 0.5392 0.50199 0.0
N228 N 0.40629 0.53359 0.47762 0.0
N229 N 0.33593 0.53764 0.53438 0.0
H230 H 0.06592 0.30085 0.59053 0.0
H231 H 0.98623 0.42117 0.52258 0.0
H232 H 0.02533 0.31006 0.36349 0.0
H233 H 0.05137 0.42403 0.68723 0.0
H234 H 0.99625 0.37823 0.47428 0.0
H235 H 0.05695 0.3443 0.63804 0.0
C236 C 0.05524 0.31209 0.55071 0.0
C237 C 0.04648 0.30203 0.47304 0.0
C238 C 0.00835 0.38832 0.52085 0.0
C239 C 0.03583 0.35122 0.52702 0.0
C240 C 0.00257 0.41274 0.54873 0.0
C241 C 0.018 0.42614 0.60895 0.0
C242 C 0.02942 0.37715 0.55447 0.0
C243 C 0.03905 0.41439 0.64039 0.0
C244 C 0.05017 0.33679 0.57764 0.0
C245 C 0.03261 0.31719 0.42362 0.0
N246 N 0.04406 0.39046 0.61315 0.0
N247 N 0.02755 0.34101 0.45176 0.0
H248 H 0.79325 0.95103 0.86737 0.0
H249 H 0.93481 0.0255 0.90514 0.0
H250 H 0.8136 0.99872 0.08586 0.0
H251 H 0.91069 0.97707 0.692 0.0
H252 H 0.89033 0.01845 0.97109 0.0
H253 H 0.83629 0.96229 0.80127 0.0
C254 C 0.80691 0.96386 0.90146 0.0
C255 C 0.79998 0.97386 0.98207 0.0
C256 C 0.89484 0.00954 0.90967 0.0
C257 C 0.84942 0.98701 0.90692 0.0
C258 C 0.92014 0.01365 0.8719 0.0
C259 C 0.92654 0.00163 0.79341 0.0
C260 C 0.87598 0.99343 0.8682 0.0
C261 C 0.90681 0.98645 0.75311 0.0
C262 C 0.83147 0.97037 0.86369 0.0
C263 C 0.81828 0.99053 0.02355 0.0
N264 N 0.88257 0.98273 0.79106 0.0
N265 N 0.84229 0.99657 0.98549 0.0
H266 H 0.53151 0.80336 0.07092 0.0
H267 H 0.56505 0.94374 0.93232 0.0
H268 H 0.61066 0.8288 -0.00856 0.0
H269 H 0.49626 0.89956 0.84768 0.0
H270 H 0.57988 0.90598 -0.0057 0.0
H271 H 0.51601 0.84344 0.02916 0.0
C272 C 0.54566 0.81757 0.04608 0.0
C273 C 0.57238 0.81294 0.03439 0.0
C274 C 0.56143 0.90474 0.9628 0.0
C275 C 0.55491 0.85856 0.98808 0.0
C276 C 0.55294 0.92617 0.92792 0.0
C277 C 0.52951 0.92453 0.88481 0.0
C278 C 0.54594 0.88189 0.95634 0.0
C279 C 0.51453 0.90142 0.88014 0.0
C280 C 0.5368 0.84027 0.02197 0.0
C281 C 0.5899 0.83178 0.00111 0.0
N282 N 0.52292 0.88095 0.91595 0.0
N283 N 0.58088 0.85391 0.97936 0.0
H284 H 0.71491 0.52352 0.87372 0.0
H285 H 0.56337 0.47211 0.87886 0.0
H286 H 0.67935 0.47788 0.07072 0.0
H287 H 0.60275 0.51645 0.68423 0.0
H288 H 0.60558 0.47102 0.94639 0.0
H289 H 0.67389 0.51869 0.80074 0.0
C290 C 0.69836 0.51244 0.90156 0.0
C291 C 0.70045 0.5012 0.97839 0.0
C292 C 0.60494 0.48077 0.8885 0.0
C293 C 0.65316 0.49553 0.89518 0.0
C294 C 0.5809 0.4813 0.84967 0.0
C295 C 0.57946 0.49459 0.77613 0.0
C296 C 0.62761 0.49359 0.85327 0.0
C297 C 0.60279 0.5062 0.7413 0.0
C298 C 0.67492 0.50962 0.85978 0.0
C299 C 0.67848 0.48693 0.01159 0.0
N300 N 0.62576 0.50554 0.78038 0.0
N301 N 0.65562 0.48459 0.9699 0.0
H302 H 0.9496 0.70315 0.77759 0.0
H303 H 0.02253 0.58039 0.86579 0.0
H304 H 0.98854 0.69469 0.00835 0.0
H305 H 0.95794 0.57801 0.69915 0.0
H306 H 0.01417 0.62413 0.90844 0.0
H307 H 0.95614 0.65866 0.73689 0.0
C308 C 0.95942 0.69187 0.81963 0.0
C309 C 0.96842 0.70244 0.89637 0.0
C310 C 0.00179 0.61397 0.86277 0.0
C311 C 0.97628 0.65207 0.8502 0.0
C312 C 0.00661 0.58908 0.83815 0.0
C313 C 0.99091 0.5756 0.77886 0.0
C314 C 0.98141 0.62554 0.82679 0.0
C315 C 0.97044 0.58771 0.74537 0.0
C316 C 0.96308 0.66658 0.79662 0.0
C317 C 0.98111 0.6872 0.9488 0.0
N318 N 0.96639 0.61212 0.76934 0.0
N319 N 0.98484 0.6628 0.92443 0.0
H320 H 0.0428 0.18496 0.50745 0.0
H321 H 0.95562 0.05382 0.49641 0.0
H322 H 0.97776 0.16798 0.34589 0.0
H323 H 0.02858 0.06741 0.62284 0.0
H324 H 0.95767 0.09863 0.46431 0.0
H325 H 0.03109 0.14557 0.57811 0.0
C326 C 0.02559 0.17328 0.48869 0.0
C327 C 0.01141 0.17941 0.42025 0.0
C328 C 0.97303 0.09183 0.50007 0.0
C329 C 0.99829 0.13425 0.49879 0.0
C330 C 0.9719 0.0663 0.51798 0.0
C331 C 0.99196 0.057 0.56211 0.0
C332 C 0.9944 0.10803 0.52646 0.0
C333 C 0.01261 0.07388 0.58906 0.0
C334 C 0.01906 0.15069 0.52826 0.0
C335 C 0.98937 0.16362 0.3978 0.0
N336 N 0.01337 0.09854 0.57046 0.0
N337 N 0.98371 0.14155 0.4361 0.0
H338 H 0.32052 0.00124 0.45702 0.0
H339 H 0.47387 0.00901 0.49222 0.0
H340 H 0.36934 0.06462 0.36487 0.0
H341 H 0.42284 0.98017 0.69473 0.0
H342 H 0.43546 0.02515 0.4304 0.0
H343 H 0.35729 0.9897 0.53699 0.0
C344 C 0.33869 0.01309 0.45501 0.0
C345 C 0.34194 0.03371 0.40289 0.0
C346 C 0.4328 0.01541 0.4887 0.0
C347 C 0.38422 0.01994 0.49131 0.0
C348 C 0.45462 0.00631 0.52383 0.0
C349 C 0.45151 0.99396 0.59953 0.0
C350 C 0.40772 0.01127 0.52835 0.0
C351 C 0.42606 0.98982 0.63642 0.0
C352 C 0.35973 0.00631 0.49997 0.0
C353 C 0.36616 0.04815 0.40228 0.0
N354 N 0.40505 0.9984 0.60029 0.0
N355 N 0.38655 0.04069 0.44432 0.0
H356 H 0.50621 0.31904 0.4085 0.0
H357 H 0.46316 0.45129 0.61106 0.0
H358 H 0.42608 0.34026 0.43549 0.0
H359 H 0.54266 0.43753 0.52415 0.0
H360 H 0.45018 0.40669 0.58327 0.0
H361 H 0.52031 0.35766 0.49027 0.0
C362 C 0.49147 0.33128 0.43529 0.0
C363 C 0.46497 0.32655 0.41625 0.0
C364 C 0.47055 0.4133 0.57122 0.0
C365 C 0.48091 0.37093 0.50653 0.0
C366 C 0.47801 0.43873 0.58751 0.0
C367 C 0.50405 0.44798 0.57026 0.0
C368 C 0.48922 0.39699 0.53669 0.0
C369 C 0.52235 0.43107 0.53776 0.0
C370 C 0.49954 0.35348 0.4806 0.0
C371 C 0.44664 0.34324 0.44995 0.0
N372 N 0.51455 0.40633 0.52149 0.0
N373 N 0.455 0.36492 0.49255 0.0
H374 H 0.18958 0.53669 0.43428 0.0
H375 H 0.04309 0.47295 0.44304 0.0
H376 H 0.1671 0.46646 0.29963 0.0
H377 H 0.06698 0.53788 0.60236 0.0
H378 H 0.08911 0.4692 0.39475 0.0
H379 H 0.14604 0.53551 0.50714 0.0
C380 C 0.17572 0.5207 0.42175 0.0
C381 C 0.18176 0.50183 0.36009 0.0
C382 C 0.08436 0.48421 0.44064 0.0
C383 C 0.1318 0.50069 0.44105 0.0
C384 C 0.05809 0.48648 0.46741 0.0
C385 C 0.05144 0.50575 0.52653 0.0
C386 C 0.10399 0.50153 0.47261 0.0
C387 C 0.0715 0.52262 0.55719 0.0
C388 C 0.15077 0.52015 0.4626 0.0
C389 C 0.16301 0.48162 0.34572 0.0
N390 N 0.09691 0.52022 0.52959 0.0
N391 N 0.13874 0.48177 0.38489 0.0
H392 H 0.03819 0.8371 0.01439 0.0
H393 H 0.98081 0.93856 0.74064 0.0
H394 H 0.97115 0.82137 0.86058 0.0
H395 H 0.05361 0.95205 0.86794 0.0
H396 H 0.98029 0.89397 0.76906 0.0
H397 H 0.04828 0.87679 0.94486 0.0
C398 C 0.02606 0.84175 0.9641 0.0
C399 C 0.0037 0.82618 0.94344 0.0
C400 C 0.99659 0.90653 0.79004 0.0
C401 C 0.0146 0.87176 0.86542 0.0
C402 C 0.9969 0.93203 0.77376 0.0
C403 C 0.01734 0.94895 0.80185 0.0
C404 C 0.01658 0.89792 0.83645 0.0
C405 C 0.03745 0.93958 0.84558 0.0
C406 C 0.03171 0.86445 0.92479 0.0
C407 C 0.98857 0.83291 0.8781 0.0
N408 N 0.03644 0.91467 0.86235 0.0
N409 N 0.994 0.85549 0.84245 0.0
H410 H 0.64147 0.95558 0.08463 0.0
H411 H 0.59387 0.03837 0.72571 0.0
H412 H 0.6942 0.00952 0.95551 0.0
H413 H 0.54282 0.01312 0.93352 0.0
H414 H 0.63107 0.02124 0.78974 0.0
H415 H 0.60518 0.96853 0.0057 0.0
C416 C 0.64549 0.9699 0.03884 0.0
C417 C 0.67083 0.98184 0.0278 0.0
C418 C 0.61171 0.0194 0.82112 0.0
C419 C 0.62947 0.9965 0.93709 0.0
C420 C 0.59054 0.02928 0.78509 0.0
C421 C 0.56524 0.02673 0.82414 0.0
C422 C 0.60745 0.00682 0.89638 0.0
C423 C 0.56195 0.01484 0.90069 0.0
C424 C 0.62477 0.9773 -0.00587 0.0
C425 C 0.67503 -0.0002 0.96607 0.0
N426 N 0.58283 0.00509 0.9342 0.0
N427 N 0.65447 0.00677 0.92343 0.0
H428 H 0.51265 0.6978 0.98129 0.0
H429 H 0.54646 0.56866 0.73525 0.0
H430 H 0.59102 0.67748 0.90536 0.0
H431 H 0.47128 0.58088 0.86253 0.0
H432 H 0.56006 0.61308 0.76232 0.0
H433 H 0.49457 0.66044 0.90063 0.0
C434 C 0.52597 0.68607 0.94424 0.0
C435 C 0.55329 0.69061 0.94922 0.0
C436 C 0.54048 0.60617 0.78362 0.0
C437 C 0.53298 0.64768 0.85975 0.0
C438 C 0.53267 0.5808 0.76818 0.0
C439 C 0.50774 0.5711 0.79721 0.0
C440 C 0.52338 0.62199 0.82946 0.0
C441 C 0.49075 0.58764 0.8398 0.0
C442 C 0.5157 0.66459 0.89941 0.0
C443 C 0.56983 0.67461 0.90222 0.0
N444 N 0.49898 0.61231 0.85544 0.0
N445 N 0.55942 0.65362 0.86034 0.0
H446 H 0.81788 0.46635 0.96191 0.0
H447 H 0.96601 0.52738 0.95316 0.0
H448 H 0.84457 0.53098 0.11833 0.0
H449 H 0.94059 0.46391 0.78979 0.0
H450 H 0.92059 0.53056 0.00746 0.0
H451 H 0.86132 0.46742 0.88714 0.0
C452 C 0.83274 0.48103 0.97923 0.0
C453 C 0.8279 0.4984 0.04681 0.0
C454 C 0.92483 0.51599 0.95939 0.0
C455 C 0.87745 0.49954 0.96329 0.0
C456 C 0.95078 0.51408 0.92898 0.0
C457 C 0.95684 0.49542 0.86695 0.0
C458 C 0.90488 0.49892 0.92808 0.0
C459 C 0.93648 0.47878 0.83691 0.0
C460 C 0.85754 0.48154 0.93719 0.0
C461 C 0.84775 0.51701 0.0673 0.0
N462 N 0.91134 0.48083 0.86803 0.0
N463 N 0.87171 0.51693 0.02633 0.0
H464 H 0.08206 0.18865 0.15646 0.0
H465 H 0.99706 0.11038 0.81313 0.0
H466 H 0.00459 0.2066 0.09318 0.0
H467 H 0.06399 0.08358 0.92851 0.0
H468 H 0.00638 0.15214 0.88236 0.0
H469 H 0.08317 0.15789 0.03611 0.0
C470 C 0.06584 0.18693 0.11449 0.0
C471 C 0.04323 0.20003 0.13384 0.0
C472 C 0.01919 0.13719 0.89171 0.0
C473 C 0.04379 0.1644 -0.00074 0.0
C474 C 0.01379 0.11337 0.85277 0.0
C475 C 0.02947 0.0935 0.86698 0.0
C476 C 0.04045 0.14108 0.9448 0.0
C477 C 0.05117 0.09836 0.9174 0.0
C478 C 0.06628 0.16916 0.04675 0.0
C479 C 0.0224 0.19687 0.07934 0.0
N480 N 0.0559 0.12165 0.95522 0.0
N481 N 0.02294 0.17895 0.01518 0.0
H482 H 0.315 0.00387 0.07827 0.0
H483 H 0.441 0.06669 0.83145 0.0
H484 H 0.34076 0.0824 0.11688 0.0
H485 H 0.43214 0.98871 0.89755 0.0
H486 H 0.39757 0.07339 0.89943 0.0
H487 H 0.34994 0.9993 0.96791 0.0
C488 C 0.32716 0.02044 0.06026 0.0
C489 C 0.32514 0.04353 0.10614 0.0
C490 C 0.40516 0.05483 0.89855 0.0
C491 C 0.3654 0.03832 0.98292 0.0
C492 C 0.42994 0.05101 0.86046 0.0
C493 C 0.44033 0.02722 0.86048 0.0
C494 C 0.39051 0.03456 0.93508 0.0
C495 C 0.42509 0.00748 0.8979 0.0
C496 C 0.34736 0.01773 -0.0014 0.0
C497 C 0.34173 0.06435 0.08218 0.0
N498 N 0.40089 0.01158 0.93364 0.0
N499 N 0.36154 0.06117 0.02294 0.0
H500 H 0.50131 0.32727 0.11806 0.0
H501 H 0.43739 0.41746 0.81512 0.0
H502 H 0.41739 0.32088 0.09129 0.0
H503 H 0.49864 0.44227 0.98435 0.0
H504 H 0.43317 0.37627 0.88081 0.0
H505 H 0.50501 0.36273 0.02495 0.0
C506 C 0.48384 0.33268 0.08932 0.0
C507 C 0.45907 0.32116 0.11119 0.0
C508 C 0.44741 0.39084 0.90334 0.0
C509 C 0.463 0.3619 0.0074 0.0
C510 C 0.44973 0.41427 0.86655 0.0
C511 C 0.46817 0.43324 0.89535 0.0
C512 C 0.46428 0.38631 0.96705 0.0
C513 C 0.48396 0.42822 0.96121 0.0
C514 C 0.48588 0.35309 0.03756 0.0
C515 C 0.43684 0.32918 0.07451 0.0
N516 N 0.48185 0.40511 -0.0057 0.0
N517 N 0.43925 0.34936 0.0247 0.0
H518 H 0.21575 0.54709 0.0568 0.0
H519 H 0.10041 0.46259 0.86429 0.0
H520 H 0.21065 0.46589 0.05768 0.0
H521 H 0.11762 0.5395 0.79454 0.0
H522 H 0.14414 0.46271 0.92025 0.0
H523 H 0.18524 0.54455 0.94186 0.0
C524 C 0.2093 0.5287 0.02954 0.0
C525 C 0.21559 0.50666 0.06647 0.0
C526 C 0.13861 0.4795 0.89167 0.0
C527 C 0.17982 0.50356 0.93854 0.0
C528 C 0.11355 0.47947 0.86033 0.0
C529 C 0.10535 0.50119 0.82616 0.0
C530 C 0.15542 0.50163 0.89059 0.0
C531 C 0.1232 0.52246 0.82136 0.0
C532 C 0.19156 0.52723 0.96483 0.0
C533 C 0.20625 0.48329 0.03046 0.0
N534 N 0.14727 0.52233 0.85477 0.0
N535 N 0.18828 0.48234 0.96998 0.0
H536 H 0.00903 0.79855 0.27491 0.0
H537 H 0.94414 0.92266 0.43904 0.0
H538 H 0.93315 0.81817 0.20177 0.0
H539 H 0.01253 0.89624 0.54699 0.0
H540 H 0.93586 0.88103 0.36865 0.0
H541 H 0.00633 0.82915 0.39523 0.0
C542 C 0.99126 0.80852 0.28681 0.0
C543 C 0.97124 0.80599 0.22931 0.0
C544 C 0.95251 0.88418 0.40855 0.0
C545 C 0.96852 0.84177 0.36311 0.0
C546 C 0.95733 0.908 0.44807 0.0
C547 C 0.97934 0.9129 0.49704 0.0
C548 C 0.97008 0.86532 0.4173 0.0
C549 C 0.9956 0.89324 0.50826 0.0
C550 C 0.98982 0.82621 0.35471 0.0
C551 C 0.94886 0.81963 0.24558 0.0
N552 N 0.99087 0.87037 0.46758 0.0
N553 N 0.94834 0.83742 0.31005 0.0
H554 H 0.69887 0.02158 0.3305 0.0
H555 H 0.58026 0.95756 0.60814 0.0
H556 H 0.68252 0.94103 0.33376 0.0
H557 H 0.58246 0.0328 0.51683 0.0
H558 H 0.62435 0.95262 0.54291 0.0
H559 H 0.66443 0.02725 0.4417 0.0
C560 C 0.68899 0.00506 0.35813 0.0
C561 C 0.69345 0.98083 0.32371 0.0
C562 C 0.61516 0.97021 0.53763 0.0
C563 C 0.65351 0.98711 0.4474 0.0
C564 C 0.58997 0.973 0.57414 0.0
C565 C 0.57748 0.99545 0.56634 0.0
C566 C 0.62809 0.99019 0.49444 0.0
C567 C 0.5911 0.01496 0.52271 0.0
C568 C 0.669 0.00829 0.42019 0.0
C569 C 0.67969 0.95998 0.35964 0.0
N570 N 0.61568 0.01187 0.48838 0.0
N571 N 0.65989 0.96359 0.41864 0.0
H572 H 0.5494 0.70956 0.32154 0.0
H573 H 0.57699 0.56773 0.40272 0.0
H574 H 0.60823 0.66808 0.18021 0.0
H575 H 0.52382 0.61172 0.5599 0.0
H576 H 0.5929 0.60606 0.33167 0.0
H577 H 0.54504 0.67664 0.42416 0.0
C578 C 0.56203 0.69394 0.31372 0.0
C579 C 0.5789 0.69128 0.24184 0.0
C580 C 0.57791 0.60739 0.38221 0.0
C581 C 0.57345 0.65321 0.35698 0.0
C582 C 0.56875 0.5855 0.4223 0.0
C583 C 0.54881 0.5866 0.48601 0.0
C584 C 0.56687 0.63043 0.40585 0.0
C585 C 0.53898 0.61006 0.51002 0.0
C586 C 0.55933 0.67498 0.37171 0.0
C587 C 0.59467 0.67057 0.23427 0.0
N588 N 0.54792 0.63102 0.46935 0.0
N589 N 0.5912 0.65206 0.29017 0.0
H590 H 0.79186 0.4533 0.34026 0.0
H591 H 0.90696 0.53798 0.52685 0.0
H592 H 0.79365 0.53448 0.34914 0.0
H593 H 0.89021 0.46156 0.60218 0.0
H594 H 0.86272 0.5376 0.47416 0.0
H595 H 0.8229 0.45573 0.45351 0.0
C596 C 0.79762 0.47159 0.36963 0.0
C597 C 0.79022 0.49373 0.33576 0.0
C598 C 0.86849 0.521 0.50334 0.0
C599 C 0.8268 0.49678 0.46135 0.0
C600 C 0.89384 0.52117 0.53272 0.0
C601 C 0.90228 0.49965 0.56758 0.0
C602 C 0.85164 0.49893 0.50708 0.0
C603 C 0.88444 0.47845 0.57481 0.0
C604 C 0.81571 0.47303 0.43328 0.0
C605 C 0.7988 0.51701 0.37417 0.0
N606 N 0.86009 0.47843 0.54328 0.0
N607 N 0.81727 0.51798 0.43321 0.0
loop_
_geom_bond_atom_site_label_1
_geom_bond_atom_site_label_2
_geom_bond_distance
_geom_bond_site_symmetry_2
_ccdc_geom_bond_type
H0 C5 0.930 . S
H1 C8 0.917 1_556 S
H2 C10 0.930 . S
H3 C4 1.016 1_556 S
C4 H3 1.016 1_554 S
C4 N11 1.286 . S
C5 H0 0.930 . S
C5 C6 1.397 . S
C5 C7 1.361 . S
C6 C5 1.397 . S
C6 C10 1.390 . S
C7 C5 1.361 . S
C7 C8 1.404 . S
C7 N11 1.413 . S
C8 H1 0.917 1_554 S
C8 C7 1.404 . S
C8 C9 1.401 . S
C9 C8 1.401 . S
C9 C10 1.381 . S
C10 H2 0.930 . S
C10 C6 1.390 . S
C10 C9 1.381 . S
N11 C4 1.286 . S
N11 C7 1.413 . S
H12 C17 0.930 . S
H13 C20 0.930 . S
H14 C22 0.930 . S
H15 C16 1.016 . S
C16 H15 1.016 . S
C16 N23 1.286 1_556 S
C17 H12 0.930 . S
C17 C18 1.397 . S
C17 C19 1.361 . S
C18 C17 1.397 . S
C18 C22 1.390 . S
C19 C17 1.361 . S
C19 C20 1.393 1_554 S
C19 N23 1.413 . S
C20 H13 0.930 . S
C20 C19 1.393 1_556 S
C20 C21 1.399 . S
C21 C20 1.399 . S
C21 C22 1.381 1_556 S
C22 H14 0.930 . S
C22 C18 1.390 . S
C22 C21 1.381 1_554 S
N23 C16 1.286 1_554 S
N23 C19 1.413 . S
H24 C29 0.930 . S
H25 C32 0.930 1_556 S
H26 C34 0.930 . S
H27 C28 1.016 1_556 S
C28 H27 1.016 1_554 S
C28 N35 1.286 . S
C29 H24 0.930 . S
C29 C30 1.397 . S
C29 C31 1.361 . S
C30 C29 1.397 . S
C30 C34 1.390 . S
C31 C29 1.361 . S
C31 C32 1.393 . S
C31 N35 1.413 . S
C32 H25 0.930 1_554 S
C32 C31 1.393 . S
C32 C33 1.399 . S
C33 C32 1.399 . S
C33 C34 1.381 . S
C34 H26 0.930 . S
C34 C30 1.390 . S
C34 C33 1.381 . S
N35 C28 1.286 . S
N35 C31 1.413 . S
H36 C41 0.930 . S
H37 C44 0.930 1_556 S
H38 C46 0.930 . S
H39 C40 1.016 1_556 S
C40 H39 1.016 1_554 S
C40 N47 1.286 . S
C41 H36 0.930 . S
C41 C42 1.397 . S
C41 C43 1.361 . S
C42 C41 1.397 . S
C42 C46 1.390 . S
C43 C41 1.361 . S
C43 C44 1.393 . S
C43 N47 1.413 . S
C44 H37 0.930 1_554 S
C44 C43 1.393 . S
C44 C45 1.399 . S
C45 C44 1.399 . S
C45 C46 1.381 . S
C46 H38 0.930 . S
C46 C42 1.390 . S
C46 C45 1.381 . S
N47 C40 1.286 . S
N47 C43 1.413 . S
H48 C53 0.930 . S
H49 C56 0.930 . S
H50 C58 0.930 . S
H51 C52 1.016 . S
C52 H51 1.016 . S
C52 N59 1.286 . S
C53 H48 0.930 . S
C53 C54 1.397 . S
C53 C55 1.361 . S
C54 C53 1.397 . S
C54 C58 1.390 . S
C55 C53 1.361 . S
C55 C56 1.393 . S
C55 N59 1.413 . S
C56 H49 0.930 . S
C56 C55 1.393 . S
C56 C57 1.399 . S
C57 C56 1.399 . S
C57 C58 1.381 . S
C58 H50 0.930 . S
C58 C54 1.390 . S
C58 C57 1.381 . S
N59 C52 1.286 . S
N59 C55 1.413 . S
H60 C65 0.930 . S
H61 C68 0.930 . S
H62 C70 0.930 . S
H63 C64 1.016 . S
C64 H63 1.016 . S
C64 N71 1.286 . S
C65 H60 0.930 . S
C65 C66 1.397 . S
C65 C67 1.361 . S
C66 C65 1.397 . S
C66 C70 1.390 . S
C67 C65 1.361 . S
C67 C68 1.393 . S
C67 N71 1.413 . S
C68 H61 0.930 . S
C68 C67 1.393 . S
C68 C69 1.399 . S
C69 C68 1.399 . S
C69 C70 1.381 . S
C70 H62 0.930 . S
C70 C66 1.390 . S
C70 C69 1.381 . S
N71 C64 1.286 . S
N71 C67 1.413 . S
H72 C77 0.930 . S
H73 C80 0.930 . S
H74 C82 0.930 . S
H75 C76 1.016 . S
C76 H75 1.016 . S
C76 N83 1.286 . S
C77 H72 0.930 . S
C77 C78 1.397 . S
C77 C79 1.361 . S
C78 C77 1.397 . S
C78 C82 1.390 . S
C79 C77 1.361 . S
C79 C80 1.393 . S
C79 N83 1.413 . S
C80 H73 0.930 . S
C80 C79 1.393 . S
C80 C81 1.399 . S
C81 C80 1.399 . S
C81 C82 1.381 . S
C82 H74 0.930 . S
C82 C78 1.390 . S
C82 C81 1.381 . S
N83 C76 1.286 . S
N83 C79 1.413 . S
H84 C89 0.930 . S
H85 C92 0.930 . S
H86 C94 0.930 . S
H87 C88 1.016 . S
C88 H87 1.016 . S
C88 N95 1.286 . S
C89 H84 0.930 . S
C89 C90 1.397 . S
C89 C91 1.361 . S
C90 C89 1.397 . S
C90 C94 1.390 . S
C91 C89 1.361 . S
C91 C92 1.393 . S
C91 N95 1.413 . S
C92 H85 0.930 . S
C92 C91 1.393 . S
C92 C93 1.399 . S
C93 C92 1.399 . S
C93 C94 1.381 . S
C94 H86 0.930 . S
C94 C90 1.390 . S
C94 C93 1.381 . S
N95 C88 1.286 . S
N95 C91 1.413 . S
Tb96 O99 2.453 1_565 S
Tb96 O100 2.596 1_665 S
Tb96 O101 2.374 1_665 S
Tb96 O109 2.343 1_655 S
Tb96 O111 2.353 1_565 S
Tb96 O113 2.427 . S
Tb96 O114 2.513 1_655 S
C97 O101 1.258 . S
C97 O103 1.263 . S
Tb98 O100 2.343 . S
Tb98 O103 2.353 . S
Tb98 O106 2.427 . S
Tb98 O107 2.512 . S
Tb98 O108 2.453 1_545 S
Tb98 O109 2.596 1_545 S
Tb98 O110 2.374 1_455 S
O99 Tb96 2.453 1_545 S
O99 C115 1.245 1_655 S
O100 Tb96 2.596 1_445 S
O100 Tb98 2.343 . S
O100 C115 1.259 . S
O101 Tb96 2.374 1_445 S
O101 C97 1.258 . S
C102 O106 1.275 . S
C102 O107 1.245 . S
O103 C97 1.263 . S
O103 Tb98 2.353 . S
C104 O108 1.245 . S
C104 O109 1.259 . S
C105 O110 1.250 . S
C105 O111 1.263 . S
O106 Tb98 2.427 . S
O106 C102 1.275 . S
O107 Tb98 2.512 . S
O107 C102 1.245 . S
O108 Tb98 2.453 1_565 S
O108 C104 1.245 . S
O109 Tb96 2.343 1_455 S
O109 Tb98 2.596 1_565 S
O109 C104 1.259 . S
O110 Tb98 2.374 1_655 S
O110 C105 1.250 . S
O111 Tb96 2.353 1_545 S
O111 C105 1.263 . S
C112 O113 1.275 . S
C112 O114 1.246 1_655 S
O113 Tb96 2.427 . S
O113 C112 1.275 . S
O114 Tb96 2.513 1_455 S
O114 C112 1.246 1_455 S
C115 O99 1.245 1_455 S
C115 O100 1.259 . S
Tb116 O119 2.453 . S
Tb116 O120 2.596 1_545 S
Tb116 O121 2.374 . S
Tb116 O129 2.343 . S
Tb116 O131 2.353 . S
Tb116 O133 2.427 . S
Tb116 O134 2.513 . S
C117 O121 1.251 1_565 S
C117 O123 1.263 . S
Tb118 O120 2.343 . S
Tb118 O123 2.353 . S
Tb118 O126 2.427 . S
Tb118 O127 2.513 . S
Tb118 O128 2.453 . S
Tb118 O129 2.596 1_565 S
Tb118 O130 2.374 . S
O119 Tb116 2.453 . S
O119 C135 1.245 . S
O120 Tb116 2.596 1_565 S
O120 Tb118 2.343 . S
O120 C135 1.259 1_565 S
O121 Tb116 2.374 . S
O121 C117 1.251 1_545 S
C122 O126 1.275 . S
C122 O127 1.246 . S
O123 C117 1.263 . S
O123 Tb118 2.353 . S
C124 O128 1.245 1_545 S
C124 O129 1.259 . S
C125 O130 1.250 1_545 S
C125 O131 1.263 . S
O126 Tb118 2.427 . S
O126 C122 1.275 . S
O127 Tb118 2.513 . S
O127 C122 1.246 . S
O128 Tb118 2.453 . S
O128 C124 1.245 1_565 S
O129 Tb116 2.343 . S
O129 Tb118 2.596 1_545 S
O129 C124 1.259 . S
O130 Tb118 2.374 . S
O130 C125 1.250 1_565 S
O131 Tb116 2.353 . S
O131 C125 1.263 . S
C132 O133 1.275 . S
C132 O134 1.246 . S
O133 Tb116 2.427 . S
O133 C132 1.275 . S
O134 Tb116 2.513 . S
O134 C132 1.246 . S
C135 O119 1.245 . S
C135 O120 1.259 1_545 S
Tb136 O139 2.453 . S
Tb136 O140 2.596 . S
Tb136 O141 2.374 . S
Tb136 O149 2.343 . S
Tb136 O151 2.353 . S
Tb136 O153 2.427 . S
Tb136 O154 2.513 . S
C137 O141 1.251 . S
C137 O143 1.263 . S
Tb138 O140 2.343 . S
Tb138 O143 2.353 . S
Tb138 O146 2.427 . S
Tb138 O147 2.513 . S
Tb138 O148 2.453 . S
Tb138 O149 2.596 . S
Tb138 O150 2.374 . S
O139 Tb136 2.453 . S
O139 C155 1.245 . S
O140 Tb136 2.596 . S
O140 Tb138 2.343 . S
O140 C155 1.259 . S
O141 Tb136 2.374 . S
O141 C137 1.251 . S
C142 O146 1.275 . S
C142 O147 1.246 . S
O143 C137 1.263 . S
O143 Tb138 2.353 . S
C144 O148 1.245 . S
C144 O149 1.259 . S
C145 O150 1.250 . S
C145 O151 1.263 . S
O146 Tb138 2.427 . S
O146 C142 1.275 . S
O147 Tb138 2.513 . S
O147 C142 1.246 . S
O148 Tb138 2.453 . S
O148 C144 1.245 . S
O149 Tb136 2.343 . S
O149 Tb138 2.596 . S
O149 C144 1.259 . S
O150 Tb138 2.374 . S
O150 C145 1.250 . S
O151 Tb136 2.353 . S
O151 C145 1.263 . S
C152 O153 1.275 . S
C152 O154 1.246 . S
O153 Tb136 2.427 . S
O153 C152 1.275 . S
O154 Tb136 2.513 . S
O154 C152 1.246 . S
C155 O139 1.245 . S
C155 O140 1.259 . S
Tb156 O159 2.453 1_655 S
Tb156 O160 2.596 1_655 S
Tb156 O161 2.374 1_655 S
Tb156 O169 2.343 . S
Tb156 O171 2.353 1_655 S
Tb156 O173 2.427 . S
Tb156 O174 2.513 . S
C157 O161 1.251 . S
C157 O163 1.263 . S
Tb158 O160 2.343 . S
Tb158 O163 2.353 . S
Tb158 O166 2.427 . S
Tb158 O167 2.513 . S
Tb158 O168 2.453 1_455 S
Tb158 O169 2.596 1_455 S
Tb158 O170 2.374 . S
O159 Tb156 2.453 1_455 S
O159 C175 1.245 . S
O160 Tb156 2.596 1_455 S
O160 Tb158 2.343 . S
O160 C175 1.259 . S
O161 Tb156 2.374 1_455 S
O161 C157 1.251 . S
C162 O166 1.275 . S
C162 O167 1.246 . S
O163 C157 1.263 . S
O163 Tb158 2.353 . S
C164 O168 1.245 . S
C164 O169 1.259 . S
C165 O170 1.250 . S
C165 O171 1.263 . S
O166 Tb158 2.427 . S
O166 C162 1.275 . S
O167 Tb158 2.513 . S
O167 C162 1.246 . S
O168 Tb158 2.453 1_655 S
O168 C164 1.245 . S
O169 Tb156 2.343 . S
O169 Tb158 2.596 1_655 S
O169 C164 1.259 . S
O170 Tb158 2.374 . S
O170 C165 1.250 . S
O171 Tb156 2.353 1_455 S
O171 C165 1.263 . S
C172 O173 1.275 . S
C172 O174 1.246 . S
O173 Tb156 2.427 . S
O173 C172 1.275 . S
O174 Tb156 2.513 . S
O174 C172 1.246 . S
C175 O159 1.245 . S
C175 O160 1.259 . S
H176 C182 0.930 . S
H177 C186 0.956 . S
H178 C191 0.929 . S
H179 C189 0.929 . S
H180 C184 0.929 1_565 S
H181 C190 0.929 . S
C182 H176 0.930 . S
C182 C183 1.367 . S
C182 C190 1.378 . S
C183 C182 1.367 . S
C183 C191 1.433 . S
C184 H180 0.929 1_545 S
C184 C186 1.373 1_545 S
C184 C188 1.350 . S
C185 C188 1.463 . S
C185 C190 1.350 . S
C185 N193 1.427 . S
C186 H177 0.956 . S
C186 C184 1.373 1_565 S
C186 C187 1.346 1_565 S
C187 C186 1.346 1_545 S
C187 C189 1.433 . S
C188 C184 1.350 . S
C188 C185 1.463 . S
C188 N192 1.427 . S
C189 H179 0.929 . S
C189 C187 1.433 . S
C189 N192 1.384 . S
C190 H181 0.929 . S
C190 C182 1.378 . S
C190 C185 1.350 . S
C191 H178 0.929 . S
C191 C183 1.433 . S
C191 N193 1.384 . S
N192 C188 1.427 . S
N192 C189 1.384 . S
N193 C185 1.427 . S
N193 C191 1.384 . S
H194 C200 0.930 . S
H195 C204 0.930 . S
H196 C209 0.929 . S
H197 C207 0.929 . S
H198 C202 0.929 . S
H199 C208 0.929 . S
C200 H194 0.930 . S
C200 C201 1.367 . S
C200 C208 1.378 . S
C201 C200 1.367 . S
C201 C209 1.433 . S
C202 H198 0.929 . S
C202 C204 1.378 . S
C202 C206 1.350 . S
C203 C206 1.463 . S
C203 C208 1.350 . S
C203 N211 1.427 . S
C204 H195 0.930 . S
C204 C202 1.378 . S
C204 C205 1.367 . S
C205 C204 1.367 . S
C205 C207 1.433 . S
C206 C202 1.350 . S
C206 C203 1.463 . S
C206 N210 1.427 . S
C207 H197 0.929 . S
C207 C205 1.433 . S
C207 N210 1.384 . S
C208 H199 0.929 . S
C208 C200 1.378 . S
C208 C203 1.350 . S
C209 H196 0.929 . S
C209 C201 1.433 . S
C209 N211 1.384 . S
N210 C206 1.427 . S
N210 C207 1.384 . S
N211 C203 1.427 . S
N211 C209 1.384 . S
H212 C218 0.930 . S
H213 C222 0.930 . S
H214 C227 0.929 . S
H215 C225 0.929 . S
H216 C220 0.929 . S
H217 C226 0.929 . S
C218 H212 0.930 . S
C218 C219 1.367 . S
C218 C226 1.378 . S
C219 C218 1.367 . S
C219 C227 1.433 . S
C220 H216 0.929 . S
C220 C222 1.378 . S
C220 C224 1.350 . S
C221 C224 1.463 . S
C221 C226 1.350 . S
C221 N229 1.427 . S
C222 H213 0.930 . S
C222 C220 1.378 . S
C222 C223 1.367 . S
C223 C222 1.367 . S
C223 C225 1.433 . S
C224 C220 1.350 . S
C224 C221 1.463 . S
C224 N228 1.427 . S
C225 H215 0.929 . S
C225 C223 1.433 . S
C225 N228 1.384 . S
C226 H217 0.929 . S
C226 C218 1.378 . S
C226 C221 1.350 . S
C227 H214 0.929 . S
C227 C219 1.433 . S
C227 N229 1.384 . S
N228 C224 1.427 . S
N228 C225 1.384 . S
N229 C221 1.427 . S
N229 C227 1.384 . S
H230 C236 0.930 . S
H231 C240 0.943 . S
H232 C245 0.929 . S
H233 C243 0.929 . S
H234 C238 0.929 1_655 S
H235 C244 0.929 . S
C236 H230 0.930 . S
C236 C237 1.367 . S
C236 C244 1.378 . S
C237 C236 1.367 . S
C237 C245 1.433 . S
C238 H234 0.929 1_455 S
C238 C240 1.374 1_455 S
C238 C242 1.350 . S
C239 C242 1.463 . S
C239 C244 1.350 . S
C239 N247 1.427 . S
C240 H231 0.943 . S
C240 C238 1.374 1_655 S
C240 C241 1.358 1_655 S
C241 C240 1.358 1_455 S
C241 C243 1.433 . S
C242 C238 1.350 . S
C242 C239 1.463 . S
C242 N246 1.427 . S
C243 H233 0.929 . S
C243 C241 1.433 . S
C243 N246 1.384 . S
C244 H235 0.929 . S
C244 C236 1.378 . S
C244 C239 1.350 . S
C245 H232 0.929 . S
C245 C237 1.433 . S
C245 N247 1.384 . S
N246 C242 1.427 . S
N246 C243 1.384 . S
N247 C239 1.427 . S
N247 C245 1.384 . S
H248 C254 0.930 . S
H249 C258 0.918 1_545 S
H250 C263 0.929 . S
H251 C261 0.929 . S
H252 C256 0.929 . S
H253 C262 0.929 . S
C254 H248 0.930 . S
C254 C255 1.367 . S
C254 C262 1.378 . S
C255 C254 1.367 . S
C255 C263 1.433 1_556 S
C256 H252 0.929 . S
C256 C258 1.387 . S
C256 C260 1.350 . S
C257 C260 1.463 . S
C257 C262 1.350 . S
C257 N265 1.427 . S
C258 H249 0.918 1_565 S
C258 C256 1.387 . S
C258 C259 1.372 . S
C259 C258 1.372 . S
C259 C261 1.433 . S
C260 C256 1.350 . S
C260 C257 1.463 . S
C260 N264 1.427 . S
C261 H251 0.929 . S
C261 C259 1.433 . S
C261 N264 1.384 . S
C262 H253 0.929 . S
C262 C254 1.378 . S
C262 C257 1.350 . S
C263 H250 0.929 . S
C263 C255 1.433 1_554 S
C263 N265 1.384 1_554 S
N264 C260 1.427 . S
N264 C261 1.384 . S
N265 C257 1.427 . S
N265 C263 1.384 1_556 S
H266 C272 0.930 . S
H267 C276 0.930 . S
H268 C281 0.929 . S
H269 C279 0.929 . S
H270 C274 0.929 . S
H271 C280 0.929 . S
C272 H266 0.930 . S
C272 C273 1.367 1_556 S
C272 C280 1.378 . S
C273 C272 1.367 1_554 S
C273 C281 1.433 . S
C274 H270 0.929 . S
C274 C276 1.378 . S
C274 C278 1.350 . S
C275 C278 1.463 . S
C275 C280 1.350 . S
C275 N283 1.427 . S
C276 H267 0.930 . S
C276 C274 1.378 . S
C276 C277 1.367 . S
C277 C276 1.367 . S
C277 C279 1.433 . S
C278 C274 1.350 . S
C278 C275 1.463 . S
C278 N282 1.427 . S
C279 H269 0.929 . S
C279 C277 1.433 . S
C279 N282 1.384 . S
C280 H271 0.929 . S
C280 C272 1.378 . S
C280 C275 1.350 . S
C281 H268 0.929 . S
C281 C273 1.433 . S
C281 N283 1.384 1_554 S
N282 C278 1.427 . S
N282 C279 1.384 . S
N283 C275 1.427 . S
N283 C281 1.384 1_556 S
H284 C290 0.930 . S
H285 C294 0.930 . S
H286 C299 0.929 . S
H287 C297 0.929 . S
H288 C292 0.929 . S
H289 C298 0.929 . S
C290 H284 0.930 . S
C290 C291 1.367 . S
C290 C298 1.378 . S
C291 C290 1.367 . S
C291 C299 1.433 1_556 S
C292 H288 0.929 . S
C292 C294 1.378 . S
C292 C296 1.350 . S
C293 C296 1.463 . S
C293 C298 1.350 . S
C293 N301 1.440 . S
C294 H285 0.930 . S
C294 C292 1.378 . S
C294 C295 1.367 . S
C295 C294 1.367 . S
C295 C297 1.433 . S
C296 C292 1.350 . S
C296 C293 1.463 . S
C296 N300 1.427 . S
C297 H287 0.929 . S
C297 C295 1.433 . S
C297 N300 1.384 . S
C298 H289 0.929 . S
C298 C290 1.378 . S
C298 C293 1.350 . S
C299 H286 0.929 . S
C299 C291 1.433 1_554 S
C299 N301 1.377 1_554 S
N300 C296 1.427 . S
N300 C297 1.384 . S
N301 C293 1.440 . S
N301 C299 1.377 1_556 S
H302 C308 0.930 . S
H303 C312 0.940 . S
H304 C317 0.929 1_554 S
H305 C315 0.929 . S
H306 C310 0.929 . S
H307 C316 0.929 . S
C308 H302 0.930 . S
C308 C309 1.367 . S
C308 C316 1.378 . S
C309 C308 1.367 . S
C309 C317 1.433 . S
C310 H306 0.929 . S
C310 C312 1.378 . S
C310 C314 1.350 . S
C311 C314 1.463 . S
C311 C316 1.350 . S
C311 N319 1.427 . S
C312 H303 0.940 . S
C312 C310 1.378 . S
C312 C313 1.367 . S
C313 C312 1.367 . S
C313 C315 1.433 . S
C314 C310 1.350 . S
C314 C311 1.463 . S
C314 N318 1.427 . S
C315 H305 0.929 . S
C315 C313 1.433 . S
C315 N318 1.384 . S
C316 H307 0.929 . S
C316 C308 1.378 . S
C316 C311 1.350 . S
C317 H304 0.929 1_556 S
C317 C309 1.433 . S
C317 N319 1.384 . S
N318 C314 1.427 . S
N318 C315 1.384 . S
N319 C311 1.427 . S
N319 C317 1.384 . S
H320 C326 0.930 . S
H321 C330 0.930 . S
H322 C335 0.929 . S
H323 C333 0.929 . S
H324 C328 0.929 . S
H325 C334 0.929 . S
C326 H320 0.930 . S
C326 C327 1.367 . S
C326 C334 1.378 . S
C327 C326 1.367 . S
C327 C335 1.433 . S
C328 H324 0.929 . S
C328 C330 1.378 . S
C328 C332 1.350 . S
C329 C332 1.463 . S
C329 C334 1.350 . S
C329 N337 1.427 . S
C330 H321 0.930 . S
C330 C328 1.378 . S
C330 C331 1.367 . S
C331 C330 1.367 . S
C331 C333 1.433 . S
C332 C328 1.350 . S
C332 C329 1.463 . S
C332 N336 1.427 . S
C333 H323 0.929 . S
C333 C331 1.433 . S
C333 N336 1.384 . S
C334 H325 0.929 . S
C334 C326 1.378 . S
C334 C329 1.350 . S
C335 H322 0.929 . S
C335 C327 1.433 . S
C335 N337 1.384 . S
N336 C332 1.427 . S
N336 C333 1.384 . S
N337 C329 1.427 . S
N337 C335 1.384 . S
H338 C344 0.930 . S
H339 C348 0.930 . S
H340 C353 0.929 . S
H341 C351 0.929 . S
H342 C346 0.929 . S
H343 C352 0.929 . S
C344 H338 0.930 . S
C344 C345 1.367 . S
C344 C352 1.378 . S
C345 C344 1.367 . S
C345 C353 1.433 . S
C346 H342 0.929 . S
C346 C348 1.378 . S
C346 C350 1.350 . S
C347 C350 1.463 . S
C347 C352 1.350 . S
C347 N355 1.427 . S
C348 H339 0.930 . S
C348 C346 1.378 . S
C348 C349 1.367 . S
C349 C348 1.367 . S
C349 C351 1.433 . S
C350 C346 1.350 . S
C350 C347 1.463 . S
C350 N354 1.427 . S
C351 H341 0.929 . S
C351 C349 1.433 . S
C351 N354 1.384 . S
C352 H343 0.929 . S
C352 C344 1.378 . S
C352 C347 1.350 . S
C353 H340 0.929 . S
C353 C345 1.433 . S
C353 N355 1.384 . S
N354 C350 1.427 . S
N354 C351 1.384 . S
N355 C347 1.427 . S
N355 C353 1.384 . S
H356 C362 0.930 . S
H357 C366 0.930 . S
H358 C371 0.929 . S
H359 C369 0.929 . S
H360 C364 0.929 . S
H361 C370 0.929 . S
C362 H356 0.930 . S
C362 C363 1.367 . S
C362 C370 1.378 . S
C363 C362 1.367 . S
C363 C371 1.433 . S
C364 H360 0.929 . S
C364 C366 1.378 . S
C364 C368 1.350 . S
C365 C368 1.463 . S
C365 C370 1.350 . S
C365 N373 1.427 . S
C366 H357 0.930 . S
C366 C364 1.378 . S
C366 C367 1.367 . S
C367 C366 1.367 . S
C367 C369 1.433 . S
C368 C364 1.350 . S
C368 C365 1.463 . S
C368 N372 1.427 . S
C369 H359 0.929 . S
C369 C367 1.433 . S
C369 N372 1.384 . S
C370 H361 0.929 . S
C370 C362 1.378 . S
C370 C365 1.350 . S
C371 H358 0.929 . S
C371 C363 1.433 . S
C371 N373 1.384 . S
N372 C368 1.427 . S
N372 C369 1.384 . S
N373 C365 1.427 . S
N373 C371 1.384 . S
H374 C380 0.930 . S
H375 C384 0.930 . S
H376 C389 0.929 . S
H377 C387 0.929 . S
H378 C382 0.929 . S
H379 C388 0.929 . S
C380 H374 0.930 . S
C380 C381 1.367 . S
C380 C388 1.378 . S
C381 C380 1.367 . S
C381 C389 1.433 . S
C382 H378 0.929 . S
C382 C384 1.378 . S
C382 C386 1.350 . S
C383 C386 1.463 . S
C383 C388 1.350 . S
C383 N391 1.427 . S
C384 H375 0.930 . S
C384 C382 1.378 . S
C384 C385 1.367 . S
C385 C384 1.367 . S
C385 C387 1.433 . S
C386 C382 1.350 . S
C386 C383 1.463 . S
C386 N390 1.427 . S
C387 H377 0.929 . S
C387 C385 1.433 . S
C387 N390 1.384 . S
C388 H379 0.929 . S
C388 C380 1.378 . S
C388 C383 1.350 . S
C389 H376 0.929 . S
C389 C381 1.433 . S
C389 N391 1.384 . S
N390 C386 1.427 . S
N390 C387 1.384 . S
N391 C383 1.427 . S
N391 C389 1.384 . S
H392 C398 0.930 1_554 S
H393 C402 0.930 . S
H394 C407 0.929 . S
H395 C405 0.929 . S
H396 C400 0.929 . S
H397 C406 0.929 . S
C398 H392 0.930 1_556 S
C398 C399 1.367 . S
C398 C406 1.378 . S
C399 C398 1.367 . S
C399 C407 1.433 . S
C400 H396 0.929 . S
C400 C402 1.378 . S
C400 C404 1.350 . S
C401 C404 1.463 . S
C401 C406 1.350 . S
C401 N409 1.427 . S
C402 H393 0.930 . S
C402 C400 1.378 . S
C402 C403 1.367 . S
C403 C402 1.367 . S
C403 C405 1.433 . S
C404 C400 1.350 . S
C404 C401 1.463 . S
C404 N408 1.427 . S
C405 H395 0.929 . S
C405 C403 1.433 . S
C405 N408 1.384 . S
C406 H397 0.929 . S
C406 C398 1.378 . S
C406 C401 1.350 . S
C407 H394 0.929 . S
C407 C399 1.433 . S
C407 N409 1.384 . S
N408 C404 1.427 . S
N408 C405 1.384 . S
N409 C401 1.427 . S
N409 C407 1.384 . S
H410 C416 0.930 . S
H411 C420 0.930 . S
H412 C425 0.904 1_545 S
H413 C423 0.929 . S
H414 C418 0.929 . S
H415 C424 0.929 . S
C416 H410 0.930 . S
C416 C417 1.367 . S
C416 C424 1.378 . S
C417 C416 1.367 . S
C417 C425 1.433 . S
C418 H414 0.929 . S
C418 C420 1.378 . S
C418 C422 1.350 1_545 S
C419 C422 1.463 . S
C419 C424 1.350 . S
C419 N427 1.427 . S
C420 H411 0.930 . S
C420 C418 1.378 . S
C420 C421 1.367 1_545 S
C421 C420 1.367 1_565 S
C421 C423 1.433 . S
C422 C418 1.350 1_565 S
C422 C419 1.463 . S
C422 N426 1.427 . S
C423 H413 0.929 . S
C423 C421 1.433 . S
C423 N426 1.384 . S
C424 H415 0.929 . S
C424 C416 1.378 . S
C424 C419 1.350 . S
C425 H412 0.904 1_565 S
C425 C417 1.433 . S
C425 N427 1.384 . S
N426 C422 1.427 . S
N426 C423 1.384 . S
N427 C419 1.427 . S
N427 C425 1.384 . S
H428 C434 0.930 . S
H429 C438 0.930 . S
H430 C443 0.929 . S
H431 C441 0.929 . S
H432 C436 0.929 . S
H433 C442 0.929 1_554 S
C434 H428 0.930 . S
C434 C435 1.367 1_554 S
C434 C442 1.378 1_554 S
C435 C434 1.367 1_556 S
C435 C443 1.433 . S
C436 H432 0.929 . S
C436 C438 1.378 . S
C436 C440 1.350 . S
C437 C440 1.463 . S
C437 C442 1.350 . S
C437 N445 1.427 . S
C438 H429 0.930 . S
C438 C436 1.378 . S
C438 C439 1.367 . S
C439 C438 1.367 . S
C439 C441 1.433 . S
C440 C436 1.350 . S
C440 C437 1.463 . S
C440 N444 1.427 . S
C441 H431 0.929 . S
C441 C439 1.433 . S
C441 N444 1.384 . S
C442 H433 0.929 1_556 S
C442 C434 1.378 1_556 S
C442 C437 1.350 . S
C443 H430 0.929 . S
C443 C435 1.433 . S
C443 N445 1.384 . S
N444 C440 1.427 . S
N444 C441 1.384 . S
N445 C437 1.427 . S
N445 C443 1.384 . S
H446 C452 0.930 . S
H447 C456 0.930 . S
H448 C461 0.929 . S
H449 C459 0.929 . S
H450 C454 0.929 . S
H451 C460 0.929 . S
C452 H446 0.930 . S
C452 C453 1.367 . S
C452 C460 1.378 . S
C453 C452 1.367 . S
C453 C461 1.433 . S
C454 H450 0.929 . S
C454 C456 1.378 . S
C454 C458 1.350 . S
C455 C458 1.463 . S
C455 C460 1.350 . S
C455 N463 1.427 . S
C456 H447 0.930 . S
C456 C454 1.378 . S
C456 C457 1.367 . S
C457 C456 1.367 . S
C457 C459 1.433 . S
C458 C454 1.350 . S
C458 C455 1.463 . S
C458 N462 1.427 . S
C459 H449 0.929 . S
C459 C457 1.433 . S
C459 N462 1.384 . S
C460 H451 0.929 . S
C460 C452 1.378 . S
C460 C455 1.350 . S
C461 H448 0.929 . S
C461 C453 1.433 . S
C461 N463 1.384 . S
N462 C458 1.427 . S
N462 C459 1.384 . S
N463 C455 1.427 . S
N463 C461 1.384 . S
H464 C470 0.930 . S
H465 C474 0.930 . S
H466 C479 0.929 . S
H467 C477 0.929 . S
H468 C472 0.929 . S
H469 C478 0.929 . S
C470 H464 0.930 . S
C470 C471 1.367 . S
C470 C478 1.378 . S
C471 C470 1.367 . S
C471 C479 1.433 . S
C472 H468 0.929 . S
C472 C474 1.378 . S
C472 C476 1.350 . S
C473 C476 1.463 . S
C473 C478 1.350 . S
C473 N481 1.427 . S
C474 H465 0.930 . S
C474 C472 1.378 . S
C474 C475 1.367 1_554 S
C475 C474 1.367 1_556 S
C475 C477 1.433 . S
C476 C472 1.350 . S
C476 C473 1.463 . S
C476 N480 1.427 1_554 S
C477 H467 0.929 . S
C477 C475 1.433 . S
C477 N480 1.384 . S
C478 H469 0.929 . S
C478 C470 1.378 . S
C478 C473 1.350 . S
C479 H466 0.929 . S
C479 C471 1.433 . S
C479 N481 1.384 . S
N480 C476 1.427 1_556 S
N480 C477 1.384 . S
N481 C473 1.427 . S
N481 C479 1.384 . S
H482 C488 0.930 . S
H483 C492 0.930 . S
H484 C497 0.929 . S
H485 C495 0.920 1_565 S
H486 C490 0.929 . S
H487 C496 0.936 . S
C488 H482 0.930 . S
C488 C489 1.367 . S
C488 C496 1.378 . S
C489 C488 1.367 . S
C489 C497 1.433 . S
C490 H486 0.929 . S
C490 C492 1.378 . S
C490 C494 1.350 . S
C491 C494 1.463 1_554 S
C491 C496 1.350 . S
C491 N499 1.427 . S
C492 H483 0.930 . S
C492 C490 1.378 . S
C492 C493 1.367 . S
C493 C492 1.367 . S
C493 C495 1.441 . S
C494 C490 1.350 . S
C494 C491 1.463 1_556 S
C494 N498 1.427 . S
C495 H485 0.920 1_545 S
C495 C493 1.441 . S
C495 N498 1.386 . S
C496 H487 0.936 . S
C496 C488 1.378 . S
C496 C491 1.350 . S
C497 H484 0.929 . S
C497 C489 1.433 . S
C497 N499 1.384 . S
N498 C494 1.427 . S
N498 C495 1.386 . S
N499 C491 1.427 . S
N499 C497 1.384 . S
H500 C506 0.930 . S
H501 C510 0.930 . S
H502 C515 0.929 . S
H503 C513 0.929 1_554 S
H504 C508 0.929 . S
H505 C514 0.929 . S
C506 H500 0.930 . S
C506 C507 1.367 . S
C506 C514 1.378 . S
C507 C506 1.367 . S
C507 C515 1.433 . S
C508 H504 0.929 . S
C508 C510 1.378 . S
C508 C512 1.350 . S
C509 C512 1.463 1_554 S
C509 C514 1.350 . S
C509 N517 1.427 . S
C510 H501 0.930 . S
C510 C508 1.378 . S
C510 C511 1.367 . S
C511 C510 1.367 . S
C511 C513 1.433 . S
C512 C508 1.350 . S
C512 C509 1.463 1_556 S
C512 N516 1.427 1_556 S
C513 H503 0.929 1_556 S
C513 C511 1.433 . S
C513 N516 1.384 1_556 S
C514 H505 0.929 . S
C514 C506 1.378 . S
C514 C509 1.350 . S
C515 H502 0.929 . S
C515 C507 1.433 . S
C515 N517 1.384 . S
N516 C512 1.427 1_554 S
N516 C513 1.384 1_554 S
N517 C509 1.427 . S
N517 C515 1.384 . S
H518 C524 0.930 . S
H519 C528 0.930 . S
H520 C533 0.929 . S
H521 C531 0.929 . S
H522 C526 0.929 1_554 S
H523 C532 0.929 . S
C524 H518 0.930 . S
C524 C525 1.367 . S
C524 C532 1.378 . S
C525 C524 1.367 . S
C525 C533 1.433 . S
C526 H522 0.929 1_556 S
C526 C528 1.378 . S
C526 C530 1.350 1_556 S
C527 C530 1.463 . S
C527 C532 1.350 . S
C527 N535 1.427 . S
C528 H519 0.930 . S
C528 C526 1.378 . S
C528 C529 1.367 . S
C529 C528 1.367 . S
C529 C531 1.433 . S
C530 C526 1.350 1_554 S
C530 C527 1.463 . S
C530 N534 1.427 1_554 S
C531 H521 0.929 . S
C531 C529 1.433 . S
C531 N534 1.384 . S
C532 H523 0.929 . S
C532 C524 1.378 . S
C532 C527 1.350 . S
C533 H520 0.929 . S
C533 C525 1.433 . S
C533 N535 1.384 . S
N534 C530 1.427 1_556 S
N534 C531 1.384 . S
N535 C527 1.427 . S
N535 C533 1.384 . S
H536 C542 0.930 . S
H537 C546 0.930 . S
H538 C551 0.929 . S
H539 C549 0.929 1_455 S
H540 C544 0.929 . S
H541 C550 0.929 . S
C542 H536 0.930 . S
C542 C543 1.367 . S
C542 C550 1.378 . S
C543 C542 1.367 . S
C543 C551 1.433 . S
C544 H540 0.929 . S
C544 C546 1.378 . S
C544 C548 1.350 . S
C545 C548 1.463 . S
C545 C550 1.350 . S
C545 N553 1.427 . S
C546 H537 0.930 . S
C546 C544 1.378 . S
C546 C547 1.367 . S
C547 C546 1.367 . S
C547 C549 1.433 . S
C548 C544 1.350 . S
C548 C545 1.463 . S
C548 N552 1.427 . S
C549 H539 0.929 1_655 S
C549 C547 1.433 . S
C549 N552 1.384 . S
C550 H541 0.929 . S
C550 C542 1.378 . S
C550 C545 1.350 . S
C551 H538 0.929 . S
C551 C543 1.433 . S
C551 N553 1.384 . S
N552 C548 1.427 . S
N552 C549 1.384 . S
N553 C545 1.427 . S
N553 C551 1.384 . S
H554 C560 0.930 . S
H555 C564 0.930 . S
H556 C569 0.929 . S
H557 C567 0.929 . S
H558 C562 0.929 . S
H559 C568 0.929 . S
C560 H554 0.930 . S
C560 C561 1.367 . S
C560 C568 1.378 . S
C561 C560 1.367 . S
C561 C569 1.433 . S
C562 H558 0.929 . S
C562 C564 1.378 . S
C562 C566 1.350 . S
C563 C566 1.463 . S
C563 C568 1.350 . S
C563 N571 1.427 . S
C564 H555 0.930 . S
C564 C562 1.378 . S
C564 C565 1.367 . S
C565 C564 1.367 . S
C565 C567 1.433 1_565 S
C566 C562 1.350 . S
C566 C563 1.463 . S
C566 N570 1.427 . S
C567 H557 0.929 . S
C567 C565 1.433 1_545 S
C567 N570 1.384 1_545 S
C568 H559 0.929 . S
C568 C560 1.378 . S
C568 C563 1.350 . S
C569 H556 0.929 . S
C569 C561 1.433 . S
C569 N571 1.384 . S
N570 C566 1.427 . S
N570 C567 1.384 1_565 S
N571 C563 1.427 . S
N571 C569 1.384 . S
H572 C578 0.930 . S
H573 C582 0.930 . S
H574 C587 0.929 . S
H575 C585 0.929 . S
H576 C580 0.929 . S
H577 C586 0.929 . S
C578 H572 0.930 . S
C578 C579 1.367 . S
C578 C586 1.378 . S
C579 C578 1.367 . S
C579 C587 1.433 . S
C580 H576 0.929 . S
C580 C582 1.378 . S
C580 C584 1.350 . S
C581 C584 1.463 . S
C581 C586 1.350 . S
C581 N589 1.427 . S
C582 H573 0.930 . S
C582 C580 1.378 . S
C582 C583 1.367 . S
C583 C582 1.367 . S
C583 C585 1.433 . S
C584 C580 1.350 . S
C584 C581 1.463 . S
C584 N588 1.427 . S
C585 H575 0.929 . S
C585 C583 1.433 . S
C585 N588 1.384 . S
C586 H577 0.929 . S
C586 C578 1.378 . S
C586 C581 1.350 . S
C587 H574 0.929 . S
C587 C579 1.433 . S
C587 N589 1.384 . S
N588 C584 1.427 . S
N588 C585 1.384 . S
N589 C581 1.427 . S
N589 C587 1.384 . S
H590 C596 0.930 . S
H591 C600 0.930 . S
H592 C605 0.929 . S
H593 C603 0.929 . S
H594 C598 0.929 . S
H595 C604 0.929 . S
C596 H590 0.930 . S
C596 C597 1.367 . S
C596 C604 1.378 . S
C597 C596 1.367 . S
C597 C605 1.433 . S
C598 H594 0.929 . S
C598 C600 1.378 . S
C598 C602 1.350 . S
C599 C602 1.463 . S
C599 C604 1.350 . S
C599 N607 1.427 . S
C600 H591 0.930 . S
C600 C598 1.378 . S
C600 C601 1.367 . S
C601 C600 1.367 . S
C601 C603 1.433 . S
C602 C598 1.350 . S
C602 C599 1.463 . S
C602 N606 1.427 . S
C603 H593 0.929 . S
C603 C601 1.433 . S
C603 N606 1.384 . S
C604 H595 0.929 . S
C604 C596 1.378 . S
C604 C599 1.350 . S
C605 H592 0.929 . S
C605 C597 1.433 . S
C605 N607 1.384 . S
N606 C602 1.427 . S
N606 C603 1.384 . S
N607 C599 1.427 . S
N607 C605 1.384 . S
C183 C76 1.572 . S
C187 C97 1.604 . S
C205 C132 1.610 . S
C201 C88 1.559 . S
C223 C137 1.337 . S
C219 C52 1.314 . S
C241 C157 1.471 . S
C237 C64 1.444 . S
C259 C105 1.604 1_565 S
C255 C28 1.572 1_556 S
C273 C40 1.561 . S
C277 C122 1.615 . S
C291 C4 1.306 1_556 S
C295 C145 1.335 . S
C309 C16 1.448 . S
C313 C165 1.472 1_655 S
C331 C115 1.251 . S
C327 C69 1.220 . S
C349 C124 0.990 . S
C345 C81 0.988 . S
C367 C155 1.311 . S
C363 C93 1.305 . S
C381 C57 0.984 . S
C385 C175 0.976 . S
C399 C21 1.210 . S
C403 C104 1.252 1_655 S
C421 C135 0.980 1_565 S
C417 C33 0.977 1_556 S
C439 C144 1.324 . S
C435 C45 1.279 1_556 S
C453 C9 0.978 1_556 S
C457 C164 0.979 . S
C471 C66 1.477 . S
C475 C102 1.477 . S
C489 C78 1.461 . S
C493 C125 1.516 . S
C511 C142 1.590 . S
C507 C90 1.542 . S
C529 C162 1.585 . S
C525 C54 1.563 . S
C543 C18 1.462 . S
C547 C112 1.477 . S
C565 C117 1.516 . S
C561 C30 1.442 . S
C583 C152 1.583 . S
C579 C42 1.532 . S
C597 C6 1.560 . S
C601 C172 1.583 . S
