# Generated by pormake.
# Topology pyr, (3,6)-cn, num edge types: 1
# Building blocks:
#     Node 0, Type 0, BuildingBlock: VETTIZ_charged_linker_0, # of connection points: 3
#     Node 1, Type 0, BuildingBlock: VETTIZ_charged_linker_0, # of connection points: 3
#     Node 2, Type 0, BuildingBlock: VETTIZ_charged_linker_0, # of connection points: 3
#     Node 3, Type 0, BuildingBlock: VETTIZ_charged_linker_0, # of connection points: 3
#     Node 4, Type 0, BuildingBlock: VETTIZ_charged_linker_0, # of connection points: 3
#     Node 5, Type 0, BuildingBlock: VETTIZ_charged_linker_0, # of connection points: 3
#     Node 6, Type 0, BuildingBlock: VETTIZ_charged_linker_0, # of connection points: 3
#     Node 7, Type 0, BuildingBlock: VETTIZ_charged_linker_0, # of connection points: 3
#     Node 8, Type 1, BuildingBlock: FUNLAD_clean_sbu_0, # of connection points: 6
#     Node 9, Type 1, BuildingBlock: FUNLAD_clean_sbu_0, # of connection points: 6
#     Node 10, Type 1, BuildingBlock: FUNLAD_clean_sbu_0, # of connection points: 6
#     Node 11, Type 1, BuildingBlock: FUNLAD_clean_sbu_0, # of connection points: 6
#     Edge 12, Type (0, 1), BuildingBlock: ZUJKAS_clean_linker_0, # of connection points: 2
#     Edge 13, Type (0, 1), BuildingBlock: ZUJKAS_clean_linker_0, # of connection points: 2
#     Edge 14, Type (0, 1), BuildingBlock: ZUJKAS_clean_linker_0, # of connection points: 2
#     Edge 15, Type (0, 1), BuildingBlock: ZUJKAS_clean_linker_0, # of connection points: 2
#     Edge 16, Type (0, 1), BuildingBlock: ZUJKAS_clean_linker_0, # of connection points: 2
#     Edge 17, Type (0, 1), BuildingBlock: ZUJKAS_clean_linker_0, # of connection points: 2
#     Edge 18, Type (0, 1), BuildingBlock: ZUJKAS_clean_linker_0, # of connection points: 2
#     Edge 19, Type (0, 1), BuildingBlock: ZUJKAS_clean_linker_0, # of connection points: 2
#     Edge 20, Type (0, 1), BuildingBlock: ZUJKAS_clean_linker_0, # of connection points: 2
#     Edge 21, Type (0, 1), BuildingBlock: ZUJKAS_clean_linker_0, # of connection points: 2
#     Edge 22, Type (0, 1), BuildingBlock: ZUJKAS_clean_linker_0, # of connection points: 2
#     Edge 23, Type (0, 1), BuildingBlock: ZUJKAS_clean_linker_0, # of connection points: 2
#     Edge 24, Type (0, 1), BuildingBlock: ZUJKAS_clean_linker_0, # of connection points: 2
#     Edge 25, Type (0, 1), BuildingBlock: ZUJKAS_clean_linker_0, # of connection points: 2
#     Edge 26, Type (0, 1), BuildingBlock: ZUJKAS_clean_linker_0, # of connection points: 2
#     Edge 27, Type (0, 1), BuildingBlock: ZUJKAS_clean_linker_0, # of connection points: 2
#     Edge 28, Type (0, 1), BuildingBlock: ZUJKAS_clean_linker_0, # of connection points: 2
#     Edge 29, Type (0, 1), BuildingBlock: ZUJKAS_clean_linker_0, # of connection points: 2
#     Edge 30, Type (0, 1), BuildingBlock: ZUJKAS_clean_linker_0, # of connection points: 2
#     Edge 31, Type (0, 1), BuildingBlock: ZUJKAS_clean_linker_0, # of connection points: 2
#     Edge 32, Type (0, 1), BuildingBlock: ZUJKAS_clean_linker_0, # of connection points: 2
#     Edge 33, Type (0, 1), BuildingBlock: ZUJKAS_clean_linker_0, # of connection points: 2
#     Edge 34, Type (0, 1), BuildingBlock: ZUJKAS_clean_linker_0, # of connection points: 2
#     Edge 35, Type (0, 1), BuildingBlock: ZUJKAS_clean_linker_0, # of connection points: 2
# Relax obj value: 0.038
# Max RMSD: 0.056
# Mean RMSD: 0.023
data_MOF--net-pry--node1-FUNLAD_clean_sbu_0--node2-VETTIZ_charged_linker_0--edge1-ZUJKAS_clean_linker_0
_symmetry_space_group_name_H-M    P1
_symmetry_Int_Tables_number       1
_symmetry_cell_setting            triclinic
loop_
_symmetry_equiv_pos_as_xyz
'x, y, z'
_cell_length_a     54.74024
_cell_length_b     57.162532
_cell_length_c     57.533618
_cell_angle_alpha  90.1139
_cell_angle_beta   90.076281
_cell_angle_gamma 86.276002
loop_
_atom_site_label
_atom_site_type_symbol
_atom_site_fract_x
_atom_site_fract_y
_atom_site_fract_z
_atom_type_partial_charge
C0 C 0.1294 0.12318 0.24481 0.0
C1 C 0.10888 0.13247 0.25731 0.0
C2 C 0.09694 0.1537 0.24955 0.0
C3 C 0.12562 0.15572 0.21745 0.0
C4 C 0.13743 0.13503 0.22515 0.0
C5 C 0.1592 0.12759 0.21031 0.0
H6 H 0.23097 0.14632 0.11714 0.0
C7 C 0.13861 0.16348 0.19639 0.0
C8 C 0.15836 0.14696 0.19223 0.0
H9 H 0.23964 0.09055 0.16781 0.0
H10 H 0.20354 0.10608 0.18793 0.0
H11 H 0.21897 0.18698 0.15441 0.0
H12 H 0.17352 0.14585 0.11179 0.0
H13 H 0.15939 0.17429 0.1123 0.0
H14 H 0.18977 0.1695 0.10028 0.0
H15 H 0.21559 0.19151 0.1237 0.0
H16 H 0.19495 0.20611 0.1443 0.0
C17 C 0.1825 0.1277 0.22565 0.0
C18 C 0.15466 0.10348 0.19937 0.0
C19 C 0.10935 0.23852 0.15307 0.0
C20 C 0.1181 0.2496 0.13306 0.0
C21 C 0.13837 0.23873 0.12124 0.0
C22 C 0.15 0.21775 0.12926 0.0
C23 C 0.14142 0.20716 0.1494 0.0
C24 C 0.1213 0.21738 0.16092 0.0
C25 C 0.1148 0.20323 0.18195 0.0
C26 C 0.13444 0.18304 0.18115 0.0
C27 C 0.14998 0.18559 0.16201 0.0
C28 C 0.11726 0.21867 0.20384 0.0
C29 C 0.08885 0.19466 0.17819 0.0
C30 C 0.22531 0.13751 0.13268 0.0
C31 C 0.23837 0.11705 0.14073 0.0
C32 C 0.22987 0.10609 0.16089 0.0
C33 C 0.20893 0.11526 0.17272 0.0
C34 C 0.1962 0.13575 0.16447 0.0
C35 C 0.20451 0.14651 0.14478 0.0
C36 C 0.18897 0.16831 0.13867 0.0
C37 C 0.16996 0.16892 0.15794 0.0
C38 C 0.17419 0.14977 0.17298 0.0
C39 C 0.20532 0.18943 0.14013 0.0
C40 C 0.17736 0.16455 0.11445 0.0
H41 H 0.09518 0.18129 0.22477 0.0
H42 H 0.13932 0.10716 0.25041 0.0
H43 H 0.13517 0.10275 0.19406 0.0
H44 H 0.16529 0.09986 0.18333 0.0
H45 H 0.15888 0.08905 0.21194 0.0
H46 H 0.18065 0.14178 0.23904 0.0
H47 H 0.18593 0.11075 0.23488 0.0
H48 H 0.19901 0.13153 0.2157 0.0
H49 H 0.09386 0.24632 0.16265 0.0
H50 H 0.14522 0.24638 0.10553 0.0
H51 H 0.16533 0.21061 0.11938 0.0
H52 H 0.13352 0.2293 0.20241 0.0
H53 H 0.10087 0.23096 0.20609 0.0
H54 H 0.12021 0.20832 0.21988 0.0
H55 H 0.08635 0.18919 0.15982 0.0
H56 H 0.08537 0.17908 0.18866 0.0
H57 H 0.07458 0.2088 0.18215 0.0
H58 H 0.08098 0.16122 0.25865 0.0
C59 C 0.10513 0.1653 0.22975 0.0
C60 C 0.28492 0.88043 0.63108 0.0
C61 C 0.27077 0.89967 0.64025 0.0
C62 C 0.27788 0.90952 0.66149 0.0
C63 C 0.31286 0.8812 0.66396 0.0
C64 C 0.3056 0.87136 0.64331 0.0
C65 C 0.32173 0.8501 0.63667 0.0
H66 H 0.41692 0.77224 0.66069 0.0
C67 C 0.335 0.86736 0.67235 0.0
C68 C 0.34008 0.84895 0.65655 0.0
H69 H 0.36661 0.77293 0.60257 0.0
H70 H 0.34609 0.80842 0.61678 0.0
H71 H 0.42397 0.82949 0.65909 0.0
H72 H 0.37675 0.78823 0.70015 0.0
H73 H 0.38995 0.80884 0.71829 0.0
H74 H 0.40939 0.78661 0.70399 0.0
H75 H 0.43567 0.81002 0.68152 0.0
H76 H 0.42415 0.83958 0.68799 0.0
C77 C 0.33406 0.85518 0.61314 0.0
C78 C 0.30578 0.82861 0.63642 0.0
C79 C 0.37862 0.8932 0.74529 0.0
C80 C 0.39942 0.88421 0.75757 0.0
C81 C 0.41191 0.86341 0.74937 0.0
C82 C 0.40401 0.85199 0.72929 0.0
C83 C 0.38327 0.86132 0.71717 0.0
C84 C 0.37091 0.88155 0.72534 0.0
C85 C 0.34895 0.88877 0.71064 0.0
C86 C 0.35046 0.8699 0.69197 0.0
C87 C 0.3706 0.85376 0.69581 0.0
C88 C 0.35269 0.91334 0.70049 0.0
C89 C 0.32568 0.88755 0.72583 0.0
C90 C 0.40157 0.78015 0.65098 0.0
C91 C 0.39321 0.76937 0.63059 0.0
C92 C 0.37313 0.78037 0.61857 0.0
C93 C 0.36126 0.80116 0.6268 0.0
C94 C 0.36939 0.8114 0.64737 0.0
C95 C 0.38937 0.80109 0.65905 0.0
C96 C 0.39539 0.81486 0.68054 0.0
C97 C 0.37544 0.83476 0.67998 0.0
C98 C 0.36031 0.83253 0.66045 0.0
C99 C 0.4212 0.82392 0.67736 0.0
C100 C 0.39295 0.79889 0.70198 0.0
H101 H 0.3034 0.90887 0.68931 0.0
H102 H 0.27964 0.87223 0.615 0.0
H103 H 0.29067 0.83072 0.64934 0.0
H104 H 0.31607 0.81215 0.64152 0.0
H105 H 0.29734 0.82625 0.61908 0.0
H106 H 0.33879 0.8738 0.6122 0.0
H107 H 0.32167 0.85195 0.59834 0.0
H108 H 0.3516 0.84486 0.61055 0.0
H109 H 0.36828 0.90886 0.75127 0.0
H110 H 0.42807 0.85613 0.75831 0.0
H111 H 0.41436 0.83632 0.72395 0.0
H112 H 0.37189 0.91445 0.69447 0.0
H113 H 0.34897 0.92722 0.7138 0.0
H114 H 0.34118 0.91753 0.68512 0.0
H115 H 0.32832 0.87395 0.73957 0.0
H116 H 0.30967 0.88232 0.71579 0.0
H117 H 0.32094 0.90456 0.73461 0.0
H118 H 0.26724 0.92437 0.66886 0.0
C119 C 0.29889 0.90051 0.67331 0.0
C120 C 0.58612 0.35587 0.969 0.0
C121 C 0.56351 0.3489 0.96056 0.0
C122 C 0.549 0.36463 0.94666 0.0
C123 C 0.58152 0.39121 0.94577 0.0
C124 C 0.59466 0.37721 0.96152 0.0
C125 C 0.61861 0.38719 0.9679 0.0
H126 H 0.70578 0.46077 0.94067 0.0
C127 C 0.59682 0.41014 0.93855 0.0
C128 C 0.61835 0.40836 0.95186 0.0
H129 H 0.70487 0.41342 0.99927 0.0
H130 H 0.66427 0.40312 0.98851 0.0
H131 H 0.65122 0.48343 0.94864 0.0
H132 H 0.68117 0.42797 0.90441 0.0
H133 H 0.6595 0.44469 0.88792 0.0
H134 H 0.68585 0.45829 0.89914 0.0
H135 H 0.66845 0.48908 0.92296 0.0
H136 H 0.63579 0.48628 0.92189 0.0
C137 C 0.61762 0.39444 0.99388 0.0
C138 C 0.63967 0.36879 0.96192 0.0
C139 C 0.5756 0.45303 0.86355 0.0
C140 C 0.58857 0.46802 0.84956 0.0
C141 C 0.61003 0.47714 0.85837 0.0
C142 C 0.61926 0.47013 0.8802 0.0
C143 C 0.60704 0.45367 0.89321 0.0
C144 C 0.5852 0.44595 0.88512 0.0
C145 C 0.57496 0.42809 0.90084 0.0
C146 C 0.59459 0.42593 0.91955 0.0
C147 C 0.61343 0.44075 0.91483 0.0
C148 C 0.55004 0.43828 0.91052 0.0
C149 C 0.57343 0.40512 0.88666 0.0
C150 C 0.69682 0.44847 0.95152 0.0
C151 C 0.70883 0.43782 0.9708 0.0
C152 C 0.69637 0.42158 0.98406 0.0
C153 C 0.6727 0.41574 0.97793 0.0
C154 C 0.66128 0.42622 0.95833 0.0
C155 C 0.67314 0.44266 0.94583 0.0
C156 C 0.65799 0.45252 0.92592 0.0
C157 C 0.63488 0.43956 0.92876 0.0
C158 C 0.63714 0.42376 0.94744 0.0
C159 C 0.65315 0.47926 0.9298 0.0
C160 C 0.67173 0.44576 0.90307 0.0
H161 H 0.54632 0.39662 0.92812 0.0
H162 H 0.59753 0.34446 0.9801 0.0
H163 H 0.63723 0.36174 0.94409 0.0
H164 H 0.65785 0.37602 0.96219 0.0
H165 H 0.64007 0.35385 0.97426 0.0
H166 H 0.59844 0.39764 1.00008 0.0
H167 H 0.6266 0.38061 1.00509 0.0
H168 H 0.62618 0.41119 0.99705 0.0
H169 H 0.55878 0.44614 0.85739 0.0
H170 H 0.62034 0.48876 0.8479 0.0
H171 H 0.63608 0.47709 0.88568 0.0
H172 H 0.5483 0.45776 0.9095 0.0
H173 H 0.53447 0.4316 0.90067 0.0
H174 H 0.54784 0.43432 0.92922 0.0
H175 H 0.59077 0.40099 0.87699 0.0
H176 H 0.57067 0.3896 0.89736 0.0
H177 H 0.55828 0.40681 0.87378 0.0
H178 H 0.53108 0.36021 0.94074 0.0
C179 C 0.55785 0.38577 0.93933 0.0
C180 C 0.94004 0.65569 0.4478 0.0
C181 C 0.92794 0.67253 0.46227 0.0
C182 C 0.90583 0.66716 0.47299 0.0
C183 C 0.90694 0.62989 0.45266 0.0
C184 C 0.92916 0.63476 0.44306 0.0
C185 C 0.9383 0.61651 0.42582 0.0
H186 H 0.91309 0.52746 0.35542 0.0
C187 C 0.8995 0.60777 0.44225 0.0
C188 C 0.91784 0.59987 0.42653 0.0
H189 H 0.97572 0.56994 0.35471 0.0
H190 H 0.96308 0.58745 0.39101 0.0
H191 H 0.91396 0.51716 0.41159 0.0
H192 H 0.87458 0.56817 0.36844 0.0
H193 H 0.85378 0.55642 0.38783 0.0
H194 H 0.87008 0.53733 0.3676 0.0
H195 H 0.88698 0.51025 0.39596 0.0
H196 H 0.88527 0.52294 0.42478 0.0
C197 C 0.96262 0.60472 0.43518 0.0
C198 C 0.9404 0.62855 0.40174 0.0
C199 C 0.81553 0.57909 0.4597 0.0
C200 C 0.80307 0.55997 0.45146 0.0
C201 C 0.8154 0.54353 0.43657 0.0
C202 C 0.8394 0.54656 0.42931 0.0
C203 C 0.85116 0.56634 0.43681 0.0
C204 C 0.83951 0.58186 0.45225 0.0
C205 C 0.8551 0.6016 0.45871 0.0
C206 C 0.87795 0.59542 0.44445 0.0
C207 C 0.87531 0.57498 0.43133 0.0
C208 C 0.86035 0.60023 0.48514 0.0
C209 C 0.84162 0.62489 0.45066 0.0
C210 C 0.92419 0.54039 0.36322 0.0
C211 C 0.94521 0.54755 0.35186 0.0
C212 C 0.9595 0.56394 0.36297 0.0
C213 C 0.95194 0.5744 0.38397 0.0
C214 C 0.92964 0.56876 0.39385 0.0
C215 C 0.91663 0.55135 0.38403 0.0
C216 C 0.89308 0.54809 0.39677 0.0
C217 C 0.89361 0.56728 0.41507 0.0
C218 C 0.91497 0.57941 0.41307 0.0
C219 C 0.89467 0.52331 0.40777 0.0
C220 C 0.87163 0.55258 0.37938 0.0
H221 H 0.8782 0.64306 0.47658 0.0
H222 H 0.95722 0.65906 0.43953 0.0
H223 H 0.92788 0.64463 0.40039 0.0
H224 H 0.93485 0.61749 0.38714 0.0
H225 H 0.95928 0.63384 0.39859 0.0
H226 H 0.96172 0.60231 0.45435 0.0
H227 H 0.97823 0.61562 0.43149 0.0
H228 H 0.96669 0.58693 0.42806 0.0
H229 H 0.80672 0.59179 0.47149 0.0
H230 H 0.8062 0.5287 0.4299 0.0
H231 H 0.84763 0.5337 0.41764 0.0
H232 H 0.86282 0.58167 0.49095 0.0
H233 H 0.84499 0.6088 0.49527 0.0
H234 H 0.87754 0.60809 0.49004 0.0
H235 H 0.83178 0.62242 0.43399 0.0
H236 H 0.85409 0.63882 0.44702 0.0
H237 H 0.82788 0.63142 0.46373 0.0
H238 H 0.89603 0.67983 0.48414 0.0
C239 C 0.89536 0.64587 0.46838 0.0
C240 C 0.88471 0.78113 0.88345 0.0
C241 C 0.90585 0.7684 0.87526 0.0
C242 C 0.91729 0.7765 0.85505 0.0
C243 C 0.88688 0.8094 0.85201 0.0
C244 C 0.87565 0.80136 0.8717 0.0
C245 C 0.85341 0.81662 0.87845 0.0
H246 H 0.77484 0.91066 0.85836 0.0
C247 C 0.8727 0.83107 0.84414 0.0
C248 C 0.85307 0.83526 0.85969 0.0
H249 H 0.7737 0.86017 0.91426 0.0
H250 H 0.80997 0.83978 0.89916 0.0
H251 H 0.79018 0.8734 0.81751 0.0
H252 H 0.83237 0.91671 0.86131 0.0
H253 H 0.84604 0.91646 0.83373 0.0
H254 H 0.81491 0.92848 0.83712 0.0
H255 H 0.78957 0.9047 0.81467 0.0
H256 H 0.81225 0.88578 0.80001 0.0
C257 C 0.83083 0.80164 0.87684 0.0
C258 C 0.85797 0.82696 0.9029 0.0
C259 C 0.89886 0.87609 0.77239 0.0
C260 C 0.88943 0.89701 0.76171 0.0
C261 C 0.86829 0.90876 0.77125 0.0
C262 C 0.85683 0.90008 0.79093 0.0
C263 C 0.8665 0.87935 0.80148 0.0
C264 C 0.88722 0.86769 0.79227 0.0
C265 C 0.89504 0.84611 0.80622 0.0
C266 C 0.87561 0.84677 0.8252 0.0
C267 C 0.85886 0.8663 0.82221 0.0
C268 C 0.89361 0.82442 0.79028 0.0
C269 C 0.92086 0.84931 0.81623 0.0
C270 C 0.78248 0.8953 0.86745 0.0
C271 C 0.77098 0.88697 0.88747 0.0
C272 C 0.78165 0.86678 0.89855 0.0
C273 C 0.80295 0.85499 0.88983 0.0
C274 C 0.81405 0.86338 0.86976 0.0
C275 C 0.8039 0.88329 0.85898 0.0
C276 C 0.81853 0.88977 0.83802 0.0
C277 C 0.83895 0.87035 0.83794 0.0
C278 C 0.83615 0.85494 0.85657 0.0
C279 C 0.80188 0.88856 0.81632 0.0
C280 C 0.82842 0.91418 0.84252 0.0
H281 H 0.91757 0.8021 0.82826 0.0
H282 H 0.87509 0.77534 0.89861 0.0
H283 H 0.87767 0.83003 0.90545 0.0
H284 H 0.84833 0.84433 0.90562 0.0
H285 H 0.85262 0.81487 0.91682 0.0
H286 H 0.83276 0.789 0.86211 0.0
H287 H 0.82864 0.79138 0.89298 0.0
H288 H 0.81362 0.81217 0.87325 0.0
H289 H 0.91516 0.86669 0.76568 0.0
H290 H 0.86035 0.92464 0.76328 0.0
H291 H 0.8408 0.90991 0.79716 0.0
H292 H 0.87697 0.82617 0.77913 0.0
H293 H 0.90981 0.82239 0.77867 0.0
H294 H 0.89206 0.80801 0.80007 0.0
H295 H 0.92249 0.86771 0.82207 0.0
H296 H 0.925 0.83846 0.83175 0.0
H297 H 0.93521 0.84525 0.80293 0.0
H298 H 0.93371 0.76728 0.84837 0.0
C299 C 0.90796 0.79686 0.84344 0.0
C300 C 0.72498 0.13714 0.38566 0.0
C301 C 0.73914 0.11793 0.37644 0.0
C302 C 0.73211 0.10823 0.35509 0.0
C303 C 0.69706 0.13649 0.35275 0.0
C304 C 0.7043 0.14626 0.37345 0.0
C305 C 0.688 0.16735 0.38026 0.0
H306 H 0.58972 0.24243 0.35886 0.0
C307 C 0.67475 0.15016 0.34453 0.0
C308 C 0.66954 0.16844 0.36046 0.0
H309 H 0.64204 0.24361 0.41525 0.0
H310 H 0.66365 0.20909 0.40014 0.0
H311 H 0.5855 0.18536 0.35901 0.0
H312 H 0.6303 0.2292 0.31817 0.0
H313 H 0.61802 0.20825 0.29982 0.0
H314 H 0.59769 0.2295 0.3145 0.0
H315 H 0.57273 0.20511 0.33729 0.0
H316 H 0.58501 0.17605 0.32986 0.0
C317 C 0.67587 0.162 0.40382 0.0
C318 C 0.70369 0.18901 0.38056 0.0
C319 C 0.63076 0.12396 0.27194 0.0
C320 C 0.60971 0.13272 0.2599 0.0
C321 C 0.597 0.15332 0.26828 0.0
C322 C 0.60493 0.16477 0.28834 0.0
C323 C 0.6259 0.15566 0.30025 0.0
C324 C 0.63849 0.13564 0.29187 0.0
C325 C 0.66069 0.12866 0.30633 0.0
C326 C 0.65913 0.14747 0.32506 0.0
C327 C 0.63868 0.16332 0.3215 0.0
C328 C 0.65739 0.10399 0.31645 0.0
C329 C 0.68376 0.13023 0.29093 0.0
C330 C 0.60591 0.2353 0.36786 0.0
C331 C 0.61392 0.2458 0.38853 0.0
C332 C 0.63505 0.23575 0.39966 0.0
C333 C 0.64778 0.2157 0.39072 0.0
C334 C 0.63953 0.20534 0.37026 0.0
C335 C 0.61895 0.21509 0.3591 0.0
C336 C 0.61308 0.20144 0.33749 0.0
C337 C 0.63366 0.18213 0.3375 0.0
C338 C 0.64902 0.18458 0.35683 0.0
C339 C 0.58769 0.19151 0.34084 0.0
C340 C 0.61465 0.21786 0.31627 0.0
H341 H 0.70665 0.10902 0.32722 0.0
H342 H 0.73019 0.14523 0.40182 0.0
H343 H 0.71908 0.18694 0.36795 0.0
H344 H 0.69328 0.20531 0.3751 0.0
H345 H 0.71173 0.1917 0.39803 0.0
H346 H 0.67085 0.14345 0.40444 0.0
H347 H 0.68853 0.16475 0.41853 0.0
H348 H 0.65855 0.17254 0.40682 0.0
H349 H 0.64126 0.10846 0.26581 0.0
H350 H 0.58066 0.16043 0.2595 0.0
H351 H 0.59438 0.18027 0.29384 0.0
H352 H 0.63827 0.10259 0.32258 0.0
H353 H 0.66124 0.09019 0.30309 0.0
H354 H 0.66904 0.09991 0.33175 0.0
H355 H 0.68081 0.14392 0.27732 0.0
H356 H 0.69981 0.13554 0.30085 0.0
H357 H 0.68857 0.11332 0.28198 0.0
H358 H 0.74273 0.0934 0.34769 0.0
C359 C 0.71112 0.1173 0.34328 0.0
C360 C 0.43582 0.56228 0.15488 0.0
C361 C 0.42295 0.54695 0.16859 0.0
C362 C 0.40157 0.53785 0.15957 0.0
C363 C 0.40425 0.56219 0.12531 0.0
C364 C 0.4261 0.5698 0.13349 0.0
C365 C 0.43608 0.58819 0.11821 0.0
H366 H 0.4134 0.67266 0.03935 0.0
C367 C 0.39751 0.5758 0.10417 0.0
C368 C 0.41622 0.59086 0.09978 0.0
H369 H 0.47962 0.65718 0.07913 0.0
H370 H 0.46412 0.62102 0.09221 0.0
H371 H 0.37449 0.65665 0.07627 0.0
H372 H 0.41136 0.61922 0.02008 0.0
H373 H 0.38268 0.60741 0.0229 0.0
H374 H 0.38427 0.63792 0.01517 0.0
H375 H 0.37023 0.66387 0.04608 0.0
H376 H 0.35295 0.6421 0.05964 0.0
C377 C 0.43774 0.61074 0.13303 0.0
C378 C 0.46086 0.57832 0.10798 0.0
C379 C 0.3133 0.56969 0.06859 0.0
C380 C 0.3008 0.58162 0.05036 0.0
C381 C 0.31299 0.59818 0.03736 0.0
C382 C 0.33702 0.60331 0.04295 0.0
C383 C 0.34895 0.59181 0.06177 0.0
C384 C 0.33727 0.57495 0.0739 0.0
C385 C 0.35279 0.56432 0.0932 0.0
C386 C 0.37585 0.5774 0.09052 0.0
C387 C 0.37333 0.59379 0.07236 0.0
C388 C 0.33945 0.57014 0.11648 0.0
C389 C 0.35757 0.53777 0.08823 0.0
C390 C 0.42473 0.66133 0.05061 0.0
C391 C 0.44742 0.66823 0.05887 0.0
C392 C 0.46171 0.65273 0.07319 0.0
C393 C 0.45272 0.63172 0.08077 0.0
C394 C 0.42909 0.6262 0.07417 0.0
C395 C 0.41601 0.6402 0.05838 0.0
C396 C 0.39184 0.63056 0.05229 0.0
C397 C 0.39208 0.60929 0.06816 0.0
C398 C 0.41372 0.60725 0.0813 0.0
C399 C 0.37116 0.6492 0.05875 0.0
C400 C 0.39233 0.62351 0.02625 0.0
H401 H 0.37545 0.53836 0.13231 0.0
H402 H 0.45257 0.56918 0.16119 0.0
H403 H 0.46226 0.55881 0.10775 0.0
H404 H 0.46315 0.58343 0.08958 0.0
H405 H 0.47654 0.58411 0.1183 0.0
H406 H 0.42081 0.61416 0.14352 0.0
H407 H 0.45349 0.60899 0.14523 0.0
H408 H 0.43949 0.6267 0.12269 0.0
H409 H 0.30456 0.55658 0.07865 0.0
H410 H 0.3037 0.60761 0.02325 0.0
H411 H 0.34521 0.61637 0.03273 0.0
H412 H 0.32979 0.58788 0.11589 0.0
H413 H 0.32557 0.55732 0.12021 0.0
H414 H 0.35196 0.57084 0.13145 0.0
H415 H 0.35944 0.5344 0.06923 0.0
H416 H 0.37494 0.5304 0.09585 0.0
H417 H 0.34227 0.5277 0.09466 0.0
H418 H 0.39134 0.52597 0.1698 0.0
C419 C 0.39223 0.54529 0.13792 0.0
C420 C 0.06946 0.36145 0.56146 0.0
C421 C 0.08212 0.34515 0.54681 0.0
C422 C 0.10488 0.35069 0.53754 0.0
C423 C 0.10338 0.38667 0.56007 0.0
C424 C 0.08051 0.38178 0.56812 0.0
C425 C 0.07089 0.39903 0.58614 0.0
H426 H 0.09658 0.47727 0.66752 0.0
C427 C 0.11093 0.40764 0.57258 0.0
C428 C 0.0919 0.41502 0.58779 0.0
H429 H 0.0283 0.44495 0.65572 0.0
H430 H 0.04349 0.42954 0.61913 0.0
H431 H 0.10002 0.49572 0.61452 0.0
H432 H 0.13373 0.43622 0.65049 0.0
H433 H 0.15624 0.4503 0.63472 0.0
H434 H 0.13915 0.46627 0.65679 0.0
H435 H 0.12808 0.49773 0.63024 0.0
H436 H 0.12783 0.4889 0.60005 0.0
C437 C 0.04723 0.41206 0.57664 0.0
C438 C 0.06733 0.38524 0.60897 0.0
C439 C 0.1966 0.43505 0.56126 0.0
C440 C 0.20925 0.45304 0.57157 0.0
C441 C 0.19718 0.46772 0.58824 0.0
C442 C 0.17307 0.46427 0.59487 0.0
C443 C 0.16088 0.44589 0.58481 0.0
C444 C 0.17247 0.43191 0.568 0.0
C445 C 0.15647 0.41348 0.55898 0.0
C446 C 0.13322 0.41903 0.57285 0.0
C447 C 0.13614 0.43772 0.58827 0.0
C448 C 0.15231 0.4176 0.53265 0.0
C449 C 0.16888 0.38912 0.56518 0.0
C450 C 0.08471 0.46721 0.65691 0.0
C451 C 0.06154 0.46156 0.66501 0.0
C452 C 0.04657 0.44878 0.65036 0.0
C453 C 0.0554 0.43984 0.62911 0.0
C454 C 0.0795 0.44352 0.6225 0.0
C455 C 0.09323 0.45814 0.63556 0.0
C456 C 0.11785 0.46131 0.62479 0.0
C457 C 0.11721 0.4447 0.60414 0.0
C458 C 0.09491 0.43396 0.60329 0.0
C459 C 0.1187 0.48723 0.61708 0.0
C460 C 0.13793 0.45323 0.64256 0.0
H461 H 0.13314 0.37437 0.53687 0.0
H462 H 0.05173 0.35795 0.56851 0.0
H463 H 0.08321 0.37247 0.61208 0.0
H464 H 0.06609 0.3963 0.62463 0.0
H465 H 0.0506 0.37526 0.60806 0.0
H466 H 0.04702 0.41234 0.5573 0.0
H467 H 0.03064 0.40351 0.58244 0.0
H468 H 0.04565 0.43076 0.58182 0.0
H469 H 0.20527 0.42368 0.54817 0.0
H470 H 0.20659 0.4816 0.59655 0.0
H471 H 0.16499 0.47578 0.60787 0.0
H472 H 0.14989 0.43667 0.52878 0.0
H473 H 0.16818 0.41023 0.52238 0.0
H474 H 0.13548 0.41014 0.52615 0.0
H475 H 0.1792 0.3898 0.58182 0.0
H476 H 0.15565 0.37566 0.5681 0.0
H477 H 0.18204 0.38288 0.55148 0.0
H478 H 0.1151 0.33845 0.52626 0.0
C479 C 0.11548 0.37145 0.54397 0.0
C480 C 0.02496 0.02185 0.4664 0.0
N481 N 0.01388 0.05839 0.52867 0.0
C482 C 0.03629 0.06612 0.52382 0.0
C483 C 0.04081 0.08956 0.52706 0.0
C484 C 0.02208 0.10529 0.53532 0.0
C485 C 0.99959 0.09665 0.54162 0.0
C486 C 0.99581 0.07293 0.53804 0.0
Zn487 Zn 0.00723 0.02584 0.51671 0.0
C488 C 0.95915 0.02572 0.49217 0.0
N489 N 0.99557 0.9589 0.48813 0.0
C490 C 0.01351 0.94505 0.47769 0.0
C491 C 0.97338 0.95071 0.49306 0.0
C492 C 0.96892 0.92746 0.48849 0.0
C493 C 0.98746 0.91242 0.47877 0.0
C494 C 0.00979 0.92158 0.47274 0.0
Zn495 Zn 1.00209 0.99136 0.50034 0.0
O496 O 0.02278 0.03504 0.48418 0.0
C497 C 0.05012 0.99142 0.52494 0.0
O498 O 0.01789 1.0011 0.46771 0.0
H499 H 0.95939 0.96198 0.50141 0.0
H500 H 0.05036 0.05436 0.51622 0.0
H501 H 0.03104 0.95193 0.47404 0.0
O502 O 0.04224 0.01243 0.52903 0.0
O503 O 0.03707 0.97833 0.5129 0.0
H504 H 0.97808 0.06643 0.54162 0.0
O505 O 0.98662 0.98211 0.53297 0.0
O506 O 0.99131 0.01622 0.54925 0.0
O507 O 0.967 1.00468 0.48817 0.0
O508 O 0.97229 0.03887 0.50405 0.0
C509 C 0.98433 0.99543 0.55068 0.0
H510 H 0.05854 0.09549 0.52237 0.0
H511 H 0.98468 0.10829 0.54801 0.0
H512 H 0.95131 0.92116 0.49303 0.0
H513 H 0.02457 0.91049 0.46531 0.0
C514 C 0.55007 0.992 0.99172 0.0
N515 N 0.51218 0.05825 0.9878 0.0
C516 C 0.53429 0.06687 0.9923 0.0
C517 C 0.53798 0.09037 0.98821 0.0
C518 C 0.51875 0.10519 0.97942 0.0
C519 C 0.49655 0.09559 0.97365 0.0
C520 C 0.4936 0.0719 0.9781 0.0
Zn521 Zn 0.50665 0.02568 1.00021 0.0
C522 C 0.48375 0.99448 0.96714 0.0
N523 N 0.49702 0.95889 0.02975 0.0
C524 C 0.51565 0.94529 0.03942 0.0
C525 C 0.47491 0.95022 0.02535 0.0
C526 C 0.47127 0.92673 0.02951 0.0
C527 C 0.49058 0.91194 0.03823 0.0
C528 C 0.51278 0.92159 0.0439 0.0
Zn529 Zn 0.50251 0.99145 0.0173 0.0
O530 O 0.54171 0.01281 0.98734 0.0
C531 C 0.52545 0.02264 0.05034 0.0
O532 O 0.53748 0.97903 1.00427 0.0
H533 H 0.46037 0.96129 0.01756 0.0
H534 H 0.54878 0.05577 1.00011 0.0
H535 H 0.53311 0.95254 0.04266 0.0
O536 O 0.52263 0.03559 0.03247 0.0
O537 O 0.51875 1.00174 0.0494 0.0
H538 H 0.47614 0.06469 0.9748 0.0
O539 O 0.46751 1.00427 0.03011 0.0
O540 O 0.47159 0.03812 0.01326 0.0
O541 O 0.48653 0.98153 0.98502 0.0
O542 O 0.49043 0.01539 0.96811 0.0
C543 C 0.45905 0.02505 0.02577 0.0
H544 H 0.55551 0.09702 0.99252 0.0
H545 H 0.48125 0.10651 0.96691 0.0
H546 H 0.45374 0.92004 0.02527 0.0
H547 H 0.52814 0.91072 0.05057 0.0
C548 C 0.51991 0.46353 0.49317 0.0
N549 N 0.52332 0.49451 0.55957 0.0
C550 C 0.51579 0.47565 0.57132 0.0
C551 C 0.52162 0.47262 0.59483 0.0
C552 C 0.53538 0.48913 0.60624 0.0
C553 C 0.54374 0.50782 0.59335 0.0
C554 C 0.53734 0.51028 0.57004 0.0
Zn555 Zn 0.51164 0.50209 0.52665 0.0
C556 C 0.55152 0.52232 0.49887 0.0
N557 N 0.48768 0.52209 0.45888 0.0
C558 C 0.47389 0.50613 0.4484 0.0
C559 C 0.49502 0.54102 0.44711 0.0
C560 C 0.48919 0.54395 0.42357 0.0
C561 C 0.47566 0.52725 0.41217 0.0
C562 C 0.46753 0.50847 0.42508 0.0
Zn563 Zn 0.49933 0.51457 0.49183 0.0
O564 O 0.52253 0.4675 0.51478 0.0
C565 C 0.45943 0.49442 0.51969 0.0
O566 O 0.51079 0.47991 0.48027 0.0
H567 H 0.50607 0.55342 0.45576 0.0
H568 H 0.50457 0.46339 0.56266 0.0
H569 H 0.4684 0.49109 0.45796 0.0
O570 O 0.47633 0.49136 0.53473 0.0
O571 O 0.4642 0.50365 0.5003 0.0
H572 H 0.54299 0.52527 0.5605 0.0
O573 O 0.48811 0.54911 0.5038 0.0
O574 O 0.50053 0.53679 0.53815 0.0
O575 O 0.5346 0.52556 0.48386 0.0
O576 O 0.54678 0.51281 0.51813 0.0
C577 C 0.49112 0.55313 0.52536 0.0
H578 H 0.51464 0.45802 0.60415 0.0
H579 H 0.55481 0.5207 0.60127 0.0
H580 H 0.49597 0.55863 0.41424 0.0
H581 H 0.45665 0.49544 0.41715 0.0
C582 C 0.99007 0.55331 0.99148 0.0
N583 N 0.9921 0.52556 0.05949 0.0
C584 C 1.00064 0.54505 0.06945 0.0
C585 C 0.99653 0.54969 0.09304 0.0
C586 C 0.98327 0.53425 0.10628 0.0
C587 C 0.97412 0.5147 0.09537 0.0
C588 C 0.97889 0.51058 0.07192 0.0
Zn589 Zn 1.00087 0.51611 0.02622 0.0
C590 C 0.95892 0.49472 1.00265 0.0
N591 N 0.01909 0.49296 0.95781 0.0
C592 C 0.03085 0.50881 0.94509 0.0
C593 C 0.01154 0.47298 0.94801 0.0
C594 C 0.01495 0.46881 0.92423 0.0
C595 C 0.02602 0.4855 0.91057 0.0
C596 C 0.03451 0.50542 0.92138 0.0
Zn597 Zn 0.01036 0.50224 0.99112 0.0
O598 O 0.98894 0.55028 0.01336 0.0
C599 C 0.05235 0.52359 0.01466 0.0
O600 O 0.99816 0.53631 0.97878 0.0
H601 H 1.00213 0.46069 0.95845 0.0
H602 H 0.01116 0.55667 0.05925 0.0
H603 H 0.03668 0.52461 0.95317 0.0
O604 O 0.03677 0.52711 0.03084 0.0
O605 O 0.04609 0.51348 0.99611 0.0
H606 H 0.97263 0.49497 0.06384 0.0
O607 O 0.02242 0.46815 1.00402 0.0
O608 O 0.01286 0.48201 0.03861 0.0
O609 O 0.97445 0.4912 0.98643 0.0
O610 O 0.96518 0.50487 0.02118 0.0
C611 C 0.02108 0.46506 0.02589 0.0
H612 H 1.00379 0.56502 0.1009 0.0
H613 H 0.96416 0.50218 0.10507 0.0
H614 H 0.00809 0.45325 0.91645 0.0
H615 H 0.04348 0.5185 0.9115 0.0
H616 H 0.1049 0.0852 0.2636 0.0
H617 H 0.09038 0.06512 0.298 0.0
H618 H 0.07891 0.13153 0.33328 0.0
H619 H 0.09311 0.15171 0.29889 0.0
H620 H 0.10719 0.06201 0.34185 0.0
H621 H 0.01368 0.10504 0.34351 0.0
H622 H 0.0339 0.10746 0.31902 0.0
H623 H 0.03684 0.12582 0.34422 0.0
C624 C 0.09932 0.09556 0.27869 0.0
C625 C 0.10003 0.12015 0.27834 0.0
C626 C 0.09093 0.08403 0.29836 0.0
C627 C 0.08302 0.09677 0.31819 0.0
C628 C 0.08415 0.12128 0.31803 0.0
H629 H 0.03751 0.06652 0.45795 0.0
H630 H 0.05176 0.083 0.4217 0.0
C631 C 0.09236 0.13283 0.29832 0.0
C632 C 0.07413 0.08442 0.33917 0.0
H633 H 0.02639 0.08361 0.37749 0.0
C634 C 0.08941 0.0666 0.34948 0.0
C635 C 0.05086 0.09022 0.34919 0.0
C636 C 0.03277 0.108 0.33828 0.0
C637 C 0.08244 0.05506 0.36983 0.0
C638 C 0.05948 0.06133 0.38013 0.0
C639 C 0.04404 0.07886 0.36966 0.0
C640 C 0.05147 0.05062 0.40227 0.0
C641 C 0.09998 0.03672 0.3806 0.0
C642 C 0.04647 0.02682 0.40351 0.0
C643 C 0.03813 0.01726 0.42433 0.0
C644 C 0.0347 0.03131 0.44435 0.0
C645 C 0.03997 0.05508 0.44299 0.0
C646 C 0.0481 0.06461 0.42221 0.0
H647 H 0.1186 0.03684 0.37297 0.0
H648 H 0.10129 0.0395 0.39966 0.0
H649 H 0.09307 0.01913 0.37768 0.0
H650 H 0.04863 0.01573 0.38828 0.0
H651 H 0.03419 0.99894 0.42469 0.0
H652 H 0.41603 0.86474 0.79875 0.0
H653 H 0.42957 0.88492 0.83358 0.0
H654 H 0.41625 0.95151 0.79923 0.0
H655 H 0.40243 0.93147 0.76448 0.0
H656 H 0.46691 0.91247 0.84049 0.0
H657 H 0.37996 0.96424 0.8591 0.0
H658 H 0.38193 0.94064 0.83819 0.0
H659 H 0.39154 0.96913 0.83049 0.0
C660 C 0.41603 0.88368 0.79857 0.0
C661 C 0.40797 0.89645 0.7788 0.0
C662 C 0.4237 0.89523 0.81856 0.0
C663 C 0.42352 0.91983 0.81932 0.0
C664 C 0.41591 0.9326 0.79945 0.0
H665 H 0.47343 0.01689 0.92551 0.0
H666 H 0.45894 0.99951 0.88931 0.0
C667 C 0.40807 0.92108 0.77951 0.0
C668 C 0.43191 0.93198 0.84065 0.0
H669 H 0.41456 0.9734 0.88155 0.0
C670 C 0.45539 0.92573 0.84947 0.0
C671 C 0.41697 0.94937 0.85247 0.0
C672 C 0.39112 0.95611 0.84474 0.0
C673 C 0.46435 0.93641 0.86954 0.0
C674 C 0.4494 0.95373 0.88132 0.0
C675 C 0.42605 0.96021 0.87244 0.0
C676 C 0.45743 0.96459 0.9034 0.0
C677 C 0.48987 0.92924 0.8779 0.0
C678 C 0.46092 0.95087 0.92347 0.0
C679 C 0.46901 0.96073 0.94415 0.0
C680 C 0.47388 0.98461 0.9453 0.0
C681 C 0.46993 0.99846 0.92526 0.0
C682 C 0.46165 0.98856 0.90455 0.0
H683 H 0.50097 0.91991 0.86417 0.0
H684 H 0.49947 0.94476 0.88369 0.0
H685 H 0.48873 0.91725 0.89296 0.0
H686 H 0.45744 0.93243 0.92312 0.0
H687 H 0.47174 0.94949 0.95919 0.0
H688 H 0.5861 0.50937 0.82518 0.0
H689 H 0.57491 0.51502 0.78411 0.0
H690 H 0.56412 0.44119 0.77775 0.0
H691 H 0.57498 0.4355 0.81851 0.0
H692 H 0.59735 0.49503 0.74573 0.0
H693 H 0.50136 0.47015 0.75004 0.0
H694 H 0.5188 0.47647 0.77568 0.0
H695 H 0.52247 0.44809 0.76204 0.0
C696 C 0.58115 0.49443 0.815 0.0
C697 C 0.58104 0.47208 0.8251 0.0
C698 C 0.57474 0.49767 0.79163 0.0
C699 C 0.56817 0.4786 0.77807 0.0
C700 C 0.56836 0.45626 0.78808 0.0
H701 H 0.54687 0.44981 0.63242 0.0
H702 H 0.55459 0.4479 0.6744 0.0
C703 C 0.57459 0.45305 0.81138 0.0
C704 C 0.56231 0.48162 0.75311 0.0
H705 H 0.51927 0.47099 0.71207 0.0
C706 C 0.58017 0.49005 0.7384 0.0
C707 C 0.53987 0.47508 0.74363 0.0
C708 C 0.51944 0.46717 0.75871 0.0
C709 C 0.57645 0.49145 0.71431 0.0
C710 C 0.55434 0.48426 0.70484 0.0
C711 C 0.53631 0.47621 0.71951 0.0
C712 C 0.54947 0.48536 0.67968 0.0
C713 C 0.59631 0.5001 0.699 0.0
C714 C 0.54375 0.50702 0.66905 0.0
C715 C 0.53906 0.50817 0.64525 0.0
C716 C 0.54016 0.48764 0.63161 0.0
C717 C 0.5457 0.4659 0.64244 0.0
C718 C 0.55024 0.46478 0.66634 0.0
H719 H 0.61361 0.50211 0.70871 0.0
H720 H 0.60005 0.48781 0.68428 0.0
H721 H 0.59006 0.51738 0.69159 0.0
H722 H 0.54278 0.52303 0.67922 0.0
H723 H 0.53429 0.52514 0.63759 0.0
H724 H 0.98987 0.53808 0.33074 0.0
H725 H 0.99775 0.53515 0.28892 0.0
H726 H 0.92008 0.53836 0.27562 0.0
H727 H 0.91197 0.54251 0.31705 0.0
H728 H 0.9846 0.50485 0.25361 0.0
H729 H 0.94252 0.59471 0.24 0.0
H730 H 0.94992 0.58318 0.2685 0.0
H731 H 0.92242 0.57553 0.25395 0.0
C732 C 0.97447 0.53806 0.31892 0.0
C733 C 0.9503 0.54087 0.32729 0.0
C734 C 0.97901 0.53626 0.29506 0.0
C735 C 0.95948 0.53719 0.27923 0.0
C736 C 0.9354 0.53819 0.28758 0.0
H737 H 0.94135 0.5313 0.13131 0.0
H738 H 0.93689 0.5327 0.17367 0.0
C739 C 0.93082 0.54018 0.31135 0.0
C740 C 0.96414 0.53832 0.25396 0.0
H741 H 0.95186 0.57213 0.20596 0.0
C742 C 0.97763 0.51962 0.24319 0.0
C743 C 0.95521 0.55777 0.24051 0.0
C744 C 0.94193 0.57905 0.25134 0.0
C745 C 0.9817 0.51951 0.21911 0.0
C746 C 0.97214 0.53863 0.20566 0.0
C747 C 0.95904 0.55749 0.21644 0.0
C748 C 0.97483 0.53896 0.18018 0.0
C749 C 0.99564 0.49876 0.20804 0.0
C750 C 0.99751 0.54262 0.17001 0.0
C751 C 1.00008 0.542 0.14585 0.0
C752 C 0.98 0.53756 0.13161 0.0
C753 C 0.95714 0.53456 0.14191 0.0
C754 C 0.95456 0.53537 0.16602 0.0
H755 H 0.99928 0.4841 0.22049 0.0
H756 H 0.98526 0.49232 0.19298 0.0
H757 H 0.01343 0.50424 0.20145 0.0
H758 H 0.01327 0.54561 0.18077 0.0
H759 H 0.01793 0.54415 0.13835 0.0
H760 H 0.25356 0.07076 0.13349 0.0
H761 H 0.29053 0.05495 0.11363 0.0
H762 H 0.31072 0.12506 0.09923 0.0
H763 H 0.27417 0.14113 0.11958 0.0
H764 H 0.31353 0.09251 0.05986 0.0
H765 H 0.36215 0.05695 0.13834 0.0
H766 H 0.3312 0.0488 0.13464 0.0
H767 H 0.33694 0.07891 0.14 0.0
C768 C 0.26598 0.08289 0.12641 0.0
C769 C 0.26079 0.10729 0.12831 0.0
C770 C 0.28709 0.07378 0.11497 0.0
C771 C 0.30351 0.08882 0.10514 0.0
C772 C 0.29831 0.11313 0.1067 0.0
H773 H 0.43866 0.07013 0.02496 0.0
H774 H 0.40076 0.08547 0.04351 0.0
C775 C 0.27728 0.12227 0.11825 0.0
C776 C 0.326 0.0792 0.09306 0.0
H777 H 0.38063 0.04812 0.10203 0.0
C778 C 0.32825 0.08285 0.06905 0.0
C779 C 0.34511 0.06652 0.10507 0.0
C780 C 0.34396 0.06265 0.13097 0.0
C781 C 0.34894 0.07382 0.05666 0.0
C782 C 0.36823 0.06131 0.06872 0.0
C783 C 0.3659 0.05767 0.09275 0.0
C784 C 0.39103 0.05192 0.05685 0.0
C785 C 0.34959 0.07728 0.03068 0.0
C786 C 0.39864 0.02804 0.05857 0.0
C787 C 0.42051 0.01925 0.04823 0.0
C788 C 0.43532 0.03418 0.03591 0.0
C789 C 0.42762 0.05808 0.03411 0.0
C790 C 0.40582 0.06687 0.0446 0.0
H791 H 0.33089 0.08066 0.02338 0.0
H792 H 0.36014 0.0927 0.02671 0.0
H793 H 0.35854 0.06173 0.02181 0.0
H794 H 0.38765 0.01614 0.068 0.0
H795 H 0.42587 1.00077 0.05001 0.0
H796 H 0.22468 0.90742 0.65785 0.0
H797 H 0.18758 0.92209 0.63731 0.0
H798 H 0.22973 0.92928 0.57467 0.0
H799 H 0.26654 0.91343 0.59492 0.0
H800 H 0.17434 0.9614 0.61851 0.0
H801 H 0.17567 0.8952 0.54829 0.0
H802 H 0.19606 0.89244 0.57288 0.0
H803 H 0.2032 0.91051 0.54848 0.0
C804 C 0.22594 0.91205 0.63966 0.0
C805 C 0.24841 0.90914 0.62791 0.0
C806 C 0.20474 0.92043 0.6279 0.0
C807 C 0.2056 0.92638 0.60421 0.0
C808 C 0.22827 0.92407 0.59266 0.0
H809 H 0.08852 0.01593 0.53976 0.0
H810 H 0.12655 1.00044 0.55805 0.0
C811 C 0.24937 0.9152 0.60429 0.0
C812 C 0.18292 0.9356 0.59191 0.0
H813 H 0.14828 0.92899 0.54312 0.0
C814 C 0.16859 0.95417 0.60209 0.0
C815 C 0.17502 0.92601 0.57065 0.0
C816 C 0.18815 0.90478 0.55958 0.0
C817 C 0.14686 0.96349 0.59164 0.0
C818 C 0.13967 0.95473 0.56977 0.0
C819 C 0.15387 0.93601 0.55968 0.0
C820 C 0.11715 0.96421 0.55738 0.0
C821 C 0.13151 0.9821 0.60463 0.0
C822 C 0.09967 0.94898 0.54963 0.0
C823 C 0.07824 0.95776 0.53849 0.0
C824 C 0.07366 0.982 0.53511 0.0
C825 C 0.09137 0.99719 0.54239 0.0
C826 C 0.11304 0.98836 0.55307 0.0
H827 H 0.13508 0.98121 0.62364 0.0
H828 H 0.13624 0.99966 0.59859 0.0
H829 H 0.11166 0.98038 0.60168 0.0
H830 H 0.10237 0.93028 0.55257 0.0
H831 H 0.06494 0.94559 0.53311 0.0
H832 H 0.72961 0.48006 0.96692 0.0
H833 H 0.77231 0.4881 0.97268 0.0
H834 H 0.78841 0.41691 0.99547 0.0
H835 H 0.74611 0.40812 0.98792 0.0
H836 H 0.8005 0.48791 0.00891 0.0
H837 H 0.83987 0.4213 0.9471 0.0
H838 H 0.80741 0.42857 0.94915 0.0
H839 H 0.82243 0.40866 0.96965 0.0
C840 C 0.74226 0.46593 0.97276 0.0
C841 C 0.73438 0.4433 0.97653 0.0
C842 C 0.76668 0.47066 0.97629 0.0
C843 C 0.78375 0.45297 0.98397 0.0
C844 C 0.77576 0.43066 0.98884 0.0
H845 H 0.92666 0.48635 0.03714 0.0
H846 H 0.88453 0.47523 0.03303 0.0
C847 C 0.7514 0.42578 0.98491 0.0
C848 C 0.80981 0.45811 0.98694 0.0
H849 H 0.86811 0.4402 0.97095 0.0
C850 C 0.81528 0.47751 1.00055 0.0
C851 C 0.82908 0.44479 0.97569 0.0
C852 C 0.82442 0.42483 0.95939 0.0
C853 C 0.8394 0.48398 1.00324 0.0
C854 C 0.85876 0.47006 0.99282 0.0
C855 C 0.85331 0.45069 0.97916 0.0
C856 C 0.88474 0.47561 0.99539 0.0
C857 C 0.84369 0.5061 0.0166 0.0
C858 C 0.89933 0.47834 0.97562 0.0
C859 C 0.92365 0.48407 0.97794 0.0
C860 C 0.9337 0.48743 1.00008 0.0
C861 C 0.91925 0.48422 0.01984 0.0
C862 C 0.89512 0.47804 0.01752 0.0
H863 H 0.82703 0.51829 0.01691 0.0
H864 H 0.84842 0.50152 0.03487 0.0
H865 H 0.85893 0.51545 0.00899 0.0
H866 H 0.89178 0.4764 0.95836 0.0
H867 H 0.93439 0.48641 0.96241 0.0
H868 H 0.78091 0.52022 0.46365 0.0
H869 H 0.73738 0.51628 0.47119 0.0
H870 H 0.72278 0.59049 0.46018 0.0
H871 H 0.76626 0.59458 0.45259 0.0
H872 H 0.69919 0.57402 0.49891 0.0
H873 H 0.68373 0.51892 0.42148 0.0
H874 H 0.70817 0.50735 0.43983 0.0
H875 H 0.71093 0.5348 0.42514 0.0
C876 C 0.76841 0.53568 0.46274 0.0
C877 C 0.77698 0.55769 0.45742 0.0
C878 C 0.74356 0.53339 0.46701 0.0
C879 C 0.72684 0.55303 0.4658 0.0
C880 C 0.73541 0.57511 0.46108 0.0
H881 H 0.56846 0.54264 0.45944 0.0
H882 H 0.61051 0.55242 0.45123 0.0
C883 C 0.76026 0.57743 0.45688 0.0
C884 C 0.7004 0.55052 0.46957 0.0
H885 H 0.65168 0.52203 0.44951 0.0
C886 C 0.68874 0.56277 0.48804 0.0
C887 C 0.68674 0.5362 0.45507 0.0
C888 C 0.69794 0.52374 0.43412 0.0
C889 C 0.66389 0.56047 0.49289 0.0
C890 C 0.65056 0.54521 0.4791 0.0
C891 C 0.66202 0.53356 0.46018 0.0
C892 C 0.62493 0.54042 0.48448 0.0
C893 C 0.65214 0.57447 0.51263 0.0
C894 C 0.6192 0.53032 0.50581 0.0
C895 C 0.59527 0.52477 0.51057 0.0
C896 C 0.57663 0.52902 0.49397 0.0
C897 C 0.5824 0.53919 0.4726 0.0
C898 C 0.60638 0.54478 0.46788 0.0
H899 H 0.66237 0.59012 0.51677 0.0
H900 H 0.63289 0.58032 0.50847 0.0
H901 H 0.65214 0.56335 0.52842 0.0
H902 H 0.63334 0.52632 0.51865 0.0
H903 H 0.59149 0.51685 0.52716 0.0
H904 H 0.14105 0.2869 0.11549 0.0
H905 H 0.12265 0.32277 0.09829 0.0
H906 H 0.05068 0.30061 0.11381 0.0
H907 H 0.06905 0.264 0.13038 0.0
H908 H 0.05356 0.31761 0.06931 0.0
H909 H 0.09212 0.38012 0.1307 0.0
H910 H 0.11532 0.36079 0.11763 0.0
H911 H 0.09282 0.34904 0.13635 0.0
C912 C 0.12128 0.28952 0.11523 0.0
C913 C 0.10657 0.27237 0.12427 0.0
C914 C 0.11077 0.31027 0.1056 0.0
C915 C 0.08525 0.31466 0.10499 0.0
C916 C 0.07043 0.29772 0.11417 0.0
H917 H 0.01602 0.4522 0.07127 0.0
H918 H 0.03005 0.4154 0.08984 0.0
C919 C 0.08097 0.27686 0.12382 0.0
C920 C 0.07421 0.33659 0.09408 0.0
H921 H 0.0753 0.39632 0.09548 0.0
C922 C 0.05817 0.33483 0.07515 0.0
C923 C 0.07993 0.35914 0.1018 0.0
C924 C 0.09579 0.36245 0.12288 0.0
C925 C 0.04822 0.35489 0.06343 0.0
C926 C 0.05484 0.37739 0.0705 0.0
C927 C 0.07042 0.37914 0.08979 0.0
C928 C 0.04548 0.39942 0.05857 0.0
C929 C 0.0304 0.35176 0.04382 0.0
C930 C 0.04947 0.40292 0.0347 0.0
C931 C 0.04128 0.42403 0.02391 0.0
C932 C 0.02919 0.44223 0.03683 0.0
C933 C 0.02528 0.43864 0.06072 0.0
C934 C 0.03332 0.41755 0.07142 0.0
H935 H 0.0219 0.33467 0.045 0.0
H936 H 0.01563 0.36603 0.04374 0.0
H937 H 0.04029 0.35215 0.02702 0.0
H938 H 0.05931 0.3895 0.02446 0.0
H939 H 0.04477 0.42623 1.00555 0.0
H940 H 0.56882 0.32143 0.9998 0.0
H941 H 0.55987 0.28011 1.00365 0.0
H942 H 0.53217 0.28044 0.93345 0.0
H943 H 0.54195 0.32109 0.92906 0.0
H944 H 0.51565 0.25772 0.99839 0.0
H945 H 0.58465 0.22631 0.93295 0.0
H946 H 0.584 0.25535 0.94539 0.0
H947 H 0.56323 0.24891 0.92234 0.0
C948 C 0.5609 0.31267 0.98517 0.0
C949 C 0.55615 0.3246 0.96412 0.0
C950 C 0.55568 0.28914 0.98744 0.0
C951 C 0.54576 0.27719 0.96868 0.0
C952 C 0.54023 0.28925 0.94799 0.0
H953 H 0.50505 0.13485 0.94365 0.0
H954 H 0.51016 0.17717 0.94143 0.0
C955 C 0.54552 0.31264 0.94565 0.0
C956 C 0.54149 0.25198 0.97045 0.0
H957 H 0.557 0.1987 0.94581 0.0
C958 C 0.52476 0.24477 0.98701 0.0
C959 C 0.55345 0.23519 0.95553 0.0
C960 C 0.57251 0.24174 0.9382 0.0
C961 C 0.51932 0.22118 0.98874 0.0
C962 C 0.53111 0.20448 0.97366 0.0
C963 C 0.54786 0.21167 0.95717 0.0
C964 C 0.52707 0.17926 0.97532 0.0
C965 C 0.50077 0.21432 1.00641 0.0
C966 C 0.53507 0.16658 0.99501 0.0
C967 C 0.53228 0.14255 0.99627 0.0
C968 C 0.52148 0.13075 0.97783 0.0
C969 C 0.51331 0.14353 0.95815 0.0
C970 C 0.51626 0.16761 0.95685 0.0
H971 H 0.48938 0.22975 0.01291 0.0
H972 H 0.48855 0.20149 0.99889 0.0
H973 H 0.51048 0.20589 0.02146 0.0
H974 H 0.54375 0.17523 0.0093 0.0
H975 H 0.53846 0.13321 0.01179 0.0
H976 H 0.9476 0.69849 0.4281 0.0
H977 H 0.96161 0.73797 0.43093 0.0
H978 H 0.94185 0.74069 0.50347 0.0
H979 H 0.92878 0.70059 0.50109 0.0
H980 H 0.93385 0.77742 0.44189 0.0
H981 H 0.0104 0.76399 0.50471 0.0
H982 H 0.99687 0.73994 0.49022 0.0
H983 H 0.98207 0.75376 0.51505 0.0
C984 C 0.94679 0.70719 0.44485 0.0
C985 C 0.9373 0.69625 0.46446 0.0
C986 C 0.95462 0.72986 0.44635 0.0
C987 C 0.9531 0.74212 0.46746 0.0
C988 C 0.94367 0.73133 0.48712 0.0
H989 H 0.96782 0.88399 0.51061 0.0
H990 H 0.96077 0.8424 0.50668 0.0
C991 C 0.93593 0.70853 0.48567 0.0
C992 C 0.96001 0.76671 0.46844 0.0
H993 H 0.99693 0.80363 0.49635 0.0
C994 C 0.94781 0.78312 0.45363 0.0
C995 C 0.97827 0.77404 0.48374 0.0
C996 C 0.99284 0.75698 0.49918 0.0
C997 C 0.9529 0.80683 0.45418 0.0
C998 C 0.9708 0.81421 0.46978 0.0
C999 C 0.98323 0.79781 0.4844 0.0
C1000 C 0.97591 0.83914 0.47205 0.0
C1001 C 0.93862 0.82396 0.43858 0.0
C1002 C 0.98703 0.85092 0.45391 0.0
C1003 C 0.99103 0.87475 0.45607 0.0
C1004 C 0.98385 0.88708 0.47635 0.0
C1005 C 0.97311 0.87504 0.4946 0.0
C1006 C 0.96925 0.85128 0.49248 0.0
H1007 H 0.92265 0.81612 0.43041 0.0
H1008 H 0.93199 0.83978 0.44853 0.0
H1009 H 0.95075 0.82967 0.42454 0.0
H1010 H 0.99249 0.8417 0.4381 0.0
H1011 H 0.99933 0.8836 0.44176 0.0
H1012 H 0.44229 0.75502 0.62856 0.0
H1013 H 0.46088 0.71862 0.61169 0.0
H1014 H 0.38914 0.69646 0.59495 0.0
H1015 H 0.37049 0.73217 0.61243 0.0
H1016 H 0.41809 0.66094 0.61312 0.0
H1017 H 0.46765 0.70403 0.54263 0.0
H1018 H 0.47493 0.71369 0.5714 0.0
H1019 H 0.44451 0.71956 0.56011 0.0
C1020 C 0.43047 0.74228 0.6215 0.0
C1021 C 0.40487 0.74674 0.62163 0.0
C1022 C 0.44115 0.72159 0.61158 0.0
C1023 C 0.42646 0.70497 0.60154 0.0
C1024 C 0.40092 0.70907 0.60233 0.0
H1025 H 0.46596 0.59096 0.50483 0.0
H1026 H 0.45093 0.6278 0.52342 0.0
C1027 C 0.39027 0.72964 0.61222 0.0
C1028 C 0.4374 0.68315 0.59033 0.0
H1029 H 0.47473 0.66284 0.54602 0.0
C1030 C 0.43053 0.66138 0.59848 0.0
C1031 C 0.45332 0.68367 0.57096 0.0
C1032 C 0.4604 0.70647 0.56056 0.0
C1033 C 0.43917 0.64021 0.58796 0.0
C1034 C 0.45558 0.64068 0.56896 0.0
C1035 C 0.46233 0.66244 0.56068 0.0
C1036 C 0.46567 0.61875 0.55739 0.0
C1037 C 0.4301 0.61754 0.59693 0.0
C1038 C 0.47946 0.6016 0.5701 0.0
C1039 C 0.48797 0.58054 0.55956 0.0
C1040 C 0.48312 0.57616 0.53595 0.0
C1041 C 0.46998 0.59368 0.52303 0.0
C1042 C 0.46138 0.61477 0.53364 0.0
H1043 H 0.41284 0.62055 0.60696 0.0
H1044 H 0.42688 0.60524 0.58245 0.0
H1045 H 0.44408 0.60906 0.60869 0.0
H1046 H 0.48354 0.60443 0.58827 0.0
H1047 H 0.49822 0.56758 0.57004 0.0
H1048 H 0.89799 0.94284 0.75269 0.0
H1049 H 0.91461 0.95933 0.71728 0.0
H1050 H 0.92458 0.89004 0.68772 0.0
H1051 H 0.90764 0.87339 0.72306 0.0
H1052 H 0.96118 0.9493 0.69484 0.0
H1053 H 0.88298 0.92816 0.63859 0.0
H1054 H 0.88121 0.92804 0.66993 0.0
H1055 H 0.89699 0.90404 0.65486 0.0
C1056 C 0.90363 0.93107 0.73864 0.0
C1057 C 0.90123 0.90677 0.74069 0.0
C1058 C 0.91326 0.94054 0.71843 0.0
C1059 C 0.92053 0.92601 0.69966 0.0
C1060 C 0.91877 0.90167 0.70183 0.0
H1061 H 0.97207 0.95074 0.55963 0.0
H1062 H 0.95729 0.93475 0.59588 0.0
C1063 C 0.90928 0.89214 0.72214 0.0
C1064 C 0.92971 0.93642 0.67781 0.0
H1065 H 0.91646 0.94437 0.62015 0.0
C1066 C 0.9514 0.94827 0.6785 0.0
C1067 C 0.91695 0.93511 0.65648 0.0
C1068 C 0.89313 0.92333 0.65481 0.0
C1069 C 0.96094 0.95837 0.65839 0.0
C1070 C 0.9481 0.95718 0.63703 0.0
C1071 C 0.92634 0.94538 0.63643 0.0
C1072 C 0.95718 0.96741 0.61497 0.0
C1073 C 0.98509 0.96957 0.66013 0.0
C1074 C 0.96182 0.99129 0.61329 0.0
C1075 C 0.97051 1.00054 0.59247 0.0
C1076 C 0.97445 0.98617 0.57276 0.0
C1077 C 0.9693 0.9624 0.5744 0.0
C1078 C 0.9608 0.95317 0.59519 0.0
H1079 H 0.99575 0.96322 0.67558 0.0
H1080 H 0.99639 0.96596 0.64436 0.0
H1081 H 0.98162 0.98883 0.66188 0.0
H1082 H 0.95858 1.00286 0.62804 0.0
H1083 H 0.9741 0.01894 0.59183 0.0
H1084 H 0.59286 0.15215 0.2188 0.0
H1085 H 0.57921 0.13187 0.18399 0.0
H1086 H 0.59385 0.06528 0.21792 0.0
H1087 H 0.60728 0.08541 0.25287 0.0
H1088 H 0.60761 0.09598 0.15708 0.0
H1089 H 0.52198 0.06373 0.19352 0.0
H1090 H 0.53728 0.08759 0.20652 0.0
H1091 H 0.54936 0.05791 0.21043 0.0
C1092 C 0.59294 0.13321 0.21897 0.0
C1093 C 0.60113 0.12045 0.23871 0.0
C1094 C 0.58526 0.12163 0.19899 0.0
C1095 C 0.58526 0.09706 0.1984 0.0
C1096 C 0.5934 0.08426 0.21805 0.0
H1097 H 0.53639 1.00009 0.09177 0.0
H1098 H 0.55224 0.01711 0.12754 0.0
C1099 C 0.60127 0.0958 0.23796 0.0
C1100 C 0.57728 0.08485 0.17705 0.0
H1101 H 0.53274 0.05153 0.15547 0.0
C1102 C 0.59123 0.08627 0.15671 0.0
C1103 C 0.55605 0.07198 0.17663 0.0
C1104 C 0.54012 0.07025 0.19785 0.0
C1105 C 0.58462 0.07511 0.13601 0.0
C1106 C 0.56302 0.06269 0.13538 0.0
C1107 C 0.54926 0.06102 0.15586 0.0
C1108 C 0.55394 0.05208 0.11349 0.0
C1109 C 0.60117 0.07639 0.11516 0.0
C1110 C 0.54932 0.06601 0.09369 0.0
C1111 C 0.54048 0.05631 0.07323 0.0
C1112 C 0.53564 0.03243 0.07207 0.0
C1113 C 0.54 0.0185 0.09198 0.0
C1114 C 0.54903 0.02823 0.11247 0.0
H1115 H 0.62024 0.07947 0.12042 0.0
H1116 H 0.60144 0.06003 0.10469 0.0
H1117 H 0.59446 0.09126 0.10399 0.0
H1118 H 0.55224 0.08456 0.09412 0.0
H1119 H 0.53712 0.06769 0.05838 0.0
H1120 H 0.43624 0.57932 0.19996 0.0
H1121 H 0.44608 0.57348 0.24102 0.0
H1122 H 0.43508 0.49979 0.23418 0.0
H1123 H 0.42533 0.50542 0.19273 0.0
H1124 H 0.41061 0.54914 0.27445 0.0
H1125 H 0.506 0.50932 0.26687 0.0
H1126 H 0.49266 0.52868 0.24481 0.0
H1127 H 0.48262 0.49962 0.24765 0.0
C1128 C 0.43634 0.56176 0.20704 0.0
C1129 C 0.43024 0.54275 0.19309 0.0
C1130 C 0.44179 0.55853 0.23051 0.0
C1131 C 0.44138 0.53623 0.24044 0.0
C1132 C 0.43558 0.5171 0.22665 0.0
H1133 H 0.47746 0.4913 0.38077 0.0
H1134 H 0.46811 0.49318 0.33934 0.0
C1135 C 0.42996 0.52035 0.20309 0.0
C1136 C 0.44614 0.53342 0.26551 0.0
H1137 H 0.4904 0.51586 0.30459 0.0
C1138 C 0.42798 0.54177 0.28113 0.0
C1139 C 0.46879 0.52374 0.27393 0.0
C1140 C 0.48879 0.51484 0.25756 0.0
C1141 C 0.43191 0.54071 0.3052 0.0
C1142 C 0.45486 0.53164 0.3137 0.0
C1143 C 0.47289 0.52295 0.29799 0.0
C1144 C 0.46047 0.53078 0.33885 0.0
C1145 C 0.41133 0.54898 0.32125 0.0
C1146 C 0.45961 0.55138 0.35225 0.0
C1147 C 0.46461 0.55034 0.37607 0.0
C1148 C 0.47077 0.52869 0.38682 0.0
C1149 C 0.4722 0.5082 0.37316 0.0
C1150 C 0.46708 0.50924 0.34943 0.0
H1151 H 0.39325 0.54908 0.31243 0.0
H1152 H 0.41087 0.53772 0.33693 0.0
H1153 H 0.41411 0.56717 0.32697 0.0
H1154 H 0.45508 0.56826 0.34428 0.0
H1155 H 0.46332 0.56643 0.38609 0.0
H1156 H 0.06906 0.50085 0.6912 0.0
H1157 H 0.06118 0.50633 0.73286 0.0
H1158 H 0.02959 0.43927 0.73566 0.0
H1159 H 0.03793 0.43326 0.69444 0.0
H1160 H 1.00267 0.47865 0.76001 0.0
H1161 H 0.10154 0.46541 0.78276 0.0
H1162 H 0.09344 0.4867 0.76058 0.0
H1163 H 0.08946 0.45626 0.7552 0.0
C1164 C 0.06038 0.4873 0.70066 0.0
C1165 C 0.05417 0.46661 0.68944 0.0
C1166 C 0.05586 0.49049 0.72441 0.0
C1167 C 0.04502 0.47309 0.73723 0.0
C1168 C 0.03792 0.4529 0.72596 0.0
H1169 H 0.04118 0.44646 0.88548 0.0
H1170 H 0.04483 0.44312 0.84302 0.0
C1171 C 0.04255 0.44961 0.70233 0.0
C1172 C 0.04197 0.47528 0.76263 0.0
H1173 H 0.07394 0.47364 0.81361 0.0
C1174 C 0.0182 0.47767 0.77177 0.0
C1175 C 0.06234 0.47358 0.77779 0.0
C1176 C 0.08818 0.47018 0.76872 0.0
C1177 C 0.01428 0.47869 0.79585 0.0
C1178 C 0.03466 0.47732 0.81099 0.0
C1179 C 0.05841 0.4747 0.80185 0.0
C1180 C 0.03173 0.47902 0.83643 0.0
C1181 C 0.98841 0.4809 0.80498 0.0
C1182 C 0.02325 0.50031 0.84656 0.0
C1183 C 0.02125 0.50227 0.87065 0.0
C1184 C 0.0277 0.48296 0.88501 0.0
C1185 C 0.03596 0.46155 0.87479 0.0
C1186 C 0.03813 0.45965 0.85063 0.0
H1187 H 0.97483 0.47702 0.79137 0.0
H1188 H 0.98632 0.46887 0.81988 0.0
H1189 H 0.98418 0.49908 0.81125 0.0
H1190 H 0.01845 0.51548 0.83584 0.0
H1191 H 0.01456 0.51891 0.87805 0.0
H1192 H 0.75831 0.93442 0.88988 0.0
H1193 H 0.7214 0.95388 0.90714 0.0
H1194 H 0.6951 0.88663 0.92429 0.0
H1195 H 0.73142 0.86701 0.90659 0.0
H1196 H 0.66919 0.94693 0.89633 0.0
H1197 H 0.69541 0.92403 0.98719 0.0
H1198 H 0.71736 0.92351 0.96374 0.0
H1199 H 0.69727 0.90009 0.96681 0.0
C1200 C 0.74456 0.92372 0.89705 0.0
C1201 C 0.74808 0.89908 0.89701 0.0
C1202 C 0.72352 0.9349 0.90703 0.0
C1203 C 0.7057 0.92171 0.91734 0.0
C1204 C 0.70884 0.89717 0.91684 0.0
H1205 H 0.57029 0.94694 0.99327 0.0
H1206 H 0.60806 0.93109 0.97488 0.0
C1207 C 0.72973 0.88599 0.90677 0.0
C1208 C 0.68378 0.93344 0.9287 0.0
H1209 H 0.65518 0.94072 0.98121 0.0
C1210 C 0.66616 0.94577 0.91491 0.0
C1211 C 0.67986 0.93178 0.95291 0.0
C1212 C 0.69852 0.91931 0.96864 0.0
C1213 C 0.64434 0.95589 0.92459 0.0
C1214 C 0.64032 0.95416 0.94885 0.0
C1215 C 0.65818 0.94207 0.96265 0.0
C1216 C 0.61749 0.96417 0.96023 0.0
C1217 C 0.62542 0.96757 0.90858 0.0
C1218 C 0.61032 0.98816 0.95854 0.0
C1219 C 0.58858 0.99728 0.96894 0.0
C1220 C 0.57369 0.98264 0.98153 0.0
C1221 C 0.58126 0.95874 0.98371 0.0
C1222 C 0.60289 0.94963 0.97318 0.0
H1223 H 0.62819 0.96178 0.89027 0.0
H1224 H 0.60661 0.96379 0.91397 0.0
H1225 H 0.62691 0.98683 0.90917 0.0
H1226 H 0.62155 0.9999 0.94921 0.0
H1227 H 0.58343 0.0158 0.96707 0.0
H1228 H 0.78534 0.10955 0.35924 0.0
H1229 H 0.82189 0.09383 0.37995 0.0
H1230 H 0.77912 0.08767 0.44235 0.0
H1231 H 0.74283 0.10452 0.4219 0.0
H1232 H 0.82038 0.10352 0.45347 0.0
H1233 H 0.84119 0.02788 0.39528 0.0
H1234 H 0.84092 0.0549 0.37955 0.0
H1235 H 0.81318 0.04611 0.39291 0.0
C1236 C 0.78378 0.10471 0.37735 0.0
C1237 C 0.76125 0.1081 0.38894 0.0
C1238 C 0.80464 0.09555 0.38916 0.0
C1239 C 0.80327 0.08891 0.41263 0.0
C1240 C 0.78073 0.0925 0.42424 0.0
H1241 H 0.92081 1.00099 0.47764 0.0
H1242 H 0.88226 0.01631 0.46018 0.0
C1243 C 0.75999 0.10212 0.41257 0.0
C1244 C 0.82539 0.07885 0.42525 0.0
H1245 H 0.87291 0.03716 0.42167 0.0
C1246 C 0.83173 0.08887 0.44658 0.0
C1247 C 0.84007 0.05941 0.41662 0.0
C1248 C 0.83333 0.0463 0.39498 0.0
C1249 C 0.85242 0.08034 0.45925 0.0
C1250 C 0.86792 0.06183 0.44991 0.0
C1251 C 0.86133 0.05154 0.42879 0.0
C1252 C 0.89096 0.05272 0.46169 0.0
C1253 C 0.85698 0.09095 0.48277 0.0
C1254 C 0.90886 0.06796 0.46843 0.0
C1255 C 0.93068 0.05925 0.47894 0.0
C1256 C 0.93543 0.03503 0.4823 0.0
C1257 C 0.91769 0.01975 0.4753 0.0
C1258 C 0.89565 0.02851 0.46526 0.0
H1259 H 0.83971 0.09853 0.49065 0.0
H1260 H 0.86552 0.07778 0.49496 0.0
H1261 H 0.86941 0.10539 0.48077 0.0
H1262 H 0.90621 0.0866 0.4652 0.0
H1263 H 0.94414 0.07146 0.48381 0.0
H1264 H 0.27935 0.57478 1.00809 0.0
H1265 H 0.23653 0.56677 1.00046 0.0
H1266 H 0.2213 0.57039 0.07393 0.0
H1267 H 0.26387 0.57857 0.08168 0.0
H1268 H 0.2113 0.52745 0.02134 0.0
H1269 H 0.1675 0.61548 0.0421 0.0
H1270 H 0.1995 0.61092 0.03458 0.0
H1271 H 0.18923 0.60346 0.06307 0.0
C1272 C 0.26678 0.5741 0.02256 0.0
C1273 C 0.27491 0.57724 0.04547 0.0
C1274 C 0.24242 0.56945 0.01819 0.0
C1275 C 0.22582 0.56824 0.03663 0.0
C1276 C 0.23383 0.57153 0.05948 0.0
H1277 H 0.07379 0.5402 0.05383 0.0
H1278 H 0.11608 0.55097 0.0584 0.0
C1279 C 0.25817 0.57599 0.06387 0.0
C1280 C 0.20028 0.56258 0.0322 0.0
H1281 H 0.14106 0.58471 0.03654 0.0
C1282 C 0.1959 0.53997 0.02445 0.0
C1283 C 0.18036 0.57898 0.0365 0.0
C1284 C 0.18425 0.60365 0.04437 0.0
C1285 C 0.17197 0.53308 0.02142 0.0
C1286 C 0.15197 0.54948 0.02571 0.0
C1287 C 0.15642 0.57219 0.03326 0.0
C1288 C 0.12629 0.54334 0.02271 0.0
C1289 C 0.16834 0.50807 0.01442 0.0
C1290 C 0.11792 0.53588 1.00104 0.0
C1291 C 0.09386 0.52954 0.99843 0.0
C1292 C 0.07762 0.53086 0.01738 0.0
C1293 C 0.08587 0.53893 0.03892 0.0
C1294 C 0.11001 0.54511 0.04156 0.0
H1295 H 0.18486 0.49632 0.01811 0.0
H1296 H 0.15249 0.50123 0.02363 0.0
H1297 H 0.16473 0.50738 0.99546 0.0
H1298 H 0.13 0.53496 0.98613 0.0
H1299 H 0.088 0.52365 0.98153 0.0
H1300 H 0.23035 0.4941 0.56263 0.0
H1301 H 0.27325 0.49939 0.55333 0.0
H1302 H 0.28944 0.42466 0.55771 0.0
H1303 H 0.24652 0.41923 0.56681 0.0
H1304 H 0.31399 0.48794 0.57941 0.0
H1305 H 0.31893 0.44017 0.4953 0.0
H1306 H 0.29027 0.44867 0.50938 0.0
H1307 H 0.3084 0.42317 0.51904 0.0
C1308 C 0.24306 0.47881 0.56158 0.0
C1309 C 0.23508 0.45625 0.56534 0.0
C1310 C 0.26752 0.48184 0.55622 0.0
C1311 C 0.28444 0.46239 0.55451 0.0
C1312 C 0.27657 0.43985 0.55839 0.0
H1313 H 0.44302 0.47253 0.55845 0.0
H1314 H 0.4009 0.46354 0.56726 0.0
C1315 C 0.25207 0.43679 0.56361 0.0
C1316 C 0.31047 0.46585 0.54939 0.0
H1317 H 0.35648 0.4518 0.51084 0.0
C1318 C 0.3233 0.48007 0.56441 0.0
C1319 C 0.32246 0.45572 0.52969 0.0
C1320 C 0.30928 0.44126 0.51229 0.0
C1321 C 0.34784 0.48442 0.56029 0.0
C1322 C 0.36 0.47384 0.5409 0.0
C1323 C 0.34716 0.45967 0.52584 0.0
C1324 C 0.38571 0.47817 0.5353 0.0
C1325 C 0.36029 0.50083 0.57638 0.0
C1326 C 0.39122 0.48862 0.51407 0.0
C1327 C 0.41524 0.49354 0.50888 0.0
C1328 C 0.43424 0.48809 0.52484 0.0
C1329 C 0.42877 0.47711 0.54588 0.0
C1330 C 0.4047 0.47209 0.551 0.0
H1331 H 0.34684 0.51192 0.5867 0.0
H1332 H 0.37214 0.4904 0.58872 0.0
H1333 H 0.37197 0.51247 0.56649 0.0
H1334 H 0.37684 0.49336 0.50167 0.0
H1335 H 0.41884 0.50194 0.49248 0.0
H1336 H 0.92578 0.72698 0.85668 0.0
H1337 H 0.94058 0.69141 0.8774 0.0
H1338 H 0.9231 0.72521 0.94286 0.0
H1339 H 0.90853 0.76085 0.92238 0.0
H1340 H 0.9777 0.6844 0.91091 0.0
H1341 H 0.88766 0.66455 0.94763 0.0
H1342 H 0.89062 0.68537 0.92442 0.0
H1343 H 0.89671 0.69352 0.95396 0.0
C1344 C 0.92526 0.72696 0.87549 0.0
C1345 C 0.91571 0.74684 0.88778 0.0
C1346 C 0.93363 0.70653 0.88732 0.0
C1347 C 0.93254 0.70542 0.9117 0.0
C1348 C 0.92356 0.72537 0.92404 0.0
H1349 H 0.97144 0.594 0.01259 0.0
H1350 H 0.95833 0.63132 0.99386 0.0
C1351 C 0.91521 0.74579 0.91225 0.0
C1352 C 0.94106 0.68352 0.92422 0.0
H1353 H 0.92219 0.6411 0.96077 0.0
C1354 C 0.96554 0.6749 0.92175 0.0
C1355 C 0.92525 0.67114 0.93851 0.0
C1356 C 0.89854 0.67894 0.94119 0.0
C1357 C 0.97469 0.65447 0.93332 0.0
C1358 C 0.95883 0.64195 0.94742 0.0
C1359 C 0.93439 0.65068 0.95004 0.0
C1360 C 0.96702 0.61938 0.95894 0.0
C1361 C 1.00142 0.64675 0.93065 0.0
C1362 C 0.97594 0.6001 0.94559 0.0
C1363 C 0.98346 0.57883 0.95622 0.0
C1364 C 0.98207 0.57616 0.98052 0.0
C1365 C 0.97286 0.59542 0.99388 0.0
C1366 C 0.96533 0.61677 0.98318 0.0
H1367 H 0.01239 0.66152 0.92532 0.0
H1368 H 0.00912 0.63925 0.94709 0.0
H1369 H 1.00342 0.63306 0.91696 0.0
H1370 H 0.97689 0.60141 0.92684 0.0
H1371 H 0.99028 0.5644 0.9453 0.0
H1372 H 0.46893 0.69706 0.08948 0.0
H1373 H 0.47869 0.73762 0.08367 0.0
H1374 H 0.45234 0.73501 0.01312 0.0
H1375 H 0.44291 0.69403 0.01858 0.0
H1376 H 0.50918 0.75837 0.04884 0.0
H1377 H 0.41096 0.79015 0.045 0.0
H1378 H 0.4209 0.76163 0.05624 0.0
H1379 H 0.42036 0.76669 0.02546 0.0
C1380 C 0.46569 0.70485 0.07252 0.0
C1381 C 0.45515 0.69225 0.05446 0.0
C1382 C 0.47115 0.72811 0.06931 0.0
C1383 C 0.46599 0.73929 0.04808 0.0
C1384 C 0.45614 0.72668 0.02975 0.0
H1385 H 0.47058 0.88403 1.00596 0.0
H1386 H 0.46592 0.84192 1.00806 0.0
C1387 C 0.45072 0.70333 0.03291 0.0
C1388 C 0.4701 0.76443 0.0456 0.0
H1389 H 0.44008 0.8183 0.04008 0.0
C1390 C 0.49413 0.77152 0.04685 0.0
C1391 C 0.45036 0.78143 0.04314 0.0
C1392 C 0.42414 0.77474 0.04255 0.0
C1393 C 0.49898 0.79528 0.04541 0.0
C1394 C 0.4792 0.81232 0.04317 0.0
C1395 C 0.45519 0.80517 0.04182 0.0
C1396 C 0.48289 0.83769 0.04191 0.0
C1397 C 0.52522 0.80188 0.04588 0.0
C1398 C 0.49385 0.84931 0.06034 0.0
C1399 C 0.49654 0.87344 0.0592 0.0
C1400 C 0.48798 0.88635 0.03974 0.0
C1401 C 0.47699 0.87462 0.02135 0.0
C1402 C 0.47444 0.85055 0.02246 0.0
H1403 H 0.53814 0.78675 0.04144 0.0
H1404 H 0.52809 0.81639 0.03357 0.0
H1405 H 0.52977 0.80788 0.06363 0.0
H1406 H 0.5 0.83977 0.07575 0.0
H1407 H 0.50488 0.88208 0.07368 0.0
H1408 H 0.06076 0.31819 0.57907 0.0
H1409 H 0.04774 0.2785 0.57447 0.0
H1410 H 0.07024 0.27828 0.50268 0.0
H1411 H 0.08294 0.31845 0.50693 0.0
H1412 H 0.01353 0.25971 0.54127 0.0
H1413 H 0.10922 0.22104 0.53379 0.0
H1414 H 0.10206 0.25018 0.54506 0.0
H1415 H 0.10054 0.24478 0.51437 0.0
C1416 C 0.06248 0.30998 0.56211 0.0
C1417 C 0.07282 0.32157 0.54331 0.0
C1418 C 0.05515 0.28723 0.55959 0.0
C1419 C 0.05822 0.27549 0.53833 0.0
C1420 C 0.068 0.28705 0.51932 0.0
H1421 H 0.04171 0.13078 0.5011 0.0
H1422 H 0.04875 0.1725 0.50132 0.0
C1423 C 0.07529 0.30993 0.52179 0.0
C1424 C 0.05201 0.25081 0.53651 0.0
H1425 H 0.07767 0.1951 0.53125 0.0
C1426 C 0.02748 0.24553 0.53898 0.0
C1427 C 0.07035 0.23248 0.53366 0.0
C1428 C 0.09707 0.23725 0.53173 0.0
C1429 C 0.02073 0.22227 0.53843 0.0
C1430 C 0.03912 0.2039 0.53586 0.0
C1431 C 0.06363 0.20925 0.53325 0.0
C1432 C 0.03347 0.17893 0.53558 0.0
C1433 C 0.99398 0.2176 0.54023 0.0
C1434 C 0.02254 0.16871 0.55481 0.0
C1435 C 0.01845 0.1448 0.55473 0.0
C1436 C 0.02561 0.13075 0.53555 0.0
C1437 C 0.03638 0.14112 0.51629 0.0
C1438 C 0.0403 0.16495 0.51633 0.0
H1439 H 0.98199 0.23339 0.53577 0.0
H1440 H 0.9894 0.20299 0.5286 0.0
H1441 H 0.98984 0.21261 0.55836 0.0
H1442 H 0.01763 0.17911 0.57006 0.0
H1443 H 0.01026 0.1372 0.56984 0.0
H1444 H 0.6047 0.25563 0.43446 0.0
H1445 H 0.58692 0.292 0.45148 0.0
H1446 H 0.5754 0.32108 0.38298 0.0
H1447 H 0.59359 0.28473 0.36571 0.0
H1448 H 0.60487 0.33692 0.4458 0.0
H1449 H 0.50867 0.33508 0.4153 0.0
H1450 H 0.52963 0.30934 0.41527 0.0
H1451 H 0.53164 0.33119 0.39309 0.0
C1452 C 0.59842 0.26972 0.42293 0.0
C1453 C 0.60081 0.26723 0.39865 0.0
C1454 C 0.58813 0.2905 0.43273 0.0
C1455 C 0.57969 0.30927 0.41856 0.0
C1456 C 0.58143 0.30671 0.39429 0.0
H1457 H 0.5194 0.45099 0.44726 0.0
H1458 H 0.53393 0.41372 0.42971 0.0
C1459 C 0.59181 0.28589 0.38443 0.0
C1460 C 0.57029 0.33182 0.42935 0.0
H1461 H 0.51949 0.36953 0.43463 0.0
C1462 C 0.58617 0.34402 0.44342 0.0
C1463 C 0.54594 0.34114 0.42617 0.0
C1464 C 0.52785 0.32848 0.4118 0.0
C1465 C 0.57852 0.36541 0.45411 0.0
C1466 C 0.55406 0.37465 0.45117 0.0
C1467 C 0.53819 0.36246 0.43701 0.0
C1468 C 0.54475 0.39715 0.46223 0.0
C1469 C 0.59697 0.37822 0.46792 0.0
C1470 C 0.54555 0.40026 0.48647 0.0
C1471 C 0.53737 0.42169 0.49662 0.0
C1472 C 0.52793 0.44042 0.48274 0.0
C1473 C 0.5266 0.43703 0.45853 0.0
C1474 C 0.53489 0.41567 0.44842 0.0
H1475 H 0.61606 0.37241 0.4631 0.0
H1476 H 0.59437 0.39745 0.46529 0.0
H1477 H 0.59461 0.37452 0.48668 0.0
H1478 H 0.5525 0.38608 0.4976 0.0
H1479 H 0.53849 0.42359 0.51531 0.0
loop_
_geom_bond_atom_site_label_1
_geom_bond_atom_site_label_2
_geom_bond_distance
_geom_bond_site_symmetry_2
_ccdc_geom_bond_type
C0 C1 1.391 . S
C0 C4 1.391 . S
C0 H42 0.948 . S
C1 C0 1.391 . S
C1 C2 1.391 . S
C2 C1 1.391 . S
C2 H58 0.947 . S
C2 C59 1.392 . S
C3 C4 1.391 . S
C3 C7 1.397 . S
C3 C59 1.419 . S
C4 C0 1.391 . S
C4 C3 1.391 . S
C4 C5 1.399 . S
C5 C4 1.399 . S
C5 C8 1.396 . S
C5 C17 1.453 . S
C5 C18 1.684 . S
H6 C30 0.948 . S
C7 C3 1.397 . S
C7 C8 1.394 . S
C7 C26 1.723 . S
C8 C5 1.396 . S
C8 C7 1.394 . S
C8 C38 1.723 . S
H9 C32 0.947 . S
H10 C33 0.948 . S
H11 C39 0.982 . S
H12 C40 0.979 . S
H13 C40 0.980 . S
H14 C40 0.983 . S
H15 C39 0.979 . S
H16 C39 0.977 . S
C17 C5 1.453 . S
C17 H46 0.982 . S
C17 H47 0.979 . S
C17 H48 0.977 . S
C18 C5 1.684 . S
C18 H43 0.979 . S
C18 H44 0.980 . S
C18 H45 0.983 . S
C19 C20 1.391 . S
C19 C24 1.391 . S
C19 H49 0.948 . S
C20 C19 1.391 . S
C20 C21 1.391 . S
C21 C20 1.391 . S
C21 C22 1.392 . S
C21 H50 0.947 . S
C22 C21 1.392 . S
C22 C23 1.419 . S
C22 H51 0.948 . S
C23 C22 1.419 . S
C23 C24 1.391 . S
C23 C27 1.397 . S
C24 C19 1.391 . S
C24 C23 1.391 . S
C24 C25 1.399 . S
C25 C24 1.399 . S
C25 C26 1.396 . S
C25 C28 1.453 . S
C25 C29 1.684 . S
C26 C7 1.723 . S
C26 C25 1.396 . S
C26 C27 1.394 . S
C27 C23 1.397 . S
C27 C26 1.394 . S
C27 C37 1.723 . S
C28 C25 1.453 . S
C28 H52 0.982 . S
C28 H53 0.979 . S
C28 H54 0.977 . S
C29 C25 1.684 . S
C29 H55 0.979 . S
C29 H56 0.980 . S
C29 H57 0.983 . S
C30 H6 0.948 . S
C30 C31 1.391 . S
C30 C35 1.391 . S
C31 C30 1.391 . S
C31 C32 1.391 . S
C32 H9 0.947 . S
C32 C31 1.391 . S
C32 C33 1.392 . S
C33 H10 0.948 . S
C33 C32 1.392 . S
C33 C34 1.419 . S
C34 C33 1.419 . S
C34 C35 1.391 . S
C34 C38 1.397 . S
C35 C30 1.391 . S
C35 C34 1.391 . S
C35 C36 1.399 . S
C36 C35 1.399 . S
C36 C37 1.396 . S
C36 C39 1.453 . S
C36 C40 1.684 . S
C37 C27 1.723 . S
C37 C36 1.396 . S
C37 C38 1.394 . S
C38 C8 1.723 . S
C38 C34 1.397 . S
C38 C37 1.394 . S
C39 H11 0.982 . S
C39 H15 0.979 . S
C39 H16 0.977 . S
C39 C36 1.453 . S
C40 H12 0.979 . S
C40 H13 0.980 . S
C40 H14 0.983 . S
C40 C36 1.684 . S
H41 C59 0.948 . S
H42 C0 0.948 . S
H43 C18 0.979 . S
H44 C18 0.980 . S
H45 C18 0.983 . S
H46 C17 0.982 . S
H47 C17 0.979 . S
H48 C17 0.977 . S
H49 C19 0.948 . S
H50 C21 0.947 . S
H51 C22 0.948 . S
H52 C28 0.982 . S
H53 C28 0.979 . S
H54 C28 0.977 . S
H55 C29 0.979 . S
H56 C29 0.980 . S
H57 C29 0.983 . S
H58 C2 0.947 . S
C59 C2 1.392 . S
C59 C3 1.419 . S
C59 H41 0.948 . S
C60 C61 1.391 . S
C60 C64 1.391 . S
C60 H102 0.948 . S
C61 C60 1.391 . S
C61 C62 1.391 . S
C62 C61 1.391 . S
C62 H118 0.947 . S
C62 C119 1.392 . S
C63 C64 1.391 . S
C63 C67 1.397 . S
C63 C119 1.419 . S
C64 C60 1.391 . S
C64 C63 1.391 . S
C64 C65 1.399 . S
C65 C64 1.399 . S
C65 C68 1.396 . S
C65 C77 1.453 . S
C65 C78 1.684 . S
H66 C90 0.948 . S
C67 C63 1.397 . S
C67 C68 1.394 . S
C67 C86 1.723 . S
C68 C65 1.396 . S
C68 C67 1.394 . S
C68 C98 1.723 . S
H69 C92 0.947 . S
H70 C93 0.948 . S
H71 C99 0.982 . S
H72 C100 0.979 . S
H73 C100 0.980 . S
H74 C100 0.983 . S
H75 C99 0.979 . S
H76 C99 0.977 . S
C77 C65 1.453 . S
C77 H106 0.982 . S
C77 H107 0.979 . S
C77 H108 0.977 . S
C78 C65 1.684 . S
C78 H103 0.979 . S
C78 H104 0.980 . S
C78 H105 0.983 . S
C79 C80 1.391 . S
C79 C84 1.391 . S
C79 H109 0.948 . S
C80 C79 1.391 . S
C80 C81 1.391 . S
C81 C80 1.391 . S
C81 C82 1.392 . S
C81 H110 0.947 . S
C82 C81 1.392 . S
C82 C83 1.419 . S
C82 H111 0.948 . S
C83 C82 1.419 . S
C83 C84 1.391 . S
C83 C87 1.397 . S
C84 C79 1.391 . S
C84 C83 1.391 . S
C84 C85 1.399 . S
C85 C84 1.399 . S
C85 C86 1.396 . S
C85 C88 1.453 . S
C85 C89 1.684 . S
C86 C67 1.723 . S
C86 C85 1.396 . S
C86 C87 1.394 . S
C87 C83 1.397 . S
C87 C86 1.394 . S
C87 C97 1.723 . S
C88 C85 1.453 . S
C88 H112 0.982 . S
C88 H113 0.979 . S
C88 H114 0.977 . S
C89 C85 1.684 . S
C89 H115 0.979 . S
C89 H116 0.980 . S
C89 H117 0.983 . S
C90 H66 0.948 . S
C90 C91 1.391 . S
C90 C95 1.391 . S
C91 C90 1.391 . S
C91 C92 1.391 . S
C92 H69 0.947 . S
C92 C91 1.391 . S
C92 C93 1.392 . S
C93 H70 0.948 . S
C93 C92 1.392 . S
C93 C94 1.419 . S
C94 C93 1.419 . S
C94 C95 1.391 . S
C94 C98 1.397 . S
C95 C90 1.391 . S
C95 C94 1.391 . S
C95 C96 1.399 . S
C96 C95 1.399 . S
C96 C97 1.396 . S
C96 C99 1.453 . S
C96 C100 1.684 . S
C97 C87 1.723 . S
C97 C96 1.396 . S
C97 C98 1.394 . S
C98 C68 1.723 . S
C98 C94 1.397 . S
C98 C97 1.394 . S
C99 H71 0.982 . S
C99 H75 0.979 . S
C99 H76 0.977 . S
C99 C96 1.453 . S
C100 H72 0.979 . S
C100 H73 0.980 . S
C100 H74 0.983 . S
C100 C96 1.684 . S
H101 C119 0.948 . S
H102 C60 0.948 . S
H103 C78 0.979 . S
H104 C78 0.980 . S
H105 C78 0.983 . S
H106 C77 0.982 . S
H107 C77 0.979 . S
H108 C77 0.977 . S
H109 C79 0.948 . S
H110 C81 0.947 . S
H111 C82 0.948 . S
H112 C88 0.982 . S
H113 C88 0.979 . S
H114 C88 0.977 . S
H115 C89 0.979 . S
H116 C89 0.980 . S
H117 C89 0.983 . S
H118 C62 0.947 . S
C119 C62 1.392 . S
C119 C63 1.419 . S
C119 H101 0.948 . S
C120 C121 1.391 . S
C120 C124 1.391 . S
C120 H162 0.948 . S
C121 C120 1.391 . S
C121 C122 1.391 . S
C122 C121 1.391 . S
C122 H178 0.947 . S
C122 C179 1.392 . S
C123 C124 1.391 . S
C123 C127 1.397 . S
C123 C179 1.419 . S
C124 C120 1.391 . S
C124 C123 1.391 . S
C124 C125 1.399 . S
C125 C124 1.399 . S
C125 C128 1.396 . S
C125 C137 1.453 . S
C125 C138 1.684 . S
H126 C150 0.948 . S
C127 C123 1.397 . S
C127 C128 1.394 . S
C127 C146 1.723 . S
C128 C125 1.396 . S
C128 C127 1.394 . S
C128 C158 1.723 . S
H129 C152 0.947 . S
H130 C153 0.948 . S
H131 C159 0.982 . S
H132 C160 0.979 . S
H133 C160 0.980 . S
H134 C160 0.983 . S
H135 C159 0.979 . S
H136 C159 0.977 . S
C137 C125 1.453 . S
C137 H166 0.982 . S
C137 H167 0.979 . S
C137 H168 0.977 . S
C138 C125 1.684 . S
C138 H163 0.979 . S
C138 H164 0.980 . S
C138 H165 0.983 . S
C139 C140 1.391 . S
C139 C144 1.391 . S
C139 H169 0.948 . S
C140 C139 1.391 . S
C140 C141 1.391 . S
C141 C140 1.391 . S
C141 C142 1.392 . S
C141 H170 0.947 . S
C142 C141 1.392 . S
C142 C143 1.419 . S
C142 H171 0.948 . S
C143 C142 1.419 . S
C143 C144 1.391 . S
C143 C147 1.397 . S
C144 C139 1.391 . S
C144 C143 1.391 . S
C144 C145 1.399 . S
C145 C144 1.399 . S
C145 C146 1.396 . S
C145 C148 1.453 . S
C145 C149 1.684 . S
C146 C127 1.723 . S
C146 C145 1.396 . S
C146 C147 1.394 . S
C147 C143 1.397 . S
C147 C146 1.394 . S
C147 C157 1.723 . S
C148 C145 1.453 . S
C148 H172 0.982 . S
C148 H173 0.979 . S
C148 H174 0.977 . S
C149 C145 1.684 . S
C149 H175 0.979 . S
C149 H176 0.980 . S
C149 H177 0.983 . S
C150 H126 0.948 . S
C150 C151 1.391 . S
C150 C155 1.391 . S
C151 C150 1.391 . S
C151 C152 1.391 . S
C152 H129 0.947 . S
C152 C151 1.391 . S
C152 C153 1.392 . S
C153 H130 0.948 . S
C153 C152 1.392 . S
C153 C154 1.419 . S
C154 C153 1.419 . S
C154 C155 1.391 . S
C154 C158 1.397 . S
C155 C150 1.391 . S
C155 C154 1.391 . S
C155 C156 1.399 . S
C156 C155 1.399 . S
C156 C157 1.396 . S
C156 C159 1.453 . S
C156 C160 1.684 . S
C157 C147 1.723 . S
C157 C156 1.396 . S
C157 C158 1.394 . S
C158 C128 1.723 . S
C158 C154 1.397 . S
C158 C157 1.394 . S
C159 H131 0.982 . S
C159 H135 0.979 . S
C159 H136 0.977 . S
C159 C156 1.453 . S
C160 H132 0.979 . S
C160 H133 0.980 . S
C160 H134 0.983 . S
C160 C156 1.684 . S
H161 C179 0.948 . S
H162 C120 0.948 . S
H163 C138 0.979 . S
H164 C138 0.980 . S
H165 C138 0.983 . S
H166 C137 0.982 . S
H167 C137 0.979 . S
H168 C137 0.977 . S
H169 C139 0.948 . S
H170 C141 0.947 . S
H171 C142 0.948 . S
H172 C148 0.982 . S
H173 C148 0.979 . S
H174 C148 0.977 . S
H175 C149 0.979 . S
H176 C149 0.980 . S
H177 C149 0.983 . S
H178 C122 0.947 . S
C179 C122 1.392 . S
C179 C123 1.419 . S
C179 H161 0.948 . S
C180 C181 1.391 . S
C180 C184 1.391 . S
C180 H222 0.948 . S
C181 C180 1.391 . S
C181 C182 1.391 . S
C182 C181 1.391 . S
C182 H238 0.947 . S
C182 C239 1.392 . S
C183 C184 1.391 . S
C183 C187 1.397 . S
C183 C239 1.419 . S
C184 C180 1.391 . S
C184 C183 1.391 . S
C184 C185 1.399 . S
C185 C184 1.399 . S
C185 C188 1.396 . S
C185 C197 1.453 . S
C185 C198 1.684 . S
H186 C210 0.948 . S
C187 C183 1.397 . S
C187 C188 1.394 . S
C187 C206 1.723 . S
C188 C185 1.396 . S
C188 C187 1.394 . S
C188 C218 1.723 . S
H189 C212 0.947 . S
H190 C213 0.948 . S
H191 C219 0.982 . S
H192 C220 0.979 . S
H193 C220 0.980 . S
H194 C220 0.983 . S
H195 C219 0.979 . S
H196 C219 0.977 . S
C197 C185 1.453 . S
C197 H226 0.982 . S
C197 H227 0.979 . S
C197 H228 0.977 . S
C198 C185 1.684 . S
C198 H223 0.979 . S
C198 H224 0.980 . S
C198 H225 0.983 . S
C199 C200 1.391 . S
C199 C204 1.391 . S
C199 H229 0.948 . S
C200 C199 1.391 . S
C200 C201 1.391 . S
C201 C200 1.391 . S
C201 C202 1.392 . S
C201 H230 0.947 . S
C202 C201 1.392 . S
C202 C203 1.419 . S
C202 H231 0.948 . S
C203 C202 1.419 . S
C203 C204 1.391 . S
C203 C207 1.397 . S
C204 C199 1.391 . S
C204 C203 1.391 . S
C204 C205 1.399 . S
C205 C204 1.399 . S
C205 C206 1.396 . S
C205 C208 1.453 . S
C205 C209 1.684 . S
C206 C187 1.723 . S
C206 C205 1.396 . S
C206 C207 1.394 . S
C207 C203 1.397 . S
C207 C206 1.394 . S
C207 C217 1.723 . S
C208 C205 1.453 . S
C208 H232 0.982 . S
C208 H233 0.979 . S
C208 H234 0.977 . S
C209 C205 1.684 . S
C209 H235 0.979 . S
C209 H236 0.980 . S
C209 H237 0.983 . S
C210 H186 0.948 . S
C210 C211 1.391 . S
C210 C215 1.391 . S
C211 C210 1.391 . S
C211 C212 1.391 . S
C212 H189 0.947 . S
C212 C211 1.391 . S
C212 C213 1.392 . S
C213 H190 0.948 . S
C213 C212 1.392 . S
C213 C214 1.419 . S
C214 C213 1.419 . S
C214 C215 1.391 . S
C214 C218 1.397 . S
C215 C210 1.391 . S
C215 C214 1.391 . S
C215 C216 1.399 . S
C216 C215 1.399 . S
C216 C217 1.396 . S
C216 C219 1.453 . S
C216 C220 1.684 . S
C217 C207 1.723 . S
C217 C216 1.396 . S
C217 C218 1.394 . S
C218 C188 1.723 . S
C218 C214 1.397 . S
C218 C217 1.394 . S
C219 H191 0.982 . S
C219 H195 0.979 . S
C219 H196 0.977 . S
C219 C216 1.453 . S
C220 H192 0.979 . S
C220 H193 0.980 . S
C220 H194 0.983 . S
C220 C216 1.684 . S
H221 C239 0.948 . S
H222 C180 0.948 . S
H223 C198 0.979 . S
H224 C198 0.980 . S
H225 C198 0.983 . S
H226 C197 0.982 . S
H227 C197 0.979 . S
H228 C197 0.977 . S
H229 C199 0.948 . S
H230 C201 0.947 . S
H231 C202 0.948 . S
H232 C208 0.982 . S
H233 C208 0.979 . S
H234 C208 0.977 . S
H235 C209 0.979 . S
H236 C209 0.980 . S
H237 C209 0.983 . S
H238 C182 0.947 . S
C239 C182 1.392 . S
C239 C183 1.419 . S
C239 H221 0.948 . S
C240 C241 1.391 . S
C240 C244 1.391 . S
C240 H282 0.948 . S
C241 C240 1.391 . S
C241 C242 1.391 . S
C242 C241 1.391 . S
C242 H298 0.947 . S
C242 C299 1.392 . S
C243 C244 1.391 . S
C243 C247 1.397 . S
C243 C299 1.419 . S
C244 C240 1.391 . S
C244 C243 1.391 . S
C244 C245 1.399 . S
C245 C244 1.399 . S
C245 C248 1.396 . S
C245 C257 1.453 . S
C245 C258 1.684 . S
H246 C270 0.948 . S
C247 C243 1.397 . S
C247 C248 1.394 . S
C247 C266 1.723 . S
C248 C245 1.396 . S
C248 C247 1.394 . S
C248 C278 1.723 . S
H249 C272 0.947 . S
H250 C273 0.948 . S
H251 C279 0.982 . S
H252 C280 0.979 . S
H253 C280 0.980 . S
H254 C280 0.983 . S
H255 C279 0.979 . S
H256 C279 0.977 . S
C257 C245 1.453 . S
C257 H286 0.982 . S
C257 H287 0.979 . S
C257 H288 0.977 . S
C258 C245 1.684 . S
C258 H283 0.979 . S
C258 H284 0.980 . S
C258 H285 0.983 . S
C259 C260 1.391 . S
C259 C264 1.391 . S
C259 H289 0.948 . S
C260 C259 1.391 . S
C260 C261 1.391 . S
C261 C260 1.391 . S
C261 C262 1.392 . S
C261 H290 0.947 . S
C262 C261 1.392 . S
C262 C263 1.419 . S
C262 H291 0.948 . S
C263 C262 1.419 . S
C263 C264 1.391 . S
C263 C267 1.397 . S
C264 C259 1.391 . S
C264 C263 1.391 . S
C264 C265 1.399 . S
C265 C264 1.399 . S
C265 C266 1.396 . S
C265 C268 1.453 . S
C265 C269 1.684 . S
C266 C247 1.723 . S
C266 C265 1.396 . S
C266 C267 1.394 . S
C267 C263 1.397 . S
C267 C266 1.394 . S
C267 C277 1.723 . S
C268 C265 1.453 . S
C268 H292 0.982 . S
C268 H293 0.979 . S
C268 H294 0.977 . S
C269 C265 1.684 . S
C269 H295 0.979 . S
C269 H296 0.980 . S
C269 H297 0.983 . S
C270 H246 0.948 . S
C270 C271 1.391 . S
C270 C275 1.391 . S
C271 C270 1.391 . S
C271 C272 1.391 . S
C272 H249 0.947 . S
C272 C271 1.391 . S
C272 C273 1.392 . S
C273 H250 0.948 . S
C273 C272 1.392 . S
C273 C274 1.419 . S
C274 C273 1.419 . S
C274 C275 1.391 . S
C274 C278 1.397 . S
C275 C270 1.391 . S
C275 C274 1.391 . S
C275 C276 1.399 . S
C276 C275 1.399 . S
C276 C277 1.396 . S
C276 C279 1.453 . S
C276 C280 1.684 . S
C277 C267 1.723 . S
C277 C276 1.396 . S
C277 C278 1.394 . S
C278 C248 1.723 . S
C278 C274 1.397 . S
C278 C277 1.394 . S
C279 H251 0.982 . S
C279 H255 0.979 . S
C279 H256 0.977 . S
C279 C276 1.453 . S
C280 H252 0.979 . S
C280 H253 0.980 . S
C280 H254 0.983 . S
C280 C276 1.684 . S
H281 C299 0.948 . S
H282 C240 0.948 . S
H283 C258 0.979 . S
H284 C258 0.980 . S
H285 C258 0.983 . S
H286 C257 0.982 . S
H287 C257 0.979 . S
H288 C257 0.977 . S
H289 C259 0.948 . S
H290 C261 0.947 . S
H291 C262 0.948 . S
H292 C268 0.982 . S
H293 C268 0.979 . S
H294 C268 0.977 . S
H295 C269 0.979 . S
H296 C269 0.980 . S
H297 C269 0.983 . S
H298 C242 0.947 . S
C299 C242 1.392 . S
C299 C243 1.419 . S
C299 H281 0.948 . S
C300 C301 1.391 . S
C300 C304 1.391 . S
C300 H342 0.948 . S
C301 C300 1.391 . S
C301 C302 1.391 . S
C302 C301 1.391 . S
C302 H358 0.947 . S
C302 C359 1.392 . S
C303 C304 1.391 . S
C303 C307 1.397 . S
C303 C359 1.419 . S
C304 C300 1.391 . S
C304 C303 1.391 . S
C304 C305 1.399 . S
C305 C304 1.399 . S
C305 C308 1.396 . S
C305 C317 1.453 . S
C305 C318 1.684 . S
H306 C330 0.948 . S
C307 C303 1.397 . S
C307 C308 1.394 . S
C307 C326 1.723 . S
C308 C305 1.396 . S
C308 C307 1.394 . S
C308 C338 1.723 . S
H309 C332 0.947 . S
H310 C333 0.948 . S
H311 C339 0.982 . S
H312 C340 0.979 . S
H313 C340 0.980 . S
H314 C340 0.983 . S
H315 C339 0.979 . S
H316 C339 0.977 . S
C317 C305 1.453 . S
C317 H346 0.982 . S
C317 H347 0.979 . S
C317 H348 0.977 . S
C318 C305 1.684 . S
C318 H343 0.979 . S
C318 H344 0.980 . S
C318 H345 0.983 . S
C319 C320 1.391 . S
C319 C324 1.391 . S
C319 H349 0.948 . S
C320 C319 1.391 . S
C320 C321 1.391 . S
C321 C320 1.391 . S
C321 C322 1.392 . S
C321 H350 0.947 . S
C322 C321 1.392 . S
C322 C323 1.419 . S
C322 H351 0.948 . S
C323 C322 1.419 . S
C323 C324 1.391 . S
C323 C327 1.397 . S
C324 C319 1.391 . S
C324 C323 1.391 . S
C324 C325 1.399 . S
C325 C324 1.399 . S
C325 C326 1.396 . S
C325 C328 1.453 . S
C325 C329 1.684 . S
C326 C307 1.723 . S
C326 C325 1.396 . S
C326 C327 1.394 . S
C327 C323 1.397 . S
C327 C326 1.394 . S
C327 C337 1.723 . S
C328 C325 1.453 . S
C328 H352 0.982 . S
C328 H353 0.979 . S
C328 H354 0.977 . S
C329 C325 1.684 . S
C329 H355 0.979 . S
C329 H356 0.980 . S
C329 H357 0.983 . S
C330 H306 0.948 . S
C330 C331 1.391 . S
C330 C335 1.391 . S
C331 C330 1.391 . S
C331 C332 1.391 . S
C332 H309 0.947 . S
C332 C331 1.391 . S
C332 C333 1.392 . S
C333 H310 0.948 . S
C333 C332 1.392 . S
C333 C334 1.419 . S
C334 C333 1.419 . S
C334 C335 1.391 . S
C334 C338 1.397 . S
C335 C330 1.391 . S
C335 C334 1.391 . S
C335 C336 1.399 . S
C336 C335 1.399 . S
C336 C337 1.396 . S
C336 C339 1.453 . S
C336 C340 1.684 . S
C337 C327 1.723 . S
C337 C336 1.396 . S
C337 C338 1.394 . S
C338 C308 1.723 . S
C338 C334 1.397 . S
C338 C337 1.394 . S
C339 H311 0.982 . S
C339 H315 0.979 . S
C339 H316 0.977 . S
C339 C336 1.453 . S
C340 H312 0.979 . S
C340 H313 0.980 . S
C340 H314 0.983 . S
C340 C336 1.684 . S
H341 C359 0.948 . S
H342 C300 0.948 . S
H343 C318 0.979 . S
H344 C318 0.980 . S
H345 C318 0.983 . S
H346 C317 0.982 . S
H347 C317 0.979 . S
H348 C317 0.977 . S
H349 C319 0.948 . S
H350 C321 0.947 . S
H351 C322 0.948 . S
H352 C328 0.982 . S
H353 C328 0.979 . S
H354 C328 0.977 . S
H355 C329 0.979 . S
H356 C329 0.980 . S
H357 C329 0.983 . S
H358 C302 0.947 . S
C359 C302 1.392 . S
C359 C303 1.419 . S
C359 H341 0.948 . S
C360 C361 1.391 . S
C360 C364 1.391 . S
C360 H402 0.948 . S
C361 C360 1.391 . S
C361 C362 1.391 . S
C362 C361 1.391 . S
C362 H418 0.947 . S
C362 C419 1.392 . S
C363 C364 1.391 . S
C363 C367 1.397 . S
C363 C419 1.419 . S
C364 C360 1.391 . S
C364 C363 1.391 . S
C364 C365 1.399 . S
C365 C364 1.399 . S
C365 C368 1.396 . S
C365 C377 1.453 . S
C365 C378 1.684 . S
H366 C390 0.948 . S
C367 C363 1.397 . S
C367 C368 1.394 . S
C367 C386 1.723 . S
C368 C365 1.396 . S
C368 C367 1.394 . S
C368 C398 1.723 . S
H369 C392 0.947 . S
H370 C393 0.948 . S
H371 C399 0.982 . S
H372 C400 0.979 . S
H373 C400 0.980 . S
H374 C400 0.983 . S
H375 C399 0.979 . S
H376 C399 0.977 . S
C377 C365 1.453 . S
C377 H406 0.982 . S
C377 H407 0.979 . S
C377 H408 0.977 . S
C378 C365 1.684 . S
C378 H403 0.979 . S
C378 H404 0.980 . S
C378 H405 0.983 . S
C379 C380 1.391 . S
C379 C384 1.391 . S
C379 H409 0.948 . S
C380 C379 1.391 . S
C380 C381 1.391 . S
C381 C380 1.391 . S
C381 C382 1.392 . S
C381 H410 0.947 . S
C382 C381 1.392 . S
C382 C383 1.419 . S
C382 H411 0.948 . S
C383 C382 1.419 . S
C383 C384 1.391 . S
C383 C387 1.397 . S
C384 C379 1.391 . S
C384 C383 1.391 . S
C384 C385 1.399 . S
C385 C384 1.399 . S
C385 C386 1.396 . S
C385 C388 1.453 . S
C385 C389 1.684 . S
C386 C367 1.723 . S
C386 C385 1.396 . S
C386 C387 1.394 . S
C387 C383 1.397 . S
C387 C386 1.394 . S
C387 C397 1.723 . S
C388 C385 1.453 . S
C388 H412 0.982 . S
C388 H413 0.979 . S
C388 H414 0.977 . S
C389 C385 1.684 . S
C389 H415 0.979 . S
C389 H416 0.980 . S
C389 H417 0.983 . S
C390 H366 0.948 . S
C390 C391 1.391 . S
C390 C395 1.391 . S
C391 C390 1.391 . S
C391 C392 1.391 . S
C392 H369 0.947 . S
C392 C391 1.391 . S
C392 C393 1.392 . S
C393 H370 0.948 . S
C393 C392 1.392 . S
C393 C394 1.419 . S
C394 C393 1.419 . S
C394 C395 1.391 . S
C394 C398 1.397 . S
C395 C390 1.391 . S
C395 C394 1.391 . S
C395 C396 1.399 . S
C396 C395 1.399 . S
C396 C397 1.396 . S
C396 C399 1.453 . S
C396 C400 1.684 . S
C397 C387 1.723 . S
C397 C396 1.396 . S
C397 C398 1.394 . S
C398 C368 1.723 . S
C398 C394 1.397 . S
C398 C397 1.394 . S
C399 H371 0.982 . S
C399 H375 0.979 . S
C399 H376 0.977 . S
C399 C396 1.453 . S
C400 H372 0.979 . S
C400 H373 0.980 . S
C400 H374 0.983 . S
C400 C396 1.684 . S
H401 C419 0.948 . S
H402 C360 0.948 . S
H403 C378 0.979 . S
H404 C378 0.980 . S
H405 C378 0.983 . S
H406 C377 0.982 . S
H407 C377 0.979 . S
H408 C377 0.977 . S
H409 C379 0.948 . S
H410 C381 0.947 . S
H411 C382 0.948 . S
H412 C388 0.982 . S
H413 C388 0.979 . S
H414 C388 0.977 . S
H415 C389 0.979 . S
H416 C389 0.980 . S
H417 C389 0.983 . S
H418 C362 0.947 . S
C419 C362 1.392 . S
C419 C363 1.419 . S
C419 H401 0.948 . S
C420 C421 1.391 . S
C420 C424 1.391 . S
C420 H462 0.948 . S
C421 C420 1.391 . S
C421 C422 1.391 . S
C422 C421 1.391 . S
C422 H478 0.947 . S
C422 C479 1.392 . S
C423 C424 1.391 . S
C423 C427 1.397 . S
C423 C479 1.419 . S
C424 C420 1.391 . S
C424 C423 1.391 . S
C424 C425 1.399 . S
C425 C424 1.399 . S
C425 C428 1.396 . S
C425 C437 1.453 . S
C425 C438 1.684 . S
H426 C450 0.948 . S
C427 C423 1.397 . S
C427 C428 1.394 . S
C427 C446 1.723 . S
C428 C425 1.396 . S
C428 C427 1.394 . S
C428 C458 1.723 . S
H429 C452 0.947 . S
H430 C453 0.948 . S
H431 C459 0.982 . S
H432 C460 0.979 . S
H433 C460 0.980 . S
H434 C460 0.983 . S
H435 C459 0.979 . S
H436 C459 0.977 . S
C437 C425 1.453 . S
C437 H466 0.982 . S
C437 H467 0.979 . S
C437 H468 0.977 . S
C438 C425 1.684 . S
C438 H463 0.979 . S
C438 H464 0.980 . S
C438 H465 0.983 . S
C439 C440 1.391 . S
C439 C444 1.391 . S
C439 H469 0.948 . S
C440 C439 1.391 . S
C440 C441 1.391 . S
C441 C440 1.391 . S
C441 C442 1.392 . S
C441 H470 0.947 . S
C442 C441 1.392 . S
C442 C443 1.419 . S
C442 H471 0.948 . S
C443 C442 1.419 . S
C443 C444 1.391 . S
C443 C447 1.397 . S
C444 C439 1.391 . S
C444 C443 1.391 . S
C444 C445 1.399 . S
C445 C444 1.399 . S
C445 C446 1.396 . S
C445 C448 1.453 . S
C445 C449 1.684 . S
C446 C427 1.723 . S
C446 C445 1.396 . S
C446 C447 1.394 . S
C447 C443 1.397 . S
C447 C446 1.394 . S
C447 C457 1.723 . S
C448 C445 1.453 . S
C448 H472 0.982 . S
C448 H473 0.979 . S
C448 H474 0.977 . S
C449 C445 1.684 . S
C449 H475 0.979 . S
C449 H476 0.980 . S
C449 H477 0.983 . S
C450 H426 0.948 . S
C450 C451 1.391 . S
C450 C455 1.391 . S
C451 C450 1.391 . S
C451 C452 1.391 . S
C452 H429 0.947 . S
C452 C451 1.391 . S
C452 C453 1.392 . S
C453 H430 0.948 . S
C453 C452 1.392 . S
C453 C454 1.419 . S
C454 C453 1.419 . S
C454 C455 1.391 . S
C454 C458 1.397 . S
C455 C450 1.391 . S
C455 C454 1.391 . S
C455 C456 1.399 . S
C456 C455 1.399 . S
C456 C457 1.396 . S
C456 C459 1.453 . S
C456 C460 1.684 . S
C457 C447 1.723 . S
C457 C456 1.396 . S
C457 C458 1.394 . S
C458 C428 1.723 . S
C458 C454 1.397 . S
C458 C457 1.394 . S
C459 H431 0.982 . S
C459 H435 0.979 . S
C459 H436 0.977 . S
C459 C456 1.453 . S
C460 H432 0.979 . S
C460 H433 0.980 . S
C460 H434 0.983 . S
C460 C456 1.684 . S
H461 C479 0.948 . S
H462 C420 0.948 . S
H463 C438 0.979 . S
H464 C438 0.980 . S
H465 C438 0.983 . S
H466 C437 0.982 . S
H467 C437 0.979 . S
H468 C437 0.977 . S
H469 C439 0.948 . S
H470 C441 0.947 . S
H471 C442 0.948 . S
H472 C448 0.982 . S
H473 C448 0.979 . S
H474 C448 0.977 . S
H475 C449 0.979 . S
H476 C449 0.980 . S
H477 C449 0.983 . S
H478 C422 0.947 . S
C479 C422 1.392 . S
C479 C423 1.419 . S
C479 H461 0.948 . S
C480 O496 1.251 . S
C480 O498 1.254 1_545 S
N481 C482 1.333 . S
N481 C486 1.307 . S
N481 Zn487 2.020 . S
C482 N481 1.333 . S
C482 C483 1.379 . S
C482 H500 0.952 . S
C483 C482 1.379 . S
C483 C484 1.390 . S
C483 H510 0.949 . S
C484 C483 1.390 . S
C484 C485 1.357 . S
C485 C484 1.357 . S
C485 C486 1.370 . S
C485 H511 0.950 . S
C486 N481 1.307 . S
C486 C485 1.370 . S
C486 H504 0.948 1_455 S
Zn487 N481 2.020 . S
Zn487 O496 2.039 . S
Zn487 O502 2.034 . S
Zn487 O506 2.025 1_455 S
Zn487 O508 2.024 1_455 S
C488 O507 1.246 1_545 S
C488 O508 1.249 . S
N489 C490 1.307 . S
N489 C491 1.333 . S
N489 Zn495 2.020 . S
C490 N489 1.307 . S
C490 C494 1.370 . S
C490 H501 0.948 1_655 S
C491 N489 1.333 . S
C491 C492 1.379 . S
C491 H499 0.952 . S
C492 C491 1.379 . S
C492 C493 1.390 . S
C492 H512 0.949 . S
C493 C492 1.390 . S
C493 C494 1.357 . S
C494 C490 1.370 . S
C494 C493 1.357 . S
C494 H513 0.950 . S
Zn495 N489 2.020 . S
Zn495 O498 2.025 1_655 S
Zn495 O503 2.024 1_655 S
Zn495 O505 2.039 . S
Zn495 O507 2.034 . S
O496 C480 1.251 . S
O496 Zn487 2.039 . S
C497 O502 1.246 1_565 S
C497 O503 1.249 . S
O498 C480 1.254 1_565 S
O498 Zn495 2.025 1_455 S
H499 C491 0.952 . S
H500 C482 0.952 . S
H501 C490 0.948 1_455 S
O502 Zn487 2.034 . S
O502 C497 1.246 1_545 S
O503 Zn495 2.024 1_455 S
O503 C497 1.249 . S
H504 C486 0.948 1_655 S
O505 Zn495 2.039 . S
O505 C509 1.251 . S
O506 Zn487 2.025 1_655 S
O506 C509 1.254 1_545 S
O507 C488 1.246 1_565 S
O507 Zn495 2.034 . S
O508 Zn487 2.024 1_655 S
O508 C488 1.249 . S
C509 O505 1.251 . S
C509 O506 1.254 1_565 S
H510 C483 0.949 . S
H511 C485 0.950 . S
H512 C492 0.949 . S
H513 C494 0.950 . S
C514 O530 1.251 1_565 S
C514 O532 1.254 . S
N515 C516 1.333 . S
N515 C520 1.307 . S
N515 Zn521 2.020 . S
C516 N515 1.333 . S
C516 C517 1.379 . S
C516 H534 0.952 . S
C517 C516 1.379 . S
C517 C518 1.390 . S
C517 H544 0.949 . S
C518 C517 1.390 . S
C518 C519 1.357 . S
C519 C518 1.357 . S
C519 C520 1.370 . S
C519 H545 0.950 . S
C520 N515 1.307 . S
C520 C519 1.370 . S
C520 H538 0.948 . S
Zn521 N515 2.020 . S
Zn521 O530 2.039 . S
Zn521 O536 2.034 1_556 S
Zn521 O540 2.025 1_556 S
Zn521 O542 2.024 . S
C522 O541 1.246 . S
C522 O542 1.249 1_565 S
N523 C524 1.307 . S
N523 C525 1.333 . S
N523 Zn529 2.020 . S
C524 N523 1.307 . S
C524 C528 1.370 . S
C524 H535 0.948 . S
C525 N523 1.333 . S
C525 C526 1.379 . S
C525 H533 0.952 . S
C526 C525 1.379 . S
C526 C527 1.390 . S
C526 H546 0.949 . S
C527 C526 1.390 . S
C527 C528 1.357 . S
C528 C524 1.370 . S
C528 C527 1.357 . S
C528 H547 0.950 . S
Zn529 N523 2.020 . S
Zn529 O532 2.025 1_554 S
Zn529 O537 2.024 . S
Zn529 O539 2.039 . S
Zn529 O541 2.034 1_554 S
O530 C514 1.251 1_545 S
O530 Zn521 2.039 . S
C531 O536 1.246 . S
C531 O537 1.249 1_545 S
O532 C514 1.254 . S
O532 Zn529 2.025 1_556 S
H533 C525 0.952 . S
H534 C516 0.952 . S
H535 C524 0.948 . S
O536 Zn521 2.034 1_554 S
O536 C531 1.246 . S
O537 Zn529 2.024 . S
O537 C531 1.249 1_565 S
H538 C520 0.948 . S
O539 Zn529 2.039 . S
O539 C543 1.251 1_565 S
O540 Zn521 2.025 1_554 S
O540 C543 1.254 . S
O541 C522 1.246 . S
O541 Zn529 2.034 1_556 S
O542 Zn521 2.024 . S
O542 C522 1.249 1_545 S
C543 O539 1.251 1_545 S
C543 O540 1.254 . S
H544 C517 0.949 . S
H545 C519 0.950 . S
H546 C526 0.949 . S
H547 C528 0.950 . S
C548 O564 1.251 . S
C548 O566 1.254 . S
N549 C550 1.333 . S
N549 C554 1.307 . S
N549 Zn555 2.020 . S
C550 N549 1.333 . S
C550 C551 1.379 . S
C550 H568 0.952 . S
C551 C550 1.379 . S
C551 C552 1.390 . S
C551 H578 0.949 . S
C552 C551 1.390 . S
C552 C553 1.357 . S
C553 C552 1.357 . S
C553 C554 1.370 . S
C553 H579 0.950 . S
C554 N549 1.307 . S
C554 C553 1.370 . S
C554 H572 0.948 . S
Zn555 N549 2.020 . S
Zn555 O564 2.039 . S
Zn555 O570 2.034 . S
Zn555 O574 2.025 . S
Zn555 O576 2.024 . S
C556 O575 1.246 . S
C556 O576 1.249 . S
N557 C558 1.307 . S
N557 C559 1.333 . S
N557 Zn563 2.020 . S
C558 N557 1.307 . S
C558 C562 1.370 . S
C558 H569 0.948 . S
C559 N557 1.333 . S
C559 C560 1.379 . S
C559 H567 0.952 . S
C560 C559 1.379 . S
C560 C561 1.390 . S
C560 H580 0.949 . S
C561 C560 1.390 . S
C561 C562 1.357 . S
C562 C558 1.370 . S
C562 C561 1.357 . S
C562 H581 0.950 . S
Zn563 N557 2.020 . S
Zn563 O566 2.025 . S
Zn563 O571 2.024 . S
Zn563 O573 2.039 . S
Zn563 O575 2.034 . S
O564 C548 1.251 . S
O564 Zn555 2.039 . S
C565 O570 1.246 . S
C565 O571 1.249 . S
O566 C548 1.254 . S
O566 Zn563 2.025 . S
H567 C559 0.952 . S
H568 C550 0.952 . S
H569 C558 0.948 . S
O570 Zn555 2.034 . S
O570 C565 1.246 . S
O571 Zn563 2.024 . S
O571 C565 1.249 . S
H572 C554 0.948 . S
O573 Zn563 2.039 . S
O573 C577 1.251 . S
O574 Zn555 2.025 . S
O574 C577 1.254 . S
O575 C556 1.246 . S
O575 Zn563 2.034 . S
O576 Zn555 2.024 . S
O576 C556 1.249 . S
C577 O573 1.251 . S
C577 O574 1.254 . S
H578 C551 0.949 . S
H579 C553 0.950 . S
H580 C560 0.949 . S
H581 C562 0.950 . S
C582 O598 1.251 1_556 S
C582 O600 1.254 . S
N583 C584 1.333 . S
N583 C588 1.307 . S
N583 Zn589 2.020 . S
C584 N583 1.333 . S
C584 C585 1.379 . S
C584 H602 0.952 . S
C585 C584 1.379 . S
C585 C586 1.390 . S
C585 H612 0.949 . S
C586 C585 1.390 . S
C586 C587 1.357 . S
C587 C586 1.357 . S
C587 C588 1.370 . S
C587 H613 0.950 . S
C588 N583 1.307 . S
C588 C587 1.370 . S
C588 H606 0.948 . S
Zn589 N583 2.020 . S
Zn589 O598 2.039 . S
Zn589 O604 2.034 1_655 S
Zn589 O608 2.025 1_655 S
Zn589 O610 2.024 . S
C590 O609 1.246 . S
C590 O610 1.249 1_556 S
N591 C592 1.307 . S
N591 C593 1.333 . S
N591 Zn597 2.020 . S
C592 N591 1.307 . S
C592 C596 1.370 . S
C592 H603 0.948 . S
C593 N591 1.333 . S
C593 C594 1.379 . S
C593 H601 0.952 . S
C594 C593 1.379 . S
C594 C595 1.390 . S
C594 H614 0.949 . S
C595 C594 1.390 . S
C595 C596 1.357 . S
C596 C592 1.370 . S
C596 C595 1.357 . S
C596 H615 0.950 . S
Zn597 N591 2.020 . S
Zn597 O600 2.025 1_455 S
Zn597 O605 2.024 . S
Zn597 O607 2.039 . S
Zn597 O609 2.034 1_455 S
O598 C582 1.251 1_554 S
O598 Zn589 2.039 . S
C599 O604 1.246 . S
C599 O605 1.249 1_554 S
O600 C582 1.254 . S
O600 Zn597 2.025 1_655 S
H601 C593 0.952 . S
H602 C584 0.952 . S
H603 C592 0.948 . S
O604 Zn589 2.034 1_455 S
O604 C599 1.246 . S
O605 Zn597 2.024 . S
O605 C599 1.249 1_556 S
H606 C588 0.948 . S
O607 Zn597 2.039 . S
O607 C611 1.251 1_556 S
O608 Zn589 2.025 1_455 S
O608 C611 1.254 . S
O609 C590 1.246 . S
O609 Zn597 2.034 1_655 S
O610 Zn589 2.024 . S
O610 C590 1.249 1_554 S
C611 O607 1.251 1_554 S
C611 O608 1.254 . S
H612 C585 0.949 . S
H613 C587 0.950 . S
H614 C594 0.949 . S
H615 C596 0.950 . S
H616 C624 0.929 . S
H617 C626 0.930 . S
H618 C628 0.930 . S
H619 C631 0.929 . S
H620 C634 0.930 . S
H621 C636 0.960 . S
H622 C636 0.960 . S
H623 C636 0.960 . S
C624 H616 0.929 . S
C624 C625 1.377 . S
C624 C626 1.384 . S
C625 C624 1.377 . S
C625 C631 1.390 . S
C626 H617 0.930 . S
C626 C624 1.384 . S
C626 C627 1.372 . S
C627 C626 1.372 . S
C627 C628 1.400 . S
C627 C632 1.490 . S
C628 H618 0.930 . S
C628 C627 1.400 . S
C628 C631 1.386 . S
H629 C645 0.930 . S
H630 C646 0.931 . S
C631 H619 0.929 . S
C631 C625 1.390 . S
C631 C628 1.386 . S
C632 C627 1.490 . S
C632 C634 1.395 . S
C632 C635 1.403 . S
H633 C639 0.930 . S
C634 H620 0.930 . S
C634 C632 1.395 . S
C634 C637 1.403 . S
C635 C632 1.403 . S
C635 C636 1.524 . S
C635 C639 1.400 . S
C636 H621 0.960 . S
C636 H622 0.960 . S
C636 H623 0.960 . S
C636 C635 1.524 . S
C637 C634 1.403 . S
C637 C638 1.392 . S
C637 C641 1.495 1_545 S
C638 C637 1.392 . S
C638 C639 1.385 . S
C638 C640 1.478 . S
C639 H633 0.930 . S
C639 C635 1.400 . S
C639 C638 1.385 . S
C640 C638 1.478 . S
C640 C642 1.381 . S
C640 C646 1.383 . S
C641 C637 1.495 1_565 S
C641 H647 0.959 . S
C641 H648 0.961 . S
C641 H649 0.960 . S
C642 C640 1.381 . S
C642 C643 1.394 . S
C642 H650 0.930 . S
C643 C642 1.394 . S
C643 C644 1.383 . S
C643 H651 0.929 1_455 S
C644 C643 1.383 . S
C644 C645 1.377 . S
C645 H629 0.930 . S
C645 C644 1.377 . S
C645 C646 1.379 . S
C646 H630 0.931 . S
C646 C640 1.383 . S
C646 C645 1.379 . S
H647 C641 0.959 . S
H648 C641 0.961 . S
H649 C641 0.960 . S
H650 C642 0.930 . S
H651 C643 0.929 1_655 S
H652 C660 0.929 . S
H653 C662 0.930 . S
H654 C664 0.930 . S
H655 C667 0.929 . S
H656 C670 0.930 . S
H657 C672 0.960 . S
H658 C672 0.960 . S
H659 C672 0.960 . S
C660 H652 0.929 . S
C660 C661 1.377 . S
C660 C662 1.384 . S
C661 C660 1.377 . S
C661 C667 1.390 . S
C662 H653 0.930 . S
C662 C660 1.384 . S
C662 C663 1.372 . S
C663 C662 1.372 . S
C663 C664 1.400 . S
C663 C668 1.490 . S
C664 H654 0.930 . S
C664 C663 1.400 . S
C664 C667 1.386 . S
H665 C681 0.930 . S
H666 C682 0.931 . S
C667 H655 0.929 . S
C667 C661 1.390 . S
C667 C664 1.386 . S
C668 C663 1.490 . S
C668 C670 1.395 . S
C668 C671 1.403 . S
H669 C675 0.930 . S
C670 H656 0.930 . S
C670 C668 1.395 . S
C670 C673 1.403 . S
C671 C668 1.403 . S
C671 C672 1.524 . S
C671 C675 1.400 . S
C672 H657 0.960 . S
C672 H658 0.960 . S
C672 H659 0.960 . S
C672 C671 1.524 . S
C673 C670 1.403 . S
C673 C674 1.392 . S
C673 C677 1.495 . S
C674 C673 1.392 . S
C674 C675 1.385 . S
C674 C676 1.478 . S
C675 H669 0.930 . S
C675 C671 1.400 . S
C675 C674 1.385 . S
C676 C674 1.478 . S
C676 C678 1.381 . S
C676 C682 1.383 . S
C677 C673 1.495 . S
C677 H683 0.959 . S
C677 H684 0.961 . S
C677 H685 0.960 . S
C678 C676 1.381 . S
C678 C679 1.394 . S
C678 H686 0.930 . S
C679 C678 1.394 . S
C679 C680 1.383 . S
C679 H687 0.929 . S
C680 C679 1.383 . S
C680 C681 1.377 . S
C681 H665 0.930 . S
C681 C680 1.377 . S
C681 C682 1.379 . S
C682 H666 0.931 . S
C682 C676 1.383 . S
C682 C681 1.379 . S
H683 C677 0.959 . S
H684 C677 0.961 . S
H685 C677 0.960 . S
H686 C678 0.930 . S
H687 C679 0.929 . S
H688 C696 0.929 . S
H689 C698 0.930 . S
H690 C700 0.930 . S
H691 C703 0.929 . S
H692 C706 0.930 . S
H693 C708 0.960 . S
H694 C708 0.960 . S
H695 C708 0.960 . S
C696 H688 0.929 . S
C696 C697 1.377 . S
C696 C698 1.384 . S
C697 C696 1.377 . S
C697 C703 1.390 . S
C698 H689 0.930 . S
C698 C696 1.384 . S
C698 C699 1.372 . S
C699 C698 1.372 . S
C699 C700 1.400 . S
C699 C704 1.490 . S
C700 H690 0.930 . S
C700 C699 1.400 . S
C700 C703 1.386 . S
H701 C717 0.930 . S
H702 C718 0.931 . S
C703 H691 0.929 . S
C703 C697 1.390 . S
C703 C700 1.386 . S
C704 C699 1.490 . S
C704 C706 1.395 . S
C704 C707 1.403 . S
H705 C711 0.930 . S
C706 H692 0.930 . S
C706 C704 1.395 . S
C706 C709 1.403 . S
C707 C704 1.403 . S
C707 C708 1.524 . S
C707 C711 1.400 . S
C708 H693 0.960 . S
C708 H694 0.960 . S
C708 H695 0.960 . S
C708 C707 1.524 . S
C709 C706 1.403 . S
C709 C710 1.392 . S
C709 C713 1.495 . S
C710 C709 1.392 . S
C710 C711 1.385 . S
C710 C712 1.478 . S
C711 H705 0.930 . S
C711 C707 1.400 . S
C711 C710 1.385 . S
C712 C710 1.478 . S
C712 C714 1.381 . S
C712 C718 1.383 . S
C713 C709 1.495 . S
C713 H719 0.959 . S
C713 H720 0.961 . S
C713 H721 0.960 . S
C714 C712 1.381 . S
C714 C715 1.394 . S
C714 H722 0.930 . S
C715 C714 1.394 . S
C715 C716 1.383 . S
C715 H723 0.929 . S
C716 C715 1.383 . S
C716 C717 1.377 . S
C717 H701 0.930 . S
C717 C716 1.377 . S
C717 C718 1.379 . S
C718 H702 0.931 . S
C718 C712 1.383 . S
C718 C717 1.379 . S
H719 C713 0.959 . S
H720 C713 0.961 . S
H721 C713 0.960 . S
H722 C714 0.930 . S
H723 C715 0.929 . S
H724 C732 0.929 . S
H725 C734 0.930 . S
H726 C736 0.930 . S
H727 C739 0.929 . S
H728 C742 0.930 . S
H729 C744 0.960 . S
H730 C744 0.960 . S
H731 C744 0.960 . S
C732 H724 0.929 . S
C732 C733 1.377 . S
C732 C734 1.384 . S
C733 C732 1.377 . S
C733 C739 1.390 . S
C734 H725 0.930 . S
C734 C732 1.384 . S
C734 C735 1.372 . S
C735 C734 1.372 . S
C735 C736 1.400 . S
C735 C740 1.490 . S
C736 H726 0.930 . S
C736 C735 1.400 . S
C736 C739 1.386 . S
H737 C753 0.930 . S
H738 C754 0.931 . S
C739 H727 0.929 . S
C739 C733 1.390 . S
C739 C736 1.386 . S
C740 C735 1.490 . S
C740 C742 1.395 . S
C740 C743 1.403 . S
H741 C747 0.930 . S
C742 H728 0.930 . S
C742 C740 1.395 . S
C742 C745 1.403 . S
C743 C740 1.403 . S
C743 C744 1.524 . S
C743 C747 1.400 . S
C744 H729 0.960 . S
C744 H730 0.960 . S
C744 H731 0.960 . S
C744 C743 1.524 . S
C745 C742 1.403 . S
C745 C746 1.392 . S
C745 C749 1.495 . S
C746 C745 1.392 . S
C746 C747 1.385 . S
C746 C748 1.478 . S
C747 H741 0.930 . S
C747 C743 1.400 . S
C747 C746 1.385 . S
C748 C746 1.478 . S
C748 C750 1.381 . S
C748 C754 1.383 . S
C749 C745 1.495 . S
C749 H755 0.959 . S
C749 H756 0.961 . S
C749 H757 0.960 . S
C750 C748 1.381 . S
C750 C751 1.394 . S
C750 H758 0.930 . S
C751 C750 1.394 . S
C751 C752 1.383 . S
C751 H759 0.929 . S
C752 C751 1.383 . S
C752 C753 1.377 . S
C753 H737 0.930 . S
C753 C752 1.377 . S
C753 C754 1.379 . S
C754 H738 0.931 . S
C754 C748 1.383 . S
C754 C753 1.379 . S
H755 C749 0.959 . S
H756 C749 0.961 . S
H757 C749 0.960 . S
H758 C750 0.930 . S
H759 C751 0.929 . S
H760 C768 0.929 . S
H761 C770 0.930 . S
H762 C772 0.930 . S
H763 C775 0.929 . S
H764 C778 0.930 . S
H765 C780 0.960 . S
H766 C780 0.960 . S
H767 C780 0.960 . S
C768 H760 0.929 . S
C768 C769 1.377 . S
C768 C770 1.384 . S
C769 C768 1.377 . S
C769 C775 1.390 . S
C770 H761 0.930 . S
C770 C768 1.384 . S
C770 C771 1.372 . S
C771 C770 1.372 . S
C771 C772 1.400 . S
C771 C776 1.490 . S
C772 H762 0.930 . S
C772 C771 1.400 . S
C772 C775 1.386 . S
H773 C789 0.930 . S
H774 C790 0.931 . S
C775 H763 0.929 . S
C775 C769 1.390 . S
C775 C772 1.386 . S
C776 C771 1.490 . S
C776 C778 1.395 . S
C776 C779 1.403 . S
H777 C783 0.930 . S
C778 H764 0.930 . S
C778 C776 1.395 . S
C778 C781 1.403 . S
C779 C776 1.403 . S
C779 C780 1.524 . S
C779 C783 1.400 . S
C780 H765 0.960 . S
C780 H766 0.960 . S
C780 H767 0.960 . S
C780 C779 1.524 . S
C781 C778 1.403 . S
C781 C782 1.392 . S
C781 C785 1.495 1_554 S
C782 C781 1.392 . S
C782 C783 1.385 . S
C782 C784 1.478 . S
C783 H777 0.930 . S
C783 C779 1.400 . S
C783 C782 1.385 . S
C784 C782 1.478 . S
C784 C786 1.381 . S
C784 C790 1.383 . S
C785 C781 1.495 1_556 S
C785 H791 0.959 . S
C785 H792 0.961 . S
C785 H793 0.960 . S
C786 C784 1.381 . S
C786 C787 1.394 . S
C786 H794 0.930 . S
C787 C786 1.394 . S
C787 C788 1.383 . S
C787 H795 0.929 1_545 S
C788 C787 1.383 . S
C788 C789 1.377 . S
C789 H773 0.930 . S
C789 C788 1.377 . S
C789 C790 1.379 . S
C790 H774 0.931 . S
C790 C784 1.383 . S
C790 C789 1.379 . S
H791 C785 0.959 . S
H792 C785 0.961 . S
H793 C785 0.960 . S
H794 C786 0.930 . S
H795 C787 0.929 1_565 S
H796 C804 0.929 . S
H797 C806 0.930 . S
H798 C808 0.930 . S
H799 C811 0.929 . S
H800 C814 0.930 . S
H801 C816 0.960 . S
H802 C816 0.960 . S
H803 C816 0.960 . S
C804 H796 0.929 . S
C804 C805 1.377 . S
C804 C806 1.384 . S
C805 C804 1.377 . S
C805 C811 1.390 . S
C806 H797 0.930 . S
C806 C804 1.384 . S
C806 C807 1.372 . S
C807 C806 1.372 . S
C807 C808 1.400 . S
C807 C812 1.490 . S
C808 H798 0.930 . S
C808 C807 1.400 . S
C808 C811 1.386 . S
H809 C825 0.930 . S
H810 C826 0.931 . S
C811 H799 0.929 . S
C811 C805 1.390 . S
C811 C808 1.386 . S
C812 C807 1.490 . S
C812 C814 1.395 . S
C812 C815 1.403 . S
H813 C819 0.930 . S
C814 H800 0.930 . S
C814 C812 1.395 . S
C814 C817 1.403 . S
C815 C812 1.403 . S
C815 C816 1.524 . S
C815 C819 1.400 . S
C816 H801 0.960 . S
C816 H802 0.960 . S
C816 H803 0.960 . S
C816 C815 1.524 . S
C817 C814 1.403 . S
C817 C818 1.392 . S
C817 C821 1.495 . S
C818 C817 1.392 . S
C818 C819 1.385 . S
C818 C820 1.478 . S
C819 H813 0.930 . S
C819 C815 1.400 . S
C819 C818 1.385 . S
C820 C818 1.478 . S
C820 C822 1.381 . S
C820 C826 1.383 . S
C821 C817 1.495 . S
C821 H827 0.959 . S
C821 H828 0.953 1_565 S
C821 H829 0.960 . S
C822 C820 1.381 . S
C822 C823 1.394 . S
C822 H830 0.930 . S
C823 C822 1.394 . S
C823 C824 1.383 . S
C823 H831 0.929 . S
C824 C823 1.383 . S
C824 C825 1.377 . S
C825 H809 0.930 . S
C825 C824 1.377 . S
C825 C826 1.379 . S
C826 H810 0.931 . S
C826 C820 1.383 . S
C826 C825 1.379 . S
H827 C821 0.959 . S
H828 C821 0.953 1_545 S
H829 C821 0.960 . S
H830 C822 0.930 . S
H831 C823 0.929 . S
H832 C840 0.929 . S
H833 C842 0.930 . S
H834 C844 0.930 . S
H835 C847 0.929 . S
H836 C850 0.930 . S
H837 C852 0.960 . S
H838 C852 0.960 . S
H839 C852 0.960 . S
C840 H832 0.929 . S
C840 C841 1.377 . S
C840 C842 1.384 . S
C841 C840 1.377 . S
C841 C847 1.390 . S
C842 H833 0.930 . S
C842 C840 1.384 . S
C842 C843 1.372 . S
C843 C842 1.372 . S
C843 C844 1.400 . S
C843 C848 1.490 . S
C844 H834 0.930 . S
C844 C843 1.400 . S
C844 C847 1.386 . S
H845 C861 0.930 . S
H846 C862 0.931 . S
C847 H835 0.929 . S
C847 C841 1.390 . S
C847 C844 1.386 . S
C848 C843 1.490 . S
C848 C850 1.395 . S
C848 C851 1.403 . S
H849 C855 0.930 . S
C850 H836 0.930 . S
C850 C848 1.395 . S
C850 C853 1.403 . S
C851 C848 1.403 . S
C851 C852 1.524 . S
C851 C855 1.400 . S
C852 H837 0.960 . S
C852 H838 0.960 . S
C852 H839 0.960 . S
C852 C851 1.524 . S
C853 C850 1.403 . S
C853 C854 1.392 . S
C853 C857 1.533 . S
C854 C853 1.392 . S
C854 C855 1.385 . S
C854 C856 1.478 . S
C855 H849 0.930 . S
C855 C851 1.400 . S
C855 C854 1.385 . S
C856 C854 1.478 . S
C856 C858 1.381 . S
C856 C862 1.383 . S
C857 C853 1.533 . S
C857 H863 0.944 1_556 S
C857 H864 0.923 1_556 S
C857 H865 0.978 . S
C858 C856 1.381 . S
C858 C859 1.394 . S
C858 H866 0.930 . S
C859 C858 1.394 . S
C859 C860 1.383 . S
C859 H867 0.929 . S
C860 C859 1.383 . S
C860 C861 1.377 . S
C861 H845 0.930 . S
C861 C860 1.377 . S
C861 C862 1.379 . S
C862 H846 0.931 . S
C862 C856 1.383 . S
C862 C861 1.379 . S
H863 C857 0.944 1_554 S
H864 C857 0.923 1_554 S
H865 C857 0.978 . S
H866 C858 0.930 . S
H867 C859 0.929 . S
H868 C876 0.929 . S
H869 C878 0.930 . S
H870 C880 0.930 . S
H871 C883 0.929 . S
H872 C886 0.930 . S
H873 C888 0.960 . S
H874 C888 0.960 . S
H875 C888 0.960 . S
C876 H868 0.929 . S
C876 C877 1.377 . S
C876 C878 1.384 . S
C877 C876 1.377 . S
C877 C883 1.390 . S
C878 H869 0.930 . S
C878 C876 1.384 . S
C878 C879 1.372 . S
C879 C878 1.372 . S
C879 C880 1.400 . S
C879 C884 1.490 . S
C880 H870 0.930 . S
C880 C879 1.400 . S
C880 C883 1.386 . S
H881 C897 0.930 . S
H882 C898 0.931 . S
C883 H871 0.929 . S
C883 C877 1.390 . S
C883 C880 1.386 . S
C884 C879 1.490 . S
C884 C886 1.395 . S
C884 C887 1.403 . S
H885 C891 0.930 . S
C886 H872 0.930 . S
C886 C884 1.395 . S
C886 C889 1.403 . S
C887 C884 1.403 . S
C887 C888 1.524 . S
C887 C891 1.400 . S
C888 H873 0.960 . S
C888 H874 0.960 . S
C888 H875 0.960 . S
C888 C887 1.524 . S
C889 C886 1.403 . S
C889 C890 1.392 . S
C889 C893 1.495 . S
C890 C889 1.392 . S
C890 C891 1.385 . S
C890 C892 1.478 . S
C891 H885 0.930 . S
C891 C887 1.400 . S
C891 C890 1.385 . S
C892 C890 1.478 . S
C892 C894 1.381 . S
C892 C898 1.383 . S
C893 C889 1.495 . S
C893 H899 0.959 . S
C893 H900 0.961 . S
C893 H901 0.960 . S
C894 C892 1.381 . S
C894 C895 1.394 . S
C894 H902 0.930 . S
C895 C894 1.394 . S
C895 C896 1.383 . S
C895 H903 0.929 . S
C896 C895 1.383 . S
C896 C897 1.377 . S
C897 H881 0.930 . S
C897 C896 1.377 . S
C897 C898 1.379 . S
C898 H882 0.931 . S
C898 C892 1.383 . S
C898 C897 1.379 . S
H899 C893 0.959 . S
H900 C893 0.961 . S
H901 C893 0.960 . S
H902 C894 0.930 . S
H903 C895 0.929 . S
H904 C912 0.929 . S
H905 C914 0.930 . S
H906 C916 0.930 . S
H907 C919 0.929 . S
H908 C922 0.930 . S
H909 C924 0.960 . S
H910 C924 0.960 . S
H911 C924 0.960 . S
C912 H904 0.929 . S
C912 C913 1.377 . S
C912 C914 1.384 . S
C913 C912 1.377 . S
C913 C919 1.390 . S
C914 H905 0.930 . S
C914 C912 1.384 . S
C914 C915 1.372 . S
C915 C914 1.372 . S
C915 C916 1.400 . S
C915 C920 1.490 . S
C916 H906 0.930 . S
C916 C915 1.400 . S
C916 C919 1.386 . S
H917 C933 0.930 1_655 S
H918 C934 0.931 . S
C919 H907 0.929 . S
C919 C913 1.390 . S
C919 C916 1.386 . S
C920 C915 1.490 . S
C920 C922 1.395 . S
C920 C923 1.403 . S
H921 C927 0.930 . S
C922 H908 0.930 . S
C922 C920 1.395 . S
C922 C925 1.403 . S
C923 C920 1.403 . S
C923 C924 1.524 . S
C923 C927 1.400 . S
C924 H909 0.960 . S
C924 H910 0.960 . S
C924 H911 0.960 . S
C924 C923 1.524 . S
C925 C922 1.403 . S
C925 C926 1.392 . S
C925 C929 1.495 . S
C926 C925 1.392 . S
C926 C927 1.385 . S
C926 C928 1.478 . S
C927 H921 0.930 . S
C927 C923 1.400 . S
C927 C926 1.385 . S
C928 C926 1.478 . S
C928 C930 1.381 . S
C928 C934 1.383 . S
C929 C925 1.495 . S
C929 H935 0.959 1_554 S
C929 H936 0.961 1_554 S
C929 H937 0.964 . S
C930 C928 1.381 . S
C930 C931 1.394 . S
C930 H938 0.930 . S
C931 C930 1.394 . S
C931 C932 1.383 . S
C931 H939 0.929 . S
C932 C931 1.383 . S
C932 C933 1.377 . S
C933 H917 0.930 1_455 S
C933 C932 1.377 . S
C933 C934 1.379 . S
C934 H918 0.931 . S
C934 C928 1.383 . S
C934 C933 1.379 . S
H935 C929 0.959 1_556 S
H936 C929 0.961 1_556 S
H937 C929 0.964 . S
H938 C930 0.930 . S
H939 C931 0.929 . S
H940 C948 0.929 . S
H941 C950 0.930 . S
H942 C952 0.930 . S
H943 C955 0.929 . S
H944 C958 0.930 . S
H945 C960 0.960 . S
H946 C960 0.960 . S
H947 C960 0.960 . S
C948 H940 0.929 . S
C948 C949 1.377 . S
C948 C950 1.384 . S
C949 C948 1.377 . S
C949 C955 1.390 . S
C950 H941 0.930 . S
C950 C948 1.384 . S
C950 C951 1.372 . S
C951 C950 1.372 . S
C951 C952 1.400 . S
C951 C956 1.490 . S
C952 H942 0.930 . S
C952 C951 1.400 . S
C952 C955 1.386 . S
H953 C969 0.930 . S
H954 C970 0.931 . S
C955 H943 0.929 . S
C955 C949 1.390 . S
C955 C952 1.386 . S
C956 C951 1.490 . S
C956 C958 1.395 . S
C956 C959 1.403 . S
H957 C963 0.930 . S
C958 H944 0.930 . S
C958 C956 1.395 . S
C958 C961 1.403 . S
C959 C956 1.403 . S
C959 C960 1.524 . S
C959 C963 1.400 . S
C960 H945 0.960 . S
C960 H946 0.960 . S
C960 H947 0.960 . S
C960 C959 1.524 . S
C961 C958 1.403 . S
C961 C962 1.392 . S
C961 C965 1.495 . S
C962 C961 1.392 . S
C962 C963 1.385 . S
C962 C964 1.478 . S
C963 H957 0.930 . S
C963 C959 1.400 . S
C963 C962 1.385 . S
C964 C962 1.478 . S
C964 C966 1.381 . S
C964 C970 1.383 . S
C965 C961 1.495 . S
C965 H971 0.959 . S
C965 H972 0.961 . S
C965 H973 0.960 . S
C966 C964 1.381 . S
C966 C967 1.394 . S
C966 H974 0.930 . S
C967 C966 1.394 . S
C967 C968 1.383 . S
C967 H975 0.929 . S
C968 C967 1.383 . S
C968 C969 1.377 . S
C969 H953 0.930 . S
C969 C968 1.377 . S
C969 C970 1.379 . S
C970 H954 0.931 . S
C970 C964 1.383 . S
C970 C969 1.379 . S
H971 C965 0.959 . S
H972 C965 0.961 . S
H973 C965 0.960 . S
H974 C966 0.930 . S
H975 C967 0.929 . S
H976 C984 0.929 . S
H977 C986 0.930 . S
H978 C988 0.930 . S
H979 C991 0.929 . S
H980 C994 0.930 . S
H981 C996 0.960 . S
H982 C996 0.960 . S
H983 C996 0.960 . S
C984 H976 0.929 . S
C984 C985 1.377 . S
C984 C986 1.384 . S
C985 C984 1.377 . S
C985 C991 1.390 . S
C986 H977 0.930 . S
C986 C984 1.384 . S
C986 C987 1.372 . S
C987 C986 1.372 . S
C987 C988 1.400 . S
C987 C992 1.490 . S
C988 H978 0.930 . S
C988 C987 1.400 . S
C988 C991 1.386 . S
H989 C1005 0.930 . S
H990 C1006 0.931 . S
C991 H979 0.929 . S
C991 C985 1.390 . S
C991 C988 1.386 . S
C992 C987 1.490 . S
C992 C994 1.395 . S
C992 C995 1.403 . S
H993 C999 0.930 . S
C994 H980 0.930 . S
C994 C992 1.395 . S
C994 C997 1.403 . S
C995 C992 1.403 . S
C995 C996 1.524 . S
C995 C999 1.400 . S
C996 H981 0.960 . S
C996 H982 0.960 . S
C996 H983 0.960 . S
C996 C995 1.524 . S
C997 C994 1.403 . S
C997 C998 1.392 . S
C997 C1001 1.495 . S
C998 C997 1.392 . S
C998 C999 1.385 . S
C998 C1000 1.478 . S
C999 H993 0.930 . S
C999 C995 1.400 . S
C999 C998 1.385 . S
C1000 C998 1.478 . S
C1000 C1002 1.381 . S
C1000 C1006 1.383 . S
C1001 C997 1.495 . S
C1001 H1007 0.959 . S
C1001 H1008 0.961 . S
C1001 H1009 0.960 . S
C1002 C1000 1.381 . S
C1002 C1003 1.394 . S
C1002 H1010 0.930 . S
C1003 C1002 1.394 . S
C1003 C1004 1.383 . S
C1003 H1011 0.929 . S
C1004 C1003 1.383 . S
C1004 C1005 1.377 . S
C1005 H989 0.930 . S
C1005 C1004 1.377 . S
C1005 C1006 1.379 . S
C1006 H990 0.931 . S
C1006 C1000 1.383 . S
C1006 C1005 1.379 . S
H1007 C1001 0.959 . S
H1008 C1001 0.961 . S
H1009 C1001 0.960 . S
H1010 C1002 0.930 . S
H1011 C1003 0.929 . S
H1012 C1020 0.929 . S
H1013 C1022 0.930 . S
H1014 C1024 0.930 . S
H1015 C1027 0.929 . S
H1016 C1030 0.930 . S
H1017 C1032 0.960 . S
H1018 C1032 0.960 . S
H1019 C1032 0.960 . S
C1020 H1012 0.929 . S
C1020 C1021 1.377 . S
C1020 C1022 1.384 . S
C1021 C1020 1.377 . S
C1021 C1027 1.390 . S
C1022 H1013 0.930 . S
C1022 C1020 1.384 . S
C1022 C1023 1.372 . S
C1023 C1022 1.372 . S
C1023 C1024 1.400 . S
C1023 C1028 1.490 . S
C1024 H1014 0.930 . S
C1024 C1023 1.400 . S
C1024 C1027 1.386 . S
H1025 C1041 0.930 . S
H1026 C1042 0.931 . S
C1027 H1015 0.929 . S
C1027 C1021 1.390 . S
C1027 C1024 1.386 . S
C1028 C1023 1.490 . S
C1028 C1030 1.395 . S
C1028 C1031 1.403 . S
H1029 C1035 0.930 . S
C1030 H1016 0.930 . S
C1030 C1028 1.395 . S
C1030 C1033 1.403 . S
C1031 C1028 1.403 . S
C1031 C1032 1.524 . S
C1031 C1035 1.400 . S
C1032 H1017 0.960 . S
C1032 H1018 0.960 . S
C1032 H1019 0.960 . S
C1032 C1031 1.524 . S
C1033 C1030 1.403 . S
C1033 C1034 1.392 . S
C1033 C1037 1.495 . S
C1034 C1033 1.392 . S
C1034 C1035 1.385 . S
C1034 C1036 1.478 . S
C1035 H1029 0.930 . S
C1035 C1031 1.400 . S
C1035 C1034 1.385 . S
C1036 C1034 1.478 . S
C1036 C1038 1.381 . S
C1036 C1042 1.383 . S
C1037 C1033 1.495 . S
C1037 H1043 0.959 . S
C1037 H1044 0.961 . S
C1037 H1045 0.960 . S
C1038 C1036 1.381 . S
C1038 C1039 1.394 . S
C1038 H1046 0.930 . S
C1039 C1038 1.394 . S
C1039 C1040 1.383 . S
C1039 H1047 0.929 . S
C1040 C1039 1.383 . S
C1040 C1041 1.377 . S
C1041 H1025 0.930 . S
C1041 C1040 1.377 . S
C1041 C1042 1.379 . S
C1042 H1026 0.931 . S
C1042 C1036 1.383 . S
C1042 C1041 1.379 . S
H1043 C1037 0.959 . S
H1044 C1037 0.961 . S
H1045 C1037 0.960 . S
H1046 C1038 0.930 . S
H1047 C1039 0.929 . S
H1048 C1056 0.929 . S
H1049 C1058 0.930 . S
H1050 C1060 0.930 . S
H1051 C1063 0.929 . S
H1052 C1066 0.930 . S
H1053 C1068 0.960 . S
H1054 C1068 0.960 . S
H1055 C1068 0.960 . S
C1056 H1048 0.929 . S
C1056 C1057 1.377 . S
C1056 C1058 1.384 . S
C1057 C1056 1.377 . S
C1057 C1063 1.390 . S
C1058 H1049 0.930 . S
C1058 C1056 1.384 . S
C1058 C1059 1.372 . S
C1059 C1058 1.372 . S
C1059 C1060 1.400 . S
C1059 C1064 1.490 . S
C1060 H1050 0.930 . S
C1060 C1059 1.400 . S
C1060 C1063 1.386 . S
H1061 C1077 0.930 . S
H1062 C1078 0.931 . S
C1063 H1051 0.929 . S
C1063 C1057 1.390 . S
C1063 C1060 1.386 . S
C1064 C1059 1.490 . S
C1064 C1066 1.395 . S
C1064 C1067 1.403 . S
H1065 C1071 0.930 . S
C1066 H1052 0.930 . S
C1066 C1064 1.395 . S
C1066 C1069 1.403 . S
C1067 C1064 1.403 . S
C1067 C1068 1.524 . S
C1067 C1071 1.400 . S
C1068 H1053 0.960 . S
C1068 H1054 0.960 . S
C1068 H1055 0.960 . S
C1068 C1067 1.524 . S
C1069 C1066 1.403 . S
C1069 C1070 1.392 . S
C1069 C1073 1.495 . S
C1070 C1069 1.392 . S
C1070 C1071 1.385 . S
C1070 C1072 1.478 . S
C1071 H1065 0.930 . S
C1071 C1067 1.400 . S
C1071 C1070 1.385 . S
C1072 C1070 1.478 . S
C1072 C1074 1.381 . S
C1072 C1078 1.383 . S
C1073 C1069 1.495 . S
C1073 H1079 0.959 1_655 S
C1073 H1080 0.961 1_655 S
C1073 H1081 0.960 . S
C1074 C1072 1.381 . S
C1074 C1075 1.394 . S
C1074 H1082 0.930 1_565 S
C1075 C1074 1.394 . S
C1075 C1076 1.383 . S
C1075 H1083 0.929 1_565 S
C1076 C1075 1.383 . S
C1076 C1077 1.377 . S
C1077 H1061 0.930 . S
C1077 C1076 1.377 . S
C1077 C1078 1.379 . S
C1078 H1062 0.931 . S
C1078 C1072 1.383 . S
C1078 C1077 1.379 . S
H1079 C1073 0.959 1_455 S
H1080 C1073 0.961 1_455 S
H1081 C1073 0.960 . S
H1082 C1074 0.930 1_545 S
H1083 C1075 0.929 1_545 S
H1084 C1092 0.929 . S
H1085 C1094 0.930 . S
H1086 C1096 0.930 . S
H1087 C1099 0.929 . S
H1088 C1102 0.930 . S
H1089 C1104 0.960 . S
H1090 C1104 0.960 . S
H1091 C1104 0.960 . S
C1092 H1084 0.929 . S
C1092 C1093 1.377 . S
C1092 C1094 1.384 . S
C1093 C1092 1.377 . S
C1093 C1099 1.390 . S
C1094 H1085 0.930 . S
C1094 C1092 1.384 . S
C1094 C1095 1.372 . S
C1095 C1094 1.372 . S
C1095 C1096 1.400 . S
C1095 C1100 1.490 . S
C1096 H1086 0.930 . S
C1096 C1095 1.400 . S
C1096 C1099 1.386 . S
H1097 C1113 0.930 1_565 S
H1098 C1114 0.931 . S
C1099 H1087 0.929 . S
C1099 C1093 1.390 . S
C1099 C1096 1.386 . S
C1100 C1095 1.490 . S
C1100 C1102 1.395 . S
C1100 C1103 1.403 . S
H1101 C1107 0.930 . S
C1102 H1088 0.930 . S
C1102 C1100 1.395 . S
C1102 C1105 1.403 . S
C1103 C1100 1.403 . S
C1103 C1104 1.524 . S
C1103 C1107 1.400 . S
C1104 H1089 0.960 . S
C1104 H1090 0.960 . S
C1104 H1091 0.960 . S
C1104 C1103 1.524 . S
C1105 C1102 1.403 . S
C1105 C1106 1.392 . S
C1105 C1109 1.495 . S
C1106 C1105 1.392 . S
C1106 C1107 1.385 . S
C1106 C1108 1.478 . S
C1107 H1101 0.930 . S
C1107 C1103 1.400 . S
C1107 C1106 1.385 . S
C1108 C1106 1.478 . S
C1108 C1110 1.381 . S
C1108 C1114 1.383 . S
C1109 C1105 1.495 . S
C1109 H1115 0.959 . S
C1109 H1116 0.961 . S
C1109 H1117 0.960 . S
C1110 C1108 1.381 . S
C1110 C1111 1.394 . S
C1110 H1118 0.930 . S
C1111 C1110 1.394 . S
C1111 C1112 1.383 . S
C1111 H1119 0.929 . S
C1112 C1111 1.383 . S
C1112 C1113 1.377 . S
C1113 H1097 0.930 1_545 S
C1113 C1112 1.377 . S
C1113 C1114 1.379 . S
C1114 H1098 0.931 . S
C1114 C1108 1.383 . S
C1114 C1113 1.379 . S
H1115 C1109 0.959 . S
H1116 C1109 0.961 . S
H1117 C1109 0.960 . S
H1118 C1110 0.930 . S
H1119 C1111 0.929 . S
H1120 C1128 0.929 . S
H1121 C1130 0.930 . S
H1122 C1132 0.930 . S
H1123 C1135 0.929 . S
H1124 C1138 0.930 . S
H1125 C1140 0.960 . S
H1126 C1140 0.960 . S
H1127 C1140 0.960 . S
C1128 H1120 0.929 . S
C1128 C1129 1.377 . S
C1128 C1130 1.384 . S
C1129 C1128 1.377 . S
C1129 C1135 1.390 . S
C1130 H1121 0.930 . S
C1130 C1128 1.384 . S
C1130 C1131 1.372 . S
C1131 C1130 1.372 . S
C1131 C1132 1.400 . S
C1131 C1136 1.490 . S
C1132 H1122 0.930 . S
C1132 C1131 1.400 . S
C1132 C1135 1.386 . S
H1133 C1149 0.930 . S
H1134 C1150 0.931 . S
C1135 H1123 0.929 . S
C1135 C1129 1.390 . S
C1135 C1132 1.386 . S
C1136 C1131 1.490 . S
C1136 C1138 1.395 . S
C1136 C1139 1.403 . S
H1137 C1143 0.930 . S
C1138 H1124 0.930 . S
C1138 C1136 1.395 . S
C1138 C1141 1.403 . S
C1139 C1136 1.403 . S
C1139 C1140 1.524 . S
C1139 C1143 1.400 . S
C1140 H1125 0.960 . S
C1140 H1126 0.960 . S
C1140 H1127 0.960 . S
C1140 C1139 1.524 . S
C1141 C1138 1.403 . S
C1141 C1142 1.392 . S
C1141 C1145 1.495 . S
C1142 C1141 1.392 . S
C1142 C1143 1.385 . S
C1142 C1144 1.478 . S
C1143 H1137 0.930 . S
C1143 C1139 1.400 . S
C1143 C1142 1.385 . S
C1144 C1142 1.478 . S
C1144 C1146 1.381 . S
C1144 C1150 1.383 . S
C1145 C1141 1.495 . S
C1145 H1151 0.959 . S
C1145 H1152 0.961 . S
C1145 H1153 0.960 . S
C1146 C1144 1.381 . S
C1146 C1147 1.394 . S
C1146 H1154 0.930 . S
C1147 C1146 1.394 . S
C1147 C1148 1.383 . S
C1147 H1155 0.929 . S
C1148 C1147 1.383 . S
C1148 C1149 1.377 . S
C1149 H1133 0.930 . S
C1149 C1148 1.377 . S
C1149 C1150 1.379 . S
C1150 H1134 0.931 . S
C1150 C1144 1.383 . S
C1150 C1149 1.379 . S
H1151 C1145 0.959 . S
H1152 C1145 0.961 . S
H1153 C1145 0.960 . S
H1154 C1146 0.930 . S
H1155 C1147 0.929 . S
H1156 C1164 0.929 . S
H1157 C1166 0.930 . S
H1158 C1168 0.930 . S
H1159 C1171 0.929 . S
H1160 C1174 0.930 . S
H1161 C1176 0.960 . S
H1162 C1176 0.960 . S
H1163 C1176 0.960 . S
C1164 H1156 0.929 . S
C1164 C1165 1.377 . S
C1164 C1166 1.384 . S
C1165 C1164 1.377 . S
C1165 C1171 1.390 . S
C1166 H1157 0.930 . S
C1166 C1164 1.384 . S
C1166 C1167 1.372 . S
C1167 C1166 1.372 . S
C1167 C1168 1.400 . S
C1167 C1172 1.490 . S
C1168 H1158 0.930 . S
C1168 C1167 1.400 . S
C1168 C1171 1.386 . S
H1169 C1185 0.930 . S
H1170 C1186 0.931 . S
C1171 H1159 0.929 . S
C1171 C1165 1.390 . S
C1171 C1168 1.386 . S
C1172 C1167 1.490 . S
C1172 C1174 1.395 . S
C1172 C1175 1.403 . S
H1173 C1179 0.930 . S
C1174 H1160 0.930 . S
C1174 C1172 1.395 . S
C1174 C1177 1.403 . S
C1175 C1172 1.403 . S
C1175 C1176 1.524 . S
C1175 C1179 1.400 . S
C1176 H1161 0.960 . S
C1176 H1162 0.960 . S
C1176 H1163 0.960 . S
C1176 C1175 1.524 . S
C1177 C1174 1.403 . S
C1177 C1178 1.392 . S
C1177 C1181 1.495 . S
C1178 C1177 1.392 . S
C1178 C1179 1.385 . S
C1178 C1180 1.478 . S
C1179 H1173 0.930 . S
C1179 C1175 1.400 . S
C1179 C1178 1.385 . S
C1180 C1178 1.478 . S
C1180 C1182 1.381 . S
C1180 C1186 1.383 . S
C1181 C1177 1.495 . S
C1181 H1187 0.959 . S
C1181 H1188 0.961 . S
C1181 H1189 0.960 . S
C1182 C1180 1.381 . S
C1182 C1183 1.394 . S
C1182 H1190 0.930 . S
C1183 C1182 1.394 . S
C1183 C1184 1.383 . S
C1183 H1191 0.929 . S
C1184 C1183 1.383 . S
C1184 C1185 1.377 . S
C1185 H1169 0.930 . S
C1185 C1184 1.377 . S
C1185 C1186 1.379 . S
C1186 H1170 0.931 . S
C1186 C1180 1.383 . S
C1186 C1185 1.379 . S
H1187 C1181 0.959 . S
H1188 C1181 0.961 . S
H1189 C1181 0.960 . S
H1190 C1182 0.930 . S
H1191 C1183 0.929 . S
H1192 C1200 0.929 . S
H1193 C1202 0.930 . S
H1194 C1204 0.930 . S
H1195 C1207 0.929 . S
H1196 C1210 0.930 . S
H1197 C1212 0.960 . S
H1198 C1212 0.960 . S
H1199 C1212 0.960 . S
C1200 H1192 0.929 . S
C1200 C1201 1.377 . S
C1200 C1202 1.384 . S
C1201 C1200 1.377 . S
C1201 C1207 1.390 . S
C1202 H1193 0.930 . S
C1202 C1200 1.384 . S
C1202 C1203 1.372 . S
C1203 C1202 1.372 . S
C1203 C1204 1.400 . S
C1203 C1208 1.490 . S
C1204 H1194 0.930 . S
C1204 C1203 1.400 . S
C1204 C1207 1.386 . S
H1205 C1221 0.930 . S
H1206 C1222 0.931 . S
C1207 H1195 0.929 . S
C1207 C1201 1.390 . S
C1207 C1204 1.386 . S
C1208 C1203 1.490 . S
C1208 C1210 1.395 . S
C1208 C1211 1.403 . S
H1209 C1215 0.930 . S
C1210 H1196 0.930 . S
C1210 C1208 1.395 . S
C1210 C1213 1.403 . S
C1211 C1208 1.403 . S
C1211 C1212 1.524 . S
C1211 C1215 1.400 . S
C1212 H1197 0.960 . S
C1212 H1198 0.960 . S
C1212 H1199 0.960 . S
C1212 C1211 1.524 . S
C1213 C1210 1.403 . S
C1213 C1214 1.392 . S
C1213 C1217 1.492 1_565 S
C1214 C1213 1.392 . S
C1214 C1215 1.385 . S
C1214 C1216 1.478 . S
C1215 H1209 0.930 . S
C1215 C1211 1.400 . S
C1215 C1214 1.385 . S
C1216 C1214 1.478 . S
C1216 C1218 1.381 . S
C1216 C1222 1.383 . S
C1217 C1213 1.492 1_545 S
C1217 H1223 0.961 . S
C1217 H1224 0.958 1_545 S
C1217 H1225 0.961 . S
C1218 C1216 1.381 . S
C1218 C1219 1.394 . S
C1218 H1226 0.930 . S
C1219 C1218 1.394 . S
C1219 C1220 1.383 . S
C1219 H1227 0.922 1_565 S
C1220 C1219 1.383 . S
C1220 C1221 1.377 . S
C1221 H1205 0.930 . S
C1221 C1220 1.377 . S
C1221 C1222 1.379 . S
C1222 H1206 0.931 . S
C1222 C1216 1.383 . S
C1222 C1221 1.379 . S
H1223 C1217 0.961 . S
H1224 C1217 0.958 1_565 S
H1225 C1217 0.961 . S
H1226 C1218 0.930 . S
H1227 C1219 0.922 1_545 S
H1228 C1236 0.929 . S
H1229 C1238 0.930 . S
H1230 C1240 0.930 . S
H1231 C1243 0.929 . S
H1232 C1246 0.930 . S
H1233 C1248 0.940 1_565 S
H1234 C1248 0.960 . S
H1235 C1248 0.960 . S
C1236 H1228 0.929 . S
C1236 C1237 1.377 . S
C1236 C1238 1.384 . S
C1237 C1236 1.377 . S
C1237 C1243 1.390 . S
C1238 H1229 0.930 . S
C1238 C1236 1.384 . S
C1238 C1239 1.372 . S
C1239 C1238 1.372 . S
C1239 C1240 1.400 . S
C1239 C1244 1.490 . S
C1240 H1230 0.930 . S
C1240 C1239 1.400 . S
C1240 C1243 1.386 . S
H1241 C1257 0.930 . S
H1242 C1258 0.931 . S
C1243 H1231 0.929 . S
C1243 C1237 1.390 . S
C1243 C1240 1.386 . S
C1244 C1239 1.490 . S
C1244 C1246 1.395 . S
C1244 C1247 1.403 . S
H1245 C1251 0.930 . S
C1246 H1232 0.930 . S
C1246 C1244 1.395 . S
C1246 C1249 1.403 . S
C1247 C1244 1.403 . S
C1247 C1248 1.524 . S
C1247 C1251 1.400 . S
C1248 H1233 0.940 1_545 S
C1248 H1234 0.960 . S
C1248 H1235 0.960 . S
C1248 C1247 1.524 . S
C1249 C1246 1.403 . S
C1249 C1250 1.392 . S
C1249 C1253 1.495 . S
C1250 C1249 1.392 . S
C1250 C1251 1.385 . S
C1250 C1252 1.478 . S
C1251 H1245 0.930 . S
C1251 C1247 1.400 . S
C1251 C1250 1.385 . S
C1252 C1250 1.478 . S
C1252 C1254 1.381 . S
C1252 C1258 1.383 . S
C1253 C1249 1.495 . S
C1253 H1259 0.959 . S
C1253 H1260 0.961 . S
C1253 H1261 0.960 . S
C1254 C1252 1.381 . S
C1254 C1255 1.394 . S
C1254 H1262 0.930 . S
C1255 C1254 1.394 . S
C1255 C1256 1.383 . S
C1255 H1263 0.929 . S
C1256 C1255 1.383 . S
C1256 C1257 1.377 . S
C1257 H1241 0.930 . S
C1257 C1256 1.377 . S
C1257 C1258 1.379 . S
C1258 H1242 0.931 . S
C1258 C1252 1.383 . S
C1258 C1257 1.379 . S
H1259 C1253 0.959 . S
H1260 C1253 0.961 . S
H1261 C1253 0.960 . S
H1262 C1254 0.930 . S
H1263 C1255 0.929 . S
H1264 C1272 0.929 . S
H1265 C1274 0.930 . S
H1266 C1276 0.930 . S
H1267 C1279 0.929 . S
H1268 C1282 0.930 . S
H1269 C1284 0.960 . S
H1270 C1284 0.960 . S
H1271 C1284 0.960 . S
C1272 H1264 0.929 . S
C1272 C1273 1.377 . S
C1272 C1274 1.384 . S
C1273 C1272 1.377 . S
C1273 C1279 1.390 . S
C1274 H1265 0.930 . S
C1274 C1272 1.384 . S
C1274 C1275 1.372 . S
C1275 C1274 1.372 . S
C1275 C1276 1.400 . S
C1275 C1280 1.490 . S
C1276 H1266 0.930 . S
C1276 C1275 1.400 . S
C1276 C1279 1.386 . S
H1277 C1293 0.930 . S
H1278 C1294 0.931 . S
C1279 H1267 0.929 . S
C1279 C1273 1.390 . S
C1279 C1276 1.386 . S
C1280 C1275 1.490 . S
C1280 C1282 1.395 . S
C1280 C1283 1.403 . S
H1281 C1287 0.930 . S
C1282 H1268 0.930 . S
C1282 C1280 1.395 . S
C1282 C1285 1.403 . S
C1283 C1280 1.403 . S
C1283 C1284 1.524 . S
C1283 C1287 1.400 . S
C1284 H1269 0.960 . S
C1284 H1270 0.960 . S
C1284 H1271 0.960 . S
C1284 C1283 1.524 . S
C1285 C1282 1.403 . S
C1285 C1286 1.392 . S
C1285 C1289 1.495 . S
C1286 C1285 1.392 . S
C1286 C1287 1.385 . S
C1286 C1288 1.478 . S
C1287 H1281 0.930 . S
C1287 C1283 1.400 . S
C1287 C1286 1.385 . S
C1288 C1286 1.478 . S
C1288 C1290 1.381 . S
C1288 C1294 1.383 . S
C1289 C1285 1.495 . S
C1289 H1295 0.959 . S
C1289 H1296 0.961 . S
C1289 H1297 0.960 . S
C1290 C1288 1.381 . S
C1290 C1291 1.394 . S
C1290 H1298 0.930 1_554 S
C1291 C1290 1.394 . S
C1291 C1292 1.383 . S
C1291 H1299 0.929 1_554 S
C1292 C1291 1.383 . S
C1292 C1293 1.377 . S
C1293 H1277 0.930 . S
C1293 C1292 1.377 . S
C1293 C1294 1.379 . S
C1294 H1278 0.931 . S
C1294 C1288 1.383 . S
C1294 C1293 1.379 . S
H1295 C1289 0.959 . S
H1296 C1289 0.961 . S
H1297 C1289 0.960 . S
H1298 C1290 0.930 1_556 S
H1299 C1291 0.929 1_556 S
H1300 C1308 0.929 . S
H1301 C1310 0.930 . S
H1302 C1312 0.930 . S
H1303 C1315 0.929 . S
H1304 C1318 0.930 . S
H1305 C1320 0.960 . S
H1306 C1320 0.960 . S
H1307 C1320 0.960 . S
C1308 H1300 0.929 . S
C1308 C1309 1.377 . S
C1308 C1310 1.384 . S
C1309 C1308 1.377 . S
C1309 C1315 1.390 . S
C1310 H1301 0.930 . S
C1310 C1308 1.384 . S
C1310 C1311 1.372 . S
C1311 C1310 1.372 . S
C1311 C1312 1.400 . S
C1311 C1316 1.490 . S
C1312 H1302 0.930 . S
C1312 C1311 1.400 . S
C1312 C1315 1.386 . S
H1313 C1329 0.930 . S
H1314 C1330 0.931 . S
C1315 H1303 0.929 . S
C1315 C1309 1.390 . S
C1315 C1312 1.386 . S
C1316 C1311 1.490 . S
C1316 C1318 1.395 . S
C1316 C1319 1.403 . S
H1317 C1323 0.930 . S
C1318 H1304 0.930 . S
C1318 C1316 1.395 . S
C1318 C1321 1.403 . S
C1319 C1316 1.403 . S
C1319 C1320 1.524 . S
C1319 C1323 1.400 . S
C1320 H1305 0.960 . S
C1320 H1306 0.960 . S
C1320 H1307 0.960 . S
C1320 C1319 1.524 . S
C1321 C1318 1.403 . S
C1321 C1322 1.392 . S
C1321 C1325 1.495 . S
C1322 C1321 1.392 . S
C1322 C1323 1.385 . S
C1322 C1324 1.478 . S
C1323 H1317 0.930 . S
C1323 C1319 1.400 . S
C1323 C1322 1.385 . S
C1324 C1322 1.478 . S
C1324 C1326 1.381 . S
C1324 C1330 1.383 . S
C1325 C1321 1.495 . S
C1325 H1331 0.959 . S
C1325 H1332 0.961 . S
C1325 H1333 0.960 . S
C1326 C1324 1.381 . S
C1326 C1327 1.394 . S
C1326 H1334 0.930 . S
C1327 C1326 1.394 . S
C1327 C1328 1.383 . S
C1327 H1335 0.929 . S
C1328 C1327 1.383 . S
C1328 C1329 1.377 . S
C1329 H1313 0.930 . S
C1329 C1328 1.377 . S
C1329 C1330 1.379 . S
C1330 H1314 0.931 . S
C1330 C1324 1.383 . S
C1330 C1329 1.379 . S
H1331 C1325 0.959 . S
H1332 C1325 0.961 . S
H1333 C1325 0.960 . S
H1334 C1326 0.930 . S
H1335 C1327 0.929 . S
H1336 C1344 0.929 . S
H1337 C1346 0.930 . S
H1338 C1348 0.930 . S
H1339 C1351 0.929 . S
H1340 C1354 0.930 . S
H1341 C1356 0.960 . S
H1342 C1356 0.960 . S
H1343 C1356 0.960 . S
C1344 H1336 0.929 . S
C1344 C1345 1.377 . S
C1344 C1346 1.384 . S
C1345 C1344 1.377 . S
C1345 C1351 1.390 . S
C1346 H1337 0.930 . S
C1346 C1344 1.384 . S
C1346 C1347 1.372 . S
C1347 C1346 1.372 . S
C1347 C1348 1.400 . S
C1347 C1352 1.490 . S
C1348 H1338 0.930 . S
C1348 C1347 1.400 . S
C1348 C1351 1.386 . S
H1349 C1365 0.930 . S
H1350 C1366 0.931 . S
C1351 H1339 0.929 . S
C1351 C1345 1.390 . S
C1351 C1348 1.386 . S
C1352 C1347 1.490 . S
C1352 C1354 1.395 . S
C1352 C1355 1.403 . S
H1353 C1359 0.930 . S
C1354 H1340 0.930 . S
C1354 C1352 1.395 . S
C1354 C1357 1.403 . S
C1355 C1352 1.403 . S
C1355 C1356 1.524 . S
C1355 C1359 1.400 . S
C1356 H1341 0.960 . S
C1356 H1342 0.960 . S
C1356 H1343 0.960 . S
C1356 C1355 1.524 . S
C1357 C1354 1.403 . S
C1357 C1358 1.392 . S
C1357 C1361 1.495 . S
C1358 C1357 1.392 . S
C1358 C1359 1.385 . S
C1358 C1360 1.478 . S
C1359 H1353 0.930 . S
C1359 C1355 1.400 . S
C1359 C1358 1.385 . S
C1360 C1358 1.478 . S
C1360 C1362 1.381 . S
C1360 C1366 1.383 . S
C1361 C1357 1.495 . S
C1361 H1367 0.959 . S
C1361 H1368 0.961 . S
C1361 H1369 0.960 . S
C1362 C1360 1.381 . S
C1362 C1363 1.394 . S
C1362 H1370 0.930 . S
C1363 C1362 1.394 . S
C1363 C1364 1.383 . S
C1363 H1371 0.929 . S
C1364 C1363 1.383 . S
C1364 C1365 1.377 . S
C1365 H1349 0.930 . S
C1365 C1364 1.377 . S
C1365 C1366 1.379 . S
C1366 H1350 0.931 . S
C1366 C1360 1.383 . S
C1366 C1365 1.379 . S
H1367 C1361 0.959 . S
H1368 C1361 0.961 . S
H1369 C1361 0.960 . S
H1370 C1362 0.930 . S
H1371 C1363 0.929 . S
H1372 C1380 0.929 . S
H1373 C1382 0.930 . S
H1374 C1384 0.930 . S
H1375 C1387 0.929 . S
H1376 C1390 0.930 . S
H1377 C1392 0.960 . S
H1378 C1392 0.960 . S
H1379 C1392 0.960 . S
C1380 H1372 0.929 . S
C1380 C1381 1.377 . S
C1380 C1382 1.384 . S
C1381 C1380 1.377 . S
C1381 C1387 1.390 . S
C1382 H1373 0.930 . S
C1382 C1380 1.384 . S
C1382 C1383 1.372 . S
C1383 C1382 1.372 . S
C1383 C1384 1.400 . S
C1383 C1388 1.490 . S
C1384 H1374 0.930 . S
C1384 C1383 1.400 . S
C1384 C1387 1.386 . S
H1385 C1401 0.930 . S
H1386 C1402 0.931 . S
C1387 H1375 0.929 . S
C1387 C1381 1.390 . S
C1387 C1384 1.386 . S
C1388 C1383 1.490 . S
C1388 C1390 1.395 . S
C1388 C1391 1.403 . S
H1389 C1395 0.930 . S
C1390 H1376 0.930 . S
C1390 C1388 1.395 . S
C1390 C1393 1.403 . S
C1391 C1388 1.403 . S
C1391 C1392 1.524 . S
C1391 C1395 1.400 . S
C1392 H1377 0.960 . S
C1392 H1378 0.960 . S
C1392 H1379 0.960 . S
C1392 C1391 1.524 . S
C1393 C1390 1.403 . S
C1393 C1394 1.392 . S
C1393 C1397 1.495 . S
C1394 C1393 1.392 . S
C1394 C1395 1.385 . S
C1394 C1396 1.478 . S
C1395 H1389 0.930 . S
C1395 C1391 1.400 . S
C1395 C1394 1.385 . S
C1396 C1394 1.478 . S
C1396 C1398 1.381 . S
C1396 C1402 1.383 . S
C1397 C1393 1.495 . S
C1397 H1403 0.959 . S
C1397 H1404 0.961 . S
C1397 H1405 0.960 . S
C1398 C1396 1.381 . S
C1398 C1399 1.394 . S
C1398 H1406 0.930 . S
C1399 C1398 1.394 . S
C1399 C1400 1.383 . S
C1399 H1407 0.929 . S
C1400 C1399 1.383 . S
C1400 C1401 1.377 . S
C1401 H1385 0.930 . S
C1401 C1400 1.377 . S
C1401 C1402 1.379 . S
C1402 H1386 0.931 . S
C1402 C1396 1.383 . S
C1402 C1401 1.379 . S
H1403 C1397 0.959 . S
H1404 C1397 0.961 . S
H1405 C1397 0.960 . S
H1406 C1398 0.930 . S
H1407 C1399 0.929 . S
H1408 C1416 0.929 . S
H1409 C1418 0.930 . S
H1410 C1420 0.930 . S
H1411 C1423 0.929 . S
H1412 C1426 0.930 . S
H1413 C1428 0.960 . S
H1414 C1428 0.960 . S
H1415 C1428 0.960 . S
C1416 H1408 0.929 . S
C1416 C1417 1.377 . S
C1416 C1418 1.384 . S
C1417 C1416 1.377 . S
C1417 C1423 1.390 . S
C1418 H1409 0.930 . S
C1418 C1416 1.384 . S
C1418 C1419 1.372 . S
C1419 C1418 1.372 . S
C1419 C1420 1.400 . S
C1419 C1424 1.490 . S
C1420 H1410 0.930 . S
C1420 C1419 1.400 . S
C1420 C1423 1.386 . S
H1421 C1437 0.930 . S
H1422 C1438 0.931 . S
C1423 H1411 0.929 . S
C1423 C1417 1.390 . S
C1423 C1420 1.386 . S
C1424 C1419 1.490 . S
C1424 C1426 1.395 . S
C1424 C1427 1.403 . S
H1425 C1431 0.930 . S
C1426 H1412 0.930 . S
C1426 C1424 1.395 . S
C1426 C1429 1.403 . S
C1427 C1424 1.403 . S
C1427 C1428 1.524 . S
C1427 C1431 1.400 . S
C1428 H1413 0.960 . S
C1428 H1414 0.960 . S
C1428 H1415 0.960 . S
C1428 C1427 1.524 . S
C1429 C1426 1.403 . S
C1429 C1430 1.392 . S
C1429 C1433 1.495 . S
C1430 C1429 1.392 . S
C1430 C1431 1.385 . S
C1430 C1432 1.478 . S
C1431 H1425 0.930 . S
C1431 C1427 1.400 . S
C1431 C1430 1.385 . S
C1432 C1430 1.478 . S
C1432 C1434 1.381 . S
C1432 C1438 1.383 . S
C1433 C1429 1.495 . S
C1433 H1439 0.959 . S
C1433 H1440 0.961 . S
C1433 H1441 0.960 . S
C1434 C1432 1.381 . S
C1434 C1435 1.394 . S
C1434 H1442 0.930 . S
C1435 C1434 1.394 . S
C1435 C1436 1.383 . S
C1435 H1443 0.929 . S
C1436 C1435 1.383 . S
C1436 C1437 1.377 . S
C1437 H1421 0.930 . S
C1437 C1436 1.377 . S
C1437 C1438 1.379 . S
C1438 H1422 0.931 . S
C1438 C1432 1.383 . S
C1438 C1437 1.379 . S
H1439 C1433 0.959 . S
H1440 C1433 0.961 . S
H1441 C1433 0.960 . S
H1442 C1434 0.930 . S
H1443 C1435 0.929 . S
H1444 C1452 0.929 . S
H1445 C1454 0.930 . S
H1446 C1456 0.930 . S
H1447 C1459 0.929 . S
H1448 C1462 0.930 . S
H1449 C1464 0.960 . S
H1450 C1464 0.960 . S
H1451 C1464 0.960 . S
C1452 H1444 0.929 . S
C1452 C1453 1.377 . S
C1452 C1454 1.384 . S
C1453 C1452 1.377 . S
C1453 C1459 1.390 . S
C1454 H1445 0.930 . S
C1454 C1452 1.384 . S
C1454 C1455 1.372 . S
C1455 C1454 1.372 . S
C1455 C1456 1.400 . S
C1455 C1460 1.490 . S
C1456 H1446 0.930 . S
C1456 C1455 1.400 . S
C1456 C1459 1.386 . S
H1457 C1473 0.930 . S
H1458 C1474 0.931 . S
C1459 H1447 0.929 . S
C1459 C1453 1.390 . S
C1459 C1456 1.386 . S
C1460 C1455 1.490 . S
C1460 C1462 1.395 . S
C1460 C1463 1.403 . S
H1461 C1467 0.930 . S
C1462 H1448 0.930 . S
C1462 C1460 1.395 . S
C1462 C1465 1.403 . S
C1463 C1460 1.403 . S
C1463 C1464 1.524 . S
C1463 C1467 1.400 . S
C1464 H1449 0.960 . S
C1464 H1450 0.960 . S
C1464 H1451 0.960 . S
C1464 C1463 1.524 . S
C1465 C1462 1.403 . S
C1465 C1466 1.392 . S
C1465 C1469 1.495 . S
C1466 C1465 1.392 . S
C1466 C1467 1.385 . S
C1466 C1468 1.478 . S
C1467 H1461 0.930 . S
C1467 C1463 1.400 . S
C1467 C1466 1.385 . S
C1468 C1466 1.478 . S
C1468 C1470 1.381 . S
C1468 C1474 1.383 . S
C1469 C1465 1.495 . S
C1469 H1475 0.959 . S
C1469 H1476 0.961 . S
C1469 H1477 0.960 . S
C1470 C1468 1.381 . S
C1470 C1471 1.394 . S
C1470 H1478 0.930 . S
C1471 C1470 1.394 . S
C1471 C1472 1.383 . S
C1471 H1479 0.929 . S
C1472 C1471 1.383 . S
C1472 C1473 1.377 . S
C1473 H1457 0.930 . S
C1473 C1472 1.377 . S
C1473 C1474 1.379 . S
C1474 H1458 0.931 . S
C1474 C1468 1.383 . S
C1474 C1473 1.379 . S
H1475 C1469 0.959 . S
H1476 C1469 0.961 . S
H1477 C1469 0.960 . S
H1478 C1470 0.930 . S
H1479 C1471 0.929 . S
C625 C1 2.308 . S
C644 C480 2.323 . S
C661 C80 2.226 . S
C680 C522 2.288 . S
C716 C552 0.979 . S
C697 C140 0.961 . S
C733 C211 0.995 . S
C752 C586 1.021 . S
C788 C543 1.870 . S
C769 C31 1.857 . S
C824 C497 1.870 . S
C805 C61 1.813 . S
C860 C590 1.350 . S
C841 C151 1.310 . S
C896 C556 1.409 . S
C877 C200 1.359 . S
C913 C20 2.192 . S
C932 C611 2.217 . S
C968 C518 1.102 . S
C949 C121 1.072 . S
C985 C181 1.092 . S
C1004 C493 1.127 . S
C1021 C91 2.121 . S
C1040 C577 2.185 . S
C1076 C509 2.324 . S
C1057 C260 2.302 . S
C1093 C320 2.225 . S
C1112 C531 2.282 . S
C1129 C361 0.977 . S
C1148 C561 0.982 . S
C1165 C451 1.013 . S
C1184 C595 1.031 . S
C1201 C271 1.848 . S
C1220 C514 1.871 . S
C1256 C488 1.870 . S
C1237 C301 1.818 . S
C1292 C599 1.358 . S
C1273 C380 1.336 . S
C1328 C565 1.422 . S
C1309 C440 1.363 . S
C1345 C241 2.209 . S
C1364 C582 2.217 . S
C1400 C527 1.116 . S
C1381 C391 1.103 . S
C1436 C484 1.120 . S
C1417 C421 1.075 . S
C1453 C331 2.122 . S
C1472 C548 2.190 . S
