# Generated by pormake.
# Topology pth, (4,4)-cn, num edge types: 1
# Building blocks:
#     Node 0, Type 0, BuildingBlock: UXUYUI_clean_sbu_0, # of connection points: 4
#     Node 1, Type 0, BuildingBlock: UXUYUI_clean_sbu_0, # of connection points: 4
#     Node 2, Type 0, BuildingBlock: UXUYUI_clean_sbu_0, # of connection points: 4
#     Node 3, Type 1, BuildingBlock: MIFKUJ_clean_linker_1, # of connection points: 4
#     Node 4, Type 1, BuildingBlock: MIFKUJ_clean_linker_1, # of connection points: 4
#     Node 5, Type 1, BuildingBlock: MIFKUJ_clean_linker_1, # of connection points: 4
#     Edge 6, Type (0, 1), BuildingBlock: XUDNAN_clean_linker_2, # of connection points: 2
#     Edge 7, Type (0, 1), BuildingBlock: XUDNAN_clean_linker_2, # of connection points: 2
#     Edge 8, Type (0, 1), BuildingBlock: XUDNAN_clean_linker_2, # of connection points: 2
#     Edge 9, Type (0, 1), BuildingBlock: XUDNAN_clean_linker_2, # of connection points: 2
#     Edge 10, Type (0, 1), BuildingBlock: XUDNAN_clean_linker_2, # of connection points: 2
#     Edge 11, Type (0, 1), BuildingBlock: XUDNAN_clean_linker_2, # of connection points: 2
#     Edge 12, Type (0, 1), BuildingBlock: XUDNAN_clean_linker_2, # of connection points: 2
#     Edge 13, Type (0, 1), BuildingBlock: XUDNAN_clean_linker_2, # of connection points: 2
#     Edge 14, Type (0, 1), BuildingBlock: XUDNAN_clean_linker_2, # of connection points: 2
#     Edge 15, Type (0, 1), BuildingBlock: XUDNAN_clean_linker_2, # of connection points: 2
#     Edge 16, Type (0, 1), BuildingBlock: XUDNAN_clean_linker_2, # of connection points: 2
#     Edge 17, Type (0, 1), BuildingBlock: XUDNAN_clean_linker_2, # of connection points: 2
# Relax obj value: 0.075
# Max RMSD: 0.209
# Mean RMSD: 0.121
data_MOF--net-pth--node1-UXUYUI_clean_sbu_0--node2-MIFKUJ_clean_linker_1--edge1-XUDNAN_clean_linker_2
_symmetry_space_group_name_H-M    P1
_symmetry_Int_Tables_number       1
_symmetry_cell_setting            triclinic
loop_
_symmetry_equiv_pos_as_xyz
'x, y, z'
_cell_length_a     35.020271
_cell_length_b     35.056119
_cell_length_c     75.343855
_cell_angle_alpha  90.041981
_cell_angle_beta   89.995041
_cell_angle_gamma 120.03036
loop_
_atom_site_label
_atom_site_type_symbol
_atom_site_fract_x
_atom_site_fract_y
_atom_site_fract_z
_atom_type_partial_charge
Li0 Li 0.04249 0.03252 0.03652 0.0
Li1 Li 0.98692 0.02571 0.0573 0.0
Li2 Li 0.01017 0.97126 0.05689 0.0
Li3 Li 0.9668 0.97419 0.03279 0.0
C4 C 0.08676 0.04363 0.06851 0.0
N5 N 0.16907 0.06202 0.08014 0.0
C6 C 0.10509 0.06904 0.08376 0.0
C7 C 0.11029 0.02758 0.05916 0.0
C8 C 0.14676 0.07798 0.08943 0.0
C9 C 0.15185 0.03723 0.06526 0.0
C10 C 0.00274 0.08165 0.02782 0.0
C11 C 0.00279 0.13658 0.00856 0.0
N12 N 0.02906 0.16851 0.0203 0.0
C13 C 0.0297 0.11499 0.0397 0.0
C14 C 0.98913 0.09247 0.01212 0.0
C15 C 0.04266 0.1587 0.03567 0.0
C16 C 0.10308 0.06759 0.00764 0.0
N17 N 0.09458 0.07504 0.0245 0.0
C18 C 0.15796 0.14719 0.02425 0.0
C19 C 0.12142 0.11369 0.03292 0.0
C20 C 0.16768 0.14085 0.00676 0.0
C21 C 0.13977 0.10013 0.99849 0.0
H22 H 0.08108 0.03655 1.00124 0.0
H23 H 0.11394 0.11899 0.0463 0.0
C24 C 0.98294 0.05625 0.09052 0.0
N25 N 0.97025 0.05656 0.07352 0.0
C26 C 0.97599 0.08021 0.10362 0.0
C27 C 0.94219 0.10393 0.08155 0.0
C28 C 0.94952 0.07912 0.06885 0.0
C29 C 0.95583 0.10491 0.09918 0.0
H30 H 0.99932 0.03796 0.09382 0.0
H31 H 0.93949 0.0786 0.05523 0.0
C32 C 0.00991 0.92771 0.02586 0.0
N33 N 0.98682 0.84339 0.01524 0.0
C34 C 0.97585 0.89123 0.03448 0.0
C35 C 0.03224 0.9213 0.01185 0.0
C36 C 0.96467 0.84888 0.02892 0.0
C37 C 0.02009 0.87841 0.00668 0.0
C38 C 0.90612 0.94998 0.06038 0.0
C39 C 0.87934 0.91698 0.07239 0.0
C40 C 0.8887 0.97182 0.05074 0.0
C41 C 0.83549 0.90636 0.07457 0.0
C42 C 0.8447 0.96026 0.0533 0.0
N43 N 0.81922 0.92804 0.06506 0.0
C44 C 0.9968 0.92624 0.08821 0.0
C45 C 0.04519 0.91641 0.06923 0.0
C46 C 0.99971 0.89922 0.10104 0.0
N47 N 0.01919 0.93415 0.07269 0.0
C48 C 0.04909 0.88905 0.08176 0.0
C49 C 0.02619 0.88024 0.09795 0.0
H50 H 0.97645 0.9409 0.09058 0.0
H51 H 0.06282 0.92342 0.05678 0.0
C52 C 0.92659 0.9561 0.99905 0.0
N53 N 0.9228 0.93946 0.01566 0.0
C54 C 0.89601 0.93119 0.98591 0.0
C55 C 0.85839 0.87234 0.00717 0.0
C56 C 0.88953 0.89847 0.01992 0.0
C57 C 0.86142 0.8886 0.98988 0.0
H58 H 0.95369 0.9886 0.99599 0.0
H59 H 0.88729 0.88583 0.03319 0.0
O60 O 0.04597 0.0347 0.06285 0.0
O61 O 0.9898 0.03857 0.03137 0.0
O62 O 0.02149 0.96961 0.03096 0.0
O63 O 0.9491 0.96055 0.05817 0.0
H64 H 0.08732 0.08177 0.09112 0.0
H65 H 0.09678 0.00797 0.04731 0.0
H66 H 0.16136 0.09763 0.10121 0.0
H67 H 0.17041 0.02502 0.05816 0.0
H68 H 0.99252 0.14544 0.99645 0.0
H69 H 0.04055 0.10727 0.05192 0.0
H70 H 0.96823 0.06704 1.00278 0.0
H71 H 0.06355 0.18481 0.04475 0.0
H72 H 0.17769 0.17816 0.03111 0.0
H73 H 0.14612 0.09341 0.98512 0.0
H74 H 0.98749 0.08042 0.11698 0.0
H75 H 0.92615 0.12219 0.07763 0.0
H76 H 0.95819 0.89545 0.04537 0.0
H77 H 0.05869 0.94921 0.00504 0.0
H78 H 0.93836 0.82037 0.03547 0.0
H79 H 0.03708 0.87297 0.99585 0.0
H80 H 0.89232 0.89971 0.07993 0.0
H81 H 0.90875 0.99733 0.04134 0.0
H82 H 0.81438 0.88087 0.08382 0.0
H83 H 0.83079 0.97689 0.04593 0.0
H84 H 0.98083 0.89279 0.11316 0.0
H85 H 0.07014 0.87539 0.07889 0.0
H86 H 0.89986 0.9448 0.9727 0.0
H87 H 0.83199 0.83992 0.01087 0.0
Li88 Li 0.99699 0.96249 0.36631 0.0
Li89 Li 0.04076 0.01008 0.39094 0.0
Li90 Li 0.96038 0.98304 0.38945 0.0
Li91 Li 0.01131 0.04045 0.36915 0.0
C92 C 0.9703 0.90448 0.3952 0.0
N93 N 0.92821 0.81476 0.40113 0.0
C94 C 0.99154 0.88624 0.40471 0.0
C95 C 0.92774 0.87718 0.38871 0.0
C96 C 0.96969 0.84077 0.40757 0.0
C97 C 0.90697 0.83188 0.39184 0.0
C98 C 0.09821 0.03654 0.36446 0.0
C99 C 0.17174 0.0952 0.37112 0.0
N100 N 0.18838 0.07053 0.36435 0.0
C101 C 0.11597 0.01181 0.3575 0.0
C102 C 0.12623 0.07864 0.37125 0.0
C103 C 0.16168 0.02958 0.35759 0.0
C104 C 0.97928 0.92162 0.33303 0.0
N105 N 0.99344 0.92017 0.34967 0.0
C106 C 0.01014 0.86459 0.34088 0.0
C107 C 0.00862 0.89238 0.35382 0.0
C108 C 0.99622 0.86573 0.32347 0.0
C109 C 0.98005 0.89434 0.31971 0.0
H110 H 0.96824 0.94472 0.33003 0.0
H111 H 0.02094 0.89285 0.36702 0.0
C112 C 0.09755 0.04806 0.4206 0.0
N113 N 0.08771 0.02026 0.40659 0.0
C114 C 0.13146 0.05513 0.43228 0.0
C115 C 0.14363 0.00381 0.41519 0.0
C116 C 0.10949 0.99776 0.40385 0.0
C117 C 0.15514 0.03298 0.42961 0.0
H118 H 0.07863 0.06422 0.42288 0.0
H119 H 0.10021 0.97496 0.39285 0.0
C120 C 0.91275 0.97053 0.35823 0.0
N121 N 0.82648 0.94097 0.34816 0.0
C122 C 0.89505 0.99841 0.35947 0.0
C123 C 0.8867 0.92778 0.35163 0.0
C124 C 0.85134 0.9828 0.35438 0.0
C125 C 0.84314 0.91341 0.34667 0.0
C126 C 0.0077 0.08051 0.39935 0.0
C127 C 0.96804 0.08058 0.39746 0.0
C128 C 0.0454 0.11874 0.4051 0.0
C129 C 0.9668 0.11897 0.40121 0.0
C130 C 0.04284 0.1565 0.40871 0.0
N131 N 0.00392 0.15584 0.4067 0.0
C132 C 0.91803 0.98502 0.42044 0.0
C133 C 0.8676 0.93537 0.39929 0.0
C134 C 0.88355 0.97739 0.43187 0.0
N135 N 0.90956 0.96489 0.40432 0.0
C136 C 0.83208 0.92648 0.41038 0.0
C137 C 0.83983 0.94817 0.42679 0.0
H138 H 0.9517 0.00776 0.4243 0.0
H139 H 0.86137 0.91899 0.38664 0.0
C140 C 0.99439 0.08276 0.34112 0.0
N141 N 0.02076 0.09044 0.3555 0.0
C142 C 0.99684 0.11784 0.33142 0.0
C143 C 0.05519 0.16821 0.35092 0.0
C144 C 0.05181 0.1321 0.36015 0.0
C145 C 0.0269 0.16128 0.33654 0.0
H146 H 0.97083 0.04933 0.33734 0.0
H147 H 0.07361 0.13748 0.37117 0.0
O148 O 0.99154 0.9488 0.39204 0.0
O149 O 0.05355 0.01939 0.36481 0.0
O150 O 0.95558 0.98524 0.36309 0.0
O151 O 0.00965 0.04328 0.39559 0.0
H152 H 0.02461 0.90698 0.40976 0.0
H153 H 0.91109 0.89078 0.38122 0.0
H154 H 0.98573 0.82616 0.41489 0.0
H155 H 0.87402 0.81033 0.38686 0.0
H156 H 0.19383 0.1276 0.37646 0.0
H157 H 0.09467 0.97915 0.3522 0.0
H158 H 0.11291 0.09797 0.37683 0.0
H159 H 0.17592 0.01077 0.35231 0.0
H160 H 0.02357 0.84366 0.34431 0.0
H161 H 0.96851 0.89601 0.30656 0.0
H162 H 0.13852 0.07713 0.44345 0.0
H163 H 0.16109 0.98617 0.41258 0.0
H164 H 0.91492 0.03188 0.36415 0.0
H165 H 0.89979 0.90574 0.35049 0.0
H166 H 0.83722 0.00401 0.35533 0.0
H167 H 0.82255 0.88033 0.34165 0.0
H168 H 0.93845 0.05128 0.39321 0.0
H169 H 0.0766 0.11964 0.40638 0.0
H170 H 0.9363 0.11944 0.39977 0.0
H171 H 0.07186 0.18639 0.41302 0.0
H172 H 0.89106 0.99419 0.44455 0.0
H173 H 0.79885 0.90375 0.40593 0.0
H174 H 0.9744 0.111 0.32043 0.0
H175 H 0.07948 0.20119 0.35506 0.0
Li176 Li 0.03781 0.99559 0.70284 0.0
Li177 Li 0.02911 0.03915 0.72611 0.0
Li178 Li 0.97508 0.95814 0.72393 0.0
Li179 Li 0.97387 0.01024 0.70269 0.0
C180 C 0.06047 0.96594 0.73365 0.0
N181 N 0.10202 0.91956 0.74315 0.0
C182 C 0.10021 0.98678 0.74305 0.0
C183 C 0.04155 0.92133 0.72935 0.0
C184 C 0.12083 0.96284 0.74765 0.0
C185 C 0.06311 0.89849 0.73421 0.0
C186 C 0.06697 0.09692 0.69999 0.0
C187 C 0.08135 0.1717 0.70178 0.0
N188 N 0.1253 0.1867 0.70016 0.0
C189 C 0.11223 0.11312 0.69812 0.0
C190 C 0.05136 0.12645 0.70165 0.0
C191 C 0.1412 0.15859 0.69832 0.0
C192 C 0.07378 0.97891 0.67167 0.0
N193 N 0.08188 0.99323 0.68879 0.0
C194 C 0.15833 0.01659 0.68549 0.0
C195 C 0.123 0.01121 0.69586 0.0
C196 C 0.15134 0.00337 0.66764 0.0
C197 C 0.10823 0.98329 0.66083 0.0
H198 H 0.04094 0.96562 0.66626 0.0
H199 H 0.12887 0.02357 0.7093 0.0
C200 C 0.04461 0.10166 0.75364 0.0
N201 N 0.06345 0.08594 0.74219 0.0
C202 C 0.07045 0.13349 0.76626 0.0
C203 C 0.13452 0.13249 0.75494 0.0
C204 C 0.1075 0.10088 0.74253 0.0
C205 C 0.11602 0.14891 0.76719 0.0
H206 H 0.00942 0.08882 0.75327 0.0
H207 H 0.1215 0.08739 0.73341 0.0
C208 C 0.95231 0.91299 0.69053 0.0
N209 N 0.90821 0.82925 0.67607 0.0
C210 C 0.90851 0.89478 0.685 0.0
C211 C 0.97398 0.88894 0.68829 0.0
C212 C 0.88668 0.8523 0.67785 0.0
C213 C 0.95106 0.84658 0.68107 0.0
C214 C 0.92958 0.01484 0.73137 0.0
C215 C 0.88817 0.98015 0.73628 0.0
C216 C 0.93546 0.05699 0.72905 0.0
C217 C 0.8531 0.98807 0.73843 0.0
C218 C 0.89958 0.06358 0.7313 0.0
N219 N 0.85946 0.02925 0.73588 0.0
C220 C 0.95391 0.90292 0.75382 0.0
C221 C 0.89705 0.87704 0.73228 0.0
C222 C 0.92732 0.86795 0.76509 0.0
N223 N 0.93857 0.90671 0.73772 0.0
C224 C 0.86915 0.84179 0.74321 0.0
C225 C 0.88416 0.83704 0.75989 0.0
H226 H 0.98651 0.92768 0.75811 0.0
H227 H 0.88494 0.88158 0.71976 0.0
C228 C 0.9532 0.05173 0.67502 0.0
N229 N 0.93554 0.02005 0.68774 0.0
C230 C 0.92581 0.05883 0.66367 0.0
C231 C 0.86251 1.00015 0.67854 0.0
C232 C 0.89112 0.99423 0.68959 0.0
C233 C 0.87975 0.03281 0.66534 0.0
H234 H 0.98861 0.07116 0.67354 0.0
H235 H 0.87782 0.96873 0.69957 0.0
O236 O 0.03992 0.98899 0.72899 0.0
O237 O 0.03812 0.05244 0.70012 0.0
O238 O 0.97433 0.9548 0.69738 0.0
O239 O 0.96421 0.00759 0.72902 0.0
H240 H 0.11512 0.02111 0.74673 0.0
H241 H 0.01019 0.90431 0.72262 0.0
H242 H 0.15174 0.97865 0.75483 0.0
H243 H 0.04878 0.86394 0.73094 0.0
H244 H 0.06969 0.19488 0.70313 0.0
H245 H 0.12495 0.09089 0.69668 0.0
H246 H 0.01645 0.11463 0.70272 0.0
H247 H 0.17632 0.17152 0.69703 0.0
H248 H 0.19104 0.03203 0.69127 0.0
H249 H 0.1016 0.9731 0.64707 0.0
H250 H 0.0548 0.14552 0.77529 0.0
H251 H 0.16925 0.14273 0.7553 0.0
H252 H 0.89136 0.91306 0.68636 0.0
H253 H 0.00827 0.9029 0.69191 0.0
H254 H 0.85264 0.83769 0.6737 0.0
H255 H 0.96741 0.82757 0.67935 0.0
H256 H 0.88305 0.94744 0.73834 0.0
H257 H 0.96737 0.08435 0.72557 0.0
H258 H 0.82082 0.96145 0.74211 0.0
H259 H 0.90366 0.09601 0.72944 0.0
H260 H 0.93991 0.86596 0.77798 0.0
H261 H 0.83607 0.81869 0.73871 0.0
H262 H 0.94055 0.08386 0.65349 0.0
H263 H 0.82726 0.97956 0.6804 0.0
H264 H 0.04182 0.44988 0.17632 0.0
H265 H 0.02989 0.38273 0.16142 0.0
H266 H 0.91184 0.30633 0.19254 0.0
H267 H 0.92435 0.37341 0.20751 0.0
H268 H 0.99278 0.48941 0.17782 0.0
H269 H 0.04696 0.42417 0.21947 0.0
H270 H 0.05182 0.37458 0.24112 0.0
H271 H 0.94642 0.37301 0.27142 0.0
H272 H 0.94087 0.42157 0.24964 0.0
H273 H 0.94334 0.53398 0.24361 0.0
H274 H 0.94711 0.59767 0.25852 0.0
H275 H 0.06847 0.68346 0.23078 0.0
H276 H 0.06422 0.61949 0.21579 0.0
H277 H 0.99962 0.50185 0.24348 0.0
H278 H 0.94192 0.56263 0.20163 0.0
H279 H 0.94927 0.62729 0.18618 0.0
H280 H 0.06156 0.63975 0.15742 0.0
H281 H 0.05512 0.57574 0.17341 0.0
C282 C 0.98433 0.41661 0.19319 0.0
C283 C 0.01335 0.41864 0.17989 0.0
C284 C 0.00635 0.38023 0.17133 0.0
C285 C 0.96999 0.33905 0.17583 0.0
C286 C 0.94063 0.33732 0.18898 0.0
C287 C 0.94769 0.37568 0.19754 0.0
C288 C 0.99186 0.45728 0.20238 0.0
C289 C 0.99481 0.49227 0.19217 0.0
C290 C 0.99373 0.46081 0.22113 0.0
C291 C 0.9935 0.42664 0.23289 0.0
C292 C 0.02411 0.41225 0.23052 0.0
C293 C 0.02699 0.38405 0.24291 0.0
C294 C 0.9998 0.3704 0.25802 0.0
C295 C 0.96819 0.38355 0.26002 0.0
C296 C 0.96497 0.41124 0.24757 0.0
C297 C 0.00327 0.57202 0.22848 0.0
C298 C 0.97092 0.5665 0.24084 0.0
C299 C 0.97319 0.60294 0.24939 0.0
C300 C 0.00803 0.6457 0.24581 0.0
C301 C 0.04083 0.65106 0.23363 0.0
C302 C 0.03855 0.61455 0.22509 0.0
C303 C 0.99953 0.53314 0.21901 0.0
C304 C 0.99744 0.49868 0.22913 0.0
C305 C 0.99808 0.52994 0.20026 0.0
C306 C 0.99864 0.56498 0.189 0.0
C307 C 0.96812 0.57919 0.19199 0.0
C308 C 0.97229 0.61606 0.18316 0.0
C309 C 0.00633 0.63872 0.17081 0.0
C310 C 0.03508 0.6228 0.16691 0.0
C311 C 0.03136 0.58626 0.176 0.0
H312 H 0.5852 0.03675 0.50677 0.0
H313 H 0.63315 0.01983 0.48886 0.0
H314 H 0.60321 0.90956 0.52314 0.0
H315 H 0.5545 0.92594 0.54071 0.0
H316 H 0.50111 0.99323 0.51189 0.0
H317 H 0.62362 0.05343 0.54792 0.0
H318 H 0.68733 0.06702 0.56569 0.0
H319 H 0.60162 0.96444 0.6021 0.0
H320 H 0.53791 0.94971 0.58379 0.0
H321 H 0.41218 0.94268 0.57833 0.0
H322 H 0.36039 0.95225 0.59701 0.0
H323 H 0.40202 0.07825 0.57228 0.0
H324 H 0.45438 0.06884 0.55391 0.0
H325 H 0.50469 0.99966 0.57767 0.0
H326 H 0.37957 0.95085 0.53543 0.0
H327 H 0.32806 0.96538 0.51868 0.0
H328 H 0.43826 0.07936 0.49481 0.0
H329 H 0.48931 0.06515 0.51173 0.0
C330 C 0.56629 0.9827 0.52512 0.0
C331 C 0.58901 0.00896 0.51043 0.0
C332 C 0.61669 0.99947 0.5003 0.0
C333 C 0.62191 0.96329 0.50456 0.0
C334 C 0.59951 0.93736 0.51939 0.0
C335 C 0.57198 0.94696 0.52955 0.0
C336 C 0.53524 0.99141 0.53542 0.0
C337 C 0.50217 0.99491 0.52628 0.0
C338 C 0.53704 0.99457 0.55417 0.0
C339 C 0.57589 1.00017 0.56437 0.0
C340 C 0.61853 0.03311 0.55949 0.0
C341 C 0.65495 0.0413 0.56982 0.0
C342 C 0.64958 0.01707 0.58541 0.0
C343 C 0.60698 0.98345 0.5901 0.0
C344 C 0.57048 0.97518 0.5797 0.0
C345 C 0.4369 0.0049 0.56467 0.0
C346 C 0.40992 0.97223 0.57688 0.0
C347 C 0.38012 0.9776 0.58744 0.0
C348 C 0.37709 0.016 0.58612 0.0
C349 C 0.40384 0.04846 0.57371 0.0
C350 C 0.43352 0.04299 0.56311 0.0
C351 C 0.4699 0.99983 0.55416 0.0
C352 C 0.50344 0.99719 0.5633 0.0
C353 C 0.47003 1.00002 0.53539 0.0
C354 C 0.43826 0.00713 0.52491 0.0
C355 C 0.39253 0.97899 0.5266 0.0
C356 C 0.36319 0.98716 0.51696 0.0
C357 C 0.37914 0.0237 0.50553 0.0
C358 C 0.42494 0.05135 0.50371 0.0
C359 C 0.45416 0.04305 0.51325 0.0
H360 H 0.45919 0.40783 0.84709 0.0
H361 H 0.39304 0.35067 0.83217 0.0
H362 H 0.3136 0.39231 0.86107 0.0
H363 H 0.37963 0.4493 0.87585 0.0
H364 H 0.49989 0.49242 0.84721 0.0
H365 H 0.43343 0.38404 0.89 0.0
H366 H 0.38373 0.3293 0.91145 0.0
H367 H 0.37732 0.43143 0.94092 0.0
H368 H 0.42489 0.48599 0.91893 0.0
H369 H 0.52799 0.6069 0.90279 0.0
H370 H 0.58501 0.67391 0.91719 0.0
H371 H 0.68129 0.63438 0.90614 0.0
H372 H 0.62383 0.56714 0.89164 0.0
H373 H 0.50309 0.51641 0.91219 0.0
H374 H 0.5697 0.62176 0.86206 0.0
H375 H 0.63487 0.67031 0.84431 0.0
H376 H 0.65337 0.56009 0.83227 0.0
H377 H 0.58881 0.51205 0.85027 0.0
C378 C 0.4244 0.43256 0.86278 0.0
C379 C 0.42754 0.40472 0.85016 0.0
C380 C 0.38972 0.37213 0.84162 0.0
C381 C 0.34803 0.3668 0.84551 0.0
C382 C 0.34508 0.39501 0.85801 0.0
C383 C 0.38285 0.42763 0.86648 0.0
C384 C 0.46443 0.46749 0.87183 0.0
C385 C 0.50056 0.4972 0.86146 0.0
C386 C 0.46607 0.47333 0.8905 0.0
C387 C 0.43283 0.43937 0.90266 0.0
C388 C 0.42028 0.39465 0.9007 0.0
C389 C 0.39208 0.36335 0.91301 0.0
C390 C 0.37694 0.37636 0.92777 0.0
C391 C 0.38878 0.42076 0.92963 0.0
C392 C 0.4161 0.4519 0.91711 0.0
C393 C 0.57179 0.58227 0.8961 0.0
C394 C 0.56139 0.6127 0.90346 0.0
C395 C 0.59401 0.65105 0.91157 0.0
C396 C 0.6376 0.65942 0.9127 0.0
C397 C 0.64791 0.62863 0.9055 0.0
C398 C 0.61526 0.59041 0.89717 0.0
C399 C 0.53659 0.54199 0.88746 0.0
C400 C 0.50171 0.51121 0.89796 0.0
C401 C 0.53686 0.53409 0.86908 0.0
C402 C 0.57473 0.56341 0.85762 0.0
C403 C 0.58787 0.60814 0.8556 0.0
C404 C 0.6249 0.63574 0.84536 0.0
C405 C 0.64942 0.61907 0.83698 0.0
C406 C 0.63557 0.57406 0.83877 0.0
C407 C 0.5985 0.5465 0.84893 0.0
H408 H 0.9726 0.18999 0.09585 0.0
H409 H 0.92814 0.08246 0.13353 0.0
H410 H 0.92522 0.13011 0.15701 0.0
H411 H 0.04229 0.27498 0.12534 0.0
H412 H 0.02955 0.31524 0.11668 0.0
H413 H 0.02569 0.27208 0.1025 0.0
H414 H 0.94441 0.24811 0.09522 0.0
H415 H 0.94813 0.29148 0.10926 0.0
H416 H 0.90559 0.23525 0.11308 0.0
H417 H 0.93063 0.19028 0.1767 0.0
H418 H 0.94253 0.25852 0.19117 0.0
H419 H 0.98188 0.32664 0.14056 0.0
C420 C 0.96141 0.17621 0.10895 0.0
C421 C 0.95055 0.13248 0.11286 0.0
C422 C 0.93697 0.11598 0.13028 0.0
C423 C 0.93503 0.14272 0.14368 0.0
C424 C 0.94668 0.18588 0.13946 0.0
C425 C 0.95939 0.2025 0.12251 0.0
C426 C 0.97162 0.2505 0.12165 0.0
C427 C 0.02017 0.27992 0.11622 0.0
C428 C 0.94058 0.25668 0.10906 0.0
C429 C 0.9642 0.25834 0.1408 0.0
C430 C 0.94969 0.2206 0.15082 0.0
C431 C 0.94151 0.21993 0.16894 0.0
C432 C 0.94817 0.25883 0.17703 0.0
C433 C 0.96287 0.29797 0.16702 0.0
C434 C 0.97093 0.29746 0.14864 0.0
H435 H 0.82976 0.01048 0.44488 0.0
H436 H 0.7656 0.86985 0.43486 0.0
H437 H 0.70326 0.85827 0.45395 0.0
H438 H 0.79746 0.00321 0.49087 0.0
H439 H 0.78921 0.04993 0.48956 0.0
H440 H 0.82893 0.04693 0.47531 0.0
H441 H 0.79 0.05608 0.44774 0.0
H442 H 0.75012 0.05901 0.46189 0.0
H443 H 0.73194 0.0185 0.44441 0.0
H444 H 0.64802 0.86215 0.47415 0.0
H445 H 0.60283 0.88132 0.49329 0.0
H446 H 0.70338 0.01946 0.49021 0.0
C447 C 0.80282 0.97718 0.44686 0.0
C448 C 0.80258 0.94101 0.43843 0.0
C449 C 0.7663 0.89806 0.44107 0.0
C450 C 0.73088 0.89114 0.45196 0.0
C451 C 0.73218 0.92755 0.46005 0.0
C452 C 0.76715 0.96974 0.4576 0.0
C453 C 0.7601 0.00331 0.46752 0.0
C454 C 0.79606 0.02724 0.48166 0.0
C455 C 0.7579 0.03615 0.45462 0.0
C456 C 0.71566 0.97342 0.47595 0.0
C457 C 0.70021 0.92983 0.47154 0.0
C458 C 0.65985 0.89616 0.47773 0.0
C459 C 0.63454 0.90735 0.48869 0.0
C460 C 0.64959 0.95186 0.4933 0.0
C461 C 0.69078 0.98519 0.48681 0.0
H462 H 0.79759 0.80914 0.76775 0.0
H463 H 0.90421 0.784 0.77973 0.0
H464 H 0.85573 0.72542 0.80071 0.0
H465 H 0.75481 0.79374 0.81191 0.0
H466 H 0.69793 0.76751 0.80502 0.0
H467 H 0.74063 0.80672 0.79064 0.0
H468 H 0.71362 0.74864 0.76543 0.0
H469 H 0.67071 0.7093 0.7797 0.0
H470 H 0.70903 0.69583 0.7695 0.0
H471 H 0.79573 0.66977 0.82036 0.0
H472 H 0.72874 0.62156 0.83769 0.0
H473 H 0.66122 0.68312 0.81295 0.0
C474 C 0.81056 0.79094 0.77463 0.0
C475 C 0.85463 0.80097 0.77207 0.0
C476 C 0.87065 0.77701 0.78159 0.0
C477 C 0.84332 0.74361 0.79347 0.0
C478 C 0.80014 0.73472 0.79574 0.0
C479 C 0.78384 0.75771 0.78662 0.0
C480 C 0.73646 0.74227 0.79174 0.0
C481 C 0.73223 0.7798 0.80034 0.0
C482 C 0.70564 0.72285 0.77563 0.0
C483 C 0.72862 0.70691 0.80515 0.0
C484 C 0.76572 0.703 0.80722 0.0
C485 C 0.76644 0.67245 0.81882 0.0
C486 C 0.72817 0.64507 0.82853 0.0
C487 C 0.68972 0.64848 0.82664 0.0
C488 C 0.69019 0.67999 0.81481 0.0
H489 H 0.02664 0.80253 0.09288 0.0
H490 H 0.03223 0.89214 0.13397 0.0
H491 H 0.03042 0.84119 0.15689 0.0
H492 H 0.95287 0.70394 0.11453 0.0
H493 H 0.97912 0.67354 0.10741 0.0
H494 H 0.98357 0.71813 0.09405 0.0
H495 H 0.06881 0.75605 0.09508 0.0
H496 H 0.06464 0.71137 0.10836 0.0
H497 H 0.09638 0.76729 0.11625 0.0
H498 H 0.02222 0.77857 0.17534 0.0
H499 H 0.01235 0.70942 0.18824 0.0
H500 H 0.01522 0.6613 0.13549 0.0
C501 C 0.02842 0.81188 0.10669 0.0
C502 C 0.02924 0.85125 0.1116 0.0
C503 C 0.03082 0.86186 0.12985 0.0
C504 C 0.0301 0.83327 0.14299 0.0
C505 C 0.02829 0.79435 0.1377 0.0
C506 C 0.02797 0.78377 0.12001 0.0
C507 C 0.02472 0.73918 0.11798 0.0
C508 C 0.98256 0.7068 0.1079 0.0
C509 C 0.06611 0.74376 0.10888 0.0
C510 C 0.02245 0.72608 0.13729 0.0
C511 C 0.02457 0.75844 0.14842 0.0
C512 C 0.021 0.75317 0.16678 0.0
C513 C 0.01514 0.71376 0.17397 0.0
C514 C 0.0131 0.68024 0.16284 0.0
C515 C 0.01719 0.68669 0.14427 0.0
H516 H 0.17423 0.97124 0.44287 0.0
H517 H 0.21854 0.11114 0.44392 0.0
H518 H 0.27905 0.12347 0.46418 0.0
H519 H 0.19828 0.96165 0.48865 0.0
H520 H 0.21678 0.92304 0.48404 0.0
H521 H 0.17626 0.92493 0.4699 0.0
H522 H 0.22591 0.93751 0.44249 0.0
H523 H 0.26648 0.93548 0.45653 0.0
H524 H 0.28196 0.98271 0.44254 0.0
H525 H 0.3357 0.12097 0.48371 0.0
H526 H 0.38474 0.10378 0.50124 0.0
H527 H 0.30429 0.96565 0.48723 0.0
C528 C 0.19679 0.00452 0.44727 0.0
C529 C 0.19153 0.04023 0.44183 0.0
C530 C 0.22149 0.08318 0.4481 0.0
C531 C 0.2561 0.09055 0.45954 0.0
C532 C 0.26029 0.05464 0.46464 0.0
C533 C 0.23148 0.01246 0.45873 0.0
C534 C 0.24362 0.97968 0.46607 0.0
C535 C 0.20653 0.9453 0.47787 0.0
C536 C 0.25519 0.95755 0.45101 0.0
C537 C 0.28396 0.01009 0.47694 0.0
C538 C 0.29296 0.05317 0.47594 0.0
C539 C 0.32898 0.08736 0.4846 0.0
C540 C 0.35676 0.0773 0.49444 0.0
C541 C 0.3484 0.03342 0.49557 0.0
C542 C 0.31125 0.99942 0.48679 0.0
H543 H 0.20158 0.21774 0.76459 0.0
H544 H 0.09379 0.15033 0.80202 0.0
H545 H 0.14076 0.19976 0.82586 0.0
H546 H 0.28693 0.23108 0.79423 0.0
H547 H 0.32692 0.28466 0.78593 0.0
H548 H 0.28411 0.24565 0.77152 0.0
H549 H 0.25955 0.30268 0.76479 0.0
H550 H 0.30242 0.34194 0.77912 0.0
H551 H 0.24588 0.32733 0.7829 0.0
H552 H 0.20017 0.25471 0.84591 0.0
H553 H 0.26767 0.31199 0.86064 0.0
H554 H 0.33713 0.34276 0.81029 0.0
C555 C 0.18778 0.21326 0.77779 0.0
C556 C 0.14378 0.18018 0.78135 0.0
C557 C 0.12704 0.17588 0.79883 0.0
C558 C 0.15359 0.2036 0.81252 0.0
C559 C 0.19687 0.23546 0.80856 0.0
C560 C 0.21386 0.24051 0.79163 0.0
C561 C 0.26174 0.27674 0.79099 0.0
C562 C 0.29168 0.25842 0.78534 0.0
C563 C 0.26773 0.3144 0.77873 0.0
C564 C 0.26912 0.29105 0.81025 0.0
C565 C 0.23123 0.26693 0.82015 0.0
C566 C 0.22997 0.274 0.83828 0.0
C567 C 0.26842 0.30672 0.84651 0.0
C568 C 0.30766 0.33196 0.83662 0.0
C569 C 0.30782 0.32378 0.81825 0.0
H570 H 0.80304 0.96954 0.64962 0.0
H571 H 0.88887 0.11117 0.65389 0.0
H572 H 0.83967 0.12239 0.63379 0.0
H573 H 0.77547 0.96735 0.60365 0.0
H574 H 0.71903 0.92407 0.60636 0.0
H575 H 0.76106 0.92713 0.62104 0.0
H576 H 0.71654 0.92894 0.64819 0.0
H577 H 0.67435 0.92585 0.63359 0.0
H578 H 0.70047 0.97036 0.64934 0.0
H579 H 0.78096 0.11827 0.61348 0.0
H580 H 0.71689 0.09924 0.59426 0.0
H581 H 0.66923 0.96017 0.6031 0.0
C582 C 0.81132 0.00294 0.64647 0.0
C583 C 0.84991 0.0395 0.65333 0.0
C584 C 0.85984 0.08265 0.64863 0.0
C585 C 0.83196 0.08936 0.6373 0.0
C586 C 0.79427 0.05261 0.63078 0.0
C587 C 0.78389 0.01025 0.63518 0.0
C588 C 0.74145 0.97643 0.6263 0.0
C589 C 0.74977 0.94702 0.61358 0.0
C590 C 0.70611 0.94877 0.64018 0.0
C591 C 0.72953 0.00642 0.61625 0.0
C592 C 0.76046 0.05023 0.61901 0.0
C593 C 0.75663 0.08408 0.61115 0.0
C594 C 0.72024 0.0729 0.60015 0.0
C595 C 0.6881 0.02819 0.59705 0.0
C596 C 0.69297 0.99464 0.60529 0.0
H597 H 0.82723 0.80033 0.98315 0.0
H598 H 0.82121 0.91511 0.9656 0.0
H599 H 0.76559 0.86956 0.94309 0.0
H600 H 0.81465 0.75083 0.93973 0.0
H601 H 0.78101 0.69533 0.94778 0.0
H602 H 0.82137 0.73722 0.96215 0.0
H603 H 0.76057 0.72079 0.98543 0.0
H604 H 0.72008 0.67878 0.97117 0.0
H605 H 0.7122 0.72303 0.97891 0.0
H606 H 0.70821 0.81093 0.92347 0.0
H607 H 0.65401 0.74347 0.9077 0.0
H608 H 0.69777 0.66697 0.93782 0.0
C609 C 0.81414 0.81588 0.9746 0.0
C610 C 0.8286 0.86133 0.97612 0.0
C611 C 0.81103 0.88049 0.96453 0.0
C612 C 0.7793 0.85485 0.95176 0.0
C613 C 0.76568 0.81015 0.95067 0.0
C614 C 0.78264 0.79083 0.96172 0.0
C615 C 0.76198 0.74197 0.95795 0.0
C616 C 0.79684 0.73069 0.95152 0.0
C617 C 0.73724 0.71454 0.97434 0.0
C618 C 0.73036 0.73672 0.94318 0.0
C619 C 0.73303 0.77646 0.93918 0.0
C620 C 0.70601 0.77968 0.92642 0.0
C621 C 0.67525 0.74122 0.91758 0.0
C622 C 0.67185 0.70012 0.92151 0.0
C623 C 0.70012 0.69806 0.93437 0.0
H624 H 0.9798 0.78032 0.3255 0.0
H625 H 0.02247 0.89019 0.28905 0.0
H626 H 0.02976 0.84591 0.26527 0.0
H627 H 0.05416 0.74494 0.3096 0.0
H628 H 0.015 0.68715 0.3124 0.0
H629 H 0.01227 0.72723 0.32651 0.0
H630 H 0.93081 0.69709 0.3173 0.0
H631 H 0.93331 0.65696 0.30315 0.0
H632 H 0.91704 0.69428 0.2941 0.0
H633 H 0.0328 0.78987 0.24543 0.0
H634 H 0.03075 0.72569 0.23093 0.0
H635 H 0.9888 0.65341 0.28058 0.0
C636 C 0.99094 0.79521 0.31255 0.0
C637 C 1.00026 0.83871 0.30915 0.0
C638 C 0.01431 0.85669 0.29194 0.0
C639 C 0.01888 0.83191 0.27836 0.0
C640 C 0.00943 0.78921 0.28218 0.0
C641 C 0.99578 0.77098 0.29885 0.0
C642 C 0.9879 0.7244 0.29947 0.0
C643 C 0.01921 0.72074 0.31278 0.0
C644 C 0.93938 0.69123 0.30375 0.0
C645 C 0.99922 0.7193 0.28054 0.0
C646 C 0.01159 0.75706 0.27079 0.0
C647 C 0.02336 0.76017 0.25296 0.0
C648 C 0.02239 0.72364 0.24487 0.0
C649 C 0.00977 0.68452 0.25461 0.0
C650 C 0.99816 0.68261 0.2727 0.0
H651 H 0.15988 0.94878 0.64361 0.0
H652 H 0.22865 0.08124 0.6653 0.0
H653 H 0.29272 0.09927 0.6462 0.0
H654 H 0.25455 0.93503 0.64108 0.0
H655 H 0.23816 0.90447 0.62056 0.0
H656 H 0.19691 0.9022 0.63549 0.0
H657 H 0.16486 0.92786 0.6102 0.0
H658 H 0.20603 0.93019 0.59518 0.0
H659 H 0.20058 0.97819 0.59848 0.0
H660 H 0.34934 0.10307 0.62506 0.0
H661 H 0.39646 0.09147 0.60397 0.0
H662 H 0.29174 0.95642 0.59593 0.0
C663 C 0.18835 0.98162 0.64421 0.0
C664 C 0.18942 0.01359 0.65597 0.0
C665 C 0.22738 0.05611 0.65655 0.0
C666 C 0.26381 0.06675 0.64567 0.0
C667 C 0.26185 0.03449 0.63432 0.0
C668 C 0.22525 0.99273 0.63354 0.0
C669 C 0.23237 0.96386 0.62052 0.0
C670 C 0.23039 0.92404 0.62998 0.0
C671 C 0.19897 0.94917 0.60518 0.0
C672 C 0.2787 0.99591 0.61418 0.0
C673 C 0.29491 0.03654 0.62222 0.0
C674 C 0.33699 0.07146 0.61861 0.0
C675 C 0.3634 0.06463 0.60653 0.0
C676 C 0.34776 0.02313 0.59824 0.0
C677 C 0.30473 0.98843 0.60213 0.0
H678 H 0.17453 0.16298 0.97119 0.0
H679 H 0.24827 0.20103 0.02067 0.0
H680 H 0.30914 0.26494 0.00576 0.0
H681 H 0.27082 0.1933 0.9428 0.0
H682 H 0.25004 0.21227 0.92504 0.0
H683 H 0.21218 0.16895 0.93955 0.0
H684 H 0.17435 0.21438 0.94691 0.0
H685 H 0.21231 0.258 0.93256 0.0
H686 H 0.20701 0.26959 0.95545 0.0
H687 H 0.3597 0.32757 0.98625 0.0
H688 H 0.40018 0.38122 0.96236 0.0
H689 H 0.2972 0.29989 0.92492 0.0
C690 C 0.20375 0.18415 0.97886 0.0
C691 C 0.20607 0.17705 0.99724 0.0
C692 C 0.24495 0.20617 0.00672 0.0
C693 C 0.27996 0.24248 0.99834 0.0
C694 C 0.27612 0.24896 0.98036 0.0
C695 C 0.23939 0.22027 0.97063 0.0
C696 C 0.24384 0.23484 0.95142 0.0
C697 C 0.24426 0.20028 0.93897 0.0
C698 C 0.2072 0.24479 0.9463 0.0
C699 C 0.28853 0.27654 0.95197 0.0
C700 C 0.30637 0.28419 0.96885 0.0
C701 C 0.34637 0.32168 0.97293 0.0
C702 C 0.36897 0.35201 0.95935 0.0
C703 C 0.35176 0.34438 0.94191 0.0
C704 C 0.31112 0.3061 0.93816 0.0
H705 H 0.02247 0.17367 0.30067 0.0
H706 H 0.03087 0.23358 0.35203 0.0
H707 H 0.027 0.29449 0.33738 0.0
H708 H 0.08811 0.27636 0.27643 0.0
H709 H 0.05478 0.25649 0.25667 0.0
H710 H 0.06003 0.21843 0.27112 0.0
H711 H 0.97497 0.1724 0.27403 0.0
H712 H 0.96946 0.21036 0.25963 0.0
H713 H 0.94492 0.19882 0.28142 0.0
H714 H 0.01774 0.34622 0.31752 0.0
H715 H 0.00758 0.38802 0.29343 0.0
H716 H 0.00633 0.29565 0.25475 0.0
C717 C 0.02365 0.19971 0.30881 0.0
C718 C 0.02714 0.199 0.3275 0.0
C719 C 0.02887 0.2338 0.33769 0.0
C720 C 0.02643 0.26839 0.3295 0.0
C721 C 0.02258 0.26787 0.31109 0.0
C722 C 0.02158 0.2347 0.30083 0.0
C723 C 0.01681 0.24187 0.2813 0.0
C724 C 0.05736 0.2487 0.27076 0.0
C725 C 0.97399 0.20359 0.27365 0.0
C726 C 0.01466 0.28394 0.28222 0.0
C727 C 0.01796 0.29826 0.29955 0.0
C728 C 0.0154 0.33552 0.30389 0.0
C729 C 0.00936 0.35886 0.29014 0.0
C730 C 0.00613 0.34499 0.27227 0.0
C731 C 0.0091 0.30717 0.26829 0.0
loop_
_geom_bond_atom_site_label_1
_geom_bond_atom_site_label_2
_geom_bond_distance
_geom_bond_site_symmetry_2
_ccdc_geom_bond_type
Li0 N17 1.990 . S
Li0 O60 1.956 . S
Li0 O61 1.970 1_455 S
Li0 O62 1.961 1_545 S
Li1 N25 1.990 . S
Li1 O60 1.970 1_655 S
Li1 O61 1.956 . S
Li1 O63 1.961 1_545 S
Li2 N47 1.990 . S
Li2 O60 1.961 1_565 S
Li2 O62 1.956 . S
Li2 O63 1.970 1_455 S
Li3 N53 1.990 . S
Li3 O61 1.961 1_565 S
Li3 O62 1.970 1_655 S
Li3 O63 1.956 . S
C4 C6 1.348 . S
C4 C7 1.356 . S
C4 O60 1.325 . S
N5 C8 1.314 . S
N5 C9 1.279 . S
C6 C4 1.348 . S
C6 C8 1.353 . S
C6 H64 0.929 . S
C7 C4 1.356 . S
C7 C9 1.358 . S
C7 H65 0.930 . S
C8 N5 1.314 . S
C8 C6 1.353 . S
C8 H66 0.930 . S
C9 N5 1.279 . S
C9 C7 1.358 . S
C9 H67 0.930 . S
C10 C13 1.348 1_655 S
C10 C14 1.356 . S
C10 O61 1.325 . S
C11 N12 1.289 . S
C11 C14 1.358 . S
C11 H68 0.930 . S
N12 C11 1.289 . S
N12 C15 1.317 . S
C13 C10 1.348 1_455 S
C13 C15 1.353 1_455 S
C13 H69 0.929 . S
C14 C10 1.356 . S
C14 C11 1.358 . S
C14 H70 0.930 . S
C15 N12 1.317 . S
C15 C13 1.353 1_655 S
C15 H71 0.930 1_654 S
C16 N17 1.347 . S
C16 C21 1.332 1_554 S
C16 H22 0.917 1_554 S
N17 Li0 1.990 . S
N17 C16 1.347 . S
N17 C19 1.279 . S
C18 C19 1.358 . S
C18 C20 1.356 1_554 S
C18 H72 0.930 . S
C19 N17 1.279 . S
C19 C18 1.358 . S
C19 H23 0.930 . S
C20 C18 1.356 1_556 S
C20 C21 1.348 . S
C21 C16 1.332 1_556 S
C21 C20 1.348 . S
C21 H73 0.929 . S
H22 C16 0.917 1_556 S
H23 C19 0.930 . S
C24 N25 1.314 . S
C24 C26 1.353 . S
C24 H30 0.930 . S
N25 Li1 1.990 . S
N25 C24 1.314 . S
N25 C28 1.279 . S
C26 C24 1.353 . S
C26 C29 1.348 . S
C26 H74 0.929 . S
C27 C28 1.358 . S
C27 C29 1.356 . S
C27 H75 0.930 . S
C28 N25 1.279 . S
C28 C27 1.358 . S
C28 H31 0.930 . S
C29 C26 1.348 . S
C29 C27 1.356 . S
H30 C24 0.930 . S
H31 C28 0.930 . S
C32 C34 1.348 1_455 S
C32 C35 1.356 . S
C32 O62 1.325 . S
N33 C36 1.317 . S
N33 C37 1.289 . S
C34 C32 1.348 1_655 S
C34 C36 1.353 1_655 S
C34 H76 0.929 . S
C35 C32 1.356 . S
C35 C37 1.358 . S
C35 H77 0.930 . S
C36 N33 1.317 . S
C36 C34 1.353 1_455 S
C36 H78 0.930 1_454 S
C37 N33 1.289 . S
C37 C35 1.358 . S
C37 H79 0.930 . S
C38 C39 1.348 . S
C38 C40 1.356 . S
C38 O63 1.325 . S
C39 C38 1.348 . S
C39 C41 1.353 . S
C39 H80 0.929 . S
C40 C38 1.356 . S
C40 C42 1.358 . S
C40 H81 0.930 . S
C41 C39 1.353 . S
C41 N43 1.314 . S
C41 H82 0.930 . S
C42 C40 1.358 . S
C42 N43 1.279 . S
C42 H83 0.930 . S
N43 C41 1.314 . S
N43 C42 1.279 . S
C44 C46 1.353 . S
C44 N47 1.314 . S
C44 H50 0.930 . S
C45 N47 1.279 . S
C45 C48 1.358 . S
C45 H51 0.930 . S
C46 C44 1.353 . S
C46 C49 1.348 . S
C46 H84 0.929 . S
N47 Li2 1.990 . S
N47 C44 1.314 . S
N47 C45 1.279 . S
C48 C45 1.358 . S
C48 C49 1.356 . S
C48 H85 0.930 . S
C49 C46 1.348 . S
C49 C48 1.356 . S
H50 C44 0.930 . S
H51 C45 0.930 . S
C52 N53 1.347 . S
C52 C54 1.332 1_554 S
C52 H58 0.917 1_554 S
N53 Li3 1.990 . S
N53 C52 1.347 . S
N53 C56 1.279 . S
C54 C52 1.332 1_556 S
C54 C57 1.348 . S
C54 H86 0.929 . S
C55 C56 1.358 . S
C55 C57 1.356 1_554 S
C55 H87 0.930 . S
C56 N53 1.279 . S
C56 C55 1.358 . S
C56 H59 0.930 . S
C57 C54 1.348 . S
C57 C55 1.356 1_556 S
H58 C52 0.917 1_556 S
H59 C56 0.930 . S
O60 Li0 1.956 . S
O60 Li1 1.970 1_455 S
O60 Li2 1.961 1_545 S
O60 C4 1.325 . S
O61 Li0 1.970 1_655 S
O61 Li1 1.956 . S
O61 Li3 1.961 1_545 S
O61 C10 1.325 . S
O62 Li0 1.961 1_565 S
O62 Li2 1.956 . S
O62 Li3 1.970 1_455 S
O62 C32 1.325 . S
O63 Li1 1.961 1_565 S
O63 Li2 1.970 1_655 S
O63 Li3 1.956 . S
O63 C38 1.325 . S
H64 C6 0.929 . S
H65 C7 0.930 . S
H66 C8 0.930 . S
H67 C9 0.930 . S
H68 C11 0.930 . S
H69 C13 0.929 . S
H70 C14 0.930 . S
H71 C15 0.930 1_456 S
H72 C18 0.930 . S
H73 C21 0.929 . S
H74 C26 0.929 . S
H75 C27 0.930 . S
H76 C34 0.929 . S
H77 C35 0.930 . S
H78 C36 0.930 1_656 S
H79 C37 0.930 . S
H80 C39 0.929 . S
H81 C40 0.930 . S
H82 C41 0.930 . S
H83 C42 0.930 . S
H84 C46 0.929 . S
H85 C48 0.930 . S
H86 C54 0.929 . S
H87 C55 0.930 . S
Li88 N105 1.990 . S
Li88 O148 1.956 . S
Li88 O149 1.970 1_665 S
Li88 O150 1.961 . S
Li89 N113 1.990 . S
Li89 O148 1.970 1_445 S
Li89 O149 1.956 . S
Li89 O151 1.961 . S
Li90 N135 1.990 . S
Li90 O148 1.961 . S
Li90 O150 1.956 . S
Li90 O151 1.970 1_665 S
Li91 N141 1.990 . S
Li91 O149 1.961 . S
Li91 O150 1.970 1_445 S
Li91 O151 1.956 . S
C92 C94 1.348 1_655 S
C92 C95 1.356 . S
C92 O148 1.325 . S
N93 C96 1.314 . S
N93 C97 1.279 . S
C94 C92 1.348 1_455 S
C94 C96 1.353 1_455 S
C94 H152 0.929 . S
C95 C92 1.356 . S
C95 C97 1.358 . S
C95 H153 0.930 . S
C96 N93 1.314 . S
C96 C94 1.353 1_655 S
C96 H154 0.930 1_655 S
C97 N93 1.279 . S
C97 C95 1.358 . S
C97 H155 0.930 . S
C98 C101 1.348 1_545 S
C98 C102 1.356 . S
C98 O149 1.325 . S
C99 N100 1.279 . S
C99 C102 1.358 . S
C99 H156 0.930 . S
N100 C99 1.279 . S
N100 C103 1.314 . S
C101 C98 1.348 1_565 S
C101 C103 1.353 1_565 S
C101 H157 0.929 . S
C102 C98 1.356 . S
C102 C99 1.358 . S
C102 H158 0.930 . S
C103 N100 1.314 . S
C103 C101 1.353 1_545 S
C103 H159 0.930 1_545 S
C104 N105 1.314 . S
C104 C109 1.353 . S
C104 H110 0.930 . S
N105 Li88 1.990 . S
N105 C104 1.314 . S
N105 C107 1.279 . S
C106 C107 1.358 . S
C106 C108 1.356 . S
C106 H160 0.930 . S
C107 N105 1.279 . S
C107 C106 1.358 . S
C107 H111 0.930 . S
C108 C106 1.356 . S
C108 C109 1.348 . S
C109 C104 1.353 . S
C109 C108 1.348 . S
C109 H161 0.929 . S
H110 C104 0.930 . S
H111 C107 0.930 . S
C112 N113 1.314 . S
C112 C114 1.353 . S
C112 H118 0.930 . S
N113 Li89 1.990 . S
N113 C112 1.314 . S
N113 C116 1.279 . S
C114 C112 1.353 . S
C114 C117 1.348 . S
C114 H162 0.929 . S
C115 C116 1.358 . S
C115 C117 1.356 . S
C115 H163 0.930 . S
C116 N113 1.279 . S
C116 C115 1.358 . S
C116 H119 0.930 . S
C117 C114 1.348 . S
C117 C115 1.356 . S
H118 C112 0.930 . S
H119 C116 0.930 . S
C120 C122 1.348 1_565 S
C120 C123 1.356 . S
C120 O150 1.325 . S
N121 C124 1.314 . S
N121 C125 1.279 . S
C122 C120 1.348 1_545 S
C122 C124 1.353 1_545 S
C122 H164 0.929 . S
C123 C120 1.356 . S
C123 C125 1.358 . S
C123 H165 0.930 . S
C124 N121 1.314 . S
C124 C122 1.353 1_565 S
C124 H166 0.930 1_565 S
C125 N121 1.279 . S
C125 C123 1.358 . S
C125 H167 0.930 . S
C126 C127 1.348 1_455 S
C126 C128 1.356 . S
C126 O151 1.325 . S
C127 C126 1.348 1_655 S
C127 C129 1.353 1_655 S
C127 H168 0.929 . S
C128 C126 1.356 . S
C128 C130 1.358 . S
C128 H169 0.930 . S
C129 C127 1.353 1_455 S
C129 N131 1.314 . S
C129 H170 0.930 1_455 S
C130 C128 1.358 . S
C130 N131 1.279 . S
C130 H171 0.930 . S
N131 C129 1.314 . S
N131 C130 1.279 . S
C132 C134 1.353 . S
C132 N135 1.314 . S
C132 H138 0.930 . S
C133 N135 1.279 . S
C133 C136 1.358 . S
C133 H139 0.930 . S
C134 C132 1.353 . S
C134 C137 1.348 . S
C134 H172 0.929 . S
N135 Li90 1.990 . S
N135 C132 1.314 . S
N135 C133 1.279 . S
C136 C133 1.358 . S
C136 C137 1.356 . S
C136 H173 0.930 . S
C137 C134 1.348 . S
C137 C136 1.356 . S
H138 C132 0.930 . S
H139 C133 0.930 . S
C140 N141 1.314 . S
C140 C142 1.353 . S
C140 H146 0.930 . S
N141 Li91 1.990 . S
N141 C140 1.314 . S
N141 C144 1.279 . S
C142 C140 1.353 . S
C142 C145 1.348 . S
C142 H174 0.929 . S
C143 C144 1.358 . S
C143 C145 1.356 . S
C143 H175 0.930 . S
C144 N141 1.279 . S
C144 C143 1.358 . S
C144 H147 0.930 . S
C145 C142 1.348 . S
C145 C143 1.356 . S
H146 C140 0.930 . S
H147 C144 0.930 . S
O148 Li88 1.956 . S
O148 Li89 1.970 1_665 S
O148 Li90 1.961 . S
O148 C92 1.325 . S
O149 Li88 1.970 1_445 S
O149 Li89 1.956 . S
O149 Li91 1.961 . S
O149 C98 1.325 . S
O150 Li88 1.961 . S
O150 Li90 1.956 . S
O150 Li91 1.970 1_665 S
O150 C120 1.325 . S
O151 Li89 1.961 . S
O151 Li90 1.970 1_445 S
O151 Li91 1.956 . S
O151 C126 1.325 . S
H152 C94 0.929 . S
H153 C95 0.930 . S
H154 C96 0.930 1_455 S
H155 C97 0.930 . S
H156 C99 0.930 . S
H157 C101 0.929 . S
H158 C102 0.930 . S
H159 C103 0.930 1_565 S
H160 C106 0.930 . S
H161 C109 0.929 . S
H162 C114 0.929 . S
H163 C115 0.930 . S
H164 C122 0.929 . S
H165 C123 0.930 . S
H166 C124 0.930 1_545 S
H167 C125 0.930 . S
H168 C127 0.929 . S
H169 C128 0.930 . S
H170 C129 0.930 1_655 S
H171 C130 0.930 . S
H172 C134 0.929 . S
H173 C136 0.930 . S
H174 C142 0.929 . S
H175 C143 0.930 . S
Li176 N193 1.990 . S
Li176 O236 1.956 . S
Li176 O237 1.970 1_565 S
Li176 O238 1.961 1_455 S
Li177 N201 1.990 . S
Li177 O236 1.970 1_545 S
Li177 O237 1.956 . S
Li177 O239 1.961 1_455 S
Li178 N223 1.990 . S
Li178 O236 1.961 1_655 S
Li178 O238 1.956 . S
Li178 O239 1.970 1_565 S
Li179 N229 1.990 . S
Li179 O237 1.961 1_655 S
Li179 O238 1.970 1_545 S
Li179 O239 1.956 . S
C180 C182 1.348 1_565 S
C180 C183 1.356 . S
C180 O236 1.325 . S
N181 C184 1.314 . S
N181 C185 1.279 . S
C182 C180 1.348 1_545 S
C182 C184 1.353 1_545 S
C182 H240 0.929 . S
C183 C180 1.356 . S
C183 C185 1.358 . S
C183 H241 0.930 . S
C184 N181 1.314 . S
C184 C182 1.353 1_565 S
C184 H242 0.930 1_565 S
C185 N181 1.279 . S
C185 C183 1.358 . S
C185 H243 0.930 . S
C186 C189 1.348 . S
C186 C190 1.356 . S
C186 O237 1.325 . S
C187 N188 1.279 . S
C187 C190 1.358 . S
C187 H244 0.930 . S
N188 C187 1.279 . S
N188 C191 1.314 . S
C189 C186 1.348 . S
C189 C191 1.353 . S
C189 H245 0.929 . S
C190 C186 1.356 . S
C190 C187 1.358 . S
C190 H246 0.930 . S
C191 N188 1.314 . S
C191 C189 1.353 . S
C191 H247 0.930 . S
C192 N193 1.314 . S
C192 C197 1.353 . S
C192 H198 0.930 . S
N193 Li176 1.990 . S
N193 C192 1.314 . S
N193 C195 1.279 . S
C194 C195 1.358 . S
C194 C196 1.356 . S
C194 H248 0.930 . S
C195 N193 1.279 . S
C195 C194 1.358 . S
C195 H199 0.930 . S
C196 C194 1.356 . S
C196 C197 1.348 . S
C197 C192 1.353 . S
C197 C196 1.348 . S
C197 H249 0.929 . S
H198 C192 0.930 . S
H199 C195 0.930 . S
C200 N201 1.314 . S
C200 C202 1.353 . S
C200 H206 0.930 . S
N201 Li177 1.990 . S
N201 C200 1.314 . S
N201 C204 1.279 . S
C202 C200 1.353 . S
C202 C205 1.348 . S
C202 H250 0.929 . S
C203 C204 1.358 . S
C203 C205 1.356 . S
C203 H251 0.930 . S
C204 N201 1.279 . S
C204 C203 1.358 . S
C204 H207 0.930 . S
C205 C202 1.348 . S
C205 C203 1.356 . S
H206 C200 0.930 . S
H207 C204 0.930 . S
C208 C210 1.348 . S
C208 C211 1.356 . S
C208 O238 1.325 . S
N209 C212 1.314 . S
N209 C213 1.279 . S
C210 C208 1.348 . S
C210 C212 1.353 . S
C210 H252 0.929 . S
C211 C208 1.356 . S
C211 C213 1.358 . S
C211 H253 0.930 . S
C212 N209 1.314 . S
C212 C210 1.353 . S
C212 H254 0.930 . S
C213 N209 1.279 . S
C213 C211 1.358 . S
C213 H255 0.930 . S
C214 C215 1.348 1_545 S
C214 C216 1.356 . S
C214 O239 1.325 . S
C215 C214 1.348 1_565 S
C215 C217 1.353 1_565 S
C215 H256 0.929 . S
C216 C214 1.356 . S
C216 C218 1.358 . S
C216 H257 0.930 . S
C217 C215 1.353 1_545 S
C217 N219 1.314 . S
C217 H258 0.930 1_545 S
C218 C216 1.358 . S
C218 N219 1.279 . S
C218 H259 0.930 . S
N219 C217 1.314 . S
N219 C218 1.279 . S
C220 C222 1.353 . S
C220 N223 1.314 . S
C220 H226 0.930 . S
C221 N223 1.279 . S
C221 C224 1.358 . S
C221 H227 0.930 . S
C222 C220 1.353 . S
C222 C225 1.348 . S
C222 H260 0.929 . S
N223 Li178 1.990 . S
N223 C220 1.314 . S
N223 C221 1.279 . S
C224 C221 1.358 . S
C224 C225 1.356 . S
C224 H261 0.930 . S
C225 C222 1.348 . S
C225 C224 1.356 . S
H226 C220 0.930 . S
H227 C221 0.930 . S
C228 N229 1.314 . S
C228 C230 1.353 . S
C228 H234 0.930 . S
N229 Li179 1.990 . S
N229 C228 1.314 . S
N229 C232 1.279 . S
C230 C228 1.353 . S
C230 C233 1.348 . S
C230 H262 0.929 . S
C231 C232 1.358 . S
C231 C233 1.356 . S
C231 H263 0.930 . S
C232 N229 1.279 . S
C232 C231 1.358 . S
C232 H235 0.930 . S
C233 C230 1.348 . S
C233 C231 1.356 . S
H234 C228 0.930 . S
H235 C232 0.930 . S
O236 Li176 1.956 . S
O236 Li177 1.970 1_565 S
O236 Li178 1.961 1_455 S
O236 C180 1.325 . S
O237 Li176 1.970 1_545 S
O237 Li177 1.956 . S
O237 Li179 1.961 1_455 S
O237 C186 1.325 . S
O238 Li176 1.961 1_655 S
O238 Li178 1.956 . S
O238 Li179 1.970 1_565 S
O238 C208 1.325 . S
O239 Li177 1.961 1_655 S
O239 Li178 1.970 1_545 S
O239 Li179 1.956 . S
O239 C214 1.325 . S
H240 C182 0.929 . S
H241 C183 0.930 . S
H242 C184 0.930 1_545 S
H243 C185 0.930 . S
H244 C187 0.930 . S
H245 C189 0.929 . S
H246 C190 0.930 . S
H247 C191 0.930 . S
H248 C194 0.930 . S
H249 C197 0.929 . S
H250 C202 0.929 . S
H251 C203 0.930 . S
H252 C210 0.929 . S
H253 C211 0.930 . S
H254 C212 0.930 . S
H255 C213 0.930 . S
H256 C215 0.929 . S
H257 C216 0.930 . S
H258 C217 0.930 1_565 S
H259 C218 0.930 . S
H260 C222 0.929 . S
H261 C224 0.930 . S
H262 C230 0.929 . S
H263 C231 0.930 . S
H264 C283 0.949 . S
H265 C284 0.950 . S
H266 C286 0.950 . S
H267 C287 0.950 . S
H268 C289 0.950 . S
H269 C292 0.950 . S
H270 C293 0.950 . S
H271 C295 0.951 . S
H272 C296 0.949 . S
H273 C298 0.949 . S
H274 C299 0.950 . S
H275 C301 0.950 . S
H276 C302 0.950 . S
H277 C304 0.950 . S
H278 C307 0.950 . S
H279 C308 0.950 . S
H280 C310 0.951 . S
H281 C311 0.949 . S
C282 C283 1.376 . S
C282 C287 1.386 1_455 S
C282 C288 1.483 . S
C283 H264 0.949 . S
C283 C282 1.376 . S
C283 C284 1.397 . S
C284 H265 0.950 . S
C284 C283 1.397 . S
C284 C285 1.391 . S
C285 C284 1.391 . S
C285 C286 1.405 1_455 S
C286 H266 0.950 . S
C286 C285 1.405 1_655 S
C286 C287 1.367 . S
C287 H267 0.950 . S
C287 C282 1.386 1_655 S
C287 C286 1.367 . S
C288 C282 1.483 . S
C288 C289 1.382 . S
C288 C290 1.403 1_455 S
C289 H268 0.950 . S
C289 C288 1.382 . S
C289 C305 1.411 . S
C290 C288 1.403 1_655 S
C290 C291 1.489 . S
C290 C304 1.411 . S
C291 C290 1.489 . S
C291 C292 1.383 1_655 S
C291 C296 1.382 . S
C292 H269 0.950 . S
C292 C291 1.383 1_455 S
C292 C293 1.395 . S
C293 H270 0.950 . S
C293 C292 1.395 . S
C293 C294 1.288 1_455 S
C294 C293 1.288 1_655 S
C294 C295 1.392 . S
C295 H271 0.951 . S
C295 C294 1.392 . S
C295 C296 1.392 . S
C296 H272 0.949 . S
C296 C291 1.382 . S
C296 C295 1.392 . S
C297 C298 1.376 . S
C297 C302 1.386 1_655 S
C297 C303 1.483 . S
C298 H273 0.949 . S
C298 C297 1.376 . S
C298 C299 1.397 . S
C299 H274 0.950 . S
C299 C298 1.397 . S
C299 C300 1.399 . S
C300 C299 1.399 . S
C300 C301 1.390 1_655 S
C301 H275 0.950 . S
C301 C300 1.390 1_455 S
C301 C302 1.367 . S
C302 H276 0.950 . S
C302 C297 1.386 1_455 S
C302 C301 1.367 . S
C303 C297 1.483 . S
C303 C304 1.382 . S
C303 C305 1.403 1_655 S
C304 H277 0.950 . S
C304 C290 1.411 . S
C304 C303 1.382 . S
C305 C289 1.411 . S
C305 C303 1.403 1_455 S
C305 C306 1.489 . S
C306 C305 1.489 . S
C306 C307 1.383 1_455 S
C306 C311 1.382 . S
C307 H278 0.950 . S
C307 C306 1.383 1_655 S
C307 C308 1.395 . S
C308 H279 0.950 . S
C308 C307 1.395 . S
C308 C309 1.288 1_655 S
C309 C308 1.288 1_455 S
C309 C310 1.392 . S
C310 H280 0.951 . S
C310 C309 1.392 . S
C310 C311 1.392 . S
C311 H281 0.949 . S
C311 C306 1.382 . S
C311 C310 1.392 . S
H312 C331 0.949 . S
H313 C332 0.950 . S
H314 C334 0.950 . S
H315 C335 0.950 . S
H316 C337 0.950 . S
H317 C340 0.950 . S
H318 C341 0.950 . S
H319 C343 0.951 . S
H320 C344 0.949 . S
H321 C346 0.949 . S
H322 C347 0.950 . S
H323 C349 0.950 . S
H324 C350 0.950 . S
H325 C352 0.950 . S
H326 C355 0.950 . S
H327 C356 0.950 . S
H328 C358 0.951 . S
H329 C359 0.949 . S
C330 C331 1.376 . S
C330 C335 1.386 1_545 S
C330 C336 1.483 . S
C331 H312 0.949 . S
C331 C330 1.376 . S
C331 C332 1.397 . S
C332 H313 0.950 . S
C332 C331 1.397 . S
C332 C333 1.391 . S
C333 C332 1.391 . S
C333 C334 1.405 1_545 S
C334 H314 0.950 . S
C334 C333 1.405 1_565 S
C334 C335 1.367 . S
C335 H315 0.950 . S
C335 C330 1.386 1_565 S
C335 C334 1.367 . S
C336 C330 1.483 . S
C336 C337 1.382 . S
C336 C338 1.403 1_545 S
C337 H316 0.950 . S
C337 C336 1.382 . S
C337 C353 1.411 . S
C338 C336 1.403 1_565 S
C338 C339 1.489 . S
C338 C352 1.411 . S
C339 C338 1.489 . S
C339 C340 1.383 1_565 S
C339 C344 1.382 . S
C340 H317 0.950 . S
C340 C339 1.383 1_545 S
C340 C341 1.395 . S
C341 H318 0.950 . S
C341 C340 1.395 . S
C341 C342 1.288 1_545 S
C342 C341 1.288 1_565 S
C342 C343 1.392 . S
C343 H319 0.951 . S
C343 C342 1.392 . S
C343 C344 1.392 . S
C344 H320 0.949 . S
C344 C339 1.382 . S
C344 C343 1.392 . S
C345 C346 1.376 . S
C345 C350 1.386 1_565 S
C345 C351 1.483 . S
C346 H321 0.949 . S
C346 C345 1.376 . S
C346 C347 1.397 . S
C347 H322 0.950 . S
C347 C346 1.397 . S
C347 C348 1.412 . S
C348 C347 1.412 . S
C348 C349 1.394 1_565 S
C349 H323 0.950 . S
C349 C348 1.394 1_545 S
C349 C350 1.367 . S
C350 H324 0.950 . S
C350 C345 1.386 1_545 S
C350 C349 1.367 . S
C351 C345 1.483 . S
C351 C352 1.382 . S
C351 C353 1.403 1_565 S
C352 H325 0.950 . S
C352 C338 1.411 . S
C352 C351 1.382 . S
C353 C337 1.411 . S
C353 C351 1.403 1_545 S
C353 C354 1.489 . S
C354 C353 1.489 . S
C354 C355 1.383 1_545 S
C354 C359 1.382 . S
C355 H326 0.950 . S
C355 C354 1.383 1_565 S
C355 C356 1.395 . S
C356 H327 0.950 . S
C356 C355 1.395 . S
C356 C357 1.288 1_565 S
C357 C356 1.288 1_545 S
C357 C358 1.392 . S
C358 H328 0.951 . S
C358 C357 1.392 . S
C358 C359 1.392 . S
C359 H329 0.949 . S
C359 C354 1.382 . S
C359 C358 1.392 . S
H360 C379 0.949 . S
H361 C380 0.950 . S
H362 C382 0.950 . S
H363 C383 0.950 . S
H364 C385 0.950 . S
H365 C388 0.950 . S
H366 C389 0.950 . S
H367 C391 0.951 . S
H368 C392 0.949 . S
H369 C394 0.949 . S
H370 C395 0.950 . S
H371 C397 0.950 . S
H372 C398 0.950 . S
H373 C400 0.950 . S
H374 C403 0.950 . S
H375 C404 0.950 . S
H376 C406 0.951 . S
H377 C407 0.949 . S
C378 C379 1.376 . S
C378 C383 1.386 . S
C378 C384 1.483 . S
C379 H360 0.949 . S
C379 C378 1.376 . S
C379 C380 1.397 . S
C380 H361 0.950 . S
C380 C379 1.397 . S
C380 C381 1.391 . S
C381 C380 1.391 . S
C381 C382 1.405 . S
C382 H362 0.950 . S
C382 C381 1.405 . S
C382 C383 1.367 . S
C383 H363 0.950 . S
C383 C378 1.386 . S
C383 C382 1.367 . S
C384 C378 1.483 . S
C384 C385 1.382 . S
C384 C386 1.403 . S
C385 H364 0.950 . S
C385 C384 1.382 . S
C385 C401 1.411 . S
C386 C384 1.403 . S
C386 C387 1.489 . S
C386 C400 1.411 . S
C387 C386 1.489 . S
C387 C388 1.383 . S
C387 C392 1.382 . S
C388 H365 0.950 . S
C388 C387 1.383 . S
C388 C389 1.395 . S
C389 H366 0.950 . S
C389 C388 1.395 . S
C389 C390 1.288 . S
C390 C389 1.288 . S
C390 C391 1.392 . S
C391 H367 0.951 . S
C391 C390 1.392 . S
C391 C392 1.392 . S
C392 H368 0.949 . S
C392 C387 1.382 . S
C392 C391 1.392 . S
C393 C394 1.376 . S
C393 C398 1.386 . S
C393 C399 1.483 . S
C394 H369 0.949 . S
C394 C393 1.376 . S
C394 C395 1.397 . S
C395 H370 0.950 . S
C395 C394 1.397 . S
C395 C396 1.391 . S
C396 C395 1.391 . S
C396 C397 1.405 . S
C397 H371 0.950 . S
C397 C396 1.405 . S
C397 C398 1.367 . S
C398 H372 0.950 . S
C398 C393 1.386 . S
C398 C397 1.367 . S
C399 C393 1.483 . S
C399 C400 1.382 . S
C399 C401 1.403 . S
C400 H373 0.950 . S
C400 C386 1.411 . S
C400 C399 1.382 . S
C401 C385 1.411 . S
C401 C399 1.403 . S
C401 C402 1.489 . S
C402 C401 1.489 . S
C402 C403 1.383 . S
C402 C407 1.382 . S
C403 H374 0.950 . S
C403 C402 1.383 . S
C403 C404 1.395 . S
C404 H375 0.950 . S
C404 C403 1.395 . S
C404 C405 1.288 . S
C405 C404 1.288 . S
C405 C406 1.392 . S
C406 H376 0.951 . S
C406 C405 1.392 . S
C406 C407 1.392 . S
C407 H377 0.949 . S
C407 C402 1.382 . S
C407 C406 1.392 . S
H408 C420 0.930 . S
H409 C422 0.930 . S
H410 C423 0.930 . S
H411 C427 0.959 . S
H412 C427 0.959 . S
H413 C427 0.961 . S
H414 C428 0.960 . S
H415 C428 0.961 . S
H416 C428 0.959 . S
H417 C431 0.929 . S
H418 C432 0.931 . S
H419 C434 0.930 . S
C420 H408 0.930 . S
C420 C421 1.399 . S
C420 C425 1.399 . S
C421 C420 1.399 . S
C421 C422 1.376 . S
C422 H409 0.930 . S
C422 C421 1.376 . S
C422 C423 1.388 . S
C423 H410 0.930 . S
C423 C422 1.388 . S
C423 C424 1.390 . S
C424 C423 1.390 . S
C424 C425 1.394 . S
C424 C430 1.465 . S
C425 C420 1.399 . S
C425 C424 1.394 . S
C425 C426 1.516 . S
C426 C425 1.516 . S
C426 C427 1.502 1_655 S
C426 C428 1.561 . S
C426 C429 1.526 . S
C427 H411 0.959 . S
C427 H412 0.959 . S
C427 H413 0.961 . S
C427 C426 1.502 1_455 S
C428 H414 0.960 . S
C428 H415 0.961 . S
C428 H416 0.959 . S
C428 C426 1.561 . S
C429 C426 1.526 . S
C429 C430 1.396 . S
C429 C434 1.390 1_655 S
C430 C424 1.465 . S
C430 C429 1.396 . S
C430 C431 1.399 . S
C431 H417 0.929 . S
C431 C430 1.399 . S
C431 C432 1.385 . S
C432 H418 0.931 . S
C432 C431 1.385 . S
C432 C433 1.389 . S
C433 C432 1.389 . S
C433 C434 1.387 1_655 S
C434 H419 0.930 . S
C434 C429 1.390 1_455 S
C434 C433 1.387 1_455 S
H435 C447 0.930 1_545 S
H436 C449 0.930 . S
H437 C450 0.930 . S
H438 C454 0.959 . S
H439 C454 0.959 . S
H440 C454 0.961 . S
H441 C455 0.960 . S
H442 C455 0.961 . S
H443 C455 0.959 . S
H444 C458 0.929 . S
H445 C459 0.931 . S
H446 C461 0.930 . S
C447 H435 0.930 1_565 S
C447 C448 1.399 . S
C447 C452 1.399 . S
C448 C447 1.399 . S
C448 C449 1.376 . S
C449 H436 0.930 . S
C449 C448 1.376 . S
C449 C450 1.388 . S
C450 H437 0.930 . S
C450 C449 1.388 . S
C450 C451 1.390 . S
C451 C450 1.390 . S
C451 C452 1.394 . S
C451 C457 1.465 . S
C452 C447 1.399 . S
C452 C451 1.394 . S
C452 C453 1.516 1_565 S
C453 C452 1.516 1_545 S
C453 C454 1.502 . S
C453 C455 1.561 . S
C453 C456 1.526 . S
C454 H438 0.959 . S
C454 H439 0.959 . S
C454 H440 0.961 . S
C454 C453 1.502 . S
C455 H441 0.960 . S
C455 H442 0.961 . S
C455 H443 0.959 . S
C455 C453 1.561 . S
C456 C453 1.526 . S
C456 C457 1.396 1_545 S
C456 C461 1.390 . S
C457 C451 1.465 . S
C457 C456 1.396 1_565 S
C457 C458 1.399 . S
C458 H444 0.929 . S
C458 C457 1.399 . S
C458 C459 1.385 . S
C459 H445 0.931 . S
C459 C458 1.385 . S
C459 C460 1.389 . S
C460 C459 1.389 . S
C460 C461 1.387 1_565 S
C461 H446 0.930 . S
C461 C456 1.390 . S
C461 C460 1.387 1_545 S
H462 C474 0.930 . S
H463 C476 0.930 . S
H464 C477 0.930 . S
H465 C481 0.959 . S
H466 C481 0.959 . S
H467 C481 0.961 . S
H468 C482 0.960 . S
H469 C482 0.961 . S
H470 C482 0.959 . S
H471 C485 0.929 . S
H472 C486 0.931 . S
H473 C488 0.930 . S
C474 H462 0.930 . S
C474 C475 1.399 . S
C474 C479 1.399 . S
C475 C474 1.399 . S
C475 C476 1.376 . S
C476 H463 0.930 . S
C476 C475 1.376 . S
C476 C477 1.388 . S
C477 H464 0.930 . S
C477 C476 1.388 . S
C477 C478 1.390 . S
C478 C477 1.390 . S
C478 C479 1.394 . S
C478 C484 1.465 . S
C479 C474 1.399 . S
C479 C478 1.394 . S
C479 C480 1.516 . S
C480 C479 1.516 . S
C480 C481 1.502 . S
C480 C482 1.561 . S
C480 C483 1.526 . S
C481 H465 0.959 . S
C481 H466 0.959 . S
C481 H467 0.961 . S
C481 C480 1.502 . S
C482 H468 0.960 . S
C482 H469 0.961 . S
C482 H470 0.959 . S
C482 C480 1.561 . S
C483 C480 1.526 . S
C483 C484 1.396 . S
C483 C488 1.390 . S
C484 C478 1.465 . S
C484 C483 1.396 . S
C484 C485 1.399 . S
C485 H471 0.929 . S
C485 C484 1.399 . S
C485 C486 1.385 . S
C486 H472 0.931 . S
C486 C485 1.385 . S
C486 C487 1.389 . S
C487 C486 1.389 . S
C487 C488 1.387 . S
C488 H473 0.930 . S
C488 C483 1.390 . S
C488 C487 1.387 . S
H489 C501 0.930 . S
H490 C503 0.930 . S
H491 C504 0.930 . S
H492 C508 0.959 . S
H493 C508 0.959 . S
H494 C508 0.961 . S
H495 C509 0.960 . S
H496 C509 0.961 . S
H497 C509 0.959 . S
H498 C512 0.929 . S
H499 C513 0.931 . S
H500 C515 0.930 1_655 S
C501 H489 0.930 . S
C501 C502 1.399 . S
C501 C506 1.399 . S
C502 C501 1.399 . S
C502 C503 1.376 . S
C503 H490 0.930 . S
C503 C502 1.376 . S
C503 C504 1.388 . S
C504 H491 0.930 . S
C504 C503 1.388 . S
C504 C505 1.390 . S
C505 C504 1.390 . S
C505 C506 1.394 . S
C505 C511 1.465 . S
C506 C501 1.399 . S
C506 C505 1.394 . S
C506 C507 1.516 . S
C507 C506 1.516 . S
C507 C508 1.502 1_455 S
C507 C509 1.561 . S
C507 C510 1.526 . S
C508 H492 0.959 . S
C508 H493 0.959 . S
C508 H494 0.961 . S
C508 C507 1.502 1_655 S
C509 H495 0.960 . S
C509 H496 0.961 . S
C509 H497 0.959 . S
C509 C507 1.561 . S
C510 C507 1.526 . S
C510 C511 1.396 . S
C510 C515 1.390 . S
C511 C505 1.465 . S
C511 C510 1.396 . S
C511 C512 1.399 . S
C512 H498 0.929 . S
C512 C511 1.399 . S
C512 C513 1.385 . S
C513 H499 0.931 . S
C513 C512 1.385 . S
C513 C514 1.389 . S
C514 C513 1.389 . S
C514 C515 1.387 . S
C515 H500 0.930 1_455 S
C515 C510 1.390 . S
C515 C514 1.387 . S
H516 C528 0.930 1_565 S
H517 C530 0.930 . S
H518 C531 0.930 . S
H519 C535 0.959 . S
H520 C535 0.959 . S
H521 C535 0.961 . S
H522 C536 0.960 . S
H523 C536 0.961 . S
H524 C536 0.959 . S
H525 C539 0.929 . S
H526 C540 0.931 . S
H527 C542 0.930 . S
C528 H516 0.930 1_545 S
C528 C529 1.399 . S
C528 C533 1.399 . S
C529 C528 1.399 . S
C529 C530 1.376 . S
C530 H517 0.930 . S
C530 C529 1.376 . S
C530 C531 1.388 . S
C531 H518 0.930 . S
C531 C530 1.388 . S
C531 C532 1.390 . S
C532 C531 1.390 . S
C532 C533 1.394 . S
C532 C538 1.465 . S
C533 C528 1.399 . S
C533 C532 1.394 . S
C533 C534 1.516 1_545 S
C534 C533 1.516 1_565 S
C534 C535 1.502 . S
C534 C536 1.561 . S
C534 C537 1.526 . S
C535 H519 0.959 . S
C535 H520 0.959 . S
C535 H521 0.961 . S
C535 C534 1.502 . S
C536 H522 0.960 . S
C536 H523 0.961 . S
C536 H524 0.959 . S
C536 C534 1.561 . S
C537 C534 1.526 . S
C537 C538 1.396 1_565 S
C537 C542 1.390 . S
C538 C532 1.465 . S
C538 C537 1.396 1_545 S
C538 C539 1.399 . S
C539 H525 0.929 . S
C539 C538 1.399 . S
C539 C540 1.385 . S
C540 H526 0.931 . S
C540 C539 1.385 . S
C540 C541 1.389 . S
C541 C540 1.389 . S
C541 C542 1.387 1_545 S
C542 H527 0.930 . S
C542 C537 1.390 . S
C542 C541 1.387 1_565 S
H543 C555 0.930 . S
H544 C557 0.930 . S
H545 C558 0.930 . S
H546 C562 0.959 . S
H547 C562 0.959 . S
H548 C562 0.961 . S
H549 C563 0.960 . S
H550 C563 0.961 . S
H551 C563 0.959 . S
H552 C566 0.929 . S
H553 C567 0.931 . S
H554 C569 0.930 . S
C555 H543 0.930 . S
C555 C556 1.399 . S
C555 C560 1.399 . S
C556 C555 1.399 . S
C556 C557 1.376 . S
C557 H544 0.930 . S
C557 C556 1.376 . S
C557 C558 1.388 . S
C558 H545 0.930 . S
C558 C557 1.388 . S
C558 C559 1.390 . S
C559 C558 1.390 . S
C559 C560 1.394 . S
C559 C565 1.465 . S
C560 C555 1.399 . S
C560 C559 1.394 . S
C560 C561 1.516 . S
C561 C560 1.516 . S
C561 C562 1.502 . S
C561 C563 1.561 . S
C561 C564 1.526 . S
C562 H546 0.959 . S
C562 H547 0.959 . S
C562 H548 0.961 . S
C562 C561 1.502 . S
C563 H549 0.960 . S
C563 H550 0.961 . S
C563 H551 0.959 . S
C563 C561 1.561 . S
C564 C561 1.526 . S
C564 C565 1.396 . S
C564 C569 1.390 . S
C565 C559 1.465 . S
C565 C564 1.396 . S
C565 C566 1.399 . S
C566 H552 0.929 . S
C566 C565 1.399 . S
C566 C567 1.385 . S
C567 H553 0.931 . S
C567 C566 1.385 . S
C567 C568 1.389 . S
C568 C567 1.389 . S
C568 C569 1.387 . S
C569 H554 0.930 . S
C569 C564 1.390 . S
C569 C568 1.387 . S
H570 C582 0.930 1_565 S
H571 C584 0.930 . S
H572 C585 0.930 . S
H573 C589 0.959 . S
H574 C589 0.959 . S
H575 C589 0.961 . S
H576 C590 0.960 . S
H577 C590 0.961 . S
H578 C590 0.959 . S
H579 C593 0.929 . S
H580 C594 0.931 . S
H581 C596 0.930 . S
C582 H570 0.930 1_545 S
C582 C583 1.399 . S
C582 C587 1.399 . S
C583 C582 1.399 . S
C583 C584 1.376 . S
C584 H571 0.930 . S
C584 C583 1.376 . S
C584 C585 1.388 . S
C585 H572 0.930 . S
C585 C584 1.388 . S
C585 C586 1.390 . S
C586 C585 1.390 . S
C586 C587 1.394 . S
C586 C592 1.465 . S
C587 C582 1.399 . S
C587 C586 1.394 . S
C587 C588 1.516 1_545 S
C588 C587 1.516 1_565 S
C588 C589 1.502 . S
C588 C590 1.561 . S
C588 C591 1.526 . S
C589 H573 0.959 . S
C589 H574 0.959 . S
C589 H575 0.961 . S
C589 C588 1.502 . S
C590 H576 0.960 . S
C590 H577 0.961 . S
C590 H578 0.959 . S
C590 C588 1.561 . S
C591 C588 1.526 . S
C591 C592 1.396 1_565 S
C591 C596 1.390 . S
C592 C586 1.465 . S
C592 C591 1.396 1_545 S
C592 C593 1.399 . S
C593 H579 0.929 . S
C593 C592 1.399 . S
C593 C594 1.385 . S
C594 H580 0.931 . S
C594 C593 1.385 . S
C594 C595 1.389 . S
C595 C594 1.389 . S
C595 C596 1.387 1_545 S
C596 H581 0.930 . S
C596 C591 1.390 . S
C596 C595 1.387 1_565 S
H597 C609 0.930 . S
H598 C611 0.930 . S
H599 C612 0.930 . S
H600 C616 0.959 . S
H601 C616 0.959 . S
H602 C616 0.961 . S
H603 C617 0.960 . S
H604 C617 0.961 . S
H605 C617 0.959 . S
H606 C620 0.929 . S
H607 C621 0.931 . S
H608 C623 0.930 . S
C609 H597 0.930 . S
C609 C610 1.399 . S
C609 C614 1.399 . S
C610 C609 1.399 . S
C610 C611 1.376 . S
C611 H598 0.930 . S
C611 C610 1.376 . S
C611 C612 1.388 . S
C612 H599 0.930 . S
C612 C611 1.388 . S
C612 C613 1.390 . S
C613 C612 1.390 . S
C613 C614 1.394 . S
C613 C619 1.465 . S
C614 C609 1.399 . S
C614 C613 1.394 . S
C614 C615 1.516 . S
C615 C614 1.516 . S
C615 C616 1.502 . S
C615 C617 1.561 . S
C615 C618 1.526 . S
C616 H600 0.959 . S
C616 H601 0.959 . S
C616 H602 0.961 . S
C616 C615 1.502 . S
C617 H603 0.960 . S
C617 H604 0.961 . S
C617 H605 0.959 . S
C617 C615 1.561 . S
C618 C615 1.526 . S
C618 C619 1.396 . S
C618 C623 1.390 . S
C619 C613 1.465 . S
C619 C618 1.396 . S
C619 C620 1.399 . S
C620 H606 0.929 . S
C620 C619 1.399 . S
C620 C621 1.385 . S
C621 H607 0.931 . S
C621 C620 1.385 . S
C621 C622 1.389 . S
C622 C621 1.389 . S
C622 C623 1.387 . S
C623 H608 0.930 . S
C623 C618 1.390 . S
C623 C622 1.387 . S
H624 C636 0.930 . S
H625 C638 0.930 . S
H626 C639 0.930 1_455 S
H627 C643 0.959 . S
H628 C643 0.959 . S
H629 C643 0.961 . S
H630 C644 0.960 . S
H631 C644 0.961 . S
H632 C644 0.959 . S
H633 C647 0.929 . S
H634 C648 0.931 . S
H635 C650 0.930 . S
C636 H624 0.930 . S
C636 C637 1.399 . S
C636 C641 1.399 . S
C637 C636 1.399 . S
C637 C638 1.376 . S
C638 H625 0.930 . S
C638 C637 1.376 . S
C638 C639 1.388 . S
C639 H626 0.930 1_655 S
C639 C638 1.388 . S
C639 C640 1.390 . S
C640 C639 1.390 . S
C640 C641 1.394 . S
C640 C646 1.465 . S
C641 C636 1.399 . S
C641 C640 1.394 . S
C641 C642 1.516 . S
C642 C641 1.516 . S
C642 C643 1.502 . S
C642 C644 1.561 . S
C642 C645 1.526 . S
C643 H627 0.959 . S
C643 H628 0.959 . S
C643 H629 0.961 . S
C643 C642 1.502 . S
C644 H630 0.960 . S
C644 H631 0.961 . S
C644 H632 0.959 . S
C644 C642 1.561 . S
C645 C642 1.526 . S
C645 C646 1.396 . S
C645 C650 1.390 . S
C646 C640 1.465 . S
C646 C645 1.396 . S
C646 C647 1.399 1_655 S
C647 H633 0.929 . S
C647 C646 1.399 1_455 S
C647 C648 1.385 . S
C648 H634 0.931 . S
C648 C647 1.385 . S
C648 C649 1.389 1_455 S
C649 C648 1.389 1_655 S
C649 C650 1.387 . S
C650 H635 0.930 . S
C650 C645 1.390 . S
C650 C649 1.387 . S
H651 C663 0.930 . S
H652 C665 0.930 . S
H653 C666 0.930 . S
H654 C670 0.959 . S
H655 C670 0.959 . S
H656 C670 0.961 . S
H657 C671 0.960 . S
H658 C671 0.961 . S
H659 C671 0.959 . S
H660 C674 0.929 . S
H661 C675 0.931 . S
H662 C677 0.930 . S
C663 H651 0.930 . S
C663 C664 1.399 . S
C663 C668 1.399 . S
C664 C663 1.399 . S
C664 C665 1.376 1_565 S
C665 H652 0.930 . S
C665 C664 1.376 1_545 S
C665 C666 1.388 . S
C666 H653 0.930 . S
C666 C665 1.388 . S
C666 C667 1.390 1_545 S
C667 C666 1.390 1_565 S
C667 C668 1.394 . S
C667 C673 1.465 1_565 S
C668 C663 1.399 . S
C668 C667 1.394 . S
C668 C669 1.516 . S
C669 C668 1.516 . S
C669 C670 1.502 . S
C669 C671 1.561 . S
C669 C672 1.526 . S
C670 H654 0.959 . S
C670 H655 0.959 . S
C670 H656 0.961 . S
C670 C669 1.502 . S
C671 H657 0.960 . S
C671 H658 0.961 . S
C671 H659 0.959 . S
C671 C669 1.561 . S
C672 C669 1.526 . S
C672 C673 1.396 1_565 S
C672 C677 1.390 . S
C673 C667 1.465 1_545 S
C673 C672 1.396 1_545 S
C673 C674 1.399 . S
C674 H660 0.929 . S
C674 C673 1.399 . S
C674 C675 1.385 . S
C675 H661 0.931 . S
C675 C674 1.385 . S
C675 C676 1.389 . S
C676 C675 1.389 . S
C676 C677 1.387 1_545 S
C677 H662 0.930 . S
C677 C672 1.390 . S
C677 C676 1.387 1_565 S
H678 C690 0.930 . S
H679 C692 0.930 1_554 S
H680 C693 0.930 . S
H681 C697 0.959 . S
H682 C697 0.959 . S
H683 C697 0.961 . S
H684 C698 0.960 . S
H685 C698 0.961 . S
H686 C698 0.959 . S
H687 C701 0.929 . S
H688 C702 0.931 . S
H689 C704 0.930 . S
C690 H678 0.930 . S
C690 C691 1.399 . S
C690 C695 1.399 . S
C691 C690 1.399 . S
C691 C692 1.376 . S
C692 H679 0.930 1_556 S
C692 C691 1.376 . S
C692 C693 1.388 . S
C693 H680 0.930 . S
C693 C692 1.388 . S
C693 C694 1.390 . S
C694 C693 1.390 . S
C694 C695 1.394 . S
C694 C700 1.465 . S
C695 C690 1.399 . S
C695 C694 1.394 . S
C695 C696 1.516 . S
C696 C695 1.516 . S
C696 C697 1.502 . S
C696 C698 1.561 . S
C696 C699 1.526 . S
C697 H681 0.959 . S
C697 H682 0.959 . S
C697 H683 0.961 . S
C697 C696 1.502 . S
C698 H684 0.960 . S
C698 H685 0.961 . S
C698 H686 0.959 . S
C698 C696 1.561 . S
C699 C696 1.526 . S
C699 C700 1.396 . S
C699 C704 1.390 . S
C700 C694 1.465 . S
C700 C699 1.396 . S
C700 C701 1.399 . S
C701 H687 0.929 . S
C701 C700 1.399 . S
C701 C702 1.385 . S
C702 H688 0.931 . S
C702 C701 1.385 . S
C702 C703 1.389 . S
C703 C702 1.389 . S
C703 C704 1.387 . S
C704 H689 0.930 . S
C704 C699 1.390 . S
C704 C703 1.387 . S
H705 C717 0.930 . S
H706 C719 0.930 . S
H707 C720 0.930 . S
H708 C724 0.959 . S
H709 C724 0.959 . S
H710 C724 0.961 . S
H711 C725 0.973 . S
H712 C725 0.959 . S
H713 C725 0.943 1_655 S
H714 C728 0.929 . S
H715 C729 0.931 . S
H716 C731 0.930 . S
C717 H705 0.930 . S
C717 C718 1.399 . S
C717 C722 1.399 . S
C718 C717 1.399 . S
C718 C719 1.376 . S
C719 H706 0.930 . S
C719 C718 1.376 . S
C719 C720 1.388 . S
C720 H707 0.930 . S
C720 C719 1.388 . S
C720 C721 1.390 . S
C721 C720 1.390 . S
C721 C722 1.394 . S
C721 C727 1.465 . S
C722 C717 1.399 . S
C722 C721 1.394 . S
C722 C723 1.516 . S
C723 C722 1.516 . S
C723 C724 1.502 . S
C723 C725 1.567 . S
C723 C726 1.526 . S
C724 H708 0.959 . S
C724 H709 0.959 . S
C724 H710 0.961 . S
C724 C723 1.502 . S
C725 H711 0.973 . S
C725 H712 0.959 . S
C725 H713 0.943 1_455 S
C725 C723 1.567 . S
C726 C723 1.526 . S
C726 C727 1.396 . S
C726 C731 1.390 . S
C727 C721 1.465 . S
C727 C726 1.396 . S
C727 C728 1.399 1_455 S
C728 H714 0.929 . S
C728 C727 1.399 1_655 S
C728 C729 1.385 . S
C729 H715 0.931 . S
C729 C728 1.385 . S
C729 C730 1.389 1_655 S
C730 C729 1.389 1_455 S
C730 C731 1.387 . S
C731 H716 0.930 . S
C731 C726 1.390 . S
C731 C730 1.387 . S
C433 C285 1.464 1_655 S
C421 C29 1.473 . S
C448 C137 1.466 . S
C460 C333 1.465 1_565 S
C475 C225 1.476 . S
C487 C405 1.429 . S
C502 C49 1.470 . S
C514 C309 1.444 . S
C541 C357 1.426 . S
C529 C117 1.470 . S
C556 C205 1.464 . S
C568 C381 1.468 . S
C595 C342 1.471 1_545 S
C583 C233 1.472 . S
C610 C57 1.477 . S
C622 C396 1.447 . S
C649 C300 1.477 . S
C637 C108 1.450 . S
C676 C348 1.472 1_545 S
C664 C196 1.423 . S
C703 C390 1.467 . S
C691 C20 1.448 . S
C718 C145 1.430 . S
C730 C294 1.468 1_455 S
