# Generated by pormake.
# Topology tsx, (6,3)-cn, num edge types: 1
# Building blocks:
#     Node 0, Type 0, BuildingBlock: LEVNOQ01_clean_sbu_1, # of connection points: 6
#     Node 1, Type 0, BuildingBlock: LEVNOQ01_clean_sbu_1, # of connection points: 6
#     Node 2, Type 1, BuildingBlock: INOVEN_clean_linker_0, # of connection points: 3
#     Node 3, Type 1, BuildingBlock: INOVEN_clean_linker_0, # of connection points: 3
#     Node 4, Type 1, BuildingBlock: INOVEN_clean_linker_0, # of connection points: 3
#     Node 5, Type 1, BuildingBlock: INOVEN_clean_linker_0, # of connection points: 3
#     Edge 6, Type (0, 1), BuildingBlock: XIVTED_clean_linker_0, # of connection points: 2
#     Edge 7, Type (0, 1), BuildingBlock: XIVTED_clean_linker_0, # of connection points: 2
#     Edge 8, Type (0, 1), BuildingBlock: XIVTED_clean_linker_0, # of connection points: 2
#     Edge 9, Type (0, 1), BuildingBlock: XIVTED_clean_linker_0, # of connection points: 2
#     Edge 10, Type (0, 1), BuildingBlock: XIVTED_clean_linker_0, # of connection points: 2
#     Edge 11, Type (0, 1), BuildingBlock: XIVTED_clean_linker_0, # of connection points: 2
#     Edge 12, Type (0, 1), BuildingBlock: XIVTED_clean_linker_0, # of connection points: 2
#     Edge 13, Type (0, 1), BuildingBlock: XIVTED_clean_linker_0, # of connection points: 2
#     Edge 14, Type (0, 1), BuildingBlock: XIVTED_clean_linker_0, # of connection points: 2
#     Edge 15, Type (0, 1), BuildingBlock: XIVTED_clean_linker_0, # of connection points: 2
#     Edge 16, Type (0, 1), BuildingBlock: XIVTED_clean_linker_0, # of connection points: 2
#     Edge 17, Type (0, 1), BuildingBlock: XIVTED_clean_linker_0, # of connection points: 2
# Relax obj value: 0.092
# Max RMSD: 0.140
# Mean RMSD: 0.105
data_MOF--net-tsx--node1-LEVNOQ01_clean_sbu_1--node2-INOVEN_clean_linker_0--edge1-XIVTED_clean_linker_0
_symmetry_space_group_name_H-M    P1
_symmetry_Int_Tables_number       1
_symmetry_cell_setting            triclinic
loop_
_symmetry_equiv_pos_as_xyz
'x, y, z'
_cell_length_a     19.057582
_cell_length_b     23.105349
_cell_length_c     34.682495
_cell_angle_alpha  98.156252
_cell_angle_beta   100.31857
_cell_angle_gamma 91.295756
loop_
_atom_site_label
_atom_site_type_symbol
_atom_site_fract_x
_atom_site_fract_y
_atom_site_fract_z
_atom_type_partial_charge
O0 O 0.14737 0.06293 0.09224 0.0
Mg1 Mg 0.19075 0.04697 0.04145 0.0
O2 O 0.054 0.00693 0.06015 0.0
Mg3 Mg 0.0496 0.00391 -0.00842 0.0
O4 O 0.13529 0.0784 -0.00574 0.0
O5 O 0.24367 0.11446 0.02687 0.0
O6 O 0.04826 -0.00073 0.92402 0.0
O7 O 0.97556 0.08617 -0.00488 0.0
Mg8 Mg 0.91253 -0.01446 0.95313 0.0
O9 O 0.96198 0.92585 -0.01363 0.0
O10 O 0.93433 -0.00611 0.89717 0.0
O11 O 0.86413 0.05292 0.98334 0.0
O12 O 0.85403 0.91139 0.9461 0.0
C13 C 0.19472 0.92144 0.00736 0.0
C14 C 0.09142 0.0328 0.09255 0.0
C15 C 0.18847 0.11668 -0.00046 0.0
C16 C -0.00105 -0.00264 0.89384 0.0
C17 C 0.90953 0.09505 -0.00516 0.0
C18 C 0.90322 0.8939 0.97185 0.0
O19 O 0.23013 0.96491 0.02888 0.0
O20 O 0.12992 0.92624 -0.00941 0.0
O21 O 0.64556 0.5532 0.59693 0.0
Mg22 Mg 0.7003 0.53919 0.54954 0.0
O23 O 0.54659 0.51002 0.55938 0.0
Mg24 Mg 0.551 0.50901 0.49304 0.0
O25 O 0.64693 0.57513 0.50299 0.0
O26 O 0.75556 0.60781 0.53554 0.0
O27 O 0.55348 0.50647 0.42714 0.0
O28 O 0.48617 0.59818 0.49601 0.0
Mg29 Mg 0.41666 0.50754 0.46191 0.0
O30 O 0.45728 0.43469 0.48267 0.0
O31 O 0.44568 0.53791 0.4117 0.0
O32 O 0.38133 0.56819 0.50418 0.0
O33 O 0.3489 0.43687 0.44435 0.0
C34 C 0.68611 0.41516 0.50719 0.0
C35 C 0.58284 0.53123 0.59312 0.0
C36 C 0.70083 0.6125 0.50847 0.0
C37 C 0.50588 0.52659 0.40281 0.0
C38 C 0.42573 0.60993 0.50562 0.0
C39 C 0.39521 0.40947 0.46592 0.0
O40 O 0.72693 0.45287 0.53163 0.0
O41 O 0.62351 0.42757 0.49104 0.0
H42 H 0.08889 0.97405 0.47551 0.0
H43 H 0.13435 0.87573 0.36821 0.0
H44 H -0.0041 0.01851 0.3615 0.0
N45 N -0.00033 0.047 0.43922 0.0
N46 N 0.95288 0.07245 0.41873 0.0
C47 C 0.08181 0.96613 0.4435 0.0
C48 C 0.11608 0.91963 0.4246 0.0
C49 C 0.03676 0.00126 0.42073 0.0
C50 C 0.02809 -0.00962 0.37925 0.0
C51 C 0.06315 0.94553 0.36029 0.0
C52 C 0.10661 0.91016 0.38301 0.0
H53 H 0.96725 0.00143 0.49457 0.0
H54 H 0.89511 0.95145 0.59579 0.0
H55 H 0.07937 0.06868 0.61205 0.0
N56 N 0.07645 0.07257 0.53444 0.0
N57 N 0.12771 0.10279 0.55592 0.0
C58 C 0.97262 0.00491 0.52625 0.0
C59 C 0.92383 0.97329 0.5421 0.0
C60 C 0.02824 0.04025 0.55118 0.0
C61 C 0.03554 0.04288 0.59248 0.0
C62 C 0.98807 0.0106 0.60868 0.0
C63 C 0.93165 0.97682 0.58335 0.0
H64 H 0.58268 0.45811 0.97814 0.0
H65 H 0.65112 0.40098 0.86686 0.0
H66 H 0.50347 0.53675 0.8752 0.0
N67 N 0.50121 0.54245 0.9509 0.0
N68 N 0.49399 0.59304 0.94269 0.0
C69 C 0.58182 0.46086 0.94714 0.0
C70 C 0.62207 0.42303 0.92481 0.0
C71 C 0.54067 0.50293 0.92926 0.0
C72 C 0.53757 0.50575 0.88916 0.0
C73 C 0.57662 0.46893 0.86666 0.0
C74 C 0.61904 0.42787 0.88441 0.0
H75 H 0.45302 0.50669 0.00242 0.0
H76 H 0.38064 0.45874 0.10371 0.0
H77 H 0.54172 0.59708 0.11865 0.0
N78 N 0.55222 0.58818 0.04183 0.0
N79 N 0.59755 0.62379 0.06375 0.0
C80 C 0.45391 0.51519 0.03373 0.0
C81 C 0.40911 0.48051 0.0499 0.0
C82 C 0.50177 0.55771 0.05813 0.0
C83 C 0.50358 0.56561 0.09916 0.0
C84 C 0.46063 0.52986 0.11571 0.0
C85 C 0.41276 0.4876 0.09097 0.0
H86 H 0.26908 0.13248 0.94499 0.0
H87 H 0.45902 0.37811 0.02205 0.0
H88 H 0.11108 0.2132 0.0065 0.0
H89 H 0.26498 0.47002 0.02204 0.0
H90 H 0.3895 0.29024 -0.01223 0.0
H91 H 0.31513 0.22934 0.93825 0.0
C92 C 0.24194 0.17072 0.95536 0.0
C93 C 0.18728 0.16543 0.97692 0.0
C94 C 0.36179 0.33002 -0.00651 0.0
C95 C 0.24299 0.27568 0.9724 0.0
C96 C 0.40162 0.37991 0.01355 0.0
C97 C 0.3672 0.43063 0.02467 0.0
C98 C 0.28684 0.33099 -0.01546 0.0
C99 C 0.29283 0.43111 0.01395 0.0
C100 C 0.26926 0.226 0.95239 0.0
C101 C 0.15391 0.21594 -0.01001 0.0
N102 N 0.25473 0.38149 -0.00503 0.0
N103 N 0.18388 0.26942 -0.01127 0.0
H104 H 0.32577 0.9001 0.04631 0.0
H105 H 0.35967 0.57107 0.95463 0.0
H106 H 0.14935 0.81534 0.95892 0.0
H107 H 0.52544 0.70557 0.96694 0.0
H108 H 0.27734 0.647 0.97366 0.0
H109 H 0.3939 0.81409 0.03598 0.0
C110 C 0.30085 0.86333 0.02495 0.0
C111 C 0.23187 0.86578 0.00271 0.0
C112 C 0.33205 0.65942 0.97266 0.0
C113 C 0.31058 0.76623 -0.00858 0.0
C114 C 0.37896 0.61642 0.96242 0.0
C115 C 0.44927 0.63284 0.95998 0.0
C116 C 0.3569 0.71831 0.9813 0.0
C117 C 0.47177 0.69176 0.96907 0.0
C118 C 0.34008 0.81413 0.01929 0.0
C119 C 0.20261 0.81571 0.97626 0.0
N120 N 0.42593 0.73244 0.97964 0.0
N121 N 0.24253 0.76778 0.97102 0.0
H122 H 0.92444 0.87307 0.04858 0.0
H123 H 0.6298 0.60822 -0.01058 0.0
H124 H 0.84038 0.79384 0.92848 0.0
H125 H 0.68894 0.70553 0.10679 0.0
H126 H 0.72394 0.66292 0.96817 0.0
H127 H 0.85984 0.7964 0.07251 0.0
C128 C 0.89466 0.8382 0.02736 0.0
C129 C 0.88696 0.83967 -0.01338 0.0
C130 C 0.71663 0.67217 -0.00135 0.0
C131 C 0.81185 0.75341 0.01339 0.0
C132 C 0.66248 0.64135 0.0106 0.0
C133 C 0.65125 0.65364 0.04973 0.0
C134 C 0.75969 0.71518 0.02608 0.0
C135 C 0.69605 0.69574 0.07631 0.0
C136 C 0.85699 0.795 0.04092 0.0
C137 C 0.84697 0.7942 0.96019 0.0
N138 N 0.74814 0.7254 0.06402 0.0
N139 N 0.81 0.75335 0.97401 0.0
H140 H 0.79666 0.13026 0.02883 0.0
H141 H 0.64597 0.31272 0.89052 0.0
H142 H 0.95957 0.19367 0.97138 0.0
H143 H 0.70334 0.43186 0.00041 0.0
H144 H 0.72935 0.24393 0.91777 0.0
H145 H 0.73274 0.22007 0.02041 0.0
C146 C 0.82017 0.16402 0.01571 0.0
C147 C 0.88325 0.15465 0.00062 0.0
C148 C 0.7235 0.28534 0.93569 0.0
C149 C 0.81006 0.25606 -0.00954 0.0
C150 C 0.67623 0.32481 0.92026 0.0
C151 C 0.66818 0.37894 0.94288 0.0
C152 C 0.76218 0.29919 0.97428 0.0
C153 C 0.70742 0.39069 0.9819 0.0
C154 C 0.7838 0.21503 0.01103 0.0
C155 C 0.91129 0.19946 0.98358 0.0
N156 N 0.75281 0.35091 -0.00345 0.0
N157 N 0.87319 0.24762 0.97776 0.0
H158 H 0.7913 0.63305 0.45983 0.0
H159 H 0.78201 0.96051 0.54537 0.0
H160 H 0.61653 0.70572 0.51057 0.0
H161 H 0.94202 0.88987 0.48095 0.0
H162 H 0.70274 0.87504 0.51575 0.0
H163 H 0.82653 0.73027 0.44817 0.0
C164 C 0.75846 0.66935 0.46684 0.0
C165 C 0.70136 0.66188 0.48632 0.0
C166 C 0.7544 0.87879 0.50721 0.0
C167 C 0.74354 0.77368 0.47537 0.0
C168 C 0.79968 0.92756 0.52419 0.0
C169 C 0.8692 0.93137 0.51634 0.0
C170 C 0.7795 0.833 0.48287 0.0
C171 C 0.88909 0.88823 0.48816 0.0
C172 C 0.77895 0.72505 0.4606 0.0
C173 C 0.66093 0.71005 0.4954 0.0
N174 N 0.84514 0.84007 0.47321 0.0
N175 N 0.68409 0.76442 0.49095 0.0
H176 H 0.64816 0.33809 0.43802 0.0
H177 H 0.96278 0.12329 0.49608 0.0
H178 H 0.79077 0.36149 0.5513 0.0
H179 H 0.85101 0.12465 0.37684 0.0
H180 H 0.88937 0.20195 0.51954 0.0
H181 H 0.70961 0.24978 0.41781 0.0
C182 C 0.69152 0.3241 0.45884 0.0
C183 C 0.71481 0.3574 0.49621 0.0
C184 C 0.88074 0.18492 0.48824 0.0
C185 C 0.78549 0.2569 0.47337 0.0
C186 C 0.92263 0.14005 0.47494 0.0
C187 C 0.91248 0.11778 0.43445 0.0
C188 C 0.82852 0.20729 0.46085 0.0
C189 C 0.85995 0.14105 0.40824 0.0
C190 C 0.72695 0.274 0.44723 0.0
C191 C 0.77163 0.33747 0.52199 0.0
N192 N 0.8199 0.18456 0.42179 0.0
N193 N 0.80517 0.28872 0.51005 0.0
H194 H 0.30113 0.32783 0.41842 0.0
H195 H 0.23623 0.16968 0.59871 0.0
H196 H 0.43595 0.36187 0.53393 0.0
H197 H 0.12769 0.11481 0.47855 0.0
H198 H 0.31566 0.23577 0.57482 0.0
H199 H 0.24464 0.24369 0.43822 0.0
C200 C 0.31973 0.31682 0.44776 0.0
C201 C 0.37288 0.35198 0.47471 0.0
C202 C 0.27518 0.20874 0.55356 0.0
C203 C 0.3072 0.25667 0.49796 0.0
C204 C 0.22996 0.17128 0.56722 0.0
C205 C 0.17566 0.1373 0.54066 0.0
C206 C 0.26551 0.21243 0.51289 0.0
C207 C 0.16883 0.14061 0.50007 0.0
C208 C 0.28733 0.26888 0.45909 0.0
C209 C 0.39527 0.33572 0.51225 0.0
N210 N 0.21298 0.17798 0.48746 0.0
N211 N 0.36137 0.28979 0.52304 0.0
H212 H 0.33516 0.6585 0.5521 0.0
H213 H 0.11012 0.80076 0.41168 0.0
H214 H 0.45084 0.69473 0.46147 0.0
H215 H 0.22873 0.94835 0.48734 0.0
H216 H 0.19772 0.73558 0.44059 0.0
H217 H 0.26381 0.74394 0.54094 0.0
C218 C 0.34723 0.68567 0.53089 0.0
C219 C 0.399 0.66968 0.50771 0.0
C220 C 0.2039 0.78222 0.45103 0.0
C221 C 0.31726 0.76629 0.49465 0.0
C222 C 0.15414 0.81935 0.43475 0.0
C223 C 0.16244 0.88008 0.44701 0.0
C224 C 0.26247 0.80574 0.47979 0.0
C225 C 0.22035 0.90176 0.47724 0.0
C226 C 0.30657 0.73417 0.5246 0.0
C227 C 0.41206 0.70599 0.48029 0.0
N228 N 0.26898 0.86454 0.49245 0.0
N229 N 0.37 0.75182 0.47371 0.0
H230 H 0.18182 0.05774 0.16314 0.0
H231 H 0.94562 0.94635 0.30156 0.0
H232 H 0.97482 0.97477 0.1098 0.0
H233 H 0.17487 0.93652 0.32135 0.0
H234 H 0.94706 0.96173 0.233 0.0
H235 H 0.1715 0.02389 0.22477 0.0
C236 C 0.13351 0.03305 0.16444 0.0
C237 C 0.07896 0.01911 0.1311 0.0
C238 C -0.00338 0.95477 0.25221 0.0
C239 C 0.06743 0.97975 0.20208 0.0
C240 C -0.00405 0.94615 0.29117 0.0
C241 C 0.06039 0.9409 0.31714 0.0
C242 C 0.06224 0.95918 0.23975 0.0
C243 C 0.12406 0.94037 0.30233 0.0
C244 C 0.12823 0.01307 0.19963 0.0
C245 C 0.01801 -0.01347 0.13484 0.0
N246 N 0.12352 0.95059 0.26478 0.0
N247 N 0.01355 0.96809 0.16998 0.0
H248 H 0.97862 0.90595 0.83513 0.0
H249 H 0.02232 0.10259 0.6693 0.0
H250 H 0.05309 0.08705 0.8632 0.0
H251 H 0.98179 0.91519 0.64615 0.0
H252 H 0.03945 0.09828 0.74055 0.0
H253 H 0.98679 0.9079 0.76586 0.0
C254 C -0.00203 0.94582 0.82655 0.0
C255 C 0.01572 -0.00374 0.85437 0.0
C256 C 0.02726 0.05811 0.71983 0.0
C257 C 0.02302 -0.00024 0.7754 0.0
C258 C 0.01747 0.06056 0.67924 0.0
C259 C -0.00027 0.00925 0.65185 0.0
C260 C 0.01912 0.00399 0.73295 0.0
C261 C -0.00621 0.95597 0.66623 0.0
C262 C 0.00238 0.94712 0.78711 0.0
C263 C 0.03974 0.04721 0.84226 0.0
N264 N 0.0031 0.95479 0.70575 0.0
N265 N 0.04187 0.04797 0.80335 0.0
H266 H 0.57688 0.61551 0.65449 0.0
H267 H 0.55302 0.3834 0.8016 0.0
H268 H 0.5326 0.43115 0.61347 0.0
H269 H 0.58999 0.56989 0.83694 0.0
H270 H 0.53523 0.39867 0.73183 0.0
H271 H 0.56346 0.5997 0.72079 0.0
C272 C 0.56266 0.57188 0.65952 0.0
C273 C 0.55613 0.52449 0.62909 0.0
C274 C 0.54688 0.43614 0.75495 0.0
C275 C 0.54421 0.50525 0.70478 0.0
C276 C 0.55796 0.42735 0.79457 0.0
C277 C 0.57288 0.4755 0.82477 0.0
C278 C 0.55115 0.4934 0.74591 0.0
C279 C 0.57796 0.53167 0.81443 0.0
C280 C 0.5556 0.56261 0.69731 0.0
C281 C 0.53773 0.46866 0.63656 0.0
N282 N 0.56704 0.53902 0.77591 0.0
N283 N 0.53385 0.4602 0.6741 0.0
H284 H 0.57734 0.45564 0.35497 0.0
H285 H 0.46268 0.6266 0.17083 0.0
H286 H 0.46049 0.6134 0.36127 0.0
H287 H 0.48962 0.4404 0.15835 0.0
H288 H 0.49105 0.63147 0.24303 0.0
H289 H 0.57703 0.45986 0.28452 0.0
C290 C 0.55312 0.49178 0.34164 0.0
C291 C 0.51791 0.53379 0.36331 0.0
C292 C 0.49066 0.58961 0.2244 0.0
C293 C 0.51755 0.53896 0.28385 0.0
C294 C 0.47419 0.58679 0.18345 0.0
C295 C 0.4725 0.53286 0.159 0.0
C296 C 0.50634 0.53824 0.24079 0.0
C297 C 0.48875 0.48253 0.17645 0.0
C298 C 0.5525 0.49393 0.30161 0.0
C299 C 0.4871 0.57975 0.34508 0.0
N300 N 0.50508 0.48639 0.21646 0.0
N301 N 0.48731 0.58101 0.3062 0.0
loop_
_geom_bond_atom_site_label_1
_geom_bond_atom_site_label_2
_geom_bond_distance
_geom_bond_site_symmetry_2
_ccdc_geom_bond_type
O0 Mg1 1.990 . S
O0 C14 1.253 . S
Mg1 O0 1.990 . S
Mg1 O4 2.180 . S
Mg1 O5 2.117 . S
Mg1 O19 2.030 1_545 S
O2 Mg3 2.072 . S
O2 C14 1.260 . S
Mg3 O2 2.072 . S
Mg3 O4 2.099 . S
Mg3 O6 2.079 1_554 S
Mg3 O7 2.072 . S
Mg3 O9 2.099 1_444 S
Mg3 O20 2.079 1_544 S
O4 Mg1 2.180 . S
O4 Mg3 2.099 . S
O4 C15 1.279 . S
O5 Mg1 2.117 . S
O5 C15 1.250 . S
O6 Mg3 2.079 1_556 S
O6 C16 1.264 . S
O7 Mg3 2.072 . S
O7 C17 1.260 1_454 S
Mg8 O9 2.180 . S
Mg8 O10 2.030 1_565 S
Mg8 O11 1.990 1_565 S
Mg8 O12 2.117 . S
O9 Mg3 2.099 1_666 S
O9 Mg8 2.180 . S
O9 C18 1.279 . S
O10 Mg8 2.030 1_545 S
O10 C16 1.248 1_655 S
O11 Mg8 1.990 1_545 S
O11 C17 1.253 . S
O12 Mg8 2.117 . S
O12 C18 1.250 . S
C13 O19 1.248 . S
C13 O20 1.264 1_554 S
C14 O0 1.253 . S
C14 O2 1.260 . S
C15 O4 1.279 . S
C15 O5 1.250 . S
C16 O6 1.264 . S
C16 O10 1.248 1_455 S
C17 O7 1.260 1_656 S
C17 O11 1.253 . S
C18 O9 1.279 . S
C18 O12 1.250 . S
O19 Mg1 2.030 1_565 S
O19 C13 1.248 . S
O20 Mg3 2.079 1_566 S
O20 C13 1.264 1_556 S
O21 Mg22 1.990 . S
O21 C35 1.253 . S
Mg22 O21 1.990 . S
Mg22 O25 2.180 . S
Mg22 O26 2.117 . S
Mg22 O40 2.030 . S
O23 Mg24 2.072 . S
O23 C35 1.260 . S
Mg24 O23 2.072 . S
Mg24 O25 2.099 . S
Mg24 O27 2.079 . S
Mg24 O28 2.072 . S
Mg24 O30 2.099 . S
Mg24 O41 2.079 . S
O25 Mg22 2.180 . S
O25 Mg24 2.099 . S
O25 C36 1.279 . S
O26 Mg22 2.117 . S
O26 C36 1.250 . S
O27 Mg24 2.079 . S
O27 C37 1.264 . S
O28 Mg24 2.072 . S
O28 C38 1.260 . S
Mg29 O30 2.180 . S
Mg29 O31 2.030 . S
Mg29 O32 1.990 . S
Mg29 O33 2.117 . S
O30 Mg24 2.099 . S
O30 Mg29 2.180 . S
O30 C39 1.279 . S
O31 Mg29 2.030 . S
O31 C37 1.248 . S
O32 Mg29 1.990 . S
O32 C38 1.253 . S
O33 Mg29 2.117 . S
O33 C39 1.250 . S
C34 O40 1.248 . S
C34 O41 1.264 . S
C35 O21 1.253 . S
C35 O23 1.260 . S
C36 O25 1.279 . S
C36 O26 1.250 . S
C37 O27 1.264 . S
C37 O31 1.248 . S
C38 O28 1.260 . S
C38 O32 1.253 . S
C39 O30 1.279 . S
C39 O33 1.250 . S
O40 Mg22 2.030 . S
O40 C34 1.248 . S
O41 Mg24 2.079 . S
O41 C34 1.264 . S
H42 C47 0.929 . S
H43 C52 0.931 . S
H44 C50 0.930 . S
N45 N46 1.234 1_455 S
N45 C49 1.453 . S
N46 N45 1.234 1_655 S
C47 H42 0.929 . S
C47 C48 1.373 . S
C47 C49 1.368 1_565 S
C48 C47 1.373 . S
C48 C52 1.397 . S
C49 N45 1.453 . S
C49 C47 1.368 1_545 S
C49 C50 1.373 . S
C50 H44 0.930 . S
C50 C49 1.373 . S
C50 C51 1.371 1_545 S
C51 C50 1.371 1_565 S
C51 C52 1.383 . S
C52 H43 0.931 . S
C52 C48 1.397 . S
C52 C51 1.383 . S
H53 C58 0.929 . S
H54 C63 0.931 1_565 S
H55 C61 0.930 . S
N56 N57 1.234 . S
N56 C60 1.453 . S
N57 N56 1.234 . S
C58 H53 0.929 . S
C58 C59 1.373 1_545 S
C58 C60 1.368 1_655 S
C59 C58 1.373 1_565 S
C59 C63 1.397 1_565 S
C60 N56 1.453 . S
C60 C58 1.368 1_455 S
C60 C61 1.373 . S
C61 H55 0.930 . S
C61 C60 1.373 . S
C61 C62 1.371 1_455 S
C62 C61 1.371 1_655 S
C62 C63 1.383 . S
C63 H54 0.931 1_545 S
C63 C59 1.397 1_545 S
C63 C62 1.383 . S
H64 C69 0.929 1_554 S
H65 C74 0.931 . S
H66 C72 0.930 . S
N67 N68 1.234 . S
N67 C71 1.453 . S
N68 N67 1.234 . S
C69 H64 0.929 1_556 S
C69 C70 1.373 . S
C69 C71 1.368 . S
C70 C69 1.373 . S
C70 C74 1.397 . S
C71 N67 1.453 . S
C71 C69 1.368 . S
C71 C72 1.373 . S
C72 H66 0.930 . S
C72 C71 1.373 . S
C72 C73 1.371 . S
C73 C72 1.371 . S
C73 C74 1.383 . S
C74 H65 0.931 . S
C74 C70 1.397 . S
C74 C73 1.383 . S
H75 C80 0.929 . S
H76 C85 0.931 . S
H77 C83 0.930 . S
N78 N79 1.234 . S
N78 C82 1.453 . S
N79 N78 1.234 . S
C80 H75 0.929 . S
C80 C81 1.373 . S
C80 C82 1.368 . S
C81 C80 1.373 . S
C81 C85 1.397 . S
C82 N78 1.453 . S
C82 C80 1.368 . S
C82 C83 1.373 . S
C83 H77 0.930 . S
C83 C82 1.373 . S
C83 C84 1.371 . S
C84 C83 1.371 . S
C84 C85 1.383 . S
C85 H76 0.931 . S
C85 C81 1.397 . S
C85 C84 1.383 . S
H86 C92 0.930 . S
H87 C96 0.930 . S
H88 C101 0.929 . S
H89 C99 0.929 1_556 S
H90 C94 0.929 . S
H91 C100 0.929 . S
C92 H86 0.930 . S
C92 C93 1.367 1_556 S
C92 C100 1.378 . S
C93 C92 1.367 1_554 S
C93 C101 1.433 . S
C94 H90 0.929 . S
C94 C96 1.378 . S
C94 C98 1.350 . S
C95 C98 1.463 . S
C95 C100 1.350 1_554 S
C95 N103 1.427 . S
C96 H87 0.930 . S
C96 C94 1.378 . S
C96 C97 1.367 . S
C97 C96 1.367 . S
C97 C99 1.433 . S
C98 C94 1.350 . S
C98 C95 1.463 . S
C98 N102 1.441 . S
C99 H89 0.929 1_554 S
C99 C97 1.433 . S
C99 N102 1.382 . S
C100 H91 0.929 . S
C100 C92 1.378 . S
C100 C95 1.350 1_556 S
C101 H88 0.929 . S
C101 C93 1.433 . S
C101 N103 1.384 . S
N102 C98 1.441 . S
N102 C99 1.382 . S
N103 C95 1.427 . S
N103 C101 1.384 . S
H104 C110 0.930 . S
H105 C114 0.930 . S
H106 C119 0.929 . S
H107 C117 0.929 . S
H108 C112 0.929 . S
H109 C118 0.929 . S
C110 H104 0.930 . S
C110 C111 1.367 . S
C110 C118 1.378 . S
C111 C110 1.367 . S
C111 C119 1.433 1_554 S
C112 H108 0.929 . S
C112 C114 1.378 . S
C112 C116 1.350 . S
C113 C116 1.463 1_554 S
C113 C118 1.350 . S
C113 N121 1.427 1_554 S
C114 H105 0.930 . S
C114 C112 1.378 . S
C114 C115 1.367 . S
C115 C114 1.367 . S
C115 C117 1.433 1_556 S
C116 C112 1.350 . S
C116 C113 1.463 1_556 S
C116 N120 1.427 1_556 S
C117 H107 0.929 . S
C117 C115 1.433 1_554 S
C117 N120 1.384 . S
C118 H109 0.929 . S
C118 C110 1.378 . S
C118 C113 1.350 . S
C119 H106 0.929 . S
C119 C111 1.433 1_556 S
C119 N121 1.384 . S
N120 C116 1.427 1_554 S
N120 C117 1.384 . S
N121 C113 1.427 1_556 S
N121 C119 1.384 . S
H122 C128 0.930 . S
H123 C132 0.930 1_556 S
H124 C137 0.929 . S
H125 C135 0.929 . S
H126 C130 0.929 1_556 S
H127 C136 0.929 . S
C128 H122 0.930 . S
C128 C129 1.367 . S
C128 C136 1.378 . S
C129 C128 1.367 . S
C129 C137 1.433 1_554 S
C130 H126 0.929 1_554 S
C130 C132 1.378 . S
C130 C134 1.350 . S
C131 C134 1.463 . S
C131 C136 1.350 . S
C131 N139 1.427 1_554 S
C132 H123 0.930 1_554 S
C132 C130 1.378 . S
C132 C133 1.367 . S
C133 C132 1.367 . S
C133 C135 1.433 . S
C134 C130 1.350 . S
C134 C131 1.463 . S
C134 N138 1.427 . S
C135 H125 0.929 . S
C135 C133 1.433 . S
C135 N138 1.384 . S
C136 H127 0.929 . S
C136 C128 1.378 . S
C136 C131 1.350 . S
C137 H124 0.929 . S
C137 C129 1.433 1_556 S
C137 N139 1.384 . S
N138 C134 1.427 . S
N138 C135 1.384 . S
N139 C131 1.427 1_556 S
N139 C137 1.384 . S
H140 C146 0.930 . S
H141 C150 0.930 . S
H142 C155 0.929 . S
H143 C153 0.929 . S
H144 C148 0.929 . S
H145 C154 0.929 . S
C146 H140 0.930 . S
C146 C147 1.367 1_554 S
C146 C154 1.378 . S
C147 C146 1.367 1_556 S
C147 C155 1.433 . S
C148 H144 0.929 . S
C148 C150 1.378 . S
C148 C152 1.350 . S
C149 C152 1.463 . S
C149 C154 1.350 1_556 S
C149 N157 1.427 . S
C150 H141 0.930 . S
C150 C148 1.378 . S
C150 C151 1.367 . S
C151 C150 1.367 . S
C151 C153 1.433 1_556 S
C152 C148 1.350 . S
C152 C149 1.463 . S
C152 N156 1.427 1_556 S
C153 H143 0.929 . S
C153 C151 1.433 1_554 S
C153 N156 1.384 . S
C154 H145 0.929 . S
C154 C146 1.378 . S
C154 C149 1.350 1_554 S
C155 H142 0.929 . S
C155 C147 1.433 . S
C155 N157 1.384 . S
N156 C152 1.427 1_554 S
N156 C153 1.384 . S
N157 C149 1.427 . S
N157 C155 1.384 . S
H158 C164 0.930 . S
H159 C168 0.930 . S
H160 C173 0.929 . S
H161 C171 0.929 . S
H162 C166 0.929 . S
H163 C172 0.929 . S
C164 H158 0.930 . S
C164 C165 1.367 . S
C164 C172 1.378 . S
C165 C164 1.367 . S
C165 C173 1.433 . S
C166 H162 0.929 . S
C166 C168 1.378 . S
C166 C170 1.350 . S
C167 C170 1.463 . S
C167 C172 1.350 . S
C167 N175 1.427 . S
C168 H159 0.930 . S
C168 C166 1.378 . S
C168 C169 1.367 . S
C169 C168 1.367 . S
C169 C171 1.433 . S
C170 C166 1.350 . S
C170 C167 1.463 . S
C170 N174 1.427 . S
C171 H161 0.929 . S
C171 C169 1.433 . S
C171 N174 1.384 . S
C172 H163 0.929 . S
C172 C164 1.378 . S
C172 C167 1.350 . S
C173 H160 0.929 . S
C173 C165 1.433 . S
C173 N175 1.384 . S
N174 C170 1.427 . S
N174 C171 1.384 . S
N175 C167 1.427 . S
N175 C173 1.384 . S
H176 C182 0.930 . S
H177 C186 0.930 . S
H178 C191 0.929 . S
H179 C189 0.929 . S
H180 C184 0.929 . S
H181 C190 0.929 . S
C182 H176 0.930 . S
C182 C183 1.367 . S
C182 C190 1.378 . S
C183 C182 1.367 . S
C183 C191 1.433 . S
C184 H180 0.929 . S
C184 C186 1.378 . S
C184 C188 1.350 . S
C185 C188 1.463 . S
C185 C190 1.350 . S
C185 N193 1.427 . S
C186 H177 0.930 . S
C186 C184 1.378 . S
C186 C187 1.367 . S
C187 C186 1.367 . S
C187 C189 1.433 . S
C188 C184 1.350 . S
C188 C185 1.463 . S
C188 N192 1.427 . S
C189 H179 0.929 . S
C189 C187 1.433 . S
C189 N192 1.384 . S
C190 H181 0.929 . S
C190 C182 1.378 . S
C190 C185 1.350 . S
C191 H178 0.929 . S
C191 C183 1.433 . S
C191 N193 1.384 . S
N192 C188 1.427 . S
N192 C189 1.384 . S
N193 C185 1.427 . S
N193 C191 1.384 . S
H194 C200 0.930 . S
H195 C204 0.930 . S
H196 C209 0.929 . S
H197 C207 0.929 . S
H198 C202 0.929 . S
H199 C208 0.929 . S
C200 H194 0.930 . S
C200 C201 1.367 . S
C200 C208 1.378 . S
C201 C200 1.367 . S
C201 C209 1.433 . S
C202 H198 0.929 . S
C202 C204 1.378 . S
C202 C206 1.350 . S
C203 C206 1.463 . S
C203 C208 1.350 . S
C203 N211 1.427 . S
C204 H195 0.930 . S
C204 C202 1.378 . S
C204 C205 1.367 . S
C205 C204 1.367 . S
C205 C207 1.433 . S
C206 C202 1.350 . S
C206 C203 1.463 . S
C206 N210 1.427 . S
C207 H197 0.929 . S
C207 C205 1.433 . S
C207 N210 1.384 . S
C208 H199 0.929 . S
C208 C200 1.378 . S
C208 C203 1.350 . S
C209 H196 0.929 . S
C209 C201 1.433 . S
C209 N211 1.384 . S
N210 C206 1.427 . S
N210 C207 1.384 . S
N211 C203 1.427 . S
N211 C209 1.384 . S
H212 C218 0.930 . S
H213 C222 0.930 . S
H214 C227 0.929 . S
H215 C225 0.929 . S
H216 C220 0.929 . S
H217 C226 0.929 . S
C218 H212 0.930 . S
C218 C219 1.367 . S
C218 C226 1.378 . S
C219 C218 1.367 . S
C219 C227 1.433 . S
C220 H216 0.929 . S
C220 C222 1.378 . S
C220 C224 1.350 . S
C221 C224 1.463 . S
C221 C226 1.350 . S
C221 N229 1.427 . S
C222 H213 0.930 . S
C222 C220 1.378 . S
C222 C223 1.367 . S
C223 C222 1.367 . S
C223 C225 1.433 . S
C224 C220 1.350 . S
C224 C221 1.463 . S
C224 N228 1.427 . S
C225 H215 0.929 . S
C225 C223 1.433 . S
C225 N228 1.384 . S
C226 H217 0.929 . S
C226 C218 1.378 . S
C226 C221 1.350 . S
C227 H214 0.929 . S
C227 C219 1.433 . S
C227 N229 1.384 . S
N228 C224 1.427 . S
N228 C225 1.384 . S
N229 C221 1.427 . S
N229 C227 1.384 . S
H230 C236 0.930 . S
H231 C240 0.930 1_655 S
H232 C245 0.929 1_655 S
H233 C243 0.929 . S
H234 C238 0.929 1_655 S
H235 C244 0.929 . S
C236 H230 0.930 . S
C236 C237 1.367 . S
C236 C244 1.378 . S
C237 C236 1.367 . S
C237 C245 1.433 1_545 S
C238 H234 0.929 1_455 S
C238 C240 1.378 . S
C238 C242 1.350 . S
C239 C242 1.463 . S
C239 C244 1.350 1_565 S
C239 N247 1.427 . S
C240 H231 0.930 1_455 S
C240 C238 1.378 . S
C240 C241 1.367 . S
C241 C240 1.367 . S
C241 C243 1.433 1_565 S
C242 C238 1.350 . S
C242 C239 1.463 . S
C242 N246 1.427 1_565 S
C243 H233 0.929 . S
C243 C241 1.433 1_545 S
C243 N246 1.384 . S
C244 H235 0.929 . S
C244 C236 1.378 . S
C244 C239 1.350 1_545 S
C245 H232 0.929 1_455 S
C245 C237 1.433 1_565 S
C245 N247 1.384 . S
N246 C242 1.427 1_545 S
N246 C243 1.384 . S
N247 C239 1.427 . S
N247 C245 1.384 . S
H248 C254 0.930 . S
H249 C258 0.930 . S
H250 C263 0.929 . S
H251 C261 0.929 1_565 S
H252 C256 0.929 . S
H253 C262 0.929 . S
C254 H248 0.930 . S
C254 C255 1.367 1_665 S
C254 C262 1.378 . S
C255 C254 1.367 1_445 S
C255 C263 1.433 . S
C256 H252 0.929 . S
C256 C258 1.378 . S
C256 C260 1.350 . S
C257 C260 1.463 . S
C257 C262 1.350 1_445 S
C257 N265 1.427 . S
C258 H249 0.930 . S
C258 C256 1.378 . S
C258 C259 1.367 1_455 S
C259 C258 1.367 1_655 S
C259 C261 1.433 . S
C260 C256 1.350 . S
C260 C257 1.463 . S
C260 N264 1.427 1_455 S
C261 H251 0.929 1_545 S
C261 C259 1.433 . S
C261 N264 1.384 . S
C262 H253 0.929 . S
C262 C254 1.378 . S
C262 C257 1.350 1_665 S
C263 H250 0.929 . S
C263 C255 1.433 . S
C263 N265 1.384 . S
N264 C260 1.427 1_655 S
N264 C261 1.384 . S
N265 C257 1.427 . S
N265 C263 1.384 . S
H266 C272 0.930 . S
H267 C276 0.930 . S
H268 C281 0.929 . S
H269 C279 0.929 . S
H270 C274 0.929 . S
H271 C280 0.929 . S
C272 H266 0.930 . S
C272 C273 1.367 . S
C272 C280 1.378 . S
C273 C272 1.367 . S
C273 C281 1.433 . S
C274 H270 0.929 . S
C274 C276 1.378 . S
C274 C278 1.350 . S
C275 C278 1.463 . S
C275 C280 1.350 . S
C275 N283 1.427 . S
C276 H267 0.930 . S
C276 C274 1.378 . S
C276 C277 1.367 . S
C277 C276 1.367 . S
C277 C279 1.433 . S
C278 C274 1.350 . S
C278 C275 1.463 . S
C278 N282 1.427 . S
C279 H269 0.929 . S
C279 C277 1.433 . S
C279 N282 1.384 . S
C280 H271 0.929 . S
C280 C272 1.378 . S
C280 C275 1.350 . S
C281 H268 0.929 . S
C281 C273 1.433 . S
C281 N283 1.384 . S
N282 C278 1.427 . S
N282 C279 1.384 . S
N283 C275 1.427 . S
N283 C281 1.384 . S
H284 C290 0.930 . S
H285 C294 0.930 . S
H286 C299 0.929 . S
H287 C297 0.929 . S
H288 C292 0.929 . S
H289 C298 0.929 . S
C290 H284 0.930 . S
C290 C291 1.367 . S
C290 C298 1.378 . S
C291 C290 1.367 . S
C291 C299 1.433 . S
C292 H288 0.929 . S
C292 C294 1.378 . S
C292 C296 1.350 . S
C293 C296 1.463 . S
C293 C298 1.350 . S
C293 N301 1.427 . S
C294 H285 0.930 . S
C294 C292 1.378 . S
C294 C295 1.367 . S
C295 C294 1.367 . S
C295 C297 1.433 . S
C296 C292 1.350 . S
C296 C293 1.463 . S
C296 N300 1.427 . S
C297 H287 0.929 . S
C297 C295 1.433 . S
C297 N300 1.384 . S
C298 H289 0.929 . S
C298 C290 1.378 . S
C298 C293 1.350 . S
C299 H286 0.929 . S
C299 C291 1.433 . S
C299 N301 1.384 . S
N300 C296 1.427 . S
N300 C297 1.384 . S
N301 C293 1.427 . S
N301 C299 1.384 . S
C97 C81 1.444 . S
C93 C15 1.325 . S
C111 C13 1.417 . S
C115 N68 1.395 . S
C129 C18 1.268 1_554 S
C133 N79 1.428 . S
C147 C17 1.425 . S
C151 C70 1.457 . S
C165 C36 1.314 . S
C169 C59 1.448 . S
C183 C34 1.423 . S
C187 N46 1.404 . S
C205 N57 1.420 . S
C201 C39 1.270 . S
C223 C48 1.458 . S
C219 C38 1.429 . S
C237 C14 1.562 . S
C241 C51 1.613 . S
C255 C16 1.384 . S
C259 C62 1.420 . S
C277 C73 1.611 . S
C273 C35 1.568 . S
C291 C37 1.386 . S
C295 C84 1.421 . S
