# Generated by pormake.
# Topology pth, (4,4)-cn, num edge types: 1
# Building blocks:
#     Node 0, Type 0, BuildingBlock: QUQFOY_clean_sbu_3, # of connection points: 4
#     Node 1, Type 0, BuildingBlock: QUQFOY_clean_sbu_3, # of connection points: 4
#     Node 2, Type 0, BuildingBlock: QUQFOY_clean_sbu_3, # of connection points: 4
#     Node 3, Type 1, BuildingBlock: NAHDIM_clean_linker_0, # of connection points: 4
#     Node 4, Type 1, BuildingBlock: NAHDIM_clean_linker_0, # of connection points: 4
#     Node 5, Type 1, BuildingBlock: NAHDIM_clean_linker_0, # of connection points: 4
#     Edge 6, Type (0, 1), BuildingBlock: FUNLAD_clean_linker_1, # of connection points: 2
#     Edge 7, Type (0, 1), BuildingBlock: FUNLAD_clean_linker_1, # of connection points: 2
#     Edge 8, Type (0, 1), BuildingBlock: FUNLAD_clean_linker_1, # of connection points: 2
#     Edge 9, Type (0, 1), BuildingBlock: FUNLAD_clean_linker_1, # of connection points: 2
#     Edge 10, Type (0, 1), BuildingBlock: FUNLAD_clean_linker_1, # of connection points: 2
#     Edge 11, Type (0, 1), BuildingBlock: FUNLAD_clean_linker_1, # of connection points: 2
#     Edge 12, Type (0, 1), BuildingBlock: FUNLAD_clean_linker_1, # of connection points: 2
#     Edge 13, Type (0, 1), BuildingBlock: FUNLAD_clean_linker_1, # of connection points: 2
#     Edge 14, Type (0, 1), BuildingBlock: FUNLAD_clean_linker_1, # of connection points: 2
#     Edge 15, Type (0, 1), BuildingBlock: FUNLAD_clean_linker_1, # of connection points: 2
#     Edge 16, Type (0, 1), BuildingBlock: FUNLAD_clean_linker_1, # of connection points: 2
#     Edge 17, Type (0, 1), BuildingBlock: FUNLAD_clean_linker_1, # of connection points: 2
# Relax obj value: 0.008
# Max RMSD: 0.056
# Mean RMSD: 0.049
data_MOF--net-pth--node1-QUQFOY_clean_sbu_3--node2-NAHDIM_clean_linker_0--edge1-FUNLAD_clean_linker_1
_symmetry_space_group_name_H-M    P1
_symmetry_Int_Tables_number       1
_symmetry_cell_setting            triclinic
loop_
_symmetry_equiv_pos_as_xyz
'x, y, z'
_cell_length_a     32.926915
_cell_length_b     32.583425
_cell_length_c     85.183214
_cell_angle_alpha  89.63711
_cell_angle_beta   91.499083
_cell_angle_gamma 120.79449
loop_
_atom_site_label
_atom_site_type_symbol
_atom_site_fract_x
_atom_site_fract_y
_atom_site_fract_z
_atom_type_partial_charge
C0 C 0.98066 0.12307 0.07926 0.0
O1 O 0.9481 0.12011 0.07017 0.0
Cd2 Cd 0.92887 0.07433 0.04608 0.0
O3 O 0.00113 0.10005 0.0762 0.0
Cd4 Cd 0.99716 0.04293 0.05648 0.0
C5 C 0.0362 0.12784 0.02882 0.0
O6 O 0.91118 0.99375 0.05114 0.0
O7 O 0.95704 0.98653 0.03504 0.0
O8 O 0.00106 0.99746 0.07855 0.0
C9 C 0.91564 0.9709 0.03995 0.0
O10 O 0.99405 0.11967 0.02826 0.0
C11 C 0.03599 0.99509 0.07378 0.0
O12 O 0.04875 0.10696 0.03881 0.0
O13 O 0.05386 0.01575 0.06095 0.0
C14 C 0.1275 0.06714 0.40552 0.0
O15 O 0.15267 0.08655 0.39363 0.0
Cd16 Cd 0.11874 0.10313 0.37085 0.0
O17 O 0.08539 0.05894 0.40589 0.0
Cd18 Cd 0.0278 0.07032 0.39015 0.0
C19 C 0.02277 0.99101 0.36374 0.0
O20 O 0.08308 0.14825 0.37889 0.0
O21 O 0.01159 0.1114 0.36915 0.0
O22 O 0.01323 0.09475 0.41522 0.0
C23 C 0.05208 0.14891 0.36988 0.0
O24 O 0.06348 0.02421 0.35967 0.0
C25 C 0.96853 0.06965 0.41414 0.0
O26 O 0.00168 0.99716 0.37498 0.0
O27 O 0.9506 0.04398 0.40185 0.0
C28 C 0.97108 0.10062 0.71717 0.0
O29 O 0.96979 0.1208 0.72971 0.0
Cd30 Cd 0.01758 0.12971 0.75268 0.0
O31 O -0.00031 0.08549 0.71596 0.0
Cd32 Cd 0.06346 0.08287 0.73134 0.0
C33 C 0.98299 0.01173 0.75825 0.0
O34 O 0.09615 0.16145 0.74332 0.0
O35 O 0.12587 0.11963 0.75188 0.0
O36 O 0.10454 0.09849 0.70659 0.0
C37 C 0.12617 0.15863 0.75216 0.0
O38 O 0.98237 0.04841 0.76299 0.0
C39 C 0.11193 0.06401 0.70776 0.0
O40 O 0.00792 0.01416 0.74673 0.0
O41 O 0.0971 0.03831 0.71995 0.0
C42 C 0.93262 0.6391 0.32289 0.0
C43 C 0.97518 0.67881 0.31443 0.0
C44 C 0.98591 0.66116 0.28791 0.0
C45 C 0.03521 0.68385 0.28714 0.0
C46 C 0.05624 0.66614 0.27724 0.0
C47 C 0.02719 0.62433 0.26818 0.0
C48 C 0.9773 0.60268 0.26846 0.0
C49 C 0.95735 0.62209 0.27813 0.0
C50 C 0.10947 0.69121 0.27689 0.0
C51 C 0.94493 0.55765 0.2592 0.0
C52 C 0.19761 0.52174 0.33399 0.0
C53 C 0.15944 0.48372 0.32311 0.0
C54 C 0.15081 0.50395 0.29616 0.0
C55 C 0.10132 0.47802 0.29444 0.0
C56 C 0.07832 0.49068 0.28297 0.0
C57 C 0.10546 0.53024 0.27316 0.0
C58 C 0.15551 0.55512 0.2745 0.0
C59 C 0.17749 0.54096 0.28582 0.0
C60 C 0.02506 0.46246 0.28157 0.0
C61 C 0.18585 0.59791 0.26443 0.0
C62 C 0.10062 0.4234 0.17732 0.0
C63 C 0.05471 0.41252 0.18083 0.0
C64 C 0.04655 0.44799 0.18644 0.0
C65 C 0.08503 0.49527 0.18852 0.0
C66 C 0.13083 0.50687 0.18413 0.0
C67 C 0.13793 0.47071 0.17846 0.0
C68 C 0.99701 0.43471 0.19058 0.0
C69 C 0.17246 0.55707 0.18598 0.0
C70 C 0.09498 0.81238 0.17067 0.0
C71 C 0.08605 0.78401 0.15537 0.0
C72 C 0.05507 0.70268 0.16556 0.0
C73 C 0.01399 0.65854 0.16787 0.0
C74 C 0.01509 0.62268 0.17679 0.0
C75 C 0.05849 0.63138 0.18356 0.0
C76 C 0.10045 0.67542 0.18091 0.0
C77 C 0.09838 0.71052 0.1719 0.0
C78 C 0.96985 0.57592 0.17928 0.0
C79 C 0.14747 0.6857 0.18783 0.0
C80 C 0.04846 0.59996 0.26 0.0
C81 C 0.06478 0.57555 0.26929 0.0
C82 C 0.08195 0.54862 0.26255 0.0
C83 C 0.07996 0.54316 0.24606 0.0
C84 C 0.09198 0.5122 0.23893 0.0
C85 C 0.09044 0.5076 0.22265 0.0
C86 C 0.07833 0.53501 0.21291 0.0
C87 C 0.07771 0.53147 0.19635 0.0
C88 C 0.06954 0.56216 0.18704 0.0
C89 C 0.06032 0.59542 0.19386 0.0
C90 C 0.05675 0.59658 0.21035 0.0
C91 C 0.04407 0.62706 0.21755 0.0
C92 C 0.04064 0.6278 0.2338 0.0
C93 C 0.05136 0.59933 0.24348 0.0
C94 C 0.06584 0.56967 0.23649 0.0
C95 C 0.06677 0.56693 0.2199 0.0
C96 C 0.12124 0.32778 0.18361 0.0
C97 C 0.0859 0.34185 0.17756 0.0
O98 O 0.96529 0.67537 0.29841 0.0
O99 O 0.05112 0.73664 0.15739 0.0
O100 O 0.11026 0.38929 0.17298 0.0
O101 O 0.17385 0.49449 0.30774 0.0
H102 H 0.00572 0.67391 0.31716 0.0
H103 H 0.92564 0.60373 0.31878 0.0
H104 H 0.90042 0.64119 0.32044 0.0
H105 H 0.93986 0.64179 0.33577 0.0
H106 H 0.05712 0.71493 0.29449 0.0
H107 H 0.91927 0.60525 0.27875 0.0
H108 H 0.12179 0.67088 0.28405 0.0
H109 H 0.12651 0.7281 0.28175 0.0
H110 H 0.12134 0.69281 0.2647 0.0
H111 H 0.90713 0.5428 0.26193 0.0
H112 H 0.95435 0.53 0.2617 0.0
H113 H 0.94925 0.56537 0.24645 0.0
H114 H 0.12637 0.4844 0.32491 0.0
H115 H 0.18679 0.514 0.34642 0.0
H116 H 0.2029 0.55737 0.33101 0.0
H117 H 0.23174 0.52298 0.33273 0.0
H118 H 0.08069 0.44807 0.30208 0.0
H119 H 0.21571 0.56018 0.28713 0.0
H120 H 0.01079 0.48399 0.28639 0.0
H121 H 0.00969 0.4283 0.2881 0.0
H122 H 0.01338 0.45459 0.26904 0.0
H123 H 0.22387 0.61603 0.26801 0.0
H124 H 0.17396 0.62417 0.26511 0.0
H125 H 0.18219 0.5864 0.25199 0.0
H126 H 0.06246 0.33638 0.18752 0.0
H127 H 0.02526 0.37634 0.17929 0.0
H128 H 0.17306 0.47891 0.17543 0.0
H129 H 0.99528 0.43812 0.20347 0.0
H130 H 0.97033 0.39756 0.18695 0.0
H131 H 0.98767 0.45963 0.18487 0.0
H132 H 0.20579 0.56037 0.18192 0.0
H133 H 0.17728 0.5682 0.19851 0.0
H134 H 0.16547 0.58208 0.17917 0.0
H135 H 0.11925 0.78623 0.15164 0.0
H136 H 0.12277 0.85039 0.16904 0.0
H137 H 0.10728 0.79787 0.18027 0.0
H138 H 0.06201 0.81065 0.17437 0.0
H139 H 0.98077 0.65254 0.16286 0.0
H140 H 0.13075 0.74406 0.17008 0.0
H141 H 0.96224 0.57108 0.192 0.0
H142 H 0.97398 0.54584 0.17535 0.0
H143 H 0.93919 0.57406 0.17283 0.0
H144 H 0.17712 0.72124 0.18436 0.0
H145 H 0.15502 0.65785 0.18396 0.0
H146 H 0.146 0.68442 0.20084 0.0
H147 H 0.06464 0.57802 0.28198 0.0
H148 H 0.10215 0.4908 0.24588 0.0
H149 H 0.09974 0.48295 0.21781 0.0
H150 H 0.07109 0.56065 0.17437 0.0
H151 H 0.03597 0.65016 0.21068 0.0
H152 H 0.03026 0.65152 0.23874 0.0
H153 H 0.10239 0.28968 0.18718 0.0
H154 H 0.14115 0.35008 0.19402 0.0
H155 H 0.14701 0.33332 0.17447 0.0
C156 C 0.22638 0.9056 0.61828 0.0
C157 C 0.26484 0.9378 0.63035 0.0
C158 C 0.33587 0.98983 0.61517 0.0
C159 C 0.36547 0.03667 0.61018 0.0
C160 C 0.40601 0.04926 0.60162 0.0
C161 C 0.4171 0.01391 0.59796 0.0
C162 C 0.3872 0.96629 0.60287 0.0
C163 C 0.34676 0.95463 0.61138 0.0
C164 C 0.43713 0.10036 0.59654 0.0
C165 C 0.39813 0.92778 0.59913 0.0
C166 C 0.65078 0.00961 0.65156 0.0
C167 C 0.69318 0.04443 0.64178 0.0
C168 C 0.65464 0.07343 0.62345 0.0
C169 C 0.62907 0.03077 0.61469 0.0
C170 C 0.59407 0.02456 0.60361 0.0
C171 C 0.58524 0.06223 0.6009 0.0
C172 C 0.61261 0.10612 0.60906 0.0
C173 C 0.64693 0.11108 0.62026 0.0
C174 C 0.56536 0.97703 0.59522 0.0
C175 C 0.60466 0.14726 0.60626 0.0
C176 C 0.67243 0.08406 0.49901 0.0
C177 C 0.64663 0.03866 0.5058 0.0
C178 C 0.6055 0.02556 0.5141 0.0
C179 C 0.58994 0.05854 0.51564 0.0
C180 C 0.61542 0.10396 0.50857 0.0
C181 C 0.6561 0.1159 0.50019 0.0
C182 C 0.57834 0.97628 0.5211 0.0
C183 C 0.59966 0.13986 0.5099 0.0
C184 C 0.20205 0.88413 0.49447 0.0
C185 C 0.24944 0.92953 0.49158 0.0
C186 C 0.328 0.94219 0.49768 0.0
C187 C 0.35004 0.91684 0.5021 0.0
C188 C 0.39399 0.93947 0.51011 0.0
C189 C 0.41685 0.98902 0.51342 0.0
C190 C 0.39599 0.01549 0.50816 0.0
C191 C 0.35157 0.99175 0.50038 0.0
C192 C 0.41544 0.91018 0.51537 0.0
C193 C 0.4202 0.06863 0.51105 0.0
C194 C 0.46054 0.02702 0.58927 0.0
C195 C 0.50219 0.04128 0.598 0.0
C196 C 0.54443 0.05379 0.59067 0.0
C197 C 0.54576 0.05373 0.57409 0.0
C198 C 0.58811 0.06834 0.5663 0.0
C199 C 0.58863 0.06644 0.54998 0.0
C200 C 0.54668 0.04916 0.54086 0.0
C201 C 0.5464 0.04513 0.52432 0.0
C202 C 0.50386 0.02675 0.51568 0.0
C203 C 0.46129 0.0123 0.52309 0.0
C204 C 0.46099 0.01707 0.53957 0.0
C205 C 0.41885 0.00356 0.54738 0.0
C206 C 0.41875 0.00765 0.56362 0.0
C207 C 0.46057 0.02432 0.57272 0.0
C208 C 0.50344 0.03806 0.5651 0.0
C209 C 0.50377 0.03509 0.54849 0.0
C210 C 0.78549 0.13007 0.50471 0.0
C211 C 0.7478 0.08868 0.49461 0.0
O212 O 0.29744 0.98054 0.62352 0.0
O213 O 0.28409 0.91757 0.49089 0.0
O214 O 0.71198 0.09768 0.49072 0.0
O215 O 0.68588 0.07933 0.63528 0.0
H216 H 0.28258 0.91899 0.63516 0.0
H217 H 0.24218 0.89686 0.60844 0.0
H218 H 0.20803 0.92371 0.61341 0.0
H219 H 0.19999 0.8716 0.62383 0.0
H220 H 0.35674 0.06355 0.61309 0.0
H221 H 0.32405 0.91804 0.61496 0.0
H222 H 0.47323 0.11505 0.60177 0.0
H223 H 0.4232 0.12349 0.60009 0.0
H224 H 0.44029 0.10171 0.58357 0.0
H225 H 0.37123 0.89234 0.6037 0.0
H226 H 0.43327 0.93752 0.60431 0.0
H227 H 0.39993 0.92485 0.58622 0.0
H228 H 0.69876 0.02463 0.63229 0.0
H229 H 0.65734 0.98245 0.65707 0.0
H230 H 0.61812 0.99039 0.64413 0.0
H231 H 0.64457 0.02917 0.66095 0.0
H232 H 0.63521 0.00156 0.61666 0.0
H233 H 0.66714 0.14409 0.6269 0.0
H234 H 0.57159 0.98196 0.58243 0.0
H235 H 0.52704 0.96244 0.59692 0.0
H236 H 0.57448 0.95032 0.59943 0.0
H237 H 0.63289 0.18087 0.61189 0.0
H238 H 0.57017 0.13845 0.61111 0.0
H239 H 0.60312 0.15323 0.59346 0.0
H240 H 0.73445 0.0551 0.50136 0.0
H241 H 0.65764 0.01286 0.5043 0.0
H242 H 0.67584 0.15054 0.49468 0.0
H243 H 0.578 0.97926 0.53406 0.0
H244 H 0.59384 0.95401 0.51825 0.0
H245 H 0.54104 0.95778 0.5167 0.0
H246 H 0.62483 0.17462 0.50448 0.0
H247 H 0.59595 0.14604 0.52245 0.0
H248 H 0.56442 0.12547 0.50401 0.0
H249 H 0.25661 0.9543 0.50163 0.0
H250 H 0.17354 0.89266 0.49539 0.0
H251 H 0.2042 0.86755 0.50566 0.0
H252 H 0.19274 0.8579 0.48476 0.0
H253 H 0.33185 0.87877 0.49972 0.0
H254 H 0.33542 0.01192 0.49645 0.0
H255 H 0.42211 0.91381 0.52828 0.0
H256 H 0.45001 0.9238 0.50973 0.0
H257 H 0.39235 0.8717 0.51235 0.0
H258 H 0.40168 0.08483 0.50489 0.0
H259 H 0.45726 0.08647 0.50709 0.0
H260 H 0.42142 0.07566 0.52383 0.0
H261 H 0.50143 0.04152 0.61074 0.0
H262 H 0.62128 0.08136 0.57276 0.0
H263 H 0.62223 0.07807 0.54461 0.0
H264 H 0.50375 0.02277 0.50304 0.0
H265 H 0.38542 0.98973 0.54103 0.0
H266 H 0.38531 0.99684 0.56898 0.0
H267 H 0.80052 0.16425 0.49819 0.0
H268 H 0.81451 0.12361 0.50816 0.0
H269 H 0.76948 0.1334 0.51559 0.0
C270 C 0.69686 0.67071 0.79555 0.0
C271 C 0.70429 0.70918 0.80741 0.0
C272 C 0.68596 0.67992 0.83398 0.0
C273 C 0.66017 0.70053 0.83903 0.0
C274 C 0.62612 0.6785 0.8506 0.0
C275 C 0.61755 0.63479 0.85713 0.0
C276 C 0.64507 0.61507 0.85252 0.0
C277 C 0.67959 0.63845 0.84115 0.0
C278 C 0.59828 0.70116 0.85549 0.0
C279 C 0.63671 0.56835 0.85912 0.0
C280 C 0.25407 0.45541 0.84093 0.0
C281 C 0.28551 0.44708 0.83002 0.0
C282 C 0.35697 0.46494 0.84553 0.0
C283 C 0.38284 0.44495 0.85149 0.0
C284 C 0.42736 0.47339 0.85882 0.0
C285 C 0.44584 0.52307 0.86062 0.0
C286 C 0.41998 0.5437 0.85457 0.0
C287 C 0.37597 0.51451 0.84695 0.0
C288 C 0.45441 0.45019 0.86473 0.0
C289 C 0.4386 0.59652 0.8563 0.0
C290 C 0.38656 0.45803 0.9619 0.0
C291 C 0.40859 0.43787 0.95371 0.0
C292 C 0.44985 0.46684 0.94538 0.0
C293 C 0.46895 0.5169 0.94509 0.0
C294 C 0.44768 0.53739 0.95383 0.0
C295 C 0.407 0.5076 0.96233 0.0
C296 C 0.47266 0.44388 0.93672 0.0
C297 C 0.46731 0.5906 0.95392 0.0
C298 C 0.82521 0.71043 0.98956 0.0
C299 C 0.77759 0.70251 0.98344 0.0
C300 C 0.72542 0.65879 0.9608 0.0
C301 C 0.71047 0.61851 0.95132 0.0
C302 C 0.6687 0.59952 0.94212 0.0
C303 C 0.6419 0.62235 0.94212 0.0
C304 C 0.65795 0.66444 0.95117 0.0
C305 C 0.6995 0.68217 0.96046 0.0
C306 C 0.65246 0.55419 0.93282 0.0
C307 C 0.63067 0.69011 0.95127 0.0
C308 C 0.57679 0.60751 0.86752 0.0
C309 C 0.5321 0.58007 0.86029 0.0
C310 C 0.49178 0.55315 0.86912 0.0
C311 C 0.49584 0.5536 0.88569 0.0
C312 C 0.4558 0.528 0.89495 0.0
C313 C 0.46029 0.52669 0.91118 0.0
C314 C 0.50502 0.55077 0.91878 0.0
C315 C 0.51009 0.54751 0.9352 0.0
C316 C 0.55501 0.57201 0.94239 0.0
C317 C 0.59538 0.60009 0.93365 0.0
C318 C 0.59102 0.60402 0.91721 0.0
C319 C 0.6307 0.6324 0.90804 0.0
C320 C 0.62613 0.63428 0.89178 0.0
C321 C 0.58174 0.60763 0.88408 0.0
C322 C 0.54108 0.58013 0.89316 0.0
C323 C 0.54569 0.57854 0.90974 0.0
C324 C 0.27704 0.41004 0.95398 0.0
C325 C 0.3056 0.39193 0.96301 0.0
O326 O 0.7164 0.69893 0.82201 0.0
O327 O 0.76422 0.67302 0.97032 0.0
O328 O 0.34589 0.43053 0.96962 0.0
O329 O 0.3138 0.43492 0.83878 0.0
H330 H 0.67049 0.70916 0.80777 0.0
H331 H 0.66754 0.63538 0.79932 0.0
H332 H 0.72936 0.66858 0.79469 0.0
H333 H 0.68734 0.67859 0.78376 0.0
H334 H 0.66635 0.73355 0.83377 0.0
H335 H 0.70022 0.62325 0.83726 0.0
H336 H 0.56145 0.67958 0.85076 0.0
H337 H 0.61373 0.73824 0.85108 0.0
H338 H 0.59672 0.70169 0.86849 0.0
H339 H 0.66007 0.55703 0.85392 0.0
H340 H 0.5993 0.53989 0.8569 0.0
H341 H 0.64309 0.57177 0.87203 0.0
H342 H 0.30738 0.47976 0.82301 0.0
H343 H 0.23153 0.46553 0.83398 0.0
H344 H 0.27595 0.48472 0.84942 0.0
H345 H 0.23099 0.42252 0.84767 0.0
H346 H 0.368 0.40675 0.8503 0.0
H347 H 0.35649 0.53066 0.8424 0.0
H348 H 0.45471 0.44976 0.87776 0.0
H349 H 0.49171 0.47099 0.86101 0.0
H350 H 0.43844 0.41284 0.8604 0.0
H351 H 0.41233 0.60634 0.85228 0.0
H352 H 0.47087 0.61677 0.84929 0.0
H353 H 0.44868 0.60774 0.86877 0.0
H354 H 0.31483 0.37183 0.95475 0.0
H355 H 0.39383 0.39958 0.95393 0.0
H356 H 0.39003 0.52275 0.96893 0.0
H357 H 0.4673 0.44585 0.92388 0.0
H358 H 0.45753 0.40576 0.93991 0.0
H359 H 0.51136 0.46336 0.93928 0.0
H360 H 0.44508 0.60064 0.96058 0.0
H361 H 0.47008 0.6036 0.94169 0.0
H362 H 0.50349 0.6091 0.9593 0.0
H363 H 0.78272 0.73781 0.98002 0.0
H364 H 0.84071 0.73837 -0.00117 0.0
H365 H 0.8506 0.72272 0.97984 0.0
H366 H 0.82122 0.67672 0.9943 0.0
H367 H 0.73091 0.60093 0.95159 0.0
H368 H 0.71133 0.71405 0.96745 0.0
H369 H 0.65226 0.56155 0.92009 0.0
H370 H 0.61574 0.52691 0.93589 0.0
H371 H 0.67562 0.53907 0.93496 0.0
H372 H 0.65085 0.72551 0.95723 0.0
H373 H 0.59711 0.66802 0.95751 0.0
H374 H 0.62142 0.69518 0.93907 0.0
H375 H 0.52869 0.57935 0.84757 0.0
H376 H 0.42051 0.50833 0.88974 0.0
H377 H 0.42821 0.50607 0.91767 0.0
H378 H 0.55868 0.56854 0.95495 0.0
H379 H 0.66578 0.65317 0.91335 0.0
H380 H 0.65788 0.65639 0.88528 0.0
H381 H 0.26655 0.42963 0.96199 0.0
H382 H 0.24473 0.37981 0.94841 0.0
H383 H 0.29871 0.43464 0.94455 0.0
H384 H 0.02665 0.15711 0.10004 0.0
C385 C 0.99653 0.1539 0.09337 0.0
H386 H 0.94685 0.17652 0.09147 0.0
H387 H 0.05294 0.22811 0.16353 0.0
H388 H 0.01382 0.14259 0.16708 0.0
H389 H 0.96353 0.08708 0.1459 0.0
H390 H 0.95336 0.11709 0.12087 0.0
C391 C 0.97617 0.1782 0.09819 0.0
C392 C 0.9961 0.21086 0.11209 0.0
C393 C -0.00117 0.19279 0.12704 0.0
C394 C 0.02517 0.2248 0.13959 0.0
C395 C 0.03113 0.20567 0.15387 0.0
C396 C 0.00918 0.15651 0.15603 0.0
C397 C 0.98107 0.12527 0.14409 0.0
C398 C 0.97586 0.14298 0.12974 0.0
H399 H 0.0185 0.28563 0.16595 0.0
C400 C 0.05592 0.31007 0.16408 0.0
H401 H 0.11177 0.33415 0.14831 0.0
H402 H 0.99444 0.25725 0.08535 0.0
H403 H 0.02823 0.34262 0.08238 0.0
H404 H 0.06943 0.39784 0.10464 0.0
H405 H 0.07754 0.36805 0.12999 0.0
C406 C 0.07465 0.30894 0.15038 0.0
C407 C 0.04572 0.27482 0.13752 0.0
C408 C 0.04027 0.29265 0.12289 0.0
C409 C 0.01571 0.2607 0.11013 0.0
C410 C 0.01218 0.27975 0.0955 0.0
C411 C 0.03145 0.32873 0.09362 0.0
C412 C 0.0547 0.35983 0.10615 0.0
C413 C 0.0592 0.34224 0.12063 0.0
H414 H 0.95799 0.0912 0.43735 0.0
C415 C 0.93962 0.07141 0.42671 0.0
H416 H 0.87341 0.03093 0.41489 0.0
H417 H 0.75687 0.97549 0.47743 0.0
H418 H 0.7399 0.89816 0.46791 0.0
H419 H 0.7804 0.89176 0.44492 0.0
H420 H 0.83777 0.96262 0.43121 0.0
C421 C 0.89248 0.05148 0.42533 0.0
C422 C 0.86528 0.05525 0.4384 0.0
C423 C 0.83198 0.01347 0.44632 0.0
C424 C 0.80927 0.01723 0.45975 0.0
C425 C 0.77575 0.97483 0.46732 0.0
C426 C 0.76556 0.93016 0.46196 0.0
C427 C 0.78832 0.92656 0.449 0.0
C428 C 0.82119 0.96757 0.44124 0.0
H429 H 0.76244 0.0975 0.46884 0.0
C430 C 0.76896 0.08399 0.47974 0.0
H431 H 0.8039 0.05208 0.49071 0.0
H432 H 0.9194 0.14154 0.42405 0.0
H433 H 0.93892 0.21921 0.43406 0.0
H434 H 0.90679 0.22655 0.45904 0.0
H435 H 0.85398 0.15634 0.47386 0.0
C436 C 0.79789 0.06624 0.47988 0.0
C437 C 0.82029 0.06279 0.46537 0.0
C438 C 0.8533 0.10463 0.45734 0.0
C439 C 0.8744 0.10067 0.44351 0.0
C440 C 0.90444 0.14268 0.43507 0.0
C441 C 0.91562 0.18748 0.44062 0.0
C442 C 0.89735 0.19159 0.45463 0.0
C443 C 0.86665 0.15083 0.46296 0.0
H444 H 0.95402 0.93435 0.7612 0.0
C445 C 0.95253 0.96485 0.76554 0.0
H446 H 0.91959 0.98827 0.7812 0.0
H447 H 0.76291 0.75628 0.77182 0.0
H448 H 0.75555 0.77591 0.74482 0.0
H449 H 0.80683 0.85761 0.73496 0.0
H450 H 0.86647 0.9197 0.75194 0.0
C451 C 0.92105 0.95815 0.77649 0.0
C452 C 0.88759 0.90974 0.78264 0.0
C453 C 0.85137 0.87447 0.7727 0.0
C454 C 0.81997 0.82813 0.77862 0.0
C455 C 0.78617 0.7927 0.76817 0.0
C456 C 0.7818 0.80338 0.75259 0.0
C457 C 0.8108 0.8493 0.74703 0.0
C458 C 0.84519 0.88456 0.7569 0.0
H459 H 0.73061 0.78232 0.79793 0.0
C460 C 0.74187 0.758 0.80212 0.0
H461 H 0.7995 0.74729 0.80561 0.0
H462 H 0.9532 0.96883 0.80472 0.0
H463 H 0.95847 0.94994 0.83203 0.0
H464 H 0.90165 0.87071 0.84259 0.0
H465 H 0.83938 0.80973 0.82588 0.0
C466 C 0.7876 0.77093 0.80127 0.0
C467 C 0.82296 0.818 0.79469 0.0
C468 C 0.85905 0.85323 0.80462 0.0
C469 C 0.89145 0.89912 0.79858 0.0
C470 C 0.92736 0.93355 0.80874 0.0
C471 C 0.93083 0.92316 0.82443 0.0
C472 C 0.89886 0.87854 0.83037 0.0
C473 C 0.8633 0.84385 0.82065 0.0
H474 H 0.08449 0.96774 0.07802 0.0
C475 C 0.05466 0.96897 0.08263 0.0
H476 H 0.00618 0.94838 0.10102 0.0
H477 H 0.06062 0.78248 0.11125 0.0
H478 H 0.01226 0.74665 0.08768 0.0
H479 H 0.98194 0.78971 0.07201 0.0
H480 H 0.00026 0.86909 0.07971 0.0
C481 C 0.03532 0.94654 0.09609 0.0
C482 C 0.05435 0.9208 0.10521 0.0
C483 C 0.04265 0.87414 0.10066 0.0
C484 C 0.05902 0.84877 0.10994 0.0
C485 C 0.04799 0.80278 0.10489 0.0
C486 C 0.02048 0.78191 0.09133 0.0
C487 C 0.00349 0.80619 0.08249 0.0
C488 C 0.01435 0.85179 0.08703 0.0
H489 H 0.03253 0.79328 0.14149 0.0
C490 C 0.07 0.80538 0.14267 0.0
H491 H 0.13898 0.85701 0.13617 0.0
H492 H 0.08394 0.01006 0.1169 0.0
H493 H 0.13141 0.04561 0.14065 0.0
H494 H 0.1586 0.00116 0.15704 0.0
H495 H 0.13864 0.92103 0.14978 0.0
C496 C 0.10132 0.84276 0.13423 0.0
C497 C 0.08613 0.86976 0.12392 0.0
C498 C 0.09842 0.91674 0.12831 0.0
C499 C 0.08242 0.94223 0.11895 0.0
C500 C 0.09493 0.98899 0.12365 0.0
C501 C 0.1222 0.00985 0.13724 0.0
C502 C 0.13754 0.98484 0.14646 0.0
C503 C 0.12587 0.93883 0.14213 0.0
H504 H 0.12224 0.03563 0.42881 0.0
C505 C 0.14548 0.05181 0.41895 0.0
H506 H 0.21196 0.07128 0.40965 0.0
H507 H 0.29519 0.06836 0.47798 0.0
H508 H 0.34094 0.1529 0.47194 0.0
H509 H 0.32337 0.18437 0.44793 0.0
H510 H 0.26014 0.13145 0.42974 0.0
C511 C 0.18758 0.05449 0.41918 0.0
C512 C 0.20171 0.03489 0.43269 0.0
C513 C 0.23886 0.06625 0.44313 0.0
C514 C 0.24862 0.04819 0.45707 0.0
C515 C 0.28594 0.08029 0.46732 0.0
C516 C 0.31253 0.12887 0.46397 0.0
C517 C 0.30266 0.14658 0.45045 0.0
C518 C 0.26626 0.11583 0.44011 0.0
H519 H 0.25521 0.94051 0.46554 0.0
C520 C 0.24681 0.95185 0.47634 0.0
H521 H 0.22062 0.99232 0.48646 0.0
H522 H 0.13454 0.96391 0.41361 0.0
H523 H 0.08793 0.87958 0.41972 0.0
H524 H 0.1002 0.84906 0.44489 0.0
H525 H 0.15968 0.90237 0.46388 0.0
C526 C 0.22915 0.98093 0.4757 0.0
C527 C 0.22111 0.99885 0.46053 0.0
C528 C 0.18481 0.96719 0.44984 0.0
C529 C 0.17603 0.98511 0.4357 0.0
C530 C 0.14127 0.95249 0.42483 0.0
C531 C 0.11448 0.90394 0.42814 0.0
C532 C 0.12152 0.88674 0.44227 0.0
C533 C 0.15611 0.9178 0.45305 0.0
H534 H 0.18268 0.19277 0.77043 0.0
C535 C 0.15755 0.19727 0.76321 0.0
H536 H 0.13056 0.24213 0.75747 0.0
H537 H 0.23298 0.3195 0.82828 0.0
H538 H 0.1733 0.24185 0.83768 0.0
H539 H 0.11712 0.17928 0.81919 0.0
H540 H 0.12107 0.19365 0.79119 0.0
C541 C 0.15476 0.23672 0.76489 0.0
C542 C 0.18603 0.27528 0.77625 0.0
C543 C 0.18162 0.2669 0.79266 0.0
C544 C 0.21221 0.30385 0.80339 0.0
C545 C 0.20916 0.29355 0.81965 0.0
C546 C 0.17529 0.24896 0.82521 0.0
C547 C 0.14381 0.21368 0.8148 0.0
C548 C 0.14672 0.22233 0.79872 0.0
H549 H 0.2173 0.39153 0.81817 0.0
C550 C 0.25548 0.40699 0.81859 0.0
H551 H 0.3131 0.40612 0.80872 0.0
H552 H 0.20434 0.30287 0.74557 0.0
H553 H 0.26216 0.38152 0.73623 0.0
H554 H 0.31251 0.44673 0.75488 0.0
H555 H 0.30561 0.43362 0.78298 0.0
C556 C 0.27489 0.38981 0.80889 0.0
C557 C 0.24521 0.34993 0.79772 0.0
C558 C 0.24954 0.3583 0.78134 0.0
C559 C 0.22001 0.3209 0.77059 0.0
C560 C 0.22543 0.33013 0.75427 0.0
C561 C 0.25855 0.37511 0.74874 0.0
C562 C 0.28694 0.4118 0.75924 0.0
C563 C 0.28263 0.40375 0.77535 0.0
H564 H 0.93763 0.07165 0.69396 0.0
C565 C 0.93767 0.09211 0.704 0.0
H566 H 0.90592 0.12777 0.71408 0.0
H567 H 0.82442 0.14023 0.64614 0.0
H568 H 0.89013 0.22167 0.64891 0.0
H569 H 0.9471 0.24528 0.67125 0.0
H570 H 0.93886 0.18737 0.69091 0.0
C571 C 0.90607 0.10647 0.70435 0.0
C572 C 0.86996 0.09297 0.6915 0.0
C573 C 0.87456 0.12745 0.68035 0.0
C574 C 0.84111 0.11404 0.66766 0.0
C575 C 0.84785 0.14874 0.65629 0.0
C576 C 0.88566 0.19557 0.65767 0.0
C577 C 0.91778 0.20885 0.67024 0.0
C578 C 0.91261 0.17529 0.68145 0.0
H579 H 0.74034 0.095 0.66072 0.0
C580 C 0.73658 0.06795 0.65242 0.0
H581 H 0.76105 0.02246 0.64573 0.0
H582 H 0.84874 0.01913 0.71166 0.0
H583 H 0.7823 0.93808 0.70927 0.0
H584 H 0.72403 0.91471 0.68735 0.0
H585 H 0.73184 0.9722 0.66771 0.0
C586 C 0.76662 0.0516 0.65337 0.0
C587 C 0.80246 0.06637 0.6664 0.0
C588 C 0.79753 0.03205 0.67771 0.0
C589 C 0.8312 0.04542 0.69031 0.0
C590 C 0.82477 0.01074 0.70166 0.0
C591 C 0.78659 0.9641 0.7005 0.0
C592 C 0.75378 0.95095 0.68816 0.0
C593 C 0.75886 0.98437 0.67692 0.0
H594 H 0.84074 0.91269 0.03909 0.0
C595 C 0.87522 0.92534 0.03412 0.0
H596 H 0.91578 0.90886 0.01944 0.0
H597 H 0.78409 0.68686 0.03016 0.0
H598 H 0.846 0.70457 0.04971 0.0
H599 H 0.90707 0.78792 0.05614 0.0
H600 H 0.90656 0.85404 0.04308 0.0
C601 C 0.88104 0.89753 0.02395 0.0
C602 C 0.84266 0.84771 0.02053 0.0
C603 C 0.84346 0.80953 0.02831 0.0
C604 C 0.80822 0.76155 0.02465 0.0
C605 C 0.8099 0.72404 0.03255 0.0
C606 C 0.84528 0.73368 0.04378 0.0
C607 C 0.87967 0.7806 0.04739 0.0
C608 C 0.87898 0.81822 0.03979 0.0
H609 H 0.7141 0.64142 0.99446 0.0
C610 C 0.74024 0.67918 0.99587 0.0
H611 H 0.70993 0.68071 0.01698 0.0
H612 H 0.83083 0.91268 0.00363 0.0
H613 H 0.76706 0.89491 0.9848 0.0
H614 H 0.70431 0.81156 0.97915 0.0
H615 H 0.70524 0.74549 0.9922 0.0
C616 C 0.73756 0.70147 0.00871 0.0
C617 C 0.77277 0.75187 0.01303 0.0
C618 C 0.77078 0.79005 0.00575 0.0
C619 C 0.8062 0.8381 0.00934 0.0
C620 C 0.80437 0.87555 0.0015 0.0
C621 C 0.768 0.86584 0.99067 0.0
C622 C 0.73272 0.81891 0.98746 0.0
C623 C 0.73381 0.78132 0.99494 0.0
H624 H 0.96553 0.91634 0.35943 0.0
C625 C 0.00084 0.94368 0.35605 0.0
H626 H 0.05973 0.95974 0.34235 0.0
H627 H 0.95096 0.72354 0.34871 0.0
H628 H 0.96743 0.73737 0.3767 0.0
H629 H 0.00361 0.81868 0.38788 0.0
H630 H 0.02219 0.8862 0.37124 0.0
C631 C 0.0247 0.93259 0.34601 0.0
C632 C 0.00456 0.88359 0.33939 0.0
C633 C 0.99615 0.8449 0.34928 0.0
C634 C 0.97816 0.79854 0.34273 0.0
C635 C 0.96699 0.75991 0.35296 0.0
C636 C 0.97589 0.76728 0.36907 0.0
C637 C 0.99603 0.81299 0.37538 0.0
C638 C 0.00618 0.85147 0.36567 0.0
H639 H 0.02167 0.74813 0.32688 0.0
C640 C 0.98805 0.7274 0.32052 0.0
H641 H 0.92556 0.72482 0.3125 0.0
H642 H 0.01488 0.94933 0.31727 0.0
H643 H 0.00111 0.93579 0.28915 0.0
H644 H 0.97418 0.85631 0.27766 0.0
H645 H 0.96048 0.78978 0.29421 0.0
C646 C 0.95876 0.74462 0.31913 0.0
C647 C 0.97176 0.79159 0.32621 0.0
C648 C 0.97962 0.83005 0.31636 0.0
C649 C 0.99585 0.87605 0.32297 0.0
C650 C 0.00316 0.9138 0.31286 0.0
C651 C 0.99529 0.9065 0.2967 0.0
C652 C 0.98008 0.86174 0.29023 0.0
C653 C 0.97232 0.82384 0.29988 0.0
H654 H 0.14651 0.07697 0.68497 0.0
C655 C 0.1362 0.05438 0.69529 0.0
H656 H 0.134 0.99497 0.70624 0.0
H657 H 0.14552 0.90361 0.64242 0.0
H658 H 0.06565 0.84674 0.65023 0.0
H659 H 0.03133 0.86295 0.67308 0.0
H660 H 0.07664 0.93616 0.68825 0.0
C661 C 0.14539 0.01874 0.69622 0.0
C662 C 0.16741 0.00812 0.683 0.0
C663 C 0.14064 0.96475 0.67441 0.0
C664 C 0.16051 0.95523 0.6613 0.0
C665 C 0.13251 0.91229 0.65265 0.0
C666 C 0.0865 0.87941 0.65696 0.0
C667 C 0.06717 0.88855 0.66982 0.0
C668 C 0.09365 0.93072 0.67845 0.0
H669 H 0.23781 0.92749 0.65475 0.0
C670 C 0.24303 0.94782 0.64405 0.0
H671 H 0.23356 0.00016 0.63262 0.0
H672 H 0.23066 0.09186 0.69811 0.0
H673 H 0.31052 0.14856 0.69027 0.0
H674 H 0.34397 0.13314 0.66701 0.0
H675 H 0.29782 0.06064 0.65153 0.0
C676 C 0.22826 0.97932 0.64319 0.0
C677 C 0.20727 0.98889 0.6569 0.0
C678 C 0.23424 0.03196 0.66557 0.0
C679 C 0.21457 0.04133 0.67878 0.0
C680 C 0.24317 0.08365 0.68766 0.0
C681 C 0.28926 0.11635 0.68336 0.0
C682 C 0.30812 0.10763 0.67028 0.0
C683 C 0.28119 0.06592 0.66148 0.0
H684 H 0.05697 0.17542 0.00837 0.0
C685 C 0.07047 0.16269 0.01781 0.0
H686 H 0.13135 0.16789 0.02869 0.0
H687 H 0.25965 0.2489 0.96937 0.0
H688 H 0.25477 0.17266 0.97298 0.0
H689 H 0.20187 0.11525 0.99253 0.0
H690 H 0.15389 0.13392 0.00871 0.0
C691 C 0.11731 0.1806 0.01943 0.0
C692 C 0.15084 0.21641 0.00817 0.0
C693 C 0.17834 0.20471 -0.00129 0.0
C694 C 0.20813 0.23743 0.98721 0.0
C695 C 0.23579 0.22511 0.9781 0.0
C696 C 0.23344 0.18148 0.98007 0.0
C697 C 0.20371 0.14919 0.99109 0.0
C698 C 0.17638 0.16043 0.00032 0.0
H699 H 0.28419 0.37121 0.98796 0.0
C700 C 0.27654 0.35851 0.97586 0.0
H701 H 0.23273 0.30156 0.96047 0.0
H702 H 0.11065 0.25442 0.02648 0.0
H703 H 0.1125 0.32893 0.02213 0.0
H704 H 0.15633 0.3812 0.00011 0.0
H705 H 0.19969 0.36 0.98267 0.0
C706 C 0.23989 0.31454 0.97254 0.0
C707 C 0.20988 0.28149 0.98502 0.0
C708 C 0.18233 0.29321 0.9945 0.0
C709 C 0.15428 0.26146 0.00649 0.0
C710 C 0.13027 0.27583 0.01662 0.0
C711 C 0.13138 0.31874 0.01434 0.0
C712 C 0.15625 0.34827 0.002 0.0
C713 C 0.18141 0.33583 0.99215 0.0
H714 H 0.03144 0.19119 0.35505 0.0
C715 C 0.06098 0.19214 0.36141 0.0
H716 H 0.13267 0.23454 0.36861 0.0
H717 H 0.09534 0.35428 0.31093 0.0
H718 H 0.08269 0.28956 0.29373 0.0
H719 H 0.0841 0.21958 0.30426 0.0
H720 H 0.09724 0.21352 0.33212 0.0
C721 C 0.10328 0.23273 0.36189 0.0
C722 C 0.10916 0.27758 0.35508 0.0
C723 C 0.10362 0.28152 0.33866 0.0
C724 C 0.10512 0.32293 0.33249 0.0
C725 C 0.09653 0.32461 0.31618 0.0
C726 C 0.0889 0.28753 0.30617 0.0
C727 C 0.08951 0.24804 0.31211 0.0
C728 C 0.09677 0.24488 0.32815 0.0
H729 H 0.17846 0.42687 0.32359 0.0
C730 C 0.15218 0.43544 0.32719 0.0
H731 H 0.09238 0.41505 0.3408 0.0
H732 H 0.12227 0.28196 0.38709 0.0
H733 H 0.13902 0.34841 0.4041 0.0
H734 H 0.14567 0.42189 0.39324 0.0
H735 H 0.13513 0.42914 0.36531 0.0
C736 C 0.11698 0.40521 0.33642 0.0
C737 C 0.11447 0.36127 0.34266 0.0
C738 C 0.12152 0.35794 0.35901 0.0
C739 C 0.11864 0.31597 0.36523 0.0
C740 C 0.12475 0.31323 0.38166 0.0
C741 C 0.13433 0.35112 0.39159 0.0
C742 C 0.138 0.39245 0.38548 0.0
C743 C 0.13173 0.39605 0.3694 0.0
loop_
_geom_bond_atom_site_label_1
_geom_bond_atom_site_label_2
_geom_bond_distance
_geom_bond_site_symmetry_2
_ccdc_geom_bond_type
C0 O1 1.315 . S
C0 O3 1.160 . S
O1 C0 1.315 . S
O1 Cd2 2.226 1_455 S
Cd2 O1 2.226 1_655 S
Cd2 O6 2.273 . S
Cd2 O10 2.277 1_655 S
O3 C0 1.160 . S
O3 Cd4 2.203 . S
Cd4 O3 2.203 . S
Cd4 O6 2.411 1_455 S
Cd4 O7 2.333 1_545 S
Cd4 O8 2.352 1_545 S
Cd4 O12 2.277 . S
Cd4 O13 2.356 1_545 S
C5 O10 1.209 . S
C5 O12 1.226 . S
O6 Cd2 2.273 . S
O6 Cd4 2.411 1_655 S
O6 C9 1.320 1_545 S
O7 Cd4 2.333 1_565 S
O7 C9 1.214 1_455 S
O8 Cd4 2.352 1_565 S
O8 C11 1.258 . S
C9 O6 1.320 1_565 S
C9 O7 1.214 1_655 S
O10 Cd2 2.277 1_455 S
O10 C5 1.209 . S
C11 O8 1.258 . S
C11 O13 1.282 . S
O12 Cd4 2.277 . S
O12 C5 1.226 . S
O13 Cd4 2.356 1_565 S
O13 C11 1.282 . S
C14 O15 1.306 . S
C14 O17 1.160 . S
O15 C14 1.306 . S
O15 Cd16 2.228 . S
Cd16 O15 2.228 . S
Cd16 O20 2.273 . S
Cd16 O24 2.277 . S
O17 C14 1.160 . S
O17 Cd18 2.203 . S
Cd18 O17 2.203 . S
Cd18 O20 2.411 . S
Cd18 O21 2.333 1_455 S
Cd18 O22 2.352 1_455 S
Cd18 O26 2.277 1_445 S
Cd18 O27 2.356 1_455 S
C19 O24 1.209 1_565 S
C19 O26 1.226 1_455 S
O20 Cd16 2.273 . S
O20 Cd18 2.411 . S
O20 C23 1.320 . S
O21 Cd18 2.333 1_655 S
O21 C23 1.214 1_655 S
O22 Cd18 2.352 1_655 S
O22 C25 1.258 . S
C23 O20 1.320 . S
C23 O21 1.214 1_455 S
O24 Cd16 2.277 . S
O24 C19 1.209 1_545 S
C25 O22 1.258 . S
C25 O27 1.282 . S
O26 Cd18 2.277 1_665 S
O26 C19 1.226 1_655 S
O27 Cd18 2.356 1_655 S
O27 C25 1.282 . S
C28 O29 1.306 . S
C28 O31 1.160 . S
O29 C28 1.306 . S
O29 Cd30 2.228 . S
Cd30 O29 2.228 . S
Cd30 O34 2.273 1_655 S
Cd30 O38 2.277 . S
O31 C28 1.160 . S
O31 Cd32 2.203 1_655 S
Cd32 O31 2.203 1_455 S
Cd32 O34 2.411 . S
Cd32 O35 2.333 . S
Cd32 O36 2.352 . S
Cd32 O40 2.277 1_445 S
Cd32 O41 2.356 . S
C33 O38 1.209 1_565 S
C33 O40 1.226 . S
O34 Cd30 2.273 1_455 S
O34 Cd32 2.411 . S
O34 C37 1.320 . S
O35 Cd32 2.333 . S
O35 C37 1.214 . S
O36 Cd32 2.352 . S
O36 C39 1.258 . S
C37 O34 1.320 . S
C37 O35 1.214 . S
O38 Cd30 2.277 . S
O38 C33 1.209 1_545 S
C39 O36 1.258 . S
C39 O41 1.282 . S
O40 Cd32 2.277 1_665 S
O40 C33 1.226 . S
O41 Cd32 2.356 . S
O41 C39 1.282 . S
C42 C43 1.560 1_655 S
C42 H103 0.959 . S
C42 H104 0.959 . S
C42 H105 0.960 . S
C43 C42 1.560 1_455 S
C43 O98 1.426 1_455 S
C43 H102 0.980 . S
C44 C45 1.407 . S
C44 C49 1.418 1_455 S
C44 O98 1.334 1_455 S
C45 C44 1.407 . S
C45 C46 1.360 . S
C45 H106 0.929 . S
C46 C45 1.360 . S
C46 C47 1.401 . S
C46 C50 1.527 . S
C47 C46 1.401 . S
C47 C48 1.405 1_455 S
C47 C80 1.587 . S
C48 C47 1.405 1_655 S
C48 C49 1.332 . S
C48 C51 1.496 . S
C49 C44 1.418 1_655 S
C49 C48 1.332 . S
C49 H107 0.929 . S
C50 C46 1.527 . S
C50 H108 0.959 . S
C50 H109 0.961 . S
C50 H110 0.961 . S
C51 C48 1.496 . S
C51 H111 0.960 . S
C51 H112 0.960 . S
C51 H113 0.961 . S
C52 C53 1.517 . S
C52 H115 0.961 . S
C52 H116 0.960 . S
C52 H117 0.959 . S
C53 C52 1.517 . S
C53 O101 1.468 . S
C53 H114 0.980 . S
C54 C55 1.349 . S
C54 C59 1.367 . S
C54 O101 1.408 . S
C55 C54 1.349 . S
C55 C56 1.407 . S
C55 H118 0.930 . S
C56 C55 1.407 . S
C56 C57 1.449 . S
C56 C60 1.535 1_455 S
C57 C56 1.449 . S
C57 C58 1.384 . S
C57 C82 1.553 . S
C58 C57 1.384 . S
C58 C59 1.364 . S
C58 C61 1.450 . S
C59 C54 1.367 . S
C59 C58 1.364 . S
C59 H119 0.931 . S
C60 C56 1.535 1_655 S
C60 H120 0.957 . S
C60 H121 0.961 . S
C60 H122 0.959 . S
C61 C58 1.450 . S
C61 H123 0.960 . S
C61 H124 0.960 . S
C61 H125 0.960 . S
C62 C63 1.309 . S
C62 C67 1.304 . S
C62 O100 1.435 . S
C63 C62 1.309 . S
C63 C64 1.476 . S
C63 H127 0.930 . S
C64 C63 1.476 . S
C64 C65 1.400 . S
C64 C68 1.567 1_455 S
C65 C64 1.400 . S
C65 C66 1.373 . S
C65 C87 1.432 . S
C66 C65 1.373 . S
C66 C67 1.339 . S
C66 C69 1.530 . S
C67 C62 1.304 . S
C67 C66 1.339 . S
C67 H128 0.930 . S
C68 C64 1.567 1_655 S
C68 H129 0.961 . S
C68 H130 0.960 . S
C68 H131 0.958 . S
C69 C66 1.530 . S
C69 H132 0.961 . S
C69 H133 0.960 . S
C69 H134 0.960 . S
C70 C71 1.530 . S
C70 H136 0.961 . S
C70 H137 0.961 1_455 S
C70 H138 0.959 1_455 S
C71 C70 1.530 . S
C71 O99 1.412 . S
C71 H135 0.980 . S
C72 C73 1.288 1_455 S
C72 C77 1.377 . S
C72 O99 1.393 . S
C73 C72 1.288 1_655 S
C73 C74 1.369 . S
C73 H139 0.932 . S
C74 C73 1.369 . S
C74 C75 1.398 1_655 S
C74 C78 1.527 . S
C75 C74 1.398 1_455 S
C75 C76 1.380 . S
C75 C89 1.497 . S
C76 C75 1.380 . S
C76 C77 1.383 . S
C76 C79 1.603 . S
C77 C72 1.377 . S
C77 C76 1.383 . S
C77 H140 0.929 . S
C78 C74 1.527 . S
C78 H141 0.961 . S
C78 H142 0.959 . S
C78 H143 0.959 . S
C79 C76 1.603 . S
C79 H144 0.960 . S
C79 H145 0.962 . S
C79 H146 0.961 . S
C80 C47 1.587 . S
C80 C81 1.360 . S
C80 C93 1.412 . S
C81 C80 1.360 . S
C81 C82 1.365 . S
C81 H147 0.929 . S
C82 C57 1.553 . S
C82 C81 1.365 . S
C82 C83 1.404 . S
C83 C82 1.404 . S
C83 C84 1.395 . S
C83 C94 1.451 . S
C84 C83 1.395 . S
C84 C85 1.322 . S
C84 H148 0.930 . S
C85 C84 1.322 . S
C85 C86 1.459 . S
C85 H149 0.929 . S
C86 C85 1.459 . S
C86 C87 1.445 . S
C86 C95 1.395 . S
C87 C65 1.432 . S
C87 C86 1.445 . S
C87 C88 1.370 . S
C88 C87 1.370 . S
C88 C89 1.438 . S
C88 H150 0.930 . S
C89 C75 1.497 . S
C89 C88 1.438 . S
C89 C90 1.360 . S
C90 C89 1.360 . S
C90 C91 1.401 . S
C90 C95 1.446 . S
C91 C90 1.401 . S
C91 C92 1.347 . S
C91 H151 0.929 . S
C92 C91 1.347 . S
C92 C93 1.455 . S
C92 H152 0.930 . S
C93 C80 1.412 . S
C93 C92 1.455 . S
C93 C94 1.331 . S
C94 C83 1.451 . S
C94 C93 1.331 . S
C94 C95 1.497 . S
C95 C86 1.395 . S
C95 C90 1.446 . S
C95 C94 1.497 . S
C96 C97 1.582 . S
C96 H153 0.962 . S
C96 H154 0.959 . S
C96 H155 0.958 . S
C97 C96 1.582 . S
C97 O100 1.458 . S
C97 H126 0.980 . S
O98 C43 1.426 1_655 S
O98 C44 1.334 1_655 S
O99 C71 1.412 . S
O99 C72 1.393 . S
O100 C62 1.435 . S
O100 C97 1.458 . S
O101 C53 1.468 . S
O101 C54 1.408 . S
H102 C43 0.980 . S
H103 C42 0.959 . S
H104 C42 0.959 . S
H105 C42 0.960 . S
H106 C45 0.929 . S
H107 C49 0.929 . S
H108 C50 0.959 . S
H109 C50 0.961 . S
H110 C50 0.961 . S
H111 C51 0.960 . S
H112 C51 0.960 . S
H113 C51 0.961 . S
H114 C53 0.980 . S
H115 C52 0.961 . S
H116 C52 0.960 . S
H117 C52 0.959 . S
H118 C55 0.930 . S
H119 C59 0.931 . S
H120 C60 0.957 . S
H121 C60 0.961 . S
H122 C60 0.959 . S
H123 C61 0.960 . S
H124 C61 0.960 . S
H125 C61 0.960 . S
H126 C97 0.980 . S
H127 C63 0.930 . S
H128 C67 0.930 . S
H129 C68 0.961 . S
H130 C68 0.960 . S
H131 C68 0.958 . S
H132 C69 0.961 . S
H133 C69 0.960 . S
H134 C69 0.960 . S
H135 C71 0.980 . S
H136 C70 0.961 . S
H137 C70 0.961 1_655 S
H138 C70 0.959 1_655 S
H139 C73 0.932 . S
H140 C77 0.929 . S
H141 C78 0.961 . S
H142 C78 0.959 . S
H143 C78 0.959 . S
H144 C79 0.960 . S
H145 C79 0.962 . S
H146 C79 0.961 . S
H147 C81 0.929 . S
H148 C84 0.930 . S
H149 C85 0.929 . S
H150 C88 0.930 . S
H151 C91 0.929 . S
H152 C92 0.930 . S
H153 C96 0.962 . S
H154 C96 0.959 . S
H155 C96 0.958 . S
C156 C157 1.560 1_565 S
C156 H217 0.959 . S
C156 H218 0.959 . S
C156 H219 0.960 1_565 S
C157 C156 1.560 1_545 S
C157 O212 1.426 . S
C157 H216 0.980 . S
C158 C159 1.407 . S
C158 C163 1.418 1_545 S
C158 O212 1.334 . S
C159 C158 1.407 . S
C159 C160 1.360 . S
C159 H220 0.929 . S
C160 C159 1.360 . S
C160 C161 1.401 . S
C160 C164 1.527 . S
C161 C160 1.401 . S
C161 C162 1.405 . S
C161 C194 1.587 . S
C162 C161 1.405 . S
C162 C163 1.332 1_545 S
C162 C165 1.496 1_545 S
C163 C158 1.418 1_565 S
C163 C162 1.332 1_565 S
C163 H221 0.929 . S
C164 C160 1.527 . S
C164 H222 0.959 . S
C164 H223 0.961 . S
C164 H224 0.961 . S
C165 C162 1.496 1_565 S
C165 H225 0.960 . S
C165 H226 0.960 . S
C165 H227 0.961 . S
C166 C167 1.517 . S
C166 H229 0.961 . S
C166 H230 0.960 . S
C166 H231 0.959 . S
C167 C166 1.517 . S
C167 O215 1.468 . S
C167 H228 0.980 . S
C168 C169 1.349 . S
C168 C173 1.367 . S
C168 O215 1.408 . S
C169 C168 1.349 . S
C169 C170 1.407 . S
C169 H232 0.930 . S
C170 C169 1.407 . S
C170 C171 1.449 . S
C170 C174 1.535 . S
C171 C170 1.449 . S
C171 C172 1.384 . S
C171 C196 1.553 . S
C172 C171 1.384 . S
C172 C173 1.364 . S
C172 C175 1.450 . S
C173 C168 1.367 . S
C173 C172 1.364 . S
C173 H233 0.931 . S
C174 C170 1.535 . S
C174 H234 0.959 . S
C174 H235 0.961 1_545 S
C174 H236 0.959 1_545 S
C175 C172 1.450 . S
C175 H237 0.960 . S
C175 H238 0.960 . S
C175 H239 0.960 . S
C176 C177 1.309 . S
C176 C181 1.304 . S
C176 O214 1.435 . S
C177 C176 1.309 . S
C177 C178 1.476 . S
C177 H241 0.930 . S
C178 C177 1.476 . S
C178 C179 1.400 . S
C178 C182 1.567 1_545 S
C179 C178 1.400 . S
C179 C180 1.373 . S
C179 C201 1.432 . S
C180 C179 1.373 . S
C180 C181 1.339 . S
C180 C183 1.530 . S
C181 C176 1.304 . S
C181 C180 1.339 . S
C181 H242 0.930 . S
C182 C178 1.567 1_565 S
C182 H243 0.961 1_565 S
C182 H244 0.960 . S
C182 H245 0.958 . S
C183 C180 1.530 . S
C183 H246 0.961 . S
C183 H247 0.960 . S
C183 H248 0.960 . S
C184 C185 1.530 . S
C184 H250 0.961 . S
C184 H251 0.961 1_545 S
C184 H252 0.959 1_545 S
C185 C184 1.530 . S
C185 O213 1.412 . S
C185 H249 0.980 . S
C186 C187 1.288 1_545 S
C186 C191 1.377 . S
C186 O213 1.393 . S
C187 C186 1.288 1_565 S
C187 C188 1.369 1_565 S
C187 H253 0.932 . S
C188 C187 1.369 1_545 S
C188 C189 1.398 . S
C188 C192 1.527 1_545 S
C189 C188 1.398 . S
C189 C190 1.380 . S
C189 C203 1.497 . S
C190 C189 1.380 . S
C190 C191 1.383 . S
C190 C193 1.603 . S
C191 C186 1.377 . S
C191 C190 1.383 . S
C191 H254 0.929 . S
C192 C188 1.527 1_565 S
C192 H255 0.961 . S
C192 H256 0.959 . S
C192 H257 0.959 . S
C193 C190 1.603 . S
C193 H258 0.960 . S
C193 H259 0.962 . S
C193 H260 0.961 . S
C194 C161 1.587 . S
C194 C195 1.360 . S
C194 C207 1.412 . S
C195 C194 1.360 . S
C195 C196 1.365 . S
C195 H261 0.929 . S
C196 C171 1.553 . S
C196 C195 1.365 . S
C196 C197 1.404 . S
C197 C196 1.404 . S
C197 C198 1.395 . S
C197 C208 1.451 . S
C198 C197 1.395 . S
C198 C199 1.322 . S
C198 H262 0.930 . S
C199 C198 1.322 . S
C199 C200 1.459 . S
C199 H263 0.929 . S
C200 C199 1.459 . S
C200 C201 1.445 . S
C200 C209 1.395 . S
C201 C179 1.432 . S
C201 C200 1.445 . S
C201 C202 1.370 . S
C202 C201 1.370 . S
C202 C203 1.438 . S
C202 H264 0.930 . S
C203 C189 1.497 . S
C203 C202 1.438 . S
C203 C204 1.360 . S
C204 C203 1.360 . S
C204 C205 1.401 . S
C204 C209 1.446 . S
C205 C204 1.401 . S
C205 C206 1.347 . S
C205 H265 0.929 . S
C206 C205 1.347 . S
C206 C207 1.455 . S
C206 H266 0.930 . S
C207 C194 1.412 . S
C207 C206 1.455 . S
C207 C208 1.331 . S
C208 C197 1.451 . S
C208 C207 1.331 . S
C208 C209 1.497 . S
C209 C200 1.395 . S
C209 C204 1.446 . S
C209 C208 1.497 . S
C210 C211 1.582 . S
C210 H267 0.962 . S
C210 H268 0.959 . S
C210 H269 0.958 . S
C211 C210 1.582 . S
C211 O214 1.458 . S
C211 H240 0.980 . S
O212 C157 1.426 . S
O212 C158 1.334 . S
O213 C185 1.412 . S
O213 C186 1.393 . S
O214 C176 1.435 . S
O214 C211 1.458 . S
O215 C167 1.468 . S
O215 C168 1.408 . S
H216 C157 0.980 . S
H217 C156 0.959 . S
H218 C156 0.959 . S
H219 C156 0.960 1_545 S
H220 C159 0.929 . S
H221 C163 0.929 . S
H222 C164 0.959 . S
H223 C164 0.961 . S
H224 C164 0.961 . S
H225 C165 0.960 . S
H226 C165 0.960 . S
H227 C165 0.961 . S
H228 C167 0.980 . S
H229 C166 0.961 . S
H230 C166 0.960 . S
H231 C166 0.959 . S
H232 C169 0.930 . S
H233 C173 0.931 . S
H234 C174 0.959 . S
H235 C174 0.961 1_565 S
H236 C174 0.959 1_565 S
H237 C175 0.960 . S
H238 C175 0.960 . S
H239 C175 0.960 . S
H240 C211 0.980 . S
H241 C177 0.930 . S
H242 C181 0.930 . S
H243 C182 0.961 1_545 S
H244 C182 0.960 . S
H245 C182 0.958 . S
H246 C183 0.961 . S
H247 C183 0.960 . S
H248 C183 0.960 . S
H249 C185 0.980 . S
H250 C184 0.961 . S
H251 C184 0.961 1_565 S
H252 C184 0.959 1_565 S
H253 C187 0.932 . S
H254 C191 0.929 . S
H255 C192 0.961 . S
H256 C192 0.959 . S
H257 C192 0.959 . S
H258 C193 0.960 . S
H259 C193 0.962 . S
H260 C193 0.961 . S
H261 C195 0.929 . S
H262 C198 0.930 . S
H263 C199 0.929 . S
H264 C202 0.930 . S
H265 C205 0.929 . S
H266 C206 0.930 . S
H267 C210 0.962 . S
H268 C210 0.959 . S
H269 C210 0.958 . S
C270 C271 1.560 . S
C270 H331 0.959 . S
C270 H332 0.959 . S
C270 H333 0.960 . S
C271 C270 1.560 . S
C271 O326 1.426 . S
C271 H330 0.980 . S
C272 C273 1.407 . S
C272 C277 1.418 . S
C272 O326 1.334 . S
C273 C272 1.407 . S
C273 C274 1.360 . S
C273 H334 0.929 . S
C274 C273 1.360 . S
C274 C275 1.401 . S
C274 C278 1.527 . S
C275 C274 1.401 . S
C275 C276 1.405 . S
C275 C308 1.587 . S
C276 C275 1.405 . S
C276 C277 1.332 . S
C276 C279 1.496 . S
C277 C272 1.418 . S
C277 C276 1.332 . S
C277 H335 0.929 . S
C278 C274 1.527 . S
C278 H336 0.959 . S
C278 H337 0.961 . S
C278 H338 0.961 . S
C279 C276 1.496 . S
C279 H339 0.960 . S
C279 H340 0.960 . S
C279 H341 0.961 . S
C280 C281 1.517 . S
C280 H343 0.961 . S
C280 H344 0.960 . S
C280 H345 0.959 . S
C281 C280 1.517 . S
C281 O329 1.468 . S
C281 H342 0.980 . S
C282 C283 1.349 . S
C282 C287 1.367 . S
C282 O329 1.408 . S
C283 C282 1.349 . S
C283 C284 1.407 . S
C283 H346 0.930 . S
C284 C283 1.407 . S
C284 C285 1.449 . S
C284 C288 1.535 . S
C285 C284 1.449 . S
C285 C286 1.384 . S
C285 C310 1.553 . S
C286 C285 1.384 . S
C286 C287 1.364 . S
C286 C289 1.450 . S
C287 C282 1.367 . S
C287 C286 1.364 . S
C287 H347 0.931 . S
C288 C284 1.535 . S
C288 H348 0.959 . S
C288 H349 0.961 . S
C288 H350 0.959 . S
C289 C286 1.450 . S
C289 H351 0.960 . S
C289 H352 0.960 . S
C289 H353 0.960 . S
C290 C291 1.309 . S
C290 C295 1.304 . S
C290 O328 1.435 . S
C291 C290 1.309 . S
C291 C292 1.476 . S
C291 H355 0.930 . S
C292 C291 1.476 . S
C292 C293 1.400 . S
C292 C296 1.567 . S
C293 C292 1.400 . S
C293 C294 1.373 . S
C293 C315 1.432 . S
C294 C293 1.373 . S
C294 C295 1.339 . S
C294 C297 1.530 . S
C295 C290 1.304 . S
C295 C294 1.339 . S
C295 H356 0.930 . S
C296 C292 1.567 . S
C296 H357 0.961 . S
C296 H358 0.960 . S
C296 H359 0.958 . S
C297 C294 1.530 . S
C297 H360 0.961 . S
C297 H361 0.960 . S
C297 H362 0.960 . S
C298 C299 1.530 . S
C298 H364 0.961 . S
C298 H365 0.961 . S
C298 H366 0.959 . S
C299 C298 1.530 . S
C299 O327 1.412 . S
C299 H363 0.980 . S
C300 C301 1.288 . S
C300 C305 1.377 . S
C300 O327 1.393 . S
C301 C300 1.288 . S
C301 C302 1.369 . S
C301 H367 0.932 . S
C302 C301 1.369 . S
C302 C303 1.398 . S
C302 C306 1.527 . S
C303 C302 1.398 . S
C303 C304 1.380 . S
C303 C317 1.497 . S
C304 C303 1.380 . S
C304 C305 1.383 . S
C304 C307 1.603 . S
C305 C300 1.377 . S
C305 C304 1.383 . S
C305 H368 0.929 . S
C306 C302 1.527 . S
C306 H369 0.961 . S
C306 H370 0.959 . S
C306 H371 0.959 . S
C307 C304 1.603 . S
C307 H372 0.960 . S
C307 H373 0.962 . S
C307 H374 0.961 . S
C308 C275 1.587 . S
C308 C309 1.360 . S
C308 C321 1.412 . S
C309 C308 1.360 . S
C309 C310 1.365 . S
C309 H375 0.929 . S
C310 C285 1.553 . S
C310 C309 1.365 . S
C310 C311 1.404 . S
C311 C310 1.404 . S
C311 C312 1.395 . S
C311 C322 1.451 . S
C312 C311 1.395 . S
C312 C313 1.322 . S
C312 H376 0.930 . S
C313 C312 1.322 . S
C313 C314 1.459 . S
C313 H377 0.929 . S
C314 C313 1.459 . S
C314 C315 1.445 . S
C314 C323 1.395 . S
C315 C293 1.432 . S
C315 C314 1.445 . S
C315 C316 1.370 . S
C316 C315 1.370 . S
C316 C317 1.438 . S
C316 H378 0.930 . S
C317 C303 1.497 . S
C317 C316 1.438 . S
C317 C318 1.360 . S
C318 C317 1.360 . S
C318 C319 1.401 . S
C318 C323 1.446 . S
C319 C318 1.401 . S
C319 C320 1.347 . S
C319 H379 0.929 . S
C320 C319 1.347 . S
C320 C321 1.455 . S
C320 H380 0.930 . S
C321 C308 1.412 . S
C321 C320 1.455 . S
C321 C322 1.331 . S
C322 C311 1.451 . S
C322 C321 1.331 . S
C322 C323 1.497 . S
C323 C314 1.395 . S
C323 C318 1.446 . S
C323 C322 1.497 . S
C324 C325 1.582 . S
C324 H381 0.962 . S
C324 H382 0.959 . S
C324 H383 0.958 . S
C325 C324 1.582 . S
C325 O328 1.458 . S
C325 H354 0.980 . S
O326 C271 1.426 . S
O326 C272 1.334 . S
O327 C299 1.412 . S
O327 C300 1.393 . S
O328 C290 1.435 . S
O328 C325 1.458 . S
O329 C281 1.468 . S
O329 C282 1.408 . S
H330 C271 0.980 . S
H331 C270 0.959 . S
H332 C270 0.959 . S
H333 C270 0.960 . S
H334 C273 0.929 . S
H335 C277 0.929 . S
H336 C278 0.959 . S
H337 C278 0.961 . S
H338 C278 0.961 . S
H339 C279 0.960 . S
H340 C279 0.960 . S
H341 C279 0.961 . S
H342 C281 0.980 . S
H343 C280 0.961 . S
H344 C280 0.960 . S
H345 C280 0.959 . S
H346 C283 0.930 . S
H347 C287 0.931 . S
H348 C288 0.959 . S
H349 C288 0.961 . S
H350 C288 0.959 . S
H351 C289 0.960 . S
H352 C289 0.960 . S
H353 C289 0.960 . S
H354 C325 0.980 . S
H355 C291 0.930 . S
H356 C295 0.930 . S
H357 C296 0.961 . S
H358 C296 0.960 . S
H359 C296 0.958 . S
H360 C297 0.961 . S
H361 C297 0.960 . S
H362 C297 0.960 . S
H363 C299 0.980 . S
H364 C298 0.961 . S
H365 C298 0.961 . S
H366 C298 0.959 . S
H367 C301 0.932 . S
H368 C305 0.929 . S
H369 C306 0.961 . S
H370 C306 0.959 . S
H371 C306 0.959 . S
H372 C307 0.960 . S
H373 C307 0.962 . S
H374 C307 0.961 . S
H375 C309 0.929 . S
H376 C312 0.930 . S
H377 C313 0.929 . S
H378 C316 0.930 . S
H379 C319 0.929 . S
H380 C320 0.930 . S
H381 C324 0.962 . S
H382 C324 0.959 . S
H383 C324 0.958 . S
H384 C385 0.951 . S
C385 H384 0.951 . S
C385 C391 1.265 . S
H386 C391 0.950 1_655 S
H387 C395 0.949 . S
H388 C396 0.950 . S
H389 C397 0.951 . S
H390 C398 0.951 . S
C391 C385 1.265 . S
C391 H386 0.950 1_455 S
C391 C392 1.478 . S
C392 C391 1.478 . S
C392 C393 1.397 . S
C392 C409 1.394 . S
C393 C392 1.397 . S
C393 C394 1.438 . S
C393 C398 1.429 1_455 S
C394 C393 1.438 . S
C394 C395 1.428 . S
C394 C407 1.394 . S
C395 H387 0.949 . S
C395 C394 1.428 . S
C395 C396 1.345 1_455 S
C396 H388 0.950 . S
C396 C395 1.345 1_655 S
C396 C397 1.424 . S
C397 H389 0.951 . S
C397 C396 1.424 . S
C397 C398 1.347 . S
C398 H390 0.951 . S
C398 C393 1.429 1_655 S
C398 C397 1.347 . S
H399 C400 0.951 1_655 S
C400 H399 0.951 1_455 S
C400 C406 1.265 . S
H401 C406 0.950 . S
H402 C410 0.949 . S
H403 C411 0.950 . S
H404 C412 0.951 . S
H405 C413 0.951 . S
C406 C400 1.265 . S
C406 H401 0.950 . S
C406 C407 1.478 . S
C407 C394 1.394 . S
C407 C406 1.478 . S
C407 C408 1.397 . S
C408 C407 1.397 . S
C408 C409 1.438 . S
C408 C413 1.429 . S
C409 C392 1.394 . S
C409 C408 1.438 . S
C409 C410 1.428 . S
C410 H402 0.949 . S
C410 C409 1.428 . S
C410 C411 1.345 . S
C411 H403 0.950 . S
C411 C410 1.345 . S
C411 C412 1.424 . S
C412 H404 0.951 . S
C412 C411 1.424 . S
C412 C413 1.347 . S
C413 H405 0.951 . S
C413 C408 1.429 . S
C413 C412 1.347 . S
H414 C415 0.951 . S
C415 H414 0.951 . S
C415 C421 1.265 . S
H416 C421 0.950 . S
H417 C425 0.949 . S
H418 C426 0.950 . S
H419 C427 0.951 . S
H420 C428 0.951 . S
C421 C415 1.265 . S
C421 H416 0.950 . S
C421 C422 1.478 . S
C422 C421 1.478 . S
C422 C423 1.397 . S
C422 C439 1.394 . S
C423 C422 1.397 . S
C423 C424 1.438 . S
C423 C428 1.429 1_545 S
C424 C423 1.438 . S
C424 C425 1.428 1_545 S
C424 C437 1.394 . S
C425 H417 0.949 . S
C425 C424 1.428 1_565 S
C425 C426 1.345 . S
C426 H418 0.950 . S
C426 C425 1.345 . S
C426 C427 1.424 . S
C427 H419 0.951 . S
C427 C426 1.424 . S
C427 C428 1.347 . S
C428 H420 0.951 . S
C428 C423 1.429 1_565 S
C428 C427 1.347 . S
H429 C430 0.951 . S
C430 H429 0.951 . S
C430 C436 1.265 . S
H431 C436 0.950 . S
H432 C440 0.949 . S
H433 C441 0.950 . S
H434 C442 0.951 . S
H435 C443 0.951 . S
C436 C430 1.265 . S
C436 H431 0.950 . S
C436 C437 1.478 . S
C437 C424 1.394 . S
C437 C436 1.478 . S
C437 C438 1.397 . S
C438 C437 1.397 . S
C438 C439 1.438 . S
C438 C443 1.429 . S
C439 C422 1.394 . S
C439 C438 1.438 . S
C439 C440 1.428 . S
C440 H432 0.949 . S
C440 C439 1.428 . S
C440 C441 1.345 . S
C441 H433 0.950 . S
C441 C440 1.345 . S
C441 C442 1.424 . S
C442 H434 0.951 . S
C442 C441 1.424 . S
C442 C443 1.347 . S
C443 H435 0.951 . S
C443 C438 1.429 . S
C443 C442 1.347 . S
H444 C445 0.951 . S
C445 H444 0.951 . S
C445 C451 1.265 . S
H446 C451 0.950 . S
H447 C455 0.949 . S
H448 C456 0.950 . S
H449 C457 0.951 . S
H450 C458 0.951 . S
C451 C445 1.265 . S
C451 H446 0.950 . S
C451 C452 1.478 . S
C452 C451 1.478 . S
C452 C453 1.397 . S
C452 C469 1.394 . S
C453 C452 1.397 . S
C453 C454 1.438 . S
C453 C458 1.429 . S
C454 C453 1.438 . S
C454 C455 1.428 . S
C454 C467 1.394 . S
C455 H447 0.949 . S
C455 C454 1.428 . S
C455 C456 1.345 . S
C456 H448 0.950 . S
C456 C455 1.345 . S
C456 C457 1.424 . S
C457 H449 0.951 . S
C457 C456 1.424 . S
C457 C458 1.347 . S
C458 H450 0.951 . S
C458 C453 1.429 . S
C458 C457 1.347 . S
H459 C460 0.951 . S
C460 H459 0.951 . S
C460 C466 1.265 . S
H461 C466 0.950 . S
H462 C470 0.949 . S
H463 C471 0.950 1_545 S
H464 C472 0.951 . S
H465 C473 0.951 . S
C466 C460 1.265 . S
C466 H461 0.950 . S
C466 C467 1.478 . S
C467 C454 1.394 . S
C467 C466 1.478 . S
C467 C468 1.397 . S
C468 C467 1.397 . S
C468 C469 1.438 . S
C468 C473 1.429 . S
C469 C452 1.394 . S
C469 C468 1.438 . S
C469 C470 1.428 . S
C470 H462 0.949 . S
C470 C469 1.428 . S
C470 C471 1.345 . S
C471 H463 0.950 1_565 S
C471 C470 1.345 . S
C471 C472 1.424 . S
C472 H464 0.951 . S
C472 C471 1.424 . S
C472 C473 1.347 . S
C473 H465 0.951 . S
C473 C468 1.429 . S
C473 C472 1.347 . S
H474 C475 0.951 . S
C475 H474 0.951 . S
C475 C481 1.265 . S
H476 C481 0.950 1_655 S
H477 C485 0.949 . S
H478 C486 0.950 . S
H479 C487 0.951 . S
H480 C488 0.951 . S
C481 C475 1.265 . S
C481 H476 0.950 1_455 S
C481 C482 1.478 . S
C482 C481 1.478 . S
C482 C483 1.397 . S
C482 C499 1.394 . S
C483 C482 1.397 . S
C483 C484 1.438 . S
C483 C488 1.429 1_455 S
C484 C483 1.438 . S
C484 C485 1.428 . S
C484 C497 1.394 . S
C485 H477 0.949 . S
C485 C484 1.428 . S
C485 C486 1.345 1_455 S
C486 H478 0.950 . S
C486 C485 1.345 1_655 S
C486 C487 1.424 . S
C487 H479 0.951 . S
C487 C486 1.424 . S
C487 C488 1.347 . S
C488 H480 0.951 . S
C488 C483 1.429 1_655 S
C488 C487 1.347 . S
H489 C490 0.951 . S
C490 H489 0.951 . S
C490 C496 1.265 . S
H491 C496 0.950 . S
H492 C500 0.949 . S
H493 C501 0.950 1_545 S
H494 C502 0.951 . S
H495 C503 0.951 . S
C496 C490 1.265 . S
C496 H491 0.950 . S
C496 C497 1.478 . S
C497 C484 1.394 . S
C497 C496 1.478 . S
C497 C498 1.397 . S
C498 C497 1.397 . S
C498 C499 1.438 . S
C498 C503 1.429 . S
C499 C482 1.394 . S
C499 C498 1.438 . S
C499 C500 1.428 . S
C500 H492 0.949 . S
C500 C499 1.428 . S
C500 C501 1.345 . S
C501 H493 0.950 1_565 S
C501 C500 1.345 . S
C501 C502 1.424 . S
C502 H494 0.951 . S
C502 C501 1.424 . S
C502 C503 1.347 . S
C503 H495 0.951 . S
C503 C498 1.429 . S
C503 C502 1.347 . S
H504 C505 0.951 . S
C505 H504 0.951 . S
C505 C511 1.265 . S
H506 C511 0.950 . S
H507 C515 0.949 . S
H508 C516 0.950 . S
H509 C517 0.951 . S
H510 C518 0.951 . S
C511 C505 1.265 . S
C511 H506 0.950 . S
C511 C512 1.478 . S
C512 C511 1.478 . S
C512 C513 1.397 . S
C512 C529 1.394 . S
C513 C512 1.397 . S
C513 C514 1.438 . S
C513 C518 1.429 . S
C514 C513 1.438 . S
C514 C515 1.428 . S
C514 C527 1.394 . S
C515 H507 0.949 . S
C515 C514 1.428 . S
C515 C516 1.345 . S
C516 H508 0.950 . S
C516 C515 1.345 . S
C516 C517 1.424 . S
C517 H509 0.951 . S
C517 C516 1.424 . S
C517 C518 1.347 . S
C518 H510 0.951 . S
C518 C513 1.429 . S
C518 C517 1.347 . S
H519 C520 0.951 . S
C520 H519 0.951 . S
C520 C526 1.265 . S
H521 C526 0.950 . S
H522 C530 0.949 . S
H523 C531 0.950 . S
H524 C532 0.951 . S
H525 C533 0.951 . S
C526 C520 1.265 . S
C526 H521 0.950 . S
C526 C527 1.478 . S
C527 C514 1.394 . S
C527 C526 1.478 . S
C527 C528 1.397 . S
C528 C527 1.397 . S
C528 C529 1.438 . S
C528 C533 1.429 1_545 S
C529 C512 1.394 . S
C529 C528 1.438 . S
C529 C530 1.428 1_545 S
C530 H522 0.949 . S
C530 C529 1.428 1_565 S
C530 C531 1.345 . S
C531 H523 0.950 . S
C531 C530 1.345 . S
C531 C532 1.424 . S
C532 H524 0.951 . S
C532 C531 1.424 . S
C532 C533 1.347 . S
C533 H525 0.951 . S
C533 C528 1.429 1_565 S
C533 C532 1.347 . S
H534 C535 0.951 . S
C535 H534 0.951 . S
C535 C541 1.265 . S
H536 C541 0.950 . S
H537 C545 0.949 . S
H538 C546 0.950 . S
H539 C547 0.951 . S
H540 C548 0.951 . S
C541 C535 1.265 . S
C541 H536 0.950 . S
C541 C542 1.478 . S
C542 C541 1.478 . S
C542 C543 1.397 . S
C542 C559 1.394 . S
C543 C542 1.397 . S
C543 C544 1.438 . S
C543 C548 1.429 . S
C544 C543 1.438 . S
C544 C545 1.428 . S
C544 C557 1.394 . S
C545 H537 0.949 . S
C545 C544 1.428 . S
C545 C546 1.345 . S
C546 H538 0.950 . S
C546 C545 1.345 . S
C546 C547 1.424 . S
C547 H539 0.951 . S
C547 C546 1.424 . S
C547 C548 1.347 . S
C548 H540 0.951 . S
C548 C543 1.429 . S
C548 C547 1.347 . S
H549 C550 0.951 . S
C550 H549 0.951 . S
C550 C556 1.265 . S
H551 C556 0.950 . S
H552 C560 0.949 . S
H553 C561 0.950 . S
H554 C562 0.951 . S
H555 C563 0.951 . S
C556 C550 1.265 . S
C556 H551 0.950 . S
C556 C557 1.478 . S
C557 C544 1.394 . S
C557 C556 1.478 . S
C557 C558 1.397 . S
C558 C557 1.397 . S
C558 C559 1.438 . S
C558 C563 1.429 . S
C559 C542 1.394 . S
C559 C558 1.438 . S
C559 C560 1.428 . S
C560 H552 0.949 . S
C560 C559 1.428 . S
C560 C561 1.345 . S
C561 H553 0.950 . S
C561 C560 1.345 . S
C561 C562 1.424 . S
C562 H554 0.951 . S
C562 C561 1.424 . S
C562 C563 1.347 . S
C563 H555 0.951 . S
C563 C558 1.429 . S
C563 C562 1.347 . S
H564 C565 0.951 . S
C565 H564 0.951 . S
C565 C571 1.265 . S
H566 C571 0.950 . S
H567 C575 0.949 . S
H568 C576 0.950 . S
H569 C577 0.951 . S
H570 C578 0.951 . S
C571 C565 1.265 . S
C571 H566 0.950 . S
C571 C572 1.478 . S
C572 C571 1.478 . S
C572 C573 1.397 . S
C572 C589 1.394 . S
C573 C572 1.397 . S
C573 C574 1.438 . S
C573 C578 1.429 . S
C574 C573 1.438 . S
C574 C575 1.428 . S
C574 C587 1.394 . S
C575 H567 0.949 . S
C575 C574 1.428 . S
C575 C576 1.345 . S
C576 H568 0.950 . S
C576 C575 1.345 . S
C576 C577 1.424 . S
C577 H569 0.951 . S
C577 C576 1.424 . S
C577 C578 1.347 . S
C578 H570 0.951 . S
C578 C573 1.429 . S
C578 C577 1.347 . S
H579 C580 0.951 . S
C580 H579 0.951 . S
C580 C586 1.265 . S
H581 C586 0.950 . S
H582 C590 0.949 . S
H583 C591 0.950 . S
H584 C592 0.951 . S
H585 C593 0.951 . S
C586 C580 1.265 . S
C586 H581 0.950 . S
C586 C587 1.478 . S
C587 C574 1.394 . S
C587 C586 1.478 . S
C587 C588 1.397 . S
C588 C587 1.397 . S
C588 C589 1.438 . S
C588 C593 1.429 1_545 S
C589 C572 1.394 . S
C589 C588 1.438 . S
C589 C590 1.428 1_545 S
C590 H582 0.949 . S
C590 C589 1.428 1_565 S
C590 C591 1.345 . S
C591 H583 0.950 . S
C591 C590 1.345 . S
C591 C592 1.424 . S
C592 H584 0.951 . S
C592 C591 1.424 . S
C592 C593 1.347 . S
C593 H585 0.951 . S
C593 C588 1.429 1_565 S
C593 C592 1.347 . S
H594 C595 0.951 . S
C595 H594 0.951 . S
C595 C601 1.265 . S
H596 C601 0.950 . S
H597 C605 0.942 1_556 S
H598 C606 0.950 . S
H599 C607 0.951 . S
H600 C608 0.951 . S
C601 C595 1.265 . S
C601 H596 0.950 . S
C601 C602 1.478 . S
C602 C601 1.478 . S
C602 C603 1.397 . S
C602 C619 1.394 . S
C603 C602 1.397 . S
C603 C604 1.438 . S
C603 C608 1.429 . S
C604 C603 1.438 . S
C604 C605 1.430 . S
C604 C617 1.394 1_554 S
C605 H597 0.942 1_554 S
C605 C604 1.430 . S
C605 C606 1.349 . S
C606 H598 0.950 . S
C606 C605 1.349 . S
C606 C607 1.424 . S
C607 H599 0.951 . S
C607 C606 1.424 . S
C607 C608 1.347 . S
C608 H600 0.951 . S
C608 C603 1.429 . S
C608 C607 1.347 . S
H609 C610 0.951 . S
C610 H609 0.951 . S
C610 C616 1.265 . S
H611 C616 0.950 . S
H612 C620 0.949 . S
H613 C621 0.950 1_545 S
H614 C622 0.942 1_556 S
H615 C623 0.951 . S
C616 C610 1.265 . S
C616 H611 0.950 . S
C616 C617 1.478 . S
C617 C604 1.394 1_556 S
C617 C616 1.478 . S
C617 C618 1.397 1_556 S
C618 C617 1.397 1_554 S
C618 C619 1.438 . S
C618 C623 1.429 1_554 S
C619 C602 1.394 . S
C619 C618 1.438 . S
C619 C620 1.428 . S
C620 H612 0.949 . S
C620 C619 1.428 . S
C620 C621 1.345 . S
C621 H613 0.950 1_565 S
C621 C620 1.345 . S
C621 C622 1.443 . S
C622 H614 0.942 1_554 S
C622 C621 1.443 . S
C622 C623 1.339 1_554 S
C623 H615 0.951 . S
C623 C618 1.429 1_556 S
C623 C622 1.339 1_556 S
H624 C625 0.951 . S
C625 H624 0.951 . S
C625 C631 1.265 . S
H626 C631 0.950 . S
H627 C635 0.949 . S
H628 C636 0.950 . S
H629 C637 0.951 . S
H630 C638 0.951 . S
C631 C625 1.265 . S
C631 H626 0.950 . S
C631 C632 1.478 . S
C632 C631 1.478 . S
C632 C633 1.397 . S
C632 C649 1.394 . S
C633 C632 1.397 . S
C633 C634 1.438 . S
C633 C638 1.429 1_455 S
C634 C633 1.438 . S
C634 C635 1.428 1_455 S
C634 C647 1.394 . S
C635 H627 0.949 . S
C635 C634 1.428 1_655 S
C635 C636 1.345 . S
C636 H628 0.950 . S
C636 C635 1.345 . S
C636 C637 1.424 . S
C637 H629 0.951 . S
C637 C636 1.424 . S
C637 C638 1.347 . S
C638 H630 0.951 . S
C638 C633 1.429 1_655 S
C638 C637 1.347 . S
H639 C640 0.951 . S
C640 H639 0.951 . S
C640 C646 1.265 . S
H641 C646 0.950 . S
H642 C650 0.949 . S
H643 C651 0.950 1_545 S
H644 C652 0.951 . S
H645 C653 0.951 . S
C646 C640 1.265 . S
C646 H641 0.950 . S
C646 C647 1.478 . S
C647 C634 1.394 . S
C647 C646 1.478 . S
C647 C648 1.397 . S
C648 C647 1.397 . S
C648 C649 1.438 . S
C648 C653 1.429 . S
C649 C632 1.394 . S
C649 C648 1.438 . S
C649 C650 1.428 . S
C650 H642 0.949 . S
C650 C649 1.428 . S
C650 C651 1.345 . S
C651 H643 0.950 1_565 S
C651 C650 1.345 . S
C651 C652 1.424 . S
C652 H644 0.951 . S
C652 C651 1.424 . S
C652 C653 1.347 . S
C653 H645 0.951 . S
C653 C648 1.429 . S
C653 C652 1.347 . S
H654 C655 0.951 . S
C655 H654 0.951 . S
C655 C661 1.265 . S
H656 C661 0.950 . S
H657 C665 0.949 . S
H658 C666 0.950 . S
H659 C667 0.951 . S
H660 C668 0.951 . S
C661 C655 1.265 . S
C661 H656 0.950 . S
C661 C662 1.478 . S
C662 C661 1.478 . S
C662 C663 1.397 . S
C662 C679 1.394 . S
C663 C662 1.397 . S
C663 C664 1.438 . S
C663 C668 1.429 1_545 S
C664 C663 1.438 . S
C664 C665 1.428 1_545 S
C664 C677 1.394 . S
C665 H657 0.949 . S
C665 C664 1.428 1_565 S
C665 C666 1.345 . S
C666 H658 0.950 . S
C666 C665 1.345 . S
C666 C667 1.424 . S
C667 H659 0.951 . S
C667 C666 1.424 . S
C667 C668 1.347 . S
C668 H660 0.951 . S
C668 C663 1.429 1_565 S
C668 C667 1.347 . S
H669 C670 0.951 . S
C670 H669 0.951 . S
C670 C676 1.265 . S
H671 C676 0.950 . S
H672 C680 0.949 . S
H673 C681 0.950 . S
H674 C682 0.951 . S
H675 C683 0.951 . S
C676 C670 1.265 . S
C676 H671 0.950 . S
C676 C677 1.478 . S
C677 C664 1.394 . S
C677 C676 1.478 . S
C677 C678 1.397 . S
C678 C677 1.397 . S
C678 C679 1.438 . S
C678 C683 1.429 . S
C679 C662 1.394 . S
C679 C678 1.438 . S
C679 C680 1.428 . S
C680 H672 0.949 . S
C680 C679 1.428 . S
C680 C681 1.345 . S
C681 H673 0.950 . S
C681 C680 1.345 . S
C681 C682 1.424 . S
C682 H674 0.951 . S
C682 C681 1.424 . S
C682 C683 1.347 . S
C683 H675 0.951 . S
C683 C678 1.429 . S
C683 C682 1.347 . S
H684 C685 0.951 . S
C685 H684 0.951 . S
C685 C691 1.265 . S
H686 C691 0.950 . S
H687 C695 0.949 . S
H688 C696 0.950 . S
H689 C697 0.951 . S
H690 C698 0.951 . S
C691 C685 1.265 . S
C691 H686 0.950 . S
C691 C692 1.478 . S
C692 C691 1.478 . S
C692 C693 1.397 . S
C692 C709 1.394 . S
C693 C692 1.397 . S
C693 C694 1.438 1_554 S
C693 C698 1.429 . S
C694 C693 1.438 1_556 S
C694 C695 1.428 . S
C694 C707 1.394 . S
C695 H687 0.949 . S
C695 C694 1.428 . S
C695 C696 1.345 . S
C696 H688 0.950 . S
C696 C695 1.345 . S
C696 C697 1.424 . S
C697 H689 0.951 . S
C697 C696 1.424 . S
C697 C698 1.347 1_556 S
C698 H690 0.951 . S
C698 C693 1.429 . S
C698 C697 1.347 1_554 S
H699 C700 0.951 . S
C700 H699 0.951 . S
C700 C706 1.265 . S
H701 C706 0.950 . S
H702 C710 0.949 . S
H703 C711 0.950 . S
H704 C712 0.951 . S
H705 C713 0.951 . S
C706 C700 1.265 . S
C706 H701 0.950 . S
C706 C707 1.478 . S
C707 C694 1.394 . S
C707 C706 1.478 . S
C707 C708 1.391 1_556 S
C708 C707 1.391 1_554 S
C708 C709 1.444 . S
C708 C713 1.428 1_554 S
C709 C692 1.394 . S
C709 C708 1.444 . S
C709 C710 1.428 . S
C710 H702 0.949 . S
C710 C709 1.428 . S
C710 C711 1.345 . S
C711 H703 0.950 . S
C711 C710 1.345 . S
C711 C712 1.424 . S
C712 H704 0.951 . S
C712 C711 1.424 . S
C712 C713 1.347 1_554 S
C713 H705 0.951 . S
C713 C708 1.428 1_556 S
C713 C712 1.347 1_556 S
H714 C715 0.951 . S
C715 H714 0.951 . S
C715 C721 1.265 . S
H716 C721 0.950 . S
H717 C725 0.949 . S
H718 C726 0.950 . S
H719 C727 0.951 . S
H720 C728 0.951 . S
C721 C715 1.265 . S
C721 H716 0.950 . S
C721 C722 1.478 . S
C722 C721 1.478 . S
C722 C723 1.397 . S
C722 C739 1.394 . S
C723 C722 1.397 . S
C723 C724 1.438 . S
C723 C728 1.429 . S
C724 C723 1.438 . S
C724 C725 1.428 . S
C724 C737 1.394 . S
C725 H717 0.949 . S
C725 C724 1.428 . S
C725 C726 1.345 . S
C726 H718 0.950 . S
C726 C725 1.345 . S
C726 C727 1.424 . S
C727 H719 0.951 . S
C727 C726 1.424 . S
C727 C728 1.347 . S
C728 H720 0.951 . S
C728 C723 1.429 . S
C728 C727 1.347 . S
H729 C730 0.951 . S
C730 H729 0.951 . S
C730 C736 1.265 . S
H731 C736 0.950 1_655 S
H732 C740 0.949 . S
H733 C741 0.950 . S
H734 C742 0.951 . S
H735 C743 0.951 . S
C736 C730 1.265 . S
C736 H731 0.950 1_455 S
C736 C737 1.478 . S
C737 C724 1.394 . S
C737 C736 1.478 . S
C737 C738 1.397 . S
C738 C737 1.397 . S
C738 C739 1.438 . S
C738 C743 1.429 . S
C739 C722 1.394 . S
C739 C738 1.438 . S
C739 C740 1.428 . S
C740 H732 0.949 . S
C740 C739 1.428 . S
C740 C741 1.345 . S
C741 H733 0.950 . S
C741 C740 1.345 . S
C741 C742 1.424 . S
C742 H734 0.951 . S
C742 C741 1.424 . S
C742 C743 1.347 . S
C743 H735 0.951 . S
C743 C738 1.429 . S
C743 C742 1.347 . S
C400 C97 1.238 . S
C385 C0 1.524 . S
C415 C25 1.562 . S
C430 C211 1.237 . S
C445 C33 1.354 . S
C460 C271 1.058 . S
C475 C11 1.342 . S
C490 C71 0.976 . S
C520 C185 1.212 . S
C505 C14 1.426 . S
C535 C37 1.503 . S
C550 C281 0.898 . S
C580 C167 0.777 . S
C565 C28 1.491 . S
C595 C9 1.438 . S
C610 C299 1.012 . S
C640 C43 1.042 . S
C625 C19 1.372 . S
C670 C157 0.936 . S
C655 C39 1.329 . S
C700 C325 1.304 . S
C685 C5 1.566 . S
C715 C23 1.532 . S
C730 C53 0.911 . S
