# Generated by pormake.
# Topology cml, (3,6)-cn, num edge types: 1
# Building blocks:
#     Node 0, Type 0, BuildingBlock: KAKCAD_clean_linker_0, # of connection points: 3
#     Node 1, Type 0, BuildingBlock: KAKCAD_clean_linker_0, # of connection points: 3
#     Node 2, Type 0, BuildingBlock: KAKCAD_clean_linker_0, # of connection points: 3
#     Node 3, Type 0, BuildingBlock: KAKCAD_clean_linker_0, # of connection points: 3
#     Node 4, Type 0, BuildingBlock: KAKCAD_clean_linker_0, # of connection points: 3
#     Node 5, Type 0, BuildingBlock: KAKCAD_clean_linker_0, # of connection points: 3
#     Node 6, Type 0, BuildingBlock: KAKCAD_clean_linker_0, # of connection points: 3
#     Node 7, Type 0, BuildingBlock: KAKCAD_clean_linker_0, # of connection points: 3
#     Node 8, Type 1, BuildingBlock: OJICUG_clean_sbu_0, # of connection points: 6
#     Node 9, Type 1, BuildingBlock: OJICUG_clean_sbu_0, # of connection points: 6
#     Node 10, Type 1, BuildingBlock: OJICUG_clean_sbu_0, # of connection points: 6
#     Node 11, Type 1, BuildingBlock: OJICUG_clean_sbu_0, # of connection points: 6
#     Edge 12, Type (0, 1), BuildingBlock: OJICUG_clean_linker_0, # of connection points: 2
#     Edge 13, Type (0, 1), BuildingBlock: OJICUG_clean_linker_0, # of connection points: 2
#     Edge 14, Type (0, 1), BuildingBlock: OJICUG_clean_linker_0, # of connection points: 2
#     Edge 15, Type (0, 1), BuildingBlock: OJICUG_clean_linker_0, # of connection points: 2
#     Edge 16, Type (0, 1), BuildingBlock: OJICUG_clean_linker_0, # of connection points: 2
#     Edge 17, Type (0, 1), BuildingBlock: OJICUG_clean_linker_0, # of connection points: 2
#     Edge 18, Type (0, 1), BuildingBlock: OJICUG_clean_linker_0, # of connection points: 2
#     Edge 19, Type (0, 1), BuildingBlock: OJICUG_clean_linker_0, # of connection points: 2
#     Edge 20, Type (0, 1), BuildingBlock: OJICUG_clean_linker_0, # of connection points: 2
#     Edge 21, Type (0, 1), BuildingBlock: OJICUG_clean_linker_0, # of connection points: 2
#     Edge 22, Type (0, 1), BuildingBlock: OJICUG_clean_linker_0, # of connection points: 2
#     Edge 23, Type (0, 1), BuildingBlock: OJICUG_clean_linker_0, # of connection points: 2
#     Edge 24, Type (0, 1), BuildingBlock: OJICUG_clean_linker_0, # of connection points: 2
#     Edge 25, Type (0, 1), BuildingBlock: OJICUG_clean_linker_0, # of connection points: 2
#     Edge 26, Type (0, 1), BuildingBlock: OJICUG_clean_linker_0, # of connection points: 2
#     Edge 27, Type (0, 1), BuildingBlock: OJICUG_clean_linker_0, # of connection points: 2
#     Edge 28, Type (0, 1), BuildingBlock: OJICUG_clean_linker_0, # of connection points: 2
#     Edge 29, Type (0, 1), BuildingBlock: OJICUG_clean_linker_0, # of connection points: 2
#     Edge 30, Type (0, 1), BuildingBlock: OJICUG_clean_linker_0, # of connection points: 2
#     Edge 31, Type (0, 1), BuildingBlock: OJICUG_clean_linker_0, # of connection points: 2
#     Edge 32, Type (0, 1), BuildingBlock: OJICUG_clean_linker_0, # of connection points: 2
#     Edge 33, Type (0, 1), BuildingBlock: OJICUG_clean_linker_0, # of connection points: 2
#     Edge 34, Type (0, 1), BuildingBlock: OJICUG_clean_linker_0, # of connection points: 2
#     Edge 35, Type (0, 1), BuildingBlock: OJICUG_clean_linker_0, # of connection points: 2
# Relax obj value: 0.072
# Max RMSD: 0.085
# Mean RMSD: 0.080
data_MOF--net-cml--node1-OJICUG_clean_sbu_0--node2-KAKCAD_clean_linker_0--edge1-OJICUG_clean_linker_0
_symmetry_space_group_name_H-M    P1
_symmetry_Int_Tables_number       1
_symmetry_cell_setting            triclinic
loop_
_symmetry_equiv_pos_as_xyz
'x, y, z'
_cell_length_a     37.580473
_cell_length_b     37.786047
_cell_length_c     35.63568
_cell_angle_alpha  90.001524
_cell_angle_beta   89.877381
_cell_angle_gamma 90.325145
loop_
_atom_site_label
_atom_site_type_symbol
_atom_site_fract_x
_atom_site_fract_y
_atom_site_fract_z
_atom_type_partial_charge
C0 C 0.30122 0.51192 0.94513 0.0
C1 C 0.33556 0.50783 0.93022 0.0
C2 C 0.28468 0.48376 0.96396 0.0
C3 C 0.30273 0.45166 0.96879 0.0
C4 C 0.33701 0.44767 0.95387 0.0
C5 C 0.35318 0.47543 0.93451 0.0
C6 C 0.28649 0.4223 0.99001 0.0
C7 C 0.25452 0.40685 0.97801 0.0
C8 C 0.2407 0.37684 -0.00359 0.0
C9 C 0.25844 0.36356 0.02813 0.0
C10 C 0.29058 0.37872 0.03997 0.0
C11 C 0.30455 0.40796 0.02073 0.0
C12 C 0.31059 0.3633 0.07143 0.0
C13 C 0.29502 0.36032 0.10711 0.0
C14 C 0.34607 0.35301 0.06617 0.0
C15 C 0.3661 0.34089 0.09641 0.0
C16 C 0.3511 0.33945 0.13248 0.0
C17 C 0.20986 0.35745 0.98045 0.0
C18 C 0.18077 0.37565 0.9651 0.0
C19 C 0.2103 0.3203 0.97879 0.0
C20 C 0.18231 0.30174 0.96232 0.0
C21 C 0.15331 0.31986 0.94692 0.0
C22 C 0.15276 0.357 0.94837 0.0
C23 C 0.31528 0.34881 0.13756 0.0
H24 H 0.28725 0.53675 0.9421 0.0
H25 H 0.25821 0.48725 0.97542 0.0
H26 H 0.35127 0.42303 0.95721 0.0
H27 H 0.37984 0.47183 0.92356 0.0
H28 H 0.24167 0.41698 0.95305 0.0
H29 H 0.32956 0.41964 0.02971 0.0
H30 H 0.24795 0.34066 0.04287 0.0
H31 H 0.26767 0.36818 0.11167 0.0
H32 H 0.35845 0.35494 0.03875 0.0
H33 H 0.39376 0.33415 0.09191 0.0
H34 H 0.17959 0.40426 0.96616 0.0
H35 H 0.23272 0.30549 0.98942 0.0
H36 H 0.30323 0.34789 0.16519 0.0
H37 H 0.13052 0.37155 0.93696 0.0
H38 H 0.18369 0.27313 0.96101 0.0
C39 C 0.68083 0.47955 0.44135 0.0
C40 C 0.64478 0.47411 0.45023 0.0
C41 C 0.69949 0.50829 0.45662 0.0
C42 C 0.68225 0.53239 0.48058 0.0
C43 C 0.64611 0.5267 0.48928 0.0
C44 C 0.62773 0.49777 0.47455 0.0
C45 C 0.70111 0.56411 0.49559 0.0
C46 C 0.72556 0.58312 0.47331 0.0
C47 C 0.74055 0.61502 0.48628 0.0
C48 C 0.73061 0.62813 0.52166 0.0
C49 C 0.70689 0.60914 0.54435 0.0
C50 C 0.69286 0.57692 0.53157 0.0
C51 C 0.69423 0.62386 0.58026 0.0
C52 C 0.6964 0.60371 0.61316 0.0
C53 C 0.67582 0.65607 0.58078 0.0
C54 C 0.65725 0.66648 0.61293 0.0
C55 C 0.65714 0.64495 0.64513 0.0
C56 C 0.76653 0.6349 0.46305 0.0
C57 C 0.79503 0.61737 0.44567 0.0
C58 C 0.7641 0.67184 0.45991 0.0
C59 C 0.79054 0.69108 0.44135 0.0
C60 C 0.82004 0.67379 0.42563 0.0
C61 C 0.8216 0.63667 0.42713 0.0
C62 C 0.67839 0.61438 0.64546 0.0
H63 H 0.69453 0.46156 0.42266 0.0
H64 H 0.72736 0.51158 0.44964 0.0
H65 H 0.63156 0.54513 0.50669 0.0
H66 H 0.59975 0.49458 0.48122 0.0
H67 H 0.73192 0.574 0.44528 0.0
H68 H 0.67445 0.56244 0.5494 0.0
H69 H 0.74167 0.65287 0.53189 0.0
H70 H 0.71079 0.57894 0.61337 0.0
H71 H 0.67373 0.67191 0.55554 0.0
H72 H 0.64103 0.69003 0.61158 0.0
H73 H 0.79761 0.58891 0.44782 0.0
H74 H 0.74201 0.68595 0.47236 0.0
H75 H 0.67965 0.59769 0.67012 0.0
H76 H 0.84413 0.62266 0.41549 0.0
H77 H 0.78826 0.71961 0.43994 0.0
C78 C 0.64371 0.47555 0.9157 0.0
C79 C 0.63594 0.50715 0.93485 0.0
C80 C 0.66492 0.44978 0.93236 0.0
C81 C 0.67837 0.45491 0.96866 0.0
C82 C 0.67146 0.48672 0.98749 0.0
C83 C 0.65071 0.51273 0.97063 0.0
C84 C 0.69792 0.4263 0.9876 0.0
C85 C 0.72634 0.4095 0.9696 0.0
C86 C 0.74398 0.38134 0.98703 0.0
C87 C 0.73271 0.3699 0.02268 0.0
C88 C 0.70402 0.38624 0.04086 0.0
C89 C 0.68696 0.41468 0.02317 0.0
C90 C 0.69054 0.37266 0.07733 0.0
C91 C 0.68764 0.33605 0.08398 0.0
C92 C 0.67853 0.39626 0.10495 0.0
C93 C 0.66244 0.38365 0.13762 0.0
C94 C 0.65831 0.34706 0.14377 0.0
C95 C 0.77345 0.36302 0.96768 0.0
C96 C 0.77067 0.35395 0.92952 0.0
C97 C 0.80396 0.35318 0.9877 0.0
C98 C 0.83055 0.33352 0.97033 0.0
C99 C 0.82719 0.32334 0.93259 0.0
C100 C 0.79738 0.33432 0.91209 0.0
C101 C 0.67179 0.32339 0.1169 0.0
H102 H 0.6324 0.47009 0.88837 0.0
H103 H 0.66967 0.42525 0.91748 0.0
H104 H 0.68194 0.49134 0.01538 0.0
H105 H 0.64597 0.53707 0.98584 0.0
H106 H 0.73493 0.41863 0.94217 0.0
H107 H 0.66405 0.42688 0.03629 0.0
H108 H 0.74596 0.34785 0.03604 0.0
H109 H 0.69639 0.31712 0.06315 0.0
H110 H 0.68085 0.4246 0.10097 0.0
H111 H 0.65194 0.40277 0.15731 0.0
H112 H 0.74728 0.36094 0.9135 0.0
H113 H 0.80713 0.36043 0.01692 0.0
H114 H 0.66945 0.29506 0.12092 0.0
H115 H 0.79409 0.32661 0.88302 0.0
H116 H 0.85363 0.32594 0.98656 0.0
C117 C 0.31038 0.65337 0.62335 0.0
C118 C 0.34701 0.66093 0.62217 0.0
C119 C 0.29289 0.64101 0.59135 0.0
C120 C 0.31193 0.63555 0.55793 0.0
C121 C 0.34813 0.64472 0.55628 0.0
C122 C 0.36549 0.65752 0.58809 0.0
C123 C 0.29481 0.61759 0.52587 0.0
C124 C 0.26233 0.6296 0.51167 0.0
C125 C 0.24561 0.61191 0.48165 0.0
C126 C 0.26163 0.58145 0.46665 0.0
C127 C 0.29458 0.56991 0.48006 0.0
C128 C 0.31099 0.588 0.50967 0.0
C129 C 0.31308 0.54022 0.4618 0.0
C130 C 0.29606 0.50739 0.45667 0.0
C131 C 0.34821 0.54488 0.44933 0.0
C132 C 0.36613 0.51719 0.43199 0.0
C133 C 0.34939 0.48422 0.42718 0.0
C134 C 0.21281 0.62663 0.46458 0.0
C135 C 0.18767 0.64438 0.4868 0.0
C136 C 0.20743 0.62493 0.42555 0.0
C137 C 0.17819 0.64136 0.40913 0.0
C138 C 0.15406 0.66068 0.43116 0.0
C139 C 0.15898 0.66158 0.47029 0.0
C140 C 0.31427 0.47939 0.43978 0.0
H141 H 0.2956 0.65588 0.64933 0.0
H142 H 0.26495 0.63402 0.59323 0.0
H143 H 0.36323 0.64096 0.53066 0.0
H144 H 0.39382 0.66284 0.58655 0.0
H145 H 0.25094 0.6535 0.52327 0.0
H146 H 0.33621 0.57868 0.52048 0.0
H147 H 0.24909 0.56719 0.44381 0.0
H148 H 0.26896 0.5033 0.46621 0.0
H149 H 0.36173 0.57007 0.45277 0.0
H150 H 0.39335 0.5214 0.42285 0.0
H151 H 0.19043 0.64564 0.51701 0.0
H152 H 0.22636 0.61191 0.40734 0.0
H153 H 0.30091 0.45413 0.4363 0.0
H154 H 0.14138 0.67651 0.48832 0.0
H155 H 0.17494 0.63933 0.37903 0.0
C156 C 0.81165 0.00025 0.93207 0.0
C157 C 0.84755 -0.00377 0.92195 0.0
C158 C 0.79342 0.97268 0.95007 0.0
C159 C 0.81114 0.94115 0.95884 0.0
C160 C 0.84685 0.93703 0.94831 0.0
C161 C 0.86483 0.96424 0.9298 0.0
C162 C 0.79307 0.9129 0.98022 0.0
C163 C 0.7614 0.89766 0.96703 0.0
C164 C 0.74559 0.86918 0.98635 0.0
C165 C 0.76088 0.85728 0.02 0.0
C166 C 0.79259 0.87228 0.03314 0.0
C167 C 0.80869 0.89991 0.01308 0.0
C168 C 0.80993 0.85821 0.06694 0.0
C169 C 0.7921 0.85808 0.10157 0.0
C170 C 0.84505 0.84602 0.06483 0.0
C171 C 0.86249 0.83467 0.0971 0.0
C172 C 0.84526 0.83591 0.13205 0.0
C173 C 0.71505 0.84987 0.96985 0.0
C174 C 0.68678 0.86807 0.95297 0.0
C175 C 0.71477 0.81269 0.9698 0.0
C176 C 0.68673 0.79407 0.95353 0.0
C177 C 0.65835 0.81217 0.93685 0.0
C178 C 0.65864 0.84936 0.93658 0.0
C179 C 0.80981 0.84736 0.13405 0.0
H180 H 0.79783 0.02471 0.92621 0.0
H181 H 0.76586 0.97633 0.95811 0.0
H182 H 0.86091 0.91281 0.95468 0.0
H183 H 0.89261 0.96067 0.92261 0.0
H184 H 0.75024 0.90674 0.94073 0.0
H185 H 0.83334 0.91149 0.02321 0.0
H186 H 0.74877 0.83555 0.03538 0.0
H187 H 0.76497 0.86744 0.10367 0.0
H188 H 0.85913 0.84576 0.03827 0.0
H189 H 0.88997 0.82635 0.09497 0.0
H190 H 0.68626 0.89673 0.95277 0.0
H191 H 0.73661 0.79791 0.98174 0.0
H192 H 0.7961 0.84858 0.16079 0.0
H193 H 0.6369 0.86395 0.9242 0.0
H194 H 0.68755 0.76541 0.95351 0.0
C195 C 0.17587 0.98201 0.44791 0.0
C196 C 0.1396 0.98528 0.43927 0.0
C197 C 0.19428 0.01031 0.4644 0.0
C198 C 0.17641 0.04182 0.47317 0.0
C199 C 0.14005 0.04475 0.465 0.0
C200 C 0.12188 0.01684 0.44797 0.0
C201 C 0.19534 0.07186 0.49078 0.0
C202 C 0.22596 0.08626 0.47401 0.0
C203 C 0.24249 0.11653 0.48925 0.0
C204 C 0.22874 0.13129 0.52251 0.0
C205 C 0.19783 0.11741 0.539 0.0
C206 C 0.18125 0.08776 0.52302 0.0
C207 C 0.18157 0.13472 0.57189 0.0
C208 C 0.20079 0.13902 0.60532 0.0
C209 C 0.14596 0.14556 0.57036 0.0
C210 C 0.12936 0.15932 0.60216 0.0
C211 C 0.14793 0.16198 0.6362 0.0
C212 C 0.2721 0.13439 0.46886 0.0
C213 C 0.29813 0.11475 0.4497 0.0
C214 C 0.27368 0.17153 0.46723 0.0
C215 C 0.30062 0.18863 0.44722 0.0
C216 C 0.32647 0.16909 0.42774 0.0
C217 C 0.32494 0.13191 0.42925 0.0
C218 C 0.18396 0.15223 0.63741 0.0
H219 H 0.19 0.95789 0.44129 0.0
H220 H 0.22233 0.00751 0.47062 0.0
H221 H 0.12578 0.06888 0.47132 0.0
H222 H 0.09385 0.01984 0.44174 0.0
H223 H 0.23561 0.075 0.44796 0.0
H224 H 0.15729 0.07699 0.53578 0.0
H225 H 0.24132 0.15431 0.53499 0.0
H226 H 0.22831 0.1308 0.607 0.0
H227 H 0.13077 0.14267 0.54472 0.0
H228 H 0.10145 0.16619 0.60059 0.0
H229 H 0.29788 0.0861 0.45056 0.0
H230 H 0.25375 0.18759 0.48098 0.0
H231 H 0.19877 0.15399 0.6634 0.0
H232 H 0.34426 0.116 0.41438 0.0
H233 H 0.3013 0.21728 0.44737 0.0
C234 C 0.15652 0.98413 0.91758 0.0
C235 C 0.14981 0.01523 0.93806 0.0
C236 C 0.17535 0.95637 0.93376 0.0
C237 C 0.18743 0.95895 0.97086 0.0
C238 C 0.18189 0.99033 0.99101 0.0
C239 C 0.16352 0.01835 0.97465 0.0
C240 C 0.20359 0.92795 0.98915 0.0
C241 C 0.23098 0.90945 0.9714 0.0
C242 C 0.24441 0.87813 0.98701 0.0
C243 C 0.23025 0.86581 0.02129 0.0
C244 C 0.20315 0.88453 0.03976 0.0
C245 C 0.18995 0.91556 0.0233 0.0
C246 C 0.18742 0.8714 0.07548 0.0
C247 C 0.18033 0.83518 0.08098 0.0
C248 C 0.1774 0.8955 0.10353 0.0
C249 C 0.15903 0.88402 0.1353 0.0
C250 C 0.15071 0.84797 0.14033 0.0
C251 C 0.27304 0.85843 0.96731 0.0
C252 C 0.27413 0.85711 0.92785 0.0
C253 C 0.29981 0.84126 0.98771 0.0
C254 C 0.32696 0.8233 0.96916 0.0
C255 C 0.32857 0.8227 0.92969 0.0
C256 C 0.30174 0.83981 0.90928 0.0
C257 C 0.1623 0.82358 0.11314 0.0
H258 H 0.1459 0.98047 0.88963 0.0
H259 H 0.17903 0.93223 0.91783 0.0
H260 H 0.19135 0.99295 0.01958 0.0
H261 H 0.15949 0.04219 0.99094 0.0
H262 H 0.24193 0.91981 0.94545 0.0
H263 H 0.16792 0.92941 0.03624 0.0
H264 H 0.24012 0.84156 0.03353 0.0
H265 H 0.18751 0.81589 0.05985 0.0
H266 H 0.18303 0.9235 0.10055 0.0
H267 H 0.15019 0.9038 0.15516 0.0
H268 H 0.25359 0.86937 0.91112 0.0
H269 H 0.30017 0.84201 0.01808 0.0
H270 H 0.15689 0.79556 0.11631 0.0
H271 H 0.30216 0.84023 0.87891 0.0
H272 H 0.34659 0.80972 0.98596 0.0
C273 C 0.80798 0.13916 0.64087 0.0
C274 C 0.8417 0.15511 0.637 0.0
C275 C 0.7895 0.12732 0.60922 0.0
C276 C 0.80482 0.13086 0.57353 0.0
C277 C 0.83765 0.14822 0.56947 0.0
C278 C 0.85585 0.16052 0.60094 0.0
C279 C 0.78869 0.11343 0.54083 0.0
C280 C 0.75726 0.12617 0.52508 0.0
C281 C 0.74396 0.11121 0.49183 0.0
C282 C 0.76207 0.08293 0.47495 0.0
C283 C 0.79331 0.06952 0.49101 0.0
C284 C 0.80627 0.08494 0.52415 0.0
C285 C 0.81311 0.04028 0.47277 0.0
C286 C 0.79501 0.01217 0.45502 0.0
C287 C 0.85054 0.0402 0.47325 0.0
C288 C 0.86936 0.0123 0.45743 0.0
C289 C 0.85124 0.98425 0.44009 0.0
C290 C 0.71249 0.12671 0.4735 0.0
C291 C 0.68223 0.13525 0.49467 0.0
C292 C 0.71328 0.13467 0.43501 0.0
C293 C 0.68478 0.15202 0.41824 0.0
C294 C 0.65494 0.16161 0.43966 0.0
C295 C 0.65364 0.15242 0.47788 0.0
C296 C 0.81398 0.98451 0.4385 0.0
H297 H 0.79656 0.13476 0.66842 0.0
H298 H 0.76419 0.11383 0.61274 0.0
H299 H 0.8498 0.15107 0.54202 0.0
H300 H 0.88196 0.17233 0.59722 0.0
H301 H 0.74414 0.14871 0.53776 0.0
H302 H 0.83018 0.07488 0.53725 0.0
H303 H 0.7521 0.07186 0.44894 0.0
H304 H 0.76622 0.01118 0.45448 0.0
H305 H 0.86544 0.06182 0.48565 0.0
H306 H 0.89818 0.01277 0.45839 0.0
H307 H 0.68083 0.12894 0.52429 0.0
H308 H 0.73652 0.12871 0.41816 0.0
H309 H 0.79961 0.96297 0.42525 0.0
H310 H 0.63069 0.1589 0.49493 0.0
H311 H 0.68676 0.15914 0.38887 0.0
Sc312 Sc -0.00587 0.77121 0.30243 0.0
Sc313 Sc 0.99358 0.86424 0.30692 0.0
Sc314 Sc -0.00404 0.81532 0.38992 0.0
O315 O -0.00537 0.81679 0.33303 0.0
C316 C 0.94007 0.75491 0.37016 0.0
C317 C 0.94122 0.81861 0.25529 0.0
C318 C 0.94317 0.87997 0.37516 0.0
C319 C 0.04785 0.8208 0.25654 0.0
C320 C 0.04553 0.75 0.36872 0.0
C321 C 0.04825 0.87899 0.37431 0.0
O322 O 0.95395 0.74749 0.33844 0.0
O323 O 0.95472 0.84754 0.26658 0.0
O324 O 0.95939 0.8585 0.39645 0.0
O325 O 0.03391 0.79067 0.26335 0.0
O326 O 0.03208 0.77169 0.39183 0.0
O327 O 0.0319 0.88734 0.34443 0.0
O328 O 0.03656 0.74822 0.33448 0.0
O329 O 0.03699 0.84944 0.27122 0.0
O330 O 0.0407 0.8513 0.39312 0.0
O331 O 0.95184 0.78855 0.26636 0.0
O332 O 0.95145 0.77975 0.39111 0.0
O333 O 0.95024 0.88318 0.34049 0.0
Sc334 Sc -0.0062 0.22046 0.8063 0.0
Sc335 Sc -0.00129 0.12713 0.8048 0.0
Sc336 Sc 0.98924 0.17105 0.89056 0.0
O337 O -0.00605 0.17299 0.83385 0.0
C338 C 0.04191 0.23662 0.87803 0.0
C339 C 0.05137 0.1777 0.75901 0.0
C340 C 0.04744 0.11149 0.87519 0.0
C341 C 0.94455 0.17163 0.75485 0.0
C342 C 0.93629 0.23374 0.87071 0.0
C343 C 0.94161 0.10516 0.86725 0.0
O344 O 0.03217 0.24329 0.84455 0.0
O345 O 0.04005 0.14763 0.76954 0.0
O346 O 0.03068 0.13249 0.89662 0.0
O347 O 0.95519 0.20194 0.76587 0.0
O348 O 0.94757 0.20916 0.8917 0.0
O349 O 0.95815 0.10026 0.8366 0.0
O350 O 0.95019 0.24097 0.83907 0.0
O351 O 0.95783 0.14274 0.76639 0.0
O352 O 0.94889 0.13049 0.88941 0.0
O353 O 0.03735 0.20659 0.76947 0.0
O354 O 0.02878 0.21152 0.89746 0.0
O355 O 0.03986 0.10741 0.84074 0.0
Sc356 Sc 0.49988 0.26857 0.30188 0.0
Sc357 Sc 0.5025 0.36184 0.30725 0.0
Sc358 Sc 0.49214 0.31234 0.38955 0.0
O359 O 0.49816 0.31414 0.33288 0.0
C360 C 0.44078 0.24998 0.36327 0.0
C361 C 0.45134 0.31878 0.25197 0.0
C362 C 0.44364 0.3782 0.36934 0.0
C363 C 0.55792 0.31629 0.2602 0.0
C364 C 0.54603 0.24889 0.37366 0.0
C365 C 0.54945 0.37454 0.38017 0.0
O366 O 0.4562 0.24445 0.33209 0.0
O367 O 0.46372 0.34727 0.26585 0.0
O368 O 0.4518 0.35253 0.3906 0.0
O369 O 0.54392 0.28636 0.26738 0.0
O370 O 0.53157 0.27189 0.39469 0.0
O371 O 0.54152 0.3811 0.34626 0.0
O372 O 0.53781 0.24471 0.3393 0.0
O373 O 0.54584 0.34518 0.27283 0.0
O374 O 0.53354 0.351 0.39954 0.0
O375 O 0.46192 0.28816 0.2616 0.0
O376 O 0.45027 0.27377 0.38632 0.0
O377 O 0.45993 0.38476 0.33889 0.0
Sc378 Sc 0.49392 0.71734 0.79982 0.0
Sc379 Sc 0.48669 0.62463 0.80177 0.0
Sc380 Sc 0.48531 0.6718 0.88601 0.0
O381 O 0.48863 0.67138 0.82921 0.0
C382 C 0.54365 0.73086 0.87141 0.0
C383 C 0.5458 0.66712 0.75479 0.0
C384 C 0.5348 0.60472 0.87094 0.0
C385 C 0.43971 0.67272 0.74919 0.0
C386 C 0.43931 0.73918 0.86316 0.0
C387 C 0.42934 0.61193 0.86694 0.0
O388 O 0.53177 0.73925 0.83921 0.0
O389 O 0.52783 0.63972 0.76331 0.0
O390 O 0.51995 0.62703 0.89249 0.0
O391 O 0.45667 0.70103 0.7569 0.0
O392 O 0.45103 0.71685 0.88662 0.0
O393 O 0.44547 0.60336 0.83697 0.0
O394 O 0.44999 0.7413 0.82936 0.0
O395 O 0.44595 0.64326 0.76495 0.0
O396 O 0.43889 0.63807 0.88705 0.0
O397 O 0.53842 0.69773 0.76738 0.0
O398 O 0.53102 0.70542 0.89065 0.0
O399 O 0.5274 0.60198 0.8363 0.0
C400 C 0.11005 0.30949 0.89448 0.0
C401 C 0.1238 0.29971 0.92959 0.0
H402 H 0.07351 0.29704 0.85029 0.0
C403 C 0.11001 0.2697 0.94777 0.0
H404 H 0.12046 0.33241 0.87977 0.0
C405 C 0.08336 0.2495 0.93103 0.0
C406 C 0.06987 0.25876 0.89559 0.0
H407 H 0.11985 0.26183 0.97507 0.0
H408 H 0.07356 0.2264 0.94589 0.0
C409 C 0.08338 0.2891 0.87753 0.0
C410 C 0.86757 0.68469 0.37707 0.0
C411 C 0.85023 0.6947 0.41037 0.0
H412 H 0.90951 0.69595 0.33795 0.0
C413 C 0.86257 0.7245 0.43004 0.0
H414 H 0.8585 0.66189 0.36126 0.0
C415 C 0.89159 0.74391 0.41684 0.0
C416 C 0.90909 0.73403 0.38357 0.0
H417 H 0.85018 0.73252 0.45615 0.0
H418 H 0.90032 0.76665 0.43296 0.0
C419 C 0.89668 0.70427 0.36369 0.0
C420 C 0.86788 0.30671 0.8796 0.0
C421 C 0.85396 0.29984 0.91549 0.0
H422 H 0.90503 0.2912 0.83708 0.0
C423 C 0.86588 0.27023 0.93546 0.0
H424 H 0.85908 0.32944 0.86366 0.0
C425 C 0.89191 0.2484 0.92039 0.0
C426 C 0.90678 0.2557 0.88496 0.0
H427 H 0.85504 0.26392 0.96287 0.0
H428 H 0.90069 0.22603 0.93691 0.0
C429 C 0.89418 0.28487 0.86447 0.0
C430 C 0.12987 0.69737 0.3781 0.0
C431 C 0.12495 0.68126 0.41344 0.0
H432 H 0.1081 0.73143 0.3359 0.0
C433 C 0.09264 0.68658 0.43259 0.0
H434 H 0.15455 0.6945 0.36272 0.0
C435 C 0.0668 0.70882 0.41777 0.0
C436 C 0.07218 0.72528 0.38297 0.0
H437 H 0.08731 0.67388 0.45925 0.0
H438 H 0.04248 0.71311 0.4335 0.0
C439 C 0.10346 0.71879 0.36277 0.0
C440 C 0.61434 0.76254 0.939 0.0
C441 C 0.62853 0.792 0.9201 0.0
H442 H 0.57669 0.72017 0.93853 0.0
C443 C 0.61457 0.80147 0.885 0.0
H444 H 0.62427 0.75492 0.96634 0.0
C445 C 0.58711 0.78155 0.86894 0.0
C446 C 0.57305 0.7519 0.8878 0.0
H447 H 0.62528 0.8239 0.86968 0.0
H448 H 0.57697 0.78941 0.84177 0.0
C449 C 0.58695 0.74271 0.92306 0.0
C450 C 0.3904 0.17481 0.40756 0.0
C451 C 0.35534 0.18772 0.40696 0.0
H452 H 0.44513 0.18464 0.39341 0.0
C453 C 0.34849 0.2198 0.38823 0.0
H454 H 0.39676 0.15048 0.42207 0.0
C455 C 0.37629 0.23946 0.37247 0.0
C456 C 0.41121 0.227 0.37441 0.0
H457 H 0.32174 0.23016 0.38647 0.0
H458 H 0.37067 0.26481 0.35963 0.0
C459 C 0.41811 0.1943 0.39129 0.0
C460 C 0.3921 0.80295 0.92623 0.0
C461 C 0.35797 0.80399 0.91014 0.0
H462 H 0.44451 0.7812 0.92378 0.0
C463 C 0.35203 0.78596 0.87605 0.0
H464 H 0.39812 0.81735 0.95172 0.0
C465 C 0.37924 0.76638 0.8593 0.0
C466 C 0.41244 0.76393 0.87682 0.0
H467 H 0.32606 0.78576 0.86299 0.0
H468 H 0.3738 0.75171 0.8338 0.0
C469 C 0.41885 0.78267 0.91004 0.0
C470 C 0.61179 0.21147 0.44296 0.0
C471 C 0.62628 0.18306 0.42281 0.0
H472 H 0.57538 0.25448 0.44332 0.0
C473 C 0.61413 0.17625 0.38622 0.0
H474 H 0.62109 0.21785 0.47092 0.0
C475 C 0.58806 0.19759 0.37009 0.0
C476 C 0.57362 0.22607 0.39031 0.0
H477 H 0.62464 0.15434 0.37013 0.0
H478 H 0.57919 0.19168 0.34186 0.0
C479 C 0.58573 0.23266 0.42696 0.0
C480 C 0.36988 0.53163 0.87607 0.0
C481 C 0.35407 0.53728 0.91119 0.0
H482 H 0.40542 0.55107 0.83416 0.0
C483 C 0.35959 0.56962 0.92971 0.0
H484 H 0.36567 0.50695 0.86118 0.0
C485 C 0.38275 0.59495 0.91449 0.0
C486 C 0.40045 0.58834 0.88039 0.0
H487 H 0.34766 0.57441 0.95694 0.0
H488 H 0.38794 0.61895 0.93023 0.0
C489 C 0.39264 0.55696 0.86069 0.0
C490 C 0.60151 0.42375 0.45463 0.0
C491 C 0.62401 0.4452 0.43269 0.0
H492 H 0.56061 0.38416 0.45527 0.0
C493 C 0.62407 0.44104 0.39356 0.0
H494 H 0.60119 0.42635 0.48491 0.0
C495 C 0.60061 0.4172 0.37651 0.0
C496 C 0.57697 0.39676 0.39835 0.0
H497 H 0.64104 0.45742 0.37603 0.0
H498 H 0.60038 0.41543 0.34617 0.0
C499 C 0.57839 0.39956 0.43765 0.0
C500 C 0.58667 0.55118 0.94145 0.0
C501 C 0.61111 0.53333 0.9184 0.0
H502 H 0.54359 0.5877 0.9446 0.0
C503 C 0.61068 0.53978 0.87952 0.0
H504 H 0.58568 0.54636 0.97139 0.0
C505 C 0.58593 0.563 0.86403 0.0
C506 C 0.56143 0.58061 0.88716 0.0
H507 H 0.62949 0.52695 0.861 0.0
H508 H 0.58614 0.56729 0.83397 0.0
C509 C 0.5623 0.57473 0.92605 0.0
C510 C 0.38796 0.46078 0.3762 0.0
C511 C 0.36934 0.45499 0.40979 0.0
H512 H 0.42559 0.44091 0.33676 0.0
C513 C 0.37252 0.42234 0.42821 0.0
H514 H 0.38558 0.48567 0.36133 0.0
C515 C 0.3957 0.39664 0.41437 0.0
C516 C 0.41579 0.40314 0.38169 0.0
H517 H 0.35842 0.41739 0.45426 0.0
H518 H 0.3987 0.37221 0.42991 0.0
C519 C 0.4108 0.43507 0.36216 0.0
C520 C 0.86853 0.05906 0.92226 0.0
C521 C 0.86788 0.02569 0.90498 0.0
H522 H 0.89257 0.11052 0.92398 0.0
C523 C 0.88929 0.01967 0.87336 0.0
H524 H 0.85235 0.06421 0.94684 0.0
C525 C 0.91212 0.04609 0.86013 0.0
C526 C 0.91432 0.07892 0.8786 0.0
H527 H 0.889 0.99417 0.85943 0.0
H528 H 0.92903 0.04021 0.83631 0.0
C529 C 0.89172 0.08542 0.90932 0.0
C530 C 0.11798 0.92243 0.43648 0.0
C531 C 0.1199 0.95638 0.42056 0.0
H532 H 0.09352 0.87103 0.43446 0.0
C533 C 0.10069 0.96359 0.38782 0.0
H534 H 0.1326 0.91639 0.46183 0.0
C535 C 0.07877 0.93782 0.372 0.0
C536 C 0.07513 0.90431 0.38887 0.0
H537 H 0.10207 0.98953 0.3749 0.0
H538 H 0.06367 0.94476 0.34724 0.0
C539 C 0.09556 0.8966 0.42089 0.0
C540 C 0.12643 0.05049 0.88369 0.0
C541 C 0.12624 0.0429 0.92234 0.0
H542 H 0.10159 0.0781 0.8384 0.0
C543 C 0.10145 0.06009 0.94555 0.0
H544 H 0.14562 0.0383 0.8651 0.0
C545 C 0.07672 0.08337 0.93035 0.0
C546 C 0.07585 0.0896 0.89152 0.0
H547 H 0.10006 0.0545 0.97532 0.0
H548 H 0.05735 0.09536 0.9489 0.0
C549 C 0.10131 0.0734 0.86839 0.0
C550 C 0.86923 0.94685 0.38564 0.0
C551 C 0.87168 0.95485 0.42398 0.0
H552 H 0.89034 0.91679 0.33983 0.0
C553 C 0.89573 0.93634 0.44656 0.0
H554 H 0.85085 0.96102 0.36781 0.0
C555 C 0.91788 0.91088 0.43086 0.0
C556 C 0.91681 0.90395 0.39212 0.0
H557 H 0.89784 0.94212 0.47626 0.0
H558 H 0.93682 0.89766 0.44887 0.0
C559 C 0.89189 0.92176 0.36972 0.0
C560 C 0.39604 0.30176 0.16518 0.0
C561 C 0.37393 0.33161 0.16503 0.0
H562 H 0.43769 0.27386 0.19347 0.0
C563 C 0.37593 0.35586 0.19475 0.0
H564 H 0.39488 0.28273 0.14247 0.0
C565 C 0.40068 0.3512 0.22336 0.0
C566 C 0.42349 0.32186 0.22312 0.0
H567 H 0.35937 0.37925 0.19502 0.0
H568 H 0.40231 0.37086 0.24544 0.0
C569 C 0.42038 0.29668 0.19429 0.0
C570 C 0.62268 0.68585 0.68785 0.0
C571 C 0.63127 0.6514 0.67594 0.0
H572 H 0.58896 0.71809 0.72235 0.0
C573 C 0.61263 0.62261 0.6915 0.0
H574 H 0.6367 0.70859 0.67653 0.0
C575 C 0.58567 0.62798 0.71759 0.0
C576 C 0.57623 0.66235 0.72881 0.0
H577 H 0.61785 0.59576 0.68248 0.0
H578 H 0.5717 0.60494 0.72832 0.0
C579 C 0.59543 0.69128 0.71414 0.0
C580 C 0.63861 0.35258 0.2108 0.0
C581 C 0.63738 0.33418 0.17653 0.0
H582 H 0.61421 0.36116 0.26429 0.0
C583 C 0.61309 0.30588 0.17264 0.0
H584 H 0.65763 0.3738 0.21522 0.0
C585 C 0.58883 0.298 0.20131 0.0
C586 C 0.58812 0.31866 0.23398 0.0
H587 H 0.61118 0.29126 0.14659 0.0
H588 H 0.56901 0.27753 0.19674 0.0
C589 C 0.61396 0.34518 0.23903 0.0
C590 C 0.39273 0.69497 0.65864 0.0
C591 C 0.36697 0.66794 0.65707 0.0
H592 H 0.43576 0.71812 0.68961 0.0
C593 C 0.36308 0.6448 0.68763 0.0
H594 H 0.39611 0.71316 0.63539 0.0
C595 C 0.38593 0.64729 0.71827 0.0
C596 C 0.4128 0.67327 0.71915 0.0
H597 H 0.34365 0.62352 0.68695 0.0
H598 H 0.38321 0.6282 0.74079 0.0
C599 C 0.41528 0.69784 0.68965 0.0
C600 C 0.88616 0.79782 0.16953 0.0
C601 C 0.86565 0.82863 0.16646 0.0
H602 H 0.92589 0.77011 0.20079 0.0
C603 C 0.86768 0.85444 0.19467 0.0
H604 H 0.88491 0.77758 0.14803 0.0
C605 C 0.89141 0.8505 0.22436 0.0
C606 C 0.91308 0.82041 0.22667 0.0
H607 H 0.8523 0.87854 0.1927 0.0
H608 H 0.8935 0.87148 0.24499 0.0
C609 C 0.90945 0.79354 0.19968 0.0
C610 C 0.10464 0.19934 0.67208 0.0
C611 C 0.12826 0.17063 0.67095 0.0
H612 H 0.06204 0.22465 0.7017 0.0
C613 C 0.1295 0.14722 0.70147 0.0
H614 H 0.10332 0.21777 0.64884 0.0
C615 C 0.10568 0.15083 0.73126 0.0
C616 C 0.08059 0.17825 0.73137 0.0
H617 H 0.14724 0.12473 0.70116 0.0
H618 H 0.10589 0.13125 0.75348 0.0
C619 C 0.0812 0.20335 0.70231 0.0
C620 C 0.10164 0.81024 0.16776 0.0
C621 C 0.12785 0.8367 0.1724 0.0
H622 H 0.05592 0.78406 0.19122 0.0
C623 C 0.12976 0.85465 0.20695 0.0
H624 H 0.09904 0.79607 0.1415 0.0
C625 C 0.10442 0.84843 0.23484 0.0
C626 C 0.07723 0.82342 0.22929 0.0
H627 H 0.15018 0.87437 0.21208 0.0
H628 H 0.10562 0.86379 0.2605 0.0
C629 C 0.07676 0.80342 0.19614 0.0
C630 C 0.88383 0.19347 0.67357 0.0
C631 C 0.86426 0.16184 0.67016 0.0
H632 H 0.92448 0.22165 0.70354 0.0
C633 C 0.86944 0.1347 0.69642 0.0
H634 H 0.88022 0.21478 0.65362 0.0
C635 C 0.89496 0.13836 0.72445 0.0
C636 C 0.91555 0.16942 0.72709 0.0
H637 H 0.855 0.10989 0.69416 0.0
H638 H 0.89906 0.11652 0.74363 0.0
C639 C 0.90907 0.19738 0.70207 0.0
loop_
_geom_bond_atom_site_label_1
_geom_bond_atom_site_label_2
_geom_bond_distance
_geom_bond_site_symmetry_2
_ccdc_geom_bond_type
C0 C1 1.386 . S
C0 C2 1.397 . S
C0 H24 0.931 . S
C1 C0 1.386 . S
C1 C5 1.397 . S
C2 C0 1.397 . S
C2 C3 1.384 . S
C2 H25 0.930 . S
C3 C2 1.384 . S
C3 C4 1.377 . S
C3 C6 1.481 . S
C4 C3 1.377 . S
C4 C5 1.389 . S
C4 H26 0.929 . S
C5 C1 1.397 . S
C5 C4 1.389 . S
C5 H27 0.931 . S
C6 C3 1.481 . S
C6 C7 1.387 . S
C6 C11 1.390 1_556 S
C7 C6 1.387 . S
C7 C8 1.401 . S
C7 H28 0.930 . S
C8 C7 1.401 . S
C8 C9 1.376 1_556 S
C8 C17 1.511 . S
C9 C8 1.376 1_554 S
C9 C10 1.392 . S
C9 H30 0.931 . S
C10 C9 1.392 . S
C10 C11 1.361 . S
C10 C12 1.500 . S
C11 C6 1.390 1_554 S
C11 C10 1.361 . S
C11 H29 0.931 . S
C12 C10 1.500 . S
C12 C13 1.371 . S
C12 C14 1.365 . S
C13 C12 1.371 . S
C13 C23 1.386 . S
C13 H31 0.931 . S
C14 C12 1.365 . S
C14 C15 1.409 . S
C14 H32 0.929 . S
C15 C14 1.409 . S
C15 C16 1.380 . S
C15 H33 0.930 . S
C16 C15 1.380 . S
C16 C23 1.357 . S
C17 C8 1.511 . S
C17 C18 1.341 . S
C17 C19 1.371 . S
C18 C17 1.341 . S
C18 C22 1.394 . S
C18 H34 0.930 . S
C19 C17 1.371 . S
C19 C20 1.392 . S
C19 H35 0.931 1_556 S
C20 C19 1.392 . S
C20 C21 1.331 . S
C20 H38 0.932 . S
C21 C20 1.331 . S
C21 C22 1.336 . S
C22 C18 1.394 . S
C22 C21 1.336 . S
C22 H37 0.929 . S
C23 C13 1.386 . S
C23 C16 1.357 . S
C23 H36 0.928 . S
H24 C0 0.931 . S
H25 C2 0.930 . S
H26 C4 0.929 . S
H27 C5 0.931 . S
H28 C7 0.930 . S
H29 C11 0.931 . S
H30 C9 0.931 . S
H31 C13 0.931 . S
H32 C14 0.929 . S
H33 C15 0.930 . S
H34 C18 0.930 . S
H35 C19 0.931 1_554 S
H36 C23 0.928 . S
H37 C22 0.929 . S
H38 C20 0.932 . S
C39 C40 1.386 . S
C39 C41 1.397 . S
C39 H63 0.931 . S
C40 C39 1.386 . S
C40 C44 1.397 . S
C41 C39 1.397 . S
C41 C42 1.384 . S
C41 H64 0.930 . S
C42 C41 1.384 . S
C42 C43 1.377 . S
C42 C45 1.481 . S
C43 C42 1.377 . S
C43 C44 1.389 . S
C43 H65 0.929 . S
C44 C40 1.397 . S
C44 C43 1.389 . S
C44 H66 0.931 . S
C45 C42 1.481 . S
C45 C46 1.387 . S
C45 C50 1.390 . S
C46 C45 1.387 . S
C46 C47 1.401 . S
C46 H67 0.930 . S
C47 C46 1.401 . S
C47 C48 1.376 . S
C47 C56 1.511 . S
C48 C47 1.376 . S
C48 C49 1.392 . S
C48 H69 0.931 . S
C49 C48 1.392 . S
C49 C50 1.361 . S
C49 C51 1.500 . S
C50 C45 1.390 . S
C50 C49 1.361 . S
C50 H68 0.931 . S
C51 C49 1.500 . S
C51 C52 1.371 . S
C51 C53 1.365 . S
C52 C51 1.371 . S
C52 C62 1.386 . S
C52 H70 0.931 . S
C53 C51 1.365 . S
C53 C54 1.409 . S
C53 H71 0.929 . S
C54 C53 1.409 . S
C54 C55 1.380 . S
C54 H72 0.930 . S
C55 C54 1.380 . S
C55 C62 1.357 . S
C56 C47 1.511 . S
C56 C57 1.341 . S
C56 C58 1.371 . S
C57 C56 1.341 . S
C57 C61 1.394 . S
C57 H73 0.930 . S
C58 C56 1.371 . S
C58 C59 1.392 . S
C58 H74 0.931 . S
C59 C58 1.392 . S
C59 C60 1.331 . S
C59 H77 0.932 . S
C60 C59 1.331 . S
C60 C61 1.336 . S
C61 C57 1.394 . S
C61 C60 1.336 . S
C61 H76 0.929 . S
C62 C52 1.386 . S
C62 C55 1.357 . S
C62 H75 0.928 . S
H63 C39 0.931 . S
H64 C41 0.930 . S
H65 C43 0.929 . S
H66 C44 0.931 . S
H67 C46 0.930 . S
H68 C50 0.931 . S
H69 C48 0.931 . S
H70 C52 0.931 . S
H71 C53 0.929 . S
H72 C54 0.930 . S
H73 C57 0.930 . S
H74 C58 0.931 . S
H75 C62 0.928 . S
H76 C61 0.929 . S
H77 C59 0.932 . S
C78 C79 1.386 . S
C78 C80 1.397 . S
C78 H102 0.931 . S
C79 C78 1.386 . S
C79 C83 1.397 . S
C80 C78 1.397 . S
C80 C81 1.384 . S
C80 H103 0.930 . S
C81 C80 1.384 . S
C81 C82 1.377 . S
C81 C84 1.481 . S
C82 C81 1.377 . S
C82 C83 1.389 . S
C82 H104 0.929 1_556 S
C83 C79 1.397 . S
C83 C82 1.389 . S
C83 H105 0.931 . S
C84 C81 1.481 . S
C84 C85 1.387 . S
C84 C89 1.390 1_556 S
C85 C84 1.387 . S
C85 C86 1.401 . S
C85 H106 0.930 . S
C86 C85 1.401 . S
C86 C87 1.376 1_556 S
C86 C95 1.511 . S
C87 C86 1.376 1_554 S
C87 C88 1.392 . S
C87 H108 0.931 . S
C88 C87 1.392 . S
C88 C89 1.361 . S
C88 C90 1.500 . S
C89 C84 1.390 1_554 S
C89 C88 1.361 . S
C89 H107 0.931 . S
C90 C88 1.500 . S
C90 C91 1.371 . S
C90 C92 1.365 . S
C91 C90 1.371 . S
C91 C101 1.386 . S
C91 H109 0.931 . S
C92 C90 1.365 . S
C92 C93 1.409 . S
C92 H110 0.929 . S
C93 C92 1.409 . S
C93 C94 1.380 . S
C93 H111 0.930 . S
C94 C93 1.380 . S
C94 C101 1.357 . S
C95 C86 1.511 . S
C95 C96 1.341 . S
C95 C97 1.371 1_556 S
C96 C95 1.341 . S
C96 C100 1.394 . S
C96 H112 0.930 . S
C97 C95 1.371 1_554 S
C97 C98 1.392 1_554 S
C97 H113 0.931 . S
C98 C97 1.392 1_556 S
C98 C99 1.331 . S
C98 H116 0.932 1_556 S
C99 C98 1.331 . S
C99 C100 1.336 . S
C100 C96 1.394 . S
C100 C99 1.336 . S
C100 H115 0.929 . S
C101 C91 1.386 . S
C101 C94 1.357 . S
C101 H114 0.928 . S
H102 C78 0.931 . S
H103 C80 0.930 . S
H104 C82 0.929 1_554 S
H105 C83 0.931 . S
H106 C85 0.930 . S
H107 C89 0.931 . S
H108 C87 0.931 . S
H109 C91 0.931 . S
H110 C92 0.929 . S
H111 C93 0.930 . S
H112 C96 0.930 . S
H113 C97 0.931 . S
H114 C101 0.928 . S
H115 C100 0.929 . S
H116 C98 0.932 1_554 S
C117 C118 1.386 . S
C117 C119 1.397 . S
C117 H141 0.931 . S
C118 C117 1.386 . S
C118 C122 1.397 . S
C119 C117 1.397 . S
C119 C120 1.384 . S
C119 H142 0.930 . S
C120 C119 1.384 . S
C120 C121 1.377 . S
C120 C123 1.481 . S
C121 C120 1.377 . S
C121 C122 1.389 . S
C121 H143 0.929 . S
C122 C118 1.397 . S
C122 C121 1.389 . S
C122 H144 0.931 . S
C123 C120 1.481 . S
C123 C124 1.387 . S
C123 C128 1.390 . S
C124 C123 1.387 . S
C124 C125 1.401 . S
C124 H145 0.930 . S
C125 C124 1.401 . S
C125 C126 1.376 . S
C125 C134 1.511 . S
C126 C125 1.376 . S
C126 C127 1.392 . S
C126 H147 0.931 . S
C127 C126 1.392 . S
C127 C128 1.361 . S
C127 C129 1.500 . S
C128 C123 1.390 . S
C128 C127 1.361 . S
C128 H146 0.931 . S
C129 C127 1.500 . S
C129 C130 1.371 . S
C129 C131 1.365 . S
C130 C129 1.371 . S
C130 C140 1.386 . S
C130 H148 0.931 . S
C131 C129 1.365 . S
C131 C132 1.409 . S
C131 H149 0.929 . S
C132 C131 1.409 . S
C132 C133 1.380 . S
C132 H150 0.930 . S
C133 C132 1.380 . S
C133 C140 1.357 . S
C134 C125 1.511 . S
C134 C135 1.341 . S
C134 C136 1.371 . S
C135 C134 1.341 . S
C135 C139 1.394 . S
C135 H151 0.930 . S
C136 C134 1.371 . S
C136 C137 1.392 . S
C136 H152 0.931 . S
C137 C136 1.392 . S
C137 C138 1.331 . S
C137 H155 0.932 . S
C138 C137 1.331 . S
C138 C139 1.336 . S
C139 C135 1.394 . S
C139 C138 1.336 . S
C139 H154 0.929 . S
C140 C130 1.386 . S
C140 C133 1.357 . S
C140 H153 0.928 . S
H141 C117 0.931 . S
H142 C119 0.930 . S
H143 C121 0.929 . S
H144 C122 0.931 . S
H145 C124 0.930 . S
H146 C128 0.931 . S
H147 C126 0.931 . S
H148 C130 0.931 . S
H149 C131 0.929 . S
H150 C132 0.930 . S
H151 C135 0.930 . S
H152 C136 0.931 . S
H153 C140 0.928 . S
H154 C139 0.929 . S
H155 C137 0.932 . S
C156 C157 1.386 . S
C156 C158 1.397 1_545 S
C156 H180 0.931 . S
C157 C156 1.386 . S
C157 C161 1.397 1_545 S
C158 C156 1.397 1_565 S
C158 C159 1.384 . S
C158 H181 0.930 . S
C159 C158 1.384 . S
C159 C160 1.377 . S
C159 C162 1.481 . S
C160 C159 1.377 . S
C160 C161 1.389 . S
C160 H182 0.929 . S
C161 C157 1.397 1_565 S
C161 C160 1.389 . S
C161 H183 0.931 . S
C162 C159 1.481 . S
C162 C163 1.387 . S
C162 C167 1.390 1_556 S
C163 C162 1.387 . S
C163 C164 1.401 . S
C163 H184 0.930 . S
C164 C163 1.401 . S
C164 C165 1.376 1_556 S
C164 C173 1.511 . S
C165 C164 1.376 1_554 S
C165 C166 1.392 . S
C165 H186 0.931 . S
C166 C165 1.392 . S
C166 C167 1.361 . S
C166 C168 1.500 . S
C167 C162 1.390 1_554 S
C167 C166 1.361 . S
C167 H185 0.931 . S
C168 C166 1.500 . S
C168 C169 1.371 . S
C168 C170 1.365 . S
C169 C168 1.371 . S
C169 C179 1.386 . S
C169 H187 0.931 . S
C170 C168 1.365 . S
C170 C171 1.409 . S
C170 H188 0.929 . S
C171 C170 1.409 . S
C171 C172 1.380 . S
C171 H189 0.930 . S
C172 C171 1.380 . S
C172 C179 1.357 . S
C173 C164 1.511 . S
C173 C174 1.341 . S
C173 C175 1.371 . S
C174 C173 1.341 . S
C174 C178 1.394 . S
C174 H190 0.930 . S
C175 C173 1.371 . S
C175 C176 1.392 . S
C175 H191 0.931 1_556 S
C176 C175 1.392 . S
C176 C177 1.331 . S
C176 H194 0.932 . S
C177 C176 1.331 . S
C177 C178 1.336 . S
C178 C174 1.394 . S
C178 C177 1.336 . S
C178 H193 0.929 . S
C179 C169 1.386 . S
C179 C172 1.357 . S
C179 H192 0.928 . S
H180 C156 0.931 . S
H181 C158 0.930 . S
H182 C160 0.929 . S
H183 C161 0.931 . S
H184 C163 0.930 . S
H185 C167 0.931 . S
H186 C165 0.931 . S
H187 C169 0.931 . S
H188 C170 0.929 . S
H189 C171 0.930 . S
H190 C174 0.930 . S
H191 C175 0.931 1_554 S
H192 C179 0.928 . S
H193 C178 0.929 . S
H194 C176 0.932 . S
C195 C196 1.386 . S
C195 C197 1.397 1_565 S
C195 H219 0.931 . S
C196 C195 1.386 . S
C196 C200 1.397 1_565 S
C197 C195 1.397 1_545 S
C197 C198 1.384 . S
C197 H220 0.930 . S
C198 C197 1.384 . S
C198 C199 1.377 . S
C198 C201 1.481 . S
C199 C198 1.377 . S
C199 C200 1.389 . S
C199 H221 0.929 . S
C200 C196 1.397 1_545 S
C200 C199 1.389 . S
C200 H222 0.931 . S
C201 C198 1.481 . S
C201 C202 1.387 . S
C201 C206 1.390 . S
C202 C201 1.387 . S
C202 C203 1.401 . S
C202 H223 0.930 . S
C203 C202 1.401 . S
C203 C204 1.376 . S
C203 C212 1.511 . S
C204 C203 1.376 . S
C204 C205 1.392 . S
C204 H225 0.931 . S
C205 C204 1.392 . S
C205 C206 1.361 . S
C205 C207 1.500 . S
C206 C201 1.390 . S
C206 C205 1.361 . S
C206 H224 0.931 . S
C207 C205 1.500 . S
C207 C208 1.371 . S
C207 C209 1.365 . S
C208 C207 1.371 . S
C208 C218 1.386 . S
C208 H226 0.931 . S
C209 C207 1.365 . S
C209 C210 1.409 . S
C209 H227 0.929 . S
C210 C209 1.409 . S
C210 C211 1.380 . S
C210 H228 0.930 . S
C211 C210 1.380 . S
C211 C218 1.357 . S
C212 C203 1.511 . S
C212 C213 1.341 . S
C212 C214 1.371 . S
C213 C212 1.341 . S
C213 C217 1.394 . S
C213 H229 0.930 . S
C214 C212 1.371 . S
C214 C215 1.392 . S
C214 H230 0.931 . S
C215 C214 1.392 . S
C215 C216 1.331 . S
C215 H233 0.932 . S
C216 C215 1.331 . S
C216 C217 1.336 . S
C217 C213 1.394 . S
C217 C216 1.336 . S
C217 H232 0.929 . S
C218 C208 1.386 . S
C218 C211 1.357 . S
C218 H231 0.928 . S
H219 C195 0.931 . S
H220 C197 0.930 . S
H221 C199 0.929 . S
H222 C200 0.931 . S
H223 C202 0.930 . S
H224 C206 0.931 . S
H225 C204 0.931 . S
H226 C208 0.931 . S
H227 C209 0.929 . S
H228 C210 0.930 . S
H229 C213 0.930 . S
H230 C214 0.931 . S
H231 C218 0.928 . S
H232 C217 0.929 . S
H233 C215 0.932 . S
C234 C235 1.386 1_565 S
C234 C236 1.397 . S
C234 H258 0.931 . S
C235 C234 1.386 1_545 S
C235 C239 1.397 . S
C236 C234 1.397 . S
C236 C237 1.384 . S
C236 H259 0.930 . S
C237 C236 1.384 . S
C237 C238 1.377 . S
C237 C240 1.481 . S
C238 C237 1.377 . S
C238 C239 1.389 1_565 S
C238 H260 0.929 1_556 S
C239 C235 1.397 . S
C239 C238 1.389 1_545 S
C239 H261 0.931 . S
C240 C237 1.481 . S
C240 C241 1.387 . S
C240 C245 1.390 1_556 S
C241 C240 1.387 . S
C241 C242 1.401 . S
C241 H262 0.930 . S
C242 C241 1.401 . S
C242 C243 1.376 1_556 S
C242 C251 1.511 . S
C243 C242 1.376 1_554 S
C243 C244 1.392 . S
C243 H264 0.931 . S
C244 C243 1.392 . S
C244 C245 1.361 . S
C244 C246 1.500 . S
C245 C240 1.390 1_554 S
C245 C244 1.361 . S
C245 H263 0.931 . S
C246 C244 1.500 . S
C246 C247 1.371 . S
C246 C248 1.365 . S
C247 C246 1.371 . S
C247 C257 1.386 . S
C247 H265 0.931 . S
C248 C246 1.365 . S
C248 C249 1.409 . S
C248 H266 0.929 . S
C249 C248 1.409 . S
C249 C250 1.380 . S
C249 H267 0.930 . S
C250 C249 1.380 . S
C250 C257 1.357 . S
C251 C242 1.511 . S
C251 C252 1.341 . S
C251 C253 1.371 1_556 S
C252 C251 1.341 . S
C252 C256 1.394 . S
C252 H268 0.930 . S
C253 C251 1.371 1_554 S
C253 C254 1.392 1_554 S
C253 H269 0.931 . S
C254 C253 1.392 1_556 S
C254 C255 1.331 . S
C254 H272 0.932 1_556 S
C255 C254 1.331 . S
C255 C256 1.336 . S
C256 C252 1.394 . S
C256 C255 1.336 . S
C256 H271 0.929 . S
C257 C247 1.386 . S
C257 C250 1.357 . S
C257 H270 0.928 . S
H258 C234 0.931 . S
H259 C236 0.930 . S
H260 C238 0.929 1_554 S
H261 C239 0.931 . S
H262 C241 0.930 . S
H263 C245 0.931 . S
H264 C243 0.931 . S
H265 C247 0.931 . S
H266 C248 0.929 . S
H267 C249 0.930 . S
H268 C252 0.930 . S
H269 C253 0.931 . S
H270 C257 0.928 . S
H271 C256 0.929 . S
H272 C254 0.932 1_554 S
C273 C274 1.386 . S
C273 C275 1.397 . S
C273 H297 0.931 . S
C274 C273 1.386 . S
C274 C278 1.397 . S
C275 C273 1.397 . S
C275 C276 1.384 . S
C275 H298 0.930 . S
C276 C275 1.384 . S
C276 C277 1.377 . S
C276 C279 1.481 . S
C277 C276 1.377 . S
C277 C278 1.389 . S
C277 H299 0.929 . S
C278 C274 1.397 . S
C278 C277 1.389 . S
C278 H300 0.931 . S
C279 C276 1.481 . S
C279 C280 1.387 . S
C279 C284 1.390 . S
C280 C279 1.387 . S
C280 C281 1.401 . S
C280 H301 0.930 . S
C281 C280 1.401 . S
C281 C282 1.376 . S
C281 C290 1.511 . S
C282 C281 1.376 . S
C282 C283 1.392 . S
C282 H303 0.931 . S
C283 C282 1.392 . S
C283 C284 1.361 . S
C283 C285 1.500 . S
C284 C279 1.390 . S
C284 C283 1.361 . S
C284 H302 0.931 . S
C285 C283 1.500 . S
C285 C286 1.371 . S
C285 C287 1.365 . S
C286 C285 1.371 . S
C286 C296 1.386 1_545 S
C286 H304 0.931 . S
C287 C285 1.365 . S
C287 C288 1.409 1_545 S
C287 H305 0.929 . S
C288 C287 1.409 1_565 S
C288 C289 1.380 . S
C288 H306 0.930 . S
C289 C288 1.380 . S
C289 C296 1.357 . S
C290 C281 1.511 . S
C290 C291 1.341 . S
C290 C292 1.371 . S
C291 C290 1.341 . S
C291 C295 1.394 . S
C291 H307 0.930 . S
C292 C290 1.371 . S
C292 C293 1.392 . S
C292 H308 0.931 . S
C293 C292 1.392 . S
C293 C294 1.331 . S
C293 H311 0.932 . S
C294 C293 1.331 . S
C294 C295 1.336 . S
C295 C291 1.394 . S
C295 C294 1.336 . S
C295 H310 0.929 . S
C296 C286 1.386 1_565 S
C296 C289 1.357 . S
C296 H309 0.928 . S
H297 C273 0.931 . S
H298 C275 0.930 . S
H299 C277 0.929 . S
H300 C278 0.931 . S
H301 C280 0.930 . S
H302 C284 0.931 . S
H303 C282 0.931 . S
H304 C286 0.931 . S
H305 C287 0.929 . S
H306 C288 0.930 . S
H307 C291 0.930 . S
H308 C292 0.931 . S
H309 C296 0.928 . S
H310 C295 0.929 . S
H311 C293 0.932 . S
Sc312 O315 2.025 . S
Sc312 O322 2.105 1_455 S
Sc312 O325 2.105 . S
Sc312 O328 2.105 . S
Sc312 O331 2.105 1_455 S
Sc313 O315 2.025 . S
Sc313 O323 2.105 1_455 S
Sc313 O327 2.105 . S
Sc313 O329 2.105 . S
Sc313 O333 2.105 1_455 S
Sc314 O315 2.025 . S
Sc314 O324 2.105 1_455 S
Sc314 O326 2.105 . S
Sc314 O330 2.105 . S
Sc314 O332 2.105 1_455 S
O315 Sc312 2.025 . S
O315 Sc313 2.025 . S
O315 Sc314 2.025 . S
C316 O322 1.268 . S
C316 O332 1.268 . S
C317 O323 1.268 . S
C317 O331 1.268 . S
C318 O324 1.268 . S
C318 O333 1.268 . S
C319 O325 1.268 . S
C319 O329 1.268 . S
C320 O326 1.268 . S
C320 O328 1.268 . S
C321 O327 1.268 . S
C321 O330 1.268 . S
O322 Sc312 2.105 1_655 S
O322 C316 1.268 . S
O323 Sc313 2.105 1_655 S
O323 C317 1.268 . S
O324 Sc314 2.105 1_655 S
O324 C318 1.268 . S
O325 Sc312 2.105 . S
O325 C319 1.268 . S
O326 Sc314 2.105 . S
O326 C320 1.268 . S
O327 Sc313 2.105 . S
O327 C321 1.268 . S
O328 Sc312 2.105 . S
O328 C320 1.268 . S
O329 Sc313 2.105 . S
O329 C319 1.268 . S
O330 Sc314 2.105 . S
O330 C321 1.268 . S
O331 Sc312 2.105 1_655 S
O331 C317 1.268 . S
O332 Sc314 2.105 1_655 S
O332 C316 1.268 . S
O333 Sc313 2.105 1_655 S
O333 C318 1.268 . S
Sc334 O337 2.025 . S
Sc334 O344 2.123 . S
Sc334 O347 2.087 1_455 S
Sc334 O350 2.087 1_455 S
Sc334 O353 2.123 . S
Sc335 O337 2.025 . S
Sc335 O345 2.122 . S
Sc335 O349 2.088 1_455 S
Sc335 O351 2.088 1_455 S
Sc335 O355 2.122 . S
Sc336 O337 2.025 . S
Sc336 O346 2.123 . S
Sc336 O348 2.087 1_455 S
Sc336 O352 2.087 1_455 S
Sc336 O354 2.123 . S
O337 Sc334 2.025 . S
O337 Sc335 2.025 . S
O337 Sc336 2.025 . S
C338 O344 1.268 . S
C338 O354 1.268 . S
C339 O345 1.268 . S
C339 O353 1.268 . S
C340 O346 1.268 . S
C340 O355 1.268 . S
C341 O347 1.268 . S
C341 O351 1.268 . S
C342 O348 1.268 . S
C342 O350 1.268 . S
C343 O349 1.268 . S
C343 O352 1.268 . S
O344 Sc334 2.123 . S
O344 C338 1.268 . S
O345 Sc335 2.122 . S
O345 C339 1.268 . S
O346 Sc336 2.123 . S
O346 C340 1.268 . S
O347 Sc334 2.087 1_655 S
O347 C341 1.268 . S
O348 Sc336 2.087 1_655 S
O348 C342 1.268 . S
O349 Sc335 2.088 1_655 S
O349 C343 1.268 . S
O350 Sc334 2.087 1_655 S
O350 C342 1.268 . S
O351 Sc335 2.088 1_655 S
O351 C341 1.268 . S
O352 Sc336 2.087 1_655 S
O352 C343 1.268 . S
O353 Sc334 2.123 . S
O353 C339 1.268 . S
O354 Sc336 2.123 . S
O354 C338 1.268 . S
O355 Sc335 2.122 . S
O355 C340 1.268 . S
Sc356 O359 2.025 . S
Sc356 O366 2.105 . S
Sc356 O369 2.105 . S
Sc356 O372 2.105 . S
Sc356 O375 2.105 . S
Sc357 O359 2.025 . S
Sc357 O367 2.105 . S
Sc357 O371 2.105 . S
Sc357 O373 2.105 . S
Sc357 O377 2.105 . S
Sc358 O359 2.025 . S
Sc358 O368 2.105 . S
Sc358 O370 2.105 . S
Sc358 O374 2.105 . S
Sc358 O376 2.105 . S
O359 Sc356 2.025 . S
O359 Sc357 2.025 . S
O359 Sc358 2.025 . S
C360 O366 1.268 . S
C360 O376 1.268 . S
C361 O367 1.268 . S
C361 O375 1.268 . S
C362 O368 1.268 . S
C362 O377 1.268 . S
C363 O369 1.268 . S
C363 O373 1.268 . S
C364 O370 1.268 . S
C364 O372 1.268 . S
C365 O371 1.268 . S
C365 O374 1.268 . S
O366 Sc356 2.105 . S
O366 C360 1.268 . S
O367 Sc357 2.105 . S
O367 C361 1.268 . S
O368 Sc358 2.105 . S
O368 C362 1.268 . S
O369 Sc356 2.105 . S
O369 C363 1.268 . S
O370 Sc358 2.105 . S
O370 C364 1.268 . S
O371 Sc357 2.105 . S
O371 C365 1.268 . S
O372 Sc356 2.105 . S
O372 C364 1.268 . S
O373 Sc357 2.105 . S
O373 C363 1.268 . S
O374 Sc358 2.105 . S
O374 C365 1.268 . S
O375 Sc356 2.105 . S
O375 C361 1.268 . S
O376 Sc358 2.105 . S
O376 C360 1.268 . S
O377 Sc357 2.105 . S
O377 C362 1.268 . S
Sc378 O381 2.025 . S
Sc378 O388 2.105 . S
Sc378 O391 2.105 . S
Sc378 O394 2.105 . S
Sc378 O397 2.105 . S
Sc379 O381 2.025 . S
Sc379 O389 2.105 . S
Sc379 O393 2.105 . S
Sc379 O395 2.105 . S
Sc379 O399 2.105 . S
Sc380 O381 2.025 . S
Sc380 O390 2.105 . S
Sc380 O392 2.105 . S
Sc380 O396 2.105 . S
Sc380 O398 2.105 . S
O381 Sc378 2.025 . S
O381 Sc379 2.025 . S
O381 Sc380 2.025 . S
C382 O388 1.268 . S
C382 O398 1.268 . S
C383 O389 1.268 . S
C383 O397 1.268 . S
C384 O390 1.268 . S
C384 O399 1.268 . S
C385 O391 1.268 . S
C385 O395 1.268 . S
C386 O392 1.268 . S
C386 O394 1.268 . S
C387 O393 1.268 . S
C387 O396 1.268 . S
O388 Sc378 2.105 . S
O388 C382 1.268 . S
O389 Sc379 2.105 . S
O389 C383 1.268 . S
O390 Sc380 2.105 . S
O390 C384 1.268 . S
O391 Sc378 2.105 . S
O391 C385 1.268 . S
O392 Sc380 2.105 . S
O392 C386 1.268 . S
O393 Sc379 2.105 . S
O393 C387 1.268 . S
O394 Sc378 2.105 . S
O394 C386 1.268 . S
O395 Sc379 2.105 . S
O395 C385 1.268 . S
O396 Sc380 2.105 . S
O396 C387 1.268 . S
O397 Sc378 2.105 . S
O397 C383 1.268 . S
O398 Sc380 2.105 . S
O398 C382 1.268 . S
O399 Sc379 2.105 . S
O399 C384 1.268 . S
C400 C401 1.387 . S
C400 H404 0.950 . S
C400 C409 1.390 . S
C401 C400 1.387 . S
C401 C403 1.387 . S
H402 C409 0.950 . S
C403 C401 1.387 . S
C403 C405 1.390 . S
C403 H407 0.950 . S
H404 C400 0.950 . S
C405 C403 1.390 . S
C405 C406 1.387 . S
C405 H408 0.950 . S
C406 C405 1.387 . S
C406 C409 1.387 . S
H407 C403 0.950 . S
H408 C405 0.950 . S
C409 C400 1.390 . S
C409 H402 0.950 . S
C409 C406 1.387 . S
C410 C411 1.387 . S
C410 H414 0.950 . S
C410 C419 1.390 . S
C411 C410 1.387 . S
C411 C413 1.387 . S
H412 C419 0.950 . S
C413 C411 1.387 . S
C413 C415 1.390 . S
C413 H417 0.950 . S
H414 C410 0.950 . S
C415 C413 1.390 . S
C415 C416 1.387 . S
C415 H418 0.950 . S
C416 C415 1.387 . S
C416 C419 1.387 . S
H417 C413 0.950 . S
H418 C415 0.950 . S
C419 C410 1.390 . S
C419 H412 0.950 . S
C419 C416 1.387 . S
C420 C421 1.387 . S
C420 H424 0.950 . S
C420 C429 1.390 . S
C421 C420 1.387 . S
C421 C423 1.387 . S
H422 C429 0.950 . S
C423 C421 1.387 . S
C423 C425 1.390 . S
C423 H427 0.950 . S
H424 C420 0.950 . S
C425 C423 1.390 . S
C425 C426 1.387 . S
C425 H428 0.950 . S
C426 C425 1.387 . S
C426 C429 1.387 . S
H427 C423 0.950 . S
H428 C425 0.950 . S
C429 C420 1.390 . S
C429 H422 0.950 . S
C429 C426 1.387 . S
C430 C431 1.387 . S
C430 H434 0.950 . S
C430 C439 1.390 . S
C431 C430 1.387 . S
C431 C433 1.387 . S
H432 C439 0.950 . S
C433 C431 1.387 . S
C433 C435 1.390 . S
C433 H437 0.950 . S
H434 C430 0.950 . S
C435 C433 1.390 . S
C435 C436 1.387 . S
C435 H438 0.950 . S
C436 C435 1.387 . S
C436 C439 1.387 . S
H437 C433 0.950 . S
H438 C435 0.950 . S
C439 C430 1.390 . S
C439 H432 0.950 . S
C439 C436 1.387 . S
C440 C441 1.387 . S
C440 H444 0.950 . S
C440 C449 1.390 . S
C441 C440 1.387 . S
C441 C443 1.387 . S
H442 C449 0.950 . S
C443 C441 1.387 . S
C443 C445 1.390 . S
C443 H447 0.950 . S
H444 C440 0.950 . S
C445 C443 1.390 . S
C445 C446 1.387 . S
C445 H448 0.950 . S
C446 C445 1.387 . S
C446 C449 1.387 . S
H447 C443 0.950 . S
H448 C445 0.950 . S
C449 C440 1.390 . S
C449 H442 0.950 . S
C449 C446 1.387 . S
C450 C451 1.387 . S
C450 H454 0.950 . S
C450 C459 1.390 . S
C451 C450 1.387 . S
C451 C453 1.387 . S
H452 C459 0.950 . S
C453 C451 1.387 . S
C453 C455 1.390 . S
C453 H457 0.950 . S
H454 C450 0.950 . S
C455 C453 1.390 . S
C455 C456 1.387 . S
C455 H458 0.950 . S
C456 C455 1.387 . S
C456 C459 1.387 . S
H457 C453 0.950 . S
H458 C455 0.950 . S
C459 C450 1.390 . S
C459 H452 0.950 . S
C459 C456 1.387 . S
C460 C461 1.387 . S
C460 H464 0.950 . S
C460 C469 1.390 . S
C461 C460 1.387 . S
C461 C463 1.387 . S
H462 C469 0.950 . S
C463 C461 1.387 . S
C463 C465 1.390 . S
C463 H467 0.950 . S
H464 C460 0.950 . S
C465 C463 1.390 . S
C465 C466 1.387 . S
C465 H468 0.950 . S
C466 C465 1.387 . S
C466 C469 1.387 . S
H467 C463 0.950 . S
H468 C465 0.950 . S
C469 C460 1.390 . S
C469 H462 0.950 . S
C469 C466 1.387 . S
C470 C471 1.387 . S
C470 H474 0.950 . S
C470 C479 1.390 . S
C471 C470 1.387 . S
C471 C473 1.387 . S
H472 C479 0.950 . S
C473 C471 1.387 . S
C473 C475 1.390 . S
C473 H477 0.950 . S
H474 C470 0.950 . S
C475 C473 1.390 . S
C475 C476 1.387 . S
C475 H478 0.950 . S
C476 C475 1.387 . S
C476 C479 1.387 . S
H477 C473 0.950 . S
H478 C475 0.950 . S
C479 C470 1.390 . S
C479 H472 0.950 . S
C479 C476 1.387 . S
C480 C481 1.387 . S
C480 H484 0.950 . S
C480 C489 1.390 . S
C481 C480 1.387 . S
C481 C483 1.387 . S
H482 C489 0.950 . S
C483 C481 1.387 . S
C483 C485 1.390 . S
C483 H487 0.950 . S
H484 C480 0.950 . S
C485 C483 1.390 . S
C485 C486 1.387 . S
C485 H488 0.950 . S
C486 C485 1.387 . S
C486 C489 1.387 . S
H487 C483 0.950 . S
H488 C485 0.950 . S
C489 C480 1.390 . S
C489 H482 0.950 . S
C489 C486 1.387 . S
C490 C491 1.387 . S
C490 H494 0.950 . S
C490 C499 1.390 . S
C491 C490 1.387 . S
C491 C493 1.387 . S
H492 C499 0.950 . S
C493 C491 1.387 . S
C493 C495 1.390 . S
C493 H497 0.950 . S
H494 C490 0.950 . S
C495 C493 1.390 . S
C495 C496 1.387 . S
C495 H498 0.950 . S
C496 C495 1.387 . S
C496 C499 1.387 . S
H497 C493 0.950 . S
H498 C495 0.950 . S
C499 C490 1.390 . S
C499 H492 0.950 . S
C499 C496 1.387 . S
C500 C501 1.387 . S
C500 H504 0.950 . S
C500 C509 1.390 . S
C501 C500 1.387 . S
C501 C503 1.387 . S
H502 C509 0.950 . S
C503 C501 1.387 . S
C503 C505 1.390 . S
C503 H507 0.950 . S
H504 C500 0.950 . S
C505 C503 1.390 . S
C505 C506 1.387 . S
C505 H508 0.950 . S
C506 C505 1.387 . S
C506 C509 1.387 . S
H507 C503 0.950 . S
H508 C505 0.950 . S
C509 C500 1.390 . S
C509 H502 0.950 . S
C509 C506 1.387 . S
C510 C511 1.387 . S
C510 H514 0.950 . S
C510 C519 1.390 . S
C511 C510 1.387 . S
C511 C513 1.387 . S
H512 C519 0.950 . S
C513 C511 1.387 . S
C513 C515 1.390 . S
C513 H517 0.950 . S
H514 C510 0.950 . S
C515 C513 1.390 . S
C515 C516 1.387 . S
C515 H518 0.950 . S
C516 C515 1.387 . S
C516 C519 1.387 . S
H517 C513 0.950 . S
H518 C515 0.950 . S
C519 C510 1.390 . S
C519 H512 0.950 . S
C519 C516 1.387 . S
C520 C521 1.387 . S
C520 H524 0.950 . S
C520 C529 1.390 . S
C521 C520 1.387 . S
C521 C523 1.387 . S
H522 C529 0.950 . S
C523 C521 1.387 . S
C523 C525 1.390 . S
C523 H527 0.950 . S
H524 C520 0.950 . S
C525 C523 1.390 . S
C525 C526 1.387 . S
C525 H528 0.950 . S
C526 C525 1.387 . S
C526 C529 1.387 . S
H527 C523 0.950 . S
H528 C525 0.950 . S
C529 C520 1.390 . S
C529 H522 0.950 . S
C529 C526 1.387 . S
C530 C531 1.387 . S
C530 H534 0.950 . S
C530 C539 1.390 . S
C531 C530 1.387 . S
C531 C533 1.387 . S
H532 C539 0.950 . S
C533 C531 1.387 . S
C533 C535 1.390 . S
C533 H537 0.950 . S
H534 C530 0.950 . S
C535 C533 1.390 . S
C535 C536 1.387 . S
C535 H538 0.950 . S
C536 C535 1.387 . S
C536 C539 1.387 . S
H537 C533 0.950 . S
H538 C535 0.950 . S
C539 C530 1.390 . S
C539 H532 0.950 . S
C539 C536 1.387 . S
C540 C541 1.387 . S
C540 H544 0.950 . S
C540 C549 1.390 . S
C541 C540 1.387 . S
C541 C543 1.387 . S
H542 C549 0.950 . S
C543 C541 1.387 . S
C543 C545 1.390 . S
C543 H547 0.950 . S
H544 C540 0.950 . S
C545 C543 1.390 . S
C545 C546 1.387 . S
C545 H548 0.950 . S
C546 C545 1.387 . S
C546 C549 1.387 . S
H547 C543 0.950 . S
H548 C545 0.950 . S
C549 C540 1.390 . S
C549 H542 0.950 . S
C549 C546 1.387 . S
C550 C551 1.387 . S
C550 H554 0.950 . S
C550 C559 1.390 . S
C551 C550 1.387 . S
C551 C553 1.387 . S
H552 C559 0.950 . S
C553 C551 1.387 . S
C553 C555 1.390 . S
C553 H557 0.950 . S
H554 C550 0.950 . S
C555 C553 1.390 . S
C555 C556 1.387 . S
C555 H558 0.950 . S
C556 C555 1.387 . S
C556 C559 1.387 . S
H557 C553 0.950 . S
H558 C555 0.950 . S
C559 C550 1.390 . S
C559 H552 0.950 . S
C559 C556 1.387 . S
C560 C561 1.387 . S
C560 H564 0.950 . S
C560 C569 1.390 . S
C561 C560 1.387 . S
C561 C563 1.387 . S
H562 C569 0.950 . S
C563 C561 1.387 . S
C563 C565 1.390 . S
C563 H567 0.950 . S
H564 C560 0.950 . S
C565 C563 1.390 . S
C565 C566 1.387 . S
C565 H568 0.950 . S
C566 C565 1.387 . S
C566 C569 1.387 . S
H567 C563 0.950 . S
H568 C565 0.950 . S
C569 C560 1.390 . S
C569 H562 0.950 . S
C569 C566 1.387 . S
C570 C571 1.387 . S
C570 H574 0.950 . S
C570 C579 1.390 . S
C571 C570 1.387 . S
C571 C573 1.387 . S
H572 C579 0.950 . S
C573 C571 1.387 . S
C573 C575 1.390 . S
C573 H577 0.950 . S
H574 C570 0.950 . S
C575 C573 1.390 . S
C575 C576 1.387 . S
C575 H578 0.950 . S
C576 C575 1.387 . S
C576 C579 1.387 . S
H577 C573 0.950 . S
H578 C575 0.950 . S
C579 C570 1.390 . S
C579 H572 0.950 . S
C579 C576 1.387 . S
C580 C581 1.387 . S
C580 H584 0.950 . S
C580 C589 1.390 . S
C581 C580 1.387 . S
C581 C583 1.387 . S
H582 C589 0.950 . S
C583 C581 1.387 . S
C583 C585 1.390 . S
C583 H587 0.950 . S
H584 C580 0.950 . S
C585 C583 1.390 . S
C585 C586 1.387 . S
C585 H588 0.950 . S
C586 C585 1.387 . S
C586 C589 1.387 . S
H587 C583 0.950 . S
H588 C585 0.950 . S
C589 C580 1.390 . S
C589 H582 0.950 . S
C589 C586 1.387 . S
C590 C591 1.387 . S
C590 H594 0.950 . S
C590 C599 1.390 . S
C591 C590 1.387 . S
C591 C593 1.387 . S
H592 C599 0.950 . S
C593 C591 1.387 . S
C593 C595 1.390 . S
C593 H597 0.950 . S
H594 C590 0.950 . S
C595 C593 1.390 . S
C595 C596 1.387 . S
C595 H598 0.950 . S
C596 C595 1.387 . S
C596 C599 1.387 . S
H597 C593 0.950 . S
H598 C595 0.950 . S
C599 C590 1.390 . S
C599 H592 0.950 . S
C599 C596 1.387 . S
C600 C601 1.387 . S
C600 H604 0.950 . S
C600 C609 1.390 . S
C601 C600 1.387 . S
C601 C603 1.387 . S
H602 C609 0.950 . S
C603 C601 1.387 . S
C603 C605 1.390 . S
C603 H607 0.950 . S
H604 C600 0.950 . S
C605 C603 1.390 . S
C605 C606 1.387 . S
C605 H608 0.950 . S
C606 C605 1.387 . S
C606 C609 1.387 . S
H607 C603 0.950 . S
H608 C605 0.950 . S
C609 C600 1.390 . S
C609 H602 0.950 . S
C609 C606 1.387 . S
C610 C611 1.387 . S
C610 H614 0.950 . S
C610 C619 1.390 . S
C611 C610 1.387 . S
C611 C613 1.387 . S
H612 C619 0.950 . S
C613 C611 1.387 . S
C613 C615 1.390 . S
C613 H617 0.950 . S
H614 C610 0.950 . S
C615 C613 1.390 . S
C615 C616 1.387 . S
C615 H618 0.950 . S
C616 C615 1.387 . S
C616 C619 1.387 . S
H617 C613 0.950 . S
H618 C615 0.950 . S
C619 C610 1.390 . S
C619 H612 0.950 . S
C619 C616 1.387 . S
C620 C621 1.387 . S
C620 H624 0.950 . S
C620 C629 1.390 . S
C621 C620 1.387 . S
C621 C623 1.387 . S
H622 C629 0.950 . S
C623 C621 1.387 . S
C623 C625 1.390 . S
C623 H627 0.950 . S
H624 C620 0.950 . S
C625 C623 1.390 . S
C625 C626 1.387 . S
C625 H628 0.950 . S
C626 C625 1.387 . S
C626 C629 1.387 . S
H627 C623 0.950 . S
H628 C625 0.950 . S
C629 C620 1.390 . S
C629 H622 0.950 . S
C629 C626 1.387 . S
C630 C631 1.387 . S
C630 H634 0.950 . S
C630 C639 1.390 . S
C631 C630 1.387 . S
C631 C633 1.387 . S
H632 C639 0.950 . S
C633 C631 1.387 . S
C633 C635 1.390 . S
C633 H637 0.950 . S
H634 C630 0.950 . S
C635 C633 1.390 . S
C635 C636 1.387 . S
C635 H638 0.950 . S
C636 C635 1.387 . S
C636 C639 1.387 . S
H637 C633 0.950 . S
H638 C635 0.950 . S
C639 C630 1.390 . S
C639 H632 0.950 . S
C639 C636 1.387 . S
C401 C21 1.582 . S
C406 C338 1.537 . S
C416 C316 1.537 . S
C411 C60 1.582 . S
C426 C342 1.539 . S
C421 C99 1.573 . S
C436 C320 1.533 . S
C431 C138 1.576 . S
C446 C382 1.535 . S
C441 C177 1.581 . S
C456 C360 1.538 . S
C451 C216 1.582 . S
C461 C255 1.574 . S
C466 C386 1.541 . S
C476 C364 1.535 . S
C471 C294 1.577 . S
C481 C1 1.586 . S
C486 C387 1.630 . S
C496 C365 1.628 . S
C491 C40 1.587 . S
C501 C79 1.585 . S
C506 C384 1.634 . S
C511 C133 1.577 . S
C516 C362 1.623 . S
C526 C343 1.630 . S
C521 C157 1.589 . S
C531 C196 1.587 . S
C536 C321 1.628 . S
C546 C340 1.633 . S
C541 C235 1.587 . S
C556 C318 1.623 . S
C551 C289 1.576 . S
C566 C361 1.612 . S
C561 C16 1.569 . S
C576 C383 1.612 . S
C571 C55 1.569 . S
C581 C94 1.573 . S
C586 C363 1.611 . S
C596 C385 1.614 . S
C591 C118 1.574 . S
C606 C317 1.612 . S
C601 C172 1.569 . S
C611 C211 1.569 . S
C616 C339 1.612 . S
C621 C250 1.570 . S
C626 C319 1.612 . S
C631 C274 1.575 . S
C636 C341 1.614 . S
