# Generated by pormake.
# Topology pto, (3,4)-cn, num edge types: 1
# Building blocks:
#     Node 0, Type 0, BuildingBlock: CUQRIR_clean_linker_1, # of connection points: 3
#     Node 1, Type 0, BuildingBlock: CUQRIR_clean_linker_1, # of connection points: 3
#     Node 2, Type 0, BuildingBlock: CUQRIR_clean_linker_1, # of connection points: 3
#     Node 3, Type 0, BuildingBlock: CUQRIR_clean_linker_1, # of connection points: 3
#     Node 4, Type 0, BuildingBlock: CUQRIR_clean_linker_1, # of connection points: 3
#     Node 5, Type 0, BuildingBlock: CUQRIR_clean_linker_1, # of connection points: 3
#     Node 6, Type 0, BuildingBlock: CUQRIR_clean_linker_1, # of connection points: 3
#     Node 7, Type 0, BuildingBlock: CUQRIR_clean_linker_1, # of connection points: 3
#     Node 8, Type 1, BuildingBlock: NAWXER_clean_sbu_0, # of connection points: 4
#     Node 9, Type 1, BuildingBlock: NAWXER_clean_sbu_0, # of connection points: 4
#     Node 10, Type 1, BuildingBlock: NAWXER_clean_sbu_0, # of connection points: 4
#     Node 11, Type 1, BuildingBlock: NAWXER_clean_sbu_0, # of connection points: 4
#     Node 12, Type 1, BuildingBlock: NAWXER_clean_sbu_0, # of connection points: 4
#     Node 13, Type 1, BuildingBlock: NAWXER_clean_sbu_0, # of connection points: 4
#     Edge 14, Type (0, 1), BuildingBlock: OJICUG_clean_linker_0, # of connection points: 2
#     Edge 15, Type (0, 1), BuildingBlock: OJICUG_clean_linker_0, # of connection points: 2
#     Edge 16, Type (0, 1), BuildingBlock: OJICUG_clean_linker_0, # of connection points: 2
#     Edge 17, Type (0, 1), BuildingBlock: OJICUG_clean_linker_0, # of connection points: 2
#     Edge 18, Type (0, 1), BuildingBlock: OJICUG_clean_linker_0, # of connection points: 2
#     Edge 19, Type (0, 1), BuildingBlock: OJICUG_clean_linker_0, # of connection points: 2
#     Edge 20, Type (0, 1), BuildingBlock: OJICUG_clean_linker_0, # of connection points: 2
#     Edge 21, Type (0, 1), BuildingBlock: OJICUG_clean_linker_0, # of connection points: 2
#     Edge 22, Type (0, 1), BuildingBlock: OJICUG_clean_linker_0, # of connection points: 2
#     Edge 23, Type (0, 1), BuildingBlock: OJICUG_clean_linker_0, # of connection points: 2
#     Edge 24, Type (0, 1), BuildingBlock: OJICUG_clean_linker_0, # of connection points: 2
#     Edge 25, Type (0, 1), BuildingBlock: OJICUG_clean_linker_0, # of connection points: 2
#     Edge 26, Type (0, 1), BuildingBlock: OJICUG_clean_linker_0, # of connection points: 2
#     Edge 27, Type (0, 1), BuildingBlock: OJICUG_clean_linker_0, # of connection points: 2
#     Edge 28, Type (0, 1), BuildingBlock: OJICUG_clean_linker_0, # of connection points: 2
#     Edge 29, Type (0, 1), BuildingBlock: OJICUG_clean_linker_0, # of connection points: 2
#     Edge 30, Type (0, 1), BuildingBlock: OJICUG_clean_linker_0, # of connection points: 2
#     Edge 31, Type (0, 1), BuildingBlock: OJICUG_clean_linker_0, # of connection points: 2
#     Edge 32, Type (0, 1), BuildingBlock: OJICUG_clean_linker_0, # of connection points: 2
#     Edge 33, Type (0, 1), BuildingBlock: OJICUG_clean_linker_0, # of connection points: 2
#     Edge 34, Type (0, 1), BuildingBlock: OJICUG_clean_linker_0, # of connection points: 2
#     Edge 35, Type (0, 1), BuildingBlock: OJICUG_clean_linker_0, # of connection points: 2
#     Edge 36, Type (0, 1), BuildingBlock: OJICUG_clean_linker_0, # of connection points: 2
#     Edge 37, Type (0, 1), BuildingBlock: OJICUG_clean_linker_0, # of connection points: 2
# Relax obj value: 0.022
# Max RMSD: 0.153
# Mean RMSD: 0.073
data_MOF--net-pto--node1-NAWXER_clean_sbu_0--node2-CUQRIR_clean_linker_1--edge1-OJICUG_clean_linker_0
_symmetry_space_group_name_H-M    P1
_symmetry_Int_Tables_number       1
_symmetry_cell_setting            triclinic
loop_
_symmetry_equiv_pos_as_xyz
'x, y, z'
_cell_length_a     27.207993
_cell_length_b     25.249845
_cell_length_c     23.893734
_cell_angle_alpha  77.888918
_cell_angle_beta   95.787817
_cell_angle_gamma 95.537606
loop_
_atom_site_label
_atom_site_type_symbol
_atom_site_fract_x
_atom_site_fract_y
_atom_site_fract_z
_atom_type_partial_charge
C0 C 0.24658 0.32583 0.2302 0.0
N1 N 0.29056 0.30456 0.23018 0.0
N2 N 0.23796 0.36427 0.18191 0.0
C3 C 0.21407 0.31232 0.27938 0.0
C4 C 0.27839 0.36599 0.15288 0.0
N5 N 0.31044 0.33032 0.1824 0.0
C6 C 0.28427 0.39849 0.09304 0.0
H7 H 0.19524 0.34838 0.28299 0.0
H8 H 0.23599 0.29761 0.32052 0.0
H9 H 0.18531 0.27981 0.27165 0.0
H10 H 0.30668 0.43711 0.0958 0.0
H11 H 0.24781 0.40813 0.06981 0.0
H12 H 0.30384 0.37596 0.06797 0.0
C13 C 0.31526 0.78174 0.72369 0.0
N14 N 0.35861 0.80831 0.73917 0.0
N15 N 0.29851 0.74488 0.7692 0.0
C16 C 0.28746 0.79473 0.66541 0.0
C17 C 0.33316 0.75046 0.81286 0.0
N18 N 0.36892 0.78958 0.7948 0.0
C19 C 0.33436 0.71463 0.87196 0.0
H20 H 0.29353 0.83859 0.64613 0.0
H21 H 0.24716 0.78386 0.66815 0.0
H22 H 0.30132 0.77124 0.6367 0.0
H23 H 0.31906 0.6727 0.8698 0.0
H24 H 0.31137 0.73132 0.89893 0.0
H25 H 0.37246 0.713 0.8933 0.0
C26 C 0.87065 0.78403 0.35182 0.0
N27 N 0.85652 0.76149 0.30517 0.0
N28 N 0.83781 0.81934 0.35759 0.0
C29 C 0.91655 0.77193 0.39147 0.0
C30 C 0.80396 0.81857 0.31242 0.0
N31 N 0.81534 0.78383 0.28052 0.0
C32 C 0.75981 0.85232 0.29846 0.0
H33 H 0.90861 0.73421 0.4236 0.0
H34 H 0.92845 0.80496 0.41506 0.0
H35 H 0.94731 0.76547 0.36707 0.0
H36 H 0.76369 0.88102 0.25683 0.0
H37 H 0.75583 0.87632 0.33129 0.0
H38 H 0.7255 0.82551 0.29364 0.0
C39 C 0.76423 0.24989 0.78995 0.0
N40 N 0.81041 0.24878 0.77371 0.0
N41 N 0.76278 0.2902 0.81896 0.0
C42 C 0.72177 0.20819 0.78291 0.0
C43 C 0.80974 0.31272 0.82143 0.0
N44 N 0.83905 0.28695 0.79499 0.0
C45 C 0.82588 0.36341 0.84456 0.0
H46 H 0.69875 0.22278 0.74259 0.0
H47 H 0.69795 0.20178 0.81917 0.0
H48 H 0.73545 0.16871 0.78079 0.0
H49 H 0.8436 0.35168 0.8888 0.0
H50 H 0.79398 0.38725 0.84582 0.0
H51 H 0.85336 0.38971 0.81781 0.0
C52 C 0.81181 0.67159 0.83233 0.0
N53 N 0.84683 0.70003 0.79886 0.0
N54 N 0.78758 0.70542 0.8552 0.0
C55 C 0.80388 0.61065 0.84609 0.0
C56 C 0.80932 0.75545 0.83436 0.0
N57 N 0.84603 0.75213 0.80108 0.0
C58 C 0.79118 0.80782 0.84192 0.0
H59 H 0.77683 0.59738 0.81285 0.0
H60 H 0.7889 0.59614 0.88859 0.0
H61 H 0.83898 0.59174 0.84577 0.0
H62 H 0.81339 0.82163 0.87848 0.0
H63 H 0.75164 0.80226 0.85112 0.0
H64 H 0.79536 0.83996 0.80279 0.0
C65 C 0.79249 0.20188 0.27179 0.0
N66 N 0.8339 0.22745 0.29372 0.0
N67 N 0.76979 0.23579 0.22705 0.0
C68 C 0.77247 0.14507 0.29638 0.0
C69 C 0.79912 0.28295 0.22277 0.0
N70 N 0.83765 0.27802 0.26365 0.0
C71 C 0.78946 0.3342 0.1794 0.0
H72 H 0.78704 0.11657 0.2737 0.0
H73 H 0.73141 0.14116 0.29011 0.0
H74 H 0.7843 0.13326 0.34281 0.0
H75 H 0.76831 0.3601 0.19891 0.0
H76 H 0.76749 0.32493 0.14044 0.0
H77 H 0.82451 0.3577 0.16672 0.0
C78 C 0.27793 0.3086 0.73785 0.0
N79 N 0.30068 0.26235 0.74122 0.0
N80 N 0.24133 0.31425 0.69456 0.0
C81 C 0.28956 0.3466 0.77906 0.0
C82 C 0.24205 0.26946 0.67218 0.0
N83 N 0.27751 0.23746 0.70095 0.0
C84 C 0.21222 0.26033 0.61782 0.0
H85 H 0.30465 0.32469 0.8216 0.0
H86 H 0.25596 0.36599 0.78459 0.0
H87 H 0.31781 0.37896 0.76174 0.0
H88 H 0.1993 0.29885 0.5915 0.0
H89 H 0.17942 0.23186 0.62929 0.0
H90 H 0.23444 0.24208 0.59135 0.0
C91 C 0.30637 0.73817 0.33468 0.0
N92 N 0.31547 0.70543 0.2991 0.0
N93 N 0.33625 0.78458 0.3264 0.0
C94 C 0.266 0.72601 0.37553 0.0
C95 C 0.36471 0.77892 0.285 0.0
N96 N 0.35171 0.73119 0.26758 0.0
C97 C 0.40373 0.82106 0.25953 0.0
H98 H 0.2293 0.72749 0.35056 0.0
H99 H 0.26873 0.75495 0.40494 0.0
H100 H 0.26832 0.68462 0.4022 0.0
H101 H 0.41557 0.85095 0.28703 0.0
H102 H 0.38846 0.84345 0.21734 0.0
H103 H 0.43659 0.80125 0.25238 0.0
C104 C 0.98465 0.45337 0.27995 0.0
C105 C 0.13152 0.58295 0.27998 0.0
O106 O 1.01346 0.45896 0.32414 0.0
Zn107 Zn 0.053 0.52296 0.28705 0.0
O108 O 0.98854 0.48796 0.23264 0.0
Zn109 Zn 0.03392 0.55978 0.1986 0.0
O110 O 0.05995 0.53396 0.13627 0.0
O111 O 0.08236 0.48958 0.2241 0.0
O112 O 0.1034 0.59156 0.2332 0.0
O113 O 0.11594 0.54933 0.32333 0.0
O114 O 1.00318 0.58486 0.27722 0.0
O115 O 0.98907 0.61896 0.18504 0.0
C116 C 0.08309 0.49638 0.16969 0.0
C117 C 0.981 0.61808 0.23676 0.0
C118 C 1.00841 0.42984 0.77398 0.0
C119 C 0.13547 0.58257 0.77191 0.0
O120 O 0.03527 0.44045 0.81777 0.0
Zn121 Zn 0.07045 0.5076 0.77918 0.0
O122 O 1.01097 0.46282 0.72564 0.0
Zn123 Zn 0.05024 0.53569 0.68772 0.0
O124 O 0.08336 0.50784 0.63183 0.0
O125 O 0.10911 0.47614 0.72269 0.0
O126 O 0.1109 0.58141 0.72349 0.0
O127 O 0.12406 0.54795 0.81662 0.0
O128 O 1.01588 0.56384 0.76103 0.0
O129 O 0.99755 0.58646 0.66741 0.0
C130 C 0.11138 0.47825 0.66914 0.0
C131 C 0.99092 0.5909 0.71818 0.0
C132 C 0.40808 0.98288 0.57107 0.0
C133 C 0.35821 0.12778 0.40624 0.0
O134 O 0.36188 0.98451 0.55585 0.0
Zn135 Zn 0.31117 0.02847 0.49615 0.0
O136 O 0.43946 0.01757 0.54447 0.0
Zn137 Zn 0.38944 0.05681 0.48888 0.0
O138 O 0.35349 0.09024 0.54657 0.0
O139 O 0.27549 0.05697 0.5489 0.0
O140 O 0.40284 0.12102 0.4266 0.0
O141 O 0.32322 0.0958 0.42932 0.0
O142 O 0.28317 0.97217 0.45474 0.0
O143 O 0.36293 0.99366 0.4443 0.0
C144 C 0.31135 0.08711 0.56693 0.0
C145 C 0.32302 0.96448 0.43475 0.0
C146 C 0.64663 0.75953 0.12916 0.0
C147 C 0.52372 0.78337 0.96757 0.0
O148 O 0.62533 0.71367 0.1218 0.0
Zn149 Zn 0.56553 0.68634 0.06605 0.0
O150 O 0.62927 0.80336 0.10159 0.0
Zn151 Zn 0.57902 0.77269 0.05336 0.0
O152 O 0.51822 0.74236 0.10398 0.0
O153 O 0.51184 0.65327 0.11673 0.0
O154 O 0.54729 0.82083 0.98983 0.0
O155 O 0.52706 0.73329 0.9918 0.0
O156 O 0.60334 0.64433 0.02602 0.0
O157 O 0.62487 0.73257 0.00994 0.0
C158 C 0.49599 0.69655 0.1251 0.0
C159 C 0.63113 0.68496 1.00266 0.0
C160 C 0.91292 0.94895 0.66394 0.0
C161 C 0.90944 0.10652 0.502 0.0
O162 O 0.87015 0.96393 0.64363 0.0
Zn163 Zn 0.83647 0.02332 0.58102 0.0
O164 O 0.95171 0.97662 0.64515 0.0
Zn165 Zn 0.91753 0.0319 0.58685 0.0
O166 O 0.88534 0.07981 0.63546 0.0
O167 O 0.8039 0.06538 0.623 0.0
O168 O 0.94959 0.08819 0.5278 0.0
O169 O 0.86772 0.08535 0.51917 0.0
O170 O 0.80126 0.97652 0.53181 0.0
O171 O 0.88283 0.98131 0.5315 0.0
C172 C 0.84191 0.08969 0.64485 0.0
C173 C 0.8399 0.96302 0.51384 0.0
C174 C 0.59147 0.22192 0.07909 0.0
C175 C 0.46014 0.23168 0.91671 0.0
O176 O 0.56969 0.18087 0.06103 0.0
Zn177 Zn 0.52356 0.22167 1.00098 0.0
O178 O 0.57867 0.26946 0.05564 0.0
Zn179 Zn 0.52951 0.309 0.98846 0.0
O180 O 0.49035 0.34377 0.02944 0.0
O181 O 0.47744 0.25433 0.05073 0.0
O182 O 0.47797 0.2774 0.92814 0.0
O183 O 0.47471 0.18796 0.94849 0.0
O184 O 0.57669 0.26441 0.94443 0.0
O185 O 0.5761 0.35307 0.93987 0.0
C186 C 0.46867 0.30134 0.05794 0.0
C187 C 0.59323 0.3134 0.92519 0.0
C188 C 0.14785 0.37434 0.16943 0.0
C189 C 0.19667 0.39762 0.166 0.0
H190 H 0.07165 0.38883 0.17071 0.0
C191 C 0.20496 0.45433 0.14961 0.0
H192 H 0.14055 0.33068 0.18091 0.0
C193 C 0.16544 0.48741 0.14119 0.0
C194 C 0.11717 0.46426 0.14985 0.0
H195 H 0.24234 0.47321 0.14717 0.0
H196 H 0.17332 0.5311 0.1341 0.0
C197 C 0.10841 0.40746 0.16203 0.0
C198 C 0.22505 0.69449 0.8146 0.0
C199 C 0.25693 0.70468 0.76998 0.0
H200 H 0.16216 0.64637 0.85138 0.0
C201 C 0.249 0.67342 0.72734 0.0
H202 H 0.22993 0.71854 0.84755 0.0
C203 C 0.20959 0.63359 0.72858 0.0
C204 C 0.17816 0.62299 0.77346 0.0
H205 H 0.27363 0.67942 0.69334 0.0
H206 H 0.20401 0.6105 0.6947 0.0
C207 C 0.1864 0.65334 0.81685 0.0
C208 C 0.89687 0.67542 0.323 0.0
C209 C 0.88232 0.72257 0.28489 0.0
H210 H 0.93943 0.60625 0.33801 0.0
C211 C 0.89752 0.73354 0.22879 0.0
H212 H 0.88482 0.66542 0.36602 0.0
C213 C 0.92867 0.69918 0.21213 0.0
C214 C 0.94544 0.65348 0.25154 0.0
H215 H 0.88691 0.76981 0.19868 0.0
H216 H 0.94085 0.70933 0.16913 0.0
C217 C 0.92825 0.6416 0.30679 0.0
C218 C 0.92341 0.30789 0.83415 0.0
C219 C 0.88989 0.30457 0.78595 0.0
H220 H 0.98697 0.35122 0.86888 0.0
C221 C 0.90134 0.33488 0.73225 0.0
H222 H 0.91472 0.28502 0.87611 0.0
C223 C 0.94226 0.37304 0.72798 0.0
C224 C 0.97223 0.38162 0.77754 0.0
H225 H 0.87565 0.33339 0.69482 0.0
H226 H 0.94805 0.39857 0.68635 0.0
C227 C 0.96414 0.34643 0.83016 0.0
C228 C 0.35855 0.2629 0.29801 0.0
C229 C 0.31016 0.25933 0.27121 0.0
H230 H 0.41241 0.22385 0.36199 0.0
C231 C 0.28014 0.2111 0.28577 0.0
H232 H 0.38244 0.29977 0.28723 0.0
C233 C 0.29688 0.16825 0.32808 0.0
C234 C 0.34444 0.17213 0.35698 0.0
H235 H 0.24323 0.2069 0.26474 0.0
H236 H 0.27196 0.13215 0.33877 0.0
C237 C 0.37566 0.21953 0.3406 0.0
C238 C 0.45346 0.76805 0.8284 0.0
C239 C 0.4144 0.80051 0.82728 0.0
H240 H 0.51931 0.73689 0.87525 0.0
C241 C 0.41576 0.83418 0.86726 0.0
H242 H 0.45211 0.74125 0.79824 0.0
C243 C 0.45445 0.83264 0.91059 0.0
C244 C 0.49102 0.79614 0.9149 0.0
H245 H 0.38512 0.85855 0.86724 0.0
H246 H 0.45342 0.85626 0.94337 0.0
C247 C 0.49133 0.76533 0.87245 0.0
C248 C 0.87639 0.89557 0.3993 0.0
C249 C 0.83936 0.85319 0.39918 0.0
H250 H 0.90511 0.96381 0.43552 0.0
C251 C 0.80118 0.84754 0.43602 0.0
H252 H 0.90539 0.90114 0.37023 0.0
C253 C 0.79991 0.88428 0.47231 0.0
C254 C 0.83743 0.92642 0.47283 0.0
H255 H 0.77199 0.81523 0.43575 0.0
H256 H 0.77036 0.87911 0.50061 0.0
C257 C 0.87574 0.93154 0.43614 0.0
C258 C 0.67573 0.31199 0.8102 0.0
C259 C 0.72116 0.30465 0.84323 0.0
H260 H 0.59822 0.3214 0.81101 0.0
C261 C 0.72503 0.3086 0.90116 0.0
H262 H 0.67241 0.30969 0.76523 0.0
C263 C 0.68342 0.31706 0.92656 0.0
C264 C 0.63751 0.3212 0.89436 0.0
H265 H 0.75966 0.30238 0.92734 0.0
H266 H 0.68634 0.31663 0.97224 0.0
C267 C 0.63381 0.31958 0.83589 0.0
C268 C 0.40133 0.84216 0.65074 0.0
C269 C 0.38754 0.85037 0.70313 0.0
H270 H 0.4226 0.87985 0.5668 0.0
C271 C 0.39649 0.90221 0.7163 0.0
H272 H 0.39522 0.80229 0.64012 0.0
C273 C 0.41322 0.94643 0.67487 0.0
C274 C 0.42128 0.9393 0.61984 0.0
H275 H 0.38587 0.90943 0.75635 0.0
H276 H 0.41373 0.98699 0.68341 0.0
C277 C 0.41811 0.88632 0.60937 0.0
C278 C 0.77366 0.80908 0.18492 0.0
C279 C 0.78317 0.76902 0.23412 0.0
H280 H 0.72187 0.83856 0.11448 0.0
C281 C 0.75024 0.72252 0.24517 0.0
H282 H 0.79851 0.84548 0.17631 0.0
C283 C 0.7062 0.71838 0.21006 0.0
C284 C 0.69432 0.76131 0.16425 0.0
H285 H 0.75664 0.6918 0.28368 0.0
H286 H 0.68025 0.68318 0.22069 0.0
C287 C 0.72933 0.80568 0.15066 0.0
C288 C 0.79286 0.2088 0.68781 0.0
C289 C 0.82394 0.21465 0.73718 0.0
H290 H 0.7729 0.16328 0.62166 0.0
C291 C 0.86347 0.18139 0.754 0.0
H292 H 0.76285 0.23487 0.67326 0.0
C293 C 0.87005 0.14107 0.72345 0.0
C294 C 0.83643 0.13274 0.67669 0.0
H295 H 0.88773 0.18501 0.79202 0.0
H296 H 0.90025 0.11513 0.73761 0.0
C297 C 0.79837 0.16766 0.6586 0.0
C298 C 0.36008 0.26862 0.1493 0.0
C299 C 0.35548 0.31933 0.16234 0.0
H300 H 0.40011 0.22298 0.10567 0.0
C301 C 0.39134 0.36217 0.14671 0.0
H302 H 0.33226 0.23542 0.16062 0.0
C303 C 0.42936 0.35576 0.11441 0.0
C304 C 0.43229 0.30608 0.09787 0.0
H305 H 0.38808 0.40149 0.15677 0.0
H306 H 0.45536 0.39024 0.10076 0.0
C307 C 0.3985 0.26187 0.11747 0.0
C308 C 0.86942 0.64729 0.73008 0.0
C309 C 0.88344 0.67775 0.77285 0.0
H310 H 0.89331 0.59693 0.67716 0.0
C311 C 0.9335 0.68425 0.79225 0.0
H312 H 0.83082 0.64211 0.7146 0.0
C313 C 0.96879 0.6582 0.77167 0.0
C314 C 0.95484 0.62623 0.73024 0.0
H315 H 0.94483 0.70753 0.82525 0.0
H316 H 1.00692 0.66161 0.78953 0.0
C317 C 0.90505 0.62209 0.70837 0.0
C318 C 0.91197 0.3343 0.23064 0.0
C319 C 0.87708 0.31883 0.27145 0.0
H320 H 0.9731 0.38971 0.20134 0.0
C321 C 0.8793 0.34598 0.31744 0.0
H322 H 0.91064 0.31388 0.19487 0.0
C323 C 0.91588 0.38831 0.3223 0.0
C324 C 0.9495 0.4051 0.28003 0.0
H325 H 0.85179 0.33577 0.34839 0.0
H326 H 0.91642 0.4095 0.35738 0.0
C327 C 0.94743 0.3775 0.23443 0.0
C328 C 0.15713 0.34496 0.67008 0.0
C329 C 0.20854 0.35734 0.67663 0.0
H330 H 0.08526 0.37547 0.65897 0.0
C331 C 0.22717 0.41203 0.66785 0.0
H332 H 0.14196 0.30309 0.6771 0.0
C333 C 0.19474 0.45345 0.65751 0.0
C334 C 0.14332 0.4407 0.65445 0.0
H335 H 0.26672 0.42249 0.67172 0.0
H336 H 0.20974 0.49498 0.6563 0.0
C337 C 0.12479 0.38633 0.65884 0.0
C338 C 0.26672 0.6184 0.32673 0.0
C339 C 0.27879 0.66436 0.2844 0.0
H340 H 0.21022 0.55798 0.3602 0.0
C341 C 0.24421 0.6791 0.23738 0.0
H342 H 0.29262 0.60673 0.36379 0.0
C343 C 0.19688 0.65186 0.23548 0.0
C344 C 0.18294 0.60936 0.28086 0.0
H345 H 0.25221 0.71502 0.2049 0.0
H346 H 0.17041 0.66603 0.19975 0.0
C347 C 0.21912 0.59152 0.32539 0.0
C348 C 0.87675 0.80183 0.70944 0.0
C349 C 0.87516 0.79704 0.76876 0.0
H350 H 0.89263 0.85445 0.62962 0.0
C351 C 0.89748 0.83962 0.79464 0.0
H352 H 0.85941 0.77001 0.68833 0.0
C353 C 0.91618 0.88838 0.7609 0.0
C354 C 0.91394 0.89457 0.70101 0.0
H355 H 0.8974 0.83644 0.84051 0.0
H356 H 0.92853 0.92254 0.78103 0.0
C357 C 0.89606 0.85007 0.67594 0.0
C358 C 0.71324 0.18427 0.16523 0.0
C359 C 0.72238 0.2267 0.1958 0.0
H360 H 0.66385 0.14852 0.10444 0.0
C361 C 0.68537 0.26231 0.19315 0.0
H362 H 0.74126 0.15621 0.16678 0.0
C363 C 0.64168 0.25818 0.15775 0.0
C364 C 0.63337 0.21782 0.12448 0.0
H365 H 0.69103 0.29451 0.21728 0.0
H366 H 0.61492 0.28795 0.15495 0.0
C367 C 0.66894 0.17972 0.12989 0.0
C368 C 0.25571 0.1485 0.67561 0.0
C369 C 0.29186 0.19071 0.68306 0.0
H370 H 0.2327 0.0832 0.63177 0.0
C371 C 0.33682 0.19389 0.65849 0.0
H372 H 0.22057 0.14582 0.69406 0.0
C373 C 0.34381 0.15845 0.62277 0.0
C374 C 0.30568 0.11949 0.6106 0.0
H375 H 0.36473 0.22669 0.6629 0.0
H376 H 0.37809 0.16379 0.60208 0.0
C377 C 0.26232 0.1134 0.63928 0.0
C378 C 0.38084 0.74352 0.17099 0.0
C379 C 0.37663 0.71129 0.22611 0.0
H380 H 0.42228 0.76462 0.09672 0.0
C381 C 0.40732 0.668 0.24421 0.0
H382 H 0.35773 0.77709 0.15596 0.0
C383 C 0.44415 0.6601 0.20974 0.0
C384 C 0.45144 0.69611 0.15709 0.0
H385 H 0.4054 0.64308 0.28685 0.0
H386 H 0.46919 0.62855 0.22618 0.0
C387 C 0.41813 0.7366 0.13735 0.0
C388 C 0.89709 0.16682 0.34531 0.0
C389 C 0.86422 0.2065 0.34502 0.0
H390 H 0.94003 0.10443 0.39721 0.0
C391 C 0.8558 0.21997 0.39696 0.0
H392 H 0.90323 0.15538 0.30551 0.0
C393 C 0.87745 0.19205 0.44881 0.0
C394 C 0.90735 0.14944 0.44982 0.0
H395 H 0.82916 0.24891 0.39776 0.0
H396 H 0.86675 0.20002 0.48858 0.0
C397 C 0.9187 0.13843 0.39752 0.0
C398 C 0.34385 0.19999 0.82181 0.0
C399 C 0.34472 0.24692 0.77799 0.0
H400 H 0.38027 0.15756 0.90065 0.0
C401 C 0.38664 0.28396 0.77642 0.0
H402 H 0.31164 0.17112 0.82408 0.0
C403 C 0.42505 0.2769 0.82004 0.0
C404 C 0.42302 0.23213 0.86629 0.0
H405 H 0.38818 0.32025 0.74294 0.0
H406 H 0.45563 0.30789 0.81871 0.0
C407 C 0.38295 0.19244 0.86561 0.0
C408 C 0.28899 0.85735 0.34435 0.0
C409 C 0.33341 0.83154 0.35095 0.0
H410 H 0.25024 0.91928 0.36675 0.0
C411 C 0.37395 0.85002 0.38452 0.0
H412 H 0.25724 0.84342 0.31863 0.0
C413 C 0.37044 0.89386 0.41069 0.0
C414 C 0.3258 0.91921 0.40506 0.0
H415 H 0.40809 0.82993 0.39107 0.0
H416 H 0.4024 0.90704 0.43667 0.0
C417 C 0.28496 0.90042 0.37185 0.0
C418 C 0.70586 0.66128 0.88529 0.0
C419 C 0.75046 0.69207 0.89629 0.0
H420 H 0.6325 0.63363 0.91138 0.0
C421 C 0.75714 0.71338 0.94643 0.0
H422 H 0.69986 0.64455 0.84676 0.0
C423 C 0.71898 0.70768 0.98261 0.0
C424 C 0.67337 0.67956 0.97027 0.0
H425 H 0.79142 0.73638 0.95637 0.0
H426 H 0.72448 0.72712 0.01938 0.0
C427 C 0.66753 0.65485 0.92225 0.0
loop_
_geom_bond_atom_site_label_1
_geom_bond_atom_site_label_2
_geom_bond_distance
_geom_bond_site_symmetry_2
_ccdc_geom_bond_type
C0 N1 1.317 . S
C0 N2 1.348 . S
C0 C3 1.485 . S
N1 C0 1.317 . S
N1 N5 1.370 . S
N2 C0 1.348 . S
N2 C4 1.346 . S
C3 C0 1.485 . S
C3 H7 0.960 . S
C3 H8 0.961 . S
C3 H9 0.960 . S
C4 N2 1.346 . S
C4 N5 1.307 . S
C4 C6 1.486 . S
N5 N1 1.370 . S
N5 C4 1.307 . S
C6 C4 1.486 . S
C6 H10 0.960 . S
C6 H11 0.960 . S
C6 H12 0.959 . S
H7 C3 0.960 . S
H8 C3 0.961 . S
H9 C3 0.960 . S
H10 C6 0.960 . S
H11 C6 0.960 . S
H12 C6 0.959 . S
C13 N14 1.317 . S
C13 N15 1.348 . S
C13 C16 1.485 . S
N14 C13 1.317 . S
N14 N18 1.370 . S
N15 C13 1.348 . S
N15 C17 1.346 . S
C16 C13 1.485 . S
C16 H20 0.960 . S
C16 H21 0.961 . S
C16 H22 0.960 . S
C17 N15 1.346 . S
C17 N18 1.307 . S
C17 C19 1.486 . S
N18 N14 1.370 . S
N18 C17 1.307 . S
C19 C17 1.486 . S
C19 H23 0.960 . S
C19 H24 0.960 . S
C19 H25 0.959 . S
H20 C16 0.960 . S
H21 C16 0.961 . S
H22 C16 0.960 . S
H23 C19 0.960 . S
H24 C19 0.960 . S
H25 C19 0.959 . S
C26 N27 1.317 . S
C26 N28 1.348 . S
C26 C29 1.485 . S
N27 C26 1.317 . S
N27 N31 1.370 . S
N28 C26 1.348 . S
N28 C30 1.346 . S
C29 C26 1.485 . S
C29 H33 0.960 . S
C29 H34 0.961 . S
C29 H35 0.960 . S
C30 N28 1.346 . S
C30 N31 1.307 . S
C30 C32 1.486 . S
N31 N27 1.370 . S
N31 C30 1.307 . S
C32 C30 1.486 . S
C32 H36 0.960 . S
C32 H37 0.960 . S
C32 H38 0.959 . S
H33 C29 0.960 . S
H34 C29 0.961 . S
H35 C29 0.960 . S
H36 C32 0.960 . S
H37 C32 0.960 . S
H38 C32 0.959 . S
C39 N40 1.317 . S
C39 N41 1.348 . S
C39 C42 1.485 . S
N40 C39 1.317 . S
N40 N44 1.370 . S
N41 C39 1.348 . S
N41 C43 1.346 . S
C42 C39 1.485 . S
C42 H46 0.960 . S
C42 H47 0.961 . S
C42 H48 0.960 . S
C43 N41 1.346 . S
C43 N44 1.307 . S
C43 C45 1.486 . S
N44 N40 1.370 . S
N44 C43 1.307 . S
C45 C43 1.486 . S
C45 H49 0.960 . S
C45 H50 0.960 . S
C45 H51 0.959 . S
H46 C42 0.960 . S
H47 C42 0.961 . S
H48 C42 0.960 . S
H49 C45 0.960 . S
H50 C45 0.960 . S
H51 C45 0.959 . S
C52 N53 1.317 . S
C52 N54 1.348 . S
C52 C55 1.485 . S
N53 C52 1.317 . S
N53 N57 1.370 . S
N54 C52 1.348 . S
N54 C56 1.346 . S
C55 C52 1.485 . S
C55 H59 0.960 . S
C55 H60 0.961 . S
C55 H61 0.960 . S
C56 N54 1.346 . S
C56 N57 1.307 . S
C56 C58 1.486 . S
N57 N53 1.370 . S
N57 C56 1.307 . S
C58 C56 1.486 . S
C58 H62 0.960 . S
C58 H63 0.960 . S
C58 H64 0.959 . S
H59 C55 0.960 . S
H60 C55 0.961 . S
H61 C55 0.960 . S
H62 C58 0.960 . S
H63 C58 0.960 . S
H64 C58 0.959 . S
C65 N66 1.317 . S
C65 N67 1.348 . S
C65 C68 1.485 . S
N66 C65 1.317 . S
N66 N70 1.370 . S
N67 C65 1.348 . S
N67 C69 1.346 . S
C68 C65 1.485 . S
C68 H72 0.960 . S
C68 H73 0.961 . S
C68 H74 0.960 . S
C69 N67 1.346 . S
C69 N70 1.307 . S
C69 C71 1.486 . S
N70 N66 1.370 . S
N70 C69 1.307 . S
C71 C69 1.486 . S
C71 H75 0.960 . S
C71 H76 0.960 . S
C71 H77 0.959 . S
H72 C68 0.960 . S
H73 C68 0.961 . S
H74 C68 0.960 . S
H75 C71 0.960 . S
H76 C71 0.960 . S
H77 C71 0.959 . S
C78 N79 1.317 . S
C78 N80 1.348 . S
C78 C81 1.485 . S
N79 C78 1.317 . S
N79 N83 1.370 . S
N80 C78 1.348 . S
N80 C82 1.346 . S
C81 C78 1.485 . S
C81 H85 0.960 . S
C81 H86 0.961 . S
C81 H87 0.960 . S
C82 N80 1.346 . S
C82 N83 1.307 . S
C82 C84 1.486 . S
N83 N79 1.370 . S
N83 C82 1.307 . S
C84 C82 1.486 . S
C84 H88 0.960 . S
C84 H89 0.960 . S
C84 H90 0.959 . S
H85 C81 0.960 . S
H86 C81 0.961 . S
H87 C81 0.960 . S
H88 C84 0.960 . S
H89 C84 0.960 . S
H90 C84 0.959 . S
C91 N92 1.317 . S
C91 N93 1.348 . S
C91 C94 1.485 . S
N92 C91 1.317 . S
N92 N96 1.370 . S
N93 C91 1.348 . S
N93 C95 1.346 . S
C94 C91 1.485 . S
C94 H98 0.960 . S
C94 H99 0.961 . S
C94 H100 0.960 . S
C95 N93 1.346 . S
C95 N96 1.307 . S
C95 C97 1.486 . S
N96 N92 1.370 . S
N96 C95 1.307 . S
C97 C95 1.486 . S
C97 H101 0.960 . S
C97 H102 0.960 . S
C97 H103 0.959 . S
H98 C94 0.960 . S
H99 C94 0.961 . S
H100 C94 0.960 . S
H101 C97 0.960 . S
H102 C97 0.960 . S
H103 C97 0.959 . S
C104 O106 1.247 . S
C104 O108 1.258 . S
C105 O112 1.247 . S
C105 O113 1.258 . S
O106 C104 1.247 . S
O106 Zn107 2.028 1_655 S
Zn107 O106 2.028 1_455 S
Zn107 O111 2.035 . S
Zn107 O113 2.035 . S
Zn107 O114 2.028 . S
O108 C104 1.258 . S
O108 Zn109 2.035 1_655 S
Zn109 O108 2.035 1_455 S
Zn109 O110 2.028 . S
Zn109 O112 2.028 . S
Zn109 O115 2.035 . S
O110 Zn109 2.028 . S
O110 C116 1.247 . S
O111 Zn107 2.035 . S
O111 C116 1.258 . S
O112 C105 1.247 . S
O112 Zn109 2.028 . S
O113 C105 1.258 . S
O113 Zn107 2.035 . S
O114 Zn107 2.028 . S
O114 C117 1.247 1_455 S
O115 Zn109 2.035 . S
O115 C117 1.258 1_455 S
C116 O110 1.247 . S
C116 O111 1.258 . S
C117 O114 1.247 1_655 S
C117 O115 1.258 1_655 S
C118 O120 1.247 . S
C118 O122 1.258 . S
C119 O126 1.247 . S
C119 O127 1.258 . S
O120 C118 1.247 . S
O120 Zn121 2.028 1_655 S
Zn121 O120 2.028 1_455 S
Zn121 O125 2.035 . S
Zn121 O127 2.035 . S
Zn121 O128 2.028 1_455 S
O122 C118 1.258 . S
O122 Zn123 2.053 . S
Zn123 O122 2.053 . S
Zn123 O124 2.011 1_655 S
Zn123 O126 2.011 1_655 S
Zn123 O129 2.053 . S
O124 Zn123 2.011 1_455 S
O124 C130 1.247 . S
O125 Zn121 2.035 . S
O125 C130 1.258 . S
O126 C119 1.247 . S
O126 Zn123 2.011 1_455 S
O127 C119 1.258 . S
O127 Zn121 2.035 . S
O128 Zn121 2.028 1_655 S
O128 C131 1.247 . S
O129 Zn123 2.053 . S
O129 C131 1.258 . S
C130 O124 1.247 . S
C130 O125 1.258 . S
C131 O128 1.247 . S
C131 O129 1.258 . S
C132 O134 1.247 . S
C132 O136 1.258 . S
C133 O140 1.247 . S
C133 O141 1.258 . S
O134 C132 1.247 . S
O134 Zn135 2.028 1_565 S
Zn135 O134 2.028 1_545 S
Zn135 O139 2.035 . S
Zn135 O141 2.035 . S
Zn135 O142 2.028 1_545 S
O136 C132 1.258 . S
O136 Zn137 2.035 1_565 S
Zn137 O136 2.035 1_545 S
Zn137 O138 2.028 . S
Zn137 O140 2.028 . S
Zn137 O143 2.035 1_545 S
O138 Zn137 2.028 . S
O138 C144 1.247 . S
O139 Zn135 2.035 . S
O139 C144 1.258 . S
O140 C133 1.247 . S
O140 Zn137 2.028 . S
O141 C133 1.258 . S
O141 Zn135 2.035 . S
O142 Zn135 2.028 1_565 S
O142 C145 1.247 . S
O143 Zn137 2.035 1_565 S
O143 C145 1.258 . S
C144 O138 1.247 . S
C144 O139 1.258 . S
C145 O142 1.247 . S
C145 O143 1.258 . S
C146 O148 1.247 . S
C146 O150 1.258 . S
C147 O154 1.247 . S
C147 O155 1.258 1_556 S
O148 C146 1.247 . S
O148 Zn149 2.028 . S
Zn149 O148 2.028 . S
Zn149 O153 2.035 . S
Zn149 O155 2.035 . S
Zn149 O156 2.028 . S
O150 C146 1.258 . S
O150 Zn151 2.035 . S
Zn151 O150 2.035 . S
Zn151 O152 2.028 . S
Zn151 O154 2.028 1_554 S
Zn151 O157 2.035 1_554 S
O152 Zn151 2.028 . S
O152 C158 1.247 . S
O153 Zn149 2.035 . S
O153 C158 1.258 . S
O154 C147 1.247 . S
O154 Zn151 2.028 1_556 S
O155 C147 1.258 1_554 S
O155 Zn149 2.035 . S
O156 Zn149 2.028 . S
O156 C159 1.247 1_554 S
O157 Zn151 2.035 1_556 S
O157 C159 1.258 . S
C158 O152 1.247 . S
C158 O153 1.258 . S
C159 O156 1.247 1_556 S
C159 O157 1.258 . S
C160 O162 1.247 . S
C160 O164 1.258 . S
C161 O168 1.247 . S
C161 O169 1.258 . S
O162 C160 1.247 . S
O162 Zn163 2.028 1_565 S
Zn163 O162 2.028 1_545 S
Zn163 O167 2.035 . S
Zn163 O169 2.035 . S
Zn163 O170 2.028 1_545 S
O164 C160 1.258 . S
O164 Zn165 2.035 1_565 S
Zn165 O164 2.035 1_545 S
Zn165 O166 2.028 . S
Zn165 O168 2.028 . S
Zn165 O171 2.035 1_545 S
O166 Zn165 2.028 . S
O166 C172 1.247 . S
O167 Zn163 2.035 . S
O167 C172 1.258 . S
O168 C161 1.247 . S
O168 Zn165 2.028 . S
O169 C161 1.258 . S
O169 Zn163 2.035 . S
O170 Zn163 2.028 1_565 S
O170 C173 1.247 . S
O171 Zn165 2.035 1_565 S
O171 C173 1.258 . S
C172 O166 1.247 . S
C172 O167 1.258 . S
C173 O170 1.247 . S
C173 O171 1.258 . S
C174 O176 1.247 . S
C174 O178 1.258 . S
C175 O182 1.247 . S
C175 O183 1.258 . S
O176 C174 1.247 . S
O176 Zn177 2.028 . S
Zn177 O176 2.028 . S
Zn177 O181 2.035 . S
Zn177 O183 2.035 1_554 S
Zn177 O184 2.028 1_554 S
O178 C174 1.258 . S
O178 Zn179 2.035 1_554 S
Zn179 O178 2.035 1_556 S
Zn179 O180 2.028 1_556 S
Zn179 O182 2.028 . S
Zn179 O185 2.035 . S
O180 Zn179 2.028 1_554 S
O180 C186 1.247 . S
O181 Zn177 2.035 . S
O181 C186 1.258 . S
O182 C175 1.247 . S
O182 Zn179 2.028 . S
O183 C175 1.258 . S
O183 Zn177 2.035 1_556 S
O184 Zn177 2.028 1_556 S
O184 C187 1.247 . S
O185 Zn179 2.035 . S
O185 C187 1.258 . S
C186 O180 1.247 . S
C186 O181 1.258 . S
C187 O184 1.247 . S
C187 O185 1.258 . S
C188 C189 1.387 . S
C188 H192 0.950 . S
C188 C197 1.390 . S
C189 C188 1.387 . S
C189 C191 1.387 . S
H190 C197 0.950 . S
C191 C189 1.387 . S
C191 C193 1.390 . S
C191 H195 0.950 . S
H192 C188 0.950 . S
C193 C191 1.390 . S
C193 C194 1.387 . S
C193 H196 0.950 . S
C194 C193 1.387 . S
C194 C197 1.387 . S
H195 C191 0.950 . S
H196 C193 0.950 . S
C197 C188 1.390 . S
C197 H190 0.950 . S
C197 C194 1.387 . S
C198 C199 1.387 . S
C198 H202 0.950 . S
C198 C207 1.390 . S
C199 C198 1.387 . S
C199 C201 1.387 . S
H200 C207 0.950 . S
C201 C199 1.387 . S
C201 C203 1.390 . S
C201 H205 0.950 . S
H202 C198 0.950 . S
C203 C201 1.390 . S
C203 C204 1.387 . S
C203 H206 0.950 . S
C204 C203 1.387 . S
C204 C207 1.387 . S
H205 C201 0.950 . S
H206 C203 0.950 . S
C207 C198 1.390 . S
C207 H200 0.950 . S
C207 C204 1.387 . S
C208 C209 1.387 . S
C208 H212 0.950 . S
C208 C217 1.390 . S
C209 C208 1.387 . S
C209 C211 1.387 . S
H210 C217 0.950 . S
C211 C209 1.387 . S
C211 C213 1.390 . S
C211 H215 0.950 . S
H212 C208 0.950 . S
C213 C211 1.390 . S
C213 C214 1.387 . S
C213 H216 0.950 . S
C214 C213 1.387 . S
C214 C217 1.387 . S
H215 C211 0.950 . S
H216 C213 0.950 . S
C217 C208 1.390 . S
C217 H210 0.950 . S
C217 C214 1.387 . S
C218 C219 1.387 . S
C218 H222 0.950 . S
C218 C227 1.390 . S
C219 C218 1.387 . S
C219 C221 1.387 . S
H220 C227 0.950 . S
C221 C219 1.387 . S
C221 C223 1.390 . S
C221 H225 0.950 . S
H222 C218 0.950 . S
C223 C221 1.390 . S
C223 C224 1.387 . S
C223 H226 0.950 . S
C224 C223 1.387 . S
C224 C227 1.387 . S
H225 C221 0.950 . S
H226 C223 0.950 . S
C227 C218 1.390 . S
C227 H220 0.950 . S
C227 C224 1.387 . S
C228 C229 1.387 . S
C228 H232 0.950 . S
C228 C237 1.390 . S
C229 C228 1.387 . S
C229 C231 1.387 . S
H230 C237 0.950 . S
C231 C229 1.387 . S
C231 C233 1.390 . S
C231 H235 0.950 . S
H232 C228 0.950 . S
C233 C231 1.390 . S
C233 C234 1.387 . S
C233 H236 0.950 . S
C234 C233 1.387 . S
C234 C237 1.387 . S
H235 C231 0.950 . S
H236 C233 0.950 . S
C237 C228 1.390 . S
C237 H230 0.950 . S
C237 C234 1.387 . S
C238 C239 1.387 . S
C238 H242 0.950 . S
C238 C247 1.390 . S
C239 C238 1.387 . S
C239 C241 1.387 . S
H240 C247 0.950 . S
C241 C239 1.387 . S
C241 C243 1.390 . S
C241 H245 0.950 . S
H242 C238 0.950 . S
C243 C241 1.390 . S
C243 C244 1.387 . S
C243 H246 0.950 . S
C244 C243 1.387 . S
C244 C247 1.387 . S
H245 C241 0.950 . S
H246 C243 0.950 . S
C247 C238 1.390 . S
C247 H240 0.950 . S
C247 C244 1.387 . S
C248 C249 1.387 . S
C248 H252 0.950 . S
C248 C257 1.390 . S
C249 C248 1.387 . S
C249 C251 1.387 . S
H250 C257 0.950 . S
C251 C249 1.387 . S
C251 C253 1.390 . S
C251 H255 0.950 . S
H252 C248 0.950 . S
C253 C251 1.390 . S
C253 C254 1.387 . S
C253 H256 0.950 . S
C254 C253 1.387 . S
C254 C257 1.387 . S
H255 C251 0.950 . S
H256 C253 0.950 . S
C257 C248 1.390 . S
C257 H250 0.950 . S
C257 C254 1.387 . S
C258 C259 1.387 . S
C258 H262 0.950 . S
C258 C267 1.390 . S
C259 C258 1.387 . S
C259 C261 1.387 . S
H260 C267 0.950 . S
C261 C259 1.387 . S
C261 C263 1.390 . S
C261 H265 0.950 . S
H262 C258 0.950 . S
C263 C261 1.390 . S
C263 C264 1.387 . S
C263 H266 0.950 . S
C264 C263 1.387 . S
C264 C267 1.387 . S
H265 C261 0.950 . S
H266 C263 0.950 . S
C267 C258 1.390 . S
C267 H260 0.950 . S
C267 C264 1.387 . S
C268 C269 1.387 . S
C268 H272 0.950 . S
C268 C277 1.390 . S
C269 C268 1.387 . S
C269 C271 1.387 . S
H270 C277 0.950 . S
C271 C269 1.387 . S
C271 C273 1.390 . S
C271 H275 0.950 . S
H272 C268 0.950 . S
C273 C271 1.390 . S
C273 C274 1.387 . S
C273 H276 0.950 . S
C274 C273 1.387 . S
C274 C277 1.387 . S
H275 C271 0.950 . S
H276 C273 0.950 . S
C277 C268 1.390 . S
C277 H270 0.950 . S
C277 C274 1.387 . S
C278 C279 1.387 . S
C278 H282 0.950 . S
C278 C287 1.390 . S
C279 C278 1.387 . S
C279 C281 1.387 . S
H280 C287 0.950 . S
C281 C279 1.387 . S
C281 C283 1.390 . S
C281 H285 0.950 . S
H282 C278 0.950 . S
C283 C281 1.390 . S
C283 C284 1.387 . S
C283 H286 0.950 . S
C284 C283 1.387 . S
C284 C287 1.387 . S
H285 C281 0.950 . S
H286 C283 0.950 . S
C287 C278 1.390 . S
C287 H280 0.950 . S
C287 C284 1.387 . S
C288 C289 1.387 . S
C288 H292 0.950 . S
C288 C297 1.390 . S
C289 C288 1.387 . S
C289 C291 1.387 . S
H290 C297 0.950 . S
C291 C289 1.387 . S
C291 C293 1.390 . S
C291 H295 0.950 . S
H292 C288 0.950 . S
C293 C291 1.390 . S
C293 C294 1.387 . S
C293 H296 0.950 . S
C294 C293 1.387 . S
C294 C297 1.387 . S
H295 C291 0.950 . S
H296 C293 0.950 . S
C297 C288 1.390 . S
C297 H290 0.950 . S
C297 C294 1.387 . S
C298 C299 1.387 . S
C298 H302 0.950 . S
C298 C307 1.390 . S
C299 C298 1.387 . S
C299 C301 1.387 . S
H300 C307 0.950 . S
C301 C299 1.387 . S
C301 C303 1.390 . S
C301 H305 0.950 . S
H302 C298 0.950 . S
C303 C301 1.390 . S
C303 C304 1.387 . S
C303 H306 0.950 . S
C304 C303 1.387 . S
C304 C307 1.387 . S
H305 C301 0.950 . S
H306 C303 0.950 . S
C307 C298 1.390 . S
C307 H300 0.950 . S
C307 C304 1.387 . S
C308 C309 1.387 . S
C308 H312 0.950 . S
C308 C317 1.390 . S
C309 C308 1.387 . S
C309 C311 1.387 . S
H310 C317 0.950 . S
C311 C309 1.387 . S
C311 C313 1.390 . S
C311 H315 0.950 . S
H312 C308 0.950 . S
C313 C311 1.390 . S
C313 C314 1.387 . S
C313 H316 0.950 . S
C314 C313 1.387 . S
C314 C317 1.387 . S
H315 C311 0.950 . S
H316 C313 0.950 . S
C317 C308 1.390 . S
C317 H310 0.950 . S
C317 C314 1.387 . S
C318 C319 1.387 . S
C318 H322 0.950 . S
C318 C327 1.390 . S
C319 C318 1.387 . S
C319 C321 1.387 . S
H320 C327 0.950 . S
C321 C319 1.387 . S
C321 C323 1.390 . S
C321 H325 0.950 . S
H322 C318 0.950 . S
C323 C321 1.390 . S
C323 C324 1.387 . S
C323 H326 0.950 . S
C324 C323 1.387 . S
C324 C327 1.387 . S
H325 C321 0.950 . S
H326 C323 0.950 . S
C327 C318 1.390 . S
C327 H320 0.950 . S
C327 C324 1.387 . S
C328 C329 1.387 . S
C328 H332 0.950 . S
C328 C337 1.390 . S
C329 C328 1.387 . S
C329 C331 1.387 . S
H330 C337 0.950 . S
C331 C329 1.387 . S
C331 C333 1.390 . S
C331 H335 0.950 . S
H332 C328 0.950 . S
C333 C331 1.390 . S
C333 C334 1.387 . S
C333 H336 0.950 . S
C334 C333 1.387 . S
C334 C337 1.387 . S
H335 C331 0.950 . S
H336 C333 0.950 . S
C337 C328 1.390 . S
C337 H330 0.950 . S
C337 C334 1.387 . S
C338 C339 1.387 . S
C338 H342 0.950 . S
C338 C347 1.390 . S
C339 C338 1.387 . S
C339 C341 1.387 . S
H340 C347 0.950 . S
C341 C339 1.387 . S
C341 C343 1.390 . S
C341 H345 0.950 . S
H342 C338 0.950 . S
C343 C341 1.390 . S
C343 C344 1.387 . S
C343 H346 0.950 . S
C344 C343 1.387 . S
C344 C347 1.387 . S
H345 C341 0.950 . S
H346 C343 0.950 . S
C347 C338 1.390 . S
C347 H340 0.950 . S
C347 C344 1.387 . S
C348 C349 1.387 . S
C348 H352 0.950 . S
C348 C357 1.390 . S
C349 C348 1.387 . S
C349 C351 1.387 . S
H350 C357 0.950 . S
C351 C349 1.387 . S
C351 C353 1.390 . S
C351 H355 0.950 . S
H352 C348 0.950 . S
C353 C351 1.390 . S
C353 C354 1.387 . S
C353 H356 0.950 . S
C354 C353 1.387 . S
C354 C357 1.387 . S
H355 C351 0.950 . S
H356 C353 0.950 . S
C357 C348 1.390 . S
C357 H350 0.950 . S
C357 C354 1.387 . S
C358 C359 1.387 . S
C358 H362 0.950 . S
C358 C367 1.390 . S
C359 C358 1.387 . S
C359 C361 1.387 . S
H360 C367 0.950 . S
C361 C359 1.387 . S
C361 C363 1.390 . S
C361 H365 0.950 . S
H362 C358 0.950 . S
C363 C361 1.390 . S
C363 C364 1.387 . S
C363 H366 0.950 . S
C364 C363 1.387 . S
C364 C367 1.387 . S
H365 C361 0.950 . S
H366 C363 0.950 . S
C367 C358 1.390 . S
C367 H360 0.950 . S
C367 C364 1.387 . S
C368 C369 1.387 . S
C368 H372 0.950 . S
C368 C377 1.390 . S
C369 C368 1.387 . S
C369 C371 1.387 . S
H370 C377 0.950 . S
C371 C369 1.387 . S
C371 C373 1.390 . S
C371 H375 0.950 . S
H372 C368 0.950 . S
C373 C371 1.390 . S
C373 C374 1.387 . S
C373 H376 0.950 . S
C374 C373 1.387 . S
C374 C377 1.387 . S
H375 C371 0.950 . S
H376 C373 0.950 . S
C377 C368 1.390 . S
C377 H370 0.950 . S
C377 C374 1.387 . S
C378 C379 1.387 . S
C378 H382 0.950 . S
C378 C387 1.390 . S
C379 C378 1.387 . S
C379 C381 1.387 . S
H380 C387 0.950 . S
C381 C379 1.387 . S
C381 C383 1.390 . S
C381 H385 0.950 . S
H382 C378 0.950 . S
C383 C381 1.390 . S
C383 C384 1.387 . S
C383 H386 0.950 . S
C384 C383 1.387 . S
C384 C387 1.387 . S
H385 C381 0.950 . S
H386 C383 0.950 . S
C387 C378 1.390 . S
C387 H380 0.950 . S
C387 C384 1.387 . S
C388 C389 1.387 . S
C388 H392 0.950 . S
C388 C397 1.390 . S
C389 C388 1.387 . S
C389 C391 1.387 . S
H390 C397 0.950 . S
C391 C389 1.387 . S
C391 C393 1.390 . S
C391 H395 0.950 . S
H392 C388 0.950 . S
C393 C391 1.390 . S
C393 C394 1.387 . S
C393 H396 0.950 . S
C394 C393 1.387 . S
C394 C397 1.387 . S
H395 C391 0.950 . S
H396 C393 0.950 . S
C397 C388 1.390 . S
C397 H390 0.950 . S
C397 C394 1.387 . S
C398 C399 1.387 . S
C398 H402 0.950 . S
C398 C407 1.390 . S
C399 C398 1.387 . S
C399 C401 1.387 . S
H400 C407 0.950 . S
C401 C399 1.387 . S
C401 C403 1.390 . S
C401 H405 0.950 . S
H402 C398 0.950 . S
C403 C401 1.390 . S
C403 C404 1.387 . S
C403 H406 0.950 . S
C404 C403 1.387 . S
C404 C407 1.387 . S
H405 C401 0.950 . S
H406 C403 0.950 . S
C407 C398 1.390 . S
C407 H400 0.950 . S
C407 C404 1.387 . S
C408 C409 1.387 . S
C408 H412 0.950 . S
C408 C417 1.390 . S
C409 C408 1.387 . S
C409 C411 1.387 . S
H410 C417 0.950 . S
C411 C409 1.387 . S
C411 C413 1.390 . S
C411 H415 0.950 . S
H412 C408 0.950 . S
C413 C411 1.390 . S
C413 C414 1.387 . S
C413 H416 0.950 . S
C414 C413 1.387 . S
C414 C417 1.387 . S
H415 C411 0.950 . S
H416 C413 0.950 . S
C417 C408 1.390 . S
C417 H410 0.950 . S
C417 C414 1.387 . S
C418 C419 1.387 . S
C418 H422 0.950 . S
C418 C427 1.390 . S
C419 C418 1.387 . S
C419 C421 1.387 . S
H420 C427 0.950 . S
C421 C419 1.387 . S
C421 C423 1.390 . S
C421 H425 0.950 . S
H422 C418 0.950 . S
C423 C421 1.390 . S
C423 C424 1.387 . S
C423 H426 0.950 . S
C424 C423 1.387 . S
C424 C427 1.387 . S
H425 C421 0.950 . S
H426 C423 0.950 . S
C427 C418 1.390 . S
C427 H420 0.950 . S
C427 C424 1.387 . S
C194 C116 1.447 . S
C189 N2 1.460 . S
C204 C119 1.492 . S
C199 N15 1.494 . S
C214 C117 1.646 . S
C209 N27 1.643 . S
C224 C118 1.501 . S
C219 N44 1.516 . S
C234 C133 1.639 . S
C229 N1 1.673 . S
C244 C147 1.645 . S
C239 N18 1.641 . S
C249 N28 1.669 . S
C254 C173 1.629 . S
C264 C187 1.510 . S
C259 N41 1.514 . S
C274 C132 1.607 . S
C269 N14 1.632 . S
C279 N31 1.736 . S
C284 C146 1.730 . S
C294 C172 1.706 . S
C289 N40 1.736 . S
C304 C186 1.575 . S
C299 N5 1.593 . S
C309 N53 1.650 . S
C314 C131 1.624 . S
C324 C104 1.622 . S
C319 N70 1.617 . S
C329 N80 1.520 . S
C334 C130 1.509 . S
C339 N92 1.722 . S
C344 C105 1.715 . S
C354 C160 1.686 . S
C349 N57 1.727 . S
C364 C174 1.471 . S
C359 N67 1.475 . S
C374 C144 1.657 . S
C369 N83 1.701 . S
C379 N96 1.675 . S
C384 C158 1.665 . S
C394 C161 1.629 . S
C389 N66 1.668 . S
C404 C175 1.460 . S
C399 N79 1.472 . S
C414 C145 1.619 . S
C409 N93 1.656 . S
C419 N54 1.494 . S
C424 C159 1.481 . S
