# Generated by pormake.
# Topology pyr, (3,6)-cn, num edge types: 1
# Building blocks:
#     Node 0, Type 0, BuildingBlock: BELTOD_clean_linker_0, # of connection points: 3
#     Node 1, Type 0, BuildingBlock: BELTOD_clean_linker_0, # of connection points: 3
#     Node 2, Type 0, BuildingBlock: BELTOD_clean_linker_0, # of connection points: 3
#     Node 3, Type 0, BuildingBlock: BELTOD_clean_linker_0, # of connection points: 3
#     Node 4, Type 0, BuildingBlock: BELTOD_clean_linker_0, # of connection points: 3
#     Node 5, Type 0, BuildingBlock: BELTOD_clean_linker_0, # of connection points: 3
#     Node 6, Type 0, BuildingBlock: BELTOD_clean_linker_0, # of connection points: 3
#     Node 7, Type 0, BuildingBlock: BELTOD_clean_linker_0, # of connection points: 3
#     Node 8, Type 1, BuildingBlock: PAMTUU_clean_sbu_0, # of connection points: 6
#     Node 9, Type 1, BuildingBlock: PAMTUU_clean_sbu_0, # of connection points: 6
#     Node 10, Type 1, BuildingBlock: PAMTUU_clean_sbu_0, # of connection points: 6
#     Node 11, Type 1, BuildingBlock: PAMTUU_clean_sbu_0, # of connection points: 6
#     Edge 12, Type (0, 1), BuildingBlock: ZUJKAS_clean_linker_0, # of connection points: 2
#     Edge 13, Type (0, 1), BuildingBlock: ZUJKAS_clean_linker_0, # of connection points: 2
#     Edge 14, Type (0, 1), BuildingBlock: ZUJKAS_clean_linker_0, # of connection points: 2
#     Edge 15, Type (0, 1), BuildingBlock: ZUJKAS_clean_linker_0, # of connection points: 2
#     Edge 16, Type (0, 1), BuildingBlock: ZUJKAS_clean_linker_0, # of connection points: 2
#     Edge 17, Type (0, 1), BuildingBlock: ZUJKAS_clean_linker_0, # of connection points: 2
#     Edge 18, Type (0, 1), BuildingBlock: ZUJKAS_clean_linker_0, # of connection points: 2
#     Edge 19, Type (0, 1), BuildingBlock: ZUJKAS_clean_linker_0, # of connection points: 2
#     Edge 20, Type (0, 1), BuildingBlock: ZUJKAS_clean_linker_0, # of connection points: 2
#     Edge 21, Type (0, 1), BuildingBlock: ZUJKAS_clean_linker_0, # of connection points: 2
#     Edge 22, Type (0, 1), BuildingBlock: ZUJKAS_clean_linker_0, # of connection points: 2
#     Edge 23, Type (0, 1), BuildingBlock: ZUJKAS_clean_linker_0, # of connection points: 2
#     Edge 24, Type (0, 1), BuildingBlock: ZUJKAS_clean_linker_0, # of connection points: 2
#     Edge 25, Type (0, 1), BuildingBlock: ZUJKAS_clean_linker_0, # of connection points: 2
#     Edge 26, Type (0, 1), BuildingBlock: ZUJKAS_clean_linker_0, # of connection points: 2
#     Edge 27, Type (0, 1), BuildingBlock: ZUJKAS_clean_linker_0, # of connection points: 2
#     Edge 28, Type (0, 1), BuildingBlock: ZUJKAS_clean_linker_0, # of connection points: 2
#     Edge 29, Type (0, 1), BuildingBlock: ZUJKAS_clean_linker_0, # of connection points: 2
#     Edge 30, Type (0, 1), BuildingBlock: ZUJKAS_clean_linker_0, # of connection points: 2
#     Edge 31, Type (0, 1), BuildingBlock: ZUJKAS_clean_linker_0, # of connection points: 2
#     Edge 32, Type (0, 1), BuildingBlock: ZUJKAS_clean_linker_0, # of connection points: 2
#     Edge 33, Type (0, 1), BuildingBlock: ZUJKAS_clean_linker_0, # of connection points: 2
#     Edge 34, Type (0, 1), BuildingBlock: ZUJKAS_clean_linker_0, # of connection points: 2
#     Edge 35, Type (0, 1), BuildingBlock: ZUJKAS_clean_linker_0, # of connection points: 2
# Relax obj value: 0.069
# Max RMSD: 0.115
# Mean RMSD: 0.049
data_MOF--net-pyr--node1-PAMTUU_clean_sbu_0--node2-BELTOD_clean_linker_0--edge1-ZUJKAS_clean_linker_0
_symmetry_space_group_name_H-M    P1
_symmetry_Int_Tables_number       1
_symmetry_cell_setting            triclinic
loop_
_symmetry_equiv_pos_as_xyz
'x, y, z'
_cell_length_a     54.665335
_cell_length_b     56.076735
_cell_length_c     53.180815
_cell_angle_alpha  90.093574
_cell_angle_beta   89.420466
_cell_angle_gamma 99.398413
loop_
_atom_site_label
_atom_site_type_symbol
_atom_site_fract_x
_atom_site_fract_y
_atom_site_fract_z
_atom_type_partial_charge
P0 P 0.34278 0.29445 0.23333 0.0
H1 H 0.39171 0.29671 0.20988 0.0
H2 H 0.41332 0.26575 0.19149 0.0
H3 H 0.34911 0.21157 0.2067 0.0
H4 H 0.32781 0.24243 0.22514 0.0
H5 H 0.32369 0.33975 0.23422 0.0
H6 H 0.29461 0.3562 0.20733 0.0
H7 H 0.29507 0.29668 0.15566 0.0
H8 H 0.32378 0.2801 0.183 0.0
H9 H 0.34838 0.28053 0.28564 0.0
H10 H 0.28935 0.27634 0.23178 0.0
O11 O 0.3636 0.31528 0.2472 0.0
H12 H 0.31921 0.25906 0.31652 0.0
H13 H 0.26041 0.25482 0.26216 0.0
C14 C 0.3584 0.27178 0.21936 0.0
C15 C 0.38237 0.27813 0.20933 0.0
C16 C 0.39464 0.26046 0.19872 0.0
C17 C 0.38303 0.23616 0.19791 0.0
C18 C 0.35877 0.23002 0.20754 0.0
C19 C 0.34653 0.24769 0.21804 0.0
C20 C 0.3262 0.30896 0.21042 0.0
C21 C 0.31805 0.33062 0.21675 0.0
C22 C 0.30142 0.34 0.20132 0.0
C23 C 0.29247 0.32774 0.17933 0.0
C24 C 0.30143 0.30645 0.17258 0.0
C25 C 0.31807 0.29707 0.18807 0.0
C26 C 0.32095 0.28053 0.25664 0.0
C27 C 0.32911 0.27529 0.28059 0.0
C28 C 0.31248 0.26288 0.29811 0.0
C29 C 0.28744 0.25541 0.29185 0.0
C30 C 0.27941 0.26078 0.2678 0.0
C31 C 0.29603 0.2731 0.25034 0.0
P32 P 0.23851 0.81134 0.69486 0.0
H33 H 0.28289 0.80934 0.72349 0.0
H34 H 0.29184 0.8125 0.7684 0.0
H35 H 0.21434 0.8131 0.78448 0.0
H36 H 0.20536 0.80932 0.73948 0.0
H37 H 0.24053 0.799 0.64192 0.0
H38 H 0.25465 0.76542 0.61996 0.0
H39 H 0.2624 0.73078 0.69139 0.0
H40 H 0.24686 0.76361 0.71295 0.0
H41 H 0.21791 0.85295 0.71163 0.0
H42 H 0.19549 0.79163 0.66327 0.0
O43 O 0.26053 0.83297 0.6837 0.0
H44 H 0.18135 0.86976 0.69971 0.0
H45 H 0.15963 0.80905 0.64997 0.0
C46 C 0.24362 0.80969 0.72815 0.0
C47 C 0.26776 0.80971 0.73672 0.0
C48 C 0.27281 0.81133 0.76238 0.0
C49 C 0.25378 0.81319 0.77987 0.0
C50 C 0.22935 0.81189 0.77133 0.0
C51 C 0.22425 0.80986 0.74562 0.0
C52 C 0.24284 0.78393 0.67904 0.0
C53 C 0.24453 0.78377 0.65275 0.0
C54 C 0.25287 0.76467 0.64025 0.0
C55 C 0.26019 0.74558 0.6539 0.0
C56 C 0.25682 0.74504 0.68019 0.0
C57 C 0.24811 0.76401 0.69263 0.0
C58 C 0.20948 0.82111 0.6883 0.0
C59 C 0.20498 0.84301 0.69855 0.0
C60 C 0.18418 0.85273 0.69149 0.0
C61 C 0.16771 0.841 0.67352 0.0
C62 C 0.17179 0.81852 0.66398 0.0
C63 C 0.19248 0.80861 0.6714 0.0
P64 P 0.68171 0.33934 0.82557 0.0
H65 H 0.72707 0.32671 0.84541 0.0
H66 H 0.76025 0.34773 0.87122 0.0
H67 H 0.72074 0.40821 0.87845 0.0
H68 H 0.68763 0.38699 0.85177 0.0
H69 H 0.66438 0.28847 0.81367 0.0
H70 H 0.64188 0.25468 0.83765 0.0
H71 H 0.63333 0.30281 0.8994 0.0
H72 H 0.65619 0.33682 0.87513 0.0
H73 H 0.69676 0.38517 0.79914 0.0
H74 H 0.62961 0.33394 0.80938 0.0
O75 O 0.6975 0.32608 0.80412 0.0
H76 H 0.6767 0.40607 0.767 0.0
H77 H 0.60913 0.35502 0.77764 0.0
C78 C 0.70504 0.3554 0.84624 0.0
C79 C 0.72549 0.34451 0.85252 0.0
C80 C 0.74444 0.35655 0.86756 0.0
C81 C 0.74338 0.37981 0.87709 0.0
C82 C 0.72247 0.39051 0.87121 0.0
C83 C 0.70342 0.37835 0.85603 0.0
C84 C 0.66235 0.3152 0.8427 0.0
C85 C 0.65766 0.29189 0.83233 0.0
C86 C 0.64484 0.27247 0.84615 0.0
C87 C 0.63607 0.27588 0.87064 0.0
C88 C 0.63982 0.29951 0.88061 0.0
C89 C 0.65291 0.31898 0.86678 0.0
C90 C 0.66459 0.35829 0.80727 0.0
C91 C 0.67739 0.37891 0.79513 0.0
C92 C 0.66584 0.39084 0.77659 0.0
C93 C 0.6412 0.38229 0.76943 0.0
C94 C 0.62819 0.36203 0.78226 0.0
C95 C 0.6398 0.35011 0.8008 0.0
P96 P 0.83734 0.69046 0.32343 0.0
H97 H 0.85449 0.74007 0.30722 0.0
H98 H 0.87641 0.77574 0.32837 0.0
H99 H 0.88528 0.73235 0.39373 0.0
H100 H 0.86397 0.69644 0.37189 0.0
H101 H 0.8519 0.69788 0.27095 0.0
H102 H 0.87298 0.67533 0.24088 0.0
H103 H 0.88418 0.6249 0.29935 0.0
H104 H 0.86249 0.64763 0.32949 0.0
H105 H 0.81509 0.70163 0.3714 0.0
H106 H 0.81325 0.63937 0.32338 0.0
O107 O 0.81756 0.70235 0.30544 0.0
H108 H 0.78295 0.67919 0.39813 0.0
H109 H 0.78057 0.61689 0.34981 0.0
C110 C 0.85697 0.71568 0.33821 0.0
C111 C 0.86133 0.73814 0.32602 0.0
C112 C 0.87373 0.75864 0.33828 0.0
C113 C 0.88214 0.7572 0.36309 0.0
C114 C 0.87906 0.73427 0.37469 0.0
C115 C 0.86674 0.71369 0.36227 0.0
C116 C 0.85505 0.67417 0.30238 0.0
C117 C 0.85888 0.68199 0.2774 0.0
C118 C 0.87118 0.66911 0.26018 0.0
C119 C 0.88026 0.64811 0.26752 0.0
C120 C 0.87709 0.64072 0.29287 0.0
C121 C 0.86479 0.65376 0.31018 0.0
C122 C 0.81756 0.67194 0.3459 0.0
C123 C 0.80841 0.68285 0.36701 0.0
C124 C 0.78961 0.67009 0.38211 0.0
C125 C 0.77905 0.64618 0.37619 0.0
C126 C 0.78853 0.6351 0.35525 0.0
C127 C 0.80739 0.64794 0.34013 0.0
P128 P 0.74248 0.81996 0.89249 0.0
H129 H 0.70107 0.79728 0.92407 0.0
H130 H 0.65877 0.8056 0.92938 0.0
H131 H 0.67101 0.85642 0.86771 0.0
H132 H 0.71288 0.84764 0.86223 0.0
H133 H 0.77932 0.80633 0.92628 0.0
H134 H 0.79155 0.76766 0.9364 0.0
H135 H 0.73287 0.73108 0.88966 0.0
H136 H 0.72046 0.77013 0.87977 0.0
H137 H 0.78214 0.85719 0.87361 0.0
H138 H 0.73218 0.79656 0.84364 0.0
O139 O 0.75564 0.84103 0.91255 0.0
H140 H 0.79991 0.86619 0.83188 0.0
H141 H 0.7506 0.80482 0.80183 0.0
C142 C 0.70994 0.8215 0.89246 0.0
C143 C 0.69433 0.80959 0.91117 0.0
C144 C 0.67023 0.81452 0.91431 0.0
C145 C 0.66152 0.83172 0.899 0.0
C146 C 0.67691 0.84275 0.87953 0.0
C147 C 0.70095 0.83779 0.87641 0.0
C148 C 0.74888 0.79105 0.90245 0.0
C149 C 0.7687 0.78999 0.91863 0.0
C150 C 0.77563 0.76783 0.92447 0.0
C151 C 0.76306 0.74633 0.91393 0.0
C152 C 0.74289 0.74738 0.89801 0.0
C153 C 0.73579 0.76963 0.89238 0.0
C154 C 0.75588 0.82618 0.86171 0.0
C155 C 0.77514 0.84565 0.85808 0.0
C156 C 0.78546 0.85064 0.83418 0.0
C157 C 0.77683 0.83612 0.81347 0.0
C158 C 0.75755 0.8165 0.81729 0.0
C159 C 0.74713 0.81163 0.84122 0.0
P160 P 0.8447 0.28713 0.3091 0.0
H161 H 0.83405 0.33646 0.30897 0.0
H162 H 0.80339 0.35576 0.33164 0.0
H163 H 0.78118 0.29035 0.37459 0.0
H164 H 0.81193 0.2713 0.3521 0.0
H165 H 0.89447 0.28933 0.32999 0.0
H166 H 0.91439 0.25969 0.35251 0.0
H167 H 0.84612 0.20862 0.34975 0.0
H168 H 0.82639 0.23825 0.32732 0.0
H169 H 0.79538 0.29118 0.28925 0.0
H170 H 0.85276 0.24822 0.275 0.0
O171 O 0.86664 0.30722 0.29538 0.0
H172 H 0.76878 0.26718 0.25893 0.0
H173 H 0.82613 0.22416 0.24437 0.0
C174 C 0.82564 0.30259 0.32915 0.0
C175 C 0.82302 0.32648 0.32372 0.0
C176 C 0.80531 0.33741 0.3365 0.0
C177 C 0.78983 0.32456 0.35488 0.0
C178 C 0.79306 0.30085 0.36081 0.0
C179 C 0.81069 0.28992 0.34792 0.0
C180 C 0.85904 0.26589 0.32682 0.0
C181 C 0.8838 0.27177 0.33429 0.0
C182 C 0.89518 0.2548 0.34706 0.0
C183 C 0.88183 0.2318 0.35282 0.0
C184 C 0.85683 0.22625 0.34579 0.0
C185 C 0.84556 0.24314 0.33289 0.0
C186 C 0.82586 0.27108 0.28491 0.0
C187 C 0.80237 0.27668 0.27955 0.0
C188 C 0.78719 0.26305 0.262 0.0
C189 C 0.79527 0.24363 0.24944 0.0
C190 C 0.81925 0.23876 0.25407 0.0
C191 C 0.83448 0.25252 0.27152 0.0
P192 P 0.36529 0.66526 0.18839 0.0
H193 H 0.34367 0.66649 0.13892 0.0
H194 H 0.303 0.65091 0.12177 0.0
H195 H 0.27673 0.62766 0.19612 0.0
H196 H 0.31791 0.64292 0.21302 0.0
H197 H 0.41393 0.69482 0.18107 0.0
H198 H 0.42724 0.73668 0.16828 0.0
H199 H 0.35139 0.7492 0.17362 0.0
H200 H 0.3382 0.70687 0.18563 0.0
H201 H 0.36228 0.61651 0.20784 0.0
H202 H 0.38153 0.68871 0.23706 0.0
O203 O 0.38324 0.65208 0.169 0.0
H204 H 0.37487 0.59994 0.24703 0.0
H205 H 0.39338 0.67229 0.27703 0.0
C206 C 0.33396 0.65577 0.17721 0.0
C207 C 0.3291 0.65819 0.15158 0.0
C208 C 0.30568 0.64935 0.14181 0.0
C209 C 0.28636 0.63789 0.15746 0.0
C210 C 0.29117 0.63601 0.18336 0.0
C211 C 0.31472 0.64489 0.19313 0.0
C212 C 0.37504 0.69755 0.18406 0.0
C213 C 0.40019 0.70665 0.17981 0.0
C214 C 0.4078 0.73077 0.17256 0.0
C215 C 0.39044 0.74656 0.16958 0.0
C216 C 0.36531 0.73759 0.17512 0.0
C217 C 0.35771 0.71337 0.18228 0.0
C218 C 0.37082 0.65385 0.21944 0.0
C219 C 0.36873 0.62882 0.22298 0.0
C220 C 0.3759 0.61933 0.24561 0.0
C221 C 0.38529 0.63464 0.26554 0.0
C222 C 0.38667 0.65982 0.26213 0.0
C223 C 0.37961 0.66931 0.23931 0.0
P224 P 0.1836 0.33543 0.72022 0.0
H225 H 0.15718 0.28755 0.7334 0.0
H226 H 0.13435 0.25463 0.70885 0.0
H227 H 0.14299 0.30015 0.64279 0.0
H228 H 0.16639 0.33292 0.66754 0.0
H229 H 0.23217 0.32625 0.70399 0.0
H230 H 0.26503 0.34844 0.67793 0.0
H231 H 0.2196 0.40331 0.66448 0.0
H232 H 0.1868 0.38102 0.69131 0.0
H233 H 0.13269 0.32879 0.7407 0.0
H234 H 0.19844 0.38278 0.74361 0.0
O235 O 0.19845 0.3207 0.74085 0.0
H236 H 0.11318 0.35044 0.77311 0.0
H237 H 0.17881 0.40502 0.7754 0.0
C238 C 0.16382 0.31261 0.70228 0.0
C239 C 0.15402 0.29053 0.71367 0.0
C240 C 0.14078 0.27171 0.69957 0.0
C241 C 0.1369 0.27454 0.67369 0.0
C242 C 0.14598 0.2971 0.66254 0.0
C243 C 0.15924 0.31597 0.67673 0.0
C244 C 0.20723 0.35223 0.70008 0.0
C245 C 0.22926 0.34312 0.69555 0.0
C246 C 0.24802 0.35577 0.68037 0.0
C247 C 0.24512 0.37778 0.66902 0.0
C248 C 0.2227 0.38664 0.67319 0.0
C249 C 0.20387 0.37389 0.68847 0.0
C250 C 0.16685 0.35442 0.73914 0.0
C251 C 0.14266 0.34573 0.74768 0.0
C252 C 0.1315 0.35819 0.76633 0.0
C253 C 0.14439 0.37952 0.77711 0.0
C254 C 0.16837 0.38851 0.7679 0.0
C255 C 0.17952 0.37599 0.74933 0.0
Tb256 Tb 0.03047 0.02181 0.49626 0.0
Tb257 Tb 0.98115 0.01751 0.53314 0.0
C258 C 0.9859 0.97884 0.49051 0.0
C259 C 0.0845 0.04591 0.45563 0.0
C260 C 0.11614 0.08413 0.43196 0.0
C261 C 0.12047 0.06018 0.42951 0.0
C262 C 0.10478 0.04124 0.44129 0.0
C263 C 0.07978 0.06967 0.45787 0.0
C264 C 0.09548 0.08866 0.4461 0.0
C265 C 0.06902 0.02601 0.46896 0.0
O266 O 1.00349 0.03852 0.47573 0.0
O267 O 0.97964 0.04815 0.50884 0.0
O268 O 0.01024 0.04391 0.55007 0.0
O269 O 0.03337 0.05662 0.51501 0.0
O270 O 0.94251 0.01499 0.53743 0.0
O271 O 0.96656 0.01785 0.56965 0.0
O272 O 0.99937 0.98769 0.54402 0.0
O273 O 0.03856 1.00402 0.53081 0.0
O274 O 0.01005 0.98576 0.48955 0.0
O275 O 0.97123 0.99126 0.50296 0.0
C276 C 0.98699 0.05066 0.4853 0.0
O277 O 0.06924 0.02763 0.49339 0.0
O278 O 0.04663 0.0195 0.46048 0.0
C279 C 0.02667 0.05996 0.53836 0.0
C280 C 0.92661 0.99571 0.57489 0.0
C281 C 0.89576 0.96133 0.60439 0.0
C282 C 0.89023 0.98478 0.6014 0.0
C283 C 0.90556 1.00182 0.5868 0.0
C284 C 0.93177 0.97208 0.57693 0.0
C285 C 0.91641 0.95497 0.59157 0.0
C286 C 0.94373 0.01463 0.56188 0.0
C287 C 0.02342 0.98821 0.54416 0.0
H288 H 0.13596 0.05603 0.41841 0.0
H289 H 0.10862 0.02296 0.43938 0.0
H290 H 0.06418 0.07355 0.46899 0.0
H291 H 0.09176 0.10691 0.44853 0.0
H292 H 0.87423 0.99009 0.6107 0.0
H293 H 0.90131 0.01997 0.58532 0.0
H294 H 0.94803 0.96711 0.56782 0.0
H295 H 0.92123 0.9371 0.59365 0.0
Tb296 Tb 0.52636 0.02289 0.0482 0.0
Tb297 Tb 0.4751 0.01937 1.01558 0.0
C298 C 0.5166 0.99043 0.99994 0.0
C299 C 0.58308 0.04383 0.08617 0.0
C300 C 0.61677 0.07891 0.11148 0.0
C301 C 0.62299 0.05612 0.10577 0.0
C302 C 0.60626 0.03875 0.09326 0.0
C303 C 0.57671 0.06653 0.09164 0.0
C304 C 0.59344 0.08395 0.10424 0.0
C305 C 0.56615 0.0254 0.07258 0.0
O306 O 0.52931 0.05775 0.0295 0.0
O307 O 0.50272 0.04649 0.99679 0.0
O308 O 0.47592 0.05045 0.03983 0.0
O309 O 0.50108 0.0404 0.07103 0.0
O310 O 0.45749 0.01771 0.98066 0.0
O311 O 0.43649 0.01834 1.01525 0.0
O312 O 0.46672 0.99333 0.04635 0.0
O313 O 0.50604 0.98672 0.05524 0.0
O314 O 0.53249 1.00617 1.01225 0.0
O315 O 0.49265 0.98961 1.00264 0.0
C316 C 0.5208 0.06171 1.00711 0.0
O317 O 0.54413 0.019 0.08243 0.0
O318 O 0.56525 0.02849 0.04837 0.0
C319 C 0.48451 0.05298 0.06277 0.0
C320 C 0.4174 0.99478 0.9821 0.0
C321 C 0.38275 0.95617 0.96348 0.0
C322 C 0.37554 0.97857 0.96919 0.0
C323 C 0.39276 0.99771 0.97835 0.0
C324 C 0.42455 0.97228 0.97725 0.0
C325 C 0.40741 0.95319 0.9679 0.0
C326 C 0.43546 0.01529 0.99096 0.0
C327 C 0.48186 0.98022 0.05664 0.0
H328 H 0.64094 0.05179 0.11065 0.0
H329 H 0.61151 0.02136 0.08895 0.0
H330 H 0.55885 0.07074 0.08616 0.0
H331 H 0.58799 0.10123 0.10856 0.0
H332 H 0.35662 0.98138 0.96644 0.0
H333 H 0.38688 0.01489 0.98229 0.0
H334 H 0.44349 0.9696 0.98026 0.0
H335 H 0.41373 0.93634 0.96344 0.0
Tb336 Tb 0.51148 0.48468 0.50307 0.0
Tb337 Tb 0.51046 0.53381 0.53585 0.0
C338 C 0.4875 0.52732 0.48145 0.0
C339 C 0.53585 0.43575 0.46979 0.0
C340 C 0.57692 0.4153 0.45311 0.0
C341 C 0.55386 0.4095 0.44116 0.0
C342 C 0.53348 0.41964 0.44948 0.0
C343 C 0.55879 0.44156 0.48182 0.0
C344 C 0.57912 0.43133 0.47363 0.0
C345 C 0.51472 0.44723 0.47764 0.0
O346 O 0.54235 0.51124 0.48952 0.0
O347 O 0.54904 0.53604 0.52396 0.0
O348 O 0.52085 0.50706 0.56169 0.0
O349 O 0.53763 0.48318 0.53366 0.0
O350 O 0.51564 0.57172 0.5384 0.0
O351 O 0.50368 0.54943 0.57056 0.0
O352 O 0.47233 0.51494 0.53585 0.0
O353 O 0.47998 0.4765 0.52886 0.0
O354 O 0.48502 0.50371 0.48406 0.0
O355 O 0.50066 0.54192 0.49744 0.0
C356 C 0.55644 0.52817 0.50232 0.0
O357 O 0.50995 0.44705 0.50171 0.0
O358 O 0.51408 0.46835 0.46778 0.0
C359 C 0.53462 0.49045 0.55683 0.0
C360 C 0.48635 0.58446 0.56583 0.0
C361 C 0.4456 0.60763 0.57714 0.0
C362 C 0.46825 0.61417 0.58971 0.0
C363 C 0.48845 0.60264 0.5841 0.0
C364 C 0.46394 0.57806 0.55297 0.0
C365 C 0.44374 0.58958 0.55854 0.0
C366 C 0.50695 0.57119 0.56132 0.0
C367 C 0.46543 0.4914 0.537 0.0
H368 H 0.55156 0.39706 0.42544 0.0
H369 H 0.51593 0.41507 0.43992 0.0
H370 H 0.56104 0.45421 0.49737 0.0
H371 H 0.59671 0.43639 0.483 0.0
H372 H 0.47037 0.62824 0.60388 0.0
H373 H 0.50561 0.6077 0.59424 0.0
H374 H 0.46197 0.56387 0.53893 0.0
H375 H 0.42649 0.58396 0.54872 0.0
Tb376 Tb 0.00989 0.53289 1.00804 0.0
Tb377 Tb 0.01102 0.48421 0.04143 0.0
C378 C 0.03536 0.49 0.98794 0.0
C379 C 0.98452 0.58124 0.97636 0.0
C380 C 0.94166 0.60012 0.9636 0.0
C381 C 0.96271 0.60386 0.94777 0.0
C382 C 0.98399 0.59449 0.95413 0.0
C383 C 0.96362 0.57757 0.99229 0.0
C384 C 0.9424 0.58705 0.98603 0.0
C385 C 1.00592 0.56942 0.98168 0.0
O386 O 0.97189 0.51363 1.00823 0.0
O387 O 0.97983 0.47543 1.0158 0.0
O388 O 0.98443 0.50315 0.06079 0.0
O389 O 0.99914 0.54129 0.04621 0.0
O390 O 0.00997 0.44662 0.04265 0.0
O391 O 0.01354 0.46787 0.0766 0.0
O392 O 0.04166 0.51105 0.05466 0.0
O393 O 0.04824 0.53637 1.02048 0.0
O394 O 0.02115 0.50602 0.98274 0.0
O395 O 0.0381 0.48319 1.0112 0.0
C396 C 0.96524 0.49004 1.00735 0.0
O397 O 0.0137 0.57068 1.0048 0.0
O398 O 1.00431 0.54764 0.97274 0.0
C399 C 0.98635 0.52677 0.06274 0.0
C400 C 0.0367 0.43635 0.07348 0.0
C401 C 0.07895 0.41659 0.08685 0.0
C402 C 0.05508 0.40521 0.09428 0.0
C403 C 0.03411 0.41506 0.08764 0.0
C404 C 0.06041 0.44771 0.0659 0.0
C405 C 0.08134 0.43792 0.07251 0.0
C406 C 0.01484 0.44689 0.06659 0.0
C407 C 0.05555 0.52842 0.04197 0.0
H408 H 0.96272 0.61407 0.93049 0.0
H409 H 0.99989 0.59723 0.94151 0.0
H410 H 0.96354 0.56698 1.00933 0.0
H411 H 0.92637 0.58367 0.99843 0.0
H412 H 0.05264 0.38893 0.10557 0.0
H413 H 0.01592 0.40612 0.09366 0.0
H414 H 0.06271 0.46417 0.05487 0.0
H415 H 0.09938 0.44694 0.06618 0.0
H416 H 0.29584 0.21821 0.3221 0.0
H417 H 0.26573 0.19233 0.34866 0.0
H418 H 0.20925 0.23398 0.32832 0.0
H419 H 0.23927 0.26011 0.30191 0.0
H420 H 0.23455 0.20381 0.38972 0.0
H421 H 0.18086 0.16373 0.30728 0.0
H422 H 0.21181 0.18066 0.30431 0.0
H423 H 0.18588 0.19617 0.30906 0.0
C424 C 0.27713 0.22213 0.32361 0.0
C425 C 0.26988 0.24109 0.30973 0.0
C426 C 0.25994 0.20727 0.3387 0.0
C427 C 0.23523 0.21105 0.34009 0.0
C428 C 0.22815 0.23052 0.32709 0.0
H429 H 0.10436 0.12337 0.40696 0.0
H430 H 0.13285 0.15602 0.38655 0.0
C431 C 0.2453 0.24539 0.312 0.0
C432 C 0.2167 0.19407 0.35443 0.0
H433 H 0.16529 0.15112 0.34741 0.0
C434 C 0.21936 0.19231 0.38053 0.0
C435 C 0.19691 0.17917 0.34232 0.0
C436 C 0.19369 0.17979 0.31418 0.0
C437 C 0.20265 0.17601 0.39492 0.0
C438 C 0.18311 0.1608 0.38274 0.0
C439 C 0.18025 0.16285 0.35668 0.0
C440 C 0.16602 0.1419 0.39643 0.0
C441 C 0.20592 0.17539 0.42303 0.0
C442 C 0.17525 0.12311 0.40861 0.0
C443 C 0.15907 0.10454 0.42038 0.0
C444 C 0.1333 0.10428 0.42 0.0
C445 C 0.12411 0.1232 0.40785 0.0
C446 C 0.14034 0.14179 0.39608 0.0
H447 H 0.21673 0.19255 0.43009 0.0
H448 H 0.18772 0.17205 0.43297 0.0
H449 H 0.2162 0.16053 0.42783 0.0
H450 H 0.19497 0.12258 0.40866 0.0
H451 H 0.16677 0.09038 0.4298 0.0
H452 H 0.28323 0.79181 0.81116 0.0
H453 H 0.29988 0.80725 0.85172 0.0
H454 H 0.25675 0.86507 0.8476 0.0
H455 H 0.23959 0.84928 0.80769 0.0
H456 H 0.32846 0.84864 0.85591 0.0
H457 H 0.24953 0.85083 0.92063 0.0
H458 H 0.24646 0.8334 0.89192 0.0
H459 H 0.24415 0.86513 0.89159 0.0
C460 C 0.27679 0.80738 0.81937 0.0
C461 C 0.26013 0.81936 0.80635 0.0
C462 C 0.28627 0.81618 0.84252 0.0
C463 C 0.27939 0.83719 0.85293 0.0
C464 C 0.2618 0.84843 0.84046 0.0
H465 H 0.34806 0.9605 0.9278 0.0
H466 H 0.32161 0.92818 0.90552 0.0
C467 C 0.25208 0.83946 0.81752 0.0
C468 C 0.29331 0.84956 0.87437 0.0
H469 H 0.28627 0.88126 0.92817 0.0
C470 C 0.31925 0.85516 0.87207 0.0
C471 C 0.28137 0.85814 0.89551 0.0
C472 C 0.25386 0.8513 0.90016 0.0
C473 C 0.33332 0.87037 0.88937 0.0
C474 C 0.32116 0.88025 0.90942 0.0
C475 C 0.29545 0.87372 0.91259 0.0
C476 C 0.33471 0.89929 0.92554 0.0
C477 C 0.36098 0.87694 0.88536 0.0
C478 C 0.35042 0.8936 0.94449 0.0
C479 C 0.36544 0.91206 0.9575 0.0
C480 C 0.36507 0.93649 0.95161 0.0
C481 C 0.3486 0.94197 0.93313 0.0
C482 C 0.33352 0.92353 0.92029 0.0
H483 H 0.36749 0.86837 0.86824 0.0
H484 H 0.36623 0.89686 0.88367 0.0
H485 H 0.37077 0.87112 0.90188 0.0
H486 H 0.35152 0.87492 0.94873 0.0
H487 H 0.3776 0.9072 0.97189 0.0
H488 H 0.60977 0.35985 0.73319 0.0
H489 H 0.59231 0.37801 0.6972 0.0
H490 H 0.62915 0.44846 0.71994 0.0
H491 H 0.64649 0.43052 0.75623 0.0
H492 H 0.56159 0.41245 0.69447 0.0
H493 H 0.65119 0.44571 0.64653 0.0
H494 H 0.64845 0.42435 0.67217 0.0
H495 H 0.64947 0.45602 0.67839 0.0
C496 C 0.61399 0.37926 0.73082 0.0
C497 C 0.62969 0.39361 0.74782 0.0
C498 C 0.60407 0.38962 0.71003 0.0
C499 C 0.60969 0.41461 0.70546 0.0
C500 C 0.62497 0.42908 0.72259 0.0
H501 H 0.53034 0.49955 0.60724 0.0
H502 H 0.54849 0.48096 0.64246 0.0
C503 C 0.63489 0.41874 0.74343 0.0
C504 C 0.59927 0.42546 0.68303 0.0
H505 H 0.61544 0.45851 0.62952 0.0
C506 C 0.5734 0.42248 0.68027 0.0
C507 C 0.61458 0.43829 0.66418 0.0
C508 C 0.64247 0.44114 0.66524 0.0
C509 C 0.56249 0.43233 0.65963 0.0
C510 C 0.57778 0.44583 0.64122 0.0
C511 C 0.60365 0.44838 0.64367 0.0
C512 C 0.56721 0.45755 0.61945 0.0
C513 C 0.53461 0.42788 0.65753 0.0
C514 C 0.57216 0.45118 0.59453 0.0
C515 C 0.56179 0.46188 0.57417 0.0
C516 C 0.54641 0.47941 0.57824 0.0
C517 C 0.54195 0.48608 0.60324 0.0
C518 C 0.55223 0.47532 0.62352 0.0
H519 H 0.52601 0.41218 0.66909 0.0
H520 H 0.52726 0.44406 0.66435 0.0
H521 H 0.52885 0.42459 0.63769 0.0
H522 H 0.58377 0.43763 0.59083 0.0
H523 H 0.56573 0.4563 0.55525 0.0
H524 H 0.91224 0.66537 0.22905 0.0
H525 H 0.92945 0.64246 0.19607 0.0
H526 H 0.89412 0.57579 0.2301 0.0
H527 H 0.87601 0.59863 0.26272 0.0
H528 H 0.96066 0.60909 0.19802 0.0
H529 H 0.87045 0.5668 0.15807 0.0
H530 H 0.87305 0.59144 0.18027 0.0
H531 H 0.87377 0.56117 0.19099 0.0
C532 C 0.90788 0.64583 0.22946 0.0
C533 C 0.89242 0.63394 0.24851 0.0
C534 C 0.91792 0.63272 0.21062 0.0
C535 C 0.91274 0.60735 0.2102 0.0
C536 C 0.89797 0.59535 0.2296 0.0
H537 H 0.95876 0.5036 0.10196 0.0
H538 H 0.94111 0.52207 0.13833 0.0
C539 C 0.88788 0.60847 0.2485 0.0
C540 C 0.92297 0.59369 0.18947 0.0
H541 H 0.90645 0.55469 0.14061 0.0
C542 C 0.94877 0.59719 0.1855 0.0
C543 C 0.90754 0.57806 0.17308 0.0
C544 C 0.87966 0.57424 0.17559 0.0
C545 C 0.9595 0.58558 0.16573 0.0
C546 C 0.94406 0.57028 0.14911 0.0
C547 C 0.9183 0.56639 0.15333 0.0
C548 C 0.95428 0.55892 0.12673 0.0
C549 C 0.98737 0.58966 0.16297 0.0
C550 C 0.96711 0.57342 0.10777 0.0
C551 C 0.97714 0.56295 0.08695 0.0
C552 C 0.97456 0.53764 0.08446 0.0
C553 C 0.96122 0.52312 0.10322 0.0
C554 C 0.9511 0.53366 0.12407 0.0
H555 H 0.99663 0.5961 0.1808 0.0
H556 H 0.99405 0.57283 0.15702 0.0
H557 H 0.99308 0.60365 0.14839 0.0
H558 H 0.96937 0.59293 0.10906 0.0
H559 H 0.9871 0.5748 0.07289 0.0
H560 H 0.41101 0.23869 0.15472 0.0
H561 H 0.43039 0.20662 0.1355 0.0
H562 H 0.40378 0.15891 0.19689 0.0
H563 H 0.38435 0.19085 0.21623 0.0
H564 H 0.46589 0.17974 0.15355 0.0
H565 H 0.37559 0.12142 0.13451 0.0
H566 H 0.37791 0.15278 0.14336 0.0
H567 H 0.38048 0.13028 0.16678 0.0
C568 C 0.40952 0.22146 0.16427 0.0
C569 C 0.39594 0.21722 0.18687 0.0
C570 C 0.42055 0.20315 0.15324 0.0
C571 C 0.41819 0.18031 0.16459 0.0
C572 C 0.40538 0.17627 0.18757 0.0
H573 H 0.49802 0.06514 0.11144 0.0
H574 H 0.48287 0.09545 0.13814 0.0
C575 C 0.39427 0.19452 0.19856 0.0
C576 C 0.42848 0.16053 0.15192 0.0
H577 H 0.41171 0.1055 0.12405 0.0
C578 C 0.45411 0.16344 0.14719 0.0
C579 C 0.41298 0.13941 0.14348 0.0
C580 C 0.38518 0.13577 0.14705 0.0
C581 C 0.46465 0.14582 0.134 0.0
C582 C 0.44914 0.12467 0.12566 0.0
C583 C 0.42356 0.12166 0.13068 0.0
C584 C 0.45863 0.1063 0.10992 0.0
C585 C 0.49211 0.15036 0.12833 0.0
C586 C 0.44968 0.10207 0.08545 0.0
C587 C 0.4581 0.08474 0.07029 0.0
C588 C 0.47565 0.07116 0.07929 0.0
C589 C 0.48454 0.07532 0.10391 0.0
C590 C 0.47603 0.09273 0.11914 0.0
H591 H 0.50051 0.1695 0.13167 0.0
H592 H 0.50148 0.13877 0.14065 0.0
H593 H 0.49578 0.14567 0.1085 0.0
H594 H 0.43621 0.11232 0.078 0.0
H595 H 0.4508 0.08207 0.05145 0.0
H596 H 0.16962 0.88906 0.66365 0.0
H597 H 0.13758 0.90904 0.64569 0.0
H598 H 0.08857 0.84073 0.64095 0.0
H599 H 0.12039 0.82042 0.6599 0.0
H600 H 0.09615 0.86992 0.59482 0.0
H601 H 0.07027 0.92161 0.67718 0.0
H602 H 0.10314 0.92361 0.6724 0.0
H603 H 0.08471 0.89496 0.68016 0.0
C604 C 0.15184 0.87825 0.65949 0.0
C605 C 0.14755 0.8531 0.66351 0.0
C606 C 0.13357 0.88975 0.64911 0.0
C607 C 0.11064 0.8764 0.64237 0.0
C608 C 0.10614 0.85133 0.64626 0.0
H609 H 0.99946 0.95621 0.57884 0.0
H610 H 0.01708 0.92604 0.6031 0.0
C611 C 0.12439 0.83977 0.65691 0.0
C612 C 0.09235 0.88874 0.62961 0.0
H613 H 0.06045 0.93585 0.63652 0.0
C614 C 0.08789 0.884 0.60402 0.0
C615 C 0.0815 0.90694 0.64175 0.0
C616 C 0.08492 0.91199 0.66946 0.0
C617 C 0.07413 0.89811 0.58985 0.0
C618 C 0.06479 0.91743 0.60161 0.0
C619 C 0.06785 0.92113 0.62755 0.0
C620 C 0.05383 0.93527 0.58687 0.0
C621 C 0.07036 0.89278 0.56222 0.0
C622 C 0.06883 0.9506 0.57011 0.0
C623 C 0.05897 0.96792 0.55644 0.0
C624 C 0.03385 0.97021 0.55923 0.0
C625 C 0.01886 0.95487 0.5762 0.0
C626 C 0.02885 0.93763 0.59005 0.0
H627 H 0.07286 0.874 0.55756 0.0
H628 H 0.05156 0.89546 0.55634 0.0
H629 H 0.08418 0.90535 0.55116 0.0
H630 H 0.08827 0.94927 0.56774 0.0
H631 H 0.07104 0.9794 0.54355 0.0
H632 H 0.77128 0.36061 0.91225 0.0
H633 H 0.80748 0.38085 0.93488 0.0
H634 H 0.79936 0.44856 0.90044 0.0
H635 H 0.76335 0.42836 0.87716 0.0
H636 H 0.85193 0.40648 0.91252 0.0
H637 H 0.80703 0.46537 0.97632 0.0
H638 H 0.78976 0.43948 0.9606 0.0
H639 H 0.79985 0.46696 0.9435 0.0
C640 C 0.77714 0.37981 0.90933 0.0
C641 C 0.76429 0.39272 0.89261 0.0
C642 C 0.79784 0.39139 0.92246 0.0
C643 C 0.80613 0.41628 0.91956 0.0
C644 C 0.79312 0.42941 0.90335 0.0
H645 H 0.93262 0.51389 0.98232 0.0
H646 H 0.89435 0.49636 0.96101 0.0
C647 C 0.77244 0.4178 0.89006 0.0
C648 C 0.82908 0.42807 0.93258 0.0
H649 H 0.85081 0.47032 0.97698 0.0
C650 C 0.85166 0.4204 0.92666 0.0
C651 C 0.82884 0.44641 0.95087 0.0
C652 C 0.80509 0.455 0.95843 0.0
C653 C 0.87396 0.43062 0.9383 0.0
C654 C 0.8737 0.44862 0.95704 0.0
C655 C 0.85112 0.45649 0.96276 0.0
C656 C 0.89661 0.45937 0.97088 0.0
C657 C 0.89769 0.42241 0.9299 0.0
C658 C 0.91049 0.44459 0.98415 0.0
C659 C 0.9325 0.45455 0.99624 0.0
C660 C 0.94107 0.47963 0.99571 0.0
C661 C 0.9267 0.4945 0.98314 0.0
C662 C 0.90474 0.48449 0.97091 0.0
H663 H 0.89604 0.41451 0.91069 0.0
H664 H 0.91351 0.4376 0.92999 0.0
H665 H 0.90192 0.40822 0.94292 0.0
H666 H 0.90435 0.42525 0.9851 0.0
H667 H 0.94287 0.44251 1.00589 0.0
H668 H 0.76917 0.59848 0.39103 0.0
H669 H 0.73236 0.57773 0.41352 0.0
H670 H 0.70294 0.64443 0.41726 0.0
H671 H 0.7392 0.66512 0.39436 0.0
H672 H 0.71226 0.58753 0.46182 0.0
H673 H 0.64689 0.59665 0.38457 0.0
H674 H 0.68008 0.60129 0.37987 0.0
H675 H 0.66551 0.62456 0.39405 0.0
C676 C 0.75481 0.60871 0.39652 0.0
C677 C 0.75722 0.63351 0.3908 0.0
C678 C 0.73385 0.59685 0.40952 0.0
C679 C 0.71474 0.60945 0.41684 0.0
C680 C 0.71728 0.63425 0.41154 0.0
H681 H 0.5904 0.56571 0.5208 0.0
H682 H 0.6294 0.58479 0.50103 0.0
C683 C 0.73821 0.64612 0.39865 0.0
C684 C 0.69199 0.59671 0.42973 0.0
H685 H 0.62913 0.58216 0.4236 0.0
C686 C 0.69408 0.58629 0.45346 0.0
C687 C 0.6683 0.59487 0.41871 0.0
C688 C 0.66496 0.60472 0.3928 0.0
C689 C 0.67307 0.57446 0.46662 0.0
C690 C 0.64929 0.57321 0.45587 0.0
C691 C 0.6473 0.5833 0.43197 0.0
C692 C 0.62624 0.56102 0.46871 0.0
C693 C 0.67653 0.56305 0.49172 0.0
C694 C 0.61128 0.54146 0.45707 0.0
C695 C 0.58896 0.53058 0.46825 0.0
C696 C 0.58089 0.5391 0.49133 0.0
C697 C 0.59603 0.55857 0.50311 0.0
C698 C 0.61844 0.56945 0.49188 0.0
H699 H 0.69603 0.56042 0.49446 0.0
H700 H 0.67163 0.57502 0.50695 0.0
H701 H 0.66424 0.54529 0.4936 0.0
H702 H 0.61684 0.53465 0.43918 0.0
H703 H 0.5779 0.51562 0.45858 0.0
H704 H 0.2515 0.30015 0.1591 0.0
H705 H 0.21642 0.31404 0.13891 0.0
H706 H 0.25197 0.38802 0.14789 0.0
H707 H 0.28756 0.37427 0.1673 0.0
H708 H 0.18645 0.3425 0.16191 0.0
H709 H 0.22869 0.38722 0.07536 0.0
H710 H 0.24372 0.36679 0.09365 0.0
H711 H 0.2449 0.39765 0.1035 0.0
C712 C 0.25221 0.31936 0.15615 0.0
C713 C 0.27239 0.33611 0.16477 0.0
C714 C 0.23204 0.32726 0.14478 0.0
C715 C 0.23169 0.35204 0.14166 0.0
C716 C 0.25204 0.3688 0.14967 0.0
H717 H 0.12339 0.44117 0.10305 0.0
H718 H 0.16014 0.42447 0.11529 0.0
C719 C 0.27225 0.36092 0.16102 0.0
C720 C 0.20919 0.36038 0.132 0.0
H721 H 0.18848 0.39526 0.08688 0.0
C722 C 0.18681 0.35382 0.14534 0.0
C723 C 0.20977 0.37522 0.11045 0.0
C724 C 0.233 0.38197 0.09475 0.0
C725 C 0.16514 0.36226 0.13814 0.0
C726 C 0.16579 0.37736 0.1168 0.0
C727 C 0.18808 0.3837 0.10326 0.0
C728 C 0.14366 0.38727 0.10865 0.0
C729 C 0.1419 0.35556 0.15388 0.0
C730 C 0.12235 0.37187 0.10056 0.0
C731 C 0.10132 0.38135 0.09347 0.0
C732 C 0.10131 0.40643 0.0942 0.0
C733 C 0.12286 0.4218 0.102 0.0
C734 C 0.14385 0.4123 0.10909 0.0
H735 H 0.14591 0.34847 0.17263 0.0
H736 H 0.13235 0.37141 0.15661 0.0
H737 H 0.129 0.34131 0.14406 0.0
H738 H 0.12201 0.35252 0.09966 0.0
H739 H 0.08519 0.36907 0.08714 0.0
H740 H 0.5938 0.2719 0.90008 0.0
H741 H 0.57328 0.23642 0.92348 0.0
H742 H 0.63031 0.19649 0.89915 0.0
H743 H 0.65046 0.2316 0.87533 0.0
H744 H 0.58691 0.16922 0.89459 0.0
H745 H 0.59047 0.21016 0.98956 0.0
H746 H 0.57455 0.22604 0.9674 0.0
H747 H 0.60711 0.22519 0.96307 0.0
C748 C 0.60208 0.25562 0.89992 0.0
C749 C 0.62379 0.25465 0.88575 0.0
C750 C 0.59037 0.23532 0.91343 0.0
C751 C 0.60036 0.2137 0.91353 0.0
C752 C 0.62211 0.21282 0.89946 0.0
H753 H 0.56293 0.09355 1.01845 0.0
H754 H 0.58149 0.12982 0.99543 0.0
C755 C 0.63363 0.23296 0.88577 0.0
C756 C 0.58796 0.19173 0.92753 0.0
H757 H 0.56627 0.17112 0.98547 0.0
C758 C 0.58246 0.16969 0.91449 0.0
C759 C 0.58237 0.19204 0.95362 0.0
C760 C 0.58915 0.21456 0.96931 0.0
C761 C 0.57159 0.14817 0.92662 0.0
C762 C 0.56522 0.14865 0.95251 0.0
C763 C 0.57082 0.17066 0.9656 0.0
C764 C 0.55352 0.12644 0.96655 0.0
C765 C 0.56779 0.125 0.91163 0.0
C766 C 0.53133 0.11237 0.95834 0.0
C767 C 0.52078 0.09136 0.97135 0.0
C768 C 0.5319 0.08408 0.9932 0.0
C769 C 0.5538 0.09849 1.0017 0.0
C770 C 0.56446 0.11934 0.98854 0.0
H771 H 0.58017 0.12632 0.89482 0.0
H772 H 0.57128 0.10948 0.92322 0.0
H773 H 0.54837 0.12126 0.90497 0.0
H774 H 0.52203 0.1177 0.9419 0.0
H775 H 0.50377 0.08093 0.96437 0.0
H776 H 0.92103 0.76358 0.39655 0.0
H777 H 0.93848 0.80055 0.41905 0.0
H778 H 0.88587 0.83874 0.38347 0.0
H779 H 0.86807 0.80196 0.36129 0.0
H780 H 0.93448 0.86391 0.38173 0.0
H781 H 0.90772 0.83261 0.47868 0.0
H782 H 0.92475 0.81328 0.46104 0.0
H783 H 0.89431 0.81705 0.45109 0.0
C784 C 0.91296 0.77975 0.3937 0.0
C785 C 0.89313 0.77965 0.37694 0.0
C786 C 0.92298 0.80091 0.40661 0.0
C787 C 0.91335 0.82243 0.40317 0.0
C788 C 0.89366 0.82241 0.38644 0.0
H789 H 0.93749 0.95554 0.49145 0.0
H790 H 0.92008 0.9178 0.47026 0.0
C791 C 0.88361 0.80132 0.3736 0.0
C792 C 0.92403 0.84516 0.41646 0.0
H793 H 0.93335 0.87085 0.47473 0.0
C794 C 0.93425 0.86541 0.40207 0.0
C795 C 0.92345 0.84726 0.443 0.0
C796 C 0.91179 0.8265 0.45943 0.0
C797 C 0.94414 0.88752 0.41344 0.0
C798 C 0.94407 0.88947 0.43999 0.0
C799 C 0.93357 0.86933 0.45439 0.0
C800 C 0.95476 0.9123 0.45308 0.0
C801 C 0.9542 0.90877 0.39689 0.0
C802 C 0.98011 0.92167 0.45074 0.0
C803 C 0.99013 0.94322 0.46283 0.0
C804 C 0.97505 0.95595 0.47762 0.0
C805 C 0.94967 0.94637 0.48012 0.0
C806 C 0.93968 0.92473 0.46808 0.0
H807 H 0.94745 0.90615 0.37729 0.0
H808 H 0.9489 0.92572 0.4044 0.0
H809 H 0.97475 0.91099 0.39637 0.0
H810 H 0.99222 0.91222 0.43964 0.0
H811 H 0.00976 0.94989 0.46053 0.0
H812 H 0.29445 0.75481 0.61593 0.0
H813 H 0.32159 0.7282 0.59925 0.0
H814 H 0.28662 0.67085 0.64784 0.0
H815 H 0.25833 0.69706 0.66385 0.0
H816 H 0.35442 0.71048 0.62898 0.0
H817 H 0.29338 0.63511 0.58182 0.0
H818 H 0.2833 0.66338 0.58956 0.0
H819 H 0.28411 0.6409 0.61345 0.0
C820 C 0.29179 0.73629 0.62248 0.0
C821 C 0.27411 0.72813 0.64129 0.0
C822 C 0.30754 0.72114 0.61305 0.0
C823 C 0.30608 0.69753 0.62221 0.0
C824 C 0.28783 0.6889 0.64021 0.0
H825 H 0.42946 0.61835 0.62396 0.0
H826 H 0.39475 0.63912 0.63468 0.0
C827 C 0.27188 0.70402 0.64957 0.0
C828 C 0.32546 0.68312 0.61496 0.0
H829 H 0.3353 0.62996 0.58841 0.0
C830 C 0.35022 0.69292 0.62 0.0
C831 C 0.31995 0.66029 0.60315 0.0
C832 C 0.29377 0.64934 0.59644 0.0
C833 C 0.36964 0.68047 0.61372 0.0
C834 C 0.36412 0.65736 0.60255 0.0
C835 C 0.3394 0.64761 0.5972 0.0
C836 C 0.38395 0.64329 0.59611 0.0
C837 C 0.39597 0.69233 0.61877 0.0
C838 C 0.3889 0.63819 0.57092 0.0
C839 C 0.40877 0.62637 0.56472 0.0
C840 C 0.42396 0.61941 0.58365 0.0
C841 C 0.41844 0.62395 0.60892 0.0
C842 C 0.39857 0.63571 0.61509 0.0
H843 H 0.3974 0.71214 0.62163 0.0
H844 H 0.40256 0.68449 0.63609 0.0
H845 H 0.4085 0.6891 0.60301 0.0
H846 H 0.37778 0.64391 0.55602 0.0
H847 H 0.41261 0.62324 0.54508 0.0
H848 H 0.75241 0.83383 0.76848 0.0
H849 H 0.76962 0.84662 0.72716 0.0
H850 H 0.84212 0.86599 0.75972 0.0
H851 H 0.82541 0.85198 0.80068 0.0
H852 H 0.78897 0.89086 0.71471 0.0
H853 H 0.85998 0.83328 0.69697 0.0
H854 H 0.8366 0.82642 0.72128 0.0
H855 H 0.86461 0.84747 0.72714 0.0
C856 C 0.77216 0.84013 0.76672 0.0
C857 C 0.7875 0.84196 0.78796 0.0
C858 C 0.78194 0.84757 0.74309 0.0
C859 C 0.80724 0.85696 0.74022 0.0
C860 C 0.82268 0.85825 0.76127 0.0
H861 H 0.87962 0.97107 0.65125 0.0
H862 H 0.85568 0.94327 0.68091 0.0
C863 C 0.81298 0.85063 0.78482 0.0
C864 C 0.81703 0.86797 0.71606 0.0
H865 H 0.86645 0.87225 0.67562 0.0
C866 C 0.80563 0.88642 0.70587 0.0
C867 C 0.83848 0.86192 0.70416 0.0
C868 C 0.85042 0.84099 0.71283 0.0
C869 C 0.81602 0.90005 0.68521 0.0
C870 C 0.83876 0.89552 0.67488 0.0
C871 C 0.84925 0.87599 0.68387 0.0
C872 C 0.85293 0.91215 0.65634 0.0
C873 C 0.80279 0.91952 0.675 0.0
C874 C 0.86003 0.90371 0.63295 0.0
C875 C 0.8739 0.91963 0.6159 0.0
C876 C 0.88088 0.94419 0.62206 0.0
C877 C 0.87399 0.95241 0.64567 0.0
C878 C 0.86028 0.93654 0.66265 0.0
H879 H 0.78251 0.91524 0.6787 0.0
H880 H 0.80983 0.93688 0.68452 0.0
H881 H 0.80596 0.92196 0.65444 0.0
H882 H 0.85474 0.88488 0.62784 0.0
H883 H 0.87894 0.9128 0.59784 0.0
H884 H 0.7644 0.25699 0.21367 0.0
H885 H 0.7338 0.23037 0.18864 0.0
H886 H 0.75696 0.16799 0.22244 0.0
H887 H 0.78732 0.19437 0.2477 0.0
H888 H 0.74202 0.18938 0.15444 0.0
H889 H 0.67992 0.1626 0.23662 0.0
H890 H 0.70307 0.18957 0.23645 0.0
H891 H 0.71211 0.1605 0.24078 0.0
C892 C 0.76298 0.2376 0.21571 0.0
C893 C 0.77819 0.22775 0.23271 0.0
C894 C 0.74561 0.22246 0.20135 0.0
C895 C 0.74303 0.1973 0.20396 0.0
C896 C 0.7586 0.1874 0.22037 0.0
H897 H 0.64646 0.07156 0.15082 0.0
H898 H 0.67706 0.10128 0.17194 0.0
C899 C 0.77605 0.20249 0.23461 0.0
C900 C 0.7236 0.18129 0.19008 0.0
H901 H 0.66989 0.14154 0.19856 0.0
C902 C 0.72613 0.17901 0.16397 0.0
C903 C 0.70298 0.16788 0.2027 0.0
C904 C 0.69912 0.1703 0.23066 0.0
C905 C 0.70887 0.16297 0.15016 0.0
C906 C 0.68833 0.14934 0.16283 0.0
C907 C 0.68565 0.15199 0.18891 0.0
C908 C 0.66983 0.13156 0.14962 0.0
C909 C 0.71323 0.16014 0.12233 0.0
C910 C 0.65539 0.13878 0.13026 0.0
C911 C 0.63802 0.12176 0.11795 0.0
C912 C 0.63468 0.09723 0.12492 0.0
C913 C 0.64888 0.09021 0.14467 0.0
C914 C 0.66626 0.10719 0.15688 0.0
H915 H 0.73271 0.16723 0.11679 0.0
H916 H 0.70885 0.14086 0.11663 0.0
H917 H 0.70096 0.17038 0.11176 0.0
H918 H 0.6575 0.15758 0.12472 0.0
H919 H 0.62749 0.12775 0.10273 0.0
H920 H 0.36697 0.59148 0.28933 0.0
H921 H 0.38346 0.57353 0.32602 0.0
H922 H 0.44017 0.63613 0.33305 0.0
H923 H 0.42448 0.65396 0.29578 0.0
H924 H 0.43533 0.56436 0.33186 0.0
H925 H 0.40669 0.6255 0.40495 0.0
H926 H 0.39215 0.62167 0.37453 0.0
H927 H 0.42227 0.63967 0.37755 0.0
C928 C 0.38308 0.60148 0.29843 0.0
C929 C 0.39433 0.6243 0.28922 0.0
C930 C 0.3924 0.59117 0.31961 0.0
C931 C 0.41298 0.60348 0.33247 0.0
C932 C 0.42407 0.62637 0.32368 0.0
H933 H 0.49494 0.57454 0.46576 0.0
H934 H 0.47691 0.59199 0.42971 0.0
C935 C 0.41492 0.63662 0.30235 0.0
C936 C 0.42327 0.59208 0.35457 0.0
H937 H 0.43157 0.59729 0.41815 0.0
C938 C 0.43443 0.57148 0.35076 0.0
C939 C 0.42227 0.60143 0.37922 0.0
C940 C 0.41007 0.62319 0.38453 0.0
C941 C 0.44507 0.56034 0.37074 0.0
C942 C 0.44385 0.5695 0.39555 0.0
C943 C 0.43255 0.59009 0.3993 0.0
C944 C 0.45466 0.55846 0.41774 0.0
C945 C 0.45829 0.53937 0.3648 0.0
C946 C 0.44805 0.53374 0.42358 0.0
C947 C 0.45863 0.52357 0.44415 0.0
C948 C 0.47576 0.53796 0.45975 0.0
C949 C 0.48185 0.56281 0.45425 0.0
C950 C 0.4715 0.57288 0.43355 0.0
H951 H 0.46418 0.53943 0.34474 0.0
H952 H 0.47493 0.53973 0.37669 0.0
H953 H 0.44551 0.52219 0.36838 0.0
H954 H 0.43456 0.52224 0.4123 0.0
H955 H 0.45325 0.50445 0.4479 0.0
H956 H 0.16817 0.40085 0.81875 0.0
H957 H 0.15031 0.41952 0.85456 0.0
H958 H 0.07801 0.40389 0.82106 0.0
H959 H 0.09575 0.38546 0.78488 0.0
H960 H 0.12452 0.45861 0.85655 0.0
H961 H 0.06595 0.37493 0.89188 0.0
H962 H 0.09051 0.37447 0.869 0.0
H963 H 0.06111 0.38163 0.85946 0.0
C964 C 0.1485 0.4016 0.81874 0.0
C965 C 0.13347 0.39156 0.79874 0.0
C966 C 0.13829 0.41218 0.83939 0.0
C967 C 0.11274 0.41283 0.84077 0.0
C968 C 0.09769 0.40316 0.82074 0.0
H969 H 0.03604 0.50189 0.93797 0.0
H970 H 0.0555 0.4834 0.9031 0.0
C971 C 0.1079 0.39261 0.80001 0.0
C972 C 0.10202 0.42389 0.86301 0.0
H973 H 0.06017 0.41172 0.91146 0.0
C974 C 0.11048 0.44833 0.86857 0.0
C975 C 0.08395 0.41043 0.87897 0.0
C976 C 0.07496 0.38385 0.87475 0.0
C977 C 0.10104 0.45977 0.88926 0.0
C978 C 0.08241 0.44651 0.90475 0.0
C979 C 0.07431 0.42194 0.89951 0.0
C980 C 0.07085 0.45792 0.92624 0.0
C981 C 0.11133 0.4859 0.89455 0.0
C982 C 0.07257 0.44953 0.95095 0.0
C983 C 0.06139 0.4601 0.97108 0.0
C984 C 0.04801 0.47913 0.96687 0.0
C985 C 0.04626 0.48737 0.94204 0.0
C986 C 0.0575 0.47688 0.922 0.0
H987 H 0.12968 0.49153 0.88531 0.0
H988 H 0.09841 0.49749 0.88715 0.0
H989 H 0.11329 0.48922 0.91508 0.0
H990 H 0.08266 0.43484 0.95469 0.0
H991 H 0.06305 0.45318 0.98988 0.0
H992 H 0.64424 0.84134 0.94551 0.0
H993 H 0.60997 0.86245 0.95568 0.0
H994 H 0.59179 0.86451 0.87706 0.0
H995 H 0.62629 0.84317 0.86665 0.0
H996 H 0.59834 0.90864 0.89777 0.0
H997 H 0.53547 0.84698 0.95927 0.0
H998 H 0.56679 0.84946 0.9699 0.0
H999 H 0.55861 0.83657 0.93945 0.0
C1000 C 0.63245 0.84545 0.93041 0.0
C1001 C 0.63802 0.84055 0.90525 0.0
C1002 C 0.61277 0.85752 0.93628 0.0
C1003 C 0.59807 0.86478 0.91717 0.0
C1004 C 0.60282 0.85894 0.89211 0.0
H1005 H 0.48978 0.9526 0.97425 0.0
H1006 H 0.50595 0.92173 0.94931 0.0
C1007 C 0.62258 0.84685 0.88619 0.0
C1008 C 0.5803 0.8813 0.9233 0.0
H1009 H 0.53585 0.89011 0.96622 0.0
C1010 C 0.58423 0.90437 0.91229 0.0
C1011 C 0.56161 0.87569 0.94193 0.0
C1012 C 0.5552 0.85071 0.95309 0.0
C1013 C 0.57139 0.92254 0.92087 0.0
C1014 C 0.55455 0.9176 0.94127 0.0
C1015 C 0.5491 0.894 0.95086 0.0
C1016 C 0.54448 0.93712 0.9546 0.0
C1017 C 0.57658 0.94708 0.90855 0.0
C1018 C 0.56081 0.95589 0.9659 0.0
C1019 C 0.55171 0.97349 0.98013 0.0
C1020 C 0.52604 0.97258 0.98352 0.0
C1021 C 0.50966 0.95388 0.97194 0.0
C1022 C 0.51884 0.93622 0.9577 0.0
H1023 H 0.58268 0.94569 0.88868 0.0
H1024 H 0.55997 0.95614 0.90903 0.0
H1025 H 0.59177 0.95861 0.91871 0.0
H1026 H 0.58069 0.9566 0.96426 0.0
H1027 H 0.56486 0.98754 0.98884 0.0
H1028 H 0.92756 0.21993 0.34293 0.0
H1029 H 0.94668 0.1883 0.36295 0.0
H1030 H 0.88281 0.17088 0.41181 0.0
H1031 H 0.86352 0.20224 0.39173 0.0
H1032 H 0.95964 0.18232 0.41163 0.0
H1033 H 0.8887 0.10539 0.38253 0.0
H1034 H 0.89055 0.13523 0.36924 0.0
H1035 H 0.87556 0.12816 0.39923 0.0
C1036 C 0.91767 0.20943 0.35804 0.0
C1037 C 0.89396 0.21342 0.36565 0.0
C1038 C 0.92856 0.19131 0.36937 0.0
C1039 C 0.91593 0.17688 0.38848 0.0
C1040 C 0.89257 0.18131 0.39659 0.0
H1041 H 0.94708 0.07272 0.49551 0.0
H1042 H 0.93115 0.10303 0.47026 0.0
C1043 C 0.88161 0.19929 0.38517 0.0
C1044 C 0.92732 0.15747 0.4003 0.0
H1045 H 0.91671 0.09725 0.41451 0.0
C1046 C 0.95041 0.16367 0.412 0.0
C1047 C 0.91531 0.1331 0.4006 0.0
C1048 C 0.89129 0.125 0.387 0.0
C1049 C 0.96133 0.1463 0.42483 0.0
C1050 C 0.94887 0.12219 0.42587 0.0
C1051 C 0.92611 0.11584 0.41371 0.0
C1052 C 0.95857 0.10355 0.44061 0.0
C1053 C 0.98572 0.15388 0.43791 0.0
C1054 C 0.97911 0.09366 0.43205 0.0
C1055 C 0.98822 0.07617 0.44637 0.0
C1056 C 0.97698 0.06845 0.46952 0.0
C1057 C 0.95626 0.07833 0.47784 0.0
C1058 C 0.94708 0.09562 0.46344 0.0
H1059 H 0.99178 0.17377 0.43749 0.0
H1060 H 0.98425 0.14776 0.4578 0.0
H1061 H 1.00023 0.14514 0.4286 0.0
H1062 H 0.98808 0.09952 0.41435 0.0
H1063 H 1.00425 0.06898 0.43947 0.0
H1064 H 0.26102 0.65618 0.11938 0.0
H1065 H 0.22204 0.63794 0.10002 0.0
H1066 H 0.21641 0.57774 0.15117 0.0
H1067 H 0.25563 0.5956 0.17041 0.0
H1068 H 0.21072 0.59257 0.07615 0.0
H1069 H 0.14799 0.59852 0.1578 0.0
H1070 H 0.179 0.6155 0.15608 0.0
H1071 H 0.1742 0.58402 0.16436 0.0
C1072 C 0.25162 0.63901 0.12653 0.0
C1073 C 0.26168 0.62744 0.14656 0.0
C1074 C 0.2292 0.62864 0.11546 0.0
C1075 C 0.21606 0.60656 0.12425 0.0
C1076 C 0.22589 0.59502 0.14433 0.0
H1077 H 0.07923 0.51312 0.08263 0.0
H1078 H 0.11824 0.53197 0.1014 0.0
C1079 C 0.24837 0.60533 0.15538 0.0
C1080 C 0.19254 0.59529 0.11187 0.0
H1081 H 0.13068 0.57597 0.12269 0.0
C1082 C 0.19319 0.58905 0.08629 0.0
C1083 C 0.16964 0.5906 0.12507 0.0
C1084 C 0.16749 0.59767 0.15229 0.0
C1085 C 0.17176 0.57782 0.07374 0.0
C1086 C 0.14881 0.57315 0.08692 0.0
C1087 C 0.14819 0.57948 0.1125 0.0
C1088 C 0.1253 0.56144 0.07474 0.0
C1089 C 0.17413 0.57041 0.04665 0.0
C1090 C 0.116 0.57166 0.05342 0.0
C1091 C 0.09364 0.56079 0.04247 0.0
C1092 C 0.07986 0.53959 0.05277 0.0
C1093 C 0.08922 0.52944 0.07414 0.0
C1094 C 0.1116 0.54024 0.08497 0.0
H1095 H 0.19358 0.56886 0.04159 0.0
H1096 H 0.16216 0.55284 0.04276 0.0
H1097 H 0.16828 0.58432 0.03427 0.0
H1098 H 0.12582 0.58831 0.04545 0.0
H1099 H 0.08696 0.56927 0.0262 0.0
H1100 H 0.27594 0.35946 0.63564 0.0
H1101 H 0.31144 0.38121 0.61244 0.0
H1102 H 0.29586 0.44873 0.64227 0.0
H1103 H 0.26086 0.42698 0.66646 0.0
H1104 H 0.31522 0.41607 0.57627 0.0
H1105 H 0.36812 0.45216 0.66048 0.0
H1106 H 0.34108 0.429 0.66255 0.0
H1107 H 0.3377 0.46013 0.65857 0.0
C1108 C 0.28015 0.37892 0.63753 0.0
C1109 C 0.26562 0.39137 0.65329 0.0
C1110 C 0.3004 0.39137 0.62405 0.0
C1111 C 0.30671 0.4166 0.62594 0.0
C1112 C 0.29176 0.42922 0.64093 0.0
H1113 H 0.43209 0.51591 0.56067 0.0
H1114 H 0.39268 0.49887 0.581 0.0
C1115 C 0.27151 0.41675 0.65451 0.0
C1116 C 0.32898 0.42947 0.61228 0.0
H1117 H 0.38547 0.46488 0.6209 0.0
C1118 C 0.33055 0.42676 0.58606 0.0
C1119 C 0.34906 0.44348 0.62498 0.0
C1120 C 0.34911 0.44624 0.65321 0.0
C1121 C 0.35153 0.43761 0.57225 0.0
C1122 C 0.37171 0.45132 0.585 0.0
C1123 C 0.36999 0.45442 0.61113 0.0
C1124 C 0.39516 0.46177 0.57174 0.0
C1125 C 0.35186 0.43445 0.54408 0.0
C1126 C 0.40979 0.44659 0.55986 0.0
C1127 C 0.43235 0.45624 0.54828 0.0
C1128 C 0.44088 0.48133 0.54833 0.0
C1129 C 0.4261 0.49652 0.56012 0.0
C1130 C 0.40356 0.48682 0.57182 0.0
H1131 H 0.33284 0.42928 0.53655 0.0
H1132 H 0.36087 0.4513 0.53462 0.0
H1133 H 0.36257 0.41986 0.53924 0.0
H1134 H 0.40396 0.42718 0.55994 0.0
H1135 H 0.44322 0.44395 0.53951 0.0
H1136 H 0.77109 0.71292 0.87873 0.0
H1137 H 0.79407 0.67932 0.88428 0.0
H1138 H 0.80065 0.69527 0.96352 0.0
H1139 H 0.77732 0.7285 0.9582 0.0
H1140 H 0.84236 0.68889 0.90084 0.0
H1141 H 0.78667 0.62145 0.9631 0.0
H1142 H 0.77327 0.64378 0.94581 0.0
H1143 H 0.78902 0.65172 0.97494 0.0
C1144 C 0.77668 0.7087 0.89748 0.0
C1145 C 0.77257 0.72339 0.91803 0.0
C1146 C 0.78987 0.68958 0.90059 0.0
C1147 C 0.79888 0.68469 0.92433 0.0
C1148 C 0.79347 0.69842 0.94513 0.0
H1149 H 0.91297 0.62388 0.99385 0.0
H1150 H 0.8765 0.64129 0.98203 0.0
C1151 C 0.78038 0.71757 0.94202 0.0
C1152 C 0.81706 0.668 0.92684 0.0
H1153 H 0.83072 0.62098 0.96174 0.0
C1154 C 0.83966 0.6737 0.91374 0.0
C1155 C 0.81348 0.64835 0.9438 0.0
C1156 C 0.78919 0.6408 0.95754 0.0
C1157 C 0.85936 0.66117 0.91823 0.0
C1158 C 0.85612 0.64207 0.93591 0.0
C1159 C 0.83315 0.63569 0.94824 0.0
C1160 C 0.87696 0.62977 0.94319 0.0
C1161 C 0.88388 0.6694 0.90505 0.0
C1162 C 0.88898 0.61716 0.92536 0.0
C1163 C 0.90993 0.60738 0.93201 0.0
C1164 C 0.91898 0.60978 0.9567 0.0
C1165 C 0.90636 0.62167 0.97472 0.0
C1166 C 0.88554 0.6316 0.968 0.0
H1167 H 0.8848 0.68753 0.89635 0.0
H1168 H 0.89951 0.67009 0.91835 0.0
H1169 H 0.88644 0.65639 0.88989 0.0
H1170 H 0.88233 0.61513 0.90623 0.0
H1171 H 0.91903 0.59789 0.91788 0.0
H1172 H 0.43406 0.77783 0.17845 0.0
H1173 H 0.44818 0.81762 0.15989 0.0
H1174 H 0.3794 0.8129 0.11996 0.0
H1175 H 0.36533 0.77278 0.13778 0.0
H1176 H 0.45307 0.8287 0.1066 0.0
H1177 H 0.38774 0.88031 0.15485 0.0
H1178 H 0.3939 0.85161 0.1664 0.0
H1179 H 0.37399 0.85261 0.13991 0.0
C1180 C 0.42188 0.7851 0.16565 0.0
C1181 C 0.39846 0.7718 0.15971 0.0
C1182 C 0.42998 0.80801 0.15515 0.0
C1183 C 0.41481 0.81844 0.13868 0.0
C1184 C 0.39131 0.80547 0.13295 0.0
H1185 H 0.43393 0.95561 0.05606 0.0
H1186 H 0.41776 0.91648 0.0754 0.0
C1187 C 0.38324 0.78247 0.14329 0.0
C1188 C 0.424 0.8424 0.12674 0.0
H1189 H 0.4137 0.90089 0.12327 0.0
C1190 C 0.44452 0.84451 0.11031 0.0
C1191 C 0.41272 0.863 0.13135 0.0
C1192 C 0.39097 0.86198 0.14922 0.0
C1193 C 0.45385 0.86648 0.09816 0.0
C1194 C 0.44289 0.88729 0.10311 0.0
C1195 C 0.42223 0.88509 0.11945 0.0
C1196 C 0.45268 0.91144 0.0917 0.0
C1197 C 0.47498 0.86692 0.07959 0.0
C1198 C 0.47761 0.92209 0.09472 0.0
C1199 C 0.48695 0.94438 0.08351 0.0
C1200 C 0.47153 0.9569 0.06928 0.0
C1201 C 0.44639 0.94657 0.06686 0.0
C1202 C 0.4371 0.92413 0.07793 0.0
H1203 H 0.4759 0.84859 0.07206 0.0
H1204 H 0.4732 0.87916 0.06355 0.0
H1205 H 0.49275 0.87344 0.08918 0.0
H1206 H 0.48993 0.91316 0.10584 0.0
H1207 H 0.50633 0.95182 0.08607 0.0
H1208 H 0.09699 0.24013 0.68699 0.0
H1209 H 0.07856 0.20448 0.66314 0.0
H1210 H 0.12895 0.22637 0.60147 0.0
H1211 H 0.14818 0.26154 0.62555 0.0
H1212 H 0.05509 0.19962 0.61759 0.0
H1213 H 0.1401 0.15753 0.6132 0.0
H1214 H 0.13729 0.18267 0.63364 0.0
H1215 H 0.14419 0.18766 0.60075 0.0
C1216 C 0.10436 0.2373 0.66844 0.0
C1217 C 0.12431 0.25372 0.65838 0.0
C1218 C 0.09364 0.21694 0.65474 0.0
C1219 C 0.10264 0.2124 0.63067 0.0
C1220 C 0.12201 0.22912 0.62022 0.0
H1221 H 0.06278 0.09641 0.52133 0.0
H1222 H 0.08056 0.13353 0.54328 0.0
C1223 C 0.13278 0.24947 0.63392 0.0
C1224 C 0.09172 0.1902 0.61658 0.0
H1225 H 0.1059 0.13879 0.58927 0.0
C1226 C 0.0662 0.1863 0.61147 0.0
C1227 C 0.10617 0.17274 0.60856 0.0
C1228 C 0.1334 0.17517 0.61449 0.0
C1229 C 0.05486 0.16568 0.59831 0.0
C1230 C 0.0693 0.14823 0.59033 0.0
C1231 C 0.09483 0.15217 0.59532 0.0
C1232 C 0.05827 0.12565 0.577 0.0
C1233 C 0.02755 0.16297 0.59265 0.0
C1234 C 0.04002 0.10862 0.58873 0.0
C1235 C 0.02983 0.08732 0.57626 0.0
C1236 C 0.0377 0.08249 0.55175 0.0
C1237 C 0.05617 0.0995 0.54013 0.0
C1238 C 0.0664 0.12076 0.55267 0.0
H1239 H 0.02065 0.1805 0.59411 0.0
H1240 H 0.02361 0.15549 0.5735 0.0
H1241 H 0.01702 0.1503 0.6064 0.0
H1242 H 0.03378 0.11172 0.60767 0.0
H1243 H 0.01574 0.07466 0.58586 0.0
H1244 H 0.75766 0.34957 0.33162 0.0
H1245 H 0.72228 0.36505 0.35025 0.0
H1246 H 0.73939 0.3382 0.42281 0.0
H1247 H 0.77514 0.32294 0.40439 0.0
H1248 H 0.68149 0.33525 0.37715 0.0
H1249 H 0.73116 0.41034 0.43508 0.0
H1250 H 0.74581 0.39739 0.40894 0.0
H1251 H 0.74089 0.38135 0.43819 0.0
C1252 C 0.75419 0.34734 0.35164 0.0
C1253 C 0.76928 0.33516 0.36658 0.0
C1254 C 0.73387 0.35604 0.36219 0.0
C1255 C 0.72839 0.35292 0.3879 0.0
C1256 C 0.74353 0.34102 0.40297 0.0
H1257 H 0.61117 0.39663 0.48094 0.0
H1258 H 0.64751 0.38038 0.46556 0.0
C1259 C 0.7638 0.33218 0.3924 0.0
C1260 C 0.70617 0.36124 0.39862 0.0
H1261 H 0.68751 0.40261 0.43855 0.0
C1262 C 0.68275 0.34998 0.39058 0.0
C1263 C 0.70797 0.3803 0.41626 0.0
C1264 C 0.73277 0.39324 0.42509 0.0
C1265 C 0.66097 0.35724 0.39978 0.0
C1266 C 0.66275 0.3767 0.417 0.0
C1267 C 0.6862 0.38774 0.4253 0.0
C1268 C 0.64053 0.3862 0.42625 0.0
C1269 C 0.63629 0.3437 0.39128 0.0
C1270 C 0.62472 0.39512 0.40927 0.0
C1271 C 0.60393 0.40431 0.41798 0.0
C1272 C 0.59874 0.40507 0.44389 0.0
C1273 C 0.61477 0.3964 0.46088 0.0
C1274 C 0.63548 0.38706 0.45213 0.0
H1275 H 0.63788 0.32526 0.38451 0.0
H1276 H 0.62229 0.34213 0.40672 0.0
H1277 H 0.62946 0.35362 0.37547 0.0
H1278 H 0.62862 0.39525 0.38926 0.0
H1279 H 0.5922 0.41128 0.40446 0.0
loop_
_geom_bond_atom_site_label_1
_geom_bond_atom_site_label_2
_geom_bond_distance
_geom_bond_site_symmetry_2
_ccdc_geom_bond_type
P0 O11 1.490 . S
P0 C14 1.812 . S
P0 C20 1.803 . S
P0 C26 1.819 . S
H1 C15 0.941 . S
H2 C16 0.939 . S
H3 C18 0.940 . S
H4 C19 0.940 . S
H5 C21 0.939 . S
H6 C22 0.942 . S
H7 C24 0.940 . S
H8 C25 0.939 . S
H9 C27 0.941 . S
H10 C31 0.939 . S
O11 P0 1.490 . S
H12 C28 0.939 . S
H13 C30 0.940 . S
C14 P0 1.812 . S
C14 C15 1.389 . S
C14 C19 1.391 . S
C15 H1 0.941 . S
C15 C14 1.389 . S
C15 C16 1.397 . S
C16 H2 0.939 . S
C16 C15 1.397 . S
C16 C17 1.378 . S
C17 C16 1.378 . S
C17 C18 1.378 . S
C18 H3 0.940 . S
C18 C17 1.378 . S
C18 C19 1.396 . S
C19 H4 0.940 . S
C19 C14 1.391 . S
C19 C18 1.396 . S
C20 P0 1.803 . S
C20 C21 1.378 . S
C20 C25 1.400 . S
C21 H5 0.939 . S
C21 C20 1.378 . S
C21 C22 1.361 . S
C22 H6 0.942 . S
C22 C21 1.361 . S
C22 C23 1.369 . S
C23 C22 1.369 . S
C23 C24 1.404 . S
C24 H7 0.940 . S
C24 C23 1.404 . S
C24 C25 1.389 . S
C25 H8 0.939 . S
C25 C20 1.400 . S
C25 C24 1.389 . S
C26 P0 1.819 . S
C26 C27 1.391 . S
C26 C31 1.391 . S
C27 H9 0.941 . S
C27 C26 1.391 . S
C27 C28 1.396 . S
C28 H12 0.939 . S
C28 C27 1.396 . S
C28 C29 1.397 . S
C29 C28 1.397 . S
C29 C30 1.385 . S
C30 H13 0.940 . S
C30 C29 1.385 . S
C30 C31 1.388 . S
C31 H10 0.939 . S
C31 C26 1.391 . S
C31 C30 1.388 . S
P32 O43 1.490 . S
P32 C46 1.812 . S
P32 C52 1.803 . S
P32 C58 1.819 . S
H33 C47 0.941 . S
H34 C48 0.939 . S
H35 C50 0.940 . S
H36 C51 0.940 . S
H37 C53 0.939 . S
H38 C54 0.942 . S
H39 C56 0.940 . S
H40 C57 0.939 . S
H41 C59 0.941 . S
H42 C63 0.939 . S
O43 P32 1.490 . S
H44 C60 0.939 . S
H45 C62 0.940 . S
C46 P32 1.812 . S
C46 C47 1.389 . S
C46 C51 1.391 . S
C47 H33 0.941 . S
C47 C46 1.389 . S
C47 C48 1.397 . S
C48 H34 0.939 . S
C48 C47 1.397 . S
C48 C49 1.378 . S
C49 C48 1.378 . S
C49 C50 1.378 . S
C50 H35 0.940 . S
C50 C49 1.378 . S
C50 C51 1.396 . S
C51 H36 0.940 . S
C51 C46 1.391 . S
C51 C50 1.396 . S
C52 P32 1.803 . S
C52 C53 1.378 . S
C52 C57 1.400 . S
C53 H37 0.939 . S
C53 C52 1.378 . S
C53 C54 1.361 . S
C54 H38 0.942 . S
C54 C53 1.361 . S
C54 C55 1.369 . S
C55 C54 1.369 . S
C55 C56 1.404 . S
C56 H39 0.940 . S
C56 C55 1.404 . S
C56 C57 1.389 . S
C57 H40 0.939 . S
C57 C52 1.400 . S
C57 C56 1.389 . S
C58 P32 1.819 . S
C58 C59 1.391 . S
C58 C63 1.391 . S
C59 H41 0.941 . S
C59 C58 1.391 . S
C59 C60 1.396 . S
C60 H44 0.939 . S
C60 C59 1.396 . S
C60 C61 1.397 . S
C61 C60 1.397 . S
C61 C62 1.385 . S
C62 H45 0.940 . S
C62 C61 1.385 . S
C62 C63 1.388 . S
C63 H42 0.939 . S
C63 C58 1.391 . S
C63 C62 1.388 . S
P64 O75 1.490 . S
P64 C78 1.812 . S
P64 C84 1.803 . S
P64 C90 1.819 . S
H65 C79 0.941 . S
H66 C80 0.939 . S
H67 C82 0.940 . S
H68 C83 0.940 . S
H69 C85 0.939 . S
H70 C86 0.942 . S
H71 C88 0.940 . S
H72 C89 0.939 . S
H73 C91 0.941 . S
H74 C95 0.939 . S
O75 P64 1.490 . S
H76 C92 0.939 . S
H77 C94 0.940 . S
C78 P64 1.812 . S
C78 C79 1.389 . S
C78 C83 1.391 . S
C79 H65 0.941 . S
C79 C78 1.389 . S
C79 C80 1.397 . S
C80 H66 0.939 . S
C80 C79 1.397 . S
C80 C81 1.378 . S
C81 C80 1.378 . S
C81 C82 1.378 . S
C82 H67 0.940 . S
C82 C81 1.378 . S
C82 C83 1.396 . S
C83 H68 0.940 . S
C83 C78 1.391 . S
C83 C82 1.396 . S
C84 P64 1.803 . S
C84 C85 1.378 . S
C84 C89 1.400 . S
C85 H69 0.939 . S
C85 C84 1.378 . S
C85 C86 1.361 . S
C86 H70 0.942 . S
C86 C85 1.361 . S
C86 C87 1.369 . S
C87 C86 1.369 . S
C87 C88 1.404 . S
C88 H71 0.940 . S
C88 C87 1.404 . S
C88 C89 1.389 . S
C89 H72 0.939 . S
C89 C84 1.400 . S
C89 C88 1.389 . S
C90 P64 1.819 . S
C90 C91 1.391 . S
C90 C95 1.391 . S
C91 H73 0.941 . S
C91 C90 1.391 . S
C91 C92 1.396 . S
C92 H76 0.939 . S
C92 C91 1.396 . S
C92 C93 1.397 . S
C93 C92 1.397 . S
C93 C94 1.385 . S
C94 H77 0.940 . S
C94 C93 1.385 . S
C94 C95 1.388 . S
C95 H74 0.939 . S
C95 C90 1.391 . S
C95 C94 1.388 . S
P96 O107 1.490 . S
P96 C110 1.812 . S
P96 C116 1.803 . S
P96 C122 1.819 . S
H97 C111 0.941 . S
H98 C112 0.939 . S
H99 C114 0.940 . S
H100 C115 0.940 . S
H101 C117 0.939 . S
H102 C118 0.942 . S
H103 C120 0.940 . S
H104 C121 0.939 . S
H105 C123 0.941 . S
H106 C127 0.939 . S
O107 P96 1.490 . S
H108 C124 0.939 . S
H109 C126 0.940 . S
C110 P96 1.812 . S
C110 C111 1.389 . S
C110 C115 1.391 . S
C111 H97 0.941 . S
C111 C110 1.389 . S
C111 C112 1.397 . S
C112 H98 0.939 . S
C112 C111 1.397 . S
C112 C113 1.378 . S
C113 C112 1.378 . S
C113 C114 1.378 . S
C114 H99 0.940 . S
C114 C113 1.378 . S
C114 C115 1.396 . S
C115 H100 0.940 . S
C115 C110 1.391 . S
C115 C114 1.396 . S
C116 P96 1.803 . S
C116 C117 1.378 . S
C116 C121 1.400 . S
C117 H101 0.939 . S
C117 C116 1.378 . S
C117 C118 1.361 . S
C118 H102 0.942 . S
C118 C117 1.361 . S
C118 C119 1.369 . S
C119 C118 1.369 . S
C119 C120 1.404 . S
C120 H103 0.940 . S
C120 C119 1.404 . S
C120 C121 1.389 . S
C121 H104 0.939 . S
C121 C116 1.400 . S
C121 C120 1.389 . S
C122 P96 1.819 . S
C122 C123 1.391 . S
C122 C127 1.391 . S
C123 H105 0.941 . S
C123 C122 1.391 . S
C123 C124 1.396 . S
C124 H108 0.939 . S
C124 C123 1.396 . S
C124 C125 1.397 . S
C125 C124 1.397 . S
C125 C126 1.385 . S
C126 H109 0.940 . S
C126 C125 1.385 . S
C126 C127 1.388 . S
C127 H106 0.939 . S
C127 C122 1.391 . S
C127 C126 1.388 . S
P128 O139 1.490 . S
P128 C142 1.812 . S
P128 C148 1.803 . S
P128 C154 1.819 . S
H129 C143 0.941 . S
H130 C144 0.939 . S
H131 C146 0.940 . S
H132 C147 0.940 . S
H133 C149 0.939 . S
H134 C150 0.942 . S
H135 C152 0.940 . S
H136 C153 0.939 . S
H137 C155 0.941 . S
H138 C159 0.939 . S
O139 P128 1.490 . S
H140 C156 0.939 . S
H141 C158 0.940 . S
C142 P128 1.812 . S
C142 C143 1.389 . S
C142 C147 1.391 . S
C143 H129 0.941 . S
C143 C142 1.389 . S
C143 C144 1.397 . S
C144 H130 0.939 . S
C144 C143 1.397 . S
C144 C145 1.378 . S
C145 C144 1.378 . S
C145 C146 1.378 . S
C146 H131 0.940 . S
C146 C145 1.378 . S
C146 C147 1.396 . S
C147 H132 0.940 . S
C147 C142 1.391 . S
C147 C146 1.396 . S
C148 P128 1.803 . S
C148 C149 1.378 . S
C148 C153 1.400 . S
C149 H133 0.939 . S
C149 C148 1.378 . S
C149 C150 1.361 . S
C150 H134 0.942 . S
C150 C149 1.361 . S
C150 C151 1.369 . S
C151 C150 1.369 . S
C151 C152 1.404 . S
C152 H135 0.940 . S
C152 C151 1.404 . S
C152 C153 1.389 . S
C153 H136 0.939 . S
C153 C148 1.400 . S
C153 C152 1.389 . S
C154 P128 1.819 . S
C154 C155 1.391 . S
C154 C159 1.391 . S
C155 H137 0.941 . S
C155 C154 1.391 . S
C155 C156 1.396 . S
C156 H140 0.939 . S
C156 C155 1.396 . S
C156 C157 1.397 . S
C157 C156 1.397 . S
C157 C158 1.385 . S
C158 H141 0.940 . S
C158 C157 1.385 . S
C158 C159 1.388 . S
C159 H138 0.939 . S
C159 C154 1.391 . S
C159 C158 1.388 . S
P160 O171 1.490 . S
P160 C174 1.812 . S
P160 C180 1.803 . S
P160 C186 1.819 . S
H161 C175 0.941 . S
H162 C176 0.939 . S
H163 C178 0.940 . S
H164 C179 0.940 . S
H165 C181 0.939 . S
H166 C182 0.942 . S
H167 C184 0.940 . S
H168 C185 0.939 . S
H169 C187 0.941 . S
H170 C191 0.939 . S
O171 P160 1.490 . S
H172 C188 0.939 . S
H173 C190 0.940 . S
C174 P160 1.812 . S
C174 C175 1.389 . S
C174 C179 1.391 . S
C175 H161 0.941 . S
C175 C174 1.389 . S
C175 C176 1.397 . S
C176 H162 0.939 . S
C176 C175 1.397 . S
C176 C177 1.378 . S
C177 C176 1.378 . S
C177 C178 1.378 . S
C178 H163 0.940 . S
C178 C177 1.378 . S
C178 C179 1.396 . S
C179 H164 0.940 . S
C179 C174 1.391 . S
C179 C178 1.396 . S
C180 P160 1.803 . S
C180 C181 1.378 . S
C180 C185 1.400 . S
C181 H165 0.939 . S
C181 C180 1.378 . S
C181 C182 1.361 . S
C182 H166 0.942 . S
C182 C181 1.361 . S
C182 C183 1.369 . S
C183 C182 1.369 . S
C183 C184 1.404 . S
C184 H167 0.940 . S
C184 C183 1.404 . S
C184 C185 1.389 . S
C185 H168 0.939 . S
C185 C180 1.400 . S
C185 C184 1.389 . S
C186 P160 1.819 . S
C186 C187 1.391 . S
C186 C191 1.391 . S
C187 H169 0.941 . S
C187 C186 1.391 . S
C187 C188 1.396 . S
C188 H172 0.939 . S
C188 C187 1.396 . S
C188 C189 1.397 . S
C189 C188 1.397 . S
C189 C190 1.385 . S
C190 H173 0.940 . S
C190 C189 1.385 . S
C190 C191 1.388 . S
C191 H170 0.939 . S
C191 C186 1.391 . S
C191 C190 1.388 . S
P192 O203 1.490 . S
P192 C206 1.812 . S
P192 C212 1.803 . S
P192 C218 1.819 . S
H193 C207 0.941 . S
H194 C208 0.939 . S
H195 C210 0.940 . S
H196 C211 0.940 . S
H197 C213 0.939 . S
H198 C214 0.942 . S
H199 C216 0.940 . S
H200 C217 0.939 . S
H201 C219 0.941 . S
H202 C223 0.939 . S
O203 P192 1.490 . S
H204 C220 0.939 . S
H205 C222 0.940 . S
C206 P192 1.812 . S
C206 C207 1.389 . S
C206 C211 1.391 . S
C207 H193 0.941 . S
C207 C206 1.389 . S
C207 C208 1.397 . S
C208 H194 0.939 . S
C208 C207 1.397 . S
C208 C209 1.378 . S
C209 C208 1.378 . S
C209 C210 1.378 . S
C210 H195 0.940 . S
C210 C209 1.378 . S
C210 C211 1.396 . S
C211 H196 0.940 . S
C211 C206 1.391 . S
C211 C210 1.396 . S
C212 P192 1.803 . S
C212 C213 1.378 . S
C212 C217 1.400 . S
C213 H197 0.939 . S
C213 C212 1.378 . S
C213 C214 1.361 . S
C214 H198 0.942 . S
C214 C213 1.361 . S
C214 C215 1.369 . S
C215 C214 1.369 . S
C215 C216 1.404 . S
C216 H199 0.940 . S
C216 C215 1.404 . S
C216 C217 1.389 . S
C217 H200 0.939 . S
C217 C212 1.400 . S
C217 C216 1.389 . S
C218 P192 1.819 . S
C218 C219 1.391 . S
C218 C223 1.391 . S
C219 H201 0.941 . S
C219 C218 1.391 . S
C219 C220 1.396 . S
C220 H204 0.939 . S
C220 C219 1.396 . S
C220 C221 1.397 . S
C221 C220 1.397 . S
C221 C222 1.385 . S
C222 H205 0.940 . S
C222 C221 1.385 . S
C222 C223 1.388 . S
C223 H202 0.939 . S
C223 C218 1.391 . S
C223 C222 1.388 . S
P224 O235 1.490 . S
P224 C238 1.812 . S
P224 C244 1.803 . S
P224 C250 1.819 . S
H225 C239 0.941 . S
H226 C240 0.939 . S
H227 C242 0.940 . S
H228 C243 0.940 . S
H229 C245 0.939 . S
H230 C246 0.942 . S
H231 C248 0.940 . S
H232 C249 0.939 . S
H233 C251 0.941 . S
H234 C255 0.939 . S
O235 P224 1.490 . S
H236 C252 0.939 . S
H237 C254 0.940 . S
C238 P224 1.812 . S
C238 C239 1.389 . S
C238 C243 1.391 . S
C239 H225 0.941 . S
C239 C238 1.389 . S
C239 C240 1.397 . S
C240 H226 0.939 . S
C240 C239 1.397 . S
C240 C241 1.378 . S
C241 C240 1.378 . S
C241 C242 1.378 . S
C242 H227 0.940 . S
C242 C241 1.378 . S
C242 C243 1.396 . S
C243 H228 0.940 . S
C243 C238 1.391 . S
C243 C242 1.396 . S
C244 P224 1.803 . S
C244 C245 1.378 . S
C244 C249 1.400 . S
C245 H229 0.939 . S
C245 C244 1.378 . S
C245 C246 1.361 . S
C246 H230 0.942 . S
C246 C245 1.361 . S
C246 C247 1.369 . S
C247 C246 1.369 . S
C247 C248 1.404 . S
C248 H231 0.940 . S
C248 C247 1.404 . S
C248 C249 1.389 . S
C249 H232 0.939 . S
C249 C244 1.400 . S
C249 C248 1.389 . S
C250 P224 1.819 . S
C250 C251 1.391 . S
C250 C255 1.391 . S
C251 H233 0.941 . S
C251 C250 1.391 . S
C251 C252 1.396 . S
C252 H236 0.939 . S
C252 C251 1.396 . S
C252 C253 1.397 . S
C253 C252 1.397 . S
C253 C254 1.385 . S
C254 H237 0.940 . S
C254 C253 1.385 . S
C254 C255 1.388 . S
C255 H234 0.939 . S
C255 C250 1.391 . S
C255 C254 1.388 . S
Tb256 C265 2.764 . S
Tb256 O266 2.325 1_455 S
Tb256 O269 2.303 . S
Tb256 O273 2.322 1_545 S
Tb256 O274 2.349 1_545 S
Tb256 O277 2.415 . S
Tb256 O278 2.399 . S
Tb257 O267 2.322 . S
Tb257 O268 2.349 . S
Tb257 O270 2.415 1_545 S
Tb257 O271 2.399 1_545 S
Tb257 O272 2.325 1_645 S
Tb257 O275 2.303 1_545 S
Tb257 C286 2.764 1_545 S
C258 O274 1.261 1_655 S
C258 O275 1.257 . S
C259 C262 1.358 . S
C259 C263 1.332 . S
C259 C265 1.504 . S
C260 C261 1.373 . S
C260 C264 1.308 . S
C261 C260 1.373 . S
C261 C262 1.429 . S
C261 H288 0.932 . S
C262 C259 1.358 . S
C262 C261 1.429 . S
C262 H289 0.930 . S
C263 C259 1.332 . S
C263 C264 1.394 . S
C263 H290 0.932 . S
C264 C260 1.308 . S
C264 C263 1.394 . S
C264 H291 0.929 . S
C265 Tb256 2.764 . S
C265 C259 1.504 . S
C265 O277 1.239 . S
C265 O278 1.263 . S
O266 Tb256 2.325 1_655 S
O266 C276 1.236 . S
O267 Tb257 2.322 . S
O267 C276 1.257 . S
O268 Tb257 2.349 . S
O268 C279 1.261 1_655 S
O269 Tb256 2.303 . S
O269 C279 1.257 . S
O270 Tb257 2.415 1_565 S
O270 C286 1.239 . S
O271 Tb257 2.399 1_565 S
O271 C286 1.263 . S
O272 Tb257 2.325 1_465 S
O272 C287 1.236 . S
O273 Tb256 2.322 1_565 S
O273 C287 1.257 . S
O274 Tb256 2.349 1_565 S
O274 C258 1.261 1_455 S
O275 Tb257 2.303 1_565 S
O275 C258 1.257 . S
C276 O266 1.236 . S
C276 O267 1.257 . S
O277 Tb256 2.415 . S
O277 C265 1.239 . S
O278 Tb256 2.399 . S
O278 C265 1.263 . S
C279 O268 1.261 1_455 S
C279 O269 1.257 . S
C280 C283 1.358 . S
C280 C284 1.332 . S
C280 C286 1.504 . S
C281 C282 1.373 . S
C281 C285 1.308 . S
C282 C281 1.373 . S
C282 C283 1.429 . S
C282 H292 0.932 . S
C283 C280 1.358 . S
C283 C282 1.429 . S
C283 H293 0.930 . S
C284 C280 1.332 . S
C284 C285 1.394 . S
C284 H294 0.932 . S
C285 C281 1.308 . S
C285 C284 1.394 . S
C285 H295 0.929 . S
C286 Tb257 2.764 1_565 S
C286 O270 1.239 . S
C286 O271 1.263 . S
C286 C280 1.504 . S
C287 O272 1.236 . S
C287 O273 1.257 . S
H288 C261 0.932 . S
H289 C262 0.930 . S
H290 C263 0.932 . S
H291 C264 0.929 . S
H292 C282 0.932 . S
H293 C283 0.930 . S
H294 C284 0.932 . S
H295 C285 0.929 . S
Tb296 C305 2.764 . S
Tb296 O306 2.325 . S
Tb296 O309 2.303 . S
Tb296 O313 2.322 1_545 S
Tb296 O314 2.349 1_545 S
Tb296 O317 2.415 . S
Tb296 O318 2.399 . S
Tb297 O307 2.322 . S
Tb297 O308 2.349 1_556 S
Tb297 O310 2.415 1_545 S
Tb297 O311 2.399 1_545 S
Tb297 O312 2.325 1_546 S
Tb297 O315 2.303 1_545 S
Tb297 C326 2.764 1_545 S
C298 O314 1.261 1_556 S
C298 O315 1.257 . S
C299 C302 1.358 . S
C299 C303 1.332 . S
C299 C305 1.504 . S
C300 C301 1.373 . S
C300 C304 1.308 . S
C301 C300 1.373 . S
C301 C302 1.429 . S
C301 H328 0.932 . S
C302 C299 1.358 . S
C302 C301 1.429 . S
C302 H329 0.930 . S
C303 C299 1.332 . S
C303 C304 1.394 . S
C303 H330 0.932 . S
C304 C300 1.308 . S
C304 C303 1.394 . S
C304 H331 0.929 . S
C305 Tb296 2.764 . S
C305 C299 1.504 . S
C305 O317 1.239 . S
C305 O318 1.263 . S
O306 Tb296 2.325 . S
O306 C316 1.236 1_554 S
O307 Tb297 2.322 . S
O307 C316 1.257 . S
O308 Tb297 2.349 1_554 S
O308 C319 1.261 . S
O309 Tb296 2.303 . S
O309 C319 1.257 . S
O310 Tb297 2.415 1_565 S
O310 C326 1.239 . S
O311 Tb297 2.399 1_565 S
O311 C326 1.263 . S
O312 Tb297 2.325 1_564 S
O312 C327 1.236 . S
O313 Tb296 2.322 1_565 S
O313 C327 1.257 . S
O314 Tb296 2.349 1_565 S
O314 C298 1.261 1_554 S
O315 Tb297 2.303 1_565 S
O315 C298 1.257 . S
C316 O306 1.236 1_556 S
C316 O307 1.257 . S
O317 Tb296 2.415 . S
O317 C305 1.239 . S
O318 Tb296 2.399 . S
O318 C305 1.263 . S
C319 O308 1.261 . S
C319 O309 1.257 . S
C320 C323 1.358 . S
C320 C324 1.332 . S
C320 C326 1.504 . S
C321 C322 1.373 . S
C321 C325 1.308 . S
C322 C321 1.373 . S
C322 C323 1.429 . S
C322 H332 0.932 . S
C323 C320 1.358 . S
C323 C322 1.429 . S
C323 H333 0.930 . S
C324 C320 1.332 . S
C324 C325 1.394 . S
C324 H334 0.932 . S
C325 C321 1.308 . S
C325 C324 1.394 . S
C325 H335 0.929 . S
C326 Tb297 2.764 1_565 S
C326 O310 1.239 . S
C326 O311 1.263 . S
C326 C320 1.504 . S
C327 O312 1.236 . S
C327 O313 1.257 . S
H328 C301 0.932 . S
H329 C302 0.930 . S
H330 C303 0.932 . S
H331 C304 0.929 . S
H332 C322 0.932 . S
H333 C323 0.930 . S
H334 C324 0.932 . S
H335 C325 0.929 . S
Tb336 C345 2.764 . S
Tb336 O346 2.325 . S
Tb336 O349 2.303 . S
Tb336 O353 2.322 . S
Tb336 O354 2.349 . S
Tb336 O357 2.415 . S
Tb336 O358 2.399 . S
Tb337 O347 2.322 . S
Tb337 O348 2.349 . S
Tb337 O350 2.415 . S
Tb337 O351 2.399 . S
Tb337 O352 2.325 . S
Tb337 O355 2.303 . S
Tb337 C366 2.764 . S
C338 O354 1.261 . S
C338 O355 1.257 . S
C339 C342 1.358 . S
C339 C343 1.332 . S
C339 C345 1.504 . S
C340 C341 1.373 . S
C340 C344 1.308 . S
C341 C340 1.373 . S
C341 C342 1.429 . S
C341 H368 0.932 . S
C342 C339 1.358 . S
C342 C341 1.429 . S
C342 H369 0.930 . S
C343 C339 1.332 . S
C343 C344 1.394 . S
C343 H370 0.932 . S
C344 C340 1.308 . S
C344 C343 1.394 . S
C344 H371 0.929 . S
C345 Tb336 2.764 . S
C345 C339 1.504 . S
C345 O357 1.239 . S
C345 O358 1.263 . S
O346 Tb336 2.325 . S
O346 C356 1.236 . S
O347 Tb337 2.322 . S
O347 C356 1.257 . S
O348 Tb337 2.349 . S
O348 C359 1.261 . S
O349 Tb336 2.303 . S
O349 C359 1.257 . S
O350 Tb337 2.415 . S
O350 C366 1.239 . S
O351 Tb337 2.399 . S
O351 C366 1.263 . S
O352 Tb337 2.325 . S
O352 C367 1.236 . S
O353 Tb336 2.322 . S
O353 C367 1.257 . S
O354 Tb336 2.349 . S
O354 C338 1.261 . S
O355 Tb337 2.303 . S
O355 C338 1.257 . S
C356 O346 1.236 . S
C356 O347 1.257 . S
O357 Tb336 2.415 . S
O357 C345 1.239 . S
O358 Tb336 2.399 . S
O358 C345 1.263 . S
C359 O348 1.261 . S
C359 O349 1.257 . S
C360 C363 1.358 . S
C360 C364 1.332 . S
C360 C366 1.504 . S
C361 C362 1.373 . S
C361 C365 1.308 . S
C362 C361 1.373 . S
C362 C363 1.429 . S
C362 H372 0.932 . S
C363 C360 1.358 . S
C363 C362 1.429 . S
C363 H373 0.930 . S
C364 C360 1.332 . S
C364 C365 1.394 . S
C364 H374 0.932 . S
C365 C361 1.308 . S
C365 C364 1.394 . S
C365 H375 0.929 . S
C366 Tb337 2.764 . S
C366 O350 1.239 . S
C366 O351 1.263 . S
C366 C360 1.504 . S
C367 O352 1.236 . S
C367 O353 1.257 . S
H368 C341 0.932 . S
H369 C342 0.930 . S
H370 C343 0.932 . S
H371 C344 0.929 . S
H372 C362 0.932 . S
H373 C363 0.930 . S
H374 C364 0.932 . S
H375 C365 0.929 . S
Tb376 C385 2.744 1_455 S
Tb376 O386 2.307 1_455 S
Tb376 O389 2.298 1_456 S
Tb376 O393 2.340 1_556 S
Tb376 O394 2.362 . S
Tb376 O397 2.392 1_455 S
Tb376 O398 2.386 1_455 S
Tb377 O387 2.322 1_455 S
Tb377 O388 2.349 1_455 S
Tb377 O390 2.415 . S
Tb377 O391 2.399 . S
Tb377 O392 2.325 . S
Tb377 O395 2.303 1_554 S
Tb377 C406 2.764 . S
C378 O394 1.261 . S
C378 O395 1.257 . S
C379 C382 1.358 . S
C379 C383 1.332 . S
C379 C385 1.504 . S
C380 C381 1.373 . S
C380 C384 1.308 . S
C381 C380 1.373 . S
C381 C382 1.429 . S
C381 H408 0.932 . S
C382 C379 1.358 . S
C382 C381 1.429 . S
C382 H409 0.930 . S
C383 C379 1.332 . S
C383 C384 1.394 . S
C383 H410 0.932 . S
C384 C380 1.308 . S
C384 C383 1.394 . S
C384 H411 0.929 . S
C385 Tb376 2.744 1_655 S
C385 C379 1.504 . S
C385 O397 1.239 . S
C385 O398 1.263 . S
O386 Tb376 2.307 1_655 S
O386 C396 1.236 . S
O387 Tb377 2.322 1_655 S
O387 C396 1.257 1_554 S
O388 Tb377 2.349 1_655 S
O388 C399 1.261 . S
O389 Tb376 2.298 1_654 S
O389 C399 1.257 . S
O390 Tb377 2.415 . S
O390 C406 1.239 . S
O391 Tb377 2.399 . S
O391 C406 1.263 . S
O392 Tb377 2.325 . S
O392 C407 1.236 . S
O393 Tb376 2.340 1_554 S
O393 C407 1.268 . S
O394 Tb376 2.362 . S
O394 C378 1.261 . S
O395 Tb377 2.303 1_556 S
O395 C378 1.257 . S
C396 O386 1.236 . S
C396 O387 1.257 1_556 S
O397 Tb376 2.392 1_655 S
O397 C385 1.239 . S
O398 Tb376 2.386 1_655 S
O398 C385 1.263 . S
C399 O388 1.261 . S
C399 O389 1.257 . S
C400 C403 1.358 . S
C400 C404 1.332 . S
C400 C406 1.504 . S
C401 C402 1.373 . S
C401 C405 1.308 . S
C402 C401 1.373 . S
C402 C403 1.429 . S
C402 H412 0.932 . S
C403 C400 1.358 . S
C403 C402 1.429 . S
C403 H413 0.930 . S
C404 C400 1.332 . S
C404 C405 1.394 . S
C404 H414 0.932 . S
C405 C401 1.308 . S
C405 C404 1.394 . S
C405 H415 0.929 . S
C406 Tb377 2.764 . S
C406 O390 1.239 . S
C406 O391 1.263 . S
C406 C400 1.504 . S
C407 O392 1.236 . S
C407 O393 1.268 . S
H408 C381 0.932 . S
H409 C382 0.930 . S
H410 C383 0.932 . S
H411 C384 0.929 . S
H412 C402 0.932 . S
H413 C403 0.930 . S
H414 C404 0.932 . S
H415 C405 0.929 . S
H416 C424 0.929 . S
H417 C426 0.930 . S
H418 C428 0.930 . S
H419 C431 0.929 . S
H420 C434 0.930 . S
H421 C436 0.960 . S
H422 C436 0.960 . S
H423 C436 0.960 . S
C424 H416 0.929 . S
C424 C425 1.377 . S
C424 C426 1.384 . S
C425 C424 1.377 . S
C425 C431 1.390 . S
C426 H417 0.930 . S
C426 C424 1.384 . S
C426 C427 1.372 . S
C427 C426 1.372 . S
C427 C428 1.400 . S
C427 C432 1.490 . S
C428 H418 0.930 . S
C428 C427 1.400 . S
C428 C431 1.386 . S
H429 C445 0.930 . S
H430 C446 0.931 . S
C431 H419 0.929 . S
C431 C425 1.390 . S
C431 C428 1.386 . S
C432 C427 1.490 . S
C432 C434 1.395 . S
C432 C435 1.403 . S
H433 C439 0.930 . S
C434 H420 0.930 . S
C434 C432 1.395 . S
C434 C437 1.403 . S
C435 C432 1.403 . S
C435 C436 1.524 . S
C435 C439 1.400 . S
C436 H421 0.960 . S
C436 H422 0.960 . S
C436 H423 0.960 . S
C436 C435 1.524 . S
C437 C434 1.403 . S
C437 C438 1.392 . S
C437 C441 1.495 . S
C438 C437 1.392 . S
C438 C439 1.385 . S
C438 C440 1.478 . S
C439 H433 0.930 . S
C439 C435 1.400 . S
C439 C438 1.385 . S
C440 C438 1.478 . S
C440 C442 1.381 . S
C440 C446 1.383 . S
C441 C437 1.495 . S
C441 H447 0.959 . S
C441 H448 0.961 . S
C441 H449 0.960 . S
C442 C440 1.381 . S
C442 C443 1.394 . S
C442 H450 0.930 . S
C443 C442 1.394 . S
C443 C444 1.383 . S
C443 H451 0.929 . S
C444 C443 1.383 . S
C444 C445 1.377 . S
C445 H429 0.930 . S
C445 C444 1.377 . S
C445 C446 1.379 . S
C446 H430 0.931 . S
C446 C440 1.383 . S
C446 C445 1.379 . S
H447 C441 0.959 . S
H448 C441 0.961 . S
H449 C441 0.960 . S
H450 C442 0.930 . S
H451 C443 0.929 . S
H452 C460 0.929 . S
H453 C462 0.930 . S
H454 C464 0.930 . S
H455 C467 0.929 . S
H456 C470 0.930 . S
H457 C472 0.960 . S
H458 C472 0.960 . S
H459 C472 0.960 . S
C460 H452 0.929 . S
C460 C461 1.377 . S
C460 C462 1.384 . S
C461 C460 1.377 . S
C461 C467 1.390 . S
C462 H453 0.930 . S
C462 C460 1.384 . S
C462 C463 1.372 . S
C463 C462 1.372 . S
C463 C464 1.400 . S
C463 C468 1.490 . S
C464 H454 0.930 . S
C464 C463 1.400 . S
C464 C467 1.386 . S
H465 C481 0.930 . S
H466 C482 0.931 . S
C467 H455 0.929 . S
C467 C461 1.390 . S
C467 C464 1.386 . S
C468 C463 1.490 . S
C468 C470 1.395 . S
C468 C471 1.403 . S
H469 C475 0.930 . S
C470 H456 0.930 . S
C470 C468 1.395 . S
C470 C473 1.403 . S
C471 C468 1.403 . S
C471 C472 1.524 . S
C471 C475 1.400 . S
C472 H457 0.960 . S
C472 H458 0.960 . S
C472 H459 0.960 . S
C472 C471 1.524 . S
C473 C470 1.403 . S
C473 C474 1.392 . S
C473 C477 1.495 . S
C474 C473 1.392 . S
C474 C475 1.385 . S
C474 C476 1.478 . S
C475 H469 0.930 . S
C475 C471 1.400 . S
C475 C474 1.385 . S
C476 C474 1.478 . S
C476 C478 1.381 . S
C476 C482 1.383 . S
C477 C473 1.495 . S
C477 H483 0.959 . S
C477 H484 0.961 . S
C477 H485 0.960 . S
C478 C476 1.381 . S
C478 C479 1.394 . S
C478 H486 0.930 . S
C479 C478 1.394 . S
C479 C480 1.383 . S
C479 H487 0.929 . S
C480 C479 1.383 . S
C480 C481 1.377 . S
C481 H465 0.930 . S
C481 C480 1.377 . S
C481 C482 1.379 . S
C482 H466 0.931 . S
C482 C476 1.383 . S
C482 C481 1.379 . S
H483 C477 0.959 . S
H484 C477 0.961 . S
H485 C477 0.960 . S
H486 C478 0.930 . S
H487 C479 0.929 . S
H488 C496 0.929 . S
H489 C498 0.930 . S
H490 C500 0.930 . S
H491 C503 0.929 . S
H492 C506 0.930 . S
H493 C508 0.960 . S
H494 C508 0.960 . S
H495 C508 0.960 . S
C496 H488 0.929 . S
C496 C497 1.377 . S
C496 C498 1.384 . S
C497 C496 1.377 . S
C497 C503 1.390 . S
C498 H489 0.930 . S
C498 C496 1.384 . S
C498 C499 1.372 . S
C499 C498 1.372 . S
C499 C500 1.400 . S
C499 C504 1.490 . S
C500 H490 0.930 . S
C500 C499 1.400 . S
C500 C503 1.386 . S
H501 C517 0.930 . S
H502 C518 0.931 . S
C503 H491 0.929 . S
C503 C497 1.390 . S
C503 C500 1.386 . S
C504 C499 1.490 . S
C504 C506 1.395 . S
C504 C507 1.403 . S
H505 C511 0.930 . S
C506 H492 0.930 . S
C506 C504 1.395 . S
C506 C509 1.403 . S
C507 C504 1.403 . S
C507 C508 1.524 . S
C507 C511 1.400 . S
C508 H493 0.960 . S
C508 H494 0.960 . S
C508 H495 0.960 . S
C508 C507 1.524 . S
C509 C506 1.403 . S
C509 C510 1.392 . S
C509 C513 1.495 . S
C510 C509 1.392 . S
C510 C511 1.385 . S
C510 C512 1.478 . S
C511 H505 0.930 . S
C511 C507 1.400 . S
C511 C510 1.385 . S
C512 C510 1.478 . S
C512 C514 1.381 . S
C512 C518 1.383 . S
C513 C509 1.495 . S
C513 H519 0.959 . S
C513 H520 0.961 . S
C513 H521 0.960 . S
C514 C512 1.381 . S
C514 C515 1.394 . S
C514 H522 0.930 . S
C515 C514 1.394 . S
C515 C516 1.383 . S
C515 H523 0.929 . S
C516 C515 1.383 . S
C516 C517 1.377 . S
C517 H501 0.930 . S
C517 C516 1.377 . S
C517 C518 1.379 . S
C518 H502 0.931 . S
C518 C512 1.383 . S
C518 C517 1.379 . S
H519 C513 0.959 . S
H520 C513 0.961 . S
H521 C513 0.960 . S
H522 C514 0.930 . S
H523 C515 0.929 . S
H524 C532 0.929 . S
H525 C534 0.930 . S
H526 C536 0.930 . S
H527 C539 0.929 . S
H528 C542 0.930 . S
H529 C544 0.960 . S
H530 C544 0.960 . S
H531 C544 0.960 . S
C532 H524 0.929 . S
C532 C533 1.377 . S
C532 C534 1.384 . S
C533 C532 1.377 . S
C533 C539 1.390 . S
C534 H525 0.930 . S
C534 C532 1.384 . S
C534 C535 1.372 . S
C535 C534 1.372 . S
C535 C536 1.400 . S
C535 C540 1.490 . S
C536 H526 0.930 . S
C536 C535 1.400 . S
C536 C539 1.386 . S
H537 C553 0.930 . S
H538 C554 0.931 . S
C539 H527 0.929 . S
C539 C533 1.390 . S
C539 C536 1.386 . S
C540 C535 1.490 . S
C540 C542 1.395 . S
C540 C543 1.403 . S
H541 C547 0.930 . S
C542 H528 0.930 . S
C542 C540 1.395 . S
C542 C545 1.403 . S
C543 C540 1.403 . S
C543 C544 1.524 . S
C543 C547 1.400 . S
C544 H529 0.960 . S
C544 H530 0.960 . S
C544 H531 0.960 . S
C544 C543 1.524 . S
C545 C542 1.403 . S
C545 C546 1.392 . S
C545 C549 1.495 . S
C546 C545 1.392 . S
C546 C547 1.385 . S
C546 C548 1.478 . S
C547 H541 0.930 . S
C547 C543 1.400 . S
C547 C546 1.385 . S
C548 C546 1.478 . S
C548 C550 1.381 . S
C548 C554 1.383 . S
C549 C545 1.495 . S
C549 H555 0.959 . S
C549 H556 0.961 . S
C549 H557 0.960 . S
C550 C548 1.381 . S
C550 C551 1.394 . S
C550 H558 0.930 . S
C551 C550 1.394 . S
C551 C552 1.383 . S
C551 H559 0.929 . S
C552 C551 1.383 . S
C552 C553 1.377 . S
C553 H537 0.930 . S
C553 C552 1.377 . S
C553 C554 1.379 . S
C554 H538 0.931 . S
C554 C548 1.383 . S
C554 C553 1.379 . S
H555 C549 0.959 . S
H556 C549 0.961 . S
H557 C549 0.960 . S
H558 C550 0.930 . S
H559 C551 0.929 . S
H560 C568 0.929 . S
H561 C570 0.930 . S
H562 C572 0.930 . S
H563 C575 0.929 . S
H564 C578 0.930 . S
H565 C580 0.960 . S
H566 C580 0.960 . S
H567 C580 0.960 . S
C568 H560 0.929 . S
C568 C569 1.377 . S
C568 C570 1.384 . S
C569 C568 1.377 . S
C569 C575 1.390 . S
C570 H561 0.930 . S
C570 C568 1.384 . S
C570 C571 1.372 . S
C571 C570 1.372 . S
C571 C572 1.400 . S
C571 C576 1.490 . S
C572 H562 0.930 . S
C572 C571 1.400 . S
C572 C575 1.386 . S
H573 C589 0.930 . S
H574 C590 0.931 . S
C575 H563 0.929 . S
C575 C569 1.390 . S
C575 C572 1.386 . S
C576 C571 1.490 . S
C576 C578 1.395 . S
C576 C579 1.403 . S
H577 C583 0.930 . S
C578 H564 0.930 . S
C578 C576 1.395 . S
C578 C581 1.403 . S
C579 C576 1.403 . S
C579 C580 1.524 . S
C579 C583 1.400 . S
C580 H565 0.960 . S
C580 H566 0.960 . S
C580 H567 0.960 . S
C580 C579 1.524 . S
C581 C578 1.403 . S
C581 C582 1.392 . S
C581 C585 1.495 . S
C582 C581 1.392 . S
C582 C583 1.385 . S
C582 C584 1.478 . S
C583 H577 0.930 . S
C583 C579 1.400 . S
C583 C582 1.385 . S
C584 C582 1.478 . S
C584 C586 1.381 . S
C584 C590 1.383 . S
C585 C581 1.495 . S
C585 H591 0.959 . S
C585 H592 0.961 . S
C585 H593 0.960 . S
C586 C584 1.381 . S
C586 C587 1.394 . S
C586 H594 0.930 . S
C587 C586 1.394 . S
C587 C588 1.383 . S
C587 H595 0.929 . S
C588 C587 1.383 . S
C588 C589 1.377 . S
C589 H573 0.930 . S
C589 C588 1.377 . S
C589 C590 1.379 . S
C590 H574 0.931 . S
C590 C584 1.383 . S
C590 C589 1.379 . S
H591 C585 0.959 . S
H592 C585 0.961 . S
H593 C585 0.960 . S
H594 C586 0.930 . S
H595 C587 0.929 . S
H596 C604 0.929 . S
H597 C606 0.930 . S
H598 C608 0.930 . S
H599 C611 0.929 . S
H600 C614 0.930 . S
H601 C616 0.960 . S
H602 C616 0.960 . S
H603 C616 0.960 . S
C604 H596 0.929 . S
C604 C605 1.377 . S
C604 C606 1.384 . S
C605 C604 1.377 . S
C605 C611 1.390 . S
C606 H597 0.930 . S
C606 C604 1.384 . S
C606 C607 1.372 . S
C607 C606 1.372 . S
C607 C608 1.400 . S
C607 C612 1.490 . S
C608 H598 0.930 . S
C608 C607 1.400 . S
C608 C611 1.386 . S
H609 C625 0.930 . S
H610 C626 0.931 . S
C611 H599 0.929 . S
C611 C605 1.390 . S
C611 C608 1.386 . S
C612 C607 1.490 . S
C612 C614 1.395 . S
C612 C615 1.403 . S
H613 C619 0.930 . S
C614 H600 0.930 . S
C614 C612 1.395 . S
C614 C617 1.403 . S
C615 C612 1.403 . S
C615 C616 1.524 . S
C615 C619 1.400 . S
C616 H601 0.960 . S
C616 H602 0.960 . S
C616 H603 0.960 . S
C616 C615 1.524 . S
C617 C614 1.403 . S
C617 C618 1.392 . S
C617 C621 1.495 . S
C618 C617 1.392 . S
C618 C619 1.385 . S
C618 C620 1.478 . S
C619 H613 0.930 . S
C619 C615 1.400 . S
C619 C618 1.385 . S
C620 C618 1.478 . S
C620 C622 1.381 . S
C620 C626 1.383 . S
C621 C617 1.495 . S
C621 H627 0.959 . S
C621 H628 0.961 . S
C621 H629 0.960 . S
C622 C620 1.381 . S
C622 C623 1.394 . S
C622 H630 0.930 . S
C623 C622 1.394 . S
C623 C624 1.383 . S
C623 H631 0.929 . S
C624 C623 1.383 . S
C624 C625 1.377 . S
C625 H609 0.930 . S
C625 C624 1.377 . S
C625 C626 1.379 . S
C626 H610 0.931 . S
C626 C620 1.383 . S
C626 C625 1.379 . S
H627 C621 0.959 . S
H628 C621 0.961 . S
H629 C621 0.960 . S
H630 C622 0.930 . S
H631 C623 0.929 . S
H632 C640 0.929 . S
H633 C642 0.930 . S
H634 C644 0.930 . S
H635 C647 0.929 . S
H636 C650 0.930 . S
H637 C652 0.960 . S
H638 C652 0.960 . S
H639 C652 0.960 . S
C640 H632 0.929 . S
C640 C641 1.377 . S
C640 C642 1.384 . S
C641 C640 1.377 . S
C641 C647 1.390 . S
C642 H633 0.930 . S
C642 C640 1.384 . S
C642 C643 1.372 . S
C643 C642 1.372 . S
C643 C644 1.400 . S
C643 C648 1.490 . S
C644 H634 0.930 . S
C644 C643 1.400 . S
C644 C647 1.386 . S
H645 C661 0.930 . S
H646 C662 0.931 . S
C647 H635 0.929 . S
C647 C641 1.390 . S
C647 C644 1.386 . S
C648 C643 1.490 . S
C648 C650 1.395 . S
C648 C651 1.403 . S
H649 C655 0.930 . S
C650 H636 0.930 . S
C650 C648 1.395 . S
C650 C653 1.403 . S
C651 C648 1.403 . S
C651 C652 1.524 . S
C651 C655 1.400 . S
C652 H637 0.960 . S
C652 H638 0.960 . S
C652 H639 0.960 . S
C652 C651 1.524 . S
C653 C650 1.403 . S
C653 C654 1.392 . S
C653 C657 1.495 . S
C654 C653 1.392 . S
C654 C655 1.385 . S
C654 C656 1.478 . S
C655 H649 0.930 . S
C655 C651 1.400 . S
C655 C654 1.385 . S
C656 C654 1.478 . S
C656 C658 1.381 . S
C656 C662 1.383 . S
C657 C653 1.495 . S
C657 H663 0.959 . S
C657 H664 0.961 . S
C657 H665 0.960 . S
C658 C656 1.381 . S
C658 C659 1.394 . S
C658 H666 0.930 . S
C659 C658 1.394 . S
C659 C660 1.383 . S
C659 H667 0.929 . S
C660 C659 1.383 . S
C660 C661 1.377 . S
C661 H645 0.930 . S
C661 C660 1.377 . S
C661 C662 1.379 . S
C662 H646 0.931 . S
C662 C656 1.383 . S
C662 C661 1.379 . S
H663 C657 0.959 . S
H664 C657 0.961 . S
H665 C657 0.960 . S
H666 C658 0.930 . S
H667 C659 0.929 . S
H668 C676 0.929 . S
H669 C678 0.930 . S
H670 C680 0.930 . S
H671 C683 0.929 . S
H672 C686 0.930 . S
H673 C688 0.960 . S
H674 C688 0.960 . S
H675 C688 0.960 . S
C676 H668 0.929 . S
C676 C677 1.377 . S
C676 C678 1.384 . S
C677 C676 1.377 . S
C677 C683 1.390 . S
C678 H669 0.930 . S
C678 C676 1.384 . S
C678 C679 1.372 . S
C679 C678 1.372 . S
C679 C680 1.400 . S
C679 C684 1.490 . S
C680 H670 0.930 . S
C680 C679 1.400 . S
C680 C683 1.386 . S
H681 C697 0.930 . S
H682 C698 0.931 . S
C683 H671 0.929 . S
C683 C677 1.390 . S
C683 C680 1.386 . S
C684 C679 1.490 . S
C684 C686 1.395 . S
C684 C687 1.403 . S
H685 C691 0.930 . S
C686 H672 0.930 . S
C686 C684 1.395 . S
C686 C689 1.403 . S
C687 C684 1.403 . S
C687 C688 1.524 . S
C687 C691 1.400 . S
C688 H673 0.960 . S
C688 H674 0.960 . S
C688 H675 0.960 . S
C688 C687 1.524 . S
C689 C686 1.403 . S
C689 C690 1.392 . S
C689 C693 1.495 . S
C690 C689 1.392 . S
C690 C691 1.385 . S
C690 C692 1.478 . S
C691 H685 0.930 . S
C691 C687 1.400 . S
C691 C690 1.385 . S
C692 C690 1.478 . S
C692 C694 1.381 . S
C692 C698 1.383 . S
C693 C689 1.495 . S
C693 H699 0.959 . S
C693 H700 0.961 . S
C693 H701 0.960 . S
C694 C692 1.381 . S
C694 C695 1.394 . S
C694 H702 0.930 . S
C695 C694 1.394 . S
C695 C696 1.383 . S
C695 H703 0.929 . S
C696 C695 1.383 . S
C696 C697 1.377 . S
C697 H681 0.930 . S
C697 C696 1.377 . S
C697 C698 1.379 . S
C698 H682 0.931 . S
C698 C692 1.383 . S
C698 C697 1.379 . S
H699 C693 0.959 . S
H700 C693 0.961 . S
H701 C693 0.960 . S
H702 C694 0.930 . S
H703 C695 0.929 . S
H704 C712 0.929 . S
H705 C714 0.930 . S
H706 C716 0.930 . S
H707 C719 0.929 . S
H708 C722 0.930 . S
H709 C724 0.960 . S
H710 C724 0.960 . S
H711 C724 0.960 . S
C712 H704 0.929 . S
C712 C713 1.377 . S
C712 C714 1.384 . S
C713 C712 1.377 . S
C713 C719 1.390 . S
C714 H705 0.930 . S
C714 C712 1.384 . S
C714 C715 1.372 . S
C715 C714 1.372 . S
C715 C716 1.400 . S
C715 C720 1.490 . S
C716 H706 0.930 . S
C716 C715 1.400 . S
C716 C719 1.386 . S
H717 C733 0.930 . S
H718 C734 0.931 . S
C719 H707 0.929 . S
C719 C713 1.390 . S
C719 C716 1.386 . S
C720 C715 1.490 . S
C720 C722 1.395 . S
C720 C723 1.403 . S
H721 C727 0.930 . S
C722 H708 0.930 . S
C722 C720 1.395 . S
C722 C725 1.403 . S
C723 C720 1.403 . S
C723 C724 1.524 . S
C723 C727 1.400 . S
C724 H709 0.960 . S
C724 H710 0.960 . S
C724 H711 0.960 . S
C724 C723 1.524 . S
C725 C722 1.403 . S
C725 C726 1.392 . S
C725 C729 1.495 . S
C726 C725 1.392 . S
C726 C727 1.385 . S
C726 C728 1.478 . S
C727 H721 0.930 . S
C727 C723 1.400 . S
C727 C726 1.385 . S
C728 C726 1.478 . S
C728 C730 1.381 . S
C728 C734 1.383 . S
C729 C725 1.495 . S
C729 H735 0.959 . S
C729 H736 0.961 . S
C729 H737 0.960 . S
C730 C728 1.381 . S
C730 C731 1.394 . S
C730 H738 0.930 . S
C731 C730 1.394 . S
C731 C732 1.383 . S
C731 H739 0.929 . S
C732 C731 1.383 . S
C732 C733 1.377 . S
C733 H717 0.930 . S
C733 C732 1.377 . S
C733 C734 1.379 . S
C734 H718 0.931 . S
C734 C728 1.383 . S
C734 C733 1.379 . S
H735 C729 0.959 . S
H736 C729 0.961 . S
H737 C729 0.960 . S
H738 C730 0.930 . S
H739 C731 0.929 . S
H740 C748 0.929 . S
H741 C750 0.930 . S
H742 C752 0.930 . S
H743 C755 0.929 . S
H744 C758 0.930 . S
H745 C760 0.960 . S
H746 C760 0.960 . S
H747 C760 0.960 . S
C748 H740 0.929 . S
C748 C749 1.377 . S
C748 C750 1.384 . S
C749 C748 1.377 . S
C749 C755 1.390 . S
C750 H741 0.930 . S
C750 C748 1.384 . S
C750 C751 1.372 . S
C751 C750 1.372 . S
C751 C752 1.400 . S
C751 C756 1.490 . S
C752 H742 0.930 . S
C752 C751 1.400 . S
C752 C755 1.386 . S
H753 C769 0.930 . S
H754 C770 0.931 . S
C755 H743 0.929 . S
C755 C749 1.390 . S
C755 C752 1.386 . S
C756 C751 1.490 . S
C756 C758 1.395 . S
C756 C759 1.403 . S
H757 C763 0.930 . S
C758 H744 0.930 . S
C758 C756 1.395 . S
C758 C761 1.403 . S
C759 C756 1.403 . S
C759 C760 1.524 . S
C759 C763 1.400 . S
C760 H745 0.960 . S
C760 H746 0.960 . S
C760 H747 0.960 . S
C760 C759 1.524 . S
C761 C758 1.403 . S
C761 C762 1.392 . S
C761 C765 1.495 . S
C762 C761 1.392 . S
C762 C763 1.385 . S
C762 C764 1.478 . S
C763 H757 0.930 . S
C763 C759 1.400 . S
C763 C762 1.385 . S
C764 C762 1.478 . S
C764 C766 1.381 . S
C764 C770 1.383 . S
C765 C761 1.495 . S
C765 H771 0.959 . S
C765 H772 0.961 . S
C765 H773 0.960 . S
C766 C764 1.381 . S
C766 C767 1.394 . S
C766 H774 0.930 . S
C767 C766 1.394 . S
C767 C768 1.383 . S
C767 H775 0.929 . S
C768 C767 1.383 . S
C768 C769 1.377 . S
C769 H753 0.930 . S
C769 C768 1.377 . S
C769 C770 1.379 . S
C770 H754 0.931 . S
C770 C764 1.383 . S
C770 C769 1.379 . S
H771 C765 0.959 . S
H772 C765 0.961 . S
H773 C765 0.960 . S
H774 C766 0.930 . S
H775 C767 0.929 . S
H776 C784 0.929 . S
H777 C786 0.930 . S
H778 C788 0.930 . S
H779 C791 0.929 . S
H780 C794 0.930 . S
H781 C796 0.960 . S
H782 C796 0.960 . S
H783 C796 0.960 . S
C784 H776 0.929 . S
C784 C785 1.377 . S
C784 C786 1.384 . S
C785 C784 1.377 . S
C785 C791 1.390 . S
C786 H777 0.930 . S
C786 C784 1.384 . S
C786 C787 1.372 . S
C787 C786 1.372 . S
C787 C788 1.400 . S
C787 C792 1.490 . S
C788 H778 0.930 . S
C788 C787 1.400 . S
C788 C791 1.386 . S
H789 C805 0.930 . S
H790 C806 0.931 . S
C791 H779 0.929 . S
C791 C785 1.390 . S
C791 C788 1.386 . S
C792 C787 1.490 . S
C792 C794 1.395 . S
C792 C795 1.403 . S
H793 C799 0.930 . S
C794 H780 0.930 . S
C794 C792 1.395 . S
C794 C797 1.403 . S
C795 C792 1.403 . S
C795 C796 1.524 . S
C795 C799 1.400 . S
C796 H781 0.960 . S
C796 H782 0.960 . S
C796 H783 0.960 . S
C796 C795 1.524 . S
C797 C794 1.403 . S
C797 C798 1.392 . S
C797 C801 1.495 . S
C798 C797 1.392 . S
C798 C799 1.385 . S
C798 C800 1.478 . S
C799 H793 0.930 . S
C799 C795 1.400 . S
C799 C798 1.385 . S
C800 C798 1.478 . S
C800 C802 1.381 . S
C800 C806 1.383 . S
C801 C797 1.495 . S
C801 H807 0.959 . S
C801 H808 0.961 . S
C801 H809 0.982 . S
C802 C800 1.381 . S
C802 C803 1.394 . S
C802 H810 0.930 . S
C803 C802 1.394 . S
C803 C804 1.383 . S
C803 H811 0.929 . S
C804 C803 1.383 . S
C804 C805 1.377 . S
C805 H789 0.930 . S
C805 C804 1.377 . S
C805 C806 1.379 . S
C806 H790 0.931 . S
C806 C800 1.383 . S
C806 C805 1.379 . S
H807 C801 0.959 . S
H808 C801 0.961 . S
H809 C801 0.982 . S
H810 C802 0.930 . S
H811 C803 0.929 . S
H812 C820 0.929 . S
H813 C822 0.930 . S
H814 C824 0.930 . S
H815 C827 0.929 . S
H816 C830 0.930 . S
H817 C832 0.960 . S
H818 C832 0.960 . S
H819 C832 0.960 . S
C820 H812 0.929 . S
C820 C821 1.377 . S
C820 C822 1.384 . S
C821 C820 1.377 . S
C821 C827 1.390 . S
C822 H813 0.930 . S
C822 C820 1.384 . S
C822 C823 1.372 . S
C823 C822 1.372 . S
C823 C824 1.400 . S
C823 C828 1.490 . S
C824 H814 0.930 . S
C824 C823 1.400 . S
C824 C827 1.386 . S
H825 C841 0.930 . S
H826 C842 0.931 . S
C827 H815 0.929 . S
C827 C821 1.390 . S
C827 C824 1.386 . S
C828 C823 1.490 . S
C828 C830 1.395 . S
C828 C831 1.403 . S
H829 C835 0.930 . S
C830 H816 0.930 . S
C830 C828 1.395 . S
C830 C833 1.403 . S
C831 C828 1.403 . S
C831 C832 1.524 . S
C831 C835 1.400 . S
C832 H817 0.960 . S
C832 H818 0.960 . S
C832 H819 0.960 . S
C832 C831 1.524 . S
C833 C830 1.403 . S
C833 C834 1.392 . S
C833 C837 1.495 . S
C834 C833 1.392 . S
C834 C835 1.385 . S
C834 C836 1.478 . S
C835 H829 0.930 . S
C835 C831 1.400 . S
C835 C834 1.385 . S
C836 C834 1.478 . S
C836 C838 1.381 . S
C836 C842 1.383 . S
C837 C833 1.495 . S
C837 H843 0.959 . S
C837 H844 0.961 . S
C837 H845 0.960 . S
C838 C836 1.381 . S
C838 C839 1.394 . S
C838 H846 0.930 . S
C839 C838 1.394 . S
C839 C840 1.383 . S
C839 H847 0.929 . S
C840 C839 1.383 . S
C840 C841 1.377 . S
C841 H825 0.930 . S
C841 C840 1.377 . S
C841 C842 1.379 . S
C842 H826 0.931 . S
C842 C836 1.383 . S
C842 C841 1.379 . S
H843 C837 0.959 . S
H844 C837 0.961 . S
H845 C837 0.960 . S
H846 C838 0.930 . S
H847 C839 0.929 . S
H848 C856 0.929 . S
H849 C858 0.930 . S
H850 C860 0.930 . S
H851 C863 0.929 . S
H852 C866 0.930 . S
H853 C868 0.960 . S
H854 C868 0.960 . S
H855 C868 0.960 . S
C856 H848 0.929 . S
C856 C857 1.377 . S
C856 C858 1.384 . S
C857 C856 1.377 . S
C857 C863 1.390 . S
C858 H849 0.930 . S
C858 C856 1.384 . S
C858 C859 1.372 . S
C859 C858 1.372 . S
C859 C860 1.400 . S
C859 C864 1.490 . S
C860 H850 0.930 . S
C860 C859 1.400 . S
C860 C863 1.386 . S
H861 C877 0.930 . S
H862 C878 0.931 . S
C863 H851 0.929 . S
C863 C857 1.390 . S
C863 C860 1.386 . S
C864 C859 1.490 . S
C864 C866 1.395 . S
C864 C867 1.403 . S
H865 C871 0.930 . S
C866 H852 0.930 . S
C866 C864 1.395 . S
C866 C869 1.403 . S
C867 C864 1.403 . S
C867 C868 1.524 . S
C867 C871 1.400 . S
C868 H853 0.960 . S
C868 H854 0.960 . S
C868 H855 0.960 . S
C868 C867 1.524 . S
C869 C866 1.403 . S
C869 C870 1.392 . S
C869 C873 1.495 . S
C870 C869 1.392 . S
C870 C871 1.385 . S
C870 C872 1.478 . S
C871 H865 0.930 . S
C871 C867 1.400 . S
C871 C870 1.385 . S
C872 C870 1.478 . S
C872 C874 1.381 . S
C872 C878 1.383 . S
C873 C869 1.495 . S
C873 H879 0.959 . S
C873 H880 0.961 . S
C873 H881 0.960 . S
C874 C872 1.381 . S
C874 C875 1.394 . S
C874 H882 0.930 . S
C875 C874 1.394 . S
C875 C876 1.383 . S
C875 H883 0.929 . S
C876 C875 1.383 . S
C876 C877 1.377 . S
C877 H861 0.930 . S
C877 C876 1.377 . S
C877 C878 1.379 . S
C878 H862 0.931 . S
C878 C872 1.383 . S
C878 C877 1.379 . S
H879 C873 0.959 . S
H880 C873 0.961 . S
H881 C873 0.960 . S
H882 C874 0.930 . S
H883 C875 0.929 . S
H884 C892 0.929 . S
H885 C894 0.930 . S
H886 C896 0.930 . S
H887 C899 0.929 . S
H888 C902 0.930 . S
H889 C904 0.960 . S
H890 C904 0.960 . S
H891 C904 0.960 . S
C892 H884 0.929 . S
C892 C893 1.377 . S
C892 C894 1.384 . S
C893 C892 1.377 . S
C893 C899 1.390 . S
C894 H885 0.930 . S
C894 C892 1.384 . S
C894 C895 1.372 . S
C895 C894 1.372 . S
C895 C896 1.400 . S
C895 C900 1.490 . S
C896 H886 0.930 . S
C896 C895 1.400 . S
C896 C899 1.386 . S
H897 C913 0.930 . S
H898 C914 0.931 . S
C899 H887 0.929 . S
C899 C893 1.390 . S
C899 C896 1.386 . S
C900 C895 1.490 . S
C900 C902 1.395 . S
C900 C903 1.403 . S
H901 C907 0.930 . S
C902 H888 0.930 . S
C902 C900 1.395 . S
C902 C905 1.403 . S
C903 C900 1.403 . S
C903 C904 1.524 . S
C903 C907 1.400 . S
C904 H889 0.960 . S
C904 H890 0.960 . S
C904 H891 0.960 . S
C904 C903 1.524 . S
C905 C902 1.403 . S
C905 C906 1.392 . S
C905 C909 1.495 . S
C906 C905 1.392 . S
C906 C907 1.385 . S
C906 C908 1.478 . S
C907 H901 0.930 . S
C907 C903 1.400 . S
C907 C906 1.385 . S
C908 C906 1.478 . S
C908 C910 1.381 . S
C908 C914 1.383 . S
C909 C905 1.495 . S
C909 H915 0.959 . S
C909 H916 0.961 . S
C909 H917 0.960 . S
C910 C908 1.381 . S
C910 C911 1.394 . S
C910 H918 0.930 . S
C911 C910 1.394 . S
C911 C912 1.383 . S
C911 H919 0.929 . S
C912 C911 1.383 . S
C912 C913 1.377 . S
C913 H897 0.930 . S
C913 C912 1.377 . S
C913 C914 1.379 . S
C914 H898 0.931 . S
C914 C908 1.383 . S
C914 C913 1.379 . S
H915 C909 0.959 . S
H916 C909 0.961 . S
H917 C909 0.960 . S
H918 C910 0.930 . S
H919 C911 0.929 . S
H920 C928 0.929 . S
H921 C930 0.930 . S
H922 C932 0.930 . S
H923 C935 0.929 . S
H924 C938 0.930 . S
H925 C940 0.960 . S
H926 C940 0.960 . S
H927 C940 0.960 . S
C928 H920 0.929 . S
C928 C929 1.377 . S
C928 C930 1.384 . S
C929 C928 1.377 . S
C929 C935 1.390 . S
C930 H921 0.930 . S
C930 C928 1.384 . S
C930 C931 1.372 . S
C931 C930 1.372 . S
C931 C932 1.400 . S
C931 C936 1.490 . S
C932 H922 0.930 . S
C932 C931 1.400 . S
C932 C935 1.386 . S
H933 C949 0.930 . S
H934 C950 0.931 . S
C935 H923 0.929 . S
C935 C929 1.390 . S
C935 C932 1.386 . S
C936 C931 1.490 . S
C936 C938 1.395 . S
C936 C939 1.403 . S
H937 C943 0.930 . S
C938 H924 0.930 . S
C938 C936 1.395 . S
C938 C941 1.403 . S
C939 C936 1.403 . S
C939 C940 1.524 . S
C939 C943 1.400 . S
C940 H925 0.960 . S
C940 H926 0.960 . S
C940 H927 0.960 . S
C940 C939 1.524 . S
C941 C938 1.403 . S
C941 C942 1.392 . S
C941 C945 1.495 . S
C942 C941 1.392 . S
C942 C943 1.385 . S
C942 C944 1.478 . S
C943 H937 0.930 . S
C943 C939 1.400 . S
C943 C942 1.385 . S
C944 C942 1.478 . S
C944 C946 1.381 . S
C944 C950 1.383 . S
C945 C941 1.495 . S
C945 H951 0.959 . S
C945 H952 0.961 . S
C945 H953 0.960 . S
C946 C944 1.381 . S
C946 C947 1.394 . S
C946 H954 0.930 . S
C947 C946 1.394 . S
C947 C948 1.383 . S
C947 H955 0.929 . S
C948 C947 1.383 . S
C948 C949 1.377 . S
C949 H933 0.930 . S
C949 C948 1.377 . S
C949 C950 1.379 . S
C950 H934 0.931 . S
C950 C944 1.383 . S
C950 C949 1.379 . S
H951 C945 0.959 . S
H952 C945 0.961 . S
H953 C945 0.960 . S
H954 C946 0.930 . S
H955 C947 0.929 . S
H956 C964 0.929 . S
H957 C966 0.930 . S
H958 C968 0.930 . S
H959 C971 0.929 . S
H960 C974 0.930 . S
H961 C976 0.960 . S
H962 C976 0.960 . S
H963 C976 0.960 . S
C964 H956 0.929 . S
C964 C965 1.377 . S
C964 C966 1.384 . S
C965 C964 1.377 . S
C965 C971 1.390 . S
C966 H957 0.930 . S
C966 C964 1.384 . S
C966 C967 1.372 . S
C967 C966 1.372 . S
C967 C968 1.400 . S
C967 C972 1.490 . S
C968 H958 0.930 . S
C968 C967 1.400 . S
C968 C971 1.386 . S
H969 C985 0.930 . S
H970 C986 0.931 . S
C971 H959 0.929 . S
C971 C965 1.390 . S
C971 C968 1.386 . S
C972 C967 1.490 . S
C972 C974 1.395 . S
C972 C975 1.403 . S
H973 C979 0.930 . S
C974 H960 0.930 . S
C974 C972 1.395 . S
C974 C977 1.403 . S
C975 C972 1.403 . S
C975 C976 1.524 . S
C975 C979 1.400 . S
C976 H961 0.960 . S
C976 H962 0.960 . S
C976 H963 0.960 . S
C976 C975 1.524 . S
C977 C974 1.403 . S
C977 C978 1.392 . S
C977 C981 1.495 . S
C978 C977 1.392 . S
C978 C979 1.385 . S
C978 C980 1.478 . S
C979 H973 0.930 . S
C979 C975 1.400 . S
C979 C978 1.385 . S
C980 C978 1.478 . S
C980 C982 1.381 . S
C980 C986 1.383 . S
C981 C977 1.495 . S
C981 H987 0.959 . S
C981 H988 0.961 . S
C981 H989 0.960 . S
C982 C980 1.381 . S
C982 C983 1.394 . S
C982 H990 0.930 . S
C983 C982 1.394 . S
C983 C984 1.383 . S
C983 H991 0.929 . S
C984 C983 1.383 . S
C984 C985 1.377 . S
C985 H969 0.930 . S
C985 C984 1.377 . S
C985 C986 1.379 . S
C986 H970 0.931 . S
C986 C980 1.383 . S
C986 C985 1.379 . S
H987 C981 0.959 . S
H988 C981 0.961 . S
H989 C981 0.960 . S
H990 C982 0.930 . S
H991 C983 0.929 . S
H992 C1000 0.929 . S
H993 C1002 0.930 . S
H994 C1004 0.930 . S
H995 C1007 0.929 . S
H996 C1010 0.930 . S
H997 C1012 0.960 . S
H998 C1012 0.960 . S
H999 C1012 0.960 . S
C1000 H992 0.929 . S
C1000 C1001 1.377 . S
C1000 C1002 1.384 . S
C1001 C1000 1.377 . S
C1001 C1007 1.390 . S
C1002 H993 0.930 . S
C1002 C1000 1.384 . S
C1002 C1003 1.372 . S
C1003 C1002 1.372 . S
C1003 C1004 1.400 . S
C1003 C1008 1.490 . S
C1004 H994 0.930 . S
C1004 C1003 1.400 . S
C1004 C1007 1.386 . S
H1005 C1021 0.930 . S
H1006 C1022 0.931 . S
C1007 H995 0.929 . S
C1007 C1001 1.390 . S
C1007 C1004 1.386 . S
C1008 C1003 1.490 . S
C1008 C1010 1.395 . S
C1008 C1011 1.403 . S
H1009 C1015 0.930 . S
C1010 H996 0.930 . S
C1010 C1008 1.395 . S
C1010 C1013 1.403 . S
C1011 C1008 1.403 . S
C1011 C1012 1.524 . S
C1011 C1015 1.400 . S
C1012 H997 0.960 . S
C1012 H998 0.960 . S
C1012 H999 0.960 . S
C1012 C1011 1.524 . S
C1013 C1010 1.403 . S
C1013 C1014 1.392 . S
C1013 C1017 1.495 . S
C1014 C1013 1.392 . S
C1014 C1015 1.385 . S
C1014 C1016 1.478 . S
C1015 H1009 0.930 . S
C1015 C1011 1.400 . S
C1015 C1014 1.385 . S
C1016 C1014 1.478 . S
C1016 C1018 1.381 . S
C1016 C1022 1.383 . S
C1017 C1013 1.495 . S
C1017 H1023 0.959 . S
C1017 H1024 0.961 . S
C1017 H1025 0.960 . S
C1018 C1016 1.381 . S
C1018 C1019 1.394 . S
C1018 H1026 0.930 . S
C1019 C1018 1.394 . S
C1019 C1020 1.383 . S
C1019 H1027 0.929 . S
C1020 C1019 1.383 . S
C1020 C1021 1.377 . S
C1021 H1005 0.930 . S
C1021 C1020 1.377 . S
C1021 C1022 1.379 . S
C1022 H1006 0.931 . S
C1022 C1016 1.383 . S
C1022 C1021 1.379 . S
H1023 C1017 0.959 . S
H1024 C1017 0.961 . S
H1025 C1017 0.960 . S
H1026 C1018 0.930 . S
H1027 C1019 0.929 . S
H1028 C1036 0.929 . S
H1029 C1038 0.930 . S
H1030 C1040 0.930 . S
H1031 C1043 0.929 . S
H1032 C1046 0.930 . S
H1033 C1048 0.960 . S
H1034 C1048 0.960 . S
H1035 C1048 0.960 . S
C1036 H1028 0.929 . S
C1036 C1037 1.377 . S
C1036 C1038 1.384 . S
C1037 C1036 1.377 . S
C1037 C1043 1.390 . S
C1038 H1029 0.930 . S
C1038 C1036 1.384 . S
C1038 C1039 1.372 . S
C1039 C1038 1.372 . S
C1039 C1040 1.400 . S
C1039 C1044 1.490 . S
C1040 H1030 0.930 . S
C1040 C1039 1.400 . S
C1040 C1043 1.386 . S
H1041 C1057 0.930 . S
H1042 C1058 0.931 . S
C1043 H1031 0.929 . S
C1043 C1037 1.390 . S
C1043 C1040 1.386 . S
C1044 C1039 1.490 . S
C1044 C1046 1.395 . S
C1044 C1047 1.403 . S
H1045 C1051 0.930 . S
C1046 H1032 0.930 . S
C1046 C1044 1.395 . S
C1046 C1049 1.403 . S
C1047 C1044 1.403 . S
C1047 C1048 1.524 . S
C1047 C1051 1.400 . S
C1048 H1033 0.960 . S
C1048 H1034 0.960 . S
C1048 H1035 0.960 . S
C1048 C1047 1.524 . S
C1049 C1046 1.403 . S
C1049 C1050 1.392 . S
C1049 C1053 1.495 . S
C1050 C1049 1.392 . S
C1050 C1051 1.385 . S
C1050 C1052 1.478 . S
C1051 H1045 0.930 . S
C1051 C1047 1.400 . S
C1051 C1050 1.385 . S
C1052 C1050 1.478 . S
C1052 C1054 1.381 . S
C1052 C1058 1.383 . S
C1053 C1049 1.495 . S
C1053 H1059 0.959 . S
C1053 H1060 0.961 . S
C1053 H1061 0.960 . S
C1054 C1052 1.381 . S
C1054 C1055 1.394 . S
C1054 H1062 0.930 . S
C1055 C1054 1.394 . S
C1055 C1056 1.383 . S
C1055 H1063 0.929 . S
C1056 C1055 1.383 . S
C1056 C1057 1.377 . S
C1057 H1041 0.930 . S
C1057 C1056 1.377 . S
C1057 C1058 1.379 . S
C1058 H1042 0.931 . S
C1058 C1052 1.383 . S
C1058 C1057 1.379 . S
H1059 C1053 0.959 . S
H1060 C1053 0.961 . S
H1061 C1053 0.960 . S
H1062 C1054 0.930 . S
H1063 C1055 0.929 . S
H1064 C1072 0.929 . S
H1065 C1074 0.930 . S
H1066 C1076 0.930 . S
H1067 C1079 0.929 . S
H1068 C1082 0.930 . S
H1069 C1084 0.960 . S
H1070 C1084 0.960 . S
H1071 C1084 0.960 . S
C1072 H1064 0.929 . S
C1072 C1073 1.377 . S
C1072 C1074 1.384 . S
C1073 C1072 1.377 . S
C1073 C1079 1.390 . S
C1074 H1065 0.930 . S
C1074 C1072 1.384 . S
C1074 C1075 1.372 . S
C1075 C1074 1.372 . S
C1075 C1076 1.400 . S
C1075 C1080 1.490 . S
C1076 H1066 0.930 . S
C1076 C1075 1.400 . S
C1076 C1079 1.386 . S
H1077 C1093 0.930 . S
H1078 C1094 0.931 . S
C1079 H1067 0.929 . S
C1079 C1073 1.390 . S
C1079 C1076 1.386 . S
C1080 C1075 1.490 . S
C1080 C1082 1.395 . S
C1080 C1083 1.403 . S
H1081 C1087 0.930 . S
C1082 H1068 0.930 . S
C1082 C1080 1.395 . S
C1082 C1085 1.403 . S
C1083 C1080 1.403 . S
C1083 C1084 1.524 . S
C1083 C1087 1.400 . S
C1084 H1069 0.960 . S
C1084 H1070 0.960 . S
C1084 H1071 0.960 . S
C1084 C1083 1.524 . S
C1085 C1082 1.403 . S
C1085 C1086 1.392 . S
C1085 C1089 1.495 . S
C1086 C1085 1.392 . S
C1086 C1087 1.385 . S
C1086 C1088 1.478 . S
C1087 H1081 0.930 . S
C1087 C1083 1.400 . S
C1087 C1086 1.385 . S
C1088 C1086 1.478 . S
C1088 C1090 1.381 . S
C1088 C1094 1.383 . S
C1089 C1085 1.495 . S
C1089 H1095 0.959 . S
C1089 H1096 0.961 . S
C1089 H1097 0.960 . S
C1090 C1088 1.381 . S
C1090 C1091 1.394 . S
C1090 H1098 0.930 . S
C1091 C1090 1.394 . S
C1091 C1092 1.383 . S
C1091 H1099 0.929 1_554 S
C1092 C1091 1.383 . S
C1092 C1093 1.377 . S
C1093 H1077 0.930 . S
C1093 C1092 1.377 . S
C1093 C1094 1.379 . S
C1094 H1078 0.931 . S
C1094 C1088 1.383 . S
C1094 C1093 1.379 . S
H1095 C1089 0.959 . S
H1096 C1089 0.961 . S
H1097 C1089 0.960 . S
H1098 C1090 0.930 . S
H1099 C1091 0.929 1_556 S
H1100 C1108 0.929 . S
H1101 C1110 0.930 . S
H1102 C1112 0.930 . S
H1103 C1115 0.929 . S
H1104 C1118 0.930 . S
H1105 C1120 0.960 . S
H1106 C1120 0.960 . S
H1107 C1120 0.960 . S
C1108 H1100 0.929 . S
C1108 C1109 1.377 . S
C1108 C1110 1.384 . S
C1109 C1108 1.377 . S
C1109 C1115 1.390 . S
C1110 H1101 0.930 . S
C1110 C1108 1.384 . S
C1110 C1111 1.372 . S
C1111 C1110 1.372 . S
C1111 C1112 1.400 . S
C1111 C1116 1.490 . S
C1112 H1102 0.930 . S
C1112 C1111 1.400 . S
C1112 C1115 1.386 . S
H1113 C1129 0.930 . S
H1114 C1130 0.931 . S
C1115 H1103 0.929 . S
C1115 C1109 1.390 . S
C1115 C1112 1.386 . S
C1116 C1111 1.490 . S
C1116 C1118 1.395 . S
C1116 C1119 1.403 . S
H1117 C1123 0.930 . S
C1118 H1104 0.930 . S
C1118 C1116 1.395 . S
C1118 C1121 1.403 . S
C1119 C1116 1.403 . S
C1119 C1120 1.524 . S
C1119 C1123 1.400 . S
C1120 H1105 0.960 . S
C1120 H1106 0.960 . S
C1120 H1107 0.960 . S
C1120 C1119 1.524 . S
C1121 C1118 1.403 . S
C1121 C1122 1.392 . S
C1121 C1125 1.495 . S
C1122 C1121 1.392 . S
C1122 C1123 1.385 . S
C1122 C1124 1.478 . S
C1123 H1117 0.930 . S
C1123 C1119 1.400 . S
C1123 C1122 1.385 . S
C1124 C1122 1.478 . S
C1124 C1126 1.381 . S
C1124 C1130 1.383 . S
C1125 C1121 1.495 . S
C1125 H1131 0.959 . S
C1125 H1132 0.961 . S
C1125 H1133 0.960 . S
C1126 C1124 1.381 . S
C1126 C1127 1.394 . S
C1126 H1134 0.930 . S
C1127 C1126 1.394 . S
C1127 C1128 1.383 . S
C1127 H1135 0.929 . S
C1128 C1127 1.383 . S
C1128 C1129 1.377 . S
C1129 H1113 0.930 . S
C1129 C1128 1.377 . S
C1129 C1130 1.379 . S
C1130 H1114 0.931 . S
C1130 C1124 1.383 . S
C1130 C1129 1.379 . S
H1131 C1125 0.959 . S
H1132 C1125 0.961 . S
H1133 C1125 0.960 . S
H1134 C1126 0.930 . S
H1135 C1127 0.929 . S
H1136 C1144 0.929 . S
H1137 C1146 0.930 . S
H1138 C1148 0.930 . S
H1139 C1151 0.929 . S
H1140 C1154 0.930 . S
H1141 C1156 0.960 . S
H1142 C1156 0.960 . S
H1143 C1156 0.960 . S
C1144 H1136 0.929 . S
C1144 C1145 1.377 . S
C1144 C1146 1.384 . S
C1145 C1144 1.377 . S
C1145 C1151 1.390 . S
C1146 H1137 0.930 . S
C1146 C1144 1.384 . S
C1146 C1147 1.372 . S
C1147 C1146 1.372 . S
C1147 C1148 1.400 . S
C1147 C1152 1.490 . S
C1148 H1138 0.930 . S
C1148 C1147 1.400 . S
C1148 C1151 1.386 . S
H1149 C1165 0.930 . S
H1150 C1166 0.931 . S
C1151 H1139 0.929 . S
C1151 C1145 1.390 . S
C1151 C1148 1.386 . S
C1152 C1147 1.490 . S
C1152 C1154 1.395 . S
C1152 C1155 1.403 . S
H1153 C1159 0.930 . S
C1154 H1140 0.930 . S
C1154 C1152 1.395 . S
C1154 C1157 1.403 . S
C1155 C1152 1.403 . S
C1155 C1156 1.524 . S
C1155 C1159 1.400 . S
C1156 H1141 0.960 . S
C1156 H1142 0.960 . S
C1156 H1143 0.960 . S
C1156 C1155 1.524 . S
C1157 C1154 1.403 . S
C1157 C1158 1.392 . S
C1157 C1161 1.495 . S
C1158 C1157 1.392 . S
C1158 C1159 1.385 . S
C1158 C1160 1.478 . S
C1159 H1153 0.930 . S
C1159 C1155 1.400 . S
C1159 C1158 1.385 . S
C1160 C1158 1.478 . S
C1160 C1162 1.381 . S
C1160 C1166 1.383 . S
C1161 C1157 1.495 . S
C1161 H1167 0.959 . S
C1161 H1168 0.961 . S
C1161 H1169 0.960 . S
C1162 C1160 1.381 . S
C1162 C1163 1.394 . S
C1162 H1170 0.930 . S
C1163 C1162 1.394 . S
C1163 C1164 1.383 . S
C1163 H1171 0.929 . S
C1164 C1163 1.383 . S
C1164 C1165 1.377 . S
C1165 H1149 0.930 . S
C1165 C1164 1.377 . S
C1165 C1166 1.379 . S
C1166 H1150 0.931 . S
C1166 C1160 1.383 . S
C1166 C1165 1.379 . S
H1167 C1161 0.959 . S
H1168 C1161 0.961 . S
H1169 C1161 0.960 . S
H1170 C1162 0.930 . S
H1171 C1163 0.929 . S
H1172 C1180 0.929 . S
H1173 C1182 0.930 . S
H1174 C1184 0.930 . S
H1175 C1187 0.929 . S
H1176 C1190 0.930 . S
H1177 C1192 0.960 . S
H1178 C1192 0.960 . S
H1179 C1192 0.960 . S
C1180 H1172 0.929 . S
C1180 C1181 1.377 . S
C1180 C1182 1.384 . S
C1181 C1180 1.377 . S
C1181 C1187 1.390 . S
C1182 H1173 0.930 . S
C1182 C1180 1.384 . S
C1182 C1183 1.372 . S
C1183 C1182 1.372 . S
C1183 C1184 1.400 . S
C1183 C1188 1.490 . S
C1184 H1174 0.930 . S
C1184 C1183 1.400 . S
C1184 C1187 1.386 . S
H1185 C1201 0.930 . S
H1186 C1202 0.931 . S
C1187 H1175 0.929 . S
C1187 C1181 1.390 . S
C1187 C1184 1.386 . S
C1188 C1183 1.490 . S
C1188 C1190 1.395 . S
C1188 C1191 1.403 . S
H1189 C1195 0.930 . S
C1190 H1176 0.930 . S
C1190 C1188 1.395 . S
C1190 C1193 1.403 . S
C1191 C1188 1.403 . S
C1191 C1192 1.524 . S
C1191 C1195 1.400 . S
C1192 H1177 0.960 . S
C1192 H1178 0.960 . S
C1192 H1179 0.960 . S
C1192 C1191 1.524 . S
C1193 C1190 1.403 . S
C1193 C1194 1.392 . S
C1193 C1197 1.495 . S
C1194 C1193 1.392 . S
C1194 C1195 1.385 . S
C1194 C1196 1.478 . S
C1195 H1189 0.930 . S
C1195 C1191 1.400 . S
C1195 C1194 1.385 . S
C1196 C1194 1.478 . S
C1196 C1198 1.381 . S
C1196 C1202 1.383 . S
C1197 C1193 1.495 . S
C1197 H1203 0.959 . S
C1197 H1204 0.961 . S
C1197 H1205 0.960 . S
C1198 C1196 1.381 . S
C1198 C1199 1.394 . S
C1198 H1206 0.930 . S
C1199 C1198 1.394 . S
C1199 C1200 1.383 . S
C1199 H1207 0.929 . S
C1200 C1199 1.383 . S
C1200 C1201 1.377 . S
C1201 H1185 0.930 . S
C1201 C1200 1.377 . S
C1201 C1202 1.379 . S
C1202 H1186 0.931 . S
C1202 C1196 1.383 . S
C1202 C1201 1.379 . S
H1203 C1197 0.959 . S
H1204 C1197 0.961 . S
H1205 C1197 0.960 . S
H1206 C1198 0.930 . S
H1207 C1199 0.929 . S
H1208 C1216 0.929 . S
H1209 C1218 0.930 . S
H1210 C1220 0.930 . S
H1211 C1223 0.929 . S
H1212 C1226 0.930 . S
H1213 C1228 0.960 . S
H1214 C1228 0.960 . S
H1215 C1228 0.960 . S
C1216 H1208 0.929 . S
C1216 C1217 1.377 . S
C1216 C1218 1.384 . S
C1217 C1216 1.377 . S
C1217 C1223 1.390 . S
C1218 H1209 0.930 . S
C1218 C1216 1.384 . S
C1218 C1219 1.372 . S
C1219 C1218 1.372 . S
C1219 C1220 1.400 . S
C1219 C1224 1.490 . S
C1220 H1210 0.930 . S
C1220 C1219 1.400 . S
C1220 C1223 1.386 . S
H1221 C1237 0.930 . S
H1222 C1238 0.931 . S
C1223 H1211 0.929 . S
C1223 C1217 1.390 . S
C1223 C1220 1.386 . S
C1224 C1219 1.490 . S
C1224 C1226 1.395 . S
C1224 C1227 1.403 . S
H1225 C1231 0.930 . S
C1226 H1212 0.930 . S
C1226 C1224 1.395 . S
C1226 C1229 1.403 . S
C1227 C1224 1.403 . S
C1227 C1228 1.524 . S
C1227 C1231 1.400 . S
C1228 H1213 0.960 . S
C1228 H1214 0.960 . S
C1228 H1215 0.960 . S
C1228 C1227 1.524 . S
C1229 C1226 1.403 . S
C1229 C1230 1.392 . S
C1229 C1233 1.495 . S
C1230 C1229 1.392 . S
C1230 C1231 1.385 . S
C1230 C1232 1.478 . S
C1231 H1225 0.930 . S
C1231 C1227 1.400 . S
C1231 C1230 1.385 . S
C1232 C1230 1.478 . S
C1232 C1234 1.381 . S
C1232 C1238 1.383 . S
C1233 C1229 1.495 . S
C1233 H1239 0.959 . S
C1233 H1240 0.961 . S
C1233 H1241 0.960 . S
C1234 C1232 1.381 . S
C1234 C1235 1.394 . S
C1234 H1242 0.930 . S
C1235 C1234 1.394 . S
C1235 C1236 1.383 . S
C1235 H1243 0.929 . S
C1236 C1235 1.383 . S
C1236 C1237 1.377 . S
C1237 H1221 0.930 . S
C1237 C1236 1.377 . S
C1237 C1238 1.379 . S
C1238 H1222 0.931 . S
C1238 C1232 1.383 . S
C1238 C1237 1.379 . S
H1239 C1233 0.959 . S
H1240 C1233 0.961 . S
H1241 C1233 0.960 . S
H1242 C1234 0.930 . S
H1243 C1235 0.929 . S
H1244 C1252 0.929 . S
H1245 C1254 0.930 . S
H1246 C1256 0.930 . S
H1247 C1259 0.929 . S
H1248 C1262 0.930 . S
H1249 C1264 0.960 . S
H1250 C1264 0.960 . S
H1251 C1264 0.960 . S
C1252 H1244 0.929 . S
C1252 C1253 1.377 . S
C1252 C1254 1.384 . S
C1253 C1252 1.377 . S
C1253 C1259 1.390 . S
C1254 H1245 0.930 . S
C1254 C1252 1.384 . S
C1254 C1255 1.372 . S
C1255 C1254 1.372 . S
C1255 C1256 1.400 . S
C1255 C1260 1.490 . S
C1256 H1246 0.930 . S
C1256 C1255 1.400 . S
C1256 C1259 1.386 . S
H1257 C1273 0.930 . S
H1258 C1274 0.931 . S
C1259 H1247 0.929 . S
C1259 C1253 1.390 . S
C1259 C1256 1.386 . S
C1260 C1255 1.490 . S
C1260 C1262 1.395 . S
C1260 C1263 1.403 . S
H1261 C1267 0.930 . S
C1262 H1248 0.930 . S
C1262 C1260 1.395 . S
C1262 C1265 1.403 . S
C1263 C1260 1.403 . S
C1263 C1264 1.524 . S
C1263 C1267 1.400 . S
C1264 H1249 0.960 . S
C1264 H1250 0.960 . S
C1264 H1251 0.960 . S
C1264 C1263 1.524 . S
C1265 C1262 1.403 . S
C1265 C1266 1.392 . S
C1265 C1269 1.495 . S
C1266 C1265 1.392 . S
C1266 C1267 1.385 . S
C1266 C1268 1.478 . S
C1267 H1261 0.930 . S
C1267 C1263 1.400 . S
C1267 C1266 1.385 . S
C1268 C1266 1.478 . S
C1268 C1270 1.381 . S
C1268 C1274 1.383 . S
C1269 C1265 1.495 . S
C1269 H1275 0.959 . S
C1269 H1276 0.961 . S
C1269 H1277 0.960 . S
C1270 C1268 1.381 . S
C1270 C1271 1.394 . S
C1270 H1278 0.930 . S
C1271 C1270 1.394 . S
C1271 C1272 1.383 . S
C1271 H1279 0.929 . S
C1272 C1271 1.383 . S
C1272 C1273 1.377 . S
C1273 H1257 0.930 . S
C1273 C1272 1.377 . S
C1273 C1274 1.379 . S
C1274 H1258 0.931 . S
C1274 C1268 1.383 . S
C1274 C1273 1.379 . S
H1275 C1269 0.959 . S
H1276 C1269 0.961 . S
H1277 C1269 0.960 . S
H1278 C1270 0.930 . S
H1279 C1271 0.929 . S
C425 C29 0.861 . S
C444 C260 0.838 . S
C461 C49 1.059 . S
C480 C321 1.134 . S
C516 C359 2.527 . S
C497 C93 2.519 . S
C533 C119 2.184 . S
C552 C399 2.179 . S
C588 C319 1.163 . S
C569 C17 1.162 . S
C624 C287 2.068 . S
C605 C61 1.880 . S
C660 C396 1.656 . S
C641 C81 1.633 . S
C696 C356 1.860 . S
C677 C125 1.824 . S
C713 C23 0.930 . S
C732 C401 0.942 . S
C768 C316 2.347 . S
C749 C87 2.297 . S
C785 C113 2.142 . S
C804 C258 2.132 . S
C821 C55 1.318 . S
C840 C361 1.456 . S
C876 C281 0.820 . S
C857 C157 0.819 . S
C893 C189 1.183 . S
C912 C300 1.177 . S
C929 C221 2.539 . S
C948 C338 2.480 . S
C965 C253 2.247 . S
C984 C378 2.258 . S
C1001 C145 1.195 . S
C1020 C298 1.244 . S
C1056 C276 2.015 . S
C1037 C183 2.015 . S
C1092 C407 1.726 . S
C1073 C209 1.708 . S
C1128 C367 1.801 . S
C1109 C247 1.765 . S
C1145 C151 0.932 . S
C1164 C380 0.968 . S
C1200 C327 2.347 . S
C1181 C215 2.333 . S
C1236 C279 2.088 . S
C1217 C241 2.084 . S
C1253 C177 1.456 . S
C1272 C340 1.458 . S
