# Generated by pormake.
# Topology ssb, (4,4)-cn, num edge types: 1
# Building blocks:
#     Node 0, Type 0, BuildingBlock: GIZVER_clean_linker_0, # of connection points: 4
#     Node 1, Type 0, BuildingBlock: GIZVER_clean_linker_0, # of connection points: 4
#     Node 2, Type 0, BuildingBlock: GIZVER_clean_linker_0, # of connection points: 4
#     Node 3, Type 0, BuildingBlock: GIZVER_clean_linker_0, # of connection points: 4
#     Node 4, Type 0, BuildingBlock: GIZVER_clean_linker_0, # of connection points: 4
#     Node 5, Type 0, BuildingBlock: GIZVER_clean_linker_0, # of connection points: 4
#     Node 6, Type 0, BuildingBlock: GIZVER_clean_linker_0, # of connection points: 4
#     Node 7, Type 0, BuildingBlock: GIZVER_clean_linker_0, # of connection points: 4
#     Node 8, Type 1, BuildingBlock: NAWXER_clean_sbu_0, # of connection points: 4
#     Node 9, Type 1, BuildingBlock: NAWXER_clean_sbu_0, # of connection points: 4
#     Node 10, Type 1, BuildingBlock: NAWXER_clean_sbu_0, # of connection points: 4
#     Node 11, Type 1, BuildingBlock: NAWXER_clean_sbu_0, # of connection points: 4
#     Node 12, Type 1, BuildingBlock: NAWXER_clean_sbu_0, # of connection points: 4
#     Node 13, Type 1, BuildingBlock: NAWXER_clean_sbu_0, # of connection points: 4
#     Node 14, Type 1, BuildingBlock: NAWXER_clean_sbu_0, # of connection points: 4
#     Node 15, Type 1, BuildingBlock: NAWXER_clean_sbu_0, # of connection points: 4
#     Edge 16, Type (0, 1), None
#     Edge 17, Type (0, 1), None
#     Edge 18, Type (0, 1), None
#     Edge 19, Type (0, 1), None
#     Edge 20, Type (0, 1), None
#     Edge 21, Type (0, 1), None
#     Edge 22, Type (0, 1), None
#     Edge 23, Type (0, 1), None
#     Edge 24, Type (0, 1), None
#     Edge 25, Type (0, 1), None
#     Edge 26, Type (0, 1), None
#     Edge 27, Type (0, 1), None
#     Edge 28, Type (0, 1), None
#     Edge 29, Type (0, 1), None
#     Edge 30, Type (0, 1), None
#     Edge 31, Type (0, 1), None
#     Edge 32, Type (0, 1), None
#     Edge 33, Type (0, 1), None
#     Edge 34, Type (0, 1), None
#     Edge 35, Type (0, 1), None
#     Edge 36, Type (0, 1), None
#     Edge 37, Type (0, 1), None
#     Edge 38, Type (0, 1), None
#     Edge 39, Type (0, 1), None
#     Edge 40, Type (0, 1), None
#     Edge 41, Type (0, 1), None
#     Edge 42, Type (0, 1), None
#     Edge 43, Type (0, 1), None
#     Edge 44, Type (0, 1), None
#     Edge 45, Type (0, 1), None
#     Edge 46, Type (0, 1), None
#     Edge 47, Type (0, 1), None
# Relax obj value: 0.000
# Max RMSD: 0.031
# Mean RMSD: 0.016
data_MOF--net-ssb--node1-NAWXER_clean_sbu_0--node2-GIZVER_clean_linker_0--edge1-none
_symmetry_space_group_name_H-M    P1
_symmetry_Int_Tables_number       1
_symmetry_cell_setting            triclinic
loop_
_symmetry_equiv_pos_as_xyz
'x, y, z'
_cell_length_a     21.726062
_cell_length_b     20.689968
_cell_length_c     17.217565
_cell_angle_alpha  94.008239
_cell_angle_beta   89.028876
_cell_angle_gamma 85.198475
loop_
_atom_site_label
_atom_site_type_symbol
_atom_site_fract_x
_atom_site_fract_y
_atom_site_fract_z
_atom_type_partial_charge
H0 H 0.28729 0.14952 0.35089 0.0
H1 H 0.14146 0.30322 0.34302 0.0
H2 H 0.181 0.21709 0.55744 0.0
H3 H 0.24571 0.17944 0.22771 0.0
H4 H 0.17687 0.233 0.22648 0.0
H5 H 0.34757 0.22079 0.22697 0.0
H6 H 0.36123 0.42032 0.18747 0.0
H7 H 0.18164 0.34795 0.20286 0.0
C8 C 0.25454 0.18511 0.38168 0.0
C9 C 0.24183 0.17983 0.46129 0.0
C10 C 0.21903 0.23059 0.33921 0.0
C11 C 0.172 0.2728 0.37715 0.0
C12 C 0.15797 0.26863 0.45593 0.0
C13 C 0.19506 0.22407 0.49803 0.0
C14 C 0.22381 0.2275 0.25137 0.0
C15 C 0.26083 0.28076 0.22604 0.0
C16 C 0.32574 0.26907 0.22018 0.0
C17 C 0.36218 0.319 0.2034 0.0
C18 C 0.33242 0.38132 0.19755 0.0
C19 C 0.26744 0.39179 0.18907 0.0
C20 C 0.23146 0.34128 0.20658 0.0
H21 H 0.8987 0.22205 0.28396 0.0
H22 H 0.72908 0.1293 0.28506 0.0
H23 H 0.79692 0.21628 0.49717 0.0
H24 H 0.8695 0.16563 0.16969 0.0
H25 H 0.80842 0.11369 0.17441 0.0
H26 H 0.8477 0.28138 0.13002 0.0
H27 H 0.68092 0.31356 1.00197 0.0
H28 H 0.70152 0.15271 0.14503 0.0
C29 C 0.85641 0.21286 0.31407 0.0
C30 C 0.85242 0.22319 0.39502 0.0
C31 C 0.80922 0.18395 0.27279 0.0
C32 C 0.75931 0.16146 0.31482 0.0
C33 C 0.75461 0.17181 0.39669 0.0
C34 C 0.7977 0.21079 0.4339 0.0
C35 C 0.81996 0.16475 0.18675 0.0
C36 C 0.78144 0.20835 0.13632 0.0
C37 C 0.80396 0.26589 0.1098 0.0
C38 C 0.76763 0.30505 0.06131 0.0
C39 C 0.71004 0.28374 1.03857 0.0
C40 C 0.68416 0.23184 0.07209 0.0
C41 C 0.72084 0.19297 0.11904 0.0
H42 H 0.8071 0.68797 0.41295 0.0
H43 H 0.7061 0.87227 0.39275 0.0
H44 H 0.90327 0.85791 0.38283 0.0
H45 H 0.69286 0.70949 0.44019 0.0
H46 H 0.65128 0.7807 0.40952 0.0
H47 H 0.74772 0.62748 0.32847 0.0
H48 H 0.62448 0.59744 0.14078 0.0
H49 H 0.59458 0.77013 0.29191 0.0
C50 C 0.8068 0.7377 0.39701 0.0
C51 C 0.86184 0.76841 0.39894 0.0
C52 C 0.75022 0.77441 0.38591 0.0
C53 C 0.7499 0.84296 0.3875 0.0
C54 C 0.80564 0.87354 0.39369 0.0
C55 C 0.86049 0.83429 0.38164 0.0
C56 C 0.68974 0.74318 0.39254 0.0
C57 C 0.67389 0.70443 0.31868 0.0
C58 C 0.70824 0.64473 0.29595 0.0
C59 C 0.68947 0.60624 0.23224 0.0
C60 C 0.63731 0.62671 0.19181 0.0
C61 C 0.60231 0.68399 0.21267 0.0
C62 C 0.62122 0.72443 0.27558 0.0
H63 H 0.08676 0.7952 0.29593 0.0
H64 H 0.21097 0.94534 0.29347 0.0
H65 H 0.04 0.97929 0.42161 0.0
H66 H 0.14113 0.8119 0.16783 0.0
H67 H 0.18324 0.88124 0.15997 0.0
H68 H 0.19296 0.71 0.18965 0.0
H69 H 0.38806 0.69177 0.21727 0.0
H70 H 0.29282 0.88015 0.19256 0.0
C71 C 0.09643 0.84493 0.3114 0.0
C72 C 0.06158 0.88273 0.37095 0.0
C73 C 0.14606 0.87201 0.27459 0.0
C74 C 0.16638 0.9299 0.30968 0.0
C75 C 0.13044 0.96414 0.37064 0.0
C76 C 0.07016 0.94851 0.38091 0.0
C77 C 0.17482 0.84172 0.19847 0.0
C78 C 0.23523 0.80073 0.20703 0.0
C79 C 0.23584 0.73205 0.20019 0.0
C80 C 0.29221 0.69261 0.19626 0.0
C81 C 0.34532 0.72278 0.2154 0.0
C82 C 0.34786 0.78939 0.20177 0.0
C83 C 0.29219 0.82921 0.20322 0.0
H84 H 0.39879 0.72213 0.78392 0.0
H85 H 0.22915 0.62941 0.78502 0.0
H86 H 0.29702 0.71634 0.99715 0.0
H87 H 0.36958 0.66574 0.66966 0.0
H88 H 0.3085 0.6138 0.67436 0.0
H89 H 0.34777 0.78155 0.6301 0.0
H90 H 0.18105 0.81369 0.50191 0.0
H91 H 0.20164 0.65279 0.64488 0.0
C92 C 0.3565 0.71295 0.81404 0.0
C93 C 0.35252 0.72325 0.89499 0.0
C94 C 0.3093 0.68405 0.77275 0.0
C95 C 0.25939 0.66157 0.81478 0.0
C96 C 0.25469 0.67191 0.89666 0.0
C97 C 0.2978 0.71086 0.93387 0.0
C98 C 0.32004 0.66485 0.68671 0.0
C99 C 0.28153 0.70847 0.63628 0.0
C100 C 0.30405 0.76604 0.60983 0.0
C101 C 0.26773 0.8052 0.56133 0.0
C102 C 0.21016 0.78387 0.53852 0.0
C103 C 0.18429 0.73194 0.57198 0.0
C104 C 0.22096 0.69307 0.61894 0.0
H105 H 0.30693 0.18805 0.91317 0.0
H106 H 0.20602 0.37238 0.8928 0.0
H107 H 0.40319 0.35792 0.88295 0.0
H108 H 0.19267 0.20962 0.9403 0.0
H109 H 0.15114 0.28084 0.90957 0.0
H110 H 0.24762 0.12762 0.82856 0.0
H111 H 0.12439 0.09751 0.64088 0.0
H112 H 0.09442 0.2702 0.792 0.0
C113 C 0.30665 0.23778 0.8972 0.0
C114 C 0.36171 0.26845 0.89911 0.0
C115 C 0.2501 0.27449 0.88604 0.0
C116 C 0.24981 0.34304 0.88759 0.0
C117 C 0.30556 0.3736 0.89378 0.0
C118 C 0.3604 0.33432 0.88177 0.0
C119 C 0.1896 0.2433 0.89263 0.0
C120 C 0.17376 0.20453 0.81878 0.0
C121 C 0.20813 0.14484 0.79605 0.0
C122 C 0.18938 0.10634 0.73235 0.0
C123 C 0.13721 0.12678 0.69191 0.0
C124 C 0.10218 0.18405 0.71277 0.0
C125 C 0.12108 0.22451 0.77567 0.0
H126 H 0.58661 0.29509 0.79606 0.0
H127 H 0.71085 0.44519 0.79339 0.0
H128 H 0.53993 0.47923 0.92165 0.0
H129 H 0.64095 0.31167 0.66792 0.0
H130 H 0.68304 0.38102 0.65995 0.0
H131 H 0.69286 0.20981 0.68967 0.0
H132 H 0.88795 0.19169 0.71733 0.0
H133 H 0.79262 0.38003 0.69261 0.0
C134 C 0.59629 0.34482 0.81149 0.0
C135 C 0.56148 0.38264 0.87104 0.0
C136 C 0.64591 0.37186 0.77462 0.0
C137 C 0.66626 0.42976 0.80965 0.0
C138 C 0.63035 0.46404 0.87062 0.0
C139 C 0.57008 0.44842 0.88095 0.0
C140 C 0.67465 0.34153 0.6985 0.0
C141 C 0.73507 0.30058 0.70707 0.0
C142 C 0.73572 0.23189 0.70021 0.0
C143 C 0.79211 0.19248 0.6963 0.0
C144 C 0.8452 0.22269 0.71545 0.0
C145 C 0.8477 0.2893 0.70183 0.0
C146 C 0.79201 0.32909 0.70327 0.0
H147 H 0.78739 0.64929 0.85076 0.0
H148 H 0.64161 0.80304 0.84285 0.0
H149 H 0.68113 0.71696 0.0573 0.0
H150 H 0.74587 0.67923 0.72756 0.0
H151 H 0.67701 0.73276 0.72632 0.0
H152 H 0.84771 0.72062 0.72677 0.0
H153 H 0.86128 0.92018 0.68737 0.0
H154 H 0.68173 0.84773 0.70275 0.0
C155 C 0.75465 0.6849 0.88153 0.0
C156 C 0.74194 0.67964 0.96115 0.0
C157 C 0.71915 0.73038 0.83906 0.0
C158 C 0.67214 0.77262 0.87699 0.0
C159 C 0.65812 0.76848 0.95578 0.0
C160 C 0.69518 0.72391 0.99788 0.0
C161 C 0.72395 0.72729 0.75121 0.0
C162 C 0.76095 0.78056 0.72589 0.0
C163 C 0.82586 0.7689 0.72001 0.0
C164 C 0.86228 0.81885 0.70324 0.0
C165 C 0.8325 0.88116 0.69744 0.0
C166 C 0.76751 0.89161 0.68896 0.0
C167 C 0.73155 0.84108 0.70645 0.0
C168 C 0.90157 0.30169 0.65225 0.0
C169 C 0.09277 0.28305 0.48318 0.0
O170 O 0.9226 0.35624 0.63983 0.0
Zn171 Zn 0.98909 0.31291 0.56026 0.0
O172 O 0.92543 0.25078 0.61517 0.0
Zn173 Zn 0.98803 0.20469 0.54202 0.0
O174 O 0.02739 0.15583 0.6194 0.0
O175 O 0.0406 0.2601 0.64394 0.0
O176 O 0.06433 0.23302 0.49174 0.0
O177 O 0.06696 0.33926 0.50619 0.0
O178 O 0.92602 0.28013 0.47065 0.0
O179 O 0.93581 0.17252 0.46167 0.0
C180 C 0.05117 0.20104 0.66042 0.0
C181 C 0.90954 0.22568 0.44082 0.0
C182 C 0.79753 0.12743 0.65056 0.0
C183 C 0.80666 0.93848 0.4382 0.0
O184 O 0.84966 0.10039 0.62348 0.0
Zn185 Zn 0.82599 0.03154 0.54375 0.0
O186 O 0.74788 0.10559 0.6251 0.0
Zn187 Zn 0.71345 0.03593 0.5465 0.0
O188 O 0.69015 0.96742 0.62578 0.0
O189 O 0.78883 0.97497 0.61304 0.0
O190 O 0.75506 0.96486 0.46591 0.0
O191 O 0.85683 0.96023 0.46373 0.0
O192 O 0.78592 0.09017 0.47314 0.0
O193 O 0.68519 0.10319 0.46586 0.0
C194 C 0.74547 0.9493 0.64496 0.0
C195 C 0.73884 0.11744 0.44365 0.0
C196 C 0.92689 0.80571 0.67103 0.0
C197 C 0.03359 0.85412 0.43786 0.0
O198 O 0.95779 0.85432 0.66321 0.0
Zn199 Zn -0.00242 0.8268 0.56566 0.0
O200 O 0.94162 0.75303 0.62774 0.0
Zn201 Zn 0.00464 0.72699 0.52477 0.0
O202 O 0.08776 0.68161 0.54928 0.0
O203 O 0.08547 0.78649 0.58032 0.0
O204 O 0.03585 0.79232 0.44093 0.0
O205 O 0.01513 0.89089 0.49782 0.0
O206 O 0.92713 0.79627 0.49655 0.0
O207 O 0.94278 0.6937 0.44957 0.0
C208 C 0.11597 0.73131 0.57047 0.0
C209 C 0.91138 0.74907 0.45206 0.0
C210 C 0.21978 0.04382 0.70195 0.0
C211 C 0.15954 0.98845 0.44228 0.0
O212 O 0.26474 0.04684 0.65342 0.0
Zn213 Zn 0.28463 1.00076 0.53639 0.0
O214 O 0.18074 1.00343 0.68545 0.0
Zn215 Zn 0.19166 1.00396 0.57452 0.0
O216 O 0.22432 0.91141 0.56062 0.0
O217 O 0.32419 0.9046 0.54612 0.0
O218 O 0.12678 0.99903 0.50506 0.0
O219 O 0.21861 0.98471 0.44571 0.0
O220 O 0.30921 0.08057 0.48373 0.0
O221 O 0.21538 0.09454 0.53593 0.0
C222 C 0.27454 0.87628 0.55402 0.0
C223 C 0.25895 0.11715 0.49837 0.0
C224 C 0.40174 0.80174 0.15218 0.0
C225 C 0.59292 0.78295 0.98304 0.0
O226 O 0.4228 0.85627 0.13974 0.0
Zn227 Zn 0.48927 0.81289 0.06017 0.0
O228 O 0.42557 0.75082 0.1151 0.0
Zn229 Zn 0.48814 0.70468 1.04196 0.0
O230 O 0.52748 0.65581 0.11933 0.0
O231 O 0.54076 0.76006 0.14384 0.0
O232 O 0.56445 0.73294 0.99163 0.0
O233 O 0.56715 0.83917 1.00606 0.0
O234 O 0.42617 0.78015 0.97059 0.0
O235 O 0.43589 0.67254 0.96164 0.0
C236 C 0.55129 0.701 0.16033 0.0
C237 C 0.40965 0.72571 0.94077 0.0
C238 C 0.29759 0.62755 0.15053 0.0
C239 C 0.3066 0.43855 0.93825 0.0
O240 O 0.34971 0.60047 0.12345 0.0
Zn241 Zn 0.32599 0.53162 0.04376 0.0
O242 O 0.24792 0.60574 0.12509 0.0
Zn243 Zn 0.21345 0.53609 0.04653 0.0
O244 O 0.19012 0.46762 0.12584 0.0
O245 O 0.2888 0.4751 0.11309 0.0
O246 O 0.25502 0.46496 0.96596 0.0
O247 O 0.35679 0.46028 0.96377 0.0
O248 O 0.28596 0.59025 0.97312 0.0
O249 O 0.18523 0.60334 0.96586 0.0
C250 C 0.24543 0.44947 0.14502 0.0
C251 C 0.2389 0.61754 0.94362 0.0
C252 C 0.53351 0.35407 0.93798 0.0
C253 C 0.42679 0.30582 0.1712 0.0
O254 O 0.51508 0.39086 0.99794 0.0
Zn255 Zn 0.4975 0.32681 0.06581 0.0
O256 O 0.53573 0.29227 0.94108 0.0
Zn257 Zn 0.50449 0.227 1.02496 0.0
O258 O 0.4426 0.19371 0.9498 0.0
O259 O 0.42702 0.29631 0.99672 0.0
O260 O 0.44148 0.25312 0.12793 0.0
O261 O 0.45773 0.3544 0.16335 0.0
O262 O 0.58537 0.28645 0.08047 0.0
O263 O 0.58759 0.18157 0.04947 0.0
C264 C 0.41125 0.24912 0.95224 0.0
C265 C 0.61583 0.23125 0.07066 0.0
C266 C 0.71984 0.5437 0.20186 0.0
C267 C 0.65949 0.48834 0.94223 0.0
O268 O 0.76479 0.54668 0.15331 0.0
Zn269 Zn 0.78463 0.50057 1.03628 0.0
O270 O 0.68077 0.50333 0.18539 0.0
Zn271 Zn 0.69166 0.50384 0.07445 0.0
O272 O 0.72427 0.41127 0.06055 0.0
O273 O 0.82414 0.4044 0.04603 0.0
O274 O 0.62676 0.49896 1.00503 0.0
O275 O 0.71856 0.48455 0.94563 0.0
O276 O 0.80926 0.58034 0.9836 0.0
O277 O 0.71545 0.59439 1.03583 0.0
C278 C 0.77448 0.37611 0.05395 0.0
C279 C 0.75903 0.61696 0.99824 0.0
loop_
_geom_bond_atom_site_label_1
_geom_bond_atom_site_label_2
_geom_bond_distance
_geom_bond_site_symmetry_2
_ccdc_geom_bond_type
H0 C8 0.930 . S
H1 C11 0.930 . S
H2 C13 0.930 . S
H3 C14 0.970 . S
H4 C14 0.970 . S
H5 C16 0.930 . S
H6 C18 0.930 . S
H7 C20 0.930 . S
C8 H0 0.930 . S
C8 C9 1.382 . S
C8 C10 1.426 . S
C9 C8 1.382 . S
C9 C13 1.389 . S
C10 C8 1.426 . S
C10 C11 1.375 . S
C10 C14 1.532 . S
C11 H1 0.930 . S
C11 C10 1.375 . S
C11 C12 1.416 . S
C12 C11 1.416 . S
C12 C13 1.371 . S
C13 H2 0.930 . S
C13 C9 1.389 . S
C13 C12 1.371 . S
C14 H3 0.970 . S
C14 H4 0.970 . S
C14 C10 1.532 . S
C14 C15 1.499 . S
C15 C14 1.499 . S
C15 C16 1.370 . S
C15 C20 1.415 . S
C16 H5 0.930 . S
C16 C15 1.370 . S
C16 C17 1.407 . S
C17 C16 1.407 . S
C17 C18 1.365 . S
C18 H6 0.930 . S
C18 C17 1.365 . S
C18 C19 1.393 . S
C19 C18 1.393 . S
C19 C20 1.387 . S
C20 H7 0.930 . S
C20 C15 1.415 . S
C20 C19 1.387 . S
H21 C29 0.930 . S
H22 C32 0.930 . S
H23 C34 0.930 . S
H24 C35 0.970 . S
H25 C35 0.970 . S
H26 C37 0.930 . S
H27 C39 0.930 . S
H28 C41 0.930 . S
C29 H21 0.930 . S
C29 C30 1.382 . S
C29 C31 1.426 . S
C30 C29 1.382 . S
C30 C34 1.389 . S
C31 C29 1.426 . S
C31 C32 1.375 . S
C31 C35 1.532 . S
C32 H22 0.930 . S
C32 C31 1.375 . S
C32 C33 1.416 . S
C33 C32 1.416 . S
C33 C34 1.371 . S
C34 H23 0.930 . S
C34 C30 1.389 . S
C34 C33 1.371 . S
C35 H24 0.970 . S
C35 H25 0.970 . S
C35 C31 1.532 . S
C35 C36 1.499 . S
C36 C35 1.499 . S
C36 C37 1.370 . S
C36 C41 1.415 . S
C37 H26 0.930 . S
C37 C36 1.370 . S
C37 C38 1.407 . S
C38 C37 1.407 . S
C38 C39 1.365 . S
C39 H27 0.930 . S
C39 C38 1.365 . S
C39 C40 1.393 . S
C40 C39 1.393 . S
C40 C41 1.387 . S
C41 H28 0.930 . S
C41 C36 1.415 . S
C41 C40 1.387 . S
H42 C50 0.930 . S
H43 C53 0.930 . S
H44 C55 0.930 . S
H45 C56 0.970 . S
H46 C56 0.970 . S
H47 C58 0.930 . S
H48 C60 0.930 . S
H49 C62 0.930 . S
C50 H42 0.930 . S
C50 C51 1.382 . S
C50 C52 1.426 . S
C51 C50 1.382 . S
C51 C55 1.389 . S
C52 C50 1.426 . S
C52 C53 1.375 . S
C52 C56 1.532 . S
C53 H43 0.930 . S
C53 C52 1.375 . S
C53 C54 1.416 . S
C54 C53 1.416 . S
C54 C55 1.371 . S
C55 H44 0.930 . S
C55 C51 1.389 . S
C55 C54 1.371 . S
C56 H45 0.970 . S
C56 H46 0.970 . S
C56 C52 1.532 . S
C56 C57 1.499 . S
C57 C56 1.499 . S
C57 C58 1.370 . S
C57 C62 1.415 . S
C58 H47 0.930 . S
C58 C57 1.370 . S
C58 C59 1.407 . S
C59 C58 1.407 . S
C59 C60 1.365 . S
C60 H48 0.930 . S
C60 C59 1.365 . S
C60 C61 1.393 . S
C61 C60 1.393 . S
C61 C62 1.387 . S
C62 H49 0.930 . S
C62 C57 1.415 . S
C62 C61 1.387 . S
H63 C71 0.930 . S
H64 C74 0.930 . S
H65 C76 0.930 . S
H66 C77 0.970 . S
H67 C77 0.970 . S
H68 C79 0.930 . S
H69 C81 0.930 . S
H70 C83 0.930 . S
C71 H63 0.930 . S
C71 C72 1.382 . S
C71 C73 1.426 . S
C72 C71 1.382 . S
C72 C76 1.389 . S
C73 C71 1.426 . S
C73 C74 1.375 . S
C73 C77 1.532 . S
C74 H64 0.930 . S
C74 C73 1.375 . S
C74 C75 1.416 . S
C75 C74 1.416 . S
C75 C76 1.371 . S
C76 H65 0.930 . S
C76 C72 1.389 . S
C76 C75 1.371 . S
C77 H66 0.970 . S
C77 H67 0.970 . S
C77 C73 1.532 . S
C77 C78 1.499 . S
C78 C77 1.499 . S
C78 C79 1.370 . S
C78 C83 1.415 . S
C79 H68 0.930 . S
C79 C78 1.370 . S
C79 C80 1.407 . S
C80 C79 1.407 . S
C80 C81 1.365 . S
C81 H69 0.930 . S
C81 C80 1.365 . S
C81 C82 1.393 . S
C82 C81 1.393 . S
C82 C83 1.387 . S
C83 H70 0.930 . S
C83 C78 1.415 . S
C83 C82 1.387 . S
H84 C92 0.930 . S
H85 C95 0.930 . S
H86 C97 0.930 . S
H87 C98 0.970 . S
H88 C98 0.970 . S
H89 C100 0.930 . S
H90 C102 0.930 . S
H91 C104 0.930 . S
C92 H84 0.930 . S
C92 C93 1.382 . S
C92 C94 1.426 . S
C93 C92 1.382 . S
C93 C97 1.389 . S
C94 C92 1.426 . S
C94 C95 1.375 . S
C94 C98 1.532 . S
C95 H85 0.930 . S
C95 C94 1.375 . S
C95 C96 1.416 . S
C96 C95 1.416 . S
C96 C97 1.371 . S
C97 H86 0.930 . S
C97 C93 1.389 . S
C97 C96 1.371 . S
C98 H87 0.970 . S
C98 H88 0.970 . S
C98 C94 1.532 . S
C98 C99 1.499 . S
C99 C98 1.499 . S
C99 C100 1.370 . S
C99 C104 1.415 . S
C100 H89 0.930 . S
C100 C99 1.370 . S
C100 C101 1.407 . S
C101 C100 1.407 . S
C101 C102 1.365 . S
C102 H90 0.930 . S
C102 C101 1.365 . S
C102 C103 1.393 . S
C103 C102 1.393 . S
C103 C104 1.387 . S
C104 H91 0.930 . S
C104 C99 1.415 . S
C104 C103 1.387 . S
H105 C113 0.930 . S
H106 C116 0.930 . S
H107 C118 0.930 . S
H108 C119 0.970 . S
H109 C119 0.970 . S
H110 C121 0.930 . S
H111 C123 0.930 . S
H112 C125 0.930 . S
C113 H105 0.930 . S
C113 C114 1.382 . S
C113 C115 1.426 . S
C114 C113 1.382 . S
C114 C118 1.389 . S
C115 C113 1.426 . S
C115 C116 1.375 . S
C115 C119 1.532 . S
C116 H106 0.930 . S
C116 C115 1.375 . S
C116 C117 1.416 . S
C117 C116 1.416 . S
C117 C118 1.371 . S
C118 H107 0.930 . S
C118 C114 1.389 . S
C118 C117 1.371 . S
C119 H108 0.970 . S
C119 H109 0.970 . S
C119 C115 1.532 . S
C119 C120 1.499 . S
C120 C119 1.499 . S
C120 C121 1.370 . S
C120 C125 1.415 . S
C121 H110 0.930 . S
C121 C120 1.370 . S
C121 C122 1.407 . S
C122 C121 1.407 . S
C122 C123 1.365 . S
C123 H111 0.930 . S
C123 C122 1.365 . S
C123 C124 1.393 . S
C124 C123 1.393 . S
C124 C125 1.387 . S
C125 H112 0.930 . S
C125 C120 1.415 . S
C125 C124 1.387 . S
H126 C134 0.930 . S
H127 C137 0.930 . S
H128 C139 0.930 . S
H129 C140 0.970 . S
H130 C140 0.970 . S
H131 C142 0.930 . S
H132 C144 0.930 . S
H133 C146 0.930 . S
C134 H126 0.930 . S
C134 C135 1.382 . S
C134 C136 1.426 . S
C135 C134 1.382 . S
C135 C139 1.389 . S
C136 C134 1.426 . S
C136 C137 1.375 . S
C136 C140 1.532 . S
C137 H127 0.930 . S
C137 C136 1.375 . S
C137 C138 1.416 . S
C138 C137 1.416 . S
C138 C139 1.371 . S
C139 H128 0.930 . S
C139 C135 1.389 . S
C139 C138 1.371 . S
C140 H129 0.970 . S
C140 H130 0.970 . S
C140 C136 1.532 . S
C140 C141 1.499 . S
C141 C140 1.499 . S
C141 C142 1.370 . S
C141 C146 1.415 . S
C142 H131 0.930 . S
C142 C141 1.370 . S
C142 C143 1.407 . S
C143 C142 1.407 . S
C143 C144 1.365 . S
C144 H132 0.930 . S
C144 C143 1.365 . S
C144 C145 1.393 . S
C145 C144 1.393 . S
C145 C146 1.387 . S
C146 H133 0.930 . S
C146 C141 1.415 . S
C146 C145 1.387 . S
H147 C155 0.930 . S
H148 C158 0.930 . S
H149 C160 0.930 . S
H150 C161 0.970 . S
H151 C161 0.970 . S
H152 C163 0.930 . S
H153 C165 0.930 . S
H154 C167 0.930 . S
C155 H147 0.930 . S
C155 C156 1.382 . S
C155 C157 1.426 . S
C156 C155 1.382 . S
C156 C160 1.389 . S
C157 C155 1.426 . S
C157 C158 1.375 . S
C157 C161 1.532 . S
C158 H148 0.930 . S
C158 C157 1.375 . S
C158 C159 1.416 . S
C159 C158 1.416 . S
C159 C160 1.371 . S
C160 H149 0.930 . S
C160 C156 1.389 . S
C160 C159 1.371 . S
C161 H150 0.970 . S
C161 H151 0.970 . S
C161 C157 1.532 . S
C161 C162 1.499 . S
C162 C161 1.499 . S
C162 C163 1.370 . S
C162 C167 1.415 . S
C163 H152 0.930 . S
C163 C162 1.370 . S
C163 C164 1.407 . S
C164 C163 1.407 . S
C164 C165 1.365 . S
C165 H153 0.930 . S
C165 C164 1.365 . S
C165 C166 1.393 . S
C166 C165 1.393 . S
C166 C167 1.387 . S
C167 H154 0.930 . S
C167 C162 1.415 . S
C167 C166 1.387 . S
C168 O170 1.247 . S
C168 O172 1.258 . S
C169 O176 1.247 . S
C169 O177 1.258 . S
O170 C168 1.247 . S
O170 Zn171 2.028 1_655 S
Zn171 O170 2.028 1_455 S
Zn171 O175 2.035 . S
Zn171 O177 2.035 . S
Zn171 O178 2.028 1_455 S
O172 C168 1.258 . S
O172 Zn173 2.035 1_655 S
Zn173 O172 2.035 1_455 S
Zn173 O174 2.028 . S
Zn173 O176 2.028 . S
Zn173 O179 2.035 1_455 S
O174 Zn173 2.028 . S
O174 C180 1.247 . S
O175 Zn171 2.035 . S
O175 C180 1.258 . S
O176 C169 1.247 . S
O176 Zn173 2.028 . S
O177 C169 1.258 . S
O177 Zn171 2.035 . S
O178 Zn171 2.028 1_655 S
O178 C181 1.247 . S
O179 Zn173 2.035 1_655 S
O179 C181 1.258 . S
C180 O174 1.247 . S
C180 O175 1.258 . S
C181 O178 1.247 . S
C181 O179 1.258 . S
C182 O184 1.247 . S
C182 O186 1.258 . S
C183 O190 1.247 . S
C183 O191 1.258 . S
O184 C182 1.247 . S
O184 Zn185 2.028 . S
Zn185 O184 2.028 . S
Zn185 O189 2.035 1_545 S
Zn185 O191 2.035 1_545 S
Zn185 O192 2.028 . S
O186 C182 1.258 . S
O186 Zn187 2.035 . S
Zn187 O186 2.035 . S
Zn187 O188 2.028 1_545 S
Zn187 O190 2.028 1_545 S
Zn187 O193 2.035 . S
O188 Zn187 2.028 1_565 S
O188 C194 1.247 . S
O189 Zn185 2.035 1_565 S
O189 C194 1.258 . S
O190 C183 1.247 . S
O190 Zn187 2.028 1_565 S
O191 C183 1.258 . S
O191 Zn185 2.035 1_565 S
O192 Zn185 2.028 . S
O192 C195 1.247 . S
O193 Zn187 2.035 . S
O193 C195 1.258 . S
C194 O188 1.247 . S
C194 O189 1.258 . S
C195 O192 1.247 . S
C195 O193 1.258 . S
C196 O198 1.247 . S
C196 O200 1.258 . S
C197 O204 1.247 . S
C197 O205 1.258 . S
O198 C196 1.247 . S
O198 Zn199 2.028 1_655 S
Zn199 O198 2.028 1_455 S
Zn199 O203 2.035 . S
Zn199 O205 2.035 . S
Zn199 O206 2.028 1_455 S
O200 C196 1.258 . S
O200 Zn201 2.035 1_655 S
Zn201 O200 2.035 1_455 S
Zn201 O202 2.028 . S
Zn201 O204 2.028 . S
Zn201 O207 2.035 1_455 S
O202 Zn201 2.028 . S
O202 C208 1.247 . S
O203 Zn199 2.035 . S
O203 C208 1.258 . S
O204 C197 1.247 . S
O204 Zn201 2.028 . S
O205 C197 1.258 . S
O205 Zn199 2.035 . S
O206 Zn199 2.028 1_655 S
O206 C209 1.247 . S
O207 Zn201 2.035 1_655 S
O207 C209 1.258 . S
C208 O202 1.247 . S
C208 O203 1.258 . S
C209 O206 1.247 . S
C209 O207 1.258 . S
C210 O212 1.247 . S
C210 O214 1.258 . S
C211 O218 1.247 . S
C211 O219 1.258 . S
O212 C210 1.247 . S
O212 Zn213 2.028 . S
Zn213 O212 2.028 . S
Zn213 O217 2.035 1_545 S
Zn213 O219 2.035 1_545 S
Zn213 O220 2.028 . S
O214 C210 1.258 . S
O214 Zn215 2.035 . S
Zn215 O214 2.035 . S
Zn215 O216 2.028 1_545 S
Zn215 O218 2.028 1_545 S
Zn215 O221 2.035 . S
O216 Zn215 2.028 1_565 S
O216 C222 1.247 . S
O217 Zn213 2.035 1_565 S
O217 C222 1.258 . S
O218 C211 1.247 . S
O218 Zn215 2.028 1_565 S
O219 C211 1.258 . S
O219 Zn213 2.035 1_565 S
O220 Zn213 2.028 . S
O220 C223 1.247 . S
O221 Zn215 2.035 . S
O221 C223 1.258 . S
C222 O216 1.247 . S
C222 O217 1.258 . S
C223 O220 1.247 . S
C223 O221 1.258 . S
C224 O226 1.247 . S
C224 O228 1.258 . S
C225 O232 1.247 . S
C225 O233 1.258 . S
O226 C224 1.247 . S
O226 Zn227 2.028 . S
Zn227 O226 2.028 . S
Zn227 O231 2.035 . S
Zn227 O233 2.035 1_554 S
Zn227 O234 2.028 1_554 S
O228 C224 1.258 . S
O228 Zn229 2.034 . S
Zn229 O228 2.034 . S
Zn229 O230 2.027 . S
Zn229 O232 2.029 1_554 S
Zn229 O235 2.036 1_554 S
O230 Zn229 2.027 . S
O230 C236 1.247 . S
O231 Zn227 2.035 . S
O231 C236 1.258 . S
O232 C225 1.247 . S
O232 Zn229 2.029 1_556 S
O233 C225 1.258 . S
O233 Zn227 2.035 1_556 S
O234 Zn227 2.028 1_556 S
O234 C237 1.247 . S
O235 Zn229 2.036 1_556 S
O235 C237 1.258 . S
C236 O230 1.247 . S
C236 O231 1.258 . S
C237 O234 1.247 . S
C237 O235 1.258 . S
C238 O240 1.247 . S
C238 O242 1.258 . S
C239 O246 1.247 . S
C239 O247 1.258 . S
O240 C238 1.247 . S
O240 Zn241 2.028 . S
Zn241 O240 2.028 . S
Zn241 O245 2.035 . S
Zn241 O247 2.035 1_554 S
Zn241 O248 2.028 1_554 S
O242 C238 1.258 . S
O242 Zn243 2.035 . S
Zn243 O242 2.035 . S
Zn243 O244 2.028 . S
Zn243 O246 2.028 1_554 S
Zn243 O249 2.035 1_554 S
O244 Zn243 2.028 . S
O244 C250 1.247 . S
O245 Zn241 2.035 . S
O245 C250 1.258 . S
O246 C239 1.247 . S
O246 Zn243 2.028 1_556 S
O247 C239 1.258 . S
O247 Zn241 2.035 1_556 S
O248 Zn241 2.028 1_556 S
O248 C251 1.247 . S
O249 Zn243 2.035 1_556 S
O249 C251 1.258 . S
C250 O244 1.247 . S
C250 O245 1.258 . S
C251 O248 1.247 . S
C251 O249 1.258 . S
C252 O254 1.247 . S
C252 O256 1.258 . S
C253 O260 1.247 . S
C253 O261 1.258 . S
O254 C252 1.247 . S
O254 Zn255 2.028 1_556 S
Zn255 O254 2.028 1_554 S
Zn255 O259 2.035 1_554 S
Zn255 O261 2.035 . S
Zn255 O262 2.028 . S
O256 C252 1.258 . S
O256 Zn257 2.035 1_556 S
Zn257 O256 2.035 1_554 S
Zn257 O258 2.028 1_554 S
Zn257 O260 2.028 . S
Zn257 O263 2.035 . S
O258 Zn257 2.028 1_556 S
O258 C264 1.247 . S
O259 Zn255 2.035 1_556 S
O259 C264 1.258 . S
O260 C253 1.247 . S
O260 Zn257 2.028 . S
O261 C253 1.258 . S
O261 Zn255 2.035 . S
O262 Zn255 2.028 . S
O262 C265 1.247 . S
O263 Zn257 2.035 . S
O263 C265 1.258 . S
C264 O258 1.247 . S
C264 O259 1.258 . S
C265 O262 1.247 . S
C265 O263 1.258 . S
C266 O268 1.247 . S
C266 O270 1.258 . S
C267 O274 1.247 . S
C267 O275 1.258 . S
O268 C266 1.247 . S
O268 Zn269 2.028 . S
Zn269 O268 2.028 . S
Zn269 O273 2.035 . S
Zn269 O275 2.035 1_554 S
Zn269 O276 2.028 1_554 S
O270 C266 1.258 . S
O270 Zn271 2.035 . S
Zn271 O270 2.035 . S
Zn271 O272 2.028 . S
Zn271 O274 2.028 1_554 S
Zn271 O277 2.035 1_554 S
O272 Zn271 2.028 . S
O272 C278 1.247 . S
O273 Zn269 2.035 . S
O273 C278 1.258 . S
O274 C267 1.247 . S
O274 Zn271 2.028 1_556 S
O275 C267 1.258 . S
O275 Zn269 2.035 1_556 S
O276 Zn269 2.028 1_556 S
O276 C279 1.247 . S
O277 Zn271 2.035 1_556 S
O277 C279 1.258 . S
C278 O272 1.247 . S
C278 O273 1.258 . S
C279 O276 1.247 . S
C279 O277 1.258 . S
C169 C12 1.348 . S
C195 C33 1.359 . S
C209 C51 1.445 . S
C211 C75 1.360 . S
C103 C208 1.469 . S
C210 C122 1.376 . S
C168 C145 1.445 . S
C194 C166 1.450 . S
C196 C164 1.397 . S
C222 C101 1.404 . S
C180 C124 1.390 . S
C182 C143 1.380 . S
C181 C30 1.381 . S
C183 C54 1.398 . S
C197 C72 1.382 . S
C223 C9 1.400 . S
C225 C159 1.348 . S
C96 C251 1.359 . S
C114 C264 1.445 . S
C138 C267 1.359 . S
C40 C265 1.469 . S
C59 C266 1.375 . S
C82 C224 1.445 . S
C250 C19 1.450 . S
C253 C17 1.397 . S
C38 C278 1.404 . S
C61 C236 1.390 . S
C80 C238 1.380 . S
C237 C93 1.380 . S
C239 C117 1.398 . S
C135 C252 1.379 . S
C279 C156 1.399 . S
