# Generated by pormake.
# Topology zzz, (3,6)-cn, num edge types: 1
# Building blocks:
#     Node 0, Type 0, BuildingBlock: QEWDON_clean_linker_0, # of connection points: 3
#     Node 1, Type 0, BuildingBlock: QEWDON_clean_linker_0, # of connection points: 3
#     Node 2, Type 0, BuildingBlock: QEWDON_clean_linker_0, # of connection points: 3
#     Node 3, Type 0, BuildingBlock: QEWDON_clean_linker_0, # of connection points: 3
#     Node 4, Type 0, BuildingBlock: QEWDON_clean_linker_0, # of connection points: 3
#     Node 5, Type 0, BuildingBlock: QEWDON_clean_linker_0, # of connection points: 3
#     Node 6, Type 0, BuildingBlock: QEWDON_clean_linker_0, # of connection points: 3
#     Node 7, Type 0, BuildingBlock: QEWDON_clean_linker_0, # of connection points: 3
#     Node 8, Type 1, BuildingBlock: INOVEN_clean_sbu_0, # of connection points: 6
#     Node 9, Type 1, BuildingBlock: INOVEN_clean_sbu_0, # of connection points: 6
#     Node 10, Type 1, BuildingBlock: INOVEN_clean_sbu_0, # of connection points: 6
#     Node 11, Type 1, BuildingBlock: INOVEN_clean_sbu_0, # of connection points: 6
#     Edge 12, Type (0, 1), BuildingBlock: ZUJKAS_clean_linker_0, # of connection points: 2
#     Edge 13, Type (0, 1), BuildingBlock: ZUJKAS_clean_linker_0, # of connection points: 2
#     Edge 14, Type (0, 1), BuildingBlock: ZUJKAS_clean_linker_0, # of connection points: 2
#     Edge 15, Type (0, 1), BuildingBlock: ZUJKAS_clean_linker_0, # of connection points: 2
#     Edge 16, Type (0, 1), BuildingBlock: ZUJKAS_clean_linker_0, # of connection points: 2
#     Edge 17, Type (0, 1), BuildingBlock: ZUJKAS_clean_linker_0, # of connection points: 2
#     Edge 18, Type (0, 1), BuildingBlock: ZUJKAS_clean_linker_0, # of connection points: 2
#     Edge 19, Type (0, 1), BuildingBlock: ZUJKAS_clean_linker_0, # of connection points: 2
#     Edge 20, Type (0, 1), BuildingBlock: ZUJKAS_clean_linker_0, # of connection points: 2
#     Edge 21, Type (0, 1), BuildingBlock: ZUJKAS_clean_linker_0, # of connection points: 2
#     Edge 22, Type (0, 1), BuildingBlock: ZUJKAS_clean_linker_0, # of connection points: 2
#     Edge 23, Type (0, 1), BuildingBlock: ZUJKAS_clean_linker_0, # of connection points: 2
#     Edge 24, Type (0, 1), BuildingBlock: ZUJKAS_clean_linker_0, # of connection points: 2
#     Edge 25, Type (0, 1), BuildingBlock: ZUJKAS_clean_linker_0, # of connection points: 2
#     Edge 26, Type (0, 1), BuildingBlock: ZUJKAS_clean_linker_0, # of connection points: 2
#     Edge 27, Type (0, 1), BuildingBlock: ZUJKAS_clean_linker_0, # of connection points: 2
#     Edge 28, Type (0, 1), BuildingBlock: ZUJKAS_clean_linker_0, # of connection points: 2
#     Edge 29, Type (0, 1), BuildingBlock: ZUJKAS_clean_linker_0, # of connection points: 2
#     Edge 30, Type (0, 1), BuildingBlock: ZUJKAS_clean_linker_0, # of connection points: 2
#     Edge 31, Type (0, 1), BuildingBlock: ZUJKAS_clean_linker_0, # of connection points: 2
#     Edge 32, Type (0, 1), BuildingBlock: ZUJKAS_clean_linker_0, # of connection points: 2
#     Edge 33, Type (0, 1), BuildingBlock: ZUJKAS_clean_linker_0, # of connection points: 2
#     Edge 34, Type (0, 1), BuildingBlock: ZUJKAS_clean_linker_0, # of connection points: 2
#     Edge 35, Type (0, 1), BuildingBlock: ZUJKAS_clean_linker_0, # of connection points: 2
# Relax obj value: 0.133
# Max RMSD: 0.156
# Mean RMSD: 0.118
data_MOF--net-zzz--node1-INOVEN_clean_sbu_0--node2-QEWDON_clean_linker_0--edge1-ZUJKAS_clean_linker_0
_symmetry_space_group_name_H-M    P1
_symmetry_Int_Tables_number       1
_symmetry_cell_setting            triclinic
loop_
_symmetry_equiv_pos_as_xyz
'x, y, z'
_cell_length_a     72.449398
_cell_length_b     72.32766
_cell_length_c     16.386532
_cell_angle_alpha  89.948091
_cell_angle_beta   90.046667
_cell_angle_gamma 90.105188
loop_
_atom_site_label
_atom_site_type_symbol
_atom_site_fract_x
_atom_site_fract_y
_atom_site_fract_z
_atom_type_partial_charge
H0 H 0.75308 0.52088 0.15371 0.0
C1 C 0.763 0.51846 0.20183 0.0
C2 C 0.78067 0.51266 0.17928 0.0
C3 C 0.75838 0.52145 0.28448 0.0
H4 H 0.80826 0.50689 0.22061 0.0
C5 C 0.79435 0.51057 0.23889 0.0
C6 C 0.79078 0.51436 0.3209 0.0
C7 C 0.77271 0.51953 0.34396 0.0
C8 C 0.73892 0.52717 0.30682 0.0
H9 H 0.77004 0.52178 0.40805 0.0
C10 C 0.72356 0.5236 0.25444 0.0
C11 C 0.70558 0.53001 0.27333 0.0
C12 C 0.73554 0.53688 0.37975 0.0
H13 H 0.74659 0.54061 0.42089 0.0
C14 C 0.71774 0.54243 0.40063 0.0
H15 H 0.72546 0.51609 0.19821 0.0
C16 C 0.70294 0.53904 0.34838 0.0
H17 H 0.68937 0.54359 0.36718 0.0
H18 H 0.71544 0.54969 0.45744 0.0
H19 H 0.03809 0.74881 0.18027 0.0
C20 C 0.03433 0.75961 0.22269 0.0
C21 C 0.04079 0.77754 0.2072 0.0
C22 C 0.02351 0.75571 0.29233 0.0
H23 H 0.04158 0.80569 0.24974 0.0
C24 C 0.03692 0.79172 0.26266 0.0
C25 C 0.02624 0.78859 0.33214 0.0
C26 C 0.01916 0.77064 0.34608 0.0
C27 C 0.01751 0.73604 0.30967 0.0
H28 H 1.01043 0.76848 0.39877 0.0
C29 C 0.01576 0.72249 0.24682 0.0
C30 C 1.01123 0.70387 0.26508 0.0
C31 C 0.01437 0.73035 0.39073 0.0
H32 H 0.01612 0.73977 0.44136 0.0
C33 C 1.0095 0.71214 0.40872 0.0
H34 H 0.01765 0.72628 0.18354 0.0
C35 C 1.00799 0.69902 0.34685 0.0
H36 H 1.00472 0.68489 0.3635 0.0
H37 H 1.00723 0.70806 0.47151 0.0
H38 H 0.77329 1.00463 0.13706 0.0
C39 C 0.76381 1.00605 0.18763 0.0
C40 C 0.74516 1.00922 0.16997 0.0
C41 C 0.76996 1.00406 0.26903 0.0
H42 H 0.71792 1.01298 0.21998 0.0
C43 C 0.73234 1.01035 0.23366 0.0
C44 C 0.73776 1.00836 0.31487 0.0
C45 C 0.75658 1.00538 0.33278 0.0
C46 C 0.79004 0.99992 0.28634 0.0
H47 H 0.76063 1.00434 0.39616 0.0
C48 C 0.80442 1.00496 0.23118 0.0
C49 C 0.82306 1.00023 0.24691 0.0
C50 C 0.79497 0.99012 0.35742 0.0
H51 H 0.78466 0.98529 0.40011 0.0
C52 C 0.81335 0.9858 0.37391 0.0
H53 H 0.80136 1.01277 0.17653 0.0
C54 C 0.82725 0.99076 0.31941 0.0
H55 H 0.8413 0.98672 0.33316 0.0
H56 H 0.81681 0.97821 0.42881 0.0
H57 H 0.51363 0.78071 0.16689 0.0
C58 C 0.51339 0.77022 0.21388 0.0
C59 C 0.50605 0.75293 0.19342 0.0
C60 C 0.52101 0.77358 0.29193 0.0
H61 H 0.50223 0.72477 0.23208 0.0
C62 C 0.50702 0.73842 0.24973 0.0
C63 C 0.51529 0.74074 0.32608 0.0
C64 C 0.52161 0.75852 0.3485 0.0
C65 C 0.52964 0.79221 0.3103 0.0
H66 H 0.52747 0.76023 0.4087 0.0
C67 C 0.52495 0.8084 0.26507 0.0
C68 C 0.53464 0.82523 0.2759 0.0
C69 C 0.54365 0.79378 0.36965 0.0
H70 H 0.54832 0.78199 0.40443 0.0
C71 C 0.55253 0.81061 0.38366 0.0
H72 H 0.51413 0.80799 0.21974 0.0
C73 C 0.54819 0.82613 0.33714 0.0
H74 H 0.55558 0.83888 0.34896 0.0
H75 H 0.5632 0.81151 0.42977 0.0
H76 H 0.27815 0.52597 0.19141 0.0
C77 C 0.26779 0.52218 0.14681 0.0
C78 C 0.2494 0.52109 0.17219 0.0
C79 C 0.27269 0.51885 0.06484 0.0
H80 H 0.22124 0.51725 0.1348 0.0
C81 C 0.23554 0.51725 0.11513 0.0
C82 C 0.23961 0.51458 0.03249 0.0
C83 C 0.25828 0.51526 0.00747 0.0
C84 C 0.29271 0.51998 0.04005 0.0
H85 H 0.26144 0.51274 0.94394 0.0
C86 C 0.30723 0.51612 0.09618 0.0
C87 C 0.32598 0.51834 0.07405 0.0
C88 C 0.29753 0.52576 0.96085 0.0
H89 H 0.2871 0.5294 0.91644 0.0
C90 C 0.31601 0.52757 0.93814 0.0
H91 H 0.30408 0.51118 0.15695 0.0
C92 C 0.33009 0.52399 0.994 0.0
H93 H 0.34424 0.5261 0.97487 0.0
H94 H 0.31944 0.53215 0.87708 0.0
H95 H 0.01757 0.27853 0.17809 0.0
C96 C 0.0184 0.26818 0.13073 0.0
C97 C 0.01862 0.24966 0.15486 0.0
C98 C 0.01836 0.2731 0.0473 0.0
H99 H 0.0184 0.22131 0.11586 0.0
C100 C 0.01838 0.23565 0.09623 0.0
C101 C 0.01838 0.23975 0.01291 0.0
C102 C 0.01884 0.25851 0.98837 0.0
C103 C 0.01655 0.29325 0.02328 0.0
H104 H 0.01922 0.26151 0.92375 0.0
C105 C 0.02139 0.30792 0.07752 0.0
C106 C 0.01796 0.32666 0.05739 0.0
C107 C 1.00872 0.29807 0.94745 0.0
H108 H 1.00416 0.28766 0.90463 0.0
C109 C 1.00589 0.31653 0.92624 0.0
H110 H 0.02794 0.30501 0.13538 0.0
C111 C 1.01033 0.33067 0.98057 0.0
H112 H 1.00726 0.34478 0.96309 0.0
H113 H 0.99974 0.31989 0.86786 0.0
H114 H 0.25314 0.01504 0.20578 0.0
C115 C 0.26329 0.01748 0.15857 0.0
C116 C 0.2815 0.02119 0.18228 0.0
C117 C 0.25833 0.01633 0.07548 0.0
H118 H 0.30937 0.02552 0.14086 0.0
C119 C 0.29513 0.02348 0.12243 0.0
C120 C 0.29101 0.0219 0.0393 0.0
C121 C 0.27254 0.01843 0.01582 0.0
C122 C 0.2386 1.01188 0.0528 0.0
H123 H 0.26938 0.01757 0.9514 0.0
C124 C 0.22354 0.01643 0.10498 0.0
C125 C 0.20524 1.01093 0.08632 0.0
C126 C 0.2347 1.00211 0.98056 0.0
H127 H 0.2456 0.99779 0.93978 0.0
C128 C 0.21665 0.99708 0.96079 0.0
H129 H 0.22588 0.02438 0.15992 0.0
C130 C 0.20209 1.00132 0.01309 0.0
H131 H 0.18837 0.9966 0.99694 0.0
H132 H 0.21396 0.98945 0.90523 0.0
H133 H 0.50283 0.25321 0.20805 0.0
C134 C 0.5049 0.26359 0.16135 0.0
C135 C 0.50672 0.28198 0.1861 0.0
C136 C 0.50531 0.25879 0.07782 0.0
H137 H 0.51014 0.31013 0.14764 0.0
C138 C 0.50872 0.29591 0.12758 0.0
C139 C 0.50941 0.29189 0.04418 0.0
C140 C 0.50763 0.27325 0.01928 0.0
C141 C 0.50294 0.23883 0.05293 0.0
H142 H 0.50858 0.27015 0.95487 0.0
C143 C 0.5075 0.224 0.10649 0.0
C144 C 0.50408 0.20538 0.08481 0.0
C145 C 0.49527 0.23438 0.9764 0.0
H146 H 0.49101 0.24504 0.93413 0.0
C147 C 0.49239 0.216 0.95377 0.0
H148 H 0.51389 0.22673 0.16492 0.0
C149 C 0.49666 0.20164 0.00734 0.0
H150 H 0.49366 0.18758 0.98879 0.0
H151 H 0.48641 0.21288 0.8948 0.0
Gd152 Gd 0.02156 1.00938 0.75357 0.0
Gd153 Gd 1.00508 0.01984 0.58415 0.0
C154 C 0.01331 0.9771 0.61502 0.0
C155 C 0.0236 0.99382 0.89345 0.0
C156 C 0.03104 0.97531 0.91137 0.0
C157 C 0.04857 0.97007 0.88242 0.0
C158 C 0.01907 0.96167 0.94163 0.0
C159 C 0.04092 0.93776 0.90351 0.0
C160 C 0.02391 0.94303 0.93714 0.0
C161 C 0.05352 0.95142 0.87918 0.0
C162 C 0.04951 1.012 0.64188 0.0
C163 C 0.0172 0.05251 0.71583 0.0
C164 C 0.99865 0.03717 0.45053 0.0
C165 C 1.00331 0.05662 0.43188 0.0
C166 C 0.9894 0.07007 0.43472 0.0
C167 C 0.02184 0.06235 0.42601 0.0
C168 C 1.01251 0.09451 0.43792 0.0
C169 C 0.02637 0.08111 0.42882 0.0
C170 C 0.99394 0.0888 0.43834 0.0
C171 C 0.98026 1.01041 0.7007 0.0
O172 O 0.01615 0.98158 0.69259 0.0
O173 O 1.01026 0.98978 0.55824 0.0
O174 O 0.03544 1.00658 0.87024 0.0
O175 O 1.00853 0.99353 0.84905 0.0
O176 O 0.05202 1.00824 0.71851 0.0
O177 O 0.03246 0.01433 0.63105 0.0
O178 O 0.01347 0.0476 0.63941 0.0
O179 O 0.01947 0.04007 0.7744 0.0
O180 O 0.9861 0.03497 0.50719 0.0
O181 O 1.01254 0.02571 0.4587 0.0
O182 O 0.97865 1.00597 0.62412 0.0
O183 O 0.99467 0.02005 0.71091 0.0
H184 H 0.05803 0.98023 0.85763 0.0
H185 H 1.00545 0.96533 0.96351 0.0
H186 H 0.01409 0.93268 0.95737 0.0
H187 H 0.06673 0.94763 0.85322 0.0
H188 H 0.97502 0.06607 0.4395 0.0
H189 H 0.03295 0.05237 0.42343 0.0
H190 H 0.04079 0.08507 0.42623 0.0
H191 H 0.98288 0.09871 0.44587 0.0
Gd192 Gd 0.51969 0.02566 0.76204 0.0
Gd193 Gd 0.51052 1.00676 0.61318 0.0
C194 C 0.55306 0.01391 0.63491 0.0
C195 C 0.53625 0.03688 0.8918 0.0
C196 C 0.55485 0.04491 0.89823 0.0
C197 C 0.56152 0.05669 0.8366 0.0
C198 C 0.567 0.03843 0.95816 0.0
C199 C 0.59266 0.05399 0.89048 0.0
C200 C 0.58575 0.0429 0.95433 0.0
C201 C 0.58022 0.06128 0.8331 0.0
C202 C 0.51123 0.04939 0.63927 0.0
C203 C 0.47746 0.01828 0.73889 0.0
C204 C 0.4933 0.99647 0.48358 0.0
C205 C 0.47309 0.99635 0.47021 0.0
C206 C 0.46286 0.98013 0.4844 0.0
C207 C 0.46359 1.01301 0.45655 0.0
C208 C 0.43429 0.99773 0.48327 0.0
C209 C 0.44442 0.01369 0.46319 0.0
C210 C 0.44366 0.98082 0.49115 0.0
C211 C 0.51944 0.98328 0.73586 0.0
O212 O 0.54819 0.01903 0.70945 0.0
O213 O 0.54038 1.00976 0.58013 0.0
O214 O 0.52392 0.04685 0.85362 0.0
O215 O 0.53595 0.01951 0.86966 0.0
O216 O 0.50593 0.05135 0.7142 0.0
O217 O 0.52106 0.03505 0.63262 0.0
O218 O 0.48248 0.01602 0.66198 0.0
O219 O 0.4902 0.01971 0.79606 0.0
O220 O 0.49935 0.98476 0.53811 0.0
O221 O 0.50106 1.01275 0.4905 0.0
O222 O 0.52501 0.98151 0.66108 0.0
O223 O 0.50926 0.9974 0.74265 0.0
H224 H 0.55247 0.06165 0.78871 0.0
H225 H 0.56219 0.02907 0.00527 0.0
H226 H 0.59494 0.03676 -0.00117 0.0
H227 H 0.58503 0.07003 0.7838 0.0
H228 H 0.46977 0.96705 0.49445 0.0
H229 H 0.47098 0.02579 0.4453 0.0
H230 H 0.43768 0.02697 0.45702 0.0
H231 H 0.43619 0.96818 0.50435 0.0
Gd232 Gd 0.50678 0.51962 0.74693 0.0
Gd233 Gd 0.52487 0.51035 0.59568 0.0
C234 C 0.51758 0.55284 0.61867 0.0
C235 C 0.49749 0.5367 0.87826 0.0
C236 C 0.49427 0.55674 0.88911 0.0
C237 C 0.47865 0.56534 0.85489 0.0
C238 C 0.50831 0.56782 0.92248 0.0
C239 C 0.49246 0.59554 0.87674 0.0
C240 C 0.50747 0.58703 0.91584 0.0
C241 C 0.47773 0.58459 0.84905 0.0
C242 C 0.48255 0.51135 0.62597 0.0
C243 C 0.51382 0.47709 0.72446 0.0
C244 C 0.53461 0.49361 0.46408 0.0
C245 C 0.5413 0.47454 0.45463 0.0
C246 C 0.55364 0.46697 0.51186 0.0
C247 C 0.53321 0.46298 0.39613 0.0
C248 C 0.5484 0.43623 0.45667 0.0
C249 C 0.53669 0.44399 0.39717 0.0
C250 C 0.55725 0.44803 0.51247 0.0
C251 C 0.54925 0.51851 0.71616 0.0
O252 O 0.51419 0.54795 0.695 0.0
O253 O 0.52017 0.5401 0.56232 0.0
O254 O 0.48557 0.52775 0.83304 0.0
O255 O 0.51455 0.53212 0.86192 0.0
O256 O 0.48089 0.50584 0.70097 0.0
O257 O 0.49692 0.52117 0.61827 0.0
O258 O 0.51792 0.48193 0.64867 0.0
O259 O 0.51066 0.48982 0.78018 0.0
O260 O 0.54551 0.50503 0.50301 0.0
O261 O 0.5174 0.49493 0.48724 0.0
O262 O 0.55102 0.52361 0.64078 0.0
O263 O 0.53479 0.50884 0.72441 0.0
H264 H 0.46754 0.55723 0.82872 0.0
H265 H 0.52044 0.56161 0.94975 0.0
H266 H 0.51881 0.59522 0.9394 0.0
H267 H 0.46598 0.59083 0.81895 0.0
H268 H 0.55989 0.47554 0.55854 0.0
H269 H 0.52344 0.46849 0.35237 0.0
H270 H 0.52939 0.4353 0.35402 0.0
H271 H 0.56654 0.44257 0.55831 0.0
Gd272 Gd 1.0127 0.50565 0.7336 0.0
Gd273 Gd 0.02202 0.52527 0.57174 0.0
C274 C 0.97926 0.5177 0.60607 0.0
C275 C 0.99609 0.4958 0.86491 0.0
C276 C 0.97624 0.4977 0.88326 0.0
C277 C 0.9647 0.48212 0.87841 0.0
C278 C 0.9682 0.5153 0.89094 0.0
C279 C 0.93759 0.50188 0.87688 0.0
C280 C 0.94908 0.51735 0.88796 0.0
C281 C 0.94557 0.48418 0.87477 0.0
C282 C 0.02309 0.48309 0.61017 0.0
C283 C 0.05488 0.51614 0.70623 0.0
C284 C 0.03731 0.5309 0.43329 0.0
C285 C 0.05527 0.53992 0.42138 0.0
C286 C 0.06154 0.55266 0.47996 0.0
C287 C 0.06776 0.5327 0.36472 0.0
C288 C 0.09305 0.54855 0.43373 0.0
C289 C 0.08651 0.53707 0.37048 0.0
C290 C 0.08025 0.55697 0.48597 0.0
C291 C 0.01843 0.55157 0.69039 0.0
O292 O 0.98437 0.51248 0.68048 0.0
O293 O 0.99153 0.52217 0.54948 0.0
O294 O 0.99993 0.48417 0.8062 0.0
O295 O 1.00566 0.51117 0.85974 0.0
O296 O 0.02808 0.48089 0.68576 0.0
O297 O 1.01267 0.49707 0.6039 0.0
O298 O 0.05018 0.52019 0.63 0.0
O299 O 0.04241 0.51163 0.76174 0.0
O300 O 0.0239 0.54143 0.46047 0.0
O301 O 0.03852 0.51506 0.47185 0.0
O302 O 0.02167 0.55514 0.61432 0.0
O303 O 0.01678 0.53428 0.6978 0.0
H304 H 0.97052 0.4684 0.87225 0.0
H305 H 0.97665 0.52764 0.89507 0.0
H306 H 0.94333 0.53113 0.8921 0.0
H307 H 0.93712 0.47197 0.86611 0.0
H308 H 0.05224 0.55818 0.52542 0.0
H309 H 0.06324 0.52269 0.31975 0.0
H310 H 0.09601 0.53073 0.3279 0.0
H311 H 0.08478 0.56576 0.53559 0.0
H312 H 0.16965 0.02123 0.04905 0.0
H313 H 0.14313 0.02348 0.1406 0.0
H314 H 0.17805 1.01019 0.34539 0.0
H315 H 0.20469 1.00786 0.25402 0.0
H316 H 0.12784 0.99657 0.23539 0.0
H317 H 0.15035 0.05451 0.4327 0.0
H318 H 0.16163 0.04913 0.33749 0.0
H319 H 0.16681 0.03604 0.42803 0.0
C320 C 0.17177 0.01886 0.11365 0.0
C321 C 0.18943 0.01433 0.14379 0.0
C322 C 0.15653 0.0202 0.16609 0.0
C323 C 0.15848 0.01718 0.25038 0.0
C324 C 0.17615 1.013 0.28102 0.0
H325 H 0.08609 1.00685 0.66836 0.0
H326 H 0.11151 1.00859 0.57083 0.0
C327 C 0.19144 1.01168 0.22853 0.0
C328 C 0.14189 0.01752 0.30515 0.0
H329 H 0.12423 0.03729 0.47804 0.0
C330 C 0.127 1.0056 0.28805 0.0
C331 C 0.14066 0.02929 0.37404 0.0
C332 C 0.15562 0.0431 0.39388 0.0
C333 C 0.11132 1.0047 0.33893 0.0
C334 C 0.11021 0.01629 0.40848 0.0
C335 C 0.12499 0.02838 0.42495 0.0
C336 C 0.09434 0.01546 0.46715 0.0
C337 C 0.09637 0.99085 0.31926 0.0
C338 C 0.07604 0.01892 0.44222 0.0
C339 C 0.06135 0.01786 0.49835 0.0
C340 C 0.06467 1.01345 0.58064 0.0
C341 C 0.08299 1.01025 0.60544 0.0
C342 C 0.0976 1.01128 0.54962 0.0
H343 H 0.10128 0.98003 0.27642 0.0
H344 H 0.09123 0.98402 0.37555 0.0
H345 H 0.08461 0.99811 0.29001 0.0
H346 H 0.0731 0.02255 0.37944 0.0
H347 H 0.04747 0.02049 0.47735 0.0
H348 H 0.49554 0.20381 0.24804 0.0
H349 H 0.49795 0.17716 0.34019 0.0
H350 H 0.52161 0.14478 0.14612 0.0
H351 H 0.51945 0.17137 0.05407 0.0
H352 H 0.4807 0.14188 0.3147 0.0
H353 H 0.55684 0.13514 0.33999 0.0
H354 H 0.54583 0.15607 0.30474 0.0
H355 H 0.548 0.13657 0.23767 0.0
C356 C 0.50161 0.19114 0.22539 0.0
C357 C 0.50732 0.1898 0.14348 0.0
C358 C 0.50286 0.17585 0.27804 0.0
C359 C 0.51009 0.15895 0.25048 0.0
C360 C 0.5162 0.1577 0.16935 0.0
H361 H 0.52545 0.05033 0.48346 0.0
H362 H 0.52466 0.07628 0.38634 0.0
C363 C 0.51483 0.17291 0.11654 0.0
C364 C 0.51031 0.14237 0.30509 0.0
H365 H 0.53888 0.1111 0.39793 0.0
C366 C 0.49344 0.13521 0.33317 0.0
C367 C 0.52689 0.13346 0.32847 0.0
C368 C 0.54546 0.14074 0.30184 0.0
C369 C 0.49266 0.11937 0.3832 0.0
C370 C 0.50926 0.11064 0.40801 0.0
C371 C 0.52614 0.11771 0.3792 0.0
C372 C 0.5094 0.09459 0.46595 0.0
C373 C 0.47397 0.11192 0.40733 0.0
C374 C 0.50124 0.09616 0.5434 0.0
C375 C 0.50157 0.08135 0.59849 0.0
C376 C 0.5103 0.06461 0.57818 0.0
C377 C 0.51856 0.063 0.50085 0.0
C378 C 0.51816 0.07786 0.44541 0.0
H379 H 0.46311 0.11619 0.36331 0.0
H380 H 0.47406 0.09659 0.41114 0.0
H381 H 0.47016 0.11751 0.46803 0.0
H382 H 0.49482 0.10899 0.56194 0.0
H383 H 0.49519 0.08313 0.65771 0.0
H384 H 0.32767 0.52907 0.23525 0.0
H385 H 0.35403 0.5269 0.32884 0.0
H386 H 0.38578 0.49964 0.14217 0.0
H387 H 0.35943 0.50139 0.0491 0.0
H388 H 0.39028 0.48333 0.29413 0.0
H389 H 0.40045 0.55924 0.31469 0.0
H390 H 0.37765 0.55152 0.34128 0.0
H391 H 0.38583 0.54869 0.23854 0.0
C392 C 0.34016 0.52238 0.21442 0.0
C393 C 0.34139 0.51554 0.13414 0.0
C394 C 0.35534 0.52135 0.26777 0.0
C395 C 0.37211 0.51345 0.24225 0.0
C396 C 0.37311 0.50598 0.16329 0.0
H397 H 0.48059 0.52743 0.47398 0.0
H398 H 0.45424 0.52737 0.37929 0.0
C399 C 0.35801 0.50706 0.1099 0.0
C400 C 0.38865 0.51303 0.29716 0.0
H401 H 0.4189 0.5407 0.40177 0.0
C402 C 0.39652 0.49589 0.31765 0.0
C403 C 0.39708 0.52939 0.3269 0.0
C404 C 0.38997 0.54828 0.30378 0.0
C405 C 0.41228 0.49465 0.36793 0.0
C406 C 0.42037 0.51099 0.39979 0.0
C407 C 0.41269 0.52815 0.37809 0.0
C408 C 0.43664 0.51058 0.45629 0.0
C409 C 0.42033 0.47582 0.38519 0.0
C410 C 0.43562 0.50126 0.53145 0.0
C411 C 0.45066 0.50125 0.58541 0.0
C412 C 0.46709 0.51068 0.56599 0.0
C413 C 0.46817 0.51998 0.49069 0.0
C414 C 0.45308 0.51999 0.43662 0.0
H415 H 0.41601 0.46552 0.33862 0.0
H416 H 0.43564 0.47635 0.38695 0.0
H417 H 0.41534 0.47092 0.44545 0.0
H418 H 0.42304 0.49422 0.54917 0.0
H419 H 0.4493 0.49403 0.64307 0.0
H420 H 1.0107 0.32751 0.22248 0.0
H421 H 0.01304 0.35398 0.31543 0.0
H422 H 0.03447 0.38756 0.11976 0.0
H423 H 0.03259 0.36111 0.02718 0.0
H424 H 0.05306 0.39356 0.26542 0.0
H425 H 0.97737 0.39784 0.31318 0.0
H426 H 0.98721 0.37571 0.33719 0.0
H427 H 0.98752 0.38393 0.23363 0.0
C428 C 0.0162 0.34043 0.19946 0.0
C429 C 0.02131 0.34212 0.11684 0.0
C430 C 0.01731 0.35567 0.25254 0.0
C431 C 0.02355 0.37298 0.22444 0.0
C432 C 0.02942 0.37447 0.14301 0.0
H433 H 1.00603 0.4806 0.46036 0.0
H434 H 1.00679 0.45447 0.3645 0.0
C435 C 0.02826 0.3593 0.08992 0.0
C436 C 0.02377 0.38961 0.27906 0.0
H437 H 0.99598 0.41783 0.39309 0.0
C438 C 0.04057 0.39884 0.29333 0.0
C439 C 1.00746 0.39681 0.31457 0.0
C440 C 0.98882 0.3882 0.29846 0.0
C441 C 0.04154 0.41474 0.34304 0.0
C442 C 0.02531 0.4216 0.38051 0.0
C443 C 1.00847 0.41258 0.36502 0.0
C444 C 0.02554 0.43792 0.43685 0.0
C445 C 0.05993 0.42424 0.35389 0.0
C446 C 0.03582 0.43746 0.50961 0.0
C447 C 0.03538 0.45235 0.56438 0.0
C448 C 0.02462 0.46811 0.54805 0.0
C449 C 0.01454 0.46873 0.47466 0.0
C450 C 0.0149 0.45375 0.41995 0.0
H451 H 0.06975 0.4205 0.30457 0.0
H452 H 0.05831 0.4395 0.35481 0.0
H453 H 0.06608 0.4199 0.4129 0.0
H454 H 0.04387 0.42535 0.5251 0.0
H455 H 0.04324 0.45136 0.62047 0.0
H456 H 0.85738 0.01453 0.27906 0.0
H457 H 0.88359 0.01761 0.18607 0.0
H458 H 0.84997 0.99729 0.98814 0.0
H459 H 0.82356 0.99456 0.08092 0.0
H460 H 0.90159 0.99157 0.10631 0.0
H461 H 0.87371 0.04041 0.87734 0.0
H462 H 0.86233 0.03614 0.97342 0.0
H463 H 0.85943 0.02033 0.88952 0.0
C464 C 0.85547 1.01095 0.21543 0.0
C465 C 0.83829 1.00434 0.18756 0.0
C466 C 0.87053 1.01269 0.16218 0.0
C467 C 0.86889 1.00787 0.07939 0.0
C468 C 0.85162 1.00158 0.05099 0.0
H469 H 0.94628 0.99503 0.67631 0.0
H470 H 0.91991 0.9944 0.7697 0.0
C471 C 0.83647 0.99999 0.10423 0.0
C472 C 0.8855 1.00845 0.02459 0.0
H473 H 0.90166 0.02498 0.84204 0.0
C474 C 0.9016 0.99902 0.04886 0.0
C475 C 0.8857 0.01814 0.9493 0.0
C476 C 0.86944 0.02948 0.92115 0.0
C477 C 0.91757 0.99869 -0.0003 0.0
C478 C 0.91766 1.00818 0.92409 0.0
C479 C 0.90163 0.01765 0.89981 0.0
C480 C 0.9341 1.00819 0.86863 0.0
C481 C 0.9341 0.98779 0.02822 0.0
C482 C 0.951 0.01614 0.89275 0.0
C483 C 0.96615 0.01656 0.83914 0.0
C484 C 0.96474 1.00903 0.7602 0.0
C485 C 0.94789 1.00091 0.73666 0.0
C486 C 0.93275 1.00059 0.78998 0.0
H487 H 0.93046 0.97794 0.07775 0.0
H488 H 0.9403 0.97995 0.97691 0.0
H489 H 0.9447 0.99747 0.05211 0.0
H490 H 0.95237 0.02235 0.95256 0.0
H491 H 0.97888 0.02302 0.85904 0.0
H492 H 0.50168 0.83916 0.21611 0.0
H493 H 0.49719 0.86636 0.12854 0.0
H494 H 0.55595 0.87567 0.1248 0.0
H495 H 0.56057 0.8486 0.21111 0.0
H496 H 0.53643 0.90781 0.15431 0.0
H497 H 0.50802 0.87106 0.88433 0.0
H498 H 0.49596 0.86695 0.97841 0.0
H499 H 0.51933 0.85909 0.96707 0.0
C500 C 0.51367 0.84688 0.196 0.0
C501 C 0.5315 0.84163 0.22137 0.0
C502 C 0.51107 0.86246 0.14584 0.0
C503 C 0.52624 0.87307 0.11935 0.0
C504 C 0.544 0.86783 0.14453 0.0
H505 H 0.53758 0.95052 0.72051 0.0
H506 H 0.53843 0.92461 0.81646 0.0
C507 C 0.5466 0.85233 0.19441 0.0
C508 C 0.52385 0.88971 0.06604 0.0
H509 H 0.50949 0.90362 0.87668 0.0
C510 C 0.53043 0.90691 0.09377 0.0
C511 C 0.51623 0.88857 0.98657 0.0
C512 C 0.50961 0.87043 0.95172 0.0
C513 C 0.52972 0.92286 0.04437 0.0
C514 C 0.52199 0.92174 0.9651 0.0
C515 C 0.5153 0.90457 0.93756 0.0
C516 C 0.52159 0.93792 0.90811 0.0
C517 C 0.53782 0.94066 0.07652 0.0
C518 C 0.51185 0.95417 0.92728 0.0
C519 C 0.51139 0.9691 0.87228 0.0
C520 C 0.52057 0.96804 0.7968 0.0
C521 C 0.53037 0.95182 0.77809 0.0
C522 C 0.53082 0.93694 0.83287 0.0
H523 H 0.54696 0.93825 0.12996 0.0
H524 H 0.54587 0.94788 0.02842 0.0
H525 H 0.52647 0.94993 0.09602 0.0
H526 H 0.50436 0.95521 0.98424 0.0
H527 H 0.50363 0.98136 0.88833 0.0
H528 H 0.6977 0.50138 0.16534 0.0
H529 H 0.67181 0.49896 0.06967 0.0
H530 H 0.65055 0.55096 0.1565 0.0
H531 H 0.67687 0.5542 0.247 0.0
H532 H 0.63576 0.49628 0.08714 0.0
H533 H 0.64922 0.56111 0.91945 0.0
H534 H 0.66551 0.55173 0.99147 0.0
H535 H 0.64635 0.56552 0.02621 0.0
C536 C 0.68775 0.51251 0.16313 0.0
C537 C 0.68964 0.52802 0.21463 0.0
C538 C 0.67276 0.511 0.10872 0.0
C539 C 0.65925 0.52494 0.10418 0.0
C540 C 0.66093 0.54021 0.1566 0.0
H541 H 0.54903 0.51053 0.88077 0.0
H542 H 0.57518 0.51181 0.97618 0.0
C543 C 0.67596 0.54185 0.20993 0.0
C544 C 0.64329 0.52353 0.04585 0.0
H545 H 0.61936 0.54774 0.90089 0.0
C546 C 0.63227 0.50749 0.04595 0.0
C547 C 0.63875 0.53796 0.99069 0.0
C548 C 0.65071 0.55494 0.98123 0.0
C549 C 0.61681 0.50562 0.99399 0.0
C550 C 0.61172 0.52047 0.94193 0.0
C551 C 0.62292 0.53638 0.94118 0.0
C552 C 0.59542 0.51965 0.88501 0.0
C553 C 0.60647 0.4875 0.99406 0.0
C554 C 0.59765 0.52433 0.80226 0.0
C555 C 0.58262 0.52415 0.74844 0.0
C556 C 0.56489 0.51905 0.77532 0.0
C557 C 0.56253 0.51438 0.858 0.0
C558 C 0.57757 0.51491 0.91245 0.0
H559 H 0.61527 0.47599 0.01645 0.0
H560 H 0.59443 0.48857 0.0356 0.0
H561 H 0.60141 0.48393 0.93207 0.0
H562 H 0.61113 0.52807 0.77885 0.0
H563 H 0.58498 0.52781 0.68519 0.0
H564 H 0.9854 0.67637 0.24638 0.0
H565 H 0.98607 0.65008 0.15258 0.0
H566 H 0.03596 0.67126 0.04392 0.0
H567 H 0.03553 0.69756 0.13873 0.0
H568 H 0.98567 0.64809 0.98245 0.0
H569 H 0.05024 0.61798 0.10669 0.0
H570 H 0.03744 0.63572 0.15943 0.0
H571 H 0.05215 0.64171 0.07517 0.0
C572 C 0.99653 0.67549 0.20247 0.0
C573 C 1.0105 0.68909 0.20078 0.0
C574 C 0.99686 0.66042 0.14864 0.0
C575 C 1.01126 0.65839 0.092 0.0
C576 C 0.02489 0.67226 0.08806 0.0
H577 H 0.01747 0.58852 0.66602 0.0
H578 H 0.01498 0.61326 0.76631 0.0
C579 C 0.0245 0.68745 0.14167 0.0
C580 C 1.01189 0.64176 0.03744 0.0
H581 H 0.03806 0.60402 0.98691 0.0
C582 C 0.99712 0.63846 0.98369 0.0
C583 C 0.02664 0.6289 0.03972 0.0
C584 C 0.04246 0.63108 0.0988 0.0
C585 C 0.99695 0.62308 0.93086 0.0
C586 C 1.012 0.61059 0.93104 0.0
C587 C 0.02654 0.61357 0.98636 0.0
C588 C 0.01335 0.59508 0.87081 0.0
C589 C 0.98059 0.62027 0.87523 0.0
C590 C 0.01355 0.57641 0.89574 0.0
C591 C 0.01491 0.56205 0.83783 0.0
C592 C 0.01633 0.56613 0.7541 0.0
C593 C 0.01629 0.58482 0.72988 0.0
C594 C 0.0148 0.59905 0.78727 0.0
H595 H 0.96827 0.62793 0.89705 0.0
H596 H 0.98407 0.62545 0.81335 0.0
H597 H 0.97702 0.60538 0.87013 0.0
H598 H 1.01257 0.57296 0.95992 0.0
H599 H 0.01506 0.54784 0.85855 0.0
H600 H 0.99252 0.231 0.23872 0.0
H601 H 0.99739 0.21357 0.3636 0.0
H602 H 0.05146 0.23811 0.3898 0.0
H603 H 0.04649 0.25557 0.26311 0.0
H604 H 0.05395 0.20262 0.3683 0.0
H605 H 1.00184 0.21124 0.60574 0.0
H606 H 0.98984 0.21192 0.51033 0.0
H607 H 1.00688 0.22945 0.53326 0.0
C608 C 1.00505 0.23333 0.27341 0.0
C609 C 0.0192 0.2444 0.24163 0.0
C610 C 1.0078 0.22352 0.34552 0.0
C611 C 0.02479 0.22457 0.38684 0.0
C612 C 0.03819 0.23722 0.3595 0.0
H613 H 0.04118 0.10885 0.52795 0.0
H614 H 0.04854 0.14153 0.55099 0.0
C615 C 0.03537 0.24715 0.28721 0.0
C616 C 0.02995 0.20896 0.44084 0.0
H617 H 1.00753 0.17795 0.56202 0.0
C618 C 0.04437 0.19752 0.41393 0.0
C619 C 0.0178 0.20235 0.50176 0.0
C620 C 1.00337 0.21457 0.53988 0.0
C621 C 0.04482 0.17875 0.43481 0.0
C622 C 0.03062 0.17147 0.48438 0.0
C623 C 0.01813 0.18353 0.52221 0.0
C624 C 0.02569 0.15173 0.47905 0.0
C625 C 0.05896 0.16638 0.39511 0.0
C626 C 1.01044 0.14676 0.43106 0.0
C627 C 1.00632 0.12823 0.41694 0.0
C628 C 0.01734 0.11424 0.4509 0.0
C629 C 0.03262 0.11929 0.4995 0.0
C630 C 0.03672 0.13791 0.51375 0.0
H631 H 0.06926 0.17431 0.35902 0.0
H632 H 0.06638 0.15834 0.44253 0.0
H633 H 0.05195 0.15638 0.35395 0.0
H634 H 1.00197 0.15729 0.4026 0.0
H635 H 0.99468 0.1249 0.37816 0.0
H636 H 0.27179 0.99612 0.30021 0.0
H637 H 0.28759 0.9912 0.43027 0.0
H638 H 0.32045 0.04011 0.38695 0.0
H639 H 0.30404 0.04556 0.26039 0.0
H640 H 0.32078 0.98176 0.42179 0.0
H641 H 0.3223 0.04106 0.62601 0.0
H642 H 0.30431 0.03861 0.55029 0.0
H643 H 0.3256 0.05057 0.52641 0.0
C644 C 0.28172 1.00632 0.32067 0.0
C645 C 0.28701 0.02101 0.26945 0.0
C646 C 0.29077 1.00348 0.39508 0.0
C647 C 0.3053 0.01522 0.41897 0.0
C648 C 0.3091 0.031 0.37166 0.0
H649 H 0.40901 0.01836 0.39993 0.0
H650 H 0.37595 0.02049 0.42429 0.0
C651 C 0.29993 0.03394 0.29808 0.0
C652 C 0.31953 1.00876 0.47769 0.0
H653 H 0.35419 0.02763 0.59124 0.0
C654 C 0.32759 0.99144 0.46238 0.0
C655 C 0.32839 0.02104 0.53241 0.0
C656 C 0.31947 0.03875 0.56016 0.0
C657 C 0.34558 0.98753 0.48837 0.0
C658 C 0.3556 1.00128 0.53042 0.0
C659 C 0.34656 0.0173 0.55704 0.0
C660 C 0.3759 1.00144 0.5261 0.0
C661 C 0.35461 0.96977 0.4614 0.0
C662 C 0.38675 0.99001 0.57569 0.0
C663 C 0.40577 0.98876 0.56191 0.0
C664 C 0.41413 0.99892 0.49832 0.0
C665 C 0.40312 1.01055 0.44999 0.0
C666 C 0.38423 1.01183 0.46397 0.0
H667 H 0.34452 0.95989 0.4347 0.0
H668 H 0.36533 0.97287 0.41491 0.0
H669 H 0.36153 0.96304 0.51403 0.0
H670 H 0.38048 0.98185 0.62371 0.0
H671 H 0.41394 0.97998 0.60138 0.0
H672 H 0.5314 0.269 0.29754 0.0
H673 H 0.54195 0.28615 0.41762 0.0
H674 H 0.49719 0.32482 0.38456 0.0
H675 H 0.4864 0.30736 0.26777 0.0
H676 H 0.55554 0.31736 0.38472 0.0
H677 H 0.50451 0.33229 0.61954 0.0
H678 H 0.50199 0.31245 0.55341 0.0
H679 H 0.4924 0.33462 0.52502 0.0
C680 C 0.52322 0.28051 0.31931 0.0
C681 C 0.50831 0.28713 0.27302 0.0
C682 C 0.52929 0.29037 0.38773 0.0
C683 C 0.52053 0.30694 0.41016 0.0
C684 C 0.5041 0.31197 0.37018 0.0
H685 H 0.55036 0.41052 0.33429 0.0
H686 H 0.5484 0.37707 0.34765 0.0
C687 C 0.49799 0.30207 0.3025 0.0
C688 C 0.53075 0.32142 0.45592 0.0
H689 H 0.52123 0.36059 0.56307 0.0
C690 C 0.5483 0.32642 0.42651 0.0
C691 C 0.52187 0.33315 0.51262 0.0
C692 C 0.50424 0.32763 0.55494 0.0
C693 C 0.55573 0.34395 0.44204 0.0
C694 C 0.54515 0.35688 0.4863 0.0
C695 C 0.52905 0.35092 0.52626 0.0
C696 C 0.54873 0.377 0.47994 0.0
C697 C 0.57427 0.34883 0.40608 0.0
C698 C 0.54934 0.38817 0.54969 0.0
C699 C 0.55011 0.40741 0.54209 0.0
C700 C 0.55008 0.41583 0.46455 0.0
C701 C 0.55016 0.40453 0.39489 0.0
C702 C 0.54935 0.38535 0.40253 0.0
H703 H 0.58352 0.33659 0.40615 0.0
H704 H 0.57242 0.35317 0.34162 0.0
H705 H 0.58108 0.36022 0.44021 0.0
H706 H 0.54867 0.38198 0.60981 0.0
H707 H 0.54989 0.41571 0.59692 0.0
H708 H 0.25755 0.55218 0.2594 0.0
H709 H 0.24028 0.56349 0.3777 0.0
H710 H 0.21092 0.51157 0.3895 0.0
H711 H 0.22836 0.50025 0.27344 0.0
H712 H 0.20568 0.56814 0.34544 0.0
H713 H 0.20711 0.52614 0.62298 0.0
H714 H 0.22598 0.5259 0.5507 0.0
H715 H 0.2065 0.51051 0.53849 0.0
C716 C 0.2481 0.54289 0.29024 0.0
C717 C 0.24398 0.52549 0.25688 0.0
C718 C 0.23826 0.54935 0.35788 0.0
C719 C 0.22425 0.53844 0.39277 0.0
C720 C 0.22185 0.52019 0.36525 0.0
H721 H 0.11893 0.52138 0.42502 0.0
H722 H 0.15206 0.52409 0.44508 0.0
C723 C 0.23165 0.51377 0.29795 0.0
C724 C 0.20885 0.54719 0.43797 0.0
H725 H 0.17528 0.53476 0.57291 0.0
C726 C 0.19934 0.56143 0.39759 0.0
C727 C 0.20065 0.5387 0.50672 0.0
C728 C 0.21078 0.52461 0.5575 0.0
C729 C 0.18081 0.56519 0.41517 0.0
C730 C 0.17179 0.55473 0.47635 0.0
C731 C 0.18212 0.5425 0.52486 0.0
C732 C 0.15144 0.55311 0.47723 0.0
C733 C 0.17053 0.57868 0.36139 0.0
C734 C 0.13999 0.56847 0.49005 0.0
C735 C 0.12098 0.56709 0.47601 0.0
C736 C 0.11314 0.55027 0.44995 0.0
C737 C 0.12457 0.5347 0.442 0.0
C738 C 0.1435 0.53614 0.45511 0.0
H739 H 0.1793 0.58429 0.31154 0.0
H740 H 0.1583 0.5719 0.33352 0.0
H741 H 0.16564 0.59048 0.39868 0.0
H742 H 0.14582 0.58162 0.50836 0.0
H743 H 0.11253 0.5793 0.48349 0.0
H744 H 0.0723 0.79752 0.18424 0.0
H745 H 0.0773 0.81776 0.06748 0.0
H746 H 0.03428 0.78942 0.93522 0.0
H747 H 0.02867 0.76958 0.0536 0.0
H748 H 0.07991 0.82212 0.89335 0.0
H749 H 1.00993 0.83712 0.01972 0.0
H750 H 0.02526 0.82091 0.06801 0.0
H751 H 0.01341 0.81471 0.97547 0.0
C752 C 0.06451 0.79502 0.12882 0.0
C753 C 0.04961 0.78256 0.12882 0.0
C754 C 0.06746 0.80653 0.06182 0.0
C755 C 0.05564 0.80553 0.99416 0.0
C756 C 0.04324 0.79064 0.98788 0.0
H757 H 0.01966 0.91289 0.82284 0.0
H758 H 0.02452 0.87953 0.81145 0.0
C759 C 0.04011 0.77925 0.05549 0.0
C760 C 0.0527 0.82259 0.94614 0.0
H761 H 0.02372 0.85963 0.94113 0.0
C762 C 0.06744 0.83018 0.90168 0.0
C763 C 0.03645 0.83316 0.9578 0.0
C764 C 0.02037 0.8262 0.00815 0.0
C765 C 0.06669 0.84842 0.87199 0.0
C766 C 0.05095 0.85933 0.88875 0.0
C767 C 0.03577 0.85125 0.92807 0.0
C768 C 0.05051 0.87964 0.87683 0.0
C769 C 0.08295 0.85595 0.82513 0.0
C770 C 0.06375 0.8909 0.91532 0.0
C771 C 0.0611 0.90999 0.92084 0.0
C772 C 0.04494 0.91801 0.88976 0.0
C773 C 0.03213 0.90692 0.84805 0.0
C774 C 0.03497 0.88793 0.84098 0.0
H775 H 0.08994 0.84479 0.79035 0.0
H776 H 0.07873 0.86702 0.78204 0.0
H777 H 0.09316 0.86175 0.86872 0.0
H778 H 0.07556 0.88483 0.94566 0.0
H779 H 0.07112 0.91832 0.95338 0.0
H780 H 0.7168 0.99177 0.0944 0.0
H781 H 0.69977 1.00313 0.97742 0.0
H782 H 0.74148 0.04488 0.93673 0.0
H783 H 0.75827 0.0338 0.0572 0.0
H784 H 0.71103 0.06091 0.95909 0.0
H785 H 0.69448 1.00683 0.73962 0.0
H786 H 0.69085 0.99645 0.83729 0.0
H787 H 0.7137 1.00435 0.80922 0.0
C788 C 0.72269 1.00293 0.05864 0.0
C789 C 0.73861 1.01215 0.08545 0.0
C790 C 0.71307 1.0093 0.99069 0.0
C791 C 0.71931 0.02489 0.94741 0.0
C792 C 0.73638 0.03282 0.96887 0.0
H793 H 0.61246 0.05397 0.74782 0.0
H794 H 0.64599 0.05259 0.7328 0.0
C795 C 0.746 0.02646 0.03754 0.0
C796 C 0.70586 0.03515 0.89612 0.0
H797 H 0.66691 0.02585 0.7871 0.0
C798 C 0.7018 0.05345 0.91863 0.0
C799 C 0.69402 0.02598 0.84055 0.0
C800 C 0.69872 1.00739 0.80477 0.0
C801 C 0.68485 0.06152 0.89822 0.0
C802 C 0.67154 0.05083 0.85632 0.0
C803 C 0.67681 0.03382 0.82223 0.0
C804 C 0.65159 0.0551 0.86204 0.0
C805 C 0.68088 0.08089 0.92714 0.0
C806 C 0.64356 0.05723 0.93951 0.0
C807 C 0.62446 0.05801 0.9483 0.0
C808 C 0.61289 0.0564 0.8799 0.0
C809 C 0.62095 0.05525 0.80185 0.0
C810 C 0.64014 0.05444 0.79305 0.0
H811 H 0.6935 0.08959 0.92313 0.0
H812 H 0.66973 0.08749 0.89091 0.0
H813 H 0.67668 0.08048 0.99224 0.0
H814 H 0.65202 0.05726 0.99402 0.0
H815 H 0.61874 0.0592 0.00911 0.0
H816 H 0.47429 0.73574 0.14741 0.0
H817 H 0.47096 0.71723 0.02411 0.0
H818 H 0.5205 0.74173 0.92592 0.0
H819 H 0.52426 0.75986 0.05076 0.0
H820 H 0.47382 0.71564 0.84571 0.0
H821 H 0.53598 0.69036 0.01429 0.0
H822 H 0.52115 0.7078 0.0568 0.0
H823 H 0.53652 0.71348 0.9744 0.0
C824 C 0.484 0.7378 0.09792 0.0
C825 C 0.49986 0.74868 0.10946 0.0
C826 C 0.48201 0.72733 0.02713 0.0
C827 C 0.49582 0.72771 0.96729 0.0
C828 C 0.50986 0.74107 0.97226 0.0
H829 H 0.52068 0.61613 0.81545 0.0
H830 H 0.52209 0.6497 0.80049 0.0
C831 C 0.51197 0.75145 0.04361 0.0
C832 C 0.49833 0.71093 0.91722 0.0
H833 H 0.52154 0.6701 0.92674 0.0
C834 C 0.48456 0.70581 0.86128 0.0
C835 C 0.51238 0.69813 0.93777 0.0
C836 C 0.52733 0.70257 -0.00072 0.0
C837 C 0.48381 0.68779 0.82941 0.0
C838 C 0.49686 0.67457 0.85617 0.0
C839 C 0.5115 0.68021 0.90636 0.0
C840 C 0.49432 0.6544 0.8446 0.0
C841 C 0.46873 0.68294 0.76967 0.0
C842 C 0.47808 0.64579 0.87236 0.0
C843 C 0.47718 0.62657 0.87995 0.0
C844 C 0.49266 0.6157 0.86186 0.0
C845 C 0.50865 0.62425 0.83125 0.0
C846 C 0.50939 0.64339 0.82171 0.0
H847 H 0.46524 0.69504 0.73081 0.0
H848 H 0.47276 0.67123 0.72971 0.0
H849 H 0.45609 0.67904 0.80382 0.0
H850 H 0.46648 0.65395 0.89307 0.0
H851 H 0.46474 0.62031 0.90412 0.0
H852 H 0.77592 0.53719 0.05436 0.0
H853 H 0.79337 0.53741 0.92647 0.0
H854 H 0.81538 0.48357 0.98523 0.0
H855 H 0.79764 0.48316 0.1107 0.0
H856 H 0.82837 0.53946 0.95117 0.0
H857 H 0.81935 0.48099 0.74413 0.0
H858 H 0.80124 0.48802 0.81332 0.0
H859 H 0.81873 0.47178 0.84543 0.0
C860 C 0.78372 0.52502 0.03749 0.0
C861 C 0.78581 0.5103 0.0927 0.0
C862 C 0.79367 0.52514 0.96438 0.0
C863 C 0.80578 0.51056 0.94601 0.0
C864 C 0.80594 0.49486 0.99662 0.0
H865 H 0.9096 0.48037 0.93671 0.0
H866 H 0.87649 0.48497 0.9198 0.0
C867 C 0.79599 0.49472 0.06925 0.0
C868 C 0.82183 0.51368 0.89172 0.0
H869 H 0.85251 0.48825 0.78157 0.0
C870 C 0.83339 0.52867 0.91106 0.0
C871 C 0.82836 0.49982 0.83835 0.0
C872 C 0.81609 0.48439 0.80863 0.0
C873 C 0.85209 0.52861 0.88966 0.0
C874 C 0.85921 0.51333 0.84618 0.0
C875 C 0.84708 0.49972 0.81674 0.0
C876 C 0.87922 0.50953 0.84514 0.0
C877 C 0.86442 0.54383 0.92179 0.0
C878 C 0.89172 0.5217 0.80797 0.0
C879 C 0.91068 0.51911 0.81759 0.0
C880 C 0.91746 0.50429 0.8646 0.0
C881 C 0.90487 0.49181 0.89957 0.0
C882 C 0.88594 0.4944 0.88975 0.0
H883 H 0.85693 0.55354 0.96242 0.0
H884 H 0.8762 0.53788 0.95634 0.0
H885 H 0.87009 0.55188 0.86987 0.0
H886 H 0.88682 0.53345 0.77334 0.0
H887 H 0.92003 0.52873 0.7882 0.0
H888 H 0.04405 0.22835 0.89942 0.0
H889 H 0.04476 0.19836 0.82799 0.0
H890 H 0.9917 0.18456 0.93059 0.0
H891 H 0.99095 0.21435 0.00062 0.0
H892 H 0.04539 0.1645 0.89836 0.0
H893 H 0.98432 0.16774 0.69818 0.0
H894 H 0.99423 0.18807 0.74474 0.0
H895 H 0.97837 0.1737 0.80107 0.0
C896 C 0.03228 0.21915 0.90418 0.0
C897 C 0.01732 0.22385 0.95467 0.0
C898 C 0.03276 0.20191 0.86406 0.0
C899 C 0.01819 0.1891 0.87286 0.0
C900 C 1.00295 0.1942 0.92081 0.0
H901 H 0.02364 0.06882 0.86529 0.0
H902 H 0.02457 0.10175 0.89836 0.0
C903 C 1.00253 0.21129 0.96104 0.0
C904 C 0.01945 0.16983 0.83884 0.0
H905 H 0.99492 0.13716 0.73311 0.0
C906 C 0.03444 0.15861 0.86137 0.0
C907 C 1.00545 0.16204 0.78895 0.0
C908 C 0.9898 0.17358 0.75605 0.0
C909 C 0.03541 0.13979 0.83883 0.0
C910 C 0.02064 0.1316 0.79457 0.0
C911 C 1.00609 0.14309 0.76865 0.0
C912 C 0.02001 0.11125 0.77457 0.0
C913 C 0.05245 0.12904 0.86192 0.0
C914 C 0.01631 0.10523 0.69459 0.0
C915 C 0.01561 0.08629 0.6755 0.0
C916 C 0.01836 0.07272 0.73613 0.0
C917 C 0.02171 0.07875 0.81653 0.0
C918 C 0.02241 0.09771 0.8355 0.0
H919 H 0.06461 0.1383 0.86861 0.0
H920 H 0.05016 0.12217 0.92164 0.0
H921 H 0.05575 0.11832 0.81575 0.0
H922 H 0.01395 0.11523 0.64663 0.0
H923 H 1.01278 0.08231 0.61308 0.0
H924 H 0.31596 0.04986 0.02091 0.0
H925 H 0.34566 0.04877 0.9502 0.0
H926 H 0.33241 0.99453 0.85829 0.0
H927 H 0.30251 0.99561 0.92955 0.0
H928 H 0.36637 0.9956 0.93569 0.0
H929 H 0.36236 0.05279 0.71275 0.0
H930 H 0.35587 0.05997 0.81357 0.0
H931 H 0.34216 0.04299 0.76079 0.0
C932 C 0.31911 0.03794 0.98344 0.0
C933 C 0.30674 0.02291 0.98015 0.0
C934 C 0.33615 0.03732 0.94291 0.0
C935 C 0.34138 0.02162 0.89811 0.0
C936 C 0.32873 1.00686 0.89197 0.0
H937 H 0.4477 0.01883 0.63508 0.0
H938 H 0.41482 0.01896 0.66928 0.0
C939 C 0.31154 1.00755 0.93203 0.0
C940 C 0.36066 0.02004 0.86511 0.0
H941 H 0.39286 0.04245 0.748 0.0
C942 C 0.37208 1.00576 0.89399 0.0
C943 C 0.36821 0.03304 0.80953 0.0
C944 C 0.35647 0.04795 0.77162 0.0
C945 C 0.39086 1.00459 0.87184 0.0
C946 C 0.39874 0.01832 0.82065 0.0
C947 C 0.3871 0.03211 0.78863 0.0
C948 C 0.41897 0.01863 0.79995 0.0
C949 C 0.40202 0.98847 0.90309 0.0
C950 C 0.43253 0.01899 0.86163 0.0
C951 C 0.45143 0.01903 0.84212 0.0
C952 C 0.45734 0.01879 0.76028 0.0
C953 C 0.44375 0.01882 0.69868 0.0
C954 C 0.42486 0.01888 0.71821 0.0
H955 H 0.39304 0.97651 0.91871 0.0
H956 H 0.41236 0.98392 0.8574 0.0
H957 H 0.40942 0.99268 0.95942 0.0
H958 H 0.4285 0.01936 0.92521 0.0
H959 H 0.46142 0.01915 0.89134 0.0
H960 H 0.53518 0.31924 0.0543 0.0
H961 H 0.53545 0.34878 0.9832 0.0
H962 H 0.49076 0.33024 0.82941 0.0
H963 H 0.48978 0.30075 0.90453 0.0
H964 H 0.54099 0.36157 0.83935 0.0
H965 H 0.46789 0.37611 0.91716 0.0
H966 H 0.48005 0.3564 0.95742 0.0
H967 H 0.47093 0.35591 0.85521 0.0
C968 C 0.52546 0.32135 0.00488 0.0
C969 C 0.51221 0.30771 0.98631 0.0
C970 C 0.52566 0.33832 0.96392 0.0
C971 C 0.51274 0.34218 0.9023 0.0
C972 C 0.50047 0.32798 0.87863 0.0
H973 H 0.51974 0.44689 0.62578 0.0
H974 H 0.51887 0.4141 0.66351 0.0
C975 C 0.50012 0.31095 0.92059 0.0
C976 C 0.51191 0.36132 0.86665 0.0
H977 H 0.48368 0.39893 0.84168 0.0
C978 C 0.52837 0.36962 0.83915 0.0
C979 C 0.49559 0.37218 0.86797 0.0
C980 C 0.47765 0.36481 0.90172 0.0
C981 C 0.52903 0.38829 0.81444 0.0
C982 C 0.51268 0.39896 0.81434 0.0
C983 C 0.49617 0.39069 0.8407 0.0
C984 C 0.51266 0.41894 0.79065 0.0
C985 C 0.54743 0.39687 0.79377 0.0
C986 C 0.50891 0.43266 0.84897 0.0
C987 C 0.50923 0.45147 0.82756 0.0
C988 C 0.51322 0.45704 0.74707 0.0
C989 C 0.51671 0.44322 0.68847 0.0
C990 C 0.51634 0.42442 0.70999 0.0
H991 H 0.55908 0.38712 0.80293 0.0
H992 H 0.54746 0.40145 0.72939 0.0
H993 H 0.54976 0.4093 0.83216 0.0
H994 H 0.50593 0.42882 0.9115 0.0
H995 H 0.50641 0.46164 0.87436 0.0
H996 H 0.23141 0.53425 0.89273 0.0
H997 H 0.20153 0.53493 0.82052 0.0
H998 H 0.18167 0.49066 0.97326 0.0
H999 H 0.21129 0.48988 0.04475 0.0
H1000 H 0.1772 0.50561 0.7397 0.0
H1001 H 0.14735 0.53652 0.01973 0.0
H1002 H 0.17187 0.53621 -8e-05 0.0
H1003 H 0.16041 0.51574 0.03615 0.0
C1004 C 0.22087 0.52428 0.90898 0.0
C1005 C 0.22374 0.51206 0.97479 0.0
C1006 C 0.20373 0.52476 0.8681 0.0
C1007 C 0.18917 0.51308 0.89245 0.0
C1008 C 0.19254 0.5 0.95402 0.0
H1009 H 0.07119 0.50094 0.84183 0.0
H1010 H 0.10384 0.50073 0.87884 0.0
C1011 C 0.20955 0.4995 0.99462 0.0
C1012 C 0.17002 0.51537 0.85937 0.0
H1013 H 0.12622 0.52673 0.91851 0.0
C1014 C 0.16604 0.51035 0.77842 0.0
C1015 C 0.15544 0.52167 0.9096 0.0
C1016 C 0.15892 0.52801 0.996 0.0
C1017 C 0.14777 0.51058 0.7478 0.0
C1018 C 0.13303 0.51641 0.79902 0.0
C1019 C 0.13727 0.52204 0.87907 0.0
C1020 C 0.11307 0.51617 0.77309 0.0
C1021 C 0.14444 0.50382 0.66196 0.0
C1022 C 0.107 0.525 0.70126 0.0
C1023 C 0.08823 0.52484 0.6792 0.0
C1024 C 0.0749 0.51628 0.72933 0.0
C1025 C 0.08095 0.50774 0.80172 0.0
C1026 C 0.09972 0.50762 0.823 0.0
H1027 H 0.15594 0.49499 0.64 0.0
H1028 H 0.13139 0.4958 0.65772 0.0
H1029 H 0.14345 0.51588 0.62036 0.0
H1030 H 0.1167 0.53226 0.66255 0.0
H1031 H 0.08412 0.53168 0.62333 0.0
H1032 H 0.99325 0.80574 0.36724 0.0
H1033 H 0.98937 0.83695 0.42526 0.0
H1034 H 0.04783 0.83981 0.47247 0.0
H1035 H 0.05171 0.80889 0.41433 0.0
H1036 H 0.99936 0.85533 0.57844 0.0
H1037 H 0.03803 0.88322 0.31336 0.0
H1038 H 0.029 0.85995 0.31572 0.0
H1039 H 0.05 0.86548 0.3689 0.0
C1040 C 1.00513 0.8128 0.39263 0.0
C1041 C 0.02277 0.80479 0.38671 0.0
C1042 C 1.00295 0.83071 0.42513 0.0
C1043 C 0.01837 0.84097 0.45183 0.0
C1044 C 0.03575 0.8324 0.4511 0.0
H1045 H 0.02364 0.94723 0.7088 0.0
H1046 H 0.02432 0.91458 0.67023 0.0
C1047 C 0.03793 0.81461 0.41866 0.0
C1048 C 0.01669 0.86097 0.47485 0.0
H1049 H 0.03132 0.90428 0.41982 0.0
C1050 C 1.00629 0.86604 0.54364 0.0
C1051 C 0.0255 0.87508 0.42897 0.0
C1052 C 0.03613 0.87076 0.35217 0.0
C1053 C 1.00483 0.88469 0.56864 0.0
C1054 C 0.01418 0.89875 0.52428 0.0
C1055 C 0.02424 0.89365 0.45451 0.0
C1056 C 0.01366 0.91881 0.54836 0.0
C1057 C 0.99295 0.88916 0.64155 0.0
C1058 C 1.00813 0.93242 0.49196 0.0
C1059 C 1.00804 0.95125 0.51332 0.0
C1060 C 0.01347 0.95704 0.59181 0.0
C1061 C 0.01915 0.9434 0.64804 0.0
C1062 C 0.01938 0.9246 0.62634 0.0
H1063 H 0.98267 0.87807 0.65361 0.0
H1064 H 1.00184 0.89045 0.69641 0.0
H1065 H 0.98551 0.90242 0.63278 0.0
H1066 H 1.00378 0.92846 0.43117 0.0
H1067 H 1.0036 0.96125 0.46822 0.0
H1068 H 0.71973 0.9797 0.38833 0.0
H1069 H 0.68978 0.98115 0.45847 0.0
H1070 H 0.69162 0.04068 0.44811 0.0
H1071 H 0.72132 0.03917 0.37643 0.0
H1072 H 0.67466 0.99733 0.59835 0.0
H1073 H 0.64518 0.02897 0.31875 0.0
H1074 H 0.66806 0.01921 0.3214 0.0
H1075 H 0.6639 0.04187 0.36256 0.0
C1076 C 0.71403 0.99308 0.40377 0.0
C1077 C 0.72301 1.00932 0.37812 0.0
C1078 C 0.69682 0.99392 0.44326 0.0
C1079 C 0.68814 1.01102 0.45723 0.0
C1080 C 0.69776 0.02729 0.43673 0.0
H1081 H 0.58321 0.02446 0.72668 0.0
H1082 H 0.61583 0.02357 0.68832 0.0
C1083 C 0.7149 0.02645 0.39689 0.0
C1084 C 0.66854 1.01176 0.48678 0.0
H1085 H 0.62527 0.02613 0.4318 0.0
C1086 C 0.66385 1.00364 0.56198 0.0
C1087 C 0.65427 0.01973 0.43905 0.0
C1088 C 0.65801 0.02779 0.35562 0.0
C1089 C 0.64545 1.00332 0.59067 0.0
C1090 C 0.63122 1.01163 0.54355 0.0
C1091 C 0.636 0.01976 0.46842 0.0
C1092 C 0.61124 1.01169 0.56896 0.0
C1093 C 0.64146 0.99353 0.67007 0.0
C1094 C 0.59745 1.00567 0.51445 0.0
C1095 C 0.57869 1.00634 0.53585 0.0
C1096 C 0.5731 1.01307 0.61254 0.0
C1097 C 0.58689 0.01909 0.66723 0.0
C1098 C 0.60567 0.01848 0.64554 0.0
H1099 H 0.65235 0.98327 0.68506 0.0
H1100 H 0.64112 1.00383 0.7202 0.0
H1101 H 0.62794 0.98629 0.66806 0.0
H1102 H 0.60119 1.00039 0.4549 0.0
H1103 H 0.56856 1.00156 0.49201 0.0
H1104 H 0.53357 0.70998 0.27893 0.0
H1105 H 0.53458 0.67989 0.34586 0.0
H1106 H 0.50567 0.70241 0.55308 0.0
H1107 H 0.50421 0.73275 0.48428 0.0
H1108 H 0.54883 0.66665 0.48481 0.0
H1109 H 0.47245 0.65948 0.49612 0.0
H1110 H 0.48362 0.67793 0.44078 0.0
H1111 H 0.48176 0.67897 0.55011 0.0
C1112 C 0.5276 0.70861 0.33926 0.0
C1113 C 0.51868 0.72374 0.376 0.0
C1114 C 0.52817 0.69134 0.37757 0.0
C1115 C 0.51983 0.68859 0.45392 0.0
C1116 C 0.51181 0.70396 0.49324 0.0
H1117 H 0.50382 0.58198 0.7062 0.0
H1118 H 0.50412 0.61487 0.67016 0.0
C1119 C 0.51121 0.72139 0.45452 0.0
C1120 C 0.51926 0.66945 0.48942 0.0
H1121 H 0.48992 0.63428 0.54339 0.0
C1122 C 0.53592 0.65964 0.49796 0.0
C1123 C 0.50247 0.66016 0.50725 0.0
C1124 C 0.48403 0.66957 0.49761 0.0
C1125 C 0.53624 0.64093 0.5221 0.0
C1126 C 0.51943 0.63146 0.53672 0.0
C1127 C 0.50281 0.64141 0.53129 0.0
C1128 C 0.51882 0.61123 0.55686 0.0
C1129 C 0.55467 0.63153 0.53235 0.0
C1130 C 0.52629 0.59797 0.50347 0.0
C1131 C 0.52578 0.57904 0.52295 0.0
C1132 C 0.51791 0.5729 0.59667 0.0
C1133 C 0.51021 0.58618 0.64944 0.0
C1134 C 0.51043 0.60504 0.62914 0.0
H1135 H 0.56594 0.64172 0.54264 0.0
H1136 H 0.55444 0.62167 0.58433 0.0
H1137 H 0.55796 0.62372 0.47599 0.0
H1138 H 0.53241 0.60224 0.4462 0.0
H1139 H 0.53173 0.56924 0.48056 0.0
H1140 H 0.81193 0.48462 0.36132 0.0
H1141 H 0.84248 0.48491 0.42537 0.0
H1142 H 0.83767 0.54365 0.46481 0.0
H1143 H 0.80679 0.54316 0.40314 0.0
H1144 H 0.87162 0.50134 0.3674 0.0
H1145 H 0.8606 0.52946 0.67724 0.0
H1146 H 0.84184 0.52121 0.61475 0.0
H1147 H 0.85114 0.54406 0.59949 0.0
C1148 C 0.8171 0.49745 0.38672 0.0
C1149 C 0.80676 0.5138 0.37865 0.0
C1150 C 0.83469 0.49766 0.4226 0.0
C1151 C 0.84258 0.51428 0.4508 0.0
C1152 C 0.83191 0.53053 0.44578 0.0
H1153 H 0.9624 0.5321 0.4695 0.0
H1154 H 0.92958 0.53164 0.43403 0.0
C1155 C 0.81416 0.53026 0.41061 0.0
C1156 C 0.86247 0.51477 0.47741 0.0
H1157 H 0.89181 0.52925 0.62866 0.0
C1158 C 0.87594 0.50732 0.42502 0.0
C1159 C 0.86835 0.52238 0.55288 0.0
C1160 C 0.85472 0.52956 0.6147 0.0
C1161 C 0.89487 0.50746 0.44507 0.0
C1162 C 0.90084 0.51578 0.51886 0.0
C1163 C 0.88738 0.52299 0.57193 0.0
C1164 C 0.92089 0.51685 0.54235 0.0
C1165 C 0.90825 0.49828 0.3874 0.0
C1166 C 0.92712 0.50934 0.61662 0.0
C1167 C 0.94593 0.50988 0.63786 0.0
C1168 C 0.9591 0.51787 0.58511 0.0
C1169 C 0.95278 0.52567 0.51142 0.0
C1170 C 0.93395 0.5253 0.49072 0.0
H1171 H 0.90122 0.48799 0.34774 0.0
H1172 H 0.91451 0.50893 0.34723 0.0
H1173 H 0.91949 0.4912 0.42121 0.0
H1174 H 0.91745 0.50269 0.65763 0.0
H1175 H 0.95017 0.50371 0.69511 0.0
loop_
_geom_bond_atom_site_label_1
_geom_bond_atom_site_label_2
_geom_bond_distance
_geom_bond_site_symmetry_2
_ccdc_geom_bond_type
H0 C1 0.949 . S
C1 H0 0.949 . S
C1 C2 1.395 . S
C1 C3 1.391 . S
C2 C1 1.395 . S
C2 C5 1.390 . S
C3 C1 1.391 . S
C3 C7 1.387 . S
C3 C8 1.491 . S
H4 C5 0.950 . S
C5 C2 1.390 . S
C5 H4 0.950 . S
C5 C6 1.378 . S
C6 C5 1.378 . S
C6 C7 1.409 . S
C7 C3 1.387 . S
C7 C6 1.409 . S
C7 H9 0.951 . S
C8 C3 1.491 . S
C8 C10 1.382 . S
C8 C12 1.404 . S
H9 C7 0.951 . S
C10 C8 1.382 . S
C10 C11 1.390 . S
C10 H15 0.949 . S
C11 C10 1.390 . S
C11 C16 1.399 . S
C12 C8 1.404 . S
C12 H13 0.950 . S
C12 C14 1.375 . S
H13 C12 0.950 . S
C14 C12 1.375 . S
C14 C16 1.382 . S
C14 H18 0.950 . S
H15 C10 0.949 . S
C16 C11 1.399 . S
C16 C14 1.382 . S
C16 H17 0.952 . S
H17 C16 0.952 . S
H18 C14 0.950 . S
H19 C20 0.949 . S
C20 H19 0.949 . S
C20 C21 1.395 . S
C20 C22 1.391 . S
C21 C20 1.395 . S
C21 C24 1.390 . S
C22 C20 1.391 . S
C22 C26 1.387 . S
C22 C27 1.491 . S
H23 C24 0.949 1_455 S
C24 C21 1.390 . S
C24 H23 0.949 1_655 S
C24 C25 1.378 . S
C25 C24 1.378 . S
C25 C26 1.409 . S
C26 C22 1.387 . S
C26 C25 1.409 . S
C26 H28 0.951 . S
C27 C22 1.491 . S
C27 C29 1.382 . S
C27 C31 1.404 . S
H28 C26 0.951 . S
C29 C27 1.382 . S
C29 C30 1.390 . S
C29 H34 0.949 1_655 S
C30 C29 1.390 . S
C30 C35 1.399 . S
C31 C27 1.404 . S
C31 H32 0.950 . S
C31 C33 1.375 . S
H32 C31 0.950 . S
C33 C31 1.375 . S
C33 C35 1.382 . S
C33 H37 0.950 . S
H34 C29 0.949 1_455 S
C35 C30 1.399 . S
C35 C33 1.382 . S
C35 H36 0.952 . S
H36 C35 0.952 . S
H37 C33 0.950 . S
H38 C39 0.949 . S
C39 H38 0.949 . S
C39 C40 1.395 . S
C39 C41 1.391 . S
C40 C39 1.395 . S
C40 C43 1.390 . S
C41 C39 1.391 . S
C41 C45 1.387 . S
C41 C46 1.491 . S
H42 C43 0.950 . S
C43 C40 1.390 . S
C43 H42 0.950 . S
C43 C44 1.378 . S
C44 C43 1.378 . S
C44 C45 1.409 . S
C45 C41 1.387 . S
C45 C44 1.409 . S
C45 H47 0.951 . S
C46 C41 1.491 . S
C46 C48 1.382 . S
C46 C50 1.404 . S
H47 C45 0.951 . S
C48 C46 1.382 . S
C48 C49 1.390 . S
C48 H53 0.949 1_565 S
C49 C48 1.390 . S
C49 C54 1.399 . S
C50 C46 1.404 . S
C50 H51 0.950 . S
C50 C52 1.375 . S
H51 C50 0.950 . S
C52 C50 1.375 . S
C52 C54 1.382 . S
C52 H56 0.950 . S
H53 C48 0.949 1_545 S
C54 C49 1.399 . S
C54 C52 1.382 . S
C54 H55 0.952 . S
H55 C54 0.952 . S
H56 C52 0.950 . S
H57 C58 0.949 . S
C58 H57 0.949 . S
C58 C59 1.395 . S
C58 C60 1.391 . S
C59 C58 1.395 . S
C59 C62 1.390 . S
C60 C58 1.391 . S
C60 C64 1.387 . S
C60 C65 1.491 . S
H61 C62 0.950 . S
C62 C59 1.390 . S
C62 H61 0.950 . S
C62 C63 1.378 . S
C63 C62 1.378 . S
C63 C64 1.409 . S
C64 C60 1.387 . S
C64 C63 1.409 . S
C64 H66 0.951 . S
C65 C60 1.491 . S
C65 C67 1.382 . S
C65 C69 1.404 . S
H66 C64 0.951 . S
C67 C65 1.382 . S
C67 C68 1.390 . S
C67 H72 0.949 . S
C68 C67 1.390 . S
C68 C73 1.399 . S
C69 C65 1.404 . S
C69 H70 0.950 . S
C69 C71 1.375 . S
H70 C69 0.950 . S
C71 C69 1.375 . S
C71 C73 1.382 . S
C71 H75 0.950 . S
H72 C67 0.949 . S
C73 C68 1.399 . S
C73 C71 1.382 . S
C73 H74 0.952 . S
H74 C73 0.952 . S
H75 C71 0.950 . S
H76 C77 0.949 . S
C77 H76 0.949 . S
C77 C78 1.395 . S
C77 C79 1.391 1_554 S
C78 C77 1.395 . S
C78 C81 1.390 1_554 S
C79 C77 1.391 1_556 S
C79 C83 1.387 . S
C79 C84 1.491 . S
H80 C81 0.950 . S
C81 C78 1.390 1_556 S
C81 H80 0.950 . S
C81 C82 1.378 . S
C82 C81 1.378 . S
C82 C83 1.409 . S
C83 C79 1.387 . S
C83 C82 1.409 . S
C83 H85 0.951 . S
C84 C79 1.491 . S
C84 C86 1.382 1_556 S
C84 C88 1.404 . S
H85 C83 0.951 . S
C86 C84 1.382 1_554 S
C86 C87 1.390 . S
C86 H91 0.949 . S
C87 C86 1.390 . S
C87 C92 1.399 1_554 S
C88 C84 1.404 . S
C88 H89 0.950 . S
C88 C90 1.375 . S
H89 C88 0.950 . S
C90 C88 1.375 . S
C90 C92 1.382 . S
C90 H94 0.950 . S
H91 C86 0.949 . S
C92 C87 1.399 1_556 S
C92 C90 1.382 . S
C92 H93 0.952 . S
H93 C92 0.952 . S
H94 C90 0.950 . S
H95 C96 0.949 . S
C96 H95 0.949 . S
C96 C97 1.395 . S
C96 C98 1.391 1_554 S
C97 C96 1.395 . S
C97 C100 1.390 1_554 S
C98 C96 1.391 1_556 S
C98 C102 1.387 . S
C98 C103 1.491 . S
H99 C100 0.950 . S
C100 C97 1.390 1_556 S
C100 H99 0.950 . S
C100 C101 1.378 . S
C101 C100 1.378 . S
C101 C102 1.409 . S
C102 C98 1.387 . S
C102 C101 1.409 . S
C102 H104 0.951 . S
C103 C98 1.491 . S
C103 C105 1.382 1_556 S
C103 C107 1.404 1_455 S
H104 C102 0.951 . S
C105 C103 1.382 1_554 S
C105 C106 1.390 . S
C105 H110 0.949 . S
C106 C105 1.390 . S
C106 C111 1.399 1_454 S
C107 C103 1.404 1_655 S
C107 H108 0.950 . S
C107 C109 1.375 . S
H108 C107 0.950 . S
C109 C107 1.375 . S
C109 C111 1.382 . S
C109 H113 0.950 . S
H110 C105 0.949 . S
C111 C106 1.399 1_656 S
C111 C109 1.382 . S
C111 H112 0.952 . S
H112 C111 0.952 . S
H113 C109 0.950 . S
H114 C115 0.949 . S
C115 H114 0.949 . S
C115 C116 1.395 . S
C115 C117 1.391 1_554 S
C116 C115 1.395 . S
C116 C119 1.390 1_554 S
C117 C115 1.391 1_556 S
C117 C121 1.387 . S
C117 C122 1.491 . S
H118 C119 0.950 . S
C119 C116 1.390 1_556 S
C119 H118 0.950 . S
C119 C120 1.378 . S
C120 C119 1.378 . S
C120 C121 1.409 . S
C121 C117 1.387 . S
C121 C120 1.409 . S
C121 H123 0.951 . S
C122 C117 1.491 . S
C122 C124 1.382 1_556 S
C122 C126 1.404 1_545 S
H123 C121 0.951 . S
C124 C122 1.382 1_554 S
C124 C125 1.390 . S
C124 H129 0.949 . S
C125 C124 1.390 . S
C125 C130 1.399 1_544 S
C126 C122 1.404 1_565 S
C126 H127 0.950 . S
C126 C128 1.375 . S
H127 C126 0.950 . S
C128 C126 1.375 . S
C128 C130 1.382 . S
C128 H132 0.950 . S
H129 C124 0.949 . S
C130 C125 1.399 1_566 S
C130 C128 1.382 . S
C130 H131 0.952 . S
H131 C130 0.952 . S
H132 C128 0.950 . S
H133 C134 0.949 . S
C134 H133 0.949 . S
C134 C135 1.395 . S
C134 C136 1.391 1_554 S
C135 C134 1.395 . S
C135 C138 1.390 1_554 S
C136 C134 1.391 1_556 S
C136 C140 1.387 . S
C136 C141 1.491 . S
H137 C138 0.950 . S
C138 C135 1.390 1_556 S
C138 H137 0.950 . S
C138 C139 1.378 . S
C139 C138 1.378 . S
C139 C140 1.409 . S
C140 C136 1.387 . S
C140 C139 1.409 . S
C140 H142 0.951 . S
C141 C136 1.491 . S
C141 C143 1.382 1_556 S
C141 C145 1.404 . S
H142 C140 0.951 . S
C143 C141 1.382 1_554 S
C143 C144 1.390 . S
C143 H148 0.949 . S
C144 C143 1.390 . S
C144 C149 1.399 1_554 S
C145 C141 1.404 . S
C145 H146 0.950 . S
C145 C147 1.375 . S
H146 C145 0.950 . S
C147 C145 1.375 . S
C147 C149 1.382 . S
C147 H151 0.950 . S
H148 C143 0.949 . S
C149 C144 1.399 1_556 S
C149 C147 1.382 . S
C149 H150 0.952 . S
H150 C149 0.952 . S
H151 C147 0.950 . S
Gd152 C155 2.818 . S
Gd152 O172 2.377 . S
Gd152 O174 2.448 . S
Gd152 O175 2.506 . S
Gd152 O176 2.435 . S
Gd152 O177 2.717 1_565 S
Gd152 O179 2.395 1_565 S
Gd152 O183 2.327 1_455 S
Gd153 C164 2.818 . S
Gd153 O173 2.395 1_545 S
Gd153 O177 2.327 1_655 S
Gd153 O178 2.377 . S
Gd153 O180 2.448 . S
Gd153 O181 2.506 1_655 S
Gd153 O182 2.435 . S
Gd153 O183 2.717 1_545 S
C154 O172 1.240 1_655 S
C154 O173 1.240 . S
C155 Gd152 2.818 . S
C155 C156 1.510 . S
C155 O174 1.249 . S
C155 O175 1.252 . S
C156 C155 1.510 . S
C156 C157 1.404 . S
C156 C158 1.352 . S
C157 C156 1.404 . S
C157 C161 1.389 . S
C157 H184 0.930 . S
C158 C156 1.352 . S
C158 C160 1.374 . S
C158 H185 0.931 1_455 S
C159 C160 1.359 . S
C159 C161 1.364 . S
C160 C158 1.374 . S
C160 C159 1.359 . S
C160 H186 0.931 1_455 S
C161 C157 1.389 . S
C161 C159 1.364 . S
C161 H187 0.931 . S
C162 O176 1.256 1_545 S
C162 O177 1.257 . S
C163 O178 1.240 1_455 S
C163 O179 1.240 . S
C164 Gd153 2.818 . S
C164 C165 1.510 . S
C164 O180 1.249 . S
C164 O181 1.252 1_655 S
C165 C164 1.510 . S
C165 C166 1.404 . S
C165 C167 1.352 1_655 S
C166 C165 1.404 . S
C166 C170 1.389 . S
C166 H188 0.930 . S
C167 C165 1.352 1_455 S
C167 C169 1.374 . S
C167 H189 0.931 . S
C168 C169 1.359 1_655 S
C168 C170 1.364 . S
C169 C167 1.374 . S
C169 C168 1.359 1_455 S
C169 H190 0.931 . S
C170 C166 1.389 . S
C170 C168 1.364 . S
C170 H191 0.931 . S
C171 O182 1.256 . S
C171 O183 1.257 1_545 S
O172 Gd152 2.377 . S
O172 C154 1.240 1_455 S
O173 Gd153 2.395 1_565 S
O173 C154 1.240 . S
O174 Gd152 2.448 . S
O174 C155 1.249 . S
O175 Gd152 2.506 . S
O175 C155 1.252 . S
O176 Gd152 2.435 . S
O176 C162 1.256 1_565 S
O177 Gd152 2.717 1_545 S
O177 Gd153 2.327 1_455 S
O177 C162 1.257 . S
O178 Gd153 2.377 . S
O178 C163 1.240 1_655 S
O179 Gd152 2.395 1_545 S
O179 C163 1.240 . S
O180 Gd153 2.448 . S
O180 C164 1.249 . S
O181 Gd153 2.506 1_455 S
O181 C164 1.252 1_455 S
O182 Gd153 2.435 . S
O182 C171 1.256 . S
O183 Gd152 2.327 1_655 S
O183 Gd153 2.717 1_565 S
O183 C171 1.257 1_565 S
H184 C157 0.930 . S
H185 C158 0.931 1_655 S
H186 C160 0.931 1_655 S
H187 C161 0.931 . S
H188 C166 0.930 . S
H189 C167 0.931 . S
H190 C169 0.931 . S
H191 C170 0.931 . S
Gd192 C195 2.818 . S
Gd192 O212 2.377 . S
Gd192 O214 2.448 . S
Gd192 O215 2.506 . S
Gd192 O216 2.435 . S
Gd192 O217 2.717 . S
Gd192 O219 2.395 . S
Gd192 O223 2.327 1_545 S
Gd193 C204 2.818 . S
Gd193 O213 2.395 . S
Gd193 O217 2.327 1_565 S
Gd193 O218 2.377 . S
Gd193 O220 2.448 . S
Gd193 O221 2.506 1_565 S
Gd193 O222 2.435 . S
Gd193 O223 2.717 . S
C194 O212 1.240 1_565 S
C194 O213 1.240 . S
C195 Gd192 2.818 . S
C195 C196 1.510 . S
C195 O214 1.249 . S
C195 O215 1.252 . S
C196 C195 1.510 . S
C196 C197 1.404 . S
C196 C198 1.352 . S
C197 C196 1.404 . S
C197 C201 1.389 . S
C197 H224 0.930 . S
C198 C196 1.352 . S
C198 C200 1.374 . S
C198 H225 0.931 1_545 S
C199 C200 1.359 . S
C199 C201 1.364 . S
C200 C198 1.374 . S
C200 C199 1.359 . S
C200 H226 0.931 1_545 S
C201 C197 1.389 . S
C201 C199 1.364 . S
C201 H227 0.931 . S
C202 O216 1.256 . S
C202 O217 1.257 . S
C203 O218 1.240 1_545 S
C203 O219 1.240 . S
C204 Gd193 2.818 . S
C204 C205 1.510 . S
C204 O220 1.249 . S
C204 O221 1.252 1_565 S
C205 C204 1.510 . S
C205 C206 1.404 . S
C205 C207 1.352 1_565 S
C206 C205 1.404 . S
C206 C210 1.389 . S
C206 H228 0.930 . S
C207 C205 1.352 1_545 S
C207 C209 1.374 . S
C207 H229 0.931 . S
C208 C209 1.359 1_565 S
C208 C210 1.364 . S
C209 C207 1.374 . S
C209 C208 1.359 1_545 S
C209 H230 0.931 . S
C210 C206 1.389 . S
C210 C208 1.364 . S
C210 H231 0.931 . S
C211 O222 1.256 . S
C211 O223 1.257 . S
O212 Gd192 2.377 . S
O212 C194 1.240 1_545 S
O213 Gd193 2.395 . S
O213 C194 1.240 . S
O214 Gd192 2.448 . S
O214 C195 1.249 . S
O215 Gd192 2.506 . S
O215 C195 1.252 . S
O216 Gd192 2.435 . S
O216 C202 1.256 . S
O217 Gd192 2.717 . S
O217 Gd193 2.327 1_545 S
O217 C202 1.257 . S
O218 Gd193 2.377 . S
O218 C203 1.240 1_565 S
O219 Gd192 2.395 . S
O219 C203 1.240 . S
O220 Gd193 2.448 . S
O220 C204 1.249 . S
O221 Gd193 2.506 1_545 S
O221 C204 1.252 1_545 S
O222 Gd193 2.435 . S
O222 C211 1.256 . S
O223 Gd192 2.327 1_565 S
O223 Gd193 2.717 . S
O223 C211 1.257 . S
H224 C197 0.930 . S
H225 C198 0.931 1_565 S
H226 C200 0.931 1_565 S
H227 C201 0.931 . S
H228 C206 0.930 . S
H229 C207 0.931 . S
H230 C209 0.931 . S
H231 C210 0.931 . S
Gd232 C235 2.818 . S
Gd232 O252 2.377 . S
Gd232 O254 2.448 . S
Gd232 O255 2.506 . S
Gd232 O256 2.435 . S
Gd232 O257 2.717 . S
Gd232 O259 2.395 . S
Gd232 O263 2.327 . S
Gd233 C244 2.818 . S
Gd233 O253 2.395 . S
Gd233 O257 2.327 . S
Gd233 O258 2.377 . S
Gd233 O260 2.448 . S
Gd233 O261 2.506 . S
Gd233 O262 2.435 . S
Gd233 O263 2.717 . S
C234 O252 1.240 . S
C234 O253 1.240 . S
C235 Gd232 2.818 . S
C235 C236 1.510 . S
C235 O254 1.249 . S
C235 O255 1.252 . S
C236 C235 1.510 . S
C236 C237 1.404 . S
C236 C238 1.352 . S
C237 C236 1.404 . S
C237 C241 1.389 . S
C237 H264 0.930 . S
C238 C236 1.352 . S
C238 C240 1.374 . S
C238 H265 0.931 . S
C239 C240 1.359 . S
C239 C241 1.364 . S
C240 C238 1.374 . S
C240 C239 1.359 . S
C240 H266 0.931 . S
C241 C237 1.389 . S
C241 C239 1.364 . S
C241 H267 0.931 . S
C242 O256 1.256 . S
C242 O257 1.257 . S
C243 O258 1.240 . S
C243 O259 1.240 . S
C244 Gd233 2.818 . S
C244 C245 1.510 . S
C244 O260 1.249 . S
C244 O261 1.252 . S
C245 C244 1.510 . S
C245 C246 1.404 . S
C245 C247 1.352 . S
C246 C245 1.404 . S
C246 C250 1.389 . S
C246 H268 0.930 . S
C247 C245 1.352 . S
C247 C249 1.374 . S
C247 H269 0.931 . S
C248 C249 1.359 . S
C248 C250 1.364 . S
C249 C247 1.374 . S
C249 C248 1.359 . S
C249 H270 0.931 . S
C250 C246 1.389 . S
C250 C248 1.364 . S
C250 H271 0.931 . S
C251 O262 1.256 . S
C251 O263 1.257 . S
O252 Gd232 2.377 . S
O252 C234 1.240 . S
O253 Gd233 2.395 . S
O253 C234 1.240 . S
O254 Gd232 2.448 . S
O254 C235 1.249 . S
O255 Gd232 2.506 . S
O255 C235 1.252 . S
O256 Gd232 2.435 . S
O256 C242 1.256 . S
O257 Gd232 2.717 . S
O257 Gd233 2.327 . S
O257 C242 1.257 . S
O258 Gd233 2.377 . S
O258 C243 1.240 . S
O259 Gd232 2.395 . S
O259 C243 1.240 . S
O260 Gd233 2.448 . S
O260 C244 1.249 . S
O261 Gd233 2.506 . S
O261 C244 1.252 . S
O262 Gd233 2.435 . S
O262 C251 1.256 . S
O263 Gd232 2.327 . S
O263 Gd233 2.717 . S
O263 C251 1.257 . S
H264 C237 0.930 . S
H265 C238 0.931 . S
H266 C240 0.931 . S
H267 C241 0.931 . S
H268 C246 0.930 . S
H269 C247 0.931 . S
H270 C249 0.931 . S
H271 C250 0.931 . S
Gd272 C275 2.818 . S
Gd272 O292 2.377 . S
Gd272 O294 2.448 . S
Gd272 O295 2.506 . S
Gd272 O296 2.435 . S
Gd272 O297 2.717 1_655 S
Gd272 O299 2.395 1_655 S
Gd272 O303 2.326 1_655 S
Gd273 C284 2.818 . S
Gd273 O293 2.395 1_455 S
Gd273 O297 2.327 . S
Gd273 O298 2.377 . S
Gd273 O300 2.448 . S
Gd273 O301 2.506 . S
Gd273 O302 2.435 . S
Gd273 O303 2.720 . S
C274 O292 1.240 . S
C274 O293 1.240 . S
C275 Gd272 2.818 . S
C275 C276 1.510 . S
C275 O294 1.249 . S
C275 O295 1.252 . S
C276 C275 1.510 . S
C276 C277 1.404 . S
C276 C278 1.352 . S
C277 C276 1.404 . S
C277 C281 1.389 . S
C277 H304 0.930 . S
C278 C276 1.352 . S
C278 C280 1.374 . S
C278 H305 0.931 . S
C279 C280 1.359 . S
C279 C281 1.364 . S
C280 C278 1.374 . S
C280 C279 1.359 . S
C280 H306 0.931 . S
C281 C277 1.389 . S
C281 C279 1.364 . S
C281 H307 0.931 . S
C282 O296 1.256 1_455 S
C282 O297 1.257 . S
C283 O298 1.240 . S
C283 O299 1.240 . S
C284 Gd273 2.818 . S
C284 C285 1.510 . S
C284 O300 1.249 . S
C284 O301 1.252 . S
C285 C284 1.510 . S
C285 C286 1.404 . S
C285 C287 1.352 . S
C286 C285 1.404 . S
C286 C290 1.389 . S
C286 H308 0.930 . S
C287 C285 1.352 . S
C287 C289 1.374 . S
C287 H309 0.931 . S
C288 C289 1.359 . S
C288 C290 1.364 . S
C289 C287 1.374 . S
C289 C288 1.359 . S
C289 H310 0.931 . S
C290 C286 1.389 . S
C290 C288 1.364 . S
C290 H311 0.931 . S
C291 O302 1.256 . S
C291 O303 1.260 . S
O292 Gd272 2.377 . S
O292 C274 1.240 . S
O293 Gd273 2.395 1_655 S
O293 C274 1.240 . S
O294 Gd272 2.448 . S
O294 C275 1.249 . S
O295 Gd272 2.506 . S
O295 C275 1.252 . S
O296 Gd272 2.435 . S
O296 C282 1.256 1_655 S
O297 Gd272 2.717 1_455 S
O297 Gd273 2.327 . S
O297 C282 1.257 . S
O298 Gd273 2.377 . S
O298 C283 1.240 . S
O299 Gd272 2.395 1_455 S
O299 C283 1.240 . S
O300 Gd273 2.448 . S
O300 C284 1.249 . S
O301 Gd273 2.506 . S
O301 C284 1.252 . S
O302 Gd273 2.435 . S
O302 C291 1.256 . S
O303 Gd272 2.326 1_455 S
O303 Gd273 2.720 . S
O303 C291 1.260 . S
H304 C277 0.930 . S
H305 C278 0.931 . S
H306 C280 0.931 . S
H307 C281 0.931 . S
H308 C286 0.930 . S
H309 C287 0.931 . S
H310 C289 0.931 . S
H311 C290 0.931 . S
H312 C320 0.929 . S
H313 C322 0.930 . S
H314 C324 0.930 . S
H315 C327 0.929 . S
H316 C330 0.930 . S
H317 C332 0.960 . S
H318 C332 0.960 . S
H319 C332 0.960 . S
C320 H312 0.929 . S
C320 C321 1.377 . S
C320 C322 1.384 . S
C321 C320 1.377 . S
C321 C327 1.390 1_545 S
C322 H313 0.930 . S
C322 C320 1.384 . S
C322 C323 1.372 . S
C323 C322 1.372 . S
C323 C324 1.400 1_545 S
C323 C328 1.490 . S
C324 H314 0.930 . S
C324 C323 1.400 1_565 S
C324 C327 1.386 . S
H325 C341 0.930 . S
H326 C342 0.931 . S
C327 H315 0.929 . S
C327 C321 1.390 1_565 S
C327 C324 1.386 . S
C328 C323 1.490 . S
C328 C330 1.395 . S
C328 C331 1.403 . S
H329 C335 0.930 . S
C330 H316 0.930 . S
C330 C328 1.395 . S
C330 C333 1.403 . S
C331 C328 1.403 . S
C331 C332 1.524 . S
C331 C335 1.400 . S
C332 H317 0.960 . S
C332 H318 0.960 . S
C332 H319 0.960 . S
C332 C331 1.524 . S
C333 C330 1.403 . S
C333 C334 1.392 . S
C333 C337 1.495 . S
C334 C333 1.392 . S
C334 C335 1.385 . S
C334 C336 1.478 . S
C335 H329 0.930 . S
C335 C331 1.400 . S
C335 C334 1.385 . S
C336 C334 1.478 . S
C336 C338 1.381 . S
C336 C342 1.383 1_545 S
C337 C333 1.495 . S
C337 H343 0.959 . S
C337 H344 0.961 1_545 S
C337 H345 0.960 . S
C338 C336 1.381 . S
C338 C339 1.394 . S
C338 H346 0.930 . S
C339 C338 1.394 . S
C339 C340 1.383 . S
C339 H347 0.929 . S
C340 C339 1.383 . S
C340 C341 1.377 1_545 S
C341 H325 0.930 . S
C341 C340 1.377 1_565 S
C341 C342 1.379 . S
C342 H326 0.931 . S
C342 C336 1.383 1_565 S
C342 C341 1.379 . S
H343 C337 0.959 . S
H344 C337 0.961 1_565 S
H345 C337 0.960 . S
H346 C338 0.930 . S
H347 C339 0.929 . S
H348 C356 0.929 . S
H349 C358 0.930 . S
H350 C360 0.930 . S
H351 C363 0.929 . S
H352 C366 0.930 . S
H353 C368 0.960 . S
H354 C368 0.960 . S
H355 C368 0.960 . S
C356 H348 0.929 . S
C356 C357 1.377 . S
C356 C358 1.384 . S
C357 C356 1.377 . S
C357 C363 1.390 . S
C358 H349 0.930 . S
C358 C356 1.384 . S
C358 C359 1.372 . S
C359 C358 1.372 . S
C359 C360 1.400 . S
C359 C364 1.490 . S
C360 H350 0.930 . S
C360 C359 1.400 . S
C360 C363 1.386 . S
H361 C377 0.930 . S
H362 C378 0.931 . S
C363 H351 0.929 . S
C363 C357 1.390 . S
C363 C360 1.386 . S
C364 C359 1.490 . S
C364 C366 1.395 . S
C364 C367 1.403 . S
H365 C371 0.930 . S
C366 H352 0.930 . S
C366 C364 1.395 . S
C366 C369 1.403 . S
C367 C364 1.403 . S
C367 C368 1.524 . S
C367 C371 1.400 . S
C368 H353 0.960 . S
C368 H354 0.960 . S
C368 H355 0.960 . S
C368 C367 1.524 . S
C369 C366 1.403 . S
C369 C370 1.392 . S
C369 C373 1.495 . S
C370 C369 1.392 . S
C370 C371 1.385 . S
C370 C372 1.478 . S
C371 H365 0.930 . S
C371 C367 1.400 . S
C371 C370 1.385 . S
C372 C370 1.478 . S
C372 C374 1.381 . S
C372 C378 1.383 . S
C373 C369 1.495 . S
C373 H379 0.959 . S
C373 H380 0.961 . S
C373 H381 0.960 . S
C374 C372 1.381 . S
C374 C375 1.394 . S
C374 H382 0.930 . S
C375 C374 1.394 . S
C375 C376 1.383 . S
C375 H383 0.929 . S
C376 C375 1.383 . S
C376 C377 1.377 . S
C377 H361 0.930 . S
C377 C376 1.377 . S
C377 C378 1.379 . S
C378 H362 0.931 . S
C378 C372 1.383 . S
C378 C377 1.379 . S
H379 C373 0.959 . S
H380 C373 0.961 . S
H381 C373 0.960 . S
H382 C374 0.930 . S
H383 C375 0.929 . S
H384 C392 0.929 . S
H385 C394 0.930 . S
H386 C396 0.930 . S
H387 C399 0.929 . S
H388 C402 0.930 . S
H389 C404 0.960 . S
H390 C404 0.960 . S
H391 C404 0.960 . S
C392 H384 0.929 . S
C392 C393 1.377 . S
C392 C394 1.384 . S
C393 C392 1.377 . S
C393 C399 1.390 . S
C394 H385 0.930 . S
C394 C392 1.384 . S
C394 C395 1.372 . S
C395 C394 1.372 . S
C395 C396 1.400 . S
C395 C400 1.490 . S
C396 H386 0.930 . S
C396 C395 1.400 . S
C396 C399 1.386 . S
H397 C413 0.930 . S
H398 C414 0.931 . S
C399 H387 0.929 . S
C399 C393 1.390 . S
C399 C396 1.386 . S
C400 C395 1.490 . S
C400 C402 1.395 . S
C400 C403 1.403 . S
H401 C407 0.930 . S
C402 H388 0.930 . S
C402 C400 1.395 . S
C402 C405 1.403 . S
C403 C400 1.403 . S
C403 C404 1.524 . S
C403 C407 1.400 . S
C404 H389 0.960 . S
C404 H390 0.960 . S
C404 H391 0.960 . S
C404 C403 1.524 . S
C405 C402 1.403 . S
C405 C406 1.392 . S
C405 C409 1.495 . S
C406 C405 1.392 . S
C406 C407 1.385 . S
C406 C408 1.478 . S
C407 H401 0.930 . S
C407 C403 1.400 . S
C407 C406 1.385 . S
C408 C406 1.478 . S
C408 C410 1.381 . S
C408 C414 1.383 . S
C409 C405 1.495 . S
C409 H415 0.959 . S
C409 H416 0.961 . S
C409 H417 0.960 . S
C410 C408 1.381 . S
C410 C411 1.394 . S
C410 H418 0.930 . S
C411 C410 1.394 . S
C411 C412 1.383 . S
C411 H419 0.929 . S
C412 C411 1.383 . S
C412 C413 1.377 . S
C413 H397 0.930 . S
C413 C412 1.377 . S
C413 C414 1.379 . S
C414 H398 0.931 . S
C414 C408 1.383 . S
C414 C413 1.379 . S
H415 C409 0.959 . S
H416 C409 0.961 . S
H417 C409 0.960 . S
H418 C410 0.930 . S
H419 C411 0.929 . S
H420 C428 0.929 . S
H421 C430 0.930 . S
H422 C432 0.896 1_655 S
H423 C435 0.929 1_655 S
H424 C438 0.930 . S
H425 C440 0.960 . S
H426 C440 0.960 . S
H427 C440 0.960 . S
C428 H420 0.929 . S
C428 C429 1.377 . S
C428 C430 1.384 . S
C429 C428 1.377 . S
C429 C435 1.390 . S
C430 H421 0.930 . S
C430 C428 1.384 . S
C430 C431 1.372 . S
C431 C430 1.372 . S
C431 C432 1.434 . S
C431 C436 1.490 . S
C432 H422 0.896 1_455 S
C432 C431 1.434 . S
C432 C435 1.388 . S
H433 C449 0.930 1_655 S
H434 C450 0.931 1_655 S
C435 H423 0.929 1_455 S
C435 C429 1.390 . S
C435 C432 1.388 . S
C436 C431 1.490 . S
C436 C438 1.395 . S
C436 C439 1.403 1_455 S
H437 C443 0.930 . S
C438 H424 0.930 . S
C438 C436 1.395 . S
C438 C441 1.403 . S
C439 C436 1.403 1_655 S
C439 C440 1.524 . S
C439 C443 1.400 . S
C440 H425 0.960 . S
C440 H426 0.960 . S
C440 H427 0.960 . S
C440 C439 1.524 . S
C441 C438 1.403 . S
C441 C442 1.392 . S
C441 C445 1.495 . S
C442 C441 1.392 . S
C442 C443 1.385 1_455 S
C442 C444 1.478 . S
C443 H437 0.930 . S
C443 C439 1.400 . S
C443 C442 1.385 1_655 S
C444 C442 1.478 . S
C444 C446 1.381 . S
C444 C450 1.383 . S
C445 C441 1.495 . S
C445 H451 0.959 . S
C445 H452 0.961 . S
C445 H453 0.960 . S
C446 C444 1.381 . S
C446 C447 1.394 . S
C446 H454 0.930 . S
C447 C446 1.394 . S
C447 C448 1.383 . S
C447 H455 0.929 . S
C448 C447 1.383 . S
C448 C449 1.377 . S
C449 H433 0.930 1_455 S
C449 C448 1.377 . S
C449 C450 1.379 . S
C450 H434 0.931 1_455 S
C450 C444 1.383 . S
C450 C449 1.379 . S
H451 C445 0.959 . S
H452 C445 0.961 . S
H453 C445 0.960 . S
H454 C446 0.930 . S
H455 C447 0.929 . S
H456 C464 0.929 . S
H457 C466 0.930 . S
H458 C468 0.930 . S
H459 C471 0.929 . S
H460 C474 0.930 . S
H461 C476 0.960 . S
H462 C476 0.960 . S
H463 C476 0.940 1_565 S
C464 H456 0.929 . S
C464 C465 1.377 1_545 S
C464 C466 1.384 . S
C465 C464 1.377 1_565 S
C465 C471 1.390 . S
C466 H457 0.930 . S
C466 C464 1.384 . S
C466 C467 1.372 1_545 S
C467 C466 1.372 1_565 S
C467 C468 1.400 . S
C467 C472 1.490 . S
C468 H458 0.930 . S
C468 C467 1.400 . S
C468 C471 1.386 . S
H469 C485 0.930 . S
H470 C486 0.931 . S
C471 H459 0.929 . S
C471 C465 1.390 . S
C471 C468 1.386 . S
C472 C467 1.490 . S
C472 C474 1.395 . S
C472 C475 1.403 1_564 S
H473 C479 0.930 . S
C474 H460 0.930 . S
C474 C472 1.395 . S
C474 C477 1.403 . S
C475 C472 1.403 1_546 S
C475 C476 1.524 . S
C475 C479 1.400 . S
C476 H461 0.960 . S
C476 H462 0.960 . S
C476 H463 0.940 1_545 S
C476 C475 1.524 . S
C477 C474 1.403 . S
C477 C478 1.392 1_554 S
C477 C481 1.495 . S
C478 C477 1.392 1_556 S
C478 C479 1.385 1_565 S
C478 C480 1.478 . S
C479 H473 0.930 . S
C479 C475 1.400 . S
C479 C478 1.385 1_545 S
C480 C478 1.478 . S
C480 C482 1.381 1_565 S
C480 C486 1.383 . S
C481 C477 1.495 . S
C481 H487 0.959 . S
C481 H488 0.961 . S
C481 H489 0.998 . S
C482 C480 1.381 1_545 S
C482 C483 1.394 . S
C482 H490 0.930 . S
C483 C482 1.394 . S
C483 C484 1.394 . S
C483 H491 0.929 . S
C484 C483 1.394 . S
C484 C485 1.366 1_545 S
C485 H469 0.930 . S
C485 C484 1.366 1_565 S
C485 C486 1.379 . S
C486 H470 0.931 . S
C486 C480 1.383 . S
C486 C485 1.379 . S
H487 C481 0.959 . S
H488 C481 0.961 . S
H489 C481 0.998 . S
H490 C482 0.930 . S
H491 C483 0.929 . S
H492 C500 0.929 . S
H493 C502 0.930 . S
H494 C504 0.930 . S
H495 C507 0.929 . S
H496 C510 0.930 . S
H497 C512 0.960 . S
H498 C512 0.960 . S
H499 C512 0.960 . S
C500 H492 0.929 . S
C500 C501 1.377 . S
C500 C502 1.384 . S
C501 C500 1.377 . S
C501 C507 1.390 . S
C502 H493 0.930 . S
C502 C500 1.384 . S
C502 C503 1.372 . S
C503 C502 1.372 . S
C503 C504 1.400 . S
C503 C508 1.490 . S
C504 H494 0.930 . S
C504 C503 1.400 . S
C504 C507 1.386 . S
H505 C521 0.930 . S
H506 C522 0.931 . S
C507 H495 0.929 . S
C507 C501 1.390 . S
C507 C504 1.386 . S
C508 C503 1.490 . S
C508 C510 1.395 . S
C508 C511 1.403 1_554 S
H509 C515 0.930 . S
C510 H496 0.930 . S
C510 C508 1.395 . S
C510 C513 1.403 . S
C511 C508 1.403 1_556 S
C511 C512 1.524 . S
C511 C515 1.400 . S
C512 H497 0.960 . S
C512 H498 0.960 . S
C512 H499 0.960 . S
C512 C511 1.524 . S
C513 C510 1.403 . S
C513 C514 1.392 1_554 S
C513 C517 1.495 . S
C514 C513 1.392 1_556 S
C514 C515 1.385 . S
C514 C516 1.478 . S
C515 H509 0.930 . S
C515 C511 1.400 . S
C515 C514 1.385 . S
C516 C514 1.478 . S
C516 C518 1.381 . S
C516 C522 1.383 . S
C517 C513 1.495 . S
C517 H523 0.959 . S
C517 H524 0.961 . S
C517 H525 0.960 . S
C518 C516 1.381 . S
C518 C519 1.394 . S
C518 H526 0.930 . S
C519 C518 1.394 . S
C519 C520 1.383 . S
C519 H527 0.929 . S
C520 C519 1.383 . S
C520 C521 1.377 . S
C521 H505 0.930 . S
C521 C520 1.377 . S
C521 C522 1.379 . S
C522 H506 0.931 . S
C522 C516 1.383 . S
C522 C521 1.379 . S
H523 C517 0.959 . S
H524 C517 0.961 . S
H525 C517 0.960 . S
H526 C518 0.930 . S
H527 C519 0.929 . S
H528 C536 0.929 . S
H529 C538 0.930 . S
H530 C540 0.930 . S
H531 C543 0.929 . S
H532 C546 0.930 . S
H533 C548 0.960 . S
H534 C548 0.960 . S
H535 C548 0.960 . S
C536 H528 0.929 . S
C536 C537 1.377 . S
C536 C538 1.384 . S
C537 C536 1.377 . S
C537 C543 1.390 . S
C538 H529 0.930 . S
C538 C536 1.384 . S
C538 C539 1.372 . S
C539 C538 1.372 . S
C539 C540 1.400 . S
C539 C544 1.490 . S
C540 H530 0.930 . S
C540 C539 1.400 . S
C540 C543 1.386 . S
H541 C557 0.930 . S
H542 C558 0.931 . S
C543 H531 0.929 . S
C543 C537 1.390 . S
C543 C540 1.386 . S
C544 C539 1.490 . S
C544 C546 1.395 . S
C544 C547 1.403 1_554 S
H545 C551 0.930 . S
C546 H532 0.930 . S
C546 C544 1.395 . S
C546 C549 1.403 . S
C547 C544 1.403 1_556 S
C547 C548 1.524 . S
C547 C551 1.400 . S
C548 H533 0.960 . S
C548 H534 0.960 . S
C548 H535 0.960 . S
C548 C547 1.524 . S
C549 C546 1.403 . S
C549 C550 1.392 1_554 S
C549 C553 1.495 . S
C550 C549 1.392 1_556 S
C550 C551 1.385 . S
C550 C552 1.478 . S
C551 H545 0.930 . S
C551 C547 1.400 . S
C551 C550 1.385 . S
C552 C550 1.478 . S
C552 C554 1.381 . S
C552 C558 1.383 . S
C553 C549 1.495 . S
C553 H559 0.959 . S
C553 H560 0.961 . S
C553 H561 0.960 . S
C554 C552 1.381 . S
C554 C555 1.394 . S
C554 H562 0.930 . S
C555 C554 1.394 . S
C555 C556 1.383 . S
C555 H563 0.929 . S
C556 C555 1.383 . S
C556 C557 1.377 . S
C557 H541 0.930 . S
C557 C556 1.377 . S
C557 C558 1.379 . S
C558 H542 0.931 . S
C558 C552 1.383 . S
C558 C557 1.379 . S
H559 C553 0.959 . S
H560 C553 0.961 . S
H561 C553 0.960 . S
H562 C554 0.930 . S
H563 C555 0.929 . S
H564 C572 0.929 . S
H565 C574 0.930 . S
H566 C576 0.930 . S
H567 C579 0.929 . S
H568 C582 0.930 . S
H569 C584 0.960 . S
H570 C584 0.960 . S
H571 C584 0.960 . S
C572 H564 0.929 . S
C572 C573 1.377 . S
C572 C574 1.384 . S
C573 C572 1.377 . S
C573 C579 1.390 1_655 S
C574 H565 0.930 . S
C574 C572 1.384 . S
C574 C575 1.372 . S
C575 C574 1.372 . S
C575 C576 1.400 1_655 S
C575 C580 1.490 . S
C576 H566 0.930 . S
C576 C575 1.400 1_455 S
C576 C579 1.386 . S
H577 C593 0.930 . S
H578 C594 0.931 . S
C579 H567 0.929 . S
C579 C573 1.390 1_455 S
C579 C576 1.386 . S
C580 C575 1.490 . S
C580 C582 1.395 . S
C580 C583 1.403 1_655 S
H581 C587 0.930 . S
C582 H568 0.930 . S
C582 C580 1.395 . S
C582 C585 1.403 1_554 S
C583 C580 1.403 1_455 S
C583 C584 1.524 . S
C583 C587 1.400 . S
C584 H569 0.960 . S
C584 H570 0.960 . S
C584 H571 0.960 . S
C584 C583 1.524 . S
C585 C582 1.403 1_556 S
C585 C586 1.392 . S
C585 C589 1.495 . S
C586 C585 1.392 . S
C586 C587 1.385 1_656 S
C586 C588 1.478 . S
C587 H581 0.930 . S
C587 C583 1.400 . S
C587 C586 1.385 1_454 S
C588 C586 1.478 . S
C588 C590 1.381 . S
C588 C594 1.383 1_655 S
C589 C585 1.495 . S
C589 H595 0.959 . S
C589 H596 0.961 . S
C589 H597 0.960 . S
C590 C588 1.381 . S
C590 C591 1.394 . S
C590 H598 0.930 . S
C591 C590 1.394 . S
C591 C592 1.335 1_655 S
C591 H599 0.929 . S
C592 C591 1.335 1_455 S
C592 C593 1.420 . S
C593 H577 0.930 . S
C593 C592 1.420 . S
C593 C594 1.379 . S
C594 H578 0.931 . S
C594 C588 1.383 1_455 S
C594 C593 1.379 . S
H595 C589 0.959 . S
H596 C589 0.961 . S
H597 C589 0.960 . S
H598 C590 0.930 . S
H599 C591 0.929 . S
H600 C608 0.929 . S
H601 C610 0.930 . S
H602 C612 0.930 . S
H603 C615 0.929 . S
H604 C618 0.930 . S
H605 C620 0.960 . S
H606 C620 0.960 1_655 S
H607 C620 0.960 . S
C608 H600 0.929 . S
C608 C609 1.377 1_655 S
C608 C610 1.384 . S
C609 C608 1.377 1_455 S
C609 C615 1.390 . S
C610 H601 0.930 . S
C610 C608 1.384 . S
C610 C611 1.372 1_655 S
C611 C610 1.372 1_455 S
C611 C612 1.400 . S
C611 C616 1.490 . S
C612 H602 0.930 . S
C612 C611 1.400 . S
C612 C615 1.386 . S
H613 C629 0.930 . S
H614 C630 0.931 . S
C615 H603 0.929 . S
C615 C609 1.390 . S
C615 C612 1.386 . S
C616 C611 1.490 . S
C616 C618 1.395 1_455 S
C616 C619 1.403 . S
H617 C623 0.930 . S
C618 H604 0.930 . S
C618 C616 1.395 1_655 S
C618 C621 1.403 . S
C619 C616 1.403 . S
C619 C620 1.524 . S
C619 C623 1.400 1_455 S
C620 H605 0.960 . S
C620 H606 0.960 1_455 S
C620 H607 0.960 . S
C620 C619 1.524 . S
C621 C618 1.403 . S
C621 C622 1.392 . S
C621 C625 1.495 . S
C622 C621 1.392 . S
C622 C623 1.385 . S
C622 C624 1.478 . S
C623 H617 0.930 . S
C623 C619 1.400 1_655 S
C623 C622 1.385 . S
C624 C622 1.478 . S
C624 C626 1.381 . S
C624 C630 1.383 1_655 S
C625 C621 1.495 . S
C625 H631 0.959 . S
C625 H632 0.961 1_655 S
C625 H633 0.960 . S
C626 C624 1.381 . S
C626 C627 1.394 . S
C626 H634 0.930 . S
C627 C626 1.394 . S
C627 C628 1.383 . S
C627 H635 0.929 . S
C628 C627 1.383 . S
C628 C629 1.377 1_655 S
C629 H613 0.930 . S
C629 C628 1.377 1_455 S
C629 C630 1.379 . S
C630 H614 0.931 . S
C630 C624 1.383 1_455 S
C630 C629 1.379 . S
H631 C625 0.959 . S
H632 C625 0.961 1_455 S
H633 C625 0.960 . S
H634 C626 0.930 . S
H635 C627 0.929 . S
H636 C644 0.929 . S
H637 C646 0.930 . S
H638 C648 0.930 . S
H639 C651 0.929 . S
H640 C654 0.930 . S
H641 C656 0.960 . S
H642 C656 0.960 . S
H643 C656 0.960 . S
C644 H636 0.929 . S
C644 C645 1.377 1_565 S
C644 C646 1.384 . S
C645 C644 1.377 1_545 S
C645 C651 1.390 . S
C646 H637 0.930 . S
C646 C644 1.384 . S
C646 C647 1.372 1_565 S
C647 C646 1.372 1_545 S
C647 C648 1.400 . S
C647 C652 1.490 . S
C648 H638 0.930 . S
C648 C647 1.400 . S
C648 C651 1.386 . S
H649 C665 0.930 1_545 S
H650 C666 0.931 1_545 S
C651 H639 0.929 . S
C651 C645 1.390 . S
C651 C648 1.386 . S
C652 C647 1.490 . S
C652 C654 1.395 1_545 S
C652 C655 1.402 . S
H653 C659 0.930 . S
C654 H640 0.930 . S
C654 C652 1.395 1_565 S
C654 C657 1.403 . S
C655 C652 1.402 . S
C655 C656 1.524 . S
C655 C659 1.400 . S
C656 H641 0.960 . S
C656 H642 0.960 . S
C656 H643 0.960 . S
C656 C655 1.524 . S
C657 C654 1.403 . S
C657 C658 1.392 . S
C657 C661 1.495 . S
C658 C657 1.392 . S
C658 C659 1.385 1_565 S
C658 C660 1.478 . S
C659 H653 0.930 . S
C659 C655 1.400 . S
C659 C658 1.385 1_545 S
C660 C658 1.478 . S
C660 C662 1.381 . S
C660 C666 1.383 . S
C661 C657 1.495 . S
C661 H667 0.959 . S
C661 H668 0.961 . S
C661 H669 0.960 . S
C662 C660 1.381 . S
C662 C663 1.394 . S
C662 H670 0.930 . S
C663 C662 1.394 . S
C663 C664 1.383 . S
C663 H671 0.929 . S
C664 C663 1.383 . S
C664 C665 1.377 . S
C665 H649 0.930 1_565 S
C665 C664 1.377 . S
C665 C666 1.379 . S
C666 H650 0.931 1_565 S
C666 C660 1.383 . S
C666 C665 1.379 . S
H667 C661 0.959 . S
H668 C661 0.961 . S
H669 C661 0.960 . S
H670 C662 0.930 . S
H671 C663 0.929 . S
H672 C680 0.929 . S
H673 C682 0.930 . S
H674 C684 0.930 . S
H675 C687 0.929 1_556 S
H676 C690 0.930 . S
H677 C692 0.960 . S
H678 C692 0.960 . S
H679 C692 0.960 . S
C680 H672 0.929 . S
C680 C681 1.377 . S
C680 C682 1.384 . S
C681 C680 1.377 . S
C681 C687 1.390 . S
C682 H673 0.930 . S
C682 C680 1.384 . S
C682 C683 1.372 . S
C683 C682 1.372 . S
C683 C684 1.400 . S
C683 C688 1.490 . S
C684 H674 0.930 . S
C684 C683 1.400 . S
C684 C687 1.386 . S
H685 C701 0.930 . S
H686 C702 0.931 . S
C687 H675 0.929 1_554 S
C687 C681 1.390 . S
C687 C684 1.386 . S
C688 C683 1.490 . S
C688 C690 1.395 . S
C688 C691 1.403 . S
H689 C695 0.930 . S
C690 H676 0.930 . S
C690 C688 1.395 . S
C690 C693 1.403 . S
C691 C688 1.403 . S
C691 C692 1.524 . S
C691 C695 1.400 . S
C692 H677 0.960 . S
C692 H678 0.960 . S
C692 H679 0.960 . S
C692 C691 1.524 . S
C693 C690 1.403 . S
C693 C694 1.392 . S
C693 C697 1.495 . S
C694 C693 1.392 . S
C694 C695 1.385 . S
C694 C696 1.478 . S
C695 H689 0.930 . S
C695 C691 1.400 . S
C695 C694 1.385 . S
C696 C694 1.478 . S
C696 C698 1.381 . S
C696 C702 1.383 . S
C697 C693 1.495 . S
C697 H703 0.959 . S
C697 H704 0.961 . S
C697 H705 0.960 . S
C698 C696 1.381 . S
C698 C699 1.394 . S
C698 H706 0.930 . S
C699 C698 1.394 . S
C699 C700 1.383 . S
C699 H707 0.929 . S
C700 C699 1.383 . S
C700 C701 1.377 . S
C701 H685 0.930 . S
C701 C700 1.377 . S
C701 C702 1.379 . S
C702 H686 0.931 . S
C702 C696 1.383 . S
C702 C701 1.379 . S
H703 C697 0.959 . S
H704 C697 0.961 . S
H705 C697 0.960 . S
H706 C698 0.930 . S
H707 C699 0.929 . S
H708 C716 0.929 . S
H709 C718 0.930 . S
H710 C720 0.930 . S
H711 C723 0.929 . S
H712 C726 0.930 . S
H713 C728 0.960 . S
H714 C728 0.960 . S
H715 C728 0.960 . S
C716 H708 0.929 . S
C716 C717 1.377 . S
C716 C718 1.384 . S
C717 C716 1.377 . S
C717 C723 1.390 . S
C718 H709 0.930 . S
C718 C716 1.384 . S
C718 C719 1.372 . S
C719 C718 1.372 . S
C719 C720 1.400 . S
C719 C724 1.490 . S
C720 H710 0.930 . S
C720 C719 1.400 . S
C720 C723 1.386 . S
H721 C737 0.930 . S
H722 C738 0.931 . S
C723 H711 0.929 . S
C723 C717 1.390 . S
C723 C720 1.386 . S
C724 C719 1.490 . S
C724 C726 1.395 . S
C724 C727 1.403 . S
H725 C731 0.930 . S
C726 H712 0.930 . S
C726 C724 1.395 . S
C726 C729 1.403 . S
C727 C724 1.403 . S
C727 C728 1.524 . S
C727 C731 1.400 . S
C728 H713 0.960 . S
C728 H714 0.960 . S
C728 H715 0.960 . S
C728 C727 1.524 . S
C729 C726 1.403 . S
C729 C730 1.392 . S
C729 C733 1.495 . S
C730 C729 1.392 . S
C730 C731 1.385 . S
C730 C732 1.478 . S
C731 H725 0.930 . S
C731 C727 1.400 . S
C731 C730 1.385 . S
C732 C730 1.478 . S
C732 C734 1.381 . S
C732 C738 1.383 . S
C733 C729 1.495 . S
C733 H739 0.959 . S
C733 H740 0.961 . S
C733 H741 0.960 . S
C734 C732 1.381 . S
C734 C735 1.394 . S
C734 H742 0.930 . S
C735 C734 1.394 . S
C735 C736 1.383 . S
C735 H743 0.929 . S
C736 C735 1.383 . S
C736 C737 1.377 . S
C737 H721 0.930 . S
C737 C736 1.377 . S
C737 C738 1.379 . S
C738 H722 0.931 . S
C738 C732 1.383 . S
C738 C737 1.379 . S
H739 C733 0.959 . S
H740 C733 0.961 . S
H741 C733 0.960 . S
H742 C734 0.930 . S
H743 C735 0.929 . S
H744 C752 0.931 . S
H745 C754 0.930 . S
H746 C756 0.930 . S
H747 C759 0.929 . S
H748 C762 0.930 . S
H749 C764 0.960 . S
H750 C764 0.960 . S
H751 C764 0.960 . S
C752 H744 0.931 . S
C752 C753 1.372 1_455 S
C752 C754 1.388 . S
C753 C752 1.372 1_655 S
C753 C759 1.390 . S
C754 H745 0.930 . S
C754 C752 1.388 . S
C754 C755 1.372 . S
C755 C754 1.372 . S
C755 C756 1.400 1_455 S
C755 C760 1.490 . S
C756 H746 0.930 . S
C756 C755 1.400 1_655 S
C756 C759 1.386 . S
H757 C773 0.930 . S
H758 C774 0.931 . S
C759 H747 0.929 . S
C759 C753 1.390 . S
C759 C756 1.386 . S
C760 C755 1.490 . S
C760 C762 1.395 . S
C760 C763 1.403 1_455 S
H761 C767 0.969 . S
C762 H748 0.930 . S
C762 C760 1.395 . S
C762 C765 1.403 . S
C763 C760 1.403 1_655 S
C763 C764 1.524 . S
C763 C767 1.417 . S
C764 H749 0.960 . S
C764 H750 0.960 . S
C764 H751 0.960 . S
C764 C763 1.524 . S
C765 C762 1.403 . S
C765 C766 1.392 . S
C765 C769 1.495 . S
C766 C765 1.392 . S
C766 C767 1.333 1_455 S
C766 C768 1.478 . S
C767 H761 0.969 . S
C767 C763 1.417 . S
C767 C766 1.333 1_655 S
C768 C766 1.478 . S
C768 C770 1.381 . S
C768 C774 1.383 1_554 S
C769 C765 1.495 . S
C769 H775 0.959 . S
C769 H776 0.961 . S
C769 H777 0.960 . S
C770 C768 1.381 . S
C770 C771 1.394 . S
C770 H778 0.930 . S
C771 C770 1.394 . S
C771 C772 1.383 1_554 S
C771 H779 0.929 . S
C772 C771 1.383 1_556 S
C772 C773 1.377 . S
C773 H757 0.930 . S
C773 C772 1.377 . S
C773 C774 1.379 . S
C774 H758 0.931 . S
C774 C768 1.383 1_556 S
C774 C773 1.379 . S
H775 C769 0.959 . S
H776 C769 0.961 . S
H777 C769 0.960 . S
H778 C770 0.930 . S
H779 C771 0.929 . S
H780 C788 0.929 . S
H781 C790 0.930 . S
H782 C792 0.930 . S
H783 C795 0.929 . S
H784 C798 0.930 . S
H785 C800 0.960 . S
H786 C800 0.960 . S
H787 C800 0.960 . S
C788 H780 0.929 . S
C788 C789 1.377 . S
C788 C790 1.384 . S
C789 C788 1.377 . S
C789 C795 1.390 . S
C790 H781 0.930 . S
C790 C788 1.384 . S
C790 C791 1.372 1_565 S
C791 C790 1.372 1_545 S
C791 C792 1.400 . S
C791 C796 1.490 . S
C792 H782 0.930 . S
C792 C791 1.400 . S
C792 C795 1.386 1_545 S
H793 C809 0.930 . S
H794 C810 0.931 . S
C795 H783 0.929 . S
C795 C789 1.390 . S
C795 C792 1.386 1_565 S
C796 C791 1.490 . S
C796 C798 1.395 . S
C796 C799 1.403 1_545 S
H797 C803 0.944 . S
C798 H784 0.930 . S
C798 C796 1.395 . S
C798 C801 1.403 . S
C799 C796 1.403 1_565 S
C799 C800 1.524 . S
C799 C803 1.407 . S
C800 H785 0.960 . S
C800 H786 0.960 . S
C800 H787 0.960 . S
C800 C799 1.524 . S
C801 C798 1.403 . S
C801 C802 1.392 . S
C801 C805 1.495 . S
C802 C801 1.392 . S
C802 C803 1.366 1_545 S
C802 C804 1.478 . S
C803 H797 0.944 . S
C803 C799 1.407 . S
C803 C802 1.366 1_565 S
C804 C802 1.478 . S
C804 C806 1.381 . S
C804 C810 1.383 1_554 S
C805 C801 1.495 . S
C805 H811 0.959 . S
C805 H812 0.961 . S
C805 H813 0.960 . S
C806 C804 1.381 . S
C806 C807 1.394 . S
C806 H814 0.930 . S
C807 C806 1.394 . S
C807 C808 1.383 1_554 S
C807 H815 0.929 . S
C808 C807 1.383 1_556 S
C808 C809 1.377 . S
C809 H793 0.930 . S
C809 C808 1.377 . S
C809 C810 1.379 . S
C810 H794 0.931 . S
C810 C804 1.383 1_556 S
C810 C809 1.379 . S
H811 C805 0.959 . S
H812 C805 0.961 . S
H813 C805 0.960 . S
H814 C806 0.930 . S
H815 C807 0.929 . S
H816 C824 0.929 . S
H817 C826 0.930 . S
H818 C828 0.930 . S
H819 C831 0.929 . S
H820 C834 0.930 . S
H821 C836 0.960 . S
H822 C836 0.960 . S
H823 C836 0.960 . S
C824 H816 0.929 . S
C824 C825 1.377 . S
C824 C826 1.384 . S
C825 C824 1.377 . S
C825 C831 1.390 . S
C826 H817 0.930 . S
C826 C824 1.384 . S
C826 C827 1.372 . S
C827 C826 1.372 . S
C827 C828 1.400 . S
C827 C832 1.490 . S
C828 H818 0.930 . S
C828 C827 1.400 . S
C828 C831 1.386 . S
H829 C845 0.930 . S
H830 C846 0.931 . S
C831 H819 0.929 . S
C831 C825 1.390 . S
C831 C828 1.386 . S
C832 C827 1.490 . S
C832 C834 1.395 . S
C832 C835 1.403 . S
H833 C839 0.930 . S
C834 H820 0.930 . S
C834 C832 1.395 . S
C834 C837 1.403 . S
C835 C832 1.403 . S
C835 C836 1.524 . S
C835 C839 1.400 . S
C836 H821 0.960 . S
C836 H822 0.960 . S
C836 H823 0.960 . S
C836 C835 1.524 . S
C837 C834 1.403 . S
C837 C838 1.392 . S
C837 C841 1.495 . S
C838 C837 1.392 . S
C838 C839 1.385 . S
C838 C840 1.478 . S
C839 H833 0.930 . S
C839 C835 1.400 . S
C839 C838 1.385 . S
C840 C838 1.478 . S
C840 C842 1.381 . S
C840 C846 1.383 1_554 S
C841 C837 1.495 . S
C841 H847 0.959 . S
C841 H848 0.961 1_554 S
C841 H849 0.960 . S
C842 C840 1.381 . S
C842 C843 1.394 . S
C842 H850 0.930 . S
C843 C842 1.394 . S
C843 C844 1.383 1_554 S
C843 H851 0.929 . S
C844 C843 1.383 1_556 S
C844 C845 1.377 . S
C845 H829 0.930 . S
C845 C844 1.377 . S
C845 C846 1.379 . S
C846 H830 0.931 . S
C846 C840 1.383 1_556 S
C846 C845 1.379 . S
H847 C841 0.959 . S
H848 C841 0.961 1_556 S
H849 C841 0.960 . S
H850 C842 0.930 . S
H851 C843 0.929 . S
H852 C860 0.929 . S
H853 C862 0.930 . S
H854 C864 0.930 . S
H855 C867 0.929 . S
H856 C870 0.930 . S
H857 C872 0.960 . S
H858 C872 0.960 . S
H859 C872 0.960 . S
C860 H852 0.929 . S
C860 C861 1.377 . S
C860 C862 1.384 . S
C861 C860 1.377 . S
C861 C867 1.390 . S
C862 H853 0.930 . S
C862 C860 1.384 . S
C862 C863 1.372 . S
C863 C862 1.372 . S
C863 C864 1.400 . S
C863 C868 1.490 . S
C864 H854 0.930 . S
C864 C863 1.400 . S
C864 C867 1.386 . S
H865 C881 0.930 . S
H866 C882 0.931 . S
C867 H855 0.929 . S
C867 C861 1.390 . S
C867 C864 1.386 . S
C868 C863 1.490 . S
C868 C870 1.395 . S
C868 C871 1.403 . S
H869 C875 0.930 . S
C870 H856 0.930 . S
C870 C868 1.395 . S
C870 C873 1.403 . S
C871 C868 1.403 . S
C871 C872 1.524 . S
C871 C875 1.400 . S
C872 H857 0.960 . S
C872 H858 0.960 . S
C872 H859 0.960 . S
C872 C871 1.524 . S
C873 C870 1.403 . S
C873 C874 1.392 . S
C873 C877 1.495 . S
C874 C873 1.392 . S
C874 C875 1.385 . S
C874 C876 1.478 . S
C875 H869 0.930 . S
C875 C871 1.400 . S
C875 C874 1.385 . S
C876 C874 1.478 . S
C876 C878 1.381 . S
C876 C882 1.383 . S
C877 C873 1.495 . S
C877 H883 0.959 . S
C877 H884 0.961 . S
C877 H885 0.960 . S
C878 C876 1.381 . S
C878 C879 1.394 1_554 S
C878 H886 0.930 . S
C879 C878 1.394 1_556 S
C879 C880 1.383 . S
C879 H887 0.929 . S
C880 C879 1.383 . S
C880 C881 1.377 1_556 S
C881 H865 0.930 . S
C881 C880 1.377 1_554 S
C881 C882 1.379 . S
C882 H866 0.931 . S
C882 C876 1.383 . S
C882 C881 1.379 . S
H883 C877 0.959 . S
H884 C877 0.961 . S
H885 C877 0.960 . S
H886 C878 0.930 . S
H887 C879 0.929 . S
H888 C896 0.929 . S
H889 C898 0.930 . S
H890 C900 0.930 1_655 S
H891 C903 0.929 1_655 S
H892 C906 0.930 . S
H893 C908 0.960 . S
H894 C908 0.960 . S
H895 C908 0.960 . S
C896 H888 0.929 . S
C896 C897 1.377 . S
C896 C898 1.384 . S
C897 C896 1.377 . S
C897 C903 1.390 . S
C898 H889 0.930 . S
C898 C896 1.384 . S
C898 C899 1.372 . S
C899 C898 1.372 . S
C899 C900 1.400 . S
C899 C904 1.490 . S
C900 H890 0.930 1_455 S
C900 C899 1.400 . S
C900 C903 1.386 . S
H901 C917 0.930 1_655 S
H902 C918 0.931 . S
C903 H891 0.929 1_455 S
C903 C897 1.390 . S
C903 C900 1.386 . S
C904 C899 1.490 . S
C904 C906 1.395 . S
C904 C907 1.403 1_455 S
H905 C911 0.928 . S
C906 H892 0.930 . S
C906 C904 1.395 . S
C906 C909 1.403 . S
C907 C904 1.403 1_655 S
C907 C908 1.524 . S
C907 C911 1.400 . S
C908 H893 0.960 . S
C908 H894 0.960 . S
C908 H895 0.960 . S
C908 C907 1.524 . S
C909 C906 1.403 . S
C909 C910 1.392 . S
C909 C913 1.495 . S
C910 C909 1.392 . S
C910 C911 1.387 1_455 S
C910 C912 1.478 . S
C911 H905 0.928 . S
C911 C907 1.400 . S
C911 C910 1.387 1_655 S
C912 C910 1.478 . S
C912 C914 1.381 . S
C912 C918 1.383 . S
C913 C909 1.495 . S
C913 H919 0.959 . S
C913 H920 0.961 . S
C913 H921 0.960 . S
C914 C912 1.381 . S
C914 C915 1.394 . S
C914 H922 0.930 . S
C915 C914 1.394 . S
C915 C916 1.383 . S
C915 H923 0.929 . S
C916 C915 1.383 . S
C916 C917 1.377 . S
C917 H901 0.930 1_455 S
C917 C916 1.377 . S
C917 C918 1.379 . S
C918 H902 0.931 . S
C918 C912 1.383 . S
C918 C917 1.379 . S
H919 C913 0.959 . S
H920 C913 0.961 . S
H921 C913 0.960 . S
H922 C914 0.930 . S
H923 C915 0.929 . S
H924 C932 0.929 . S
H925 C934 0.930 . S
H926 C936 0.930 . S
H927 C939 0.929 . S
H928 C942 0.930 . S
H929 C944 0.960 . S
H930 C944 0.960 . S
H931 C944 0.960 . S
C932 H924 0.929 . S
C932 C933 1.377 . S
C932 C934 1.384 . S
C933 C932 1.377 . S
C933 C939 1.390 1_545 S
C934 H925 0.930 . S
C934 C932 1.384 . S
C934 C935 1.372 . S
C935 C934 1.372 . S
C935 C936 1.400 1_545 S
C935 C940 1.490 . S
C936 H926 0.930 . S
C936 C935 1.400 1_565 S
C936 C939 1.386 . S
H937 C953 0.930 . S
H938 C954 0.931 . S
C939 H927 0.929 . S
C939 C933 1.390 1_565 S
C939 C936 1.386 . S
C940 C935 1.490 . S
C940 C942 1.395 . S
C940 C943 1.403 . S
H941 C947 0.930 . S
C942 H928 0.930 . S
C942 C940 1.395 . S
C942 C945 1.403 . S
C943 C940 1.403 . S
C943 C944 1.524 . S
C943 C947 1.400 . S
C944 H929 0.960 . S
C944 H930 0.960 . S
C944 H931 0.960 . S
C944 C943 1.524 . S
C945 C942 1.403 . S
C945 C946 1.392 . S
C945 C949 1.495 . S
C946 C945 1.392 . S
C946 C947 1.385 . S
C946 C948 1.478 . S
C947 H941 0.930 . S
C947 C943 1.400 . S
C947 C946 1.385 . S
C948 C946 1.478 . S
C948 C950 1.381 . S
C948 C954 1.383 1_545 S
C949 C945 1.495 . S
C949 H955 0.959 1_556 S
C949 H956 0.961 1_545 S
C949 H957 0.960 . S
C950 C948 1.381 . S
C950 C951 1.394 . S
C950 H958 0.930 . S
C951 C950 1.394 . S
C951 C952 1.383 . S
C951 H959 0.929 . S
C952 C951 1.383 . S
C952 C953 1.377 1_545 S
C953 H937 0.930 . S
C953 C952 1.377 1_565 S
C953 C954 1.379 . S
C954 H938 0.931 . S
C954 C948 1.383 1_565 S
C954 C953 1.379 . S
H955 C949 0.959 1_554 S
H956 C949 0.961 1_565 S
H957 C949 0.960 . S
H958 C950 0.930 . S
H959 C951 0.929 . S
H960 C968 0.929 . S
H961 C970 0.930 . S
H962 C972 0.930 . S
H963 C975 0.929 . S
H964 C978 0.930 . S
H965 C980 0.960 . S
H966 C980 0.960 . S
H967 C980 0.960 . S
C968 H960 0.929 . S
C968 C969 1.377 . S
C968 C970 1.384 . S
C969 C968 1.377 . S
C969 C975 1.390 . S
C970 H961 0.930 . S
C970 C968 1.384 . S
C970 C971 1.372 . S
C971 C970 1.372 . S
C971 C972 1.400 . S
C971 C976 1.490 . S
C972 H962 0.930 . S
C972 C971 1.400 . S
C972 C975 1.386 . S
H973 C989 0.930 . S
H974 C990 0.931 . S
C975 H963 0.929 . S
C975 C969 1.390 . S
C975 C972 1.386 . S
C976 C971 1.490 . S
C976 C978 1.395 . S
C976 C979 1.403 . S
H977 C983 0.930 . S
C978 H964 0.930 . S
C978 C976 1.395 . S
C978 C981 1.403 . S
C979 C976 1.403 . S
C979 C980 1.524 . S
C979 C983 1.400 . S
C980 H965 0.960 . S
C980 H966 0.960 . S
C980 H967 0.960 . S
C980 C979 1.524 . S
C981 C978 1.403 . S
C981 C982 1.392 . S
C981 C985 1.495 . S
C982 C981 1.392 . S
C982 C983 1.385 . S
C982 C984 1.478 . S
C983 H977 0.930 . S
C983 C979 1.400 . S
C983 C982 1.385 . S
C984 C982 1.478 . S
C984 C986 1.381 . S
C984 C990 1.383 . S
C985 C981 1.495 . S
C985 H991 0.959 . S
C985 H992 0.961 . S
C985 H993 0.960 . S
C986 C984 1.381 . S
C986 C987 1.394 . S
C986 H994 0.930 . S
C987 C986 1.394 . S
C987 C988 1.383 . S
C987 H995 0.929 . S
C988 C987 1.383 . S
C988 C989 1.377 . S
C989 H973 0.930 . S
C989 C988 1.377 . S
C989 C990 1.379 . S
C990 H974 0.931 . S
C990 C984 1.383 . S
C990 C989 1.379 . S
H991 C985 0.959 . S
H992 C985 0.961 . S
H993 C985 0.960 . S
H994 C986 0.930 . S
H995 C987 0.929 . S
H996 C1004 0.929 . S
H997 C1006 0.930 . S
H998 C1008 0.930 . S
H999 C1011 0.929 . S
H1000 C1014 0.930 . S
H1001 C1016 0.960 . S
H1002 C1016 0.960 . S
H1003 C1016 0.960 . S
C1004 H996 0.929 . S
C1004 C1005 1.377 . S
C1004 C1006 1.384 . S
C1005 C1004 1.377 . S
C1005 C1011 1.390 . S
C1006 H997 0.930 . S
C1006 C1004 1.384 . S
C1006 C1007 1.372 . S
C1007 C1006 1.372 . S
C1007 C1008 1.400 . S
C1007 C1012 1.490 . S
C1008 H998 0.930 . S
C1008 C1007 1.400 . S
C1008 C1011 1.386 . S
H1009 C1025 0.930 . S
H1010 C1026 0.931 . S
C1011 H999 0.929 . S
C1011 C1005 1.390 . S
C1011 C1008 1.386 . S
C1012 C1007 1.490 . S
C1012 C1014 1.395 . S
C1012 C1015 1.403 . S
H1013 C1019 0.930 . S
C1014 H1000 0.930 . S
C1014 C1012 1.395 . S
C1014 C1017 1.403 . S
C1015 C1012 1.403 . S
C1015 C1016 1.524 . S
C1015 C1019 1.400 . S
C1016 H1001 0.960 . S
C1016 H1002 0.960 . S
C1016 H1003 0.960 . S
C1016 C1015 1.524 . S
C1017 C1014 1.403 . S
C1017 C1018 1.392 . S
C1017 C1021 1.495 . S
C1018 C1017 1.392 . S
C1018 C1019 1.385 . S
C1018 C1020 1.478 . S
C1019 H1013 0.930 . S
C1019 C1015 1.400 . S
C1019 C1018 1.385 . S
C1020 C1018 1.478 . S
C1020 C1022 1.381 . S
C1020 C1026 1.383 . S
C1021 C1017 1.495 . S
C1021 H1027 0.959 . S
C1021 H1028 0.961 . S
C1021 H1029 0.960 . S
C1022 C1020 1.381 . S
C1022 C1023 1.394 . S
C1022 H1030 0.930 . S
C1023 C1022 1.394 . S
C1023 C1024 1.383 . S
C1023 H1031 0.929 . S
C1024 C1023 1.383 . S
C1024 C1025 1.377 . S
C1025 H1009 0.930 . S
C1025 C1024 1.377 . S
C1025 C1026 1.379 . S
C1026 H1010 0.931 . S
C1026 C1020 1.383 . S
C1026 C1025 1.379 . S
H1027 C1021 0.959 . S
H1028 C1021 0.961 . S
H1029 C1021 0.960 . S
H1030 C1022 0.930 . S
H1031 C1023 0.929 . S
H1032 C1040 0.929 . S
H1033 C1042 0.930 . S
H1034 C1044 0.930 . S
H1035 C1047 0.929 . S
H1036 C1050 0.930 . S
H1037 C1052 0.960 . S
H1038 C1052 0.960 . S
H1039 C1052 0.960 . S
C1040 H1032 0.929 . S
C1040 C1041 1.377 . S
C1040 C1042 1.384 . S
C1041 C1040 1.377 . S
C1041 C1047 1.390 1_655 S
C1042 H1033 0.930 . S
C1042 C1040 1.384 . S
C1042 C1043 1.372 . S
C1043 C1042 1.372 . S
C1043 C1044 1.400 1_655 S
C1043 C1048 1.490 . S
C1044 H1034 0.930 . S
C1044 C1043 1.400 1_455 S
C1044 C1047 1.386 . S
H1045 C1061 0.930 . S
H1046 C1062 0.931 . S
C1047 H1035 0.929 . S
C1047 C1041 1.390 1_455 S
C1047 C1044 1.386 . S
C1048 C1043 1.490 . S
C1048 C1050 1.395 . S
C1048 C1051 1.403 1_655 S
H1049 C1055 0.930 . S
C1050 H1036 0.930 . S
C1050 C1048 1.395 . S
C1050 C1053 1.403 . S
C1051 C1048 1.403 1_455 S
C1051 C1052 1.524 . S
C1051 C1055 1.400 . S
C1052 H1037 0.960 . S
C1052 H1038 0.960 . S
C1052 H1039 0.960 . S
C1052 C1051 1.524 . S
C1053 C1050 1.403 . S
C1053 C1054 1.392 . S
C1053 C1057 1.495 . S
C1054 C1053 1.392 . S
C1054 C1055 1.385 1_655 S
C1054 C1056 1.478 . S
C1055 H1049 0.930 . S
C1055 C1051 1.400 . S
C1055 C1054 1.385 1_455 S
C1056 C1054 1.478 . S
C1056 C1058 1.381 . S
C1056 C1062 1.383 1_655 S
C1057 C1053 1.495 . S
C1057 H1063 0.959 . S
C1057 H1064 0.961 . S
C1057 H1065 0.960 . S
C1058 C1056 1.381 . S
C1058 C1059 1.394 . S
C1058 H1066 0.930 . S
C1059 C1058 1.394 . S
C1059 C1060 1.383 . S
C1059 H1067 0.929 . S
C1060 C1059 1.383 . S
C1060 C1061 1.377 1_655 S
C1061 H1045 0.930 . S
C1061 C1060 1.377 1_455 S
C1061 C1062 1.379 . S
C1062 H1046 0.931 . S
C1062 C1056 1.383 1_455 S
C1062 C1061 1.379 . S
H1063 C1057 0.959 . S
H1064 C1057 0.961 . S
H1065 C1057 0.960 . S
H1066 C1058 0.930 . S
H1067 C1059 0.929 . S
H1068 C1076 0.929 . S
H1069 C1078 0.930 . S
H1070 C1080 0.930 . S
H1071 C1083 0.929 . S
H1072 C1086 0.930 . S
H1073 C1088 0.963 . S
H1074 C1088 0.960 . S
H1075 C1088 0.960 1_545 S
C1076 H1068 0.929 . S
C1076 C1077 1.377 . S
C1076 C1078 1.384 . S
C1077 C1076 1.377 . S
C1077 C1083 1.390 1_565 S
C1078 H1069 0.930 . S
C1078 C1076 1.384 . S
C1078 C1079 1.372 . S
C1079 C1078 1.372 . S
C1079 C1080 1.400 1_565 S
C1079 C1084 1.490 . S
C1080 H1070 0.930 . S
C1080 C1079 1.400 1_545 S
C1080 C1083 1.386 . S
H1081 C1097 0.930 . S
H1082 C1098 0.931 . S
C1083 H1071 0.929 . S
C1083 C1077 1.390 1_545 S
C1083 C1080 1.386 . S
C1084 C1079 1.490 . S
C1084 C1086 1.395 . S
C1084 C1087 1.403 . S
H1085 C1091 0.930 . S
C1086 H1072 0.930 . S
C1086 C1084 1.395 . S
C1086 C1089 1.403 . S
C1087 C1084 1.403 . S
C1087 C1088 1.524 . S
C1087 C1091 1.400 . S
C1088 H1073 0.963 . S
C1088 H1074 0.960 . S
C1088 H1075 0.960 1_565 S
C1088 C1087 1.524 . S
C1089 C1086 1.403 . S
C1089 C1090 1.392 . S
C1089 C1093 1.495 . S
C1090 C1089 1.392 . S
C1090 C1091 1.385 . S
C1090 C1092 1.478 . S
C1091 H1085 0.930 . S
C1091 C1087 1.400 . S
C1091 C1090 1.385 . S
C1092 C1090 1.478 . S
C1092 C1094 1.381 . S
C1092 C1098 1.383 1_565 S
C1093 C1089 1.495 . S
C1093 H1099 0.959 . S
C1093 H1100 0.984 . S
C1093 H1101 0.960 . S
C1094 C1092 1.381 . S
C1094 C1095 1.394 . S
C1094 H1102 0.930 . S
C1095 C1094 1.394 . S
C1095 C1096 1.383 . S
C1095 H1103 0.929 . S
C1096 C1095 1.383 . S
C1096 C1097 1.377 1_565 S
C1097 H1081 0.930 . S
C1097 C1096 1.377 1_545 S
C1097 C1098 1.379 . S
C1098 H1082 0.931 . S
C1098 C1092 1.383 1_545 S
C1098 C1097 1.379 . S
H1099 C1093 0.959 . S
H1100 C1093 0.984 . S
H1101 C1093 0.960 . S
H1102 C1094 0.930 . S
H1103 C1095 0.929 . S
H1104 C1112 0.929 . S
H1105 C1114 0.930 . S
H1106 C1116 0.930 . S
H1107 C1119 0.929 . S
H1108 C1122 0.930 . S
H1109 C1124 0.960 . S
H1110 C1124 0.960 . S
H1111 C1124 0.960 . S
C1112 H1104 0.929 . S
C1112 C1113 1.377 . S
C1112 C1114 1.384 . S
C1113 C1112 1.377 . S
C1113 C1119 1.390 . S
C1114 H1105 0.930 . S
C1114 C1112 1.384 . S
C1114 C1115 1.372 . S
C1115 C1114 1.372 . S
C1115 C1116 1.400 . S
C1115 C1120 1.490 . S
C1116 H1106 0.930 . S
C1116 C1115 1.400 . S
C1116 C1119 1.386 . S
H1117 C1133 0.930 . S
H1118 C1134 0.931 . S
C1119 H1107 0.929 . S
C1119 C1113 1.390 . S
C1119 C1116 1.386 . S
C1120 C1115 1.490 . S
C1120 C1122 1.395 . S
C1120 C1123 1.403 . S
H1121 C1127 0.930 . S
C1122 H1108 0.930 . S
C1122 C1120 1.395 . S
C1122 C1125 1.403 . S
C1123 C1120 1.403 . S
C1123 C1124 1.524 . S
C1123 C1127 1.400 . S
C1124 H1109 0.960 . S
C1124 H1110 0.960 . S
C1124 H1111 0.960 . S
C1124 C1123 1.524 . S
C1125 C1122 1.403 . S
C1125 C1126 1.392 . S
C1125 C1129 1.495 . S
C1126 C1125 1.392 . S
C1126 C1127 1.385 . S
C1126 C1128 1.478 . S
C1127 H1121 0.930 . S
C1127 C1123 1.400 . S
C1127 C1126 1.385 . S
C1128 C1126 1.478 . S
C1128 C1130 1.381 . S
C1128 C1134 1.383 . S
C1129 C1125 1.495 . S
C1129 H1135 0.959 . S
C1129 H1136 0.961 . S
C1129 H1137 0.960 . S
C1130 C1128 1.381 . S
C1130 C1131 1.394 . S
C1130 H1138 0.930 . S
C1131 C1130 1.394 . S
C1131 C1132 1.383 . S
C1131 H1139 0.929 . S
C1132 C1131 1.383 . S
C1132 C1133 1.377 . S
C1133 H1117 0.930 . S
C1133 C1132 1.377 . S
C1133 C1134 1.379 . S
C1134 H1118 0.931 . S
C1134 C1128 1.383 . S
C1134 C1133 1.379 . S
H1135 C1129 0.959 . S
H1136 C1129 0.961 . S
H1137 C1129 0.960 . S
H1138 C1130 0.930 . S
H1139 C1131 0.929 . S
H1140 C1148 0.929 . S
H1141 C1150 0.930 . S
H1142 C1152 0.930 . S
H1143 C1155 0.929 . S
H1144 C1158 0.930 . S
H1145 C1160 0.960 . S
H1146 C1160 0.960 . S
H1147 C1160 0.960 . S
C1148 H1140 0.929 . S
C1148 C1149 1.377 . S
C1148 C1150 1.384 . S
C1149 C1148 1.377 . S
C1149 C1155 1.390 . S
C1150 H1141 0.930 . S
C1150 C1148 1.384 . S
C1150 C1151 1.372 . S
C1151 C1150 1.372 . S
C1151 C1152 1.400 . S
C1151 C1156 1.490 . S
C1152 H1142 0.930 . S
C1152 C1151 1.400 . S
C1152 C1155 1.386 . S
H1153 C1169 0.930 . S
H1154 C1170 0.931 . S
C1155 H1143 0.929 . S
C1155 C1149 1.390 . S
C1155 C1152 1.386 . S
C1156 C1151 1.490 . S
C1156 C1158 1.395 . S
C1156 C1159 1.403 . S
H1157 C1163 0.930 . S
C1158 H1144 0.930 . S
C1158 C1156 1.395 . S
C1158 C1161 1.403 . S
C1159 C1156 1.403 . S
C1159 C1160 1.524 . S
C1159 C1163 1.400 . S
C1160 H1145 0.960 . S
C1160 H1146 0.960 . S
C1160 H1147 0.960 . S
C1160 C1159 1.524 . S
C1161 C1158 1.403 . S
C1161 C1162 1.392 . S
C1161 C1165 1.495 . S
C1162 C1161 1.392 . S
C1162 C1163 1.385 . S
C1162 C1164 1.478 . S
C1163 H1157 0.930 . S
C1163 C1159 1.400 . S
C1163 C1162 1.385 . S
C1164 C1162 1.478 . S
C1164 C1166 1.381 . S
C1164 C1170 1.383 . S
C1165 C1161 1.495 . S
C1165 H1171 0.959 . S
C1165 H1172 0.961 . S
C1165 H1173 0.960 . S
C1166 C1164 1.381 . S
C1166 C1167 1.394 . S
C1166 H1174 0.930 . S
C1167 C1166 1.394 . S
C1167 C1168 1.383 . S
C1167 H1175 0.929 . S
C1168 C1167 1.383 . S
C1168 C1169 1.377 . S
C1169 H1153 0.930 . S
C1169 C1168 1.377 . S
C1169 C1170 1.379 . S
C1170 H1154 0.931 . S
C1170 C1164 1.383 . S
C1170 C1169 1.379 . S
H1171 C1165 0.959 . S
H1172 C1165 0.961 . S
H1173 C1165 0.960 . S
H1174 C1166 0.930 . S
H1175 C1167 0.929 . S
C321 C125 1.792 . S
C340 C162 1.835 . S
C376 C202 1.841 . S
C357 C144 1.789 . S
C412 C242 1.825 . S
C393 C87 1.783 . S
C448 C282 1.840 . S
C429 C106 1.787 . S
C484 C171 1.842 . S
C465 C49 1.804 . S
C501 C68 1.803 . S
C520 C211 1.832 . S
C537 C11 1.803 . S
C556 C251 1.831 . S
C573 C30 1.798 . S
C592 C291 1.845 . S
C628 C168 0.406 . S
C609 C97 0.479 . S
C664 C208 0.454 . S
C645 C116 0.493 . S
C700 C248 0.456 . S
C681 C135 0.493 . S
C717 C78 0.480 . S
C736 C288 0.410 . S
C753 C21 0.463 . S
C772 C159 0.456 . S
C808 C199 0.451 . S
C789 C40 0.468 . S
C844 C239 0.442 . S
C825 C59 0.454 . S
C861 C2 0.491 . S
C880 C279 0.369 . S
C897 C101 1.918 . S
C916 C163 2.098 . S
C933 C120 1.915 . S
C952 C203 2.088 . S
C988 C243 2.079 . S
C969 C139 1.906 . S
C1024 C283 2.081 . S
C1005 C82 1.907 . S
C1041 C25 1.906 . S
C1060 C154 2.093 . S
C1096 C194 2.087 . S
C1077 C44 1.908 . S
C1132 C234 2.097 . S
C1113 C63 1.906 . S
C1149 C6 1.918 . S
C1168 C274 2.078 . S
