# Generated by pormake.
# Topology ctn, (3,4)-cn, num edge types: 1
# Building blocks:
#     Node 0, Type 0, BuildingBlock: ESEHIV_clean_linker_0, # of connection points: 3
#     Node 1, Type 0, BuildingBlock: ESEHIV_clean_linker_0, # of connection points: 3
#     Node 2, Type 0, BuildingBlock: ESEHIV_clean_linker_0, # of connection points: 3
#     Node 3, Type 0, BuildingBlock: ESEHIV_clean_linker_0, # of connection points: 3
#     Node 4, Type 0, BuildingBlock: ESEHIV_clean_linker_0, # of connection points: 3
#     Node 5, Type 0, BuildingBlock: ESEHIV_clean_linker_0, # of connection points: 3
#     Node 6, Type 0, BuildingBlock: ESEHIV_clean_linker_0, # of connection points: 3
#     Node 7, Type 0, BuildingBlock: ESEHIV_clean_linker_0, # of connection points: 3
#     Node 8, Type 0, BuildingBlock: ESEHIV_clean_linker_0, # of connection points: 3
#     Node 9, Type 0, BuildingBlock: ESEHIV_clean_linker_0, # of connection points: 3
#     Node 10, Type 0, BuildingBlock: ESEHIV_clean_linker_0, # of connection points: 3
#     Node 11, Type 0, BuildingBlock: ESEHIV_clean_linker_0, # of connection points: 3
#     Node 12, Type 0, BuildingBlock: ESEHIV_clean_linker_0, # of connection points: 3
#     Node 13, Type 0, BuildingBlock: ESEHIV_clean_linker_0, # of connection points: 3
#     Node 14, Type 0, BuildingBlock: ESEHIV_clean_linker_0, # of connection points: 3
#     Node 15, Type 0, BuildingBlock: ESEHIV_clean_linker_0, # of connection points: 3
#     Node 16, Type 1, BuildingBlock: NAHDIM_clean_sbu_0, # of connection points: 4
#     Node 17, Type 1, BuildingBlock: NAHDIM_clean_sbu_0, # of connection points: 4
#     Node 18, Type 1, BuildingBlock: NAHDIM_clean_sbu_0, # of connection points: 4
#     Node 19, Type 1, BuildingBlock: NAHDIM_clean_sbu_0, # of connection points: 4
#     Node 20, Type 1, BuildingBlock: NAHDIM_clean_sbu_0, # of connection points: 4
#     Node 21, Type 1, BuildingBlock: NAHDIM_clean_sbu_0, # of connection points: 4
#     Node 22, Type 1, BuildingBlock: NAHDIM_clean_sbu_0, # of connection points: 4
#     Node 23, Type 1, BuildingBlock: NAHDIM_clean_sbu_0, # of connection points: 4
#     Node 24, Type 1, BuildingBlock: NAHDIM_clean_sbu_0, # of connection points: 4
#     Node 25, Type 1, BuildingBlock: NAHDIM_clean_sbu_0, # of connection points: 4
#     Node 26, Type 1, BuildingBlock: NAHDIM_clean_sbu_0, # of connection points: 4
#     Node 27, Type 1, BuildingBlock: NAHDIM_clean_sbu_0, # of connection points: 4
#     Edge 28, Type (0, 1), BuildingBlock: TEMPAE_clean_linker_10, # of connection points: 2
#     Edge 29, Type (0, 1), BuildingBlock: TEMPAE_clean_linker_10, # of connection points: 2
#     Edge 30, Type (0, 1), BuildingBlock: TEMPAE_clean_linker_10, # of connection points: 2
#     Edge 31, Type (0, 1), BuildingBlock: TEMPAE_clean_linker_10, # of connection points: 2
#     Edge 32, Type (0, 1), BuildingBlock: TEMPAE_clean_linker_10, # of connection points: 2
#     Edge 33, Type (0, 1), BuildingBlock: TEMPAE_clean_linker_10, # of connection points: 2
#     Edge 34, Type (0, 1), BuildingBlock: TEMPAE_clean_linker_10, # of connection points: 2
#     Edge 35, Type (0, 1), BuildingBlock: TEMPAE_clean_linker_10, # of connection points: 2
#     Edge 36, Type (0, 1), BuildingBlock: TEMPAE_clean_linker_10, # of connection points: 2
#     Edge 37, Type (0, 1), BuildingBlock: TEMPAE_clean_linker_10, # of connection points: 2
#     Edge 38, Type (0, 1), BuildingBlock: TEMPAE_clean_linker_10, # of connection points: 2
#     Edge 39, Type (0, 1), BuildingBlock: TEMPAE_clean_linker_10, # of connection points: 2
#     Edge 40, Type (0, 1), BuildingBlock: TEMPAE_clean_linker_10, # of connection points: 2
#     Edge 41, Type (0, 1), BuildingBlock: TEMPAE_clean_linker_10, # of connection points: 2
#     Edge 42, Type (0, 1), BuildingBlock: TEMPAE_clean_linker_10, # of connection points: 2
#     Edge 43, Type (0, 1), BuildingBlock: TEMPAE_clean_linker_10, # of connection points: 2
#     Edge 44, Type (0, 1), BuildingBlock: TEMPAE_clean_linker_10, # of connection points: 2
#     Edge 45, Type (0, 1), BuildingBlock: TEMPAE_clean_linker_10, # of connection points: 2
#     Edge 46, Type (0, 1), BuildingBlock: TEMPAE_clean_linker_10, # of connection points: 2
#     Edge 47, Type (0, 1), BuildingBlock: TEMPAE_clean_linker_10, # of connection points: 2
#     Edge 48, Type (0, 1), BuildingBlock: TEMPAE_clean_linker_10, # of connection points: 2
#     Edge 49, Type (0, 1), BuildingBlock: TEMPAE_clean_linker_10, # of connection points: 2
#     Edge 50, Type (0, 1), BuildingBlock: TEMPAE_clean_linker_10, # of connection points: 2
#     Edge 51, Type (0, 1), BuildingBlock: TEMPAE_clean_linker_10, # of connection points: 2
#     Edge 52, Type (0, 1), BuildingBlock: TEMPAE_clean_linker_10, # of connection points: 2
#     Edge 53, Type (0, 1), BuildingBlock: TEMPAE_clean_linker_10, # of connection points: 2
#     Edge 54, Type (0, 1), BuildingBlock: TEMPAE_clean_linker_10, # of connection points: 2
#     Edge 55, Type (0, 1), BuildingBlock: TEMPAE_clean_linker_10, # of connection points: 2
#     Edge 56, Type (0, 1), BuildingBlock: TEMPAE_clean_linker_10, # of connection points: 2
#     Edge 57, Type (0, 1), BuildingBlock: TEMPAE_clean_linker_10, # of connection points: 2
#     Edge 58, Type (0, 1), BuildingBlock: TEMPAE_clean_linker_10, # of connection points: 2
#     Edge 59, Type (0, 1), BuildingBlock: TEMPAE_clean_linker_10, # of connection points: 2
#     Edge 60, Type (0, 1), BuildingBlock: TEMPAE_clean_linker_10, # of connection points: 2
#     Edge 61, Type (0, 1), BuildingBlock: TEMPAE_clean_linker_10, # of connection points: 2
#     Edge 62, Type (0, 1), BuildingBlock: TEMPAE_clean_linker_10, # of connection points: 2
#     Edge 63, Type (0, 1), BuildingBlock: TEMPAE_clean_linker_10, # of connection points: 2
#     Edge 64, Type (0, 1), BuildingBlock: TEMPAE_clean_linker_10, # of connection points: 2
#     Edge 65, Type (0, 1), BuildingBlock: TEMPAE_clean_linker_10, # of connection points: 2
#     Edge 66, Type (0, 1), BuildingBlock: TEMPAE_clean_linker_10, # of connection points: 2
#     Edge 67, Type (0, 1), BuildingBlock: TEMPAE_clean_linker_10, # of connection points: 2
#     Edge 68, Type (0, 1), BuildingBlock: TEMPAE_clean_linker_10, # of connection points: 2
#     Edge 69, Type (0, 1), BuildingBlock: TEMPAE_clean_linker_10, # of connection points: 2
#     Edge 70, Type (0, 1), BuildingBlock: TEMPAE_clean_linker_10, # of connection points: 2
#     Edge 71, Type (0, 1), BuildingBlock: TEMPAE_clean_linker_10, # of connection points: 2
#     Edge 72, Type (0, 1), BuildingBlock: TEMPAE_clean_linker_10, # of connection points: 2
#     Edge 73, Type (0, 1), BuildingBlock: TEMPAE_clean_linker_10, # of connection points: 2
#     Edge 74, Type (0, 1), BuildingBlock: TEMPAE_clean_linker_10, # of connection points: 2
#     Edge 75, Type (0, 1), BuildingBlock: TEMPAE_clean_linker_10, # of connection points: 2
# Relax obj value: 0.002
# Max RMSD: 0.033
# Mean RMSD: 0.017
data_MOF--net-ctn--node1-NAHDIM_clean_sbu_0--node2-ESEHIV_clean_linker_0--edge1-TEMPAE_clean_linker_10
_symmetry_space_group_name_H-M    P1
_symmetry_Int_Tables_number       1
_symmetry_cell_setting            triclinic
loop_
_symmetry_equiv_pos_as_xyz
'x, y, z'
_cell_length_a     52.41213
_cell_length_b     52.722327
_cell_length_c     52.095088
_cell_angle_alpha  91.206662
_cell_angle_beta   90.160364
_cell_angle_gamma 92.408701
loop_
_atom_site_label
_atom_site_type_symbol
_atom_site_fract_x
_atom_site_fract_y
_atom_site_fract_z
_atom_type_partial_charge
H0 H -0.00131 0.06027 0.04908 0.0
H1 H 0.04568 -0.00034 0.07189 0.0
H2 H 0.06821 0.04645 0.00848 0.0
C3 C 0.01535 0.04906 0.04613 0.0
C4 C 0.03271 0.05552 0.02663 0.0
C5 C 0.02003 0.02912 0.06272 0.0
C6 C 0.04216 0.01532 0.05938 0.0
C7 C 0.05954 0.02131 0.03973 0.0
C8 C 0.05469 0.04147 0.02346 0.0
H9 H 0.28648 0.68415 0.25597 0.0
H10 H 0.30434 0.75276 0.21524 0.0
H11 H 0.23848 0.70579 0.1937 0.0
C12 C 0.28188 0.69748 0.24127 0.0
C13 C 0.26047 0.69241 0.22539 0.0
C14 C 0.29789 0.71918 0.23771 0.0
C15 C 0.29217 0.73593 0.21809 0.0
C16 C 0.27096 0.73106 0.20197 0.0
C17 C 0.2552 0.70929 0.20575 0.0
H18 H 0.9626 0.50148 0.06205 0.0
H19 H 0.0042 0.43581 0.04093 0.0
H20 H 0.94777 0.46316 0.98945 0.0
C21 C 0.96676 0.48665 0.04814 0.0
C22 C 0.95279 0.48441 0.02508 0.0
C23 C 0.98541 0.46928 0.05389 0.0
C24 C 0.99001 0.44942 0.03638 0.0
C25 C 0.97638 0.44692 0.01315 0.0
C26 C 0.95792 0.46461 0.00761 0.0
H27 H 0.68376 0.76118 0.1954 0.0
H28 H 0.74703 0.81039 0.17386 0.0
H29 H 0.69716 0.83325 0.23467 0.0
C30 C 0.69463 0.779 0.19791 0.0
C31 C 0.6875 0.79672 0.21685 0.0
C32 C 0.71606 0.78381 0.18239 0.0
C33 C 0.73081 0.8064 0.18622 0.0
C34 C 0.72425 0.82427 0.20518 0.0
C35 C 0.70246 0.81935 0.22026 0.0
H36 H 0.99671 0.95081 0.46284 0.0
H37 H 0.03741 0.01844 0.43829 0.0
H38 H 0.06499 0.97754 0.50265 0.0
C39 C 0.01253 0.96458 0.46519 0.0
C40 C 0.03041 0.96185 0.48497 0.0
C41 C 0.01493 0.98496 0.44836 0.0
C42 C 0.03552 0.00269 0.4513 0.0
C43 C 0.05377 8e-05 0.47076 0.0
C44 C 0.051 0.97966 0.48757 0.0
H45 H 0.17902 0.76772 0.7943 0.0
H46 H 0.24072 0.72431 0.82133 0.0
H47 H 0.1941 0.69559 0.75839 0.0
C48 C 0.18989 0.75072 0.79311 0.0
C49 C 0.18358 0.73179 0.77447 0.0
C50 C 0.21038 0.74813 0.81013 0.0
C51 C 0.22524 0.72669 0.80787 0.0
C52 C 0.21973 0.70781 0.78901 0.0
C53 C 0.19869 0.71037 0.7726 0.0
H54 H 0.94135 0.54139 0.49956 0.0
H55 H 0.0119 0.56107 0.46128 0.0
H56 H 0.96848 0.49294 0.43921 0.0
C57 C 0.95553 0.53745 0.48507 0.0
C58 C 0.95248 0.5154 0.46968 0.0
C59 C 0.97703 0.55398 0.48237 0.0
C60 C 0.99539 0.54828 0.46374 0.0
C61 C 0.99256 0.52626 0.44814 0.0
C62 C 0.97114 0.50975 0.45144 0.0
H63 H 0.75064 0.77874 0.81169 0.0
H64 H 0.79099 0.80475 0.74497 0.0
H65 H 0.81243 0.73627 0.78138 0.0
C66 C 0.7655 0.77626 0.79755 0.0
C67 C 0.78149 0.75562 0.79923 0.0
C68 C 0.7685 0.79373 0.77771 0.0
C69 C 0.78807 0.79072 0.7597 0.0
C70 C 0.80429 0.77022 0.761 0.0
C71 C 0.80063 0.75263 0.78071 0.0
H72 H 0.26202 0.28608 0.30943 0.0
H73 H 0.30638 0.31178 0.24513 0.0
H74 H 0.32828 0.24609 0.28588 0.0
C75 C 0.27837 0.28413 0.29697 0.0
C76 C 0.29488 0.26412 0.30048 0.0
C77 C 0.28237 0.30136 0.27706 0.0
C78 C 0.30289 0.29821 0.2602 0.0
C79 C 0.31938 0.27817 0.26309 0.0
C80 C 0.31539 0.26138 0.28342 0.0
H81 H 0.46358 -0.00065 0.56311 0.0
H82 H 0.50605 0.93405 0.54243 0.0
H83 H 0.44405 0.95606 0.49452 0.0
C84 C 0.46688 0.98349 0.55013 0.0
C85 C 0.45113 0.9793 0.52847 0.0
C86 C 0.48693 0.96742 0.55508 0.0
C87 C 0.49103 0.94687 0.53821 0.0
C88 C 0.47553 0.94241 0.51639 0.0
C89 C 0.45566 0.95881 0.51167 0.0
H90 H 0.18397 0.25451 0.70068 0.0
H91 H 0.24447 0.30484 0.67447 0.0
H92 H 0.20069 0.3255 0.74092 0.0
C93 C 0.19531 0.27209 0.703 0.0
C94 C 0.18974 0.28939 0.72287 0.0
C95 C 0.21488 0.27767 0.68548 0.0
C96 C 0.22908 0.30072 0.68782 0.0
C97 C 0.22426 0.31793 0.70799 0.0
C98 C 0.20451 0.31219 0.72539 0.0
H99 H 0.80027 0.17857 0.74821 0.0
H100 H 0.81744 0.25008 0.71264 0.0
H101 H 0.7604 0.1981 0.67968 0.0
C102 C 0.79693 0.19185 0.7331 0.0
C103 C 0.77807 0.1859 0.71445 0.0
C104 C 0.81156 0.21478 0.73233 0.0
C105 C 0.80688 0.23197 0.7128 0.0
C106 C 0.78839 0.22621 0.69376 0.0
C107 C 0.77417 0.20307 0.6947 0.0
H108 H 0.49693 0.5681 0.54639 0.0
H109 H 0.54979 0.51541 0.57517 0.0
H110 H 0.56514 0.55291 0.50389 0.0
C111 C 0.51456 0.55823 0.54428 0.0
C112 C 0.5302 0.56263 0.52285 0.0
C113 C 0.52168 0.54139 0.56322 0.0
C114 C 0.54452 0.52867 0.56064 0.0
C115 C 0.56007 0.53233 0.539 0.0
C116 C 0.55279 0.54937 0.5202 0.0
H117 H 0.4937 0.44666 0.94983 0.0
H118 H 0.5369 0.51419 0.92885 0.0
H119 H 0.56171 0.46972 0.99189 0.0
C120 C 0.50985 0.45991 0.95295 0.0
C121 C 0.52716 0.45585 0.97289 0.0
C122 C 0.51327 0.48085 0.93692 0.0
C123 C 0.53437 0.4978 0.94095 0.0
C124 C 0.5518 0.49411 0.96096 0.0
C125 C 0.548 0.47309 0.97685 0.0
H126 H 0.68021 0.26211 0.30172 0.0
H127 H 0.743 0.22106 0.33034 0.0
H128 H 0.70528 0.1965 0.26006 0.0
C129 C 0.69308 0.24663 0.2997 0.0
C130 C 0.69034 0.22957 0.27873 0.0
C131 C 0.71219 0.24386 0.31821 0.0
C132 C 0.72867 0.22365 0.31569 0.0
C133 C 0.72613 0.20624 0.29494 0.0
C134 C 0.70698 0.20944 0.27647 0.0
H135 H 0.44863 0.03687 0.0058 0.0
H136 H 0.51055 0.06426 0.95845 0.0
H137 H 0.46796 0.99561 0.93701 0.0
C138 C 0.46052 0.03485 0.98897 0.0
C139 C 0.45567 0.01434 0.97175 0.0
C140 C 0.48043 0.05288 0.98447 0.0
C141 C 0.49566 0.05005 0.96253 0.0
C142 C 0.49129 0.02949 0.94529 0.0
C143 C 0.47121 0.01175 0.95002 0.0
C144 C 0.2207 0.92529 0.01652 0.0
O145 O 0.24202 0.93736 0.00988 0.0
O146 O 0.24648 0.85854 0.98294 0.0
Zn147 Zn 0.2518 0.88101 0.01415 0.0
O148 O 0.2828 0.90396 0.00906 0.0
C149 C 0.2386 0.84921 0.05667 0.0
O150 O 0.21526 0.85376 0.04931 0.0
O151 O 0.22055 0.90142 0.01952 0.0
C152 C 0.30392 0.89484 0.00249 0.0
O153 O 0.30524 0.87014 -0.00069 0.0
C154 C 0.2443 0.86802 0.96087 0.0
O155 O 0.2456 0.89283 0.95873 0.0
O156 O 0.25738 0.85911 0.04454 0.0
C157 C 0.17594 0.45449 0.2549 0.0
O158 O 0.18759 0.47654 0.25064 0.0
O159 O 0.1076 0.4873 0.28248 0.0
Zn160 Zn 0.13062 0.48386 0.25202 0.0
O161 O 0.15337 0.51535 0.2497 0.0
C162 C 0.08625 0.4856 0.21912 0.0
O163 O 0.07551 0.49391 0.24026 0.0
O164 O 0.1517 0.45309 0.25616 0.0
C165 C 0.14409 0.53715 0.24833 0.0
O166 O 0.11917 0.53901 0.24861 0.0
C167 C 0.11641 0.49316 0.30465 0.0
O168 O 0.1412 0.49665 0.30775 0.0
O169 O 0.1096 0.47998 0.21963 0.0
C170 C 0.81014 0.60246 0.99169 0.0
O171 O 0.81006 0.61656 0.97122 0.0
O172 O 0.76427 0.64531 0.97038 0.0
Zn173 Zn 0.76026 0.62345 0.00146 0.0
O174 O 0.72933 0.6001 0.99613 0.0
C175 C 0.75919 0.66948 0.03252 0.0
O176 O 0.76795 0.67985 0.01143 0.0
O177 O 0.79124 0.60267 0.00694 0.0
C178 C 0.70796 0.60962 0.99155 0.0
O179 O 0.70674 0.63444 0.99077 0.0
C180 C 0.76104 0.63649 0.94766 0.0
O181 O 0.75546 0.61213 0.94411 0.0
O182 O 0.75474 0.64559 0.03284 0.0
C183 C 0.83865 0.05581 0.28051 0.0
O184 O 0.84029 0.04022 0.29972 0.0
O185 O 0.894 0.01548 0.28529 0.0
Zn186 Zn 0.87046 0.01951 0.2552 0.0
O187 O 0.84637 0.98894 0.2513 0.0
C188 C 0.90188 0.0036 0.21318 0.0
O189 O 0.89749 0.98119 0.22322 0.0
O190 O 0.85016 0.05087 0.25968 0.0
C191 C 0.83461 0.98457 0.23021 0.0
O192 O 0.83826 0.00035 0.21125 0.0
C193 C 0.88774 0.00267 0.30486 0.0
O194 O 0.86482 0.99168 0.30597 0.0
O195 O 0.89208 0.02291 0.22357 0.0
C196 C 0.30816 0.09496 0.48856 0.0
O197 O 0.30338 0.10071 0.46465 0.0
O198 O 0.27375 0.14723 0.46724 0.0
Zn199 Zn 0.26558 0.12667 0.49875 0.0
O200 O 0.23315 0.10518 0.49333 0.0
C201 C 0.24439 0.14741 0.54582 0.0
O202 O 0.22929 0.1269 0.5445 0.0
O203 O 0.29443 0.10392 0.50637 0.0
C204 C 0.21174 0.11512 0.48991 0.0
O205 O 0.21078 0.13998 0.48968 0.0
C206 C 0.26217 0.14355 0.44591 0.0
O207 O 0.24453 0.12522 0.44359 0.0
O208 O 0.26141 0.15099 0.52878 0.0
C209 C 0.33126 0.5566 0.7736 0.0
O210 O 0.3346 0.54189 0.79327 0.0
O211 O 0.38432 0.51713 0.78094 0.0
Zn212 Zn 0.36346 0.52081 0.74863 0.0
O213 O 0.33942 0.49022 0.7423 0.0
C214 C 0.40795 0.51435 0.7166 0.0
O215 O 0.41386 0.49805 0.73416 0.0
O216 O 0.34206 0.55141 0.75243 0.0
C217 C 0.34534 0.47062 0.72937 0.0
O218 O 0.36828 0.46961 0.71947 0.0
C219 C 0.3898 0.49567 0.78963 0.0
O220 O 0.38116 0.47489 0.77763 0.0
O221 O 0.38738 0.52616 0.71872 0.0
C222 C 0.7183 0.43137 0.51742 0.0
O223 O 0.73897 0.44128 0.50671 0.0
O224 O 0.73899 0.3624 0.48757 0.0
Zn225 Zn 0.74736 0.38569 0.51774 0.0
O226 O 0.77997 0.40646 0.51165 0.0
C227 C 0.76139 0.34233 0.54549 0.0
O228 O 0.76714 0.33444 0.52221 0.0
O229 O 0.71781 0.40824 0.52387 0.0
C230 C 0.79379 0.40354 0.49186 0.0
O231 O 0.78686 0.38635 0.47433 0.0
C232 C 0.73101 0.36987 0.46609 0.0
O233 O 0.72771 0.39418 0.46294 0.0
O234 O 0.75247 0.36423 0.54863 0.0
C235 C 0.64865 0.93746 0.76121 0.0
O236 O 0.62395 0.93374 0.76458 0.0
O237 O 0.61243 0.99168 0.78284 0.0
Zn238 Zn 0.63431 0.9885 0.75144 0.0
O239 O 0.65622 0.02035 0.74763 0.0
C240 C 0.60232 0.00065 0.70862 0.0
O241 O 0.60787 0.02404 0.7166 0.0
O242 O 0.65737 0.95942 0.75535 0.0
C243 C 0.66915 0.02421 0.72739 0.0
O244 O 0.66787 0.00714 0.70864 0.0
C245 C 0.60291 0.01276 0.78882 0.0
O246 O 0.60773 0.03246 0.7743 0.0
O247 O 0.61162 0.98233 0.72049 0.0
C248 C 0.00352 0.21143 0.92339 0.0
O249 O 0.99166 0.2305 0.93388 0.0
O250 O 0.97444 0.23801 0.85819 0.0
Zn251 Zn 0.00619 0.24431 0.87981 0.0
O252 O 0.00267 0.27473 0.90333 0.0
C253 C 0.036 0.24834 0.83298 0.0
O254 O 0.01439 0.24086 0.82182 0.0
O255 O 0.01155 0.21319 0.90048 0.0
C256 C 0.00599 0.29705 0.89485 0.0
O257 O 0.01166 0.29999 0.87051 0.0
C258 C 0.95562 0.25246 0.85814 0.0
O259 O 0.95618 0.27284 0.87309 0.0
O260 O 0.03687 0.2508 0.85729 0.0
C261 C 0.49179 0.70052 0.39904 0.0
O262 O 0.46822 0.705 0.39241 0.0
O263 O 0.47103 0.74011 0.35035 0.0
Zn264 Zn 0.50348 0.7463 0.37097 0.0
O265 O 0.50061 0.77613 0.39576 0.0
C266 C 0.53133 0.76434 0.32644 0.0
O267 O 0.50942 0.77394 0.32045 0.0
O268 O 0.50987 0.71551 0.39182 0.0
C269 C 0.5052 0.79911 0.38972 0.0
O270 O 0.51223 0.80429 0.36618 0.0
C271 C 0.45419 0.75658 0.34803 0.0
O272 O 0.45775 0.77892 0.3594 0.0
O273 O 0.53318 0.75192 0.34697 0.0
C274 C 0.00988 0.813 0.60299 0.0
O275 O 0.01211 0.81588 0.62803 0.0
O276 O 0.96835 0.76446 0.63717 0.0
Zn277 Zn 0.00021 0.7607 0.61593 0.0
O278 O 0.99784 0.72932 0.59296 0.0
C279 C 0.02902 0.74776 0.66068 0.0
O280 O 0.007 0.73726 0.6676 0.0
O281 O 0.00482 0.79097 0.59348 0.0
C282 C 0.99718 0.70691 0.60154 0.0
O283 O 0.99781 0.70366 0.62644 0.0
C284 C 0.94854 0.74977 0.6352 0.0
O285 O 0.94798 0.73105 0.61816 0.0
O286 O 0.03068 0.75917 0.63946 0.0
C287 C 0.49982 0.30263 0.08393 0.0
O288 O 0.47649 0.29473 0.0898 0.0
O289 O 0.48078 0.26542 0.13584 0.0
Zn290 Zn 0.51224 0.26014 0.1143 0.0
O291 O 0.50766 0.229 0.0915 0.0
C292 C 0.54047 0.25387 0.16142 0.0
O293 O 0.5177 0.25469 0.17177 0.0
O294 O 0.51856 0.29062 0.09227 0.0
C295 C 0.51132 0.2071 0.1002 0.0
O296 O 0.51793 0.20499 0.12439 0.0
C297 C 0.46322 0.24845 0.13913 0.0
O298 O 0.46485 0.22617 0.12766 0.0
O299 O 0.54277 0.25604 0.13727 0.0
C300 C 0.24089 0.77562 0.83675 0.0
C301 C 0.21571 0.7674 0.83086 0.0
C302 C 0.24619 0.79288 0.85714 0.0
C303 C 0.22582 0.8021 0.87194 0.0
C304 C 0.20034 0.79427 0.86577 0.0
C305 C 0.1956 0.77698 0.84532 0.0
C306 C 0.2736 0.80088 0.86312 0.0
C307 C 0.17812 0.80366 0.88115 0.0
C308 C 0.23918 0.82478 0.94042 0.0
C309 C 0.24007 0.85125 0.93797 0.0
C310 C 0.23479 0.80859 0.91902 0.0
C311 C 0.23118 0.81912 0.89458 0.0
C312 C 0.23224 0.8458 0.89191 0.0
C313 C 0.23669 0.86157 0.91365 0.0
C314 C 0.23381 0.78021 0.92262 0.0
C315 C 0.22844 0.85768 0.86612 0.0
H316 H 0.25647 0.76852 0.82542 0.0
H317 H 0.17613 0.77045 0.84107 0.0
H318 H 0.27608 0.82188 0.86305 0.0
H319 H 0.27869 0.79469 0.88264 0.0
H320 H 0.28715 0.79272 0.84916 0.0
H321 H 0.15941 0.79667 0.8731 0.0
H322 H 0.17954 0.79728 0.90125 0.0
H323 H 0.17866 0.82473 0.88177 0.0
H324 H 0.24182 0.81663 0.95912 0.0
H325 H 0.23737 0.882 0.91159 0.0
H326 H 0.24822 0.77127 0.91021 0.0
H327 H 0.21481 0.772 0.91671 0.0
H328 H 0.23743 0.77507 0.94284 0.0
H329 H 0.2426 0.85063 0.85219 0.0
H330 H 0.23035 0.87874 0.8672 0.0
H331 H 0.2092 0.85207 0.85846 0.0
C332 C 0.02044 0.49634 0.42432 0.0
C333 C 0.01162 0.5209 0.42794 0.0
C334 C 0.03807 0.491 0.40492 0.0
C335 C 0.04701 0.51069 0.38875 0.0
C336 C 0.03833 0.53556 0.39245 0.0
C337 C 0.02073 0.54036 0.412 0.0
C338 C 0.04698 0.46427 0.40158 0.0
C339 C 0.04733 0.55702 0.37551 0.0
C340 C 0.10826 0.50362 0.35095 0.0
C341 C 0.09878 0.49678 0.32645 0.0
C342 C 0.09163 0.50786 0.37154 0.0
C343 C 0.06492 0.50521 0.36749 0.0
C344 C 0.05525 0.49799 0.3429 0.0
C345 C 0.07228 0.49385 0.32269 0.0
C346 C 0.10262 0.5155 0.39753 0.0
C347 C 0.02688 0.49499 0.33785 0.0
H348 H 0.01365 0.48132 0.43678 0.0
H349 H 0.0137 0.55929 0.41448 0.0
H350 H 0.04164 0.45669 0.38218 0.0
H351 H 0.0681 0.46425 0.40306 0.0
H352 H 0.03863 0.45126 0.41612 0.0
H353 H 0.03925 0.5754 0.38136 0.0
H354 H 0.06847 0.5592 0.3761 0.0
H355 H 0.04174 0.55261 0.3553 0.0
H356 H 0.12869 0.50589 0.35403 0.0
H357 H 0.06477 0.48855 0.30383 0.0
H358 H 0.09547 0.50209 0.41225 0.0
H359 H 0.09625 0.53461 0.40323 0.0
H360 H 0.12383 0.51595 0.3977 0.0
H361 H 0.01805 0.48097 0.35109 0.0
H362 H 0.02248 0.48867 0.31779 0.0
H363 H 0.01778 0.51333 0.34159 0.0
C364 C 0.7539 0.72917 0.82858 0.0
C365 C 0.77835 0.7373 0.82043 0.0
C366 C 0.75072 0.71243 0.84901 0.0
C367 C 0.77249 0.70337 0.86141 0.0
C368 C 0.79721 0.71118 0.85307 0.0
C369 C 0.79984 0.72816 0.83279 0.0
C370 C 0.72405 0.70461 0.85748 0.0
C371 C 0.82088 0.70182 0.86576 0.0
C372 C 0.76585 0.67992 0.92952 0.0
C373 C 0.76386 0.65351 0.92554 0.0
C374 C 0.76849 0.69636 0.90879 0.0
C375 C 0.76942 0.68613 0.8835 0.0
C376 C 0.76751 0.6595 0.87933 0.0
C377 C 0.76462 0.64349 0.90042 0.0
C378 C 0.77024 0.72468 0.91397 0.0
C379 C 0.76869 0.64792 0.85262 0.0
H380 H 0.7372 0.73581 0.81888 0.0
H381 H 0.81879 0.73462 0.82688 0.0
H382 H 0.72121 0.68366 0.8561 0.0
H383 H 0.72136 0.71028 0.87789 0.0
H384 H 0.70912 0.71331 0.84577 0.0
H385 H 0.83869 0.70894 0.85633 0.0
H386 H 0.82148 0.70805 0.88624 0.0
H387 H 0.82043 0.68076 0.86529 0.0
H388 H 0.76517 0.68782 0.94888 0.0
H389 H 0.76319 0.6231 0.89721 0.0
H390 H 0.75469 0.7339 0.90366 0.0
H391 H 0.78859 0.73281 0.90661 0.0
H392 H 0.76888 0.72957 0.93476 0.0
H393 H 0.7531 0.65496 0.8406 0.0
H394 H 0.76702 0.62684 0.85266 0.0
H395 H 0.787 0.65378 0.8434 0.0
C396 C 0.98963 0.96688 0.41107 0.0
C397 C 0.99604 0.98757 0.4275 0.0
C398 C 0.97196 0.96912 0.39106 0.0
C399 C 0.96019 0.99251 0.38767 0.0
C400 C 0.96643 0.01339 0.40438 0.0
C401 C 0.98446 0.01072 0.424 0.0
C402 C 0.96609 0.94655 0.37338 0.0
C403 C 0.95401 0.03852 0.40159 0.0
C404 C 0.93219 0.00645 0.32246 0.0
C405 C 0.9062 0.00012 0.32609 0.0
C406 C 0.94998 0.00391 0.3423 0.0
C407 C 0.94153 0.99519 0.36647 0.0
C408 C 0.9153 0.98897 0.37033 0.0
C409 C 0.89796 0.99133 0.35002 0.0
C410 C 0.97786 0.01037 0.33734 0.0
C411 C 0.90555 0.97994 0.39596 0.0
H412 H -0.00121 0.94905 0.41364 0.0
H413 H 0.98927 0.02665 0.43687 0.0
H414 H 0.9454 0.94122 0.37399 0.0
H415 H 0.97071 0.95155 0.35329 0.0
H416 H 0.977 0.92976 0.37855 0.0
H417 H 0.96057 0.05271 0.41651 0.0
H418 H 0.95835 0.04636 0.38242 0.0
H419 H 0.93295 0.03576 0.40289 0.0
H420 H 0.93871 0.01312 0.30396 0.0
H421 H 0.87789 0.98653 0.35299 0.0
H422 H 0.98936 0.9936 0.34093 0.0
H423 H 0.98484 0.02576 0.35076 0.0
H424 H 0.98135 0.01658 0.31736 0.0
H425 H 0.9148 0.96218 0.40108 0.0
H426 H 0.88451 0.97631 0.39596 0.0
H427 H 0.91061 0.99432 0.41119 0.0
C428 C 0.22713 0.23454 0.67109 0.0
C429 C 0.2206 0.25915 0.66488 0.0
C430 C 0.23214 0.21652 0.65178 0.0
C431 C 0.22989 0.22316 0.6257 0.0
C432 C 0.2233 0.24806 0.61937 0.0
C433 C 0.21904 0.2659 0.6391 0.0
C434 C 0.23969 0.19035 0.65929 0.0
C435 C 0.22017 0.25566 0.59179 0.0
C436 C 0.26124 0.18311 0.5742 0.0
C437 C 0.24086 0.16667 0.56633 0.0
C438 C 0.25803 0.20145 0.59372 0.0
C439 C 0.23371 0.2038 0.60508 0.0
C440 C 0.213 0.18746 0.59692 0.0
C441 C 0.21692 0.16885 0.57787 0.0
C442 C 0.2807 0.21813 0.60237 0.0
C443 C 0.18664 0.18977 0.60816 0.0
H444 H 0.22848 0.2295 0.69111 0.0
H445 H 0.21382 0.28495 0.63443 0.0
H446 H 0.22498 0.17597 0.65257 0.0
H447 H 0.25793 0.18567 0.64989 0.0
H448 H 0.24198 0.18871 0.68039 0.0
H449 H 0.21509 0.27581 0.59014 0.0
H450 H 0.23809 0.2528 0.58104 0.0
H451 H 0.20499 0.24341 0.58239 0.0
H452 H 0.27981 0.18135 0.56538 0.0
H453 H 0.20107 0.15632 0.57163 0.0
H454 H 0.284 0.21589 0.62324 0.0
H455 H 0.27682 0.23837 0.59936 0.0
H456 H 0.29843 0.21355 0.59192 0.0
H457 H 0.18714 0.18627 0.62907 0.0
H458 H 0.1724 0.17618 0.59906 0.0
H459 H 0.18013 0.20933 0.60571 0.0
C460 C 0.47989 0.5281 0.58248 0.0
C461 C 0.5052 0.53716 0.58578 0.0
C462 C 0.46399 0.52398 0.60373 0.0
C463 C 0.47353 0.5297 0.62875 0.0
C464 C 0.49906 0.53912 0.6321 0.0
C465 C 0.51472 0.54243 0.61053 0.0
C466 C 0.43708 0.51335 0.59944 0.0
C467 C 0.50971 0.54597 0.65842 0.0
C468 C 0.42468 0.5412 0.68096 0.0
C469 C 0.42475 0.51836 0.69423 0.0
C470 C 0.44077 0.54531 0.65983 0.0
C471 C 0.45677 0.52584 0.65141 0.0
C472 C 0.45667 0.50261 0.66458 0.0
C473 C 0.44089 0.49929 0.68606 0.0
C474 C 0.44079 0.57054 0.64663 0.0
C475 C 0.47302 0.48119 0.6558 0.0
H476 H 0.47269 0.52391 0.56325 0.0
H477 H 0.53429 0.54962 0.61292 0.0
H478 H 0.43401 0.49559 0.61028 0.0
H479 H 0.42319 0.52702 0.60678 0.0
H480 H 0.43288 0.50919 0.57882 0.0
H481 H 0.52977 0.55362 0.65764 0.0
H482 H 0.49785 0.56038 0.66786 0.0
H483 H 0.50901 0.529 0.67066 0.0
H484 H 0.41234 0.55605 0.68737 0.0
H485 H 0.44083 0.48152 0.69617 0.0
H486 H 0.4348 0.56769 0.6263 0.0
H487 H 0.4604 0.57934 0.6466 0.0
H488 H 0.42781 0.58399 0.65606 0.0
H489 H 0.46836 0.47576 0.63557 0.0
H490 H 0.4703 0.46413 0.66781 0.0
H491 H 0.49348 0.48746 0.65644 0.0
C492 C 0.80499 0.25718 0.66127 0.0
C493 C 0.78419 0.24417 0.67268 0.0
C494 C 0.80137 0.27388 0.6411 0.0
C495 C 0.77638 0.27737 0.63185 0.0
C496 C 0.75529 0.26439 0.64329 0.0
C497 C 0.75943 0.24809 0.66368 0.0
C498 C 0.82432 0.28754 0.62949 0.0
C499 C 0.72837 0.26751 0.63379 0.0
C500 C 0.764 0.33564 0.59283 0.0
C501 C 0.76512 0.3258 0.56765 0.0
C502 C 0.76775 0.32012 0.61395 0.0
C503 C 0.77238 0.2941 0.60975 0.0
C504 C 0.77332 0.28403 0.58439 0.0
C505 C 0.76984 0.30004 0.56364 0.0
C506 C 0.76694 0.33157 0.64073 0.0
C507 C 0.77792 0.2563 0.57918 0.0
H508 H 0.82422 0.254 0.66781 0.0
H509 H 0.74321 0.23845 0.67265 0.0
H510 H 0.82623 0.28161 0.60905 0.0
H511 H 0.82177 0.30833 0.62998 0.0
H512 H 0.84234 0.28364 0.63968 0.0
H513 H 0.71405 0.25612 0.64484 0.0
H514 H 0.72353 0.28777 0.63518 0.0
H515 H 0.72686 0.26162 0.61325 0.0
H516 H 0.76046 0.35557 0.59604 0.0
H517 H 0.77059 0.29228 0.54423 0.0
H518 H 0.78534 0.32893 0.65071 0.0
H519 H 0.75178 0.32171 0.65205 0.0
H520 H 0.76326 0.35217 0.64071 0.0
H521 H 0.79666 0.25145 0.58724 0.0
H522 H 0.77767 0.25138 0.55834 0.0
H523 H 0.76309 0.24429 0.58882 0.0
C524 C 0.49328 0.97736 0.60195 0.0
C525 C 0.50375 0.97216 0.57776 0.0
C526 C 0.50903 0.98188 0.62353 0.0
C527 C 0.53587 0.98135 0.62078 0.0
C528 C 0.54654 0.97618 0.59639 0.0
C529 C 0.53033 0.97155 0.57518 0.0
C530 C 0.49696 0.98711 0.64928 0.0
C531 C 0.57508 0.97568 0.59266 0.0
C532 C 0.57761 0.01582 0.6712 0.0
C533 C 0.58534 0.99569 0.68615 0.0
C534 C 0.56154 0.01142 0.64984 0.0
C535 C 0.55283 0.9863 0.64341 0.0
C536 C 0.56046 0.96591 0.65849 0.0
C537 C 0.57671 0.97083 0.67962 0.0
C538 C 0.55395 0.03364 0.63408 0.0
C539 C 0.55142 0.93888 0.65231 0.0
H540 H 0.47271 0.97757 0.60404 0.0
H541 H 0.53848 0.96782 0.55644 0.0
H542 H 0.50276 0.97283 0.66326 0.0
H543 H 0.50377 0.00601 0.65689 0.0
H544 H 0.47577 0.98665 0.6482 0.0
H545 H 0.58031 0.97139 0.57243 0.0
H546 H 0.58417 0.99431 0.59848 0.0
H547 H 0.58318 0.96117 0.60509 0.0
H548 H 0.58424 0.03508 0.67607 0.0
H549 H 0.58252 0.95517 0.69113 0.0
H550 H 0.53286 0.03477 0.63389 0.0
H551 H 0.56011 0.0309 0.61389 0.0
H552 H 0.56244 0.05199 0.64158 0.0
H553 H 0.53024 0.93732 0.65249 0.0
H554 H 0.55884 0.92521 0.66614 0.0
H555 H 0.55764 0.93333 0.63272 0.0
C556 C 0.82839 0.21482 0.77755 0.0
C557 C 0.83206 0.22062 0.75161 0.0
C558 C 0.84787 0.21978 0.79573 0.0
C559 C 0.87147 0.23105 0.78783 0.0
C560 C 0.87521 0.2372 0.76177 0.0
C561 C 0.85553 0.23177 0.74396 0.0
C562 C 0.84327 0.21284 0.82336 0.0
C563 C 0.90008 0.24935 0.75264 0.0
C564 C 0.91502 0.26465 0.83726 0.0
C565 C 0.93359 0.24665 0.84088 0.0
C566 C 0.89452 0.25973 0.82023 0.0
C567 C 0.89244 0.23616 0.80672 0.0
C568 C 0.91084 0.21772 0.81066 0.0
C569 C 0.93127 0.22324 0.82759 0.0
C570 C 0.87538 0.27994 0.81633 0.0
C571 C 0.9091 0.19227 0.79677 0.0
H572 H 0.81021 0.20654 0.78369 0.0
H573 H 0.85869 0.23593 0.72391 0.0
H574 H 0.8576 0.1993 0.82955 0.0
H575 H 0.84562 0.23001 0.83596 0.0
H576 H 0.82388 0.20409 0.82635 0.0
H577 H 0.89963 0.25365 0.73186 0.0
H578 H 0.90446 0.26726 0.76365 0.0
H579 H 0.91593 0.23654 0.75614 0.0
H580 H 0.91671 0.28281 0.8474 0.0
H581 H 0.94547 0.20918 0.83039 0.0
H582 H 0.85582 0.27226 0.82044 0.0
H583 H 0.87562 0.28579 0.79599 0.0
H584 H 0.87937 0.29702 0.82877 0.0
H585 H 0.8903 0.18258 0.80045 0.0
H586 H 0.92439 0.17964 0.80275 0.0
H587 H 0.91054 0.19499 0.77576 0.0
C588 C 0.50523 0.91443 0.49221 0.0
C589 C 0.48021 0.9208 0.4984 0.0
C590 C 0.50989 0.89426 0.47509 0.0
C591 C 0.48905 0.88036 0.46356 0.0
C592 C 0.46376 0.88663 0.46969 0.0
C593 C 0.45965 0.90664 0.48718 0.0
C594 C 0.53713 0.88797 0.46918 0.0
C595 C 0.44104 0.87235 0.45763 0.0
C596 C 0.50047 0.84504 0.40067 0.0
C597 C 0.50158 0.8199 0.40871 0.0
C598 C 0.49637 0.8649 0.41832 0.0
C599 C 0.49367 0.85951 0.44471 0.0
C600 C 0.49512 0.83422 0.45301 0.0
C601 C 0.49888 0.81467 0.43488 0.0
C602 C 0.4946 0.8916 0.40871 0.0
C603 C 0.49269 0.82782 0.48104 0.0
H604 H 0.52125 0.92547 0.50046 0.0
H605 H 0.44026 0.9111 0.49216 0.0
H606 H 0.54013 0.86773 0.47321 0.0
H607 H 0.54104 0.89073 0.44849 0.0
H608 H 0.55117 0.89994 0.48057 0.0
H609 H 0.4226 0.8797 0.46433 0.0
H610 H 0.44191 0.87375 0.43642 0.0
H611 H 0.44146 0.85191 0.4622 0.0
H612 H 0.50241 0.8492 0.38046 0.0
H613 H 0.49985 0.79529 0.44124 0.0
H614 H 0.5094 0.90428 0.41814 0.0
H615 H 0.47575 0.89907 0.41378 0.0
H616 H 0.49709 0.89259 0.38758 0.0
H617 H 0.50737 0.83887 0.49246 0.0
H618 H 0.49488 0.80728 0.48442 0.0
H619 H 0.47376 0.8332 0.48833 0.0
C620 C 0.15102 0.30262 0.74695 0.0
C621 C 0.16817 0.28379 0.74056 0.0
C622 C 0.1298 0.29724 0.76258 0.0
C623 C 0.12564 0.27242 0.772 0.0
C624 C 0.1431 0.25344 0.76598 0.0
C625 C 0.16417 0.25936 0.75034 0.0
C626 C 0.11158 0.31797 0.76859 0.0
C627 C 0.13934 0.22679 0.77577 0.0
C628 C 0.08186 0.26308 0.82929 0.0
C629 C 0.059 0.25429 0.81741 0.0
C630 C 0.10371 0.26906 0.81475 0.0
C631 C 0.10268 0.26616 0.7877 0.0
C632 C 0.07971 0.25726 0.77559 0.0
C633 C 0.05814 0.25144 0.79059 0.0
C634 C 0.12788 0.27853 0.82833 0.0
C635 C 0.0779 0.25391 0.74677 0.0
H636 H 0.15385 0.32144 0.73919 0.0
H637 H 0.17755 0.24483 0.74574 0.0
H638 H 0.09239 0.31258 0.76068 0.0
H639 H 0.1095 0.3204 0.78968 0.0
H640 H 0.11802 0.33648 0.76051 0.0
H641 H 0.15498 0.21439 0.7698 0.0
H642 H 0.13828 0.22722 0.79704 0.0
H643 H 0.12098 0.21818 0.76847 0.0
H644 H 0.0827 0.26538 0.85001 0.0
H645 H 0.04057 0.24467 0.78125 0.0
H646 H 0.13378 0.29765 0.82143 0.0
H647 H 0.14362 0.26575 0.82379 0.0
H648 H 0.12555 0.27966 0.8495 0.0
H649 H 0.0824 0.27228 0.73745 0.0
H650 H 0.05864 0.24677 0.74034 0.0
H651 H 0.09217 0.24037 0.73994 0.0
C652 C 0.52549 0.57646 0.47738 0.0
C653 C 0.52343 0.58175 0.50377 0.0
C654 C 0.51983 0.59475 0.45925 0.0
C655 C 0.51211 0.61892 0.46777 0.0
C656 C 0.50979 0.62427 0.49439 0.0
C657 C 0.51544 0.6056 0.51206 0.0
C658 C 0.52233 0.58832 0.43102 0.0
C659 C 0.50177 0.64988 0.50422 0.0
C660 C 0.52199 0.67563 0.42474 0.0
C661 C 0.49716 0.67887 0.4156 0.0
C662 C 0.52719 0.6559 0.44138 0.0
C663 C 0.5071 0.63894 0.44896 0.0
C664 C 0.48211 0.64174 0.43937 0.0
C665 C 0.47742 0.66173 0.42284 0.0
C666 C 0.55408 0.65356 0.45129 0.0
C667 C 0.46024 0.62391 0.44694 0.0
H668 H 0.53142 0.55794 0.47092 0.0
H669 H 0.51416 0.60988 0.53245 0.0
H670 H 0.50401 0.5912 0.421 0.0
H671 H 0.53697 0.60123 0.42227 0.0
H672 H 0.5278 0.56841 0.42755 0.0
H673 H 0.50032 0.65077 0.52549 0.0
H674 H 0.51578 0.66489 0.49807 0.0
H675 H 0.483 0.65427 0.49591 0.0
H676 H 0.53738 0.68876 0.41924 0.0
H677 H 0.4582 0.66402 0.41578 0.0
H678 H 0.56082 0.6343 0.44685 0.0
H679 H 0.55441 0.65614 0.47248 0.0
H680 H 0.5677 0.66778 0.44288 0.0
H681 H 0.46501 0.60396 0.44265 0.0
H682 H 0.44221 0.62791 0.43681 0.0
H683 H 0.45698 0.62558 0.46793 0.0
C684 C 0.84901 0.75892 0.74973 0.0
C685 C 0.82516 0.7673 0.74197 0.0
C686 C 0.86884 0.75597 0.73204 0.0
C687 C 0.86493 0.76199 0.70602 0.0
C688 C 0.84105 0.77067 0.69805 0.0
C689 C 0.82138 0.77301 0.71607 0.0
C690 C 0.89399 0.74643 0.74121 0.0
C691 C 0.83628 0.77754 0.6705 0.0
C692 C 0.92433 0.77613 0.66641 0.0
C693 C 0.92669 0.75321 0.65264 0.0
C694 C 0.90401 0.77943 0.68347 0.0
C695 C 0.8859 0.75917 0.68716 0.0
C696 C 0.88813 0.73602 0.67324 0.0
C697 C 0.90839 0.7334 0.65597 0.0
C698 C 0.90201 0.80454 0.69766 0.0
C699 C 0.8694 0.71386 0.67697 0.0
H700 H 0.85231 0.75491 0.76975 0.0
H701 H 0.80294 0.77911 0.70977 0.0
H702 H 0.89874 0.72909 0.73009 0.0
H703 H 0.90952 0.76092 0.73791 0.0
H704 H 0.89369 0.74191 0.76195 0.0
H705 H 0.81685 0.78464 0.66756 0.0
H706 H 0.85054 0.79238 0.66449 0.0
H707 H 0.83859 0.7607 0.65772 0.0
H708 H 0.93834 0.79157 0.66379 0.0
H709 H 0.9102 0.71559 0.64548 0.0
H710 H 0.90364 0.80174 0.71863 0.0
H711 H 0.88305 0.81241 0.69407 0.0
H712 H 0.91706 0.81872 0.69184 0.0
H713 H 0.86979 0.70797 0.69729 0.0
H714 H 0.87367 0.69724 0.66448 0.0
H715 H 0.84971 0.71954 0.67276 0.0
C716 C 0.0037 0.93349 0.51312 0.0
C717 C 0.02764 0.94032 0.5028 0.0
C718 C 0.00073 0.91305 0.52981 0.0
C719 C 0.02224 0.89912 0.53634 0.0
C720 C 0.04649 0.906 0.52612 0.0
C721 C 0.0489 0.92651 0.50946 0.0
C722 C 0.97458 0.9063 0.54037 0.0
C723 C 0.06984 0.89153 0.53259 0.0
C724 C 0.0189 0.85942 0.59635 0.0
C725 C 0.01318 0.83506 0.586 0.0
C726 C 0.02198 0.88046 0.5804 0.0
C727 C 0.01925 0.87703 0.5535 0.0
C728 C 0.01354 0.8525 0.54293 0.0
C729 C 0.01057 0.83181 0.55931 0.0
C730 C 0.0281 0.90636 0.59233 0.0
C731 C 0.01048 0.84811 0.51432 0.0
H732 H 0.98728 0.94432 0.50831 0.0
H733 H 0.06739 0.93151 0.50128 0.0
H734 H 0.9687 0.88655 0.53452 0.0
H735 H 0.9751 0.90713 0.56166 0.0
H736 H 0.95987 0.91921 0.53361 0.0
H737 H 0.08741 0.89966 0.5235 0.0
H738 H 0.07276 0.89159 0.5537 0.0
H739 H 0.06704 0.87142 0.52611 0.0
H740 H 0.02097 0.8621 0.61695 0.0
H741 H 0.00616 0.81306 0.55113 0.0
H742 H 0.01302 0.91957 0.58732 0.0
H743 H 0.04635 0.91431 0.58455 0.0
H744 H 0.02971 0.90581 0.61358 0.0
H745 H 0.99483 0.85953 0.50699 0.0
H746 H 0.00617 0.82782 0.50916 0.0
H747 H 0.02822 0.85447 0.50433 0.0
C748 C 0.16145 0.72547 0.73167 0.0
C749 C 0.16103 0.73429 0.75729 0.0
C750 C 0.14012 0.72731 0.71556 0.0
C751 C 0.11809 0.73893 0.72502 0.0
C752 C 0.11763 0.74827 0.75066 0.0
C753 C 0.1389 0.74547 0.76658 0.0
C754 C 0.14111 0.71665 0.68846 0.0
C755 C 0.09464 0.76119 0.76132 0.0
C756 C 0.07174 0.76411 0.6765 0.0
C757 C 0.0518 0.74558 0.67704 0.0
C758 C 0.09336 0.76232 0.69221 0.0
C759 C 0.09535 0.74111 0.70822 0.0
C760 C 0.07545 0.72211 0.70846 0.0
C761 C 0.05372 0.72477 0.69313 0.0
C762 C 0.11389 0.78329 0.69197 0.0
C763 C 0.07718 0.69889 0.72476 0.0
H764 H 0.17851 0.71723 0.72406 0.0
H765 H 0.13802 0.75186 0.78644 0.0
H766 H 0.12511 0.70247 0.6852 0.0
H767 H 0.13875 0.73202 0.67454 0.0
H768 H 0.15936 0.70743 0.68431 0.0
H769 H 0.09786 0.76861 0.78124 0.0
H770 H 0.08977 0.77721 0.74898 0.0
H771 H 0.07786 0.74765 0.7613 0.0
H772 H 0.07019 0.78029 0.66417 0.0
H773 H 0.03841 0.71029 0.69336 0.0
H774 H 0.13237 0.77552 0.68608 0.0
H775 H 0.11654 0.79159 0.7116 0.0
H776 H 0.10923 0.79869 0.67872 0.0
H777 H 0.09483 0.68889 0.72005 0.0
H778 H 0.0605 0.68539 0.72197 0.0
H779 H 0.07835 0.7046 0.74536 0.0
C780 C 0.95939 0.59178 0.50508 0.0
C781 C 0.98035 0.57706 0.49911 0.0
C782 C 0.96208 0.61318 0.52146 0.0
C783 C 0.98638 0.62018 0.53191 0.0
C784 C 0.0077 0.60567 0.52567 0.0
C785 C 0.0044 0.58421 0.50944 0.0
C786 C 0.93889 0.62816 0.52777 0.0
C787 C 0.03393 0.61266 0.53635 0.0
C788 C 0.99743 0.68783 0.55716 0.0
C789 C 0.99473 0.68473 0.58371 0.0
C790 C 0.99495 0.66694 0.54007 0.0
C791 C 0.9894 0.64245 0.54975 0.0
C792 C 0.98661 0.63921 0.57651 0.0
C793 C 0.98944 0.66038 0.59319 0.0
C794 C 0.99829 0.67107 0.51165 0.0
C795 C 0.98046 0.6134 0.58752 0.0
H796 H 0.94083 0.58662 0.49684 0.0
H797 H 0.02061 0.57275 0.50522 0.0
H798 H 0.9356 0.62834 0.5488 0.0
H799 H 0.94213 0.64817 0.52201 0.0
H800 H 0.92136 0.62021 0.518 0.0
H801 H 0.04869 0.59993 0.52888 0.0
H802 H 0.03956 0.63249 0.53147 0.0
H803 H 0.03366 0.61166 0.5576 0.0
H804 H 0.00161 0.70658 0.54971 0.0
H805 H 0.98721 0.65785 0.61366 0.0
H806 H 0.98056 0.66486 0.50121 0.0
H807 H 0.01383 0.65937 0.50414 0.0
H808 H 0.0029 0.69127 0.50726 0.0
H809 H 0.96219 0.60543 0.57933 0.0
H810 H 0.97883 0.61412 0.60877 0.0
H811 H 0.99552 0.60012 0.58215 0.0
C812 C 0.72858 0.87135 0.2136 0.0
C813 C 0.74009 0.84812 0.20909 0.0
C814 C 0.74337 0.89393 0.21738 0.0
C815 C 0.77032 0.89332 0.21636 0.0
C816 C 0.78207 0.86999 0.21173 0.0
C817 C 0.76683 0.84767 0.20829 0.0
C818 C 0.73017 0.91846 0.22239 0.0
C819 C 0.81077 0.86861 0.21038 0.0
C820 C 0.8085 0.95422 0.20231 0.0
C821 C 0.81765 0.96158 0.22679 0.0
C822 C 0.793 0.93208 0.19865 0.0
C823 C 0.78628 0.91711 0.22003 0.0
C824 C 0.79515 0.92462 0.24484 0.0
C825 C 0.81085 0.94671 0.24791 0.0
C826 C 0.78409 0.92454 0.17186 0.0
C827 C 0.78816 0.90926 0.26813 0.0
H828 H 0.70794 0.87195 0.21386 0.0
H829 H 0.7759 0.82976 0.2052 0.0
H830 H 0.73692 0.92724 0.24087 0.0
H831 H 0.73506 0.93214 0.2071 0.0
H832 H 0.70906 0.91561 0.22314 0.0
H833 H 0.81689 0.84903 0.20627 0.0
H834 H 0.81841 0.88123 0.19519 0.0
H835 H 0.81949 0.87542 0.22883 0.0
H836 H 0.81375 0.96556 0.18588 0.0
H837 H 0.81775 0.95234 0.26691 0.0
H838 H 0.76293 0.9229 0.17118 0.0
H839 H 0.7912 0.90562 0.16651 0.0
H840 H 0.79079 0.93839 0.15732 0.0
H841 H 0.76708 0.9072 0.26989 0.0
H842 H 0.79607 0.91806 0.28618 0.0
H843 H 0.79542 0.88987 0.26594 0.0
C844 C 0.73317 0.16024 0.28563 0.0
C845 C 0.74317 0.18447 0.29277 0.0
C846 C 0.74895 0.13946 0.28362 0.0
C847 C 0.77536 0.14296 0.289 0.0
C848 C 0.7856 0.16735 0.29626 0.0
C849 C 0.76938 0.18783 0.29801 0.0
C850 C 0.73733 0.11373 0.27583 0.0
C851 C 0.81367 0.17179 0.30215 0.0
C852 C 0.81127 0.08458 0.30623 0.0
C853 C 0.82305 0.07852 0.28287 0.0
C854 C 0.79595 0.1057 0.30858 0.0
C855 C 0.79224 0.12105 0.28704 0.0
C856 C 0.80424 0.11518 0.26347 0.0
C857 C 0.81954 0.09401 0.26168 0.0
C858 C 0.78355 0.11145 0.33406 0.0
C859 C 0.80065 0.13108 0.24006 0.0
H860 H 0.71287 0.15743 0.28194 0.0
H861 H 0.77729 0.20656 0.30323 0.0
H862 H 0.7468 0.10653 0.25828 0.0
H863 H 0.74046 0.09994 0.29121 0.0
H864 H 0.71649 0.11427 0.27203 0.0
H865 H 0.81857 0.19186 0.30774 0.0
H866 H 0.81934 0.15944 0.318 0.0
H867 H 0.82517 0.16663 0.28512 0.0
H868 H 0.81393 0.07277 0.32272 0.0
H869 H 0.82855 0.08946 0.24355 0.0
H870 H 0.76247 0.11049 0.33185 0.0
H871 H 0.78917 0.13102 0.34071 0.0
H872 H 0.78885 0.098 0.34913 0.0
H873 H 0.78014 0.13076 0.23468 0.0
H874 H 0.81172 0.12426 0.22331 0.0
H875 H 0.80666 0.15115 0.24439 0.0
C876 C 0.42962 0.98629 0.00082 0.0
C877 C 0.43409 0.99585 0.97625 0.0
C878 C 0.40888 0.96933 0.00543 0.0
C879 C 0.39221 0.9618 0.98497 0.0
C880 C 0.39678 0.97119 0.96007 0.0
C881 C 0.41768 0.9881 0.95601 0.0
C882 C 0.40467 0.95962 0.03221 0.0
C883 C 0.37936 0.96366 0.9378 0.0
C884 C 0.35005 0.90191 0.99126 0.0
C885 C 0.3266 0.91189 -0.00176 0.0
C886 C 0.37162 0.91793 0.98698 0.0
C887 C 0.36966 0.94454 0.98972 0.0
C888 C 0.34608 0.95474 0.99681 0.0
C889 C 0.32484 0.93829 0.001 0.0
C890 C 0.39647 0.90639 0.97945 0.0
C891 C 0.34326 0.98303 -0.00012 0.0
H892 H 0.44245 0.99199 0.01645 0.0
H893 H 0.42088 0.99568 0.93705 0.0
H894 H 0.38582 0.96535 0.03943 0.0
H895 H 0.40442 0.93856 0.03194 0.0
H896 H 0.41967 0.96693 0.04589 0.0
H897 H 0.38594 0.97215 0.9195 0.0
H898 H 0.37819 0.9427 0.93527 0.0
H899 H 0.35976 0.96982 0.94183 0.0
H900 H 0.35158 0.88154 0.9891 0.0
H901 H 0.3068 0.94618 0.00637 0.0
H902 H 0.41162 0.91225 0.99353 0.0
H903 H 0.40272 0.91348 0.96047 0.0
H904 H 0.39488 0.88532 0.97837 0.0
H905 H 0.35688 0.99095 0.01461 0.0
H906 H 0.32363 0.9879 0.00561 0.0
H907 H 0.34798 0.99249 0.98157 0.0
C908 C 0.25831 0.33749 0.29547 0.0
C909 C 0.26537 0.32291 0.27402 0.0
C910 C 0.24309 0.35854 0.29277 0.0
C911 C 0.23473 0.36512 0.26802 0.0
C912 C 0.24143 0.35024 0.24633 0.0
C913 C 0.25669 0.32931 0.24959 0.0
C914 C 0.23638 0.37401 0.31633 0.0
C915 C 0.23275 0.35661 0.21965 0.0
C916 C 0.17855 0.40792 0.26255 0.0
C917 C 0.1909 0.43158 0.25826 0.0
C918 C 0.19257 0.3861 0.26578 0.0
C919 C 0.21956 0.38802 0.26471 0.0
C920 C 0.23213 0.41182 0.26042 0.0
C921 C 0.21765 0.43332 0.25724 0.0
C922 C 0.17852 0.36101 0.2703 0.0
C923 C 0.26091 0.4146 0.25919 0.0
H924 H 0.26521 0.33279 0.31435 0.0
H925 H 0.26181 0.31788 0.233 0.0
H926 H 0.24453 0.39368 0.31472 0.0
H927 H 0.21535 0.37524 0.31783 0.0
H928 H 0.24366 0.36584 0.33428 0.0
H929 H 0.23904 0.34271 0.2049 0.0
H930 H 0.21162 0.3571 0.21898 0.0
H931 H 0.24046 0.37577 0.21459 0.0
H932 H 0.15788 0.40641 0.26338 0.0
H933 H 0.22736 0.45151 0.25395 0.0
H934 H 0.18461 0.35323 0.28886 0.0
H935 H 0.18335 0.34705 0.25503 0.0
H936 H 0.15747 0.36273 0.2706 0.0
H937 H 0.26938 0.4083 0.2774 0.0
H938 H 0.26774 0.43447 0.25581 0.0
H939 H 0.26811 0.40226 0.24353 0.0
C940 C 0.08977 0.02585 0.4514 0.0
C941 C 0.07606 0.01832 0.47323 0.0
C942 C 0.11148 0.04226 0.45354 0.0
C943 C 0.11967 0.05132 0.4781 0.0
C944 C 0.10568 0.04411 0.50017 0.0
C945 C 0.08403 0.02769 0.49747 0.0
C946 C 0.12595 0.0495 0.42957 0.0
C947 C 0.11378 0.05348 0.52668 0.0
C948 C 0.1893 0.07232 0.48715 0.0
C949 C 0.1882 0.09885 0.48656 0.0
C950 C 0.16714 0.05665 0.48432 0.0
C951 C 0.1433 0.06776 0.4808 0.0
C952 C 0.14204 0.0945 0.48005 0.0
C953 C 0.16452 0.10973 0.48294 0.0
C954 C 0.16923 0.02819 0.48522 0.0
C955 C 0.11694 0.107 0.47629 0.0
H956 H 0.08387 0.01841 0.43265 0.0
H957 H 0.07329 0.0222 0.51436 0.0
H958 H 0.12771 0.07046 0.42817 0.0
H959 H 0.14559 0.04249 0.43051 0.0
H960 H 0.11653 0.04158 0.41185 0.0
H961 H 0.10044 0.04662 0.5418 0.0
H962 H 0.13313 0.04698 0.5311 0.0
H963 H 0.11486 0.07454 0.52745 0.0
H964 H 0.20751 0.06374 0.48992 0.0
H965 H 0.1635 0.13021 0.48244 0.0
H966 H 0.16161 0.01919 0.46718 0.0
H967 H 0.15753 0.0205 0.50121 0.0
H968 H 0.18924 0.02256 0.48787 0.0
H969 H 0.10792 0.10016 0.45799 0.0
H970 H 0.11925 0.12803 0.47595 0.0
H971 H 0.10361 0.10171 0.49198 0.0
C972 C 0.77357 0.13904 0.72195 0.0
C973 C 0.76238 0.1618 0.71556 0.0
C974 C 0.75881 0.11631 0.72355 0.0
C975 C 0.73227 0.1163 0.71844 0.0
C976 C 0.72091 0.13911 0.71166 0.0
C977 C 0.73608 0.1616 0.71043 0.0
C978 C 0.77157 0.09234 0.73092 0.0
C979 C 0.69268 0.13981 0.70597 0.0
C980 C 0.6972 0.05361 0.70167 0.0
C981 C 0.68538 0.04769 0.72504 0.0
C982 C 0.71252 0.0759 0.69922 0.0
C983 C 0.71625 0.09253 0.72071 0.0
C984 C 0.70451 0.0866 0.74438 0.0
C985 C 0.68913 0.0643 0.74624 0.0
C986 C 0.72458 0.08174 0.67361 0.0
C987 C 0.70819 0.1038 0.76777 0.0
H988 H 0.79394 0.13895 0.72554 0.0
H989 H 0.72722 0.17916 0.70583 0.0
H990 H 0.76285 0.08477 0.74873 0.0
H991 H 0.76853 0.07755 0.71563 0.0
H992 H 0.79242 0.09553 0.73415 0.0
H993 H 0.68699 0.1589 0.70008 0.0
H994 H 0.68733 0.12586 0.69044 0.0
H995 H 0.68157 0.13434 0.72323 0.0
H996 H 0.69433 0.04091 0.68519 0.0
H997 H 0.68013 0.05984 0.7644 0.0
H998 H 0.74565 0.08361 0.67569 0.0
H999 H 0.71807 0.10017 0.66672 0.0
H1000 H 0.71982 0.06682 0.65878 0.0
H1001 H 0.72882 0.10628 0.77247 0.0
H1002 H 0.69799 0.09627 0.78485 0.0
H1003 H 0.70118 0.12288 0.76375 0.0
C1004 C 0.43423 0.02287 0.5251 0.0
C1005 C 0.43009 0.99645 0.52318 0.0
C1006 C 0.41459 0.03927 0.5197 0.0
C1007 C 0.39022 0.02897 0.51233 0.0
C1008 C 0.38587 0.0023 0.51055 0.0
C1009 C 0.40588 0.98636 0.51594 0.0
C1010 C 0.41999 0.0676 0.52165 0.0
C1011 C 0.36008 0.99061 0.50294 0.0
C1012 C 0.33298 0.0703 0.51992 0.0
C1013 C 0.32924 0.0782 0.49468 0.0
C1014 C 0.35277 0.05429 0.52594 0.0
C1015 C 0.36928 0.04608 0.50629 0.0
C1016 C 0.3657 0.05408 0.48081 0.0
C1017 C 0.34568 0.06999 0.47529 0.0
C1018 C 0.35592 0.04605 0.55332 0.0
C1019 C 0.38302 0.0458 0.45936 0.0
H1020 H 0.453 0.03073 0.53041 0.0
H1021 H 0.40254 0.96594 0.51472 0.0
H1022 H 0.41665 0.07626 0.50277 0.0
H1023 H 0.40673 0.07626 0.53555 0.0
H1024 H 0.43991 0.07255 0.52784 0.0
H1025 H 0.35978 0.96953 0.50271 0.0
H1026 H 0.34529 0.99707 0.51649 0.0
H1027 H 0.35472 0.99698 0.48356 0.0
H1028 H 0.32035 0.07652 0.53502 0.0
H1029 H 0.34297 0.07604 0.45576 0.0
H1030 H 0.37523 0.05203 0.56053 0.0
H1031 H 0.35425 0.02503 0.55417 0.0
H1032 H 0.34148 0.05413 0.56637 0.0
H1033 H 0.40311 0.05167 0.46397 0.0
H1034 H 0.37787 0.05396 0.44064 0.0
H1035 H 0.38206 0.0248 0.45732 0.0
C1036 C 0.58951 0.50653 0.51239 0.0
C1037 C 0.58385 0.51828 0.53597 0.0
C1038 C 0.61163 0.49271 0.50935 0.0
C1039 C 0.62857 0.49073 0.53037 0.0
C1040 C 0.6231 0.50278 0.55415 0.0
C1041 C 0.60074 0.51635 0.55669 0.0
C1042 C 0.61671 0.47995 0.48376 0.0
C1043 C 0.64081 0.50126 0.57692 0.0
C1044 C 0.67259 0.43536 0.53006 0.0
C1045 C 0.69554 0.44673 0.52127 0.0
C1046 C 0.65068 0.4495 0.5332 0.0
C1047 C 0.65178 0.47567 0.52757 0.0
C1048 C 0.67494 0.48733 0.51896 0.0
C1049 C 0.69653 0.4727 0.51584 0.0
C1050 C 0.62629 0.43637 0.5423 0.0
C1051 C 0.67686 0.51523 0.51291 0.0
H1052 H 0.57634 0.50775 0.49642 0.0
H1053 H 0.59657 0.52566 0.57485 0.0
H1054 H 0.63552 0.48675 0.47627 0.0
H1055 H 0.61752 0.45914 0.48614 0.0
H1056 H 0.60181 0.48363 0.46925 0.0
H1057 H 0.63405 0.51212 0.59391 0.0
H1058 H 0.64256 0.48116 0.5823 0.0
H1059 H 0.6602 0.50875 0.57183 0.0
H1060 H 0.67162 0.4153 0.53426 0.0
H1061 H 0.71419 0.48164 0.50911 0.0
H1062 H 0.61104 0.438 0.52768 0.0
H1063 H 0.61966 0.44574 0.5602 0.0
H1064 H 0.62866 0.41594 0.54603 0.0
H1065 H 0.66332 0.51928 0.49726 0.0
H1066 H 0.69641 0.52153 0.50696 0.0
H1067 H 0.67141 0.52671 0.52997 0.0
C1068 C 0.69301 0.26913 0.35388 0.0
C1069 C 0.71471 0.26204 0.34025 0.0
C1070 C 0.695 0.28672 0.37443 0.0
C1071 C 0.71927 0.29752 0.38143 0.0
C1072 C 0.74126 0.29037 0.36779 0.0
C1073 C 0.73872 0.27264 0.34739 0.0
C1074 C 0.67116 0.29369 0.38869 0.0
C1075 C 0.76744 0.30159 0.37465 0.0
C1076 C 0.72239 0.35974 0.41961 0.0
C1077 C 0.72712 0.35142 0.4445 0.0
C1078 C 0.71974 0.34239 0.39887 0.0
C1079 C 0.72168 0.31611 0.4032 0.0
C1080 C 0.7261 0.30757 0.42832 0.0
C1081 C 0.72884 0.32533 0.44865 0.0
C1082 C 0.71514 0.35217 0.37229 0.0
C1083 C 0.7281 0.27968 0.43371 0.0
H1084 H 0.67446 0.26072 0.3486 0.0
H1085 H 0.75549 0.26737 0.33671 0.0
H1086 H 0.67302 0.28907 0.40928 0.0
H1087 H 0.66863 0.31443 0.3877 0.0
H1088 H 0.65374 0.28357 0.38081 0.0
H1089 H 0.78259 0.2941 0.36207 0.0
H1090 H 0.76768 0.32255 0.37307 0.0
H1091 H 0.77211 0.29738 0.39486 0.0
H1092 H 0.72111 0.37986 0.41624 0.0
H1093 H 0.73241 0.31872 0.46784 0.0
H1094 H 0.69711 0.34347 0.36427 0.0
H1095 H 0.7308 0.34663 0.35931 0.0
H1096 H 0.71395 0.37315 0.37219 0.0
H1097 H 0.71045 0.26903 0.42724 0.0
H1098 H 0.73111 0.27614 0.45442 0.0
H1099 H 0.74421 0.27189 0.42274 0.0
C1100 C 0.49673 0.02015 0.8983 0.0
C1101 C 0.50764 0.02668 0.92228 0.0
C1102 C 0.51198 0.01768 0.87638 0.0
C1103 C 0.53876 0.02186 0.87851 0.0
C1104 C 0.5499 0.02839 0.90266 0.0
C1105 C 0.53421 0.0307 0.92426 0.0
C1106 C 0.49942 0.01074 0.85092 0.0
C1107 C 0.57841 0.03293 0.90567 0.0
C1108 C 0.58091 0.9939 0.82695 0.0
C1109 C 0.58651 0.01507 0.81176 0.0
C1110 C 0.56534 0.99583 0.84871 0.0
C1111 C 0.55515 0.01949 0.85544 0.0
C1112 C 0.56071 0.04093 0.84021 0.0
C1113 C 0.57632 0.03846 0.81854 0.0
C1114 C 0.55979 0.97255 0.8645 0.0
C1115 C 0.55021 0.06648 0.84683 0.0
H1116 H 0.47618 0.01734 0.89661 0.0
H1117 H 0.54276 0.03543 0.94281 0.0
H1118 H 0.50359 0.02596 0.83695 0.0
H1119 H 0.50734 0.99307 0.84292 0.0
H1120 H 0.47838 0.00786 0.85258 0.0
H1121 H 0.58404 0.0379 0.92579 0.0
H1122 H 0.58839 0.01569 0.89952 0.0
H1123 H 0.58516 0.04856 0.89313 0.0
H1124 H 0.58868 0.97575 0.82184 0.0
H1125 H 0.58054 0.05491 0.80692 0.0
H1126 H 0.53889 0.96836 0.86528 0.0
H1127 H 0.5665 0.9761 0.88452 0.0
H1128 H 0.56913 0.95555 0.85663 0.0
H1129 H 0.52903 0.06497 0.84717 0.0
H1130 H 0.55626 0.08125 0.83296 0.0
H1131 H 0.55669 0.0728 0.86631 0.0
C1132 C 0.2954 0.2202 0.31843 0.0
C1133 C 0.29065 0.24608 0.32187 0.0
C1134 C 0.29172 0.2031 0.33849 0.0
C1135 C 0.28239 0.21191 0.36238 0.0
C1136 C 0.27734 0.23789 0.36597 0.0
C1137 C 0.28185 0.2547 0.34581 0.0
C1138 C 0.29772 0.17559 0.33409 0.0
C1139 C 0.26697 0.24791 0.39106 0.0
C1140 C 0.24906 0.16377 0.40539 0.0
C1141 C 0.2677 0.16047 0.42422 0.0
C1142 C 0.25356 0.18057 0.38521 0.0
C1143 C 0.2775 0.19386 0.38352 0.0
C1144 C 0.29661 0.19017 0.40218 0.0
C1145 C 0.29136 0.17374 0.42253 0.0
C1146 C 0.23251 0.18444 0.366 0.0
C1147 C 0.32259 0.20356 0.40064 0.0
H1148 H 0.30173 0.21316 0.29994 0.0
H1149 H 0.27858 0.27469 0.34892 0.0
H1150 H 0.31132 0.16961 0.34893 0.0
H1151 H 0.28007 0.16341 0.33587 0.0
H1152 H 0.30612 0.17206 0.31484 0.0
H1153 H 0.26345 0.26853 0.39053 0.0
H1154 H 0.24879 0.23751 0.39572 0.0
H1155 H 0.28059 0.24467 0.40687 0.0
H1156 H 0.23068 0.15369 0.40677 0.0
H1157 H 0.30586 0.17107 0.43699 0.0
H1158 H 0.23903 0.17946 0.34637 0.0
H1159 H 0.22771 0.20474 0.36604 0.0
H1160 H 0.21491 0.1728 0.37017 0.0
H1161 H 0.33145 0.19935 0.38179 0.0
H1162 H 0.33567 0.19783 0.4161 0.0
H1163 H 0.32064 0.2244 0.40209 0.0
C1164 C 0.50358 0.49011 0.89106 0.0
C1165 C 0.49485 0.48474 0.91584 0.0
C1166 C 0.48635 0.49261 0.87069 0.0
C1167 C 0.45977 0.48986 0.8753 0.0
C1168 C 0.45084 0.48497 0.90041 0.0
C1169 C 0.46851 0.48239 0.92036 0.0
C1170 C 0.49659 0.49765 0.84413 0.0
C1171 C 0.42265 0.48216 0.90612 0.0
C1172 C 0.4147 0.51613 0.82619 0.0
C1173 C 0.407 0.49414 0.81209 0.0
C1174 C 0.43168 0.515 0.84698 0.0
C1175 C 0.44132 0.49135 0.85371 0.0
C1176 C 0.4335 0.46907 0.83968 0.0
C1177 C 0.41636 0.47072 0.8191 0.0
C1178 C 0.43943 0.53912 0.86165 0.0
C1179 C 0.44347 0.44352 0.84621 0.0
H1180 H 0.52395 0.49171 0.88746 0.0
H1181 H 0.4617 0.47855 0.93959 0.0
H1182 H 0.49069 0.4817 0.83089 0.0
H1183 H 0.48845 0.51508 0.83652 0.0
H1184 H 0.51775 0.49998 0.8439 0.0
H1185 H 0.41884 0.47931 0.92685 0.0
H1186 H 0.41286 0.49929 0.89999 0.0
H1187 H 0.41404 0.46573 0.89507 0.0
H1188 H 0.4075 0.5343 0.82094 0.0
H1189 H 0.41057 0.45364 0.80828 0.0
H1190 H 0.46038 0.54275 0.86027 0.0
H1191 H 0.43481 0.53707 0.88229 0.0
H1192 H 0.42975 0.55589 0.85436 0.0
H1193 H 0.46458 0.44406 0.84454 0.0
H1194 H 0.43542 0.428 0.83348 0.0
H1195 H 0.43874 0.43896 0.86638 0.0
C1196 C 0.74795 0.75852 0.15834 0.0
C1197 C 0.72266 0.76558 0.16165 0.0
C1198 C 0.75456 0.74204 0.13815 0.0
C1199 C 0.73544 0.73265 0.12076 0.0
C1200 C 0.70983 0.73949 0.1242 0.0
C1201 C 0.70373 0.7558 0.14468 0.0
C1202 C 0.78203 0.73493 0.13525 0.0
C1203 C 0.68896 0.73005 0.10591 0.0
C1204 C 0.75532 0.71209 0.05376 0.0
C1205 C 0.75385 0.68554 0.05537 0.0
C1206 C 0.74954 0.72762 0.07496 0.0
C1207 C 0.74233 0.71635 0.09842 0.0
C1208 C 0.7412 0.68959 0.10032 0.0
C1209 C 0.74686 0.67448 0.07873 0.0
C1210 C 0.75081 0.75611 0.07215 0.0
C1211 C 0.73379 0.67692 0.1251 0.0
H1212 H 0.76257 0.76586 0.17161 0.0
H1213 H 0.68421 0.76146 0.14705 0.0
H1214 H 0.78326 0.71397 0.1349 0.0
H1215 H 0.78968 0.74187 0.11673 0.0
H1216 H 0.79437 0.74299 0.15104 0.0
H1217 H 0.6699 0.7366 0.11168 0.0
H1218 H 0.69322 0.73683 0.0863 0.0
H1219 H 0.68811 0.70899 0.1049 0.0
H1220 H 0.76065 0.72079 0.03578 0.0
H1221 H 0.74578 0.65399 0.08017 0.0
H1222 H 0.76428 0.76501 0.08648 0.0
H1223 H 0.73177 0.76378 0.07598 0.0
H1224 H 0.75703 0.76187 0.05268 0.0
H1225 H 0.74666 0.684 0.14086 0.0
H1226 H 0.73464 0.65592 0.12366 0.0
H1227 H 0.71411 0.68178 0.1305 0.0
C1228 C 0.01184 0.0203 0.10899 0.0
C1229 C 0.0023 0.02343 0.08415 0.0
C1230 C 0.9953 0.0162 0.12974 0.0
C1231 C 0.96858 0.01502 0.12548 0.0
C1232 C 0.95884 0.01762 0.10034 0.0
C1233 C 0.97584 0.02191 0.07997 0.0
C1234 C 0.00639 0.01374 0.15632 0.0
C1235 C 0.93048 0.01621 0.09502 0.0
C1236 C 0.92684 0.98498 0.17703 0.0
C1237 C 0.9184 0.00645 0.19034 0.0
C1238 C 0.94289 0.98747 0.15562 0.0
C1239 C 0.95084 0.01199 0.14751 0.0
C1240 C 0.94227 0.03373 0.16076 0.0
C1241 C 0.92606 0.03069 0.18194 0.0
C1242 C 0.95149 0.96387 0.1418 0.0
C1243 C 0.95048 0.0602 0.15276 0.0
H1244 H 0.03229 0.02176 0.11232 0.0
H1245 H 0.96844 0.02407 0.06072 0.0
H1246 H -6e-05 0.02938 0.16898 0.0
H1247 H -0.00058 0.99564 0.16483 0.0
H1248 H 0.0276 0.01433 0.15625 0.0
H1249 H 0.92606 0.01748 0.07423 0.0
H1250 H 0.92185 -0.00186 0.10219 0.0
H1251 H 0.92122 0.03191 0.10542 0.0
H1252 H 0.9209 0.96618 0.18332 0.0
H1253 H 0.91966 0.04738 0.19214 0.0
H1254 H 0.97259 0.96314 0.14283 0.0
H1255 H 0.9462 0.96438 0.12119 0.0
H1256 H 0.94295 0.94621 0.15005 0.0
H1257 H 0.97158 0.06271 0.15393 0.0
H1258 H 0.94191 0.07512 0.16495 0.0
H1259 H 0.94493 0.06308 0.1325 0.0
C1260 C 0.2598 0.73901 0.15621 0.0
C1261 C 0.26542 0.7486 0.18098 0.0
C1262 C 0.2551 0.75537 0.13601 0.0
C1263 C 0.25586 0.78193 0.14078 0.0
C1264 C 0.26125 0.79171 0.16581 0.0
C1265 C 0.26605 0.77491 0.18562 0.0
C1266 C 0.24963 0.74426 0.10951 0.0
C1267 C 0.26202 0.8199 0.17166 0.0
C1268 C 0.26782 0.8253 0.08446 0.0
C1269 C 0.24302 0.83234 0.07846 0.0
C1270 C 0.27226 0.80893 0.10472 0.0
C1271 C 0.25143 0.79951 0.11944 0.0
C1272 C 0.22638 0.8067 0.11365 0.0
C1273 C 0.22246 0.82298 0.09317 0.0
C1274 C 0.29924 0.80155 0.11025 0.0
C1275 C 0.20371 0.79713 0.12905 0.0
H1276 H 0.25958 0.71869 0.15253 0.0
H1277 H 0.27011 0.78234 0.20483 0.0
H1278 H 0.23088 0.75037 0.10255 0.0
H1279 H 0.26432 0.75143 0.09586 0.0
H1280 H 0.24943 0.72318 0.1091 0.0
H1281 H 0.266 0.82439 0.19225 0.0
H1282 H 0.27699 0.82958 0.15994 0.0
H1283 H 0.24352 0.82791 0.16642 0.0
H1284 H 0.28382 0.83239 0.07316 0.0
H1285 H 0.20324 0.82838 0.0887 0.0
H1286 H 0.30052 0.78064 0.10847 0.0
H1287 H 0.3046 0.80712 0.13026 0.0
H1288 H 0.31334 0.81058 0.09703 0.0
H1289 H 0.20201 0.7761 0.1277 0.0
H1290 H 0.18552 0.80487 0.12236 0.0
H1291 H 0.2065 0.80243 0.14962 0.0
C1292 C 0.00322 0.45038 0.09344 0.0
C1293 C -6e-05 0.47171 0.07834 0.0
C1294 C 0.0171 0.45237 0.11651 0.0
C1295 C 0.02805 0.47623 0.12456 0.0
C1296 C 0.02479 0.49784 0.10939 0.0
C1297 C 0.01067 0.49532 0.08649 0.0
C1298 C 0.01998 0.42896 0.1323 0.0
C1299 C 0.03636 0.52355 0.11726 0.0
C1300 C 0.04503 0.48681 0.19496 0.0
C1301 C 0.07137 0.48306 0.19494 0.0
C1302 C 0.03067 0.48456 0.1722 0.0
C1303 C 0.04299 0.47858 0.14883 0.0
C1304 C 0.06957 0.47482 0.14865 0.0
C1305 C 0.08343 0.47702 0.17173 0.0
C1306 C 0.00232 0.48854 0.17314 0.0
C1307 C 0.08338 0.46856 0.12406 0.0
H1308 H 0.99467 0.43216 0.08734 0.0
H1309 H 0.00837 0.51178 0.0747 0.0
H1310 H 0.04051 0.42515 0.13464 0.0
H1311 H 0.01209 0.43209 0.1518 0.0
H1312 H 0.01012 0.41187 0.12344 0.0
H1313 H 0.03202 0.53845 0.10331 0.0
H1314 H 0.02907 0.52935 0.13638 0.0
H1315 H 0.05739 0.52256 0.11899 0.0
H1316 H 0.03554 0.49142 0.21282 0.0
H1317 H 0.10379 0.47417 0.17153 0.0
H1318 H 0.99164 0.47128 0.16573 0.0
H1319 H 0.99751 0.5044 0.16059 0.0
H1320 H 0.99561 0.49287 0.1929 0.0
H1321 H 0.07509 0.45067 0.11535 0.0
H1322 H 0.10414 0.46638 0.12717 0.0
H1323 H 0.08086 0.48377 0.10999 0.0
C1324 C 0.31942 0.72062 0.28082 0.0
C1325 C 0.32077 0.7242 0.25424 0.0
C1326 C 0.34087 0.72548 0.29663 0.0
C1327 C 0.36418 0.73422 0.2856 0.0
C1328 C 0.3657 0.7378 0.25879 0.0
C1329 C 0.344 0.73268 0.24343 0.0
C1330 C 0.33855 0.72141 0.32515 0.0
C1331 C 0.39025 0.74708 0.24632 0.0
C1332 C 0.41347 0.76959 0.32797 0.0
C1333 C 0.43096 0.75073 0.33241 0.0
C1334 C 0.39157 0.76443 0.31289 0.0
C1335 C 0.387 0.73979 0.30209 0.0
C1336 C 0.40445 0.7206 0.30668 0.0
C1337 C 0.42625 0.72632 0.32174 0.0
C1338 C 0.37343 0.7854 0.30831 0.0
C1339 C 0.40014 0.69408 0.29556 0.0
H1340 H 0.30145 0.71434 0.28933 0.0
H1341 H 0.34529 0.7351 0.22286 0.0
H1342 H 0.35272 0.70774 0.3314 0.0
H1343 H 0.34284 0.73955 0.33578 0.0
H1344 H 0.31918 0.71411 0.33064 0.0
H1345 H 0.38822 0.74896 0.22522 0.0
H1346 H 0.39655 0.76582 0.25474 0.0
H1347 H 0.40557 0.73375 0.25012 0.0
H1348 H 0.41696 0.7885 0.33612 0.0
H1349 H 0.43962 0.71161 0.32515 0.0
H1350 H 0.354 0.7796 0.31495 0.0
H1351 H 0.37207 0.78897 0.28745 0.0
H1352 H 0.37955 0.80343 0.31838 0.0
H1353 H 0.38139 0.68593 0.30188 0.0
H1354 H 0.41527 0.6812 0.30136 0.0
H1355 H 0.39964 0.69468 0.27429 0.0
C1356 C 0.00614 0.41826 0.99006 0.0
C1357 C 0.98115 0.4256 0.99492 0.0
C1358 C 0.01082 0.39763 0.97354 0.0
C1359 C 0.99003 0.38415 0.96143 0.0
C1360 C 0.9648 0.39166 0.96594 0.0
C1361 C 0.96066 0.41224 0.9827 0.0
C1362 C 0.03799 0.39014 0.96921 0.0
C1363 C 0.94215 0.37777 0.95331 0.0
C1364 C 0.00263 0.34388 0.90189 0.0
C1365 C 0.00245 0.31939 0.91194 0.0
C1366 C -0.00133 0.36516 0.91779 0.0
C1367 C 0.99462 0.36187 0.94438 0.0
C1368 C 0.99469 0.33725 0.95469 0.0
C1369 C -0.00148 0.31629 0.93833 0.0
C1370 C -0.00144 0.39112 0.9061 0.0
C1371 C 0.99062 0.33303 0.983 0.0
H1372 H 0.02209 0.42873 -0.00088 0.0
H1373 H 0.94128 0.41757 0.98663 0.0
H1374 H 0.04022 0.37031 0.9753 0.0
H1375 H 0.04263 0.3908 0.94846 0.0
H1376 H 0.05203 0.40271 0.97995 0.0
H1377 H 0.92382 0.38653 0.95819 0.0
H1378 H 0.94442 0.37758 0.93214 0.0
H1379 H 0.94109 0.35772 0.9594 0.0
H1380 H 0.00559 0.34643 0.88151 0.0
H1381 H -0.00156 0.29744 0.94626 0.0
H1382 H 0.01333 0.40391 0.91545 0.0
H1383 H 0.97983 0.39964 0.90948 0.0
H1384 H 0.00222 0.39047 0.88511 0.0
H1385 H 0.00521 0.34426 0.99437 0.0
H1386 H 0.99167 0.31272 0.98803 0.0
H1387 H 0.97166 0.33972 0.98883 0.0
C1388 C 0.64255 0.77907 0.22236 0.0
C1389 C 0.66441 0.79166 0.23294 0.0
C1390 C 0.62078 0.77399 0.2373 0.0
C1391 C 0.62051 0.78232 0.26328 0.0
C1392 C 0.64231 0.7953 0.27404 0.0
C1393 C 0.66409 0.79948 0.25887 0.0
C1394 C 0.59805 0.75966 0.22527 0.0
C1395 C 0.64258 0.80488 0.30158 0.0
C1396 C 0.5559 0.79015 0.29459 0.0
C1397 C 0.55389 0.76868 0.30997 0.0
C1398 C 0.57761 0.79497 0.27947 0.0
C1399 C 0.59741 0.7775 0.27922 0.0
C1400 C 0.59523 0.75552 0.29435 0.0
C1401 C 0.57363 0.75156 0.30984 0.0
C1402 C 0.57955 0.81893 0.26408 0.0
C1403 C 0.61565 0.73614 0.29408 0.0
H1404 H 0.6423 0.77335 0.20226 0.0
H1405 H 0.68096 0.80874 0.26748 0.0
H1406 H 0.59296 0.74261 0.23662 0.0
H1407 H 0.58125 0.77177 0.22546 0.0
H1408 H 0.60173 0.75353 0.20513 0.0
H1409 H 0.66068 0.81551 0.30674 0.0
H1410 H 0.62646 0.81752 0.30491 0.0
H1411 H 0.63996 0.78871 0.31472 0.0
H1412 H 0.54074 0.80353 0.29484 0.0
H1413 H 0.57201 0.73484 0.32159 0.0
H1414 H 0.58142 0.81411 0.24337 0.0
H1415 H 0.59693 0.8304 0.26987 0.0
H1416 H 0.56266 0.83076 0.26671 0.0
H1417 H 0.61879 0.72917 0.27414 0.0
H1418 H 0.61061 0.71963 0.30625 0.0
H1419 H 0.634 0.74504 0.30106 0.0
C1420 C 0.04818 0.09593 0.00656 0.0
C1421 C 0.02842 0.07766 0.01035 0.0
C1422 C 0.04419 0.11753 0.99207 0.0
C1423 C 0.0199 0.1208 0.98094 0.0
C1424 C -2e-05 0.10221 0.98439 0.0
C1425 C 0.00445 0.08091 -0.00081 0.0
C1426 C 0.06582 0.13706 0.98902 0.0
C1427 C 0.97392 0.10492 0.97256 0.0
C1428 C 0.00224 0.18763 0.96442 0.0
C1429 C 0.00746 0.18816 0.93804 0.0
C1430 C 0.00616 0.16579 0.9786 0.0
C1431 C 0.01527 0.1439 0.96605 0.0
C1432 C 0.02032 0.14421 0.93939 0.0
C1433 C 0.01647 0.16639 0.92572 0.0
C1434 C 0.00077 0.16622 0.00707 0.0
C1435 C 0.02983 0.12114 0.92531 0.0
H1436 H 0.06664 0.0936 0.01545 0.0
H1437 H 0.98922 0.06667 0.00195 0.0
H1438 H 0.06988 0.13985 0.96836 0.0
H1439 H 0.06027 0.15561 0.99722 0.0
H1440 H 0.08362 0.13151 -0.00135 0.0
H1441 H 0.96072 0.08843 0.97649 0.0
H1442 H 0.96532 0.12239 0.98019 0.0
H1443 H 0.97567 0.10688 0.95147 0.0
H1444 H 0.99533 0.20438 0.97409 0.0
H1445 H 0.02043 0.16661 0.90531 0.0
H1446 H 0.01841 0.16232 0.01788 0.0
H1447 H 0.98631 0.15105 0.0117 0.0
H1448 H 0.99371 0.18474 0.01392 0.0
H1449 H 0.04845 0.11598 0.93345 0.0
H1450 H 0.03225 0.1243 0.90443 0.0
H1451 H 0.01625 0.10468 0.9279 0.0
C1452 C 0.36479 0.26812 0.25347 0.0
C1453 C 0.34065 0.27467 0.24472 0.0
C1454 C 0.38481 0.26418 0.23622 0.0
C1455 C 0.38064 0.26707 0.2096 0.0
C1456 C 0.35644 0.27399 0.20066 0.0
C1457 C 0.33671 0.2776 0.21831 0.0
C1458 C 0.41037 0.25678 0.24646 0.0
C1459 C 0.35133 0.27734 0.17241 0.0
C1460 C 0.43873 0.27778 0.16722 0.0
C1461 C 0.44169 0.25342 0.15659 0.0
C1462 C 0.41879 0.28257 0.18433 0.0
C1463 C 0.40152 0.26247 0.19108 0.0
C1464 C 0.40431 0.23787 0.18031 0.0
C1465 C 0.42431 0.23366 0.16311 0.0
C1466 C 0.41627 0.30909 0.19528 0.0
C1467 C 0.38632 0.21594 0.18718 0.0
H1468 H 0.36809 0.26621 0.27387 0.0
H1469 H 0.31802 0.28233 0.21137 0.0
H1470 H 0.41543 0.23819 0.23794 0.0
H1471 H 0.42547 0.27093 0.24083 0.0
H1472 H 0.41049 0.25535 0.26771 0.0
H1473 H 0.33169 0.28354 0.16868 0.0
H1474 H 0.36519 0.2916 0.16451 0.0
H1475 H 0.35397 0.25919 0.16179 0.0
H1476 H 0.45204 0.29317 0.16221 0.0
H1477 H 0.42649 0.21477 0.15504 0.0
H1478 H 0.41804 0.30895 0.2165 0.0
H1479 H 0.3971 0.31601 0.19074 0.0
H1480 H 0.43097 0.32273 0.18769 0.0
H1481 H 0.38709 0.21283 0.20816 0.0
H1482 H 0.391 0.19802 0.17698 0.0
H1483 H 0.36639 0.22041 0.18237 0.0
C1484 C 0.51798 0.40933 0.97832 0.0
C1485 C 0.52363 0.43339 0.98937 0.0
C1486 C 0.51447 0.38792 0.99364 0.0
C1487 C 0.51653 0.39069 0.02066 0.0
C1488 C 0.5223 0.41493 0.03194 0.0
C1489 C 0.52587 0.436 0.01613 0.0
C1490 C 0.50857 0.36233 0.98092 0.0
C1491 C 0.52445 0.41864 0.06069 0.0
C1492 C 0.48366 0.33993 0.06095 0.0
C1493 C 0.50418 0.32523 0.06788 0.0
C1494 C 0.48745 0.3614 0.04574 0.0
C1495 C 0.51233 0.36824 0.03714 0.0
C1496 C 0.53314 0.35351 0.04406 0.0
C1497 C 0.52883 0.33221 0.05942 0.0
C1498 C 0.46481 0.37675 0.03886 0.0
C1499 C 0.55993 0.36015 0.0351 0.0
H1500 H 0.51658 0.40721 0.95761 0.0
H1501 H 0.53001 0.45463 0.02473 0.0
H1502 H 0.52319 0.34879 0.98636 0.0
H1503 H 0.48985 0.35449 0.98766 0.0
H1504 H 0.50798 0.36337 0.95964 0.0
H1505 H 0.52927 0.4387 0.06639 0.0
H1506 H 0.50615 0.4127 0.06988 0.0
H1507 H 0.53937 0.40651 0.06836 0.0
H1508 H 0.46456 0.33472 0.06747 0.0
H1509 H 0.54479 0.32094 0.06466 0.0
H1510 H 0.46244 0.37694 0.0177 0.0
H1511 H 0.46813 0.39674 0.04555 0.0
H1512 H 0.44677 0.36912 0.04744 0.0
H1513 H 0.56051 0.35995 0.01381 0.0
H1514 H 0.57403 0.34678 0.04221 0.0
H1515 H 0.56582 0.37964 0.04179 0.0
C1516 C 0.66436 0.25685 0.25085 0.0
C1517 C 0.66978 0.23264 0.25952 0.0
C1518 C 0.64397 0.26028 0.23399 0.0
C1519 C 0.62874 0.23894 0.22543 0.0
C1520 C 0.63453 0.21437 0.23351 0.0
C1521 C 0.65495 0.21151 0.25053 0.0
C1522 C 0.63837 0.28679 0.22578 0.0
C1523 C 0.61875 0.19116 0.22469 0.0
C1524 C 0.56084 0.25013 0.20451 0.0
C1525 C 0.56311 0.25004 0.17769 0.0
C1526 C 0.58206 0.24649 0.22025 0.0
C1527 C 0.6061 0.24251 0.20888 0.0
C1528 C 0.60853 0.24224 0.18183 0.0
C1529 C 0.587 0.2461 0.16654 0.0
C1530 C 0.57878 0.24705 0.24905 0.0
C1531 C 0.63385 0.23789 0.16907 0.0
H1532 H 0.67603 0.2732 0.25738 0.0
H1533 H 0.65887 0.19278 0.25736 0.0
H1534 H 0.63828 0.28772 0.20452 0.0
H1535 H 0.61911 0.29176 0.2325 0.0
H1536 H 0.65255 0.30125 0.23351 0.0
H1537 H 0.62668 0.17328 0.23152 0.0
H1538 H 0.59895 0.19238 0.23194 0.0
H1539 H 0.61767 0.19026 0.20342 0.0
H1540 H 0.54247 0.2532 0.21328 0.0
H1541 H 0.58889 0.24589 0.14583 0.0
H1542 H 0.59139 0.26233 0.25779 0.0
H1543 H 0.58454 0.22883 0.25712 0.0
H1544 H 0.55878 0.2503 0.25483 0.0
H1545 H 0.64814 0.25287 0.17535 0.0
H1546 H 0.63245 0.23791 0.14779 0.0
H1547 H 0.64113 0.21942 0.17497 0.0
C1548 C 0.51011 0.08342 0.00867 0.0
C1549 C 0.48508 0.07495 0.00236 0.0
C1550 C 0.51481 0.10472 0.02483 0.0
C1551 C 0.49398 0.11769 0.03521 0.0
C1552 C 0.46867 0.10903 0.0293 0.0
C1553 C 0.46453 0.08786 0.01282 0.0
C1554 C 0.54206 0.11349 0.03061 0.0
C1555 C 0.44598 0.12229 0.04016 0.0
C1556 C 0.50576 0.16001 0.09428 0.0
C1557 C 0.5072 0.18421 0.08357 0.0
C1558 C 0.50136 0.13817 0.07877 0.0
C1559 C 0.49865 0.14061 0.05191 0.0
C1560 C 0.50034 0.16496 0.04096 0.0
C1561 C 0.50444 0.18649 0.05694 0.0
C1562 C 0.49938 0.11252 0.09115 0.0
C1563 C 0.49784 0.16827 0.01234 0.0
H1564 H 0.52609 0.07332 0.001 0.0
H1565 H 0.44514 0.08171 0.00776 0.0
H1566 H 0.54546 0.13329 0.02422 0.0
H1567 H 0.54557 0.11347 0.05162 0.0
H1568 H 0.5561 0.10129 0.02101 0.0
H1569 H 0.42754 0.11256 0.03449 0.0
H1570 H 0.44717 0.12322 0.06143 0.0
H1571 H 0.44608 0.1421 0.0334 0.0
H1572 H 0.50775 0.15812 0.11486 0.0
H1573 H 0.50564 0.20513 0.04853 0.0
H1574 H 0.5141 0.1001 0.08314 0.0
H1575 H 0.48048 0.10312 0.08678 0.0
H1576 H 0.50183 0.11389 0.11233 0.0
H1577 H 0.51251 0.15738 0.00212 0.0
H1578 H 0.50002 0.18848 0.00684 0.0
H1579 H 0.4789 0.16059 0.00562 0.0
C1580 C 0.2516 0.34769 0.73524 0.0
C1581 C 0.24044 0.34148 0.71133 0.0
C1582 C 0.26811 0.36918 0.73841 0.0
C1583 C 0.27325 0.38497 0.71724 0.0
C1584 C 0.26152 0.37912 0.6932 0.0
C1585 C 0.24539 0.35729 0.69048 0.0
C1586 C 0.28053 0.3746 0.76425 0.0
C1587 C 0.26624 0.39573 0.6703 0.0
C1588 C 0.30083 0.45162 0.73139 0.0
C1589 C 0.32679 0.44886 0.72603 0.0
C1590 C 0.28309 0.43107 0.7283 0.0
C1591 C 0.29162 0.40713 0.72004 0.0
C1592 C 0.31782 0.40421 0.71469 0.0
C1593 C 0.33505 0.42517 0.71756 0.0
C1594 C 0.25525 0.43496 0.73382 0.0
C1595 C 0.32769 0.37889 0.70618 0.0
H1596 H 0.24798 0.33531 0.7513 0.0
H1597 H 0.23657 0.35259 0.67205 0.0
H1598 H 0.30159 0.37399 0.76241 0.0
H1599 H 0.2762 0.39397 0.77122 0.0
H1600 H 0.27407 0.36076 0.7789 0.0
H1601 H 0.25464 0.38924 0.65333 0.0
H1602 H 0.26171 0.41563 0.67519 0.0
H1603 H 0.28672 0.39577 0.66497 0.0
H1604 H 0.2943 0.46993 0.73781 0.0
H1605 H 0.3551 0.42287 0.71351 0.0
H1606 H 0.24865 0.42242 0.74952 0.0
H1607 H 0.24353 0.42967 0.71661 0.0
H1608 H 0.25163 0.45493 0.73947 0.0
H1609 H 0.32315 0.36446 0.72087 0.0
H1610 H 0.34865 0.37976 0.70299 0.0
H1611 H 0.31809 0.37228 0.68809 0.0
C1612 C 0.22486 0.66096 0.78247 0.0
C1613 C 0.23593 0.68539 0.78667 0.0
C1614 C 0.24004 0.63971 0.78026 0.0
C1615 C 0.26691 0.64297 0.78249 0.0
C1616 C 0.2782 0.66755 0.78681 0.0
C1617 C 0.26259 0.68846 0.78874 0.0
C1618 C 0.22733 0.61379 0.77558 0.0
C1619 C 0.30678 0.67177 0.78934 0.0
C1620 C 0.30511 0.58608 0.79985 0.0
C1621 C 0.31483 0.5787 0.7759 0.0
C1622 C 0.28947 0.60696 0.80228 0.0
C1623 C 0.28327 0.62067 0.7802 0.0
C1624 C 0.29292 0.61326 0.75596 0.0
C1625 C 0.30866 0.59243 0.75411 0.0
C1626 C 0.2797 0.61444 0.82849 0.0
C1627 C 0.28658 0.62733 0.73196 0.0
H1628 H 0.20427 0.65838 0.78122 0.0
H1629 H 0.27131 0.70732 0.79161 0.0
H1630 H 0.23472 0.60515 0.75763 0.0
H1631 H 0.23196 0.60106 0.79148 0.0
H1632 H 0.20623 0.61453 0.77401 0.0
H1633 H 0.31251 0.69204 0.79309 0.0
H1634 H 0.31401 0.66036 0.80526 0.0
H1635 H 0.31625 0.66528 0.7715 0.0
H1636 H 0.30983 0.57562 0.81679 0.0
H1637 H 0.316 0.5868 0.73551 0.0
H1638 H 0.25851 0.61388 0.82839 0.0
H1639 H 0.28627 0.63423 0.83343 0.0
H1640 H 0.28624 0.60179 0.84374 0.0
H1641 H 0.26558 0.62712 0.72917 0.0
H1642 H 0.29535 0.61895 0.71452 0.0
H1643 H 0.29336 0.64749 0.73396 0.0
C1644 C 0.9318 0.47266 0.47712 0.0
C1645 C 0.92948 0.49852 0.47245 0.0
C1646 C 0.91005 0.45664 0.48048 0.0
C1647 C 0.8855 0.4667 0.47853 0.0
C1648 C 0.88311 0.49276 0.47336 0.0
C1649 C 0.90518 0.50842 0.47065 0.0
C1650 C 0.91333 0.42906 0.48644 0.0
C1651 C 0.85727 0.50407 0.47064 0.0
C1652 C 0.82891 0.42122 0.46435 0.0
C1653 C 0.8174 0.41944 0.48855 0.0
C1654 C 0.8511 0.43655 0.4608 0.0
C1655 C 0.86225 0.45006 0.48206 0.0
C1656 C 0.85093 0.44804 0.50661 0.0
C1657 C 0.8285 0.43292 0.50952 0.0
C1658 C 0.86239 0.43858 0.43425 0.0
C1659 C 0.86252 0.46185 0.5298 0.0
H1660 H 0.95066 0.46512 0.47867 0.0
H1661 H 0.90348 0.52842 0.46681 0.0
H1662 H 0.90409 0.42453 0.50502 0.0
H1663 H 0.90378 0.41672 0.47149 0.0
H1664 H 0.93375 0.4243 0.48754 0.0
H1665 H 0.85875 0.5245 0.46583 0.0
H1666 H 0.84604 0.49366 0.45537 0.0
H1667 H 0.84643 0.50204 0.48878 0.0
H1668 H 0.82035 0.41093 0.44805 0.0
H1669 H 0.81977 0.43148 0.5283 0.0
H1670 H 0.88237 0.43243 0.43436 0.0
H1671 H 0.8629 0.45867 0.42824 0.0
H1672 H 0.85136 0.42688 0.41974 0.0
H1673 H 0.88264 0.45657 0.53232 0.0
H1674 H 0.85189 0.45754 0.54771 0.0
H1675 H 0.86274 0.48265 0.52693 0.0
C1676 C 0.74044 0.82076 0.75184 0.0
C1677 C 0.75105 0.81504 0.77566 0.0
C1678 C 0.72365 0.84062 0.74957 0.0
C1679 C 0.71739 0.85515 0.77165 0.0
C1680 C 0.72809 0.84952 0.79575 0.0
C1681 C 0.74477 0.82949 0.79748 0.0
C1682 C 0.71254 0.84599 0.72356 0.0
C1683 C 0.72198 0.86472 0.81968 0.0
C1684 C 0.69263 0.92078 0.76133 0.0
C1685 C 0.6662 0.91642 0.76418 0.0
C1686 C 0.70952 0.90105 0.76393 0.0
C1687 C 0.69975 0.87634 0.76945 0.0
C1688 C 0.67313 0.87181 0.77247 0.0
C1689 C 0.65666 0.89193 0.76983 0.0
C1690 C 0.73782 0.90661 0.76064 0.0
C1691 C 0.66203 0.84569 0.77834 0.0
H1692 H 0.745 0.80943 0.735 0.0
H1693 H 0.75316 0.82531 0.81587 0.0
H1694 H 0.69139 0.84419 0.7243 0.0
H1695 H 0.71775 0.86578 0.71816 0.0
H1696 H 0.71933 0.83289 0.70831 0.0
H1697 H 0.73182 0.85785 0.83696 0.0
H1698 H 0.72772 0.885 0.8171 0.0
H1699 H 0.70109 0.86373 0.82314 0.0
H1700 H 0.7002 0.93966 0.75702 0.0
H1701 H 0.63628 0.88839 0.77208 0.0
H1702 H 0.74508 0.89499 0.74445 0.0
H1703 H 0.74825 0.90131 0.77816 0.0
H1704 H 0.74237 0.92695 0.75684 0.0
H1705 H 0.66693 0.83206 0.76278 0.0
H1706 H 0.64093 0.84538 0.78039 0.0
H1707 H 0.67044 0.83888 0.79637 0.0
C1708 C 0.5889 0.52041 0.94435 0.0
C1709 C 0.57415 0.51198 0.96517 0.0
C1710 C 0.61053 0.53666 0.94819 0.0
C1711 C 0.61753 0.54471 0.97343 0.0
C1712 C 0.60253 0.53652 0.99449 0.0
C1713 C 0.58103 0.52025 0.9901 0.0
C1714 C 0.62611 0.54494 0.92527 0.0
C1715 C 0.6093 0.54482 0.02167 0.0
C1716 C 0.68637 0.56651 0.98668 0.0
C1717 C 0.68483 0.59302 0.98689 0.0
C1718 C 0.66462 0.55058 0.9822 0.0
C1719 C 0.64076 0.5614 0.97789 0.0
C1720 C 0.63907 0.58812 0.97805 0.0
C1721 C 0.66114 0.60362 0.98252 0.0
C1722 C 0.66717 0.52215 0.98214 0.0
C1723 C 0.61394 0.60034 0.97356 0.0
H1724 H 0.58382 0.51385 0.92508 0.0
H1725 H 0.56949 0.51406 0.00622 0.0
H1726 H 0.62752 0.56597 0.92461 0.0
H1727 H 0.64583 0.53829 0.92703 0.0
H1728 H 0.61778 0.53744 0.90685 0.0
H1729 H 0.59543 0.53706 0.03588 0.0
H1730 H 0.62858 0.53847 0.02666 0.0
H1731 H 0.60996 0.56585 0.02339 0.0
H1732 H 0.7046 0.55816 0.98998 0.0
H1733 H 0.65977 0.62408 0.98264 0.0
H1734 H 0.66061 0.51374 0.96343 0.0
H1735 H 0.65481 0.51363 0.99721 0.0
H1736 H 0.68714 0.51675 0.98557 0.0
H1737 H 0.60597 0.59414 0.95459 0.0
H1738 H 0.61588 0.62141 0.9742 0.0
H1739 H 0.59992 0.59416 0.98832 0.0
C1740 C 0.23477 0.65469 0.20808 0.0
C1741 C 0.24362 0.66946 0.22924 0.0
C1742 C 0.21858 0.63316 0.21136 0.0
C1743 C 0.2111 0.62619 0.23642 0.0
C1744 C 0.22006 0.64093 0.25788 0.0
C1745 C 0.23622 0.66241 0.25403 0.0
C1746 C 0.20949 0.61784 0.18802 0.0
C1747 C 0.21246 0.6341 0.28489 0.0
C1748 C 0.15104 0.58401 0.24306 0.0
C1749 C 0.1612 0.56003 0.2459 0.0
C1750 C 0.16708 0.60575 0.24016 0.0
C1751 C 0.19389 0.60345 0.24014 0.0
C1752 C 0.20427 0.57935 0.24325 0.0
C1753 C 0.1878 0.55793 0.24607 0.0
C1754 C 0.15533 0.63116 0.23686 0.0
C1755 C 0.23278 0.57617 0.24338 0.0
H1756 H 0.24072 0.65985 0.1889 0.0
H1757 H 0.24277 0.67392 0.27042 0.0
H1758 H 0.21557 0.59801 0.18939 0.0
H1759 H 0.18832 0.6171 0.18715 0.0
H1760 H 0.217 0.62586 0.16986 0.0
H1761 H 0.22129 0.6474 0.29951 0.0
H1762 H 0.1914 0.63425 0.28686 0.0
H1763 H 0.21822 0.61459 0.28902 0.0
H1764 H 0.13052 0.58581 0.24291 0.0
H1765 H 0.19583 0.53949 0.24831 0.0
H1766 H 0.16104 0.63913 0.21808 0.0
H1767 H 0.1625 0.64477 0.252 0.0
H1768 H 0.13414 0.62979 0.23777 0.0
H1769 H 0.24105 0.58238 0.22486 0.0
H1770 H 0.23779 0.55619 0.24647 0.0
H1771 H 0.24189 0.58835 0.25874 0.0
C1772 C 0.90919 0.49345 0.00856 0.0
C1773 C 0.93244 0.50237 0.01954 0.0
C1774 C 0.88961 0.51003 0.00366 0.0
C1775 C 0.89323 0.53615 0.01011 0.0
C1776 C 0.91665 0.54532 0.02112 0.0
C1777 C 0.93601 0.52835 0.02559 0.0
C1778 C 0.86493 0.49955 0.99179 0.0
C1779 C 0.92117 0.57304 0.02832 0.0
C1780 C 0.85048 0.58249 0.97788 0.0
C1781 C 0.83176 0.58603 0.99666 0.0
C1782 C 0.8707 0.56641 0.98205 0.0
C1783 C 0.87234 0.55377 0.00565 0.0
C1784 C 0.85373 0.55755 0.02484 0.0
C1785 C 0.8336 0.57354 0.02007 0.0
C1786 C 0.89008 0.56267 0.96106 0.0
C1787 C 0.85499 0.54455 0.05035 0.0
H1788 H 0.9061 0.47336 0.0042 0.0
H1789 H 0.95404 0.53545 0.03374 0.0
H1790 H 0.84886 0.50267 0.00516 0.0
H1791 H 0.86083 0.50972 0.97391 0.0
H1792 H 0.86546 0.47892 0.98716 0.0
H1793 H 0.94046 0.57713 0.0367 0.0
H1794 H 0.91902 0.58487 0.01115 0.0
H1795 H 0.90667 0.57893 0.04248 0.0
H1796 H 0.84917 0.59201 0.95971 0.0
H1797 H 0.81928 0.57627 0.03473 0.0
H1798 H 0.88992 0.54236 0.95501 0.0
H1799 H 0.90955 0.56787 0.96834 0.0
H1800 H 0.88631 0.5742 0.94396 0.0
H1801 H 0.85367 0.52365 0.0473 0.0
H1802 H 0.83943 0.55007 0.0635 0.0
H1803 H 0.8736 0.54933 0.05985 0.0
C1804 C 0.09809 0.00152 0.05778 0.0
C1805 C 0.08299 0.00681 0.03645 0.0
C1806 C 0.12054 0.98819 0.05492 0.0
C1807 C 0.12796 0.97984 0.03015 0.0
C1808 C 0.1127 0.98497 0.00856 0.0
C1809 C 0.09042 -0.00153 0.01196 0.0
C1810 C 0.13643 0.98322 0.07837 0.0
C1811 C 0.1199 0.97618 0.98187 0.0
C1812 C 0.19751 0.9658 0.01869 0.0
C1813 C 0.19701 0.93925 0.02019 0.0
C1814 C 0.17519 0.97926 0.022 0.0
C1815 C 0.15179 0.96584 0.02679 0.0
C1816 C 0.15113 0.93905 0.02832 0.0
C1817 C 0.17377 0.92608 0.02507 0.0
C1818 C 0.17663 0.00786 0.02037 0.0
C1819 C 0.1265 0.92409 0.03328 0.0
H1820 H 0.09255 0.00821 0.0767 0.0
H1821 H 0.07863 0.0023 0.99548 0.0
H1822 H 0.13852 0.9625 0.08039 0.0
H1823 H 0.1559 0.99199 0.07618 0.0
H1824 H 0.12793 0.99088 0.09628 0.0
H1825 H 0.10583 0.98151 0.96715 0.0
H1826 H 0.13892 0.98456 0.97672 0.0
H1827 H 0.12134 0.95524 0.98126 0.0
H1828 H 0.21539 0.97613 0.01498 0.0
H1829 H 0.1732 0.90556 0.02622 0.0
H1830 H 0.16966 0.0165 0.03851 0.0
H1831 H 0.16404 0.01394 0.00469 0.0
H1832 H 0.19635 0.01546 0.01678 0.0
H1833 H 0.11822 0.93032 0.05183 0.0
H1834 H 0.12923 0.90332 0.03385 0.0
H1835 H 0.11234 0.92774 0.01806 0.0
loop_
_geom_bond_atom_site_label_1
_geom_bond_atom_site_label_2
_geom_bond_distance
_geom_bond_site_symmetry_2
_ccdc_geom_bond_type
H0 C3 0.931 . S
H1 C6 0.928 . S
H2 C8 0.930 . S
C3 H0 0.931 . S
C3 C4 1.413 . S
C3 C5 1.360 . S
C4 C3 1.413 . S
C4 C8 1.429 . S
C5 C3 1.360 . S
C5 C6 1.372 . S
C6 H1 0.928 . S
C6 C5 1.372 . S
C6 C7 1.404 . S
C7 C6 1.404 . S
C7 C8 1.391 . S
C8 H2 0.930 . S
C8 C4 1.429 . S
C8 C7 1.391 . S
H9 C12 0.931 . S
H10 C15 0.928 . S
H11 C17 0.930 . S
C12 H9 0.931 . S
C12 C13 1.413 . S
C12 C14 1.360 . S
C13 C12 1.413 . S
C13 C17 1.429 . S
C14 C12 1.360 . S
C14 C15 1.372 . S
C15 H10 0.928 . S
C15 C14 1.372 . S
C15 C16 1.404 . S
C16 C15 1.404 . S
C16 C17 1.391 . S
C17 H11 0.930 . S
C17 C13 1.429 . S
C17 C16 1.391 . S
H18 C21 0.931 . S
H19 C24 0.928 1_455 S
H20 C26 0.928 . S
C21 H18 0.931 . S
C21 C22 1.413 . S
C21 C23 1.360 . S
C22 C21 1.413 . S
C22 C26 1.429 . S
C23 C21 1.360 . S
C23 C24 1.372 . S
C24 H19 0.928 1_655 S
C24 C23 1.372 . S
C24 C25 1.404 . S
C25 C24 1.404 . S
C25 C26 1.391 . S
C26 H20 0.928 . S
C26 C22 1.429 . S
C26 C25 1.391 . S
H27 C30 0.931 . S
H28 C33 0.928 . S
H29 C35 0.930 . S
C30 H27 0.931 . S
C30 C31 1.413 . S
C30 C32 1.360 . S
C31 C30 1.413 . S
C31 C35 1.429 . S
C32 C30 1.360 . S
C32 C33 1.372 . S
C33 H28 0.928 . S
C33 C32 1.372 . S
C33 C34 1.404 . S
C34 C33 1.404 . S
C34 C35 1.391 . S
C35 H29 0.930 . S
C35 C31 1.429 . S
C35 C34 1.391 . S
H36 C39 0.931 . S
H37 C42 0.928 1_545 S
H38 C44 0.930 . S
C39 H36 0.931 . S
C39 C40 1.413 . S
C39 C41 1.360 . S
C40 C39 1.413 . S
C40 C44 1.429 . S
C41 C39 1.360 . S
C41 C42 1.372 . S
C42 H37 0.928 1_565 S
C42 C41 1.372 . S
C42 C43 1.404 . S
C43 C42 1.404 . S
C43 C44 1.391 . S
C44 H38 0.930 . S
C44 C40 1.429 . S
C44 C43 1.391 . S
H45 C48 0.931 . S
H46 C51 0.928 . S
H47 C53 0.930 . S
C48 H45 0.931 . S
C48 C49 1.413 . S
C48 C50 1.360 . S
C49 C48 1.413 . S
C49 C53 1.429 . S
C50 C48 1.360 . S
C50 C51 1.372 . S
C51 H46 0.928 . S
C51 C50 1.372 . S
C51 C52 1.404 . S
C52 C51 1.404 . S
C52 C53 1.391 . S
C53 H47 0.930 . S
C53 C49 1.429 . S
C53 C52 1.391 . S
H54 C57 0.931 . S
H55 C60 0.957 . S
H56 C62 0.930 . S
C57 H54 0.931 . S
C57 C58 1.413 . S
C57 C59 1.360 . S
C58 C57 1.413 . S
C58 C62 1.429 . S
C59 C57 1.360 . S
C59 C60 1.372 . S
C60 H55 0.957 . S
C60 C59 1.372 . S
C60 C61 1.404 . S
C61 C60 1.404 . S
C61 C62 1.391 . S
C62 H56 0.930 . S
C62 C58 1.429 . S
C62 C61 1.391 . S
H63 C66 0.931 . S
H64 C69 0.928 . S
H65 C71 0.930 . S
C66 H63 0.931 . S
C66 C67 1.413 . S
C66 C68 1.360 . S
C67 C66 1.413 . S
C67 C71 1.429 . S
C68 C66 1.360 . S
C68 C69 1.372 . S
C69 H64 0.928 . S
C69 C68 1.372 . S
C69 C70 1.404 . S
C70 C69 1.404 . S
C70 C71 1.391 . S
C71 H65 0.930 . S
C71 C67 1.429 . S
C71 C70 1.391 . S
H72 C75 0.931 . S
H73 C78 0.928 . S
H74 C80 0.930 . S
C75 H72 0.931 . S
C75 C76 1.413 . S
C75 C77 1.360 . S
C76 C75 1.413 . S
C76 C80 1.429 . S
C77 C75 1.360 . S
C77 C78 1.372 . S
C78 H73 0.928 . S
C78 C77 1.372 . S
C78 C79 1.404 . S
C79 C78 1.404 . S
C79 C80 1.391 . S
C80 H74 0.930 . S
C80 C76 1.429 . S
C80 C79 1.391 . S
H81 C84 0.907 1_545 S
H82 C87 0.928 . S
H83 C89 0.930 . S
C84 H81 0.907 1_565 S
C84 C85 1.413 . S
C84 C86 1.360 . S
C85 C84 1.413 . S
C85 C89 1.429 . S
C86 C84 1.360 . S
C86 C87 1.372 . S
C87 H82 0.928 . S
C87 C86 1.372 . S
C87 C88 1.404 . S
C88 C87 1.404 . S
C88 C89 1.391 . S
C89 H83 0.930 . S
C89 C85 1.429 . S
C89 C88 1.391 . S
H90 C93 0.931 . S
H91 C96 0.928 . S
H92 C98 0.930 . S
C93 H90 0.931 . S
C93 C94 1.413 . S
C93 C95 1.360 . S
C94 C93 1.413 . S
C94 C98 1.429 . S
C95 C93 1.360 . S
C95 C96 1.372 . S
C96 H91 0.928 . S
C96 C95 1.372 . S
C96 C97 1.404 . S
C97 C96 1.404 . S
C97 C98 1.391 . S
C98 H92 0.930 . S
C98 C94 1.429 . S
C98 C97 1.391 . S
H99 C102 0.931 . S
H100 C105 0.928 . S
H101 C107 0.930 . S
C102 H99 0.931 . S
C102 C103 1.413 . S
C102 C104 1.360 . S
C103 C102 1.413 . S
C103 C107 1.429 . S
C104 C102 1.360 . S
C104 C105 1.372 . S
C105 H100 0.928 . S
C105 C104 1.372 . S
C105 C106 1.404 . S
C106 C105 1.404 . S
C106 C107 1.391 . S
C107 H101 0.930 . S
C107 C103 1.429 . S
C107 C106 1.391 . S
H108 C111 0.931 . S
H109 C114 0.928 . S
H110 C116 0.930 . S
C111 H108 0.931 . S
C111 C112 1.413 . S
C111 C113 1.360 . S
C112 C111 1.413 . S
C112 C116 1.429 . S
C113 C111 1.360 . S
C113 C114 1.372 . S
C114 H109 0.928 . S
C114 C113 1.372 . S
C114 C115 1.404 . S
C115 C114 1.404 . S
C115 C116 1.391 . S
C116 H110 0.930 . S
C116 C112 1.429 . S
C116 C115 1.391 . S
H117 C120 0.931 . S
H118 C123 0.928 . S
H119 C125 0.930 . S
C120 H117 0.931 . S
C120 C121 1.413 . S
C120 C122 1.360 . S
C121 C120 1.413 . S
C121 C125 1.429 . S
C122 C120 1.360 . S
C122 C123 1.372 . S
C123 H118 0.928 . S
C123 C122 1.372 . S
C123 C124 1.404 . S
C124 C123 1.404 . S
C124 C125 1.391 . S
C125 H119 0.930 . S
C125 C121 1.429 . S
C125 C124 1.391 . S
H126 C129 0.931 . S
H127 C132 0.928 . S
H128 C134 0.930 . S
C129 H126 0.931 . S
C129 C130 1.413 . S
C129 C131 1.360 . S
C130 C129 1.413 . S
C130 C134 1.429 . S
C131 C129 1.360 . S
C131 C132 1.372 . S
C132 H127 0.928 . S
C132 C131 1.372 . S
C132 C133 1.404 . S
C133 C132 1.404 . S
C133 C134 1.391 . S
C134 H128 0.930 . S
C134 C130 1.429 . S
C134 C133 1.391 . S
H135 C138 0.925 1_554 S
H136 C141 0.928 . S
H137 C143 0.930 . S
C138 H135 0.925 1_556 S
C138 C139 1.413 . S
C138 C140 1.360 . S
C139 C138 1.413 . S
C139 C143 1.429 . S
C140 C138 1.360 . S
C140 C141 1.372 . S
C141 H136 0.928 . S
C141 C140 1.372 . S
C141 C142 1.404 . S
C142 C141 1.404 . S
C142 C143 1.391 . S
C143 H137 0.930 . S
C143 C139 1.429 . S
C143 C142 1.391 . S
C144 O145 1.160 1_554 S
C144 O151 1.185 . S
O145 C144 1.160 1_556 S
O146 Zn147 1.899 1_556 S
O146 C154 1.284 . S
Zn147 O146 1.899 1_554 S
Zn147 O148 2.032 . S
Zn147 O151 2.086 . S
Zn147 O156 1.977 . S
O148 Zn147 2.032 . S
O148 C152 1.278 . S
C149 O150 1.203 . S
C149 O156 1.267 . S
O150 C149 1.203 . S
O151 C144 1.185 . S
O151 Zn147 2.086 . S
C152 O148 1.278 . S
C152 O153 1.211 . S
O153 C152 1.211 . S
C154 O146 1.284 . S
C154 O155 1.273 . S
O155 C154 1.273 . S
O156 Zn147 1.977 . S
O156 C149 1.267 . S
C157 O158 1.160 . S
C157 O164 1.185 . S
O158 C157 1.160 . S
O159 Zn160 1.899 . S
O159 C167 1.284 . S
Zn160 O159 1.899 . S
Zn160 O161 2.032 . S
Zn160 O164 2.086 . S
Zn160 O169 1.977 . S
O161 Zn160 2.032 . S
O161 C165 1.278 . S
C162 O163 1.203 . S
C162 O169 1.267 . S
O163 C162 1.203 . S
O164 C157 1.185 . S
O164 Zn160 2.086 . S
C165 O161 1.278 . S
C165 O166 1.211 . S
O166 C165 1.211 . S
C167 O159 1.284 . S
C167 O168 1.273 . S
O168 C167 1.273 . S
O169 Zn160 1.977 . S
O169 C162 1.267 . S
C170 O171 1.160 1_554 S
C170 O177 1.185 . S
O171 C170 1.160 1_556 S
O172 Zn173 1.899 1_556 S
O172 C180 1.284 . S
Zn173 O172 1.899 1_554 S
Zn173 O174 2.032 1_554 S
Zn173 O177 2.086 . S
Zn173 O182 1.977 . S
O174 Zn173 2.032 1_556 S
O174 C178 1.278 . S
C175 O176 1.203 . S
C175 O182 1.267 . S
O176 C175 1.203 . S
O177 C170 1.185 . S
O177 Zn173 2.086 . S
C178 O174 1.278 . S
C178 O179 1.211 1_556 S
O179 C178 1.211 1_554 S
C180 O172 1.284 . S
C180 O181 1.273 . S
O181 C180 1.273 . S
O182 Zn173 1.977 . S
O182 C175 1.267 . S
C183 O184 1.160 . S
C183 O190 1.185 . S
O184 C183 1.160 . S
O185 Zn186 1.899 . S
O185 C193 1.284 . S
Zn186 O185 1.899 . S
Zn186 O187 2.032 1_545 S
Zn186 O190 2.086 . S
Zn186 O195 1.977 . S
O187 Zn186 2.032 1_565 S
O187 C191 1.278 . S
C188 O189 1.203 . S
C188 O195 1.267 . S
O189 C188 1.203 . S
O190 C183 1.185 . S
O190 Zn186 2.086 . S
C191 O187 1.278 . S
C191 O192 1.211 . S
O192 C191 1.211 . S
C193 O185 1.284 . S
C193 O194 1.273 1_545 S
O194 C193 1.273 1_565 S
O195 Zn186 1.977 . S
O195 C188 1.267 . S
C196 O197 1.160 . S
C196 O203 1.185 . S
O197 C196 1.160 . S
O198 Zn199 1.899 . S
O198 C206 1.284 . S
Zn199 O198 1.899 . S
Zn199 O200 2.032 . S
Zn199 O203 2.086 . S
Zn199 O208 1.977 . S
O200 Zn199 2.032 . S
O200 C204 1.278 . S
C201 O202 1.203 . S
C201 O208 1.267 . S
O202 C201 1.203 . S
O203 C196 1.185 . S
O203 Zn199 2.086 . S
C204 O200 1.278 . S
C204 O205 1.211 . S
O205 C204 1.211 . S
C206 O198 1.284 . S
C206 O207 1.273 . S
O207 C206 1.273 . S
O208 Zn199 1.977 . S
O208 C201 1.267 . S
C209 O210 1.160 . S
C209 O216 1.185 . S
O210 C209 1.160 . S
O211 Zn212 1.899 . S
O211 C219 1.284 . S
Zn212 O211 1.899 . S
Zn212 O213 2.032 . S
Zn212 O216 2.086 . S
Zn212 O221 1.977 . S
O213 Zn212 2.032 . S
O213 C217 1.278 . S
C214 O215 1.203 . S
C214 O221 1.267 . S
O215 C214 1.203 . S
O216 C209 1.185 . S
O216 Zn212 2.086 . S
C217 O213 1.278 . S
C217 O218 1.211 . S
O218 C217 1.211 . S
C219 O211 1.284 . S
C219 O220 1.273 . S
O220 C219 1.273 . S
O221 Zn212 1.977 . S
O221 C214 1.267 . S
C222 O223 1.160 . S
C222 O229 1.185 . S
O223 C222 1.160 . S
O224 Zn225 1.899 . S
O224 C232 1.284 . S
Zn225 O224 1.899 . S
Zn225 O226 2.032 . S
Zn225 O229 2.086 . S
Zn225 O234 1.977 . S
O226 Zn225 2.032 . S
O226 C230 1.278 . S
C227 O228 1.203 . S
C227 O234 1.267 . S
O228 C227 1.203 . S
O229 C222 1.185 . S
O229 Zn225 2.086 . S
C230 O226 1.278 . S
C230 O231 1.211 . S
O231 C230 1.211 . S
C232 O224 1.284 . S
C232 O233 1.273 . S
O233 C232 1.273 . S
O234 Zn225 1.977 . S
O234 C227 1.267 . S
C235 O236 1.160 . S
C235 O242 1.185 . S
O236 C235 1.160 . S
O237 Zn238 1.899 . S
O237 C245 1.284 1_565 S
Zn238 O237 1.899 . S
Zn238 O239 2.032 1_565 S
Zn238 O242 2.086 . S
Zn238 O247 1.977 . S
O239 Zn238 2.032 1_545 S
O239 C243 1.278 . S
C240 O241 1.203 1_565 S
C240 O247 1.267 . S
O241 C240 1.203 1_545 S
O242 C235 1.185 . S
O242 Zn238 2.086 . S
C243 O239 1.278 . S
C243 O244 1.211 . S
O244 C243 1.211 . S
C245 O237 1.284 1_545 S
C245 O246 1.273 . S
O246 C245 1.273 . S
O247 Zn238 1.977 . S
O247 C240 1.267 . S
C248 O249 1.160 1_455 S
C248 O255 1.185 . S
O249 C248 1.160 1_655 S
O250 Zn251 1.899 1_655 S
O250 C258 1.284 . S
Zn251 O250 1.899 1_455 S
Zn251 O252 2.032 1_455 S
Zn251 O255 2.086 . S
Zn251 O260 1.977 . S
O252 Zn251 2.032 1_655 S
O252 C256 1.276 1_655 S
C253 O254 1.203 . S
C253 O260 1.267 . S
O254 C253 1.203 . S
O255 C248 1.185 . S
O255 Zn251 2.086 . S
C256 O252 1.276 1_455 S
C256 O257 1.220 . S
O257 C256 1.220 . S
C258 O250 1.284 . S
C258 O259 1.273 . S
O259 C258 1.273 . S
O260 Zn251 1.977 . S
O260 C253 1.267 . S
C261 O262 1.160 . S
C261 O268 1.185 . S
O262 C261 1.160 . S
O263 Zn264 1.899 . S
O263 C271 1.284 . S
Zn264 O263 1.899 . S
Zn264 O265 2.032 . S
Zn264 O268 2.086 . S
Zn264 O273 1.977 . S
O265 Zn264 2.032 . S
O265 C269 1.278 . S
C266 O267 1.203 . S
C266 O273 1.267 . S
O267 C266 1.203 . S
O268 C261 1.185 . S
O268 Zn264 2.086 . S
C269 O265 1.278 . S
C269 O270 1.211 . S
O270 C269 1.211 . S
C271 O263 1.284 . S
C271 O272 1.273 . S
O272 C271 1.273 . S
O273 Zn264 1.977 . S
O273 C266 1.267 . S
C274 O275 1.160 1_455 S
C274 O281 1.185 . S
O275 C274 1.160 1_655 S
O276 Zn277 1.899 1_655 S
O276 C284 1.284 . S
Zn277 O276 1.899 1_455 S
Zn277 O278 2.032 1_455 S
Zn277 O281 2.086 . S
Zn277 O286 1.977 . S
O278 Zn277 2.032 1_655 S
O278 C282 1.280 . S
C279 O280 1.203 . S
C279 O286 1.267 . S
O280 C279 1.203 . S
O281 C274 1.185 . S
O281 Zn277 2.086 . S
C282 O278 1.280 . S
C282 O283 1.206 1_655 S
O283 C282 1.206 1_455 S
C284 O276 1.284 . S
C284 O285 1.273 . S
O285 C284 1.273 . S
O286 Zn277 1.977 . S
O286 C279 1.267 . S
C287 O288 1.160 . S
C287 O294 1.185 . S
O288 C287 1.160 . S
O289 Zn290 1.899 . S
O289 C297 1.284 . S
Zn290 O289 1.899 . S
Zn290 O291 2.032 . S
Zn290 O294 2.086 . S
Zn290 O299 1.977 . S
O291 Zn290 2.032 . S
O291 C295 1.278 . S
C292 O293 1.203 . S
C292 O299 1.267 . S
O293 C292 1.203 . S
O294 C287 1.185 . S
O294 Zn290 2.086 . S
C295 O291 1.278 . S
C295 O296 1.211 . S
O296 C295 1.211 . S
C297 O289 1.284 . S
C297 O298 1.273 . S
O298 C297 1.273 . S
O299 Zn290 1.977 . S
O299 C292 1.267 . S
C300 C301 1.391 . S
C300 C302 1.394 . S
C300 H316 0.931 . S
C301 C300 1.391 . S
C301 C305 1.376 . S
C302 C300 1.394 . S
C302 C303 1.369 . S
C302 C306 1.531 . S
C303 C302 1.369 . S
C303 C304 1.410 . S
C303 C311 1.503 . S
C304 C303 1.410 . S
C304 C305 1.392 . S
C304 C307 1.511 . S
C305 C301 1.376 . S
C305 C304 1.392 . S
C305 H317 0.929 . S
C306 C302 1.531 . S
C306 H318 0.960 . S
C306 H319 0.962 . S
C306 H320 0.960 . S
C307 C304 1.511 . S
C307 H321 0.961 . S
C307 H322 0.961 . S
C307 H323 0.961 . S
C308 C309 1.370 . S
C308 C310 1.363 . S
C308 H324 0.931 . S
C309 C308 1.370 . S
C309 C313 1.408 . S
C310 C308 1.363 . S
C310 C311 1.370 . S
C310 C314 1.524 . S
C311 C303 1.503 . S
C311 C310 1.370 . S
C311 C312 1.403 . S
C312 C311 1.403 . S
C312 C313 1.404 . S
C312 C315 1.539 . S
C313 C309 1.408 . S
C313 C312 1.404 . S
C313 H325 0.930 . S
C314 C310 1.524 . S
C314 H326 0.956 . S
C314 H327 0.961 . S
C314 H328 0.961 . S
C315 C312 1.539 . S
C315 H329 0.958 . S
C315 H330 0.961 . S
C315 H331 0.960 . S
H316 C300 0.931 . S
H317 C305 0.929 . S
H318 C306 0.960 . S
H319 C306 0.962 . S
H320 C306 0.960 . S
H321 C307 0.961 . S
H322 C307 0.961 . S
H323 C307 0.961 . S
H324 C308 0.931 . S
H325 C313 0.930 . S
H326 C314 0.956 . S
H327 C314 0.961 . S
H328 C314 0.961 . S
H329 C315 0.958 . S
H330 C315 0.961 . S
H331 C315 0.960 . S
C332 C333 1.376 1_455 S
C332 C334 1.394 . S
C332 H348 0.931 . S
C333 C332 1.376 1_655 S
C333 C337 1.372 1_655 S
C334 C332 1.394 . S
C334 C335 1.369 . S
C334 C338 1.531 . S
C335 C334 1.369 . S
C335 C336 1.410 . S
C335 C343 1.503 . S
C336 C335 1.410 . S
C336 C337 1.392 . S
C336 C339 1.511 . S
C337 C333 1.372 1_455 S
C337 C336 1.392 . S
C337 H349 0.929 1_455 S
C338 C334 1.531 . S
C338 H350 0.960 . S
C338 H351 0.962 . S
C338 H352 0.960 . S
C339 C336 1.511 . S
C339 H353 0.961 . S
C339 H354 0.961 . S
C339 H355 0.961 . S
C340 C341 1.370 . S
C340 C342 1.363 . S
C340 H356 0.931 . S
C341 C340 1.370 . S
C341 C345 1.408 . S
C342 C340 1.363 . S
C342 C343 1.370 . S
C342 C346 1.524 . S
C343 C335 1.503 . S
C343 C342 1.370 . S
C343 C344 1.403 . S
C344 C343 1.403 . S
C344 C345 1.404 . S
C344 C347 1.539 . S
C345 C341 1.408 . S
C345 C344 1.404 . S
C345 H357 0.930 . S
C346 C342 1.524 . S
C346 H358 0.956 . S
C346 H359 0.961 . S
C346 H360 0.961 . S
C347 C344 1.539 . S
C347 H361 0.958 . S
C347 H362 0.961 . S
C347 H363 0.936 1_455 S
H348 C332 0.931 . S
H349 C337 0.929 1_655 S
H350 C338 0.960 . S
H351 C338 0.962 . S
H352 C338 0.960 . S
H353 C339 0.961 . S
H354 C339 0.961 . S
H355 C339 0.961 . S
H356 C340 0.931 . S
H357 C345 0.930 . S
H358 C346 0.956 . S
H359 C346 0.961 . S
H360 C346 0.961 . S
H361 C347 0.958 . S
H362 C347 0.961 . S
H363 C347 0.936 1_655 S
C364 C365 1.391 . S
C364 C366 1.394 . S
C364 H380 0.931 . S
C365 C364 1.391 . S
C365 C369 1.376 . S
C366 C364 1.394 . S
C366 C367 1.369 . S
C366 C370 1.531 . S
C367 C366 1.369 . S
C367 C368 1.410 . S
C367 C375 1.503 . S
C368 C367 1.410 . S
C368 C369 1.392 . S
C368 C371 1.511 . S
C369 C365 1.376 . S
C369 C368 1.392 . S
C369 H381 0.929 . S
C370 C366 1.531 . S
C370 H382 0.960 . S
C370 H383 0.962 . S
C370 H384 0.960 . S
C371 C368 1.511 . S
C371 H385 0.961 . S
C371 H386 0.961 . S
C371 H387 0.961 . S
C372 C373 1.370 . S
C372 C374 1.363 . S
C372 H388 0.931 . S
C373 C372 1.370 . S
C373 C377 1.408 . S
C374 C372 1.363 . S
C374 C375 1.370 . S
C374 C378 1.524 . S
C375 C367 1.503 . S
C375 C374 1.370 . S
C375 C376 1.403 . S
C376 C375 1.403 . S
C376 C377 1.404 . S
C376 C379 1.539 . S
C377 C373 1.408 . S
C377 C376 1.404 . S
C377 H389 0.930 . S
C378 C374 1.524 . S
C378 H390 0.956 . S
C378 H391 0.961 . S
C378 H392 0.961 . S
C379 C376 1.539 . S
C379 H393 0.958 . S
C379 H394 0.961 . S
C379 H395 0.960 . S
H380 C364 0.931 . S
H381 C369 0.929 . S
H382 C370 0.960 . S
H383 C370 0.962 . S
H384 C370 0.960 . S
H385 C371 0.961 . S
H386 C371 0.961 . S
H387 C371 0.961 . S
H388 C372 0.931 . S
H389 C377 0.930 . S
H390 C378 0.956 . S
H391 C378 0.961 . S
H392 C378 0.961 . S
H393 C379 0.958 . S
H394 C379 0.961 . S
H395 C379 0.960 . S
C396 C397 1.391 1_655 S
C396 C398 1.394 . S
C396 H412 0.931 1_655 S
C397 C396 1.391 1_455 S
C397 C401 1.376 1_465 S
C398 C396 1.394 . S
C398 C399 1.369 . S
C398 C402 1.531 . S
C399 C398 1.369 . S
C399 C400 1.410 1_565 S
C399 C407 1.503 . S
C400 C399 1.410 1_545 S
C400 C401 1.392 . S
C400 C403 1.511 . S
C401 C397 1.376 1_645 S
C401 C400 1.392 . S
C401 H413 0.929 . S
C402 C398 1.531 . S
C402 H414 0.960 . S
C402 H415 0.962 . S
C402 H416 0.960 . S
C403 C400 1.511 . S
C403 H417 0.961 . S
C403 H418 0.961 . S
C403 H419 0.961 . S
C404 C405 1.370 . S
C404 C406 1.363 . S
C404 H420 0.931 . S
C405 C404 1.370 . S
C405 C409 1.408 1_545 S
C406 C404 1.363 . S
C406 C407 1.370 1_545 S
C406 C410 1.524 . S
C407 C399 1.503 . S
C407 C406 1.370 1_565 S
C407 C408 1.403 . S
C408 C407 1.403 . S
C408 C409 1.404 . S
C408 C411 1.539 . S
C409 C405 1.408 1_565 S
C409 C408 1.404 . S
C409 H421 0.930 . S
C410 C406 1.524 . S
C410 H422 0.947 1_645 S
C410 H423 0.961 . S
C410 H424 0.961 . S
C411 C408 1.539 . S
C411 H425 0.958 . S
C411 H426 0.961 . S
C411 H427 0.960 . S
H412 C396 0.931 1_455 S
H413 C401 0.929 . S
H414 C402 0.960 . S
H415 C402 0.962 . S
H416 C402 0.960 . S
H417 C403 0.961 . S
H418 C403 0.961 . S
H419 C403 0.961 . S
H420 C404 0.931 . S
H421 C409 0.930 . S
H422 C410 0.947 1_465 S
H423 C410 0.961 . S
H424 C410 0.961 . S
H425 C411 0.958 . S
H426 C411 0.961 . S
H427 C411 0.960 . S
C428 C429 1.391 . S
C428 C430 1.394 . S
C428 H444 0.931 . S
C429 C428 1.391 . S
C429 C433 1.376 . S
C430 C428 1.394 . S
C430 C431 1.369 . S
C430 C434 1.531 . S
C431 C430 1.369 . S
C431 C432 1.410 . S
C431 C439 1.503 . S
C432 C431 1.410 . S
C432 C433 1.392 . S
C432 C435 1.511 . S
C433 C429 1.376 . S
C433 C432 1.392 . S
C433 H445 0.929 . S
C434 C430 1.531 . S
C434 H446 0.960 . S
C434 H447 0.962 . S
C434 H448 0.960 . S
C435 C432 1.511 . S
C435 H449 0.961 . S
C435 H450 0.961 . S
C435 H451 0.961 . S
C436 C437 1.370 . S
C436 C438 1.363 . S
C436 H452 0.931 . S
C437 C436 1.370 . S
C437 C441 1.408 . S
C438 C436 1.363 . S
C438 C439 1.370 . S
C438 C442 1.524 . S
C439 C431 1.503 . S
C439 C438 1.370 . S
C439 C440 1.403 . S
C440 C439 1.403 . S
C440 C441 1.404 . S
C440 C443 1.539 . S
C441 C437 1.408 . S
C441 C440 1.404 . S
C441 H453 0.930 . S
C442 C438 1.524 . S
C442 H454 0.956 . S
C442 H455 0.961 . S
C442 H456 0.961 . S
C443 C440 1.539 . S
C443 H457 0.958 . S
C443 H458 0.961 . S
C443 H459 0.960 . S
H444 C428 0.931 . S
H445 C433 0.929 . S
H446 C434 0.960 . S
H447 C434 0.962 . S
H448 C434 0.960 . S
H449 C435 0.961 . S
H450 C435 0.961 . S
H451 C435 0.961 . S
H452 C436 0.931 . S
H453 C441 0.930 . S
H454 C442 0.956 . S
H455 C442 0.961 . S
H456 C442 0.961 . S
H457 C443 0.958 . S
H458 C443 0.961 . S
H459 C443 0.960 . S
C460 C461 1.391 . S
C460 C462 1.394 . S
C460 H476 0.931 . S
C461 C460 1.391 . S
C461 C465 1.376 . S
C462 C460 1.394 . S
C462 C463 1.369 . S
C462 C466 1.531 . S
C463 C462 1.369 . S
C463 C464 1.410 . S
C463 C471 1.503 . S
C464 C463 1.410 . S
C464 C465 1.392 . S
C464 C467 1.511 . S
C465 C461 1.376 . S
C465 C464 1.392 . S
C465 H477 0.929 . S
C466 C462 1.531 . S
C466 H478 0.960 . S
C466 H479 0.962 . S
C466 H480 0.960 . S
C467 C464 1.511 . S
C467 H481 0.961 . S
C467 H482 0.961 . S
C467 H483 0.961 . S
C468 C469 1.370 . S
C468 C470 1.363 . S
C468 H484 0.931 . S
C469 C468 1.370 . S
C469 C473 1.408 . S
C470 C468 1.363 . S
C470 C471 1.370 . S
C470 C474 1.524 . S
C471 C463 1.503 . S
C471 C470 1.370 . S
C471 C472 1.403 . S
C472 C471 1.403 . S
C472 C473 1.404 . S
C472 C475 1.539 . S
C473 C469 1.408 . S
C473 C472 1.404 . S
C473 H485 0.930 . S
C474 C470 1.524 . S
C474 H486 0.956 . S
C474 H487 0.961 . S
C474 H488 0.961 . S
C475 C472 1.539 . S
C475 H489 0.958 . S
C475 H490 0.961 . S
C475 H491 0.960 . S
H476 C460 0.931 . S
H477 C465 0.929 . S
H478 C466 0.960 . S
H479 C466 0.962 . S
H480 C466 0.960 . S
H481 C467 0.961 . S
H482 C467 0.961 . S
H483 C467 0.961 . S
H484 C468 0.931 . S
H485 C473 0.930 . S
H486 C474 0.956 . S
H487 C474 0.961 . S
H488 C474 0.961 . S
H489 C475 0.958 . S
H490 C475 0.961 . S
H491 C475 0.960 . S
C492 C493 1.391 . S
C492 C494 1.394 . S
C492 H508 0.931 . S
C493 C492 1.391 . S
C493 C497 1.376 . S
C494 C492 1.394 . S
C494 C495 1.369 . S
C494 C498 1.531 . S
C495 C494 1.369 . S
C495 C496 1.410 . S
C495 C503 1.503 . S
C496 C495 1.410 . S
C496 C497 1.392 . S
C496 C499 1.511 . S
C497 C493 1.376 . S
C497 C496 1.392 . S
C497 H509 0.929 . S
C498 C494 1.531 . S
C498 H510 0.960 . S
C498 H511 0.962 . S
C498 H512 0.960 . S
C499 C496 1.511 . S
C499 H513 0.961 . S
C499 H514 0.961 . S
C499 H515 0.961 . S
C500 C501 1.370 . S
C500 C502 1.363 . S
C500 H516 0.931 . S
C501 C500 1.370 . S
C501 C505 1.408 . S
C502 C500 1.363 . S
C502 C503 1.370 . S
C502 C506 1.524 . S
C503 C495 1.503 . S
C503 C502 1.370 . S
C503 C504 1.403 . S
C504 C503 1.403 . S
C504 C505 1.404 . S
C504 C507 1.539 . S
C505 C501 1.408 . S
C505 C504 1.404 . S
C505 H517 0.930 . S
C506 C502 1.524 . S
C506 H518 0.956 . S
C506 H519 0.961 . S
C506 H520 0.961 . S
C507 C504 1.539 . S
C507 H521 0.958 . S
C507 H522 0.961 . S
C507 H523 0.960 . S
H508 C492 0.931 . S
H509 C497 0.929 . S
H510 C498 0.960 . S
H511 C498 0.962 . S
H512 C498 0.960 . S
H513 C499 0.961 . S
H514 C499 0.961 . S
H515 C499 0.961 . S
H516 C500 0.931 . S
H517 C505 0.930 . S
H518 C506 0.956 . S
H519 C506 0.961 . S
H520 C506 0.961 . S
H521 C507 0.958 . S
H522 C507 0.961 . S
H523 C507 0.960 . S
C524 C525 1.391 . S
C524 C526 1.394 . S
C524 H540 0.931 . S
C525 C524 1.391 . S
C525 C529 1.376 . S
C526 C524 1.394 . S
C526 C527 1.369 . S
C526 C530 1.531 . S
C527 C526 1.369 . S
C527 C528 1.410 . S
C527 C535 1.503 . S
C528 C527 1.410 . S
C528 C529 1.392 . S
C528 C531 1.511 . S
C529 C525 1.376 . S
C529 C528 1.392 . S
C529 H541 0.929 . S
C530 C526 1.531 . S
C530 H542 0.960 . S
C530 H543 0.962 1_565 S
C530 H544 0.960 . S
C531 C528 1.511 . S
C531 H545 0.961 . S
C531 H546 0.961 . S
C531 H547 0.961 . S
C532 C533 1.370 1_545 S
C532 C534 1.363 . S
C532 H548 0.931 . S
C533 C532 1.370 1_565 S
C533 C537 1.408 . S
C534 C532 1.363 . S
C534 C535 1.370 1_545 S
C534 C538 1.524 . S
C535 C527 1.503 . S
C535 C534 1.370 1_565 S
C535 C536 1.403 . S
C536 C535 1.403 . S
C536 C537 1.404 . S
C536 C539 1.539 . S
C537 C533 1.408 . S
C537 C536 1.404 . S
C537 H549 0.930 . S
C538 C534 1.524 . S
C538 H550 0.956 . S
C538 H551 0.961 . S
C538 H552 0.961 . S
C539 C536 1.539 . S
C539 H553 0.958 . S
C539 H554 0.961 . S
C539 H555 0.960 . S
H540 C524 0.931 . S
H541 C529 0.929 . S
H542 C530 0.960 . S
H543 C530 0.962 1_545 S
H544 C530 0.960 . S
H545 C531 0.961 . S
H546 C531 0.961 . S
H547 C531 0.961 . S
H548 C532 0.931 . S
H549 C537 0.930 . S
H550 C538 0.956 . S
H551 C538 0.961 . S
H552 C538 0.961 . S
H553 C539 0.958 . S
H554 C539 0.961 . S
H555 C539 0.960 . S
C556 C557 1.391 . S
C556 C558 1.394 . S
C556 H572 0.931 . S
C557 C556 1.391 . S
C557 C561 1.376 . S
C558 C556 1.394 . S
C558 C559 1.369 . S
C558 C562 1.531 . S
C559 C558 1.369 . S
C559 C560 1.410 . S
C559 C567 1.503 . S
C560 C559 1.410 . S
C560 C561 1.392 . S
C560 C563 1.511 . S
C561 C557 1.376 . S
C561 C560 1.392 . S
C561 H573 0.929 . S
C562 C558 1.531 . S
C562 H574 0.960 . S
C562 H575 0.962 . S
C562 H576 0.960 . S
C563 C560 1.511 . S
C563 H577 0.961 . S
C563 H578 0.961 . S
C563 H579 0.961 . S
C564 C565 1.370 . S
C564 C566 1.363 . S
C564 H580 0.931 . S
C565 C564 1.370 . S
C565 C569 1.408 . S
C566 C564 1.363 . S
C566 C567 1.370 . S
C566 C570 1.524 . S
C567 C559 1.503 . S
C567 C566 1.370 . S
C567 C568 1.403 . S
C568 C567 1.403 . S
C568 C569 1.404 . S
C568 C571 1.539 . S
C569 C565 1.408 . S
C569 C568 1.404 . S
C569 H581 0.930 . S
C570 C566 1.524 . S
C570 H582 0.956 . S
C570 H583 0.961 . S
C570 H584 0.961 . S
C571 C568 1.539 . S
C571 H585 0.958 . S
C571 H586 0.961 . S
C571 H587 0.960 . S
H572 C556 0.931 . S
H573 C561 0.929 . S
H574 C562 0.960 . S
H575 C562 0.962 . S
H576 C562 0.960 . S
H577 C563 0.961 . S
H578 C563 0.961 . S
H579 C563 0.961 . S
H580 C564 0.931 . S
H581 C569 0.930 . S
H582 C570 0.956 . S
H583 C570 0.961 . S
H584 C570 0.961 . S
H585 C571 0.958 . S
H586 C571 0.961 . S
H587 C571 0.960 . S
C588 C589 1.391 . S
C588 C590 1.394 . S
C588 H604 0.931 . S
C589 C588 1.391 . S
C589 C593 1.376 . S
C590 C588 1.394 . S
C590 C591 1.369 . S
C590 C594 1.531 . S
C591 C590 1.369 . S
C591 C592 1.410 . S
C591 C599 1.503 . S
C592 C591 1.410 . S
C592 C593 1.392 . S
C592 C595 1.511 . S
C593 C589 1.376 . S
C593 C592 1.392 . S
C593 H605 0.929 . S
C594 C590 1.531 . S
C594 H606 0.960 . S
C594 H607 0.962 . S
C594 H608 0.960 . S
C595 C592 1.511 . S
C595 H609 0.961 . S
C595 H610 0.961 . S
C595 H611 0.961 . S
C596 C597 1.370 . S
C596 C598 1.363 . S
C596 H612 0.931 . S
C597 C596 1.370 . S
C597 C601 1.408 . S
C598 C596 1.363 . S
C598 C599 1.370 . S
C598 C602 1.524 . S
C599 C591 1.503 . S
C599 C598 1.370 . S
C599 C600 1.403 . S
C600 C599 1.403 . S
C600 C601 1.404 . S
C600 C603 1.539 . S
C601 C597 1.408 . S
C601 C600 1.404 . S
C601 H613 0.930 . S
C602 C598 1.524 . S
C602 H614 0.956 . S
C602 H615 0.961 . S
C602 H616 0.961 . S
C603 C600 1.539 . S
C603 H617 0.958 . S
C603 H618 0.961 . S
C603 H619 0.960 . S
H604 C588 0.931 . S
H605 C593 0.929 . S
H606 C594 0.960 . S
H607 C594 0.962 . S
H608 C594 0.960 . S
H609 C595 0.961 . S
H610 C595 0.961 . S
H611 C595 0.961 . S
H612 C596 0.931 . S
H613 C601 0.930 . S
H614 C602 0.956 . S
H615 C602 0.961 . S
H616 C602 0.961 . S
H617 C603 0.958 . S
H618 C603 0.961 . S
H619 C603 0.960 . S
C620 C621 1.391 . S
C620 C622 1.394 . S
C620 H636 0.931 . S
C621 C620 1.391 . S
C621 C625 1.376 . S
C622 C620 1.394 . S
C622 C623 1.369 . S
C622 C626 1.531 . S
C623 C622 1.369 . S
C623 C624 1.410 . S
C623 C631 1.503 . S
C624 C623 1.410 . S
C624 C625 1.392 . S
C624 C627 1.511 . S
C625 C621 1.376 . S
C625 C624 1.392 . S
C625 H637 0.929 . S
C626 C622 1.531 . S
C626 H638 0.960 . S
C626 H639 0.962 . S
C626 H640 0.960 . S
C627 C624 1.511 . S
C627 H641 0.961 . S
C627 H642 0.961 . S
C627 H643 0.961 . S
C628 C629 1.370 . S
C628 C630 1.363 . S
C628 H644 0.931 . S
C629 C628 1.370 . S
C629 C633 1.408 . S
C630 C628 1.363 . S
C630 C631 1.370 . S
C630 C634 1.524 . S
C631 C623 1.503 . S
C631 C630 1.370 . S
C631 C632 1.403 . S
C632 C631 1.403 . S
C632 C633 1.404 . S
C632 C635 1.539 . S
C633 C629 1.408 . S
C633 C632 1.404 . S
C633 H645 0.930 . S
C634 C630 1.524 . S
C634 H646 0.956 . S
C634 H647 0.961 . S
C634 H648 0.961 . S
C635 C632 1.539 . S
C635 H649 0.958 . S
C635 H650 0.961 . S
C635 H651 0.960 . S
H636 C620 0.931 . S
H637 C625 0.929 . S
H638 C626 0.960 . S
H639 C626 0.962 . S
H640 C626 0.960 . S
H641 C627 0.961 . S
H642 C627 0.961 . S
H643 C627 0.961 . S
H644 C628 0.931 . S
H645 C633 0.930 . S
H646 C634 0.956 . S
H647 C634 0.961 . S
H648 C634 0.961 . S
H649 C635 0.958 . S
H650 C635 0.961 . S
H651 C635 0.960 . S
C652 C653 1.391 . S
C652 C654 1.394 . S
C652 H668 0.931 . S
C653 C652 1.391 . S
C653 C657 1.376 . S
C654 C652 1.394 . S
C654 C655 1.369 . S
C654 C658 1.531 . S
C655 C654 1.369 . S
C655 C656 1.410 . S
C655 C663 1.503 . S
C656 C655 1.410 . S
C656 C657 1.392 . S
C656 C659 1.511 . S
C657 C653 1.376 . S
C657 C656 1.392 . S
C657 H669 0.929 . S
C658 C654 1.531 . S
C658 H670 0.960 . S
C658 H671 0.962 . S
C658 H672 0.960 . S
C659 C656 1.511 . S
C659 H673 0.961 . S
C659 H674 0.961 . S
C659 H675 0.961 . S
C660 C661 1.370 . S
C660 C662 1.363 . S
C660 H676 0.931 . S
C661 C660 1.370 . S
C661 C665 1.408 . S
C662 C660 1.363 . S
C662 C663 1.370 . S
C662 C666 1.524 . S
C663 C655 1.503 . S
C663 C662 1.370 . S
C663 C664 1.403 . S
C664 C663 1.403 . S
C664 C665 1.404 . S
C664 C667 1.539 . S
C665 C661 1.408 . S
C665 C664 1.404 . S
C665 H677 0.930 . S
C666 C662 1.524 . S
C666 H678 0.956 . S
C666 H679 0.961 . S
C666 H680 0.961 . S
C667 C664 1.539 . S
C667 H681 0.958 . S
C667 H682 0.961 . S
C667 H683 0.960 . S
H668 C652 0.931 . S
H669 C657 0.929 . S
H670 C658 0.960 . S
H671 C658 0.962 . S
H672 C658 0.960 . S
H673 C659 0.961 . S
H674 C659 0.961 . S
H675 C659 0.961 . S
H676 C660 0.931 . S
H677 C665 0.930 . S
H678 C666 0.956 . S
H679 C666 0.961 . S
H680 C666 0.961 . S
H681 C667 0.958 . S
H682 C667 0.961 . S
H683 C667 0.960 . S
C684 C685 1.391 . S
C684 C686 1.394 . S
C684 H700 0.931 . S
C685 C684 1.391 . S
C685 C689 1.376 . S
C686 C684 1.394 . S
C686 C687 1.369 . S
C686 C690 1.531 . S
C687 C686 1.369 . S
C687 C688 1.410 . S
C687 C695 1.503 . S
C688 C687 1.410 . S
C688 C689 1.392 . S
C688 C691 1.511 . S
C689 C685 1.376 . S
C689 C688 1.392 . S
C689 H701 0.929 . S
C690 C686 1.531 . S
C690 H702 0.960 . S
C690 H703 0.962 . S
C690 H704 0.960 . S
C691 C688 1.511 . S
C691 H705 0.961 . S
C691 H706 0.961 . S
C691 H707 0.961 . S
C692 C693 1.370 . S
C692 C694 1.363 . S
C692 H708 0.931 . S
C693 C692 1.370 . S
C693 C697 1.408 . S
C694 C692 1.363 . S
C694 C695 1.370 . S
C694 C698 1.524 . S
C695 C687 1.503 . S
C695 C694 1.370 . S
C695 C696 1.403 . S
C696 C695 1.403 . S
C696 C697 1.404 . S
C696 C699 1.539 . S
C697 C693 1.408 . S
C697 C696 1.404 . S
C697 H709 0.930 . S
C698 C694 1.524 . S
C698 H710 0.956 . S
C698 H711 0.961 . S
C698 H712 0.961 . S
C699 C696 1.539 . S
C699 H713 0.958 . S
C699 H714 0.961 . S
C699 H715 0.960 . S
H700 C684 0.931 . S
H701 C689 0.929 . S
H702 C690 0.960 . S
H703 C690 0.962 . S
H704 C690 0.960 . S
H705 C691 0.961 . S
H706 C691 0.961 . S
H707 C691 0.961 . S
H708 C692 0.931 . S
H709 C697 0.930 . S
H710 C698 0.956 . S
H711 C698 0.961 . S
H712 C698 0.961 . S
H713 C699 0.958 . S
H714 C699 0.961 . S
H715 C699 0.960 . S
C716 C717 1.391 . S
C716 C718 1.394 . S
C716 H732 0.931 1_455 S
C717 C716 1.391 . S
C717 C721 1.376 . S
C718 C716 1.394 . S
C718 C719 1.369 . S
C718 C722 1.531 1_455 S
C719 C718 1.369 . S
C719 C720 1.410 . S
C719 C727 1.503 . S
C720 C719 1.410 . S
C720 C721 1.392 . S
C720 C723 1.511 . S
C721 C717 1.376 . S
C721 C720 1.392 . S
C721 H733 0.929 . S
C722 C718 1.531 1_655 S
C722 H734 0.960 . S
C722 H735 0.962 . S
C722 H736 0.960 . S
C723 C720 1.511 . S
C723 H737 0.961 . S
C723 H738 0.961 . S
C723 H739 0.961 . S
C724 C725 1.370 . S
C724 C726 1.363 . S
C724 H740 0.931 1_455 S
C725 C724 1.370 . S
C725 C729 1.408 . S
C726 C724 1.363 . S
C726 C727 1.370 . S
C726 C730 1.524 . S
C727 C719 1.503 . S
C727 C726 1.370 . S
C727 C728 1.403 . S
C728 C727 1.403 . S
C728 C729 1.404 . S
C728 C731 1.539 . S
C729 C725 1.408 . S
C729 C728 1.404 . S
C729 H741 0.930 . S
C730 C726 1.524 . S
C730 H742 0.956 1_455 S
C730 H743 0.961 . S
C730 H744 0.961 1_455 S
C731 C728 1.539 . S
C731 H745 0.958 . S
C731 H746 0.961 . S
C731 H747 0.960 . S
H732 C716 0.931 1_655 S
H733 C721 0.929 . S
H734 C722 0.960 . S
H735 C722 0.962 . S
H736 C722 0.960 . S
H737 C723 0.961 . S
H738 C723 0.961 . S
H739 C723 0.961 . S
H740 C724 0.931 1_655 S
H741 C729 0.930 . S
H742 C730 0.956 1_655 S
H743 C730 0.961 . S
H744 C730 0.961 1_655 S
H745 C731 0.958 . S
H746 C731 0.961 . S
H747 C731 0.960 . S
C748 C749 1.391 . S
C748 C750 1.394 . S
C748 H764 0.931 . S
C749 C748 1.391 . S
C749 C753 1.376 . S
C750 C748 1.394 . S
C750 C751 1.369 . S
C750 C754 1.531 . S
C751 C750 1.369 . S
C751 C752 1.410 . S
C751 C759 1.503 . S
C752 C751 1.410 . S
C752 C753 1.392 . S
C752 C755 1.511 . S
C753 C749 1.376 . S
C753 C752 1.392 . S
C753 H765 0.929 . S
C754 C750 1.531 . S
C754 H766 0.960 . S
C754 H767 0.962 . S
C754 H768 0.960 . S
C755 C752 1.511 . S
C755 H769 0.961 . S
C755 H770 0.961 . S
C755 H771 0.961 . S
C756 C757 1.370 . S
C756 C758 1.363 . S
C756 H772 0.931 . S
C757 C756 1.370 . S
C757 C761 1.408 . S
C758 C756 1.363 . S
C758 C759 1.370 . S
C758 C762 1.524 . S
C759 C751 1.503 . S
C759 C758 1.370 . S
C759 C760 1.403 . S
C760 C759 1.403 . S
C760 C761 1.404 . S
C760 C763 1.539 . S
C761 C757 1.408 . S
C761 C760 1.404 . S
C761 H773 0.930 . S
C762 C758 1.524 . S
C762 H774 0.956 . S
C762 H775 0.961 . S
C762 H776 0.961 . S
C763 C760 1.539 . S
C763 H777 0.958 . S
C763 H778 0.961 . S
C763 H779 0.960 . S
H764 C748 0.931 . S
H765 C753 0.929 . S
H766 C754 0.960 . S
H767 C754 0.962 . S
H768 C754 0.960 . S
H769 C755 0.961 . S
H770 C755 0.961 . S
H771 C755 0.961 . S
H772 C756 0.931 . S
H773 C761 0.930 . S
H774 C762 0.956 . S
H775 C762 0.961 . S
H776 C762 0.961 . S
H777 C763 0.958 . S
H778 C763 0.961 . S
H779 C763 0.960 . S
C780 C781 1.391 . S
C780 C782 1.394 . S
C780 H796 0.931 . S
C781 C780 1.391 . S
C781 C785 1.376 . S
C782 C780 1.394 . S
C782 C783 1.369 . S
C782 C786 1.531 . S
C783 C782 1.369 . S
C783 C784 1.410 1_655 S
C783 C791 1.503 . S
C784 C783 1.410 1_455 S
C784 C785 1.392 1_455 S
C784 C787 1.511 . S
C785 C781 1.376 . S
C785 C784 1.392 1_655 S
C785 H797 0.929 1_655 S
C786 C782 1.531 . S
C786 H798 0.960 . S
C786 H799 0.962 . S
C786 H800 0.960 . S
C787 C784 1.511 . S
C787 H801 0.961 . S
C787 H802 0.961 . S
C787 H803 0.961 . S
C788 C789 1.370 . S
C788 C790 1.363 . S
C788 H804 0.931 . S
C789 C788 1.370 . S
C789 C793 1.408 . S
C790 C788 1.363 . S
C790 C791 1.370 . S
C790 C794 1.524 . S
C791 C783 1.503 . S
C791 C790 1.370 . S
C791 C792 1.403 . S
C792 C791 1.403 . S
C792 C793 1.404 . S
C792 C795 1.539 . S
C793 C789 1.408 . S
C793 C792 1.404 . S
C793 H805 0.930 . S
C794 C790 1.524 . S
C794 H806 0.956 . S
C794 H807 0.964 1_655 S
C794 H808 0.961 . S
C795 C792 1.539 . S
C795 H809 0.958 . S
C795 H810 0.961 . S
C795 H811 0.960 . S
H796 C780 0.931 . S
H797 C785 0.929 1_455 S
H798 C786 0.960 . S
H799 C786 0.962 . S
H800 C786 0.960 . S
H801 C787 0.961 . S
H802 C787 0.961 . S
H803 C787 0.961 . S
H804 C788 0.931 . S
H805 C793 0.930 . S
H806 C794 0.956 . S
H807 C794 0.964 1_455 S
H808 C794 0.961 . S
H809 C795 0.958 . S
H810 C795 0.961 . S
H811 C795 0.960 . S
C812 C813 1.391 . S
C812 C814 1.394 . S
C812 H828 0.931 . S
C813 C812 1.391 . S
C813 C817 1.376 . S
C814 C812 1.394 . S
C814 C815 1.369 . S
C814 C818 1.531 . S
C815 C814 1.369 . S
C815 C816 1.410 . S
C815 C823 1.503 . S
C816 C815 1.410 . S
C816 C817 1.392 . S
C816 C819 1.511 . S
C817 C813 1.376 . S
C817 C816 1.392 . S
C817 H829 0.929 . S
C818 C814 1.531 . S
C818 H830 0.960 . S
C818 H831 0.962 . S
C818 H832 0.960 . S
C819 C816 1.511 . S
C819 H833 0.961 . S
C819 H834 0.961 . S
C819 H835 0.961 . S
C820 C821 1.370 . S
C820 C822 1.363 . S
C820 H836 0.931 . S
C821 C820 1.370 . S
C821 C825 1.408 . S
C822 C820 1.363 . S
C822 C823 1.370 . S
C822 C826 1.524 . S
C823 C815 1.503 . S
C823 C822 1.370 . S
C823 C824 1.403 . S
C824 C823 1.403 . S
C824 C825 1.404 . S
C824 C827 1.539 . S
C825 C821 1.408 . S
C825 C824 1.404 . S
C825 H837 0.930 . S
C826 C822 1.524 . S
C826 H838 0.956 . S
C826 H839 0.961 . S
C826 H840 0.961 . S
C827 C824 1.539 . S
C827 H841 0.958 . S
C827 H842 0.961 . S
C827 H843 0.960 . S
H828 C812 0.931 . S
H829 C817 0.929 . S
H830 C818 0.960 . S
H831 C818 0.962 . S
H832 C818 0.960 . S
H833 C819 0.961 . S
H834 C819 0.961 . S
H835 C819 0.961 . S
H836 C820 0.931 . S
H837 C825 0.930 . S
H838 C826 0.956 . S
H839 C826 0.961 . S
H840 C826 0.961 . S
H841 C827 0.958 . S
H842 C827 0.961 . S
H843 C827 0.960 . S
C844 C845 1.391 . S
C844 C846 1.394 . S
C844 H860 0.931 . S
C845 C844 1.391 . S
C845 C849 1.376 . S
C846 C844 1.394 . S
C846 C847 1.369 . S
C846 C850 1.531 . S
C847 C846 1.369 . S
C847 C848 1.410 . S
C847 C855 1.503 . S
C848 C847 1.410 . S
C848 C849 1.392 . S
C848 C851 1.511 . S
C849 C845 1.376 . S
C849 C848 1.392 . S
C849 H861 0.929 . S
C850 C846 1.531 . S
C850 H862 0.960 . S
C850 H863 0.962 . S
C850 H864 0.960 . S
C851 C848 1.511 . S
C851 H865 0.961 . S
C851 H866 0.961 . S
C851 H867 0.961 . S
C852 C853 1.370 . S
C852 C854 1.363 . S
C852 H868 0.931 . S
C853 C852 1.370 . S
C853 C857 1.408 . S
C854 C852 1.363 . S
C854 C855 1.370 . S
C854 C858 1.524 . S
C855 C847 1.503 . S
C855 C854 1.370 . S
C855 C856 1.403 . S
C856 C855 1.403 . S
C856 C857 1.404 . S
C856 C859 1.539 . S
C857 C853 1.408 . S
C857 C856 1.404 . S
C857 H869 0.930 . S
C858 C854 1.524 . S
C858 H870 0.956 . S
C858 H871 0.961 . S
C858 H872 0.961 . S
C859 C856 1.539 . S
C859 H873 0.958 . S
C859 H874 0.961 . S
C859 H875 0.960 . S
H860 C844 0.931 . S
H861 C849 0.929 . S
H862 C850 0.960 . S
H863 C850 0.962 . S
H864 C850 0.960 . S
H865 C851 0.961 . S
H866 C851 0.961 . S
H867 C851 0.961 . S
H868 C852 0.931 . S
H869 C857 0.930 . S
H870 C858 0.956 . S
H871 C858 0.961 . S
H872 C858 0.961 . S
H873 C859 0.958 . S
H874 C859 0.961 . S
H875 C859 0.960 . S
C876 C877 1.391 1_565 S
C876 C878 1.394 1_556 S
C876 H892 0.931 1_556 S
C877 C876 1.391 1_545 S
C877 C881 1.376 . S
C878 C876 1.394 1_554 S
C878 C879 1.369 1_554 S
C878 C882 1.531 . S
C879 C878 1.369 1_556 S
C879 C880 1.410 . S
C879 C887 1.503 . S
C880 C879 1.410 . S
C880 C881 1.392 1_565 S
C880 C883 1.511 1_565 S
C881 C877 1.376 . S
C881 C880 1.392 1_545 S
C881 H893 0.929 . S
C882 C878 1.531 . S
C882 H894 0.960 . S
C882 H895 0.962 . S
C882 H896 0.960 . S
C883 C880 1.511 1_545 S
C883 H897 0.961 . S
C883 H898 0.961 1_545 S
C883 H899 0.961 . S
C884 C885 1.370 . S
C884 C886 1.363 . S
C884 H900 0.931 . S
C885 C884 1.370 . S
C885 C889 1.408 1_556 S
C886 C884 1.363 . S
C886 C887 1.370 . S
C886 C890 1.524 . S
C887 C879 1.503 . S
C887 C886 1.370 . S
C887 C888 1.403 1_556 S
C888 C887 1.403 1_554 S
C888 C889 1.404 . S
C888 C891 1.539 . S
C889 C885 1.408 1_554 S
C889 C888 1.404 . S
C889 H901 0.930 . S
C890 C886 1.524 . S
C890 H902 0.956 . S
C890 H903 0.961 . S
C890 H904 0.961 . S
C891 C888 1.539 . S
C891 H905 0.958 . S
C891 H906 0.961 . S
C891 H907 0.960 1_565 S
H892 C876 0.931 1_554 S
H893 C881 0.929 . S
H894 C882 0.960 . S
H895 C882 0.962 . S
H896 C882 0.960 . S
H897 C883 0.961 . S
H898 C883 0.961 1_565 S
H899 C883 0.961 . S
H900 C884 0.931 . S
H901 C889 0.930 . S
H902 C890 0.956 . S
H903 C890 0.961 . S
H904 C890 0.961 . S
H905 C891 0.958 . S
H906 C891 0.961 . S
H907 C891 0.960 1_545 S
C908 C909 1.391 . S
C908 C910 1.394 . S
C908 H924 0.931 . S
C909 C908 1.391 . S
C909 C913 1.376 . S
C910 C908 1.394 . S
C910 C911 1.369 . S
C910 C914 1.531 . S
C911 C910 1.369 . S
C911 C912 1.410 . S
C911 C919 1.503 . S
C912 C911 1.410 . S
C912 C913 1.392 . S
C912 C915 1.511 . S
C913 C909 1.376 . S
C913 C912 1.392 . S
C913 H925 0.929 . S
C914 C910 1.531 . S
C914 H926 0.960 . S
C914 H927 0.962 . S
C914 H928 0.960 . S
C915 C912 1.511 . S
C915 H929 0.961 . S
C915 H930 0.961 . S
C915 H931 0.961 . S
C916 C917 1.370 . S
C916 C918 1.363 . S
C916 H932 0.931 . S
C917 C916 1.370 . S
C917 C921 1.408 . S
C918 C916 1.363 . S
C918 C919 1.370 . S
C918 C922 1.524 . S
C919 C911 1.503 . S
C919 C918 1.370 . S
C919 C920 1.403 . S
C920 C919 1.403 . S
C920 C921 1.404 . S
C920 C923 1.539 . S
C921 C917 1.408 . S
C921 C920 1.404 . S
C921 H933 0.930 . S
C922 C918 1.524 . S
C922 H934 0.956 . S
C922 H935 0.961 . S
C922 H936 0.961 . S
C923 C920 1.539 . S
C923 H937 0.958 . S
C923 H938 0.961 . S
C923 H939 0.960 . S
H924 C908 0.931 . S
H925 C913 0.929 . S
H926 C914 0.960 . S
H927 C914 0.962 . S
H928 C914 0.960 . S
H929 C915 0.961 . S
H930 C915 0.961 . S
H931 C915 0.961 . S
H932 C916 0.931 . S
H933 C921 0.930 . S
H934 C922 0.956 . S
H935 C922 0.961 . S
H936 C922 0.961 . S
H937 C923 0.958 . S
H938 C923 0.961 . S
H939 C923 0.960 . S
C940 C941 1.391 . S
C940 C942 1.394 . S
C940 H956 0.931 1_545 S
C941 C940 1.391 . S
C941 C945 1.376 . S
C942 C940 1.394 . S
C942 C943 1.369 . S
C942 C946 1.531 . S
C943 C942 1.369 . S
C943 C944 1.410 . S
C943 C951 1.503 . S
C944 C943 1.410 . S
C944 C945 1.392 . S
C944 C947 1.511 . S
C945 C941 1.376 . S
C945 C944 1.392 . S
C945 H957 0.929 . S
C946 C942 1.531 . S
C946 H958 0.960 . S
C946 H959 0.962 . S
C946 H960 0.960 . S
C947 C944 1.511 . S
C947 H961 0.961 . S
C947 H962 0.961 . S
C947 H963 0.961 . S
C948 C949 1.370 . S
C948 C950 1.363 . S
C948 H964 0.931 . S
C949 C948 1.370 . S
C949 C953 1.408 . S
C950 C948 1.363 . S
C950 C951 1.370 . S
C950 C954 1.524 . S
C951 C943 1.503 . S
C951 C950 1.370 . S
C951 C952 1.403 . S
C952 C951 1.403 . S
C952 C953 1.404 . S
C952 C955 1.539 . S
C953 C949 1.408 . S
C953 C952 1.404 . S
C953 H965 0.930 . S
C954 C950 1.524 . S
C954 H966 0.956 . S
C954 H967 0.961 . S
C954 H968 0.961 . S
C955 C952 1.539 . S
C955 H969 0.958 . S
C955 H970 0.961 . S
C955 H971 0.960 . S
H956 C940 0.931 1_565 S
H957 C945 0.929 . S
H958 C946 0.960 . S
H959 C946 0.962 . S
H960 C946 0.960 . S
H961 C947 0.961 . S
H962 C947 0.961 . S
H963 C947 0.961 . S
H964 C948 0.931 . S
H965 C953 0.930 . S
H966 C954 0.956 . S
H967 C954 0.961 . S
H968 C954 0.961 . S
H969 C955 0.958 . S
H970 C955 0.961 . S
H971 C955 0.960 . S
C972 C973 1.391 . S
C972 C974 1.394 . S
C972 H988 0.931 . S
C973 C972 1.391 . S
C973 C977 1.376 . S
C974 C972 1.394 . S
C974 C975 1.369 . S
C974 C978 1.531 . S
C975 C974 1.369 . S
C975 C976 1.410 . S
C975 C983 1.503 . S
C976 C975 1.410 . S
C976 C977 1.392 . S
C976 C979 1.511 . S
C977 C973 1.376 . S
C977 C976 1.392 . S
C977 H989 0.929 . S
C978 C974 1.531 . S
C978 H990 0.960 . S
C978 H991 0.962 . S
C978 H992 0.960 . S
C979 C976 1.511 . S
C979 H993 0.961 . S
C979 H994 0.961 . S
C979 H995 0.961 . S
C980 C981 1.370 . S
C980 C982 1.363 . S
C980 H996 0.931 . S
C981 C980 1.370 . S
C981 C985 1.408 . S
C982 C980 1.363 . S
C982 C983 1.370 . S
C982 C986 1.524 . S
C983 C975 1.503 . S
C983 C982 1.370 . S
C983 C984 1.403 . S
C984 C983 1.403 . S
C984 C985 1.404 . S
C984 C987 1.539 . S
C985 C981 1.408 . S
C985 C984 1.404 . S
C985 H997 0.930 . S
C986 C982 1.524 . S
C986 H998 0.956 . S
C986 H999 0.961 . S
C986 H1000 0.961 . S
C987 C984 1.539 . S
C987 H1001 0.958 . S
C987 H1002 0.961 . S
C987 H1003 0.960 . S
H988 C972 0.931 . S
H989 C977 0.929 . S
H990 C978 0.960 . S
H991 C978 0.962 . S
H992 C978 0.960 . S
H993 C979 0.961 . S
H994 C979 0.961 . S
H995 C979 0.961 . S
H996 C980 0.931 . S
H997 C985 0.930 . S
H998 C986 0.956 . S
H999 C986 0.961 . S
H1000 C986 0.961 . S
H1001 C987 0.958 . S
H1002 C987 0.961 . S
H1003 C987 0.960 . S
C1004 C1005 1.396 . S
C1004 C1006 1.394 . S
C1004 H1020 0.931 . S
C1005 C1004 1.396 . S
C1005 C1009 1.374 1_545 S
C1006 C1004 1.394 . S
C1006 C1007 1.369 . S
C1006 C1010 1.531 . S
C1007 C1006 1.369 . S
C1007 C1008 1.410 . S
C1007 C1015 1.503 . S
C1008 C1007 1.410 . S
C1008 C1009 1.392 1_545 S
C1008 C1011 1.511 1_545 S
C1009 C1005 1.374 1_565 S
C1009 C1008 1.392 1_565 S
C1009 H1021 0.929 . S
C1010 C1006 1.531 . S
C1010 H1022 0.960 . S
C1010 H1023 0.962 . S
C1010 H1024 0.960 . S
C1011 C1008 1.511 1_565 S
C1011 H1025 0.961 . S
C1011 H1026 0.961 1_565 S
C1011 H1027 0.961 . S
C1012 C1013 1.370 . S
C1012 C1014 1.363 . S
C1012 H1028 0.931 . S
C1013 C1012 1.370 . S
C1013 C1017 1.408 . S
C1014 C1012 1.363 . S
C1014 C1015 1.370 . S
C1014 C1018 1.524 . S
C1015 C1007 1.503 . S
C1015 C1014 1.370 . S
C1015 C1016 1.403 . S
C1016 C1015 1.403 . S
C1016 C1017 1.404 . S
C1016 C1019 1.539 . S
C1017 C1013 1.408 . S
C1017 C1016 1.404 . S
C1017 H1029 0.930 . S
C1018 C1014 1.524 . S
C1018 H1030 0.956 . S
C1018 H1031 0.961 . S
C1018 H1032 0.961 . S
C1019 C1016 1.539 . S
C1019 H1033 0.958 . S
C1019 H1034 0.961 . S
C1019 H1035 0.960 . S
H1020 C1004 0.931 . S
H1021 C1009 0.929 . S
H1022 C1010 0.960 . S
H1023 C1010 0.962 . S
H1024 C1010 0.960 . S
H1025 C1011 0.961 . S
H1026 C1011 0.961 1_545 S
H1027 C1011 0.961 . S
H1028 C1012 0.931 . S
H1029 C1017 0.930 . S
H1030 C1018 0.956 . S
H1031 C1018 0.961 . S
H1032 C1018 0.961 . S
H1033 C1019 0.958 . S
H1034 C1019 0.961 . S
H1035 C1019 0.960 . S
C1036 C1037 1.391 . S
C1036 C1038 1.394 . S
C1036 H1052 0.931 . S
C1037 C1036 1.391 . S
C1037 C1041 1.376 . S
C1038 C1036 1.394 . S
C1038 C1039 1.369 . S
C1038 C1042 1.531 . S
C1039 C1038 1.369 . S
C1039 C1040 1.410 . S
C1039 C1047 1.503 . S
C1040 C1039 1.410 . S
C1040 C1041 1.392 . S
C1040 C1043 1.511 . S
C1041 C1037 1.376 . S
C1041 C1040 1.392 . S
C1041 H1053 0.929 . S
C1042 C1038 1.531 . S
C1042 H1054 0.960 . S
C1042 H1055 0.962 . S
C1042 H1056 0.960 . S
C1043 C1040 1.511 . S
C1043 H1057 0.961 . S
C1043 H1058 0.961 . S
C1043 H1059 0.961 . S
C1044 C1045 1.370 . S
C1044 C1046 1.363 . S
C1044 H1060 0.931 . S
C1045 C1044 1.370 . S
C1045 C1049 1.408 . S
C1046 C1044 1.363 . S
C1046 C1047 1.370 . S
C1046 C1050 1.524 . S
C1047 C1039 1.503 . S
C1047 C1046 1.370 . S
C1047 C1048 1.403 . S
C1048 C1047 1.403 . S
C1048 C1049 1.404 . S
C1048 C1051 1.539 . S
C1049 C1045 1.408 . S
C1049 C1048 1.404 . S
C1049 H1061 0.930 . S
C1050 C1046 1.524 . S
C1050 H1062 0.956 . S
C1050 H1063 0.961 . S
C1050 H1064 0.961 . S
C1051 C1048 1.539 . S
C1051 H1065 0.958 . S
C1051 H1066 0.961 . S
C1051 H1067 0.960 . S
H1052 C1036 0.931 . S
H1053 C1041 0.929 . S
H1054 C1042 0.960 . S
H1055 C1042 0.962 . S
H1056 C1042 0.960 . S
H1057 C1043 0.961 . S
H1058 C1043 0.961 . S
H1059 C1043 0.961 . S
H1060 C1044 0.931 . S
H1061 C1049 0.930 . S
H1062 C1050 0.956 . S
H1063 C1050 0.961 . S
H1064 C1050 0.961 . S
H1065 C1051 0.958 . S
H1066 C1051 0.961 . S
H1067 C1051 0.960 . S
C1068 C1069 1.391 . S
C1068 C1070 1.394 . S
C1068 H1084 0.931 . S
C1069 C1068 1.391 . S
C1069 C1073 1.376 . S
C1070 C1068 1.394 . S
C1070 C1071 1.369 . S
C1070 C1074 1.531 . S
C1071 C1070 1.369 . S
C1071 C1072 1.410 . S
C1071 C1079 1.503 . S
C1072 C1071 1.410 . S
C1072 C1073 1.392 . S
C1072 C1075 1.511 . S
C1073 C1069 1.376 . S
C1073 C1072 1.392 . S
C1073 H1085 0.929 . S
C1074 C1070 1.531 . S
C1074 H1086 0.960 . S
C1074 H1087 0.962 . S
C1074 H1088 0.960 . S
C1075 C1072 1.511 . S
C1075 H1089 0.961 . S
C1075 H1090 0.961 . S
C1075 H1091 0.961 . S
C1076 C1077 1.370 . S
C1076 C1078 1.363 . S
C1076 H1092 0.931 . S
C1077 C1076 1.370 . S
C1077 C1081 1.408 . S
C1078 C1076 1.363 . S
C1078 C1079 1.370 . S
C1078 C1082 1.524 . S
C1079 C1071 1.503 . S
C1079 C1078 1.370 . S
C1079 C1080 1.403 . S
C1080 C1079 1.403 . S
C1080 C1081 1.404 . S
C1080 C1083 1.539 . S
C1081 C1077 1.408 . S
C1081 C1080 1.404 . S
C1081 H1093 0.930 . S
C1082 C1078 1.524 . S
C1082 H1094 0.956 . S
C1082 H1095 0.961 . S
C1082 H1096 0.961 . S
C1083 C1080 1.539 . S
C1083 H1097 0.958 . S
C1083 H1098 0.961 . S
C1083 H1099 0.960 . S
H1084 C1068 0.931 . S
H1085 C1073 0.929 . S
H1086 C1074 0.960 . S
H1087 C1074 0.962 . S
H1088 C1074 0.960 . S
H1089 C1075 0.961 . S
H1090 C1075 0.961 . S
H1091 C1075 0.961 . S
H1092 C1076 0.931 . S
H1093 C1081 0.930 . S
H1094 C1082 0.956 . S
H1095 C1082 0.961 . S
H1096 C1082 0.961 . S
H1097 C1083 0.958 . S
H1098 C1083 0.961 . S
H1099 C1083 0.960 . S
C1100 C1101 1.391 . S
C1100 C1102 1.394 . S
C1100 H1116 0.931 . S
C1101 C1100 1.391 . S
C1101 C1105 1.376 . S
C1102 C1100 1.394 . S
C1102 C1103 1.369 . S
C1102 C1106 1.531 . S
C1103 C1102 1.369 . S
C1103 C1104 1.410 . S
C1103 C1111 1.503 . S
C1104 C1103 1.410 . S
C1104 C1105 1.392 . S
C1104 C1107 1.511 . S
C1105 C1101 1.376 . S
C1105 C1104 1.392 . S
C1105 H1117 0.929 . S
C1106 C1102 1.531 . S
C1106 H1118 0.960 . S
C1106 H1119 0.962 . S
C1106 H1120 0.960 . S
C1107 C1104 1.511 . S
C1107 H1121 0.961 . S
C1107 H1122 0.961 . S
C1107 H1123 0.961 . S
C1108 C1109 1.370 1_565 S
C1108 C1110 1.368 . S
C1108 H1124 0.931 . S
C1109 C1108 1.370 1_545 S
C1109 C1113 1.408 . S
C1110 C1108 1.368 . S
C1110 C1111 1.351 1_565 S
C1110 C1114 1.539 . S
C1111 C1103 1.503 . S
C1111 C1110 1.351 1_545 S
C1111 C1112 1.403 . S
C1112 C1111 1.403 . S
C1112 C1113 1.404 . S
C1112 C1115 1.539 . S
C1113 C1109 1.408 . S
C1113 C1112 1.404 . S
C1113 H1125 0.930 . S
C1114 C1110 1.539 . S
C1114 H1126 0.956 . S
C1114 H1127 0.961 . S
C1114 H1128 0.961 . S
C1115 C1112 1.539 . S
C1115 H1129 0.958 . S
C1115 H1130 0.961 . S
C1115 H1131 0.960 . S
H1116 C1100 0.931 . S
H1117 C1105 0.929 . S
H1118 C1106 0.960 . S
H1119 C1106 0.962 . S
H1120 C1106 0.960 . S
H1121 C1107 0.961 . S
H1122 C1107 0.961 . S
H1123 C1107 0.961 . S
H1124 C1108 0.931 . S
H1125 C1113 0.930 . S
H1126 C1114 0.956 . S
H1127 C1114 0.961 . S
H1128 C1114 0.961 . S
H1129 C1115 0.958 . S
H1130 C1115 0.961 . S
H1131 C1115 0.960 . S
C1132 C1133 1.391 . S
C1132 C1134 1.394 . S
C1132 H1148 0.931 . S
C1133 C1132 1.391 . S
C1133 C1137 1.376 . S
C1134 C1132 1.394 . S
C1134 C1135 1.369 . S
C1134 C1138 1.531 . S
C1135 C1134 1.369 . S
C1135 C1136 1.410 . S
C1135 C1143 1.503 . S
C1136 C1135 1.410 . S
C1136 C1137 1.392 . S
C1136 C1139 1.511 . S
C1137 C1133 1.376 . S
C1137 C1136 1.392 . S
C1137 H1149 0.929 . S
C1138 C1134 1.531 . S
C1138 H1150 0.960 . S
C1138 H1151 0.962 . S
C1138 H1152 0.960 . S
C1139 C1136 1.511 . S
C1139 H1153 0.961 . S
C1139 H1154 0.961 . S
C1139 H1155 0.961 . S
C1140 C1141 1.370 . S
C1140 C1142 1.363 . S
C1140 H1156 0.931 . S
C1141 C1140 1.370 . S
C1141 C1145 1.408 . S
C1142 C1140 1.363 . S
C1142 C1143 1.370 . S
C1142 C1146 1.524 . S
C1143 C1135 1.503 . S
C1143 C1142 1.370 . S
C1143 C1144 1.403 . S
C1144 C1143 1.403 . S
C1144 C1145 1.404 . S
C1144 C1147 1.539 . S
C1145 C1141 1.408 . S
C1145 C1144 1.404 . S
C1145 H1157 0.930 . S
C1146 C1142 1.524 . S
C1146 H1158 0.956 . S
C1146 H1159 0.961 . S
C1146 H1160 0.961 . S
C1147 C1144 1.539 . S
C1147 H1161 0.958 . S
C1147 H1162 0.961 . S
C1147 H1163 0.960 . S
H1148 C1132 0.931 . S
H1149 C1137 0.929 . S
H1150 C1138 0.960 . S
H1151 C1138 0.962 . S
H1152 C1138 0.960 . S
H1153 C1139 0.961 . S
H1154 C1139 0.961 . S
H1155 C1139 0.961 . S
H1156 C1140 0.931 . S
H1157 C1145 0.930 . S
H1158 C1146 0.956 . S
H1159 C1146 0.961 . S
H1160 C1146 0.961 . S
H1161 C1147 0.958 . S
H1162 C1147 0.961 . S
H1163 C1147 0.960 . S
C1164 C1165 1.391 . S
C1164 C1166 1.394 . S
C1164 H1180 0.931 . S
C1165 C1164 1.391 . S
C1165 C1169 1.376 . S
C1166 C1164 1.394 . S
C1166 C1167 1.369 . S
C1166 C1170 1.531 . S
C1167 C1166 1.369 . S
C1167 C1168 1.410 . S
C1167 C1175 1.503 . S
C1168 C1167 1.410 . S
C1168 C1169 1.392 . S
C1168 C1171 1.511 . S
C1169 C1165 1.376 . S
C1169 C1168 1.392 . S
C1169 H1181 0.929 . S
C1170 C1166 1.531 . S
C1170 H1182 0.960 . S
C1170 H1183 0.962 . S
C1170 H1184 0.960 . S
C1171 C1168 1.511 . S
C1171 H1185 0.961 . S
C1171 H1186 0.961 . S
C1171 H1187 0.961 . S
C1172 C1173 1.370 . S
C1172 C1174 1.363 . S
C1172 H1188 0.931 . S
C1173 C1172 1.370 . S
C1173 C1177 1.408 . S
C1174 C1172 1.363 . S
C1174 C1175 1.370 . S
C1174 C1178 1.524 . S
C1175 C1167 1.503 . S
C1175 C1174 1.370 . S
C1175 C1176 1.403 . S
C1176 C1175 1.403 . S
C1176 C1177 1.404 . S
C1176 C1179 1.539 . S
C1177 C1173 1.408 . S
C1177 C1176 1.404 . S
C1177 H1189 0.930 . S
C1178 C1174 1.524 . S
C1178 H1190 0.956 . S
C1178 H1191 0.961 . S
C1178 H1192 0.961 . S
C1179 C1176 1.539 . S
C1179 H1193 0.958 . S
C1179 H1194 0.961 . S
C1179 H1195 0.960 . S
H1180 C1164 0.931 . S
H1181 C1169 0.929 . S
H1182 C1170 0.960 . S
H1183 C1170 0.962 . S
H1184 C1170 0.960 . S
H1185 C1171 0.961 . S
H1186 C1171 0.961 . S
H1187 C1171 0.961 . S
H1188 C1172 0.931 . S
H1189 C1177 0.930 . S
H1190 C1178 0.956 . S
H1191 C1178 0.961 . S
H1192 C1178 0.961 . S
H1193 C1179 0.958 . S
H1194 C1179 0.961 . S
H1195 C1179 0.960 . S
C1196 C1197 1.391 . S
C1196 C1198 1.394 . S
C1196 H1212 0.931 . S
C1197 C1196 1.391 . S
C1197 C1201 1.376 . S
C1198 C1196 1.394 . S
C1198 C1199 1.369 . S
C1198 C1202 1.531 . S
C1199 C1198 1.369 . S
C1199 C1200 1.410 . S
C1199 C1207 1.503 . S
C1200 C1199 1.410 . S
C1200 C1201 1.392 . S
C1200 C1203 1.511 . S
C1201 C1197 1.376 . S
C1201 C1200 1.392 . S
C1201 H1213 0.929 . S
C1202 C1198 1.531 . S
C1202 H1214 0.960 . S
C1202 H1215 0.962 . S
C1202 H1216 0.960 . S
C1203 C1200 1.511 . S
C1203 H1217 0.961 . S
C1203 H1218 0.961 . S
C1203 H1219 0.961 . S
C1204 C1205 1.370 . S
C1204 C1206 1.363 . S
C1204 H1220 0.931 . S
C1205 C1204 1.370 . S
C1205 C1209 1.408 . S
C1206 C1204 1.363 . S
C1206 C1207 1.370 . S
C1206 C1210 1.524 . S
C1207 C1199 1.503 . S
C1207 C1206 1.370 . S
C1207 C1208 1.403 . S
C1208 C1207 1.403 . S
C1208 C1209 1.404 . S
C1208 C1211 1.539 . S
C1209 C1205 1.408 . S
C1209 C1208 1.404 . S
C1209 H1221 0.930 . S
C1210 C1206 1.524 . S
C1210 H1222 0.956 . S
C1210 H1223 0.961 . S
C1210 H1224 0.961 . S
C1211 C1208 1.539 . S
C1211 H1225 0.958 . S
C1211 H1226 0.961 . S
C1211 H1227 0.960 . S
H1212 C1196 0.931 . S
H1213 C1201 0.929 . S
H1214 C1202 0.960 . S
H1215 C1202 0.962 . S
H1216 C1202 0.960 . S
H1217 C1203 0.961 . S
H1218 C1203 0.961 . S
H1219 C1203 0.961 . S
H1220 C1204 0.931 . S
H1221 C1209 0.930 . S
H1222 C1210 0.956 . S
H1223 C1210 0.961 . S
H1224 C1210 0.961 . S
H1225 C1211 0.958 . S
H1226 C1211 0.961 . S
H1227 C1211 0.960 . S
C1228 C1229 1.391 . S
C1228 C1230 1.394 1_455 S
C1228 H1244 0.931 . S
C1229 C1228 1.391 . S
C1229 C1233 1.376 1_455 S
C1230 C1228 1.394 1_655 S
C1230 C1231 1.369 . S
C1230 C1234 1.531 1_655 S
C1231 C1230 1.369 . S
C1231 C1232 1.410 . S
C1231 C1239 1.503 . S
C1232 C1231 1.410 . S
C1232 C1233 1.392 . S
C1232 C1235 1.511 . S
C1233 C1229 1.376 1_655 S
C1233 C1232 1.392 . S
C1233 H1245 0.929 . S
C1234 C1230 1.531 1_455 S
C1234 H1246 0.960 1_455 S
C1234 H1247 0.962 . S
C1234 H1248 0.960 . S
C1235 C1232 1.511 . S
C1235 H1249 0.961 . S
C1235 H1250 0.961 . S
C1235 H1251 0.961 . S
C1236 C1237 1.370 . S
C1236 C1238 1.363 . S
C1236 H1252 0.931 1_545 S
C1237 C1236 1.370 . S
C1237 C1241 1.408 . S
C1238 C1236 1.363 . S
C1238 C1239 1.370 . S
C1238 C1242 1.524 1_545 S
C1239 C1231 1.503 . S
C1239 C1238 1.370 . S
C1239 C1240 1.403 . S
C1240 C1239 1.403 . S
C1240 C1241 1.404 . S
C1240 C1243 1.539 . S
C1241 C1237 1.408 . S
C1241 C1240 1.404 . S
C1241 H1253 0.930 . S
C1242 C1238 1.524 1_565 S
C1242 H1254 0.956 . S
C1242 H1255 0.961 . S
C1242 H1256 0.961 . S
C1243 C1240 1.539 . S
C1243 H1257 0.958 . S
C1243 H1258 0.961 . S
C1243 H1259 0.960 . S
H1244 C1228 0.931 . S
H1245 C1233 0.929 . S
H1246 C1234 0.960 1_655 S
H1247 C1234 0.962 . S
H1248 C1234 0.960 . S
H1249 C1235 0.961 . S
H1250 C1235 0.961 . S
H1251 C1235 0.961 . S
H1252 C1236 0.931 1_565 S
H1253 C1241 0.930 . S
H1254 C1242 0.956 . S
H1255 C1242 0.961 . S
H1256 C1242 0.961 . S
H1257 C1243 0.958 . S
H1258 C1243 0.961 . S
H1259 C1243 0.960 . S
C1260 C1261 1.391 . S
C1260 C1262 1.394 . S
C1260 H1276 0.931 . S
C1261 C1260 1.391 . S
C1261 C1265 1.376 . S
C1262 C1260 1.394 . S
C1262 C1263 1.369 . S
C1262 C1266 1.531 . S
C1263 C1262 1.369 . S
C1263 C1264 1.410 . S
C1263 C1271 1.503 . S
C1264 C1263 1.410 . S
C1264 C1265 1.392 . S
C1264 C1267 1.511 . S
C1265 C1261 1.376 . S
C1265 C1264 1.392 . S
C1265 H1277 0.929 . S
C1266 C1262 1.531 . S
C1266 H1278 0.960 . S
C1266 H1279 0.962 . S
C1266 H1280 0.960 . S
C1267 C1264 1.511 . S
C1267 H1281 0.961 . S
C1267 H1282 0.961 . S
C1267 H1283 0.961 . S
C1268 C1269 1.370 . S
C1268 C1270 1.363 . S
C1268 H1284 0.931 . S
C1269 C1268 1.370 . S
C1269 C1273 1.408 . S
C1270 C1268 1.363 . S
C1270 C1271 1.370 . S
C1270 C1274 1.524 . S
C1271 C1263 1.503 . S
C1271 C1270 1.370 . S
C1271 C1272 1.403 . S
C1272 C1271 1.403 . S
C1272 C1273 1.404 . S
C1272 C1275 1.539 . S
C1273 C1269 1.408 . S
C1273 C1272 1.404 . S
C1273 H1285 0.930 . S
C1274 C1270 1.524 . S
C1274 H1286 0.956 . S
C1274 H1287 0.961 . S
C1274 H1288 0.961 . S
C1275 C1272 1.539 . S
C1275 H1289 0.958 . S
C1275 H1290 0.961 . S
C1275 H1291 0.960 . S
H1276 C1260 0.931 . S
H1277 C1265 0.929 . S
H1278 C1266 0.960 . S
H1279 C1266 0.962 . S
H1280 C1266 0.960 . S
H1281 C1267 0.961 . S
H1282 C1267 0.961 . S
H1283 C1267 0.961 . S
H1284 C1268 0.931 . S
H1285 C1273 0.930 . S
H1286 C1274 0.956 . S
H1287 C1274 0.961 . S
H1288 C1274 0.961 . S
H1289 C1275 0.958 . S
H1290 C1275 0.961 . S
H1291 C1275 0.960 . S
C1292 C1293 1.391 . S
C1292 C1294 1.394 . S
C1292 H1308 0.931 1_455 S
C1293 C1292 1.391 . S
C1293 C1297 1.376 . S
C1294 C1292 1.394 . S
C1294 C1295 1.369 . S
C1294 C1298 1.531 . S
C1295 C1294 1.369 . S
C1295 C1296 1.410 . S
C1295 C1303 1.503 . S
C1296 C1295 1.410 . S
C1296 C1297 1.392 . S
C1296 C1299 1.511 . S
C1297 C1293 1.376 . S
C1297 C1296 1.392 . S
C1297 H1309 0.929 . S
C1298 C1294 1.531 . S
C1298 H1310 0.960 . S
C1298 H1311 0.962 . S
C1298 H1312 0.960 . S
C1299 C1296 1.511 . S
C1299 H1313 0.961 . S
C1299 H1314 0.961 . S
C1299 H1315 0.961 . S
C1300 C1301 1.370 . S
C1300 C1302 1.363 . S
C1300 H1316 0.931 . S
C1301 C1300 1.370 . S
C1301 C1305 1.408 . S
C1302 C1300 1.363 . S
C1302 C1303 1.370 . S
C1302 C1306 1.524 . S
C1303 C1295 1.503 . S
C1303 C1302 1.370 . S
C1303 C1304 1.403 . S
C1304 C1303 1.403 . S
C1304 C1305 1.404 . S
C1304 C1307 1.539 . S
C1305 C1301 1.408 . S
C1305 C1304 1.404 . S
C1305 H1317 0.930 . S
C1306 C1302 1.524 . S
C1306 H1318 0.956 . S
C1306 H1319 0.961 . S
C1306 H1320 0.961 . S
C1307 C1304 1.539 . S
C1307 H1321 0.958 . S
C1307 H1322 0.961 . S
C1307 H1323 0.960 . S
H1308 C1292 0.931 1_655 S
H1309 C1297 0.929 . S
H1310 C1298 0.960 . S
H1311 C1298 0.962 . S
H1312 C1298 0.960 . S
H1313 C1299 0.961 . S
H1314 C1299 0.961 . S
H1315 C1299 0.961 . S
H1316 C1300 0.931 . S
H1317 C1305 0.930 . S
H1318 C1306 0.956 . S
H1319 C1306 0.961 . S
H1320 C1306 0.961 . S
H1321 C1307 0.958 . S
H1322 C1307 0.961 . S
H1323 C1307 0.960 . S
C1324 C1325 1.391 . S
C1324 C1326 1.394 . S
C1324 H1340 0.931 . S
C1325 C1324 1.391 . S
C1325 C1329 1.376 . S
C1326 C1324 1.394 . S
C1326 C1327 1.369 . S
C1326 C1330 1.531 . S
C1327 C1326 1.369 . S
C1327 C1328 1.410 . S
C1327 C1335 1.503 . S
C1328 C1327 1.410 . S
C1328 C1329 1.392 . S
C1328 C1331 1.511 . S
C1329 C1325 1.376 . S
C1329 C1328 1.392 . S
C1329 H1341 0.929 . S
C1330 C1326 1.531 . S
C1330 H1342 0.960 . S
C1330 H1343 0.962 . S
C1330 H1344 0.960 . S
C1331 C1328 1.511 . S
C1331 H1345 0.961 . S
C1331 H1346 0.961 . S
C1331 H1347 0.961 . S
C1332 C1333 1.370 . S
C1332 C1334 1.363 . S
C1332 H1348 0.931 . S
C1333 C1332 1.370 . S
C1333 C1337 1.408 . S
C1334 C1332 1.363 . S
C1334 C1335 1.370 . S
C1334 C1338 1.524 . S
C1335 C1327 1.503 . S
C1335 C1334 1.370 . S
C1335 C1336 1.403 . S
C1336 C1335 1.403 . S
C1336 C1337 1.404 . S
C1336 C1339 1.539 . S
C1337 C1333 1.408 . S
C1337 C1336 1.404 . S
C1337 H1349 0.930 . S
C1338 C1334 1.524 . S
C1338 H1350 0.956 . S
C1338 H1351 0.961 . S
C1338 H1352 0.961 . S
C1339 C1336 1.539 . S
C1339 H1353 0.958 . S
C1339 H1354 0.961 . S
C1339 H1355 0.960 . S
H1340 C1324 0.931 . S
H1341 C1329 0.929 . S
H1342 C1330 0.960 . S
H1343 C1330 0.962 . S
H1344 C1330 0.960 . S
H1345 C1331 0.961 . S
H1346 C1331 0.961 . S
H1347 C1331 0.961 . S
H1348 C1332 0.931 . S
H1349 C1337 0.930 . S
H1350 C1338 0.956 . S
H1351 C1338 0.961 . S
H1352 C1338 0.961 . S
H1353 C1339 0.958 . S
H1354 C1339 0.961 . S
H1355 C1339 0.960 . S
C1356 C1357 1.391 . S
C1356 C1358 1.397 1_554 S
C1356 H1372 0.931 1_655 S
C1357 C1356 1.391 . S
C1357 C1361 1.376 1_554 S
C1358 C1356 1.397 1_556 S
C1358 C1359 1.385 . S
C1358 C1362 1.512 1_655 S
C1359 C1358 1.385 . S
C1359 C1360 1.410 . S
C1359 C1367 1.503 . S
C1360 C1359 1.410 . S
C1360 C1361 1.392 . S
C1360 C1363 1.511 . S
C1361 C1357 1.376 1_556 S
C1361 C1360 1.392 . S
C1361 H1373 0.929 . S
C1362 C1358 1.512 1_455 S
C1362 H1374 0.960 . S
C1362 H1375 0.962 . S
C1362 H1376 0.960 1_556 S
C1363 C1360 1.511 . S
C1363 H1377 0.961 . S
C1363 H1378 0.961 . S
C1363 H1379 0.961 . S
C1364 C1365 1.376 . S
C1364 C1366 1.369 . S
C1364 H1380 0.919 1_655 S
C1365 C1364 1.376 . S
C1365 C1369 1.408 . S
C1366 C1364 1.369 . S
C1366 C1367 1.370 . S
C1366 C1370 1.524 1_655 S
C1367 C1359 1.503 . S
C1367 C1366 1.370 . S
C1367 C1368 1.403 . S
C1368 C1367 1.403 . S
C1368 C1369 1.404 . S
C1368 C1371 1.539 . S
C1369 C1365 1.408 . S
C1369 C1368 1.404 . S
C1369 H1381 0.930 . S
C1370 C1366 1.524 1_455 S
C1370 H1382 0.956 . S
C1370 H1383 0.961 1_455 S
C1370 H1384 0.961 . S
C1371 C1368 1.539 . S
C1371 H1385 0.958 1_556 S
C1371 H1386 0.961 . S
C1371 H1387 0.960 . S
H1372 C1356 0.931 1_455 S
H1373 C1361 0.929 . S
H1374 C1362 0.960 . S
H1375 C1362 0.962 . S
H1376 C1362 0.960 1_554 S
H1377 C1363 0.961 . S
H1378 C1363 0.961 . S
H1379 C1363 0.961 . S
H1380 C1364 0.919 1_455 S
H1381 C1369 0.930 . S
H1382 C1370 0.956 . S
H1383 C1370 0.961 1_655 S
H1384 C1370 0.961 . S
H1385 C1371 0.958 1_554 S
H1386 C1371 0.961 . S
H1387 C1371 0.960 . S
C1388 C1389 1.391 . S
C1388 C1390 1.394 . S
C1388 H1404 0.931 . S
C1389 C1388 1.391 . S
C1389 C1393 1.376 . S
C1390 C1388 1.394 . S
C1390 C1391 1.369 . S
C1390 C1394 1.531 . S
C1391 C1390 1.369 . S
C1391 C1392 1.410 . S
C1391 C1399 1.503 . S
C1392 C1391 1.410 . S
C1392 C1393 1.392 . S
C1392 C1395 1.511 . S
C1393 C1389 1.376 . S
C1393 C1392 1.392 . S
C1393 H1405 0.929 . S
C1394 C1390 1.531 . S
C1394 H1406 0.960 . S
C1394 H1407 0.962 . S
C1394 H1408 0.960 . S
C1395 C1392 1.511 . S
C1395 H1409 0.961 . S
C1395 H1410 0.961 . S
C1395 H1411 0.961 . S
C1396 C1397 1.370 . S
C1396 C1398 1.363 . S
C1396 H1412 0.931 . S
C1397 C1396 1.370 . S
C1397 C1401 1.408 . S
C1398 C1396 1.363 . S
C1398 C1399 1.370 . S
C1398 C1402 1.524 . S
C1399 C1391 1.503 . S
C1399 C1398 1.370 . S
C1399 C1400 1.403 . S
C1400 C1399 1.403 . S
C1400 C1401 1.404 . S
C1400 C1403 1.539 . S
C1401 C1397 1.408 . S
C1401 C1400 1.404 . S
C1401 H1413 0.930 . S
C1402 C1398 1.524 . S
C1402 H1414 0.956 . S
C1402 H1415 0.961 . S
C1402 H1416 0.961 . S
C1403 C1400 1.539 . S
C1403 H1417 0.958 . S
C1403 H1418 0.961 . S
C1403 H1419 0.960 . S
H1404 C1388 0.931 . S
H1405 C1393 0.929 . S
H1406 C1394 0.960 . S
H1407 C1394 0.962 . S
H1408 C1394 0.960 . S
H1409 C1395 0.961 . S
H1410 C1395 0.961 . S
H1411 C1395 0.961 . S
H1412 C1396 0.931 . S
H1413 C1401 0.930 . S
H1414 C1402 0.956 . S
H1415 C1402 0.961 . S
H1416 C1402 0.961 . S
H1417 C1403 0.958 . S
H1418 C1403 0.961 . S
H1419 C1403 0.960 . S
C1420 C1421 1.391 1_556 S
C1420 C1422 1.393 . S
C1420 H1436 0.931 1_556 S
C1421 C1420 1.391 1_554 S
C1421 C1425 1.376 1_554 S
C1422 C1420 1.393 . S
C1422 C1423 1.369 . S
C1422 C1426 1.531 . S
C1423 C1422 1.369 . S
C1423 C1424 1.410 . S
C1423 C1431 1.503 . S
C1424 C1423 1.410 . S
C1424 C1425 1.392 . S
C1424 C1427 1.511 1_455 S
C1425 C1421 1.376 1_556 S
C1425 C1424 1.392 . S
C1425 H1437 0.934 1_455 S
C1426 C1422 1.531 . S
C1426 H1438 0.960 . S
C1426 H1439 0.962 . S
C1426 H1440 0.960 . S
C1427 C1424 1.511 1_655 S
C1427 H1441 0.961 . S
C1427 H1442 0.961 . S
C1427 H1443 0.961 . S
C1428 C1429 1.370 . S
C1428 C1430 1.363 . S
C1428 H1444 0.931 . S
C1429 C1428 1.370 . S
C1429 C1433 1.408 . S
C1430 C1428 1.363 . S
C1430 C1431 1.370 . S
C1430 C1434 1.524 . S
C1431 C1423 1.503 . S
C1431 C1430 1.370 . S
C1431 C1432 1.403 . S
C1432 C1431 1.403 . S
C1432 C1433 1.404 . S
C1432 C1435 1.539 . S
C1433 C1429 1.408 . S
C1433 C1432 1.404 . S
C1433 H1445 0.930 . S
C1434 C1430 1.524 . S
C1434 H1446 0.956 1_556 S
C1434 H1447 0.936 1_456 S
C1434 H1448 0.961 1_556 S
C1435 C1432 1.539 . S
C1435 H1449 0.958 . S
C1435 H1450 0.961 . S
C1435 H1451 0.960 . S
H1436 C1420 0.931 1_554 S
H1437 C1425 0.934 1_655 S
H1438 C1426 0.960 . S
H1439 C1426 0.962 . S
H1440 C1426 0.960 . S
H1441 C1427 0.961 . S
H1442 C1427 0.961 . S
H1443 C1427 0.961 . S
H1444 C1428 0.931 . S
H1445 C1433 0.930 . S
H1446 C1434 0.956 1_554 S
H1447 C1434 0.936 1_654 S
H1448 C1434 0.961 1_554 S
H1449 C1435 0.958 . S
H1450 C1435 0.961 . S
H1451 C1435 0.960 . S
C1452 C1453 1.391 . S
C1452 C1454 1.394 . S
C1452 H1468 0.931 . S
C1453 C1452 1.391 . S
C1453 C1457 1.376 . S
C1454 C1452 1.394 . S
C1454 C1455 1.369 . S
C1454 C1458 1.531 . S
C1455 C1454 1.369 . S
C1455 C1456 1.410 . S
C1455 C1463 1.503 . S
C1456 C1455 1.410 . S
C1456 C1457 1.392 . S
C1456 C1459 1.511 . S
C1457 C1453 1.376 . S
C1457 C1456 1.392 . S
C1457 H1469 0.929 . S
C1458 C1454 1.531 . S
C1458 H1470 0.960 . S
C1458 H1471 0.962 . S
C1458 H1472 0.960 . S
C1459 C1456 1.511 . S
C1459 H1473 0.961 . S
C1459 H1474 0.961 . S
C1459 H1475 0.961 . S
C1460 C1461 1.370 . S
C1460 C1462 1.363 . S
C1460 H1476 0.931 . S
C1461 C1460 1.370 . S
C1461 C1465 1.408 . S
C1462 C1460 1.363 . S
C1462 C1463 1.370 . S
C1462 C1466 1.524 . S
C1463 C1455 1.503 . S
C1463 C1462 1.370 . S
C1463 C1464 1.403 . S
C1464 C1463 1.403 . S
C1464 C1465 1.404 . S
C1464 C1467 1.539 . S
C1465 C1461 1.408 . S
C1465 C1464 1.404 . S
C1465 H1477 0.930 . S
C1466 C1462 1.524 . S
C1466 H1478 0.956 . S
C1466 H1479 0.961 . S
C1466 H1480 0.961 . S
C1467 C1464 1.539 . S
C1467 H1481 0.958 . S
C1467 H1482 0.961 . S
C1467 H1483 0.960 . S
H1468 C1452 0.931 . S
H1469 C1457 0.929 . S
H1470 C1458 0.960 . S
H1471 C1458 0.962 . S
H1472 C1458 0.960 . S
H1473 C1459 0.961 . S
H1474 C1459 0.961 . S
H1475 C1459 0.961 . S
H1476 C1460 0.931 . S
H1477 C1465 0.930 . S
H1478 C1466 0.956 . S
H1479 C1466 0.961 . S
H1480 C1466 0.961 . S
H1481 C1467 0.958 . S
H1482 C1467 0.961 . S
H1483 C1467 0.960 . S
C1484 C1485 1.391 . S
C1484 C1486 1.394 . S
C1484 H1500 0.931 . S
C1485 C1484 1.391 . S
C1485 C1489 1.376 1_556 S
C1486 C1484 1.394 . S
C1486 C1487 1.369 1_556 S
C1486 C1490 1.531 . S
C1487 C1486 1.369 1_554 S
C1487 C1488 1.410 . S
C1487 C1495 1.503 . S
C1488 C1487 1.410 . S
C1488 C1489 1.392 . S
C1488 C1491 1.511 . S
C1489 C1485 1.376 1_554 S
C1489 C1488 1.392 . S
C1489 H1501 0.929 . S
C1490 C1486 1.531 . S
C1490 H1502 0.960 . S
C1490 H1503 0.962 . S
C1490 H1504 0.960 . S
C1491 C1488 1.511 . S
C1491 H1505 0.961 . S
C1491 H1506 0.961 . S
C1491 H1507 0.961 . S
C1492 C1493 1.370 . S
C1492 C1494 1.363 . S
C1492 H1508 0.931 . S
C1493 C1492 1.370 . S
C1493 C1497 1.408 . S
C1494 C1492 1.363 . S
C1494 C1495 1.370 . S
C1494 C1498 1.524 . S
C1495 C1487 1.503 . S
C1495 C1494 1.370 . S
C1495 C1496 1.403 . S
C1496 C1495 1.403 . S
C1496 C1497 1.404 . S
C1496 C1499 1.539 . S
C1497 C1493 1.408 . S
C1497 C1496 1.404 . S
C1497 H1509 0.930 . S
C1498 C1494 1.524 . S
C1498 H1510 0.956 . S
C1498 H1511 0.961 . S
C1498 H1512 0.961 . S
C1499 C1496 1.539 . S
C1499 H1513 0.958 . S
C1499 H1514 0.961 . S
C1499 H1515 0.960 . S
H1500 C1484 0.931 . S
H1501 C1489 0.929 . S
H1502 C1490 0.960 . S
H1503 C1490 0.962 . S
H1504 C1490 0.960 . S
H1505 C1491 0.961 . S
H1506 C1491 0.961 . S
H1507 C1491 0.961 . S
H1508 C1492 0.931 . S
H1509 C1497 0.930 . S
H1510 C1498 0.956 . S
H1511 C1498 0.961 . S
H1512 C1498 0.961 . S
H1513 C1499 0.958 . S
H1514 C1499 0.961 . S
H1515 C1499 0.960 . S
C1516 C1517 1.391 . S
C1516 C1518 1.394 . S
C1516 H1532 0.931 . S
C1517 C1516 1.391 . S
C1517 C1521 1.376 . S
C1518 C1516 1.394 . S
C1518 C1519 1.369 . S
C1518 C1522 1.531 . S
C1519 C1518 1.369 . S
C1519 C1520 1.410 . S
C1519 C1527 1.503 . S
C1520 C1519 1.410 . S
C1520 C1521 1.392 . S
C1520 C1523 1.511 . S
C1521 C1517 1.376 . S
C1521 C1520 1.392 . S
C1521 H1533 0.929 . S
C1522 C1518 1.531 . S
C1522 H1534 0.960 . S
C1522 H1535 0.962 . S
C1522 H1536 0.960 . S
C1523 C1520 1.511 . S
C1523 H1537 0.961 . S
C1523 H1538 0.961 . S
C1523 H1539 0.961 . S
C1524 C1525 1.370 . S
C1524 C1526 1.363 . S
C1524 H1540 0.931 . S
C1525 C1524 1.370 . S
C1525 C1529 1.408 . S
C1526 C1524 1.363 . S
C1526 C1527 1.370 . S
C1526 C1530 1.524 . S
C1527 C1519 1.503 . S
C1527 C1526 1.370 . S
C1527 C1528 1.403 . S
C1528 C1527 1.403 . S
C1528 C1529 1.404 . S
C1528 C1531 1.539 . S
C1529 C1525 1.408 . S
C1529 C1528 1.404 . S
C1529 H1541 0.930 . S
C1530 C1526 1.524 . S
C1530 H1542 0.956 . S
C1530 H1543 0.961 . S
C1530 H1544 0.961 . S
C1531 C1528 1.539 . S
C1531 H1545 0.958 . S
C1531 H1546 0.961 . S
C1531 H1547 0.960 . S
H1532 C1516 0.931 . S
H1533 C1521 0.929 . S
H1534 C1522 0.960 . S
H1535 C1522 0.962 . S
H1536 C1522 0.960 . S
H1537 C1523 0.961 . S
H1538 C1523 0.961 . S
H1539 C1523 0.961 . S
H1540 C1524 0.931 . S
H1541 C1529 0.930 . S
H1542 C1530 0.956 . S
H1543 C1530 0.961 . S
H1544 C1530 0.961 . S
H1545 C1531 0.958 . S
H1546 C1531 0.961 . S
H1547 C1531 0.960 . S
C1548 C1549 1.391 1_554 S
C1548 C1550 1.394 . S
C1548 H1564 0.931 . S
C1549 C1548 1.391 1_556 S
C1549 C1553 1.376 . S
C1550 C1548 1.394 . S
C1550 C1551 1.369 . S
C1550 C1554 1.531 . S
C1551 C1550 1.369 . S
C1551 C1552 1.410 . S
C1551 C1559 1.503 . S
C1552 C1551 1.410 . S
C1552 C1553 1.392 1_554 S
C1552 C1555 1.511 1_554 S
C1553 C1549 1.376 . S
C1553 C1552 1.392 1_556 S
C1553 H1565 0.929 . S
C1554 C1550 1.531 . S
C1554 H1566 0.960 . S
C1554 H1567 0.962 . S
C1554 H1568 0.960 . S
C1555 C1552 1.511 1_556 S
C1555 H1569 0.961 . S
C1555 H1570 0.961 1_556 S
C1555 H1571 0.961 . S
C1556 C1557 1.370 . S
C1556 C1558 1.363 . S
C1556 H1572 0.931 . S
C1557 C1556 1.370 . S
C1557 C1561 1.408 . S
C1558 C1556 1.363 . S
C1558 C1559 1.370 . S
C1558 C1562 1.524 . S
C1559 C1551 1.503 . S
C1559 C1558 1.370 . S
C1559 C1560 1.403 . S
C1560 C1559 1.403 . S
C1560 C1561 1.404 . S
C1560 C1563 1.539 . S
C1561 C1557 1.408 . S
C1561 C1560 1.404 . S
C1561 H1573 0.930 . S
C1562 C1558 1.524 . S
C1562 H1574 0.956 . S
C1562 H1575 0.961 . S
C1562 H1576 0.961 . S
C1563 C1560 1.539 . S
C1563 H1577 0.958 . S
C1563 H1578 0.961 . S
C1563 H1579 0.960 . S
H1564 C1548 0.931 . S
H1565 C1553 0.929 . S
H1566 C1554 0.960 . S
H1567 C1554 0.962 . S
H1568 C1554 0.960 . S
H1569 C1555 0.961 . S
H1570 C1555 0.961 1_554 S
H1571 C1555 0.961 . S
H1572 C1556 0.931 . S
H1573 C1561 0.930 . S
H1574 C1562 0.956 . S
H1575 C1562 0.961 . S
H1576 C1562 0.961 . S
H1577 C1563 0.958 . S
H1578 C1563 0.961 . S
H1579 C1563 0.960 . S
C1580 C1581 1.391 . S
C1580 C1582 1.394 . S
C1580 H1596 0.931 . S
C1581 C1580 1.391 . S
C1581 C1585 1.376 . S
C1582 C1580 1.394 . S
C1582 C1583 1.369 . S
C1582 C1586 1.531 . S
C1583 C1582 1.369 . S
C1583 C1584 1.410 . S
C1583 C1591 1.503 . S
C1584 C1583 1.410 . S
C1584 C1585 1.392 . S
C1584 C1587 1.511 . S
C1585 C1581 1.376 . S
C1585 C1584 1.392 . S
C1585 H1597 0.929 . S
C1586 C1582 1.531 . S
C1586 H1598 0.960 . S
C1586 H1599 0.962 . S
C1586 H1600 0.960 . S
C1587 C1584 1.511 . S
C1587 H1601 0.961 . S
C1587 H1602 0.961 . S
C1587 H1603 0.961 . S
C1588 C1589 1.370 . S
C1588 C1590 1.363 . S
C1588 H1604 0.931 . S
C1589 C1588 1.370 . S
C1589 C1593 1.408 . S
C1590 C1588 1.363 . S
C1590 C1591 1.370 . S
C1590 C1594 1.524 . S
C1591 C1583 1.503 . S
C1591 C1590 1.370 . S
C1591 C1592 1.403 . S
C1592 C1591 1.403 . S
C1592 C1593 1.404 . S
C1592 C1595 1.539 . S
C1593 C1589 1.408 . S
C1593 C1592 1.404 . S
C1593 H1605 0.930 . S
C1594 C1590 1.524 . S
C1594 H1606 0.956 . S
C1594 H1607 0.961 . S
C1594 H1608 0.961 . S
C1595 C1592 1.539 . S
C1595 H1609 0.958 . S
C1595 H1610 0.961 . S
C1595 H1611 0.960 . S
H1596 C1580 0.931 . S
H1597 C1585 0.929 . S
H1598 C1586 0.960 . S
H1599 C1586 0.962 . S
H1600 C1586 0.960 . S
H1601 C1587 0.961 . S
H1602 C1587 0.961 . S
H1603 C1587 0.961 . S
H1604 C1588 0.931 . S
H1605 C1593 0.930 . S
H1606 C1594 0.956 . S
H1607 C1594 0.961 . S
H1608 C1594 0.961 . S
H1609 C1595 0.958 . S
H1610 C1595 0.961 . S
H1611 C1595 0.960 . S
C1612 C1613 1.391 . S
C1612 C1614 1.394 . S
C1612 H1628 0.931 . S
C1613 C1612 1.391 . S
C1613 C1617 1.376 . S
C1614 C1612 1.394 . S
C1614 C1615 1.369 . S
C1614 C1618 1.531 . S
C1615 C1614 1.369 . S
C1615 C1616 1.410 . S
C1615 C1623 1.503 . S
C1616 C1615 1.410 . S
C1616 C1617 1.392 . S
C1616 C1619 1.511 . S
C1617 C1613 1.376 . S
C1617 C1616 1.392 . S
C1617 H1629 0.929 . S
C1618 C1614 1.531 . S
C1618 H1630 0.960 . S
C1618 H1631 0.962 . S
C1618 H1632 0.960 . S
C1619 C1616 1.511 . S
C1619 H1633 0.961 . S
C1619 H1634 0.961 . S
C1619 H1635 0.961 . S
C1620 C1621 1.370 . S
C1620 C1622 1.363 . S
C1620 H1636 0.931 . S
C1621 C1620 1.370 . S
C1621 C1625 1.408 . S
C1622 C1620 1.363 . S
C1622 C1623 1.370 . S
C1622 C1626 1.524 . S
C1623 C1615 1.503 . S
C1623 C1622 1.370 . S
C1623 C1624 1.403 . S
C1624 C1623 1.403 . S
C1624 C1625 1.404 . S
C1624 C1627 1.539 . S
C1625 C1621 1.408 . S
C1625 C1624 1.404 . S
C1625 H1637 0.930 . S
C1626 C1622 1.524 . S
C1626 H1638 0.956 . S
C1626 H1639 0.961 . S
C1626 H1640 0.961 . S
C1627 C1624 1.539 . S
C1627 H1641 0.958 . S
C1627 H1642 0.961 . S
C1627 H1643 0.960 . S
H1628 C1612 0.931 . S
H1629 C1617 0.929 . S
H1630 C1618 0.960 . S
H1631 C1618 0.962 . S
H1632 C1618 0.960 . S
H1633 C1619 0.961 . S
H1634 C1619 0.961 . S
H1635 C1619 0.961 . S
H1636 C1620 0.931 . S
H1637 C1625 0.930 . S
H1638 C1626 0.956 . S
H1639 C1626 0.961 . S
H1640 C1626 0.961 . S
H1641 C1627 0.958 . S
H1642 C1627 0.961 . S
H1643 C1627 0.960 . S
C1644 C1645 1.391 . S
C1644 C1646 1.394 . S
C1644 H1660 0.931 . S
C1645 C1644 1.391 . S
C1645 C1649 1.376 . S
C1646 C1644 1.394 . S
C1646 C1647 1.369 . S
C1646 C1650 1.531 . S
C1647 C1646 1.369 . S
C1647 C1648 1.410 . S
C1647 C1655 1.503 . S
C1648 C1647 1.410 . S
C1648 C1649 1.392 . S
C1648 C1651 1.511 . S
C1649 C1645 1.376 . S
C1649 C1648 1.392 . S
C1649 H1661 0.929 . S
C1650 C1646 1.531 . S
C1650 H1662 0.960 . S
C1650 H1663 0.962 . S
C1650 H1664 0.960 . S
C1651 C1648 1.511 . S
C1651 H1665 0.961 . S
C1651 H1666 0.961 . S
C1651 H1667 0.961 . S
C1652 C1653 1.370 . S
C1652 C1654 1.363 . S
C1652 H1668 0.931 . S
C1653 C1652 1.370 . S
C1653 C1657 1.408 . S
C1654 C1652 1.363 . S
C1654 C1655 1.370 . S
C1654 C1658 1.524 . S
C1655 C1647 1.503 . S
C1655 C1654 1.370 . S
C1655 C1656 1.403 . S
C1656 C1655 1.403 . S
C1656 C1657 1.404 . S
C1656 C1659 1.539 . S
C1657 C1653 1.408 . S
C1657 C1656 1.404 . S
C1657 H1669 0.930 . S
C1658 C1654 1.524 . S
C1658 H1670 0.956 . S
C1658 H1671 0.961 . S
C1658 H1672 0.961 . S
C1659 C1656 1.539 . S
C1659 H1673 0.958 . S
C1659 H1674 0.961 . S
C1659 H1675 0.960 . S
H1660 C1644 0.931 . S
H1661 C1649 0.929 . S
H1662 C1650 0.960 . S
H1663 C1650 0.962 . S
H1664 C1650 0.960 . S
H1665 C1651 0.961 . S
H1666 C1651 0.961 . S
H1667 C1651 0.961 . S
H1668 C1652 0.931 . S
H1669 C1657 0.930 . S
H1670 C1658 0.956 . S
H1671 C1658 0.961 . S
H1672 C1658 0.961 . S
H1673 C1659 0.958 . S
H1674 C1659 0.961 . S
H1675 C1659 0.960 . S
C1676 C1677 1.391 . S
C1676 C1678 1.394 . S
C1676 H1692 0.931 . S
C1677 C1676 1.391 . S
C1677 C1681 1.376 . S
C1678 C1676 1.394 . S
C1678 C1679 1.369 . S
C1678 C1682 1.531 . S
C1679 C1678 1.369 . S
C1679 C1680 1.410 . S
C1679 C1687 1.503 . S
C1680 C1679 1.410 . S
C1680 C1681 1.392 . S
C1680 C1683 1.511 . S
C1681 C1677 1.376 . S
C1681 C1680 1.392 . S
C1681 H1693 0.929 . S
C1682 C1678 1.531 . S
C1682 H1694 0.960 . S
C1682 H1695 0.962 . S
C1682 H1696 0.960 . S
C1683 C1680 1.511 . S
C1683 H1697 0.961 . S
C1683 H1698 0.961 . S
C1683 H1699 0.961 . S
C1684 C1685 1.370 . S
C1684 C1686 1.363 . S
C1684 H1700 0.931 . S
C1685 C1684 1.370 . S
C1685 C1689 1.408 . S
C1686 C1684 1.363 . S
C1686 C1687 1.370 . S
C1686 C1690 1.524 . S
C1687 C1679 1.503 . S
C1687 C1686 1.370 . S
C1687 C1688 1.403 . S
C1688 C1687 1.403 . S
C1688 C1689 1.404 . S
C1688 C1691 1.539 . S
C1689 C1685 1.408 . S
C1689 C1688 1.404 . S
C1689 H1701 0.930 . S
C1690 C1686 1.524 . S
C1690 H1702 0.956 . S
C1690 H1703 0.961 . S
C1690 H1704 0.961 . S
C1691 C1688 1.539 . S
C1691 H1705 0.958 . S
C1691 H1706 0.961 . S
C1691 H1707 0.960 . S
H1692 C1676 0.931 . S
H1693 C1681 0.929 . S
H1694 C1682 0.960 . S
H1695 C1682 0.962 . S
H1696 C1682 0.960 . S
H1697 C1683 0.961 . S
H1698 C1683 0.961 . S
H1699 C1683 0.961 . S
H1700 C1684 0.931 . S
H1701 C1689 0.930 . S
H1702 C1690 0.956 . S
H1703 C1690 0.961 . S
H1704 C1690 0.961 . S
H1705 C1691 0.958 . S
H1706 C1691 0.961 . S
H1707 C1691 0.960 . S
C1708 C1709 1.391 . S
C1708 C1710 1.394 . S
C1708 H1724 0.931 . S
C1709 C1708 1.391 . S
C1709 C1713 1.376 . S
C1710 C1708 1.394 . S
C1710 C1711 1.369 . S
C1710 C1714 1.531 . S
C1711 C1710 1.369 . S
C1711 C1712 1.410 . S
C1711 C1719 1.503 . S
C1712 C1711 1.410 . S
C1712 C1713 1.392 . S
C1712 C1715 1.511 1_556 S
C1713 C1709 1.376 . S
C1713 C1712 1.392 . S
C1713 H1725 0.929 1_556 S
C1714 C1710 1.531 . S
C1714 H1726 0.960 . S
C1714 H1727 0.962 . S
C1714 H1728 0.960 . S
C1715 C1712 1.511 1_554 S
C1715 H1729 0.961 . S
C1715 H1730 0.961 . S
C1715 H1731 0.961 . S
C1716 C1717 1.370 . S
C1716 C1718 1.363 . S
C1716 H1732 0.931 1_556 S
C1717 C1716 1.370 . S
C1717 C1721 1.408 . S
C1718 C1716 1.363 . S
C1718 C1719 1.370 . S
C1718 C1722 1.524 . S
C1719 C1711 1.503 . S
C1719 C1718 1.370 . S
C1719 C1720 1.403 . S
C1720 C1719 1.403 . S
C1720 C1721 1.404 . S
C1720 C1723 1.539 . S
C1721 C1717 1.408 . S
C1721 C1720 1.404 . S
C1721 H1733 0.930 . S
C1722 C1718 1.524 . S
C1722 H1734 0.956 . S
C1722 H1735 0.961 1_556 S
C1722 H1736 0.961 1_556 S
C1723 C1720 1.539 . S
C1723 H1737 0.958 . S
C1723 H1738 0.961 . S
C1723 H1739 0.960 . S
H1724 C1708 0.931 . S
H1725 C1713 0.929 1_554 S
H1726 C1714 0.960 . S
H1727 C1714 0.962 . S
H1728 C1714 0.960 . S
H1729 C1715 0.961 . S
H1730 C1715 0.961 . S
H1731 C1715 0.961 . S
H1732 C1716 0.931 1_554 S
H1733 C1721 0.930 . S
H1734 C1722 0.956 . S
H1735 C1722 0.961 1_554 S
H1736 C1722 0.961 1_554 S
H1737 C1723 0.958 . S
H1738 C1723 0.961 . S
H1739 C1723 0.960 . S
C1740 C1741 1.391 . S
C1740 C1742 1.394 . S
C1740 H1756 0.931 . S
C1741 C1740 1.391 . S
C1741 C1745 1.376 . S
C1742 C1740 1.394 . S
C1742 C1743 1.369 . S
C1742 C1746 1.531 . S
C1743 C1742 1.369 . S
C1743 C1744 1.410 . S
C1743 C1751 1.503 . S
C1744 C1743 1.410 . S
C1744 C1745 1.392 . S
C1744 C1747 1.511 . S
C1745 C1741 1.376 . S
C1745 C1744 1.392 . S
C1745 H1757 0.929 . S
C1746 C1742 1.531 . S
C1746 H1758 0.960 . S
C1746 H1759 0.962 . S
C1746 H1760 0.960 . S
C1747 C1744 1.511 . S
C1747 H1761 0.961 . S
C1747 H1762 0.961 . S
C1747 H1763 0.961 . S
C1748 C1749 1.370 . S
C1748 C1750 1.363 . S
C1748 H1764 0.931 . S
C1749 C1748 1.370 . S
C1749 C1753 1.408 . S
C1750 C1748 1.363 . S
C1750 C1751 1.370 . S
C1750 C1754 1.524 . S
C1751 C1743 1.503 . S
C1751 C1750 1.370 . S
C1751 C1752 1.403 . S
C1752 C1751 1.403 . S
C1752 C1753 1.404 . S
C1752 C1755 1.539 . S
C1753 C1749 1.408 . S
C1753 C1752 1.404 . S
C1753 H1765 0.930 . S
C1754 C1750 1.524 . S
C1754 H1766 0.956 . S
C1754 H1767 0.961 . S
C1754 H1768 0.961 . S
C1755 C1752 1.539 . S
C1755 H1769 0.958 . S
C1755 H1770 0.961 . S
C1755 H1771 0.960 . S
H1756 C1740 0.931 . S
H1757 C1745 0.929 . S
H1758 C1746 0.960 . S
H1759 C1746 0.962 . S
H1760 C1746 0.960 . S
H1761 C1747 0.961 . S
H1762 C1747 0.961 . S
H1763 C1747 0.961 . S
H1764 C1748 0.931 . S
H1765 C1753 0.930 . S
H1766 C1754 0.956 . S
H1767 C1754 0.961 . S
H1768 C1754 0.961 . S
H1769 C1755 0.958 . S
H1770 C1755 0.961 . S
H1771 C1755 0.960 . S
C1772 C1773 1.391 . S
C1772 C1774 1.394 . S
C1772 H1788 0.931 . S
C1773 C1772 1.391 . S
C1773 C1777 1.376 . S
C1774 C1772 1.394 . S
C1774 C1775 1.369 . S
C1774 C1778 1.531 . S
C1775 C1774 1.369 . S
C1775 C1776 1.410 . S
C1775 C1783 1.503 . S
C1776 C1775 1.410 . S
C1776 C1777 1.392 . S
C1776 C1779 1.511 . S
C1777 C1773 1.376 . S
C1777 C1776 1.392 . S
C1777 H1789 0.929 . S
C1778 C1774 1.531 . S
C1778 H1790 0.960 . S
C1778 H1791 0.962 . S
C1778 H1792 0.960 . S
C1779 C1776 1.511 . S
C1779 H1793 0.961 . S
C1779 H1794 0.961 . S
C1779 H1795 0.961 . S
C1780 C1781 1.370 1_556 S
C1780 C1782 1.363 . S
C1780 H1796 0.931 . S
C1781 C1780 1.370 1_554 S
C1781 C1785 1.408 . S
C1782 C1780 1.363 . S
C1782 C1783 1.370 1_556 S
C1782 C1786 1.524 . S
C1783 C1775 1.503 . S
C1783 C1782 1.370 1_554 S
C1783 C1784 1.403 . S
C1784 C1783 1.403 . S
C1784 C1785 1.404 . S
C1784 C1787 1.539 . S
C1785 C1781 1.408 . S
C1785 C1784 1.404 . S
C1785 H1797 0.930 . S
C1786 C1782 1.524 . S
C1786 H1798 0.956 . S
C1786 H1799 0.961 . S
C1786 H1800 0.961 . S
C1787 C1784 1.539 . S
C1787 H1801 0.958 . S
C1787 H1802 0.961 . S
C1787 H1803 0.960 . S
H1788 C1772 0.931 . S
H1789 C1777 0.929 . S
H1790 C1778 0.960 . S
H1791 C1778 0.962 . S
H1792 C1778 0.960 . S
H1793 C1779 0.961 . S
H1794 C1779 0.961 . S
H1795 C1779 0.961 . S
H1796 C1780 0.931 . S
H1797 C1785 0.930 . S
H1798 C1786 0.956 . S
H1799 C1786 0.961 . S
H1800 C1786 0.961 . S
H1801 C1787 0.958 . S
H1802 C1787 0.961 . S
H1803 C1787 0.960 . S
C1804 C1805 1.391 . S
C1804 C1806 1.394 1_545 S
C1804 H1820 0.931 . S
C1805 C1804 1.391 . S
C1805 C1809 1.376 1_545 S
C1806 C1804 1.394 1_565 S
C1806 C1807 1.369 . S
C1806 C1810 1.531 . S
C1807 C1806 1.369 . S
C1807 C1808 1.410 . S
C1807 C1815 1.503 . S
C1808 C1807 1.410 . S
C1808 C1809 1.392 . S
C1808 C1811 1.511 1_554 S
C1809 C1805 1.376 1_565 S
C1809 C1808 1.392 . S
C1809 H1821 0.929 1_564 S
C1810 C1806 1.531 . S
C1810 H1822 0.960 . S
C1810 H1823 0.962 . S
C1810 H1824 0.960 . S
C1811 C1808 1.511 1_556 S
C1811 H1825 0.961 . S
C1811 H1826 0.961 . S
C1811 H1827 0.961 . S
C1812 C1813 1.370 . S
C1812 C1814 1.363 . S
C1812 H1828 0.931 . S
C1813 C1812 1.370 . S
C1813 C1817 1.408 . S
C1814 C1812 1.363 . S
C1814 C1815 1.370 . S
C1814 C1818 1.524 1_565 S
C1815 C1807 1.503 . S
C1815 C1814 1.370 . S
C1815 C1816 1.403 . S
C1816 C1815 1.403 . S
C1816 C1817 1.404 . S
C1816 C1819 1.539 . S
C1817 C1813 1.408 . S
C1817 C1816 1.404 . S
C1817 H1829 0.930 . S
C1818 C1814 1.524 1_545 S
C1818 H1830 0.956 . S
C1818 H1831 0.961 . S
C1818 H1832 0.961 . S
C1819 C1816 1.539 . S
C1819 H1833 0.958 . S
C1819 H1834 0.961 . S
C1819 H1835 0.960 . S
H1820 C1804 0.931 . S
H1821 C1809 0.929 1_546 S
H1822 C1810 0.960 . S
H1823 C1810 0.962 . S
H1824 C1810 0.960 . S
H1825 C1811 0.961 . S
H1826 C1811 0.961 . S
H1827 C1811 0.961 . S
H1828 C1812 0.931 . S
H1829 C1817 0.930 . S
H1830 C1818 0.956 . S
H1831 C1818 0.961 . S
H1832 C1818 0.961 . S
H1833 C1819 0.958 . S
H1834 C1819 0.961 . S
H1835 C1819 0.960 . S
C309 C154 1.427 . S
C301 C50 1.431 . S
C341 C167 1.578 . S
C333 C61 1.603 . S
C365 C67 1.466 . S
C373 C180 1.456 . S
C405 C193 1.507 . S
C397 C41 1.520 . S
C437 C201 1.459 . S
C429 C95 1.486 . S
C469 C214 1.420 . S
C461 C113 1.442 . S
C493 C106 1.509 . S
C501 C227 1.476 . S
C533 C240 1.503 . S
C525 C86 1.512 . S
C557 C104 1.445 . S
C565 C258 1.441 . S
C597 C269 1.517 . S
C589 C88 1.530 . S
C621 C94 1.472 . S
C629 C253 1.450 . S
C661 C261 1.446 . S
C653 C112 1.476 . S
C685 C70 1.492 . S
C693 C284 1.482 . S
C717 C40 1.510 . S
C725 C274 1.496 . S
C749 C49 1.509 . S
C757 C279 1.479 . S
C781 C59 1.564 . S
C789 C282 1.529 . S
C813 C34 1.438 . S
C821 C191 1.426 . S
C845 C133 1.429 . S
C853 C183 1.422 . S
C885 C152 1.541 1_556 S
C877 C139 1.560 . S
C917 C157 1.508 . S
C909 C77 1.518 . S
C941 C43 1.521 1_545 S
C949 C204 1.492 . S
C981 C243 1.512 . S
C973 C103 1.527 . S
C1013 C196 1.486 . S
C1005 C85 1.513 1_545 S
C1045 C222 1.440 . S
C1037 C115 1.463 . S
C1077 C232 1.434 . S
C1069 C131 1.438 . S
C1101 C142 1.580 . S
C1109 C245 1.568 . S
C1133 C76 1.468 . S
C1141 C206 1.466 . S
C1173 C219 1.505 . S
C1165 C122 1.515 . S
C1197 C32 1.484 . S
C1205 C175 1.463 . S
C1237 C188 1.433 . S
C1229 C5 1.441 . S
C1269 C149 1.485 . S
C1261 C16 1.510 . S
C1301 C162 1.507 . S
C1293 C23 1.513 1_455 S
C1325 C14 1.445 . S
C1333 C271 1.442 . S
C1357 C25 1.529 . S
C1365 C256 1.509 1_655 S
C1389 C31 1.468 . S
C1397 C266 1.458 . S
C1421 C4 1.477 . S
C1429 C248 1.447 . S
C1461 C297 1.481 . S
C1453 C79 1.493 . S
C1493 C287 1.496 . S
C1485 C121 1.508 . S
C1525 C292 1.493 . S
C1517 C130 1.505 . S
C1549 C140 1.561 . S
C1557 C295 1.533 . S
C1581 C97 1.438 . S
C1589 C217 1.415 . S
C1621 C209 1.418 . S
C1613 C52 1.427 . S
C1653 C230 1.538 . S
C1645 C58 1.561 . S
C1685 C235 1.493 . S
C1677 C68 1.520 . S
C1709 C124 1.522 . S
C1717 C178 1.490 . S
C1749 C165 1.514 . S
C1741 C13 1.530 . S
C1773 C22 1.516 . S
C1781 C170 1.497 . S
C1813 C144 1.432 . S
C1805 C7 1.464 . S
