# Generated by pormake.
# Topology tsx, (6,3)-cn, num edge types: 1
# Building blocks:
#     Node 0, Type 0, BuildingBlock: CIFDUS_clean_sbu_1, # of connection points: 6
#     Node 1, Type 0, BuildingBlock: CIFDUS_clean_sbu_1, # of connection points: 6
#     Node 2, Type 1, BuildingBlock: CUQRIR_clean_linker_1, # of connection points: 3
#     Node 3, Type 1, BuildingBlock: CUQRIR_clean_linker_1, # of connection points: 3
#     Node 4, Type 1, BuildingBlock: CUQRIR_clean_linker_1, # of connection points: 3
#     Node 5, Type 1, BuildingBlock: CUQRIR_clean_linker_1, # of connection points: 3
#     Edge 6, Type (0, 1), BuildingBlock: KIFKEQ_clean_linker_1, # of connection points: 2
#     Edge 7, Type (0, 1), BuildingBlock: KIFKEQ_clean_linker_1, # of connection points: 2
#     Edge 8, Type (0, 1), BuildingBlock: KIFKEQ_clean_linker_1, # of connection points: 2
#     Edge 9, Type (0, 1), BuildingBlock: KIFKEQ_clean_linker_1, # of connection points: 2
#     Edge 10, Type (0, 1), BuildingBlock: KIFKEQ_clean_linker_1, # of connection points: 2
#     Edge 11, Type (0, 1), BuildingBlock: KIFKEQ_clean_linker_1, # of connection points: 2
#     Edge 12, Type (0, 1), BuildingBlock: KIFKEQ_clean_linker_1, # of connection points: 2
#     Edge 13, Type (0, 1), BuildingBlock: KIFKEQ_clean_linker_1, # of connection points: 2
#     Edge 14, Type (0, 1), BuildingBlock: KIFKEQ_clean_linker_1, # of connection points: 2
#     Edge 15, Type (0, 1), BuildingBlock: KIFKEQ_clean_linker_1, # of connection points: 2
#     Edge 16, Type (0, 1), BuildingBlock: KIFKEQ_clean_linker_1, # of connection points: 2
#     Edge 17, Type (0, 1), BuildingBlock: KIFKEQ_clean_linker_1, # of connection points: 2
# Relax obj value: 0.157
# Max RMSD: 0.174
# Mean RMSD: 0.161
data_MOF--net-tsx--node1-CIFDUS_clean_sbu_1--node2-CUQRIR_clean_linker_1--edge1-KIFKEQ_clean_linker_1
_symmetry_space_group_name_H-M    P1
_symmetry_Int_Tables_number       1
_symmetry_cell_setting            triclinic
loop_
_symmetry_equiv_pos_as_xyz
'x, y, z'
_cell_length_a     17.351387
_cell_length_b     20.769707
_cell_length_c     33.857505
_cell_angle_alpha  85.722958
_cell_angle_beta   91.462353
_cell_angle_gamma 91.102235
loop_
_atom_site_label
_atom_site_type_symbol
_atom_site_fract_x
_atom_site_fract_y
_atom_site_fract_z
_atom_type_partial_charge
O0 O 1.00861 0.13608 -0.01383 0.0
Mn1 Mn 0.08184 0.05616 -0.01342 0.0
O2 O 0.92255 0.11467 0.9376 0.0
Mn3 Mn 0.95376 0.03196 0.93025 0.0
O4 O 0.14938 0.9725 -0.01739 0.0
O5 O 0.17442 0.11849 -0.00092 0.0
Mn6 Mn 0.23071 0.06232 0.02973 0.0
O7 O 0.06247 0.03394 0.04737 0.0
O8 O 0.26797 0.99694 0.00267 0.0
O9 O 0.10688 0.08003 0.92633 0.0
O10 O 0.02431 0.02226 0.89212 0.0
O11 O 0.28928 0.13391 0.02907 0.0
O12 O 0.18038 0.03858 0.07596 0.0
C13 C 0.92784 0.95692 0.97146 0.0
C14 C 0.94977 0.15102 0.96343 0.0
C15 C 0.22134 0.95923 -0.0137 0.0
C16 C 0.23294 0.15755 0.00705 0.0
C17 C 0.1081 0.02875 0.07797 0.0
C18 C 0.08618 0.05463 0.89431 0.0
O19 O 0.98718 0.99612 0.97649 0.0
O20 O 0.88606 0.9668 0.93937 0.0
O21 O 0.51632 0.64016 0.4914 0.0
Mn22 Mn 0.58288 0.55773 0.48724 0.0
O23 O 0.4424 0.62544 0.43835 0.0
Mn24 Mn 0.46071 0.53782 0.43981 0.0
O25 O 0.65052 0.47376 0.48042 0.0
O26 O 0.68027 0.6151 0.49106 0.0
Mn27 Mn 0.74584 0.56498 0.51949 0.0
O28 O 0.57992 0.53828 0.54871 0.0
O29 O 0.77367 0.50723 0.4848 0.0
O30 O 0.59516 0.57991 0.42531 0.0
O31 O 0.51789 0.50972 0.4005 0.0
O32 O 0.78136 0.64649 0.52518 0.0
O33 O 0.70449 0.52714 0.56557 0.0
C34 C 0.41319 0.47122 0.47788 0.0
C35 C 0.46621 0.66063 0.4652 0.0
C36 C 0.72349 0.46513 0.4757 0.0
C37 C 0.7174 0.66259 0.50683 0.0
C38 C 0.63376 0.52331 0.57426 0.0
C39 C 0.5751 0.54677 0.39632 0.0
O40 O 0.48194 0.49644 0.48717 0.0
O41 O 0.37584 0.49283 0.44612 0.0
C42 C 0.04094 0.03233 0.42011 0.0
N43 N 0.07079 0.98911 0.39703 0.0
N44 N 0.97528 0.05746 0.40338 0.0
C45 C 0.07882 0.05349 0.45746 0.0
C46 C 0.9672 0.02855 0.36897 0.0
N47 N 0.02507 0.98658 0.36502 0.0
C48 C 0.90937 0.04833 0.33656 0.0
H49 H 0.03831 0.04529 0.48199 0.0
H50 H 0.09259 0.10591 0.45378 0.0
H51 H 0.13258 0.02709 0.46542 0.0
H52 H 0.94003 0.06663 0.3095 0.0
H53 H 0.87019 0.08612 0.34516 0.0
H54 H 0.87419 1.00555 0.32912 0.0
C55 C 0.99203 0.11548 0.55305 0.0
N56 N 0.04213 0.1358 0.58115 0.0
N57 N 0.95714 0.0588 0.56567 0.0
C58 C 0.9751 0.15204 0.51414 0.0
C59 C 0.98703 0.04611 0.60264 0.0
N60 N 0.03879 0.09247 0.6119 0.0
C61 C 0.96426 0.98859 0.62968 0.0
H62 H 0.93961 0.1944 0.51914 0.0
H63 H 0.94223 0.12125 0.49437 0.0
H64 H 0.02924 0.17015 0.5002 0.0
H65 H 0.99088 0.94489 0.61937 0.0
H66 H 0.90075 0.98123 0.62816 0.0
H67 H 0.98321 0.99406 0.6608 0.0
C68 C 0.52326 0.52089 0.91933 0.0
N69 N 0.55735 0.48336 0.89411 0.0
N70 N 0.46615 0.556 0.90062 0.0
C71 C 0.54466 0.52188 0.96232 0.0
C72 C 0.46705 0.53835 0.863 0.0
N73 N 0.52135 0.49338 0.85918 0.0
C74 C 0.42161 0.57077 0.82888 0.0
H75 H 0.56482 0.47388 0.97451 0.0
H76 H 0.49412 0.53509 0.97878 0.0
H77 H 0.59211 0.55761 0.96598 0.0
H78 H 0.46192 0.59293 0.80661 0.0
H79 H 0.3833 0.60846 0.83848 0.0
H80 H 0.38585 0.53418 0.81428 0.0
C81 C 0.49145 0.62634 0.05244 0.0
N82 N 0.53431 0.65399 0.08072 0.0
N83 N 0.44696 0.57669 0.06823 0.0
C84 C 0.48835 0.65251 0.01021 0.0
C85 C 0.46426 0.57611 0.1075 0.0
N86 N 0.51661 0.62303 0.11496 0.0
C87 C 0.43204 0.52835 0.13869 0.0
H88 H 0.47915 0.70537 0.00889 0.0
H89 H 0.44053 0.62944 -0.00579 0.0
H90 H 0.54429 0.64534 -0.0037 0.0
H91 H 0.40304 0.48656 0.12571 0.0
H92 H 0.38921 0.553 0.1558 0.0
H93 H 0.47865 0.51109 0.15969 0.0
H94 H 0.14403 0.25491 0.03032 0.0
H95 H 0.34265 0.21718 0.96249 0.0
H96 H 0.19268 0.36533 0.03763 0.0
H97 H 0.39138 0.32665 0.9697 0.0
H98 H 0.50833 0.46159 0.05924 0.0
H99 H 0.445 0.36729 0.03263 0.0
H100 H 0.23865 0.47749 0.00768 0.0
H101 H 0.30382 0.57256 0.03411 0.0
C102 C 0.19553 0.27139 0.01489 0.0
C103 C 0.23863 0.22758 -0.00487 0.0
C104 C 0.22417 0.33446 0.01957 0.0
C105 C 0.29681 0.35461 0.0049 0.0
C106 C 0.33585 0.31266 -0.01814 0.0
C107 C 0.30709 0.25018 0.97703 0.0
C108 C 0.44994 0.46573 0.04736 0.0
C109 C 0.41108 0.52421 0.04833 0.0
C110 C 0.41356 0.41192 0.03199 0.0
C111 C 0.33654 0.41465 0.0178 0.0
C112 C 0.29782 0.47363 0.0184 0.0
C113 C 0.33499 0.52805 0.03329 0.0
H114 H 0.371 0.92235 -0.01058 0.0
H115 H 0.14393 0.85735 0.95283 0.0
H116 H 0.42573 0.82441 0.96965 0.0
H117 H 0.20021 0.75852 0.93127 0.0
H118 H 0.3252 0.56081 0.93221 0.0
H119 H 0.26082 0.65758 0.95205 0.0
H120 H 0.45836 0.77393 0.91362 0.0
H121 H 0.52247 0.67683 0.89598 0.0
C122 C 0.3324 0.88728 0.97684 0.0
C123 C 0.25265 0.89828 0.97277 0.0
C124 C 0.36429 0.83088 0.96505 0.0
C125 C 0.31797 0.78336 0.94822 0.0
C126 C 0.23785 0.79378 0.94426 0.0
C127 C 0.20554 0.85068 0.95636 0.0
C128 C 0.35438 0.60734 0.92856 0.0
C129 C 0.4292 0.61183 0.91367 0.0
C130 C 0.31745 0.66285 0.93938 0.0
C131 C 0.35441 0.72398 0.93491 0.0
C132 C 0.4286 0.72788 0.91866 0.0
C133 C 0.46556 0.67248 0.90842 0.0
H134 H 0.88132 0.96514 0.04782 0.0
H135 H 0.90547 0.8336 0.95656 0.0
H136 H 0.79093 0.88845 0.08208 0.0
H137 H 0.81545 0.75831 -0.01038 0.0
H138 H 0.54378 0.78365 0.08352 0.0
H139 H 0.65575 0.85379 0.066 0.0
H140 H 0.78693 0.68502 0.04575 0.0
H141 H 0.67425 0.61636 0.06215 0.0
C142 C 0.87038 0.91853 0.03621 0.0
C143 C 0.90194 0.90448 0.0001 0.0
C144 C 0.81732 0.87523 0.05527 0.0
C145 C 0.79537 0.81722 0.03853 0.0
C146 C 0.83166 0.80169 0.00391 0.0
C147 C 0.88403 0.8447 -0.01497 0.0
C148 C 0.59719 0.76217 0.07579 0.0
C149 C 0.60119 0.69513 0.07402 0.0
C150 C 0.66142 0.80195 0.06607 0.0
C151 C 0.73064 0.77513 0.05443 0.0
C152 C 0.7346 0.70751 0.05415 0.0
C153 C 0.67048 0.66811 0.06362 0.0
H154 H 0.98731 0.27394 0.93556 0.0
H155 H 0.80983 0.15801 -0.00562 0.0
H156 H 0.89392 0.35979 0.91893 0.0
H157 H 0.71666 0.24302 0.97796 0.0
H158 H 0.55652 0.35507 0.88852 0.0
H159 H 0.65808 0.27973 0.91175 0.0
H160 H 0.8016 0.43999 0.94511 0.0
H161 H 0.69935 0.51486 0.92174 0.0
C162 C 0.92936 0.26832 0.94665 0.0
C163 C 0.90609 0.2102 0.9671 0.0
C164 C 0.87559 0.31696 0.93668 0.0
C165 C 0.79755 0.30763 0.9465 0.0
C166 C 0.77597 0.25125 0.96939 0.0
C167 C 0.82962 0.20313 0.97952 0.0
C168 C 0.61031 0.37383 0.90031 0.0
C169 C 0.62056 0.4403 0.9034 0.0
C170 C 0.66803 0.33097 0.91406 0.0
C171 C 0.73759 0.35389 0.93079 0.0
C172 C 0.74879 0.42085 0.93245 0.0
C173 C 0.69053 0.46359 0.91913 0.0
H174 H 0.64369 0.75126 0.54593 0.0
H175 H 0.78548 0.72935 0.4455 0.0
H176 H 0.69442 0.86095 0.55054 0.0
H177 H 0.83718 0.83881 0.4501 0.0
H178 H 1.00694 0.95548 0.53166 0.0
H179 H 0.92828 0.87054 0.50351 0.0
H180 H 0.72251 0.97535 0.52465 0.0
H181 H 0.80293 0.06122 0.55212 0.0
C182 C 0.68163 0.77148 0.5231 0.0
C183 C 0.70932 0.73193 0.49491 0.0
C184 C 0.71185 0.83421 0.52609 0.0
C185 C 0.77116 0.85843 0.50118 0.0
C186 C 0.79225 0.82153 0.47008 0.0
C187 C 0.7612 0.7592 0.46682 0.0
C188 C 0.94507 0.96111 0.52897 0.0
C189 C 0.91083 0.01494 0.54347 0.0
C190 C 0.8998 0.91261 0.51284 0.0
C191 C 0.81873 0.91595 0.5117 0.0
C192 C 0.78464 0.97116 0.5251 0.0
C193 C 0.83038 0.02038 0.54063 0.0
H194 H 0.8725 0.42813 0.47973 0.0
H195 H 0.645 0.35972 0.44607 0.0
H196 H 0.92722 0.32913 0.46304 0.0
H197 H 0.70193 0.25925 0.42694 0.0
H198 H 0.83177 0.06259 0.43178 0.0
H199 H 0.76421 0.15987 0.44826 0.0
H200 H 0.96102 0.27655 0.40903 0.0
H201 H 0.02838 0.17922 0.39516 0.0
C202 C 0.83374 0.39224 0.46812 0.0
C203 C 0.75389 0.4028 0.4639 0.0
C204 C 0.86578 0.33503 0.45812 0.0
C205 C 0.81977 0.2862 0.4426 0.0
C206 C 0.7394 0.29576 0.43877 0.0
C207 C 0.70669 0.35349 0.44947 0.0
C208 C 0.86002 0.1094 0.4272 0.0
C209 C 0.93577 0.11398 0.41348 0.0
C210 C 0.82131 0.16512 0.43615 0.0
C211 C 0.8573 0.22646 0.43067 0.0
C212 C 0.93208 0.23037 0.41509 0.0
C213 C 0.97093 0.17483 0.40697 0.0
H214 H 0.31833 0.38352 0.44753 0.0
H215 H 0.41979 0.43377 0.55935 0.0
H216 H 0.23258 0.30656 0.48165 0.0
H217 H 0.33329 0.35258 0.594 0.0
H218 H 0.19548 0.12112 0.58886 0.0
H219 H 0.29653 0.20301 0.57388 0.0
H220 H 0.12189 0.34473 0.54472 0.0
H221 H 0.02087 0.26313 0.56105 0.0
C222 C 0.32325 0.37758 0.47956 0.0
C223 C 0.37534 0.41589 0.50071 0.0
C224 C 0.27373 0.33332 0.499 0.0
C225 C 0.27537 0.32473 0.54027 0.0
C226 C 0.33067 0.35926 0.56197 0.0
C227 C 0.38046 0.40506 0.54223 0.0
C228 C 0.17897 0.17041 0.58079 0.0
C229 C 0.10057 0.18604 0.57623 0.0
C230 C 0.23669 0.21715 0.57237 0.0
C231 C 0.2169 0.28034 0.55906 0.0
C232 C 0.13849 0.29657 0.55579 0.0
C233 C 0.08082 0.2499 0.56454 0.0
H234 H 0.47587 0.75621 0.40756 0.0
H235 H 0.36964 0.70411 0.51933 0.0
H236 H 0.38319 0.84204 0.39349 0.0
H237 H 0.27619 0.79073 0.50554 0.0
H238 H 0.06022 0.87072 0.43344 0.0
H239 H 0.16665 0.80057 0.45702 0.0
H240 H 0.33005 0.94499 0.41092 0.0
H241 H 0.2228 0.01486 0.38803 0.0
C242 C 0.43485 0.7654 0.43001 0.0
C243 C 0.43093 0.72459 0.46491 0.0
C244 C 0.38125 0.81426 0.42183 0.0
C245 C 0.32164 0.82293 0.44816 0.0
C246 C 0.32091 0.78483 0.48442 0.0
C247 C 0.37525 0.73612 0.49276 0.0
C248 C 0.11909 0.88662 0.42805 0.0
C249 C 0.13382 0.94673 0.4078 0.0
C250 C 0.18 0.8472 0.44205 0.0
C251 C 0.25707 0.86714 0.4359 0.0
C252 C 0.27148 0.92787 0.4158 0.0
C253 C 0.21039 0.96757 0.4023 0.0
H254 H 0.10425 0.1132 0.13376 0.0
H255 H 0.05333 0.91442 0.11315 0.0
H256 H 0.0898 0.08889 0.20464 0.0
H257 H 0.04008 0.889 0.18494 0.0
H258 H 0.9495 0.90677 0.31705 0.0
H259 H 0.96407 0.90972 0.24497 0.0
H260 H 0.16812 0.03026 0.25544 0.0
H261 H 0.15064 0.02958 0.32652 0.0
C262 C 0.08779 0.06453 0.1445 0.0
C263 C 0.07837 0.01596 0.11813 0.0
C264 C 0.08104 0.0502 0.18515 0.0
C265 C 0.06586 0.98658 0.20059 0.0
C266 C 0.05213 0.93839 0.17398 0.0
C267 C 0.0588 0.95296 0.13296 0.0
C268 C 0.9989 0.93175 0.30383 0.0
C269 C 0.04905 0.9679 0.32718 0.0
C270 C 1.00709 0.93379 0.26264 0.0
C271 C 0.06584 0.97193 0.24435 0.0
C272 C 0.12093 1.00189 0.26847 0.0
C273 C 0.11229 1.0002 0.30939 0.0
H274 H 0.14715 0.97421 0.84536 0.0
H275 H 0.09922 0.17456 0.85717 0.0
H276 H 0.1579 0.99567 0.77419 0.0
H277 H 0.1107 0.19705 0.7855 0.0
H278 H 0.9794 0.16443 0.6651 0.0
H279 H 0.01972 0.16759 0.73465 0.0
H280 H 0.21109 0.04447 0.71468 0.0
H281 H 0.16699 0.03928 0.6455 0.0
C282 C 0.14305 0.02361 0.83277 0.0
C283 C 0.12315 0.07284 0.85655 0.0
C284 C 0.14894 0.03607 0.7919 0.0
C285 C 0.13397 0.09798 0.77393 0.0
C286 C 0.12155 0.14865 0.79836 0.0
C287 C 0.11629 0.13614 0.83944 0.0
C288 C 0.03095 0.13941 0.67575 0.0
C289 C 0.07042 0.10171 0.65063 0.0
C290 C 0.05464 0.14153 0.71535 0.0
C291 C 0.11887 0.10626 0.73039 0.0
C292 C 0.16097 0.07159 0.70422 0.0
C293 C 0.13631 0.06876 0.66473 0.0
H294 H 0.49422 0.52404 0.61164 0.0
H295 H 0.73437 0.4768 0.632 0.0
H296 H 0.47183 0.50099 0.68243 0.0
H297 H 0.71166 0.4533 0.70188 0.0
H298 H 0.65675 0.52463 0.82602 0.0
H299 H 0.68534 0.51975 0.75597 0.0
H300 H 0.46981 0.41685 0.73803 0.0
H301 H 0.44197 0.42266 0.80834 0.0
C302 C 0.54182 0.50788 0.63096 0.0
C303 C 0.61613 0.50314 0.61608 0.0
C304 C 0.52901 0.49431 0.67148 0.0
C305 C 0.59023 0.4757 0.6978 0.0
C306 C 0.6636 0.46842 0.68256 0.0
C307 C 0.67637 0.48187 0.64231 0.0
C308 C 0.61733 0.49885 0.80724 0.0
C309 C 0.5474 0.47401 0.82206 0.0
C310 C 0.63315 0.49632 0.76714 0.0
C311 C 0.57905 0.46884 0.74128 0.0
C312 C 0.51179 0.43947 0.75703 0.0
C313 C 0.49624 0.44199 0.79715 0.0
H314 H 0.64007 0.66146 0.36625 0.0
H315 H 0.55827 0.47432 0.33358 0.0
H316 H 0.64577 0.69875 0.29555 0.0
H317 H 0.56449 0.51158 0.26389 0.0
H318 H 0.4422 0.67488 0.17247 0.0
H319 H 0.48224 0.67007 0.24265 0.0
H320 H 0.69989 0.59095 0.21362 0.0
H321 H 0.65949 0.59632 0.14328 0.0
C322 C 0.62606 0.62775 0.34412 0.0
C323 C 0.59862 0.56504 0.35538 0.0
C324 C 0.62893 0.64921 0.30388 0.0
C325 C 0.60583 0.60765 0.27481 0.0
C326 C 0.58352 0.54394 0.28601 0.0
C327 C 0.58002 0.52278 0.32586 0.0
C328 C 0.49986 0.6594 0.18111 0.0
C329 C 0.54814 0.63611 0.15309 0.0
C330 C 0.52288 0.65698 0.22095 0.0
C331 C 0.59438 0.63091 0.23308 0.0
C332 C 0.64518 0.61235 0.20459 0.0
C333 C 0.62222 0.61528 0.16462 0.0
loop_
_geom_bond_atom_site_label_1
_geom_bond_atom_site_label_2
_geom_bond_distance
_geom_bond_site_symmetry_2
_ccdc_geom_bond_type
O0 Mn1 2.164 . S
O0 C14 1.248 1_455 S
Mn1 O0 2.164 . S
Mn1 O4 2.160 1_545 S
Mn1 O5 2.221 1_556 S
Mn1 O7 2.163 1_556 S
Mn1 O9 2.160 . S
Mn1 O19 2.221 1_445 S
O2 Mn3 2.087 . S
O2 C14 1.256 . S
Mn3 O2 2.087 . S
Mn3 O10 2.089 . S
Mn3 O19 2.290 1_545 S
Mn3 O20 2.251 1_545 S
O4 Mn1 2.160 1_565 S
O4 C15 1.239 1_556 S
O5 Mn1 2.221 1_554 S
O5 Mn6 2.290 . S
O5 C16 1.278 . S
Mn6 O5 2.290 . S
Mn6 O8 2.089 1_545 S
Mn6 O11 2.251 . S
Mn6 O12 2.087 . S
O7 Mn1 2.163 1_554 S
O7 C17 1.244 . S
O8 Mn6 2.089 1_565 S
O8 C15 1.256 . S
O9 Mn1 2.160 . S
O9 C18 1.239 . S
O10 Mn3 2.089 . S
O10 C18 1.256 1_655 S
O11 Mn6 2.251 . S
O11 C16 1.241 . S
O12 Mn6 2.087 . S
O12 C17 1.256 . S
C13 O19 1.278 1_554 S
C13 O20 1.241 1_554 S
C14 O0 1.248 1_655 S
C14 O2 1.256 . S
C15 O4 1.239 1_554 S
C15 O8 1.256 . S
C16 O5 1.278 . S
C16 O11 1.241 . S
C17 O7 1.244 . S
C17 O12 1.256 . S
C18 O9 1.239 . S
C18 O10 1.256 1_455 S
O19 Mn1 2.221 1_665 S
O19 Mn3 2.290 1_565 S
O19 C13 1.278 1_556 S
O20 Mn3 2.251 1_565 S
O20 C13 1.241 1_556 S
O21 Mn22 2.163 . S
O21 C35 1.244 . S
Mn22 O21 2.163 . S
Mn22 O25 2.160 . S
Mn22 O26 2.221 . S
Mn22 O28 2.163 . S
Mn22 O30 2.160 . S
Mn22 O40 2.221 . S
O23 Mn24 2.087 . S
O23 C35 1.256 . S
Mn24 O23 2.087 . S
Mn24 O31 2.089 . S
Mn24 O40 2.290 . S
Mn24 O41 2.251 . S
O25 Mn22 2.160 . S
O25 C36 1.239 . S
O26 Mn22 2.221 . S
O26 Mn27 2.290 . S
O26 C37 1.278 . S
Mn27 O26 2.290 . S
Mn27 O29 2.089 . S
Mn27 O32 2.251 . S
Mn27 O33 2.087 . S
O28 Mn22 2.163 . S
O28 C38 1.244 . S
O29 Mn27 2.089 . S
O29 C36 1.256 . S
O30 Mn22 2.160 . S
O30 C39 1.239 . S
O31 Mn24 2.089 . S
O31 C39 1.256 . S
O32 Mn27 2.251 . S
O32 C37 1.241 . S
O33 Mn27 2.087 . S
O33 C38 1.256 . S
C34 O40 1.278 . S
C34 O41 1.241 . S
C35 O21 1.244 . S
C35 O23 1.256 . S
C36 O25 1.239 . S
C36 O29 1.256 . S
C37 O26 1.278 . S
C37 O32 1.241 . S
C38 O28 1.244 . S
C38 O33 1.256 . S
C39 O30 1.239 . S
C39 O31 1.256 . S
O40 Mn22 2.221 . S
O40 Mn24 2.290 . S
O40 C34 1.278 . S
O41 Mn24 2.251 . S
O41 C34 1.241 . S
C42 N43 1.317 1_545 S
C42 N44 1.348 1_455 S
C42 C45 1.485 1_545 S
N43 C42 1.317 1_565 S
N43 N47 1.370 1_565 S
N44 C42 1.348 1_655 S
N44 C46 1.346 . S
C45 C42 1.485 1_565 S
C45 H49 0.960 . S
C45 H50 0.961 1_565 S
C45 H51 0.960 . S
C46 N44 1.346 . S
C46 N47 1.307 1_655 S
C46 C48 1.486 . S
N47 N43 1.370 1_545 S
N47 C46 1.307 1_455 S
C48 C46 1.486 . S
C48 H52 0.960 . S
C48 H53 0.960 . S
C48 H54 0.959 . S
H49 C45 0.960 . S
H50 C45 0.961 1_545 S
H51 C45 0.960 . S
H52 C48 0.960 . S
H53 C48 0.960 . S
H54 C48 0.959 . S
C55 N56 1.317 . S
C55 N57 1.348 1_455 S
C55 C58 1.485 . S
N56 C55 1.317 . S
N56 N60 1.370 . S
N57 C55 1.348 1_655 S
N57 C59 1.346 . S
C58 C55 1.485 . S
C58 H62 0.960 1_455 S
C58 H63 0.961 . S
C58 H64 0.960 . S
C59 N57 1.346 . S
C59 N60 1.307 1_655 S
C59 C61 1.486 . S
N60 N56 1.370 . S
N60 C59 1.307 1_455 S
C61 C59 1.486 . S
C61 H65 0.960 1_545 S
C61 H66 0.960 . S
C61 H67 0.959 . S
H62 C58 0.960 1_655 S
H63 C58 0.961 . S
H64 C58 0.960 . S
H65 C61 0.960 1_565 S
H66 C61 0.960 . S
H67 C61 0.959 . S
C68 N69 1.317 . S
C68 N70 1.348 . S
C68 C71 1.485 1_556 S
N69 C68 1.317 . S
N69 N73 1.370 . S
N70 C68 1.348 . S
N70 C72 1.346 . S
C71 C68 1.485 1_554 S
C71 H75 0.960 . S
C71 H76 0.961 . S
C71 H77 0.960 . S
C72 N70 1.346 . S
C72 N73 1.307 . S
C72 C74 1.486 . S
N73 N69 1.370 . S
N73 C72 1.307 . S
C74 C72 1.486 . S
C74 H78 0.960 . S
C74 H79 0.960 . S
C74 H80 0.959 . S
H75 C71 0.960 . S
H76 C71 0.961 . S
H77 C71 0.960 . S
H78 C74 0.960 . S
H79 C74 0.960 . S
H80 C74 0.959 . S
C81 N82 1.317 . S
C81 N83 1.348 . S
C81 C84 1.485 1_554 S
N82 C81 1.317 . S
N82 N86 1.370 . S
N83 C81 1.348 . S
N83 C85 1.346 . S
C84 C81 1.485 1_556 S
C84 H88 0.960 . S
C84 H89 0.961 . S
C84 H90 0.960 . S
C85 N83 1.346 . S
C85 N86 1.307 . S
C85 C87 1.486 . S
N86 N82 1.370 . S
N86 C85 1.307 . S
C87 C85 1.486 . S
C87 H91 0.960 . S
C87 H92 0.960 . S
C87 H93 0.959 . S
H88 C84 0.960 . S
H89 C84 0.961 . S
H90 C84 0.960 . S
H91 C87 0.960 . S
H92 C87 0.960 . S
H93 C87 0.959 . S
H94 C102 0.950 . S
H95 C107 0.950 . S
H96 C104 0.950 . S
H97 C106 0.950 . S
H98 C108 0.950 . S
H99 C110 0.950 . S
H100 C112 0.950 1_556 S
H101 C113 0.950 1_556 S
C102 H94 0.950 . S
C102 C103 1.386 1_556 S
C102 C104 1.391 . S
C103 C102 1.386 1_554 S
C103 C107 1.393 . S
C104 H96 0.950 . S
C104 C102 1.391 . S
C104 C105 1.400 1_556 S
C105 C104 1.400 1_554 S
C105 C106 1.398 . S
C105 C111 1.491 . S
C106 H97 0.950 . S
C106 C105 1.398 . S
C106 C107 1.391 . S
C107 H95 0.950 . S
C107 C103 1.393 . S
C107 C106 1.391 . S
C108 H98 0.950 . S
C108 C109 1.386 . S
C108 C110 1.391 . S
C109 C108 1.386 . S
C109 C113 1.393 . S
C110 H99 0.950 . S
C110 C108 1.391 . S
C110 C111 1.400 . S
C111 C105 1.491 . S
C111 C110 1.400 . S
C111 C112 1.398 . S
C112 H100 0.950 1_554 S
C112 C111 1.398 . S
C112 C113 1.391 . S
C113 H101 0.950 1_554 S
C113 C109 1.393 . S
C113 C112 1.391 . S
H114 C122 0.950 . S
H115 C127 0.950 . S
H116 C124 0.950 . S
H117 C126 0.950 . S
H118 C128 0.950 . S
H119 C130 0.950 1_554 S
H120 C132 0.950 . S
H121 C133 0.950 . S
C122 H114 0.950 . S
C122 C123 1.386 1_556 S
C122 C124 1.391 . S
C123 C122 1.386 1_554 S
C123 C127 1.393 . S
C124 H116 0.950 . S
C124 C122 1.391 . S
C124 C125 1.400 . S
C125 C124 1.400 . S
C125 C126 1.398 1_556 S
C125 C131 1.491 . S
C126 H117 0.950 . S
C126 C125 1.398 1_554 S
C126 C127 1.391 . S
C127 H115 0.950 . S
C127 C123 1.393 . S
C127 C126 1.391 . S
C128 H118 0.950 . S
C128 C129 1.386 . S
C128 C130 1.391 . S
C129 C128 1.386 . S
C129 C133 1.393 . S
C130 H119 0.950 1_556 S
C130 C128 1.391 . S
C130 C131 1.400 . S
C131 C125 1.491 . S
C131 C130 1.400 . S
C131 C132 1.398 . S
C132 H120 0.950 . S
C132 C131 1.398 . S
C132 C133 1.391 . S
C133 H121 0.950 . S
C133 C129 1.393 . S
C133 C132 1.391 . S
H134 C142 0.950 . S
H135 C147 0.950 . S
H136 C144 0.950 . S
H137 C146 0.938 1_556 S
H138 C148 0.950 1_556 S
H139 C150 0.950 1_556 S
H140 C152 0.950 . S
H141 C153 0.950 . S
C142 H134 0.950 . S
C142 C143 1.386 . S
C142 C144 1.391 . S
C143 C142 1.386 . S
C143 C147 1.393 1_554 S
C144 H136 0.950 . S
C144 C142 1.391 . S
C144 C145 1.400 . S
C145 C144 1.400 . S
C145 C146 1.412 . S
C145 C151 1.491 . S
C146 H137 0.938 1_554 S
C146 C145 1.412 . S
C146 C147 1.389 1_554 S
C147 H135 0.950 . S
C147 C143 1.393 1_556 S
C147 C146 1.389 1_556 S
C148 H138 0.950 1_554 S
C148 C149 1.386 . S
C148 C150 1.391 . S
C149 C148 1.386 . S
C149 C153 1.393 . S
C150 H139 0.950 1_554 S
C150 C148 1.391 . S
C150 C151 1.400 . S
C151 C145 1.491 . S
C151 C150 1.400 . S
C151 C152 1.398 . S
C152 H140 0.950 . S
C152 C151 1.398 . S
C152 C153 1.391 . S
C153 H141 0.950 . S
C153 C149 1.393 . S
C153 C152 1.391 . S
H154 C162 0.950 . S
H155 C167 0.950 . S
H156 C164 0.950 . S
H157 C166 0.950 . S
H158 C168 0.950 . S
H159 C170 0.950 . S
H160 C172 0.950 . S
H161 C173 0.950 . S
C162 H154 0.950 . S
C162 C163 1.386 . S
C162 C164 1.391 . S
C163 C162 1.386 . S
C163 C167 1.393 . S
C164 H156 0.950 . S
C164 C162 1.391 . S
C164 C165 1.400 . S
C165 C164 1.400 . S
C165 C166 1.398 . S
C165 C171 1.491 . S
C166 H157 0.950 . S
C166 C165 1.398 . S
C166 C167 1.391 . S
C167 H155 0.950 . S
C167 C163 1.393 . S
C167 C166 1.391 . S
C168 H158 0.950 . S
C168 C169 1.386 . S
C168 C170 1.391 . S
C169 C168 1.386 . S
C169 C173 1.393 . S
C170 H159 0.950 . S
C170 C168 1.391 . S
C170 C171 1.400 . S
C171 C165 1.491 . S
C171 C170 1.400 . S
C171 C172 1.398 . S
C172 H160 0.950 . S
C172 C171 1.398 . S
C172 C173 1.391 . S
C173 H161 0.950 . S
C173 C169 1.393 . S
C173 C172 1.391 . S
H174 C182 0.950 . S
H175 C187 0.950 . S
H176 C184 0.950 . S
H177 C186 0.950 . S
H178 C188 0.950 . S
H179 C190 0.950 . S
H180 C192 0.950 . S
H181 C193 0.950 1_545 S
C182 H174 0.950 . S
C182 C183 1.386 . S
C182 C184 1.391 . S
C183 C182 1.386 . S
C183 C187 1.393 . S
C184 H176 0.950 . S
C184 C182 1.391 . S
C184 C185 1.400 . S
C185 C184 1.400 . S
C185 C186 1.398 . S
C185 C191 1.491 . S
C186 H177 0.950 . S
C186 C185 1.398 . S
C186 C187 1.391 . S
C187 H175 0.950 . S
C187 C183 1.393 . S
C187 C186 1.391 . S
C188 H178 0.950 . S
C188 C189 1.386 . S
C188 C190 1.391 . S
C189 C188 1.386 . S
C189 C193 1.393 . S
C190 H179 0.950 . S
C190 C188 1.391 . S
C190 C191 1.400 . S
C191 C185 1.491 . S
C191 C190 1.400 . S
C191 C192 1.398 . S
C192 H180 0.950 . S
C192 C191 1.398 . S
C192 C193 1.391 . S
C193 H181 0.950 1_565 S
C193 C189 1.393 . S
C193 C192 1.391 . S
H194 C202 0.950 . S
H195 C207 0.950 . S
H196 C204 0.950 . S
H197 C206 0.950 . S
H198 C208 0.950 . S
H199 C210 0.950 . S
H200 C212 0.950 . S
H201 C213 0.950 1_455 S
C202 H194 0.950 . S
C202 C203 1.386 . S
C202 C204 1.391 . S
C203 C202 1.386 . S
C203 C207 1.393 . S
C204 H196 0.950 . S
C204 C202 1.391 . S
C204 C205 1.400 . S
C205 C204 1.400 . S
C205 C206 1.398 . S
C205 C211 1.491 . S
C206 H197 0.950 . S
C206 C205 1.398 . S
C206 C207 1.391 . S
C207 H195 0.950 . S
C207 C203 1.393 . S
C207 C206 1.391 . S
C208 H198 0.950 . S
C208 C209 1.386 . S
C208 C210 1.391 . S
C209 C208 1.386 . S
C209 C213 1.393 . S
C210 H199 0.950 . S
C210 C208 1.391 . S
C210 C211 1.400 . S
C211 C205 1.491 . S
C211 C210 1.400 . S
C211 C212 1.398 . S
C212 H200 0.950 . S
C212 C211 1.398 . S
C212 C213 1.391 . S
C213 H201 0.950 1_655 S
C213 C209 1.393 . S
C213 C212 1.391 . S
H214 C222 0.950 . S
H215 C227 0.950 . S
H216 C224 0.950 . S
H217 C226 0.950 . S
H218 C228 0.950 . S
H219 C230 0.950 . S
H220 C232 0.950 . S
H221 C233 0.950 . S
C222 H214 0.950 . S
C222 C223 1.386 . S
C222 C224 1.391 . S
C223 C222 1.386 . S
C223 C227 1.393 . S
C224 H216 0.950 . S
C224 C222 1.391 . S
C224 C225 1.400 . S
C225 C224 1.400 . S
C225 C226 1.398 . S
C225 C231 1.491 . S
C226 H217 0.950 . S
C226 C225 1.398 . S
C226 C227 1.391 . S
C227 H215 0.950 . S
C227 C223 1.393 . S
C227 C226 1.391 . S
C228 H218 0.950 . S
C228 C229 1.386 . S
C228 C230 1.391 . S
C229 C228 1.386 . S
C229 C233 1.393 . S
C230 H219 0.950 . S
C230 C228 1.391 . S
C230 C231 1.400 . S
C231 C225 1.491 . S
C231 C230 1.400 . S
C231 C232 1.398 . S
C232 H220 0.950 . S
C232 C231 1.398 . S
C232 C233 1.391 . S
C233 H221 0.950 . S
C233 C229 1.393 . S
C233 C232 1.391 . S
H234 C242 0.950 . S
H235 C247 0.950 . S
H236 C244 0.950 . S
H237 C246 0.950 . S
H238 C248 0.950 . S
H239 C250 0.950 . S
H240 C252 0.950 . S
H241 C253 0.950 . S
C242 H234 0.950 . S
C242 C243 1.386 . S
C242 C244 1.391 . S
C243 C242 1.386 . S
C243 C247 1.393 . S
C244 H236 0.950 . S
C244 C242 1.391 . S
C244 C245 1.400 . S
C245 C244 1.400 . S
C245 C246 1.398 . S
C245 C251 1.491 . S
C246 H237 0.950 . S
C246 C245 1.398 . S
C246 C247 1.391 . S
C247 H235 0.950 . S
C247 C243 1.393 . S
C247 C246 1.391 . S
C248 H238 0.950 . S
C248 C249 1.386 . S
C248 C250 1.391 . S
C249 C248 1.386 . S
C249 C253 1.393 . S
C250 H239 0.950 . S
C250 C248 1.391 . S
C250 C251 1.400 . S
C251 C245 1.491 . S
C251 C250 1.400 . S
C251 C252 1.398 . S
C252 H240 0.950 . S
C252 C251 1.398 . S
C252 C253 1.391 . S
C253 H241 0.950 . S
C253 C249 1.393 . S
C253 C252 1.391 . S
H254 C262 0.950 . S
H255 C267 0.950 1_655 S
H256 C264 0.950 . S
H257 C266 0.950 1_655 S
H258 C268 0.950 1_655 S
H259 C270 0.950 1_655 S
H260 C272 0.950 . S
H261 C273 0.950 . S
C262 H254 0.950 . S
C262 C263 1.386 . S
C262 C264 1.391 . S
C263 C262 1.386 . S
C263 C267 1.393 1_545 S
C264 H256 0.950 . S
C264 C262 1.391 . S
C264 C265 1.400 . S
C265 C264 1.400 . S
C265 C266 1.398 1_545 S
C265 C271 1.491 1_545 S
C266 H257 0.950 1_455 S
C266 C265 1.398 1_565 S
C266 C267 1.391 . S
C267 H255 0.950 1_455 S
C267 C263 1.393 1_565 S
C267 C266 1.391 . S
C268 H258 0.950 1_455 S
C268 C269 1.386 . S
C268 C270 1.391 . S
C269 C268 1.386 . S
C269 C273 1.393 1_565 S
C270 H259 0.950 1_455 S
C270 C268 1.391 . S
C270 C271 1.400 . S
C271 C265 1.491 1_565 S
C271 C270 1.400 . S
C271 C272 1.398 1_565 S
C272 H260 0.950 . S
C272 C271 1.398 1_545 S
C272 C273 1.391 . S
C273 H261 0.950 . S
C273 C269 1.393 1_545 S
C273 C272 1.391 . S
H274 C282 0.950 . S
H275 C287 0.950 1_655 S
H276 C284 0.950 . S
H277 C286 0.950 . S
H278 C288 0.950 . S
H279 C290 0.950 . S
H280 C292 0.950 . S
H281 C293 0.950 . S
C282 H274 0.950 . S
C282 C283 1.386 . S
C282 C284 1.391 . S
C283 C282 1.386 . S
C283 C287 1.393 . S
C284 H276 0.950 . S
C284 C282 1.391 . S
C284 C285 1.400 . S
C285 C284 1.400 . S
C285 C286 1.398 1_455 S
C285 C291 1.491 . S
C286 H277 0.950 . S
C286 C285 1.398 1_655 S
C286 C287 1.391 1_655 S
C287 H275 0.950 1_455 S
C287 C283 1.393 . S
C287 C286 1.391 1_455 S
C288 H278 0.950 . S
C288 C289 1.386 1_655 S
C288 C290 1.391 . S
C289 C288 1.386 1_455 S
C289 C293 1.393 . S
C290 H279 0.950 . S
C290 C288 1.391 . S
C290 C291 1.400 1_655 S
C291 C285 1.491 . S
C291 C290 1.400 1_455 S
C291 C292 1.398 . S
C292 H280 0.950 . S
C292 C291 1.398 . S
C292 C293 1.391 . S
C293 H281 0.950 . S
C293 C289 1.393 . S
C293 C292 1.391 . S
H294 C302 0.950 . S
H295 C307 0.950 . S
H296 C304 0.950 . S
H297 C306 0.950 . S
H298 C308 0.950 . S
H299 C310 0.950 . S
H300 C312 0.950 . S
H301 C313 0.950 . S
C302 H294 0.950 . S
C302 C303 1.386 . S
C302 C304 1.391 . S
C303 C302 1.386 . S
C303 C307 1.393 . S
C304 H296 0.950 . S
C304 C302 1.391 . S
C304 C305 1.400 . S
C305 C304 1.400 . S
C305 C306 1.398 . S
C305 C311 1.491 . S
C306 H297 0.950 . S
C306 C305 1.398 . S
C306 C307 1.391 . S
C307 H295 0.950 . S
C307 C303 1.393 . S
C307 C306 1.391 . S
C308 H298 0.950 . S
C308 C309 1.386 . S
C308 C310 1.391 . S
C309 C308 1.386 . S
C309 C313 1.393 . S
C310 H299 0.950 . S
C310 C308 1.391 . S
C310 C311 1.400 . S
C311 C305 1.491 . S
C311 C310 1.400 . S
C311 C312 1.398 . S
C312 H300 0.950 . S
C312 C311 1.398 . S
C312 C313 1.391 . S
C313 H301 0.950 . S
C313 C309 1.393 . S
C313 C312 1.391 . S
H314 C322 0.950 . S
H315 C327 0.950 . S
H316 C324 0.950 . S
H317 C326 0.950 . S
H318 C328 0.950 . S
H319 C330 0.950 . S
H320 C332 0.950 . S
H321 C333 0.950 . S
C322 H314 0.950 . S
C322 C323 1.386 . S
C322 C324 1.391 . S
C323 C322 1.386 . S
C323 C327 1.393 . S
C324 H316 0.950 . S
C324 C322 1.391 . S
C324 C325 1.400 . S
C325 C324 1.400 . S
C325 C326 1.398 . S
C325 C331 1.491 . S
C326 H317 0.950 . S
C326 C325 1.398 . S
C326 C327 1.391 . S
C327 H315 0.950 . S
C327 C323 1.393 . S
C327 C326 1.391 . S
C328 H318 0.950 . S
C328 C329 1.386 . S
C328 C330 1.391 . S
C329 C328 1.386 . S
C329 C333 1.393 . S
C330 H319 0.950 . S
C330 C328 1.391 . S
C330 C331 1.400 . S
C331 C325 1.491 . S
C331 C330 1.400 . S
C331 C332 1.398 . S
C332 H320 0.950 . S
C332 C331 1.398 . S
C332 C333 1.391 . S
C333 H321 0.950 . S
C333 C329 1.393 . S
C333 C332 1.391 . S
C109 N83 1.380 . S
C103 C16 1.192 . S
C123 C15 1.433 . S
C129 N70 1.422 . S
C143 C13 1.310 . S
C149 N82 1.531 . S
C163 C14 1.405 . S
C169 N69 1.473 . S
C183 C37 1.178 . S
C189 N57 1.384 1_565 S
C203 C36 1.433 . S
C209 N44 1.422 . S
C229 N56 1.540 . S
C223 C34 1.318 . S
C249 N43 1.469 . S
C243 C35 1.395 . S
C263 C17 1.559 . S
C269 N47 1.593 1_565 S
C283 C18 1.398 . S
C289 N60 1.454 . S
C309 N73 1.576 . S
C303 C38 1.563 . S
C323 C39 1.413 . S
C329 N86 1.452 . S
