# Generated by pormake.
# Topology pyr, (3,6)-cn, num edge types: 1
# Building blocks:
#     Node 0, Type 0, BuildingBlock: ESEHIV_clean_linker_0, # of connection points: 3
#     Node 1, Type 0, BuildingBlock: ESEHIV_clean_linker_0, # of connection points: 3
#     Node 2, Type 0, BuildingBlock: ESEHIV_clean_linker_0, # of connection points: 3
#     Node 3, Type 0, BuildingBlock: ESEHIV_clean_linker_0, # of connection points: 3
#     Node 4, Type 0, BuildingBlock: ESEHIV_clean_linker_0, # of connection points: 3
#     Node 5, Type 0, BuildingBlock: ESEHIV_clean_linker_0, # of connection points: 3
#     Node 6, Type 0, BuildingBlock: ESEHIV_clean_linker_0, # of connection points: 3
#     Node 7, Type 0, BuildingBlock: ESEHIV_clean_linker_0, # of connection points: 3
#     Node 8, Type 1, BuildingBlock: GEDQOX_clean_sbu_0, # of connection points: 6
#     Node 9, Type 1, BuildingBlock: GEDQOX_clean_sbu_0, # of connection points: 6
#     Node 10, Type 1, BuildingBlock: GEDQOX_clean_sbu_0, # of connection points: 6
#     Node 11, Type 1, BuildingBlock: GEDQOX_clean_sbu_0, # of connection points: 6
#     Edge 12, Type (0, 1), BuildingBlock: UVAHIK_clean_linker_0, # of connection points: 2
#     Edge 13, Type (0, 1), BuildingBlock: UVAHIK_clean_linker_0, # of connection points: 2
#     Edge 14, Type (0, 1), BuildingBlock: UVAHIK_clean_linker_0, # of connection points: 2
#     Edge 15, Type (0, 1), BuildingBlock: UVAHIK_clean_linker_0, # of connection points: 2
#     Edge 16, Type (0, 1), BuildingBlock: UVAHIK_clean_linker_0, # of connection points: 2
#     Edge 17, Type (0, 1), BuildingBlock: UVAHIK_clean_linker_0, # of connection points: 2
#     Edge 18, Type (0, 1), BuildingBlock: UVAHIK_clean_linker_0, # of connection points: 2
#     Edge 19, Type (0, 1), BuildingBlock: UVAHIK_clean_linker_0, # of connection points: 2
#     Edge 20, Type (0, 1), BuildingBlock: UVAHIK_clean_linker_0, # of connection points: 2
#     Edge 21, Type (0, 1), BuildingBlock: UVAHIK_clean_linker_0, # of connection points: 2
#     Edge 22, Type (0, 1), BuildingBlock: UVAHIK_clean_linker_0, # of connection points: 2
#     Edge 23, Type (0, 1), BuildingBlock: UVAHIK_clean_linker_0, # of connection points: 2
#     Edge 24, Type (0, 1), BuildingBlock: UVAHIK_clean_linker_0, # of connection points: 2
#     Edge 25, Type (0, 1), BuildingBlock: UVAHIK_clean_linker_0, # of connection points: 2
#     Edge 26, Type (0, 1), BuildingBlock: UVAHIK_clean_linker_0, # of connection points: 2
#     Edge 27, Type (0, 1), BuildingBlock: UVAHIK_clean_linker_0, # of connection points: 2
#     Edge 28, Type (0, 1), BuildingBlock: UVAHIK_clean_linker_0, # of connection points: 2
#     Edge 29, Type (0, 1), BuildingBlock: UVAHIK_clean_linker_0, # of connection points: 2
#     Edge 30, Type (0, 1), BuildingBlock: UVAHIK_clean_linker_0, # of connection points: 2
#     Edge 31, Type (0, 1), BuildingBlock: UVAHIK_clean_linker_0, # of connection points: 2
#     Edge 32, Type (0, 1), BuildingBlock: UVAHIK_clean_linker_0, # of connection points: 2
#     Edge 33, Type (0, 1), BuildingBlock: UVAHIK_clean_linker_0, # of connection points: 2
#     Edge 34, Type (0, 1), BuildingBlock: UVAHIK_clean_linker_0, # of connection points: 2
#     Edge 35, Type (0, 1), BuildingBlock: UVAHIK_clean_linker_0, # of connection points: 2
# Relax obj value: 0.102
# Max RMSD: 0.153
# Mean RMSD: 0.061
data_MOF--net-pyr--node1-GEDQOX_clean_sbu_0--node2-ESEHIV_clean_linker_0--edge1-UVAHIK_clean_linker_0
_symmetry_space_group_name_H-M    P1
_symmetry_Int_Tables_number       1
_symmetry_cell_setting            triclinic
loop_
_symmetry_equiv_pos_as_xyz
'x, y, z'
_cell_length_a     48.702568
_cell_length_b     49.156097
_cell_length_c     43.096821
_cell_angle_alpha  87.27592
_cell_angle_beta   90.419553
_cell_angle_gamma 86.663778
loop_
_atom_site_label
_atom_site_type_symbol
_atom_site_fract_x
_atom_site_fract_y
_atom_site_fract_z
_atom_type_partial_charge
H0 H 0.16048 0.20619 0.19486 0.0
H1 H 0.2229 0.14096 0.19474 0.0
H2 H 0.22577 0.20921 0.12823 0.0
C3 C 0.17877 0.19691 0.18467 0.0
C4 C 0.19103 0.21054 0.15916 0.0
C5 C 0.19015 0.17195 0.19797 0.0
C6 C 0.21471 0.1606 0.18536 0.0
C7 C 0.22824 0.17375 0.16028 0.0
C8 C 0.21596 0.19879 0.14744 0.0
H9 H 0.3363 0.8174 0.78991 0.0
H10 H 0.40949 0.76374 0.79144 0.0
H11 H 0.34159 0.74931 0.73121 0.0
C12 C 0.34771 0.7996 0.78172 0.0
C13 C 0.33566 0.78398 0.7595 0.0
C14 C 0.3744 0.79263 0.79329 0.0
C15 C 0.3888 0.76914 0.78294 0.0
C16 C 0.37684 0.75305 0.76092 0.0
C17 C 0.35031 0.76071 0.74942 0.0
H18 H 0.74716 0.38862 0.91132 0.0
H19 H 0.74461 0.44271 0.82929 0.0
H20 H 0.67715 0.39268 0.85016 0.0
C21 C 0.73682 0.39718 0.89043 0.0
C22 C 0.71082 0.38846 0.88293 0.0
C23 C 0.74932 0.41686 0.87135 0.0
C24 C 0.73515 0.42793 0.84459 0.0
C25 C 0.70882 0.41973 0.83725 0.0
C26 C 0.69688 0.40003 0.85656 0.0
H27 H 0.84529 0.79016 0.35452 0.0
H28 H 0.87037 0.82078 0.26424 0.0
H29 H 0.82018 0.75196 0.27224 0.0
C30 C 0.84531 0.78911 0.32946 0.0
C31 C 0.83097 0.76885 0.3156 0.0
C32 C 0.85937 0.80819 0.31117 0.0
C33 C 0.85895 0.80679 0.27861 0.0
C34 C 0.8443 0.78686 0.26458 0.0
C35 C 0.83034 0.76813 0.28316 0.0
H36 H 0.83162 0.90223 0.84551 0.0
H37 H 0.89507 0.83763 0.84622 0.0
H38 H 0.83052 0.83519 0.9138 0.0
C39 C 0.84064 0.88316 0.85562 0.0
C40 C 0.82777 0.87037 0.88139 0.0
C41 C 0.86505 0.87167 0.84271 0.0
C42 C 0.87646 0.84667 0.85596 0.0
C43 C 0.86429 0.8331 0.88154 0.0
C44 C 0.83998 0.8453 0.8941 0.0
H45 H 0.64856 0.27612 0.25268 0.0
H46 H 0.72424 0.22863 0.23799 0.0
H47 H 0.71915 0.28579 0.31037 0.0
C48 C 0.66994 0.27079 0.25851 0.0
C49 C 0.6823 0.28335 0.28319 0.0
C50 C 0.68487 0.25078 0.24209 0.0
C51 C 0.71263 0.24419 0.25018 0.0
C52 C 0.7253 0.25693 0.27454 0.0
C53 C 0.70988 0.27638 0.29092 0.0
H54 H 0.31431 0.65884 0.1384 0.0
H55 H 0.31403 0.59775 0.21352 0.0
H56 H 0.38362 0.64667 0.20094 0.0
C57 C 0.32462 0.64795 0.15804 0.0
C58 C 0.35044 0.65563 0.168 0.0
C59 C 0.31141 0.62706 0.17439 0.0
C60 C 0.32422 0.61374 0.20074 0.0
C61 C 0.35049 0.62052 0.21004 0.0
C62 C 0.36344 0.64125 0.19345 0.0
H63 H 0.19195 0.21639 0.76849 0.0
H64 H 0.21698 0.24574 0.6778 0.0
H65 H 0.23921 0.28718 0.75895 0.0
C66 C 0.20308 0.23044 0.75387 0.0
C67 C 0.217 0.25114 0.76747 0.0
C68 C 0.20274 0.22852 0.72138 0.0
C69 C 0.21662 0.24749 0.70276 0.0
C70 C 0.22989 0.26876 0.71602 0.0
C71 C 0.23014 0.27019 0.74842 0.0
Nd72 Nd 0.044 0.99358 0.51403 0.0
Nd73 Nd 1.01056 0.04537 0.52323 0.0
C74 C 0.06271 0.94258 0.50788 0.0
C75 C 0.07513 0.92149 0.5296 0.0
C76 C 0.08661 0.89708 0.51856 0.0
C77 C 0.1021 0.87878 0.5385 0.0
C78 C 0.10647 0.88479 0.56972 0.0
C79 C 0.09365 0.90872 0.58095 0.0
C80 C 0.07811 0.9269 0.56104 0.0
C81 C 0.06965 0.02897 0.55043 0.0
C82 C 1.00106 0.99674 0.57385 0.0
C83 C 0.99088 0.0963 0.52684 0.0
C84 C 0.98029 0.11615 0.50256 0.0
C85 C 0.96331 0.13877 0.51023 0.0
C86 C 0.94975 0.15518 0.48678 0.0
C87 C 0.95287 0.14897 0.45541 0.0
C88 C 0.97101 0.12705 0.44786 0.0
C89 C 0.98455 0.11074 0.47124 0.0
C90 C 0.98567 1.00953 0.48646 0.0
C91 C 0.05394 0.04277 0.46412 0.0
O92 O 0.03671 0.94953 0.51205 0.0
O93 O 0.07756 0.9636 0.50277 0.0
O94 O 0.08251 1.01359 0.53103 0.0
O95 O 0.04464 0.02406 0.5518 0.0
O96 O 1.01368 0.98107 0.55345 0.0
O97 O 1.00086 0.0236 0.57002 0.0
O98 O 1.01722 0.08946 0.52597 0.0
O99 O 0.97593 0.07527 0.53135 0.0
O100 O 0.97244 0.02422 0.50621 0.0
O101 O 1.01042 1.01515 0.48536 0.0
O102 O 0.04149 0.05822 0.48478 0.0
O103 O 0.05377 1.01591 0.46747 0.0
H104 H 0.08447 0.89266 0.4943 0.0
H105 H 0.11137 0.86035 0.52925 0.0
H106 H 0.09687 0.91422 0.60468 0.0
H107 H 0.06947 0.94582 0.56984 0.0
H108 H 0.95962 0.14304 0.53433 0.0
H109 H 0.9357 0.1718 0.49329 0.0
H110 H 0.97404 0.12197 0.42389 0.0
H111 H 0.99744 0.09321 0.46489 0.0
Nd112 Nd 0.53183 1.00495 0.04539 0.0
Nd113 Nd 0.52387 0.0395 0.99224 0.0
C114 C 0.53947 0.96281 0.08563 0.0
C115 C 0.52887 0.93535 0.08753 0.0
C116 C 0.52828 0.91949 0.06127 0.0
C117 C 0.51581 0.89459 0.06264 0.0
C118 C 0.50369 0.8851 0.09028 0.0
C119 C 0.50477 0.90083 0.11667 0.0
C120 C 0.51727 0.92571 0.11528 0.0
C121 C 0.48749 0.04237 0.05226 0.0
C122 C 0.49538 0.98439 0.98757 0.0
C123 C 0.51659 0.08187 0.95233 0.0
C124 C 0.53007 0.108 0.94913 0.0
C125 C 0.52667 0.12766 0.97171 0.0
C126 C 0.54195 0.15085 0.97031 0.0
C127 C 0.56101 0.15472 0.94647 0.0
C128 C 0.56378 0.13555 0.92338 0.0
C129 C 0.54832 0.11248 0.9246 0.0
C130 C 0.56848 1.00235 0.9854 0.0
C131 C 0.56035 0.06033 0.05003 0.0
O132 O 0.55642 0.96804 0.06307 0.0
O133 O 0.5213 0.98288 0.08944 0.0
O134 O 0.50706 0.03714 0.07261 0.0
O135 O 0.4921 0.0287 0.02836 0.0
O136 O 0.51242 0.97691 1.0107 0.0
O137 O 0.49239 1.01012 0.978 0.0
O138 O 0.50122 0.0782 0.97671 0.0
O139 O 0.53195 0.06008 0.94655 0.0
O140 O 0.54915 1.00784 0.96484 0.0
O141 O 0.56361 1.01584 1.00938 0.0
O142 O 0.54397 0.06759 0.02625 0.0
O143 O 0.56271 0.03477 0.06043 0.0
H144 H 0.53702 0.9265 0.0395 0.0
H145 H 0.51563 0.88282 0.04203 0.0
H146 H 0.49529 0.8943 0.1382 0.0
H147 H 0.51728 0.93775 0.1357 0.0
H148 H 0.51282 0.12484 0.99099 0.0
H149 H 0.53955 0.16527 0.98848 0.0
H150 H 0.57809 0.13829 0.90452 0.0
H151 H 0.55123 0.09773 0.90684 0.0
Nd152 Nd 0.50467 0.50422 0.51989 0.0
Nd153 Nd 0.55788 0.53593 0.52328 0.0
C154 C 0.45435 0.48917 0.51012 0.0
C155 C 0.42961 0.48317 0.52779 0.0
C156 C 0.40361 0.48949 0.51435 0.0
C157 C 0.37997 0.48135 0.52952 0.0
C158 C 0.38204 0.46654 0.55829 0.0
C159 C 0.40819 0.46132 0.5722 0.0
C160 C 0.43172 0.46971 0.55719 0.0
C161 C 0.54038 0.48689 0.56721 0.0
C162 C 0.5056 0.55837 0.56231 0.0
C163 C 0.60797 0.55166 0.53336 0.0
C164 C 0.63317 0.55666 0.51634 0.0
C165 C 0.65342 0.57114 0.53033 0.0
C166 C 0.67597 0.57932 0.51326 0.0
C167 C 0.6786 0.57313 0.48185 0.0
C168 C 0.65886 0.55736 0.46837 0.0
C169 C 0.63623 0.54925 0.48549 0.0
C170 C 0.52182 0.55297 0.47607 0.0
C171 C 0.55691 0.48161 0.48107 0.0
O172 O 0.46076 0.51468 0.50789 0.0
O173 O 0.4757 0.47194 0.51469 0.0
O174 O 0.52448 0.47056 0.55384 0.0
O175 O 0.5348 0.51112 0.55783 0.0
O176 O 0.49037 0.54247 0.54622 0.0
O177 O 0.53272 0.5565 0.56106 0.0
O178 O 0.60141 0.52624 0.53703 0.0
O179 O 0.58689 0.5686 0.52627 0.0
O180 O 0.53741 0.56955 0.48949 0.0
O181 O 0.52784 0.52887 0.48548 0.0
O182 O 0.57228 0.49752 0.49703 0.0
O183 O 0.5298 0.48382 0.48213 0.0
H184 H 0.40164 0.50008 0.49174 0.0
H185 H 0.36015 0.48613 0.5184 0.0
H186 H 0.41073 0.44963 0.59407 0.0
H187 H 0.45163 0.4648 0.56808 0.0
H188 H 0.6512 0.57709 0.55412 0.0
H189 H 0.69053 0.59175 0.52424 0.0
H190 H 0.66049 0.55201 0.44434 0.0
H191 H 0.62068 0.53803 0.4744 0.0
Nd192 Nd 1.00632 0.51851 0.04307 0.0
Nd193 Nd 0.05322 0.52844 1.0006 0.0
C194 C 0.9567 0.51905 0.06698 0.0
C195 C 0.9382 0.54318 0.07133 0.0
C196 C 0.9098 0.54113 0.07492 0.0
C197 C 0.89257 0.56479 0.07737 0.0
C198 C 0.90358 0.59067 0.07565 0.0
C199 C 0.93201 0.59247 0.07186 0.0
C200 C 0.94913 0.56898 0.06991 0.0
C201 C 0.04965 0.54173 0.07027 0.0
C202 C 1.00679 0.57708 0.99958 0.0
C203 C 0.10201 0.52633 0.97477 0.0
C204 C 0.11706 0.50086 0.96699 0.0
C205 C 0.14471 0.49987 0.95816 0.0
C206 C 0.15814 0.47481 0.95139 0.0
C207 C 0.14406 0.45052 0.95376 0.0
C208 C 0.11658 0.45182 0.9635 0.0
C209 C 0.10317 0.47668 0.96949 0.0
C210 C 1.00985 0.50517 0.97353 0.0
C211 C 0.05294 0.47009 0.04476 0.0
O212 O 0.9615 0.51389 0.03795 0.0
O213 O 0.97913 0.51744 0.08405 0.0
O214 O 0.03609 0.52273 0.084 0.0
O215 O 0.03975 0.54845 0.04377 0.0
O216 O 0.99224 0.55823 1.01368 0.0
O217 O 0.0335 0.57224 0.99539 0.0
O218 O 0.09865 0.52925 1.00455 0.0
O219 O 0.07927 0.53193 0.95881 0.0
O220 O 1.02334 0.52416 0.95982 0.0
O221 O 1.01991 0.49844 0.99993 0.0
O222 O 0.06743 0.48891 0.03049 0.0
O223 O 1.02629 0.47494 0.04913 0.0
H224 H 0.90102 0.52137 0.07576 0.0
H225 H 0.8707 0.5629 0.08045 0.0
H226 H 0.94116 0.61205 0.07114 0.0
H227 H 0.97102 0.57101 0.06727 0.0
H228 H 0.15576 0.51836 0.95624 0.0
H229 H 0.17927 0.47455 0.94373 0.0
H230 H 0.10522 0.43359 0.96641 0.0
H231 H 0.08174 0.47699 0.97601 0.0
C232 C 0.19168 0.14431 0.24963 0.0
C233 C 0.17627 0.15785 0.22509 0.0
C234 C 0.17866 0.13176 0.27518 0.0
C235 C 0.11086 0.13068 0.31638 0.0
H236 H 0.14311 0.06392 0.35623 0.0
C237 C 0.0675 0.08445 0.43211 0.0
C238 C 0.06777 0.05585 0.4366 0.0
C239 C 0.08065 0.09672 0.4065 0.0
C240 C 0.13358 0.08244 0.34533 0.0
H241 H 0.1346 0.16782 0.20841 0.0
H242 H 0.11209 0.1461 0.25253 0.0
H243 H 0.1656 0.08485 0.31153 0.0
H244 H 0.08226 0.01789 0.41701 0.0
H245 H 0.1048 0.03912 0.37245 0.0
H246 H 0.07855 0.12799 0.34975 0.0
C247 C 0.13434 0.14561 0.25246 0.0
C248 C 0.14677 0.09473 0.31976 0.0
C249 C 0.14735 0.15814 0.22695 0.0
C250 C 0.08159 0.03995 0.41455 0.0
C251 C 0.09476 0.05221 0.38896 0.0
C252 C 0.0977 0.11842 0.34197 0.0
C253 C 0.14972 0.13225 0.27716 0.0
C254 C 0.13565 0.11907 0.30474 0.0
C255 C 0.09458 0.08085 0.38443 0.0
C256 C 0.10877 0.09404 0.35695 0.0
H257 H 0.21394 0.14386 0.2495 0.0
H258 H 0.19141 0.12213 0.29374 0.0
H259 H 0.10165 0.14953 0.30594 0.0
H260 H 0.05717 0.0975 0.44849 0.0
H261 H 0.08022 0.11877 0.40434 0.0
C262 C 0.40249 0.80004 0.84121 0.0
C263 C 0.38738 0.81077 0.81505 0.0
C264 C 0.41367 0.81749 0.86212 0.0
C265 C 0.40544 0.88832 0.88753 0.0
H266 H 0.47966 0.87488 0.92008 0.0
C267 C 0.46383 0.9712 0.94539 0.0
C268 C 0.48087 0.96356 0.97115 0.0
C269 C 0.45138 0.95146 0.92874 0.0
C270 C 0.45874 0.87871 0.91157 0.0
H271 H 0.37329 0.84817 0.78957 0.0
H272 H 0.39266 0.87842 0.82585 0.0
H273 H 0.46041 0.84216 0.88628 0.0
H274 H 0.49766 0.92913 1.00005 0.0
H275 H 0.47574 0.8947 0.97115 0.0
H276 H 0.40381 0.92498 0.91245 0.0
C277 C 0.39533 0.8566 0.83071 0.0
C278 C 0.44773 0.85997 0.89218 0.0
C279 C 0.38425 0.83924 0.80989 0.0
C280 C 0.48475 0.93573 0.98026 0.0
C281 C 0.47232 0.91596 0.96358 0.0
C282 C 0.41642 0.90702 0.90687 0.0
C283 C 0.40993 0.84598 0.85725 0.0
C284 C 0.42111 0.86479 0.87955 0.0
C285 C 0.45566 0.92359 0.93746 0.0
C286 C 0.44334 0.90266 0.91876 0.0
H287 H 0.40514 0.7782 0.84591 0.0
H288 H 0.42471 0.80868 0.88243 0.0
H289 H 0.38465 0.89236 0.87871 0.0
H290 H 0.46043 0.99243 0.93767 0.0
H291 H 0.43896 0.95803 0.90851 0.0
C292 C 0.66565 0.43755 0.80975 0.0
C293 C 0.69396 0.43039 0.80868 0.0
C294 C 0.65067 0.4442 0.78248 0.0
C295 C 0.65644 0.46512 0.69968 0.0
H296 H 0.5859 0.43278 0.69359 0.0
C297 C 0.56356 0.45202 0.60436 0.0
C298 C 0.56007 0.47911 0.59261 0.0
C299 C 0.58167 0.4452 0.62923 0.0
C300 C 0.60568 0.44171 0.69476 0.0
H301 H 0.72902 0.4256 0.77834 0.0
H302 H 0.70279 0.43739 0.73047 0.0
H303 H 0.61421 0.4236 0.74013 0.0
H304 H 0.57306 0.52023 0.59703 0.0
H305 H 0.60441 0.50842 0.64043 0.0
H306 H 0.64789 0.4831 0.65413 0.0
C307 C 0.69224 0.43793 0.75249 0.0
C308 C 0.62173 0.43676 0.7216 0.0
C309 C 0.70726 0.43126 0.77986 0.0
C310 C 0.57535 0.49915 0.60565 0.0
C311 C 0.59347 0.49236 0.63038 0.0
C312 C 0.64032 0.47014 0.67282 0.0
C313 C 0.66366 0.44384 0.7535 0.0
C314 C 0.64714 0.44864 0.7245 0.0
C315 C 0.59666 0.46536 0.64264 0.0
C316 C 0.61465 0.45867 0.6702 0.0
H317 H 0.65495 0.43747 0.83171 0.0
H318 H 0.62881 0.44931 0.78407 0.0
H319 H 0.67589 0.4746 0.70127 0.0
H320 H 0.5521 0.43619 0.59457 0.0
H321 H 0.58392 0.42417 0.638 0.0
C322 C 0.87109 0.77518 0.21775 0.0
C323 C 0.84577 0.78285 0.23092 0.0
C324 C 0.87192 0.76307 0.18908 0.0
C325 C 0.87035 0.73682 0.12746 0.0
H326 H 0.81576 0.68244 0.12848 0.0
C327 C 0.88983 0.63962 0.06162 0.0
C328 C 0.88627 0.61588 0.0803 0.0
C329 C 0.87797 0.66477 0.06996 0.0
C330 C 0.8311 0.69754 0.12769 0.0
H331 H 0.80173 0.78697 0.22336 0.0
H332 H 0.80312 0.76699 0.17254 0.0
H333 H 0.80987 0.72093 0.16133 0.0
H334 H 0.86602 0.59941 0.12098 0.0
H335 H 0.84578 0.64308 0.13594 0.0
H336 H 0.8929 0.71192 0.09608 0.0
C337 C 0.82232 0.76934 0.18468 0.0
C338 C 0.82753 0.71997 0.14624 0.0
C339 C 0.8215 0.78104 0.21358 0.0
C340 C 0.86892 0.61735 0.10605 0.0
C341 C 0.85725 0.64248 0.11454 0.0
C342 C 0.87409 0.71418 0.1092 0.0
C343 C 0.8474 0.7587 0.17294 0.0
C344 C 0.84777 0.73923 0.14748 0.0
C345 C 0.86251 0.66666 0.09728 0.0
C346 C 0.85515 0.6936 0.11027 0.0
H347 H 0.89003 0.77616 0.2309 0.0
H348 H 0.89163 0.75501 0.18107 0.0
H349 H 0.88602 0.75158 0.12724 0.0
H350 H 0.90282 0.63893 0.04134 0.0
H351 H 0.88195 0.68286 0.05577 0.0
C352 C 0.27354 0.14498 0.16733 0.0
C353 C 0.25503 0.16114 0.14777 0.0
C354 C 0.29802 0.13264 0.15592 0.0
C355 C 0.33529 0.11588 0.08122 0.0
H356 H 0.3965 0.1002 0.13827 0.0
C357 C 0.43597 0.05366 0.04442 0.0
C358 C 0.46089 0.05759 0.0599 0.0
C359 C 0.41093 0.06662 0.05394 0.0
C360 C 0.37997 0.10468 0.12158 0.0
H361 H 0.24898 0.17656 0.10002 0.0
H362 H 0.29197 0.1565 0.08068 0.0
H363 H 0.35469 0.12272 0.15629 0.0
H364 H 0.47888 0.07932 0.09674 0.0
H365 H 0.43626 0.10274 0.11216 0.0
H366 H 0.36128 0.099 0.0461 0.0
C367 C 0.28721 0.15263 0.1049 0.0
C368 C 0.35536 0.1173 0.13227 0.0
C369 C 0.26245 0.16469 0.11626 0.0
C370 C 0.46012 0.07551 0.08443 0.0
C371 C 0.43533 0.0888 0.09356 0.0
C372 C 0.36014 0.10358 0.07038 0.0
C373 C 0.30556 0.13623 0.12446 0.0
C374 C 0.33232 0.12307 0.11246 0.0
C375 C 0.41001 0.08431 0.07899 0.0
C376 C 0.38308 0.09765 0.09033 0.0
H377 H 0.26937 0.14189 0.19182 0.0
H378 H 0.31084 0.11994 0.17204 0.0
H379 H 0.31829 0.11942 0.06495 0.0
H380 H 0.43567 0.0399 0.02554 0.0
H381 H 0.39222 0.06211 0.04205 0.0
C382 C 0.30326 0.82066 0.73554 0.0
C383 C 0.30882 0.79308 0.74477 0.0
C384 C 0.27944 0.82888 0.71862 0.0
C385 C 0.21078 0.80814 0.69524 0.0
H386 H 0.22174 0.85804 0.62459 0.0
C387 C 0.15184 0.85853 0.57713 0.0
C388 C 0.12665 0.86799 0.58959 0.0
C389 C 0.17262 0.84634 0.59643 0.0
C390 C 0.21835 0.84386 0.64401 0.0
H391 H 0.29303 0.75272 0.74485 0.0
H392 H 0.25155 0.76705 0.71478 0.0
H393 H 0.26033 0.84368 0.6587 0.0
H394 H 0.10292 0.87034 0.63188 0.0
H395 H 0.13952 0.84954 0.66573 0.0
H396 H 0.16873 0.80816 0.68009 0.0
C397 C 0.26559 0.78232 0.7208 0.0
C398 C 0.2404 0.83596 0.66385 0.0
C399 C 0.28945 0.77407 0.73776 0.0
C400 C 0.12223 0.86362 0.62162 0.0
C401 C 0.14309 0.85146 0.64097 0.0
C402 C 0.18861 0.81613 0.67535 0.0
C403 C 0.26065 0.80972 0.71046 0.0
C404 C 0.23688 0.81811 0.68975 0.0
C405 C 0.16879 0.84343 0.62868 0.0
C406 C 0.19221 0.83406 0.64949 0.0
H407 H 0.31785 0.83578 0.74032 0.0
H408 H 0.27598 0.85022 0.71141 0.0
H409 H 0.20742 0.79444 0.71509 0.0
H410 H 0.15609 0.86175 0.55264 0.0
H411 H 0.19203 0.83991 0.58619 0.0
C412 C 0.79707 0.40656 0.89302 0.0
C413 C 0.77721 0.42548 0.87933 0.0
C414 C 0.82273 0.41484 0.90208 0.0
C415 C 0.87349 0.4642 0.88686 0.0
H416 H 0.89496 0.45112 0.97335 0.0
C417 C 0.9696 0.50986 0.9374 0.0
C418 C 0.98433 0.49501 0.96131 0.0
C419 C 0.94466 0.50102 0.9267 0.0
C420 C 0.88963 0.45449 0.94899 0.0
H421 H 0.76925 0.46795 0.86392 0.0
H422 H 0.81466 0.48203 0.87861 0.0
H423 H 0.85118 0.43593 0.95517 0.0
H424 H 0.98515 0.45909 0.99242 0.0
H425 H 0.94233 0.44277 0.97278 0.0
H426 H 0.91218 0.48185 0.88014 0.0
C427 C 0.80999 0.46087 0.88253 0.0
C428 C 0.86444 0.44596 0.9387 0.0
C429 C 0.78408 0.45273 0.87399 0.0
C430 C 0.97404 0.47092 0.97401 0.0
C431 C 0.94937 0.46176 0.96291 0.0
C432 C 0.89896 0.47227 0.89697 0.0
C433 C 0.82933 0.44206 0.89702 0.0
C434 C 0.85613 0.45087 0.90762 0.0
C435 C 0.93417 0.47684 0.9393 0.0
C436 C 0.90733 0.46767 0.92825 0.0
H437 H 0.79288 0.38527 0.89675 0.0
H438 H 0.83751 0.39993 0.91289 0.0
H439 H 0.86753 0.46797 0.8627 0.0
H440 H 0.97701 0.52869 0.92746 0.0
H441 H 0.93338 0.51352 0.909 0.0
C442 C 0.83148 0.73459 0.36077 0.0
C443 C 0.81781 0.74743 0.33469 0.0
C444 C 0.82012 0.71267 0.37694 0.0
C445 C 0.77147 0.65928 0.36631 0.0
H446 H 0.76677 0.65611 0.45615 0.0
C447 C 0.69313 0.5975 0.43301 0.0
C448 C 0.70003 0.58574 0.46259 0.0
C449 C 0.71173 0.61308 0.41664 0.0
C450 C 0.76844 0.65635 0.43109 0.0
H451 H 0.78097 0.7482 0.30601 0.0
H452 H 0.76123 0.71001 0.33413 0.0
H453 H 0.79081 0.69264 0.4298 0.0
H454 H 0.73258 0.57956 0.49727 0.0
H455 H 0.76515 0.60694 0.46858 0.0
H456 H 0.74865 0.62337 0.36747 0.0
C457 C 0.78097 0.7165 0.3417 0.0
C458 C 0.78212 0.67734 0.41602 0.0
C459 C 0.79222 0.73842 0.32567 0.0
C460 C 0.72652 0.58872 0.47473 0.0
C461 C 0.74514 0.60439 0.45834 0.0
C462 C 0.7579 0.63827 0.38134 0.0
C463 C 0.79497 0.70315 0.36721 0.0
C464 C 0.78311 0.6794 0.38345 0.0
C465 C 0.73766 0.61729 0.42946 0.0
C466 C 0.7556 0.63699 0.41385 0.0
H467 H 0.85139 0.74086 0.36806 0.0
H468 H 0.83137 0.7027 0.3965 0.0
H469 H 0.77246 0.66004 0.34118 0.0
H470 H 0.67278 0.59601 0.42318 0.0
H471 H 0.70515 0.62304 0.39466 0.0
C472 C 0.14854 0.24115 0.14398 0.0
C473 C 0.17747 0.23698 0.14519 0.0
C474 C 0.13564 0.26595 0.13236 0.0
C475 C 0.14902 0.33966 0.11256 0.0
H476 H 0.07749 0.34 0.07251 0.0
C477 C 0.09586 0.43856 0.05246 0.0
C478 C 0.06719 0.44325 0.0557 0.0
C479 C 0.10941 0.41362 0.06274 0.0
C480 C 0.09733 0.34045 0.08391 0.0
H481 H 0.21521 0.25655 0.13422 0.0
H482 H 0.19286 0.29924 0.11308 0.0
H483 H 0.10082 0.29688 0.09034 0.0
H484 H 0.03049 0.42464 0.07237 0.0
H485 H 0.05398 0.3813 0.09019 0.0
H486 H 0.14555 0.38331 0.10564 0.0
C487 C 0.18001 0.28342 0.12183 0.0
C488 C 0.11084 0.31551 0.09431 0.0
C489 C 0.19296 0.25857 0.13364 0.0
C490 C 0.05253 0.42198 0.0694 0.0
C491 C 0.06607 0.39693 0.07951 0.0
C492 C 0.13558 0.3646 0.10193 0.0
C493 C 0.15105 0.2877 0.12111 0.0
C494 C 0.13691 0.31456 0.10906 0.0
C495 C 0.09479 0.3923 0.07647 0.0
C496 C 0.1094 0.36549 0.08755 0.0
H497 H 0.13561 0.22512 0.15199 0.0
H498 H 0.11341 0.26812 0.13278 0.0
H499 H 0.16875 0.34024 0.12416 0.0
H500 H 0.10801 0.45424 0.04194 0.0
H501 H 0.13141 0.41094 0.05948 0.0
C502 C 0.71485 0.34123 0.90727 0.0
C503 C 0.69896 0.36564 0.90087 0.0
C504 C 0.70254 0.31807 0.91923 0.0
C505 C 0.63984 0.29276 0.95558 0.0
H506 H 0.65452 0.23079 0.90452 0.0
C507 C 0.5671 0.20465 0.95046 0.0
C508 C 0.57858 0.17826 0.94619 0.0
C509 C 0.58372 0.22689 0.94955 0.0
C510 C 0.65053 0.24762 0.91949 0.0
H511 H 0.65832 0.38567 0.90408 0.0
H512 H 0.63678 0.34517 0.92501 0.0
H513 H 0.68096 0.27092 0.89694 0.0
H514 H 0.61644 0.15412 0.939 0.0
H515 H 0.6456 0.1928 0.93803 0.0
H516 H 0.60916 0.26953 0.97794 0.0
C517 C 0.6587 0.34391 0.92077 0.0
C518 C 0.66572 0.27065 0.91511 0.0
C519 C 0.67096 0.367 0.90859 0.0
C520 C 0.60703 0.17437 0.94177 0.0
C521 C 0.62369 0.19653 0.94121 0.0
C522 C 0.62477 0.26958 0.96018 0.0
C523 C 0.67419 0.319 0.92522 0.0
C524 C 0.66022 0.2936 0.93274 0.0
C525 C 0.61221 0.22311 0.9447 0.0
C526 C 0.62962 0.24692 0.94179 0.0
H527 H 0.73645 0.3396 0.90137 0.0
H528 H 0.71499 0.29916 0.92273 0.0
H529 H 0.63535 0.31014 0.96962 0.0
H530 H 0.54517 0.20818 0.95374 0.0
H531 H 0.5741 0.24711 0.95181 0.0
C532 C 0.89044 0.82244 0.35329 0.0
C533 C 0.87466 0.82927 0.32631 0.0
C534 C 0.90365 0.84245 0.3686 0.0
C535 C 0.90008 0.91641 0.37871 0.0
H536 H 0.97247 0.90123 0.41578 0.0
C537 C 0.98961 0.97548 0.44546 0.0
C538 C 0.9733 0.98987 0.46662 0.0
C539 C 0.9781 0.95652 0.42689 0.0
C540 C 0.95236 0.9059 0.40532 0.0
H541 H 0.86078 0.86238 0.2939 0.0
H542 H 0.88427 0.89737 0.3204 0.0
H543 H 0.95236 0.86712 0.38481 0.0
H544 H 0.93227 0.99585 0.48512 0.0
H545 H 0.91211 0.96246 0.45289 0.0
H546 H 0.90021 0.95532 0.39897 0.0
C547 C 0.88611 0.87654 0.32991 0.0
C548 C 0.94071 0.88624 0.38785 0.0
C549 C 0.87291 0.85648 0.31455 0.0
C550 C 0.94525 0.98508 0.46886 0.0
C551 C 0.93371 0.9661 0.45029 0.0
C552 C 0.91172 0.93608 0.3962 0.0
C553 C 0.90141 0.86978 0.35727 0.0
C554 C 0.91436 0.89119 0.37453 0.0
C555 C 0.95003 0.95155 0.42915 0.0
C556 C 0.93792 0.93098 0.40987 0.0
H557 H 0.8925 0.80158 0.36269 0.0
H558 H 0.91507 0.8366 0.38977 0.0
H559 H 0.87962 0.92075 0.36903 0.0
H560 H 1.01132 0.97882 0.44327 0.0
H561 H 0.99115 0.9459 0.41058 0.0
C562 C 0.37888 0.70577 0.74135 0.0
C563 C 0.39237 0.72945 0.7477 0.0
C564 C 0.39185 0.68537 0.72431 0.0
C565 C 0.45856 0.65787 0.69618 0.0
H566 H 0.41531 0.63611 0.62659 0.0
C567 C 0.5075 0.5974 0.59726 0.0
C568 C 0.49229 0.5774 0.584 0.0
C569 C 0.4954 0.61494 0.61847 0.0
C570 C 0.42757 0.64155 0.64616 0.0
H571 H 0.43068 0.74953 0.74257 0.0
H572 H 0.45356 0.71355 0.71322 0.0
H573 H 0.3947 0.66737 0.66314 0.0
H574 H 0.45238 0.56006 0.58268 0.0
H575 H 0.43138 0.59025 0.62025 0.0
H576 H 0.49139 0.63191 0.67941 0.0
C577 C 0.43287 0.7109 0.72141 0.0
C578 C 0.41575 0.65953 0.6671 0.0
C579 C 0.4198 0.73145 0.73832 0.0
C580 C 0.46462 0.57538 0.59232 0.0
C581 C 0.45256 0.59278 0.6138 0.0
C582 C 0.47034 0.63966 0.6754 0.0
C583 C 0.41871 0.68805 0.71346 0.0
C584 C 0.43115 0.668 0.69221 0.0
C585 C 0.46782 0.61276 0.6272 0.0
C586 C 0.45505 0.63143 0.64996 0.0
H587 H 0.35791 0.7034 0.74877 0.0
H588 H 0.38064 0.66773 0.71905 0.0
H589 H 0.47083 0.66387 0.71549 0.0
H590 H 0.52882 0.59966 0.59117 0.0
H591 H 0.50764 0.63042 0.62775 0.0
C592 C 0.86326 0.89872 0.79063 0.0
C593 C 0.87876 0.88554 0.81533 0.0
C594 C 0.87621 0.91087 0.76475 0.0
C595 C 0.9439 0.91105 0.72322 0.0
H596 H 0.91182 0.97727 0.68203 0.0
C597 C 0.98745 0.95543 0.60659 0.0
C598 C 0.98727 0.98399 0.60161 0.0
C599 C 0.97424 0.94354 0.6324 0.0
C600 C 0.9213 0.95889 0.69329 0.0
H601 H 0.9205 0.87592 0.832 0.0
H602 H 0.94285 0.89692 0.78736 0.0
H603 H 0.8893 0.95715 0.72719 0.0
H604 H 0.97286 0.02226 0.62056 0.0
H605 H 0.95025 1.00171 0.66544 0.0
H606 H 0.97619 0.91307 0.68974 0.0
C607 C 0.9206 0.8974 0.78752 0.0
C608 C 0.90809 0.94707 0.71914 0.0
C609 C 0.90768 0.88529 0.81334 0.0
C610 C 0.97348 1.00023 0.62338 0.0
C611 C 0.96025 0.98835 0.64917 0.0
C612 C 0.95708 0.92283 0.69734 0.0
C613 C 0.90515 0.91031 0.76262 0.0
C614 C 0.91917 0.92295 0.73467 0.0
C615 C 0.96033 0.95976 0.65418 0.0
C616 C 0.94607 0.94702 0.68189 0.0
H617 H 0.84101 0.89915 0.79087 0.0
H618 H 0.86341 0.9202 0.74606 0.0
H619 H 0.95308 0.89234 0.73404 0.0
H620 H 0.99772 0.94214 0.59042 0.0
H621 H 0.9746 0.92151 0.63495 0.0
C622 C 0.6854 0.22775 0.19112 0.0
C623 C 0.67122 0.23535 0.21799 0.0
C624 C 0.67362 0.21093 0.17007 0.0
C625 C 0.65192 0.15957 0.1442 0.0
H626 H 0.57493 0.16822 0.12007 0.0
C627 C 0.59337 0.07396 0.09062 0.0
C628 C 0.57492 0.08137 0.06602 0.0
C629 C 0.60602 0.09395 0.10672 0.0
C630 C 0.59653 0.16567 0.12637 0.0
H631 H 0.63314 0.23161 0.24328 0.0
H632 H 0.61246 0.20268 0.20629 0.0
H633 H 0.59473 0.202 0.15206 0.0
H634 H 0.5557 0.11564 0.03868 0.0
H635 H 0.57774 0.15046 0.06688 0.0
H636 H 0.65367 0.12312 0.11877 0.0
C637 C 0.63267 0.20987 0.20147 0.0
C638 C 0.60779 0.18488 0.14491 0.0
C639 C 0.64452 0.22654 0.22264 0.0
C640 C 0.56975 0.1092 0.05756 0.0
C641 C 0.58225 0.12919 0.07382 0.0
C642 C 0.64061 0.14025 0.12589 0.0
C643 C 0.64728 0.20148 0.17524 0.0
C644 C 0.63557 0.18195 0.1542 0.0
C645 C 0.60037 0.12179 0.09873 0.0
C646 C 0.61274 0.14298 0.11694 0.0
H647 H 0.70579 0.23456 0.18651 0.0
H648 H 0.6852 0.20517 0.14981 0.0
H649 H 0.67333 0.15659 0.15121 0.0
H650 H 0.59782 0.05273 0.09773 0.0
H651 H 0.61969 0.08761 0.126 0.0
C652 C 0.35132 0.60666 0.26675 0.0
C653 C 0.36449 0.60729 0.23786 0.0
C654 C 0.36636 0.59918 0.29394 0.0
C655 C 0.40267 0.57217 0.34685 0.0
H656 H 0.4734 0.60453 0.35026 0.0
C657 C 0.48589 0.54006 0.4392 0.0
C658 C 0.5014 0.56039 0.4513 0.0
C659 C 0.46708 0.5464 0.41505 0.0
C660 C 0.45358 0.59561 0.34983 0.0
H661 H 0.40288 0.59847 0.21427 0.0
H662 H 0.42901 0.5851 0.26156 0.0
H663 H 0.44442 0.61251 0.30408 0.0
H664 H 0.50906 0.60337 0.44827 0.0
H665 H 0.47608 0.6146 0.40569 0.0
H666 H 0.41192 0.55535 0.39277 0.0
C667 C 0.40734 0.59104 0.2634 0.0
C668 C 0.43715 0.59985 0.32321 0.0
C669 C 0.39237 0.59851 0.23635 0.0
C670 C 0.49743 0.58733 0.43921 0.0
C671 C 0.47865 0.59369 0.41484 0.0
C672 C 0.41921 0.56782 0.37349 0.0
C673 C 0.39474 0.59223 0.29255 0.0
C674 C 0.41167 0.58794 0.32128 0.0
C675 C 0.46344 0.57322 0.40237 0.0
C676 C 0.44494 0.57933 0.37514 0.0
H677 H 0.32987 0.61351 0.26849 0.0
H678 H 0.35612 0.60027 0.3161 0.0
H679 H 0.38314 0.56276 0.34601 0.0
H680 H 0.48853 0.51908 0.44812 0.0
H681 H 0.45597 0.53012 0.4057 0.0
C682 C 0.18941 0.25985 0.81475 0.0
C683 C 0.21524 0.25572 0.80106 0.0
C684 C 0.1871 0.27242 0.84308 0.0
C685 C 0.2234 0.32422 0.88152 0.0
H686 H 0.16048 0.32207 0.93588 0.0
C687 C 0.18494 0.41651 0.95189 0.0
C688 C 0.15712 0.4239 0.94503 0.0
C689 C 0.19661 0.39115 0.94364 0.0
C690 C 0.1784 0.32273 0.92118 0.0
H691 H 0.25912 0.25817 0.8077 0.0
H692 H 0.2552 0.27953 0.85763 0.0
H693 H 0.17354 0.28244 0.90601 0.0
H694 H 0.12013 0.41063 0.92321 0.0
H695 H 0.14018 0.36663 0.90975 0.0
H696 H 0.22734 0.36502 0.89553 0.0
C697 C 0.23667 0.27382 0.84619 0.0
C698 C 0.18583 0.3001 0.90402 0.0
C699 C 0.23894 0.26145 0.81775 0.0
C700 C 0.14136 0.40541 0.92977 0.0
C701 C 0.15284 0.38009 0.92204 0.0
C702 C 0.21608 0.34675 0.89885 0.0
C703 C 0.21063 0.28092 0.85825 0.0
C704 C 0.20752 0.30114 0.88274 0.0
C705 C 0.18054 0.37268 0.92882 0.0
C706 C 0.19266 0.3467 0.91756 0.0
H707 H 0.17083 0.25579 0.80223 0.0
H708 H 0.16667 0.27769 0.85149 0.0
H709 H 0.24009 0.32592 0.86521 0.0
H710 H 0.19761 0.43017 0.96381 0.0
H711 H 0.21812 0.38594 0.94887 0.0
C712 C 0.79748 0.9118 0.89639 0.0
C713 C 0.80158 0.88323 0.89472 0.0
C714 C 0.77291 0.92387 0.908 0.0
C715 C 0.69906 0.90992 0.92406 0.0
H716 H 0.69979 0.97585 0.96987 0.0
C717 C 0.59797 0.97405 0.94974 0.0
C718 C 0.59531 0.98742 0.97786 0.0
C719 C 0.62301 0.9608 0.94132 0.0
C720 C 0.69907 0.95732 0.95736 0.0
H721 H 0.78211 0.84523 0.90445 0.0
H722 H 0.73973 0.86607 0.92497 0.0
H723 H 0.74303 0.95404 0.9527 0.0
H724 H 0.61743 0.99691 0.01933 0.0
H725 H 0.66121 0.97372 1.00478 0.0
H726 H 0.65519 0.913 0.92896 0.0
C727 C 0.75549 0.87931 0.91695 0.0
C728 C 0.72404 0.94489 0.94709 0.0
C729 C 0.78013 0.86722 0.90545 0.0
C730 C 0.61861 0.98689 0.9975 0.0
C731 C 0.64385 0.97369 0.98897 0.0
C732 C 0.67413 0.9224 0.93419 0.0
C733 C 0.75131 0.9079 0.91838 0.0
C734 C 0.72455 0.92099 0.9301 0.0
C735 C 0.64654 0.9604 0.96064 0.0
C736 C 0.67356 0.94646 0.9509 0.0
H737 H 0.81341 0.92501 0.88885 0.0
H738 H 0.7707 0.94589 0.90828 0.0
H739 H 0.69821 0.89178 0.91088 0.0
H740 H 0.5806 0.97399 0.93389 0.0
H741 H 0.62399 0.95133 0.91915 0.0
C742 C 0.77156 0.26848 0.29458 0.0
C743 C 0.75401 0.24881 0.28459 0.0
C744 C 0.79718 0.26057 0.30791 0.0
C745 C 0.84992 0.20396 0.3178 0.0
H746 H 0.86075 0.23179 0.39943 0.0
C747 C 0.92173 0.14845 0.40921 0.0
C748 C 0.93528 0.16347 0.43097 0.0
C749 C 0.90331 0.1615 0.38766 0.0
C750 C 0.8585 0.22424 0.37641 0.0
H751 H 0.75026 0.20546 0.27955 0.0
H752 H 0.79525 0.19176 0.30221 0.0
H753 H 0.82212 0.24998 0.36718 0.0
H754 H 0.94095 0.20404 0.44651 0.0
H755 H 0.90906 0.22707 0.40832 0.0
H756 H 0.88613 0.17804 0.32704 0.0
C757 C 0.78911 0.2133 0.29968 0.0
C758 C 0.83627 0.23464 0.35797 0.0
C759 C 0.76335 0.22117 0.28663 0.0
C760 C 0.93059 0.19196 0.43016 0.0
C761 C 0.91229 0.20509 0.40835 0.0
C762 C 0.87235 0.19377 0.3361 0.0
C763 C 0.80594 0.23287 0.31117 0.0
C764 C 0.83141 0.22415 0.3288 0.0
C765 C 0.89808 0.18995 0.38714 0.0
C766 C 0.87651 0.20328 0.36598 0.0
H767 H 0.76522 0.28999 0.29275 0.0
H768 H 0.80993 0.27609 0.31622 0.0
H769 H 0.8468 0.19577 0.29523 0.0
H770 H 0.92452 0.12641 0.40963 0.0
H771 H 0.89235 0.14906 0.37222 0.0
C772 C 0.27997 0.61158 0.13366 0.0
C773 C 0.28405 0.61936 0.16415 0.0
C774 C 0.25424 0.60381 0.12407 0.0
C775 C 0.18708 0.58241 0.15518 0.0
H776 H 0.16397 0.59686 0.06948 0.0
C777 C 0.09023 0.53704 0.10604 0.0
C778 C 0.07516 0.55197 0.08247 0.0
C779 C 0.11527 0.54594 0.11642 0.0
C780 C 0.1698 0.593 0.09364 0.0
H781 H 0.26464 0.62583 0.20839 0.0
H782 H 0.21929 0.61359 0.1914 0.0
H783 H 0.20764 0.61217 0.0868 0.0
H784 H 0.07379 0.58816 0.05172 0.0
H785 H 0.11671 0.60458 0.07087 0.0
H786 H 0.14857 0.5646 0.16244 0.0
C787 C 0.23605 0.61242 0.17507 0.0
C788 C 0.19523 0.60136 0.10348 0.0
C789 C 0.26195 0.61963 0.18482 0.0
C790 C 0.08516 0.57624 0.06986 0.0
C791 C 0.10991 0.58547 0.08068 0.0
C792 C 0.16142 0.57453 0.14549 0.0
C793 C 0.23185 0.60422 0.1446 0.0
C794 C 0.20436 0.59597 0.13432 0.0
C795 C 0.1255 0.57028 0.10387 0.0
C796 C 0.1525 0.57949 0.1145 0.0
H797 H 0.29686 0.611 0.11744 0.0
H798 H 0.2521 0.59708 0.10067 0.0
H799 H 0.19345 0.57749 0.179 0.0
H800 H 0.08305 0.51807 0.11587 0.0
H801 H 0.12684 0.53334 0.1338 0.0
C802 C 0.26554 0.30299 0.7062 0.0
C803 C 0.24188 0.29062 0.69627 0.0
C804 C 0.27527 0.32527 0.68934 0.0
C805 C 0.2813 0.3565 0.61378 0.0
H806 H 0.29063 0.42337 0.65599 0.0
C807 C 0.33798 0.44283 0.55386 0.0
C808 C 0.35764 0.45433 0.57253 0.0
C809 C 0.31771 0.42727 0.56731 0.0
C810 C 0.28833 0.40483 0.64388 0.0
H811 H 0.21034 0.2918 0.66018 0.0
H812 H 0.22847 0.32994 0.62987 0.0
H813 H 0.26845 0.38575 0.6827 0.0
H814 H 0.36971 0.46059 0.6201 0.0
H815 H 0.33561 0.43233 0.64343 0.0
H816 H 0.30284 0.37439 0.57582 0.0
C817 C 0.23898 0.32247 0.65111 0.0
C818 C 0.2755 0.38342 0.65913 0.0
C819 C 0.22885 0.30049 0.66833 0.0
C820 C 0.35534 0.45147 0.60498 0.0
C821 C 0.33539 0.43556 0.61841 0.0
C822 C 0.29465 0.37768 0.59871 0.0
C823 C 0.26194 0.33529 0.66184 0.0
C824 C 0.27244 0.35893 0.64441 0.0
C825 C 0.31687 0.4225 0.59972 0.0
C826 C 0.29894 0.40188 0.61386 0.0
H827 H 0.2765 0.29559 0.72717 0.0
H828 H 0.29336 0.33462 0.69767 0.0
H829 H 0.27921 0.33767 0.60211 0.0
H830 H 0.3391 0.44451 0.52876 0.0
H831 H 0.30337 0.41811 0.5522 0.0
C832 C 0.87915 0.80011 0.92705 0.0
C833 C 0.87732 0.80624 0.89477 0.0
C834 C 0.89278 0.77568 0.9391 0.0
C835 C 0.94358 0.71921 0.91664 0.0
H836 H 0.91918 0.68241 0.99208 0.0
C837 C 1.00684 0.62495 0.97416 0.0
C838 C 0.99244 0.60384 0.98855 0.0
C839 C 0.99306 0.64977 0.96364 0.0
C840 C 0.92628 0.69219 0.97082 0.0
H841 H 0.88762 0.79016 0.85005 0.0
H842 H 0.91086 0.74798 0.87076 0.0
H843 H 0.89431 0.72411 0.97198 0.0
H844 H 0.95179 0.59281 1.00292 0.0
H845 H 0.92798 0.6355 0.98456 0.0
H846 H 0.97509 0.68699 0.91498 0.0
C847 C 0.90253 0.76234 0.88702 0.0
C848 C 0.9121 0.71651 0.95942 0.0
C849 C 0.88901 0.78671 0.87503 0.0
C850 C 0.9638 0.60848 0.99218 0.0
C851 C 0.95005 0.63324 0.98172 0.0
C852 C 0.95774 0.69492 0.92801 0.0
C853 C 0.90499 0.75641 0.9193 0.0
C854 C 0.92038 0.73046 0.932 0.0
C855 C 0.96435 0.6544 0.96713 0.0
C856 C 0.94936 0.68084 0.95529 0.0
H857 H 0.87073 0.81458 0.94315 0.0
H858 H 0.8943 0.77228 0.96407 0.0
H859 H 0.9511 0.72928 0.89578 0.0
H860 H 0.02886 0.62236 0.97098 0.0
H861 H 1.00509 0.66548 0.95305 0.0
C862 C 0.37726 0.69707 0.17199 0.0
C863 C 0.36378 0.67929 0.1532 0.0
C864 C 0.39234 0.71769 0.15874 0.0
C865 C 0.4004 0.76523 0.09624 0.0
H866 H 0.4774 0.7607 0.12089 0.0
C867 C 0.4726 0.85235 0.06678 0.0
C868 C 0.4895 0.85916 0.09154 0.0
C869 C 0.4583 0.82847 0.06872 0.0
C870 C 0.45595 0.76233 0.11384 0.0
H871 H 0.35416 0.67036 0.10564 0.0
H872 H 0.38016 0.70752 0.08231 0.0
H873 H 0.44875 0.7229 0.13434 0.0
H874 H 0.50523 0.84583 0.1373 0.0
H875 H 0.47977 0.80482 0.14111 0.0
H876 H 0.40706 0.80541 0.07748 0.0
C877 C 0.37926 0.7048 0.10736 0.0
C878 C 0.43968 0.74062 0.12131 0.0
C879 C 0.36436 0.68372 0.1207 0.0
C880 C 0.49215 0.84136 0.11798 0.0
C881 C 0.47783 0.81761 0.11995 0.0
C882 C 0.41664 0.7872 0.08904 0.0
C883 C 0.39388 0.72141 0.1264 0.0
C884 C 0.41166 0.74222 0.11332 0.0
C885 C 0.46063 0.81092 0.09543 0.0
C886 C 0.4444 0.7863 0.09867 0.0
H887 H 0.37651 0.69481 0.19709 0.0
H888 H 0.40309 0.73066 0.1738 0.0
H889 H 0.37873 0.76685 0.09009 0.0
H890 H 0.46992 0.86578 0.04619 0.0
H891 H 0.44536 0.82382 0.04936 0.0
C892 C 0.1878 0.1805 0.7188 0.0
C893 C 0.18708 0.20755 0.7065 0.0
C894 C 0.17411 0.16064 0.70358 0.0
C895 C 0.15004 0.14549 0.626 0.0
H896 H 0.10586 0.09266 0.6689 0.0
C897 C 0.11081 0.05313 0.56575 0.0
C898 C 0.08299 0.04818 0.57002 0.0
C899 C 0.1234 0.07189 0.58365 0.0
C900 C 0.11808 0.10736 0.65666 0.0
H901 H 0.17009 0.23525 0.66959 0.0
H902 H 0.14666 0.20059 0.64291 0.0
H903 H 0.12749 0.12724 0.69836 0.0
H904 H 0.04647 0.05857 0.59643 0.0
H905 H 0.06857 0.09139 0.62792 0.0
H906 H 0.14062 0.12584 0.58433 0.0
C907 C 0.15818 0.19465 0.66399 0.0
C908 C 0.1306 0.12697 0.67351 0.0
C909 C 0.17168 0.21446 0.67924 0.0
C910 C 0.068 0.06202 0.59275 0.0
C911 C 0.08066 0.08066 0.61084 0.0
C912 C 0.13776 0.1258 0.60924 0.0
C913 C 0.15956 0.16748 0.67574 0.0
C914 C 0.14657 0.14631 0.65828 0.0
C915 C 0.10842 0.08593 0.60627 0.0
C916 C 0.1216 0.10658 0.62436 0.0
H917 H 0.19959 0.17452 0.73968 0.0
H918 H 0.17561 0.13979 0.71305 0.0
H919 H 0.16247 0.15998 0.6137 0.0
H920 H 0.12282 0.0427 0.54837 0.0
H921 H 0.1449 0.07537 0.57984 0.0
C922 C 0.65258 0.32632 0.28844 0.0
C923 C 0.66644 0.30291 0.3022 0.0
C924 C 0.63985 0.3459 0.30701 0.0
C925 C 0.61142 0.35533 0.38478 0.0
H926 H 0.62644 0.43147 0.36983 0.0
C927 C 0.554 0.44158 0.44797 0.0
C928 C 0.56989 0.46155 0.46032 0.0
C929 C 0.5657 0.42253 0.42826 0.0
C930 C 0.6222 0.41026 0.37432 0.0
H931 H 0.67706 0.28098 0.34583 0.0
H932 H 0.65456 0.31488 0.37819 0.0
H933 H 0.64587 0.39723 0.33537 0.0
H934 H 0.61055 0.4773 0.46143 0.0
H935 H 0.63105 0.44388 0.42658 0.0
H936 H 0.58787 0.36821 0.42372 0.0
C937 C 0.65363 0.31826 0.35317 0.0
C938 C 0.63303 0.39075 0.35444 0.0
C939 C 0.66659 0.29895 0.33469 0.0
C940 C 0.5978 0.46212 0.45236 0.0
C941 C 0.60947 0.44314 0.43229 0.0
C942 C 0.60037 0.37483 0.40441 0.0
C943 C 0.64043 0.34211 0.33958 0.0
C944 C 0.62786 0.36307 0.35959 0.0
C945 C 0.59352 0.42308 0.4202 0.0
C946 C 0.6057 0.40248 0.39946 0.0
H947 H 0.65231 0.32984 0.26343 0.0
H948 H 0.6296 0.36401 0.29595 0.0
H949 H 0.607 0.33416 0.38922 0.0
H950 H 0.53245 0.4405 0.45362 0.0
H951 H 0.55284 0.4075 0.41906 0.0
loop_
_geom_bond_atom_site_label_1
_geom_bond_atom_site_label_2
_geom_bond_distance
_geom_bond_site_symmetry_2
_ccdc_geom_bond_type
H0 C3 0.931 . S
H1 C6 0.928 . S
H2 C8 0.930 . S
C3 H0 0.931 . S
C3 C4 1.413 . S
C3 C5 1.360 . S
C4 C3 1.413 . S
C4 C8 1.429 . S
C5 C3 1.360 . S
C5 C6 1.372 . S
C6 H1 0.928 . S
C6 C5 1.372 . S
C6 C7 1.404 . S
C7 C6 1.404 . S
C7 C8 1.391 . S
C8 H2 0.930 . S
C8 C4 1.429 . S
C8 C7 1.391 . S
H9 C12 0.931 . S
H10 C15 0.928 . S
H11 C17 0.930 . S
C12 H9 0.931 . S
C12 C13 1.413 . S
C12 C14 1.360 . S
C13 C12 1.413 . S
C13 C17 1.429 . S
C14 C12 1.360 . S
C14 C15 1.372 . S
C15 H10 0.928 . S
C15 C14 1.372 . S
C15 C16 1.404 . S
C16 C15 1.404 . S
C16 C17 1.391 . S
C17 H11 0.930 . S
C17 C13 1.429 . S
C17 C16 1.391 . S
H18 C21 0.931 . S
H19 C24 0.928 . S
H20 C26 0.930 . S
C21 H18 0.931 . S
C21 C22 1.413 . S
C21 C23 1.360 . S
C22 C21 1.413 . S
C22 C26 1.429 . S
C23 C21 1.360 . S
C23 C24 1.372 . S
C24 H19 0.928 . S
C24 C23 1.372 . S
C24 C25 1.404 . S
C25 C24 1.404 . S
C25 C26 1.391 . S
C26 H20 0.930 . S
C26 C22 1.429 . S
C26 C25 1.391 . S
H27 C30 0.931 . S
H28 C33 0.928 . S
H29 C35 0.930 . S
C30 H27 0.931 . S
C30 C31 1.413 . S
C30 C32 1.360 . S
C31 C30 1.413 . S
C31 C35 1.429 . S
C32 C30 1.360 . S
C32 C33 1.372 . S
C33 H28 0.928 . S
C33 C32 1.372 . S
C33 C34 1.404 . S
C34 C33 1.404 . S
C34 C35 1.391 . S
C35 H29 0.930 . S
C35 C31 1.429 . S
C35 C34 1.391 . S
H36 C39 0.931 . S
H37 C42 0.928 . S
H38 C44 0.930 . S
C39 H36 0.931 . S
C39 C40 1.413 . S
C39 C41 1.360 . S
C40 C39 1.413 . S
C40 C44 1.429 . S
C41 C39 1.360 . S
C41 C42 1.372 . S
C42 H37 0.928 . S
C42 C41 1.372 . S
C42 C43 1.404 . S
C43 C42 1.404 . S
C43 C44 1.391 . S
C44 H38 0.930 . S
C44 C40 1.429 . S
C44 C43 1.391 . S
H45 C48 0.931 . S
H46 C51 0.928 . S
H47 C53 0.930 . S
C48 H45 0.931 . S
C48 C49 1.413 . S
C48 C50 1.360 . S
C49 C48 1.413 . S
C49 C53 1.429 . S
C50 C48 1.360 . S
C50 C51 1.372 . S
C51 H46 0.928 . S
C51 C50 1.372 . S
C51 C52 1.404 . S
C52 C51 1.404 . S
C52 C53 1.391 . S
C53 H47 0.930 . S
C53 C49 1.429 . S
C53 C52 1.391 . S
H54 C57 0.931 . S
H55 C60 0.928 . S
H56 C62 0.930 . S
C57 H54 0.931 . S
C57 C58 1.413 . S
C57 C59 1.360 . S
C58 C57 1.413 . S
C58 C62 1.429 . S
C59 C57 1.360 . S
C59 C60 1.372 . S
C60 H55 0.928 . S
C60 C59 1.372 . S
C60 C61 1.404 . S
C61 C60 1.404 . S
C61 C62 1.391 . S
C62 H56 0.930 . S
C62 C58 1.429 . S
C62 C61 1.391 . S
H63 C66 0.931 . S
H64 C69 0.928 . S
H65 C71 0.930 . S
C66 H63 0.931 . S
C66 C67 1.413 . S
C66 C68 1.360 . S
C67 C66 1.413 . S
C67 C71 1.429 . S
C68 C66 1.360 . S
C68 C69 1.372 . S
C69 H64 0.928 . S
C69 C68 1.372 . S
C69 C70 1.404 . S
C70 C69 1.404 . S
C70 C71 1.391 . S
C71 H65 0.930 . S
C71 C67 1.429 . S
C71 C70 1.391 . S
Nd72 C74 2.836 . S
Nd72 O92 2.500 . S
Nd72 O93 2.492 . S
Nd72 O94 2.487 1_565 S
Nd72 O95 2.682 1_565 S
Nd72 O96 2.410 . S
Nd72 O101 2.414 1_455 S
Nd72 O103 2.424 1_565 S
Nd73 C83 2.836 . S
Nd73 O95 2.414 1_655 S
Nd73 O97 2.424 1_545 S
Nd73 O98 2.500 . S
Nd73 O99 2.492 . S
Nd73 O100 2.487 1_545 S
Nd73 O101 2.682 1_545 S
Nd73 O102 2.410 . S
C74 Nd72 2.836 . S
C74 C75 1.498 . S
C74 O92 1.258 . S
C74 O93 1.239 . S
C75 C74 1.498 . S
C75 C76 1.366 . S
C75 C80 1.407 . S
C76 C75 1.366 . S
C76 C77 1.392 . S
C76 H104 0.930 . S
C77 C76 1.392 . S
C77 C78 1.398 . S
C77 H105 0.929 . S
C78 C77 1.398 . S
C78 C79 1.352 . S
C79 C78 1.352 . S
C79 C80 1.384 . S
C79 H106 0.930 . S
C80 C75 1.407 . S
C80 C79 1.384 . S
C80 H107 0.929 . S
C81 O94 1.241 . S
C81 O95 1.273 . S
C82 O96 1.251 1_655 S
C82 O97 1.268 . S
C83 Nd73 2.836 . S
C83 C84 1.498 . S
C83 O98 1.258 . S
C83 O99 1.239 . S
C84 C83 1.498 . S
C84 C85 1.366 . S
C84 C89 1.407 . S
C85 C84 1.366 . S
C85 C86 1.392 . S
C85 H108 0.930 . S
C86 C85 1.392 . S
C86 C87 1.398 . S
C86 H109 0.929 . S
C87 C86 1.398 . S
C87 C88 1.352 . S
C88 C87 1.352 . S
C88 C89 1.384 . S
C88 H110 0.930 . S
C89 C84 1.407 . S
C89 C88 1.384 . S
C89 H111 0.929 . S
C90 O100 1.241 . S
C90 O101 1.273 . S
C91 O102 1.251 1_455 S
C91 O103 1.268 . S
O92 Nd72 2.500 . S
O92 C74 1.258 . S
O93 Nd72 2.492 . S
O93 C74 1.239 . S
O94 Nd72 2.487 1_545 S
O94 C81 1.241 . S
O95 Nd72 2.682 1_545 S
O95 Nd73 2.414 1_455 S
O95 C81 1.273 . S
O96 Nd72 2.410 . S
O96 C82 1.251 1_455 S
O97 Nd73 2.424 1_565 S
O97 C82 1.268 . S
O98 Nd73 2.500 . S
O98 C83 1.258 . S
O99 Nd73 2.492 . S
O99 C83 1.239 . S
O100 Nd73 2.487 1_565 S
O100 C90 1.241 . S
O101 Nd72 2.414 1_655 S
O101 Nd73 2.682 1_565 S
O101 C90 1.273 . S
O102 Nd73 2.410 . S
O102 C91 1.251 1_655 S
O103 Nd72 2.424 1_545 S
O103 C91 1.268 . S
H104 C76 0.930 . S
H105 C77 0.929 . S
H106 C79 0.930 . S
H107 C80 0.929 . S
H108 C85 0.930 . S
H109 C86 0.929 . S
H110 C88 0.930 . S
H111 C89 0.929 . S
Nd112 C114 2.836 . S
Nd112 O132 2.500 . S
Nd112 O133 2.492 . S
Nd112 O134 2.487 1_565 S
Nd112 O135 2.682 1_565 S
Nd112 O136 2.410 1_554 S
Nd112 O141 2.414 1_554 S
Nd112 O143 2.424 1_565 S
Nd113 C123 2.836 . S
Nd113 O135 2.414 1_556 S
Nd113 O137 2.424 1_545 S
Nd113 O138 2.500 . S
Nd113 O139 2.492 . S
Nd113 O140 2.487 . S
Nd113 O141 2.682 1_545 S
Nd113 O142 2.410 1_556 S
C114 Nd112 2.836 . S
C114 C115 1.498 . S
C114 O132 1.258 . S
C114 O133 1.239 . S
C115 C114 1.498 . S
C115 C116 1.366 . S
C115 C120 1.407 . S
C116 C115 1.366 . S
C116 C117 1.392 . S
C116 H144 0.930 . S
C117 C116 1.392 . S
C117 C118 1.398 . S
C117 H145 0.929 . S
C118 C117 1.398 . S
C118 C119 1.352 . S
C119 C118 1.352 . S
C119 C120 1.384 . S
C119 H146 0.930 . S
C120 C115 1.407 . S
C120 C119 1.384 . S
C120 H147 0.929 . S
C121 O134 1.241 . S
C121 O135 1.273 . S
C122 O136 1.251 . S
C122 O137 1.268 . S
C123 Nd113 2.836 . S
C123 C124 1.498 . S
C123 O138 1.258 . S
C123 O139 1.239 . S
C124 C123 1.498 . S
C124 C125 1.366 . S
C124 C129 1.407 . S
C125 C124 1.366 . S
C125 C126 1.392 . S
C125 H148 0.930 . S
C126 C125 1.392 . S
C126 C127 1.398 . S
C126 H149 0.929 . S
C127 C126 1.398 . S
C127 C128 1.352 . S
C128 C127 1.352 . S
C128 C129 1.384 . S
C128 H150 0.930 . S
C129 C124 1.407 . S
C129 C128 1.384 . S
C129 H151 0.929 . S
C130 O140 1.241 1_565 S
C130 O141 1.273 . S
C131 O142 1.251 . S
C131 O143 1.268 . S
O132 Nd112 2.500 . S
O132 C114 1.258 . S
O133 Nd112 2.492 . S
O133 C114 1.239 . S
O134 Nd112 2.487 1_545 S
O134 C121 1.241 . S
O135 Nd112 2.682 1_545 S
O135 Nd113 2.414 1_554 S
O135 C121 1.273 . S
O136 Nd112 2.410 1_556 S
O136 C122 1.251 . S
O137 Nd113 2.424 1_565 S
O137 C122 1.268 . S
O138 Nd113 2.500 . S
O138 C123 1.258 . S
O139 Nd113 2.492 . S
O139 C123 1.239 . S
O140 Nd113 2.487 . S
O140 C130 1.241 1_545 S
O141 Nd112 2.414 1_556 S
O141 Nd113 2.682 1_565 S
O141 C130 1.273 . S
O142 Nd113 2.410 1_554 S
O142 C131 1.251 . S
O143 Nd112 2.424 1_545 S
O143 C131 1.268 . S
H144 C116 0.930 . S
H145 C117 0.929 . S
H146 C119 0.930 . S
H147 C120 0.929 . S
H148 C125 0.930 . S
H149 C126 0.929 . S
H150 C128 0.930 . S
H151 C129 0.929 . S
Nd152 C154 2.836 . S
Nd152 O172 2.500 . S
Nd152 O173 2.492 . S
Nd152 O174 2.487 . S
Nd152 O175 2.682 . S
Nd152 O176 2.410 . S
Nd152 O181 2.414 . S
Nd152 O183 2.424 . S
Nd153 C163 2.836 . S
Nd153 O175 2.414 . S
Nd153 O177 2.424 . S
Nd153 O178 2.500 . S
Nd153 O179 2.492 . S
Nd153 O180 2.487 . S
Nd153 O181 2.682 . S
Nd153 O182 2.410 . S
C154 Nd152 2.836 . S
C154 C155 1.498 . S
C154 O172 1.258 . S
C154 O173 1.239 . S
C155 C154 1.498 . S
C155 C156 1.366 . S
C155 C160 1.407 . S
C156 C155 1.366 . S
C156 C157 1.392 . S
C156 H184 0.930 . S
C157 C156 1.392 . S
C157 C158 1.398 . S
C157 H185 0.929 . S
C158 C157 1.398 . S
C158 C159 1.352 . S
C159 C158 1.352 . S
C159 C160 1.384 . S
C159 H186 0.930 . S
C160 C155 1.407 . S
C160 C159 1.384 . S
C160 H187 0.929 . S
C161 O174 1.241 . S
C161 O175 1.273 . S
C162 O176 1.251 . S
C162 O177 1.268 . S
C163 Nd153 2.836 . S
C163 C164 1.498 . S
C163 O178 1.258 . S
C163 O179 1.239 . S
C164 C163 1.498 . S
C164 C165 1.366 . S
C164 C169 1.407 . S
C165 C164 1.366 . S
C165 C166 1.392 . S
C165 H188 0.930 . S
C166 C165 1.392 . S
C166 C167 1.398 . S
C166 H189 0.929 . S
C167 C166 1.398 . S
C167 C168 1.352 . S
C168 C167 1.352 . S
C168 C169 1.384 . S
C168 H190 0.930 . S
C169 C164 1.407 . S
C169 C168 1.384 . S
C169 H191 0.929 . S
C170 O180 1.241 . S
C170 O181 1.273 . S
C171 O182 1.251 . S
C171 O183 1.268 . S
O172 Nd152 2.500 . S
O172 C154 1.258 . S
O173 Nd152 2.492 . S
O173 C154 1.239 . S
O174 Nd152 2.487 . S
O174 C161 1.241 . S
O175 Nd152 2.682 . S
O175 Nd153 2.414 . S
O175 C161 1.273 . S
O176 Nd152 2.410 . S
O176 C162 1.251 . S
O177 Nd153 2.424 . S
O177 C162 1.268 . S
O178 Nd153 2.500 . S
O178 C163 1.258 . S
O179 Nd153 2.492 . S
O179 C163 1.239 . S
O180 Nd153 2.487 . S
O180 C170 1.241 . S
O181 Nd152 2.414 . S
O181 Nd153 2.682 . S
O181 C170 1.273 . S
O182 Nd153 2.410 . S
O182 C171 1.251 . S
O183 Nd152 2.424 . S
O183 C171 1.268 . S
H184 C156 0.930 . S
H185 C157 0.929 . S
H186 C159 0.930 . S
H187 C160 0.929 . S
H188 C165 0.930 . S
H189 C166 0.929 . S
H190 C168 0.930 . S
H191 C169 0.929 . S
Nd192 C194 2.836 . S
Nd192 O212 2.500 . S
Nd192 O213 2.492 . S
Nd192 O214 2.487 1_655 S
Nd192 O215 2.682 1_655 S
Nd192 O216 2.410 . S
Nd192 O221 2.414 1_554 S
Nd192 O223 2.424 1_655 S
Nd193 C203 2.836 . S
Nd193 O215 2.414 1_556 S
Nd193 O217 2.424 1_455 S
Nd193 O218 2.500 . S
Nd193 O219 2.492 . S
Nd193 O220 2.487 1_455 S
Nd193 O221 2.682 1_455 S
Nd193 O222 2.410 . S
C194 Nd192 2.836 . S
C194 C195 1.498 . S
C194 O212 1.258 . S
C194 O213 1.239 . S
C195 C194 1.498 . S
C195 C196 1.366 . S
C195 C200 1.407 . S
C196 C195 1.366 . S
C196 C197 1.392 . S
C196 H224 0.930 . S
C197 C196 1.392 . S
C197 C198 1.398 . S
C197 H225 0.929 . S
C198 C197 1.398 . S
C198 C199 1.352 . S
C199 C198 1.352 . S
C199 C200 1.384 . S
C199 H226 0.930 . S
C200 C195 1.407 . S
C200 C199 1.384 . S
C200 H227 0.929 . S
C201 O214 1.241 . S
C201 O215 1.273 . S
C202 O216 1.251 1_556 S
C202 O217 1.268 . S
C203 Nd193 2.836 . S
C203 C204 1.498 . S
C203 O218 1.258 . S
C203 O219 1.239 . S
C204 C203 1.498 . S
C204 C205 1.366 . S
C204 C209 1.407 . S
C205 C204 1.366 . S
C205 C206 1.392 . S
C205 H228 0.930 . S
C206 C205 1.392 . S
C206 C207 1.398 . S
C206 H229 0.929 . S
C207 C206 1.398 . S
C207 C208 1.352 . S
C208 C207 1.352 . S
C208 C209 1.384 . S
C208 H230 0.930 . S
C209 C204 1.407 . S
C209 C208 1.384 . S
C209 H231 0.929 . S
C210 O220 1.241 . S
C210 O221 1.273 . S
C211 O222 1.251 1_554 S
C211 O223 1.268 . S
O212 Nd192 2.500 . S
O212 C194 1.258 . S
O213 Nd192 2.492 . S
O213 C194 1.239 . S
O214 Nd192 2.487 1_455 S
O214 C201 1.241 . S
O215 Nd192 2.682 1_455 S
O215 Nd193 2.414 1_554 S
O215 C201 1.273 . S
O216 Nd192 2.410 . S
O216 C202 1.251 1_554 S
O217 Nd193 2.424 1_655 S
O217 C202 1.268 . S
O218 Nd193 2.500 . S
O218 C203 1.258 . S
O219 Nd193 2.492 . S
O219 C203 1.239 . S
O220 Nd193 2.487 1_655 S
O220 C210 1.241 . S
O221 Nd192 2.414 1_556 S
O221 Nd193 2.682 1_655 S
O221 C210 1.273 . S
O222 Nd193 2.410 . S
O222 C211 1.251 1_556 S
O223 Nd192 2.424 1_455 S
O223 C211 1.268 . S
H224 C196 0.930 . S
H225 C197 0.929 . S
H226 C199 0.930 . S
H227 C200 0.929 . S
H228 C205 0.930 . S
H229 C206 0.929 . S
H230 C208 0.930 . S
H231 C209 0.929 . S
C232 C233 1.349 . S
C232 C234 1.327 . S
C232 H257 0.950 . S
C233 C232 1.349 . S
C233 C249 1.349 . S
C234 C232 1.327 . S
C234 C253 1.429 . S
C234 H258 0.950 . S
C235 C252 1.574 . S
C235 C254 1.368 . S
C235 H259 0.949 . S
H236 C240 0.949 . S
C237 C238 1.349 . S
C237 C239 1.327 . S
C237 H260 0.950 . S
C238 C237 1.349 . S
C238 C250 1.349 . S
C239 C237 1.327 . S
C239 C255 1.429 . S
C239 H261 0.950 . S
C240 H236 0.949 . S
C240 C248 1.574 . S
C240 C256 1.368 . S
H241 C249 0.950 . S
H242 C247 0.950 . S
H243 C248 0.949 . S
H244 C250 0.950 . S
H245 C251 0.950 . S
H246 C252 0.949 . S
C247 H242 0.950 . S
C247 C249 1.327 . S
C247 C253 1.429 . S
C248 C240 1.574 . S
C248 H243 0.949 . S
C248 C254 1.368 . S
C249 C233 1.349 . S
C249 H241 0.950 . S
C249 C247 1.327 . S
C250 C238 1.349 . S
C250 H244 0.950 . S
C250 C251 1.327 . S
C251 H245 0.950 . S
C251 C250 1.327 . S
C251 C255 1.429 . S
C252 C235 1.574 . S
C252 H246 0.949 . S
C252 C256 1.368 . S
C253 C234 1.429 . S
C253 C247 1.429 . S
C253 C254 1.523 . S
C254 C235 1.368 . S
C254 C248 1.368 . S
C254 C253 1.523 . S
C255 C239 1.429 . S
C255 C251 1.429 . S
C255 C256 1.523 . S
C256 C240 1.368 . S
C256 C252 1.368 . S
C256 C255 1.523 . S
H257 C232 0.950 . S
H258 C234 0.950 . S
H259 C235 0.949 . S
H260 C237 0.950 . S
H261 C239 0.950 . S
C262 C263 1.349 . S
C262 C264 1.327 . S
C262 H287 0.950 . S
C263 C262 1.349 . S
C263 C279 1.349 . S
C264 C262 1.327 . S
C264 C283 1.429 . S
C264 H288 0.950 . S
C265 C282 1.574 . S
C265 C284 1.368 . S
C265 H289 0.949 . S
H266 C270 0.949 . S
C267 C268 1.349 . S
C267 C269 1.327 . S
C267 H290 0.950 . S
C268 C267 1.349 . S
C268 C280 1.349 . S
C269 C267 1.327 . S
C269 C285 1.429 . S
C269 H291 0.950 . S
C270 H266 0.949 . S
C270 C278 1.574 . S
C270 C286 1.368 . S
H271 C279 0.950 . S
H272 C277 0.950 . S
H273 C278 0.949 . S
H274 C280 0.950 . S
H275 C281 0.950 . S
H276 C282 0.949 . S
C277 H272 0.950 . S
C277 C279 1.327 . S
C277 C283 1.429 . S
C278 C270 1.574 . S
C278 H273 0.949 . S
C278 C284 1.368 . S
C279 C263 1.349 . S
C279 H271 0.950 . S
C279 C277 1.327 . S
C280 C268 1.349 . S
C280 H274 0.950 . S
C280 C281 1.327 . S
C281 H275 0.950 . S
C281 C280 1.327 . S
C281 C285 1.429 . S
C282 C265 1.574 . S
C282 H276 0.949 . S
C282 C286 1.368 . S
C283 C264 1.429 . S
C283 C277 1.429 . S
C283 C284 1.523 . S
C284 C265 1.368 . S
C284 C278 1.368 . S
C284 C283 1.523 . S
C285 C269 1.429 . S
C285 C281 1.429 . S
C285 C286 1.523 . S
C286 C270 1.368 . S
C286 C282 1.368 . S
C286 C285 1.523 . S
H287 C262 0.950 . S
H288 C264 0.950 . S
H289 C265 0.949 . S
H290 C267 0.950 . S
H291 C269 0.950 . S
C292 C293 1.349 . S
C292 C294 1.327 . S
C292 H317 0.950 . S
C293 C292 1.349 . S
C293 C309 1.349 . S
C294 C292 1.327 . S
C294 C313 1.429 . S
C294 H318 0.950 . S
C295 C312 1.574 . S
C295 C314 1.368 . S
C295 H319 0.949 . S
H296 C300 0.949 . S
C297 C298 1.349 . S
C297 C299 1.327 . S
C297 H320 0.950 . S
C298 C297 1.349 . S
C298 C310 1.349 . S
C299 C297 1.327 . S
C299 C315 1.429 . S
C299 H321 0.950 . S
C300 H296 0.949 . S
C300 C308 1.574 . S
C300 C316 1.368 . S
H301 C309 0.950 . S
H302 C307 0.950 . S
H303 C308 0.949 . S
H304 C310 0.950 . S
H305 C311 0.950 . S
H306 C312 0.949 . S
C307 H302 0.950 . S
C307 C309 1.327 . S
C307 C313 1.429 . S
C308 C300 1.574 . S
C308 H303 0.949 . S
C308 C314 1.368 . S
C309 C293 1.349 . S
C309 H301 0.950 . S
C309 C307 1.327 . S
C310 C298 1.349 . S
C310 H304 0.950 . S
C310 C311 1.327 . S
C311 H305 0.950 . S
C311 C310 1.327 . S
C311 C315 1.429 . S
C312 C295 1.574 . S
C312 H306 0.949 . S
C312 C316 1.368 . S
C313 C294 1.429 . S
C313 C307 1.429 . S
C313 C314 1.523 . S
C314 C295 1.368 . S
C314 C308 1.368 . S
C314 C313 1.523 . S
C315 C299 1.429 . S
C315 C311 1.429 . S
C315 C316 1.523 . S
C316 C300 1.368 . S
C316 C312 1.368 . S
C316 C315 1.523 . S
H317 C292 0.950 . S
H318 C294 0.950 . S
H319 C295 0.949 . S
H320 C297 0.950 . S
H321 C299 0.950 . S
C322 C323 1.349 . S
C322 C324 1.327 . S
C322 H347 0.950 . S
C323 C322 1.349 . S
C323 C339 1.349 . S
C324 C322 1.327 . S
C324 C343 1.429 . S
C324 H348 0.950 . S
C325 C342 1.574 . S
C325 C344 1.368 . S
C325 H349 0.949 . S
H326 C330 0.949 . S
C327 C328 1.349 . S
C327 C329 1.327 . S
C327 H350 0.950 . S
C328 C327 1.349 . S
C328 C340 1.349 . S
C329 C327 1.327 . S
C329 C345 1.429 . S
C329 H351 0.950 . S
C330 H326 0.949 . S
C330 C338 1.574 . S
C330 C346 1.368 . S
H331 C339 0.950 . S
H332 C337 0.950 . S
H333 C338 0.949 . S
H334 C340 0.950 . S
H335 C341 0.950 . S
H336 C342 0.949 . S
C337 H332 0.950 . S
C337 C339 1.327 . S
C337 C343 1.429 . S
C338 C330 1.574 . S
C338 H333 0.949 . S
C338 C344 1.368 . S
C339 C323 1.349 . S
C339 H331 0.950 . S
C339 C337 1.327 . S
C340 C328 1.349 . S
C340 H334 0.950 . S
C340 C341 1.327 . S
C341 H335 0.950 . S
C341 C340 1.327 . S
C341 C345 1.429 . S
C342 C325 1.574 . S
C342 H336 0.949 . S
C342 C346 1.368 . S
C343 C324 1.429 . S
C343 C337 1.429 . S
C343 C344 1.523 . S
C344 C325 1.368 . S
C344 C338 1.368 . S
C344 C343 1.523 . S
C345 C329 1.429 . S
C345 C341 1.429 . S
C345 C346 1.523 . S
C346 C330 1.368 . S
C346 C342 1.368 . S
C346 C345 1.523 . S
H347 C322 0.950 . S
H348 C324 0.950 . S
H349 C325 0.949 . S
H350 C327 0.950 . S
H351 C329 0.950 . S
C352 C353 1.349 . S
C352 C354 1.327 . S
C352 H377 0.950 . S
C353 C352 1.349 . S
C353 C369 1.349 . S
C354 C352 1.327 . S
C354 C373 1.429 . S
C354 H378 0.950 . S
C355 C372 1.574 . S
C355 C374 1.368 . S
C355 H379 0.949 . S
H356 C360 0.949 . S
C357 C358 1.349 . S
C357 C359 1.327 . S
C357 H380 0.950 1_554 S
C358 C357 1.349 . S
C358 C370 1.349 . S
C359 C357 1.327 . S
C359 C375 1.429 . S
C359 H381 0.944 1_554 S
C360 H356 0.949 . S
C360 C368 1.574 . S
C360 C376 1.368 . S
H361 C369 0.950 . S
H362 C367 0.950 . S
H363 C368 0.949 . S
H364 C370 0.950 . S
H365 C371 0.950 . S
H366 C372 0.949 . S
C367 H362 0.950 . S
C367 C369 1.327 . S
C367 C373 1.429 . S
C368 C360 1.574 . S
C368 H363 0.949 . S
C368 C374 1.368 . S
C369 C353 1.349 . S
C369 H361 0.950 . S
C369 C367 1.327 . S
C370 C358 1.349 . S
C370 H364 0.950 . S
C370 C371 1.327 . S
C371 H365 0.950 . S
C371 C370 1.327 . S
C371 C375 1.429 . S
C372 C355 1.574 . S
C372 H366 0.949 . S
C372 C376 1.368 . S
C373 C354 1.429 . S
C373 C367 1.429 . S
C373 C374 1.523 . S
C374 C355 1.368 . S
C374 C368 1.368 . S
C374 C373 1.523 . S
C375 C359 1.429 . S
C375 C371 1.429 . S
C375 C376 1.523 . S
C376 C360 1.368 . S
C376 C372 1.368 . S
C376 C375 1.523 . S
H377 C352 0.950 . S
H378 C354 0.950 . S
H379 C355 0.949 . S
H380 C357 0.950 1_556 S
H381 C359 0.944 1_556 S
C382 C383 1.349 . S
C382 C384 1.327 . S
C382 H407 0.950 . S
C383 C382 1.349 . S
C383 C399 1.349 . S
C384 C382 1.327 . S
C384 C403 1.429 . S
C384 H408 0.950 . S
C385 C402 1.574 . S
C385 C404 1.368 . S
C385 H409 0.949 . S
H386 C390 0.949 . S
C387 C388 1.349 . S
C387 C389 1.327 . S
C387 H410 0.950 . S
C388 C387 1.349 . S
C388 C400 1.349 . S
C389 C387 1.327 . S
C389 C405 1.429 . S
C389 H411 0.950 . S
C390 H386 0.949 . S
C390 C398 1.574 . S
C390 C406 1.368 . S
H391 C399 0.950 . S
H392 C397 0.950 . S
H393 C398 0.949 . S
H394 C400 0.950 . S
H395 C401 0.950 . S
H396 C402 0.949 . S
C397 H392 0.950 . S
C397 C399 1.327 . S
C397 C403 1.429 . S
C398 C390 1.574 . S
C398 H393 0.949 . S
C398 C404 1.368 . S
C399 C383 1.349 . S
C399 H391 0.950 . S
C399 C397 1.327 . S
C400 C388 1.349 . S
C400 H394 0.950 . S
C400 C401 1.327 . S
C401 H395 0.950 . S
C401 C400 1.327 . S
C401 C405 1.429 . S
C402 C385 1.574 . S
C402 H396 0.949 . S
C402 C406 1.368 . S
C403 C384 1.429 . S
C403 C397 1.429 . S
C403 C404 1.523 . S
C404 C385 1.368 . S
C404 C398 1.368 . S
C404 C403 1.523 . S
C405 C389 1.429 . S
C405 C401 1.429 . S
C405 C406 1.523 . S
C406 C390 1.368 . S
C406 C402 1.368 . S
C406 C405 1.523 . S
H407 C382 0.950 . S
H408 C384 0.950 . S
H409 C385 0.949 . S
H410 C387 0.950 . S
H411 C389 0.950 . S
C412 C413 1.349 . S
C412 C414 1.327 . S
C412 H437 0.950 . S
C413 C412 1.349 . S
C413 C429 1.349 . S
C414 C412 1.327 . S
C414 C433 1.429 . S
C414 H438 0.950 . S
C415 C432 1.574 . S
C415 C434 1.368 . S
C415 H439 0.949 . S
H416 C420 0.949 . S
C417 C418 1.349 . S
C417 C419 1.327 . S
C417 H440 0.950 . S
C418 C417 1.349 . S
C418 C430 1.349 . S
C419 C417 1.327 . S
C419 C435 1.429 . S
C419 H441 0.950 . S
C420 H416 0.949 . S
C420 C428 1.574 . S
C420 C436 1.368 . S
H421 C429 0.950 . S
H422 C427 0.950 . S
H423 C428 0.949 . S
H424 C430 0.950 . S
H425 C431 0.950 . S
H426 C432 0.949 . S
C427 H422 0.950 . S
C427 C429 1.327 . S
C427 C433 1.429 . S
C428 C420 1.574 . S
C428 H423 0.949 . S
C428 C434 1.368 . S
C429 C413 1.349 . S
C429 H421 0.950 . S
C429 C427 1.327 . S
C430 C418 1.349 . S
C430 H424 0.950 . S
C430 C431 1.327 . S
C431 H425 0.950 . S
C431 C430 1.327 . S
C431 C435 1.429 . S
C432 C415 1.574 . S
C432 H426 0.949 . S
C432 C436 1.368 . S
C433 C414 1.429 . S
C433 C427 1.429 . S
C433 C434 1.523 . S
C434 C415 1.368 . S
C434 C428 1.368 . S
C434 C433 1.523 . S
C435 C419 1.429 . S
C435 C431 1.429 . S
C435 C436 1.523 . S
C436 C420 1.368 . S
C436 C432 1.368 . S
C436 C435 1.523 . S
H437 C412 0.950 . S
H438 C414 0.950 . S
H439 C415 0.949 . S
H440 C417 0.950 . S
H441 C419 0.950 . S
C442 C443 1.349 . S
C442 C444 1.327 . S
C442 H467 0.950 . S
C443 C442 1.349 . S
C443 C459 1.349 . S
C444 C442 1.327 . S
C444 C463 1.429 . S
C444 H468 0.950 . S
C445 C462 1.574 . S
C445 C464 1.368 . S
C445 H469 0.949 . S
H446 C450 0.949 . S
C447 C448 1.349 . S
C447 C449 1.327 . S
C447 H470 0.950 . S
C448 C447 1.349 . S
C448 C460 1.349 . S
C449 C447 1.327 . S
C449 C465 1.429 . S
C449 H471 0.950 . S
C450 H446 0.949 . S
C450 C458 1.574 . S
C450 C466 1.368 . S
H451 C459 0.950 . S
H452 C457 0.950 . S
H453 C458 0.949 . S
H454 C460 0.950 . S
H455 C461 0.950 . S
H456 C462 0.949 . S
C457 H452 0.950 . S
C457 C459 1.327 . S
C457 C463 1.429 . S
C458 C450 1.574 . S
C458 H453 0.949 . S
C458 C464 1.368 . S
C459 C443 1.349 . S
C459 H451 0.950 . S
C459 C457 1.327 . S
C460 C448 1.349 . S
C460 H454 0.950 . S
C460 C461 1.327 . S
C461 H455 0.950 . S
C461 C460 1.327 . S
C461 C465 1.429 . S
C462 C445 1.574 . S
C462 H456 0.949 . S
C462 C466 1.368 . S
C463 C444 1.429 . S
C463 C457 1.429 . S
C463 C464 1.523 . S
C464 C445 1.368 . S
C464 C458 1.368 . S
C464 C463 1.523 . S
C465 C449 1.429 . S
C465 C461 1.429 . S
C465 C466 1.523 . S
C466 C450 1.368 . S
C466 C462 1.368 . S
C466 C465 1.523 . S
H467 C442 0.950 . S
H468 C444 0.950 . S
H469 C445 0.949 . S
H470 C447 0.950 . S
H471 C449 0.950 . S
C472 C473 1.349 . S
C472 C474 1.327 . S
C472 H497 0.950 . S
C473 C472 1.349 . S
C473 C489 1.349 . S
C474 C472 1.327 . S
C474 C493 1.429 . S
C474 H498 0.950 . S
C475 C492 1.574 . S
C475 C494 1.368 . S
C475 H499 0.949 . S
H476 C480 0.949 . S
C477 C478 1.349 . S
C477 C479 1.327 . S
C477 H500 0.950 . S
C478 C477 1.349 . S
C478 C490 1.349 . S
C479 C477 1.327 . S
C479 C495 1.429 . S
C479 H501 0.950 . S
C480 H476 0.949 . S
C480 C488 1.574 . S
C480 C496 1.368 . S
H481 C489 0.950 . S
H482 C487 0.950 . S
H483 C488 0.949 . S
H484 C490 0.950 . S
H485 C491 0.950 . S
H486 C492 0.949 . S
C487 H482 0.950 . S
C487 C489 1.327 . S
C487 C493 1.429 . S
C488 C480 1.574 . S
C488 H483 0.949 . S
C488 C494 1.368 . S
C489 C473 1.349 . S
C489 H481 0.950 . S
C489 C487 1.327 . S
C490 C478 1.349 . S
C490 H484 0.950 . S
C490 C491 1.327 . S
C491 H485 0.950 . S
C491 C490 1.327 . S
C491 C495 1.429 . S
C492 C475 1.574 . S
C492 H486 0.949 . S
C492 C496 1.368 . S
C493 C474 1.429 . S
C493 C487 1.429 . S
C493 C494 1.523 . S
C494 C475 1.368 . S
C494 C488 1.368 . S
C494 C493 1.523 . S
C495 C479 1.429 . S
C495 C491 1.429 . S
C495 C496 1.523 . S
C496 C480 1.368 . S
C496 C492 1.368 . S
C496 C495 1.523 . S
H497 C472 0.950 . S
H498 C474 0.950 . S
H499 C475 0.949 . S
H500 C477 0.950 . S
H501 C479 0.950 . S
C502 C503 1.349 . S
C502 C504 1.327 . S
C502 H527 0.950 . S
C503 C502 1.349 . S
C503 C519 1.349 . S
C504 C502 1.327 . S
C504 C523 1.429 . S
C504 H528 0.950 . S
C505 C522 1.574 . S
C505 C524 1.368 . S
C505 H529 0.949 . S
H506 C510 0.949 . S
C507 C508 1.349 . S
C507 C509 1.327 . S
C507 H530 0.950 . S
C508 C507 1.349 . S
C508 C520 1.349 . S
C509 C507 1.327 . S
C509 C525 1.429 . S
C509 H531 0.950 . S
C510 H506 0.949 . S
C510 C518 1.574 . S
C510 C526 1.368 . S
H511 C519 0.950 . S
H512 C517 0.950 . S
H513 C518 0.949 . S
H514 C520 0.950 . S
H515 C521 0.950 . S
H516 C522 0.949 . S
C517 H512 0.950 . S
C517 C519 1.327 . S
C517 C523 1.429 . S
C518 C510 1.574 . S
C518 H513 0.949 . S
C518 C524 1.368 . S
C519 C503 1.349 . S
C519 H511 0.950 . S
C519 C517 1.327 . S
C520 C508 1.349 . S
C520 H514 0.950 . S
C520 C521 1.327 . S
C521 H515 0.950 . S
C521 C520 1.327 . S
C521 C525 1.429 . S
C522 C505 1.574 . S
C522 H516 0.949 . S
C522 C526 1.368 . S
C523 C504 1.429 . S
C523 C517 1.429 . S
C523 C524 1.523 . S
C524 C505 1.368 . S
C524 C518 1.368 . S
C524 C523 1.523 . S
C525 C509 1.429 . S
C525 C521 1.429 . S
C525 C526 1.523 . S
C526 C510 1.368 . S
C526 C522 1.368 . S
C526 C525 1.523 . S
H527 C502 0.950 . S
H528 C504 0.950 . S
H529 C505 0.949 . S
H530 C507 0.950 . S
H531 C509 0.950 . S
C532 C533 1.349 . S
C532 C534 1.327 . S
C532 H557 0.950 . S
C533 C532 1.349 . S
C533 C549 1.349 . S
C534 C532 1.327 . S
C534 C553 1.429 . S
C534 H558 0.950 . S
C535 C552 1.574 . S
C535 C554 1.368 . S
C535 H559 0.949 . S
H536 C540 0.949 . S
C537 C538 1.349 . S
C537 C539 1.327 . S
C537 H560 0.950 . S
C538 C537 1.349 . S
C538 C550 1.349 . S
C539 C537 1.327 . S
C539 C555 1.429 . S
C539 H561 0.950 . S
C540 H536 0.949 . S
C540 C548 1.574 . S
C540 C556 1.368 . S
H541 C549 0.950 . S
H542 C547 0.950 . S
H543 C548 0.949 . S
H544 C550 0.950 1_455 S
H545 C551 0.950 . S
H546 C552 0.949 . S
C547 H542 0.950 . S
C547 C549 1.327 . S
C547 C553 1.429 . S
C548 C540 1.574 . S
C548 H543 0.949 . S
C548 C554 1.368 . S
C549 C533 1.349 . S
C549 H541 0.950 . S
C549 C547 1.327 . S
C550 C538 1.349 . S
C550 H544 0.950 1_655 S
C550 C551 1.327 . S
C551 H545 0.950 . S
C551 C550 1.327 . S
C551 C555 1.429 . S
C552 C535 1.574 . S
C552 H546 0.949 . S
C552 C556 1.368 . S
C553 C534 1.429 . S
C553 C547 1.429 . S
C553 C554 1.523 . S
C554 C535 1.368 . S
C554 C548 1.368 . S
C554 C553 1.523 . S
C555 C539 1.429 . S
C555 C551 1.429 . S
C555 C556 1.523 . S
C556 C540 1.368 . S
C556 C552 1.368 . S
C556 C555 1.523 . S
H557 C532 0.950 . S
H558 C534 0.950 . S
H559 C535 0.949 . S
H560 C537 0.950 . S
H561 C539 0.950 . S
C562 C563 1.349 . S
C562 C564 1.327 . S
C562 H587 0.950 . S
C563 C562 1.349 . S
C563 C579 1.349 . S
C564 C562 1.327 . S
C564 C583 1.429 . S
C564 H588 0.950 . S
C565 C582 1.574 . S
C565 C584 1.368 . S
C565 H589 0.949 . S
H566 C570 0.949 . S
C567 C568 1.349 . S
C567 C569 1.327 . S
C567 H590 0.950 . S
C568 C567 1.349 . S
C568 C580 1.349 . S
C569 C567 1.327 . S
C569 C585 1.429 . S
C569 H591 0.950 . S
C570 H566 0.949 . S
C570 C578 1.574 . S
C570 C586 1.368 . S
H571 C579 0.950 . S
H572 C577 0.950 . S
H573 C578 0.949 . S
H574 C580 0.950 . S
H575 C581 0.950 . S
H576 C582 0.949 . S
C577 H572 0.950 . S
C577 C579 1.327 . S
C577 C583 1.429 . S
C578 C570 1.574 . S
C578 H573 0.949 . S
C578 C584 1.368 . S
C579 C563 1.349 . S
C579 H571 0.950 . S
C579 C577 1.327 . S
C580 C568 1.349 . S
C580 H574 0.950 . S
C580 C581 1.327 . S
C581 H575 0.950 . S
C581 C580 1.327 . S
C581 C585 1.429 . S
C582 C565 1.574 . S
C582 H576 0.949 . S
C582 C586 1.368 . S
C583 C564 1.429 . S
C583 C577 1.429 . S
C583 C584 1.523 . S
C584 C565 1.368 . S
C584 C578 1.368 . S
C584 C583 1.523 . S
C585 C569 1.429 . S
C585 C581 1.429 . S
C585 C586 1.523 . S
C586 C570 1.368 . S
C586 C582 1.368 . S
C586 C585 1.523 . S
H587 C562 0.950 . S
H588 C564 0.950 . S
H589 C565 0.949 . S
H590 C567 0.950 . S
H591 C569 0.950 . S
C592 C593 1.349 . S
C592 C594 1.327 . S
C592 H617 0.950 . S
C593 C592 1.349 . S
C593 C609 1.349 . S
C594 C592 1.327 . S
C594 C613 1.429 . S
C594 H618 0.950 . S
C595 C612 1.574 . S
C595 C614 1.368 . S
C595 H619 0.949 . S
H596 C600 0.949 . S
C597 C598 1.349 . S
C597 C599 1.327 . S
C597 H620 0.950 1_655 S
C598 C597 1.349 . S
C598 C610 1.349 . S
C599 C597 1.327 . S
C599 C615 1.429 . S
C599 H621 0.950 . S
C600 H596 0.949 . S
C600 C608 1.574 . S
C600 C616 1.368 . S
H601 C609 0.950 . S
H602 C607 0.950 . S
H603 C608 0.949 . S
H604 C610 0.950 . S
H605 C611 0.950 . S
H606 C612 0.949 . S
C607 H602 0.950 . S
C607 C609 1.327 . S
C607 C613 1.429 . S
C608 C600 1.574 . S
C608 H603 0.949 . S
C608 C614 1.368 . S
C609 C593 1.349 . S
C609 H601 0.950 . S
C609 C607 1.327 . S
C610 C598 1.349 . S
C610 H604 0.950 . S
C610 C611 1.327 . S
C611 H605 0.950 . S
C611 C610 1.327 . S
C611 C615 1.429 . S
C612 C595 1.574 . S
C612 H606 0.949 . S
C612 C616 1.368 . S
C613 C594 1.429 . S
C613 C607 1.429 . S
C613 C614 1.523 . S
C614 C595 1.368 . S
C614 C608 1.368 . S
C614 C613 1.523 . S
C615 C599 1.429 . S
C615 C611 1.429 . S
C615 C616 1.523 . S
C616 C600 1.368 . S
C616 C612 1.368 . S
C616 C615 1.523 . S
H617 C592 0.950 . S
H618 C594 0.950 . S
H619 C595 0.949 . S
H620 C597 0.950 1_455 S
H621 C599 0.950 . S
C622 C623 1.349 . S
C622 C624 1.327 . S
C622 H647 0.950 . S
C623 C622 1.349 . S
C623 C639 1.349 . S
C624 C622 1.327 . S
C624 C643 1.429 . S
C624 H648 0.950 . S
C625 C642 1.574 . S
C625 C644 1.368 . S
C625 H649 0.949 . S
H626 C630 0.949 . S
C627 C628 1.349 . S
C627 C629 1.327 . S
C627 H650 0.950 . S
C628 C627 1.349 . S
C628 C640 1.349 . S
C629 C627 1.327 . S
C629 C645 1.429 . S
C629 H651 0.950 . S
C630 H626 0.949 . S
C630 C638 1.574 . S
C630 C646 1.368 . S
H631 C639 0.950 . S
H632 C637 0.950 . S
H633 C638 0.949 . S
H634 C640 0.950 . S
H635 C641 0.950 . S
H636 C642 0.949 . S
C637 H632 0.950 . S
C637 C639 1.327 . S
C637 C643 1.429 . S
C638 C630 1.574 . S
C638 H633 0.949 . S
C638 C644 1.368 . S
C639 C623 1.349 . S
C639 H631 0.950 . S
C639 C637 1.327 . S
C640 C628 1.349 . S
C640 H634 0.950 . S
C640 C641 1.327 . S
C641 H635 0.950 . S
C641 C640 1.327 . S
C641 C645 1.429 . S
C642 C625 1.574 . S
C642 H636 0.949 . S
C642 C646 1.368 . S
C643 C624 1.429 . S
C643 C637 1.429 . S
C643 C644 1.523 . S
C644 C625 1.368 . S
C644 C638 1.368 . S
C644 C643 1.523 . S
C645 C629 1.429 . S
C645 C641 1.429 . S
C645 C646 1.523 . S
C646 C630 1.368 . S
C646 C642 1.368 . S
C646 C645 1.523 . S
H647 C622 0.950 . S
H648 C624 0.950 . S
H649 C625 0.949 . S
H650 C627 0.950 . S
H651 C629 0.950 . S
C652 C653 1.349 . S
C652 C654 1.327 . S
C652 H677 0.950 . S
C653 C652 1.349 . S
C653 C669 1.349 . S
C654 C652 1.327 . S
C654 C673 1.429 . S
C654 H678 0.950 . S
C655 C672 1.574 . S
C655 C674 1.368 . S
C655 H679 0.949 . S
H656 C660 0.949 . S
C657 C658 1.349 . S
C657 C659 1.327 . S
C657 H680 0.950 . S
C658 C657 1.349 . S
C658 C670 1.349 . S
C659 C657 1.327 . S
C659 C675 1.429 . S
C659 H681 0.950 . S
C660 H656 0.949 . S
C660 C668 1.574 . S
C660 C676 1.368 . S
H661 C669 0.950 . S
H662 C667 0.950 . S
H663 C668 0.949 . S
H664 C670 0.950 . S
H665 C671 0.950 . S
H666 C672 0.949 . S
C667 H662 0.950 . S
C667 C669 1.327 . S
C667 C673 1.429 . S
C668 C660 1.574 . S
C668 H663 0.949 . S
C668 C674 1.368 . S
C669 C653 1.349 . S
C669 H661 0.950 . S
C669 C667 1.327 . S
C670 C658 1.349 . S
C670 H664 0.950 . S
C670 C671 1.327 . S
C671 H665 0.950 . S
C671 C670 1.327 . S
C671 C675 1.429 . S
C672 C655 1.574 . S
C672 H666 0.949 . S
C672 C676 1.368 . S
C673 C654 1.429 . S
C673 C667 1.429 . S
C673 C674 1.523 . S
C674 C655 1.368 . S
C674 C668 1.368 . S
C674 C673 1.523 . S
C675 C659 1.429 . S
C675 C671 1.429 . S
C675 C676 1.523 . S
C676 C660 1.368 . S
C676 C672 1.368 . S
C676 C675 1.523 . S
H677 C652 0.950 . S
H678 C654 0.950 . S
H679 C655 0.949 . S
H680 C657 0.950 . S
H681 C659 0.950 . S
C682 C683 1.349 . S
C682 C684 1.327 . S
C682 H707 0.950 . S
C683 C682 1.349 . S
C683 C699 1.349 . S
C684 C682 1.327 . S
C684 C703 1.429 . S
C684 H708 0.950 . S
C685 C702 1.574 . S
C685 C704 1.368 . S
C685 H709 0.949 . S
H686 C690 0.949 . S
C687 C688 1.349 . S
C687 C689 1.327 . S
C687 H710 0.950 . S
C688 C687 1.349 . S
C688 C700 1.349 . S
C689 C687 1.327 . S
C689 C705 1.429 . S
C689 H711 0.950 . S
C690 H686 0.949 . S
C690 C698 1.574 . S
C690 C706 1.368 . S
H691 C699 0.950 . S
H692 C697 0.950 . S
H693 C698 0.949 . S
H694 C700 0.950 . S
H695 C701 0.950 . S
H696 C702 0.949 . S
C697 H692 0.950 . S
C697 C699 1.327 . S
C697 C703 1.429 . S
C698 C690 1.574 . S
C698 H693 0.949 . S
C698 C704 1.368 . S
C699 C683 1.349 . S
C699 H691 0.950 . S
C699 C697 1.327 . S
C700 C688 1.349 . S
C700 H694 0.950 . S
C700 C701 1.327 . S
C701 H695 0.950 . S
C701 C700 1.327 . S
C701 C705 1.429 . S
C702 C685 1.574 . S
C702 H696 0.949 . S
C702 C706 1.368 . S
C703 C684 1.429 . S
C703 C697 1.429 . S
C703 C704 1.523 . S
C704 C685 1.368 . S
C704 C698 1.368 . S
C704 C703 1.523 . S
C705 C689 1.429 . S
C705 C701 1.429 . S
C705 C706 1.523 . S
C706 C690 1.368 . S
C706 C702 1.368 . S
C706 C705 1.523 . S
H707 C682 0.950 . S
H708 C684 0.950 . S
H709 C685 0.949 . S
H710 C687 0.950 . S
H711 C689 0.950 . S
C712 C713 1.349 . S
C712 C714 1.327 . S
C712 H737 0.950 . S
C713 C712 1.349 . S
C713 C729 1.349 . S
C714 C712 1.327 . S
C714 C733 1.429 . S
C714 H738 0.950 . S
C715 C732 1.574 . S
C715 C734 1.368 . S
C715 H739 0.949 . S
H716 C720 0.949 . S
C717 C718 1.349 . S
C717 C719 1.327 . S
C717 H740 0.950 . S
C718 C717 1.349 . S
C718 C730 1.349 . S
C719 C717 1.327 . S
C719 C735 1.429 . S
C719 H741 0.950 . S
C720 H716 0.949 . S
C720 C728 1.574 . S
C720 C736 1.368 . S
H721 C729 0.950 . S
H722 C727 0.950 . S
H723 C728 0.949 . S
H724 C730 0.950 . S
H725 C731 0.950 . S
H726 C732 0.949 . S
C727 H722 0.950 . S
C727 C729 1.327 . S
C727 C733 1.429 . S
C728 C720 1.574 . S
C728 H723 0.949 . S
C728 C734 1.368 . S
C729 C713 1.349 . S
C729 H721 0.950 . S
C729 C727 1.327 . S
C730 C718 1.349 . S
C730 H724 0.950 . S
C730 C731 1.327 . S
C731 H725 0.950 . S
C731 C730 1.327 . S
C731 C735 1.429 . S
C732 C715 1.574 . S
C732 H726 0.949 . S
C732 C736 1.368 . S
C733 C714 1.429 . S
C733 C727 1.429 . S
C733 C734 1.523 . S
C734 C715 1.368 . S
C734 C728 1.368 . S
C734 C733 1.523 . S
C735 C719 1.429 . S
C735 C731 1.429 . S
C735 C736 1.523 . S
C736 C720 1.368 . S
C736 C732 1.368 . S
C736 C735 1.523 . S
H737 C712 0.950 . S
H738 C714 0.950 . S
H739 C715 0.949 . S
H740 C717 0.950 . S
H741 C719 0.950 . S
C742 C743 1.349 . S
C742 C744 1.327 . S
C742 H767 0.950 . S
C743 C742 1.349 . S
C743 C759 1.349 . S
C744 C742 1.327 . S
C744 C763 1.429 . S
C744 H768 0.950 . S
C745 C762 1.574 . S
C745 C764 1.368 . S
C745 H769 0.949 . S
H746 C750 0.949 . S
C747 C748 1.349 . S
C747 C749 1.327 . S
C747 H770 0.950 . S
C748 C747 1.349 . S
C748 C760 1.349 . S
C749 C747 1.327 . S
C749 C765 1.429 . S
C749 H771 0.950 . S
C750 H746 0.949 . S
C750 C758 1.574 . S
C750 C766 1.368 . S
H751 C759 0.950 . S
H752 C757 0.950 . S
H753 C758 0.949 . S
H754 C760 0.950 . S
H755 C761 0.950 . S
H756 C762 0.949 . S
C757 H752 0.950 . S
C757 C759 1.327 . S
C757 C763 1.429 . S
C758 C750 1.574 . S
C758 H753 0.949 . S
C758 C764 1.368 . S
C759 C743 1.349 . S
C759 H751 0.950 . S
C759 C757 1.327 . S
C760 C748 1.349 . S
C760 H754 0.950 . S
C760 C761 1.327 . S
C761 H755 0.950 . S
C761 C760 1.327 . S
C761 C765 1.429 . S
C762 C745 1.574 . S
C762 H756 0.949 . S
C762 C766 1.368 . S
C763 C744 1.429 . S
C763 C757 1.429 . S
C763 C764 1.523 . S
C764 C745 1.368 . S
C764 C758 1.368 . S
C764 C763 1.523 . S
C765 C749 1.429 . S
C765 C761 1.429 . S
C765 C766 1.523 . S
C766 C750 1.368 . S
C766 C762 1.368 . S
C766 C765 1.523 . S
H767 C742 0.950 . S
H768 C744 0.950 . S
H769 C745 0.949 . S
H770 C747 0.950 . S
H771 C749 0.950 . S
C772 C773 1.349 . S
C772 C774 1.327 . S
C772 H797 0.950 . S
C773 C772 1.349 . S
C773 C789 1.349 . S
C774 C772 1.327 . S
C774 C793 1.429 . S
C774 H798 0.950 . S
C775 C792 1.574 . S
C775 C794 1.368 . S
C775 H799 0.949 . S
H776 C780 0.949 . S
C777 C778 1.349 . S
C777 C779 1.327 . S
C777 H800 0.950 . S
C778 C777 1.349 . S
C778 C790 1.349 . S
C779 C777 1.327 . S
C779 C795 1.429 . S
C779 H801 0.950 . S
C780 H776 0.949 . S
C780 C788 1.574 . S
C780 C796 1.368 . S
H781 C789 0.950 . S
H782 C787 0.950 . S
H783 C788 0.949 . S
H784 C790 0.950 1_556 S
H785 C791 0.950 . S
H786 C792 0.949 . S
C787 H782 0.950 . S
C787 C789 1.327 . S
C787 C793 1.429 . S
C788 C780 1.574 . S
C788 H783 0.949 . S
C788 C794 1.368 . S
C789 C773 1.349 . S
C789 H781 0.950 . S
C789 C787 1.327 . S
C790 C778 1.349 . S
C790 H784 0.950 1_554 S
C790 C791 1.327 . S
C791 H785 0.950 . S
C791 C790 1.327 . S
C791 C795 1.429 . S
C792 C775 1.574 . S
C792 H786 0.949 . S
C792 C796 1.368 . S
C793 C774 1.429 . S
C793 C787 1.429 . S
C793 C794 1.523 . S
C794 C775 1.368 . S
C794 C788 1.368 . S
C794 C793 1.523 . S
C795 C779 1.429 . S
C795 C791 1.429 . S
C795 C796 1.523 . S
C796 C780 1.368 . S
C796 C792 1.368 . S
C796 C795 1.523 . S
H797 C772 0.950 . S
H798 C774 0.950 . S
H799 C775 0.949 . S
H800 C777 0.950 . S
H801 C779 0.950 . S
C802 C803 1.349 . S
C802 C804 1.327 . S
C802 H827 0.950 . S
C803 C802 1.349 . S
C803 C819 1.349 . S
C804 C802 1.327 . S
C804 C823 1.429 . S
C804 H828 0.950 . S
C805 C822 1.574 . S
C805 C824 1.368 . S
C805 H829 0.949 . S
H806 C810 0.949 . S
C807 C808 1.349 . S
C807 C809 1.327 . S
C807 H830 0.950 . S
C808 C807 1.349 . S
C808 C820 1.349 . S
C809 C807 1.327 . S
C809 C825 1.429 . S
C809 H831 0.950 . S
C810 H806 0.949 . S
C810 C818 1.574 . S
C810 C826 1.368 . S
H811 C819 0.950 . S
H812 C817 0.950 . S
H813 C818 0.949 . S
H814 C820 0.950 . S
H815 C821 0.950 . S
H816 C822 0.949 . S
C817 H812 0.950 . S
C817 C819 1.327 . S
C817 C823 1.429 . S
C818 C810 1.574 . S
C818 H813 0.949 . S
C818 C824 1.368 . S
C819 C803 1.349 . S
C819 H811 0.950 . S
C819 C817 1.327 . S
C820 C808 1.349 . S
C820 H814 0.950 . S
C820 C821 1.327 . S
C821 H815 0.950 . S
C821 C820 1.327 . S
C821 C825 1.429 . S
C822 C805 1.574 . S
C822 H816 0.949 . S
C822 C826 1.368 . S
C823 C804 1.429 . S
C823 C817 1.429 . S
C823 C824 1.523 . S
C824 C805 1.368 . S
C824 C818 1.368 . S
C824 C823 1.523 . S
C825 C809 1.429 . S
C825 C821 1.429 . S
C825 C826 1.523 . S
C826 C810 1.368 . S
C826 C822 1.368 . S
C826 C825 1.523 . S
H827 C802 0.950 . S
H828 C804 0.950 . S
H829 C805 0.949 . S
H830 C807 0.950 . S
H831 C809 0.950 . S
C832 C833 1.349 . S
C832 C834 1.327 . S
C832 H857 0.950 . S
C833 C832 1.349 . S
C833 C849 1.349 . S
C834 C832 1.327 . S
C834 C853 1.429 . S
C834 H858 0.950 . S
C835 C852 1.574 . S
C835 C854 1.368 . S
C835 H859 0.949 . S
H836 C840 0.949 . S
C837 C838 1.349 . S
C837 C839 1.327 . S
C837 H860 0.950 . S
C838 C837 1.349 . S
C838 C850 1.349 . S
C839 C837 1.327 . S
C839 C855 1.429 . S
C839 H861 0.950 . S
C840 H836 0.949 . S
C840 C848 1.574 . S
C840 C856 1.368 . S
H841 C849 0.950 . S
H842 C847 0.950 . S
H843 C848 0.949 . S
H844 C850 0.950 1_554 S
H845 C851 0.950 1_554 S
H846 C852 0.949 . S
C847 H842 0.950 . S
C847 C849 1.327 . S
C847 C853 1.429 . S
C848 C840 1.574 . S
C848 H843 0.949 . S
C848 C854 1.368 . S
C849 C833 1.349 . S
C849 H841 0.950 . S
C849 C847 1.327 . S
C850 C838 1.349 . S
C850 H844 0.950 1_556 S
C850 C851 1.327 . S
C851 H845 0.950 1_556 S
C851 C850 1.327 . S
C851 C855 1.429 . S
C852 C835 1.574 . S
C852 H846 0.949 . S
C852 C856 1.368 . S
C853 C834 1.429 . S
C853 C847 1.429 . S
C853 C854 1.523 . S
C854 C835 1.368 . S
C854 C848 1.368 . S
C854 C853 1.523 . S
C855 C839 1.429 . S
C855 C851 1.429 . S
C855 C856 1.523 . S
C856 C840 1.368 . S
C856 C852 1.368 . S
C856 C855 1.523 . S
H857 C832 0.950 . S
H858 C834 0.950 . S
H859 C835 0.949 . S
H860 C837 0.950 . S
H861 C839 0.950 . S
C862 C863 1.349 . S
C862 C864 1.327 . S
C862 H887 0.950 . S
C863 C862 1.349 . S
C863 C879 1.349 . S
C864 C862 1.327 . S
C864 C883 1.429 . S
C864 H888 0.950 . S
C865 C882 1.574 . S
C865 C884 1.368 . S
C865 H889 0.949 . S
H866 C870 0.949 . S
C867 C868 1.349 . S
C867 C869 1.327 . S
C867 H890 0.950 . S
C868 C867 1.349 . S
C868 C880 1.349 . S
C869 C867 1.327 . S
C869 C885 1.429 . S
C869 H891 0.950 . S
C870 H866 0.949 . S
C870 C878 1.574 . S
C870 C886 1.368 . S
H871 C879 0.950 . S
H872 C877 0.950 . S
H873 C878 0.949 . S
H874 C880 0.950 . S
H875 C881 0.950 . S
H876 C882 0.949 . S
C877 H872 0.950 . S
C877 C879 1.327 . S
C877 C883 1.429 . S
C878 C870 1.574 . S
C878 H873 0.949 . S
C878 C884 1.368 . S
C879 C863 1.349 . S
C879 H871 0.950 . S
C879 C877 1.327 . S
C880 C868 1.349 . S
C880 H874 0.950 . S
C880 C881 1.327 . S
C881 H875 0.950 . S
C881 C880 1.327 . S
C881 C885 1.429 . S
C882 C865 1.574 . S
C882 H876 0.949 . S
C882 C886 1.368 . S
C883 C864 1.429 . S
C883 C877 1.429 . S
C883 C884 1.523 . S
C884 C865 1.368 . S
C884 C878 1.368 . S
C884 C883 1.523 . S
C885 C869 1.429 . S
C885 C881 1.429 . S
C885 C886 1.523 . S
C886 C870 1.368 . S
C886 C882 1.368 . S
C886 C885 1.523 . S
H887 C862 0.950 . S
H888 C864 0.950 . S
H889 C865 0.949 . S
H890 C867 0.950 . S
H891 C869 0.950 . S
C892 C893 1.349 . S
C892 C894 1.327 . S
C892 H917 0.950 . S
C893 C892 1.349 . S
C893 C909 1.349 . S
C894 C892 1.327 . S
C894 C913 1.429 . S
C894 H918 0.950 . S
C895 C912 1.574 . S
C895 C914 1.368 . S
C895 H919 0.949 . S
H896 C900 0.949 . S
C897 C898 1.349 . S
C897 C899 1.327 . S
C897 H920 0.950 . S
C898 C897 1.349 . S
C898 C910 1.349 . S
C899 C897 1.327 . S
C899 C915 1.429 . S
C899 H921 0.950 . S
C900 H896 0.949 . S
C900 C908 1.574 . S
C900 C916 1.368 . S
H901 C909 0.950 . S
H902 C907 0.950 . S
H903 C908 0.949 . S
H904 C910 0.950 . S
H905 C911 0.950 . S
H906 C912 0.949 . S
C907 H902 0.950 . S
C907 C909 1.327 . S
C907 C913 1.429 . S
C908 C900 1.574 . S
C908 H903 0.949 . S
C908 C914 1.368 . S
C909 C893 1.349 . S
C909 H901 0.950 . S
C909 C907 1.327 . S
C910 C898 1.349 . S
C910 H904 0.950 . S
C910 C911 1.327 . S
C911 H905 0.950 . S
C911 C910 1.327 . S
C911 C915 1.429 . S
C912 C895 1.574 . S
C912 H906 0.949 . S
C912 C916 1.368 . S
C913 C894 1.429 . S
C913 C907 1.429 . S
C913 C914 1.523 . S
C914 C895 1.368 . S
C914 C908 1.368 . S
C914 C913 1.523 . S
C915 C899 1.429 . S
C915 C911 1.429 . S
C915 C916 1.523 . S
C916 C900 1.368 . S
C916 C912 1.368 . S
C916 C915 1.523 . S
H917 C892 0.950 . S
H918 C894 0.950 . S
H919 C895 0.949 . S
H920 C897 0.950 . S
H921 C899 0.950 . S
C922 C923 1.349 . S
C922 C924 1.327 . S
C922 H947 0.950 . S
C923 C922 1.349 . S
C923 C939 1.349 . S
C924 C922 1.327 . S
C924 C943 1.429 . S
C924 H948 0.950 . S
C925 C942 1.574 . S
C925 C944 1.368 . S
C925 H949 0.949 . S
H926 C930 0.949 . S
C927 C928 1.349 . S
C927 C929 1.327 . S
C927 H950 0.950 . S
C928 C927 1.349 . S
C928 C940 1.349 . S
C929 C927 1.327 . S
C929 C945 1.429 . S
C929 H951 0.950 . S
C930 H926 0.949 . S
C930 C938 1.574 . S
C930 C946 1.368 . S
H931 C939 0.950 . S
H932 C937 0.950 . S
H933 C938 0.949 . S
H934 C940 0.950 . S
H935 C941 0.950 . S
H936 C942 0.949 . S
C937 H932 0.950 . S
C937 C939 1.327 . S
C937 C943 1.429 . S
C938 C930 1.574 . S
C938 H933 0.949 . S
C938 C944 1.368 . S
C939 C923 1.349 . S
C939 H931 0.950 . S
C939 C937 1.327 . S
C940 C928 1.349 . S
C940 H934 0.950 . S
C940 C941 1.327 . S
C941 H935 0.950 . S
C941 C940 1.327 . S
C941 C945 1.429 . S
C942 C925 1.574 . S
C942 H936 0.949 . S
C942 C946 1.368 . S
C943 C924 1.429 . S
C943 C937 1.429 . S
C943 C944 1.523 . S
C944 C925 1.368 . S
C944 C938 1.368 . S
C944 C943 1.523 . S
C945 C929 1.429 . S
C945 C941 1.429 . S
C945 C946 1.523 . S
C946 C930 1.368 . S
C946 C942 1.368 . S
C946 C945 1.523 . S
H947 C922 0.950 . S
H948 C924 0.950 . S
H949 C925 0.949 . S
H950 C927 0.950 . S
H951 C929 0.950 . S
C233 C5 2.909 . S
C238 C91 2.887 . S
C263 C14 2.148 . S
C268 C122 2.195 . S
C298 C161 1.279 . S
C293 C25 1.326 . S
C323 C34 0.415 . S
C328 C198 0.434 . S
C358 C121 2.787 . S
C353 C7 2.877 . S
C388 C78 1.418 . S
C383 C13 1.420 . S
C418 C210 1.366 . S
C413 C23 1.422 . S
C448 C167 0.922 . S
C443 C31 0.927 . S
C473 C4 2.282 . S
C478 C211 2.277 . S
C508 C127 1.276 . S
C503 C22 1.278 . S
C533 C32 0.528 . S
C538 C90 0.573 . S
C563 C16 2.328 . S
C568 C162 2.331 . S
C598 C82 2.872 . S
C593 C41 2.893 . S
C623 C50 2.156 . S
C628 C131 2.206 . S
C653 C61 1.322 . S
C658 C170 1.277 . S
C683 C67 0.429 . S
C688 C207 0.445 . S
C713 C40 2.896 . S
C718 C130 2.805 . S
C748 C87 1.398 . S
C743 C52 1.398 . S
C778 C201 1.373 . S
C773 C59 1.426 . S
C808 C158 0.916 . S
C803 C70 0.922 . S
C833 C43 2.282 . S
C838 C202 2.279 . S
C868 C118 1.279 . S
C863 C58 1.281 . S
C898 C81 0.561 . S
C893 C68 0.509 . S
C923 C49 2.335 . S
C928 C171 2.338 . S
