# Generated by pormake.
# Topology nom, (4,4)-cn, num edge types: 1
# Building blocks:
#     Node 0, Type 0, BuildingBlock: GIZVER_clean_linker_0, # of connection points: 4
#     Node 1, Type 0, BuildingBlock: GIZVER_clean_linker_0, # of connection points: 4
#     Node 2, Type 0, BuildingBlock: GIZVER_clean_linker_0, # of connection points: 4
#     Node 3, Type 0, BuildingBlock: GIZVER_clean_linker_0, # of connection points: 4
#     Node 4, Type 0, BuildingBlock: GIZVER_clean_linker_0, # of connection points: 4
#     Node 5, Type 0, BuildingBlock: GIZVER_clean_linker_0, # of connection points: 4
#     Node 6, Type 1, BuildingBlock: QUQFOY_clean_sbu_3, # of connection points: 4
#     Node 7, Type 1, BuildingBlock: QUQFOY_clean_sbu_3, # of connection points: 4
#     Node 8, Type 1, BuildingBlock: QUQFOY_clean_sbu_3, # of connection points: 4
#     Node 9, Type 1, BuildingBlock: QUQFOY_clean_sbu_3, # of connection points: 4
#     Node 10, Type 1, BuildingBlock: QUQFOY_clean_sbu_3, # of connection points: 4
#     Node 11, Type 1, BuildingBlock: QUQFOY_clean_sbu_3, # of connection points: 4
#     Edge 12, Type (0, 1), BuildingBlock: EZIPEK_clean_linker_0, # of connection points: 2
#     Edge 13, Type (0, 1), BuildingBlock: EZIPEK_clean_linker_0, # of connection points: 2
#     Edge 14, Type (0, 1), BuildingBlock: EZIPEK_clean_linker_0, # of connection points: 2
#     Edge 15, Type (0, 1), BuildingBlock: EZIPEK_clean_linker_0, # of connection points: 2
#     Edge 16, Type (0, 1), BuildingBlock: EZIPEK_clean_linker_0, # of connection points: 2
#     Edge 17, Type (0, 1), BuildingBlock: EZIPEK_clean_linker_0, # of connection points: 2
#     Edge 18, Type (0, 1), BuildingBlock: EZIPEK_clean_linker_0, # of connection points: 2
#     Edge 19, Type (0, 1), BuildingBlock: EZIPEK_clean_linker_0, # of connection points: 2
#     Edge 20, Type (0, 1), BuildingBlock: EZIPEK_clean_linker_0, # of connection points: 2
#     Edge 21, Type (0, 1), BuildingBlock: EZIPEK_clean_linker_0, # of connection points: 2
#     Edge 22, Type (0, 1), BuildingBlock: EZIPEK_clean_linker_0, # of connection points: 2
#     Edge 23, Type (0, 1), BuildingBlock: EZIPEK_clean_linker_0, # of connection points: 2
#     Edge 24, Type (0, 1), BuildingBlock: EZIPEK_clean_linker_0, # of connection points: 2
#     Edge 25, Type (0, 1), BuildingBlock: EZIPEK_clean_linker_0, # of connection points: 2
#     Edge 26, Type (0, 1), BuildingBlock: EZIPEK_clean_linker_0, # of connection points: 2
#     Edge 27, Type (0, 1), BuildingBlock: EZIPEK_clean_linker_0, # of connection points: 2
#     Edge 28, Type (0, 1), BuildingBlock: EZIPEK_clean_linker_0, # of connection points: 2
#     Edge 29, Type (0, 1), BuildingBlock: EZIPEK_clean_linker_0, # of connection points: 2
#     Edge 30, Type (0, 1), BuildingBlock: EZIPEK_clean_linker_0, # of connection points: 2
#     Edge 31, Type (0, 1), BuildingBlock: EZIPEK_clean_linker_0, # of connection points: 2
#     Edge 32, Type (0, 1), BuildingBlock: EZIPEK_clean_linker_0, # of connection points: 2
#     Edge 33, Type (0, 1), BuildingBlock: EZIPEK_clean_linker_0, # of connection points: 2
#     Edge 34, Type (0, 1), BuildingBlock: EZIPEK_clean_linker_0, # of connection points: 2
#     Edge 35, Type (0, 1), BuildingBlock: EZIPEK_clean_linker_0, # of connection points: 2
# Relax obj value: 0.003
# Max RMSD: 0.071
# Mean RMSD: 0.047
data_MOF--net-nom--node1-QUQFOY_clean_sbu_3--node2-GIZVER_clean_linker_0--edge1-EZIPEK_clean_linker_0
_symmetry_space_group_name_H-M    P1
_symmetry_Int_Tables_number       1
_symmetry_cell_setting            triclinic
loop_
_symmetry_equiv_pos_as_xyz
'x, y, z'
_cell_length_a     34.67704
_cell_length_b     35.571422
_cell_length_c     34.668864
_cell_angle_alpha  89.7511
_cell_angle_beta   90.111777
_cell_angle_gamma 120.04385
loop_
_atom_site_label
_atom_site_type_symbol
_atom_site_fract_x
_atom_site_fract_y
_atom_site_fract_z
_atom_type_partial_charge
H0 H 0.96111 0.56925 0.3567 0.0
H1 H 0.96942 0.56609 0.23276 0.0
H2 H 0.8464 0.48145 0.29042 0.0
H3 H 0.01665 0.6342 0.31703 0.0
H4 H 0.02459 0.62782 0.26731 0.0
H5 H 0.04322 0.60387 0.3677 0.0
H6 H 0.1555 0.59282 0.33707 0.0
H7 H 0.07186 0.60063 0.24833 0.0
C8 C 0.94656 0.55445 0.32925 0.0
C9 C 0.9013 0.52246 0.32756 0.0
C10 C 0.97143 0.57059 0.295 0.0
C11 C 0.95116 0.55286 0.2594 0.0
C12 C 0.90623 0.52051 0.25791 0.0
C13 C 0.88175 0.50498 0.29194 0.0
C14 C 0.01672 0.61091 0.29573 0.0
C15 C 0.05259 0.6007 0.30649 0.0
C16 C 0.0624 0.59932 0.34544 0.0
C17 C 0.09949 0.59614 0.35565 0.0
C18 C 0.12564 0.59217 0.32721 0.0
C19 C 0.11614 0.59188 0.28752 0.0
C20 C 0.07912 0.59677 0.27781 0.0
H21 H 0.38715 0.93905 0.51916 0.0
H22 H 0.41892 0.97963 0.40063 0.0
H23 H 0.38672 0.85091 0.43447 0.0
H24 H 0.37929 0.99881 0.49452 0.0
H25 H 0.38277 0.00915 0.44407 0.0
H26 H 0.4471 0.03331 0.53529 0.0
H27 H 0.54582 0.15927 0.49479 0.0
H28 H 0.45119 0.06683 0.41497 0.0
C29 C 0.39394 0.93303 0.49002 0.0
C30 C 0.38731 0.89182 0.48044 0.0
C31 C 0.40477 0.96475 0.46112 0.0
C32 C 0.41184 0.95587 0.42324 0.0
C33 C 0.40533 0.91486 0.41361 0.0
C34 C 0.39348 0.88315 0.44227 0.0
C35 C 0.40044 0.00416 0.46866 0.0
C36 C 0.44489 0.04475 0.47423 0.0
C37 C 0.46307 0.05567 0.51148 0.0
C38 C 0.49969 0.09681 0.51862 0.0
C39 C 0.51869 0.1268 0.48859 0.0
C40 C 0.5014 0.11645 0.45122 0.0
C41 C 0.46535 0.07468 0.4437 0.0
H42 H 0.37071 0.43521 0.61005 0.0
H43 H 0.42876 0.43585 0.72024 0.0
H44 H 0.40478 0.53931 0.68958 0.0
H45 H 0.36852 0.37068 0.63238 0.0
H46 H 0.37389 0.36625 0.68305 0.0
H47 H 0.43578 0.39757 0.58963 0.0
H48 H 0.53035 0.36167 0.62899 0.0
H49 H 0.43839 0.36555 0.70953 0.0
C50 C 0.38681 0.45174 0.63654 0.0
C51 C 0.3885 0.49097 0.64579 0.0
C52 C 0.40209 0.43195 0.6631 0.0
C53 C 0.41979 0.45222 0.6986 0.0
C54 C 0.41983 0.49042 0.70836 0.0
C55 C 0.40617 0.51061 0.68133 0.0
C56 C 0.39165 0.38582 0.65713 0.0
C57 C 0.43308 0.38306 0.65053 0.0
C58 C 0.45065 0.38898 0.6131 0.0
C59 C 0.4859 0.38155 0.60553 0.0
C60 C 0.50397 0.36871 0.63533 0.0
C61 C 0.487 0.36273 0.67278 0.0
C62 C 0.45215 0.37095 0.68067 0.0
H63 H 0.95322 0.38914 0.78156 0.0
H64 H 0.99037 0.46052 0.88828 0.0
H65 H 0.8577 0.40838 0.84378 0.0
H66 H 0.01797 0.39917 0.81618 0.0
H67 H 0.02514 0.417 0.86506 0.0
H68 H 0.03516 0.46525 0.76531 0.0
H69 H 0.17289 0.55994 0.78226 0.0
H70 H 0.0979 0.47438 0.87501 0.0
C71 C 0.94569 0.40449 0.80501 0.0
C72 C 0.90262 0.39853 0.80826 0.0
C73 C 0.9777 0.42702 0.83386 0.0
C74 C 0.96653 0.44461 0.86521 0.0
C75 C 0.923 0.43721 0.86914 0.0
C76 C 0.89171 0.41526 0.84014 0.0
C77 C 0.02035 0.4254 0.83515 0.0
C78 C 0.06048 0.46755 0.8228 0.0
C79 C 0.06323 0.4823 0.78467 0.0
C80 C 0.10397 0.51514 0.76999 0.0
C81 C 0.14108 0.53566 0.79419 0.0
C82 C 0.13914 0.52114 0.83209 0.0
C83 C 0.09869 0.48728 0.84646 0.0
H84 H 0.62763 0.08927 0.03892 0.0
H85 H 0.60074 0.03018 0.92619 0.0
H86 H 0.63448 0.16311 0.93817 0.0
H87 H 0.61622 0.01759 0.03329 0.0
H88 H 0.63839 0.01153 -0.01094 0.0
H89 H 0.53552 0.98122 0.04228 0.0
H90 H 0.46251 0.8601 0.98082 0.0
H91 H 0.59177 0.95573 0.94318 0.0
C92 C 0.62319 0.09076 0.00811 0.0
C93 C 0.63139 0.13012 -0.00874 0.0
C94 C 0.61204 0.05428 0.98476 0.0
C95 C 0.60791 0.05737 0.94471 0.0
C96 C 0.61586 0.09652 0.92809 0.0
C97 C 0.62731 0.13256 0.95136 0.0
C98 C 0.61044 0.01433 0.00159 0.0
C99 C 0.56694 0.97335 -0.00689 0.0
C100 C 0.53048 0.96046 0.01804 0.0
C101 C 0.49044 0.92044 0.01323 0.0
C102 C 0.48977 0.89302 0.98354 0.0
C103 C 0.52556 0.90549 0.95828 0.0
C104 C 0.56369 0.94635 0.9623 0.0
H105 H 0.62954 0.57738 0.10945 0.0
H106 H 0.63586 0.59161 0.23176 0.0
H107 H 0.60421 0.4696 0.18355 0.0
H108 H 0.67211 0.64996 0.14173 0.0
H109 H 0.66308 0.65433 0.1918 0.0
H110 H 0.61149 0.6315 0.0937 0.0
H111 H 0.51275 0.66433 0.12567 0.0
H112 H 0.59694 0.65697 0.21301 0.0
C113 C 0.62278 0.56175 0.13721 0.0
C114 C 0.60911 0.51705 0.14087 0.0
C115 C 0.63108 0.58837 0.16971 0.0
C116 C 0.62813 0.57111 0.20656 0.0
C117 C 0.61822 0.52821 0.21095 0.0
C118 C 0.60876 0.50157 0.1786 0.0
C119 C 0.64668 0.63609 0.16504 0.0
C120 C 0.60833 0.64282 0.15468 0.0
C121 C 0.59468 0.63914 0.116 0.0
C122 C 0.55982 0.64625 0.10583 0.0
C123 C 0.53901 0.65774 0.13398 0.0
C124 C 0.55243 0.66211 0.17248 0.0
C125 C 0.5865 0.65365 0.18314 0.0
C126 C 0.74575 0.45769 0.42009 0.0
O127 O 0.73763 0.47884 0.44498 0.0
Cd128 Cd 0.6645 0.46792 0.45238 0.0
O129 O 0.7142 0.42381 0.40433 0.0
Cd130 Cd 0.63104 0.37888 0.40977 0.0
C131 C 0.63328 0.45819 0.35667 0.0
O132 O 0.6165 0.39588 0.47408 0.0
O133 O 0.56266 0.37524 0.43287 0.0
O134 O 0.62262 0.30816 0.42555 0.0
C135 C 0.57602 0.38389 0.46744 0.0
O136 O 0.64423 0.48059 0.3875 0.0
C137 C 0.59575 0.28819 0.39816 0.0
O138 O 0.62806 0.4202 0.35588 0.0
O139 O 0.58906 0.31103 0.37373 0.0
C140 C 0.29083 0.5595 0.56521 0.0
O141 O 0.25676 0.53089 0.54746 0.0
Cd142 Cd 0.19484 0.53812 0.52676 0.0
O143 O 0.29585 0.59691 0.57205 0.0
Cd144 Cd 0.25239 0.63411 0.55783 0.0
C145 C 0.17082 0.56157 0.61582 0.0
O146 O 0.22006 0.6056 0.49498 0.0
O147 O 0.18696 0.63174 0.5296 0.0
O148 O 0.31458 0.70092 0.53249 0.0
C149 C 0.19149 0.61779 0.49737 0.0
O150 O 0.15769 0.53597 0.58705 0.0
C151 C 0.30864 0.72606 0.55443 0.0
O152 O 0.20617 0.59864 0.61424 0.0
O153 O 0.27964 0.7085 0.58095 0.0
C154 C 0.74341 0.28375 0.72401 0.0
O155 O 0.74155 0.25298 0.70422 0.0
Cd156 Cd 0.67386 0.19002 0.68415 0.0
O157 O 0.70809 0.28412 0.73344 0.0
Cd158 Cd 0.62668 0.23691 0.72241 0.0
C159 C 0.6308 0.15838 0.77419 0.0
O160 O 0.62326 0.20997 0.65721 0.0
O161 O 0.56495 0.17326 0.69328 0.0
O162 O 0.61273 0.29561 0.70554 0.0
C163 C 0.58283 0.18024 0.66025 0.0
O164 O 0.64445 0.14868 0.74381 0.0
C165 C 0.58239 0.28578 0.73053 0.0
O166 O 0.62416 0.19049 0.77496 0.0
O167 O 0.57526 0.25566 0.75428 0.0
C168 C 0.31078 0.58268 0.90446 0.0
O169 O 0.31398 0.55581 0.9265 0.0
Cd170 Cd 0.38312 0.56107 0.94573 0.0
O171 O 0.34544 0.61675 0.89246 0.0
Cd172 Cd 0.42759 0.65112 0.90168 0.0
C173 C 0.42215 0.56601 0.85446 0.0
O174 O 0.43476 0.63198 0.96775 0.0
O175 O 0.49136 0.65059 0.92987 0.0
O176 O 0.43549 0.72079 0.91745 0.0
C177 C 0.47511 0.64182 0.96358 0.0
O178 O 0.41017 0.54566 0.88648 0.0
C179 C 0.46611 0.7427 0.89322 0.0
O180 O 0.42835 0.60434 0.85079 0.0
O181 O 0.47685 0.72177 0.87014 0.0
C182 C 0.68421 0.45405 0.04673 0.0
O183 O 0.71831 0.48869 0.03535 0.0
Cd184 Cd 0.79099 0.4981 0.02551 0.0
O185 O 0.68726 0.42034 0.05303 0.0
Cd186 Cd 0.74464 0.39793 0.04677 0.0
C187 C 0.80935 0.46844 0.11464 0.0
O188 O 0.78818 0.43963 -0.01011 0.0
O189 O 0.81828 0.41394 0.02777 0.0
O190 O 0.69448 0.32784 0.01656 0.0
C191 C 0.82149 0.43508 -0.00263 0.0
O192 O 0.82032 0.498 0.08921 0.0
C193 C 0.70025 0.30522 0.04188 0.0
O194 O 0.77951 0.42922 0.10827 0.0
O195 O 0.72494 0.32528 0.07042 0.0
C196 C 0.27109 0.70016 0.21595 0.0
O197 O 0.26548 0.73181 0.20701 0.0
Cd198 Cd 0.32028 0.80142 0.18169 0.0
O199 O 0.30991 0.70457 0.21573 0.0
Cd200 Cd 0.38753 0.76548 0.20734 0.0
C201 C 0.38464 0.84477 0.26167 0.0
O202 O 0.36985 0.78703 0.14651 0.0
O203 O 0.4385 0.82411 0.16353 0.0
O204 O 0.41308 0.71474 0.19113 0.0
C205 C 0.40865 0.81767 0.13907 0.0
O206 O 0.35994 0.84709 0.23581 0.0
C207 C 0.44363 0.7285 0.21644 0.0
O208 O 0.39448 0.81473 0.2602 0.0
O209 O 0.44688 0.75805 0.23888 0.0
C210 C 0.18957 0.59698 0.27004 0.0
C211 C 0.15001 0.59541 0.25781 0.0
C212 C 0.19122 0.64288 0.20406 0.0
C213 C 0.23121 0.65768 0.22593 0.0
N214 N 0.268 0.64405 0.27994 0.0
N215 N 0.11296 0.58765 0.19772 0.0
C216 C 0.23082 0.63255 0.25827 0.0
C217 C 0.15021 0.60971 0.21979 0.0
N218 N 0.18727 0.56386 0.29166 0.0
N219 N 0.19252 0.66064 0.16876 0.0
H220 H 0.0851 0.55965 0.20822 0.0
H221 H 0.11137 0.59389 0.16857 0.0
H222 H 0.2224 0.68116 0.15459 0.0
H223 H 0.16413 0.65519 0.15378 0.0
H224 H 0.21529 0.56167 0.29891 0.0
H225 H 0.15651 0.53697 0.29887 0.0
H226 H 0.26684 0.62829 0.30572 0.0
H227 H 0.29905 0.67094 0.27441 0.0
C228 C 0.49669 0.17595 0.41714 0.0
C229 C 0.51935 0.15242 0.42239 0.0
C230 C 0.58791 0.21419 0.39662 0.0
C231 C 0.56764 0.24018 0.39914 0.0
N232 N 0.50259 0.24647 0.41235 0.0
N233 N 0.58451 0.14611 0.41353 0.0
C234 C 0.52164 0.22103 0.40845 0.0
C235 C 0.56423 0.17045 0.41017 0.0
N236 N 0.45151 0.15554 0.42163 0.0
N237 N 0.62975 0.23165 0.38143 0.0
H238 H 0.56691 0.11335 0.42142 0.0
H239 H 0.61846 0.15826 0.40954 0.0
H240 H 0.64732 0.26355 0.3712 0.0
H241 H 0.64565 0.21395 0.37614 0.0
H242 H 0.43248 0.16966 0.41421 0.0
H243 H 0.43224 0.12294 0.42919 0.0
H244 H 0.4713 0.23557 0.42448 0.0
H245 H 0.51898 0.27955 0.40611 0.0
C246 C 0.3797 0.52892 0.58726 0.0
C247 C 0.36319 0.50697 0.62296 0.0
C248 C 0.30516 0.52694 0.62301 0.0
C249 C 0.31878 0.54526 0.58571 0.0
N250 N 0.36558 0.55997 0.52998 0.0
N251 N 0.30386 0.476 0.67001 0.0
C252 C 0.35508 0.54512 0.56704 0.0
C253 C 0.32402 0.50332 0.63941 0.0
N254 N 0.41941 0.53537 0.57335 0.0
N255 N 0.2747 0.53276 0.64317 0.0
H256 H 0.31579 0.4569 0.68215 0.0
H257 H 0.27282 0.46877 0.68068 0.0
H258 H 0.26024 0.5502 0.63232 0.0
H259 H 0.26707 0.52399 0.67205 0.0
H260 H 0.43557 0.55495 0.5496 0.0
H261 H 0.43774 0.52332 0.58721 0.0
H262 H 0.38856 0.5566 0.51326 0.0
H263 H 0.34923 0.57355 0.51517 0.0
C264 C 0.83646 0.32556 0.79755 0.0
C265 C 0.86578 0.36776 0.78301 0.0
C266 C 0.81726 0.35331 0.72677 0.0
C267 C 0.78561 0.31331 0.74385 0.0
N268 N 0.76176 0.26368 0.79793 0.0
N269 N 0.88398 0.42371 0.73547 0.0
C270 C 0.79436 0.29999 0.77987 0.0
C271 C 0.85636 0.38213 0.74787 0.0
N272 N 0.84916 0.30981 0.82812 0.0
N273 N 0.81001 0.36343 0.69041 0.0
H274 H 0.91354 0.44494 0.74966 0.0
H275 H 0.87663 0.43792 0.71243 0.0
H276 H 0.78109 0.34343 0.67486 0.0
H277 H 0.83363 0.39002 0.67472 0.0
H278 H 0.83129 0.27768 0.83749 0.0
H279 H 0.87982 0.32774 0.84196 0.0
H280 H 0.76438 0.25508 0.82616 0.0
H281 H 0.73032 0.24394 0.78602 0.0
C282 C 0.48882 0.85788 0.9015 0.0
C283 C 0.52261 0.87267 0.93005 0.0
C284 C 0.53202 0.81004 0.91721 0.0
C285 C 0.49157 0.79066 0.89619 0.0
N286 N 0.43263 0.79632 0.86529 0.0
N287 N 0.57645 0.86237 0.96602 0.0
C288 C 0.47073 0.81502 0.8868 0.0
C289 C 0.5452 0.84931 0.93742 0.0
N290 N 0.4736 0.88469 0.88938 0.0
N291 N 0.55704 0.79021 0.91881 0.0
H292 H 0.58742 0.89094 0.98154 0.0
H293 H 0.5895 0.84344 0.97615 0.0
H294 H 0.54791 0.76114 0.90466 0.0
H295 H 0.58878 0.80462 0.9309 0.0
H296 H 0.45112 0.87729 0.8668 0.0
H297 H 0.4868 0.91625 0.89988 0.0
H298 H 0.41271 0.81021 0.86101 0.0
H299 H 0.42019 0.76577 0.85272 0.0
C300 C 0.5917 0.44465 0.11056 0.0
C301 C 0.60305 0.48859 0.10611 0.0
C302 C 0.63841 0.49125 0.04486 0.0
C303 C 0.64342 0.45596 0.058 0.0
N304 N 0.60734 0.38771 0.09312 0.0
N305 N 0.59837 0.53037 0.05369 0.0
C306 C 0.61393 0.42844 0.08732 0.0
C307 C 0.61493 0.50572 0.06838 0.0
N308 N 0.55683 0.41808 0.13383 0.0
N309 N 0.656 0.51061 0.01027 0.0
H310 H 0.57542 0.53517 0.06925 0.0
H311 H 0.6029 0.54114 0.02519 0.0
H312 H 0.66846 0.49716 -0.00937 0.0
H313 H 0.65806 0.5396 0.00143 0.0
H314 H 0.54415 0.38474 0.13626 0.0
H315 H 0.53805 0.42953 0.14778 0.0
H316 H 0.59186 0.3692 0.1176 0.0
H317 H 0.6157 0.37179 0.07249 0.0
C318 C 0.3214 0.83113 0.51373 0.0
C319 C 0.36825 0.85515 0.50852 0.0
C320 C 0.37586 0.79972 0.5448 0.0
C321 C 0.32888 0.7728 0.54455 0.0
N322 N 0.2563 0.76123 0.52651 0.0
N323 N 0.44088 0.86398 0.51936 0.0
C324 C 0.30138 0.78839 0.52922 0.0
C325 C 0.3958 0.84015 0.52462 0.0
N326 N 0.29583 0.84879 0.50308 0.0
N327 N 0.40114 0.78658 0.56468 0.0
H328 H 0.45646 0.89471 0.50654 0.0
H329 H 0.46268 0.85286 0.52623 0.0
H330 H 0.38709 0.75725 0.57986 0.0
H331 H 0.43531 0.80593 0.56889 0.0
H332 H 0.26236 0.83522 0.51039 0.0
H333 H 0.30869 0.87895 0.48962 0.0
H334 H 0.23533 0.76855 0.5107 0.0
H335 H 0.2397 0.72974 0.53755 0.0
C336 C 0.48263 0.29825 0.70555 0.0
C337 C 0.5044 0.344 0.70173 0.0
C338 C 0.57152 0.35025 0.73174 0.0
C339 C 0.55286 0.30473 0.72805 0.0
N340 N 0.49058 0.23463 0.71078 0.0
N341 N 0.56759 0.41446 0.71384 0.0
C342 C 0.50793 0.2783 0.71582 0.0
C343 C 0.54806 0.37032 0.71642 0.0
N344 N 0.43802 0.27386 0.69818 0.0
N345 N 0.61165 0.37397 0.74981 0.0
H346 H 0.55006 0.42964 0.70459 0.0
H347 H 0.60105 0.43587 0.71966 0.0
H348 H 0.62901 0.35964 0.76145 0.0
H349 H 0.62592 0.40685 0.75614 0.0
H350 H 0.41919 0.24075 0.70407 0.0
H351 H 0.41884 0.28748 0.68963 0.0
H352 H 0.46047 0.21478 0.69688 0.0
H353 H 0.50743 0.21824 0.71805 0.0
C354 C 0.1932 0.56252 0.88602 0.0
C355 C 0.18175 0.53545 0.85304 0.0
C356 C 0.25686 0.54548 0.85127 0.0
C357 C 0.26722 0.56922 0.88614 0.0
N358 N 0.24428 0.5963 0.93969 0.0
N359 N 0.19885 0.49215 0.81051 0.0
C360 C 0.23501 0.57647 0.90453 0.0
C361 C 0.2125 0.52426 0.83752 0.0
N362 N 0.16486 0.57599 0.89879 0.0
N363 N 0.28964 0.54391 0.83071 0.0
H364 H 0.16609 0.47459 0.80064 0.0
H365 H 0.21873 0.47974 0.80102 0.0
H366 H 0.32283 0.55946 0.83952 0.0
H367 H 0.28476 0.53085 0.80309 0.0
H368 H 0.17318 0.59928 0.92016 0.0
H369 H 0.13392 0.56598 0.88611 0.0
H370 H 0.22067 0.59852 0.95652 0.0
H371 H 0.27517 0.60824 0.95314 0.0
C372 C 0.69431 0.19768 0.01946 0.0
C373 C 0.64778 0.17072 0.01393 0.0
C374 C 0.63553 0.22929 0.03648 0.0
C375 C 0.68226 0.258 0.03631 0.0
N376 N 0.7567 0.27098 0.02522 0.0
N377 N 0.57344 0.15953 0.01701 0.0
C378 C 0.71189 0.24245 0.02787 0.0
C379 C 0.61812 0.18602 0.02289 0.0
N380 N 0.72172 0.18055 0.01606 0.0
N381 N 0.60802 0.24336 0.05021 0.0
H382 H 0.55958 0.127 0.00915 0.0
H383 H 0.55034 0.17002 0.01832 0.0
H384 H 0.61997 0.27483 0.06044 0.0
H385 H 0.57397 0.22316 0.05447 0.0
H386 H 0.75525 0.19715 0.0237 0.0
H387 H 0.71015 0.14825 0.00872 0.0
H388 H 0.77947 0.2627 0.01449 0.0
H389 H 0.77116 0.30404 0.03102 0.0
C390 C 0.54996 0.72359 0.20346 0.0
C391 C 0.53109 0.67816 0.19982 0.0
C392 C 0.45932 0.66728 0.22249 0.0
C393 C 0.47566 0.7124 0.21765 0.0
N394 N 0.53688 0.78433 0.20326 0.0
N395 N 0.4697 0.60589 0.20902 0.0
C396 C 0.52143 0.74105 0.20916 0.0
C397 C 0.48647 0.6497 0.2112 0.0
N398 N 0.595 0.74993 0.20008 0.0
N399 N 0.4179 0.64155 0.23788 0.0
H400 H 0.48982 0.5926 0.20264 0.0
H401 H 0.4361 0.58297 0.21227 0.0
H402 H 0.39775 0.65398 0.24676 0.0
H403 H 0.40511 0.60897 0.24494 0.0
H404 H 0.61153 0.78309 0.20578 0.0
H405 H 0.61633 0.7377 0.19528 0.0
H406 H 0.56838 0.80573 0.1923 0.0
H407 H 0.51735 0.79874 0.20671 0.0
C408 C 0.85181 0.53798 0.36772 0.0
C409 C 0.87111 0.5117 0.36114 0.0
C410 C 0.81461 0.45477 0.40267 0.0
C411 C 0.79109 0.47786 0.40334 0.0
N412 N 0.78453 0.53941 0.38173 0.0
N413 N 0.87268 0.44577 0.3724 0.0
C414 C 0.8093 0.51934 0.38529 0.0
C415 C 0.85334 0.47044 0.37914 0.0
N416 N 0.87341 0.58044 0.35604 0.0
N417 N 0.80007 0.41824 0.42477 0.0
H418 H 0.90239 0.4576 0.35699 0.0
H419 H 0.85862 0.41338 0.3807 0.0
H420 H 0.77191 0.40631 0.44233 0.0
H421 H 0.81768 0.40184 0.42818 0.0
H422 H 0.86326 0.60239 0.36391 0.0
H423 H 0.90389 0.59503 0.3417 0.0
H424 H 0.79399 0.56674 0.36454 0.0
H425 H 0.75234 0.52673 0.39246 0.0
C426 C 0.15042 0.64525 0.4063 0.0
C427 C 0.11579 0.60326 0.39584 0.0
C428 C 0.12419 0.57354 0.45694 0.0
C429 C 0.16312 0.61385 0.46437 0.0
N430 N 0.21498 0.68803 0.44664 0.0
N431 N 0.06907 0.52713 0.40985 0.0
C432 C 0.17642 0.64995 0.43946 0.0
C433 C 0.10202 0.56734 0.42104 0.0
N434 N 0.15835 0.68043 0.38431 0.0
N435 N 0.10838 0.54153 0.48437 0.0
H436 H 0.05102 0.52199 0.38439 0.0
H437 H 0.06096 0.49862 0.42471 0.0
H438 H 0.12407 0.54526 0.51093 0.0
H439 H 0.07797 0.5128 0.48228 0.0
H440 H 0.18027 0.71241 0.39221 0.0
H441 H 0.14006 0.67791 0.35956 0.0
H442 H 0.22929 0.714 0.42736 0.0
H443 H 0.23447 0.69284 0.47109 0.0
C444 C 0.50137 0.13821 0.57688 0.0
C445 C 0.51525 0.11152 0.55832 0.0
C446 C 0.56665 0.12295 0.61125 0.0
C447 C 0.55753 0.15453 0.62667 0.0
N448 N 0.51876 0.19497 0.62363 0.0
N449 N 0.56203 0.07939 0.5559 0.0
C450 C 0.52517 0.1626 0.60963 0.0
C451 C 0.54788 0.10376 0.57514 0.0
N452 N 0.46533 0.14002 0.56313 0.0
N453 N 0.59229 0.11061 0.63164 0.0
H454 H 0.54781 0.06362 0.53001 0.0
H455 H 0.58942 0.07678 0.56435 0.0
H456 H 0.60583 0.12362 0.65852 0.0
H457 H 0.59678 0.08486 0.62374 0.0
H458 H 0.45083 0.15551 0.57744 0.0
H459 H 0.44734 0.12271 0.53895 0.0
H460 H 0.49941 0.20581 0.60983 0.0
H461 H 0.5354 0.2134 0.64778 0.0
C462 C 0.46341 0.54229 0.76141 0.0
C463 C 0.42421 0.50458 0.749 0.0
C464 C 0.38478 0.5051 0.80731 0.0
C465 C 0.42407 0.54281 0.81992 0.0
N466 N 0.50303 0.59189 0.81388 0.0
N467 N 0.3505 0.44474 0.76305 0.0
C468 C 0.46417 0.55979 0.79841 0.0
C469 C 0.38602 0.48408 0.77311 0.0
N470 N 0.49933 0.56193 0.73726 0.0
N471 N 0.34533 0.49103 0.8264 0.0
H472 H 0.34832 0.42919 0.7371 0.0
H473 H 0.32443 0.42563 0.78177 0.0
H474 H 0.34229 0.50471 0.85186 0.0
H475 H 0.31453 0.46784 0.81546 0.0
H476 H 0.527 0.59231 0.74241 0.0
H477 H 0.5005 0.54851 0.71088 0.0
H478 H 0.53417 0.60306 0.80135 0.0
H479 H 0.50463 0.60494 0.84113 0.0
C480 C 0.90521 0.42337 0.93978 0.0
C481 C 0.90745 0.44663 0.90571 0.0
C482 C 0.86542 0.47626 0.93772 0.0
C483 C 0.86015 0.44967 0.97031 0.0
N484 N 0.89932 0.42268 0.00898 0.0
N485 N 0.9012 0.50437 0.87548 0.0
C486 C 0.88786 0.43113 0.97366 0.0
C487 C 0.89124 0.47621 0.90575 0.0
N488 N 0.91682 0.39189 0.93959 0.0
N489 N 0.84669 0.50208 0.9378 0.0
H490 H 0.92085 0.50533 0.85231 0.0
H491 H 0.89305 0.52878 0.8744 0.0
H492 H 0.8351 0.5089 0.96303 0.0
H493 H 0.84371 0.51762 0.91344 0.0
H494 H 0.91125 0.37148 0.96317 0.0
H495 H 0.92774 0.38312 0.91508 0.0
H496 H 0.92164 0.41134 0.01241 0.0
H497 H 0.89256 0.43374 0.03448 0.0
C498 C 0.41519 0.86144 0.03749 0.0
C499 C 0.45275 0.90305 0.04246 0.0
C500 C 0.44292 0.89356 0.11207 0.0
C501 C 0.41774 0.84776 0.10616 0.0
N502 N 0.37658 0.78808 0.06147 0.0
N503 N 0.47111 0.9645 0.0823 0.0
C504 C 0.40156 0.83158 0.06853 0.0
C505 C 0.45817 0.92159 0.07937 0.0
N506 N 0.39199 0.85153 0.00375 0.0
N507 N 0.45197 0.91016 0.14853 0.0
H508 H 0.47515 0.98319 0.05768 0.0
H509 H 0.47221 0.97971 0.10821 0.0
H510 H 0.43692 0.89128 0.17298 0.0
H511 H 0.47479 0.9426 0.15436 0.0
H512 H 0.36201 0.82267 -0.00041 0.0
H513 H 0.40127 0.87457 0.98166 0.0
H514 H 0.36819 0.7756 0.03362 0.0
H515 H 0.36743 0.76429 0.08264 0.0
C516 C 0.66274 0.51267 0.25856 0.0
C517 C 0.62261 0.51224 0.24929 0.0
C518 C 0.58926 0.47622 0.31065 0.0
C519 C 0.62981 0.47784 0.32033 0.0
N520 N 0.70681 0.50146 0.30684 0.0
N521 N 0.54973 0.49903 0.26717 0.0
C522 C 0.66707 0.49719 0.2952 0.0
C523 C 0.58645 0.49568 0.27562 0.0
N524 N 0.69631 0.52707 0.23191 0.0
N525 N 0.55313 0.45476 0.3344 0.0
H526 H 0.54596 0.51169 0.24115 0.0
H527 H 0.52415 0.49186 0.28664 0.0
H528 H 0.55443 0.44105 0.3607 0.0
H529 H 0.52117 0.44813 0.32729 0.0
H530 H 0.72406 0.52331 0.23475 0.0
H531 H 0.69559 0.54103 0.2056 0.0
H532 H 0.73674 0.51967 0.29214 0.0
H533 H 0.71067 0.48881 0.33281 0.0
C534 C 0.43914 0.8967 0.35762 0.0
C535 C 0.40476 0.90303 0.3726 0.0
C536 C 0.37169 0.89172 0.30854 0.0
C537 C 0.39871 0.87462 0.29583 0.0
N538 N 0.46655 0.87233 0.30433 0.0
N539 N 0.33451 0.90083 0.36324 0.0
C540 C 0.43517 0.88065 0.31928 0.0
C541 C 0.37003 0.89907 0.34832 0.0
N542 N 0.47578 0.90703 0.37978 0.0
N543 N 0.35002 0.90389 0.28287 0.0
H544 H 0.33108 0.90511 0.39252 0.0
H545 H 0.30635 0.89366 0.34695 0.0
H546 H 0.35653 0.90669 0.25338 0.0
H547 H 0.33202 0.91875 0.29131 0.0
H548 H 0.50374 0.9063 0.37007 0.0
H549 H 0.47949 0.91909 0.40775 0.0
H550 H 0.49056 0.8702 0.32069 0.0
H551 H 0.46899 0.86835 0.2748 0.0
C552 C 0.53294 0.42296 0.54874 0.0
C553 C 0.50181 0.38278 0.56578 0.0
C554 C 0.51532 0.34295 0.51526 0.0
C555 C 0.54671 0.38314 0.49841 0.0
N556 N 0.57655 0.46025 0.49209 0.0
N557 N 0.45465 0.30519 0.56074 0.0
C558 C 0.55269 0.42288 0.51294 0.0
C559 C 0.49004 0.34292 0.54738 0.0
N560 N 0.5451 0.46096 0.5676 0.0
N561 N 0.5113 0.30508 0.50176 0.0
H562 H 0.43545 0.30427 0.58426 0.0
H563 H 0.4418 0.27557 0.54657 0.0
H564 H 0.52891 0.30386 0.4779 0.0
H565 H 0.49283 0.27522 0.5156 0.0
H566 H 0.57147 0.49089 0.5589 0.0
H567 H 0.53047 0.46227 0.59345 0.0
H568 H 0.57894 0.48969 0.49943 0.0
H569 H 0.59029 0.46076 0.46522 0.0
C570 C 0.12308 0.49484 0.70719 0.0
C571 C 0.11152 0.52211 0.72791 0.0
C572 C 0.12952 0.56976 0.67148 0.0
C573 C 0.14709 0.54605 0.65299 0.0
N574 N 0.1651 0.48851 0.6547 0.0
N575 N 0.10424 0.58581 0.73123 0.0
C576 C 0.14443 0.50881 0.67091 0.0
C577 C 0.11452 0.55952 0.71033 0.0
N578 N 0.11427 0.45578 0.72243 0.0
N579 N 0.12626 0.60128 0.65153 0.0
H580 H 0.09099 0.57787 0.75904 0.0
H581 H 0.11073 0.61628 0.72188 0.0
H582 H 0.13646 0.60908 0.62288 0.0
H583 H 0.11008 0.6171 0.66205 0.0
H584 H 0.1168 0.43224 0.7067 0.0
H585 H 0.10082 0.44501 0.7498 0.0
H586 H 0.16969 0.46525 0.66901 0.0
H587 H 0.18125 0.49715 0.62814 0.0
C588 C 0.57864 0.10037 0.86757 0.0
C589 C 0.61595 0.10181 0.8858 0.0
C590 C 0.6613 0.13345 0.82797 0.0
C591 C 0.62433 0.13332 0.81004 0.0
N592 N 0.54539 0.10667 0.80798 0.0
N593 N 0.68881 0.10924 0.88135 0.0
C594 C 0.58212 0.1135 0.82839 0.0
C595 C 0.65587 0.1146 0.86514 0.0
N596 N 0.54054 0.0879 0.88822 0.0
N597 N 0.70234 0.15423 0.81081 0.0
H598 H 0.68668 0.09703 0.90914 0.0
H599 H 0.71659 0.11338 0.86624 0.0
H600 H 0.70805 0.16775 0.78328 0.0
H601 H 0.73163 0.16072 0.82477 0.0
H602 H 0.51404 0.09117 0.87823 0.0
H603 H 0.53624 0.07597 0.91638 0.0
H604 H 0.51298 0.08903 0.8185 0.0
H605 H 0.54698 0.11533 0.77897 0.0
C606 C 0.5583 0.68361 0.04562 0.0
C607 C 0.54568 0.64416 0.06534 0.0
C608 C 0.4948 0.603 0.01296 0.0
C609 C 0.50205 0.64264 -0.00331 0.0
N610 N 0.53873 0.72088 -0.00243 0.0
N611 N 0.50175 0.5661 0.06926 0.0
C612 C 0.53376 0.68311 0.01269 0.0
C613 C 0.5143 0.60365 0.04918 0.0
N614 N 0.59375 0.72141 0.05859 0.0
N615 N 0.46994 0.565 -0.00659 0.0
H616 H 0.51648 0.56531 0.09529 0.0
H617 H 0.47522 0.53603 0.06127 0.0
H618 H 0.45562 0.5637 0.9666 0.0
H619 H 0.46678 0.53549 0.00194 0.0
H620 H 0.60729 0.75072 0.04361 0.0
H621 H 0.61231 0.72258 0.08276 0.0
H622 H 0.55761 0.7511 0.01049 0.0
H623 H 0.5214 0.72175 0.97328 0.0
C624 C 0.88426 0.47558 0.19779 0.0
C625 C 0.88243 0.50755 0.22064 0.0
C626 C 0.82814 0.50926 0.1765 0.0
C627 C 0.83288 0.48013 0.15192 0.0
N628 N 0.87017 0.4404 0.13552 0.0
N629 N 0.85856 0.56013 0.22943 0.0
C630 C 0.86212 0.46441 0.16158 0.0
C631 C 0.85605 0.52596 0.20931 0.0
N632 N 0.90629 0.45524 0.21112 0.0
N633 N 0.79588 0.51975 0.16916 0.0
H634 H 0.87854 0.57327 0.25378 0.0
H635 H 0.84383 0.57791 0.22021 0.0
H636 H 0.77443 0.50768 0.14554 0.0
H637 H 0.78767 0.53725 0.18814 0.0
H638 H 0.90462 0.42825 0.19787 0.0
H639 H 0.92377 0.46342 0.23713 0.0
H640 H 0.89484 0.43215 0.13914 0.0
H641 H 0.85461 0.43149 0.10866 0.0
loop_
_geom_bond_atom_site_label_1
_geom_bond_atom_site_label_2
_geom_bond_distance
_geom_bond_site_symmetry_2
_ccdc_geom_bond_type
H0 C8 0.930 . S
H1 C11 0.930 . S
H2 C13 0.930 . S
H3 C14 0.970 . S
H4 C14 0.970 . S
H5 C16 0.930 . S
H6 C18 0.930 . S
H7 C20 0.930 . S
C8 H0 0.930 . S
C8 C9 1.382 . S
C8 C10 1.426 . S
C9 C8 1.382 . S
C9 C13 1.389 . S
C10 C8 1.426 . S
C10 C11 1.375 . S
C10 C14 1.532 1_655 S
C11 H1 0.930 . S
C11 C10 1.375 . S
C11 C12 1.416 . S
C12 C11 1.416 . S
C12 C13 1.371 . S
C13 H2 0.930 . S
C13 C9 1.389 . S
C13 C12 1.371 . S
C14 H3 0.970 . S
C14 H4 0.970 . S
C14 C10 1.532 1_455 S
C14 C15 1.499 . S
C15 C14 1.499 . S
C15 C16 1.370 . S
C15 C20 1.415 . S
C16 H5 0.930 . S
C16 C15 1.370 . S
C16 C17 1.407 . S
C17 C16 1.407 . S
C17 C18 1.365 . S
C18 H6 0.930 . S
C18 C17 1.365 . S
C18 C19 1.393 . S
C19 C18 1.393 . S
C19 C20 1.387 . S
C20 H7 0.930 . S
C20 C15 1.415 . S
C20 C19 1.387 . S
H21 C29 0.930 . S
H22 C32 0.930 . S
H23 C34 0.930 . S
H24 C35 0.970 . S
H25 C35 0.970 . S
H26 C37 0.930 . S
H27 C39 0.930 . S
H28 C41 0.930 . S
C29 H21 0.930 . S
C29 C30 1.382 . S
C29 C31 1.426 . S
C30 C29 1.382 . S
C30 C34 1.389 . S
C31 C29 1.426 . S
C31 C32 1.375 . S
C31 C35 1.532 1_565 S
C32 H22 0.930 . S
C32 C31 1.375 . S
C32 C33 1.416 . S
C33 C32 1.416 . S
C33 C34 1.371 . S
C34 H23 0.930 . S
C34 C30 1.389 . S
C34 C33 1.371 . S
C35 H24 0.970 . S
C35 H25 0.970 . S
C35 C31 1.532 1_545 S
C35 C36 1.499 . S
C36 C35 1.499 . S
C36 C37 1.370 . S
C36 C41 1.415 . S
C37 H26 0.930 . S
C37 C36 1.370 . S
C37 C38 1.407 . S
C38 C37 1.407 . S
C38 C39 1.365 . S
C39 H27 0.930 . S
C39 C38 1.365 . S
C39 C40 1.393 . S
C40 C39 1.393 . S
C40 C41 1.387 . S
C41 H28 0.930 . S
C41 C36 1.415 . S
C41 C40 1.387 . S
H42 C50 0.930 . S
H43 C53 0.930 . S
H44 C55 0.930 . S
H45 C56 0.970 . S
H46 C56 0.970 . S
H47 C58 0.930 . S
H48 C60 0.930 . S
H49 C62 0.930 . S
C50 H42 0.930 . S
C50 C51 1.382 . S
C50 C52 1.426 . S
C51 C50 1.382 . S
C51 C55 1.389 . S
C52 C50 1.426 . S
C52 C53 1.375 . S
C52 C56 1.532 . S
C53 H43 0.930 . S
C53 C52 1.375 . S
C53 C54 1.416 . S
C54 C53 1.416 . S
C54 C55 1.371 . S
C55 H44 0.930 . S
C55 C51 1.389 . S
C55 C54 1.371 . S
C56 H45 0.970 . S
C56 H46 0.970 . S
C56 C52 1.532 . S
C56 C57 1.499 . S
C57 C56 1.499 . S
C57 C58 1.370 . S
C57 C62 1.415 . S
C58 H47 0.930 . S
C58 C57 1.370 . S
C58 C59 1.407 . S
C59 C58 1.407 . S
C59 C60 1.365 . S
C60 H48 0.930 . S
C60 C59 1.365 . S
C60 C61 1.393 . S
C61 C60 1.393 . S
C61 C62 1.387 . S
C62 H49 0.930 . S
C62 C57 1.415 . S
C62 C61 1.387 . S
H63 C71 0.930 . S
H64 C74 0.930 . S
H65 C76 0.930 . S
H66 C77 0.970 . S
H67 C77 0.970 . S
H68 C79 0.930 . S
H69 C81 0.930 . S
H70 C83 0.930 . S
C71 H63 0.930 . S
C71 C72 1.382 . S
C71 C73 1.426 . S
C72 C71 1.382 . S
C72 C76 1.389 . S
C73 C71 1.426 . S
C73 C74 1.375 . S
C73 C77 1.532 1_655 S
C74 H64 0.930 . S
C74 C73 1.375 . S
C74 C75 1.416 . S
C75 C74 1.416 . S
C75 C76 1.371 . S
C76 H65 0.930 . S
C76 C72 1.389 . S
C76 C75 1.371 . S
C77 H66 0.970 . S
C77 H67 0.970 . S
C77 C73 1.532 1_455 S
C77 C78 1.499 . S
C78 C77 1.499 . S
C78 C79 1.370 . S
C78 C83 1.415 . S
C79 H68 0.930 . S
C79 C78 1.370 . S
C79 C80 1.407 . S
C80 C79 1.407 . S
C80 C81 1.365 . S
C81 H69 0.930 . S
C81 C80 1.365 . S
C81 C82 1.393 . S
C82 C81 1.393 . S
C82 C83 1.387 . S
C83 H70 0.930 . S
C83 C78 1.415 . S
C83 C82 1.387 . S
H84 C92 0.930 . S
H85 C95 0.930 . S
H86 C97 0.930 . S
H87 C98 0.970 1_554 S
H88 C98 0.959 1_565 S
H89 C100 0.930 . S
H90 C102 0.930 . S
H91 C104 0.930 . S
C92 H84 0.930 . S
C92 C93 1.382 . S
C92 C94 1.426 1_554 S
C93 C92 1.382 . S
C93 C97 1.389 1_554 S
C94 C92 1.426 1_556 S
C94 C95 1.375 . S
C94 C98 1.532 . S
C95 H85 0.930 . S
C95 C94 1.375 . S
C95 C96 1.416 . S
C96 C95 1.416 . S
C96 C97 1.371 . S
C97 H86 0.930 . S
C97 C93 1.389 1_556 S
C97 C96 1.371 . S
C98 H87 0.970 1_556 S
C98 H88 0.959 1_545 S
C98 C94 1.532 . S
C98 C99 1.499 1_546 S
C99 C98 1.499 1_564 S
C99 C100 1.370 . S
C99 C104 1.415 1_554 S
C100 H89 0.930 . S
C100 C99 1.370 . S
C100 C101 1.407 . S
C101 C100 1.407 . S
C101 C102 1.365 . S
C102 H90 0.930 . S
C102 C101 1.365 . S
C102 C103 1.393 1_554 S
C103 C102 1.393 1_556 S
C103 C104 1.387 . S
C104 H91 0.930 . S
C104 C99 1.415 1_556 S
C104 C103 1.387 . S
H105 C113 0.930 . S
H106 C116 0.930 . S
H107 C118 0.930 . S
H108 C119 0.970 . S
H109 C119 0.970 . S
H110 C121 0.930 . S
H111 C123 0.930 . S
H112 C125 0.930 . S
C113 H105 0.930 . S
C113 C114 1.382 . S
C113 C115 1.426 . S
C114 C113 1.382 . S
C114 C118 1.389 . S
C115 C113 1.426 . S
C115 C116 1.375 . S
C115 C119 1.532 . S
C116 H106 0.930 . S
C116 C115 1.375 . S
C116 C117 1.416 . S
C117 C116 1.416 . S
C117 C118 1.371 . S
C118 H107 0.930 . S
C118 C114 1.389 . S
C118 C117 1.371 . S
C119 H108 0.970 . S
C119 H109 0.970 . S
C119 C115 1.532 . S
C119 C120 1.499 . S
C120 C119 1.499 . S
C120 C121 1.370 . S
C120 C125 1.415 . S
C121 H110 0.930 . S
C121 C120 1.370 . S
C121 C122 1.407 . S
C122 C121 1.407 . S
C122 C123 1.365 . S
C123 H111 0.930 . S
C123 C122 1.365 . S
C123 C124 1.393 . S
C124 C123 1.393 . S
C124 C125 1.387 . S
C125 H112 0.930 . S
C125 C120 1.415 . S
C125 C124 1.387 . S
C126 O127 1.306 . S
C126 O129 1.160 . S
O127 C126 1.306 . S
O127 Cd128 2.228 . S
Cd128 O127 2.228 . S
Cd128 O132 2.273 . S
Cd128 O136 2.277 . S
O129 C126 1.160 . S
O129 Cd130 2.203 . S
Cd130 O129 2.203 . S
Cd130 O132 2.411 . S
Cd130 O133 2.333 . S
Cd130 O134 2.352 . S
Cd130 O138 2.277 . S
Cd130 O139 2.356 . S
C131 O136 1.209 . S
C131 O138 1.226 . S
O132 Cd128 2.273 . S
O132 Cd130 2.411 . S
O132 C135 1.320 . S
O133 Cd130 2.333 . S
O133 C135 1.214 . S
O134 Cd130 2.352 . S
O134 C137 1.258 . S
C135 O132 1.320 . S
C135 O133 1.214 . S
O136 Cd128 2.277 . S
O136 C131 1.209 . S
C137 O134 1.258 . S
C137 O139 1.282 . S
O138 Cd130 2.277 . S
O138 C131 1.226 . S
O139 Cd130 2.356 . S
O139 C137 1.282 . S
C140 O141 1.306 . S
C140 O143 1.160 . S
O141 C140 1.306 . S
O141 Cd142 2.228 . S
Cd142 O141 2.228 . S
Cd142 O146 2.273 . S
Cd142 O150 2.277 . S
O143 C140 1.160 . S
O143 Cd144 2.203 . S
Cd144 O143 2.203 . S
Cd144 O146 2.411 . S
Cd144 O147 2.333 . S
Cd144 O148 2.352 . S
Cd144 O152 2.277 . S
Cd144 O153 2.356 . S
C145 O150 1.209 . S
C145 O152 1.226 . S
O146 Cd142 2.273 . S
O146 Cd144 2.411 . S
O146 C149 1.320 . S
O147 Cd144 2.333 . S
O147 C149 1.214 . S
O148 Cd144 2.352 . S
O148 C151 1.258 . S
C149 O146 1.320 . S
C149 O147 1.214 . S
O150 Cd142 2.277 . S
O150 C145 1.209 . S
C151 O148 1.258 . S
C151 O153 1.282 . S
O152 Cd144 2.277 . S
O152 C145 1.226 . S
O153 Cd144 2.356 . S
O153 C151 1.282 . S
C154 O155 1.306 . S
C154 O157 1.160 . S
O155 C154 1.306 . S
O155 Cd156 2.228 . S
Cd156 O155 2.228 . S
Cd156 O160 2.273 . S
Cd156 O164 2.277 . S
O157 C154 1.160 . S
O157 Cd158 2.203 . S
Cd158 O157 2.203 . S
Cd158 O160 2.411 . S
Cd158 O161 2.333 . S
Cd158 O162 2.352 . S
Cd158 O166 2.277 . S
Cd158 O167 2.356 . S
C159 O164 1.209 . S
C159 O166 1.226 . S
O160 Cd156 2.273 . S
O160 Cd158 2.411 . S
O160 C163 1.320 . S
O161 Cd158 2.333 . S
O161 C163 1.214 . S
O162 Cd158 2.352 . S
O162 C165 1.258 . S
C163 O160 1.320 . S
C163 O161 1.214 . S
O164 Cd156 2.277 . S
O164 C159 1.209 . S
C165 O162 1.258 . S
C165 O167 1.282 . S
O166 Cd158 2.277 . S
O166 C159 1.226 . S
O167 Cd158 2.356 . S
O167 C165 1.282 . S
C168 O169 1.306 . S
C168 O171 1.160 . S
O169 C168 1.306 . S
O169 Cd170 2.228 . S
Cd170 O169 2.228 . S
Cd170 O174 2.273 . S
Cd170 O178 2.277 . S
O171 C168 1.160 . S
O171 Cd172 2.203 . S
Cd172 O171 2.203 . S
Cd172 O174 2.411 . S
Cd172 O175 2.333 . S
Cd172 O176 2.352 . S
Cd172 O180 2.277 . S
Cd172 O181 2.356 . S
C173 O178 1.209 . S
C173 O180 1.226 . S
O174 Cd170 2.273 . S
O174 Cd172 2.411 . S
O174 C177 1.320 . S
O175 Cd172 2.333 . S
O175 C177 1.214 . S
O176 Cd172 2.352 . S
O176 C179 1.258 . S
C177 O174 1.320 . S
C177 O175 1.214 . S
O178 Cd170 2.277 . S
O178 C173 1.209 . S
C179 O176 1.258 . S
C179 O181 1.282 . S
O180 Cd172 2.277 . S
O180 C173 1.226 . S
O181 Cd172 2.356 . S
O181 C179 1.282 . S
C182 O183 1.306 . S
C182 O185 1.160 . S
O183 C182 1.306 . S
O183 Cd184 2.228 . S
Cd184 O183 2.228 . S
Cd184 O188 2.273 . S
Cd184 O192 2.277 . S
O185 C182 1.160 . S
O185 Cd186 2.203 . S
Cd186 O185 2.203 . S
Cd186 O188 2.411 . S
Cd186 O189 2.333 . S
Cd186 O190 2.352 . S
Cd186 O194 2.277 . S
Cd186 O195 2.356 . S
C187 O192 1.209 . S
C187 O194 1.226 . S
O188 Cd184 2.273 . S
O188 Cd186 2.411 . S
O188 C191 1.320 . S
O189 Cd186 2.333 . S
O189 C191 1.214 . S
O190 Cd186 2.352 . S
O190 C193 1.258 . S
C191 O188 1.320 . S
C191 O189 1.214 . S
O192 Cd184 2.277 . S
O192 C187 1.209 . S
C193 O190 1.258 . S
C193 O195 1.282 . S
O194 Cd186 2.277 . S
O194 C187 1.226 . S
O195 Cd186 2.356 . S
O195 C193 1.282 . S
C196 O197 1.306 . S
C196 O199 1.160 . S
O197 C196 1.306 . S
O197 Cd198 2.228 . S
Cd198 O197 2.228 . S
Cd198 O202 2.273 . S
Cd198 O206 2.277 . S
O199 C196 1.160 . S
O199 Cd200 2.203 . S
Cd200 O199 2.203 . S
Cd200 O202 2.411 . S
Cd200 O203 2.333 . S
Cd200 O204 2.352 . S
Cd200 O208 2.277 . S
Cd200 O209 2.356 . S
C201 O206 1.209 . S
C201 O208 1.226 . S
O202 Cd198 2.273 . S
O202 Cd200 2.411 . S
O202 C205 1.320 . S
O203 Cd200 2.333 . S
O203 C205 1.214 . S
O204 Cd200 2.352 . S
O204 C207 1.258 . S
C205 O202 1.320 . S
C205 O203 1.214 . S
O206 Cd198 2.277 . S
O206 C201 1.209 . S
C207 O204 1.258 . S
C207 O209 1.282 . S
O208 Cd200 2.277 . S
O208 C201 1.226 . S
O209 Cd200 2.356 . S
O209 C207 1.282 . S
C210 C211 1.363 . S
C210 C216 1.379 . S
C210 N218 1.356 . S
C211 C210 1.363 . S
C211 C217 1.363 . S
C212 C213 1.363 . S
C212 C217 1.379 . S
C212 N219 1.356 . S
C213 C212 1.363 . S
C213 C216 1.363 . S
N214 C216 1.356 . S
N214 H226 0.984 . S
N214 H227 0.985 . S
N215 C217 1.356 . S
N215 H220 0.984 . S
N215 H221 0.985 . S
C216 C210 1.379 . S
C216 C213 1.363 . S
C216 N214 1.356 . S
C217 C211 1.363 . S
C217 C212 1.379 . S
C217 N215 1.356 . S
N218 C210 1.356 . S
N218 H224 0.984 . S
N218 H225 0.984 . S
N219 C212 1.356 . S
N219 H222 0.984 . S
N219 H223 0.985 . S
H220 N215 0.984 . S
H221 N215 0.985 . S
H222 N219 0.984 . S
H223 N219 0.985 . S
H224 N218 0.984 . S
H225 N218 0.984 . S
H226 N214 0.984 . S
H227 N214 0.985 . S
C228 C229 1.363 . S
C228 C234 1.379 . S
C228 N236 1.356 . S
C229 C228 1.363 . S
C229 C235 1.363 . S
C230 C231 1.363 . S
C230 C235 1.379 . S
C230 N237 1.356 . S
C231 C230 1.363 . S
C231 C234 1.363 . S
N232 C234 1.356 . S
N232 H244 0.984 . S
N232 H245 0.985 . S
N233 C235 1.356 . S
N233 H238 0.984 . S
N233 H239 0.985 . S
C234 C228 1.379 . S
C234 C231 1.363 . S
C234 N232 1.356 . S
C235 C229 1.363 . S
C235 C230 1.379 . S
C235 N233 1.356 . S
N236 C228 1.356 . S
N236 H242 0.984 . S
N236 H243 0.984 . S
N237 C230 1.356 . S
N237 H240 0.984 . S
N237 H241 0.985 . S
H238 N233 0.984 . S
H239 N233 0.985 . S
H240 N237 0.984 . S
H241 N237 0.985 . S
H242 N236 0.984 . S
H243 N236 0.984 . S
H244 N232 0.984 . S
H245 N232 0.985 . S
C246 C247 1.363 . S
C246 C252 1.379 . S
C246 N254 1.356 . S
C247 C246 1.363 . S
C247 C253 1.363 . S
C248 C249 1.363 . S
C248 C253 1.379 . S
C248 N255 1.356 . S
C249 C248 1.363 . S
C249 C252 1.363 . S
N250 C252 1.356 . S
N250 H262 0.984 . S
N250 H263 0.985 . S
N251 C253 1.356 . S
N251 H256 0.984 . S
N251 H257 0.985 . S
C252 C246 1.379 . S
C252 C249 1.363 . S
C252 N250 1.356 . S
C253 C247 1.363 . S
C253 C248 1.379 . S
C253 N251 1.356 . S
N254 C246 1.356 . S
N254 H260 0.984 . S
N254 H261 0.984 . S
N255 C248 1.356 . S
N255 H258 0.984 . S
N255 H259 0.985 . S
H256 N251 0.984 . S
H257 N251 0.985 . S
H258 N255 0.984 . S
H259 N255 0.985 . S
H260 N254 0.984 . S
H261 N254 0.984 . S
H262 N250 0.984 . S
H263 N250 0.985 . S
C264 C265 1.363 . S
C264 C270 1.379 . S
C264 N272 1.356 . S
C265 C264 1.363 . S
C265 C271 1.363 . S
C266 C267 1.363 . S
C266 C271 1.379 . S
C266 N273 1.356 . S
C267 C266 1.363 . S
C267 C270 1.363 . S
N268 C270 1.356 . S
N268 H280 0.984 . S
N268 H281 0.985 . S
N269 C271 1.356 . S
N269 H274 0.984 . S
N269 H275 0.985 . S
C270 C264 1.379 . S
C270 C267 1.363 . S
C270 N268 1.356 . S
C271 C265 1.363 . S
C271 C266 1.379 . S
C271 N269 1.356 . S
N272 C264 1.356 . S
N272 H278 0.984 . S
N272 H279 0.984 . S
N273 C266 1.356 . S
N273 H276 0.984 . S
N273 H277 0.985 . S
H274 N269 0.984 . S
H275 N269 0.985 . S
H276 N273 0.984 . S
H277 N273 0.985 . S
H278 N272 0.984 . S
H279 N272 0.984 . S
H280 N268 0.984 . S
H281 N268 0.985 . S
C282 C283 1.363 . S
C282 C288 1.379 . S
C282 N290 1.356 . S
C283 C282 1.363 . S
C283 C289 1.363 . S
C284 C285 1.363 . S
C284 C289 1.379 . S
C284 N291 1.356 . S
C285 C284 1.363 . S
C285 C288 1.363 . S
N286 C288 1.356 . S
N286 H298 0.984 . S
N286 H299 0.985 . S
N287 C289 1.356 1_554 S
N287 H292 0.984 . S
N287 H293 0.985 . S
C288 C282 1.379 . S
C288 C285 1.363 . S
C288 N286 1.356 . S
C289 C283 1.363 . S
C289 C284 1.379 . S
C289 N287 1.356 1_556 S
N290 C282 1.356 . S
N290 H296 0.984 . S
N290 H297 0.984 . S
N291 C284 1.356 . S
N291 H294 0.984 . S
N291 H295 0.985 1_556 S
H292 N287 0.984 . S
H293 N287 0.985 . S
H294 N291 0.984 . S
H295 N291 0.985 1_554 S
H296 N290 0.984 . S
H297 N290 0.984 . S
H298 N286 0.984 . S
H299 N286 0.985 . S
C300 C301 1.363 . S
C300 C306 1.379 . S
C300 N308 1.356 . S
C301 C300 1.363 . S
C301 C307 1.363 . S
C302 C303 1.363 . S
C302 C307 1.379 . S
C302 N309 1.356 . S
C303 C302 1.363 . S
C303 C306 1.363 . S
N304 C306 1.356 . S
N304 H316 0.984 . S
N304 H317 0.985 . S
N305 C307 1.356 . S
N305 H310 0.984 . S
N305 H311 0.985 . S
C306 C300 1.379 . S
C306 C303 1.363 . S
C306 N304 1.356 . S
C307 C301 1.363 . S
C307 C302 1.379 . S
C307 N305 1.356 . S
N308 C300 1.356 . S
N308 H314 0.984 . S
N308 H315 0.984 . S
N309 C302 1.356 . S
N309 H312 0.984 . S
N309 H313 0.985 . S
H310 N305 0.984 . S
H311 N305 0.985 . S
H312 N309 0.984 . S
H313 N309 0.985 . S
H314 N308 0.984 . S
H315 N308 0.984 . S
H316 N304 0.984 . S
H317 N304 0.985 . S
C318 C319 1.363 . S
C318 C324 1.379 . S
C318 N326 1.356 . S
C319 C318 1.363 . S
C319 C325 1.363 . S
C320 C321 1.363 . S
C320 C325 1.379 . S
C320 N327 1.356 . S
C321 C320 1.363 . S
C321 C324 1.363 . S
N322 C324 1.356 . S
N322 H334 0.984 . S
N322 H335 0.985 . S
N323 C325 1.356 . S
N323 H328 0.984 . S
N323 H329 0.985 . S
C324 C318 1.379 . S
C324 C321 1.363 . S
C324 N322 1.356 . S
C325 C319 1.363 . S
C325 C320 1.379 . S
C325 N323 1.356 . S
N326 C318 1.356 . S
N326 H332 0.984 . S
N326 H333 0.984 . S
N327 C320 1.356 . S
N327 H330 0.984 . S
N327 H331 0.985 . S
H328 N323 0.984 . S
H329 N323 0.985 . S
H330 N327 0.984 . S
H331 N327 0.985 . S
H332 N326 0.984 . S
H333 N326 0.984 . S
H334 N322 0.984 . S
H335 N322 0.985 . S
C336 C337 1.363 . S
C336 C342 1.379 . S
C336 N344 1.356 . S
C337 C336 1.363 . S
C337 C343 1.363 . S
C338 C339 1.363 . S
C338 C343 1.379 . S
C338 N345 1.356 . S
C339 C338 1.363 . S
C339 C342 1.363 . S
N340 C342 1.356 . S
N340 H352 0.984 . S
N340 H353 0.985 . S
N341 C343 1.356 . S
N341 H346 0.984 . S
N341 H347 0.985 . S
C342 C336 1.379 . S
C342 C339 1.363 . S
C342 N340 1.356 . S
C343 C337 1.363 . S
C343 C338 1.379 . S
C343 N341 1.356 . S
N344 C336 1.356 . S
N344 H350 0.984 . S
N344 H351 0.984 . S
N345 C338 1.356 . S
N345 H348 0.984 . S
N345 H349 0.985 . S
H346 N341 0.984 . S
H347 N341 0.985 . S
H348 N345 0.984 . S
H349 N345 0.985 . S
H350 N344 0.984 . S
H351 N344 0.984 . S
H352 N340 0.984 . S
H353 N340 0.985 . S
C354 C355 1.363 . S
C354 C360 1.379 . S
C354 N362 1.356 . S
C355 C354 1.363 . S
C355 C361 1.363 . S
C356 C357 1.363 . S
C356 C361 1.379 . S
C356 N363 1.356 . S
C357 C356 1.363 . S
C357 C360 1.363 . S
N358 C360 1.356 . S
N358 H370 0.984 . S
N358 H371 0.985 . S
N359 C361 1.356 . S
N359 H364 0.984 . S
N359 H365 0.985 . S
C360 C354 1.379 . S
C360 C357 1.363 . S
C360 N358 1.356 . S
C361 C355 1.363 . S
C361 C356 1.379 . S
C361 N359 1.356 . S
N362 C354 1.356 . S
N362 H368 0.984 . S
N362 H369 0.984 . S
N363 C356 1.356 . S
N363 H366 0.984 . S
N363 H367 0.985 . S
H364 N359 0.984 . S
H365 N359 0.985 . S
H366 N363 0.984 . S
H367 N363 0.985 . S
H368 N362 0.984 . S
H369 N362 0.984 . S
H370 N358 0.984 . S
H371 N358 0.985 . S
C372 C373 1.367 . S
C372 C378 1.380 . S
C372 N380 1.351 1_554 S
C373 C372 1.367 . S
C373 C379 1.363 . S
C374 C375 1.363 . S
C374 C379 1.379 . S
C374 N381 1.356 . S
C375 C374 1.363 . S
C375 C378 1.363 . S
N376 C378 1.356 1_556 S
N376 H388 0.984 . S
N376 H389 0.985 1_556 S
N377 C379 1.356 . S
N377 H382 0.984 . S
N377 H383 0.985 . S
C378 C372 1.380 . S
C378 C375 1.363 . S
C378 N376 1.356 1_554 S
C379 C373 1.363 . S
C379 C374 1.379 . S
C379 N377 1.356 . S
N380 C372 1.351 1_556 S
N380 H386 0.984 . S
N380 H387 0.984 . S
N381 C374 1.356 . S
N381 H384 0.984 . S
N381 H385 0.985 . S
H382 N377 0.984 . S
H383 N377 0.985 . S
H384 N381 0.984 . S
H385 N381 0.985 . S
H386 N380 0.984 . S
H387 N380 0.984 . S
H388 N376 0.984 . S
H389 N376 0.985 1_554 S
C390 C391 1.363 . S
C390 C396 1.379 . S
C390 N398 1.356 . S
C391 C390 1.363 . S
C391 C397 1.363 . S
C392 C393 1.363 . S
C392 C397 1.379 . S
C392 N399 1.356 . S
C393 C392 1.363 . S
C393 C396 1.363 . S
N394 C396 1.356 . S
N394 H406 0.984 . S
N394 H407 0.985 . S
N395 C397 1.356 . S
N395 H400 0.984 . S
N395 H401 0.985 . S
C396 C390 1.379 . S
C396 C393 1.363 . S
C396 N394 1.356 . S
C397 C391 1.363 . S
C397 C392 1.379 . S
C397 N395 1.356 . S
N398 C390 1.356 . S
N398 H404 0.984 . S
N398 H405 0.984 . S
N399 C392 1.356 . S
N399 H402 0.984 . S
N399 H403 0.985 . S
H400 N395 0.984 . S
H401 N395 0.985 . S
H402 N399 0.984 . S
H403 N399 0.985 . S
H404 N398 0.984 . S
H405 N398 0.984 . S
H406 N394 0.984 . S
H407 N394 0.985 . S
C408 C409 1.363 . S
C408 C414 1.379 . S
C408 N416 1.356 . S
C409 C408 1.363 . S
C409 C415 1.363 . S
C410 C411 1.363 . S
C410 C415 1.379 . S
C410 N417 1.356 . S
C411 C410 1.363 . S
C411 C414 1.363 . S
N412 C414 1.356 . S
N412 H424 0.984 . S
N412 H425 0.985 . S
N413 C415 1.356 . S
N413 H418 0.984 . S
N413 H419 0.985 . S
C414 C408 1.379 . S
C414 C411 1.363 . S
C414 N412 1.356 . S
C415 C409 1.363 . S
C415 C410 1.379 . S
C415 N413 1.356 . S
N416 C408 1.356 . S
N416 H422 0.984 . S
N416 H423 0.984 . S
N417 C410 1.356 . S
N417 H420 0.984 . S
N417 H421 0.985 . S
H418 N413 0.984 . S
H419 N413 0.985 . S
H420 N417 0.984 . S
H421 N417 0.985 . S
H422 N416 0.984 . S
H423 N416 0.984 . S
H424 N412 0.984 . S
H425 N412 0.985 . S
C426 C427 1.363 . S
C426 C432 1.379 . S
C426 N434 1.356 . S
C427 C426 1.363 . S
C427 C433 1.363 . S
C428 C429 1.363 . S
C428 C433 1.379 . S
C428 N435 1.356 . S
C429 C428 1.363 . S
C429 C432 1.363 . S
N430 C432 1.356 . S
N430 H442 0.984 . S
N430 H443 0.985 . S
N431 C433 1.356 . S
N431 H436 0.984 . S
N431 H437 0.985 . S
C432 C426 1.379 . S
C432 C429 1.363 . S
C432 N430 1.356 . S
C433 C427 1.363 . S
C433 C428 1.379 . S
C433 N431 1.356 . S
N434 C426 1.356 . S
N434 H440 0.984 . S
N434 H441 0.984 . S
N435 C428 1.356 . S
N435 H438 0.984 . S
N435 H439 0.985 . S
H436 N431 0.984 . S
H437 N431 0.985 . S
H438 N435 0.984 . S
H439 N435 0.985 . S
H440 N434 0.984 . S
H441 N434 0.984 . S
H442 N430 0.984 . S
H443 N430 0.985 . S
C444 C445 1.363 . S
C444 C450 1.379 . S
C444 N452 1.356 . S
C445 C444 1.363 . S
C445 C451 1.363 . S
C446 C447 1.363 . S
C446 C451 1.379 . S
C446 N453 1.356 . S
C447 C446 1.363 . S
C447 C450 1.363 . S
N448 C450 1.356 . S
N448 H460 0.984 . S
N448 H461 0.985 . S
N449 C451 1.356 . S
N449 H454 0.984 . S
N449 H455 0.985 . S
C450 C444 1.379 . S
C450 C447 1.363 . S
C450 N448 1.356 . S
C451 C445 1.363 . S
C451 C446 1.379 . S
C451 N449 1.356 . S
N452 C444 1.356 . S
N452 H458 0.984 . S
N452 H459 0.984 . S
N453 C446 1.356 . S
N453 H456 0.984 . S
N453 H457 0.985 . S
H454 N449 0.984 . S
H455 N449 0.985 . S
H456 N453 0.984 . S
H457 N453 0.985 . S
H458 N452 0.984 . S
H459 N452 0.984 . S
H460 N448 0.984 . S
H461 N448 0.985 . S
C462 C463 1.363 . S
C462 C468 1.379 . S
C462 N470 1.356 . S
C463 C462 1.363 . S
C463 C469 1.363 . S
C464 C465 1.363 . S
C464 C469 1.379 . S
C464 N471 1.356 . S
C465 C464 1.363 . S
C465 C468 1.363 . S
N466 C468 1.356 . S
N466 H478 0.984 . S
N466 H479 0.985 . S
N467 C469 1.356 . S
N467 H472 0.984 . S
N467 H473 0.985 . S
C468 C462 1.379 . S
C468 C465 1.363 . S
C468 N466 1.356 . S
C469 C463 1.363 . S
C469 C464 1.379 . S
C469 N467 1.356 . S
N470 C462 1.356 . S
N470 H476 0.984 . S
N470 H477 0.984 . S
N471 C464 1.356 . S
N471 H474 0.984 . S
N471 H475 0.985 . S
H472 N467 0.984 . S
H473 N467 0.985 . S
H474 N471 0.984 . S
H475 N471 0.985 . S
H476 N470 0.984 . S
H477 N470 0.984 . S
H478 N466 0.984 . S
H479 N466 0.985 . S
C480 C481 1.363 . S
C480 C486 1.379 . S
C480 N488 1.356 . S
C481 C480 1.363 . S
C481 C487 1.363 . S
C482 C483 1.363 . S
C482 C487 1.379 . S
C482 N489 1.356 . S
C483 C482 1.363 . S
C483 C486 1.363 . S
N484 C486 1.356 1_554 S
N484 H496 0.984 . S
N484 H497 0.985 . S
N485 C487 1.356 . S
N485 H490 0.984 . S
N485 H491 0.985 . S
C486 C480 1.379 . S
C486 C483 1.363 . S
C486 N484 1.356 1_556 S
C487 C481 1.363 . S
C487 C482 1.379 . S
C487 N485 1.356 . S
N488 C480 1.356 . S
N488 H494 0.984 . S
N488 H495 0.984 . S
N489 C482 1.356 . S
N489 H492 0.984 . S
N489 H493 0.985 . S
H490 N485 0.984 . S
H491 N485 0.985 . S
H492 N489 0.984 . S
H493 N489 0.985 . S
H494 N488 0.984 . S
H495 N488 0.984 . S
H496 N484 0.984 . S
H497 N484 0.985 . S
C498 C499 1.363 . S
C498 C504 1.379 . S
C498 N506 1.356 . S
C499 C498 1.363 . S
C499 C505 1.363 . S
C500 C501 1.363 . S
C500 C505 1.379 . S
C500 N507 1.356 . S
C501 C500 1.363 . S
C501 C504 1.363 . S
N502 C504 1.356 . S
N502 H514 0.984 . S
N502 H515 0.985 . S
N503 C505 1.356 . S
N503 H508 0.984 . S
N503 H509 0.985 . S
C504 C498 1.379 . S
C504 C501 1.363 . S
C504 N502 1.356 . S
C505 C499 1.363 . S
C505 C500 1.379 . S
C505 N503 1.356 . S
N506 C498 1.356 . S
N506 H512 0.984 . S
N506 H513 0.984 . S
N507 C500 1.356 . S
N507 H510 0.984 . S
N507 H511 0.985 . S
H508 N503 0.984 . S
H509 N503 0.985 . S
H510 N507 0.984 . S
H511 N507 0.985 . S
H512 N506 0.984 . S
H513 N506 0.984 . S
H514 N502 0.984 . S
H515 N502 0.985 . S
C516 C517 1.363 . S
C516 C522 1.379 . S
C516 N524 1.356 . S
C517 C516 1.363 . S
C517 C523 1.363 . S
C518 C519 1.363 . S
C518 C523 1.379 . S
C518 N525 1.356 . S
C519 C518 1.363 . S
C519 C522 1.363 . S
N520 C522 1.356 . S
N520 H532 0.984 . S
N520 H533 0.985 . S
N521 C523 1.356 . S
N521 H526 0.984 . S
N521 H527 0.985 . S
C522 C516 1.379 . S
C522 C519 1.363 . S
C522 N520 1.356 . S
C523 C517 1.363 . S
C523 C518 1.379 . S
C523 N521 1.356 . S
N524 C516 1.356 . S
N524 H530 0.984 . S
N524 H531 0.984 . S
N525 C518 1.356 . S
N525 H528 0.984 . S
N525 H529 0.985 . S
H526 N521 0.984 . S
H527 N521 0.985 . S
H528 N525 0.984 . S
H529 N525 0.985 . S
H530 N524 0.984 . S
H531 N524 0.984 . S
H532 N520 0.984 . S
H533 N520 0.985 . S
C534 C535 1.363 . S
C534 C540 1.379 . S
C534 N542 1.356 . S
C535 C534 1.363 . S
C535 C541 1.363 . S
C536 C537 1.363 . S
C536 C541 1.379 . S
C536 N543 1.356 . S
C537 C536 1.363 . S
C537 C540 1.363 . S
N538 C540 1.356 . S
N538 H550 0.984 . S
N538 H551 0.985 . S
N539 C541 1.356 . S
N539 H544 0.984 . S
N539 H545 0.985 . S
C540 C534 1.379 . S
C540 C537 1.363 . S
C540 N538 1.356 . S
C541 C535 1.363 . S
C541 C536 1.379 . S
C541 N539 1.356 . S
N542 C534 1.356 . S
N542 H548 0.984 . S
N542 H549 0.984 . S
N543 C536 1.356 . S
N543 H546 0.984 . S
N543 H547 0.985 . S
H544 N539 0.984 . S
H545 N539 0.985 . S
H546 N543 0.984 . S
H547 N543 0.985 . S
H548 N542 0.984 . S
H549 N542 0.984 . S
H550 N538 0.984 . S
H551 N538 0.985 . S
C552 C553 1.363 . S
C552 C558 1.379 . S
C552 N560 1.356 . S
C553 C552 1.363 . S
C553 C559 1.363 . S
C554 C555 1.363 . S
C554 C559 1.379 . S
C554 N561 1.356 . S
C555 C554 1.363 . S
C555 C558 1.363 . S
N556 C558 1.356 . S
N556 H568 0.984 . S
N556 H569 0.985 . S
N557 C559 1.356 . S
N557 H562 0.984 . S
N557 H563 0.985 . S
C558 C552 1.379 . S
C558 C555 1.363 . S
C558 N556 1.356 . S
C559 C553 1.363 . S
C559 C554 1.379 . S
C559 N557 1.356 . S
N560 C552 1.356 . S
N560 H566 0.984 . S
N560 H567 0.984 . S
N561 C554 1.356 . S
N561 H564 0.984 . S
N561 H565 0.985 . S
H562 N557 0.984 . S
H563 N557 0.985 . S
H564 N561 0.984 . S
H565 N561 0.985 . S
H566 N560 0.984 . S
H567 N560 0.984 . S
H568 N556 0.984 . S
H569 N556 0.985 . S
C570 C571 1.363 . S
C570 C576 1.379 . S
C570 N578 1.356 . S
C571 C570 1.363 . S
C571 C577 1.363 . S
C572 C573 1.363 . S
C572 C577 1.379 . S
C572 N579 1.356 . S
C573 C572 1.363 . S
C573 C576 1.363 . S
N574 C576 1.356 . S
N574 H586 0.984 . S
N574 H587 0.985 . S
N575 C577 1.356 . S
N575 H580 0.984 . S
N575 H581 0.985 . S
C576 C570 1.379 . S
C576 C573 1.363 . S
C576 N574 1.356 . S
C577 C571 1.363 . S
C577 C572 1.379 . S
C577 N575 1.356 . S
N578 C570 1.356 . S
N578 H584 0.984 . S
N578 H585 0.984 . S
N579 C572 1.356 . S
N579 H582 0.984 . S
N579 H583 0.985 . S
H580 N575 0.984 . S
H581 N575 0.985 . S
H582 N579 0.984 . S
H583 N579 0.985 . S
H584 N578 0.984 . S
H585 N578 0.984 . S
H586 N574 0.984 . S
H587 N574 0.985 . S
C588 C589 1.363 . S
C588 C594 1.379 . S
C588 N596 1.356 . S
C589 C588 1.363 . S
C589 C595 1.363 . S
C590 C591 1.363 . S
C590 C595 1.379 . S
C590 N597 1.356 . S
C591 C590 1.363 . S
C591 C594 1.363 . S
N592 C594 1.356 . S
N592 H604 0.984 . S
N592 H605 0.985 . S
N593 C595 1.356 . S
N593 H598 0.984 . S
N593 H599 0.985 . S
C594 C588 1.379 . S
C594 C591 1.363 . S
C594 N592 1.356 . S
C595 C589 1.363 . S
C595 C590 1.379 . S
C595 N593 1.356 . S
N596 C588 1.356 . S
N596 H602 0.984 . S
N596 H603 0.984 . S
N597 C590 1.356 . S
N597 H600 0.984 . S
N597 H601 0.985 . S
H598 N593 0.984 . S
H599 N593 0.985 . S
H600 N597 0.984 . S
H601 N597 0.985 . S
H602 N596 0.984 . S
H603 N596 0.984 . S
H604 N592 0.984 . S
H605 N592 0.985 . S
C606 C607 1.363 . S
C606 C612 1.379 . S
C606 N614 1.356 . S
C607 C606 1.363 . S
C607 C613 1.363 . S
C608 C609 1.363 . S
C608 C613 1.379 1_556 S
C608 N615 1.356 . S
C609 C608 1.363 . S
C609 C612 1.363 1_556 S
N610 C612 1.356 . S
N610 H622 0.984 . S
N610 H623 0.985 . S
N611 C613 1.356 . S
N611 H616 0.984 . S
N611 H617 0.985 1_554 S
C612 C606 1.379 . S
C612 C609 1.363 1_554 S
C612 N610 1.356 . S
C613 C607 1.363 . S
C613 C608 1.379 1_554 S
C613 N611 1.356 . S
N614 C606 1.356 . S
N614 H620 0.984 . S
N614 H621 0.984 . S
N615 C608 1.356 . S
N615 H618 0.984 . S
N615 H619 0.985 . S
H616 N611 0.984 . S
H617 N611 0.985 1_556 S
H618 N615 0.984 . S
H619 N615 0.985 . S
H620 N614 0.984 . S
H621 N614 0.984 . S
H622 N610 0.984 . S
H623 N610 0.985 . S
C624 C625 1.363 . S
C624 C630 1.379 . S
C624 N632 1.356 . S
C625 C624 1.363 . S
C625 C631 1.363 . S
C626 C627 1.363 . S
C626 C631 1.379 . S
C626 N633 1.356 . S
C627 C626 1.363 . S
C627 C630 1.363 . S
N628 C630 1.356 . S
N628 H640 0.984 . S
N628 H641 0.985 . S
N629 C631 1.356 . S
N629 H634 0.984 . S
N629 H635 0.985 . S
C630 C624 1.379 . S
C630 C627 1.363 . S
C630 N628 1.356 . S
C631 C625 1.363 . S
C631 C626 1.379 . S
C631 N629 1.356 . S
N632 C624 1.356 . S
N632 H638 0.984 . S
N632 H639 0.984 . S
N633 C626 1.356 . S
N633 H636 0.984 . S
N633 H637 0.985 . S
H634 N629 0.984 . S
H635 N629 0.985 . S
H636 N633 0.984 . S
H637 N633 0.985 . S
H638 N632 0.984 . S
H639 N632 0.984 . S
H640 N628 0.984 . S
H641 N628 0.985 . S
C213 C196 1.576 . S
C211 C19 1.487 . S
C229 C40 1.478 . S
C231 C137 1.576 . S
C247 C51 1.462 . S
C249 C140 1.575 . S
C265 C72 1.475 . S
C267 C154 1.580 . S
C285 C179 1.574 . S
C283 C103 1.477 . S
C301 C114 1.457 . S
C303 C182 1.568 . S
C319 C30 1.449 . S
C321 C151 1.564 . S
C337 C61 1.474 . S
C339 C165 1.564 . S
C355 C82 1.465 . S
C357 C168 1.552 . S
C375 C193 1.557 . S
C373 C93 1.444 . S
C393 C207 1.563 . S
C391 C124 1.473 . S
C411 C126 1.556 . S
C409 C9 1.453 . S
C427 C17 1.433 . S
C429 C149 1.508 . S
C445 C38 1.421 . S
C447 C163 1.512 . S
C465 C173 1.511 . S
C463 C54 1.421 . S
C481 C75 1.427 . S
C483 C191 1.506 1_556 S
C501 C205 1.511 . S
C499 C101 1.421 . S
C519 C131 1.512 . S
C517 C117 1.422 . S
C537 C201 1.528 . S
C535 C33 1.424 . S
C553 C59 1.430 . S
C555 C135 1.519 . S
C573 C145 1.528 . S
C571 C80 1.442 . S
C589 C96 1.425 . S
C591 C159 1.529 . S
C607 C122 1.429 . S
C609 C177 1.518 . S
C625 C12 1.436 . S
C627 C187 1.526 . S
