# Generated by pormake.
# Topology nom, (4,4)-cn, num edge types: 1
# Building blocks:
#     Node 0, Type 0, BuildingBlock: NAWXER_clean_linker_0, # of connection points: 4
#     Node 1, Type 0, BuildingBlock: NAWXER_clean_linker_0, # of connection points: 4
#     Node 2, Type 0, BuildingBlock: NAWXER_clean_linker_0, # of connection points: 4
#     Node 3, Type 0, BuildingBlock: NAWXER_clean_linker_0, # of connection points: 4
#     Node 4, Type 0, BuildingBlock: NAWXER_clean_linker_0, # of connection points: 4
#     Node 5, Type 0, BuildingBlock: NAWXER_clean_linker_0, # of connection points: 4
#     Node 6, Type 1, BuildingBlock: KUFVIS_clean_sbu_0, # of connection points: 4
#     Node 7, Type 1, BuildingBlock: KUFVIS_clean_sbu_0, # of connection points: 4
#     Node 8, Type 1, BuildingBlock: KUFVIS_clean_sbu_0, # of connection points: 4
#     Node 9, Type 1, BuildingBlock: KUFVIS_clean_sbu_0, # of connection points: 4
#     Node 10, Type 1, BuildingBlock: KUFVIS_clean_sbu_0, # of connection points: 4
#     Node 11, Type 1, BuildingBlock: KUFVIS_clean_sbu_0, # of connection points: 4
#     Edge 12, Type (0, 1), BuildingBlock: OJICUG_clean_linker_0, # of connection points: 2
#     Edge 13, Type (0, 1), BuildingBlock: OJICUG_clean_linker_0, # of connection points: 2
#     Edge 14, Type (0, 1), BuildingBlock: OJICUG_clean_linker_0, # of connection points: 2
#     Edge 15, Type (0, 1), BuildingBlock: OJICUG_clean_linker_0, # of connection points: 2
#     Edge 16, Type (0, 1), BuildingBlock: OJICUG_clean_linker_0, # of connection points: 2
#     Edge 17, Type (0, 1), BuildingBlock: OJICUG_clean_linker_0, # of connection points: 2
#     Edge 18, Type (0, 1), BuildingBlock: OJICUG_clean_linker_0, # of connection points: 2
#     Edge 19, Type (0, 1), BuildingBlock: OJICUG_clean_linker_0, # of connection points: 2
#     Edge 20, Type (0, 1), BuildingBlock: OJICUG_clean_linker_0, # of connection points: 2
#     Edge 21, Type (0, 1), BuildingBlock: OJICUG_clean_linker_0, # of connection points: 2
#     Edge 22, Type (0, 1), BuildingBlock: OJICUG_clean_linker_0, # of connection points: 2
#     Edge 23, Type (0, 1), BuildingBlock: OJICUG_clean_linker_0, # of connection points: 2
#     Edge 24, Type (0, 1), BuildingBlock: OJICUG_clean_linker_0, # of connection points: 2
#     Edge 25, Type (0, 1), BuildingBlock: OJICUG_clean_linker_0, # of connection points: 2
#     Edge 26, Type (0, 1), BuildingBlock: OJICUG_clean_linker_0, # of connection points: 2
#     Edge 27, Type (0, 1), BuildingBlock: OJICUG_clean_linker_0, # of connection points: 2
#     Edge 28, Type (0, 1), BuildingBlock: OJICUG_clean_linker_0, # of connection points: 2
#     Edge 29, Type (0, 1), BuildingBlock: OJICUG_clean_linker_0, # of connection points: 2
#     Edge 30, Type (0, 1), BuildingBlock: OJICUG_clean_linker_0, # of connection points: 2
#     Edge 31, Type (0, 1), BuildingBlock: OJICUG_clean_linker_0, # of connection points: 2
#     Edge 32, Type (0, 1), BuildingBlock: OJICUG_clean_linker_0, # of connection points: 2
#     Edge 33, Type (0, 1), BuildingBlock: OJICUG_clean_linker_0, # of connection points: 2
#     Edge 34, Type (0, 1), BuildingBlock: OJICUG_clean_linker_0, # of connection points: 2
#     Edge 35, Type (0, 1), BuildingBlock: OJICUG_clean_linker_0, # of connection points: 2
# Relax obj value: 0.005
# Max RMSD: 0.111
# Mean RMSD: 0.070
data_MOF--net-nom--node1-KUFVIS_clean_sbu_0--node2-NAWXER_clean_linker_0--edge1-OJICUG_clean_linker_0
_symmetry_space_group_name_H-M    P1
_symmetry_Int_Tables_number       1
_symmetry_cell_setting            triclinic
loop_
_symmetry_equiv_pos_as_xyz
'x, y, z'
_cell_length_a     40.201652
_cell_length_b     40.604592
_cell_length_c     44.567417
_cell_angle_alpha  90.520231
_cell_angle_beta   90.755033
_cell_angle_gamma 120.02056
loop_
_atom_site_label
_atom_site_type_symbol
_atom_site_fract_x
_atom_site_fract_y
_atom_site_fract_z
_atom_type_partial_charge
C0 C 0.87136 0.5073 0.33359 0.0
C1 C 0.85507 0.47973 0.35591 0.0
C2 C 0.90861 0.51966 0.32399 0.0
C3 C 0.93032 0.50453 0.33633 0.0
C4 C 0.8763 0.46369 0.36762 0.0
C5 C 0.91378 0.47629 0.3581 0.0
C6 C 0.9714 0.52109 0.32891 0.0
C7 C 0.90848 0.46201 0.24368 0.0
C8 C 0.91096 0.48706 0.22101 0.0
C9 C 0.93208 0.4756 0.26932 0.0
C10 C 0.95891 0.51444 0.27275 0.0
C11 C 0.93791 0.52608 0.22471 0.0
C12 C 0.96196 0.53953 0.25016 0.0
C13 C 0.9848 0.52869 0.29933 0.0
C14 C 0.15593 0.59377 0.31129 0.0
C15 C 0.16767 0.62408 0.29126 0.0
C16 C 0.11762 0.57313 0.3203 0.0
C17 C 0.0906 0.58285 0.30978 0.0
C18 C 0.14035 0.63336 0.28065 0.0
C19 C 0.10229 0.61287 0.28968 0.0
C20 C 0.04961 0.56102 0.31789 0.0
C21 C 0.11583 0.61198 0.4049 0.0
C22 C 0.10511 0.5868 0.42891 0.0
C23 C 0.09363 0.60132 0.37838 0.0
C24 C 0.06139 0.5646 0.37498 0.0
C25 C 0.07221 0.55081 0.42605 0.0
C26 C 0.05078 0.53969 0.39927 0.0
C27 C 0.03624 0.5525 0.34768 0.0
H28 H 0.8556 0.52005 0.3241 0.0
H29 H 0.92095 0.54224 0.30781 0.0
H30 H 0.86457 0.44269 0.38506 0.0
H31 H 0.93017 0.46454 0.36819 0.0
H32 H 0.88877 0.43173 0.24153 0.0
H33 H 0.92984 0.45564 0.28625 0.0
H34 H 0.94028 0.54643 0.20814 0.0
H35 H 0.9826 0.56964 0.25244 0.0
H36 H 0.17619 0.58566 0.31963 0.0
H37 H 0.10907 0.54945 0.33524 0.0
H38 H 0.14847 0.65691 0.26564 0.0
H39 H 0.08193 0.62077 0.28113 0.0
H40 H 0.14089 0.64014 0.40694 0.0
H41 H 0.10142 0.62206 0.36088 0.0
H42 H 0.0633 0.53116 0.44443 0.0
H43 H 0.0257 0.51149 0.3976 0.0
N44 N 0.99761 0.53293 0.35185 0.0
N45 N 0.02325 0.54867 0.29497 0.0
C46 C 0.3825 0.87984 0.50304 0.0
C47 C 0.39496 0.86628 0.52713 0.0
C48 C 0.40454 0.91755 0.49396 0.0
C49 C 0.44005 0.94209 0.50819 0.0
C50 C 0.42986 0.89116 0.54195 0.0
C51 C 0.45218 0.92866 0.53255 0.0
C52 C 0.46368 0.9824 0.49938 0.0
C53 C 0.45261 0.9117 0.41745 0.0
C54 C 0.44371 0.92264 0.38978 0.0
C55 C 0.4628 0.93524 0.44299 0.0
C56 C 0.46182 0.9693 0.44251 0.0
C57 C 0.4454 0.95824 0.38915 0.0
C58 C 0.45358 0.9807 0.41511 0.0
C59 C 0.47205 0.99491 0.46939 0.0
C60 C 0.57856 0.16473 0.48128 0.0
C61 C 0.5606 0.17679 0.46022 0.0
C62 C 0.56058 0.12668 0.49014 0.0
C63 C 0.52409 0.10015 0.47841 0.0
C64 C 0.52442 0.14983 0.44817 0.0
C65 C 0.50654 0.11198 0.45702 0.0
C66 C 0.50409 0.0597 0.48716 0.0
C67 C 0.5179 0.12841 0.57175 0.0
C68 C 0.53068 0.11742 0.59716 0.0
C69 C 0.5063 0.10564 0.54567 0.0
C70 C 0.50923 0.07253 0.54412 0.0
C71 C 0.5318 0.08352 0.59617 0.0
C72 C 0.52163 0.06155 0.56985 0.0
C73 C 0.4969 0.04715 0.51713 0.0
H74 H 0.35534 0.86143 0.49158 0.0
H75 H 0.39378 0.92754 0.47588 0.0
H76 H 0.44014 0.88144 0.56054 0.0
H77 H 0.47916 0.94718 0.54422 0.0
H78 H 0.45194 0.88502 0.42008 0.0
H79 H 0.47155 0.92654 0.46305 0.0
H80 H 0.44091 0.96967 0.36874 0.0
H81 H 0.45373 0.0074 0.41359 0.0
H82 H 0.60665 0.18461 0.49071 0.0
H83 H 0.57512 0.118 0.50613 0.0
H84 H 0.50941 0.1581 0.4323 0.0
H85 H 0.47851 0.09198 0.4475 0.0
H86 H 0.51626 0.15424 0.5723 0.0
H87 H 0.49471 0.11382 0.52699 0.0
H88 H 0.54118 0.07435 0.61561 0.0
H89 H 0.5235 0.03584 0.56963 0.0
N90 N 0.47697 0.00906 0.5218 0.0
N91 N 0.49141 0.03305 0.46471 0.0
C92 C 0.57212 0.48444 0.57983 0.0
C93 C 0.54568 0.46093 0.5573 0.0
C94 C 0.55976 0.49554 0.60516 0.0
C95 C 0.52072 0.48362 0.60848 0.0
C96 C 0.50653 0.44909 0.56086 0.0
C97 C 0.4943 0.4607 0.58598 0.0
C98 C 0.50738 0.49584 0.63488 0.0
C99 C 0.53756 0.41064 0.6688 0.0
C100 C 0.56435 0.42243 0.69272 0.0
C101 C 0.52248 0.43333 0.65953 0.0
C102 C 0.53477 0.46899 0.67332 0.0
C103 C 0.57603 0.45759 0.70709 0.0
C104 C 0.56143 0.4807 0.69741 0.0
C105 C 0.51689 0.49206 0.66484 0.0
C106 C 0.41984 0.53032 0.74054 0.0
C107 C 0.44704 0.55604 0.7616 0.0
C108 C 0.4317 0.52041 0.71431 0.0
C109 C 0.47098 0.53614 0.70862 0.0
C110 C 0.48634 0.57203 0.75566 0.0
C111 C 0.49818 0.56187 0.72953 0.0
C112 C 0.48395 0.5237 0.6822 0.0
C113 C 0.42361 0.58511 0.64783 0.0
C114 C 0.39285 0.5628 0.62781 0.0
C115 C 0.45009 0.5736 0.65581 0.0
C116 C 0.44596 0.53941 0.64414 0.0
C117 C 0.38986 0.52946 0.61536 0.0
C118 C 0.41603 0.51795 0.62343 0.0
C119 C 0.47263 0.5255 0.65237 0.0
H120 H 0.60256 0.49486 0.57783 0.0
H121 H 0.58078 0.51386 0.62198 0.0
H122 H 0.48508 0.43042 0.54446 0.0
H123 H 0.46401 0.45119 0.58811 0.0
H124 H 0.52736 0.38324 0.65781 0.0
H125 H 0.50034 0.42229 0.64213 0.0
H126 H 0.59656 0.46723 0.72568 0.0
H127 H 0.57079 0.50766 0.70888 0.0
H128 H 0.38936 0.51768 0.74446 0.0
H129 H 0.41022 0.49989 0.69877 0.0
H130 H 0.50794 0.59151 0.77164 0.0
H131 H 0.52862 0.57391 0.72573 0.0
H132 H 0.42683 0.61103 0.65771 0.0
H133 H 0.47366 0.5914 0.67108 0.0
H134 H 0.36718 0.51211 0.59926 0.0
H135 H 0.41247 0.49178 0.61372 0.0
N136 N 0.48513 0.51177 0.62992 0.0
N137 N 0.50542 0.50687 0.68724 0.0
C138 C 0.86976 0.3953 0.81506 0.0
C139 C 0.84957 0.40584 0.79507 0.0
C140 C 0.90736 0.42135 0.82398 0.0
C141 C 0.92553 0.45877 0.81347 0.0
C142 C 0.86748 0.44343 0.78481 0.0
C143 C 0.90537 0.46961 0.79372 0.0
C144 C 0.96651 0.48501 0.82118 0.0
C145 C 0.90218 0.46657 0.90658 0.0
C146 C 0.91236 0.45013 0.93005 0.0
C147 C 0.9245 0.47947 0.8809 0.0
C148 C 0.95704 0.47543 0.87777 0.0
C149 C 0.94543 0.44691 0.9271 0.0
C150 C 0.96742 0.45936 0.90129 0.0
C151 C 0.9814 0.48914 0.8508 0.0
C152 C 0.15206 0.57977 0.8462 0.0
C153 C 0.16097 0.55223 0.85636 0.0
C154 C 0.11446 0.56913 0.83706 0.0
C155 C 0.08532 0.53096 0.8383 0.0
C156 C 0.1317 0.51382 0.85614 0.0
C157 C 0.09423 0.50344 0.84767 0.0
C158 C 0.04487 0.5191 0.83179 0.0
C159 C 0.09958 0.52505 0.74279 0.0
C160 C 0.09976 0.55264 0.72383 0.0
C161 C 0.07748 0.51412 0.76859 0.0
C162 C 0.05522 0.53068 0.77609 0.0
C163 C 0.07762 0.56938 0.73149 0.0
C164 C 0.05527 0.55821 0.75727 0.0
C165 C 0.03035 0.51779 0.8026 0.0
H166 H 0.85665 0.36661 0.82346 0.0
H167 H 0.9226 0.41189 0.83854 0.0
H168 H 0.85268 0.45216 0.76912 0.0
H169 H 0.91906 0.49816 0.785 0.0
H170 H 0.87682 0.46935 0.9079 0.0
H171 H 0.9164 0.49286 0.86364 0.0
H172 H 0.95476 0.43526 0.94492 0.0
H173 H 0.9926 0.45627 0.89971 0.0
H174 H 0.17374 0.60962 0.84624 0.0
H175 H 0.10788 0.59073 0.82998 0.0
H176 H 0.13755 0.49162 0.86284 0.0
H177 H 0.07203 0.47377 0.84851 0.0
H178 H 0.11645 0.51175 0.73758 0.0
H179 H 0.07718 0.49214 0.78235 0.0
H180 H 0.0768 0.59035 0.71714 0.0
H181 H 0.03793 0.571 0.76249 0.0
N182 N 0.99158 0.50036 0.79827 0.0
N183 N 0.02 0.5053 0.85477 0.0
C184 C 0.46973 0.87369 0.98072 0.0
C185 C 0.44049 0.85786 0.95864 0.0
C186 C 0.48645 0.91196 0.98899 0.0
C187 C 0.47336 0.93506 0.97618 0.0
C188 C 0.42807 0.88101 0.94501 0.0
C189 C 0.44432 0.91932 0.95381 0.0
C190 C 0.49254 0.97624 0.98406 0.0
C191 C 0.44509 0.91956 0.0733 0.0
C192 C 0.47385 0.92322 0.09377 0.0
C193 C 0.45486 0.94063 0.04687 0.0
C194 C 0.49352 0.96603 0.04054 0.0
C195 C 0.51257 0.94807 0.08673 0.0
C196 C 0.52219 0.96957 0.06073 0.0
C197 C 0.50458 0.99037 0.01374 0.0
C198 C 0.58557 0.15993 0.0079 0.0
C199 C 0.62077 0.16856 0.02182 0.0
C200 C 0.55943 0.12265 0.99826 0.0
C201 C 0.568 0.09351 1.00267 0.0
C202 C 0.62959 0.13928 0.02494 0.0
C203 C 0.60327 0.10215 0.01588 0.0
C204 C 0.53989 0.05345 0.99535 0.0
C205 C 0.59064 0.11043 0.9084 0.0
C206 C 0.56376 0.11143 0.88847 0.0
C207 C 0.57849 0.08741 0.93362 0.0
C208 C 0.53919 0.06501 0.93961 0.0
C209 C 0.52438 0.08898 0.8945 0.0
C210 C 0.51222 0.06573 0.91971 0.0
C211 C 0.52629 0.03985 0.96594 0.0
H212 H 0.48054 0.85669 0.99095 0.0
H213 H 0.5104 0.92358 0.00484 0.0
H214 H 0.40578 0.86943 0.92769 0.0
H215 H 0.43434 0.93671 0.94304 0.0
H216 H 0.41498 0.90119 0.07797 0.0
H217 H 0.43221 0.93779 0.03176 0.0
H218 H 0.5357 0.951 0.10128 0.0
H219 H 0.55223 0.98881 0.0562 0.0
H220 H 0.57767 0.18163 0.00529 0.0
H221 H 0.53213 0.11636 0.98825 0.0
H222 H 0.65681 0.1449 0.03463 0.0
H223 H 0.61047 0.08001 0.01923 0.0
H224 H 0.62117 0.12747 0.90449 0.0
H225 H 0.59987 0.0867 0.94823 0.0
H226 H 0.50296 0.08874 0.87937 0.0
H227 H 0.48175 0.04837 0.92373 0.0
N228 N 0.50326 1.00165 0.96134 0.0
N229 N 0.52833 0.02831 0.01807 0.0
C230 C 0.50868 0.64847 0.17638 0.0
C231 C 0.47672 0.63811 0.19466 0.0
C232 C 0.51914 0.62172 0.16796 0.0
C233 C 0.49805 0.58414 0.17777 0.0
C234 C 0.4559 0.60034 0.20461 0.0
C235 C 0.46678 0.57377 0.19655 0.0
C236 C 0.50897 0.55586 0.16872 0.0
C237 C 0.45663 0.58018 0.0882 0.0
C238 C 0.47518 0.58539 0.0605 0.0
C239 C 0.46718 0.56656 0.11312 0.0
C240 C 0.49856 0.56039 0.11205 0.0
C241 C 0.50516 0.57694 0.05912 0.0
C242 C 0.51705 0.56538 0.08453 0.0
C243 C 0.51137 0.54673 0.13842 0.0
C244 C 0.58558 0.4469 0.14943 0.0
C245 C 0.6061 0.45932 0.12253 0.0
C246 C 0.56322 0.46221 0.15961 0.0
C247 C 0.56244 0.49183 0.14404 0.0
C248 C 0.60259 0.48672 0.10589 0.0
C249 C 0.58181 0.50313 0.11671 0.0
C250 C 0.54126 0.51118 0.15445 0.0
C251 C 0.60272 0.51088 0.24224 0.0
C252 C 0.57621 0.48663 0.26334 0.0
C253 C 0.59002 0.52067 0.21619 0.0
C254 C 0.55063 0.50642 0.21085 0.0
C255 C 0.53678 0.47216 0.25769 0.0
C256 C 0.52417 0.48229 0.23185 0.0
C257 C 0.53685 0.51879 0.18479 0.0
H258 H 0.52604 0.67739 0.16886 0.0
H259 H 0.54382 0.63039 0.15386 0.0
H260 H 0.43084 0.59108 0.21834 0.0
H261 H 0.45026 0.54487 0.2044 0.0
H262 H 0.43371 0.58637 0.09118 0.0
H263 H 0.45016 0.56056 0.133 0.0
H264 H 0.51952 0.57856 0.03841 0.0
H265 H 0.54075 0.56002 0.08243 0.0
H266 H 0.58708 0.42576 0.16306 0.0
H267 H 0.54668 0.45059 0.17958 0.0
H268 H 0.61606 0.49599 0.08438 0.0
H269 H 0.5813 0.52516 0.10351 0.0
H270 H 0.63326 0.52236 0.24594 0.0
H271 H 0.61092 0.53979 0.20044 0.0
H272 H 0.51573 0.45387 0.2737 0.0
H273 H 0.49369 0.47145 0.22831 0.0
N274 N 0.52097 0.54087 0.19062 0.0
N275 N 0.52767 0.52507 0.13282 0.0
Mn276 Mn 0.62597 0.39418 0.41867 0.0
Mn277 Mn 0.67094 0.48848 0.43419 0.0
C278 C 0.59979 0.41829 0.45231 0.0
C279 C 0.61619 0.33349 0.42829 0.0
C280 C 0.62549 0.45319 0.37641 0.0
O281 O 0.68007 0.41295 0.40332 0.0
O282 O 0.70795 0.47481 0.4172 0.0
C283 C 0.72224 0.49093 0.48347 0.0
N284 N 0.69431 0.4979 0.47329 0.0
C285 C 0.69158 0.52399 0.52128 0.0
C286 C 0.72049 0.5173 0.53224 0.0
C287 C 0.73581 0.50061 0.51327 0.0
C288 C 0.67919 0.51372 0.4914 0.0
H289 H 0.73401 0.47802 0.46897 0.0
C290 C 0.70916 0.44652 0.40541 0.0
O291 O 0.60758 0.34184 0.40233 0.0
O292 O 0.63164 0.36074 0.44826 0.0
N293 N 0.63855 0.50568 0.45089 0.0
C294 C 0.61002 0.50913 0.43711 0.0
C295 C 0.5913 0.52488 0.45314 0.0
C296 C 0.60234 0.53721 0.48304 0.0
C297 C 0.63215 0.53386 0.4966 0.0
C298 C 0.64991 0.51817 0.47945 0.0
H299 H 0.6015 0.49981 0.4141 0.0
O300 O 0.57827 0.38549 0.43921 0.0
O301 O 0.63584 0.43581 0.44536 0.0
O302 O 0.61427 0.41866 0.38293 0.0
O303 O 0.64704 0.48134 0.39381 0.0
C304 C 0.64465 0.54508 0.52655 0.0
C305 C 0.67423 0.53999 0.53893 0.0
H306 H 0.73097 0.52465 0.55523 0.0
H307 H 0.758 0.4952 0.52161 0.0
H308 H 0.56835 0.52742 0.4425 0.0
H309 H 0.58762 0.54905 0.49541 0.0
H310 H 0.63137 0.55719 0.54039 0.0
H311 H 0.6832 0.54822 0.56212 0.0
Mn312 Mn 0.24595 0.6497 0.57264 0.0
Mn313 Mn 0.19677 0.55561 0.5565 0.0
C314 C 0.19555 0.62515 0.53801 0.0
C315 C 0.2962 0.71072 0.56276 0.0
C316 C 0.18532 0.58987 0.61345 0.0
O317 O 0.282 0.63187 0.58882 0.0
O318 O 0.24717 0.56978 0.57556 0.0
C319 C 0.24771 0.55474 0.50952 0.0
N320 N 0.21223 0.54712 0.51819 0.0
C321 C 0.18506 0.52182 0.46919 0.0
C322 C 0.22126 0.52919 0.45978 0.0
C323 C 0.25274 0.54581 0.48002 0.0
C324 C 0.18182 0.53141 0.49884 0.0
H325 H 0.27198 0.56759 0.52499 0.0
C326 C 0.27702 0.59823 0.5875 0.0
O327 O 0.27992 0.70256 0.58875 0.0
O328 O 0.2845 0.68308 0.54327 0.0
N329 N 0.14747 0.53794 0.53779 0.0
C330 C 0.11471 0.53346 0.55025 0.0
C331 C 0.08054 0.51722 0.53296 0.0
C332 C 0.08033 0.50548 0.50319 0.0
C333 C 0.11434 0.51012 0.49093 0.0
C334 C 0.14743 0.52617 0.50932 0.0
H335 H 0.11465 0.54221 0.57319 0.0
O336 O 0.20641 0.65761 0.55129 0.0
O337 O 0.21439 0.60814 0.54549 0.0
O338 O 0.20961 0.62453 0.60784 0.0
O339 O 0.17858 0.56211 0.59582 0.0
C340 C 0.11676 0.49961 0.46116 0.0
C341 C 0.15215 0.50568 0.45024 0.0
H342 H 0.22527 0.52239 0.43704 0.0
H343 H 0.2808 0.55173 0.47289 0.0
H344 H 0.05441 0.51371 0.54258 0.0
H345 H 0.0539 0.49296 0.48996 0.0
H346 H 0.09166 0.48709 0.4464 0.0
H347 H 0.15374 0.49791 0.42721 0.0
Mn348 Mn 0.61544 0.26045 0.73859 0.0
Mn349 Mn 0.6585 0.20952 0.72263 0.0
C350 C 0.58731 0.21035 0.70431 0.0
C351 C 0.60792 0.3127 0.72852 0.0
C352 C 0.61483 0.20038 0.78004 0.0
O353 O 0.6701 0.29446 0.75463 0.0
O354 O 0.69692 0.25997 0.73979 0.0
C355 C 0.70793 0.25678 0.67369 0.0
N356 N 0.6801 0.22245 0.68363 0.0
C357 C 0.67483 0.19276 0.63547 0.0
C358 C 0.70358 0.22775 0.62476 0.0
C359 C 0.72011 0.25992 0.64393 0.0
C360 C 0.66377 0.1914 0.6653 0.0
H361 H 0.72067 0.28159 0.68835 0.0
C362 C 0.69901 0.28972 0.7519 0.0
O363 O 0.59904 0.29631 0.75443 0.0
O364 O 0.62194 0.29931 0.70905 0.0
N365 N 0.62477 0.16014 0.70557 0.0
C366 C 0.59672 0.12876 0.71918 0.0
C367 C 0.57723 0.09414 0.70305 0.0
C368 C 0.587 0.09206 0.67323 0.0
C369 C 0.61613 0.12467 0.65976 0.0
C370 C 0.63475 0.15831 0.67702 0.0
H371 H 0.5893 0.1301 0.74217 0.0
O372 O 0.56673 0.22259 0.71723 0.0
O373 O 0.62353 0.22792 0.71177 0.0
O374 O 0.60376 0.22415 0.77389 0.0
O375 O 0.63608 0.19377 0.76278 0.0
C376 C 0.62734 0.12518 0.62986 0.0
C377 C 0.65647 0.15926 0.61766 0.0
H378 H 0.71305 0.23029 0.60182 0.0
H379 H 0.7422 0.28706 0.6358 0.0
H380 H 0.5548 0.06909 0.71359 0.0
H381 H 0.57193 0.06527 0.66091 0.0
H382 H 0.61356 0.09961 0.61596 0.0
H383 H 0.66447 0.1594 0.59453 0.0
Mn384 Mn 0.3943 0.64575 0.91675 0.0
Mn385 Mn 0.35399 0.55213 0.93091 0.0
C386 C 0.42202 0.62543 0.95247 0.0
C387 C 0.39826 0.7042 0.92597 0.0
C388 C 0.3988 0.58878 0.87462 0.0
O389 O 0.34042 0.62306 0.89849 0.0
O390 O 0.31406 0.56263 0.91448 0.0
C391 C 0.30167 0.54451 0.97987 0.0
N392 N 0.33105 0.54029 0.96948 0.0
C393 C 0.33542 0.51255 0.01581 0.0
C394 C 0.30494 0.51625 0.02689 0.0
C395 C 0.28808 0.53241 0.00887 0.0
C396 C 0.34749 0.52478 0.98663 0.0
H397 H 0.28881 0.55711 0.96614 0.0
C398 C 0.31182 0.58961 0.90159 0.0
O399 O 0.40923 0.6969 0.90072 0.0
O400 O 0.38418 0.67725 0.94545 0.0
N401 N 0.38973 0.53863 0.94729 0.0
C402 C 0.42124 0.54068 0.9344 0.0
C403 C 0.44293 0.52788 0.95023 0.0
C404 C 0.43189 0.51292 0.97904 0.0
C405 C 0.39925 0.51095 0.99178 0.0
C406 C 0.37866 0.52399 0.97489 0.0
H407 H 0.4299 0.55221 0.9123 0.0
O408 O 0.44223 0.65831 0.94012 0.0
O409 O 0.38636 0.60554 0.94346 0.0
O410 O 0.40988 0.62316 0.88213 0.0
O411 O 0.37698 0.56051 0.8908 0.0
C412 C 0.38699 0.49758 0.02092 0.0
C413 C 0.35506 0.49832 0.03291 0.0
H414 H 0.29461 0.50729 0.04936 0.0
H415 H 0.26476 0.53563 0.01736 0.0
H416 H 0.46818 0.52964 0.9403 0.0
H417 H 0.44892 0.50344 0.9913 0.0
H418 H 0.40241 0.48741 0.03454 0.0
H419 H 0.3464 0.4887 0.05556 0.0
Mn420 Mn 0.76447 0.40104 0.07951 0.0
Mn421 Mn 0.81428 0.35717 0.097 0.0
C422 C 0.81375 0.42803 0.1149 0.0
C423 C 0.71215 0.40939 0.08722 0.0
C424 C 0.82467 0.40041 0.03928 0.0
O425 O 0.73091 0.34741 0.06215 0.0
O426 O 0.76263 0.31912 0.08089 0.0
C427 C 0.76755 0.31063 0.14732 0.0
N428 N 0.80213 0.33723 0.13655 0.0
C429 C 0.83327 0.34387 0.18451 0.0
C430 C 0.79808 0.31618 0.19601 0.0
C431 C 0.76505 0.2996 0.17736 0.0
C432 C 0.834 0.35366 0.15439 0.0
H433 H 0.74205 0.29808 0.13313 0.0
C434 C 0.73402 0.31807 0.06692 0.0
O435 O 0.73051 0.41878 0.06215 0.0
O436 O 0.72326 0.39393 0.10737 0.0
N437 N 0.86467 0.39084 0.11321 0.0
C438 C 0.896 0.41834 0.09905 0.0
C439 C 0.93122 0.43841 0.11483 0.0
C440 C 0.93396 0.42979 0.1449 0.0
C441 C 0.90146 0.40107 0.15888 0.0
C442 C 0.8672 0.38185 0.14196 0.0
H443 H 0.89414 0.42503 0.07592 0.0
O444 O 0.80175 0.44868 0.10185 0.0
O445 O 0.79606 0.39224 0.10724 0.0
O446 O 0.8026 0.41345 0.04577 0.0
O447 O 0.8295 0.37774 0.05613 0.0
C448 C 0.90159 0.3911 0.18906 0.0
C449 C 0.8675 0.3626 0.20189 0.0
H450 H 0.79601 0.30771 0.2192 0.0
H451 H 0.73772 0.27845 0.18614 0.0
H452 H 0.95618 0.46052 0.10387 0.0
H453 H 0.96109 0.44555 0.15707 0.0
H454 H 0.92763 0.40557 0.20273 0.0
H455 H 0.86783 0.35562 0.22526 0.0
Mn456 Mn 0.38443 0.77858 0.24723 0.0
Mn457 Mn 0.47993 0.83252 0.26136 0.0
C458 C 0.40735 0.82843 0.28158 0.0
C459 C 0.32428 0.72644 0.25723 0.0
C460 C 0.44102 0.84032 0.20534 0.0
O461 O 0.40479 0.74516 0.23149 0.0
O462 O 0.46812 0.78311 0.24221 0.0
C463 C 0.48837 0.78487 0.30733 0.0
N464 N 0.49291 0.81901 0.2989 0.0
C465 C 0.52258 0.84793 0.34651 0.0
C466 C 0.51849 0.81314 0.35562 0.0
C467 C 0.50124 0.78147 0.33596 0.0
C468 C 0.50957 0.84971 0.3176 0.0
H469 H 0.47503 0.76042 0.29234 0.0
C470 C 0.43948 0.75225 0.23179 0.0
O471 O 0.33167 0.74277 0.23132 0.0
O472 O 0.35224 0.73955 0.27689 0.0
N473 N 0.49533 0.8807 0.28027 0.0
C474 C 0.49357 0.91098 0.2692 0.0
C475 C 0.50785 0.94443 0.28671 0.0
C476 C 0.52389 0.94647 0.31533 0.0
C477 C 0.52542 0.91496 0.32623 0.0
C478 C 0.51097 0.88245 0.30769 0.0
H479 H 0.48089 0.90942 0.24737 0.0
O480 O 0.37417 0.81601 0.2683 0.0
O481 O 0.42653 0.81172 0.27401 0.0
O482 O 0.40705 0.81404 0.21126 0.0
O483 O 0.47 0.84953 0.22266 0.0
C484 C 0.53956 0.9141 0.35514 0.0
C485 C 0.53815 0.88061 0.36527 0.0
H486 H 0.52809 0.81031 0.37778 0.0
H487 H 0.49777 0.75447 0.34289 0.0
H488 H 0.50628 0.96852 0.27824 0.0
H489 H 0.53445 0.97216 0.3289 0.0
H490 H 0.55083 0.93877 0.36999 0.0
H491 H 0.54845 0.88008 0.38774 0.0
C492 C 0.21687 0.65912 0.25201 0.0
C493 C 0.2083 0.64674 0.28176 0.0
H494 H 0.26017 0.69368 0.22085 0.0
C495 C 0.23874 0.65815 0.30268 0.0
H496 H 0.19417 0.65027 0.23519 0.0
C497 C 0.27667 0.68281 0.29437 0.0
C498 C 0.28495 0.69659 0.26497 0.0
H499 H 0.23316 0.64934 0.32581 0.0
H500 H 0.29933 0.69214 0.31129 0.0
C501 C 0.25474 0.68381 0.24372 0.0
C502 C 0.59718 0.24688 0.47291 0.0
C503 C 0.57863 0.2174 0.45137 0.0
H504 H 0.62377 0.30664 0.48249 0.0
C505 C 0.57545 0.22694 0.42159 0.0
H506 H 0.59987 0.24061 0.49608 0.0
C507 C 0.58887 0.26479 0.41385 0.0
C508 C 0.60598 0.29404 0.43565 0.0
H509 H 0.56202 0.20506 0.40428 0.0
H510 H 0.58501 0.27098 0.3909 0.0
C511 C 0.61074 0.28477 0.46513 0.0
C512 C 0.37331 0.61115 0.61404 0.0
C513 C 0.3633 0.57332 0.62 0.0
H514 H 0.35384 0.64895 0.59904 0.0
C515 C 0.32454 0.54475 0.61725 0.0
H516 H 0.40295 0.63381 0.6159 0.0
C517 C 0.29677 0.55328 0.60735 0.0
C518 C 0.30679 0.59073 0.60022 0.0
H519 H 0.3156 0.51551 0.62246 0.0
H520 H 0.26732 0.53024 0.60506 0.0
C521 C 0.34524 0.61981 0.60431 0.0
C522 C 0.78031 0.38421 0.78239 0.0
C523 C 0.81088 0.37677 0.78374 0.0
H524 H 0.72066 0.36239 0.77159 0.0
C525 C 0.80441 0.34091 0.77437 0.0
H526 H 0.78453 0.41161 0.78958 0.0
C527 C 0.76818 0.31292 0.7641 0.0
C528 C 0.7373 0.31994 0.76302 0.0
H529 H 0.82756 0.33454 0.77472 0.0
H530 H 0.76446 0.28564 0.75709 0.0
C531 C 0.74375 0.35596 0.77227 0.0
C532 C 0.41164 0.78928 0.97113 0.0
C533 C 0.42454 0.8176 0.94935 0.0
H534 H 0.39255 0.73108 0.98067 0.0
C535 C 0.42557 0.8077 0.91924 0.0
H536 H 0.4105 0.79626 0.99448 0.0
C537 C 0.41581 0.77043 0.91132 0.0
C538 C 0.40433 0.74242 0.93335 0.0
H539 H 0.43567 0.82916 0.9021 0.0
H540 H 0.41826 0.76383 0.88814 0.0
C541 C 0.40134 0.752 0.96318 0.0
C542 C 0.66407 0.46804 0.09452 0.0
C543 C 0.63192 0.44496 0.11213 0.0
H544 H 0.71353 0.47415 0.07208 0.0
C545 C 0.6256 0.40876 0.12014 0.0
H546 H 0.67121 0.49657 0.08858 0.0
C547 C 0.65131 0.39674 0.11166 0.0
C548 C 0.683 0.41998 0.09405 0.0
H549 H 0.60096 0.38959 0.13304 0.0
H550 H 0.64641 0.36925 0.11882 0.0
C551 C 0.68876 0.45537 0.08512 0.0
C552 C 0.36301 0.81765 0.56716 0.0
C553 C 0.37149 0.82629 0.53674 0.0
H554 H 0.33232 0.77421 0.59936 0.0
C555 C 0.35686 0.79649 0.51538 0.0
H556 H 0.37384 0.84014 0.58408 0.0
C557 C 0.33365 0.75886 0.52412 0.0
C558 C 0.32408 0.75023 0.5544 0.0
H559 H 0.36331 0.80231 0.49184 0.0
H560 H 0.32235 0.73664 0.50697 0.0
C561 C 0.33926 0.77996 0.57589 0.0
C562 C 0.57735 0.38724 0.73306 0.0
C563 C 0.57907 0.39732 0.70279 0.0
H564 H 0.58486 0.35214 0.76506 0.0
C565 C 0.59269 0.38132 0.68165 0.0
H566 H 0.56673 0.39906 0.74976 0.0
C567 C 0.60334 0.35491 0.69037 0.0
C568 C 0.60014 0.34351 0.72039 0.0
H569 H 0.59457 0.38885 0.65822 0.0
H570 H 0.613 0.3426 0.67332 0.0
C571 C 0.58754 0.36031 0.74177 0.0
C572 C 0.2041 0.5432 0.89234 0.0
C573 C 0.20001 0.56314 0.86824 0.0
H574 H 0.24226 0.5356 0.92136 0.0
C575 C 0.23335 0.59299 0.85574 0.0
H576 H 0.17923 0.52087 0.90325 0.0
C577 C 0.26982 0.60218 0.86683 0.0
C578 C 0.27362 0.58131 0.89029 0.0
H579 H 0.23138 0.60878 0.83703 0.0
H580 H 0.295 0.625 0.85658 0.0
C581 C 0.24036 0.55186 0.90296 0.0
C582 C 0.66926 0.2117 0.0605 0.0
C583 C 0.64796 0.2074 0.034 0.0
H584 H 0.71307 0.24969 0.09133 0.0
C585 C 0.65359 0.24031 0.01928 0.0
H586 H 0.66489 0.18722 0.0731 0.0
C587 C 0.68073 0.27654 0.0304 0.0
C588 C 0.70309 0.28044 0.05612 0.0
H589 H 0.63787 0.23813 0.99875 0.0
H590 H 0.68512 0.30138 0.01831 0.0
C591 C 0.69674 0.24765 0.07118 0.0
C592 C 0.47026 0.6956 0.18392 0.0
C593 C 0.46564 0.66672 0.20367 0.0
H594 H 0.46567 0.74561 0.17756 0.0
C595 C 0.451 0.66589 0.23237 0.0
H596 H 0.48075 0.69684 0.16148 0.0
C597 C 0.44155 0.69328 0.24113 0.0
C598 C 0.44697 0.72224 0.22155 0.0
H599 H 0.44766 0.64465 0.24843 0.0
H600 H 0.43082 0.69235 0.26346 0.0
C601 C 0.46131 0.72331 0.19291 0.0
C602 C 0.78856 0.4325 0.37308 0.0
C603 C 0.81744 0.47035 0.36856 0.0
H604 H 0.73128 0.39502 0.38801 0.0
C605 C 0.81057 0.49988 0.37657 0.0
H606 H 0.79316 0.4092 0.36706 0.0
C607 C 0.77561 0.49192 0.3887 0.0
C608 C 0.74635 0.45412 0.39296 0.0
H609 H 0.83249 0.52934 0.37379 0.0
H610 H 0.77151 0.51559 0.39451 0.0
C611 C 0.75316 0.42442 0.38496 0.0
C612 C 0.11312 0.60136 0.48399 0.0
C613 C 0.12842 0.59769 0.45685 0.0
H614 H 0.12304 0.61375 0.53135 0.0
C615 C 0.16579 0.60338 0.45657 0.0
H616 H 0.08431 0.59713 0.48454 0.0
C617 C 0.18732 0.6118 0.48323 0.0
C618 C 0.17186 0.61493 0.51045 0.0
H619 H 0.17799 0.60055 0.43583 0.0
H620 H 0.21609 0.6159 0.48262 0.0
C621 C 0.13507 0.61071 0.5106 0.0
C622 C 0.57577 0.1784 0.62346 0.0
C623 C 0.54386 0.14161 0.62451 0.0
H624 H 0.61497 0.22874 0.64849 0.0
C625 C 0.52579 0.12754 0.65198 0.0
H626 H 0.5902 0.18965 0.60251 0.0
C627 C 0.53957 0.15006 0.67812 0.0
C628 C 0.57244 0.18621 0.67721 0.0
H629 H 0.50108 0.09918 0.65316 0.0
H630 H 0.52525 0.13894 0.69912 0.0
C631 C 0.59006 0.20049 0.64968 0.0
C632 C 0.45157 0.60238 0.80152 0.0
C633 C 0.43449 0.56483 0.79028 0.0
H634 H 0.45362 0.63955 0.83684 0.0
C635 C 0.40577 0.5354 0.80695 0.0
H636 H 0.47366 0.62566 0.78906 0.0
C637 C 0.39445 0.54325 0.83432 0.0
C638 C 0.41135 0.5808 0.84562 0.0
H639 H 0.39243 0.50613 0.79906 0.0
H640 H 0.37228 0.51975 0.84655 0.0
C641 C 0.43998 0.61032 0.82883 0.0
C642 C 0.872 0.45692 0.96975 0.0
C643 C 0.88903 0.43685 0.95769 0.0
H644 H 0.83836 0.46118 0.00476 0.0
C645 C 0.88405 0.40428 0.97254 0.0
H646 H 0.8757 0.48248 0.95931 0.0
C647 C 0.8632 0.39248 0.99896 0.0
C648 C 0.8463 0.41261 0.01101 0.0
H649 H 0.89604 0.38763 0.96367 0.0
H650 H 0.86009 0.36736 0.00982 0.0
C651 C 0.85073 0.44482 0.99597 0.0
C652 C 0.48724 0.91857 0.14846 0.0
C653 C 0.46394 0.90206 0.12262 0.0
H654 H 0.49862 0.91209 0.19429 0.0
C655 C 0.43171 0.86526 0.1247 0.0
H656 H 0.51158 0.9472 0.14826 0.0
C657 C 0.42353 0.84542 0.15172 0.0
C658 C 0.44775 0.86165 0.1771 0.0
H659 H 0.41324 0.85132 0.10532 0.0
H660 H 0.39889 0.81697 0.15249 0.0
C661 C 0.47956 0.8985 0.17512 0.0
C662 C 0.5715 0.44028 0.30249 0.0
C663 C 0.58957 0.47764 0.29176 0.0
H664 H 0.56875 0.4031 0.33741 0.0
C665 C 0.61974 0.5067 0.30888 0.0
H666 H 0.54829 0.41725 0.2897 0.0
C667 C 0.63127 0.49872 0.3363 0.0
C668 C 0.61319 0.46136 0.34715 0.0
H669 H 0.63394 0.53583 0.30138 0.0
H670 H 0.65444 0.52193 0.34897 0.0
C671 C 0.58333 0.43217 0.32978 0.0
C672 C 0.43942 0.86626 0.36057 0.0
C673 C 0.43343 0.89772 0.36189 0.0
H674 H 0.43384 0.81886 0.33493 0.0
C675 C 0.41717 0.90474 0.33605 0.0
H676 H 0.45174 0.85877 0.37906 0.0
C677 C 0.40943 0.88276 0.30979 0.0
C678 C 0.41694 0.85268 0.3087 0.0
H679 H 0.40973 0.92683 0.33562 0.0
H680 H 0.39751 0.88928 0.29031 0.0
C681 C 0.43017 0.84352 0.33469 0.0
C682 C 0.54014 0.44347 0.5021 0.0
C683 C 0.55891 0.44904 0.53023 0.0
H684 H 0.53822 0.42891 0.45536 0.0
C685 C 0.5907 0.44338 0.53219 0.0
H686 H 0.51594 0.44798 0.4994 0.0
C687 C 0.60405 0.43376 0.50669 0.0
C688 C 0.58578 0.42922 0.47873 0.0
H689 H 0.60532 0.44621 0.55343 0.0
H690 H 0.62867 0.42975 0.50884 0.0
C691 C 0.55305 0.43295 0.47672 0.0
C692 C 0.12038 0.53385 0.67704 0.0
C693 C 0.12179 0.56265 0.69561 0.0
H694 H 0.13894 0.5197 0.63677 0.0
C695 C 0.14418 0.60074 0.68695 0.0
H696 H 0.10298 0.5042 0.68286 0.0
C697 C 0.16504 0.60978 0.66039 0.0
C698 C 0.16361 0.58088 0.64179 0.0
H699 H 0.14597 0.62357 0.70091 0.0
H700 H 0.18214 0.6394 0.65441 0.0
C701 C 0.14089 0.5428 0.65046 0.0
C702 C 0.56071 0.15689 0.85181 0.0
C703 C 0.57689 0.13477 0.86097 0.0
H704 H 0.5602 0.19534 0.81936 0.0
C705 C 0.60579 0.13486 0.84353 0.0
H706 H 0.53857 0.15761 0.8649 0.0
C707 C 0.61812 0.15632 0.81752 0.0
C708 C 0.60207 0.17853 0.80826 0.0
H709 H 0.61851 0.11778 0.84973 0.0
H710 H 0.64026 0.15534 0.80462 0.0
C711 C 0.5733 0.17869 0.82582 0.0
C712 C 0.42601 0.59499 0.03134 0.0
C713 C 0.4626 0.59816 0.03312 0.0
H714 H 0.38561 0.60275 0.00504 0.0
C715 C 0.48665 0.61314 0.00807 0.0
H716 H 0.40588 0.58372 0.04937 0.0
C717 C 0.47354 0.6219 0.98174 0.0
C718 C 0.43638 0.6165 0.97994 0.0
H719 H 0.51576 0.61833 0.00841 0.0
H720 H 0.49228 0.63246 0.96267 0.0
C721 C 0.41362 0.60498 0.00541 0.0
C722 C 0.84829 0.44103 0.19521 0.0
C723 C 0.88577 0.47244 0.19361 0.0
H724 H 0.79651 0.4021 0.17121 0.0
C725 C 0.89898 0.48945 0.16556 0.0
H726 H 0.83654 0.42777 0.21639 0.0
C727 C 0.87543 0.47522 0.13986 0.0
C728 C 0.83893 0.44294 0.14155 0.0
H729 H 0.92776 0.51329 0.16321 0.0
H730 H 0.88612 0.48875 0.11853 0.0
C731 C 0.82522 0.42635 0.1694 0.0
loop_
_geom_bond_atom_site_label_1
_geom_bond_atom_site_label_2
_geom_bond_distance
_geom_bond_site_symmetry_2
_ccdc_geom_bond_type
C0 C1 1.384 . S
C0 C2 1.384 . S
C0 H28 0.931 . S
C1 C0 1.384 . S
C1 C4 1.382 . S
C2 C0 1.384 . S
C2 C3 1.381 . S
C2 H29 0.930 . S
C3 C2 1.381 . S
C3 C5 1.381 . S
C3 C6 1.487 . S
C4 C1 1.382 . S
C4 C5 1.387 . S
C4 H30 0.930 . S
C5 C3 1.381 . S
C5 C4 1.387 . S
C5 H31 0.931 . S
C6 C3 1.487 . S
C6 C13 1.399 . S
C6 N44 1.343 . S
C7 C8 1.384 . S
C7 C9 1.384 . S
C7 H32 0.931 . S
C8 C7 1.384 . S
C8 C11 1.382 . S
C9 C7 1.384 . S
C9 C10 1.381 . S
C9 H33 0.930 . S
C10 C9 1.381 . S
C10 C12 1.381 . S
C10 C13 1.487 . S
C11 C8 1.382 . S
C11 C12 1.387 . S
C11 H34 0.930 . S
C12 C10 1.381 . S
C12 C11 1.387 . S
C12 H35 0.931 . S
C13 C6 1.399 . S
C13 C10 1.487 . S
C13 N45 1.343 1_655 S
C14 C15 1.384 . S
C14 C16 1.384 . S
C14 H36 0.931 . S
C15 C14 1.384 . S
C15 C18 1.382 . S
C16 C14 1.384 . S
C16 C17 1.381 . S
C16 H37 0.930 . S
C17 C16 1.381 . S
C17 C19 1.381 . S
C17 C20 1.487 . S
C18 C15 1.382 . S
C18 C19 1.387 . S
C18 H38 0.930 . S
C19 C17 1.381 . S
C19 C18 1.387 . S
C19 H39 0.931 . S
C20 C17 1.487 . S
C20 C27 1.399 . S
C20 N45 1.343 . S
C21 C22 1.384 . S
C21 C23 1.384 . S
C21 H40 0.931 . S
C22 C21 1.384 . S
C22 C25 1.382 . S
C23 C21 1.384 . S
C23 C24 1.381 . S
C23 H41 0.930 . S
C24 C23 1.381 . S
C24 C26 1.381 . S
C24 C27 1.487 . S
C25 C22 1.382 . S
C25 C26 1.387 . S
C25 H42 0.930 . S
C26 C24 1.381 . S
C26 C25 1.387 . S
C26 H43 0.931 . S
C27 C20 1.399 . S
C27 C24 1.487 . S
C27 N44 1.343 1_455 S
H28 C0 0.931 . S
H29 C2 0.930 . S
H30 C4 0.930 . S
H31 C5 0.931 . S
H32 C7 0.931 . S
H33 C9 0.930 . S
H34 C11 0.930 . S
H35 C12 0.931 . S
H36 C14 0.931 . S
H37 C16 0.930 . S
H38 C18 0.930 . S
H39 C19 0.931 . S
H40 C21 0.931 . S
H41 C23 0.930 . S
H42 C25 0.930 . S
H43 C26 0.931 . S
N44 C6 1.343 . S
N44 C27 1.343 1_655 S
N45 C13 1.343 1_455 S
N45 C20 1.343 . S
C46 C47 1.384 . S
C46 C48 1.384 . S
C46 H74 0.931 . S
C47 C46 1.384 . S
C47 C50 1.382 . S
C48 C46 1.384 . S
C48 C49 1.381 . S
C48 H75 0.930 . S
C49 C48 1.381 . S
C49 C51 1.381 . S
C49 C52 1.487 . S
C50 C47 1.382 . S
C50 C51 1.387 . S
C50 H76 0.930 . S
C51 C49 1.381 . S
C51 C50 1.387 . S
C51 H77 0.931 . S
C52 C49 1.487 . S
C52 C59 1.399 . S
C52 N90 1.343 1_565 S
C53 C54 1.384 . S
C53 C55 1.384 . S
C53 H78 0.931 . S
C54 C53 1.384 . S
C54 C57 1.382 . S
C55 C53 1.384 . S
C55 C56 1.381 . S
C55 H79 0.930 . S
C56 C55 1.381 . S
C56 C58 1.381 . S
C56 C59 1.487 . S
C57 C54 1.382 . S
C57 C58 1.387 . S
C57 H80 0.930 . S
C58 C56 1.381 . S
C58 C57 1.387 . S
C58 H81 0.931 . S
C59 C52 1.399 . S
C59 C56 1.487 . S
C59 N91 1.343 1_565 S
C60 C61 1.384 . S
C60 C62 1.384 . S
C60 H82 0.931 . S
C61 C60 1.384 . S
C61 C64 1.382 . S
C62 C60 1.384 . S
C62 C63 1.381 . S
C62 H83 0.930 . S
C63 C62 1.381 . S
C63 C65 1.381 . S
C63 C66 1.487 . S
C64 C61 1.382 . S
C64 C65 1.387 . S
C64 H84 0.930 . S
C65 C63 1.381 . S
C65 C64 1.387 . S
C65 H85 0.931 . S
C66 C63 1.487 . S
C66 C73 1.399 . S
C66 N91 1.343 . S
C67 C68 1.384 . S
C67 C69 1.384 . S
C67 H86 0.931 . S
C68 C67 1.384 . S
C68 C71 1.382 . S
C69 C67 1.384 . S
C69 C70 1.381 . S
C69 H87 0.930 . S
C70 C69 1.381 . S
C70 C72 1.381 . S
C70 C73 1.487 . S
C71 C68 1.382 . S
C71 C72 1.387 . S
C71 H88 0.930 . S
C72 C70 1.381 . S
C72 C71 1.387 . S
C72 H89 0.931 . S
C73 C66 1.399 . S
C73 C70 1.487 . S
C73 N90 1.343 . S
H74 C46 0.931 . S
H75 C48 0.930 . S
H76 C50 0.930 . S
H77 C51 0.931 . S
H78 C53 0.931 . S
H79 C55 0.930 . S
H80 C57 0.930 . S
H81 C58 0.931 . S
H82 C60 0.931 . S
H83 C62 0.930 . S
H84 C64 0.930 . S
H85 C65 0.931 . S
H86 C67 0.931 . S
H87 C69 0.930 . S
H88 C71 0.930 . S
H89 C72 0.931 . S
N90 C52 1.343 1_545 S
N90 C73 1.343 . S
N91 C59 1.343 1_545 S
N91 C66 1.343 . S
C92 C93 1.384 . S
C92 C94 1.384 . S
C92 H120 0.931 . S
C93 C92 1.384 . S
C93 C96 1.382 . S
C94 C92 1.384 . S
C94 C95 1.381 . S
C94 H121 0.930 . S
C95 C94 1.381 . S
C95 C97 1.381 . S
C95 C98 1.487 . S
C96 C93 1.382 . S
C96 C97 1.387 . S
C96 H122 0.930 . S
C97 C95 1.381 . S
C97 C96 1.387 . S
C97 H123 0.931 . S
C98 C95 1.487 . S
C98 C105 1.399 . S
C98 N136 1.343 . S
C99 C100 1.384 . S
C99 C101 1.384 . S
C99 H124 0.931 . S
C100 C99 1.384 . S
C100 C103 1.382 . S
C101 C99 1.384 . S
C101 C102 1.381 . S
C101 H125 0.930 . S
C102 C101 1.381 . S
C102 C104 1.381 . S
C102 C105 1.487 . S
C103 C100 1.382 . S
C103 C104 1.387 . S
C103 H126 0.930 . S
C104 C102 1.381 . S
C104 C103 1.387 . S
C104 H127 0.931 . S
C105 C98 1.399 . S
C105 C102 1.487 . S
C105 N137 1.343 . S
C106 C107 1.384 . S
C106 C108 1.384 . S
C106 H128 0.931 . S
C107 C106 1.384 . S
C107 C110 1.382 . S
C108 C106 1.384 . S
C108 C109 1.381 . S
C108 H129 0.930 . S
C109 C108 1.381 . S
C109 C111 1.381 . S
C109 C112 1.487 . S
C110 C107 1.382 . S
C110 C111 1.387 . S
C110 H130 0.930 . S
C111 C109 1.381 . S
C111 C110 1.387 . S
C111 H131 0.931 . S
C112 C109 1.487 . S
C112 C119 1.399 . S
C112 N137 1.343 . S
C113 C114 1.384 . S
C113 C115 1.384 . S
C113 H132 0.931 . S
C114 C113 1.384 . S
C114 C117 1.382 . S
C115 C113 1.384 . S
C115 C116 1.381 . S
C115 H133 0.930 . S
C116 C115 1.381 . S
C116 C118 1.381 . S
C116 C119 1.487 . S
C117 C114 1.382 . S
C117 C118 1.387 . S
C117 H134 0.930 . S
C118 C116 1.381 . S
C118 C117 1.387 . S
C118 H135 0.931 . S
C119 C112 1.399 . S
C119 C116 1.487 . S
C119 N136 1.343 . S
H120 C92 0.931 . S
H121 C94 0.930 . S
H122 C96 0.930 . S
H123 C97 0.931 . S
H124 C99 0.931 . S
H125 C101 0.930 . S
H126 C103 0.930 . S
H127 C104 0.931 . S
H128 C106 0.931 . S
H129 C108 0.930 . S
H130 C110 0.930 . S
H131 C111 0.931 . S
H132 C113 0.931 . S
H133 C115 0.930 . S
H134 C117 0.930 . S
H135 C118 0.931 . S
N136 C98 1.343 . S
N136 C119 1.343 . S
N137 C105 1.343 . S
N137 C112 1.343 . S
C138 C139 1.384 . S
C138 C140 1.384 . S
C138 H166 0.931 . S
C139 C138 1.384 . S
C139 C142 1.382 . S
C140 C138 1.384 . S
C140 C141 1.381 . S
C140 H167 0.930 . S
C141 C140 1.381 . S
C141 C143 1.381 . S
C141 C144 1.487 . S
C142 C139 1.382 . S
C142 C143 1.387 . S
C142 H168 0.930 . S
C143 C141 1.381 . S
C143 C142 1.387 . S
C143 H169 0.931 . S
C144 C141 1.487 . S
C144 C151 1.399 . S
C144 N182 1.343 . S
C145 C146 1.384 . S
C145 C147 1.384 . S
C145 H170 0.931 . S
C146 C145 1.384 . S
C146 C149 1.382 . S
C147 C145 1.384 . S
C147 C148 1.381 . S
C147 H171 0.930 . S
C148 C147 1.381 . S
C148 C150 1.381 . S
C148 C151 1.487 . S
C149 C146 1.382 . S
C149 C150 1.387 . S
C149 H172 0.930 . S
C150 C148 1.381 . S
C150 C149 1.387 . S
C150 H173 0.931 . S
C151 C144 1.399 . S
C151 C148 1.487 . S
C151 N183 1.343 1_655 S
C152 C153 1.384 . S
C152 C154 1.384 . S
C152 H174 0.931 . S
C153 C152 1.384 . S
C153 C156 1.382 . S
C154 C152 1.384 . S
C154 C155 1.381 . S
C154 H175 0.930 . S
C155 C154 1.381 . S
C155 C157 1.381 . S
C155 C158 1.487 . S
C156 C153 1.382 . S
C156 C157 1.387 . S
C156 H176 0.930 . S
C157 C155 1.381 . S
C157 C156 1.387 . S
C157 H177 0.931 . S
C158 C155 1.487 . S
C158 C165 1.399 . S
C158 N183 1.343 . S
C159 C160 1.384 . S
C159 C161 1.384 . S
C159 H178 0.931 . S
C160 C159 1.384 . S
C160 C163 1.382 . S
C161 C159 1.384 . S
C161 C162 1.381 . S
C161 H179 0.930 . S
C162 C161 1.381 . S
C162 C164 1.381 . S
C162 C165 1.487 . S
C163 C160 1.382 . S
C163 C164 1.387 . S
C163 H180 0.930 . S
C164 C162 1.381 . S
C164 C163 1.387 . S
C164 H181 0.931 . S
C165 C158 1.399 . S
C165 C162 1.487 . S
C165 N182 1.343 1_455 S
H166 C138 0.931 . S
H167 C140 0.930 . S
H168 C142 0.930 . S
H169 C143 0.931 . S
H170 C145 0.931 . S
H171 C147 0.930 . S
H172 C149 0.930 . S
H173 C150 0.931 . S
H174 C152 0.931 . S
H175 C154 0.930 . S
H176 C156 0.930 . S
H177 C157 0.931 . S
H178 C159 0.931 . S
H179 C161 0.930 . S
H180 C163 0.930 . S
H181 C164 0.931 . S
N182 C144 1.343 . S
N182 C165 1.343 1_655 S
N183 C151 1.343 1_455 S
N183 C158 1.343 . S
C184 C185 1.384 . S
C184 C186 1.384 . S
C184 H212 0.931 . S
C185 C184 1.384 . S
C185 C188 1.382 . S
C186 C184 1.384 . S
C186 C187 1.381 . S
C186 H213 0.930 1_556 S
C187 C186 1.381 . S
C187 C189 1.381 . S
C187 C190 1.487 . S
C188 C185 1.382 . S
C188 C189 1.387 . S
C188 H214 0.930 . S
C189 C187 1.381 . S
C189 C188 1.387 . S
C189 H215 0.931 . S
C190 C187 1.487 . S
C190 C197 1.399 1_556 S
C190 N228 1.343 1_565 S
C191 C192 1.384 . S
C191 C193 1.384 . S
C191 H216 0.931 . S
C192 C191 1.384 . S
C192 C195 1.382 . S
C193 C191 1.384 . S
C193 C194 1.381 . S
C193 H217 0.930 . S
C194 C193 1.381 . S
C194 C196 1.381 . S
C194 C197 1.487 . S
C195 C192 1.382 . S
C195 C196 1.387 . S
C195 H218 0.930 . S
C196 C194 1.381 . S
C196 C195 1.387 . S
C196 H219 0.931 . S
C197 C190 1.399 1_554 S
C197 C194 1.487 . S
C197 N229 1.343 1_565 S
C198 C199 1.384 . S
C198 C200 1.372 1_554 S
C198 H220 0.931 . S
C199 C198 1.384 . S
C199 C202 1.382 . S
C200 C198 1.372 1_556 S
C200 C201 1.367 1_556 S
C200 H221 0.957 . S
C201 C200 1.367 1_554 S
C201 C203 1.381 . S
C201 C204 1.496 . S
C202 C199 1.382 . S
C202 C203 1.387 . S
C202 H222 0.930 . S
C203 C201 1.381 . S
C203 C202 1.387 . S
C203 H223 0.931 . S
C204 C201 1.496 . S
C204 C211 1.369 1_554 S
C204 N229 1.368 . S
C205 C206 1.384 . S
C205 C207 1.384 . S
C205 H224 0.931 . S
C206 C205 1.384 . S
C206 C209 1.382 . S
C207 C205 1.384 . S
C207 C208 1.381 . S
C207 H225 0.930 . S
C208 C207 1.381 . S
C208 C210 1.381 . S
C208 C211 1.487 . S
C209 C206 1.382 . S
C209 C210 1.387 . S
C209 H226 0.930 . S
C210 C208 1.381 . S
C210 C209 1.387 . S
C210 H227 0.931 . S
C211 C204 1.369 1_556 S
C211 C208 1.487 . S
C211 N228 1.343 . S
H212 C184 0.931 . S
H213 C186 0.930 1_554 S
H214 C188 0.930 . S
H215 C189 0.931 . S
H216 C191 0.931 . S
H217 C193 0.930 . S
H218 C195 0.930 . S
H219 C196 0.931 . S
H220 C198 0.931 . S
H221 C200 0.957 . S
H222 C202 0.930 . S
H223 C203 0.931 . S
H224 C205 0.931 . S
H225 C207 0.930 . S
H226 C209 0.930 . S
H227 C210 0.931 . S
N228 C190 1.343 1_545 S
N228 C211 1.343 . S
N229 C197 1.343 1_545 S
N229 C204 1.368 . S
C230 C231 1.384 . S
C230 C232 1.384 . S
C230 H258 0.931 . S
C231 C230 1.384 . S
C231 C234 1.382 . S
C232 C230 1.384 . S
C232 C233 1.381 . S
C232 H259 0.930 . S
C233 C232 1.381 . S
C233 C235 1.381 . S
C233 C236 1.487 . S
C234 C231 1.382 . S
C234 C235 1.387 . S
C234 H260 0.930 . S
C235 C233 1.381 . S
C235 C234 1.387 . S
C235 H261 0.931 . S
C236 C233 1.487 . S
C236 C243 1.399 . S
C236 N274 1.343 . S
C237 C238 1.384 . S
C237 C239 1.384 . S
C237 H262 0.931 . S
C238 C237 1.384 . S
C238 C241 1.382 . S
C239 C237 1.384 . S
C239 C240 1.381 . S
C239 H263 0.930 . S
C240 C239 1.381 . S
C240 C242 1.381 . S
C240 C243 1.487 . S
C241 C238 1.382 . S
C241 C242 1.387 . S
C241 H264 0.930 . S
C242 C240 1.381 . S
C242 C241 1.387 . S
C242 H265 0.931 . S
C243 C236 1.399 . S
C243 C240 1.487 . S
C243 N275 1.343 . S
C244 C245 1.384 . S
C244 C246 1.384 . S
C244 H266 0.931 . S
C245 C244 1.384 . S
C245 C248 1.382 . S
C246 C244 1.384 . S
C246 C247 1.381 . S
C246 H267 0.930 . S
C247 C246 1.381 . S
C247 C249 1.381 . S
C247 C250 1.487 . S
C248 C245 1.382 . S
C248 C249 1.387 . S
C248 H268 0.930 . S
C249 C247 1.381 . S
C249 C248 1.387 . S
C249 H269 0.931 . S
C250 C247 1.487 . S
C250 C257 1.399 . S
C250 N275 1.343 . S
C251 C252 1.384 . S
C251 C253 1.384 . S
C251 H270 0.931 . S
C252 C251 1.384 . S
C252 C255 1.382 . S
C253 C251 1.384 . S
C253 C254 1.381 . S
C253 H271 0.930 . S
C254 C253 1.381 . S
C254 C256 1.381 . S
C254 C257 1.487 . S
C255 C252 1.382 . S
C255 C256 1.387 . S
C255 H272 0.930 . S
C256 C254 1.381 . S
C256 C255 1.387 . S
C256 H273 0.931 . S
C257 C250 1.399 . S
C257 C254 1.487 . S
C257 N274 1.343 . S
H258 C230 0.931 . S
H259 C232 0.930 . S
H260 C234 0.930 . S
H261 C235 0.931 . S
H262 C237 0.931 . S
H263 C239 0.930 . S
H264 C241 0.930 . S
H265 C242 0.931 . S
H266 C244 0.931 . S
H267 C246 0.930 . S
H268 C248 0.930 . S
H269 C249 0.931 . S
H270 C251 0.931 . S
H271 C253 0.930 . S
H272 C255 0.930 . S
H273 C256 0.931 . S
N274 C236 1.343 . S
N274 C257 1.343 . S
N275 C243 1.343 . S
N275 C250 1.343 . S
Mn276 O281 2.095 . S
Mn276 O291 2.162 . S
Mn276 O292 2.297 . S
Mn276 O300 2.385 . S
Mn276 O301 2.209 . S
Mn276 O302 2.094 . S
Mn277 O282 2.121 . S
Mn277 N284 2.257 . S
Mn277 N293 2.282 . S
Mn277 O301 2.215 . S
Mn277 O303 2.117 . S
C278 O300 1.234 . S
C278 O301 1.283 . S
C279 O291 1.281 . S
C279 O292 1.236 . S
C280 O302 1.240 . S
C280 O303 1.264 . S
O281 Mn276 2.095 . S
O281 C290 1.250 . S
O282 Mn277 2.121 . S
O282 C290 1.258 . S
C283 N284 1.326 . S
C283 C287 1.460 . S
C283 H289 0.929 . S
N284 Mn277 2.257 . S
N284 C283 1.326 . S
N284 C288 1.362 . S
C285 C286 1.258 . S
C285 C288 1.431 . S
C285 C305 1.449 . S
C286 C285 1.258 . S
C286 C287 1.477 . S
C286 H306 0.931 . S
C287 C283 1.460 . S
C287 C286 1.477 . S
C287 H307 0.930 . S
C288 N284 1.362 . S
C288 C285 1.431 . S
C288 C298 1.476 . S
H289 C283 0.929 . S
C290 O281 1.250 . S
C290 O282 1.258 . S
O291 Mn276 2.162 . S
O291 C279 1.281 . S
O292 Mn276 2.297 . S
O292 C279 1.236 . S
N293 Mn277 2.282 . S
N293 C294 1.328 . S
N293 C298 1.318 . S
C294 N293 1.328 . S
C294 C295 1.457 . S
C294 H299 0.929 . S
C295 C294 1.457 . S
C295 C296 1.291 . S
C295 H308 0.931 . S
C296 C295 1.291 . S
C296 C297 1.373 . S
C296 H309 0.929 . S
C297 C296 1.373 . S
C297 C298 1.396 . S
C297 C304 1.403 . S
C298 C288 1.476 . S
C298 N293 1.318 . S
C298 C297 1.396 . S
H299 C294 0.929 . S
O300 Mn276 2.385 . S
O300 C278 1.234 . S
O301 Mn276 2.209 . S
O301 Mn277 2.215 . S
O301 C278 1.283 . S
O302 Mn276 2.094 . S
O302 C280 1.240 . S
O303 Mn277 2.117 . S
O303 C280 1.264 . S
C304 C297 1.403 . S
C304 C305 1.399 . S
C304 H310 0.929 . S
C305 C285 1.449 . S
C305 C304 1.399 . S
C305 H311 0.930 . S
H306 C286 0.931 . S
H307 C287 0.930 . S
H308 C295 0.931 . S
H309 C296 0.929 . S
H310 C304 0.929 . S
H311 C305 0.930 . S
Mn312 O317 2.095 . S
Mn312 O327 2.162 . S
Mn312 O328 2.297 . S
Mn312 O336 2.385 . S
Mn312 O337 2.209 . S
Mn312 O338 2.094 . S
Mn313 O318 2.121 . S
Mn313 N320 2.257 . S
Mn313 N329 2.282 . S
Mn313 O337 2.215 . S
Mn313 O339 2.117 . S
C314 O336 1.234 . S
C314 O337 1.283 . S
C315 O327 1.281 . S
C315 O328 1.236 . S
C316 O338 1.240 . S
C316 O339 1.264 . S
O317 Mn312 2.095 . S
O317 C326 1.250 . S
O318 Mn313 2.121 . S
O318 C326 1.258 . S
C319 N320 1.326 . S
C319 C323 1.460 . S
C319 H325 0.929 . S
N320 Mn313 2.257 . S
N320 C319 1.326 . S
N320 C324 1.362 . S
C321 C322 1.258 . S
C321 C324 1.431 . S
C321 C341 1.449 . S
C322 C321 1.258 . S
C322 C323 1.477 . S
C322 H342 0.931 . S
C323 C319 1.460 . S
C323 C322 1.477 . S
C323 H343 0.930 . S
C324 N320 1.362 . S
C324 C321 1.431 . S
C324 C334 1.476 . S
H325 C319 0.929 . S
C326 O317 1.250 . S
C326 O318 1.258 . S
O327 Mn312 2.162 . S
O327 C315 1.281 . S
O328 Mn312 2.297 . S
O328 C315 1.236 . S
N329 Mn313 2.282 . S
N329 C330 1.328 . S
N329 C334 1.318 . S
C330 N329 1.328 . S
C330 C331 1.457 . S
C330 H335 0.929 . S
C331 C330 1.457 . S
C331 C332 1.291 . S
C331 H344 0.931 . S
C332 C331 1.291 . S
C332 C333 1.373 . S
C332 H345 0.929 . S
C333 C332 1.373 . S
C333 C334 1.396 . S
C333 C340 1.403 . S
C334 C324 1.476 . S
C334 N329 1.318 . S
C334 C333 1.396 . S
H335 C330 0.929 . S
O336 Mn312 2.385 . S
O336 C314 1.234 . S
O337 Mn312 2.209 . S
O337 Mn313 2.215 . S
O337 C314 1.283 . S
O338 Mn312 2.094 . S
O338 C316 1.240 . S
O339 Mn313 2.117 . S
O339 C316 1.264 . S
C340 C333 1.403 . S
C340 C341 1.399 . S
C340 H346 0.929 . S
C341 C321 1.449 . S
C341 C340 1.399 . S
C341 H347 0.930 . S
H342 C322 0.931 . S
H343 C323 0.930 . S
H344 C331 0.931 . S
H345 C332 0.929 . S
H346 C340 0.929 . S
H347 C341 0.930 . S
Mn348 O353 2.095 . S
Mn348 O363 2.162 . S
Mn348 O364 2.297 . S
Mn348 O372 2.385 . S
Mn348 O373 2.209 . S
Mn348 O374 2.094 . S
Mn349 O354 2.121 . S
Mn349 N356 2.257 . S
Mn349 N365 2.282 . S
Mn349 O373 2.215 . S
Mn349 O375 2.117 . S
C350 O372 1.234 . S
C350 O373 1.283 . S
C351 O363 1.281 . S
C351 O364 1.236 . S
C352 O374 1.240 . S
C352 O375 1.264 . S
O353 Mn348 2.095 . S
O353 C362 1.250 . S
O354 Mn349 2.121 . S
O354 C362 1.258 . S
C355 N356 1.326 . S
C355 C359 1.460 . S
C355 H361 0.929 . S
N356 Mn349 2.257 . S
N356 C355 1.326 . S
N356 C360 1.362 . S
C357 C358 1.258 . S
C357 C360 1.431 . S
C357 C377 1.449 . S
C358 C357 1.258 . S
C358 C359 1.477 . S
C358 H378 0.931 . S
C359 C355 1.460 . S
C359 C358 1.477 . S
C359 H379 0.930 . S
C360 N356 1.362 . S
C360 C357 1.431 . S
C360 C370 1.476 . S
H361 C355 0.929 . S
C362 O353 1.250 . S
C362 O354 1.258 . S
O363 Mn348 2.162 . S
O363 C351 1.281 . S
O364 Mn348 2.297 . S
O364 C351 1.236 . S
N365 Mn349 2.282 . S
N365 C366 1.328 . S
N365 C370 1.318 . S
C366 N365 1.328 . S
C366 C367 1.457 . S
C366 H371 0.929 . S
C367 C366 1.457 . S
C367 C368 1.291 . S
C367 H380 0.931 . S
C368 C367 1.291 . S
C368 C369 1.373 . S
C368 H381 0.929 . S
C369 C368 1.373 . S
C369 C370 1.396 . S
C369 C376 1.403 . S
C370 C360 1.476 . S
C370 N365 1.318 . S
C370 C369 1.396 . S
H371 C366 0.929 . S
O372 Mn348 2.385 . S
O372 C350 1.234 . S
O373 Mn348 2.209 . S
O373 Mn349 2.215 . S
O373 C350 1.283 . S
O374 Mn348 2.094 . S
O374 C352 1.240 . S
O375 Mn349 2.117 . S
O375 C352 1.264 . S
C376 C369 1.403 . S
C376 C377 1.399 . S
C376 H382 0.929 . S
C377 C357 1.449 . S
C377 C376 1.399 . S
C377 H383 0.930 . S
H378 C358 0.931 . S
H379 C359 0.930 . S
H380 C367 0.931 . S
H381 C368 0.929 . S
H382 C376 0.929 . S
H383 C377 0.930 . S
Mn384 O389 2.095 . S
Mn384 O399 2.162 . S
Mn384 O400 2.297 . S
Mn384 O408 2.385 . S
Mn384 O409 2.209 . S
Mn384 O410 2.094 . S
Mn385 O390 2.121 . S
Mn385 N392 2.257 . S
Mn385 N401 2.282 . S
Mn385 O409 2.215 . S
Mn385 O411 2.117 . S
C386 O408 1.234 . S
C386 O409 1.283 . S
C387 O399 1.281 . S
C387 O400 1.236 . S
C388 O410 1.240 . S
C388 O411 1.264 . S
O389 Mn384 2.095 . S
O389 C398 1.250 . S
O390 Mn385 2.121 . S
O390 C398 1.258 . S
C391 N392 1.326 . S
C391 C395 1.460 . S
C391 H397 0.929 . S
N392 Mn385 2.257 . S
N392 C391 1.326 . S
N392 C396 1.362 . S
C393 C394 1.258 . S
C393 C396 1.431 . S
C393 C413 1.449 . S
C394 C393 1.258 . S
C394 C395 1.477 . S
C394 H414 0.931 1_556 S
C395 C391 1.460 . S
C395 C394 1.477 . S
C395 H415 0.930 . S
C396 N392 1.362 . S
C396 C393 1.431 . S
C396 C406 1.476 . S
H397 C391 0.929 . S
C398 O389 1.250 . S
C398 O390 1.258 . S
O399 Mn384 2.162 . S
O399 C387 1.281 . S
O400 Mn384 2.297 . S
O400 C387 1.236 . S
N401 Mn385 2.282 . S
N401 C402 1.328 . S
N401 C406 1.318 . S
C402 N401 1.328 . S
C402 C403 1.457 . S
C402 H407 0.929 . S
C403 C402 1.457 . S
C403 C404 1.291 . S
C403 H416 0.931 . S
C404 C403 1.291 . S
C404 C405 1.373 . S
C404 H417 0.929 . S
C405 C404 1.373 . S
C405 C406 1.396 . S
C405 C412 1.403 . S
C406 C396 1.476 . S
C406 N401 1.318 . S
C406 C405 1.396 . S
H407 C402 0.929 . S
O408 Mn384 2.385 . S
O408 C386 1.234 . S
O409 Mn384 2.209 . S
O409 Mn385 2.215 . S
O409 C386 1.283 . S
O410 Mn384 2.094 . S
O410 C388 1.240 . S
O411 Mn385 2.117 . S
O411 C388 1.264 . S
C412 C405 1.403 . S
C412 C413 1.399 . S
C412 H418 0.929 . S
C413 C393 1.449 . S
C413 C412 1.399 . S
C413 H419 0.930 1_556 S
H414 C394 0.931 1_554 S
H415 C395 0.930 . S
H416 C403 0.931 . S
H417 C404 0.929 . S
H418 C412 0.929 . S
H419 C413 0.930 1_554 S
Mn420 O425 2.095 . S
Mn420 O435 2.162 . S
Mn420 O436 2.297 . S
Mn420 O444 2.385 . S
Mn420 O445 2.209 . S
Mn420 O446 2.094 . S
Mn421 O426 2.121 . S
Mn421 N428 2.257 . S
Mn421 N437 2.282 . S
Mn421 O445 2.215 . S
Mn421 O447 2.117 . S
C422 O444 1.234 . S
C422 O445 1.283 . S
C423 O435 1.281 . S
C423 O436 1.236 . S
C424 O446 1.240 . S
C424 O447 1.264 . S
O425 Mn420 2.095 . S
O425 C434 1.250 . S
O426 Mn421 2.121 . S
O426 C434 1.258 . S
C427 N428 1.326 . S
C427 C431 1.460 . S
C427 H433 0.929 . S
N428 Mn421 2.257 . S
N428 C427 1.326 . S
N428 C432 1.362 . S
C429 C430 1.258 . S
C429 C432 1.431 . S
C429 C449 1.449 . S
C430 C429 1.258 . S
C430 C431 1.477 . S
C430 H450 0.931 . S
C431 C427 1.460 . S
C431 C430 1.477 . S
C431 H451 0.930 . S
C432 N428 1.362 . S
C432 C429 1.431 . S
C432 C442 1.476 . S
H433 C427 0.929 . S
C434 O425 1.250 . S
C434 O426 1.258 . S
O435 Mn420 2.162 . S
O435 C423 1.281 . S
O436 Mn420 2.297 . S
O436 C423 1.236 . S
N437 Mn421 2.282 . S
N437 C438 1.328 . S
N437 C442 1.318 . S
C438 N437 1.328 . S
C438 C439 1.457 . S
C438 H443 0.929 . S
C439 C438 1.457 . S
C439 C440 1.291 . S
C439 H452 0.931 . S
C440 C439 1.291 . S
C440 C441 1.373 . S
C440 H453 0.929 . S
C441 C440 1.373 . S
C441 C442 1.396 . S
C441 C448 1.403 . S
C442 C432 1.476 . S
C442 N437 1.318 . S
C442 C441 1.396 . S
H443 C438 0.929 . S
O444 Mn420 2.385 . S
O444 C422 1.234 . S
O445 Mn420 2.209 . S
O445 Mn421 2.215 . S
O445 C422 1.283 . S
O446 Mn420 2.094 . S
O446 C424 1.240 . S
O447 Mn421 2.117 . S
O447 C424 1.264 . S
C448 C441 1.403 . S
C448 C449 1.399 . S
C448 H454 0.929 . S
C449 C429 1.449 . S
C449 C448 1.399 . S
C449 H455 0.930 . S
H450 C430 0.931 . S
H451 C431 0.930 . S
H452 C439 0.931 . S
H453 C440 0.929 . S
H454 C448 0.929 . S
H455 C449 0.930 . S
Mn456 O461 2.095 . S
Mn456 O471 2.162 . S
Mn456 O472 2.297 . S
Mn456 O480 2.385 . S
Mn456 O481 2.209 . S
Mn456 O482 2.094 . S
Mn457 O462 2.121 . S
Mn457 N464 2.257 . S
Mn457 N473 2.282 . S
Mn457 O481 2.215 . S
Mn457 O483 2.117 . S
C458 O480 1.234 . S
C458 O481 1.283 . S
C459 O471 1.281 . S
C459 O472 1.236 . S
C460 O482 1.240 . S
C460 O483 1.264 . S
O461 Mn456 2.095 . S
O461 C470 1.250 . S
O462 Mn457 2.121 . S
O462 C470 1.258 . S
C463 N464 1.326 . S
C463 C467 1.460 . S
C463 H469 0.929 . S
N464 Mn457 2.257 . S
N464 C463 1.326 . S
N464 C468 1.362 . S
C465 C466 1.258 . S
C465 C468 1.431 . S
C465 C485 1.449 . S
C466 C465 1.258 . S
C466 C467 1.477 . S
C466 H486 0.931 . S
C467 C463 1.460 . S
C467 C466 1.477 . S
C467 H487 0.930 . S
C468 N464 1.362 . S
C468 C465 1.431 . S
C468 C478 1.476 . S
H469 C463 0.929 . S
C470 O461 1.250 . S
C470 O462 1.258 . S
O471 Mn456 2.162 . S
O471 C459 1.281 . S
O472 Mn456 2.297 . S
O472 C459 1.236 . S
N473 Mn457 2.282 . S
N473 C474 1.328 . S
N473 C478 1.318 . S
C474 N473 1.328 . S
C474 C475 1.457 . S
C474 H479 0.929 . S
C475 C474 1.457 . S
C475 C476 1.291 . S
C475 H488 0.931 . S
C476 C475 1.291 . S
C476 C477 1.373 . S
C476 H489 0.929 . S
C477 C476 1.373 . S
C477 C478 1.396 . S
C477 C484 1.403 . S
C478 C468 1.476 . S
C478 N473 1.318 . S
C478 C477 1.396 . S
H479 C474 0.929 . S
O480 Mn456 2.385 . S
O480 C458 1.234 . S
O481 Mn456 2.209 . S
O481 Mn457 2.215 . S
O481 C458 1.283 . S
O482 Mn456 2.094 . S
O482 C460 1.240 . S
O483 Mn457 2.117 . S
O483 C460 1.264 . S
C484 C477 1.403 . S
C484 C485 1.399 . S
C484 H490 0.929 . S
C485 C465 1.449 . S
C485 C484 1.399 . S
C485 H491 0.930 . S
H486 C466 0.931 . S
H487 C467 0.930 . S
H488 C475 0.931 . S
H489 C476 0.929 . S
H490 C484 0.929 . S
H491 C485 0.930 . S
C492 C493 1.387 . S
C492 H496 0.950 . S
C492 C501 1.390 . S
C493 C492 1.387 . S
C493 C495 1.387 . S
H494 C501 0.950 . S
C495 C493 1.387 . S
C495 C497 1.390 . S
C495 H499 0.950 . S
H496 C492 0.950 . S
C497 C495 1.390 . S
C497 C498 1.387 . S
C497 H500 0.950 . S
C498 C497 1.387 . S
C498 C501 1.387 . S
H499 C495 0.950 . S
H500 C497 0.950 . S
C501 C492 1.390 . S
C501 H494 0.950 . S
C501 C498 1.387 . S
C502 C503 1.387 . S
C502 H506 0.950 . S
C502 C511 1.390 . S
C503 C502 1.387 . S
C503 C505 1.387 . S
H504 C511 0.950 . S
C505 C503 1.387 . S
C505 C507 1.390 . S
C505 H509 0.950 . S
H506 C502 0.950 . S
C507 C505 1.390 . S
C507 C508 1.387 . S
C507 H510 0.950 . S
C508 C507 1.387 . S
C508 C511 1.387 . S
H509 C505 0.950 . S
H510 C507 0.950 . S
C511 C502 1.390 . S
C511 H504 0.950 . S
C511 C508 1.387 . S
C512 C513 1.387 . S
C512 H516 0.950 . S
C512 C521 1.390 . S
C513 C512 1.387 . S
C513 C515 1.387 . S
H514 C521 0.950 . S
C515 C513 1.387 . S
C515 C517 1.390 . S
C515 H519 0.950 . S
H516 C512 0.950 . S
C517 C515 1.390 . S
C517 C518 1.387 . S
C517 H520 0.950 . S
C518 C517 1.387 . S
C518 C521 1.387 . S
H519 C515 0.950 . S
H520 C517 0.950 . S
C521 C512 1.390 . S
C521 H514 0.950 . S
C521 C518 1.387 . S
C522 C523 1.387 . S
C522 H526 0.950 . S
C522 C531 1.390 . S
C523 C522 1.387 . S
C523 C525 1.387 . S
H524 C531 0.950 . S
C525 C523 1.387 . S
C525 C527 1.390 . S
C525 H529 0.950 . S
H526 C522 0.950 . S
C527 C525 1.390 . S
C527 C528 1.387 . S
C527 H530 0.950 . S
C528 C527 1.387 . S
C528 C531 1.387 . S
H529 C525 0.950 . S
H530 C527 0.950 . S
C531 C522 1.390 . S
C531 H524 0.950 . S
C531 C528 1.387 . S
C532 C533 1.387 . S
C532 H536 0.950 . S
C532 C541 1.390 . S
C533 C532 1.387 . S
C533 C535 1.387 . S
H534 C541 0.950 . S
C535 C533 1.387 . S
C535 C537 1.390 . S
C535 H539 0.950 . S
H536 C532 0.950 . S
C537 C535 1.390 . S
C537 C538 1.387 . S
C537 H540 0.950 . S
C538 C537 1.387 . S
C538 C541 1.387 . S
H539 C535 0.950 . S
H540 C537 0.950 . S
C541 C532 1.390 . S
C541 H534 0.950 . S
C541 C538 1.387 . S
C542 C543 1.387 . S
C542 H546 0.950 . S
C542 C551 1.390 . S
C543 C542 1.387 . S
C543 C545 1.387 . S
H544 C551 0.950 . S
C545 C543 1.387 . S
C545 C547 1.390 . S
C545 H549 0.950 . S
H546 C542 0.950 . S
C547 C545 1.390 . S
C547 C548 1.387 . S
C547 H550 0.950 . S
C548 C547 1.387 . S
C548 C551 1.387 . S
H549 C545 0.950 . S
H550 C547 0.950 . S
C551 C542 1.390 . S
C551 H544 0.950 . S
C551 C548 1.387 . S
C552 C553 1.387 . S
C552 H556 0.950 . S
C552 C561 1.390 . S
C553 C552 1.387 . S
C553 C555 1.387 . S
H554 C561 0.950 . S
C555 C553 1.387 . S
C555 C557 1.390 . S
C555 H559 0.950 . S
H556 C552 0.950 . S
C557 C555 1.390 . S
C557 C558 1.387 . S
C557 H560 0.950 . S
C558 C557 1.387 . S
C558 C561 1.387 . S
H559 C555 0.950 . S
H560 C557 0.950 . S
C561 C552 1.390 . S
C561 H554 0.950 . S
C561 C558 1.387 . S
C562 C563 1.387 . S
C562 H566 0.950 . S
C562 C571 1.390 . S
C563 C562 1.387 . S
C563 C565 1.387 . S
H564 C571 0.950 . S
C565 C563 1.387 . S
C565 C567 1.390 . S
C565 H569 0.950 . S
H566 C562 0.950 . S
C567 C565 1.390 . S
C567 C568 1.387 . S
C567 H570 0.950 . S
C568 C567 1.387 . S
C568 C571 1.387 . S
H569 C565 0.950 . S
H570 C567 0.950 . S
C571 C562 1.390 . S
C571 H564 0.950 . S
C571 C568 1.387 . S
C572 C573 1.387 . S
C572 H576 0.950 . S
C572 C581 1.390 . S
C573 C572 1.387 . S
C573 C575 1.387 . S
H574 C581 0.950 . S
C575 C573 1.387 . S
C575 C577 1.390 . S
C575 H579 0.950 . S
H576 C572 0.950 . S
C577 C575 1.390 . S
C577 C578 1.387 . S
C577 H580 0.950 . S
C578 C577 1.387 . S
C578 C581 1.387 . S
H579 C575 0.950 . S
H580 C577 0.950 . S
C581 C572 1.390 . S
C581 H574 0.950 . S
C581 C578 1.387 . S
C582 C583 1.387 . S
C582 H586 0.950 . S
C582 C591 1.390 . S
C583 C582 1.387 . S
C583 C585 1.387 . S
H584 C591 0.950 . S
C585 C583 1.387 . S
C585 C587 1.390 . S
C585 H589 0.918 1_554 S
H586 C582 0.950 . S
C587 C585 1.390 . S
C587 C588 1.387 . S
C587 H590 0.950 . S
C588 C587 1.387 . S
C588 C591 1.387 . S
H589 C585 0.918 1_556 S
H590 C587 0.950 . S
C591 C582 1.390 . S
C591 H584 0.950 . S
C591 C588 1.387 . S
C592 C593 1.387 . S
C592 H596 0.950 . S
C592 C601 1.390 . S
C593 C592 1.387 . S
C593 C595 1.387 . S
H594 C601 0.950 . S
C595 C593 1.387 . S
C595 C597 1.390 . S
C595 H599 0.950 . S
H596 C592 0.950 . S
C597 C595 1.390 . S
C597 C598 1.387 . S
C597 H600 0.950 . S
C598 C597 1.387 . S
C598 C601 1.387 . S
H599 C595 0.950 . S
H600 C597 0.950 . S
C601 C592 1.390 . S
C601 H594 0.950 . S
C601 C598 1.387 . S
C602 C603 1.387 . S
C602 H606 0.950 . S
C602 C611 1.390 . S
C603 C602 1.387 . S
C603 C605 1.387 . S
H604 C611 0.950 . S
C605 C603 1.387 . S
C605 C607 1.390 . S
C605 H609 0.950 . S
H606 C602 0.950 . S
C607 C605 1.390 . S
C607 C608 1.387 . S
C607 H610 0.950 . S
C608 C607 1.387 . S
C608 C611 1.387 . S
H609 C605 0.950 . S
H610 C607 0.950 . S
C611 C602 1.390 . S
C611 H604 0.950 . S
C611 C608 1.387 . S
C612 C613 1.387 . S
C612 H616 0.950 . S
C612 C621 1.390 . S
C613 C612 1.387 . S
C613 C615 1.387 . S
H614 C621 0.950 . S
C615 C613 1.387 . S
C615 C617 1.390 . S
C615 H619 0.950 . S
H616 C612 0.950 . S
C617 C615 1.390 . S
C617 C618 1.387 . S
C617 H620 0.950 . S
C618 C617 1.387 . S
C618 C621 1.387 . S
H619 C615 0.950 . S
H620 C617 0.950 . S
C621 C612 1.390 . S
C621 H614 0.950 . S
C621 C618 1.387 . S
C622 C623 1.387 . S
C622 H626 0.950 . S
C622 C631 1.390 . S
C623 C622 1.387 . S
C623 C625 1.387 . S
H624 C631 0.950 . S
C625 C623 1.387 . S
C625 C627 1.390 . S
C625 H629 0.950 . S
H626 C622 0.950 . S
C627 C625 1.390 . S
C627 C628 1.387 . S
C627 H630 0.950 . S
C628 C627 1.387 . S
C628 C631 1.387 . S
H629 C625 0.950 . S
H630 C627 0.950 . S
C631 C622 1.390 . S
C631 H624 0.950 . S
C631 C628 1.387 . S
C632 C633 1.387 . S
C632 H636 0.950 . S
C632 C641 1.390 . S
C633 C632 1.387 . S
C633 C635 1.387 . S
H634 C641 0.950 . S
C635 C633 1.387 . S
C635 C637 1.390 . S
C635 H639 0.950 . S
H636 C632 0.950 . S
C637 C635 1.390 . S
C637 C638 1.387 . S
C637 H640 0.950 . S
C638 C637 1.387 . S
C638 C641 1.387 . S
H639 C635 0.950 . S
H640 C637 0.950 . S
C641 C632 1.390 . S
C641 H634 0.950 . S
C641 C638 1.387 . S
C642 C643 1.387 . S
C642 H646 0.950 . S
C642 C651 1.390 . S
C643 C642 1.387 . S
C643 C645 1.387 . S
H644 C651 0.950 1_554 S
C645 C643 1.387 . S
C645 C647 1.390 . S
C645 H649 0.950 . S
H646 C642 0.950 . S
C647 C645 1.390 . S
C647 C648 1.387 1_556 S
C647 H650 0.950 . S
C648 C647 1.387 1_554 S
C648 C651 1.387 1_554 S
H649 C645 0.950 . S
H650 C647 0.950 . S
C651 C642 1.390 . S
C651 H644 0.950 1_556 S
C651 C648 1.387 1_556 S
C652 C653 1.387 . S
C652 H656 0.950 . S
C652 C661 1.390 . S
C653 C652 1.387 . S
C653 C655 1.387 . S
H654 C661 0.950 . S
C655 C653 1.387 . S
C655 C657 1.390 . S
C655 H659 0.950 . S
H656 C652 0.950 . S
C657 C655 1.390 . S
C657 C658 1.387 . S
C657 H660 0.950 . S
C658 C657 1.387 . S
C658 C661 1.387 . S
H659 C655 0.950 . S
H660 C657 0.950 . S
C661 C652 1.390 . S
C661 H654 0.950 . S
C661 C658 1.387 . S
C662 C663 1.387 . S
C662 H666 0.950 . S
C662 C671 1.390 . S
C663 C662 1.387 . S
C663 C665 1.387 . S
H664 C671 0.950 . S
C665 C663 1.387 . S
C665 C667 1.390 . S
C665 H669 0.950 . S
H666 C662 0.950 . S
C667 C665 1.390 . S
C667 C668 1.387 . S
C667 H670 0.950 . S
C668 C667 1.387 . S
C668 C671 1.387 . S
H669 C665 0.950 . S
H670 C667 0.950 . S
C671 C662 1.390 . S
C671 H664 0.950 . S
C671 C668 1.387 . S
C672 C673 1.387 . S
C672 H676 0.950 . S
C672 C681 1.390 . S
C673 C672 1.387 . S
C673 C675 1.387 . S
H674 C681 0.950 . S
C675 C673 1.387 . S
C675 C677 1.390 . S
C675 H679 0.950 . S
H676 C672 0.950 . S
C677 C675 1.390 . S
C677 C678 1.387 . S
C677 H680 0.950 . S
C678 C677 1.387 . S
C678 C681 1.387 . S
H679 C675 0.950 . S
H680 C677 0.950 . S
C681 C672 1.390 . S
C681 H674 0.950 . S
C681 C678 1.387 . S
C682 C683 1.387 . S
C682 H686 0.950 . S
C682 C691 1.390 . S
C683 C682 1.387 . S
C683 C685 1.387 . S
H684 C691 0.950 . S
C685 C683 1.387 . S
C685 C687 1.390 . S
C685 H689 0.950 . S
H686 C682 0.950 . S
C687 C685 1.390 . S
C687 C688 1.387 . S
C687 H690 0.950 . S
C688 C687 1.387 . S
C688 C691 1.387 . S
H689 C685 0.950 . S
H690 C687 0.950 . S
C691 C682 1.390 . S
C691 H684 0.950 . S
C691 C688 1.387 . S
C692 C693 1.387 . S
C692 H696 0.950 . S
C692 C701 1.390 . S
C693 C692 1.387 . S
C693 C695 1.387 . S
H694 C701 0.950 . S
C695 C693 1.387 . S
C695 C697 1.390 . S
C695 H699 0.950 . S
H696 C692 0.950 . S
C697 C695 1.390 . S
C697 C698 1.387 . S
C697 H700 0.950 . S
C698 C697 1.387 . S
C698 C701 1.387 . S
H699 C695 0.950 . S
H700 C697 0.950 . S
C701 C692 1.390 . S
C701 H694 0.950 . S
C701 C698 1.387 . S
C702 C703 1.387 . S
C702 H706 0.950 . S
C702 C711 1.390 . S
C703 C702 1.387 . S
C703 C705 1.387 . S
H704 C711 0.950 . S
C705 C703 1.387 . S
C705 C707 1.390 . S
C705 H709 0.950 . S
H706 C702 0.950 . S
C707 C705 1.390 . S
C707 C708 1.387 . S
C707 H710 0.950 . S
C708 C707 1.387 . S
C708 C711 1.387 . S
H709 C705 0.950 . S
H710 C707 0.950 . S
C711 C702 1.390 . S
C711 H704 0.950 . S
C711 C708 1.387 . S
C712 C713 1.387 . S
C712 H716 0.950 . S
C712 C721 1.390 1_554 S
C713 C712 1.387 . S
C713 C715 1.387 . S
H714 C721 0.950 . S
C715 C713 1.387 . S
C715 C717 1.390 1_554 S
C715 H719 0.950 . S
H716 C712 0.950 . S
C717 C715 1.390 1_556 S
C717 C718 1.387 . S
C717 H720 0.950 . S
C718 C717 1.387 . S
C718 C721 1.387 . S
H719 C715 0.950 . S
H720 C717 0.950 . S
C721 C712 1.390 1_556 S
C721 H714 0.950 . S
C721 C718 1.387 . S
C722 C723 1.387 . S
C722 H726 0.950 . S
C722 C731 1.390 . S
C723 C722 1.387 . S
C723 C725 1.387 . S
H724 C731 0.950 . S
C725 C723 1.387 . S
C725 C727 1.390 . S
C725 H729 0.950 . S
H726 C722 0.950 . S
C727 C725 1.390 . S
C727 C728 1.387 . S
C727 H730 0.950 . S
C728 C727 1.387 . S
C728 C731 1.387 . S
H729 C725 0.950 . S
H730 C727 0.950 . S
C731 C722 1.390 . S
C731 H724 0.950 . S
C731 C728 1.387 . S
C498 C459 1.625 . S
C493 C15 1.594 . S
C503 C61 1.625 . S
C508 C279 1.661 . S
C513 C114 1.606 . S
C518 C326 1.657 . S
C523 C139 1.569 . S
C528 C362 1.591 . S
C538 C387 1.603 . S
C533 C185 1.588 . S
C543 C245 1.575 . S
C548 C423 1.606 . S
C553 C47 1.636 . S
C558 C315 1.654 . S
C563 C100 1.595 . S
C568 C351 1.609 . S
C573 C153 1.545 . S
C578 C398 1.579 . S
C588 C434 1.637 . S
C583 C199 1.590 . S
C598 C470 1.646 . S
C593 C231 1.617 . S
C608 C290 1.661 . S
C603 C1 1.629 . S
C613 C22 1.482 . S
C618 C314 1.470 . S
C623 C68 1.492 . S
C628 C350 1.482 . S
C638 C388 1.490 . S
C633 C107 1.494 . S
C643 C146 1.497 . S
C648 C424 1.492 . S
C658 C460 1.462 . S
C653 C192 1.467 . S
C668 C280 1.452 . S
C663 C252 1.457 . S
C678 C458 1.465 . S
C673 C54 1.478 . S
C683 C93 1.478 . S
C688 C278 1.463 . S
C698 C316 1.475 . S
C693 C160 1.479 . S
C703 C206 1.489 . S
C708 C352 1.486 . S
C713 C238 1.518 . S
C718 C386 1.506 . S
C723 C8 1.506 . S
C728 C422 1.492 . S
