# Generated by pormake.
# Topology pto, (3,4)-cn, num edge types: 1
# Building blocks:
#     Node 0, Type 0, BuildingBlock: ESEHIV_clean_linker_0, # of connection points: 3
#     Node 1, Type 0, BuildingBlock: ESEHIV_clean_linker_0, # of connection points: 3
#     Node 2, Type 0, BuildingBlock: ESEHIV_clean_linker_0, # of connection points: 3
#     Node 3, Type 0, BuildingBlock: ESEHIV_clean_linker_0, # of connection points: 3
#     Node 4, Type 0, BuildingBlock: ESEHIV_clean_linker_0, # of connection points: 3
#     Node 5, Type 0, BuildingBlock: ESEHIV_clean_linker_0, # of connection points: 3
#     Node 6, Type 0, BuildingBlock: ESEHIV_clean_linker_0, # of connection points: 3
#     Node 7, Type 0, BuildingBlock: ESEHIV_clean_linker_0, # of connection points: 3
#     Node 8, Type 1, BuildingBlock: NAWXER_clean_sbu_0, # of connection points: 4
#     Node 9, Type 1, BuildingBlock: NAWXER_clean_sbu_0, # of connection points: 4
#     Node 10, Type 1, BuildingBlock: NAWXER_clean_sbu_0, # of connection points: 4
#     Node 11, Type 1, BuildingBlock: NAWXER_clean_sbu_0, # of connection points: 4
#     Node 12, Type 1, BuildingBlock: NAWXER_clean_sbu_0, # of connection points: 4
#     Node 13, Type 1, BuildingBlock: NAWXER_clean_sbu_0, # of connection points: 4
#     Edge 14, Type (0, 1), BuildingBlock: XUDNAN_clean_linker_2, # of connection points: 2
#     Edge 15, Type (0, 1), BuildingBlock: XUDNAN_clean_linker_2, # of connection points: 2
#     Edge 16, Type (0, 1), BuildingBlock: XUDNAN_clean_linker_2, # of connection points: 2
#     Edge 17, Type (0, 1), BuildingBlock: XUDNAN_clean_linker_2, # of connection points: 2
#     Edge 18, Type (0, 1), BuildingBlock: XUDNAN_clean_linker_2, # of connection points: 2
#     Edge 19, Type (0, 1), BuildingBlock: XUDNAN_clean_linker_2, # of connection points: 2
#     Edge 20, Type (0, 1), BuildingBlock: XUDNAN_clean_linker_2, # of connection points: 2
#     Edge 21, Type (0, 1), BuildingBlock: XUDNAN_clean_linker_2, # of connection points: 2
#     Edge 22, Type (0, 1), BuildingBlock: XUDNAN_clean_linker_2, # of connection points: 2
#     Edge 23, Type (0, 1), BuildingBlock: XUDNAN_clean_linker_2, # of connection points: 2
#     Edge 24, Type (0, 1), BuildingBlock: XUDNAN_clean_linker_2, # of connection points: 2
#     Edge 25, Type (0, 1), BuildingBlock: XUDNAN_clean_linker_2, # of connection points: 2
#     Edge 26, Type (0, 1), BuildingBlock: XUDNAN_clean_linker_2, # of connection points: 2
#     Edge 27, Type (0, 1), BuildingBlock: XUDNAN_clean_linker_2, # of connection points: 2
#     Edge 28, Type (0, 1), BuildingBlock: XUDNAN_clean_linker_2, # of connection points: 2
#     Edge 29, Type (0, 1), BuildingBlock: XUDNAN_clean_linker_2, # of connection points: 2
#     Edge 30, Type (0, 1), BuildingBlock: XUDNAN_clean_linker_2, # of connection points: 2
#     Edge 31, Type (0, 1), BuildingBlock: XUDNAN_clean_linker_2, # of connection points: 2
#     Edge 32, Type (0, 1), BuildingBlock: XUDNAN_clean_linker_2, # of connection points: 2
#     Edge 33, Type (0, 1), BuildingBlock: XUDNAN_clean_linker_2, # of connection points: 2
#     Edge 34, Type (0, 1), BuildingBlock: XUDNAN_clean_linker_2, # of connection points: 2
#     Edge 35, Type (0, 1), BuildingBlock: XUDNAN_clean_linker_2, # of connection points: 2
#     Edge 36, Type (0, 1), BuildingBlock: XUDNAN_clean_linker_2, # of connection points: 2
#     Edge 37, Type (0, 1), BuildingBlock: XUDNAN_clean_linker_2, # of connection points: 2
# Relax obj value: 0.000
# Max RMSD: 0.005
# Mean RMSD: 0.003
data_MOF--net-pto--node1-NAWXER_clean_sbu_0--node2-ESEHIV_clean_linker_0--edge1-XUDNAN_clean_linker_2
_symmetry_space_group_name_H-M    P1
_symmetry_Int_Tables_number       1
_symmetry_cell_setting            triclinic
loop_
_symmetry_equiv_pos_as_xyz
'x, y, z'
_cell_length_a     40.44194
_cell_length_b     38.236698
_cell_length_c     35.592019
_cell_angle_alpha  90.220581
_cell_angle_beta   90.187477
_cell_angle_gamma 90.140586
loop_
_atom_site_label
_atom_site_type_symbol
_atom_site_fract_x
_atom_site_fract_y
_atom_site_fract_z
_atom_type_partial_charge
H0 H 0.25321 0.33186 0.23158 0.0
H1 H 0.31211 0.25028 0.28072 0.0
H2 H 0.2067 0.24369 0.28492 0.0
C3 C 0.2548 0.30752 0.24674 0.0
C4 C 0.22558 0.29064 0.2586 0.0
C5 C 0.2862 0.29277 0.25342 0.0
C6 C 0.28822 0.26158 0.27434 0.0
C7 C 0.25962 0.24371 0.2855 0.0
C8 C 0.22858 0.25818 0.27706 0.0
H9 H 0.26204 0.68461 0.80326 0.0
H10 H 0.32544 0.77168 0.77687 0.0
H11 H 0.23475 0.7562 0.7162 0.0
C12 C 0.26686 0.70841 0.7879 0.0
C13 C 0.24388 0.7192 0.76068 0.0
C14 C 0.29623 0.72725 0.7948 0.0
C15 C 0.30338 0.75629 0.77183 0.0
C16 C 0.28191 0.76624 0.74254 0.0
C17 C 0.25181 0.74808 0.73794 0.0
H18 H 0.7309 0.78707 0.26279 0.0
H19 H 0.83576 0.77857 0.27794 0.0
H20 H 0.78224 0.69718 0.21985 0.0
C21 C 0.75364 0.77256 0.25897 0.0
C22 C 0.75329 0.74082 0.23877 0.0
C23 C 0.78338 0.78601 0.27358 0.0
C24 C 0.81288 0.76743 0.26757 0.0
C25 C 0.8131 0.73497 0.24865 0.0
C26 C 0.7829 0.72194 0.23459 0.0
H27 H 0.71106 0.24188 0.76314 0.0
H28 H 0.81025 0.27311 0.73654 0.0
H29 H 0.76373 0.31063 0.83796 0.0
C30 C 0.73319 0.25659 0.77013 0.0
C31 C 0.73433 0.27591 0.80374 0.0
C32 C 0.76032 0.25526 0.74573 0.0
C33 C 0.78909 0.2742 0.75511 0.0
C34 C 0.79052 0.29466 0.78825 0.0
C35 C 0.76293 0.29525 0.81235 0.0
H36 H 0.72958 0.81348 0.77388 0.0
H37 H 0.74149 0.70369 0.79447 0.0
H38 H 0.81616 0.76051 0.73355 0.0
C39 C 0.74419 0.78984 0.77154 0.0
C40 C 0.77388 0.79021 0.75112 0.0
C41 C 0.73237 0.75856 0.78706 0.0
C42 C 0.75103 0.72782 0.78286 0.0
C43 C 0.78172 0.72801 0.76419 0.0
C44 C 0.79264 0.75946 0.74798 0.0
H45 H 0.73995 0.1996 0.26169 0.0
H46 H 0.73661 0.30893 0.23273 0.0
H47 H 0.81777 0.26768 0.29758 0.0
C48 C 0.75033 0.22572 0.26271 0.0
C49 C 0.77967 0.23131 0.28293 0.0
C50 C 0.73443 0.25352 0.2442 0.0
C51 C 0.74906 0.28711 0.24585 0.0
C52 C 0.77942 0.29282 0.26476 0.0
C53 C 0.79421 0.26452 0.28342 0.0
H54 H 0.21295 0.25816 0.71222 0.0
H55 H 0.29023 0.22544 0.78707 0.0
H56 H 0.24305 0.32508 0.8035 0.0
C57 C 0.22827 0.26293 0.73673 0.0
C58 C 0.22492 0.29449 0.75666 0.0
C59 C 0.25173 0.23788 0.74748 0.0
C60 C 0.27177 0.24449 0.77908 0.0
C61 C 0.26924 0.27593 0.79946 0.0
C62 C 0.24533 0.30067 0.78821 0.0
H63 H 0.19809 0.73777 0.2927 0.0
H64 H 0.27535 0.68448 0.23191 0.0
H65 H 0.28507 0.79333 0.25769 0.0
C66 C 0.2216 0.73779 0.27838 0.0
C67 C 0.2405 0.76872 0.27836 0.0
C68 C 0.23339 0.70692 0.26127 0.0
C69 C 0.26467 0.70798 0.24373 0.0
C70 C 0.28291 0.73921 0.24152 0.0
C71 C 0.27051 0.7695 0.25849 0.0
C72 C 0.95263 0.46979 0.26622 0.0
C73 C 0.0616 0.52806 0.27237 0.0
O74 O 0.96787 0.47737 0.2966 0.0
Zn75 Zn 1.00714 0.4989 0.27338 0.0
O76 O 0.96597 0.47691 0.23458 0.0
Zn77 Zn 1.00891 0.49981 0.21145 0.0
O78 O 0.03076 0.46029 0.18589 0.0
O79 O 0.02976 0.45522 0.24776 0.0
O80 O 0.05016 0.52172 0.2395 0.0
O81 O 0.04468 0.51991 0.30125 0.0
O82 O 0.9874 0.54393 0.24785 0.0
O83 O 0.9899 0.54088 0.18586 0.0
C84 C 0.03774 0.4431 0.21549 0.0
C85 C 0.982 0.55748 0.21563 0.0
C86 C 0.97265 0.46528 0.79541 0.0
C87 C 0.04984 0.5632 0.77122 0.0
O88 O 0.98897 0.4813 0.82102 0.0
Zn89 Zn 1.01171 0.51443 0.78743 0.0
O90 O 0.9762 0.47434 0.76107 0.0
Zn91 Zn 1.00178 0.51054 0.7267 0.0
O92 O 0.03014 0.47888 0.69719 0.0
O93 O 0.04258 0.47981 0.7576 0.0
O94 O 0.03561 0.54986 0.74239 0.0
O95 O 0.0433 0.55111 0.8037 0.0
O96 O 0.97049 0.54296 0.76782 0.0
O97 O 0.96448 0.53794 0.70628 0.0
C98 C 0.04783 0.46803 0.72449 0.0
C99 C 0.95453 0.55003 0.7377 0.0
C100 C 0.29457 0.9531 0.55278 0.0
C101 C 0.28236 0.04337 0.45499 0.0
O102 O 0.26499 0.96435 0.5482 0.0
Zn103 Zn 0.23817 1.00135 0.51498 0.0
O104 O 0.31782 0.96582 0.53291 0.0
Zn105 Zn 0.29106 0.99896 0.50419 0.0
O106 O 0.27683 0.03429 0.54645 0.0
O107 O 0.22265 0.0347 0.5532 0.0
O108 O 0.30963 0.0302 0.46588 0.0
O109 O 0.25534 0.0344 0.47098 0.0
O110 O 0.2083 0.97054 0.48663 0.0
O111 O 0.26103 0.96452 0.47192 0.0
C112 C 0.25108 0.04591 0.56303 0.0
C113 C 0.23072 0.95569 0.46722 0.0
C114 C 0.56415 0.70124 0.07014 0.0
C115 C 0.47134 0.69406 0.98209 0.0
O116 O 0.55116 0.67361 0.05652 0.0
Zn117 Zn 0.51766 0.69609 0.02605 0.0
O118 O 0.55299 0.73121 0.06027 0.0
Zn119 Zn 0.51534 0.75242 0.02452 0.0
O120 O 0.48578 0.77631 0.06054 0.0
O121 O 0.48731 0.71905 0.06763 0.0
O122 O 0.48032 0.72552 0.98943 0.0
O123 O 0.4856 0.6685 0.99811 0.0
O124 O 0.54545 0.72009 0.98224 0.0
O125 O 0.54187 0.77761 0.9871 0.0
C126 C 0.47672 0.749 0.07816 0.0
C127 C 0.55292 0.75064 0.97022 0.0
C128 C 0.82173 0.9767 0.57324 0.0
C129 C 0.83251 0.06015 0.47101 0.0
O130 O 0.79389 0.9841 0.55804 0.0
Zn131 Zn 0.77582 0.01649 0.51384 0.0
O132 O 0.84815 0.99067 0.56123 0.0
Zn133 Zn 0.82823 0.01893 0.52221 0.0
O134 O 0.80074 0.05704 0.55338 0.0
O135 O 0.74786 0.04996 0.54004 0.0
O136 O 0.85597 0.04846 0.49125 0.0
O137 O 0.80263 0.05045 0.47684 0.0
O138 O 0.75703 0.98267 0.47816 0.0
O139 O 0.8116 0.98217 0.48042 0.0
C140 C 0.77057 0.06637 0.55765 0.0
C141 C 0.78444 0.97101 0.46599 0.0
C142 C 0.54066 0.25268 0.07602 0.0
C143 C 0.45047 0.27797 0.98599 0.0
O144 O 0.51972 0.23027 0.06393 0.0
Zn145 Zn 0.49465 0.26208 0.03134 0.0
O146 O 0.5386 0.28457 0.0654 0.0
Zn147 Zn 0.50939 0.31757 0.03051 0.0
O148 O 0.48831 0.34893 0.06803 0.0
O149 O 0.47228 0.29388 0.07173 0.0
O150 O 0.46843 0.30421 0.99555 0.0
O151 O 0.45673 0.248 0.99982 0.0
O152 O 0.53061 0.2757 0.9914 0.0
O153 O 0.54312 0.33189 0.99341 0.0
C154 C 0.47104 0.32531 0.08392 0.0
C155 C 0.54744 0.30159 0.97912 0.0
H156 H 0.20541 0.33761 0.20252 0.0
H157 H 0.16868 0.28175 0.30043 0.0
H158 H 0.11387 0.3061 0.28957 0.0
H159 H 0.16432 0.41572 0.22725 0.0
H160 H 0.15632 0.42894 0.17952 0.0
H161 H 0.19143 0.40184 0.18998 0.0
H162 H 0.17052 0.3561 0.14145 0.0
H163 H 0.13499 0.38291 0.13135 0.0
H164 H 0.12945 0.3382 0.14597 0.0
H165 H 0.0641 0.33893 0.27245 0.0
H166 H 0.02531 0.38632 0.25736 0.0
H167 H 0.0942 0.42732 0.17541 0.0
C168 C 0.18613 0.33024 0.2219 0.0
C169 C 0.19199 0.30639 0.25177 0.0
C170 C 0.16528 0.29821 0.27611 0.0
C171 C 0.13374 0.31222 0.27039 0.0
C172 C 0.12901 0.33527 0.24076 0.0
C173 C 0.15457 0.34498 0.21744 0.0
C174 C 0.14385 0.37422 0.19125 0.0
C175 C 0.16524 0.40712 0.19739 0.0
C176 C 0.14476 0.36212 0.15006 0.0
C177 C 0.10851 0.37994 0.20429 0.0
C178 C 0.10034 0.35632 0.23212 0.0
C179 C 0.07005 0.35736 0.25046 0.0
C180 C 0.04811 0.38429 0.24158 0.0
C181 C 0.0566 0.41012 0.21489 0.0
C182 C 0.0867 0.40725 0.19502 0.0
H183 H 0.20609 0.68651 0.81516 0.0
H184 H 0.20941 0.70646 0.69498 0.0
H185 H 0.15759 0.67357 0.68687 0.0
H186 H 0.17996 0.59783 0.80572 0.0
H187 H 0.15411 0.59844 0.84688 0.0
H188 H 0.18956 0.62689 0.84426 0.0
H189 H 0.15203 0.68045 0.85674 0.0
H190 H 0.11639 0.65216 0.85922 0.0
H191 H 0.11686 0.68814 0.82665 0.0
H192 H 0.10712 0.63716 0.69078 0.0
H193 H 0.06292 0.59549 0.70511 0.0
H194 H 0.09365 0.59409 0.82226 0.0
C195 C 0.19613 0.68396 0.78702 0.0
C196 C 0.21202 0.69967 0.75577 0.0
C197 C 0.19759 0.69573 0.71962 0.0
C198 C 0.16816 0.67682 0.71464 0.0
C199 C 0.15348 0.66159 0.74595 0.0
C200 C 0.16706 0.6646 0.78139 0.0
C201 C 0.14744 0.64351 0.80982 0.0
C202 C 0.16906 0.61497 0.82771 0.0
C203 C 0.13228 0.66751 0.83989 0.0
C204 C 0.12091 0.62778 0.78462 0.0
C205 C 0.12474 0.63912 0.74803 0.0
C206 C 0.10386 0.62808 0.7193 0.0
C207 C 0.07876 0.60428 0.72787 0.0
C208 C 0.07473 0.59122 0.76489 0.0
C209 C 0.0959 0.60363 0.79378 0.0
H210 H 0.83036 0.68656 0.19281 0.0
H211 H 0.86799 0.73541 0.29521 0.0
H212 H 0.91959 0.70324 0.28817 0.0
H213 H 0.8589 0.60294 0.21822 0.0
H214 H 0.8681 0.58916 0.17091 0.0
H215 H 0.83641 0.6212 0.17915 0.0
H216 H 0.86625 0.6639 0.13413 0.0
H217 H 0.89834 0.63208 0.12621 0.0
H218 H 0.90889 0.67532 0.14275 0.0
H219 H 0.96526 0.66342 0.2743 0.0
H220 H 0.99835 0.61104 0.26083 0.0
H221 H 0.93003 0.58151 0.172 0.0
C222 C 0.84922 0.69077 0.21394 0.0
C223 C 0.84473 0.71483 0.24406 0.0
C224 C 0.8707 0.71883 0.27075 0.0
C225 C 0.90033 0.70034 0.26721 0.0
C226 C 0.90374 0.6771 0.23733 0.0
C227 C 0.87868 0.67157 0.21162 0.0
C228 C 0.88698 0.64131 0.18546 0.0
C229 C 0.86106 0.61192 0.18865 0.0
C230 C 0.89032 0.65392 0.14471 0.0
C231 C 0.92023 0.63015 0.20131 0.0
C232 C 0.9297 0.65202 0.2305 0.0
C233 C 0.9583 0.64628 0.25132 0.0
C234 C 0.97696 0.6165 0.24338 0.0
C235 C 0.96687 0.59252 0.21518 0.0
C236 C 0.93874 0.59998 0.19296 0.0
H237 H 0.82845 0.33338 0.73997 0.0
H238 H 0.81993 0.30509 0.85748 0.0
H239 H 0.86682 0.34425 0.87296 0.0
H240 H 0.91856 0.33831 0.7381 0.0
H241 H 0.91852 0.37484 0.70624 0.0
H242 H 0.88526 0.34344 0.70478 0.0
H243 H 0.84285 0.39347 0.71415 0.0
H244 H 0.87597 0.42495 0.71584 0.0
H245 H 0.84701 0.42229 0.75411 0.0
H246 H 0.91382 0.38984 0.87555 0.0
H247 H 0.9563 0.43567 0.86415 0.0
H248 H 0.93356 0.43119 0.74492 0.0
C249 C 0.83679 0.33479 0.76887 0.0
C250 C 0.82037 0.31612 0.79745 0.0
C251 C 0.83179 0.31945 0.83507 0.0
C252 C 0.85856 0.34149 0.84414 0.0
C253 C 0.87387 0.35991 0.81528 0.0
C254 C 0.86345 0.35651 0.77837 0.0
C255 C 0.88327 0.3797 0.75255 0.0
C256 C 0.90255 0.35775 0.72372 0.0
C257 C 0.86094 0.4067 0.73303 0.0
C258 C 0.90626 0.39697 0.78064 0.0
C259 C 0.90069 0.38538 0.81673 0.0
C260 C 0.91854 0.39886 0.84728 0.0
C261 C 0.94259 0.42488 0.84061 0.0
C262 C 0.94848 0.43703 0.80369 0.0
C263 C 0.93003 0.42251 0.77356 0.0
H264 H 0.30097 0.22372 0.34372 0.0
H265 H 0.22349 0.18498 0.26969 0.0
H266 H 0.22483 0.12815 0.30197 0.0
H267 H 0.3469 0.14041 0.35028 0.0
H268 H 0.35721 0.14685 0.39913 0.0
H269 H 0.3519 0.18407 0.36878 0.0
H270 H 0.30778 0.20921 0.41394 0.0
H271 H 0.31299 0.17217 0.44442 0.0
H272 H 0.27256 0.18271 0.42633 0.0
H273 H 0.23082 0.07771 0.34475 0.0
H274 H 0.24139 0.03587 0.39594 0.0
H275 H 0.31687 0.1047 0.4417 0.0
C276 C 0.28468 0.20306 0.33395 0.0
C277 C 0.26191 0.20897 0.30428 0.0
C278 C 0.24072 0.18137 0.29269 0.0
C279 C 0.24151 0.14885 0.31064 0.0
C280 C 0.26385 0.14404 0.34002 0.0
C281 C 0.28519 0.17024 0.3516 0.0
C282 C 0.30567 0.15847 0.38513 0.0
C283 C 0.34262 0.15738 0.37523 0.0
C284 C 0.29936 0.18204 0.41948 0.0
C285 C 0.29194 0.12187 0.39106 0.0
C286 C 0.26796 0.11417 0.36445 0.0
C287 C 0.24992 0.08315 0.36533 0.0
C288 C 0.25608 0.05957 0.39448 0.0
C289 C 0.28029 0.06684 0.42223 0.0
C290 C 0.29889 0.09814 0.42018 0.0
H291 H 0.3644 0.73693 0.80089 0.0
H292 H 0.28024 0.69388 0.86126 0.0
H293 H 0.31748 0.67384 0.91102 0.0
H294 H 0.42648 0.67465 0.82866 0.0
H295 H 0.4581 0.70736 0.83563 0.0
H296 H 0.42571 0.71441 0.80161 0.0
H297 H 0.41029 0.77284 0.83423 0.0
H298 H 0.4429 0.76619 0.86796 0.0
H299 H 0.40111 0.77308 0.88376 0.0
H300 H 0.36387 0.65838 0.95515 0.0
H301 H 0.41426 0.65835 0.99511 0.0
H302 H 0.46594 0.71906 0.9111 0.0
C303 C 0.35343 0.72354 0.82448 0.0
C304 C 0.31905 0.7163 0.82594 0.0
C305 C 0.30645 0.69855 0.85794 0.0
C306 C 0.32744 0.68719 0.88679 0.0
C307 C 0.36103 0.6945 0.88409 0.0
C308 C 0.37383 0.71304 0.85423 0.0
C309 C 0.41022 0.7209 0.86014 0.0
C310 C 0.43137 0.70327 0.8297 0.0
C311 C 0.41648 0.7606 0.86163 0.0
C312 C 0.41572 0.70413 0.89813 0.0
C313 C 0.38726 0.68817 0.911 0.0
C314 C 0.38631 0.67082 0.94542 0.0
C315 C 0.41498 0.67069 0.96777 0.0
C316 C 0.4437 0.68853 0.95588 0.0
C317 C 0.44418 0.70506 0.92052 0.0
H318 H 0.74233 0.80769 0.33114 0.0
H319 H 0.82701 0.83985 0.26496 0.0
H320 H 0.83392 0.89188 0.30523 0.0
H321 H 0.71084 0.89791 0.34935 0.0
H322 H 0.69799 0.88747 0.39645 0.0
H323 H 0.6977 0.85409 0.36054 0.0
H324 H 0.73497 0.81521 0.40227 0.0
H325 H 0.73566 0.84854 0.43813 0.0
H326 H 0.77392 0.83223 0.41913 0.0
H327 H 0.83607 0.936 0.35582 0.0
H328 H 0.83059 0.9736 0.41167 0.0
H329 H 0.7426 0.91648 0.44483 0.0
C330 C 0.76179 0.82619 0.32462 0.0
C331 C 0.78432 0.81955 0.29502 0.0
C332 C 0.80977 0.8441 0.28774 0.0
C333 C 0.8138 0.87384 0.31035 0.0
C334 C 0.79193 0.87904 0.33996 0.0
C335 C 0.76609 0.8563 0.34694 0.0
C336 C 0.74701 0.86767 0.38167 0.0
C337 C 0.71126 0.87736 0.37138 0.0
C338 C 0.74796 0.83921 0.41209 0.0
C339 C 0.76675 0.89976 0.39356 0.0
C340 C 0.79253 0.90565 0.36894 0.0
C341 C 0.81568 0.93206 0.37496 0.0
C342 C 0.81247 0.95312 0.40693 0.0
C343 C 0.78611 0.94806 0.43246 0.0
C344 C 0.76269 0.92122 0.42546 0.0
H345 H 0.70651 0.32955 0.84616 0.0
H346 H 0.69812 0.21834 0.82193 0.0
H347 H 0.64865 0.215 0.86136 0.0
H348 H 0.68184 0.32185 0.94462 0.0
H349 H 0.65945 0.36255 0.94509 0.0
H350 H 0.69421 0.35702 0.9141 0.0
H351 H 0.65714 0.37322 0.85735 0.0
H352 H 0.62218 0.37845 0.88811 0.0
H353 H 0.61968 0.3488 0.84871 0.0
H354 H 0.59991 0.22293 0.89995 0.0
H355 H 0.55625 0.2398 0.94337 0.0
H356 H 0.59591 0.34562 0.94871 0.0
C357 C 0.69442 0.30447 0.84946 0.0
C358 C 0.70586 0.27434 0.8301 0.0
C359 C 0.68933 0.24201 0.83535 0.0
C360 C 0.66127 0.23976 0.85791 0.0
C361 C 0.6502 0.26993 0.87569 0.0
C362 C 0.66636 0.30158 0.87246 0.0
C363 C 0.64929 0.32954 0.89597 0.0
C364 C 0.67259 0.34356 0.92678 0.0
C365 C 0.63631 0.35926 0.87103 0.0
C366 C 0.621 0.30846 0.91264 0.0
C367 C 0.62213 0.27428 0.89999 0.0
C368 C 0.59886 0.24951 0.91042 0.0
C369 C 0.57404 0.25955 0.9352 0.0
C370 C 0.57261 0.29409 0.94992 0.0
C371 C 0.59627 0.31907 0.93803 0.0
H372 H 0.24193 0.81704 0.71126 0.0
H373 H 0.34326 0.77985 0.71284 0.0
H374 H 0.35847 0.82478 0.6663 0.0
H375 H 0.23788 0.83194 0.61274 0.0
H376 H 0.2125 0.87044 0.61678 0.0
H377 H 0.21022 0.83687 0.65201 0.0
H378 H 0.22368 0.88267 0.70376 0.0
H379 H 0.22595 0.9164 0.66867 0.0
H380 H 0.26047 0.90911 0.6998 0.0
H381 H 0.362 0.87286 0.6168 0.0
H382 H 0.35325 0.91969 0.56982 0.0
H383 H 0.24944 0.92356 0.60019 0.0
C384 C 0.26734 0.81822 0.70188 0.0
C385 C 0.29137 0.7948 0.716 0.0
C386 C 0.32443 0.79776 0.70308 0.0
C387 C 0.3333 0.8231 0.67639 0.0
C388 C 0.30888 0.8454 0.66275 0.0
C389 C 0.27659 0.84321 0.67518 0.0
C390 C 0.25477 0.86954 0.65543 0.0
C391 C 0.22722 0.85109 0.6329 0.0
C392 C 0.24038 0.896 0.6836 0.0
C393 C 0.27972 0.88669 0.6297 0.0
C394 C 0.31085 0.8726 0.63433 0.0
C395 C 0.33771 0.88415 0.61308 0.0
C396 C 0.33252 0.91075 0.58643 0.0
C397 C 0.3007 0.9254 0.58119 0.0
C398 C 0.27414 0.91307 0.60336 0.0
H399 H 0.70888 0.77922 0.19798 0.0
H400 H 0.72895 0.67363 0.23582 0.0
H401 H 0.68192 0.65176 0.19785 0.0
H402 H 0.61821 0.7711 0.19668 0.0
H403 H 0.61429 0.79779 0.15528 0.0
H404 H 0.64809 0.80506 0.18751 0.0
H405 H 0.68961 0.79738 0.13278 0.0
H406 H 0.65602 0.78966 0.10051 0.0
H407 H 0.68857 0.75783 0.10505 0.0
H408 H 0.63483 0.64102 0.15194 0.0
H409 H 0.58979 0.64292 0.10472 0.0
H410 H 0.6005 0.75576 0.09837 0.0
C411 C 0.7029 0.75162 0.19907 0.0
C412 C 0.72262 0.72815 0.21989 0.0
C413 C 0.71437 0.69207 0.21981 0.0
C414 C 0.68764 0.67942 0.19844 0.0
C415 C 0.66924 0.70318 0.17746 0.0
C416 C 0.67632 0.73858 0.17796 0.0
C417 C 0.65351 0.75852 0.15198 0.0
C418 C 0.63226 0.78466 0.1742 0.0
C419 C 0.67311 0.77692 0.12074 0.0
C420 C 0.63279 0.72879 0.1364 0.0
C421 C 0.64215 0.69705 0.15141 0.0
C422 C 0.6271 0.66579 0.14027 0.0
C423 C 0.60165 0.6671 0.11332 0.0
C424 C 0.59151 0.69946 0.09788 0.0
C425 C 0.60745 0.73058 0.10972 0.0
H426 H 0.80642 0.20865 0.71832 0.0
H427 H 0.7088 0.25068 0.69593 0.0
H428 H 0.70102 0.20766 0.64482 0.0
H429 H 0.82712 0.18996 0.61885 0.0
H430 H 0.84902 0.15046 0.63059 0.0
H431 H 0.84773 0.18625 0.66364 0.0
H432 H 0.82393 0.14454 0.71403 0.0
H433 H 0.82468 0.10877 0.68102 0.0
H434 H 0.78658 0.12035 0.70402 0.0
H435 H 0.70166 0.15649 0.60002 0.0
H436 H 0.71309 0.10446 0.56064 0.0
H437 H 0.81097 0.09706 0.61034 0.0
C438 C 0.78378 0.20939 0.70202 0.0
C439 C 0.75814 0.23294 0.71134 0.0
C440 C 0.72863 0.23262 0.68965 0.0
C441 C 0.724 0.20833 0.66048 0.0
C442 C 0.74924 0.18467 0.6529 0.0
C443 C 0.77878 0.18534 0.67259 0.0
C444 C 0.80157 0.1564 0.65936 0.0
C445 C 0.83323 0.17169 0.64208 0.0
C446 C 0.80965 0.13102 0.69153 0.0
C447 C 0.78 0.13906 0.62969 0.0
C448 C 0.74988 0.15569 0.62644 0.0
C449 C 0.72535 0.1435 0.60198 0.0
C450 C 0.73197 0.1138 0.57988 0.0
C451 C 0.76294 0.09675 0.58221 0.0
C452 C 0.78714 0.10966 0.60759 0.0
H453 H 0.33952 0.25699 0.22592 0.0
H454 H 0.30154 0.36253 0.23846 0.0
H455 H 0.34848 0.38484 0.20112 0.0
H456 H 0.42814 0.28126 0.23308 0.0
H457 H 0.43929 0.24781 0.19965 0.0
H458 H 0.40431 0.24143 0.23012 0.0
H459 H 0.3669 0.23012 0.17197 0.0
H460 H 0.40156 0.23667 0.14139 0.0
H461 H 0.36477 0.26259 0.13544 0.0
H462 H 0.39734 0.3939 0.15466 0.0
H463 H 0.442 0.38786 0.10703 0.0
H464 H 0.44847 0.27728 0.13255 0.0
C465 C 0.34141 0.285 0.22236 0.0
C466 C 0.3165 0.30779 0.23545 0.0
C467 C 0.31985 0.34419 0.22838 0.0
C468 C 0.34669 0.35725 0.20747 0.0
C469 C 0.37042 0.33373 0.19448 0.0
C470 C 0.36813 0.29842 0.20236 0.0
C471 C 0.39542 0.27789 0.18389 0.0
C472 C 0.41814 0.26112 0.21345 0.0
C473 C 0.3813 0.25022 0.15656 0.0
C474 C 0.4129 0.30687 0.16322 0.0
C475 C 0.39851 0.33906 0.16951 0.0
C476 C 0.40916 0.36888 0.15021 0.0
C477 C 0.43458 0.36532 0.1233 0.0
C478 C 0.44871 0.33215 0.11604 0.0
C479 C 0.43827 0.30309 0.13733 0.0
H480 H 0.8253 0.70601 0.70829 0.0
H481 H 0.78729 0.67731 0.81821 0.0
H482 H 0.82232 0.62522 0.81793 0.0
H483 H 0.83723 0.61722 0.67107 0.0
H484 H 0.87581 0.62789 0.64858 0.0
H485 H 0.84455 0.661 0.65435 0.0
H486 H 0.8867 0.70072 0.68915 0.0
H487 H 0.91809 0.66787 0.68332 0.0
H488 H 0.90835 0.68402 0.72962 0.0
H489 H 0.8633 0.57906 0.80913 0.0
H490 H 0.91158 0.54284 0.79433 0.0
H491 H 0.92727 0.60144 0.69167 0.0
C492 C 0.82417 0.68882 0.73233 0.0
C493 C 0.8027 0.69582 0.76297 0.0
C494 C 0.80234 0.6723 0.79371 0.0
C495 C 0.82243 0.64258 0.79399 0.0
C496 C 0.84319 0.63667 0.76356 0.0
C497 C 0.84456 0.65916 0.73341 0.0
C498 C 0.87137 0.64803 0.70596 0.0
C499 C 0.85633 0.63793 0.66772 0.0
C500 C 0.89768 0.67687 0.70178 0.0
C501 C 0.88527 0.61621 0.72596 0.0
C502 C 0.8681 0.61004 0.75884 0.0
C503 C 0.87682 0.58343 0.78337 0.0
C504 C 0.90436 0.56307 0.77472 0.0
C505 C 0.92313 0.56933 0.74187 0.0
C506 C 0.91303 0.59576 0.71663 0.0
H507 H 0.82089 0.32305 0.31835 0.0
H508 H 0.77909 0.34095 0.20733 0.0
H509 H 0.81294 0.39397 0.2015 0.0
H510 H 0.8348 0.41577 0.34585 0.0
H511 H 0.87401 0.40609 0.36763 0.0
H512 H 0.8416 0.37362 0.36699 0.0
H513 H 0.88122 0.32955 0.33505 0.0
H514 H 0.91367 0.3618 0.33557 0.0
H515 H 0.9014 0.34154 0.29186 0.0
H516 H 0.85587 0.43999 0.20331 0.0
H517 H 0.90668 0.4746 0.21119 0.0
H518 H 0.92483 0.4252 0.31887 0.0
C519 C 0.81849 0.3381 0.29282 0.0
C520 C 0.79686 0.32743 0.26338 0.0
C521 C 0.79457 0.34859 0.23083 0.0
C522 C 0.81395 0.37882 0.2271 0.0
C523 C 0.83576 0.38768 0.25602 0.0
C524 C 0.83824 0.36795 0.28825 0.0
C525 C 0.8665 0.38075 0.31303 0.0
C526 C 0.85344 0.39491 0.35061 0.0
C527 C 0.89221 0.35169 0.31922 0.0
C528 C 0.8803 0.41 0.28898 0.0
C529 C 0.86163 0.41392 0.25662 0.0
C530 C 0.87042 0.43747 0.22872 0.0
C531 C 0.89947 0.45692 0.23344 0.0
C532 C 0.91973 0.45265 0.26568 0.0
C533 C 0.90954 0.42948 0.29429 0.0
H534 H 0.18343 0.33486 0.79975 0.0
H535 H 0.21112 0.31433 0.68406 0.0
H536 H 0.16849 0.35577 0.66232 0.0
H537 H 0.09687 0.34222 0.78428 0.0
H538 H 0.09142 0.37721 0.81775 0.0
H539 H 0.12438 0.3462 0.82404 0.0
H540 H 0.16717 0.3968 0.82606 0.0
H541 H 0.13429 0.42798 0.82005 0.0
H542 H 0.16862 0.42762 0.78789 0.0
H543 H 0.12097 0.39918 0.65326 0.0
H544 H 0.07515 0.44209 0.65863 0.0
H545 H 0.08078 0.43418 0.78013 0.0
C546 C 0.18087 0.33938 0.76986 0.0
C547 C 0.20052 0.32106 0.74369 0.0
C548 C 0.19599 0.32753 0.70474 0.0
C549 C 0.17193 0.35119 0.69206 0.0
C550 C 0.15266 0.36843 0.71864 0.0
C551 C 0.15709 0.36296 0.75674 0.0
C552 C 0.13326 0.38463 0.77963 0.0
C553 C 0.11012 0.36115 0.80278 0.0
C554 C 0.15196 0.41082 0.80489 0.0
C555 C 0.11469 0.40306 0.74853 0.0
C556 C 0.12601 0.39344 0.71347 0.0
C557 C 0.11202 0.40701 0.68064 0.0
C558 C 0.08597 0.43127 0.68389 0.0
C559 C 0.07441 0.4417 0.71971 0.0
C560 C 0.08906 0.42709 0.75222 0.0
H561 H 0.18563 0.68525 0.31326 0.0
H562 H 0.23399 0.6527 0.20969 0.0
H563 H 0.20194 0.59855 0.21013 0.0
H564 H 0.17187 0.59897 0.35479 0.0
H565 H 0.13083 0.60962 0.3707 0.0
H566 H 0.16178 0.64345 0.36711 0.0
H567 H 0.12319 0.67924 0.32365 0.0
H568 H 0.09205 0.64579 0.32753 0.0
H569 H 0.10648 0.65899 0.28186 0.0
H570 H 0.16287 0.55003 0.21806 0.0
H571 H 0.11287 0.51447 0.22698 0.0
H572 H 0.08386 0.58031 0.32073 0.0
C573 C 0.18972 0.66706 0.29046 0.0
C574 C 0.21347 0.67365 0.26192 0.0
C575 C 0.21742 0.64832 0.23298 0.0
C576 C 0.19902 0.61727 0.23275 0.0
C577 C 0.17603 0.61188 0.26113 0.0
C578 C 0.17073 0.63631 0.28902 0.0
C579 C 0.14129 0.62608 0.31315 0.0
C580 C 0.1521 0.61911 0.35386 0.0
C581 C 0.11415 0.65419 0.31142 0.0
C582 C 0.13042 0.59251 0.29372 0.0
C583 C 0.15157 0.58447 0.26447 0.0
C584 C 0.14622 0.55591 0.24096 0.0
C585 C 0.11774 0.53586 0.2463 0.0
C586 C 0.0946 0.5446 0.2746 0.0
C587 C 0.10152 0.57262 0.29946 0.0
H588 H 0.78842 0.79688 0.67693 0.0
H589 H 0.78289 0.85567 0.78103 0.0
H590 H 0.80027 0.90934 0.7474 0.0
H591 H 0.85892 0.84273 0.63583 0.0
H592 H 0.84171 0.84144 0.58906 0.0
H593 H 0.83197 0.80729 0.62202 0.0
H594 H 0.76939 0.81905 0.61264 0.0
H595 H 0.77893 0.85304 0.57956 0.0
H596 H 0.75361 0.86261 0.61988 0.0
H597 H 0.81667 0.95678 0.70169 0.0
H598 H 0.82522 0.99535 0.64664 0.0
H599 H 0.81687 0.90587 0.57229 0.0
C600 C 0.7914 0.821 0.69267 0.0
C601 C 0.78479 0.82227 0.73156 0.0
C602 C 0.78803 0.85433 0.75121 0.0
C603 C 0.79805 0.88478 0.7324 0.0
C604 C 0.80438 0.88266 0.69394 0.0
C605 C 0.80083 0.85163 0.67424 0.0
C606 C 0.80644 0.85681 0.6326 0.0
C607 C 0.83656 0.83582 0.6191 0.0
C608 C 0.77523 0.84733 0.60985 0.0
C609 C 0.81329 0.89572 0.63176 0.0
C610 C 0.81262 0.91007 0.6675 0.0
C611 C 0.8175 0.94577 0.67365 0.0
C612 C 0.8225 0.96741 0.64239 0.0
C613 C 0.8222 0.95323 0.60568 0.0
C614 C 0.8178 0.91701 0.6003 0.0
H615 H 0.71312 0.28486 0.17857 0.0
H616 H 0.68355 0.20804 0.26167 0.0
H617 H 0.63286 0.19586 0.22528 0.0
H618 H 0.63185 0.32016 0.1653 0.0
H619 H 0.63777 0.32802 0.11587 0.0
H620 H 0.67268 0.32881 0.14736 0.0
H621 H 0.70174 0.28192 0.1064 0.0
H622 H 0.66671 0.28071 0.07503 0.0
H623 H 0.681 0.24104 0.09686 0.0
H624 H 0.58457 0.19191 0.17885 0.0
H625 H 0.54111 0.2015 0.13048 0.0
H626 H 0.60097 0.28358 0.08136 0.0
C627 C 0.69597 0.26569 0.1895 0.0
C628 C 0.70289 0.24718 0.22297 0.0
C629 C 0.67955 0.22205 0.23569 0.0
C630 C 0.65047 0.21501 0.21528 0.0
C631 C 0.64467 0.23353 0.18229 0.0
C632 C 0.66661 0.25869 0.1698 0.0
C633 C 0.65393 0.27624 0.13456 0.0
C634 C 0.64874 0.31563 0.14119 0.0
C635 C 0.67724 0.26956 0.10125 0.0
C636 C 0.62132 0.25725 0.12933 0.0
C637 C 0.61653 0.2323 0.15673 0.0
C638 C 0.58807 0.21146 0.15732 0.0
C639 C 0.5636 0.21689 0.12967 0.0
C640 C 0.56763 0.24332 0.10234 0.0
C641 C 0.59711 0.26329 0.10206 0.0
H642 H 0.20497 0.19712 0.71061 0.0
H643 H 0.31083 0.20747 0.72961 0.0
H644 H 0.32061 0.15692 0.68854 0.0
H645 H 0.20212 0.10157 0.70321 0.0
H646 H 0.17209 0.10171 0.66567 0.0
H647 H 0.17255 0.13664 0.69983 0.0
H648 H 0.17805 0.18202 0.64635 0.0
H649 H 0.17765 0.14728 0.61205 0.0
H650 H 0.21148 0.17805 0.61322 0.0
H651 H 0.32001 0.10856 0.64342 0.0
H652 H 0.30952 0.06462 0.59472 0.0
H653 H 0.20403 0.08568 0.60083 0.0
C654 C 0.23021 0.18869 0.70629 0.0
C655 C 0.25708 0.20612 0.72399 0.0
C656 C 0.2897 0.1941 0.71746 0.0
C657 C 0.29559 0.16551 0.69388 0.0
C658 C 0.26866 0.14926 0.67672 0.0
C659 C 0.23662 0.16031 0.68241 0.0
C660 C 0.21247 0.1393 0.65849 0.0
C661 C 0.18838 0.11857 0.68329 0.0
C662 C 0.19382 0.16309 0.63089 0.0
C663 C 0.23614 0.11513 0.63806 0.0
C664 C 0.26834 0.12131 0.64947 0.0
C665 C 0.29492 0.10332 0.63432 0.0
C666 C 0.28859 0.07843 0.60648 0.0
C667 C 0.25588 0.07168 0.59373 0.0
C668 C 0.22924 0.09012 0.61007 0.0
H669 H 0.30563 0.78174 0.18476 0.0
H670 H 0.33478 0.697 0.2583 0.0
H671 H 0.38997 0.69592 0.22882 0.0
H672 H 0.34493 0.74822 0.10344 0.0
H673 H 0.35751 0.79015 0.08536 0.0
H674 H 0.3215 0.78689 0.11472 0.0
H675 H 0.34655 0.83301 0.16015 0.0
H676 H 0.38279 0.83623 0.13099 0.0
H677 H 0.38698 0.82581 0.18012 0.0
H678 H 0.43995 0.70105 0.18974 0.0
H679 H 0.48121 0.70881 0.13981 0.0
H680 H 0.42092 0.78985 0.08941 0.0
C681 C 0.32391 0.76336 0.19489 0.0
C682 C 0.31613 0.73949 0.22388 0.0
C683 C 0.3403 0.71535 0.23605 0.0
C684 C 0.37174 0.71475 0.21967 0.0
C685 C 0.37863 0.73839 0.19102 0.0
C686 C 0.35543 0.76211 0.17844 0.0
C687 C 0.36856 0.78263 0.1451 0.0
C688 C 0.34684 0.7766 0.11009 0.0
C689 C 0.37139 0.82175 0.15467 0.0
C690 C 0.4025 0.76619 0.14049 0.0
C691 C 0.40779 0.74112 0.16776 0.0
C692 C 0.43627 0.72083 0.16848 0.0
C693 C 0.45956 0.72545 0.13998 0.0
C694 C 0.4544 0.75013 0.11099 0.0
C695 C 0.42584 0.77141 0.11174 0.0
H696 H 0.79263 0.23068 0.35777 0.0
H697 H 0.79992 0.16743 0.25693 0.0
H698 H 0.824 0.11907 0.29426 0.0
H699 H 0.86738 0.19788 0.40647 0.0
H700 H 0.8474 0.19828 0.45167 0.0
H701 H 0.83554 0.2295 0.41629 0.0
H702 H 0.77451 0.2091 0.42122 0.0
H703 H 0.78614 0.17823 0.45681 0.0
H704 H 0.76475 0.16339 0.41517 0.0
H705 H 0.84278 0.07634 0.34322 0.0
H706 H 0.84832 0.04024 0.40051 0.0
H707 H 0.82635 0.13058 0.46951 0.0
C708 C 0.8 0.20685 0.34355 0.0
C709 C 0.79495 0.20268 0.30457 0.0
C710 C 0.80385 0.17095 0.28682 0.0
C711 C 0.81776 0.14358 0.30772 0.0
C712 C 0.82234 0.14844 0.34628 0.0
C713 C 0.81337 0.17918 0.36407 0.0
C714 C 0.81704 0.1764 0.40628 0.0
C715 C 0.84342 0.20204 0.42104 0.0
C716 C 0.78363 0.18209 0.42601 0.0
C717 C 0.82858 0.13893 0.40965 0.0
C718 C 0.83232 0.12351 0.37467 0.0
C719 C 0.84057 0.0883 0.3707 0.0
C720 C 0.84392 0.06807 0.40328 0.0
C721 C 0.83876 0.08313 0.43907 0.0
C722 C 0.83163 0.11902 0.44236 0.0
H723 H 0.29646 0.23039 0.85164 0.0
H724 H 0.29842 0.33905 0.81626 0.0
H725 H 0.34241 0.35117 0.86238 0.0
H726 H 0.31522 0.24547 0.95119 0.0
H727 H 0.34141 0.20754 0.95468 0.0
H728 H 0.30754 0.20789 0.92165 0.0
H729 H 0.34808 0.19354 0.86761 0.0
H730 H 0.3821 0.19333 0.90039 0.0
H731 H 0.38334 0.22152 0.85993 0.0
H732 H 0.38853 0.35111 0.90856 0.0
H733 H 0.43351 0.33951 0.9531 0.0
H734 H 0.4045 0.23008 0.95772 0.0
C735 C 0.30596 0.25682 0.85361 0.0
C736 C 0.29353 0.2838 0.8302 0.0
C737 C 0.3067 0.31802 0.83423 0.0
C738 C 0.33201 0.32514 0.8602 0.0
C739 C 0.34411 0.29781 0.88202 0.0
C740 C 0.33152 0.26435 0.87917 0.0
C741 C 0.35022 0.2394 0.90471 0.0
C742 C 0.32722 0.22418 0.93485 0.0
C743 C 0.36692 0.21023 0.88178 0.0
C744 C 0.37562 0.26404 0.92194 0.0
C745 C 0.37136 0.29763 0.90852 0.0
C746 C 0.39197 0.32498 0.91944 0.0
C747 C 0.41759 0.31799 0.94481 0.0
C748 C 0.42273 0.28381 0.95913 0.0
C749 C 0.40129 0.25648 0.94745 0.0
H750 H 0.28122 0.8079 0.32271 0.0
H751 H 0.1782 0.79669 0.29036 0.0
H752 H 0.16317 0.84333 0.33576 0.0
H753 H 0.26842 0.82147 0.419 0.0
H754 H 0.30139 0.85296 0.42399 0.0
H755 H 0.30364 0.81978 0.38812 0.0
H756 H 0.31071 0.86744 0.33705 0.0
H757 H 0.30892 0.90078 0.37284 0.0
H758 H 0.28069 0.90207 0.33358 0.0
H759 H 0.16007 0.89102 0.38767 0.0
H760 H 0.16989 0.93563 0.43758 0.0
H761 H 0.27504 0.91376 0.43255 0.0
C762 C 0.25554 0.8157 0.32434 0.0
C763 C 0.23096 0.79878 0.30268 0.0
C764 C 0.1975 0.80918 0.30678 0.0
C765 C 0.18874 0.8357 0.33242 0.0
C766 C 0.21374 0.85153 0.35364 0.0
C767 C 0.24648 0.84194 0.34949 0.0
C768 C 0.26888 0.86216 0.37566 0.0
C769 C 0.28661 0.83762 0.40332 0.0
C770 C 0.29375 0.88444 0.35345 0.0
C771 C 0.24374 0.88467 0.39542 0.0
C772 C 0.21199 0.87837 0.38266 0.0
C773 C 0.1849 0.89622 0.39767 0.0
C774 C 0.19064 0.92137 0.42607 0.0
C775 C 0.22321 0.92834 0.43888 0.0
C776 C 0.24981 0.9094 0.42333 0.0
H777 H 0.71101 0.79948 0.84614 0.0
H778 H 0.68139 0.71397 0.77295 0.0
H779 H 0.62935 0.70767 0.8083 0.0
H780 H 0.68214 0.7619 0.92964 0.0
H781 H 0.66788 0.80203 0.95075 0.0
H782 H 0.70099 0.803 0.91711 0.0
H783 H 0.6681 0.847 0.87651 0.0
H784 H 0.63483 0.84619 0.9101 0.0
H785 H 0.62673 0.83614 0.86141 0.0
H786 H 0.58389 0.70635 0.8542 0.0
H787 H 0.5472 0.70934 0.90917 0.0
H788 H 0.60452 0.79604 0.95405 0.0
C789 C 0.69313 0.78002 0.83716 0.0
C790 C 0.70006 0.75726 0.80672 0.0
C791 C 0.67653 0.73156 0.79621 0.0
C792 C 0.64685 0.72793 0.81599 0.0
C793 C 0.64098 0.75025 0.84625 0.0
C794 C 0.66333 0.77585 0.85689 0.0
C795 C 0.65189 0.79444 0.89239 0.0
C796 C 0.67723 0.79006 0.92436 0.0
C797 C 0.64497 0.83325 0.88463 0.0
C798 C 0.62009 0.77463 0.90051 0.0
C799 C 0.61426 0.74953 0.87317 0.0
C800 C 0.58789 0.72621 0.87548 0.0
C801 C 0.56725 0.72806 0.90686 0.0
C802 C 0.57287 0.7531 0.93559 0.0
C803 C 0.59926 0.7772 0.93203 0.0
loop_
_geom_bond_atom_site_label_1
_geom_bond_atom_site_label_2
_geom_bond_distance
_geom_bond_site_symmetry_2
_ccdc_geom_bond_type
H0 C3 0.931 . S
H1 C6 0.928 . S
H2 C8 0.930 . S
C3 H0 0.931 . S
C3 C4 1.413 . S
C3 C5 1.360 . S
C4 C3 1.413 . S
C4 C8 1.429 . S
C5 C3 1.360 . S
C5 C6 1.372 . S
C6 H1 0.928 . S
C6 C5 1.372 . S
C6 C7 1.404 . S
C7 C6 1.404 . S
C7 C8 1.391 . S
C8 H2 0.930 . S
C8 C4 1.429 . S
C8 C7 1.391 . S
H9 C12 0.931 . S
H10 C15 0.928 . S
H11 C17 0.930 . S
C12 H9 0.931 . S
C12 C13 1.413 . S
C12 C14 1.360 . S
C13 C12 1.413 . S
C13 C17 1.429 . S
C14 C12 1.360 . S
C14 C15 1.372 . S
C15 H10 0.928 . S
C15 C14 1.372 . S
C15 C16 1.404 . S
C16 C15 1.404 . S
C16 C17 1.391 . S
C17 H11 0.930 . S
C17 C13 1.429 . S
C17 C16 1.391 . S
H18 C21 0.931 . S
H19 C24 0.928 . S
H20 C26 0.930 . S
C21 H18 0.931 . S
C21 C22 1.413 . S
C21 C23 1.360 . S
C22 C21 1.413 . S
C22 C26 1.429 . S
C23 C21 1.360 . S
C23 C24 1.372 . S
C24 H19 0.928 . S
C24 C23 1.372 . S
C24 C25 1.404 . S
C25 C24 1.404 . S
C25 C26 1.391 . S
C26 H20 0.930 . S
C26 C22 1.429 . S
C26 C25 1.391 . S
H27 C30 0.931 . S
H28 C33 0.928 . S
H29 C35 0.930 . S
C30 H27 0.931 . S
C30 C31 1.413 . S
C30 C32 1.360 . S
C31 C30 1.413 . S
C31 C35 1.429 . S
C32 C30 1.360 . S
C32 C33 1.372 . S
C33 H28 0.928 . S
C33 C32 1.372 . S
C33 C34 1.404 . S
C34 C33 1.404 . S
C34 C35 1.391 . S
C35 H29 0.930 . S
C35 C31 1.429 . S
C35 C34 1.391 . S
H36 C39 0.931 . S
H37 C42 0.928 . S
H38 C44 0.930 . S
C39 H36 0.931 . S
C39 C40 1.413 . S
C39 C41 1.360 . S
C40 C39 1.413 . S
C40 C44 1.429 . S
C41 C39 1.360 . S
C41 C42 1.372 . S
C42 H37 0.928 . S
C42 C41 1.372 . S
C42 C43 1.404 . S
C43 C42 1.404 . S
C43 C44 1.391 . S
C44 H38 0.930 . S
C44 C40 1.429 . S
C44 C43 1.391 . S
H45 C48 0.931 . S
H46 C51 0.928 . S
H47 C53 0.930 . S
C48 H45 0.931 . S
C48 C49 1.413 . S
C48 C50 1.360 . S
C49 C48 1.413 . S
C49 C53 1.429 . S
C50 C48 1.360 . S
C50 C51 1.372 . S
C51 H46 0.928 . S
C51 C50 1.372 . S
C51 C52 1.404 . S
C52 C51 1.404 . S
C52 C53 1.391 . S
C53 H47 0.930 . S
C53 C49 1.429 . S
C53 C52 1.391 . S
H54 C57 0.931 . S
H55 C60 0.928 . S
H56 C62 0.930 . S
C57 H54 0.931 . S
C57 C58 1.413 . S
C57 C59 1.360 . S
C58 C57 1.413 . S
C58 C62 1.429 . S
C59 C57 1.360 . S
C59 C60 1.372 . S
C60 H55 0.928 . S
C60 C59 1.372 . S
C60 C61 1.404 . S
C61 C60 1.404 . S
C61 C62 1.391 . S
C62 H56 0.930 . S
C62 C58 1.429 . S
C62 C61 1.391 . S
H63 C66 0.931 . S
H64 C69 0.928 . S
H65 C71 0.930 . S
C66 H63 0.931 . S
C66 C67 1.413 . S
C66 C68 1.360 . S
C67 C66 1.413 . S
C67 C71 1.429 . S
C68 C66 1.360 . S
C68 C69 1.372 . S
C69 H64 0.928 . S
C69 C68 1.372 . S
C69 C70 1.404 . S
C70 C69 1.404 . S
C70 C71 1.391 . S
C71 H65 0.930 . S
C71 C67 1.429 . S
C71 C70 1.391 . S
C72 O74 1.247 . S
C72 O76 1.258 . S
C73 O80 1.247 . S
C73 O81 1.258 . S
O74 C72 1.247 . S
O74 Zn75 2.028 1_655 S
Zn75 O74 2.028 1_455 S
Zn75 O79 2.035 . S
Zn75 O81 2.035 . S
Zn75 O82 2.028 1_455 S
O76 C72 1.258 . S
O76 Zn77 2.035 1_655 S
Zn77 O76 2.035 1_455 S
Zn77 O78 2.028 . S
Zn77 O80 2.028 . S
Zn77 O83 2.035 1_455 S
O78 Zn77 2.028 . S
O78 C84 1.247 . S
O79 Zn75 2.035 . S
O79 C84 1.258 . S
O80 C73 1.247 . S
O80 Zn77 2.028 . S
O81 C73 1.258 . S
O81 Zn75 2.035 . S
O82 Zn75 2.028 1_655 S
O82 C85 1.247 . S
O83 Zn77 2.035 1_655 S
O83 C85 1.258 . S
C84 O78 1.247 . S
C84 O79 1.258 . S
C85 O82 1.247 . S
C85 O83 1.258 . S
C86 O88 1.247 . S
C86 O90 1.258 . S
C87 O94 1.247 . S
C87 O95 1.258 . S
O88 C86 1.247 . S
O88 Zn89 2.028 1_655 S
Zn89 O88 2.028 1_455 S
Zn89 O93 2.035 . S
Zn89 O95 2.035 . S
Zn89 O96 2.028 1_455 S
O90 C86 1.258 . S
O90 Zn91 2.035 1_655 S
Zn91 O90 2.035 1_455 S
Zn91 O92 2.028 . S
Zn91 O94 2.028 . S
Zn91 O97 2.035 1_455 S
O92 Zn91 2.028 . S
O92 C98 1.247 . S
O93 Zn89 2.035 . S
O93 C98 1.258 . S
O94 C87 1.247 . S
O94 Zn91 2.028 . S
O95 C87 1.258 . S
O95 Zn89 2.035 . S
O96 Zn89 2.028 1_655 S
O96 C99 1.247 . S
O97 Zn91 2.035 1_655 S
O97 C99 1.258 . S
C98 O92 1.247 . S
C98 O93 1.258 . S
C99 O96 1.247 . S
C99 O97 1.258 . S
C100 O102 1.247 . S
C100 O104 1.258 . S
C101 O108 1.247 . S
C101 O109 1.258 . S
O102 C100 1.247 . S
O102 Zn103 2.024 1_565 S
Zn103 O102 2.024 1_545 S
Zn103 O107 2.039 . S
Zn103 O109 2.039 . S
Zn103 O110 2.025 1_545 S
O104 C100 1.258 . S
O104 Zn105 2.016 1_565 S
Zn105 O104 2.016 1_545 S
Zn105 O106 2.047 . S
Zn105 O108 2.047 . S
Zn105 O111 2.016 1_545 S
O106 Zn105 2.047 . S
O106 C112 1.247 . S
O107 Zn103 2.039 . S
O107 C112 1.258 . S
O108 C101 1.247 . S
O108 Zn105 2.047 . S
O109 C101 1.258 . S
O109 Zn103 2.039 . S
O110 Zn103 2.025 1_565 S
O110 C113 1.247 . S
O111 Zn105 2.016 1_565 S
O111 C113 1.258 . S
C112 O106 1.247 . S
C112 O107 1.258 . S
C113 O110 1.247 . S
C113 O111 1.258 . S
C114 O116 1.247 . S
C114 O118 1.258 . S
C115 O122 1.247 . S
C115 O123 1.258 . S
O116 C114 1.247 . S
O116 Zn117 2.026 . S
Zn117 O116 2.026 . S
Zn117 O121 2.033 . S
Zn117 O123 2.037 1_554 S
Zn117 O124 2.030 1_554 S
O118 C114 1.258 . S
O118 Zn119 2.047 . S
Zn119 O118 2.047 . S
Zn119 O120 2.040 . S
Zn119 O122 2.016 1_554 S
Zn119 O125 2.023 1_554 S
O120 Zn119 2.040 . S
O120 C126 1.247 . S
O121 Zn117 2.033 . S
O121 C126 1.258 . S
O122 C115 1.247 . S
O122 Zn119 2.016 1_556 S
O123 C115 1.258 . S
O123 Zn117 2.037 1_556 S
O124 Zn117 2.030 1_556 S
O124 C127 1.247 . S
O125 Zn119 2.023 1_556 S
O125 C127 1.258 . S
C126 O120 1.247 . S
C126 O121 1.258 . S
C127 O124 1.247 . S
C127 O125 1.258 . S
C128 O130 1.247 . S
C128 O132 1.258 . S
C129 O136 1.247 . S
C129 O137 1.258 . S
O130 C128 1.247 . S
O130 Zn131 2.028 . S
Zn131 O130 2.028 . S
Zn131 O135 2.036 1_565 S
Zn131 O137 2.036 1_565 S
Zn131 O138 2.028 . S
O132 C128 1.258 . S
O132 Zn133 2.024 1_565 S
Zn133 O132 2.024 1_545 S
Zn133 O134 2.039 . S
Zn133 O136 2.039 . S
Zn133 O139 2.024 1_545 S
O134 Zn133 2.039 . S
O134 C140 1.247 . S
O135 Zn131 2.036 1_545 S
O135 C140 1.258 . S
O136 C129 1.247 . S
O136 Zn133 2.039 . S
O137 C129 1.258 . S
O137 Zn131 2.036 1_545 S
O138 Zn131 2.028 . S
O138 C141 1.247 . S
O139 Zn133 2.024 1_565 S
O139 C141 1.258 . S
C140 O134 1.247 . S
C140 O135 1.258 . S
C141 O138 1.247 . S
C141 O139 1.258 . S
C142 O144 1.247 . S
C142 O146 1.258 . S
C143 O150 1.247 . S
C143 O151 1.258 . S
O144 C142 1.247 . S
O144 Zn145 2.028 . S
Zn145 O144 2.028 . S
Zn145 O149 2.035 . S
Zn145 O151 2.035 1_554 S
Zn145 O152 2.028 1_554 S
O146 C142 1.258 . S
O146 Zn147 2.035 . S
Zn147 O146 2.035 . S
Zn147 O148 2.028 . S
Zn147 O150 2.028 1_554 S
Zn147 O153 2.035 1_554 S
O148 Zn147 2.028 . S
O148 C154 1.247 . S
O149 Zn145 2.035 . S
O149 C154 1.258 . S
O150 C143 1.247 . S
O150 Zn147 2.028 1_556 S
O151 C143 1.258 . S
O151 Zn145 2.035 1_556 S
O152 Zn145 2.028 1_556 S
O152 C155 1.247 . S
O153 Zn147 2.035 1_556 S
O153 C155 1.258 . S
C154 O148 1.247 . S
C154 O149 1.258 . S
C155 O152 1.247 . S
C155 O153 1.258 . S
H156 C168 0.930 . S
H157 C170 0.930 . S
H158 C171 0.930 . S
H159 C175 0.959 . S
H160 C175 0.959 . S
H161 C175 0.961 . S
H162 C176 0.960 . S
H163 C176 0.961 . S
H164 C176 0.959 . S
H165 C179 0.929 . S
H166 C180 0.931 . S
H167 C182 0.930 . S
C168 H156 0.930 . S
C168 C169 1.399 . S
C168 C173 1.399 . S
C169 C168 1.399 . S
C169 C170 1.376 . S
C170 H157 0.930 . S
C170 C169 1.376 . S
C170 C171 1.388 . S
C171 H158 0.930 . S
C171 C170 1.388 . S
C171 C172 1.390 . S
C172 C171 1.390 . S
C172 C173 1.394 . S
C172 C178 1.465 . S
C173 C168 1.399 . S
C173 C172 1.394 . S
C173 C174 1.516 . S
C174 C173 1.516 . S
C174 C175 1.502 . S
C174 C176 1.561 . S
C174 C177 1.526 . S
C175 H159 0.959 . S
C175 H160 0.959 . S
C175 H161 0.961 . S
C175 C174 1.502 . S
C176 H162 0.960 . S
C176 H163 0.961 . S
C176 H164 0.959 . S
C176 C174 1.561 . S
C177 C174 1.526 . S
C177 C178 1.396 . S
C177 C182 1.390 . S
C178 C172 1.465 . S
C178 C177 1.396 . S
C178 C179 1.399 . S
C179 H165 0.929 . S
C179 C178 1.399 . S
C179 C180 1.385 . S
C180 H166 0.931 . S
C180 C179 1.385 . S
C180 C181 1.389 . S
C181 C180 1.389 . S
C181 C182 1.387 . S
C182 H167 0.930 . S
C182 C177 1.390 . S
C182 C181 1.387 . S
H183 C195 0.930 . S
H184 C197 0.930 . S
H185 C198 0.930 . S
H186 C202 0.959 . S
H187 C202 0.959 . S
H188 C202 0.961 . S
H189 C203 0.960 . S
H190 C203 0.961 . S
H191 C203 0.959 . S
H192 C206 0.929 . S
H193 C207 0.931 . S
H194 C209 0.930 . S
C195 H183 0.930 . S
C195 C196 1.399 . S
C195 C200 1.399 . S
C196 C195 1.399 . S
C196 C197 1.376 . S
C197 H184 0.930 . S
C197 C196 1.376 . S
C197 C198 1.388 . S
C198 H185 0.930 . S
C198 C197 1.388 . S
C198 C199 1.390 . S
C199 C198 1.390 . S
C199 C200 1.394 . S
C199 C205 1.465 . S
C200 C195 1.399 . S
C200 C199 1.394 . S
C200 C201 1.516 . S
C201 C200 1.516 . S
C201 C202 1.502 . S
C201 C203 1.561 . S
C201 C204 1.526 . S
C202 H186 0.959 . S
C202 H187 0.959 . S
C202 H188 0.961 . S
C202 C201 1.502 . S
C203 H189 0.960 . S
C203 H190 0.961 . S
C203 H191 0.959 . S
C203 C201 1.561 . S
C204 C201 1.526 . S
C204 C205 1.396 . S
C204 C209 1.390 . S
C205 C199 1.465 . S
C205 C204 1.396 . S
C205 C206 1.399 . S
C206 H192 0.929 . S
C206 C205 1.399 . S
C206 C207 1.385 . S
C207 H193 0.931 . S
C207 C206 1.385 . S
C207 C208 1.389 . S
C208 C207 1.389 . S
C208 C209 1.387 . S
C209 H194 0.930 . S
C209 C204 1.390 . S
C209 C208 1.387 . S
H210 C222 0.930 . S
H211 C224 0.930 . S
H212 C225 0.930 . S
H213 C229 0.959 . S
H214 C229 0.959 . S
H215 C229 0.961 . S
H216 C230 0.960 . S
H217 C230 0.961 . S
H218 C230 0.959 . S
H219 C233 0.929 . S
H220 C234 0.931 . S
H221 C236 0.930 . S
C222 H210 0.930 . S
C222 C223 1.399 . S
C222 C227 1.399 . S
C223 C222 1.399 . S
C223 C224 1.376 . S
C224 H211 0.930 . S
C224 C223 1.376 . S
C224 C225 1.388 . S
C225 H212 0.930 . S
C225 C224 1.388 . S
C225 C226 1.390 . S
C226 C225 1.390 . S
C226 C227 1.394 . S
C226 C232 1.465 . S
C227 C222 1.399 . S
C227 C226 1.394 . S
C227 C228 1.516 . S
C228 C227 1.516 . S
C228 C229 1.502 . S
C228 C230 1.561 . S
C228 C231 1.526 . S
C229 H213 0.959 . S
C229 H214 0.959 . S
C229 H215 0.961 . S
C229 C228 1.502 . S
C230 H216 0.960 . S
C230 H217 0.961 . S
C230 H218 0.959 . S
C230 C228 1.561 . S
C231 C228 1.526 . S
C231 C232 1.396 . S
C231 C236 1.390 . S
C232 C226 1.465 . S
C232 C231 1.396 . S
C232 C233 1.399 . S
C233 H219 0.929 . S
C233 C232 1.399 . S
C233 C234 1.385 . S
C234 H220 0.931 . S
C234 C233 1.385 . S
C234 C235 1.389 . S
C235 C234 1.389 . S
C235 C236 1.387 . S
C236 H221 0.930 . S
C236 C231 1.390 . S
C236 C235 1.387 . S
H237 C249 0.930 . S
H238 C251 0.930 . S
H239 C252 0.930 . S
H240 C256 0.959 . S
H241 C256 0.959 . S
H242 C256 0.961 . S
H243 C257 0.960 . S
H244 C257 0.961 . S
H245 C257 0.959 . S
H246 C260 0.929 . S
H247 C261 0.931 . S
H248 C263 0.930 . S
C249 H237 0.930 . S
C249 C250 1.399 . S
C249 C254 1.399 . S
C250 C249 1.399 . S
C250 C251 1.376 . S
C251 H238 0.930 . S
C251 C250 1.376 . S
C251 C252 1.388 . S
C252 H239 0.930 . S
C252 C251 1.388 . S
C252 C253 1.390 . S
C253 C252 1.390 . S
C253 C254 1.394 . S
C253 C259 1.465 . S
C254 C249 1.399 . S
C254 C253 1.394 . S
C254 C255 1.516 . S
C255 C254 1.516 . S
C255 C256 1.502 . S
C255 C257 1.561 . S
C255 C258 1.526 . S
C256 H240 0.959 . S
C256 H241 0.959 . S
C256 H242 0.961 . S
C256 C255 1.502 . S
C257 H243 0.960 . S
C257 H244 0.961 . S
C257 H245 0.959 . S
C257 C255 1.561 . S
C258 C255 1.526 . S
C258 C259 1.396 . S
C258 C263 1.390 . S
C259 C253 1.465 . S
C259 C258 1.396 . S
C259 C260 1.399 . S
C260 H246 0.929 . S
C260 C259 1.399 . S
C260 C261 1.385 . S
C261 H247 0.931 . S
C261 C260 1.385 . S
C261 C262 1.389 . S
C262 C261 1.389 . S
C262 C263 1.387 . S
C263 H248 0.930 . S
C263 C258 1.390 . S
C263 C262 1.387 . S
H264 C276 0.930 . S
H265 C278 0.930 . S
H266 C279 0.930 . S
H267 C283 0.959 . S
H268 C283 0.959 . S
H269 C283 0.961 . S
H270 C284 0.960 . S
H271 C284 0.961 . S
H272 C284 0.959 . S
H273 C287 0.929 . S
H274 C288 0.931 . S
H275 C290 0.930 . S
C276 H264 0.930 . S
C276 C277 1.399 . S
C276 C281 1.399 . S
C277 C276 1.399 . S
C277 C278 1.376 . S
C278 H265 0.930 . S
C278 C277 1.376 . S
C278 C279 1.388 . S
C279 H266 0.930 . S
C279 C278 1.388 . S
C279 C280 1.390 . S
C280 C279 1.390 . S
C280 C281 1.394 . S
C280 C286 1.465 . S
C281 C276 1.399 . S
C281 C280 1.394 . S
C281 C282 1.516 . S
C282 C281 1.516 . S
C282 C283 1.502 . S
C282 C284 1.561 . S
C282 C285 1.526 . S
C283 H267 0.959 . S
C283 H268 0.959 . S
C283 H269 0.961 . S
C283 C282 1.502 . S
C284 H270 0.960 . S
C284 H271 0.961 . S
C284 H272 0.959 . S
C284 C282 1.561 . S
C285 C282 1.526 . S
C285 C286 1.396 . S
C285 C290 1.390 . S
C286 C280 1.465 . S
C286 C285 1.396 . S
C286 C287 1.399 . S
C287 H273 0.929 . S
C287 C286 1.399 . S
C287 C288 1.385 . S
C288 H274 0.931 . S
C288 C287 1.385 . S
C288 C289 1.389 . S
C289 C288 1.389 . S
C289 C290 1.387 . S
C290 H275 0.930 . S
C290 C285 1.390 . S
C290 C289 1.387 . S
H291 C303 0.930 . S
H292 C305 0.930 . S
H293 C306 0.930 . S
H294 C310 0.959 . S
H295 C310 0.959 . S
H296 C310 0.961 . S
H297 C311 0.960 . S
H298 C311 0.961 . S
H299 C311 0.959 . S
H300 C314 0.929 . S
H301 C315 0.931 . S
H302 C317 0.930 . S
C303 H291 0.930 . S
C303 C304 1.399 . S
C303 C308 1.399 . S
C304 C303 1.399 . S
C304 C305 1.376 . S
C305 H292 0.930 . S
C305 C304 1.376 . S
C305 C306 1.388 . S
C306 H293 0.930 . S
C306 C305 1.388 . S
C306 C307 1.390 . S
C307 C306 1.390 . S
C307 C308 1.394 . S
C307 C313 1.465 . S
C308 C303 1.399 . S
C308 C307 1.394 . S
C308 C309 1.516 . S
C309 C308 1.516 . S
C309 C310 1.502 . S
C309 C311 1.561 . S
C309 C312 1.526 . S
C310 H294 0.959 . S
C310 H295 0.959 . S
C310 H296 0.961 . S
C310 C309 1.502 . S
C311 H297 0.960 . S
C311 H298 0.961 . S
C311 H299 0.959 . S
C311 C309 1.561 . S
C312 C309 1.526 . S
C312 C313 1.396 . S
C312 C317 1.390 . S
C313 C307 1.465 . S
C313 C312 1.396 . S
C313 C314 1.399 . S
C314 H300 0.929 . S
C314 C313 1.399 . S
C314 C315 1.385 . S
C315 H301 0.931 . S
C315 C314 1.385 . S
C315 C316 1.389 . S
C316 C315 1.389 . S
C316 C317 1.387 . S
C317 H302 0.930 . S
C317 C312 1.390 . S
C317 C316 1.387 . S
H318 C330 0.930 . S
H319 C332 0.930 . S
H320 C333 0.930 . S
H321 C337 0.959 . S
H322 C337 0.959 . S
H323 C337 0.961 . S
H324 C338 0.960 . S
H325 C338 0.961 . S
H326 C338 0.959 . S
H327 C341 0.929 . S
H328 C342 0.931 . S
H329 C344 0.930 . S
C330 H318 0.930 . S
C330 C331 1.399 . S
C330 C335 1.399 . S
C331 C330 1.399 . S
C331 C332 1.376 . S
C332 H319 0.930 . S
C332 C331 1.376 . S
C332 C333 1.388 . S
C333 H320 0.930 . S
C333 C332 1.388 . S
C333 C334 1.390 . S
C334 C333 1.390 . S
C334 C335 1.394 . S
C334 C340 1.465 . S
C335 C330 1.399 . S
C335 C334 1.394 . S
C335 C336 1.516 . S
C336 C335 1.516 . S
C336 C337 1.502 . S
C336 C338 1.561 . S
C336 C339 1.526 . S
C337 H321 0.959 . S
C337 H322 0.959 . S
C337 H323 0.961 . S
C337 C336 1.502 . S
C338 H324 0.960 . S
C338 H325 0.961 . S
C338 H326 0.959 . S
C338 C336 1.561 . S
C339 C336 1.526 . S
C339 C340 1.396 . S
C339 C344 1.390 . S
C340 C334 1.465 . S
C340 C339 1.396 . S
C340 C341 1.399 . S
C341 H327 0.929 . S
C341 C340 1.399 . S
C341 C342 1.385 . S
C342 H328 0.931 . S
C342 C341 1.385 . S
C342 C343 1.389 . S
C343 C342 1.389 . S
C343 C344 1.387 . S
C344 H329 0.930 . S
C344 C339 1.390 . S
C344 C343 1.387 . S
H345 C357 0.930 . S
H346 C359 0.930 . S
H347 C360 0.930 . S
H348 C364 0.959 . S
H349 C364 0.959 . S
H350 C364 0.961 . S
H351 C365 0.960 . S
H352 C365 0.961 . S
H353 C365 0.959 . S
H354 C368 0.929 . S
H355 C369 0.931 . S
H356 C371 0.930 . S
C357 H345 0.930 . S
C357 C358 1.399 . S
C357 C362 1.399 . S
C358 C357 1.399 . S
C358 C359 1.376 . S
C359 H346 0.930 . S
C359 C358 1.376 . S
C359 C360 1.388 . S
C360 H347 0.930 . S
C360 C359 1.388 . S
C360 C361 1.390 . S
C361 C360 1.390 . S
C361 C362 1.394 . S
C361 C367 1.465 . S
C362 C357 1.399 . S
C362 C361 1.394 . S
C362 C363 1.516 . S
C363 C362 1.516 . S
C363 C364 1.502 . S
C363 C365 1.561 . S
C363 C366 1.526 . S
C364 H348 0.959 . S
C364 H349 0.959 . S
C364 H350 0.961 . S
C364 C363 1.502 . S
C365 H351 0.960 . S
C365 H352 0.961 . S
C365 H353 0.959 . S
C365 C363 1.561 . S
C366 C363 1.526 . S
C366 C367 1.396 . S
C366 C371 1.390 . S
C367 C361 1.465 . S
C367 C366 1.396 . S
C367 C368 1.399 . S
C368 H354 0.929 . S
C368 C367 1.399 . S
C368 C369 1.385 . S
C369 H355 0.931 . S
C369 C368 1.385 . S
C369 C370 1.389 . S
C370 C369 1.389 . S
C370 C371 1.387 . S
C371 H356 0.930 . S
C371 C366 1.390 . S
C371 C370 1.387 . S
H372 C384 0.930 . S
H373 C386 0.930 . S
H374 C387 0.930 . S
H375 C391 0.959 . S
H376 C391 0.959 . S
H377 C391 0.961 . S
H378 C392 0.960 . S
H379 C392 0.961 . S
H380 C392 0.959 . S
H381 C395 0.929 . S
H382 C396 0.931 . S
H383 C398 0.930 . S
C384 H372 0.930 . S
C384 C385 1.399 . S
C384 C389 1.399 . S
C385 C384 1.399 . S
C385 C386 1.376 . S
C386 H373 0.930 . S
C386 C385 1.376 . S
C386 C387 1.388 . S
C387 H374 0.930 . S
C387 C386 1.388 . S
C387 C388 1.390 . S
C388 C387 1.390 . S
C388 C389 1.394 . S
C388 C394 1.465 . S
C389 C384 1.399 . S
C389 C388 1.394 . S
C389 C390 1.516 . S
C390 C389 1.516 . S
C390 C391 1.502 . S
C390 C392 1.561 . S
C390 C393 1.526 . S
C391 H375 0.959 . S
C391 H376 0.959 . S
C391 H377 0.961 . S
C391 C390 1.502 . S
C392 H378 0.960 . S
C392 H379 0.961 . S
C392 H380 0.959 . S
C392 C390 1.561 . S
C393 C390 1.526 . S
C393 C394 1.396 . S
C393 C398 1.390 . S
C394 C388 1.465 . S
C394 C393 1.396 . S
C394 C395 1.399 . S
C395 H381 0.929 . S
C395 C394 1.399 . S
C395 C396 1.385 . S
C396 H382 0.931 . S
C396 C395 1.385 . S
C396 C397 1.389 . S
C397 C396 1.389 . S
C397 C398 1.387 . S
C398 H383 0.930 . S
C398 C393 1.390 . S
C398 C397 1.387 . S
H399 C411 0.930 . S
H400 C413 0.930 . S
H401 C414 0.930 . S
H402 C418 0.959 . S
H403 C418 0.959 . S
H404 C418 0.961 . S
H405 C419 0.960 . S
H406 C419 0.961 . S
H407 C419 0.959 . S
H408 C422 0.929 . S
H409 C423 0.931 . S
H410 C425 0.930 . S
C411 H399 0.930 . S
C411 C412 1.399 . S
C411 C416 1.399 . S
C412 C411 1.399 . S
C412 C413 1.376 . S
C413 H400 0.930 . S
C413 C412 1.376 . S
C413 C414 1.388 . S
C414 H401 0.930 . S
C414 C413 1.388 . S
C414 C415 1.390 . S
C415 C414 1.390 . S
C415 C416 1.394 . S
C415 C421 1.465 . S
C416 C411 1.399 . S
C416 C415 1.394 . S
C416 C417 1.516 . S
C417 C416 1.516 . S
C417 C418 1.502 . S
C417 C419 1.561 . S
C417 C420 1.526 . S
C418 H402 0.959 . S
C418 H403 0.959 . S
C418 H404 0.961 . S
C418 C417 1.502 . S
C419 H405 0.960 . S
C419 H406 0.961 . S
C419 H407 0.959 . S
C419 C417 1.561 . S
C420 C417 1.526 . S
C420 C421 1.396 . S
C420 C425 1.390 . S
C421 C415 1.465 . S
C421 C420 1.396 . S
C421 C422 1.399 . S
C422 H408 0.929 . S
C422 C421 1.399 . S
C422 C423 1.385 . S
C423 H409 0.931 . S
C423 C422 1.385 . S
C423 C424 1.389 . S
C424 C423 1.389 . S
C424 C425 1.387 . S
C425 H410 0.930 . S
C425 C420 1.390 . S
C425 C424 1.387 . S
H426 C438 0.930 . S
H427 C440 0.930 . S
H428 C441 0.930 . S
H429 C445 0.959 . S
H430 C445 0.959 . S
H431 C445 0.961 . S
H432 C446 0.960 . S
H433 C446 0.961 . S
H434 C446 0.959 . S
H435 C449 0.929 . S
H436 C450 0.931 . S
H437 C452 0.930 . S
C438 H426 0.930 . S
C438 C439 1.399 . S
C438 C443 1.399 . S
C439 C438 1.399 . S
C439 C440 1.376 . S
C440 H427 0.930 . S
C440 C439 1.376 . S
C440 C441 1.388 . S
C441 H428 0.930 . S
C441 C440 1.388 . S
C441 C442 1.390 . S
C442 C441 1.390 . S
C442 C443 1.394 . S
C442 C448 1.465 . S
C443 C438 1.399 . S
C443 C442 1.394 . S
C443 C444 1.516 . S
C444 C443 1.516 . S
C444 C445 1.502 . S
C444 C446 1.561 . S
C444 C447 1.526 . S
C445 H429 0.959 . S
C445 H430 0.959 . S
C445 H431 0.961 . S
C445 C444 1.502 . S
C446 H432 0.960 . S
C446 H433 0.961 . S
C446 H434 0.959 . S
C446 C444 1.561 . S
C447 C444 1.526 . S
C447 C448 1.396 . S
C447 C452 1.390 . S
C448 C442 1.465 . S
C448 C447 1.396 . S
C448 C449 1.399 . S
C449 H435 0.929 . S
C449 C448 1.399 . S
C449 C450 1.385 . S
C450 H436 0.931 . S
C450 C449 1.385 . S
C450 C451 1.389 . S
C451 C450 1.389 . S
C451 C452 1.387 . S
C452 H437 0.930 . S
C452 C447 1.390 . S
C452 C451 1.387 . S
H453 C465 0.930 . S
H454 C467 0.930 . S
H455 C468 0.930 . S
H456 C472 0.959 . S
H457 C472 0.959 . S
H458 C472 0.961 . S
H459 C473 0.960 . S
H460 C473 0.961 . S
H461 C473 0.959 . S
H462 C476 0.929 . S
H463 C477 0.931 . S
H464 C479 0.930 . S
C465 H453 0.930 . S
C465 C466 1.399 . S
C465 C470 1.399 . S
C466 C465 1.399 . S
C466 C467 1.376 . S
C467 H454 0.930 . S
C467 C466 1.376 . S
C467 C468 1.388 . S
C468 H455 0.930 . S
C468 C467 1.388 . S
C468 C469 1.390 . S
C469 C468 1.390 . S
C469 C470 1.394 . S
C469 C475 1.465 . S
C470 C465 1.399 . S
C470 C469 1.394 . S
C470 C471 1.516 . S
C471 C470 1.516 . S
C471 C472 1.502 . S
C471 C473 1.561 . S
C471 C474 1.526 . S
C472 H456 0.959 . S
C472 H457 0.959 . S
C472 H458 0.961 . S
C472 C471 1.502 . S
C473 H459 0.960 . S
C473 H460 0.961 . S
C473 H461 0.959 . S
C473 C471 1.561 . S
C474 C471 1.526 . S
C474 C475 1.396 . S
C474 C479 1.390 . S
C475 C469 1.465 . S
C475 C474 1.396 . S
C475 C476 1.399 . S
C476 H462 0.929 . S
C476 C475 1.399 . S
C476 C477 1.385 . S
C477 H463 0.931 . S
C477 C476 1.385 . S
C477 C478 1.389 . S
C478 C477 1.389 . S
C478 C479 1.387 . S
C479 H464 0.930 . S
C479 C474 1.390 . S
C479 C478 1.387 . S
H480 C492 0.930 . S
H481 C494 0.930 . S
H482 C495 0.930 . S
H483 C499 0.959 . S
H484 C499 0.959 . S
H485 C499 0.961 . S
H486 C500 0.960 . S
H487 C500 0.961 . S
H488 C500 0.959 . S
H489 C503 0.929 . S
H490 C504 0.931 . S
H491 C506 0.930 . S
C492 H480 0.930 . S
C492 C493 1.399 . S
C492 C497 1.399 . S
C493 C492 1.399 . S
C493 C494 1.376 . S
C494 H481 0.930 . S
C494 C493 1.376 . S
C494 C495 1.388 . S
C495 H482 0.930 . S
C495 C494 1.388 . S
C495 C496 1.390 . S
C496 C495 1.390 . S
C496 C497 1.394 . S
C496 C502 1.465 . S
C497 C492 1.399 . S
C497 C496 1.394 . S
C497 C498 1.516 . S
C498 C497 1.516 . S
C498 C499 1.502 . S
C498 C500 1.561 . S
C498 C501 1.526 . S
C499 H483 0.959 . S
C499 H484 0.959 . S
C499 H485 0.961 . S
C499 C498 1.502 . S
C500 H486 0.960 . S
C500 H487 0.961 . S
C500 H488 0.959 . S
C500 C498 1.561 . S
C501 C498 1.526 . S
C501 C502 1.396 . S
C501 C506 1.390 . S
C502 C496 1.465 . S
C502 C501 1.396 . S
C502 C503 1.399 . S
C503 H489 0.929 . S
C503 C502 1.399 . S
C503 C504 1.385 . S
C504 H490 0.931 . S
C504 C503 1.385 . S
C504 C505 1.389 . S
C505 C504 1.389 . S
C505 C506 1.387 . S
C506 H491 0.930 . S
C506 C501 1.390 . S
C506 C505 1.387 . S
H507 C519 0.930 . S
H508 C521 0.930 . S
H509 C522 0.930 . S
H510 C526 0.959 . S
H511 C526 0.959 . S
H512 C526 0.961 . S
H513 C527 0.960 . S
H514 C527 0.961 . S
H515 C527 0.959 . S
H516 C530 0.929 . S
H517 C531 0.931 . S
H518 C533 0.930 . S
C519 H507 0.930 . S
C519 C520 1.399 . S
C519 C524 1.399 . S
C520 C519 1.399 . S
C520 C521 1.376 . S
C521 H508 0.930 . S
C521 C520 1.376 . S
C521 C522 1.388 . S
C522 H509 0.930 . S
C522 C521 1.388 . S
C522 C523 1.390 . S
C523 C522 1.390 . S
C523 C524 1.394 . S
C523 C529 1.465 . S
C524 C519 1.399 . S
C524 C523 1.394 . S
C524 C525 1.516 . S
C525 C524 1.516 . S
C525 C526 1.502 . S
C525 C527 1.561 . S
C525 C528 1.526 . S
C526 H510 0.959 . S
C526 H511 0.959 . S
C526 H512 0.961 . S
C526 C525 1.502 . S
C527 H513 0.960 . S
C527 H514 0.961 . S
C527 H515 0.959 . S
C527 C525 1.561 . S
C528 C525 1.526 . S
C528 C529 1.396 . S
C528 C533 1.390 . S
C529 C523 1.465 . S
C529 C528 1.396 . S
C529 C530 1.399 . S
C530 H516 0.929 . S
C530 C529 1.399 . S
C530 C531 1.385 . S
C531 H517 0.931 . S
C531 C530 1.385 . S
C531 C532 1.389 . S
C532 C531 1.389 . S
C532 C533 1.387 . S
C533 H518 0.930 . S
C533 C528 1.390 . S
C533 C532 1.387 . S
H534 C546 0.930 . S
H535 C548 0.930 . S
H536 C549 0.930 . S
H537 C553 0.959 . S
H538 C553 0.959 . S
H539 C553 0.961 . S
H540 C554 0.960 . S
H541 C554 0.961 . S
H542 C554 0.959 . S
H543 C557 0.929 . S
H544 C558 0.931 . S
H545 C560 0.930 . S
C546 H534 0.930 . S
C546 C547 1.399 . S
C546 C551 1.399 . S
C547 C546 1.399 . S
C547 C548 1.376 . S
C548 H535 0.930 . S
C548 C547 1.376 . S
C548 C549 1.388 . S
C549 H536 0.930 . S
C549 C548 1.388 . S
C549 C550 1.390 . S
C550 C549 1.390 . S
C550 C551 1.394 . S
C550 C556 1.465 . S
C551 C546 1.399 . S
C551 C550 1.394 . S
C551 C552 1.516 . S
C552 C551 1.516 . S
C552 C553 1.502 . S
C552 C554 1.561 . S
C552 C555 1.526 . S
C553 H537 0.959 . S
C553 H538 0.959 . S
C553 H539 0.961 . S
C553 C552 1.502 . S
C554 H540 0.960 . S
C554 H541 0.961 . S
C554 H542 0.959 . S
C554 C552 1.561 . S
C555 C552 1.526 . S
C555 C556 1.396 . S
C555 C560 1.390 . S
C556 C550 1.465 . S
C556 C555 1.396 . S
C556 C557 1.399 . S
C557 H543 0.929 . S
C557 C556 1.399 . S
C557 C558 1.385 . S
C558 H544 0.931 . S
C558 C557 1.385 . S
C558 C559 1.389 . S
C559 C558 1.389 . S
C559 C560 1.387 . S
C560 H545 0.930 . S
C560 C555 1.390 . S
C560 C559 1.387 . S
H561 C573 0.930 . S
H562 C575 0.930 . S
H563 C576 0.930 . S
H564 C580 0.959 . S
H565 C580 0.959 . S
H566 C580 0.961 . S
H567 C581 0.960 . S
H568 C581 0.961 . S
H569 C581 0.959 . S
H570 C584 0.929 . S
H571 C585 0.931 . S
H572 C587 0.930 . S
C573 H561 0.930 . S
C573 C574 1.399 . S
C573 C578 1.399 . S
C574 C573 1.399 . S
C574 C575 1.376 . S
C575 H562 0.930 . S
C575 C574 1.376 . S
C575 C576 1.388 . S
C576 H563 0.930 . S
C576 C575 1.388 . S
C576 C577 1.390 . S
C577 C576 1.390 . S
C577 C578 1.394 . S
C577 C583 1.465 . S
C578 C573 1.399 . S
C578 C577 1.394 . S
C578 C579 1.516 . S
C579 C578 1.516 . S
C579 C580 1.502 . S
C579 C581 1.561 . S
C579 C582 1.526 . S
C580 H564 0.959 . S
C580 H565 0.959 . S
C580 H566 0.961 . S
C580 C579 1.502 . S
C581 H567 0.960 . S
C581 H568 0.961 . S
C581 H569 0.959 . S
C581 C579 1.561 . S
C582 C579 1.526 . S
C582 C583 1.396 . S
C582 C587 1.390 . S
C583 C577 1.465 . S
C583 C582 1.396 . S
C583 C584 1.399 . S
C584 H570 0.929 . S
C584 C583 1.399 . S
C584 C585 1.385 . S
C585 H571 0.931 . S
C585 C584 1.385 . S
C585 C586 1.389 . S
C586 C585 1.389 . S
C586 C587 1.387 . S
C587 H572 0.930 . S
C587 C582 1.390 . S
C587 C586 1.387 . S
H588 C600 0.930 . S
H589 C602 0.930 . S
H590 C603 0.930 . S
H591 C607 0.959 . S
H592 C607 0.959 . S
H593 C607 0.961 . S
H594 C608 0.960 . S
H595 C608 0.961 . S
H596 C608 0.959 . S
H597 C611 0.929 . S
H598 C612 0.931 . S
H599 C614 0.930 . S
C600 H588 0.930 . S
C600 C601 1.399 . S
C600 C605 1.399 . S
C601 C600 1.399 . S
C601 C602 1.376 . S
C602 H589 0.930 . S
C602 C601 1.376 . S
C602 C603 1.388 . S
C603 H590 0.930 . S
C603 C602 1.388 . S
C603 C604 1.390 . S
C604 C603 1.390 . S
C604 C605 1.394 . S
C604 C610 1.465 . S
C605 C600 1.399 . S
C605 C604 1.394 . S
C605 C606 1.516 . S
C606 C605 1.516 . S
C606 C607 1.502 . S
C606 C608 1.561 . S
C606 C609 1.526 . S
C607 H591 0.959 . S
C607 H592 0.959 . S
C607 H593 0.961 . S
C607 C606 1.502 . S
C608 H594 0.960 . S
C608 H595 0.961 . S
C608 H596 0.959 . S
C608 C606 1.561 . S
C609 C606 1.526 . S
C609 C610 1.396 . S
C609 C614 1.390 . S
C610 C604 1.465 . S
C610 C609 1.396 . S
C610 C611 1.399 . S
C611 H597 0.929 . S
C611 C610 1.399 . S
C611 C612 1.385 . S
C612 H598 0.931 . S
C612 C611 1.385 . S
C612 C613 1.389 . S
C613 C612 1.389 . S
C613 C614 1.387 . S
C614 H599 0.930 . S
C614 C609 1.390 . S
C614 C613 1.387 . S
H615 C627 0.930 . S
H616 C629 0.930 . S
H617 C630 0.930 . S
H618 C634 0.959 . S
H619 C634 0.959 . S
H620 C634 0.961 . S
H621 C635 0.960 . S
H622 C635 0.961 . S
H623 C635 0.959 . S
H624 C638 0.929 . S
H625 C639 0.931 . S
H626 C641 0.930 . S
C627 H615 0.930 . S
C627 C628 1.399 . S
C627 C632 1.399 . S
C628 C627 1.399 . S
C628 C629 1.376 . S
C629 H616 0.930 . S
C629 C628 1.376 . S
C629 C630 1.388 . S
C630 H617 0.930 . S
C630 C629 1.388 . S
C630 C631 1.390 . S
C631 C630 1.390 . S
C631 C632 1.394 . S
C631 C637 1.465 . S
C632 C627 1.399 . S
C632 C631 1.394 . S
C632 C633 1.516 . S
C633 C632 1.516 . S
C633 C634 1.502 . S
C633 C635 1.561 . S
C633 C636 1.526 . S
C634 H618 0.959 . S
C634 H619 0.959 . S
C634 H620 0.961 . S
C634 C633 1.502 . S
C635 H621 0.960 . S
C635 H622 0.961 . S
C635 H623 0.959 . S
C635 C633 1.561 . S
C636 C633 1.526 . S
C636 C637 1.396 . S
C636 C641 1.390 . S
C637 C631 1.465 . S
C637 C636 1.396 . S
C637 C638 1.399 . S
C638 H624 0.929 . S
C638 C637 1.399 . S
C638 C639 1.385 . S
C639 H625 0.931 . S
C639 C638 1.385 . S
C639 C640 1.389 . S
C640 C639 1.389 . S
C640 C641 1.387 . S
C641 H626 0.930 . S
C641 C636 1.390 . S
C641 C640 1.387 . S
H642 C654 0.930 . S
H643 C656 0.930 . S
H644 C657 0.930 . S
H645 C661 0.959 . S
H646 C661 0.959 . S
H647 C661 0.961 . S
H648 C662 0.960 . S
H649 C662 0.961 . S
H650 C662 0.959 . S
H651 C665 0.929 . S
H652 C666 0.931 . S
H653 C668 0.930 . S
C654 H642 0.930 . S
C654 C655 1.399 . S
C654 C659 1.399 . S
C655 C654 1.399 . S
C655 C656 1.376 . S
C656 H643 0.930 . S
C656 C655 1.376 . S
C656 C657 1.388 . S
C657 H644 0.930 . S
C657 C656 1.388 . S
C657 C658 1.390 . S
C658 C657 1.390 . S
C658 C659 1.394 . S
C658 C664 1.465 . S
C659 C654 1.399 . S
C659 C658 1.394 . S
C659 C660 1.516 . S
C660 C659 1.516 . S
C660 C661 1.502 . S
C660 C662 1.561 . S
C660 C663 1.526 . S
C661 H645 0.959 . S
C661 H646 0.959 . S
C661 H647 0.961 . S
C661 C660 1.502 . S
C662 H648 0.960 . S
C662 H649 0.961 . S
C662 H650 0.959 . S
C662 C660 1.561 . S
C663 C660 1.526 . S
C663 C664 1.396 . S
C663 C668 1.390 . S
C664 C658 1.465 . S
C664 C663 1.396 . S
C664 C665 1.399 . S
C665 H651 0.929 . S
C665 C664 1.399 . S
C665 C666 1.385 . S
C666 H652 0.931 . S
C666 C665 1.385 . S
C666 C667 1.389 . S
C667 C666 1.389 . S
C667 C668 1.387 . S
C668 H653 0.930 . S
C668 C663 1.390 . S
C668 C667 1.387 . S
H669 C681 0.930 . S
H670 C683 0.930 . S
H671 C684 0.930 . S
H672 C688 0.959 . S
H673 C688 0.959 . S
H674 C688 0.961 . S
H675 C689 0.960 . S
H676 C689 0.961 . S
H677 C689 0.959 . S
H678 C692 0.929 . S
H679 C693 0.931 . S
H680 C695 0.930 . S
C681 H669 0.930 . S
C681 C682 1.399 . S
C681 C686 1.399 . S
C682 C681 1.399 . S
C682 C683 1.376 . S
C683 H670 0.930 . S
C683 C682 1.376 . S
C683 C684 1.388 . S
C684 H671 0.930 . S
C684 C683 1.388 . S
C684 C685 1.390 . S
C685 C684 1.390 . S
C685 C686 1.394 . S
C685 C691 1.465 . S
C686 C681 1.399 . S
C686 C685 1.394 . S
C686 C687 1.516 . S
C687 C686 1.516 . S
C687 C688 1.502 . S
C687 C689 1.561 . S
C687 C690 1.526 . S
C688 H672 0.959 . S
C688 H673 0.959 . S
C688 H674 0.961 . S
C688 C687 1.502 . S
C689 H675 0.960 . S
C689 H676 0.961 . S
C689 H677 0.959 . S
C689 C687 1.561 . S
C690 C687 1.526 . S
C690 C691 1.396 . S
C690 C695 1.390 . S
C691 C685 1.465 . S
C691 C690 1.396 . S
C691 C692 1.399 . S
C692 H678 0.929 . S
C692 C691 1.399 . S
C692 C693 1.385 . S
C693 H679 0.931 . S
C693 C692 1.385 . S
C693 C694 1.389 . S
C694 C693 1.389 . S
C694 C695 1.387 . S
C695 H680 0.930 . S
C695 C690 1.390 . S
C695 C694 1.387 . S
H696 C708 0.930 . S
H697 C710 0.930 . S
H698 C711 0.930 . S
H699 C715 0.959 . S
H700 C715 0.959 . S
H701 C715 0.961 . S
H702 C716 0.960 . S
H703 C716 0.961 . S
H704 C716 0.959 . S
H705 C719 0.929 . S
H706 C720 0.931 . S
H707 C722 0.930 . S
C708 H696 0.930 . S
C708 C709 1.399 . S
C708 C713 1.399 . S
C709 C708 1.399 . S
C709 C710 1.376 . S
C710 H697 0.930 . S
C710 C709 1.376 . S
C710 C711 1.388 . S
C711 H698 0.930 . S
C711 C710 1.388 . S
C711 C712 1.390 . S
C712 C711 1.390 . S
C712 C713 1.394 . S
C712 C718 1.465 . S
C713 C708 1.399 . S
C713 C712 1.394 . S
C713 C714 1.516 . S
C714 C713 1.516 . S
C714 C715 1.502 . S
C714 C716 1.561 . S
C714 C717 1.526 . S
C715 H699 0.959 . S
C715 H700 0.959 . S
C715 H701 0.961 . S
C715 C714 1.502 . S
C716 H702 0.960 . S
C716 H703 0.961 . S
C716 H704 0.959 . S
C716 C714 1.561 . S
C717 C714 1.526 . S
C717 C718 1.396 . S
C717 C722 1.390 . S
C718 C712 1.465 . S
C718 C717 1.396 . S
C718 C719 1.399 . S
C719 H705 0.929 . S
C719 C718 1.399 . S
C719 C720 1.385 . S
C720 H706 0.931 . S
C720 C719 1.385 . S
C720 C721 1.389 . S
C721 C720 1.389 . S
C721 C722 1.387 . S
C722 H707 0.930 . S
C722 C717 1.390 . S
C722 C721 1.387 . S
H723 C735 0.930 . S
H724 C737 0.930 . S
H725 C738 0.930 . S
H726 C742 0.959 . S
H727 C742 0.959 . S
H728 C742 0.961 . S
H729 C743 0.960 . S
H730 C743 0.961 . S
H731 C743 0.959 . S
H732 C746 0.929 . S
H733 C747 0.931 . S
H734 C749 0.930 . S
C735 H723 0.930 . S
C735 C736 1.399 . S
C735 C740 1.399 . S
C736 C735 1.399 . S
C736 C737 1.376 . S
C737 H724 0.930 . S
C737 C736 1.376 . S
C737 C738 1.388 . S
C738 H725 0.930 . S
C738 C737 1.388 . S
C738 C739 1.390 . S
C739 C738 1.390 . S
C739 C740 1.394 . S
C739 C745 1.465 . S
C740 C735 1.399 . S
C740 C739 1.394 . S
C740 C741 1.516 . S
C741 C740 1.516 . S
C741 C742 1.502 . S
C741 C743 1.561 . S
C741 C744 1.526 . S
C742 H726 0.959 . S
C742 H727 0.959 . S
C742 H728 0.961 . S
C742 C741 1.502 . S
C743 H729 0.960 . S
C743 H730 0.961 . S
C743 H731 0.959 . S
C743 C741 1.561 . S
C744 C741 1.526 . S
C744 C745 1.396 . S
C744 C749 1.390 . S
C745 C739 1.465 . S
C745 C744 1.396 . S
C745 C746 1.399 . S
C746 H732 0.929 . S
C746 C745 1.399 . S
C746 C747 1.385 . S
C747 H733 0.931 . S
C747 C746 1.385 . S
C747 C748 1.389 . S
C748 C747 1.389 . S
C748 C749 1.387 . S
C749 H734 0.930 . S
C749 C744 1.390 . S
C749 C748 1.387 . S
H750 C762 0.930 . S
H751 C764 0.930 . S
H752 C765 0.930 . S
H753 C769 0.959 . S
H754 C769 0.959 . S
H755 C769 0.961 . S
H756 C770 0.960 . S
H757 C770 0.961 . S
H758 C770 0.959 . S
H759 C773 0.929 . S
H760 C774 0.931 . S
H761 C776 0.930 . S
C762 H750 0.930 . S
C762 C763 1.399 . S
C762 C767 1.399 . S
C763 C762 1.399 . S
C763 C764 1.376 . S
C764 H751 0.930 . S
C764 C763 1.376 . S
C764 C765 1.388 . S
C765 H752 0.930 . S
C765 C764 1.388 . S
C765 C766 1.390 . S
C766 C765 1.390 . S
C766 C767 1.394 . S
C766 C772 1.465 . S
C767 C762 1.399 . S
C767 C766 1.394 . S
C767 C768 1.516 . S
C768 C767 1.516 . S
C768 C769 1.502 . S
C768 C770 1.561 . S
C768 C771 1.526 . S
C769 H753 0.959 . S
C769 H754 0.959 . S
C769 H755 0.961 . S
C769 C768 1.502 . S
C770 H756 0.960 . S
C770 H757 0.961 . S
C770 H758 0.959 . S
C770 C768 1.561 . S
C771 C768 1.526 . S
C771 C772 1.396 . S
C771 C776 1.390 . S
C772 C766 1.465 . S
C772 C771 1.396 . S
C772 C773 1.399 . S
C773 H759 0.929 . S
C773 C772 1.399 . S
C773 C774 1.385 . S
C774 H760 0.931 . S
C774 C773 1.385 . S
C774 C775 1.389 . S
C775 C774 1.389 . S
C775 C776 1.387 . S
C776 H761 0.930 . S
C776 C771 1.390 . S
C776 C775 1.387 . S
H777 C789 0.930 . S
H778 C791 0.930 . S
H779 C792 0.930 . S
H780 C796 0.959 . S
H781 C796 0.959 . S
H782 C796 0.961 . S
H783 C797 0.960 . S
H784 C797 0.961 . S
H785 C797 0.959 . S
H786 C800 0.929 . S
H787 C801 0.931 . S
H788 C803 0.930 . S
C789 H777 0.930 . S
C789 C790 1.399 . S
C789 C794 1.399 . S
C790 C789 1.399 . S
C790 C791 1.376 . S
C791 H778 0.930 . S
C791 C790 1.376 . S
C791 C792 1.388 . S
C792 H779 0.930 . S
C792 C791 1.388 . S
C792 C793 1.390 . S
C793 C792 1.390 . S
C793 C794 1.394 . S
C793 C799 1.465 . S
C794 C789 1.399 . S
C794 C793 1.394 . S
C794 C795 1.516 . S
C795 C794 1.516 . S
C795 C796 1.502 . S
C795 C797 1.561 . S
C795 C798 1.526 . S
C796 H780 0.959 . S
C796 H781 0.959 . S
C796 H782 0.961 . S
C796 C795 1.502 . S
C797 H783 0.960 . S
C797 H784 0.961 . S
C797 H785 0.959 . S
C797 C795 1.561 . S
C798 C795 1.526 . S
C798 C799 1.396 . S
C798 C803 1.390 . S
C799 C793 1.465 . S
C799 C798 1.396 . S
C799 C800 1.399 . S
C800 H786 0.929 . S
C800 C799 1.399 . S
C800 C801 1.385 . S
C801 H787 0.931 . S
C801 C800 1.385 . S
C801 C802 1.389 . S
C802 C801 1.389 . S
C802 C803 1.387 . S
C803 H788 0.930 . S
C803 C798 1.390 . S
C803 C802 1.387 . S
C181 C84 1.489 . S
C169 C4 1.496 . S
C208 C87 1.487 . S
C196 C13 1.495 . S
C235 C85 1.491 . S
C223 C25 1.499 . S
C262 C86 1.503 . S
C250 C34 1.499 . S
C289 C101 1.490 . S
C277 C7 1.487 . S
C316 C115 1.491 . S
C304 C14 1.502 . S
C331 C23 1.492 . S
C343 C141 1.492 . S
C370 C155 1.500 . S
C358 C31 1.504 . S
C397 C100 1.495 . S
C385 C16 1.491 . S
C412 C22 1.503 . S
C424 C114 1.510 . S
C451 C140 1.498 . S
C439 C32 1.499 . S
C478 C154 1.507 . S
C466 C5 1.500 . S
C493 C43 1.495 . S
C505 C99 1.500 . S
C532 C72 1.504 . S
C520 C52 1.496 . S
C547 C58 1.500 . S
C559 C98 1.493 . S
C574 C68 1.498 . S
C586 C73 1.495 . S
C613 C128 1.495 . S
C601 C40 1.502 . S
C640 C142 1.497 . S
C628 C50 1.502 . S
C667 C112 1.499 . S
C655 C59 1.499 . S
C682 C70 1.494 . S
C694 C126 1.489 . S
C721 C129 1.496 . S
C709 C49 1.502 . S
C748 C143 1.491 . S
C736 C61 1.495 . S
C775 C113 1.488 . S
C763 C67 1.495 . S
C790 C41 1.502 . S
C802 C127 1.498 . S
