# Generated by pormake.
# Topology the, (3,8)-cn, num edge types: 1
# Building blocks:
#     Node 0, Type 0, BuildingBlock: BETDIP_clean_linker_0, # of connection points: 3
#     Node 1, Type 0, BuildingBlock: BETDIP_clean_linker_0, # of connection points: 3
#     Node 2, Type 0, BuildingBlock: BETDIP_clean_linker_0, # of connection points: 3
#     Node 3, Type 0, BuildingBlock: BETDIP_clean_linker_0, # of connection points: 3
#     Node 4, Type 0, BuildingBlock: BETDIP_clean_linker_0, # of connection points: 3
#     Node 5, Type 0, BuildingBlock: BETDIP_clean_linker_0, # of connection points: 3
#     Node 6, Type 0, BuildingBlock: BETDIP_clean_linker_0, # of connection points: 3
#     Node 7, Type 0, BuildingBlock: BETDIP_clean_linker_0, # of connection points: 3
#     Node 8, Type 1, BuildingBlock: GIZVER_clean_sbu_0, # of connection points: 8
#     Node 9, Type 1, BuildingBlock: GIZVER_clean_sbu_0, # of connection points: 8
#     Node 10, Type 1, BuildingBlock: GIZVER_clean_sbu_0, # of connection points: 8
#     Edge 11, Type (0, 1), BuildingBlock: AJUNOK_clean_linker_0, # of connection points: 2
#     Edge 12, Type (0, 1), BuildingBlock: AJUNOK_clean_linker_0, # of connection points: 2
#     Edge 13, Type (0, 1), BuildingBlock: AJUNOK_clean_linker_0, # of connection points: 2
#     Edge 14, Type (0, 1), BuildingBlock: AJUNOK_clean_linker_0, # of connection points: 2
#     Edge 15, Type (0, 1), BuildingBlock: AJUNOK_clean_linker_0, # of connection points: 2
#     Edge 16, Type (0, 1), BuildingBlock: AJUNOK_clean_linker_0, # of connection points: 2
#     Edge 17, Type (0, 1), BuildingBlock: AJUNOK_clean_linker_0, # of connection points: 2
#     Edge 18, Type (0, 1), BuildingBlock: AJUNOK_clean_linker_0, # of connection points: 2
#     Edge 19, Type (0, 1), BuildingBlock: AJUNOK_clean_linker_0, # of connection points: 2
#     Edge 20, Type (0, 1), BuildingBlock: AJUNOK_clean_linker_0, # of connection points: 2
#     Edge 21, Type (0, 1), BuildingBlock: AJUNOK_clean_linker_0, # of connection points: 2
#     Edge 22, Type (0, 1), BuildingBlock: AJUNOK_clean_linker_0, # of connection points: 2
#     Edge 23, Type (0, 1), BuildingBlock: AJUNOK_clean_linker_0, # of connection points: 2
#     Edge 24, Type (0, 1), BuildingBlock: AJUNOK_clean_linker_0, # of connection points: 2
#     Edge 25, Type (0, 1), BuildingBlock: AJUNOK_clean_linker_0, # of connection points: 2
#     Edge 26, Type (0, 1), BuildingBlock: AJUNOK_clean_linker_0, # of connection points: 2
#     Edge 27, Type (0, 1), BuildingBlock: AJUNOK_clean_linker_0, # of connection points: 2
#     Edge 28, Type (0, 1), BuildingBlock: AJUNOK_clean_linker_0, # of connection points: 2
#     Edge 29, Type (0, 1), BuildingBlock: AJUNOK_clean_linker_0, # of connection points: 2
#     Edge 30, Type (0, 1), BuildingBlock: AJUNOK_clean_linker_0, # of connection points: 2
#     Edge 31, Type (0, 1), BuildingBlock: AJUNOK_clean_linker_0, # of connection points: 2
#     Edge 32, Type (0, 1), BuildingBlock: AJUNOK_clean_linker_0, # of connection points: 2
#     Edge 33, Type (0, 1), BuildingBlock: AJUNOK_clean_linker_0, # of connection points: 2
#     Edge 34, Type (0, 1), BuildingBlock: AJUNOK_clean_linker_0, # of connection points: 2
# Relax obj value: 0.091
# Max RMSD: 0.196
# Mean RMSD: 0.132
data_MOF--net-the--node1-GIZVER_clean_sbu_0--node2-BETDIP_clean_linker_0--edge1-AJUNOK_clean_linker_0
_symmetry_space_group_name_H-M    P1
_symmetry_Int_Tables_number       1
_symmetry_cell_setting            triclinic
loop_
_symmetry_equiv_pos_as_xyz
'x, y, z'
_cell_length_a     30.744227
_cell_length_b     28.339374
_cell_length_c     26.886438
_cell_angle_alpha  88.528394
_cell_angle_beta   93.761018
_cell_angle_gamma 113.79088
loop_
_atom_site_label
_atom_site_type_symbol
_atom_site_fract_x
_atom_site_fract_y
_atom_site_fract_z
_atom_type_partial_charge
H0 H 0.25129 0.31473 0.49183 0.0
H1 H 0.35082 0.3247 0.38241 0.0
H2 H 0.24728 0.3892 0.35118 0.0
H3 H 0.39845 0.34107 0.46524 0.0
C4 C 0.37389 0.30389 0.47849 0.0
C5 C 0.26434 0.32571 0.45496 0.0
C6 C 0.24421 0.35188 0.42257 0.0
C7 C 0.30326 0.31656 0.44107 0.0
C8 C 0.32078 0.33182 0.39361 0.0
C9 C 0.30008 0.35726 0.36086 0.0
C10 C 0.26198 0.36749 0.37557 0.0
N11 N 0.32435 0.29204 0.47531 0.0
H12 H 0.7706 0.42652 0.33271 0.0
H13 H 0.6397 0.29059 0.31459 0.0
H14 H 0.73697 0.30332 0.44018 0.0
H15 H 0.64815 0.31437 0.23271 0.0
C16 C 0.65644 0.35521 0.23647 0.0
C17 C 0.74748 0.38835 0.34486 0.0
C18 C 0.75959 0.36792 0.38943 0.0
C19 C 0.70463 0.36049 0.31687 0.0
C20 C 0.67393 0.31158 0.33395 0.0
C21 C 0.68552 0.29085 0.3782 0.0
C22 C 0.72834 0.3191 0.40559 0.0
N23 N 0.6911 0.38392 0.27432 0.0
H24 H 0.73162 0.69121 0.30957 0.0
H25 H 0.73612 0.79153 0.42879 0.0
H26 H 0.62805 0.75717 0.30821 0.0
H27 H 0.80401 0.77928 0.45838 0.0
C28 C 0.80068 0.74374 0.44101 0.0
C29 C 0.71787 0.71666 0.32586 0.0
C30 C 0.67717 0.72094 0.30355 0.0
C31 C 0.73937 0.74157 0.37075 0.0
C32 C 0.72085 0.77339 0.39321 0.0
C33 C 0.68065 0.77964 0.37068 0.0
C34 C 0.65954 0.75373 0.32535 0.0
N35 N 0.77613 0.72856 0.39359 0.0
H36 H 0.23911 0.66438 0.31664 0.0
H37 H 0.37014 0.79835 0.32567 0.0
H38 H 0.2554 0.79196 0.41121 0.0
H39 H 0.26416 0.64926 0.24375 0.0
C40 C 0.30253 0.66481 0.2509 0.0
C41 C 0.25902 0.70342 0.32968 0.0
C42 C 0.24043 0.7239 0.3661 0.0
C43 C 0.30491 0.73151 0.31315 0.0
C44 C 0.33329 0.77911 0.33503 0.0
C45 C 0.31604 0.79968 0.37198 0.0
C46 C 0.2687 0.7738 0.38467 0.0
N47 N 0.32622 0.71039 0.27974 0.0
H48 H 0.28508 0.634 0.7764 0.0
H49 H 0.41632 0.76885 0.79518 0.0
H50 H 0.31812 0.75769 0.67018 0.0
H51 H 0.41318 0.74179 0.87481 0.0
C52 C 0.40194 0.70047 0.87041 0.0
C53 C 0.30826 0.67233 0.76465 0.0
C54 C 0.29558 0.69381 0.72121 0.0
C55 C 0.35173 0.69907 0.79186 0.0
C56 C 0.38235 0.74826 0.77529 0.0
C57 C 0.3705 0.77042 0.73177 0.0
C58 C 0.32698 0.74256 0.70499 0.0
N59 N 0.36561 0.67407 0.83299 0.0
H60 H 0.3239 0.36278 0.80382 0.0
H61 H 0.31332 0.26803 0.67752 0.0
H62 H 0.41636 0.2832 0.79927 0.0
H63 H 0.24312 0.27879 0.6569 0.0
C64 C 0.2496 0.31587 0.67315 0.0
C65 C 0.33434 0.33528 0.78621 0.0
C66 C 0.37222 0.32479 0.80773 0.0
C67 C 0.31224 0.31437 0.73991 0.0
C68 C 0.32817 0.28184 0.71456 0.0
C69 C 0.36588 0.27013 0.73587 0.0
C70 C 0.3869 0.2912 0.78283 0.0
N71 N 0.27811 0.3322 0.71837 0.0
H72 H 0.69123 0.25601 0.78732 0.0
H73 H 0.82368 0.38626 0.81537 0.0
H74 H 0.79993 0.2969 0.68182 0.0
H75 H 0.79174 0.40054 0.88278 0.0
C76 C 0.75379 0.38313 0.8728 0.0
C77 C 0.72715 0.27945 0.77702 0.0
C78 C 0.74294 0.26968 0.7321 0.0
C79 C 0.75533 0.32216 0.80653 0.0
C80 C 0.80114 0.35394 0.79226 0.0
C81 C 0.81724 0.3461 0.74665 0.0
C82 C 0.78829 0.30301 0.71736 0.0
N83 N 0.73379 0.33585 0.84583 0.0
H84 H 0.68742 0.71781 0.71401 0.0
H85 H 0.79426 0.73179 0.612 0.0
H86 H 0.79763 0.66565 0.75717 0.0
H87 H 0.64339 0.70858 0.63486 0.0
C88 C 0.66963 0.74333 0.61913 0.0
C89 C 0.71907 0.71253 0.70529 0.0
C90 C 0.74081 0.6909 0.74125 0.0
C91 C 0.73853 0.72764 0.65858 0.0
C92 C 0.7798 0.72129 0.64835 0.0
C93 C 0.80093 0.69888 0.68382 0.0
C94 C 0.78188 0.6844 0.73038 0.0
N95 N 0.71812 0.75056 0.6218 0.0
Co96 Co 0.10946 0.48079 0.56824 0.0
Co97 Co 0.05773 0.46611 0.48262 0.0
Co98 Co 0.02687 0.53167 0.55585 0.0
O99 O 0.04507 0.47174 0.5496 0.0
H100 H 0.02145 0.43982 0.56153 0.0
O101 O 1.00854 0.59162 0.56065 0.0
Co102 Co 0.94328 0.58108 0.54479 0.0
Co103 Co 1.00017 0.6009 0.62738 0.0
H104 H 0.03115 0.62306 0.54676 0.0
O105 O 0.06228 0.40657 0.4584 0.0
O106 O 0.11966 0.47324 0.4983 0.0
O107 O 0.0656 0.52407 0.43837 0.0
O108 O 0.0682 0.57349 0.50205 0.0
O109 O 0.97179 0.49666 0.50534 0.0
O110 O 0.88522 0.57692 0.52894 0.0
O111 O 0.95343 0.64831 0.53262 0.0
O112 O 0.92349 0.51019 0.55336 0.0
O113 O 0.9853 0.49088 0.61085 0.0
O114 O 1.00075 0.54708 0.67252 0.0
O115 O 0.93625 0.58796 0.61551 0.0
O116 O 0.99185 0.65879 0.65121 0.0
C117 C 0.14388 0.43499 0.59325 0.0
C118 C 0.12472 0.57492 0.59563 0.0
C119 C 0.07771 0.56833 0.45761 0.0
C120 C 0.1064 0.43002 0.47465 0.0
C121 C 0.90742 0.62625 0.52219 0.0
C122 C 0.92929 0.48697 0.51651 0.0
C123 C 0.98173 0.50119 0.65608 0.0
C124 C 0.94754 0.63137 0.63807 0.0
O125 O 0.16665 0.48428 0.58693 0.0
O126 O 0.0981 0.4134 0.58129 0.0
O127 O 0.08235 0.56674 0.60629 0.0
O128 O 0.12999 0.55132 0.55881 0.0
Co129 Co 0.55894 0.93699 0.50632 0.0
Co130 Co 0.59233 0.97457 0.59602 0.0
Co131 Co 0.52958 0.03107 0.55403 0.0
O132 O 0.578 1.00409 0.53775 0.0
H133 H 0.6063 0.0303 0.52486 0.0
O134 O 0.4805 0.05674 0.56929 0.0
Co135 Co 0.49557 0.12255 0.59955 0.0
Co136 Co 0.46616 0.08391 0.50938 0.0
H137 H 0.45212 0.02993 0.58134 0.0
O138 O 0.64537 0.95879 0.6035 0.0
O139 O 0.57235 0.90851 0.57056 0.0
O140 O 0.55361 0.96625 0.6519 0.0
O141 O 0.49614 0.97222 0.60154 0.0
O142 O 0.57389 0.07384 0.60945 0.0
O143 O 0.50351 0.18136 0.62899 0.0
O144 O 0.43564 0.11064 0.61673 0.0
O145 O 0.56129 0.14368 0.58814 0.0
O146 O 0.56267 0.09013 0.50702 0.0
O147 O 0.50558 0.09181 0.45352 0.0
O148 O 0.48318 0.14979 0.53392 0.0
O149 O 0.41188 0.09667 0.49932 0.0
C150 C 0.59228 0.89866 0.46896 0.0
C151 C 0.4711 0.94097 0.49697 0.0
C152 C 0.50977 0.95494 0.64129 0.0
C153 C 0.61497 0.91434 0.58686 0.0
C154 C 0.45794 0.15754 0.63414 0.0
C155 C 0.58692 0.12277 0.6104 0.0
C156 C 0.54933 0.10454 0.46551 0.0
C157 C 0.44062 0.14204 0.51556 0.0
O158 O 0.54703 0.87762 0.47624 0.0
O159 O 0.61736 0.94547 0.48569 0.0
O160 O 0.4856 0.9898 0.49842 0.0
O161 O 0.49444 0.9186 0.52095 0.0
Co162 Co 0.46245 0.5396 0.14382 0.0
Co163 Co 0.44384 0.44618 0.12359 0.0
Co164 Co 0.52584 0.52453 0.05438 0.0
O165 O 0.46362 0.50471 0.08538 0.0
H166 H 0.43853 0.50282 0.06086 0.0
O167 O 0.58808 0.5443 1.02336 0.0
Co168 Co 0.59075 0.51337 0.96265 0.0
Co169 Co 0.6093 0.60719 0.99025 0.0
H170 H 0.61268 0.54433 0.04767 0.0
O171 O 0.38077 0.40834 0.13772 0.0
O172 O 0.43574 0.47427 0.18213 0.0
O173 O 0.49004 0.4173 0.13596 0.0
O174 O 0.55017 0.481 0.10104 0.0
O175 O 0.49218 0.46348 1.00818 0.0
O176 O 0.59871 0.4838 0.90902 0.0
O177 O 0.65066 0.51681 0.97465 0.0
O178 O 0.52856 0.50452 0.94272 0.0
O179 O 0.50171 0.56773 1.00736 0.0
O180 O 0.5629 0.63683 0.9812 0.0
O181 O 0.61187 0.58018 0.92886 0.0
O182 O 0.67194 0.6437 0.96914 0.0
C183 C 0.41701 0.56744 0.17044 0.0
C184 C 0.55809 0.57995 0.14791 0.0
C185 C 0.53377 0.43963 0.12717 0.0
C186 C 0.39417 0.43593 0.17817 0.0
C187 C 0.63859 0.49012 0.93334 0.0
C188 C 0.49459 0.46728 0.96096 0.0
C189 C 0.5185 0.61145 0.98505 0.0
C190 C 0.654 0.61669 0.92892 0.0
O191 O 0.45715 0.57445 0.19476 0.0
O192 O 0.4045 0.5399 0.12972 0.0
O193 O 0.55949 0.58563 0.10075 0.0
O194 O 0.52286 0.54408 0.16579 0.0
C195 C 0.16038 0.34032 0.43108 0.0
C196 C 0.20927 0.36964 0.44004 0.0
C197 C 0.12713 0.35975 0.4433 0.0
C198 C 0.14196 0.40922 0.46438 0.0
H199 H 0.14793 0.30271 0.41371 0.0
H200 H 0.08966 0.33613 0.43545 0.0
S201 S 0.26725 0.50023 0.49508 0.0
N202 N 0.27151 0.44904 0.47181 0.0
N203 N 0.20972 0.48678 0.4936 0.0
C204 C 0.19118 0.43843 0.47398 0.0
C205 C 0.2247 0.41829 0.46204 0.0
C206 C 0.63217 0.24324 0.44497 0.0
C207 C 0.65063 0.24221 0.39878 0.0
C208 C 0.59891 0.19828 0.46553 0.0
C209 C 0.5837 0.15049 0.44132 0.0
H210 H 0.64298 0.27929 0.46496 0.0
H211 H 0.58444 0.20097 0.50046 0.0
S212 S 0.61926 0.12727 0.31853 0.0
N213 N 0.64956 0.18979 0.32816 0.0
N214 N 0.58759 0.10482 0.3678 0.0
C215 C 0.60093 0.14887 0.39468 0.0
C216 C 0.63442 0.1949 0.37324 0.0
C217 C 0.86889 0.73715 0.49368 0.0
C218 C 0.8266 0.71325 0.46362 0.0
C219 C 0.89532 0.70916 0.51247 0.0
C220 C 0.87969 0.65605 0.50272 0.0
H221 H 0.88223 0.778 0.50174 0.0
H222 H 0.92797 0.72913 0.53496 0.0
S223 S 0.76906 0.57456 0.42921 0.0
N224 N 0.76909 0.63281 0.42727 0.0
N225 N 0.81793 0.58042 0.4626 0.0
C226 C 0.83658 0.63153 0.47401 0.0
C227 C 0.81023 0.66004 0.45446 0.0
C228 C 0.35814 0.8283 0.45478 0.0
C229 C 0.35038 0.84072 0.40492 0.0
C230 C 0.39645 0.86191 0.48491 0.0
C231 C 0.42769 0.90962 0.4666 0.0
H232 H 0.336 0.79105 0.46977 0.0
H233 H 0.40237 0.84992 0.52244 0.0
S234 S 0.42076 0.96182 0.33987 0.0
N235 N 0.37572 0.90463 0.33915 0.0
N236 N 0.44693 0.96897 0.39651 0.0
C237 C 0.41883 0.92378 0.41772 0.0
C238 C 0.3804 0.88895 0.38661 0.0
C239 C 0.20604 0.64939 0.70679 0.0
C240 C 0.25193 0.66349 0.68957 0.0
C241 C 0.16479 0.62196 0.67605 0.0
C242 C 0.16805 0.60695 0.62731 0.0
H243 H 0.20205 0.66007 0.74407 0.0
H244 H 0.13023 0.61177 0.69085 0.0
S245 S 0.28072 0.63401 0.56556 0.0
N246 N 0.29835 0.66035 0.6213 0.0
N247 N 0.22201 0.60853 0.56393 0.0
C248 C 0.21414 0.62079 0.61012 0.0
C249 C 0.2557 0.64908 0.6411 0.0
C250 C 0.4372 0.25964 0.70631 0.0
C251 C 0.38732 0.24069 0.70772 0.0
C252 C 0.45917 0.23255 0.68232 0.0
C253 C 0.43244 0.185 0.65844 0.0
H254 H 0.45973 0.29605 0.72391 0.0
H255 H 0.49771 0.24912 0.68297 0.0
S256 S 0.30043 0.11936 0.64885 0.0
N257 N 0.31157 0.17191 0.68164 0.0
N258 N 0.35285 0.1211 0.63593 0.0
C259 C 0.3824 0.16596 0.65848 0.0
C260 C 0.3599 0.19379 0.68304 0.0
C261 C 0.89342 0.37209 0.7021 0.0
C262 C 0.86147 0.38614 0.72706 0.0
C263 C 0.93349 0.40952 0.68072 0.0
C264 C 0.94372 0.4624 0.68456 0.0
H265 H 0.88707 0.33184 0.69844 0.0
H266 H 0.95628 0.39699 0.66048 0.0
S267 S 0.86977 0.5196 0.74264 0.0
N268 N 0.84133 0.45694 0.75074 0.0
N269 N 0.91781 0.52681 0.71391 0.0
C270 C 0.91248 0.47699 0.71 0.0
C271 C 0.87111 0.43903 0.73038 0.0
C272 C 0.60844 0.77975 0.60934 0.0
C273 C 0.65543 0.78569 0.60321 0.0
C274 C 0.59493 0.82113 0.60159 0.0
C275 C 0.62822 0.86995 0.58819 0.0
H276 H 0.58234 0.74336 0.62205 0.0
H277 H 0.55883 0.8155 0.60853 0.0
S278 S 0.75323 0.9036 0.55862 0.0
N279 N 0.73352 0.84256 0.57592 0.0
N280 N 0.7082 0.92062 0.56292 0.0
C281 C 0.67444 0.87569 0.57891 0.0
C282 C 0.68806 0.8334 0.58597 0.0
C283 C 0.35968 0.21304 0.5015 0.0
C284 C 0.39173 0.26436 0.49435 0.0
C285 C 0.37601 0.17392 0.50997 0.0
C286 C 0.42493 0.18482 0.51223 0.0
H287 H 0.3216 0.20244 0.49875 0.0
H288 H 0.35002 0.13468 0.51382 0.0
S289 S 0.52349 0.3138 0.50079 0.0
N290 N 0.47457 0.32469 0.49342 0.0
N291 N 0.50547 0.25114 0.51023 0.0
C292 C 0.45747 0.23639 0.50801 0.0
C293 C 0.44077 0.27618 0.49877 0.0
C294 C 0.84883 0.41614 0.40351 0.0
C295 C 0.80291 0.39858 0.42152 0.0
C296 C 0.88989 0.44332 0.43458 0.0
C297 C 0.8864 0.45451 0.48459 0.0
H298 H 0.85304 0.40832 0.3653 0.0
H299 H 0.92444 0.45643 0.41904 0.0
S300 S 0.77386 0.41797 0.54907 0.0
N301 N 0.75634 0.39508 0.49204 0.0
N302 N 0.83252 0.44546 0.55027 0.0
C303 C 0.84041 0.43704 0.50276 0.0
C304 C 0.79899 0.40935 0.47131 0.0
C305 C 0.68529 0.86009 0.41386 0.0
C306 C 0.65814 0.80954 0.3964 0.0
C307 C 0.66397 0.88885 0.43701 0.0
C308 C 0.61469 0.86807 0.44405 0.0
H309 H 0.7232 0.87783 0.40893 0.0
H310 H 0.68634 0.92766 0.44944 0.0
S311 S 0.52869 0.73522 0.40912 0.0
N312 N 0.58009 0.73873 0.39088 0.0
N313 N 0.53997 0.79206 0.43358 0.0
C314 C 0.58749 0.81694 0.42773 0.0
C315 C 0.60918 0.78794 0.40418 0.0
C316 C 0.15803 0.65186 0.35975 0.0
C317 C 0.19465 0.69029 0.3887 0.0
C318 C 0.11878 0.61389 0.38163 0.0
C319 C 0.11331 0.61396 0.4331 0.0
H320 H 0.16043 0.64975 0.31994 0.0
H321 H 0.09325 0.58341 0.35825 0.0
S322 S 0.19487 0.70965 0.52534 0.0
N323 N 0.22088 0.72648 0.47227 0.0
N324 N 0.14469 0.65964 0.51164 0.0
C325 C 0.14713 0.65486 0.4618 0.0
C326 C 0.1883 0.6919 0.44011 0.0
C327 C 0.45422 0.82957 0.713 0.0
C328 C 0.40557 0.82035 0.71203 0.0
C329 C 0.48775 0.87433 0.69228 0.0
C330 C 0.47421 0.91179 0.66883 0.0
H331 H 0.46653 0.80114 0.72843 0.0
H332 H 0.52435 0.87837 0.6928 0.0
S333 S 0.35227 0.90898 0.65961 0.0
N334 N 0.34633 0.85502 0.689 0.0
N335 N 0.40914 0.93805 0.64812 0.0
C336 C 0.42597 0.90385 0.66847 0.0
C337 C 0.39179 0.85851 0.6904 0.0
C338 C 0.18086 0.32319 0.62239 0.0
C339 C 0.22362 0.34685 0.65183 0.0
C340 C 0.15468 0.3515 0.60387 0.0
C341 C 0.1709 0.40469 0.61336 0.0
H342 H 0.16713 0.28231 0.61435 0.0
H343 H 0.12184 0.33172 0.5816 0.0
S344 S 0.28254 0.48563 0.68573 0.0
N345 N 0.28199 0.42716 0.68763 0.0
N346 N 0.23347 0.48011 0.65294 0.0
C347 C 0.21428 0.42893 0.64176 0.0
C348 C 0.24047 0.40012 0.66096 0.0
C349 C 0.68222 0.17923 0.71509 0.0
C350 C 0.70878 0.22945 0.69771 0.0
C351 C 0.6447 0.14325 0.68532 0.0
C352 C 0.63189 0.15669 0.63757 0.0
H353 H 0.68955 0.16826 0.75258 0.0
H354 H 0.62394 0.10581 0.70086 0.0
S355 S 0.69228 0.28158 0.57329 0.0
N356 N 0.72117 0.28938 0.62843 0.0
N357 N 0.65107 0.22213 0.57295 0.0
C358 C 0.6596 0.20585 0.61904 0.0
C359 C 0.69795 0.24214 0.64894 0.0
C360 C 0.88627 0.71636 0.6754 0.0
C361 C 0.83808 0.68284 0.66977 0.0
C362 C 0.92175 0.69952 0.6649 0.0
C363 C 0.90981 0.64873 0.64857 0.0
H364 H 0.89649 0.75542 0.68854 0.0
H365 H 0.95865 0.7264 0.66975 0.0
S366 S 0.78739 0.54689 0.62805 0.0
N367 N 0.77952 0.59778 0.64667 0.0
N368 N 0.84556 0.56529 0.62744 0.0
C369 C 0.86126 0.61517 0.64254 0.0
C370 C 0.82549 0.63249 0.65305 0.0
C371 C 0.31373 0.3458 0.27226 0.0
C372 C 0.32149 0.37815 0.31349 0.0
C373 C 0.33559 0.36539 0.22763 0.0
C374 C 0.36665 0.41773 0.22326 0.0
H375 H 0.29104 0.30511 0.27476 0.0
H376 H 0.32944 0.33886 0.19706 0.0
S377 S 0.39656 0.51801 0.32128 0.0
N378 N 0.35987 0.46462 0.34732 0.0
N379 N 0.40248 0.5014 0.26455 0.0
C380 C 0.3738 0.45037 0.26445 0.0
C381 C 0.35083 0.43056 0.30934 0.0
C382 C 0.47082 0.70655 0.92795 0.0
C383 C 0.42836 0.67501 0.90143 0.0
C384 C 0.49899 0.68557 0.95572 0.0
C385 C 0.48545 0.63196 0.95915 0.0
H386 H 0.48311 0.74815 0.9263 0.0
H387 H 0.53195 0.7117 0.97439 0.0
S388 S 0.37669 0.53182 0.89818 0.0
N389 N 0.37363 0.58689 0.8811 0.0
N390 N 0.42607 0.54741 0.93427 0.0
C391 C 0.44233 0.59968 0.93402 0.0
C392 C 0.41395 0.62117 0.90487 0.0
C393 C 0.45119 0.38239 0.8461 0.0
C394 C 0.40201 0.35609 0.85083 0.0
C395 C 0.48027 0.41706 0.88248 0.0
C396 C 0.46206 0.42654 0.92608 0.0
H397 H 0.46725 0.37791 0.81282 0.0
H398 H 0.51739 0.43732 0.87549 0.0
S399 S 0.33569 0.36672 0.95757 0.0
N400 N 0.33594 0.34126 0.90299 0.0
N401 N 0.39148 0.40602 0.97238 0.0
C402 C 0.41312 0.39948 0.93228 0.0
C403 C 0.38295 0.36455 0.89442 0.0
C404 C 0.74255 0.45138 0.92083 0.0
C405 C 0.72362 0.40991 0.88701 0.0
C406 C 0.71529 0.47787 0.93508 0.0
C407 C 0.66829 0.46442 0.91534 0.0
H408 H 0.77863 0.46314 0.93687 0.0
H409 H 0.73116 0.50895 0.96188 0.0
S410 S 0.60248 0.35974 0.82371 0.0
N411 N 0.65516 0.35746 0.83309 0.0
N412 N 0.60428 0.40714 0.85925 0.0
C413 C 0.64928 0.42358 0.88061 0.0
C414 C 0.6768 0.39632 0.86662 0.0
C415 C 0.74378 0.69091 0.83442 0.0
C416 C 0.71877 0.67125 0.78877 0.0
C417 C 0.72311 0.67233 0.87982 0.0
C418 C 0.67704 0.63288 0.88097 0.0
H419 H 0.77925 0.72139 0.83495 0.0
H420 H 0.7432 0.68937 0.91412 0.0
S421 S 0.59894 0.56579 0.77052 0.0
N422 N 0.64726 0.60885 0.74685 0.0
N423 N 0.60823 0.573 0.83153 0.0
C424 C 0.65246 0.61181 0.83515 0.0
C425 C 0.67334 0.63129 0.78919 0.0
C426 C 0.63775 0.70419 0.21618 0.0
C427 C 0.64984 0.68552 0.26179 0.0
C428 C 0.6107 0.67011 0.17749 0.0
C429 C 0.5942 0.61629 0.18364 0.0
H430 H 0.6489 0.74531 0.21059 0.0
H431 H 0.60081 0.68584 0.14361 0.0
S432 S 0.61655 0.54799 0.29555 0.0
N433 N 0.64371 0.60969 0.31019 0.0
N434 N 0.59294 0.54626 0.23836 0.0
C435 C 0.60687 0.59746 0.22872 0.0
C436 C 0.6346 0.63185 0.26756 0.0
C437 C 0.37928 0.65531 0.24378 0.0
C438 C 0.33064 0.63931 0.2294 0.0
C439 C 0.40646 0.63146 0.22458 0.0
C440 C 0.38634 0.59089 0.18989 0.0
H441 H 0.39672 0.68633 0.27036 0.0
H442 H 0.4438 0.64541 0.23687 0.0
S443 S 0.26011 0.53364 0.14121 0.0
N444 N 0.26303 0.57973 0.17937 0.0
N445 N 0.3144 0.53498 0.14269 0.0
C446 C 0.33768 0.57431 0.17526 0.0
C447 C 0.30979 0.59846 0.19523 0.0
C448 C 0.64094 0.43085 0.2003 0.0
C449 C 0.62686 0.37726 0.20615 0.0
C450 C 0.61173 0.45096 0.17258 0.0
C451 C 0.56692 0.41822 0.15098 0.0
H452 H 0.67459 0.45741 0.2173 0.0
H453 H 0.62359 0.49241 0.16948 0.0
S454 S 0.51461 0.27519 0.15389 0.0
N455 N 0.56623 0.29204 0.18609 0.0
N456 N 0.51097 0.32967 0.13585 0.0
C457 C 0.55297 0.36469 0.15602 0.0
C458 C 0.58302 0.3443 0.18311 0.0
loop_
_geom_bond_atom_site_label_1
_geom_bond_atom_site_label_2
_geom_bond_distance
_geom_bond_site_symmetry_2
_ccdc_geom_bond_type
H0 C5 0.930 . S
H1 C8 0.930 . S
H2 C10 0.930 . S
H3 C4 1.016 . S
C4 H3 1.016 . S
C4 N11 1.286 . S
C5 H0 0.930 . S
C5 C6 1.397 . S
C5 C7 1.361 . S
C6 C5 1.397 . S
C6 C10 1.390 . S
C7 C5 1.361 . S
C7 C8 1.393 . S
C7 N11 1.413 . S
C8 H1 0.930 . S
C8 C7 1.393 . S
C8 C9 1.399 . S
C9 C8 1.399 . S
C9 C10 1.381 . S
C10 H2 0.930 . S
C10 C6 1.390 . S
C10 C9 1.381 . S
N11 C4 1.286 . S
N11 C7 1.413 . S
H12 C17 0.930 . S
H13 C20 0.930 . S
H14 C22 0.930 . S
H15 C16 1.016 . S
C16 H15 1.016 . S
C16 N23 1.286 . S
C17 H12 0.930 . S
C17 C18 1.397 . S
C17 C19 1.361 . S
C18 C17 1.397 . S
C18 C22 1.390 . S
C19 C17 1.361 . S
C19 C20 1.393 . S
C19 N23 1.413 . S
C20 H13 0.930 . S
C20 C19 1.393 . S
C20 C21 1.399 . S
C21 C20 1.399 . S
C21 C22 1.381 . S
C22 H14 0.930 . S
C22 C18 1.390 . S
C22 C21 1.381 . S
N23 C16 1.286 . S
N23 C19 1.413 . S
H24 C29 0.930 . S
H25 C32 0.930 . S
H26 C34 0.930 . S
H27 C28 1.016 . S
C28 H27 1.016 . S
C28 N35 1.286 . S
C29 H24 0.930 . S
C29 C30 1.397 . S
C29 C31 1.361 . S
C30 C29 1.397 . S
C30 C34 1.390 . S
C31 C29 1.361 . S
C31 C32 1.393 . S
C31 N35 1.413 . S
C32 H25 0.930 . S
C32 C31 1.393 . S
C32 C33 1.399 . S
C33 C32 1.399 . S
C33 C34 1.381 . S
C34 H26 0.930 . S
C34 C30 1.390 . S
C34 C33 1.381 . S
N35 C28 1.286 . S
N35 C31 1.413 . S
H36 C41 0.930 . S
H37 C44 0.930 . S
H38 C46 0.930 . S
H39 C40 1.016 . S
C40 H39 1.016 . S
C40 N47 1.286 . S
C41 H36 0.930 . S
C41 C42 1.397 . S
C41 C43 1.361 . S
C42 C41 1.397 . S
C42 C46 1.390 . S
C43 C41 1.361 . S
C43 C44 1.393 . S
C43 N47 1.413 . S
C44 H37 0.930 . S
C44 C43 1.393 . S
C44 C45 1.399 . S
C45 C44 1.399 . S
C45 C46 1.381 . S
C46 H38 0.930 . S
C46 C42 1.390 . S
C46 C45 1.381 . S
N47 C40 1.286 . S
N47 C43 1.413 . S
H48 C53 0.930 . S
H49 C56 0.930 . S
H50 C58 0.930 . S
H51 C52 1.016 . S
C52 H51 1.016 . S
C52 N59 1.286 . S
C53 H48 0.930 . S
C53 C54 1.397 . S
C53 C55 1.361 . S
C54 C53 1.397 . S
C54 C58 1.390 . S
C55 C53 1.361 . S
C55 C56 1.393 . S
C55 N59 1.413 . S
C56 H49 0.930 . S
C56 C55 1.393 . S
C56 C57 1.399 . S
C57 C56 1.399 . S
C57 C58 1.381 . S
C58 H50 0.930 . S
C58 C54 1.390 . S
C58 C57 1.381 . S
N59 C52 1.286 . S
N59 C55 1.413 . S
H60 C65 0.930 . S
H61 C68 0.930 . S
H62 C70 0.930 . S
H63 C64 1.016 . S
C64 H63 1.016 . S
C64 N71 1.286 . S
C65 H60 0.930 . S
C65 C66 1.397 . S
C65 C67 1.361 . S
C66 C65 1.397 . S
C66 C70 1.390 . S
C67 C65 1.361 . S
C67 C68 1.393 . S
C67 N71 1.413 . S
C68 H61 0.930 . S
C68 C67 1.393 . S
C68 C69 1.399 . S
C69 C68 1.399 . S
C69 C70 1.381 . S
C70 H62 0.930 . S
C70 C66 1.390 . S
C70 C69 1.381 . S
N71 C64 1.286 . S
N71 C67 1.413 . S
H72 C77 0.930 . S
H73 C80 0.930 . S
H74 C82 0.930 . S
H75 C76 1.016 . S
C76 H75 1.016 . S
C76 N83 1.286 . S
C77 H72 0.930 . S
C77 C78 1.397 . S
C77 C79 1.361 . S
C78 C77 1.397 . S
C78 C82 1.390 . S
C79 C77 1.361 . S
C79 C80 1.393 . S
C79 N83 1.413 . S
C80 H73 0.930 . S
C80 C79 1.393 . S
C80 C81 1.399 . S
C81 C80 1.399 . S
C81 C82 1.381 . S
C82 H74 0.930 . S
C82 C78 1.390 . S
C82 C81 1.381 . S
N83 C76 1.286 . S
N83 C79 1.413 . S
H84 C89 0.930 . S
H85 C92 0.930 . S
H86 C94 0.930 . S
H87 C88 1.016 . S
C88 H87 1.016 . S
C88 N95 1.286 . S
C89 H84 0.930 . S
C89 C90 1.397 . S
C89 C91 1.361 . S
C90 C89 1.397 . S
C90 C94 1.390 . S
C91 C89 1.361 . S
C91 C92 1.393 . S
C91 N95 1.413 . S
C92 H85 0.930 . S
C92 C91 1.393 . S
C92 C93 1.399 . S
C93 C92 1.399 . S
C93 C94 1.381 . S
C94 H86 0.930 . S
C94 C90 1.390 . S
C94 C93 1.381 . S
N95 C88 1.286 . S
N95 C91 1.413 . S
Co96 O99 2.042 . S
Co96 O106 2.264 . S
Co96 O125 2.286 . S
Co96 O126 2.069 . S
Co96 O128 2.015 . S
Co97 O99 2.122 . S
Co97 O105 2.073 . S
Co97 O106 2.327 . S
Co97 O107 1.976 . S
Co98 O99 2.087 . S
Co98 O101 2.087 1_455 S
Co98 O108 2.111 . S
Co98 O109 2.143 1_455 S
Co98 O113 2.111 1_455 S
Co98 O127 2.143 . S
O99 Co96 2.042 . S
O99 Co97 2.122 . S
O99 Co98 2.087 . S
O99 H100 0.980 . S
H100 O99 0.980 . S
O101 Co98 2.087 1_655 S
O101 Co102 2.042 . S
O101 Co103 2.122 . S
O101 H104 0.980 1_655 S
Co102 O101 2.042 . S
Co102 O110 2.286 . S
Co102 O111 2.069 . S
Co102 O112 2.015 . S
Co102 O115 2.264 . S
Co103 O101 2.122 . S
Co103 O114 1.976 . S
Co103 O115 2.327 . S
Co103 O116 2.073 . S
H104 O101 0.980 1_455 S
O105 Co97 2.073 . S
O105 C120 1.245 . S
O106 Co96 2.264 . S
O106 Co97 2.327 . S
O106 C120 1.257 . S
O107 Co97 1.976 . S
O107 C119 1.251 . S
O108 Co98 2.111 . S
O108 C119 1.274 . S
O109 Co98 2.143 1_655 S
O109 C122 1.246 . S
O110 Co102 2.286 . S
O110 C121 1.259 . S
O111 Co102 2.069 . S
O111 C121 1.289 . S
O112 Co102 2.015 . S
O112 C122 1.257 . S
O113 Co98 2.111 1_655 S
O113 C123 1.274 . S
O114 Co103 1.976 . S
O114 C123 1.251 . S
O115 Co102 2.264 . S
O115 Co103 2.327 . S
O115 C124 1.257 . S
O116 Co103 2.073 . S
O116 C124 1.245 . S
C117 O125 1.259 . S
C117 O126 1.289 . S
C118 O127 1.246 . S
C118 O128 1.257 . S
C119 O107 1.251 . S
C119 O108 1.274 . S
C120 O105 1.245 . S
C120 O106 1.257 . S
C121 O110 1.259 . S
C121 O111 1.289 . S
C122 O109 1.246 . S
C122 O112 1.257 . S
C123 O113 1.274 . S
C123 O114 1.251 . S
C124 O115 1.257 . S
C124 O116 1.245 . S
O125 Co96 2.286 . S
O125 C117 1.259 . S
O126 Co96 2.069 . S
O126 C117 1.289 . S
O127 Co98 2.143 . S
O127 C118 1.246 . S
O128 Co96 2.015 . S
O128 C118 1.257 . S
Co129 O132 2.042 . S
Co129 O139 2.264 . S
Co129 O158 2.286 . S
Co129 O159 2.069 . S
Co129 O161 2.015 . S
Co130 O132 2.122 . S
Co130 O138 2.073 . S
Co130 O139 2.327 . S
Co130 O140 1.976 . S
Co131 O132 2.087 1_545 S
Co131 O134 2.087 . S
Co131 O141 2.111 1_545 S
Co131 O142 2.143 . S
Co131 O146 2.111 . S
Co131 O160 2.143 1_545 S
O132 Co129 2.042 . S
O132 Co130 2.122 . S
O132 Co131 2.087 1_565 S
O132 H133 0.980 1_565 S
H133 O132 0.980 1_545 S
O134 Co131 2.087 . S
O134 Co135 2.042 . S
O134 Co136 2.122 . S
O134 H137 0.980 . S
Co135 O134 2.042 . S
Co135 O143 2.286 . S
Co135 O144 2.069 . S
Co135 O145 2.015 . S
Co135 O148 2.264 . S
Co136 O134 2.122 . S
Co136 O147 1.976 . S
Co136 O148 2.327 . S
Co136 O149 2.073 . S
H137 O134 0.980 . S
O138 Co130 2.073 . S
O138 C153 1.245 . S
O139 Co129 2.264 . S
O139 Co130 2.327 . S
O139 C153 1.257 . S
O140 Co130 1.976 . S
O140 C152 1.251 . S
O141 Co131 2.111 1_565 S
O141 C152 1.274 . S
O142 Co131 2.143 . S
O142 C155 1.246 . S
O143 Co135 2.286 . S
O143 C154 1.259 . S
O144 Co135 2.069 . S
O144 C154 1.289 . S
O145 Co135 2.015 . S
O145 C155 1.257 . S
O146 Co131 2.111 . S
O146 C156 1.274 . S
O147 Co136 1.976 . S
O147 C156 1.251 . S
O148 Co135 2.264 . S
O148 Co136 2.327 . S
O148 C157 1.257 . S
O149 Co136 2.073 . S
O149 C157 1.245 . S
C150 O158 1.259 . S
C150 O159 1.289 . S
C151 O160 1.246 . S
C151 O161 1.257 . S
C152 O140 1.251 . S
C152 O141 1.274 . S
C153 O138 1.245 . S
C153 O139 1.257 . S
C154 O143 1.259 . S
C154 O144 1.289 . S
C155 O142 1.246 . S
C155 O145 1.257 . S
C156 O146 1.274 . S
C156 O147 1.251 . S
C157 O148 1.257 . S
C157 O149 1.245 . S
O158 Co129 2.286 . S
O158 C150 1.259 . S
O159 Co129 2.069 . S
O159 C150 1.289 . S
O160 Co131 2.143 1_565 S
O160 C151 1.246 . S
O161 Co129 2.015 . S
O161 C151 1.257 . S
Co162 O165 2.042 . S
Co162 O172 2.264 . S
Co162 O191 2.286 . S
Co162 O192 2.069 . S
Co162 O194 2.015 . S
Co163 O165 2.122 . S
Co163 O171 2.073 . S
Co163 O172 2.327 . S
Co163 O173 1.976 . S
Co164 O165 2.087 . S
Co164 O167 2.087 1_554 S
Co164 O174 2.111 . S
Co164 O175 2.143 1_554 S
Co164 O179 2.111 . S
Co164 O193 2.143 . S
O165 Co162 2.042 . S
O165 Co163 2.122 . S
O165 Co164 2.087 . S
O165 H166 0.980 . S
H166 O165 0.980 . S
O167 Co164 2.087 1_556 S
O167 Co168 2.042 . S
O167 Co169 2.122 . S
O167 H170 0.980 . S
Co168 O167 2.042 . S
Co168 O176 2.286 . S
Co168 O177 2.069 . S
Co168 O178 2.015 . S
Co168 O181 2.264 . S
Co169 O167 2.122 . S
Co169 O180 1.976 . S
Co169 O181 2.327 . S
Co169 O182 2.073 . S
H170 O167 0.980 . S
O171 Co163 2.073 . S
O171 C186 1.245 . S
O172 Co162 2.264 . S
O172 Co163 2.327 . S
O172 C186 1.257 . S
O173 Co163 1.976 . S
O173 C185 1.251 . S
O174 Co164 2.111 . S
O174 C185 1.274 . S
O175 Co164 2.143 1_556 S
O175 C188 1.246 . S
O176 Co168 2.286 . S
O176 C187 1.259 . S
O177 Co168 2.069 . S
O177 C187 1.289 . S
O178 Co168 2.015 . S
O178 C188 1.257 . S
O179 Co164 2.111 . S
O179 C189 1.274 1_554 S
O180 Co169 1.976 . S
O180 C189 1.251 . S
O181 Co168 2.264 . S
O181 Co169 2.327 . S
O181 C190 1.257 . S
O182 Co169 2.073 . S
O182 C190 1.245 . S
C183 O191 1.259 . S
C183 O192 1.289 . S
C184 O193 1.246 . S
C184 O194 1.257 . S
C185 O173 1.251 . S
C185 O174 1.274 . S
C186 O171 1.245 . S
C186 O172 1.257 . S
C187 O176 1.259 . S
C187 O177 1.289 . S
C188 O175 1.246 . S
C188 O178 1.257 . S
C189 O179 1.274 1_556 S
C189 O180 1.251 . S
C190 O181 1.257 . S
C190 O182 1.245 . S
O191 Co162 2.286 . S
O191 C183 1.259 . S
O192 Co162 2.069 . S
O192 C183 1.289 . S
O193 Co164 2.143 . S
O193 C184 1.246 . S
O194 Co162 2.015 . S
O194 C184 1.257 . S
C195 C196 1.369 . S
C195 C197 1.419 . S
C195 H199 0.930 . S
C196 C195 1.369 . S
C196 C205 1.429 . S
C197 C195 1.419 . S
C197 C198 1.363 . S
C197 H200 0.929 . S
C198 C197 1.363 . S
C198 C204 1.428 . S
H199 C195 0.930 . S
H200 C197 0.929 . S
S201 N202 1.613 . S
S201 N203 1.610 . S
N202 S201 1.613 . S
N202 C205 1.350 . S
N203 S201 1.610 . S
N203 C204 1.351 . S
C204 C198 1.428 . S
C204 N203 1.351 . S
C204 C205 1.434 . S
C205 C196 1.429 . S
C205 N202 1.350 . S
C205 C204 1.434 . S
C206 C207 1.369 . S
C206 C208 1.419 . S
C206 H210 0.930 . S
C207 C206 1.369 . S
C207 C216 1.429 . S
C208 C206 1.419 . S
C208 C209 1.363 . S
C208 H211 0.929 . S
C209 C208 1.363 . S
C209 C215 1.428 . S
H210 C206 0.930 . S
H211 C208 0.929 . S
S212 N213 1.613 . S
S212 N214 1.610 . S
N213 S212 1.613 . S
N213 C216 1.350 . S
N214 S212 1.610 . S
N214 C215 1.351 . S
C215 C209 1.428 . S
C215 N214 1.351 . S
C215 C216 1.434 . S
C216 C207 1.429 . S
C216 N213 1.350 . S
C216 C215 1.434 . S
C217 C218 1.369 . S
C217 C219 1.419 . S
C217 H221 0.930 . S
C218 C217 1.369 . S
C218 C227 1.429 . S
C219 C217 1.419 . S
C219 C220 1.363 . S
C219 H222 0.929 . S
C220 C219 1.363 . S
C220 C226 1.428 . S
H221 C217 0.930 . S
H222 C219 0.929 . S
S223 N224 1.613 . S
S223 N225 1.610 . S
N224 S223 1.613 . S
N224 C227 1.350 . S
N225 S223 1.610 . S
N225 C226 1.351 . S
C226 C220 1.428 . S
C226 N225 1.351 . S
C226 C227 1.434 . S
C227 C218 1.429 . S
C227 N224 1.350 . S
C227 C226 1.434 . S
C228 C229 1.369 . S
C228 C230 1.419 . S
C228 H232 0.930 . S
C229 C228 1.369 . S
C229 C238 1.429 . S
C230 C228 1.419 . S
C230 C231 1.363 . S
C230 H233 0.929 . S
C231 C230 1.363 . S
C231 C237 1.428 . S
H232 C228 0.930 . S
H233 C230 0.929 . S
S234 N235 1.613 . S
S234 N236 1.610 . S
N235 S234 1.613 . S
N235 C238 1.350 . S
N236 S234 1.610 . S
N236 C237 1.351 . S
C237 C231 1.428 . S
C237 N236 1.351 . S
C237 C238 1.434 . S
C238 C229 1.429 . S
C238 N235 1.350 . S
C238 C237 1.434 . S
C239 C240 1.369 . S
C239 C241 1.419 . S
C239 H243 0.930 . S
C240 C239 1.369 . S
C240 C249 1.429 . S
C241 C239 1.419 . S
C241 C242 1.363 . S
C241 H244 0.929 . S
C242 C241 1.363 . S
C242 C248 1.428 . S
H243 C239 0.930 . S
H244 C241 0.929 . S
S245 N246 1.613 . S
S245 N247 1.610 . S
N246 S245 1.613 . S
N246 C249 1.350 . S
N247 S245 1.610 . S
N247 C248 1.351 . S
C248 C242 1.428 . S
C248 N247 1.351 . S
C248 C249 1.434 . S
C249 C240 1.429 . S
C249 N246 1.350 . S
C249 C248 1.434 . S
C250 C251 1.369 . S
C250 C252 1.419 . S
C250 H254 0.930 . S
C251 C250 1.369 . S
C251 C260 1.429 . S
C252 C250 1.419 . S
C252 C253 1.363 . S
C252 H255 0.929 . S
C253 C252 1.363 . S
C253 C259 1.428 . S
H254 C250 0.930 . S
H255 C252 0.929 . S
S256 N257 1.613 . S
S256 N258 1.610 . S
N257 S256 1.613 . S
N257 C260 1.350 . S
N258 S256 1.610 . S
N258 C259 1.351 . S
C259 C253 1.428 . S
C259 N258 1.351 . S
C259 C260 1.434 . S
C260 C251 1.429 . S
C260 N257 1.350 . S
C260 C259 1.434 . S
C261 C262 1.369 . S
C261 C263 1.419 . S
C261 H265 0.930 . S
C262 C261 1.369 . S
C262 C271 1.429 . S
C263 C261 1.419 . S
C263 C264 1.363 . S
C263 H266 0.929 . S
C264 C263 1.363 . S
C264 C270 1.428 . S
H265 C261 0.930 . S
H266 C263 0.929 . S
S267 N268 1.613 . S
S267 N269 1.610 . S
N268 S267 1.613 . S
N268 C271 1.350 . S
N269 S267 1.610 . S
N269 C270 1.351 . S
C270 C264 1.428 . S
C270 N269 1.351 . S
C270 C271 1.434 . S
C271 C262 1.429 . S
C271 N268 1.350 . S
C271 C270 1.434 . S
C272 C273 1.369 . S
C272 C274 1.419 . S
C272 H276 0.930 . S
C273 C272 1.369 . S
C273 C282 1.429 . S
C274 C272 1.419 . S
C274 C275 1.363 . S
C274 H277 0.929 . S
C275 C274 1.363 . S
C275 C281 1.428 . S
H276 C272 0.930 . S
H277 C274 0.929 . S
S278 N279 1.613 . S
S278 N280 1.610 . S
N279 S278 1.613 . S
N279 C282 1.350 . S
N280 S278 1.610 . S
N280 C281 1.351 . S
C281 C275 1.428 . S
C281 N280 1.351 . S
C281 C282 1.434 . S
C282 C273 1.429 . S
C282 N279 1.350 . S
C282 C281 1.434 . S
C283 C284 1.369 . S
C283 C285 1.419 . S
C283 H287 0.930 . S
C284 C283 1.369 . S
C284 C293 1.429 . S
C285 C283 1.419 . S
C285 C286 1.363 . S
C285 H288 0.929 . S
C286 C285 1.363 . S
C286 C292 1.428 . S
H287 C283 0.930 . S
H288 C285 0.929 . S
S289 N290 1.613 . S
S289 N291 1.610 . S
N290 S289 1.613 . S
N290 C293 1.350 . S
N291 S289 1.610 . S
N291 C292 1.351 . S
C292 C286 1.428 . S
C292 N291 1.351 . S
C292 C293 1.434 . S
C293 C284 1.429 . S
C293 N290 1.350 . S
C293 C292 1.434 . S
C294 C295 1.369 . S
C294 C296 1.419 . S
C294 H298 0.930 . S
C295 C294 1.369 . S
C295 C304 1.429 . S
C296 C294 1.419 . S
C296 C297 1.363 . S
C296 H299 0.929 . S
C297 C296 1.363 . S
C297 C303 1.428 . S
H298 C294 0.930 . S
H299 C296 0.929 . S
S300 N301 1.613 . S
S300 N302 1.610 . S
N301 S300 1.613 . S
N301 C304 1.350 . S
N302 S300 1.610 . S
N302 C303 1.351 . S
C303 C297 1.428 . S
C303 N302 1.351 . S
C303 C304 1.434 . S
C304 C295 1.429 . S
C304 N301 1.350 . S
C304 C303 1.434 . S
C305 C306 1.369 . S
C305 C307 1.419 . S
C305 H309 0.930 . S
C306 C305 1.369 . S
C306 C315 1.429 . S
C307 C305 1.419 . S
C307 C308 1.363 . S
C307 H310 0.929 . S
C308 C307 1.363 . S
C308 C314 1.428 . S
H309 C305 0.930 . S
H310 C307 0.929 . S
S311 N312 1.613 . S
S311 N313 1.610 . S
N312 S311 1.613 . S
N312 C315 1.350 . S
N313 S311 1.610 . S
N313 C314 1.351 . S
C314 C308 1.428 . S
C314 N313 1.351 . S
C314 C315 1.434 . S
C315 C306 1.429 . S
C315 N312 1.350 . S
C315 C314 1.434 . S
C316 C317 1.369 . S
C316 C318 1.419 . S
C316 H320 0.930 . S
C317 C316 1.369 . S
C317 C326 1.429 . S
C318 C316 1.419 . S
C318 C319 1.363 . S
C318 H321 0.929 . S
C319 C318 1.363 . S
C319 C325 1.428 . S
H320 C316 0.930 . S
H321 C318 0.929 . S
S322 N323 1.613 . S
S322 N324 1.610 . S
N323 S322 1.613 . S
N323 C326 1.350 . S
N324 S322 1.610 . S
N324 C325 1.351 . S
C325 C319 1.428 . S
C325 N324 1.351 . S
C325 C326 1.434 . S
C326 C317 1.429 . S
C326 N323 1.350 . S
C326 C325 1.434 . S
C327 C328 1.369 . S
C327 C329 1.419 . S
C327 H331 0.930 . S
C328 C327 1.369 . S
C328 C337 1.429 . S
C329 C327 1.419 . S
C329 C330 1.363 . S
C329 H332 0.929 . S
C330 C329 1.363 . S
C330 C336 1.428 . S
H331 C327 0.930 . S
H332 C329 0.929 . S
S333 N334 1.613 . S
S333 N335 1.610 . S
N334 S333 1.613 . S
N334 C337 1.350 . S
N335 S333 1.610 . S
N335 C336 1.351 . S
C336 C330 1.428 . S
C336 N335 1.351 . S
C336 C337 1.434 . S
C337 C328 1.429 . S
C337 N334 1.350 . S
C337 C336 1.434 . S
C338 C339 1.369 . S
C338 C340 1.419 . S
C338 H342 0.930 . S
C339 C338 1.369 . S
C339 C348 1.429 . S
C340 C338 1.419 . S
C340 C341 1.363 . S
C340 H343 0.929 . S
C341 C340 1.363 . S
C341 C347 1.428 . S
H342 C338 0.930 . S
H343 C340 0.929 . S
S344 N345 1.613 . S
S344 N346 1.610 . S
N345 S344 1.613 . S
N345 C348 1.350 . S
N346 S344 1.610 . S
N346 C347 1.351 . S
C347 C341 1.428 . S
C347 N346 1.351 . S
C347 C348 1.434 . S
C348 C339 1.429 . S
C348 N345 1.350 . S
C348 C347 1.434 . S
C349 C350 1.369 . S
C349 C351 1.419 . S
C349 H353 0.930 . S
C350 C349 1.369 . S
C350 C359 1.429 . S
C351 C349 1.419 . S
C351 C352 1.363 . S
C351 H354 0.929 . S
C352 C351 1.363 . S
C352 C358 1.428 . S
H353 C349 0.930 . S
H354 C351 0.929 . S
S355 N356 1.613 . S
S355 N357 1.610 . S
N356 S355 1.613 . S
N356 C359 1.350 . S
N357 S355 1.610 . S
N357 C358 1.351 . S
C358 C352 1.428 . S
C358 N357 1.351 . S
C358 C359 1.434 . S
C359 C350 1.429 . S
C359 N356 1.350 . S
C359 C358 1.434 . S
C360 C361 1.369 . S
C360 C362 1.419 . S
C360 H364 0.930 . S
C361 C360 1.369 . S
C361 C370 1.429 . S
C362 C360 1.419 . S
C362 C363 1.363 . S
C362 H365 0.929 . S
C363 C362 1.363 . S
C363 C369 1.428 . S
H364 C360 0.930 . S
H365 C362 0.929 . S
S366 N367 1.613 . S
S366 N368 1.610 . S
N367 S366 1.613 . S
N367 C370 1.350 . S
N368 S366 1.610 . S
N368 C369 1.351 . S
C369 C363 1.428 . S
C369 N368 1.351 . S
C369 C370 1.434 . S
C370 C361 1.429 . S
C370 N367 1.350 . S
C370 C369 1.434 . S
C371 C372 1.369 . S
C371 C373 1.419 . S
C371 H375 0.930 . S
C372 C371 1.369 . S
C372 C381 1.429 . S
C373 C371 1.419 . S
C373 C374 1.363 . S
C373 H376 0.929 . S
C374 C373 1.363 . S
C374 C380 1.428 . S
H375 C371 0.930 . S
H376 C373 0.929 . S
S377 N378 1.613 . S
S377 N379 1.610 . S
N378 S377 1.613 . S
N378 C381 1.350 . S
N379 S377 1.610 . S
N379 C380 1.351 . S
C380 C374 1.428 . S
C380 N379 1.351 . S
C380 C381 1.434 . S
C381 C372 1.429 . S
C381 N378 1.350 . S
C381 C380 1.434 . S
C382 C383 1.369 . S
C382 C384 1.419 . S
C382 H386 0.930 . S
C383 C382 1.369 . S
C383 C392 1.429 . S
C384 C382 1.419 . S
C384 C385 1.363 . S
C384 H387 0.929 . S
C385 C384 1.363 . S
C385 C391 1.428 . S
H386 C382 0.930 . S
H387 C384 0.929 . S
S388 N389 1.613 . S
S388 N390 1.610 . S
N389 S388 1.613 . S
N389 C392 1.350 . S
N390 S388 1.610 . S
N390 C391 1.351 . S
C391 C385 1.428 . S
C391 N390 1.351 . S
C391 C392 1.434 . S
C392 C383 1.429 . S
C392 N389 1.350 . S
C392 C391 1.434 . S
C393 C394 1.369 . S
C393 C395 1.419 . S
C393 H397 0.930 . S
C394 C393 1.369 . S
C394 C403 1.429 . S
C395 C393 1.419 . S
C395 C396 1.363 . S
C395 H398 0.929 . S
C396 C395 1.363 . S
C396 C402 1.428 . S
H397 C393 0.930 . S
H398 C395 0.929 . S
S399 N400 1.613 . S
S399 N401 1.610 . S
N400 S399 1.613 . S
N400 C403 1.350 . S
N401 S399 1.610 . S
N401 C402 1.351 . S
C402 C396 1.428 . S
C402 N401 1.351 . S
C402 C403 1.434 . S
C403 C394 1.429 . S
C403 N400 1.350 . S
C403 C402 1.434 . S
C404 C405 1.369 . S
C404 C406 1.419 . S
C404 H408 0.930 . S
C405 C404 1.369 . S
C405 C414 1.429 . S
C406 C404 1.419 . S
C406 C407 1.363 . S
C406 H409 0.929 . S
C407 C406 1.363 . S
C407 C413 1.428 . S
H408 C404 0.930 . S
H409 C406 0.929 . S
S410 N411 1.613 . S
S410 N412 1.610 . S
N411 S410 1.613 . S
N411 C414 1.350 . S
N412 S410 1.610 . S
N412 C413 1.351 . S
C413 C407 1.428 . S
C413 N412 1.351 . S
C413 C414 1.434 . S
C414 C405 1.429 . S
C414 N411 1.350 . S
C414 C413 1.434 . S
C415 C416 1.369 . S
C415 C417 1.419 . S
C415 H419 0.930 . S
C416 C415 1.369 . S
C416 C425 1.429 . S
C417 C415 1.419 . S
C417 C418 1.363 . S
C417 H420 0.929 . S
C418 C417 1.363 . S
C418 C424 1.428 . S
H419 C415 0.930 . S
H420 C417 0.929 . S
S421 N422 1.613 . S
S421 N423 1.610 . S
N422 S421 1.613 . S
N422 C425 1.350 . S
N423 S421 1.610 . S
N423 C424 1.351 . S
C424 C418 1.428 . S
C424 N423 1.351 . S
C424 C425 1.434 . S
C425 C416 1.429 . S
C425 N422 1.350 . S
C425 C424 1.434 . S
C426 C427 1.369 . S
C426 C428 1.419 . S
C426 H430 0.930 . S
C427 C426 1.369 . S
C427 C436 1.429 . S
C428 C426 1.419 . S
C428 C429 1.363 . S
C428 H431 0.929 . S
C429 C428 1.363 . S
C429 C435 1.428 . S
H430 C426 0.930 . S
H431 C428 0.929 . S
S432 N433 1.613 . S
S432 N434 1.610 . S
N433 S432 1.613 . S
N433 C436 1.350 . S
N434 S432 1.610 . S
N434 C435 1.351 . S
C435 C429 1.428 . S
C435 N434 1.351 . S
C435 C436 1.434 . S
C436 C427 1.429 . S
C436 N433 1.350 . S
C436 C435 1.434 . S
C437 C438 1.369 . S
C437 C439 1.419 . S
C437 H441 0.930 . S
C438 C437 1.369 . S
C438 C447 1.429 . S
C439 C437 1.419 . S
C439 C440 1.363 . S
C439 H442 0.929 . S
C440 C439 1.363 . S
C440 C446 1.428 . S
H441 C437 0.930 . S
H442 C439 0.929 . S
S443 N444 1.613 . S
S443 N445 1.610 . S
N444 S443 1.613 . S
N444 C447 1.350 . S
N445 S443 1.610 . S
N445 C446 1.351 . S
C446 C440 1.428 . S
C446 N445 1.351 . S
C446 C447 1.434 . S
C447 C438 1.429 . S
C447 N444 1.350 . S
C447 C446 1.434 . S
C448 C449 1.369 . S
C448 C450 1.419 . S
C448 H452 0.930 . S
C449 C448 1.369 . S
C449 C458 1.429 . S
C450 C448 1.419 . S
C450 C451 1.363 . S
C450 H453 0.929 . S
C451 C450 1.363 . S
C451 C457 1.428 . S
H452 C448 0.930 . S
H453 C450 0.929 . S
S454 N455 1.613 . S
S454 N456 1.610 . S
N455 S454 1.613 . S
N455 C458 1.350 . S
N456 S454 1.610 . S
N456 C457 1.351 . S
C457 C451 1.428 . S
C457 N456 1.351 . S
C457 C458 1.434 . S
C458 C449 1.429 . S
C458 N455 1.350 . S
C458 C457 1.434 . S
C198 C120 1.484 . S
C196 C6 1.586 . S
C209 C156 1.737 . S
C207 C21 1.841 . S
C220 C121 1.366 . S
C218 C28 1.381 . S
C231 C151 1.208 . S
C229 C45 1.232 . S
C242 C118 1.548 . S
C240 C54 1.620 . S
C251 C69 1.912 . S
C253 C154 1.921 . S
C262 C81 0.826 . S
C264 C123 0.798 . S
C275 C153 1.495 . S
C273 C88 1.529 . S
C286 C157 1.421 . S
C284 C4 1.416 . S
C297 C122 1.558 . S
C295 C18 1.597 . S
C308 C150 1.825 . S
C306 C33 1.792 . S
C319 C119 0.793 . S
C317 C42 0.809 . S
C330 C152 1.794 . S
C328 C57 1.906 . S
C339 C64 1.415 . S
C341 C117 1.403 . S
C350 C78 1.203 . S
C352 C155 1.199 . S
C363 C124 1.476 . S
C361 C93 1.560 . S
C374 C186 1.789 . S
C372 C9 1.887 . S
C383 C52 1.999 . S
C385 C189 1.872 . S
C396 C188 1.852 . S
C394 C66 1.922 . S
C405 C76 1.372 . S
C407 C187 1.355 . S
C418 C190 1.706 . S
C416 C90 1.795 . S
C427 C30 1.837 . S
C429 C184 1.801 . S
C440 C183 1.362 . S
C438 C40 1.390 . S
C449 C16 1.967 . S
C451 C185 1.825 . S
