# Generated by pormake.
# Topology tsx, (6,3)-cn, num edge types: 1
# Building blocks:
#     Node 0, Type 0, BuildingBlock: CIFDUS_clean_sbu_1, # of connection points: 6
#     Node 1, Type 0, BuildingBlock: CIFDUS_clean_sbu_1, # of connection points: 6
#     Node 2, Type 1, BuildingBlock: BELTOD_clean_linker_0, # of connection points: 3
#     Node 3, Type 1, BuildingBlock: BELTOD_clean_linker_0, # of connection points: 3
#     Node 4, Type 1, BuildingBlock: BELTOD_clean_linker_0, # of connection points: 3
#     Node 5, Type 1, BuildingBlock: BELTOD_clean_linker_0, # of connection points: 3
#     Edge 6, Type (0, 1), BuildingBlock: KIFKEQ_clean_linker_1, # of connection points: 2
#     Edge 7, Type (0, 1), BuildingBlock: KIFKEQ_clean_linker_1, # of connection points: 2
#     Edge 8, Type (0, 1), BuildingBlock: KIFKEQ_clean_linker_1, # of connection points: 2
#     Edge 9, Type (0, 1), BuildingBlock: KIFKEQ_clean_linker_1, # of connection points: 2
#     Edge 10, Type (0, 1), BuildingBlock: KIFKEQ_clean_linker_1, # of connection points: 2
#     Edge 11, Type (0, 1), BuildingBlock: KIFKEQ_clean_linker_1, # of connection points: 2
#     Edge 12, Type (0, 1), BuildingBlock: KIFKEQ_clean_linker_1, # of connection points: 2
#     Edge 13, Type (0, 1), BuildingBlock: KIFKEQ_clean_linker_1, # of connection points: 2
#     Edge 14, Type (0, 1), BuildingBlock: KIFKEQ_clean_linker_1, # of connection points: 2
#     Edge 15, Type (0, 1), BuildingBlock: KIFKEQ_clean_linker_1, # of connection points: 2
#     Edge 16, Type (0, 1), BuildingBlock: KIFKEQ_clean_linker_1, # of connection points: 2
#     Edge 17, Type (0, 1), BuildingBlock: KIFKEQ_clean_linker_1, # of connection points: 2
# Relax obj value: 0.115
# Max RMSD: 0.149
# Mean RMSD: 0.108
data_MOF--net-tsx--node1-CIFDUS_clean_sbu_1--node2-BELTOD_clean_linker_0--edge1-KIFKEQ_clean_linker_1
_symmetry_space_group_name_H-M    P1
_symmetry_Int_Tables_number       1
_symmetry_cell_setting            triclinic
loop_
_symmetry_equiv_pos_as_xyz
'x, y, z'
_cell_length_a     20.511324
_cell_length_b     25.68528
_cell_length_c     41.498287
_cell_angle_alpha  97.784263
_cell_angle_beta   93.602809
_cell_angle_gamma 91.485745
loop_
_atom_site_label
_atom_site_type_symbol
_atom_site_fract_x
_atom_site_fract_y
_atom_site_fract_z
_atom_type_partial_charge
O0 O 0.97733 0.10701 0.02249 0.0
Mn1 Mn 0.03414 0.03963 0.02212 0.0
O2 O 0.88216 0.08132 0.99424 0.0
Mn3 Mn 0.90925 0.01658 0.97613 0.0
O4 O 0.09148 0.97261 0.02158 0.0
O5 O 0.11253 0.08775 0.03685 0.0
Mn6 Mn 0.15729 0.06373 0.06901 0.0
O7 O 1.01217 0.03533 0.07066 0.0
O8 O 0.18386 -0.00211 0.0525 0.0
O9 O 0.05563 0.04368 0.97356 0.0
O10 O 0.96321 0.01858 0.94232 0.0
O11 O 0.20154 0.12417 0.06247 0.0
O12 O 0.10199 0.06542 0.10245 0.0
C13 C 0.91169 0.9543 0.0054 0.0
C14 C 0.91889 0.11616 0.01188 0.0
C15 C 0.14861 0.96323 0.03382 0.0
C16 C 0.15505 0.12645 0.04019 0.0
C17 C 0.0425 0.04924 0.09875 0.0
C18 C 0.02334 0.03332 0.94569 0.0
O19 O 0.95566 0.99174 0.00739 0.0
O20 O 0.86503 0.95628 0.98316 0.0
O21 O 0.4913 0.60233 0.51769 0.0
Mn22 Mn 0.53287 0.52751 0.51032 0.0
O23 O 0.38481 0.58941 0.50062 0.0
Mn24 Mn 0.39079 0.52177 0.47993 0.0
O25 O 0.57136 0.45167 0.50199 0.0
O26 O 0.62224 0.56459 0.51538 0.0
Mn27 Mn 0.67586 0.52392 0.53477 0.0
O28 O 0.53647 0.52464 0.56062 0.0
O29 O 0.68019 0.46204 0.50721 0.0
O30 O 0.53136 0.52982 0.45992 0.0
O31 O 0.42708 0.51537 0.43989 0.0
O32 O 0.72642 0.58097 0.52864 0.0
O33 O 0.64362 0.51814 0.57504 0.0
C34 C 0.39605 0.45883 0.50868 0.0
C35 C 0.43275 0.61882 0.51393 0.0
C36 C 0.62883 0.43398 0.49834 0.0
C37 C 0.67238 0.59671 0.51598 0.0
C38 C 0.58374 0.51972 0.58182 0.0
C39 C 0.4877 0.5224 0.43592 0.0
O40 O 0.44411 0.49096 0.50568 0.0
O41 O 0.34227 0.46761 0.49262 0.0
P42 P 0.1053 0.08479 0.44492 0.0
H43 H 0.06482 0.1597 0.49889 0.0
H44 H 0.9575 0.19252 0.51132 0.0
H45 H 0.86627 0.06851 0.44089 0.0
H46 H 0.97413 0.03604 0.42844 0.0
H47 H 0.2448 0.06918 0.45189 0.0
H48 H 0.31001 0.00021 0.47141 0.0
H49 H 0.13311 0.9179 0.4903 0.0
H50 H 0.06803 0.98815 0.47157 0.0
H51 H 0.07879 0.15369 0.39625 0.0
H52 H 0.09147 0.9869 0.39821 0.0
O53 O 0.15047 0.1406 0.45304 0.0
H54 H 0.04632 0.13783 0.33815 0.0
H55 H 0.05762 0.9704 0.33988 0.0
C56 C 0.02754 0.09636 0.46211 0.0
C57 C 0.02172 0.1386 0.4868 0.0
C58 C 0.96008 0.15722 0.49399 0.0
C59 C 0.90325 0.13379 0.47658 0.0
C60 C 0.90915 0.08808 0.45423 0.0
C61 C 0.97084 0.06935 0.4472 0.0
C62 C 0.15166 0.0341 0.4607 0.0
C63 C 0.22 0.03654 0.46055 0.0
C64 C 0.25728 -0.00314 0.47147 0.0
C65 C 0.22685 0.95356 0.48251 0.0
C66 C 0.15812 0.95122 0.48257 0.0
C67 C 0.1208 0.99115 0.47169 0.0
C68 C 0.08916 0.07161 0.40135 0.0
C69 C 0.07535 0.11359 0.38402 0.0
C70 C 0.05578 0.10437 0.35086 0.0
C71 C 0.04883 0.05277 0.33432 0.0
C72 C 0.06306 0.01063 0.35178 0.0
C73 C 0.08267 0.01999 0.3851 0.0
P74 P 0.12529 0.97918 0.59899 0.0
H75 H 0.09102 0.90165 0.54195 0.0
H76 H 0.98701 0.86192 0.51761 0.0
H77 H 0.88415 0.96803 0.58487 0.0
H78 H 0.98908 0.00889 0.60857 0.0
H79 H 0.23392 0.99359 0.55796 0.0
H80 H 0.28979 0.07183 0.54419 0.0
H81 H 0.14868 0.16915 0.59423 0.0
H82 H 0.09229 0.09021 0.60753 0.0
H83 H 0.04317 0.93121 0.64294 0.0
H84 H 0.19738 0.05065 0.65136 0.0
O85 O 0.17707 0.93029 0.59319 0.0
H86 H 0.03689 0.94486 0.70198 0.0
H87 H 0.19106 0.0647 0.71055 0.0
C88 C 0.04791 0.95743 0.57751 0.0
C89 C 0.04618 0.91735 0.55094 0.0
C90 C 0.9865 0.89473 0.53696 0.0
C91 C 0.92727 0.91146 0.54953 0.0
C92 C 0.92899 0.95393 0.5749 0.0
C93 C 0.98888 0.97726 0.58845 0.0
C94 C 0.15941 0.03612 0.58413 0.0
C95 C 0.21415 0.03157 0.56544 0.0
C96 C 0.24618 0.07644 0.55759 0.0
C97 C 0.22441 0.12675 0.56866 0.0
C98 C 0.16741 0.13095 0.58593 0.0
C99 C 0.13488 0.08594 0.59335 0.0
C100 C 0.11844 0.99171 0.64249 0.0
C101 C 0.07469 0.96123 0.65737 0.0
C102 C 0.07139 0.96887 0.6912 0.0
C103 C 0.11288 0.0064 0.71093 0.0
C104 C 0.15836 0.03559 0.69603 0.0
C105 C 0.16133 0.02808 0.66212 0.0
P106 P 0.621 0.59476 0.93821 0.0
H107 H 0.59424 0.6622 0.99784 0.0
H108 H 0.49412 0.70204 0.01681 0.0
H109 H 0.38181 0.60876 0.93686 0.0
H110 H 0.48205 0.568 0.91847 0.0
H111 H 0.7465 0.58763 0.97499 0.0
H112 H 0.79974 0.51533 0.99756 0.0
H113 H 0.63066 0.41378 0.96469 0.0
H114 H 0.5769 0.48692 0.94288 0.0
H115 H 0.54937 0.64604 0.88916 0.0
H116 H 0.66529 0.50855 0.89079 0.0
O117 O 0.67214 0.64729 0.94451 0.0
H118 H 0.53251 0.6265 0.82985 0.0
H119 H 0.64869 0.48892 0.83149 0.0
C120 C 0.54583 0.61364 0.95612 0.0
C121 C 0.54792 0.6495 0.9848 0.0
C122 C 0.49058 0.67207 0.99568 0.0
C123 C 0.43026 0.65919 0.97794 0.0
C124 C 0.42776 0.6201 0.95065 0.0
C125 C 0.48507 0.59689 0.94011 0.0
C126 C 0.65776 0.54254 0.95716 0.0
C127 C 0.72054 0.54999 0.97289 0.0
C128 C 0.75119 0.5085 0.98562 0.0
C129 C 0.71954 0.45877 0.9829 0.0
C130 C 0.65608 0.45178 0.96757 0.0
C131 C 0.62532 0.49343 0.955 0.0
C132 C 0.60708 0.57803 0.89457 0.0
C133 C 0.57036 0.61118 0.87682 0.0
C134 C 0.5606 0.59993 0.84292 0.0
C135 C 0.58877 0.55592 0.82601 0.0
C136 C 0.62633 0.52313 0.84384 0.0
C137 C 0.6355 0.53414 0.87782 0.0
P138 P 0.62182 0.47885 0.08916 0.0
H139 H 0.58274 0.446 0.02078 0.0
H140 H 0.48099 0.40587 0.99313 0.0
H141 H 0.38508 0.4394 0.08301 0.0
H142 H 0.48664 0.47925 0.11019 0.0
H143 H 0.75625 0.49714 0.07274 0.0
H144 H 0.81689 0.57596 0.06284 0.0
H145 H 0.6407 0.66394 0.07039 0.0
H146 H 0.57972 0.58443 0.07984 0.0
H147 H 0.60159 0.40221 0.13311 0.0
H148 H 0.62511 0.5709 0.14095 0.0
O149 O 0.66687 0.42648 0.07978 0.0
H150 H 0.588 0.40939 0.19155 0.0
H151 H 0.61036 0.57847 0.19933 0.0
C152 C 0.54286 0.46439 0.0676 0.0
C153 C 0.53942 0.44565 0.03423 0.0
C154 C 0.48123 0.42271 0.01853 0.0
C155 C 0.42511 0.41872 0.03599 0.0
C156 C 0.42726 0.44197 0.06878 0.0
C157 C 0.48569 0.4645 0.08447 0.0
C158 C 0.66346 0.53502 0.07709 0.0
C159 C 0.73029 0.53311 0.07177 0.0
C160 C 0.765 0.57816 0.0661 0.0
C161 C 0.73366 0.62612 0.06624 0.0
C162 C 0.66619 0.62755 0.07057 0.0
C163 C 0.63127 0.58221 0.07575 0.0
C164 C 0.61507 0.48587 0.13266 0.0
C165 C 0.60426 0.4408 0.14746 0.0
C166 C 0.59602 0.44501 0.18085 0.0
C167 C 0.59805 0.49453 0.20015 0.0
C168 C 0.60942 0.5397 0.18526 0.0
C169 C 0.61753 0.53541 0.15175 0.0
H170 H 0.19307 0.13461 0.97941 0.0
H171 H 0.1188 0.22254 0.06428 0.0
H172 H 0.24271 0.21528 0.96522 0.0
H173 H 0.17028 0.30237 0.05156 0.0
H174 H 0.29391 0.43712 0.03938 0.0
H175 H 0.20325 0.37259 0.0262 0.0
H176 H 0.33901 0.25624 0.9897 0.0
H177 H 0.4279 0.3209 1.00164 0.0
C178 C 0.18434 0.17173 0.99401 0.0
C179 C 0.15227 0.17259 0.02291 0.0
C180 C 0.21401 0.21791 0.98636 0.0
C181 C 0.2131 0.26534 0.00792 0.0
C182 C 0.17272 0.26706 0.03426 0.0
C183 C 0.14259 0.22111 0.04159 0.0
C184 C 0.30378 0.39803 0.02776 0.0
C185 C 0.36821 0.38399 0.02192 0.0
C186 C 0.25187 0.36089 0.02027 0.0
C187 C 0.26337 0.30853 0.00736 0.0
C188 C 0.32729 0.296 0.99917 0.0
C189 C 0.37883 0.33325 0.00621 0.0
H190 H 0.25137 0.92503 0.06653 0.0
H191 H 0.10962 0.88166 0.98512 0.0
H192 H 0.30557 0.84358 0.05326 0.0
H193 H 0.16396 0.79799 0.9721 0.0
H194 H 0.34815 0.7041 0.93622 0.0
H195 H 0.26717 0.76978 0.95035 0.0
H196 H 0.30003 0.75089 0.05194 0.0
H197 H 0.38246 0.68638 0.03776 0.0
C198 C 0.23113 0.89776 0.0459 0.0
C199 C 0.17643 0.91039 0.02664 0.0
C200 C 0.26197 0.85042 0.03853 0.0
C201 C 0.23914 0.81385 0.01168 0.0
C202 C 0.18308 0.82547 0.99286 0.0
C203 C 0.15176 0.87324 1.00038 0.0
C204 C 0.3368 0.71304 0.96147 0.0
C205 C 0.37225 0.69066 0.98596 0.0
C206 C 0.29019 0.75064 0.96958 0.0
C207 C 0.27779 0.7664 1.00235 0.0
C208 C 0.30953 0.74069 0.02652 0.0
C209 C 0.3566 0.7036 0.01845 0.0
H210 H 0.99191 0.87214 0.01133 0.0
H211 H 0.81841 0.94507 0.04641 0.0
H212 H 0.96011 0.79132 0.03278 0.0
H213 H 0.78534 0.86523 0.06688 0.0
H214 H 0.7345 0.71952 0.106 0.0
H215 H 0.79485 0.80077 0.10111 0.0
H216 H 0.87832 0.72421 0.01465 0.0
H217 H 0.8201 0.64234 0.02072 0.0
C218 C 0.94852 0.87152 0.02489 0.0
C219 C 0.90782 0.91469 0.02764 0.0
C220 C 0.92952 0.82503 0.03663 0.0
C221 C 0.86943 0.82118 0.05112 0.0
C222 C 0.83214 0.8664 0.05626 0.0
C223 C 0.85111 0.91246 0.04459 0.0
C224 C 0.76599 0.72017 0.08605 0.0
C225 C 0.77181 0.67497 0.06342 0.0
C226 C 0.80074 0.76669 0.08323 0.0
C227 C 0.84124 0.76951 0.0573 0.0
C228 C 0.84854 0.72358 0.03524 0.0
C229 C 0.81457 0.67674 0.03843 0.0
H230 H 0.98642 0.21149 0.02898 0.0
H231 H 0.7918 0.14212 0.00731 0.0
H232 H 0.94163 0.2992 0.02937 0.0
H233 H 0.74803 0.22797 0.00624 0.0
H234 H 0.66891 0.38504 0.01698 0.0
H235 H 0.72112 0.30827 0.03355 0.0
H236 H 0.89772 0.35166 0.99052 0.0
H237 H 0.84622 0.43036 0.97574 0.0
C238 C 0.93413 0.21494 0.02487 0.0
C239 C 0.89283 0.16974 0.01782 0.0
C240 C 0.90847 0.26514 0.02471 0.0
C241 C 0.84107 0.27099 0.01761 0.0
C242 C 0.79987 0.22564 0.01232 0.0
C243 C 0.82526 0.17597 0.01259 0.0
C244 C 0.71919 0.3787 0.01155 0.0
C245 C 0.75321 0.41382 0.99497 0.0
C246 C 0.7492 0.33438 0.02087 0.0
C247 C 0.81355 0.32297 0.01296 0.0
C248 C 0.84848 0.35924 0.99744 0.0
C249 C 0.81877 0.4043 0.98874 0.0
H250 H 0.6094 0.68161 0.544 0.0
H251 H 0.7404 0.63152 0.4697 0.0
H252 H 0.65105 0.77234 0.54641 0.0
H253 H 0.78386 0.7206 0.47257 0.0
H254 H 0.8374 0.8756 0.58766 0.0
H255 H 0.75099 0.80919 0.57135 0.0
H256 H 0.79012 0.81053 0.47027 0.0
H257 H 0.87873 0.8758 0.48705 0.0
C258 C 0.64452 0.69054 0.52691 0.0
C259 C 0.67145 0.6498 0.50649 0.0
C260 C 0.66958 0.74235 0.52875 0.0
C261 C 0.72248 0.75397 0.51042 0.0
C262 C 0.74322 0.71389 0.48708 0.0
C263 C 0.71801 0.66247 0.48522 0.0
C264 C 0.82634 0.86282 0.56189 0.0
C265 C 0.86558 0.88038 0.5387 0.0
C266 C 0.77629 0.82471 0.55241 0.0
C267 C 0.76372 0.80348 0.51939 0.0
C268 C 0.79925 0.82478 0.49597 0.0
C269 C 0.84996 0.86237 0.50553 0.0
H270 H 0.5908 0.35005 0.52709 0.0
H271 H 0.69374 0.39363 0.44683 0.0
H272 H 0.6396 0.26323 0.5198 0.0
H273 H 0.74156 0.30741 0.43911 0.0
H274 H 0.81767 0.1491 0.42592 0.0
H275 H 0.72829 0.20982 0.42688 0.0
H276 H 0.75903 0.24459 0.53154 0.0
H277 H 0.8478 0.18294 0.53071 0.0
C278 C 0.62134 0.34005 0.50693 0.0
C279 C 0.63831 0.37804 0.4873 0.0
C280 C 0.64984 0.29072 0.50299 0.0
C281 C 0.69481 0.2786 0.47904 0.0
C282 C 0.70666 0.31516 0.45756 0.0
C283 C 0.67922 0.36456 0.46188 0.0
C284 C 0.80394 0.16817 0.4493 0.0
C285 C 0.84041 0.16153 0.47825 0.0
C286 C 0.75295 0.20329 0.44977 0.0
C287 C 0.73699 0.23239 0.47921 0.0
C288 C 0.76981 0.22253 0.50846 0.0
C289 C 0.82114 0.1876 0.50797 0.0
H290 H 0.32453 0.44767 0.55916 0.0
H291 H 0.46625 0.36983 0.49892 0.0
H292 H 0.29458 0.36509 0.57759 0.0
H293 H 0.43708 0.28612 0.51768 0.0
H294 H 0.27912 0.14868 0.51313 0.0
H295 H 0.33917 0.22884 0.50511 0.0
H296 H 0.31876 0.29214 0.60574 0.0
H297 H 0.25789 0.21251 0.61348 0.0
C298 C 0.35152 0.41308 0.55114 0.0
C299 C 0.39821 0.41506 0.52806 0.0
C300 C 0.3342 0.36554 0.56156 0.0
C301 C 0.36271 0.31861 0.5488 0.0
C302 C 0.41348 0.32141 0.52763 0.0
C303 C 0.43116 0.3694 0.51735 0.0
C304 C 0.28809 0.17957 0.53358 0.0
C305 C 0.26286 0.17464 0.56379 0.0
C306 C 0.32301 0.22537 0.5291 0.0
C307 C 0.33384 0.26713 0.55478 0.0
C308 C 0.31055 0.26119 0.58529 0.0
C309 C 0.27533 0.21566 0.58969 0.0
H310 H 0.50681 0.70634 0.50571 0.0
H311 H 0.32341 0.65707 0.53937 0.0
H312 H 0.46628 0.79514 0.50502 0.0
H313 H 0.28157 0.74344 0.53703 0.0
H314 H 0.21136 0.90253 0.53521 0.0
H315 H 0.27456 0.83166 0.55292 0.0
H316 H 0.39289 0.83383 0.47039 0.0
H317 H 0.33216 0.90732 0.45429 0.0
C318 C 0.45879 0.71498 0.51403 0.0
C319 C 0.4182 0.67485 0.52251 0.0
C320 C 0.43489 0.76556 0.51302 0.0
C321 C 0.36992 0.77665 0.52031 0.0
C322 C 0.33186 0.73727 0.53148 0.0
C323 C 0.35581 0.68729 0.5327 0.0
C324 C 0.25155 0.88843 0.52125 0.0
C325 C 0.26668 0.91077 0.49349 0.0
C326 C 0.28776 0.84741 0.53122 0.0
C327 C 0.33888 0.82621 0.513 0.0
C328 C 0.35493 0.84943 0.48553 0.0
C329 C 0.3196 0.89141 0.47606 0.0
H330 H 1.01323 0.12908 0.1438 0.0
H331 H 1.00633 0.96003 0.12255 0.0
H332 H 0.99686 0.12329 0.20083 0.0
H333 H 0.99013 0.95371 0.18005 0.0
H334 H 0.09571 0.98193 0.28648 0.0
H335 H 0.07088 0.975 0.22779 0.0
H336 H 0.92975 0.09625 0.24317 0.0
H337 H 0.95416 0.10292 0.30191 0.0
C338 C 1.00512 0.09067 0.15119 0.0
C339 C 1.01011 0.04504 0.1289 0.0
C340 C 0.99599 0.08724 0.1839 0.0
C341 C 0.99287 0.03799 0.19509 0.0
C342 C 0.99294 0.99219 0.1722 0.0
C343 C 1.00125 0.99572 0.13927 0.0
C344 C 0.05824 0.00621 0.27743 0.0
C345 C 0.0278 0.04363 0.29891 0.0
C346 C 0.04379 0.00211 0.24374 0.0
C347 C 0.99861 0.03535 0.23077 0.0
C348 C 0.96544 0.0706 0.25236 0.0
C349 C 0.97975 0.07461 0.28601 0.0
H350 H 0.13044 0.98632 0.91958 0.0
H351 H 0.98192 0.09749 0.9035 0.0
H352 H 0.16016 0.98472 0.86291 0.0
H353 H 1.01222 0.09724 0.84769 0.0
H354 H 1.00165 0.01424 0.7434 0.0
H355 H 0.99116 0.0273 0.80189 0.0
H356 H 0.20137 0.0335 0.81865 0.0
H357 H 0.21192 0.01906 0.75954 0.0
C358 C 0.10596 0.01178 0.90426 0.0
C359 C 0.05381 0.04182 0.9156 0.0
C360 C 0.12271 0.01082 0.87187 0.0
C361 C 0.08746 0.03999 0.85064 0.0
C362 C 0.03916 0.07334 0.86315 0.0
C363 C 0.02221 0.0739 0.89516 0.0
C364 C 0.04571 0.01808 0.75949 0.0
C365 C 0.10757 0.01546 0.74681 0.0
C366 C 0.03976 0.02623 0.79306 0.0
C367 C 0.0955 0.03202 0.81496 0.0
C368 C 0.15757 0.02918 0.80239 0.0
C369 C 0.16356 0.02131 0.7686 0.0
H370 H 0.49833 0.57653 0.61976 0.0
H371 H 0.64064 0.456 0.6211 0.0
H372 H 0.49408 0.58192 0.67902 0.0
H373 H 0.6343 0.45913 0.6796 0.0
H374 H 0.68395 0.53084 0.7843 0.0
H375 H 0.67438 0.5176 0.72514 0.0
H376 H 0.4672 0.54423 0.72634 0.0
H377 H 0.47759 0.55902 0.78597 0.0
C378 C 0.5272 0.55019 0.63265 0.0
C379 C 0.57041 0.51637 0.61604 0.0
C380 C 0.52485 0.55316 0.66659 0.0
C381 C 0.56503 0.52178 0.68434 0.0
C382 C 0.60436 0.4852 0.66705 0.0
C383 C 0.60755 0.48298 0.63344 0.0
C384 C 0.63622 0.53325 0.77196 0.0
C385 C 0.58153 0.54571 0.78981 0.0
C386 C 0.63053 0.52546 0.73793 0.0
C387 C 0.56978 0.52927 0.72074 0.0
C388 C 0.51485 0.54147 0.73866 0.0
C389 C 0.52074 0.5498 0.77282 0.0
H390 H 0.61201 0.52486 0.4141 0.0
H391 H 0.4076 0.51794 0.3806 0.0
H392 H 0.64188 0.51871 0.35747 0.0
H393 H 0.43742 0.51268 0.32475 0.0
H394 H 0.50614 0.44037 0.22836 0.0
H395 H 0.48407 0.44763 0.28562 0.0
H396 H 0.63786 0.56734 0.30916 0.0
H397 H 0.66158 0.55878 0.2516 0.0
C398 C 0.57352 0.52239 0.3948 0.0
C399 C 0.50739 0.52136 0.40199 0.0
C400 C 0.59065 0.51907 0.36238 0.0
C401 C 0.54198 0.51455 0.33658 0.0
C402 C 0.47611 0.51491 0.34395 0.0
C403 C 0.45906 0.5182 0.37612 0.0
C404 C 0.53593 0.46776 0.24573 0.0
C405 C 0.58568 0.49895 0.23536 0.0
C406 C 0.52277 0.47236 0.27856 0.0
C407 C 0.55887 0.50837 0.30195 0.0
C408 C 0.6094 0.53905 0.29176 0.0
C409 C 0.6225 0.53454 0.25877 0.0
loop_
_geom_bond_atom_site_label_1
_geom_bond_atom_site_label_2
_geom_bond_distance
_geom_bond_site_symmetry_2
_ccdc_geom_bond_type
O0 Mn1 2.163 1_655 S
O0 C14 1.244 . S
Mn1 O0 2.163 1_455 S
Mn1 O4 2.160 1_545 S
Mn1 O5 2.221 . S
Mn1 O7 2.163 . S
Mn1 O9 2.160 1_554 S
Mn1 O19 2.221 1_444 S
O2 Mn3 2.087 . S
O2 C14 1.256 1_556 S
Mn3 O2 2.087 . S
Mn3 O10 2.089 . S
Mn3 O19 2.290 1_545 S
Mn3 O20 2.251 1_546 S
O4 Mn1 2.160 1_565 S
O4 C15 1.239 . S
O5 Mn1 2.221 . S
O5 Mn6 2.290 . S
O5 C16 1.278 . S
Mn6 O5 2.290 . S
Mn6 O8 2.089 1_545 S
Mn6 O11 2.251 . S
Mn6 O12 2.087 . S
O7 Mn1 2.163 . S
O7 C17 1.244 . S
O8 Mn6 2.089 1_565 S
O8 C15 1.256 . S
O9 Mn1 2.160 1_556 S
O9 C18 1.239 . S
O10 Mn3 2.089 . S
O10 C18 1.256 1_655 S
O11 Mn6 2.251 . S
O11 C16 1.241 . S
O12 Mn6 2.087 . S
O12 C17 1.256 . S
C13 O19 1.278 1_554 S
C13 O20 1.241 . S
C14 O0 1.244 . S
C14 O2 1.256 1_554 S
C15 O4 1.239 . S
C15 O8 1.256 . S
C16 O5 1.278 . S
C16 O11 1.241 . S
C17 O7 1.244 . S
C17 O12 1.256 . S
C18 O9 1.239 . S
C18 O10 1.256 1_455 S
O19 Mn1 2.221 1_666 S
O19 Mn3 2.290 1_565 S
O19 C13 1.278 1_556 S
O20 Mn3 2.251 1_564 S
O20 C13 1.241 . S
O21 Mn22 2.163 . S
O21 C35 1.244 . S
Mn22 O21 2.163 . S
Mn22 O25 2.160 . S
Mn22 O26 2.221 . S
Mn22 O28 2.163 . S
Mn22 O30 2.160 . S
Mn22 O40 2.221 . S
O23 Mn24 2.087 . S
O23 C35 1.256 . S
Mn24 O23 2.087 . S
Mn24 O31 2.089 . S
Mn24 O40 2.290 . S
Mn24 O41 2.251 . S
O25 Mn22 2.160 . S
O25 C36 1.239 . S
O26 Mn22 2.221 . S
O26 Mn27 2.290 . S
O26 C37 1.278 . S
Mn27 O26 2.290 . S
Mn27 O29 2.089 . S
Mn27 O32 2.251 . S
Mn27 O33 2.087 . S
O28 Mn22 2.163 . S
O28 C38 1.244 . S
O29 Mn27 2.089 . S
O29 C36 1.256 . S
O30 Mn22 2.160 . S
O30 C39 1.239 . S
O31 Mn24 2.089 . S
O31 C39 1.256 . S
O32 Mn27 2.251 . S
O32 C37 1.241 . S
O33 Mn27 2.087 . S
O33 C38 1.256 . S
C34 O40 1.278 . S
C34 O41 1.241 . S
C35 O21 1.244 . S
C35 O23 1.256 . S
C36 O25 1.239 . S
C36 O29 1.256 . S
C37 O26 1.278 . S
C37 O32 1.241 . S
C38 O28 1.244 . S
C38 O33 1.256 . S
C39 O30 1.239 . S
C39 O31 1.256 . S
O40 Mn22 2.221 . S
O40 Mn24 2.290 . S
O40 C34 1.278 . S
O41 Mn24 2.251 . S
O41 C34 1.241 . S
P42 O53 1.490 . S
P42 C56 1.812 . S
P42 C62 1.803 1_545 S
P42 C68 1.819 . S
H43 C57 0.941 . S
H44 C58 0.939 . S
H45 C60 0.940 . S
H46 C61 0.940 . S
H47 C63 0.939 . S
H48 C64 0.942 . S
H49 C66 0.940 . S
H50 C67 0.939 . S
H51 C69 0.941 . S
H52 C73 0.939 . S
O53 P42 1.490 . S
H54 C70 0.939 . S
H55 C72 0.940 . S
C56 P42 1.812 . S
C56 C57 1.389 . S
C56 C61 1.391 1_455 S
C57 H43 0.941 . S
C57 C56 1.389 . S
C57 C58 1.397 1_455 S
C58 H44 0.939 . S
C58 C57 1.397 1_655 S
C58 C59 1.378 . S
C59 C58 1.378 . S
C59 C60 1.378 . S
C60 H45 0.940 . S
C60 C59 1.378 . S
C60 C61 1.396 . S
C61 H46 0.940 . S
C61 C56 1.391 1_655 S
C61 C60 1.396 . S
C62 P42 1.803 1_565 S
C62 C63 1.378 . S
C62 C67 1.400 . S
C63 H47 0.939 . S
C63 C62 1.378 . S
C63 C64 1.361 . S
C64 H48 0.942 . S
C64 C63 1.361 . S
C64 C65 1.369 . S
C65 C64 1.369 . S
C65 C66 1.404 . S
C66 H49 0.940 . S
C66 C65 1.404 . S
C66 C67 1.389 . S
C67 H50 0.939 . S
C67 C62 1.400 . S
C67 C66 1.389 . S
C68 P42 1.819 . S
C68 C69 1.391 . S
C68 C73 1.391 1_545 S
C69 H51 0.941 . S
C69 C68 1.391 . S
C69 C70 1.396 . S
C70 H54 0.939 . S
C70 C69 1.396 . S
C70 C71 1.397 . S
C71 C70 1.397 . S
C71 C72 1.385 1_545 S
C72 H55 0.940 . S
C72 C71 1.385 1_565 S
C72 C73 1.388 . S
C73 H52 0.939 . S
C73 C68 1.391 1_565 S
C73 C72 1.388 . S
P74 O85 1.490 1_545 S
P74 C88 1.806 1_455 S
P74 C94 1.803 . S
P74 C100 1.819 . S
H75 C89 0.941 . S
H76 C90 0.939 . S
H77 C92 0.940 1_545 S
H78 C93 0.940 . S
H79 C95 0.939 . S
H80 C96 0.942 . S
H81 C98 0.940 . S
H82 C99 0.954 . S
H83 C101 0.941 1_565 S
H84 C105 0.939 . S
O85 P74 1.490 1_565 S
H86 C102 0.939 1_565 S
H87 C104 0.940 . S
C88 P74 1.806 1_655 S
C88 C89 1.388 1_645 S
C88 C93 1.397 . S
C89 H75 0.941 . S
C89 C88 1.388 1_465 S
C89 C90 1.397 1_455 S
C90 H76 0.939 . S
C90 C89 1.397 1_655 S
C90 C91 1.378 . S
C91 C90 1.378 . S
C91 C92 1.378 . S
C92 H77 0.940 1_565 S
C92 C91 1.378 . S
C92 C93 1.396 1_565 S
C93 H78 0.940 . S
C93 C88 1.397 . S
C93 C92 1.396 1_545 S
C94 P74 1.803 . S
C94 C95 1.378 . S
C94 C99 1.400 . S
C95 H79 0.939 . S
C95 C94 1.378 . S
C95 C96 1.361 . S
C96 H80 0.942 . S
C96 C95 1.361 . S
C96 C97 1.369 . S
C97 C96 1.369 . S
C97 C98 1.404 . S
C98 H81 0.940 . S
C98 C97 1.404 . S
C98 C99 1.389 . S
C99 H82 0.954 . S
C99 C94 1.400 . S
C99 C98 1.389 . S
C100 P74 1.819 . S
C100 C101 1.391 . S
C100 C105 1.391 . S
C101 H83 0.941 1_545 S
C101 C100 1.391 . S
C101 C102 1.396 . S
C102 H86 0.939 1_545 S
C102 C101 1.396 . S
C102 C103 1.397 . S
C103 C102 1.397 . S
C103 C104 1.385 . S
C104 H87 0.940 . S
C104 C103 1.385 . S
C104 C105 1.388 . S
C105 H84 0.939 . S
C105 C100 1.391 . S
C105 C104 1.388 . S
P106 O117 1.490 . S
P106 C120 1.812 . S
P106 C126 1.803 . S
P106 C132 1.819 . S
H107 C121 0.941 . S
H108 C122 0.939 1_554 S
H109 C124 0.940 . S
H110 C125 0.940 . S
H111 C127 0.939 . S
H112 C128 0.942 . S
H113 C130 0.940 . S
H114 C131 0.939 . S
H115 C133 0.941 . S
H116 C137 0.939 . S
O117 P106 1.490 . S
H118 C134 0.939 . S
H119 C136 0.940 . S
C120 P106 1.812 . S
C120 C121 1.389 . S
C120 C125 1.391 . S
C121 H107 0.941 . S
C121 C120 1.389 . S
C121 C122 1.397 . S
C122 H108 0.939 1_556 S
C122 C121 1.397 . S
C122 C123 1.378 . S
C123 C122 1.378 . S
C123 C124 1.378 . S
C124 H109 0.940 . S
C124 C123 1.378 . S
C124 C125 1.396 . S
C125 H110 0.940 . S
C125 C120 1.391 . S
C125 C124 1.396 . S
C126 P106 1.803 . S
C126 C127 1.378 . S
C126 C131 1.400 . S
C127 H111 0.939 . S
C127 C126 1.378 . S
C127 C128 1.361 . S
C128 H112 0.942 . S
C128 C127 1.361 . S
C128 C129 1.369 . S
C129 C128 1.369 . S
C129 C130 1.404 . S
C130 H113 0.940 . S
C130 C129 1.404 . S
C130 C131 1.389 . S
C131 H114 0.939 . S
C131 C126 1.400 . S
C131 C130 1.389 . S
C132 P106 1.819 . S
C132 C133 1.391 . S
C132 C137 1.391 . S
C133 H115 0.941 . S
C133 C132 1.391 . S
C133 C134 1.396 . S
C134 H118 0.939 . S
C134 C133 1.396 . S
C134 C135 1.397 . S
C135 C134 1.397 . S
C135 C136 1.385 . S
C136 H119 0.940 . S
C136 C135 1.385 . S
C136 C137 1.388 . S
C137 H116 0.939 . S
C137 C132 1.391 . S
C137 C136 1.388 . S
P138 O149 1.490 . S
P138 C152 1.812 . S
P138 C158 1.803 . S
P138 C164 1.819 . S
H139 C153 0.941 . S
H140 C154 0.939 . S
H141 C156 0.940 . S
H142 C157 0.940 . S
H143 C159 0.939 . S
H144 C160 0.942 . S
H145 C162 0.940 . S
H146 C163 0.939 . S
H147 C165 0.941 . S
H148 C169 0.939 . S
O149 P138 1.490 . S
H150 C166 0.939 . S
H151 C168 0.940 . S
C152 P138 1.812 . S
C152 C153 1.389 . S
C152 C157 1.391 . S
C153 H139 0.941 . S
C153 C152 1.389 . S
C153 C154 1.397 . S
C154 H140 0.939 . S
C154 C153 1.397 . S
C154 C155 1.378 . S
C155 C154 1.378 . S
C155 C156 1.378 . S
C156 H141 0.940 . S
C156 C155 1.378 . S
C156 C157 1.396 . S
C157 H142 0.940 . S
C157 C152 1.391 . S
C157 C156 1.396 . S
C158 P138 1.803 . S
C158 C159 1.378 . S
C158 C163 1.400 . S
C159 H143 0.939 . S
C159 C158 1.378 . S
C159 C160 1.361 . S
C160 H144 0.942 . S
C160 C159 1.361 . S
C160 C161 1.369 . S
C161 C160 1.369 . S
C161 C162 1.404 . S
C162 H145 0.940 . S
C162 C161 1.404 . S
C162 C163 1.389 . S
C163 H146 0.939 . S
C163 C158 1.400 . S
C163 C162 1.389 . S
C164 P138 1.819 . S
C164 C165 1.391 . S
C164 C169 1.391 . S
C165 H147 0.941 . S
C165 C164 1.391 . S
C165 C166 1.396 . S
C166 H150 0.939 . S
C166 C165 1.396 . S
C166 C167 1.397 . S
C167 C166 1.397 . S
C167 C168 1.385 . S
C168 H151 0.940 . S
C168 C167 1.385 . S
C168 C169 1.388 . S
C169 H148 0.939 . S
C169 C164 1.391 . S
C169 C168 1.388 . S
H170 C178 0.950 . S
H171 C183 0.950 . S
H172 C180 0.950 . S
H173 C182 0.950 . S
H174 C184 0.950 . S
H175 C186 0.950 . S
H176 C188 0.950 . S
H177 C189 0.950 . S
C178 H170 0.950 . S
C178 C179 1.386 . S
C178 C180 1.391 . S
C179 C178 1.386 . S
C179 C183 1.393 . S
C180 H172 0.950 . S
C180 C178 1.391 . S
C180 C181 1.400 . S
C181 C180 1.400 . S
C181 C182 1.398 . S
C181 C187 1.491 . S
C182 H173 0.950 . S
C182 C181 1.398 . S
C182 C183 1.391 . S
C183 H171 0.950 . S
C183 C179 1.393 . S
C183 C182 1.391 . S
C184 H174 0.950 . S
C184 C185 1.386 . S
C184 C186 1.391 . S
C185 C184 1.386 . S
C185 C189 1.393 . S
C186 H175 0.950 . S
C186 C184 1.391 . S
C186 C187 1.400 . S
C187 C181 1.491 . S
C187 C186 1.400 . S
C187 C188 1.398 . S
C188 H176 0.950 . S
C188 C187 1.398 . S
C188 C189 1.391 . S
C189 H177 0.950 . S
C189 C185 1.393 . S
C189 C188 1.391 . S
H190 C198 0.950 . S
H191 C203 0.950 . S
H192 C200 0.950 . S
H193 C202 0.950 . S
H194 C204 0.950 . S
H195 C206 0.950 . S
H196 C208 0.950 . S
H197 C209 0.950 . S
C198 H190 0.950 . S
C198 C199 1.386 . S
C198 C200 1.391 . S
C199 C198 1.386 . S
C199 C203 1.393 1_554 S
C200 H192 0.950 . S
C200 C198 1.391 . S
C200 C201 1.378 1_554 S
C201 C200 1.378 1_556 S
C201 C202 1.419 . S
C201 C207 1.492 . S
C202 H193 0.950 . S
C202 C201 1.419 . S
C202 C203 1.391 . S
C203 H191 0.950 . S
C203 C199 1.393 1_556 S
C203 C202 1.391 . S
C204 H194 0.950 . S
C204 C205 1.386 . S
C204 C206 1.391 . S
C205 C204 1.386 . S
C205 C209 1.393 1_556 S
C206 H195 0.950 . S
C206 C204 1.391 . S
C206 C207 1.400 . S
C207 C201 1.492 . S
C207 C206 1.400 . S
C207 C208 1.398 1_556 S
C208 H196 0.950 . S
C208 C207 1.398 1_554 S
C208 C209 1.391 . S
C209 H197 0.950 . S
C209 C205 1.393 1_554 S
C209 C208 1.391 . S
H210 C218 0.950 . S
H211 C223 0.950 . S
H212 C220 0.950 . S
H213 C222 0.950 . S
H214 C224 0.950 . S
H215 C226 0.950 . S
H216 C228 0.950 . S
H217 C229 0.950 . S
C218 H210 0.950 . S
C218 C219 1.386 . S
C218 C220 1.391 . S
C219 C218 1.386 . S
C219 C223 1.393 . S
C220 H212 0.950 . S
C220 C218 1.391 . S
C220 C221 1.400 . S
C221 C220 1.400 . S
C221 C222 1.398 . S
C221 C227 1.491 . S
C222 H213 0.950 . S
C222 C221 1.398 . S
C222 C223 1.391 . S
C223 H211 0.950 . S
C223 C219 1.393 . S
C223 C222 1.391 . S
C224 H214 0.950 . S
C224 C225 1.386 . S
C224 C226 1.391 . S
C225 C224 1.386 . S
C225 C229 1.393 . S
C226 H215 0.950 . S
C226 C224 1.391 . S
C226 C227 1.400 . S
C227 C221 1.491 . S
C227 C226 1.400 . S
C227 C228 1.398 . S
C228 H216 0.950 . S
C228 C227 1.398 . S
C228 C229 1.391 . S
C229 H217 0.950 . S
C229 C225 1.393 . S
C229 C228 1.391 . S
H230 C238 0.950 . S
H231 C243 0.950 . S
H232 C240 0.950 . S
H233 C242 0.950 . S
H234 C244 0.950 . S
H235 C246 0.950 . S
H236 C248 0.950 . S
H237 C249 0.950 . S
C238 H230 0.950 . S
C238 C239 1.386 1_556 S
C238 C240 1.391 . S
C239 C238 1.386 1_554 S
C239 C243 1.393 . S
C240 H232 0.950 . S
C240 C238 1.391 . S
C240 C241 1.400 . S
C241 C240 1.400 . S
C241 C242 1.398 1_556 S
C241 C247 1.491 . S
C242 H233 0.950 . S
C242 C241 1.398 1_554 S
C242 C243 1.391 . S
C243 H231 0.950 . S
C243 C239 1.393 . S
C243 C242 1.391 . S
C244 H234 0.950 . S
C244 C245 1.386 1_554 S
C244 C246 1.391 . S
C245 C244 1.386 1_556 S
C245 C249 1.393 . S
C246 H235 0.950 . S
C246 C244 1.391 . S
C246 C247 1.400 1_554 S
C247 C241 1.491 . S
C247 C246 1.400 1_556 S
C247 C248 1.398 . S
C248 H236 0.950 . S
C248 C247 1.398 . S
C248 C249 1.391 . S
C249 H237 0.950 . S
C249 C245 1.393 . S
C249 C248 1.391 . S
H250 C258 0.950 . S
H251 C263 0.950 . S
H252 C260 0.950 . S
H253 C262 0.950 . S
H254 C264 0.950 . S
H255 C266 0.950 . S
H256 C268 0.950 . S
H257 C269 0.950 . S
C258 H250 0.950 . S
C258 C259 1.386 . S
C258 C260 1.391 . S
C259 C258 1.386 . S
C259 C263 1.393 . S
C260 H252 0.950 . S
C260 C258 1.391 . S
C260 C261 1.400 . S
C261 C260 1.400 . S
C261 C262 1.398 . S
C261 C267 1.491 . S
C262 H253 0.950 . S
C262 C261 1.398 . S
C262 C263 1.391 . S
C263 H251 0.950 . S
C263 C259 1.393 . S
C263 C262 1.391 . S
C264 H254 0.950 . S
C264 C265 1.386 . S
C264 C266 1.391 . S
C265 C264 1.386 . S
C265 C269 1.393 . S
C266 H255 0.950 . S
C266 C264 1.391 . S
C266 C267 1.400 . S
C267 C261 1.491 . S
C267 C266 1.400 . S
C267 C268 1.398 . S
C268 H256 0.950 . S
C268 C267 1.398 . S
C268 C269 1.391 . S
C269 H257 0.950 . S
C269 C265 1.393 . S
C269 C268 1.391 . S
H270 C278 0.950 . S
H271 C283 0.950 . S
H272 C280 0.950 . S
H273 C282 0.950 . S
H274 C284 0.950 . S
H275 C286 0.950 . S
H276 C288 0.950 . S
H277 C289 0.950 . S
C278 H270 0.950 . S
C278 C279 1.386 . S
C278 C280 1.391 . S
C279 C278 1.386 . S
C279 C283 1.393 . S
C280 H272 0.950 . S
C280 C278 1.391 . S
C280 C281 1.400 . S
C281 C280 1.400 . S
C281 C282 1.398 . S
C281 C287 1.491 . S
C282 H273 0.950 . S
C282 C281 1.398 . S
C282 C283 1.391 . S
C283 H271 0.950 . S
C283 C279 1.393 . S
C283 C282 1.391 . S
C284 H274 0.950 . S
C284 C285 1.386 . S
C284 C286 1.391 . S
C285 C284 1.386 . S
C285 C289 1.393 . S
C286 H275 0.950 . S
C286 C284 1.391 . S
C286 C287 1.400 . S
C287 C281 1.491 . S
C287 C286 1.400 . S
C287 C288 1.398 . S
C288 H276 0.950 . S
C288 C287 1.398 . S
C288 C289 1.391 . S
C289 H277 0.950 . S
C289 C285 1.393 . S
C289 C288 1.391 . S
H290 C298 0.950 . S
H291 C303 0.950 . S
H292 C300 0.950 . S
H293 C302 0.950 . S
H294 C304 0.950 . S
H295 C306 0.950 . S
H296 C308 0.950 . S
H297 C309 0.950 . S
C298 H290 0.950 . S
C298 C299 1.386 . S
C298 C300 1.391 . S
C299 C298 1.386 . S
C299 C303 1.393 . S
C300 H292 0.950 . S
C300 C298 1.391 . S
C300 C301 1.400 . S
C301 C300 1.400 . S
C301 C302 1.398 . S
C301 C307 1.491 . S
C302 H293 0.950 . S
C302 C301 1.398 . S
C302 C303 1.391 . S
C303 H291 0.950 . S
C303 C299 1.393 . S
C303 C302 1.391 . S
C304 H294 0.950 . S
C304 C305 1.386 . S
C304 C306 1.391 . S
C305 C304 1.386 . S
C305 C309 1.393 . S
C306 H295 0.950 . S
C306 C304 1.391 . S
C306 C307 1.400 . S
C307 C301 1.491 . S
C307 C306 1.400 . S
C307 C308 1.398 . S
C308 H296 0.950 . S
C308 C307 1.398 . S
C308 C309 1.391 . S
C309 H297 0.950 . S
C309 C305 1.393 . S
C309 C308 1.391 . S
H310 C318 0.950 . S
H311 C323 0.950 . S
H312 C320 0.950 . S
H313 C322 0.950 . S
H314 C324 0.950 . S
H315 C326 0.950 . S
H316 C328 0.950 . S
H317 C329 0.950 . S
C318 H310 0.950 . S
C318 C319 1.386 . S
C318 C320 1.391 . S
C319 C318 1.386 . S
C319 C323 1.393 . S
C320 H312 0.950 . S
C320 C318 1.391 . S
C320 C321 1.400 . S
C321 C320 1.400 . S
C321 C322 1.398 . S
C321 C327 1.491 . S
C322 H313 0.950 . S
C322 C321 1.398 . S
C322 C323 1.391 . S
C323 H311 0.950 . S
C323 C319 1.393 . S
C323 C322 1.391 . S
C324 H314 0.950 . S
C324 C325 1.386 . S
C324 C326 1.391 . S
C325 C324 1.386 . S
C325 C329 1.393 . S
C326 H315 0.950 . S
C326 C324 1.391 . S
C326 C327 1.400 . S
C327 C321 1.491 . S
C327 C326 1.400 . S
C327 C328 1.398 . S
C328 H316 0.950 . S
C328 C327 1.398 . S
C328 C329 1.391 . S
C329 H317 0.950 . S
C329 C325 1.393 . S
C329 C328 1.391 . S
H330 C338 0.950 1_655 S
H331 C343 0.950 . S
H332 C340 0.950 1_655 S
H333 C342 0.950 . S
H334 C344 0.950 . S
H335 C346 0.950 . S
H336 C348 0.950 1_655 S
H337 C349 0.950 1_655 S
C338 H330 0.950 1_455 S
C338 C339 1.386 . S
C338 C340 1.391 . S
C339 C338 1.386 . S
C339 C343 1.393 1_545 S
C340 H332 0.950 1_455 S
C340 C338 1.391 . S
C340 C341 1.400 . S
C341 C340 1.400 . S
C341 C342 1.398 1_545 S
C341 C347 1.491 . S
C342 H333 0.950 . S
C342 C341 1.398 1_565 S
C342 C343 1.391 . S
C343 H331 0.950 . S
C343 C339 1.393 1_565 S
C343 C342 1.391 . S
C344 H334 0.950 . S
C344 C345 1.386 1_565 S
C344 C346 1.391 . S
C345 C344 1.386 1_545 S
C345 C349 1.393 . S
C346 H335 0.950 . S
C346 C344 1.391 . S
C346 C347 1.400 1_565 S
C347 C341 1.491 . S
C347 C346 1.400 1_545 S
C347 C348 1.398 . S
C348 H336 0.950 1_455 S
C348 C347 1.398 . S
C348 C349 1.391 . S
C349 H337 0.950 1_455 S
C349 C345 1.393 . S
C349 C348 1.391 . S
H350 C358 0.950 . S
H351 C363 0.950 . S
H352 C360 0.950 . S
H353 C362 0.950 . S
H354 C364 0.950 . S
H355 C366 0.950 . S
H356 C368 0.950 . S
H357 C369 0.950 . S
C358 H350 0.950 . S
C358 C359 1.386 . S
C358 C360 1.391 . S
C359 C358 1.386 . S
C359 C363 1.393 1_455 S
C360 H352 0.950 . S
C360 C358 1.391 . S
C360 C361 1.400 . S
C361 C360 1.400 . S
C361 C362 1.398 1_455 S
C361 C367 1.491 . S
C362 H353 0.950 . S
C362 C361 1.398 1_655 S
C362 C363 1.391 . S
C363 H351 0.950 . S
C363 C359 1.393 1_655 S
C363 C362 1.391 . S
C364 H354 0.950 . S
C364 C365 1.386 1_655 S
C364 C366 1.391 . S
C365 C364 1.386 1_455 S
C365 C369 1.393 . S
C366 H355 0.950 . S
C366 C364 1.391 . S
C366 C367 1.400 1_655 S
C367 C361 1.491 . S
C367 C366 1.400 1_455 S
C367 C368 1.398 . S
C368 H356 0.950 . S
C368 C367 1.398 . S
C368 C369 1.391 . S
C369 H357 0.950 . S
C369 C365 1.393 . S
C369 C368 1.391 . S
H370 C378 0.950 . S
H371 C383 0.950 . S
H372 C380 0.950 . S
H373 C382 0.950 . S
H374 C384 0.950 . S
H375 C386 0.950 . S
H376 C388 0.950 . S
H377 C389 0.950 . S
C378 H370 0.950 . S
C378 C379 1.386 . S
C378 C380 1.391 . S
C379 C378 1.386 . S
C379 C383 1.393 . S
C380 H372 0.950 . S
C380 C378 1.391 . S
C380 C381 1.400 . S
C381 C380 1.400 . S
C381 C382 1.398 . S
C381 C387 1.491 . S
C382 H373 0.950 . S
C382 C381 1.398 . S
C382 C383 1.391 . S
C383 H371 0.950 . S
C383 C379 1.393 . S
C383 C382 1.391 . S
C384 H374 0.950 . S
C384 C385 1.386 . S
C384 C386 1.391 . S
C385 C384 1.386 . S
C385 C389 1.393 . S
C386 H375 0.950 . S
C386 C384 1.391 . S
C386 C387 1.400 . S
C387 C381 1.491 . S
C387 C386 1.400 . S
C387 C388 1.398 . S
C388 H376 0.950 . S
C388 C387 1.398 . S
C388 C389 1.391 . S
C389 H377 0.950 . S
C389 C385 1.393 . S
C389 C388 1.391 . S
H390 C398 0.950 . S
H391 C403 0.950 . S
H392 C400 0.950 . S
H393 C402 0.950 . S
H394 C404 0.950 . S
H395 C406 0.950 . S
H396 C408 0.950 . S
H397 C409 0.950 . S
C398 H390 0.950 . S
C398 C399 1.386 . S
C398 C400 1.391 . S
C399 C398 1.386 . S
C399 C403 1.393 . S
C400 H392 0.950 . S
C400 C398 1.391 . S
C400 C401 1.400 . S
C401 C400 1.400 . S
C401 C402 1.398 . S
C401 C407 1.491 . S
C402 H393 0.950 . S
C402 C401 1.398 . S
C402 C403 1.391 . S
C403 H391 0.950 . S
C403 C399 1.393 . S
C403 C402 1.391 . S
C404 H394 0.950 . S
C404 C405 1.386 . S
C404 C406 1.391 . S
C405 C404 1.386 . S
C405 C409 1.393 . S
C406 H395 0.950 . S
C406 C404 1.391 . S
C406 C407 1.400 . S
C407 C401 1.491 . S
C407 C406 1.400 . S
C407 C408 1.398 . S
C408 H396 0.950 . S
C408 C407 1.398 . S
C408 C409 1.391 . S
C409 H397 0.950 . S
C409 C405 1.393 . S
C409 C408 1.391 . S
C185 C155 1.384 . S
C179 C16 1.293 . S
C199 C15 1.493 . S
C205 C123 1.448 . S
C219 C13 1.288 . S
C225 C161 1.417 . S
C239 C14 1.309 . S
C245 C129 1.337 . S
C259 C37 1.269 . S
C265 C91 1.392 . S
C279 C36 1.494 . S
C285 C59 1.452 . S
C305 C97 1.403 . S
C299 C34 1.255 . S
C325 C65 1.332 . S
C319 C35 1.309 . S
C339 C17 1.522 . S
C345 C71 1.509 . S
C359 C18 1.373 . S
C365 C103 1.383 . S
C385 C135 1.508 . S
C379 C38 1.524 . S
C399 C39 1.376 . S
C405 C167 1.385 . S
