# Generated by pormake.
# Topology hwx, (6,3)-cn, num edge types: 1
# Building blocks:
#     Node 0, Type 0, BuildingBlock: OJICUG_clean_sbu_0, # of connection points: 6
#     Node 1, Type 0, BuildingBlock: OJICUG_clean_sbu_0, # of connection points: 6
#     Node 2, Type 0, BuildingBlock: OJICUG_clean_sbu_0, # of connection points: 6
#     Node 3, Type 0, BuildingBlock: OJICUG_clean_sbu_0, # of connection points: 6
#     Node 4, Type 1, BuildingBlock: QEWDON_clean_linker_0, # of connection points: 3
#     Node 5, Type 1, BuildingBlock: QEWDON_clean_linker_0, # of connection points: 3
#     Node 6, Type 1, BuildingBlock: QEWDON_clean_linker_0, # of connection points: 3
#     Node 7, Type 1, BuildingBlock: QEWDON_clean_linker_0, # of connection points: 3
#     Node 8, Type 1, BuildingBlock: QEWDON_clean_linker_0, # of connection points: 3
#     Node 9, Type 1, BuildingBlock: QEWDON_clean_linker_0, # of connection points: 3
#     Node 10, Type 1, BuildingBlock: QEWDON_clean_linker_0, # of connection points: 3
#     Node 11, Type 1, BuildingBlock: QEWDON_clean_linker_0, # of connection points: 3
#     Edge 12, Type (0, 1), BuildingBlock: TEMPAE_clean_linker_10, # of connection points: 2
#     Edge 13, Type (0, 1), BuildingBlock: TEMPAE_clean_linker_10, # of connection points: 2
#     Edge 14, Type (0, 1), BuildingBlock: TEMPAE_clean_linker_10, # of connection points: 2
#     Edge 15, Type (0, 1), BuildingBlock: TEMPAE_clean_linker_10, # of connection points: 2
#     Edge 16, Type (0, 1), BuildingBlock: TEMPAE_clean_linker_10, # of connection points: 2
#     Edge 17, Type (0, 1), BuildingBlock: TEMPAE_clean_linker_10, # of connection points: 2
#     Edge 18, Type (0, 1), BuildingBlock: TEMPAE_clean_linker_10, # of connection points: 2
#     Edge 19, Type (0, 1), BuildingBlock: TEMPAE_clean_linker_10, # of connection points: 2
#     Edge 20, Type (0, 1), BuildingBlock: TEMPAE_clean_linker_10, # of connection points: 2
#     Edge 21, Type (0, 1), BuildingBlock: TEMPAE_clean_linker_10, # of connection points: 2
#     Edge 22, Type (0, 1), BuildingBlock: TEMPAE_clean_linker_10, # of connection points: 2
#     Edge 23, Type (0, 1), BuildingBlock: TEMPAE_clean_linker_10, # of connection points: 2
#     Edge 24, Type (0, 1), BuildingBlock: TEMPAE_clean_linker_10, # of connection points: 2
#     Edge 25, Type (0, 1), BuildingBlock: TEMPAE_clean_linker_10, # of connection points: 2
#     Edge 26, Type (0, 1), BuildingBlock: TEMPAE_clean_linker_10, # of connection points: 2
#     Edge 27, Type (0, 1), BuildingBlock: TEMPAE_clean_linker_10, # of connection points: 2
#     Edge 28, Type (0, 1), BuildingBlock: TEMPAE_clean_linker_10, # of connection points: 2
#     Edge 29, Type (0, 1), BuildingBlock: TEMPAE_clean_linker_10, # of connection points: 2
#     Edge 30, Type (0, 1), BuildingBlock: TEMPAE_clean_linker_10, # of connection points: 2
#     Edge 31, Type (0, 1), BuildingBlock: TEMPAE_clean_linker_10, # of connection points: 2
#     Edge 32, Type (0, 1), BuildingBlock: TEMPAE_clean_linker_10, # of connection points: 2
#     Edge 33, Type (0, 1), BuildingBlock: TEMPAE_clean_linker_10, # of connection points: 2
#     Edge 34, Type (0, 1), BuildingBlock: TEMPAE_clean_linker_10, # of connection points: 2
#     Edge 35, Type (0, 1), BuildingBlock: TEMPAE_clean_linker_10, # of connection points: 2
# Relax obj value: 0.002
# Max RMSD: 0.100
# Mean RMSD: 0.077
data_MOF--net-hwx--node1-OJICUG_clean_sbu_0--node2-QEWDON_clean_linker_0--edge1-TEMPAE_clean_linker_10
_symmetry_space_group_name_H-M    P1
_symmetry_Int_Tables_number       1
_symmetry_cell_setting            triclinic
loop_
_symmetry_equiv_pos_as_xyz
'x, y, z'
_cell_length_a     56.576934
_cell_length_b     56.597004
_cell_length_c     19.981197
_cell_angle_alpha  92.573517
_cell_angle_beta   92.508134
_cell_angle_gamma 89.994621
loop_
_atom_site_label
_atom_site_type_symbol
_atom_site_fract_x
_atom_site_fract_y
_atom_site_fract_z
_atom_type_partial_charge
Sc0 Sc 0.23066 0.23363 0.08833 0.0
Sc1 Sc 0.18887 0.19657 -0.00021 0.0
Sc2 Sc 0.22793 0.23038 0.91074 0.0
O3 O 0.21583 0.22027 -0.00035 0.0
C4 C 0.22943 0.27912 -0.00069 0.0
C5 C 0.17572 0.23271 0.11895 0.0
C6 C 0.17208 0.22879 0.8797 0.0
C7 C 0.22321 0.17938 0.11897 0.0
C8 C 0.27606 0.22599 -0.00076 0.0
C9 C 0.21924 0.17493 0.88146 0.0
O10 O 0.22941 0.26945 0.05561 0.0
O11 O 0.17024 0.21752 0.07224 0.0
O12 O 0.19267 0.23619 0.86801 0.0
O13 O 0.23367 0.19916 0.13009 0.0
O14 O 0.26437 0.2256 0.94333 0.0
O15 O 0.20462 0.17299 0.92731 0.0
O16 O 0.26635 0.22912 0.05522 0.0
O17 O 0.20654 0.17616 0.07487 0.0
O18 O 0.22858 0.19456 0.86846 0.0
O19 O 0.19682 0.23974 0.13248 0.0
O20 O 0.22918 0.26728 0.94353 0.0
O21 O 0.16821 0.21434 0.92478 0.0
Sc22 Sc 0.26682 0.73579 0.42068 0.0
Sc23 Sc 0.3054 0.69679 0.50319 0.0
Sc24 Sc 0.27127 0.73685 0.59826 0.0
O25 O 0.28113 0.72318 0.50742 0.0
C26 C 0.27341 0.78323 0.51303 0.0
C27 C 0.32085 0.72894 0.38507 0.0
C28 C 0.32715 0.73065 0.62218 0.0
C29 C 0.26876 0.68008 0.38553 0.0
C30 C 0.22203 0.73373 0.51263 0.0
C31 C 0.27508 0.68188 0.6253 0.0
O32 O 0.27092 0.7721 0.45647 0.0
O33 O 0.32463 0.71297 0.42692 0.0
O34 O 0.30749 0.73993 0.63768 0.0
O35 O 0.26128 0.70077 0.37382 0.0
O36 O 0.23417 0.73471 0.56789 0.0
O37 O 0.28888 0.6773 0.57811 0.0
O38 O 0.23129 0.73412 0.45574 0.0
O39 O 0.28431 0.67596 0.43117 0.0
O40 O 0.26751 0.70255 0.63962 0.0
O41 O 0.30091 0.73908 0.37738 0.0
O42 O 0.27374 0.77294 0.56835 0.0
O43 O 0.32901 0.715 0.57514 0.0
Sc44 Sc 0.77299 0.7748 0.92698 0.0
Sc45 Sc 0.80919 0.8158 0.02176 0.0
Sc46 Sc 0.77315 0.77689 0.10377 0.0
O47 O 0.78501 0.78915 0.01739 0.0
C48 C 0.72582 0.77636 0.01096 0.0
C49 C 0.77567 0.82932 0.8962 0.0
C50 C 0.77471 0.83319 0.13389 0.0
C51 C 0.8287 0.78152 0.90744 0.0
C52 C 0.7783 0.72895 0.01349 0.0
C53 C 0.82766 0.78475 0.14239 0.0
O54 O 0.73647 0.77459 0.95605 0.0
O55 O 0.79201 0.83366 0.94061 0.0
O56 O 0.76882 0.81237 0.14878 0.0
O57 O 0.80842 0.77316 0.88851 0.0
O58 O 0.77613 0.74032 0.06929 0.0
O59 O 0.82996 0.80171 0.10373 0.0
O60 O 0.77805 0.739 0.95778 0.0
O61 O 0.83175 0.79655 0.95612 0.0
O62 O 0.80846 0.77342 0.1464 0.0
O63 O 0.76628 0.80899 0.88644 0.0
O64 O 0.73676 0.77814 0.06799 0.0
O65 O 0.7885 0.83724 0.0874 0.0
Sc66 Sc 0.72714 0.28114 0.59329 0.0
Sc67 Sc 0.68729 0.31736 0.5048 0.0
Sc68 Sc 0.72316 0.27718 0.41599 0.0
O69 O 0.71259 0.29185 0.50469 0.0
C70 C 0.77225 0.28116 0.50302 0.0
C71 C 0.72282 0.33706 0.62208 0.0
C72 C 0.71877 0.3319 0.38453 0.0
C73 C 0.67247 0.28611 0.6251 0.0
C74 C 0.72235 0.23209 0.5061 0.0
C75 C 0.66729 0.28211 0.38733 0.0
O76 O 0.76282 0.2833 0.55967 0.0
O77 O 0.70702 0.33984 0.57611 0.0
O78 O 0.72746 0.31139 0.37362 0.0
O79 O 0.69291 0.27731 0.63598 0.0
O80 O 0.72044 0.24153 0.44947 0.0
O81 O 0.66461 0.29786 0.43353 0.0
O82 O 0.72513 0.24419 0.56118 0.0
O83 O 0.66817 0.30111 0.58083 0.0
O84 O 0.68739 0.27352 0.37365 0.0
O85 O 0.73129 0.3169 0.63558 0.0
O86 O 0.76012 0.27857 0.44797 0.0
O87 O 0.70373 0.33629 0.42873 0.0
H88 H 0.25935 0.5154 0.09041 0.0
C89 C 0.25479 0.52459 0.04519 0.0
C90 C 0.245 0.54742 0.04999 0.0
C91 C 0.2606 0.51456 0.9824 0.0
H92 H 0.23421 0.57791 0.99568 0.0
C93 C 0.24039 0.55977 0.99157 0.0
C94 C 0.24698 0.55032 0.92921 0.0
C95 C 0.25679 0.5276 0.92475 0.0
C96 C 0.27406 0.49223 0.97753 0.0
H97 H 0.26257 0.52055 0.87682 0.0
C98 C 0.26413 0.47064 0.99468 0.0
C99 C 0.27689 0.44935 0.9861 0.0
C100 C 0.29694 0.49255 0.95314 0.0
H101 H 0.30488 0.50903 0.93983 0.0
C102 C 0.30975 0.47168 0.94551 0.0
H103 H 0.24647 0.47042 0.01354 0.0
C104 C 0.29981 0.45022 0.96138 0.0
H105 H 0.30993 0.43422 0.95274 0.0
H106 H 0.32733 0.47207 0.92631 0.0
H107 H 0.97833 0.71761 0.43044 0.0
C108 C 0.97311 0.72541 0.47807 0.0
C109 C 0.95268 0.73951 0.4811 0.0
C110 C 0.98592 0.72004 0.53748 0.0
H111 H 0.93062 0.76029 0.54616 0.0
C112 C 0.94619 0.74916 0.54348 0.0
C113 C 0.95807 0.74307 0.60306 0.0
C114 C 0.978 0.72842 0.59992 0.0
C115 C 0.00587 0.70332 0.53555 0.0
H116 H 0.98701 0.72313 0.64586 0.0
C117 C 0.02892 0.71115 0.52469 0.0
C118 C 0.04815 0.69526 0.5275 0.0
C119 C 1.00191 0.67954 0.54824 0.0
H120 H 0.98425 0.67333 0.5571 0.0
C121 C 0.02074 0.66369 0.55047 0.0
H122 H 0.03179 0.72956 0.51461 0.0
C123 C 0.04369 0.67144 0.54066 0.0
H124 H 0.05799 0.65881 0.54487 0.0
H125 H 0.01759 0.64537 0.56083 0.0
H126 H 0.78423 0.49391 0.92891 0.0
C127 C 0.77804 0.48471 0.97126 0.0
C128 C 0.76349 0.46465 0.96031 0.0
C129 C 0.7853 0.4923 0.03706 0.0
H130 H 0.74587 0.43641 0.00675 0.0
C131 C 0.75616 0.45252 0.01539 0.0
C132 C 0.76332 0.45972 0.08105 0.0
C133 C 0.77801 0.47963 0.09164 0.0
C134 C 0.8019 0.51238 0.04934 0.0
H135 H 0.78385 0.48524 0.14228 0.0
C136 C 0.7959 0.53526 0.02942 0.0
C137 C 0.81139 0.55448 0.04509 0.0
C138 C 0.82365 0.50871 0.08377 0.0
H139 H 0.82858 0.49124 0.09948 0.0
C140 C 0.8392 0.52751 0.09829 0.0
H141 H 0.77908 0.53809 0.00296 0.0
C142 C 0.83312 0.55023 0.07955 0.0
H143 H 0.84525 0.56459 0.09363 0.0
H144 H 0.8559 0.52453 0.1251 0.0
H145 H 0.00798 0.24525 0.58198 0.0
C146 C 0.01754 0.25054 0.53923 0.0
C147 C 0.04076 0.25932 0.5488 0.0
C148 C 0.00752 0.24666 0.47402 0.0
H149 H 0.07189 0.27036 0.50021 0.0
C150 C 0.05353 0.26491 0.49304 0.0
C151 C 0.04407 0.26022 0.42793 0.0
C152 C 0.02099 0.25132 0.41864 0.0
C153 C 0.98462 0.23422 0.46287 0.0
H154 H 0.01393 0.24693 0.36827 0.0
C155 C 0.96336 0.24444 0.48409 0.0
C156 C 0.94162 0.23256 0.47036 0.0
C157 C 0.9841 0.21196 0.42889 0.0
H158 H 1.0003 0.20381 0.41232 0.0
C159 C 0.96276 0.20003 0.41598 0.0
H160 H 0.96375 0.26163 0.51027 0.0
C161 C 0.94167 0.21024 0.43617 0.0
H162 H 0.92529 0.20083 0.42359 0.0
H163 H 0.96252 0.18292 0.38949 0.0
H164 H 0.75173 0.99889 0.42956 0.0
C165 C 0.7471 0.98763 0.4695 0.0
C166 C 0.73929 0.96437 0.4538 0.0
C167 C 0.75089 0.99557 0.53696 0.0
H168 H 0.73022 0.931 0.49346 0.0
C169 C 0.73499 0.94932 0.50563 0.0
C170 C 0.73987 0.95654 0.57261 0.0
C171 C 0.74706 0.9799 0.58828 0.0
C172 C 0.76264 0.01861 0.55401 0.0
H173 H 0.75142 0.98535 0.64007 0.0
C174 C 0.75332 0.04 0.53075 0.0
C175 C 0.76488 0.06166 0.54835 0.0
C176 C 0.78367 0.01905 0.59415 0.0
H177 H 0.79133 0.00281 0.61196 0.0
C178 C 0.79518 0.04034 0.61127 0.0
H179 H 0.73714 0.03978 0.49963 0.0
C180 C 0.78587 0.06149 0.58885 0.0
H181 H 0.79493 0.07783 0.6043 0.0
H182 H 0.81133 0.04047 0.64241 0.0
H183 H 0.51086 0.22012 0.08101 0.0
C184 C 0.52 0.22629 0.03852 0.0
C185 C 0.53991 0.24103 0.04917 0.0
C186 C 0.51246 0.21881 0.97287 0.0
H187 H 0.56796 0.25883 0.0023 0.0
C188 C 0.55195 0.24837 0.9939 0.0
C189 C 0.54477 0.24103 0.92835 0.0
C190 C 0.52502 0.2261 0.91808 0.0
C191 C 0.49246 0.20211 0.96107 0.0
H192 H 0.51943 0.22011 0.86755 0.0
C193 C 0.4696 0.20812 0.98111 0.0
C194 C 0.45043 0.19251 0.96635 0.0
C195 C 0.49617 0.18024 0.9273 0.0
H196 H 0.51365 0.17531 0.91149 0.0
C197 C 0.47742 0.16456 0.91371 0.0
H198 H 0.46673 0.22505 0.00701 0.0
C199 C 0.4547 0.17063 0.9327 0.0
H200 H 0.44036 0.15839 0.91946 0.0
H201 H 0.48043 0.14775 0.88748 0.0
H202 H 0.2808 0.01781 0.59531 0.0
C203 C 0.27534 0.02682 0.55047 0.0
C204 C 0.26056 0.04672 0.55523 0.0
C205 C 0.28374 0.01911 0.4879 0.0
H206 H 0.24374 0.07464 0.50143 0.0
C207 C 0.25416 0.0586 0.49714 0.0
C208 C 0.26239 0.05121 0.43454 0.0
C209 C 0.27728 0.03143 0.43026 0.0
C210 C 0.3004 0.99905 0.48254 0.0
H211 H 0.28389 0.0256 0.38215 0.0
C212 C 0.29401 0.97636 0.50153 0.0
C213 C 0.30944 0.95702 0.49188 0.0
C214 C 0.32254 0.00249 0.45541 0.0
H215 H 0.32777 0.01984 0.44054 0.0
C216 C 0.33807 0.98359 0.44709 0.0
H217 H 0.27689 0.97375 0.5224 0.0
C218 C 0.33157 0.961 0.46468 0.0
H219 H 0.34369 0.94654 0.45525 0.0
H220 H 0.35507 0.98637 0.42585 0.0
H221 H 0.49375 0.74618 0.92703 0.0
C222 C 0.48208 0.75107 0.96696 0.0
C223 C 0.45906 0.75895 0.95094 0.0
C224 C 0.48929 0.74772 0.03425 0.0
H225 H 0.42532 0.76866 0.9893 0.0
C226 C 0.44342 0.76366 0.00222 0.0
C227 C 0.44985 0.7592 0.06886 0.0
C228 C 0.47305 0.75202 0.08495 0.0
C229 C 0.51234 0.73641 0.05103 0.0
H230 H 0.47799 0.74821 0.13638 0.0
C231 C 0.53372 0.74489 0.02718 0.0
C232 C 0.5554 0.73385 0.04436 0.0
C233 C 0.51285 0.71666 0.09129 0.0
H234 H 0.49667 0.70953 0.10936 0.0
C235 C 0.53417 0.7057 0.10818 0.0
H236 H 0.53346 0.76004 0.99586 0.0
C237 C 0.55529 0.71424 0.08527 0.0
H238 H 0.57163 0.70567 0.10065 0.0
H239 H 0.53435 0.69058 0.1395 0.0
C240 C 0.13452 0.24722 0.12997 0.0
C241 C 0.15656 0.24187 0.1603 0.0
C242 C 0.11527 0.2536 0.16883 0.0
C243 C 0.11798 0.25372 0.23959 0.0
C244 C 0.14045 0.24902 0.27039 0.0
C245 C 0.15961 0.24353 0.2302 0.0
C246 C 0.09186 0.25931 0.13416 0.0
C247 C 0.14391 0.24837 0.34566 0.0
C248 C 0.07301 0.27999 0.35746 0.0
C249 C 0.06017 0.25981 0.37173 0.0
C250 C 0.09111 0.2786 0.31147 0.0
C251 C 0.09694 0.25635 0.28131 0.0
C252 C 0.08352 0.23607 0.29436 0.0
C253 C 0.06509 0.23814 0.33881 0.0
C254 C 0.10451 0.30072 0.29706 0.0
C255 C 0.08947 0.21192 0.26445 0.0
H256 H 0.13227 0.24614 0.07572 0.0
H257 H 0.17665 0.23922 0.25348 0.0
H258 H 0.07905 0.24483 0.14059 0.0
H259 H 0.08435 0.27574 0.15697 0.0
H260 H 0.09353 0.26156 0.07961 0.0
H261 H 0.1627 0.24549 0.36174 0.0
H262 H 0.1378 0.26513 0.36997 0.0
H263 H 0.1331 0.23387 0.3642 0.0
H264 H 0.06923 0.29671 0.38345 0.0
H265 H 0.05539 0.22247 0.35096 0.0
H266 H 0.10614 0.3021 0.24222 0.0
H267 H 0.12269 0.29993 0.32001 0.0
H268 H 0.09579 0.31695 0.31728 0.0
H269 H 0.08927 0.21225 0.209 0.0
H270 H 0.07693 0.19807 0.27852 0.0
H271 H 0.1076 0.20688 0.28184 0.0
C272 C 0.26295 0.63987 0.63346 0.0
C273 C 0.26758 0.66211 0.66499 0.0
C274 C 0.2569 0.62052 0.67074 0.0
C275 C 0.25628 0.62338 0.74136 0.0
C276 C 0.26055 0.64594 0.77327 0.0
C277 C 0.26577 0.66517 0.73446 0.0
C278 C 0.2517 0.59694 0.63475 0.0
C279 C 0.26063 0.64957 0.84864 0.0
C280 C 0.22834 0.57892 0.8509 0.0
C281 C 0.24824 0.5662 0.8728 0.0
C282 C 0.23042 0.5968 0.80497 0.0
C283 C 0.25305 0.6025 0.78252 0.0
C284 C 0.27304 0.58916 0.80307 0.0
C285 C 0.27032 0.57099 0.84742 0.0
C286 C 0.20861 0.61016 0.78253 0.0
C287 C 0.29754 0.59498 0.78143 0.0
H288 H 0.26404 0.63762 0.57949 0.0
H289 H 0.26944 0.68238 0.75873 0.0
H290 H 0.26594 0.5842 0.64725 0.0
H291 H 0.23489 0.58954 0.65146 0.0
H292 H 0.25036 0.59832 0.57941 0.0
H293 H 0.26371 0.66834 0.86544 0.0
H294 H 0.24354 0.64375 0.86756 0.0
H295 H 0.27472 0.63859 0.87197 0.0
H296 H 0.2113 0.57522 0.87097 0.0
H297 H 0.28576 0.56141 0.86543 0.0
H298 H 0.20786 0.61149 0.72723 0.0
H299 H 0.20931 0.62844 0.805 0.0
H300 H 0.19211 0.6016 0.79754 0.0
H301 H 0.29783 0.59482 0.72597 0.0
H302 H 0.31108 0.58236 0.80007 0.0
H303 H 0.30258 0.61307 0.80069 0.0
C304 C 0.85451 0.75325 0.18318 0.0
C305 C 0.8485 0.77725 0.18252 0.0
C306 C 0.87403 0.74565 0.22219 0.0
C307 C 0.88713 0.76236 0.26358 0.0
C308 C 0.88144 0.78672 0.2616 0.0
C309 C 0.86241 0.79393 0.21995 0.0
C310 C 0.88007 0.71965 0.22094 0.0
C311 C 0.89448 0.80501 0.30652 0.0
C312 C 0.91187 0.74178 0.42954 0.0
C313 C 0.9364 0.74273 0.42167 0.0
C314 C 0.89579 0.74796 0.3783 0.0
C315 C 0.90429 0.75413 0.31595 0.0
C316 C 0.92892 0.75336 0.30553 0.0
C317 C 0.94479 0.74792 0.35897 0.0
C318 C 0.86973 0.7488 0.39209 0.0
C319 C 0.93851 0.75889 0.23873 0.0
H320 H 0.84394 0.74044 0.15299 0.0
H321 H 0.85772 0.81249 0.21897 0.0
H322 H 0.89943 0.7171 0.21735 0.0
H323 H 0.87486 0.71196 0.2682 0.0
H324 H 0.87083 0.70969 0.17831 0.0
H325 H 0.88888 0.82333 0.29586 0.0
H326 H 0.89113 0.80182 0.3597 0.0
H327 H 0.91382 0.80354 0.3006 0.0
H328 H 0.90516 0.73682 0.47694 0.0
H329 H 0.96368 0.74845 0.35227 0.0
H330 H 0.85971 0.73651 0.35661 0.0
H331 H 0.86276 0.76686 0.38442 0.0
H332 H 0.86615 0.744 0.44401 0.0
H333 H 0.92833 0.74924 0.19736 0.0
H334 H 0.95751 0.75417 0.23577 0.0
H335 H 0.93658 0.77806 0.23062 0.0
C336 C 0.74078 0.35639 0.72738 0.0
C337 C 0.73132 0.35833 0.66191 0.0
C338 C 0.74707 0.37663 0.76736 0.0
C339 C 0.74429 0.39932 0.74073 0.0
C340 C 0.73587 0.40131 0.67354 0.0
C341 C 0.72924 0.38081 0.63515 0.0
C342 C 0.75578 0.37376 0.83909 0.0
C343 C 0.73318 0.42511 0.64285 0.0
C344 C 0.73444 0.44642 0.87645 0.0
C345 C 0.75765 0.45406 0.89247 0.0
C346 C 0.72955 0.42976 0.82371 0.0
C347 C 0.74832 0.4208 0.7855 0.0
C348 C 0.77135 0.43041 0.79678 0.0
C349 C 0.7758 0.44692 0.85055 0.0
C350 C 0.70471 0.42011 0.81338 0.0
C351 C 0.79169 0.42178 0.75593 0.0
H352 H 0.74243 0.33909 0.7483 0.0
H353 H 0.72227 0.3824 0.58414 0.0
H354 H 0.7731 0.38273 0.84869 0.0
H355 H 0.74315 0.38223 0.87368 0.0
H356 H 0.75778 0.35489 0.85134 0.0
H357 H 0.72945 0.42345 0.58777 0.0
H358 H 0.7184 0.43493 0.66588 0.0
H359 H 0.74944 0.43586 0.653 0.0
H360 H 0.72039 0.45209 0.9087 0.0
H361 H 0.79378 0.45272 0.86303 0.0
H362 H 0.70427 0.40167 0.83004 0.0
H363 H 0.69905 0.41964 0.75951 0.0
H364 H 0.69174 0.43073 0.84205 0.0
H365 H 0.79739 0.40413 0.77248 0.0
H366 H 0.80711 0.43396 0.76197 0.0
H367 H 0.78624 0.41981 0.70195 0.0
C368 C 0.62349 0.27603 0.3742 0.0
C369 C 0.64598 0.27377 0.34748 0.0
C370 C 0.60296 0.26942 0.33586 0.0
C371 C 0.60496 0.26085 0.26877 0.0
C372 C 0.62766 0.25793 0.24216 0.0
C373 C 0.64791 0.26421 0.28208 0.0
C374 C 0.57915 0.27227 0.36651 0.0
C375 C 0.63054 0.24906 0.17054 0.0
C376 C 0.5575 0.22907 0.15933 0.0
C377 C 0.55045 0.24708 0.11693 0.0
C378 C 0.57391 0.23368 0.21322 0.0
C379 C 0.5835 0.25673 0.2241 0.0
C380 C 0.57459 0.27538 0.18542 0.0
C381 C 0.55803 0.27033 0.13258 0.0
C382 C 0.58249 0.21347 0.25456 0.0
C383 C 0.58423 0.30023 0.19535 0.0
H384 H 0.62189 0.28308 0.42516 0.0
H385 H 0.66521 0.26243 0.26119 0.0
H386 H 0.56937 0.28699 0.34317 0.0
H387 H 0.56837 0.25601 0.35668 0.0
H388 H 0.5808 0.27614 0.42153 0.0
H389 H 0.64942 0.24703 0.15826 0.0
H390 H 0.62157 0.23173 0.16125 0.0
H391 H 0.62206 0.2616 0.13576 0.0
H392 H 0.55173 0.21106 0.14718 0.0
H393 H 0.5524 0.28428 0.10001 0.0
H394 H 0.5844 0.21908 0.30845 0.0
H395 H 0.60015 0.20771 0.23822 0.0
H396 H 0.57029 0.19806 0.24878 0.0
H397 H 0.58469 0.30602 0.24914 0.0
H398 H 0.5736 0.31312 0.16648 0.0
H399 H 0.60268 0.30064 0.17864 0.0
C400 C 0.2356 0.15493 0.77933 0.0
C401 C 0.22587 0.15328 0.84224 0.0
C402 C 0.24141 0.13455 0.74099 0.0
C403 C 0.23778 0.11195 0.76663 0.0
C404 C 0.22862 0.11015 0.83095 0.0
C405 C 0.22257 0.13083 0.86775 0.0
C406 C 0.25093 0.13723 0.67224 0.0
C407 C 0.22491 0.08641 0.86045 0.0
C408 C 0.23013 0.06496 0.6273 0.0
C409 C 0.25352 0.05738 0.62042 0.0
C410 C 0.22434 0.08147 0.67826 0.0
C411 C 0.24237 0.09039 0.72384 0.0
C412 C 0.26549 0.08084 0.72154 0.0
C413 C 0.27084 0.06443 0.6695 0.0
C414 C 0.19944 0.09108 0.67896 0.0
C415 C 0.28508 0.0895 0.77018 0.0
H416 H 0.23821 0.17218 0.7593 0.0
H417 H 0.21536 0.12941 0.9168 0.0
H418 H 0.26833 0.12832 0.66891 0.0
H419 H 0.23875 0.12858 0.63357 0.0
H420 H 0.2531 0.15606 0.66017 0.0
H421 H 0.21975 0.08812 0.91346 0.0
H422 H 0.21083 0.0765 0.83074 0.0
H423 H 0.2413 0.07569 0.85798 0.0
H424 H 0.21669 0.05933 0.58955 0.0
H425 H 0.28897 0.05866 0.66414 0.0
H426 H 0.19931 0.10937 0.66112 0.0
H427 H 0.19298 0.0919 0.7306 0.0
H428 H 0.18692 0.0802 0.64612 0.0
H429 H 0.29103 0.10722 0.75616 0.0
H430 H 0.30056 0.07741 0.76989 0.0
H431 H 0.27874 0.09133 0.82191 0.0
C432 C 0.33924 0.75639 0.30679 0.0
C433 C 0.34063 0.73587 0.34367 0.0
C434 C 0.35769 0.76269 0.26624 0.0
C435 C 0.37784 0.74796 0.26185 0.0
C436 C 0.37963 0.72759 0.3003 0.0
C437 C 0.36107 0.72187 0.34094 0.0
C438 C 0.35529 0.78469 0.22649 0.0
C439 C 0.40071 0.71128 0.29643 0.0
C440 C 0.41041 0.74504 0.10039 0.0
C441 C 0.43115 0.75782 0.11831 0.0
C442 C 0.3928 0.74216 0.14631 0.0
C443 C 0.39591 0.75236 0.21202 0.0
C444 C 0.41664 0.76561 0.23039 0.0
C445 C 0.43417 0.76803 0.18332 0.0
C446 C 0.37114 0.72762 0.12491 0.0
C447 C 0.4204 0.7769 0.29989 0.0
H448 H 0.32367 0.76751 0.30925 0.0
H449 H 0.36239 0.70601 0.36935 0.0
H450 H 0.3715 0.79571 0.23392 0.0
H451 H 0.35328 0.77966 0.17224 0.0
H452 H 0.33979 0.79554 0.24078 0.0
H453 H 0.40016 0.69709 0.333 0.0
H454 H 0.40123 0.70289 0.24524 0.0
H455 H 0.41738 0.72143 0.30592 0.0
H456 H 0.40823 0.73665 0.05063 0.0
H457 H 0.4502 0.77788 0.19721 0.0
H458 H 0.35487 0.73811 0.13303 0.0
H459 H 0.37026 0.71189 0.15593 0.0
H460 H 0.37114 0.72149 0.07129 0.0
H461 H 0.40507 0.78824 0.31237 0.0
H462 H 0.43676 0.78781 0.30497 0.0
H463 H 0.42163 0.763 0.33729 0.0
C464 C 0.74756 0.84629 0.81018 0.0
C465 C 0.76754 0.84892 0.85407 0.0
C466 C 0.74041 0.86453 0.76843 0.0
C467 C 0.7537 0.88576 0.77015 0.0
C468 C 0.77337 0.88883 0.81585 0.0
C469 C 0.77999 0.87044 0.85739 0.0
C470 C 0.71918 0.86074 0.72073 0.0
C471 C 0.78817 0.91111 0.81867 0.0
C472 C 0.75661 0.91863 0.61022 0.0
C473 C 0.74225 0.93833 0.62334 0.0
C474 C 0.76013 0.90129 0.65726 0.0
C475 C 0.74886 0.90359 0.71901 0.0
C476 C 0.73408 0.92332 0.73246 0.0
C477 C 0.73113 0.94068 0.68452 0.0
C478 C 0.77638 0.88079 0.64136 0.0
C479 C 0.72161 0.92615 0.79754 0.0
H480 H 0.73764 0.82986 0.8078 0.0
H481 H 0.79538 0.87277 0.89129 0.0
H482 H 0.70709 0.87614 0.72416 0.0
H483 H 0.72505 0.85917 0.66846 0.0
H484 H 0.70918 0.84449 0.73092 0.0
H485 H 0.80168 0.91153 0.86077 0.0
H486 H 0.79737 0.91238 0.77103 0.0
H487 H 0.77677 0.92695 0.82415 0.0
H488 H 0.7656 0.91706 0.56337 0.0
H489 H 0.72007 0.95596 0.69455 0.0
H490 H 0.76685 0.8638 0.64489 0.0
H491 H 0.79154 0.88086 0.67855 0.0
H492 H 0.78341 0.88144 0.59042 0.0
H493 H 0.71097 0.91011 0.80533 0.0
H494 H 0.70976 0.9418 0.79878 0.0
H495 H 0.73481 0.92805 0.84013 0.0
C496 C 0.84795 0.7644 0.80554 0.0
C497 C 0.84993 0.77376 0.87163 0.0
C498 C 0.86821 0.75873 0.77001 0.0
C499 C 0.89094 0.76217 0.80175 0.0
C500 C 0.89301 0.77064 0.86935 0.0
C501 C 0.8725 0.7765 0.90332 0.0
C502 C 0.86532 0.74983 0.69771 0.0
C503 C 0.91689 0.77414 0.90523 0.0
C504 C 0.93972 0.73128 0.70763 0.0
C505 C 0.94679 0.7493 0.66693 0.0
C506 C 0.92263 0.73558 0.7556 0.0
C507 C 0.91242 0.75837 0.76241 0.0
C508 C 0.92118 0.77709 0.72583 0.0
C509 C 0.93838 0.77233 0.67875 0.0
C510 C 0.91412 0.71529 0.79475 0.0
C511 C 0.91092 0.80169 0.73193 0.0
H512 H 0.83059 0.76223 0.78082 0.0
H513 H 0.87418 0.7834 0.95481 0.0
H514 H 0.8734 0.76261 0.66487 0.0
H515 H 0.87468 0.73275 0.69042 0.0
H516 H 0.84645 0.74731 0.68116 0.0
H517 H 0.91538 0.77863 0.95958 0.0
H518 H 0.92775 0.75792 0.89938 0.0
H519 H 0.92653 0.78865 0.88265 0.0
H520 H 0.94606 0.71341 0.69822 0.0
H521 H 0.94397 0.78628 0.64742 0.0
H522 H 0.89651 0.70935 0.77383 0.0
H523 H 0.91206 0.72092 0.84808 0.0
H524 H 0.92641 0.7 0.79235 0.0
H525 H 0.89254 0.80149 0.71007 0.0
H526 H 0.92135 0.81473 0.70549 0.0
H527 H 0.91013 0.80772 0.78536 0.0
C528 C 0.73717 0.34771 0.28367 0.0
C529 C 0.72669 0.35182 0.34537 0.0
C530 C 0.74388 0.36662 0.24545 0.0
C531 C 0.74034 0.39018 0.27005 0.0
C532 C 0.73048 0.39444 0.33326 0.0
C533 C 0.72362 0.37523 0.36992 0.0
C534 C 0.75417 0.36141 0.17791 0.0
C535 C 0.72675 0.41928 0.36162 0.0
C536 C 0.77384 0.43765 0.18422 0.0
C537 C 0.75667 0.44496 0.13686 0.0
C538 C 0.76856 0.42043 0.2299 0.0
C539 C 0.74563 0.41028 0.22767 0.0
C540 C 0.72792 0.41853 0.18231 0.0
C541 C 0.73362 0.43587 0.1378 0.0
C542 C 0.78779 0.41233 0.27833 0.0
C543 C 0.70324 0.40824 0.1785 0.0
H544 H 0.73961 0.3297 0.26445 0.0
H545 H 0.71586 0.37858 0.41807 0.0
H546 H 0.74232 0.3685 0.1379 0.0
H547 H 0.77154 0.37033 0.17552 0.0
H548 H 0.75657 0.34215 0.16708 0.0
H549 H 0.72066 0.41955 0.41376 0.0
H550 H 0.74342 0.4296 0.36122 0.0
H551 H 0.71336 0.4284 0.32984 0.0
H552 H 0.79172 0.44448 0.18338 0.0
H553 H 0.72021 0.44175 0.10185 0.0
H554 H 0.79285 0.39388 0.2643 0.0
H555 H 0.78129 0.41238 0.32993 0.0
H556 H 0.80383 0.42365 0.27858 0.0
H557 H 0.70396 0.38924 0.1624 0.0
H558 H 0.69123 0.41742 0.14269 0.0
H559 H 0.69554 0.40936 0.22864 0.0
C560 C 0.12947 0.23986 0.86723 0.0
C561 C 0.15154 0.23683 0.8386 0.0
C562 C 0.10936 0.24594 0.82809 0.0
C563 C 0.11125 0.24828 0.75832 0.0
C564 C 0.13362 0.24569 0.72944 0.0
C565 C 0.15358 0.24035 0.7702 0.0
C566 C 0.08603 0.24934 0.86111 0.0
C567 C 0.1363 0.24757 0.65498 0.0
C568 C 0.05904 0.23512 0.63715 0.0
C569 C 0.05405 0.25759 0.61366 0.0
C570 C 0.07695 0.23196 0.68669 0.0
C571 C 0.08973 0.25186 0.71441 0.0
C572 C 0.08333 0.27482 0.6948 0.0
C573 C 0.06581 0.27739 0.64362 0.0
C574 C 0.08348 0.20713 0.70512 0.0
C575 C 0.09597 0.29653 0.72478 0.0
H576 H 0.12793 0.23742 0.92039 0.0
H577 H 0.1706 0.23789 0.748 0.0
H578 H 0.07768 0.26616 0.84619 0.0
H579 H 0.07373 0.2348 0.84418 0.0
H580 H 0.08809 0.24955 0.9167 0.0
H581 H 0.15495 0.24539 0.6406 0.0
H582 H 0.12535 0.23379 0.62712 0.0
H583 H 0.12984 0.26499 0.63875 0.0
H584 H 0.05025 0.2198 0.61286 0.0
H585 H 0.06206 0.29473 0.62477 0.0
H586 H 0.08427 0.20571 0.76033 0.0
H587 H 0.10133 0.20279 0.6872 0.0
H588 H 0.07073 0.19376 0.68273 0.0
H589 H 0.09812 0.29564 0.78008 0.0
H590 H 0.08636 0.31304 0.71274 0.0
H591 H 0.11392 0.29747 0.70482 0.0
C592 C 0.25629 0.63787 0.37135 0.0
C593 C 0.25993 0.65973 0.34295 0.0
C594 C 0.25055 0.6176 0.3309 0.0
C595 C 0.24929 0.61909 0.26035 0.0
C596 C 0.25218 0.64133 0.23161 0.0
C597 C 0.25709 0.66148 0.27345 0.0
C598 C 0.24672 0.59444 0.36356 0.0
C599 C 0.25147 0.64361 0.15652 0.0
C600 C 0.26646 0.56682 0.14793 0.0
C601 C 0.2448 0.56099 0.11482 0.0
C602 C 0.268 0.58504 0.19783 0.0
C603 C 0.24723 0.59726 0.21612 0.0
C604 C 0.225 0.58999 0.18686 0.0
C605 C 0.2241 0.57219 0.13546 0.0
C606 C 0.29211 0.59249 0.22673 0.0
C607 C 0.20238 0.60197 0.20678 0.0
H608 H 0.25826 0.63659 0.42531 0.0
H609 H 0.26007 0.67836 0.25157 0.0
H610 H 0.23058 0.58548 0.34138 0.0
H611 H 0.26189 0.58249 0.35439 0.0
H612 H 0.24497 0.59692 0.4186 0.0
H613 H 0.25329 0.66225 0.14229 0.0
H614 H 0.26604 0.6331 0.13462 0.0
H615 H 0.23461 0.6364 0.13373 0.0
H616 H 0.28251 0.55845 0.13088 0.0
H617 H 0.20739 0.56778 0.10922 0.0
H618 H 0.2923 0.59333 0.28228 0.0
H619 H 0.29628 0.61048 0.21063 0.0
H620 H 0.3063 0.58025 0.21029 0.0
H621 H 0.20208 0.60466 0.2621 0.0
H622 H 0.18652 0.59157 0.18871 0.0
H623 H 0.20125 0.61964 0.18502 0.0
C624 C 0.34845 0.74248 0.73046 0.0
C625 C 0.34893 0.73788 0.66115 0.0
C626 C 0.36942 0.74719 0.7689 0.0
C627 C 0.39126 0.74807 0.7368 0.0
C628 C 0.39166 0.74456 0.66632 0.0
C629 C 0.37052 0.73909 0.62943 0.0
C630 C 0.36828 0.75036 0.84418 0.0
C631 C 0.41442 0.74617 0.6301 0.0
C632 C 0.43834 0.77691 0.85337 0.0
C633 C 0.44869 0.75704 0.88191 0.0
C634 C 0.42113 0.77433 0.80074 0.0
C635 C 0.41365 0.75135 0.77812 0.0
C636 C 0.42557 0.73132 0.80298 0.0
C637 C 0.44319 0.73446 0.85418 0.0
C638 C 0.40948 0.79615 0.77384 0.0
C639 C 0.41796 0.70649 0.78112 0.0
H640 H 0.33179 0.74142 0.75501 0.0
H641 H 0.37085 0.73577 0.5756 0.0
H642 H 0.37926 0.7367 0.86876 0.0
H643 H 0.37561 0.76786 0.86151 0.0
H644 H 0.34993 0.74904 0.86128 0.0
H645 H 0.41134 0.74547 0.57474 0.0
H646 H 0.42386 0.76285 0.64559 0.0
H647 H 0.42626 0.73136 0.64369 0.0
H648 H 0.44243 0.79435 0.87554 0.0
H649 H 0.4509 0.71911 0.87731 0.0
H650 H 0.39204 0.79872 0.79639 0.0
H651 H 0.40635 0.79419 0.71865 0.0
H652 H 0.42034 0.81225 0.786 0.0
H653 H 0.40052 0.70275 0.80179 0.0
H654 H 0.4308 0.69304 0.79887 0.0
H655 H 0.41584 0.70453 0.72574 0.0
C656 C 0.76234 0.8531 0.24106 0.0
C657 C 0.76554 0.85391 0.17217 0.0
C658 C 0.75621 0.87357 0.27875 0.0
C659 C 0.75257 0.89515 0.24626 0.0
C660 C 0.75457 0.89572 0.17608 0.0
C661 C 0.76136 0.87517 0.14002 0.0
C662 C 0.75457 0.87233 0.35376 0.0
C663 C 0.75013 0.91814 0.13935 0.0
C664 C 0.72171 0.94073 0.35603 0.0
C665 C 0.7411 0.95315 0.3861 0.0
C666 C 0.72492 0.92302 0.30577 0.0
C667 C 0.74812 0.91729 0.28677 0.0
C668 C 0.76749 0.93119 0.313 0.0
C669 C 0.76368 0.94916 0.36197 0.0
C670 C 0.70372 0.90915 0.27739 0.0
C671 C 0.79254 0.92557 0.29461 0.0
H672 H 0.76567 0.83672 0.26598 0.0
H673 H 0.76356 0.87576 0.08647 0.0
H674 H 0.76792 0.88432 0.37964 0.0
H675 H 0.73691 0.8784 0.36926 0.0
H676 H 0.75756 0.85415 0.37114 0.0
H677 H 0.74994 0.915 0.08404 0.0
H678 H 0.73299 0.92607 0.15319 0.0
H679 H 0.76415 0.93129 0.15415 0.0
H680 H 0.70429 0.94367 0.37539 0.0
H681 H 0.77872 0.95846 0.38624 0.0
H682 H 0.70329 0.89172 0.30056 0.0
H683 H 0.70484 0.90584 0.22247 0.0
H684 H 0.68688 0.91848 0.28747 0.0
H685 H 0.798 0.90856 0.31615 0.0
H686 H 0.80523 0.93951 0.31378 0.0
H687 H 0.79374 0.92342 0.23944 0.0
C688 C 0.6291 0.28122 0.63942 0.0
C689 C 0.65249 0.27828 0.66422 0.0
C690 C 0.60986 0.27429 0.67589 0.0
C691 C 0.61406 0.2645 0.73917 0.0
C692 C 0.63761 0.26112 0.76406 0.0
C693 C 0.65656 0.26788 0.72601 0.0
C694 C 0.58503 0.27783 0.64722 0.0
C695 C 0.64277 0.25093 0.83171 0.0
C696 C 0.56822 0.27091 0.87119 0.0
C697 C 0.55939 0.24778 0.87233 0.0
C698 C 0.58549 0.27675 0.82659 0.0
C699 C 0.59392 0.25909 0.78131 0.0
C700 C 0.58399 0.23608 0.77919 0.0
C701 C 0.56685 0.23065 0.82498 0.0
C702 C 0.59556 0.30152 0.83033 0.0
C703 C 0.59229 0.2169 0.73082 0.0
H704 H 0.62579 0.28891 0.59118 0.0
H705 H 0.67456 0.26553 0.74541 0.0
H706 H 0.57483 0.2611 0.64749 0.0
H707 H 0.57575 0.29116 0.67888 0.0
H708 H 0.58482 0.28391 0.59509 0.0
H709 H 0.66204 0.24871 0.84284 0.0
H710 H 0.63547 0.26272 0.87156 0.0
H711 H 0.634 0.23347 0.83399 0.0
H712 H 0.56221 0.28429 0.9071 0.0
H713 H 0.56021 0.21272 0.82596 0.0
H714 H 0.59447 0.30914 0.78012 0.0
H715 H 0.61454 0.30099 0.84669 0.0
H716 H 0.5862 0.31348 0.86592 0.0
H717 H 0.59229 0.22338 0.67924 0.0
H718 H 0.58104 0.20079 0.73042 0.0
H719 H 0.61074 0.21194 0.74505 0.0
C720 C 0.24131 0.16263 0.22296 0.0
C721 C 0.23072 0.15903 0.15862 0.0
C722 C 0.24728 0.1434 0.26227 0.0
C723 C 0.24299 0.12004 0.23598 0.0
C724 C 0.23319 0.1163 0.17002 0.0
C725 C 0.22694 0.13585 0.13236 0.0
C726 C 0.25742 0.1481 0.33279 0.0
C727 C 0.22884 0.09167 0.13975 0.0
C728 C 0.27432 0.07221 0.33328 0.0
C729 C 0.25659 0.06559 0.37568 0.0
C730 C 0.26984 0.08909 0.28488 0.0
C731 C 0.24721 0.09972 0.27951 0.0
C732 C 0.22892 0.09209 0.31955 0.0
C733 C 0.23378 0.07497 0.36665 0.0
C734 C 0.28964 0.09643 0.24199 0.0
C735 C 0.20454 0.10299 0.31543 0.0
H736 H 0.24425 0.1805 0.24344 0.0
H737 H 0.21909 0.13297 0.08218 0.0
H738 H 0.24514 0.14125 0.36921 0.0
H739 H 0.27445 0.13864 0.33983 0.0
H740 H 0.26043 0.16724 0.34486 0.0
H741 H 0.22335 0.09177 0.08569 0.0
H742 H 0.24505 0.08077 0.14541 0.0
H743 H 0.21476 0.08294 0.16668 0.0
H744 H 0.29202 0.06513 0.3402 0.0
H745 H 0.21989 0.06956 0.39845 0.0
H746 H 0.29557 0.11458 0.25798 0.0
H747 H 0.2834 0.09681 0.18863 0.0
H748 H 0.30509 0.08438 0.24592 0.0
H749 H 0.20569 0.12198 0.33169 0.0
H750 H 0.19196 0.09415 0.34743 0.0
H751 H 0.19728 0.10201 0.26293 0.0
C752 C 0.24 0.31596 0.94261 0.0
C753 C 0.23155 0.30525 -0.00111 0.0
C754 C 0.24478 0.3403 0.94392 0.0
C755 C 0.24063 0.35443 0.00254 0.0
C756 C 0.23087 0.34399 0.05822 0.0
C757 C 0.22666 0.31948 0.056 0.0
C758 C 0.25541 0.35068 0.88368 0.0
C759 C 0.22568 0.35855 0.121 0.0
C760 C 0.28038 0.40828 0.02735 0.0
C761 C 0.26628 0.42601 -0.00071 0.0
C762 C 0.27191 0.38512 0.03098 0.0
C763 C 0.24854 0.37957 0.00718 0.0
C764 C 0.23365 0.3977 0.98295 0.0
C765 C 0.24275 0.42069 0.97885 0.0
C766 C 0.28841 0.36633 0.05712 0.0
C767 C 0.20849 0.39258 0.9584 0.0
H768 H 0.24389 0.30515 0.8983 0.0
H769 H 0.21988 0.31141 0.09947 0.0
H770 H 0.24487 0.36605 0.86722 0.0
H771 H 0.27357 0.35716 0.89745 0.0
H772 H 0.25635 0.33759 0.84075 0.0
H773 H 0.21542 0.34844 0.15632 0.0
H774 H 0.24253 0.36441 0.14701 0.0
H775 H 0.21561 0.37468 0.10819 0.0
H776 H 0.29839 0.41235 0.04481 0.0
H777 H 0.23172 0.43421 0.95681 0.0
H778 H 0.29184 0.35303 0.01618 0.0
H779 H 0.28015 0.3569 0.09761 0.0
H780 H 0.30563 0.37377 0.07688 0.0
H781 H 0.20849 0.38194 0.9104 0.0
H782 H 0.19829 0.40904 0.95003 0.0
H783 H 0.19929 0.38203 0.99489 0.0
C784 C 0.18111 0.73747 0.46047 0.0
C785 C 0.196 0.73091 0.51453 0.0
C786 C 0.15655 0.73376 0.46044 0.0
C787 C 0.14669 0.72274 0.51505 0.0
C788 C 0.16159 0.71635 0.57011 0.0
C789 C 0.186 0.72073 0.56949 0.0
C790 C 0.14119 0.7413 0.4015 0.0
C791 C 0.15187 0.70416 0.62876 0.0
C792 C 0.08084 0.72542 0.5466 0.0
C793 C 0.07294 0.70337 0.51924 0.0
C794 C 0.10462 0.73236 0.54348 0.0
C795 C 0.12101 0.71673 0.51336 0.0
C796 C 0.11306 0.69474 0.48419 0.0
C797 C 0.08913 0.68847 0.48681 0.0
C798 C 0.11234 0.75614 0.57409 0.0
C799 C 0.12998 0.67747 0.452 0.0
H800 H 0.18869 0.74551 0.41806 0.0
H801 H 0.19739 0.71545 0.61122 0.0
H802 H 0.13314 0.72551 0.3746 0.0
H803 H 0.12648 0.75259 0.41921 0.0
H804 H 0.15131 0.75122 0.36546 0.0
H805 H 0.16572 0.70082 0.66832 0.0
H806 H 0.13771 0.71504 0.65132 0.0
H807 H 0.14381 0.68699 0.61116 0.0
H808 H 0.06863 0.73701 0.57238 0.0
H809 H 0.08317 0.67165 0.46403 0.0
H810 H 0.12236 0.76597 0.53774 0.0
H811 H 0.12436 0.75362 0.61854 0.0
H812 H 0.09711 0.7671 0.58997 0.0
H813 H 0.13922 0.68595 0.41154 0.0
H814 H 0.1209 0.66128 0.43045 0.0
H815 H 0.1437 0.67216 0.48979 0.0
C816 C 0.77791 0.68873 0.95471 0.0
C817 C 0.78163 0.7029 0.01374 0.0
C818 C 0.7813 0.66411 0.95444 0.0
C819 C 0.78895 0.65343 0.01435 0.0
C820 C 0.79269 0.66763 0.07407 0.0
C821 C 0.78884 0.69212 0.07314 0.0
C822 C 0.77684 0.64953 0.88998 0.0
C823 C 0.80117 0.65701 0.13883 0.0
C824 C 0.78175 0.58759 0.03932 0.0
C825 C 0.80472 0.57917 0.02916 0.0
C826 C 0.77607 0.61155 0.03193 0.0
C827 C 0.79382 0.62754 0.01461 0.0
C828 C 0.81676 0.61899 0.00166 0.0
C829 C 0.82187 0.59493 0.00862 0.0
C830 C 0.75132 0.61992 0.04535 0.0
C831 C 0.83622 0.63542 0.98313 0.0
H832 H 0.77219 0.69685 0.90866 0.0
H833 H 0.79193 0.7029 0.11891 0.0
H834 H 0.79346 0.64082 0.87481 0.0
H835 H 0.76385 0.63532 0.89758 0.0
H836 H 0.77004 0.66037 0.84834 0.0
H837 H 0.80303 0.67044 0.18102 0.0
H838 H 0.78861 0.64317 0.15261 0.0
H839 H 0.81856 0.64835 0.13224 0.0
H840 H 0.76841 0.57566 0.05573 0.0
H841 H 0.83953 0.58852 -0.00071 0.0
H842 H 0.7443 0.63057 0.00365 0.0
H843 H 0.75166 0.63153 0.09164 0.0
H844 H 0.73899 0.60499 0.05172 0.0
H845 H 0.83042 0.64557 0.93915 0.0
H846 H 0.85274 0.6258 0.97125 0.0
H847 H 0.84025 0.64841 0.02535 0.0
C848 C 0.80908 0.27144 0.44232 0.0
C849 C 0.79846 0.27949 0.50132 0.0
C850 C 0.83341 0.26665 0.44176 0.0
C851 C 0.84763 0.27026 0.50143 0.0
C852 C 0.83735 0.2797 0.56015 0.0
C853 C 0.81286 0.28406 0.55955 0.0
C854 C 0.84362 0.25647 0.37809 0.0
C855 C 0.852 0.28424 0.62438 0.0
C856 C 0.90064 0.22942 0.51184 0.0
C857 C 0.91865 0.24348 0.48824 0.0
C858 C 0.87771 0.23828 0.51913 0.0
C859 C 0.87265 0.26195 0.50337 0.0
C860 C 0.89109 0.27673 0.48382 0.0
C861 C 0.91388 0.26729 0.47617 0.0
C862 C 0.8586 0.22189 0.54022 0.0
C863 C 0.8865 0.30216 0.46765 0.0
H864 H 0.79823 0.26786 0.39696 0.0
H865 H 0.80493 0.29049 0.60528 0.0
H866 H 0.85925 0.26689 0.3652 0.0
H867 H 0.84967 0.2381 0.38576 0.0
H868 H 0.83056 0.25619 0.3349 0.0
H869 H 0.84212 0.29451 0.66272 0.0
H870 H 0.85739 0.26714 0.64532 0.0
H871 H 0.86841 0.294 0.61459 0.0
H872 H 0.90432 0.21116 0.52273 0.0
H873 H 0.92763 0.27827 0.45766 0.0
H874 H 0.84527 0.2189 0.49828 0.0
H875 H 0.8493 0.23 0.58321 0.0
H876 H 0.86574 0.20446 0.55469 0.0
H877 H 0.8759 0.30277 0.41972 0.0
H878 H 0.90318 0.31216 0.46268 0.0
H879 H 0.8761 0.31116 0.5071 0.0
C880 C 0.71953 0.19153 0.44901 0.0
C881 C 0.72328 0.20583 0.50785 0.0
C882 C 0.7231 0.16693 0.44899 0.0
C883 C 0.73085 0.15639 0.50902 0.0
C884 C 0.7336 0.17055 0.56911 0.0
C885 C 0.72968 0.19501 0.56787 0.0
C886 C 0.71959 0.15239 0.38413 0.0
C887 C 0.74191 0.16007 0.63423 0.0
C888 C 0.73104 0.09012 0.53444 0.0
C889 C 0.75503 0.08472 0.52744 0.0
C890 C 0.7225 0.11315 0.52492 0.0
C891 C 0.73838 0.13114 0.50839 0.0
C892 C 0.76229 0.12538 0.49733 0.0
C893 C 0.77026 0.10225 0.50664 0.0
C894 C 0.69682 0.1185 0.53618 0.0
C895 C 0.77982 0.14395 0.4794 0.0
H896 H 0.71439 0.19961 0.40242 0.0
H897 H 0.73256 0.20577 0.61375 0.0
H898 H 0.73703 0.1465 0.36635 0.0
H899 H 0.70907 0.13628 0.39193 0.0
H900 H 0.71054 0.16255 0.3442 0.0
H901 H 0.74161 0.17313 0.67738 0.0
H902 H 0.73066 0.14477 0.64499 0.0
H903 H 0.76028 0.15345 0.62994 0.0
H904 H 0.71918 0.07669 0.55069 0.0
H905 H 0.78872 0.09806 0.49981 0.0
H906 H 0.68913 0.12915 0.49536 0.0
H907 H 0.69537 0.12911 0.58387 0.0
H908 H 0.68614 0.10213 0.53903 0.0
H909 H 0.77298 0.15352 0.43539 0.0
H910 H 0.79732 0.13625 0.46785 0.0
H911 H 0.78235 0.15715 0.52187 0.0
C912 C 0.31274 0.21427 0.9401 0.0
C913 C 0.3021 0.22241 -0.00105 0.0
C914 C 0.33723 0.21038 0.93905 0.0
C915 C 0.35156 0.21494 -0.0019 0.0
C916 C 0.34103 0.22345 0.05747 0.0
C917 C 0.31643 0.22697 0.05731 0.0
C918 C 0.34772 0.20108 0.87483 0.0
C919 C 0.35576 0.22873 0.12123 0.0
C920 C 0.41019 0.1823 0.0049 0.0
C921 C 0.42577 0.19923 0.98239 0.0
C922 C 0.38616 0.18743 0.01239 0.0
C923 C 0.37746 0.21015 -0.00234 0.0
C924 C 0.39329 0.22771 0.97815 0.0
C925 C 0.41724 0.22202 0.97053 0.0
C926 C 0.36989 0.16822 0.03341 0.0
C927 C 0.38474 0.25221 0.96257 0.0
H928 H 0.30189 0.21058 0.89479 0.0
H929 H 0.30844 0.23339 0.10296 0.0
H930 H 0.36148 0.21345 0.85943 0.0
H931 H 0.35646 0.18383 0.88301 0.0
H932 H 0.33419 0.19865 0.83308 0.0
H933 H 0.345 0.23595 0.16259 0.0
H934 H 0.36464 0.21237 0.1377 0.0
H935 H 0.36985 0.24168 0.11206 0.0
H936 H 0.41672 0.16478 0.01542 0.0
H937 H 0.42905 0.23517 0.95256 0.0
H938 H 0.35685 0.16354 0.99182 0.0
H939 H 0.35979 0.17458 0.07699 0.0
H940 H 0.37966 0.15196 0.04694 0.0
H941 H 0.37296 0.25126 0.91665 0.0
H942 H 0.39958 0.26446 0.95447 0.0
H943 H 0.37422 0.25971 0.004 0.0
C944 C 0.28443 0.82007 0.45706 0.0
C945 C 0.27681 0.80925 0.51417 0.0
C946 C 0.28871 0.84449 0.45777 0.0
C947 C 0.28493 0.85858 0.51668 0.0
C948 C 0.27677 0.84789 0.57412 0.0
C949 C 0.27301 0.82331 0.57239 0.0
C950 C 0.29774 0.85515 0.39576 0.0
C951 C 0.27217 0.86239 0.63746 0.0
C952 C 0.31888 0.91654 0.53221 0.0
C953 C 0.30221 0.93248 0.50618 0.0
C954 C 0.31325 0.8926 0.53796 0.0
C955 C 0.29025 0.88438 0.51828 0.0
C956 C 0.27294 0.90058 0.4955 0.0
C957 C 0.27916 0.9244 0.4893 0.0
C958 C 0.33226 0.87589 0.56228 0.0
C959 C 0.24812 0.89257 0.47493 0.0
H960 H 0.2876 0.80935 0.41202 0.0
H961 H 0.26699 0.81511 0.6166 0.0
H962 H 0.2855 0.86914 0.37849 0.0
H963 H 0.31521 0.86361 0.40764 0.0
H964 H 0.29967 0.84177 0.35394 0.0
H965 H 0.26485 0.85157 0.67673 0.0
H966 H 0.28885 0.87077 0.65783 0.0
H967 H 0.25956 0.87685 0.62628 0.0
H968 H 0.33658 0.9227 0.54678 0.0
H969 H 0.26619 0.93645 0.46857 0.0
H970 H 0.33635 0.86288 0.52122 0.0
H971 H 0.32596 0.86579 0.60435 0.0
H972 H 0.34884 0.88529 0.57925 0.0
H973 H 0.24847 0.88109 0.42849 0.0
H974 H 0.2361 0.90769 0.46545 0.0
H975 H 0.24073 0.88191 0.51435 0.0
C976 C 0.68612 0.77551 0.94849 0.0
C977 C 0.69955 0.77462 0.00915 0.0
C978 C 0.6615 0.7717 0.94605 0.0
C979 C 0.65013 0.7665 0.00541 0.0
C980 C 0.66345 0.76644 0.06706 0.0
C981 C 0.68789 0.77066 0.06824 0.0
C982 C 0.64783 0.77242 0.87961 0.0
C983 C 0.65209 0.76079 0.13152 0.0
C984 C 0.58369 0.76719 0.02745 0.0
C985 C 0.57843 0.74292 0.02261 0.0
C986 C 0.6067 0.7754 0.01748 0.0
C987 C 0.62485 0.75894 0.00302 0.0
C988 C 0.61923 0.7346 0.99379 0.0
C989 C 0.5961 0.72695 0.00317 0.0
C990 C 0.61186 0.80154 0.02638 0.0
C991 C 0.63799 0.71641 0.97836 0.0
H992 H 0.69488 0.77878 0.90262 0.0
H993 H 0.69799 0.76994 0.11545 0.0
H994 H 0.64219 0.75426 0.8628 0.0
H995 H 0.63158 0.78321 0.88477 0.0
H996 H 0.65853 0.7798 0.84014 0.0
H997 H 0.66466 0.76265 0.17575 0.0
H998 H 0.63679 0.77261 0.14013 0.0
H999 H 0.6453 0.74236 0.12775 0.0
H1000 H 0.57018 0.77967 0.0425 0.0
H1001 H 0.59202 0.70823 -0.00227 0.0
H1002 H 0.62303 0.80742 0.98597 0.0
H1003 H 0.62186 0.80515 0.07477 0.0
H1004 H 0.5954 0.81224 0.02643 0.0
H1005 H 0.648 0.72149 0.93474 0.0
H1006 H 0.63039 0.69847 0.96745 0.0
H1007 H 0.6508 0.71556 0.02187 0.0
loop_
_geom_bond_atom_site_label_1
_geom_bond_atom_site_label_2
_geom_bond_distance
_geom_bond_site_symmetry_2
_ccdc_geom_bond_type
Sc0 O3 2.025 . S
Sc0 O10 2.105 . S
Sc0 O13 2.105 . S
Sc0 O16 2.105 . S
Sc0 O19 2.105 . S
Sc1 O3 2.025 . S
Sc1 O11 2.114 . S
Sc1 O15 2.096 1_554 S
Sc1 O17 2.114 . S
Sc1 O21 2.096 1_554 S
Sc2 O3 2.025 1_556 S
Sc2 O12 2.105 . S
Sc2 O14 2.105 . S
Sc2 O18 2.105 . S
Sc2 O20 2.105 . S
O3 Sc0 2.025 . S
O3 Sc1 2.025 . S
O3 Sc2 2.025 1_554 S
C4 O10 1.268 . S
C4 O20 1.268 1_554 S
C5 O11 1.268 . S
C5 O19 1.268 . S
C6 O12 1.268 . S
C6 O21 1.268 . S
C7 O13 1.268 . S
C7 O17 1.268 . S
C8 O14 1.268 1_554 S
C8 O16 1.268 . S
C9 O15 1.268 . S
C9 O18 1.268 . S
O10 Sc0 2.105 . S
O10 C4 1.268 . S
O11 Sc1 2.114 . S
O11 C5 1.268 . S
O12 Sc2 2.105 . S
O12 C6 1.268 . S
O13 Sc0 2.105 . S
O13 C7 1.268 . S
O14 Sc2 2.105 . S
O14 C8 1.268 1_556 S
O15 Sc1 2.096 1_556 S
O15 C9 1.268 . S
O16 Sc0 2.105 . S
O16 C8 1.268 . S
O17 Sc1 2.114 . S
O17 C7 1.268 . S
O18 Sc2 2.105 . S
O18 C9 1.268 . S
O19 Sc0 2.105 . S
O19 C5 1.268 . S
O20 Sc2 2.105 . S
O20 C4 1.268 1_556 S
O21 Sc1 2.096 1_556 S
O21 C6 1.268 . S
Sc22 O25 2.025 . S
Sc22 O32 2.105 . S
Sc22 O35 2.105 . S
Sc22 O38 2.105 . S
Sc22 O41 2.105 . S
Sc23 O25 2.025 . S
Sc23 O33 2.105 . S
Sc23 O37 2.105 . S
Sc23 O39 2.105 . S
Sc23 O43 2.105 . S
Sc24 O25 2.025 . S
Sc24 O34 2.105 . S
Sc24 O36 2.105 . S
Sc24 O40 2.105 . S
Sc24 O42 2.105 . S
O25 Sc22 2.025 . S
O25 Sc23 2.025 . S
O25 Sc24 2.025 . S
C26 O32 1.268 . S
C26 O42 1.268 . S
C27 O33 1.268 . S
C27 O41 1.268 . S
C28 O34 1.268 . S
C28 O43 1.268 . S
C29 O35 1.268 . S
C29 O39 1.268 . S
C30 O36 1.268 . S
C30 O38 1.268 . S
C31 O37 1.268 . S
C31 O40 1.268 . S
O32 Sc22 2.105 . S
O32 C26 1.268 . S
O33 Sc23 2.105 . S
O33 C27 1.268 . S
O34 Sc24 2.105 . S
O34 C28 1.268 . S
O35 Sc22 2.105 . S
O35 C29 1.268 . S
O36 Sc24 2.105 . S
O36 C30 1.268 . S
O37 Sc23 2.105 . S
O37 C31 1.268 . S
O38 Sc22 2.105 . S
O38 C30 1.268 . S
O39 Sc23 2.105 . S
O39 C29 1.268 . S
O40 Sc24 2.105 . S
O40 C31 1.268 . S
O41 Sc22 2.105 . S
O41 C27 1.268 . S
O42 Sc24 2.105 . S
O42 C26 1.268 . S
O43 Sc23 2.105 . S
O43 C28 1.268 . S
Sc44 O47 2.025 1_556 S
Sc44 O54 2.105 . S
Sc44 O57 2.105 . S
Sc44 O60 2.105 . S
Sc44 O63 2.105 . S
Sc45 O47 2.025 . S
Sc45 O55 2.105 1_554 S
Sc45 O59 2.105 . S
Sc45 O61 2.105 1_554 S
Sc45 O65 2.105 . S
Sc46 O47 2.025 . S
Sc46 O56 2.105 . S
Sc46 O58 2.105 . S
Sc46 O62 2.105 . S
Sc46 O64 2.105 . S
O47 Sc44 2.025 1_554 S
O47 Sc45 2.025 . S
O47 Sc46 2.025 . S
C48 O54 1.268 1_554 S
C48 O64 1.268 . S
C49 O55 1.268 . S
C49 O63 1.268 . S
C50 O56 1.268 . S
C50 O65 1.268 . S
C51 O57 1.268 . S
C51 O61 1.268 . S
C52 O58 1.268 . S
C52 O60 1.268 1_554 S
C53 O59 1.268 . S
C53 O62 1.268 . S
O54 Sc44 2.105 . S
O54 C48 1.268 1_556 S
O55 Sc45 2.105 1_556 S
O55 C49 1.268 . S
O56 Sc46 2.105 . S
O56 C50 1.268 . S
O57 Sc44 2.105 . S
O57 C51 1.268 . S
O58 Sc46 2.105 . S
O58 C52 1.268 . S
O59 Sc45 2.105 . S
O59 C53 1.268 . S
O60 Sc44 2.105 . S
O60 C52 1.268 1_556 S
O61 Sc45 2.105 1_556 S
O61 C51 1.268 . S
O62 Sc46 2.105 . S
O62 C53 1.268 . S
O63 Sc44 2.105 . S
O63 C49 1.268 . S
O64 Sc46 2.105 . S
O64 C48 1.268 . S
O65 Sc45 2.105 . S
O65 C50 1.268 . S
Sc66 O69 2.025 . S
Sc66 O76 2.105 . S
Sc66 O79 2.105 . S
Sc66 O82 2.105 . S
Sc66 O85 2.105 . S
Sc67 O69 2.025 . S
Sc67 O77 2.105 . S
Sc67 O81 2.105 . S
Sc67 O83 2.105 . S
Sc67 O87 2.105 . S
Sc68 O69 2.025 . S
Sc68 O78 2.105 . S
Sc68 O80 2.105 . S
Sc68 O84 2.105 . S
Sc68 O86 2.105 . S
O69 Sc66 2.025 . S
O69 Sc67 2.025 . S
O69 Sc68 2.025 . S
C70 O76 1.268 . S
C70 O86 1.268 . S
C71 O77 1.268 . S
C71 O85 1.268 . S
C72 O78 1.268 . S
C72 O87 1.268 . S
C73 O79 1.268 . S
C73 O83 1.268 . S
C74 O80 1.268 . S
C74 O82 1.268 . S
C75 O81 1.268 . S
C75 O84 1.268 . S
O76 Sc66 2.105 . S
O76 C70 1.268 . S
O77 Sc67 2.105 . S
O77 C71 1.268 . S
O78 Sc68 2.105 . S
O78 C72 1.268 . S
O79 Sc66 2.105 . S
O79 C73 1.268 . S
O80 Sc68 2.105 . S
O80 C74 1.268 . S
O81 Sc67 2.105 . S
O81 C75 1.268 . S
O82 Sc66 2.105 . S
O82 C74 1.268 . S
O83 Sc67 2.105 . S
O83 C73 1.268 . S
O84 Sc68 2.105 . S
O84 C75 1.268 . S
O85 Sc66 2.105 . S
O85 C71 1.268 . S
O86 Sc68 2.105 . S
O86 C70 1.268 . S
O87 Sc67 2.105 . S
O87 C72 1.268 . S
H88 C89 0.949 . S
C89 H88 0.949 . S
C89 C90 1.395 . S
C89 C91 1.391 1_554 S
C90 C89 1.395 . S
C90 C93 1.390 . S
C91 C89 1.391 1_556 S
C91 C95 1.387 . S
C91 C96 1.491 . S
H92 C93 0.950 . S
C93 C90 1.390 . S
C93 H92 0.950 . S
C93 C94 1.378 1_554 S
C94 C93 1.378 1_556 S
C94 C95 1.409 . S
C95 C91 1.387 . S
C95 C94 1.409 . S
C95 H97 0.951 . S
C96 C91 1.491 . S
C96 C98 1.382 1_556 S
C96 C100 1.404 . S
H97 C95 0.951 . S
C98 C96 1.382 1_554 S
C98 C99 1.390 1_554 S
C98 H103 0.949 . S
C99 C98 1.390 1_556 S
C99 C104 1.399 . S
C100 C96 1.404 . S
C100 H101 0.950 . S
C100 C102 1.375 . S
H101 C100 0.950 . S
C102 C100 1.375 . S
C102 C104 1.382 . S
C102 H106 0.950 . S
H103 C98 0.949 . S
C104 C99 1.399 . S
C104 C102 1.382 . S
C104 H105 0.952 . S
H105 C104 0.952 . S
H106 C102 0.950 . S
H107 C108 0.949 . S
C108 H107 0.949 . S
C108 C109 1.395 . S
C108 C110 1.391 . S
C109 C108 1.395 . S
C109 C112 1.390 . S
C110 C108 1.391 . S
C110 C114 1.387 . S
C110 C115 1.491 1_655 S
H111 C112 0.950 . S
C112 C109 1.390 . S
C112 H111 0.950 . S
C112 C113 1.378 . S
C113 C112 1.378 . S
C113 C114 1.409 . S
C114 C110 1.387 . S
C114 C113 1.409 . S
C114 H116 0.951 . S
C115 C110 1.491 1_455 S
C115 C117 1.382 . S
C115 C119 1.404 . S
H116 C114 0.951 . S
C117 C115 1.382 . S
C117 C118 1.390 . S
C117 H122 0.949 . S
C118 C117 1.390 . S
C118 C123 1.399 . S
C119 C115 1.404 . S
C119 H120 0.950 . S
C119 C121 1.375 . S
H120 C119 0.950 . S
C121 C119 1.375 . S
C121 C123 1.382 . S
C121 H125 0.950 . S
H122 C117 0.949 . S
C123 C118 1.399 . S
C123 C121 1.382 . S
C123 H124 0.952 . S
H124 C123 0.952 . S
H125 C121 0.950 . S
H126 C127 0.949 . S
C127 H126 0.949 . S
C127 C128 1.395 . S
C127 C129 1.391 1_556 S
C128 C127 1.395 . S
C128 C131 1.390 1_556 S
C129 C127 1.391 1_554 S
C129 C133 1.387 . S
C129 C134 1.491 . S
H130 C131 0.950 . S
C131 C128 1.390 1_554 S
C131 H130 0.950 . S
C131 C132 1.378 . S
C132 C131 1.378 . S
C132 C133 1.409 . S
C133 C129 1.387 . S
C133 C132 1.409 . S
C133 H135 0.951 . S
C134 C129 1.491 . S
C134 C136 1.382 . S
C134 C138 1.404 . S
H135 C133 0.951 . S
C136 C134 1.382 . S
C136 C137 1.390 . S
C136 H141 0.949 1_554 S
C137 C136 1.390 . S
C137 C142 1.399 . S
C138 C134 1.404 . S
C138 H139 0.950 . S
C138 C140 1.375 . S
H139 C138 0.950 . S
C140 C138 1.375 . S
C140 C142 1.382 . S
C140 H144 0.950 . S
H141 C136 0.949 1_556 S
C142 C137 1.399 . S
C142 C140 1.382 . S
C142 H143 0.952 . S
H143 C142 0.952 . S
H144 C140 0.950 . S
H145 C146 0.949 . S
C146 H145 0.949 . S
C146 C147 1.395 . S
C146 C148 1.391 . S
C147 C146 1.395 . S
C147 C150 1.390 . S
C148 C146 1.391 . S
C148 C152 1.387 . S
C148 C153 1.491 1_455 S
H149 C150 0.950 . S
C150 C147 1.390 . S
C150 H149 0.950 . S
C150 C151 1.378 . S
C151 C150 1.378 . S
C151 C152 1.409 . S
C152 C148 1.387 . S
C152 C151 1.409 . S
C152 H154 0.951 . S
C153 C148 1.491 1_655 S
C153 C155 1.382 . S
C153 C157 1.404 . S
H154 C152 0.951 . S
C155 C153 1.382 . S
C155 C156 1.390 . S
C155 H160 0.949 . S
C156 C155 1.390 . S
C156 C161 1.399 . S
C157 C153 1.404 . S
C157 H158 0.950 . S
C157 C159 1.375 . S
H158 C157 0.950 . S
C159 C157 1.375 . S
C159 C161 1.382 . S
C159 H163 0.950 . S
H160 C155 0.949 . S
C161 C156 1.399 . S
C161 C159 1.382 . S
C161 H162 0.952 . S
H162 C161 0.952 . S
H163 C159 0.950 . S
H164 C165 0.949 . S
C165 H164 0.949 . S
C165 C166 1.395 . S
C165 C167 1.391 . S
C166 C165 1.395 . S
C166 C169 1.390 . S
C167 C165 1.391 . S
C167 C171 1.387 . S
C167 C172 1.491 1_565 S
H168 C169 0.950 . S
C169 C166 1.390 . S
C169 H168 0.950 . S
C169 C170 1.378 . S
C170 C169 1.378 . S
C170 C171 1.409 . S
C171 C167 1.387 . S
C171 C170 1.409 . S
C171 H173 0.951 . S
C172 C167 1.491 1_545 S
C172 C174 1.382 . S
C172 C176 1.404 . S
H173 C171 0.951 . S
C174 C172 1.382 . S
C174 C175 1.390 . S
C174 H179 0.949 . S
C175 C174 1.390 . S
C175 C180 1.399 . S
C176 C172 1.404 . S
C176 H177 0.950 . S
C176 C178 1.375 . S
H177 C176 0.950 . S
C178 C176 1.375 . S
C178 C180 1.382 . S
C178 H182 0.950 . S
H179 C174 0.949 . S
C180 C175 1.399 . S
C180 C178 1.382 . S
C180 H181 0.952 . S
H181 C180 0.952 . S
H182 C178 0.950 . S
H183 C184 0.949 . S
C184 H183 0.949 . S
C184 C185 1.395 . S
C184 C186 1.391 1_554 S
C185 C184 1.395 . S
C185 C188 1.390 . S
C186 C184 1.391 1_556 S
C186 C190 1.387 . S
C186 C191 1.491 . S
H187 C188 0.950 . S
C188 C185 1.390 . S
C188 H187 0.950 . S
C188 C189 1.378 1_554 S
C189 C188 1.378 1_556 S
C189 C190 1.409 . S
C190 C186 1.387 . S
C190 C189 1.409 . S
C190 H192 0.951 . S
C191 C186 1.491 . S
C191 C193 1.382 1_556 S
C191 C195 1.404 . S
H192 C190 0.951 . S
C193 C191 1.382 1_554 S
C193 C194 1.390 1_554 S
C193 H198 0.949 . S
C194 C193 1.390 1_556 S
C194 C199 1.399 . S
C195 C191 1.404 . S
C195 H196 0.950 . S
C195 C197 1.375 . S
H196 C195 0.950 . S
C197 C195 1.375 . S
C197 C199 1.382 . S
C197 H201 0.950 . S
H198 C193 0.949 . S
C199 C194 1.399 . S
C199 C197 1.382 . S
C199 H200 0.952 . S
H200 C199 0.952 . S
H201 C197 0.950 . S
H202 C203 0.949 . S
C203 H202 0.949 . S
C203 C204 1.395 . S
C203 C205 1.391 . S
C204 C203 1.395 . S
C204 C207 1.390 . S
C205 C203 1.391 . S
C205 C209 1.387 . S
C205 C210 1.491 1_545 S
H206 C207 0.950 . S
C207 C204 1.390 . S
C207 H206 0.950 . S
C207 C208 1.378 . S
C208 C207 1.378 . S
C208 C209 1.409 . S
C209 C205 1.387 . S
C209 C208 1.409 . S
C209 H211 0.951 . S
C210 C205 1.491 1_565 S
C210 C212 1.382 . S
C210 C214 1.404 . S
H211 C209 0.951 . S
C212 C210 1.382 . S
C212 C213 1.390 . S
C212 H217 0.949 . S
C213 C212 1.390 . S
C213 C218 1.399 . S
C214 C210 1.404 . S
C214 H215 0.950 . S
C214 C216 1.375 . S
H215 C214 0.950 . S
C216 C214 1.375 . S
C216 C218 1.382 . S
C216 H220 0.950 . S
H217 C212 0.949 . S
C218 C213 1.399 . S
C218 C216 1.382 . S
C218 H219 0.952 . S
H219 C218 0.952 . S
H220 C216 0.950 . S
H221 C222 0.949 . S
C222 H221 0.949 . S
C222 C223 1.395 . S
C222 C224 1.391 1_556 S
C223 C222 1.395 . S
C223 C226 1.390 1_556 S
C224 C222 1.391 1_554 S
C224 C228 1.387 . S
C224 C229 1.491 . S
H225 C226 0.950 . S
C226 C223 1.390 1_554 S
C226 H225 0.950 . S
C226 C227 1.378 . S
C227 C226 1.378 . S
C227 C228 1.409 . S
C228 C224 1.387 . S
C228 C227 1.409 . S
C228 H230 0.951 . S
C229 C224 1.491 . S
C229 C231 1.382 . S
C229 C233 1.404 . S
H230 C228 0.951 . S
C231 C229 1.382 . S
C231 C232 1.390 . S
C231 H236 0.949 1_554 S
C232 C231 1.390 . S
C232 C237 1.399 . S
C233 C229 1.404 . S
C233 H234 0.950 . S
C233 C235 1.375 . S
H234 C233 0.950 . S
C235 C233 1.375 . S
C235 C237 1.382 . S
C235 H239 0.950 . S
H236 C231 0.949 1_556 S
C237 C232 1.399 . S
C237 C235 1.382 . S
C237 H238 0.952 . S
H238 C237 0.952 . S
H239 C235 0.950 . S
C240 C241 1.391 . S
C240 C242 1.394 . S
C240 H256 0.931 . S
C241 C240 1.391 . S
C241 C245 1.376 . S
C242 C240 1.394 . S
C242 C243 1.369 . S
C242 C246 1.531 . S
C243 C242 1.369 . S
C243 C244 1.410 . S
C243 C251 1.503 . S
C244 C243 1.410 . S
C244 C245 1.392 . S
C244 C247 1.511 . S
C245 C241 1.376 . S
C245 C244 1.392 . S
C245 H257 0.929 . S
C246 C242 1.531 . S
C246 H258 0.960 . S
C246 H259 0.962 . S
C246 H260 0.960 . S
C247 C244 1.511 . S
C247 H261 0.961 . S
C247 H262 0.961 . S
C247 H263 0.961 . S
C248 C249 1.370 . S
C248 C250 1.363 . S
C248 H264 0.931 . S
C249 C248 1.370 . S
C249 C253 1.408 . S
C250 C248 1.363 . S
C250 C251 1.370 . S
C250 C254 1.524 . S
C251 C243 1.503 . S
C251 C250 1.370 . S
C251 C252 1.403 . S
C252 C251 1.403 . S
C252 C253 1.404 . S
C252 C255 1.539 . S
C253 C249 1.408 . S
C253 C252 1.404 . S
C253 H265 0.930 . S
C254 C250 1.524 . S
C254 H266 0.956 . S
C254 H267 0.961 . S
C254 H268 0.961 . S
C255 C252 1.539 . S
C255 H269 0.958 . S
C255 H270 0.961 . S
C255 H271 0.960 . S
H256 C240 0.931 . S
H257 C245 0.929 . S
H258 C246 0.960 . S
H259 C246 0.962 . S
H260 C246 0.960 . S
H261 C247 0.961 . S
H262 C247 0.961 . S
H263 C247 0.961 . S
H264 C248 0.931 . S
H265 C253 0.930 . S
H266 C254 0.956 . S
H267 C254 0.961 . S
H268 C254 0.961 . S
H269 C255 0.958 . S
H270 C255 0.961 . S
H271 C255 0.960 . S
C272 C273 1.391 . S
C272 C274 1.394 . S
C272 H288 0.931 . S
C273 C272 1.391 . S
C273 C277 1.376 . S
C274 C272 1.394 . S
C274 C275 1.369 . S
C274 C278 1.531 . S
C275 C274 1.369 . S
C275 C276 1.410 . S
C275 C283 1.503 . S
C276 C275 1.410 . S
C276 C277 1.392 . S
C276 C279 1.511 . S
C277 C273 1.376 . S
C277 C276 1.392 . S
C277 H289 0.929 . S
C278 C274 1.531 . S
C278 H290 0.960 . S
C278 H291 0.962 . S
C278 H292 0.960 . S
C279 C276 1.511 . S
C279 H293 0.961 . S
C279 H294 0.961 . S
C279 H295 0.961 . S
C280 C281 1.370 . S
C280 C282 1.363 . S
C280 H296 0.931 . S
C281 C280 1.370 . S
C281 C285 1.408 . S
C282 C280 1.363 . S
C282 C283 1.370 . S
C282 C286 1.524 . S
C283 C275 1.503 . S
C283 C282 1.370 . S
C283 C284 1.403 . S
C284 C283 1.403 . S
C284 C285 1.404 . S
C284 C287 1.539 . S
C285 C281 1.408 . S
C285 C284 1.404 . S
C285 H297 0.930 . S
C286 C282 1.524 . S
C286 H298 0.956 . S
C286 H299 0.961 . S
C286 H300 0.961 . S
C287 C284 1.539 . S
C287 H301 0.958 . S
C287 H302 0.961 . S
C287 H303 0.960 . S
H288 C272 0.931 . S
H289 C277 0.929 . S
H290 C278 0.960 . S
H291 C278 0.962 . S
H292 C278 0.960 . S
H293 C279 0.961 . S
H294 C279 0.961 . S
H295 C279 0.961 . S
H296 C280 0.931 . S
H297 C285 0.930 . S
H298 C286 0.956 . S
H299 C286 0.961 . S
H300 C286 0.961 . S
H301 C287 0.958 . S
H302 C287 0.961 . S
H303 C287 0.960 . S
C304 C305 1.391 . S
C304 C306 1.394 . S
C304 H320 0.931 . S
C305 C304 1.391 . S
C305 C309 1.376 . S
C306 C304 1.394 . S
C306 C307 1.369 . S
C306 C310 1.531 . S
C307 C306 1.369 . S
C307 C308 1.410 . S
C307 C315 1.503 . S
C308 C307 1.410 . S
C308 C309 1.392 . S
C308 C311 1.511 . S
C309 C305 1.376 . S
C309 C308 1.392 . S
C309 H321 0.929 . S
C310 C306 1.531 . S
C310 H322 0.960 . S
C310 H323 0.962 . S
C310 H324 0.960 . S
C311 C308 1.511 . S
C311 H325 0.961 . S
C311 H326 0.961 . S
C311 H327 0.961 . S
C312 C313 1.370 . S
C312 C314 1.363 . S
C312 H328 0.931 . S
C313 C312 1.370 . S
C313 C317 1.408 . S
C314 C312 1.363 . S
C314 C315 1.370 . S
C314 C318 1.524 . S
C315 C307 1.503 . S
C315 C314 1.370 . S
C315 C316 1.403 . S
C316 C315 1.403 . S
C316 C317 1.404 . S
C316 C319 1.539 . S
C317 C313 1.408 . S
C317 C316 1.404 . S
C317 H329 0.930 . S
C318 C314 1.524 . S
C318 H330 0.956 . S
C318 H331 0.961 . S
C318 H332 0.961 . S
C319 C316 1.539 . S
C319 H333 0.958 . S
C319 H334 0.961 . S
C319 H335 0.960 . S
H320 C304 0.931 . S
H321 C309 0.929 . S
H322 C310 0.960 . S
H323 C310 0.962 . S
H324 C310 0.960 . S
H325 C311 0.961 . S
H326 C311 0.961 . S
H327 C311 0.961 . S
H328 C312 0.931 . S
H329 C317 0.930 . S
H330 C318 0.956 . S
H331 C318 0.961 . S
H332 C318 0.961 . S
H333 C319 0.958 . S
H334 C319 0.961 . S
H335 C319 0.960 . S
C336 C337 1.391 . S
C336 C338 1.394 . S
C336 H352 0.931 . S
C337 C336 1.391 . S
C337 C341 1.376 . S
C338 C336 1.394 . S
C338 C339 1.369 . S
C338 C342 1.531 . S
C339 C338 1.369 . S
C339 C340 1.410 . S
C339 C347 1.503 . S
C340 C339 1.410 . S
C340 C341 1.392 . S
C340 C343 1.511 . S
C341 C337 1.376 . S
C341 C340 1.392 . S
C341 H353 0.929 . S
C342 C338 1.531 . S
C342 H354 0.960 . S
C342 H355 0.962 . S
C342 H356 0.960 . S
C343 C340 1.511 . S
C343 H357 0.961 . S
C343 H358 0.961 . S
C343 H359 0.961 . S
C344 C345 1.370 . S
C344 C346 1.363 . S
C344 H360 0.931 . S
C345 C344 1.370 . S
C345 C349 1.408 . S
C346 C344 1.363 . S
C346 C347 1.370 . S
C346 C350 1.524 . S
C347 C339 1.503 . S
C347 C346 1.370 . S
C347 C348 1.403 . S
C348 C347 1.403 . S
C348 C349 1.404 . S
C348 C351 1.539 . S
C349 C345 1.408 . S
C349 C348 1.404 . S
C349 H361 0.930 . S
C350 C346 1.524 . S
C350 H362 0.956 . S
C350 H363 0.961 . S
C350 H364 0.961 . S
C351 C348 1.539 . S
C351 H365 0.958 . S
C351 H366 0.961 . S
C351 H367 0.960 . S
H352 C336 0.931 . S
H353 C341 0.929 . S
H354 C342 0.960 . S
H355 C342 0.962 . S
H356 C342 0.960 . S
H357 C343 0.961 . S
H358 C343 0.961 . S
H359 C343 0.961 . S
H360 C344 0.931 . S
H361 C349 0.930 . S
H362 C350 0.956 . S
H363 C350 0.961 . S
H364 C350 0.961 . S
H365 C351 0.958 . S
H366 C351 0.961 . S
H367 C351 0.960 . S
C368 C369 1.391 . S
C368 C370 1.394 . S
C368 H384 0.931 . S
C369 C368 1.391 . S
C369 C373 1.376 . S
C370 C368 1.394 . S
C370 C371 1.369 . S
C370 C374 1.531 . S
C371 C370 1.369 . S
C371 C372 1.410 . S
C371 C379 1.503 . S
C372 C371 1.410 . S
C372 C373 1.392 . S
C372 C375 1.511 . S
C373 C369 1.376 . S
C373 C372 1.392 . S
C373 H385 0.929 . S
C374 C370 1.531 . S
C374 H386 0.960 . S
C374 H387 0.962 . S
C374 H388 0.960 . S
C375 C372 1.511 . S
C375 H389 0.961 . S
C375 H390 0.961 . S
C375 H391 0.961 . S
C376 C377 1.370 . S
C376 C378 1.363 . S
C376 H392 0.931 . S
C377 C376 1.370 . S
C377 C381 1.408 . S
C378 C376 1.363 . S
C378 C379 1.370 . S
C378 C382 1.524 . S
C379 C371 1.503 . S
C379 C378 1.370 . S
C379 C380 1.403 . S
C380 C379 1.403 . S
C380 C381 1.404 . S
C380 C383 1.539 . S
C381 C377 1.408 . S
C381 C380 1.404 . S
C381 H393 0.930 . S
C382 C378 1.524 . S
C382 H394 0.956 . S
C382 H395 0.961 . S
C382 H396 0.961 . S
C383 C380 1.539 . S
C383 H397 0.958 . S
C383 H398 0.961 . S
C383 H399 0.960 . S
H384 C368 0.931 . S
H385 C373 0.929 . S
H386 C374 0.960 . S
H387 C374 0.962 . S
H388 C374 0.960 . S
H389 C375 0.961 . S
H390 C375 0.961 . S
H391 C375 0.961 . S
H392 C376 0.931 . S
H393 C381 0.930 . S
H394 C382 0.956 . S
H395 C382 0.961 . S
H396 C382 0.961 . S
H397 C383 0.958 . S
H398 C383 0.961 . S
H399 C383 0.960 . S
C400 C401 1.391 . S
C400 C402 1.394 . S
C400 H416 0.931 . S
C401 C400 1.391 . S
C401 C405 1.376 . S
C402 C400 1.394 . S
C402 C403 1.369 . S
C402 C406 1.531 . S
C403 C402 1.369 . S
C403 C404 1.410 . S
C403 C411 1.503 . S
C404 C403 1.410 . S
C404 C405 1.392 . S
C404 C407 1.511 . S
C405 C401 1.376 . S
C405 C404 1.392 . S
C405 H417 0.929 . S
C406 C402 1.531 . S
C406 H418 0.960 . S
C406 H419 0.962 . S
C406 H420 0.960 . S
C407 C404 1.511 . S
C407 H421 0.961 . S
C407 H422 0.961 . S
C407 H423 0.961 . S
C408 C409 1.370 . S
C408 C410 1.363 . S
C408 H424 0.931 . S
C409 C408 1.370 . S
C409 C413 1.408 . S
C410 C408 1.363 . S
C410 C411 1.370 . S
C410 C414 1.524 . S
C411 C403 1.503 . S
C411 C410 1.370 . S
C411 C412 1.403 . S
C412 C411 1.403 . S
C412 C413 1.404 . S
C412 C415 1.539 . S
C413 C409 1.408 . S
C413 C412 1.404 . S
C413 H425 0.930 . S
C414 C410 1.524 . S
C414 H426 0.956 . S
C414 H427 0.961 . S
C414 H428 0.961 . S
C415 C412 1.539 . S
C415 H429 0.958 . S
C415 H430 0.961 . S
C415 H431 0.960 . S
H416 C400 0.931 . S
H417 C405 0.929 . S
H418 C406 0.960 . S
H419 C406 0.962 . S
H420 C406 0.960 . S
H421 C407 0.961 . S
H422 C407 0.961 . S
H423 C407 0.961 . S
H424 C408 0.931 . S
H425 C413 0.930 . S
H426 C414 0.956 . S
H427 C414 0.961 . S
H428 C414 0.961 . S
H429 C415 0.958 . S
H430 C415 0.961 . S
H431 C415 0.960 . S
C432 C433 1.391 . S
C432 C434 1.394 . S
C432 H448 0.931 . S
C433 C432 1.391 . S
C433 C437 1.376 . S
C434 C432 1.394 . S
C434 C435 1.369 . S
C434 C438 1.531 . S
C435 C434 1.369 . S
C435 C436 1.410 . S
C435 C443 1.503 . S
C436 C435 1.410 . S
C436 C437 1.392 . S
C436 C439 1.511 . S
C437 C433 1.376 . S
C437 C436 1.392 . S
C437 H449 0.929 . S
C438 C434 1.531 . S
C438 H450 0.960 . S
C438 H451 0.962 . S
C438 H452 0.960 . S
C439 C436 1.511 . S
C439 H453 0.961 . S
C439 H454 0.961 . S
C439 H455 0.961 . S
C440 C441 1.370 . S
C440 C442 1.363 . S
C440 H456 0.931 . S
C441 C440 1.370 . S
C441 C445 1.408 . S
C442 C440 1.363 . S
C442 C443 1.370 . S
C442 C446 1.524 . S
C443 C435 1.503 . S
C443 C442 1.370 . S
C443 C444 1.403 . S
C444 C443 1.403 . S
C444 C445 1.404 . S
C444 C447 1.539 . S
C445 C441 1.408 . S
C445 C444 1.404 . S
C445 H457 0.930 . S
C446 C442 1.524 . S
C446 H458 0.956 . S
C446 H459 0.961 . S
C446 H460 0.961 . S
C447 C444 1.539 . S
C447 H461 0.958 . S
C447 H462 0.961 . S
C447 H463 0.960 . S
H448 C432 0.931 . S
H449 C437 0.929 . S
H450 C438 0.960 . S
H451 C438 0.962 . S
H452 C438 0.960 . S
H453 C439 0.961 . S
H454 C439 0.961 . S
H455 C439 0.961 . S
H456 C440 0.931 . S
H457 C445 0.930 . S
H458 C446 0.956 . S
H459 C446 0.961 . S
H460 C446 0.961 . S
H461 C447 0.958 . S
H462 C447 0.961 . S
H463 C447 0.960 . S
C464 C465 1.391 . S
C464 C466 1.394 . S
C464 H480 0.931 . S
C465 C464 1.391 . S
C465 C469 1.376 . S
C466 C464 1.394 . S
C466 C467 1.369 . S
C466 C470 1.531 . S
C467 C466 1.369 . S
C467 C468 1.410 . S
C467 C475 1.503 . S
C468 C467 1.410 . S
C468 C469 1.392 . S
C468 C471 1.511 . S
C469 C465 1.376 . S
C469 C468 1.392 . S
C469 H481 0.929 . S
C470 C466 1.531 . S
C470 H482 0.960 . S
C470 H483 0.962 . S
C470 H484 0.960 . S
C471 C468 1.511 . S
C471 H485 0.961 . S
C471 H486 0.961 . S
C471 H487 0.961 . S
C472 C473 1.370 . S
C472 C474 1.363 . S
C472 H488 0.931 . S
C473 C472 1.370 . S
C473 C477 1.408 . S
C474 C472 1.363 . S
C474 C475 1.370 . S
C474 C478 1.524 . S
C475 C467 1.503 . S
C475 C474 1.370 . S
C475 C476 1.403 . S
C476 C475 1.403 . S
C476 C477 1.404 . S
C476 C479 1.539 . S
C477 C473 1.408 . S
C477 C476 1.404 . S
C477 H489 0.930 . S
C478 C474 1.524 . S
C478 H490 0.956 . S
C478 H491 0.961 . S
C478 H492 0.961 . S
C479 C476 1.539 . S
C479 H493 0.958 . S
C479 H494 0.961 . S
C479 H495 0.960 . S
H480 C464 0.931 . S
H481 C469 0.929 . S
H482 C470 0.960 . S
H483 C470 0.962 . S
H484 C470 0.960 . S
H485 C471 0.961 . S
H486 C471 0.961 . S
H487 C471 0.961 . S
H488 C472 0.931 . S
H489 C477 0.930 . S
H490 C478 0.956 . S
H491 C478 0.961 . S
H492 C478 0.961 . S
H493 C479 0.958 . S
H494 C479 0.961 . S
H495 C479 0.960 . S
C496 C497 1.391 . S
C496 C498 1.394 . S
C496 H512 0.931 . S
C497 C496 1.391 . S
C497 C501 1.376 . S
C498 C496 1.394 . S
C498 C499 1.369 . S
C498 C502 1.531 . S
C499 C498 1.369 . S
C499 C500 1.410 . S
C499 C507 1.503 . S
C500 C499 1.410 . S
C500 C501 1.392 . S
C500 C503 1.511 . S
C501 C497 1.376 . S
C501 C500 1.392 . S
C501 H513 0.929 . S
C502 C498 1.531 . S
C502 H514 0.960 . S
C502 H515 0.962 . S
C502 H516 0.960 . S
C503 C500 1.511 . S
C503 H517 0.961 . S
C503 H518 0.961 . S
C503 H519 0.961 . S
C504 C505 1.370 . S
C504 C506 1.363 . S
C504 H520 0.931 . S
C505 C504 1.370 . S
C505 C509 1.408 . S
C506 C504 1.363 . S
C506 C507 1.370 . S
C506 C510 1.524 . S
C507 C499 1.503 . S
C507 C506 1.370 . S
C507 C508 1.403 . S
C508 C507 1.403 . S
C508 C509 1.404 . S
C508 C511 1.539 . S
C509 C505 1.408 . S
C509 C508 1.404 . S
C509 H521 0.930 . S
C510 C506 1.524 . S
C510 H522 0.956 . S
C510 H523 0.961 . S
C510 H524 0.961 . S
C511 C508 1.539 . S
C511 H525 0.958 . S
C511 H526 0.961 . S
C511 H527 0.960 . S
H512 C496 0.931 . S
H513 C501 0.929 . S
H514 C502 0.960 . S
H515 C502 0.962 . S
H516 C502 0.960 . S
H517 C503 0.961 . S
H518 C503 0.961 . S
H519 C503 0.961 . S
H520 C504 0.931 . S
H521 C509 0.930 . S
H522 C510 0.956 . S
H523 C510 0.961 . S
H524 C510 0.961 . S
H525 C511 0.958 . S
H526 C511 0.961 . S
H527 C511 0.960 . S
C528 C529 1.391 . S
C528 C530 1.394 . S
C528 H544 0.931 . S
C529 C528 1.391 . S
C529 C533 1.376 . S
C530 C528 1.394 . S
C530 C531 1.369 . S
C530 C534 1.531 . S
C531 C530 1.369 . S
C531 C532 1.410 . S
C531 C539 1.503 . S
C532 C531 1.410 . S
C532 C533 1.392 . S
C532 C535 1.511 . S
C533 C529 1.376 . S
C533 C532 1.392 . S
C533 H545 0.929 . S
C534 C530 1.531 . S
C534 H546 0.960 . S
C534 H547 0.962 . S
C534 H548 0.960 . S
C535 C532 1.511 . S
C535 H549 0.961 . S
C535 H550 0.961 . S
C535 H551 0.961 . S
C536 C537 1.370 . S
C536 C538 1.363 . S
C536 H552 0.931 . S
C537 C536 1.370 . S
C537 C541 1.408 . S
C538 C536 1.363 . S
C538 C539 1.370 . S
C538 C542 1.524 . S
C539 C531 1.503 . S
C539 C538 1.370 . S
C539 C540 1.403 . S
C540 C539 1.403 . S
C540 C541 1.404 . S
C540 C543 1.539 . S
C541 C537 1.408 . S
C541 C540 1.404 . S
C541 H553 0.930 . S
C542 C538 1.524 . S
C542 H554 0.956 . S
C542 H555 0.961 . S
C542 H556 0.961 . S
C543 C540 1.539 . S
C543 H557 0.958 . S
C543 H558 0.961 . S
C543 H559 0.960 . S
H544 C528 0.931 . S
H545 C533 0.929 . S
H546 C534 0.960 . S
H547 C534 0.962 . S
H548 C534 0.960 . S
H549 C535 0.961 . S
H550 C535 0.961 . S
H551 C535 0.961 . S
H552 C536 0.931 . S
H553 C541 0.930 . S
H554 C542 0.956 . S
H555 C542 0.961 . S
H556 C542 0.961 . S
H557 C543 0.958 . S
H558 C543 0.961 . S
H559 C543 0.960 . S
C560 C561 1.391 . S
C560 C562 1.394 . S
C560 H576 0.931 . S
C561 C560 1.391 . S
C561 C565 1.376 . S
C562 C560 1.394 . S
C562 C563 1.369 . S
C562 C566 1.531 . S
C563 C562 1.369 . S
C563 C564 1.410 . S
C563 C571 1.503 . S
C564 C563 1.410 . S
C564 C565 1.392 . S
C564 C567 1.511 . S
C565 C561 1.376 . S
C565 C564 1.392 . S
C565 H577 0.929 . S
C566 C562 1.531 . S
C566 H578 0.960 . S
C566 H579 0.962 . S
C566 H580 0.960 . S
C567 C564 1.511 . S
C567 H581 0.961 . S
C567 H582 0.961 . S
C567 H583 0.961 . S
C568 C569 1.370 . S
C568 C570 1.363 . S
C568 H584 0.931 . S
C569 C568 1.370 . S
C569 C573 1.408 . S
C570 C568 1.363 . S
C570 C571 1.370 . S
C570 C574 1.524 . S
C571 C563 1.503 . S
C571 C570 1.370 . S
C571 C572 1.403 . S
C572 C571 1.403 . S
C572 C573 1.404 . S
C572 C575 1.539 . S
C573 C569 1.408 . S
C573 C572 1.404 . S
C573 H585 0.930 . S
C574 C570 1.524 . S
C574 H586 0.956 . S
C574 H587 0.961 . S
C574 H588 0.961 . S
C575 C572 1.539 . S
C575 H589 0.958 . S
C575 H590 0.961 . S
C575 H591 0.960 . S
H576 C560 0.931 . S
H577 C565 0.929 . S
H578 C566 0.960 . S
H579 C566 0.962 . S
H580 C566 0.960 . S
H581 C567 0.961 . S
H582 C567 0.961 . S
H583 C567 0.961 . S
H584 C568 0.931 . S
H585 C573 0.930 . S
H586 C574 0.956 . S
H587 C574 0.961 . S
H588 C574 0.961 . S
H589 C575 0.958 . S
H590 C575 0.961 . S
H591 C575 0.960 . S
C592 C593 1.391 . S
C592 C594 1.394 . S
C592 H608 0.931 . S
C593 C592 1.391 . S
C593 C597 1.376 . S
C594 C592 1.394 . S
C594 C595 1.369 . S
C594 C598 1.531 . S
C595 C594 1.369 . S
C595 C596 1.410 . S
C595 C603 1.503 . S
C596 C595 1.410 . S
C596 C597 1.392 . S
C596 C599 1.511 . S
C597 C593 1.376 . S
C597 C596 1.392 . S
C597 H609 0.929 . S
C598 C594 1.531 . S
C598 H610 0.960 . S
C598 H611 0.962 . S
C598 H612 0.960 . S
C599 C596 1.511 . S
C599 H613 0.961 . S
C599 H614 0.961 . S
C599 H615 0.961 . S
C600 C601 1.370 . S
C600 C602 1.363 . S
C600 H616 0.931 . S
C601 C600 1.370 . S
C601 C605 1.408 . S
C602 C600 1.363 . S
C602 C603 1.370 . S
C602 C606 1.524 . S
C603 C595 1.503 . S
C603 C602 1.370 . S
C603 C604 1.403 . S
C604 C603 1.403 . S
C604 C605 1.404 . S
C604 C607 1.539 . S
C605 C601 1.408 . S
C605 C604 1.404 . S
C605 H617 0.930 . S
C606 C602 1.524 . S
C606 H618 0.956 . S
C606 H619 0.961 . S
C606 H620 0.961 . S
C607 C604 1.539 . S
C607 H621 0.958 . S
C607 H622 0.961 . S
C607 H623 0.960 . S
H608 C592 0.931 . S
H609 C597 0.929 . S
H610 C598 0.960 . S
H611 C598 0.962 . S
H612 C598 0.960 . S
H613 C599 0.961 . S
H614 C599 0.961 . S
H615 C599 0.961 . S
H616 C600 0.931 . S
H617 C605 0.930 . S
H618 C606 0.956 . S
H619 C606 0.961 . S
H620 C606 0.961 . S
H621 C607 0.958 . S
H622 C607 0.961 . S
H623 C607 0.960 . S
C624 C625 1.391 . S
C624 C626 1.394 . S
C624 H640 0.931 . S
C625 C624 1.391 . S
C625 C629 1.376 . S
C626 C624 1.394 . S
C626 C627 1.369 . S
C626 C630 1.531 . S
C627 C626 1.369 . S
C627 C628 1.410 . S
C627 C635 1.503 . S
C628 C627 1.410 . S
C628 C629 1.392 . S
C628 C631 1.511 . S
C629 C625 1.376 . S
C629 C628 1.392 . S
C629 H641 0.929 . S
C630 C626 1.531 . S
C630 H642 0.960 . S
C630 H643 0.962 . S
C630 H644 0.960 . S
C631 C628 1.511 . S
C631 H645 0.961 . S
C631 H646 0.961 . S
C631 H647 0.961 . S
C632 C633 1.370 . S
C632 C634 1.363 . S
C632 H648 0.931 . S
C633 C632 1.370 . S
C633 C637 1.408 . S
C634 C632 1.363 . S
C634 C635 1.370 . S
C634 C638 1.524 . S
C635 C627 1.503 . S
C635 C634 1.370 . S
C635 C636 1.403 . S
C636 C635 1.403 . S
C636 C637 1.404 . S
C636 C639 1.539 . S
C637 C633 1.408 . S
C637 C636 1.404 . S
C637 H649 0.930 . S
C638 C634 1.524 . S
C638 H650 0.956 . S
C638 H651 0.961 . S
C638 H652 0.961 . S
C639 C636 1.539 . S
C639 H653 0.958 . S
C639 H654 0.961 . S
C639 H655 0.960 . S
H640 C624 0.931 . S
H641 C629 0.929 . S
H642 C630 0.960 . S
H643 C630 0.962 . S
H644 C630 0.960 . S
H645 C631 0.961 . S
H646 C631 0.961 . S
H647 C631 0.961 . S
H648 C632 0.931 . S
H649 C637 0.930 . S
H650 C638 0.956 . S
H651 C638 0.961 . S
H652 C638 0.961 . S
H653 C639 0.958 . S
H654 C639 0.961 . S
H655 C639 0.960 . S
C656 C657 1.391 . S
C656 C658 1.394 . S
C656 H672 0.931 . S
C657 C656 1.391 . S
C657 C661 1.376 . S
C658 C656 1.394 . S
C658 C659 1.369 . S
C658 C662 1.531 . S
C659 C658 1.369 . S
C659 C660 1.410 . S
C659 C667 1.503 . S
C660 C659 1.410 . S
C660 C661 1.392 . S
C660 C663 1.511 . S
C661 C657 1.376 . S
C661 C660 1.392 . S
C661 H673 0.929 . S
C662 C658 1.531 . S
C662 H674 0.960 . S
C662 H675 0.962 . S
C662 H676 0.960 . S
C663 C660 1.511 . S
C663 H677 0.961 . S
C663 H678 0.961 . S
C663 H679 0.961 . S
C664 C665 1.370 . S
C664 C666 1.363 . S
C664 H680 0.931 . S
C665 C664 1.370 . S
C665 C669 1.408 . S
C666 C664 1.363 . S
C666 C667 1.370 . S
C666 C670 1.524 . S
C667 C659 1.503 . S
C667 C666 1.370 . S
C667 C668 1.403 . S
C668 C667 1.403 . S
C668 C669 1.404 . S
C668 C671 1.539 . S
C669 C665 1.408 . S
C669 C668 1.404 . S
C669 H681 0.930 . S
C670 C666 1.524 . S
C670 H682 0.956 . S
C670 H683 0.961 . S
C670 H684 0.961 . S
C671 C668 1.539 . S
C671 H685 0.958 . S
C671 H686 0.961 . S
C671 H687 0.960 . S
H672 C656 0.931 . S
H673 C661 0.929 . S
H674 C662 0.960 . S
H675 C662 0.962 . S
H676 C662 0.960 . S
H677 C663 0.961 . S
H678 C663 0.961 . S
H679 C663 0.961 . S
H680 C664 0.931 . S
H681 C669 0.930 . S
H682 C670 0.956 . S
H683 C670 0.961 . S
H684 C670 0.961 . S
H685 C671 0.958 . S
H686 C671 0.961 . S
H687 C671 0.960 . S
C688 C689 1.391 . S
C688 C690 1.394 . S
C688 H704 0.931 . S
C689 C688 1.391 . S
C689 C693 1.376 . S
C690 C688 1.394 . S
C690 C691 1.369 . S
C690 C694 1.531 . S
C691 C690 1.369 . S
C691 C692 1.410 . S
C691 C699 1.503 . S
C692 C691 1.410 . S
C692 C693 1.392 . S
C692 C695 1.511 . S
C693 C689 1.376 . S
C693 C692 1.392 . S
C693 H705 0.929 . S
C694 C690 1.531 . S
C694 H706 0.960 . S
C694 H707 0.962 . S
C694 H708 0.960 . S
C695 C692 1.511 . S
C695 H709 0.961 . S
C695 H710 0.961 . S
C695 H711 0.961 . S
C696 C697 1.370 . S
C696 C698 1.363 . S
C696 H712 0.931 . S
C697 C696 1.370 . S
C697 C701 1.408 . S
C698 C696 1.363 . S
C698 C699 1.370 . S
C698 C702 1.524 . S
C699 C691 1.503 . S
C699 C698 1.370 . S
C699 C700 1.403 . S
C700 C699 1.403 . S
C700 C701 1.404 . S
C700 C703 1.539 . S
C701 C697 1.408 . S
C701 C700 1.404 . S
C701 H713 0.930 . S
C702 C698 1.524 . S
C702 H714 0.956 . S
C702 H715 0.961 . S
C702 H716 0.961 . S
C703 C700 1.539 . S
C703 H717 0.958 . S
C703 H718 0.961 . S
C703 H719 0.960 . S
H704 C688 0.931 . S
H705 C693 0.929 . S
H706 C694 0.960 . S
H707 C694 0.962 . S
H708 C694 0.960 . S
H709 C695 0.961 . S
H710 C695 0.961 . S
H711 C695 0.961 . S
H712 C696 0.931 . S
H713 C701 0.930 . S
H714 C702 0.956 . S
H715 C702 0.961 . S
H716 C702 0.961 . S
H717 C703 0.958 . S
H718 C703 0.961 . S
H719 C703 0.960 . S
C720 C721 1.391 . S
C720 C722 1.394 . S
C720 H736 0.931 . S
C721 C720 1.391 . S
C721 C725 1.376 . S
C722 C720 1.394 . S
C722 C723 1.369 . S
C722 C726 1.531 . S
C723 C722 1.369 . S
C723 C724 1.410 . S
C723 C731 1.503 . S
C724 C723 1.410 . S
C724 C725 1.392 . S
C724 C727 1.511 . S
C725 C721 1.376 . S
C725 C724 1.392 . S
C725 H737 0.929 . S
C726 C722 1.531 . S
C726 H738 0.960 . S
C726 H739 0.962 . S
C726 H740 0.960 . S
C727 C724 1.511 . S
C727 H741 0.961 . S
C727 H742 0.961 . S
C727 H743 0.961 . S
C728 C729 1.370 . S
C728 C730 1.363 . S
C728 H744 0.931 . S
C729 C728 1.370 . S
C729 C733 1.408 . S
C730 C728 1.363 . S
C730 C731 1.370 . S
C730 C734 1.524 . S
C731 C723 1.503 . S
C731 C730 1.370 . S
C731 C732 1.403 . S
C732 C731 1.403 . S
C732 C733 1.404 . S
C732 C735 1.539 . S
C733 C729 1.408 . S
C733 C732 1.404 . S
C733 H745 0.930 . S
C734 C730 1.524 . S
C734 H746 0.956 . S
C734 H747 0.961 . S
C734 H748 0.961 . S
C735 C732 1.539 . S
C735 H749 0.958 . S
C735 H750 0.961 . S
C735 H751 0.960 . S
H736 C720 0.931 . S
H737 C725 0.929 . S
H738 C726 0.960 . S
H739 C726 0.962 . S
H740 C726 0.960 . S
H741 C727 0.961 . S
H742 C727 0.961 . S
H743 C727 0.961 . S
H744 C728 0.931 . S
H745 C733 0.930 . S
H746 C734 0.956 . S
H747 C734 0.961 . S
H748 C734 0.961 . S
H749 C735 0.958 . S
H750 C735 0.961 . S
H751 C735 0.960 . S
C752 C753 1.391 1_556 S
C752 C754 1.394 . S
C752 H768 0.931 . S
C753 C752 1.391 1_554 S
C753 C757 1.376 . S
C754 C752 1.394 . S
C754 C755 1.369 . S
C754 C758 1.531 . S
C755 C754 1.369 . S
C755 C756 1.410 1_556 S
C755 C763 1.503 1_556 S
C756 C755 1.410 1_554 S
C756 C757 1.392 . S
C756 C759 1.511 . S
C757 C753 1.376 . S
C757 C756 1.392 . S
C757 H769 0.929 . S
C758 C754 1.531 . S
C758 H770 0.960 . S
C758 H771 0.962 1_556 S
C758 H772 0.960 . S
C759 C756 1.511 . S
C759 H773 0.961 . S
C759 H774 0.961 . S
C759 H775 0.961 1_554 S
C760 C761 1.370 . S
C760 C762 1.363 . S
C760 H776 0.931 . S
C761 C760 1.370 . S
C761 C765 1.408 1_554 S
C762 C760 1.363 . S
C762 C763 1.374 . S
C762 C766 1.524 . S
C763 C755 1.503 1_554 S
C763 C762 1.374 . S
C763 C764 1.399 1_554 S
C764 C763 1.399 1_556 S
C764 C765 1.404 . S
C764 C767 1.539 . S
C765 C761 1.408 1_556 S
C765 C764 1.404 . S
C765 H777 0.930 . S
C766 C762 1.524 . S
C766 H778 0.956 . S
C766 H779 0.961 . S
C766 H780 0.961 . S
C767 C764 1.539 . S
C767 H781 0.958 . S
C767 H782 0.961 . S
C767 H783 0.960 . S
H768 C752 0.931 . S
H769 C757 0.929 . S
H770 C758 0.960 . S
H771 C758 0.962 1_554 S
H772 C758 0.960 . S
H773 C759 0.961 . S
H774 C759 0.961 . S
H775 C759 0.961 1_556 S
H776 C760 0.931 . S
H777 C765 0.930 . S
H778 C766 0.956 . S
H779 C766 0.961 . S
H780 C766 0.961 . S
H781 C767 0.958 . S
H782 C767 0.961 . S
H783 C767 0.960 . S
C784 C785 1.391 . S
C784 C786 1.394 . S
C784 H800 0.931 . S
C785 C784 1.391 . S
C785 C789 1.376 . S
C786 C784 1.394 . S
C786 C787 1.369 . S
C786 C790 1.531 . S
C787 C786 1.369 . S
C787 C788 1.410 . S
C787 C795 1.503 . S
C788 C787 1.410 . S
C788 C789 1.392 . S
C788 C791 1.511 . S
C789 C785 1.376 . S
C789 C788 1.392 . S
C789 H801 0.929 . S
C790 C786 1.531 . S
C790 H802 0.960 . S
C790 H803 0.962 . S
C790 H804 0.960 . S
C791 C788 1.511 . S
C791 H805 0.961 . S
C791 H806 0.961 . S
C791 H807 0.961 . S
C792 C793 1.370 . S
C792 C794 1.363 . S
C792 H808 0.931 . S
C793 C792 1.370 . S
C793 C797 1.408 . S
C794 C792 1.363 . S
C794 C795 1.370 . S
C794 C798 1.524 . S
C795 C787 1.503 . S
C795 C794 1.370 . S
C795 C796 1.403 . S
C796 C795 1.403 . S
C796 C797 1.404 . S
C796 C799 1.539 . S
C797 C793 1.408 . S
C797 C796 1.404 . S
C797 H809 0.930 . S
C798 C794 1.524 . S
C798 H810 0.956 . S
C798 H811 0.961 . S
C798 H812 0.961 . S
C799 C796 1.539 . S
C799 H813 0.958 . S
C799 H814 0.961 . S
C799 H815 0.960 . S
H800 C784 0.931 . S
H801 C789 0.929 . S
H802 C790 0.960 . S
H803 C790 0.962 . S
H804 C790 0.960 . S
H805 C791 0.961 . S
H806 C791 0.961 . S
H807 C791 0.961 . S
H808 C792 0.931 . S
H809 C797 0.930 . S
H810 C798 0.956 . S
H811 C798 0.961 . S
H812 C798 0.961 . S
H813 C799 0.958 . S
H814 C799 0.961 . S
H815 C799 0.960 . S
C816 C817 1.391 1_556 S
C816 C818 1.394 . S
C816 H832 0.931 . S
C817 C816 1.391 1_554 S
C817 C821 1.376 . S
C818 C816 1.394 . S
C818 C819 1.369 1_556 S
C818 C822 1.531 . S
C819 C818 1.369 1_554 S
C819 C820 1.410 . S
C819 C827 1.503 . S
C820 C819 1.410 . S
C820 C821 1.392 . S
C820 C823 1.511 . S
C821 C817 1.376 . S
C821 C820 1.392 . S
C821 H833 0.929 . S
C822 C818 1.531 . S
C822 H834 0.960 . S
C822 H835 0.962 . S
C822 H836 0.960 . S
C823 C820 1.511 . S
C823 H837 0.961 . S
C823 H838 0.961 . S
C823 H839 0.961 . S
C824 C825 1.370 . S
C824 C826 1.363 . S
C824 H840 0.931 . S
C825 C824 1.370 . S
C825 C829 1.408 1_554 S
C826 C824 1.363 . S
C826 C827 1.370 . S
C826 C830 1.524 . S
C827 C819 1.503 . S
C827 C826 1.370 . S
C827 C828 1.403 1_554 S
C828 C827 1.403 1_556 S
C828 C829 1.404 . S
C828 C831 1.539 . S
C829 C825 1.408 1_556 S
C829 C828 1.404 . S
C829 H841 0.930 . S
C830 C826 1.524 . S
C830 H842 0.956 . S
C830 H843 0.961 . S
C830 H844 0.961 . S
C831 C828 1.539 . S
C831 H845 0.958 . S
C831 H846 0.961 . S
C831 H847 0.960 . S
H832 C816 0.931 . S
H833 C821 0.929 . S
H834 C822 0.960 . S
H835 C822 0.962 . S
H836 C822 0.960 . S
H837 C823 0.961 . S
H838 C823 0.961 . S
H839 C823 0.961 . S
H840 C824 0.931 . S
H841 C829 0.930 . S
H842 C830 0.956 . S
H843 C830 0.961 . S
H844 C830 0.961 . S
H845 C831 0.958 . S
H846 C831 0.961 . S
H847 C831 0.960 . S
C848 C849 1.391 . S
C848 C850 1.394 . S
C848 H864 0.931 . S
C849 C848 1.391 . S
C849 C853 1.376 . S
C850 C848 1.394 . S
C850 C851 1.369 . S
C850 C854 1.531 . S
C851 C850 1.369 . S
C851 C852 1.410 . S
C851 C859 1.503 . S
C852 C851 1.410 . S
C852 C853 1.392 . S
C852 C855 1.511 . S
C853 C849 1.376 . S
C853 C852 1.392 . S
C853 H865 0.929 . S
C854 C850 1.531 . S
C854 H866 0.960 . S
C854 H867 0.962 . S
C854 H868 0.960 . S
C855 C852 1.511 . S
C855 H869 0.961 . S
C855 H870 0.961 . S
C855 H871 0.961 . S
C856 C857 1.370 . S
C856 C858 1.363 . S
C856 H872 0.931 . S
C857 C856 1.370 . S
C857 C861 1.408 . S
C858 C856 1.363 . S
C858 C859 1.370 . S
C858 C862 1.524 . S
C859 C851 1.503 . S
C859 C858 1.370 . S
C859 C860 1.403 . S
C860 C859 1.403 . S
C860 C861 1.404 . S
C860 C863 1.539 . S
C861 C857 1.408 . S
C861 C860 1.404 . S
C861 H873 0.930 . S
C862 C858 1.524 . S
C862 H874 0.956 . S
C862 H875 0.961 . S
C862 H876 0.961 . S
C863 C860 1.539 . S
C863 H877 0.958 . S
C863 H878 0.961 . S
C863 H879 0.960 . S
H864 C848 0.931 . S
H865 C853 0.929 . S
H866 C854 0.960 . S
H867 C854 0.962 . S
H868 C854 0.960 . S
H869 C855 0.961 . S
H870 C855 0.961 . S
H871 C855 0.961 . S
H872 C856 0.931 . S
H873 C861 0.930 . S
H874 C862 0.956 . S
H875 C862 0.961 . S
H876 C862 0.961 . S
H877 C863 0.958 . S
H878 C863 0.961 . S
H879 C863 0.960 . S
C880 C881 1.391 . S
C880 C882 1.394 . S
C880 H896 0.931 . S
C881 C880 1.391 . S
C881 C885 1.376 . S
C882 C880 1.394 . S
C882 C883 1.369 . S
C882 C886 1.531 . S
C883 C882 1.369 . S
C883 C884 1.410 . S
C883 C891 1.503 . S
C884 C883 1.410 . S
C884 C885 1.392 . S
C884 C887 1.511 . S
C885 C881 1.376 . S
C885 C884 1.392 . S
C885 H897 0.929 . S
C886 C882 1.531 . S
C886 H898 0.960 . S
C886 H899 0.962 . S
C886 H900 0.960 . S
C887 C884 1.511 . S
C887 H901 0.961 . S
C887 H902 0.961 . S
C887 H903 0.961 . S
C888 C889 1.370 . S
C888 C890 1.363 . S
C888 H904 0.931 . S
C889 C888 1.370 . S
C889 C893 1.408 . S
C890 C888 1.363 . S
C890 C891 1.370 . S
C890 C894 1.524 . S
C891 C883 1.503 . S
C891 C890 1.370 . S
C891 C892 1.403 . S
C892 C891 1.403 . S
C892 C893 1.404 . S
C892 C895 1.539 . S
C893 C889 1.408 . S
C893 C892 1.404 . S
C893 H905 0.930 . S
C894 C890 1.524 . S
C894 H906 0.956 . S
C894 H907 0.961 . S
C894 H908 0.961 . S
C895 C892 1.539 . S
C895 H909 0.958 . S
C895 H910 0.961 . S
C895 H911 0.960 . S
H896 C880 0.931 . S
H897 C885 0.929 . S
H898 C886 0.960 . S
H899 C886 0.962 . S
H900 C886 0.960 . S
H901 C887 0.961 . S
H902 C887 0.961 . S
H903 C887 0.961 . S
H904 C888 0.931 . S
H905 C893 0.930 . S
H906 C894 0.956 . S
H907 C894 0.961 . S
H908 C894 0.961 . S
H909 C895 0.958 . S
H910 C895 0.961 . S
H911 C895 0.960 . S
C912 C913 1.391 1_556 S
C912 C914 1.394 . S
C912 H928 0.931 . S
C913 C912 1.391 1_554 S
C913 C917 1.376 . S
C914 C912 1.394 . S
C914 C915 1.369 . S
C914 C918 1.531 . S
C915 C914 1.369 . S
C915 C916 1.410 1_556 S
C915 C923 1.503 1_556 S
C916 C915 1.410 1_554 S
C916 C917 1.392 . S
C916 C919 1.511 . S
C917 C913 1.376 . S
C917 C916 1.392 . S
C917 H929 0.929 . S
C918 C914 1.531 . S
C918 H930 0.960 . S
C918 H931 0.962 1_556 S
C918 H932 0.960 . S
C919 C916 1.511 . S
C919 H933 0.961 . S
C919 H934 0.961 . S
C919 H935 0.961 1_554 S
C920 C921 1.370 . S
C920 C922 1.363 . S
C920 H936 0.931 . S
C921 C920 1.370 . S
C921 C925 1.408 1_554 S
C922 C920 1.363 . S
C922 C923 1.373 . S
C922 C926 1.524 . S
C923 C915 1.503 1_554 S
C923 C922 1.373 . S
C923 C924 1.400 1_554 S
C924 C923 1.400 1_556 S
C924 C925 1.404 . S
C924 C927 1.539 . S
C925 C921 1.408 1_556 S
C925 C924 1.404 . S
C925 H937 0.930 . S
C926 C922 1.524 . S
C926 H938 0.956 . S
C926 H939 0.961 . S
C926 H940 0.961 . S
C927 C924 1.539 . S
C927 H941 0.958 . S
C927 H942 0.961 . S
C927 H943 0.960 . S
H928 C912 0.931 . S
H929 C917 0.929 . S
H930 C918 0.960 . S
H931 C918 0.962 1_554 S
H932 C918 0.960 . S
H933 C919 0.961 . S
H934 C919 0.961 . S
H935 C919 0.961 1_556 S
H936 C920 0.931 . S
H937 C925 0.930 . S
H938 C926 0.956 . S
H939 C926 0.961 . S
H940 C926 0.961 . S
H941 C927 0.958 . S
H942 C927 0.961 . S
H943 C927 0.960 . S
C944 C945 1.391 . S
C944 C946 1.394 . S
C944 H960 0.931 . S
C945 C944 1.391 . S
C945 C949 1.376 . S
C946 C944 1.394 . S
C946 C947 1.369 . S
C946 C950 1.531 . S
C947 C946 1.369 . S
C947 C948 1.410 . S
C947 C955 1.503 . S
C948 C947 1.410 . S
C948 C949 1.392 . S
C948 C951 1.511 . S
C949 C945 1.376 . S
C949 C948 1.392 . S
C949 H961 0.929 . S
C950 C946 1.531 . S
C950 H962 0.960 . S
C950 H963 0.962 . S
C950 H964 0.960 . S
C951 C948 1.511 . S
C951 H965 0.961 . S
C951 H966 0.961 . S
C951 H967 0.961 . S
C952 C953 1.370 . S
C952 C954 1.363 . S
C952 H968 0.931 . S
C953 C952 1.370 . S
C953 C957 1.408 . S
C954 C952 1.363 . S
C954 C955 1.370 . S
C954 C958 1.524 . S
C955 C947 1.503 . S
C955 C954 1.370 . S
C955 C956 1.403 . S
C956 C955 1.403 . S
C956 C957 1.404 . S
C956 C959 1.539 . S
C957 C953 1.408 . S
C957 C956 1.404 . S
C957 H969 0.930 . S
C958 C954 1.524 . S
C958 H970 0.956 . S
C958 H971 0.961 . S
C958 H972 0.961 . S
C959 C956 1.539 . S
C959 H973 0.958 . S
C959 H974 0.961 . S
C959 H975 0.960 . S
H960 C944 0.931 . S
H961 C949 0.929 . S
H962 C950 0.960 . S
H963 C950 0.962 . S
H964 C950 0.960 . S
H965 C951 0.961 . S
H966 C951 0.961 . S
H967 C951 0.961 . S
H968 C952 0.931 . S
H969 C957 0.930 . S
H970 C958 0.956 . S
H971 C958 0.961 . S
H972 C958 0.961 . S
H973 C959 0.958 . S
H974 C959 0.961 . S
H975 C959 0.960 . S
C976 C977 1.391 1_556 S
C976 C978 1.394 . S
C976 H992 0.931 . S
C977 C976 1.391 1_554 S
C977 C981 1.376 . S
C978 C976 1.394 . S
C978 C979 1.369 1_556 S
C978 C982 1.531 . S
C979 C978 1.369 1_554 S
C979 C980 1.410 . S
C979 C987 1.503 . S
C980 C979 1.410 . S
C980 C981 1.392 . S
C980 C983 1.511 . S
C981 C977 1.376 . S
C981 C980 1.392 . S
C981 H993 0.929 . S
C982 C978 1.531 . S
C982 H994 0.960 . S
C982 H995 0.962 . S
C982 H996 0.960 . S
C983 C980 1.511 . S
C983 H997 0.961 . S
C983 H998 0.961 . S
C983 H999 0.961 . S
C984 C985 1.370 . S
C984 C986 1.363 . S
C984 H1000 0.931 . S
C985 C984 1.370 . S
C985 C989 1.408 1_554 S
C986 C984 1.363 . S
C986 C987 1.370 . S
C986 C990 1.524 . S
C987 C979 1.503 . S
C987 C986 1.370 . S
C987 C988 1.403 1_554 S
C988 C987 1.403 1_556 S
C988 C989 1.404 . S
C988 C991 1.539 . S
C989 C985 1.408 1_556 S
C989 C988 1.404 . S
C989 H1001 0.930 . S
C990 C986 1.524 . S
C990 H1002 0.956 . S
C990 H1003 0.961 . S
C990 H1004 0.961 . S
C991 C988 1.539 . S
C991 H1005 0.958 . S
C991 H1006 0.961 . S
C991 H1007 0.960 . S
H992 C976 0.931 . S
H993 C981 0.929 . S
H994 C982 0.960 . S
H995 C982 0.962 . S
H996 C982 0.960 . S
H997 C983 0.961 . S
H998 C983 0.961 . S
H999 C983 0.961 . S
H1000 C984 0.931 . S
H1001 C989 0.930 . S
H1002 C990 0.956 . S
H1003 C990 0.961 . S
H1004 C990 0.961 . S
H1005 C991 0.958 . S
H1006 C991 0.961 . S
H1007 C991 0.960 . S
C241 C5 1.471 . S
C249 C151 1.484 . S
C273 C31 1.498 . S
C281 C94 1.504 . S
C313 C109 1.511 . S
C305 C53 1.544 . S
C337 C71 1.521 . S
C345 C128 1.485 . S
C377 C185 1.478 . S
C369 C75 1.498 . S
C409 C204 1.511 . S
C401 C9 1.545 . S
C441 C227 1.509 . S
C433 C27 1.511 . S
C473 C170 1.490 . S
C465 C49 1.489 . S
C497 C51 1.455 . S
C505 C113 1.484 . S
C529 C72 1.478 . S
C537 C132 1.502 . S
C561 C6 1.548 . S
C569 C147 1.509 . S
C601 C90 1.489 . S
C593 C29 1.525 . S
C625 C28 1.505 . S
C633 C223 1.486 . S
C665 C166 1.490 . S
C657 C50 1.516 . S
C697 C189 1.512 . S
C689 C73 1.511 . S
C721 C7 1.467 . S
C729 C208 1.488 . S
C761 C99 1.371 1_554 S
C753 C4 1.511 . S
C793 C118 1.438 . S
C785 C30 1.509 . S
C817 C52 1.521 . S
C825 C137 1.422 . S
C849 C70 1.509 . S
C857 C156 1.370 . S
C889 C175 1.366 . S
C881 C74 1.490 . S
C913 C8 1.503 . S
C921 C194 1.416 1_554 S
C945 C26 1.497 . S
C953 C213 1.423 . S
C977 C48 1.491 . S
C985 C232 1.364 . S
