# Generated by pormake.
# Topology pyr, (3,6)-cn, num edge types: 1
# Building blocks:
#     Node 0, Type 0, BuildingBlock: BELTOD_clean_linker_0, # of connection points: 3
#     Node 1, Type 0, BuildingBlock: BELTOD_clean_linker_0, # of connection points: 3
#     Node 2, Type 0, BuildingBlock: BELTOD_clean_linker_0, # of connection points: 3
#     Node 3, Type 0, BuildingBlock: BELTOD_clean_linker_0, # of connection points: 3
#     Node 4, Type 0, BuildingBlock: BELTOD_clean_linker_0, # of connection points: 3
#     Node 5, Type 0, BuildingBlock: BELTOD_clean_linker_0, # of connection points: 3
#     Node 6, Type 0, BuildingBlock: BELTOD_clean_linker_0, # of connection points: 3
#     Node 7, Type 0, BuildingBlock: BELTOD_clean_linker_0, # of connection points: 3
#     Node 8, Type 1, BuildingBlock: MIDCAF_clean_sbu_0, # of connection points: 6
#     Node 9, Type 1, BuildingBlock: MIDCAF_clean_sbu_0, # of connection points: 6
#     Node 10, Type 1, BuildingBlock: MIDCAF_clean_sbu_0, # of connection points: 6
#     Node 11, Type 1, BuildingBlock: MIDCAF_clean_sbu_0, # of connection points: 6
#     Edge 12, Type (0, 1), BuildingBlock: ZUJKAS_clean_linker_0, # of connection points: 2
#     Edge 13, Type (0, 1), BuildingBlock: ZUJKAS_clean_linker_0, # of connection points: 2
#     Edge 14, Type (0, 1), BuildingBlock: ZUJKAS_clean_linker_0, # of connection points: 2
#     Edge 15, Type (0, 1), BuildingBlock: ZUJKAS_clean_linker_0, # of connection points: 2
#     Edge 16, Type (0, 1), BuildingBlock: ZUJKAS_clean_linker_0, # of connection points: 2
#     Edge 17, Type (0, 1), BuildingBlock: ZUJKAS_clean_linker_0, # of connection points: 2
#     Edge 18, Type (0, 1), BuildingBlock: ZUJKAS_clean_linker_0, # of connection points: 2
#     Edge 19, Type (0, 1), BuildingBlock: ZUJKAS_clean_linker_0, # of connection points: 2
#     Edge 20, Type (0, 1), BuildingBlock: ZUJKAS_clean_linker_0, # of connection points: 2
#     Edge 21, Type (0, 1), BuildingBlock: ZUJKAS_clean_linker_0, # of connection points: 2
#     Edge 22, Type (0, 1), BuildingBlock: ZUJKAS_clean_linker_0, # of connection points: 2
#     Edge 23, Type (0, 1), BuildingBlock: ZUJKAS_clean_linker_0, # of connection points: 2
#     Edge 24, Type (0, 1), BuildingBlock: ZUJKAS_clean_linker_0, # of connection points: 2
#     Edge 25, Type (0, 1), BuildingBlock: ZUJKAS_clean_linker_0, # of connection points: 2
#     Edge 26, Type (0, 1), BuildingBlock: ZUJKAS_clean_linker_0, # of connection points: 2
#     Edge 27, Type (0, 1), BuildingBlock: ZUJKAS_clean_linker_0, # of connection points: 2
#     Edge 28, Type (0, 1), BuildingBlock: ZUJKAS_clean_linker_0, # of connection points: 2
#     Edge 29, Type (0, 1), BuildingBlock: ZUJKAS_clean_linker_0, # of connection points: 2
#     Edge 30, Type (0, 1), BuildingBlock: ZUJKAS_clean_linker_0, # of connection points: 2
#     Edge 31, Type (0, 1), BuildingBlock: ZUJKAS_clean_linker_0, # of connection points: 2
#     Edge 32, Type (0, 1), BuildingBlock: ZUJKAS_clean_linker_0, # of connection points: 2
#     Edge 33, Type (0, 1), BuildingBlock: ZUJKAS_clean_linker_0, # of connection points: 2
#     Edge 34, Type (0, 1), BuildingBlock: ZUJKAS_clean_linker_0, # of connection points: 2
#     Edge 35, Type (0, 1), BuildingBlock: ZUJKAS_clean_linker_0, # of connection points: 2
# Relax obj value: 0.020
# Max RMSD: 0.062
# Mean RMSD: 0.033
data_MOF--net-pry--node1-MIDCAF_clean_sbu_0--node2-BELTOD_clean_linker_0--edge1-ZUJKAS_clean_linker_0
_symmetry_space_group_name_H-M    P1
_symmetry_Int_Tables_number       1
_symmetry_cell_setting            triclinic
loop_
_symmetry_equiv_pos_as_xyz
'x, y, z'
_cell_length_a     51.160217
_cell_length_b     51.512069
_cell_length_c     50.766906
_cell_angle_alpha  89.835687
_cell_angle_beta   90.153713
_cell_angle_gamma 90.255999
loop_
_atom_site_label
_atom_site_type_symbol
_atom_site_fract_x
_atom_site_fract_y
_atom_site_fract_z
_atom_type_partial_charge
P0 P 0.25472 0.26821 0.25626 0.0
H1 H 0.30627 0.27708 0.23372 0.0
H2 H 0.33671 0.24916 0.21018 0.0
H3 H 0.27988 0.18683 0.21208 0.0
H4 H 0.24973 0.21483 0.23616 0.0
H5 H 0.23288 0.31931 0.2658 0.0
H6 H 0.20888 0.34991 0.23823 0.0
H7 H 0.20999 0.29482 0.17415 0.0
H8 H 0.23469 0.26452 0.20184 0.0
H9 H 0.26638 0.23881 0.30355 0.0
H10 H 0.1986 0.25414 0.25545 0.0
O11 O 0.27366 0.28648 0.27565 0.0
H12 H 0.23975 0.21269 0.33346 0.0
H13 H 0.17175 0.22755 0.28508 0.0
C14 C 0.27598 0.24787 0.2371 0.0
C15 C 0.30036 0.25741 0.22903 0.0
C16 C 0.31769 0.24144 0.21541 0.0
C17 C 0.31086 0.21563 0.20937 0.0
C18 C 0.28599 0.20642 0.21684 0.0
C19 C 0.26866 0.22245 0.2305 0.0
C20 C 0.23596 0.28986 0.23572 0.0
C21 C 0.22801 0.31384 0.24579 0.0
C22 C 0.21409 0.33126 0.23002 0.0
C23 C 0.20754 0.32494 0.20386 0.0
C24 C 0.2151 0.30055 0.19402 0.0
C25 C 0.22911 0.28313 0.20987 0.0
C26 C 0.23441 0.2487 0.27754 0.0
C27 C 0.24572 0.2365 0.29944 0.0
C28 C 0.23047 0.22139 0.31641 0.0
C29 C 0.20355 0.21801 0.31173 0.0
C30 C 0.19233 0.23006 0.28949 0.0
C31 C 0.20768 0.24519 0.27247 0.0
P32 P 0.32789 0.82926 0.71308 0.0
H33 H 0.37538 0.81026 0.73807 0.0
H34 H 0.39507 0.81818 0.78127 0.0
H35 H 0.32661 0.86144 0.80415 0.0
H36 H 0.30682 0.85271 0.76147 0.0
H37 H 0.33128 0.81081 0.6593 0.0
H38 H 0.33822 0.76802 0.64025 0.0
H39 H 0.33411 0.73368 0.71794 0.0
H40 H 0.32755 0.77687 0.73691 0.0
H41 H 0.30966 0.88228 0.70785 0.0
H42 H 0.27514 0.80589 0.71194 0.0
O43 O 0.34806 0.84786 0.69534 0.0
H44 H 0.26652 0.90132 0.70184 0.0
H45 H 0.23157 0.82488 0.70628 0.0
C46 C 0.33959 0.83073 0.74655 0.0
C47 C 0.36436 0.82085 0.75268 0.0
C48 C 0.37569 0.82561 0.77731 0.0
C49 C 0.36254 0.84063 0.79618 0.0
C50 C 0.33719 0.84951 0.7903 0.0
C51 C 0.32586 0.84464 0.76571 0.0
C52 C 0.32956 0.79704 0.69952 0.0
C53 C 0.33166 0.79404 0.67221 0.0
C54 C 0.3354 0.76948 0.66132 0.0
C55 C 0.33692 0.74736 0.67757 0.0
C56 C 0.33348 0.75035 0.70492 0.0
C57 C 0.32968 0.77501 0.71579 0.0
C58 C 0.29561 0.84267 0.70975 0.0
C59 C 0.29272 0.86961 0.70752 0.0
C60 C 0.26797 0.8805 0.70439 0.0
C61 C 0.24554 0.86463 0.70356 0.0
C62 C 0.24848 0.8376 0.70652 0.0
C63 C 0.27334 0.82672 0.70977 0.0
P64 P 0.75394 0.27761 0.7762 0.0
H65 H 0.79673 0.269 0.81293 0.0
H66 H 0.82533 0.29819 0.83771 0.0
H67 H 0.78527 0.36418 0.80397 0.0
H68 H 0.75617 0.33486 0.78015 0.0
H69 H 0.72437 0.23045 0.76581 0.0
H70 H 0.70055 0.20006 0.79418 0.0
H71 H 0.71832 0.248 0.86164 0.0
H72 H 0.74202 0.27832 0.83316 0.0
H73 H 0.76278 0.29935 0.72404 0.0
H74 H 0.69917 0.29473 0.77939 0.0
O75 O 0.77373 0.25895 0.75839 0.0
H76 H 0.73528 0.32404 0.69365 0.0
H77 H 0.67151 0.31971 0.74915 0.0
C78 C 0.77434 0.29969 0.7947 0.0
C79 C 0.79408 0.28977 0.81098 0.0
C80 C 0.81057 0.30653 0.82496 0.0
C81 C 0.8078 0.33363 0.82276 0.0
C82 C 0.78784 0.34346 0.80642 0.0
C83 C 0.77122 0.32665 0.7926 0.0
C84 C 0.7353 0.2564 0.7974 0.0
C85 C 0.72307 0.23443 0.78671 0.0
C86 C 0.70939 0.21714 0.80293 0.0
C87 C 0.70774 0.2215 0.83021 0.0
C88 C 0.71964 0.24386 0.84078 0.0
C89 C 0.73315 0.26126 0.82448 0.0
C90 C 0.73286 0.29482 0.75371 0.0
C91 C 0.74279 0.30349 0.72954 0.0
C92 C 0.7271 0.31777 0.71228 0.0
C93 C 0.70116 0.3238 0.71894 0.0
C94 C 0.69126 0.31504 0.74326 0.0
C95 C 0.70707 0.30082 0.76059 0.0
P96 P 0.77696 0.77433 0.27522 0.0
H97 H 0.79474 0.82749 0.26656 0.0
H98 H 0.82033 0.85781 0.29324 0.0
H99 H 0.82676 0.79966 0.35447 0.0
H100 H 0.80179 0.76926 0.32727 0.0
H101 H 0.76921 0.7577 0.2209 0.0
H102 H 0.79695 0.73493 0.18956 0.0
H103 H 0.85801 0.73015 0.24836 0.0
H104 H 0.83018 0.75339 0.27951 0.0
H105 H 0.74334 0.78244 0.32044 0.0
H106 H 0.76914 0.71746 0.27405 0.0
O107 O 0.75543 0.79185 0.25807 0.0
H108 H 0.71604 0.7534 0.34686 0.0
H109 H 0.7414 0.68835 0.29994 0.0
C110 C 0.79594 0.79635 0.29517 0.0
C111 C 0.80159 0.82134 0.28578 0.0
C112 C 0.8161 0.8387 0.30114 0.0
C113 C 0.8254 0.83131 0.32616 0.0
C114 C 0.82005 0.80599 0.33527 0.0
C115 C 0.80558 0.78863 0.31983 0.0
C116 C 0.79783 0.75766 0.25234 0.0
C117 C 0.78864 0.75193 0.22699 0.0
C118 C 0.80447 0.73871 0.20914 0.0
C119 C 0.82977 0.73078 0.21639 0.0
C120 C 0.83881 0.73637 0.24198 0.0
C121 C 0.82289 0.74957 0.25986 0.0
C122 C 0.75852 0.75212 0.29552 0.0
C123 C 0.74323 0.76188 0.31605 0.0
C124 C 0.72745 0.74526 0.33098 0.0
C125 C 0.72641 0.71852 0.32548 0.0
C126 C 0.74197 0.70877 0.30495 0.0
C127 C 0.75781 0.72545 0.29004 0.0
P128 P 0.92403 0.93097 0.93278 0.0
H129 H 0.90228 0.96425 0.97364 0.0
H130 H 0.85885 0.98273 0.98043 0.0
H131 H 0.83103 0.94416 0.9103 0.0
H132 H 0.87449 0.92523 0.90387 0.0
H133 H 0.94614 0.90868 0.98095 0.0
H134 H 0.94801 0.86442 0.99816 0.0
H135 H 0.90523 0.83708 0.93009 0.0
H136 H 0.90321 0.88164 0.91312 0.0
H137 H 0.90731 0.96292 0.88776 0.0
H138 H 0.96393 0.90293 0.90322 0.0
O139 O 0.94553 0.94917 0.94934 0.0
H140 H 0.92238 0.966 0.84232 0.0
H141 H 0.97978 0.9067 0.85772 0.0
C142 C 0.89177 0.94395 0.93785 0.0
C143 C 0.88688 0.95979 0.95967 0.0
C144 C 0.86205 0.97027 0.9636 0.0
C145 C 0.84169 0.96514 0.9457 0.0
C146 C 0.8465 0.94879 0.92413 0.0
C147 C 0.87127 0.93795 0.92048 0.0
C148 C 0.92492 0.89833 0.94554 0.0
C149 C 0.9372 0.89318 0.96969 0.0
C150 C 0.9383 0.86783 0.9795 0.0
C151 C 0.92693 0.84716 0.96543 0.0
C152 C 0.91401 0.85256 0.94152 0.0
C153 C 0.913 0.87797 0.93169 0.0
C154 C 0.93374 0.93191 0.89865 0.0
C155 C 0.92255 0.94995 0.88128 0.0
C156 C 0.93129 0.95183 0.8553 0.0
C157 C 0.95201 0.93635 0.84645 0.0
C158 C 0.96364 0.9187 0.86402 0.0
C159 C 0.9545 0.91645 0.88992 0.0
P160 P 0.66173 0.15918 0.39127 0.0
H161 H 0.68626 0.20765 0.4074 0.0
H162 H 0.67346 0.2416 0.43781 0.0
H163 H 0.60627 0.1958 0.46115 0.0
H164 H 0.61881 0.16224 0.42952 0.0
H165 H 0.69722 0.12298 0.36669 0.0
H166 H 0.72626 0.08961 0.38404 0.0
H167 H 0.69733 0.10409 0.46255 0.0
H168 H 0.66859 0.13789 0.44497 0.0
H169 H 0.6218 0.18507 0.3603 0.0
H170 H 0.63926 0.10671 0.38454 0.0
O171 O 0.67991 0.17426 0.36861 0.0
H172 H 0.58826 0.16869 0.33014 0.0
H173 H 0.60564 0.09024 0.35469 0.0
C174 C 0.65315 0.18275 0.41581 0.0
C175 C 0.66879 0.20488 0.41908 0.0
C176 C 0.66157 0.2242 0.43681 0.0
C177 C 0.63873 0.2216 0.452 0.0
C178 C 0.62371 0.19872 0.44947 0.0
C179 C 0.63088 0.17946 0.43148 0.0
C180 C 0.68125 0.13329 0.40461 0.0
C181 C 0.69707 0.11889 0.38763 0.0
C182 C 0.71345 0.09959 0.39756 0.0
C183 C 0.71422 0.09421 0.42473 0.0
C184 C 0.69747 0.10801 0.44158 0.0
C185 C 0.68102 0.12734 0.43157 0.0
C186 C 0.63324 0.14713 0.37436 0.0
C187 C 0.61794 0.16439 0.35961 0.0
C188 C 0.59869 0.155 0.34247 0.0
C189 C 0.59453 0.12813 0.33978 0.0
C190 C 0.60871 0.11102 0.35601 0.0
C191 C 0.62792 0.12044 0.37315 0.0
P192 P 0.41406 0.61524 0.1055 0.0
H193 H 0.36998 0.62692 0.07076 0.0
H194 H 0.32536 0.61007 0.06813 0.0
H195 H 0.34113 0.5584 0.1333 0.0
H196 H 0.38572 0.57585 0.13636 0.0
H197 H 0.45503 0.64464 0.07889 0.0
H198 H 0.4593 0.69012 0.06612 0.0
H199 H 0.38244 0.70528 0.09771 0.0
H200 H 0.379 0.65997 0.11158 0.0
H201 H 0.44757 0.57588 0.12946 0.0
H202 H 0.40918 0.64622 0.15357 0.0
O203 O 0.4315 0.59743 0.08456 0.0
H204 H 0.46468 0.57004 0.17398 0.0
H205 H 0.42684 0.64098 0.19804 0.0
C206 C 0.38089 0.6034 0.10441 0.0
C207 C 0.36373 0.61242 0.0849 0.0
C208 C 0.33826 0.60272 0.08335 0.0
C209 C 0.32973 0.58321 0.10077 0.0
C210 C 0.34719 0.57357 0.11978 0.0
C211 C 0.37259 0.58365 0.12161 0.0
C212 C 0.41643 0.64878 0.09553 0.0
C213 C 0.43904 0.65774 0.08289 0.0
C214 C 0.44135 0.68377 0.07543 0.0
C215 C 0.42105 0.70144 0.08049 0.0
C216 C 0.39852 0.69235 0.09355 0.0
C217 C 0.39639 0.66634 0.10125 0.0
C218 C 0.42751 0.61173 0.1381 0.0
C219 C 0.44314 0.59029 0.14425 0.0
C220 C 0.45302 0.58705 0.16973 0.0
C221 C 0.44735 0.60516 0.18959 0.0
C222 C 0.43148 0.62657 0.1833 0.0
C223 C 0.42154 0.62973 0.15781 0.0
P224 P 0.16762 0.38265 0.67258 0.0
H225 H 0.1904 0.33192 0.66133 0.0
H226 H 0.17905 0.29773 0.6303 0.0
H227 H 0.1167 0.34538 0.59919 0.0
H228 H 0.12757 0.37909 0.63133 0.0
H229 H 0.20088 0.4236 0.69428 0.0
H230 H 0.23147 0.45444 0.67388 0.0
H231 H 0.20789 0.42763 0.59694 0.0
H232 H 0.17694 0.39752 0.61712 0.0
H233 H 0.11918 0.35637 0.68726 0.0
H234 H 0.15265 0.43291 0.69556 0.0
O235 O 0.18634 0.36932 0.69589 0.0
H236 H 0.08311 0.3686 0.71584 0.0
H237 H 0.11743 0.44489 0.72514 0.0
C238 C 0.15953 0.35782 0.64892 0.0
C239 C 0.17421 0.33498 0.64793 0.0
C240 C 0.16787 0.31552 0.62987 0.0
C241 C 0.14691 0.3187 0.61213 0.0
C242 C 0.13266 0.34202 0.61281 0.0
C243 C 0.13888 0.36136 0.6311 0.0
C244 C 0.18662 0.40815 0.65731 0.0
C245 C 0.20179 0.42484 0.673 0.0
C246 C 0.21923 0.44245 0.66138 0.0
C247 C 0.22205 0.44323 0.6339 0.0
C248 C 0.2061 0.42726 0.6182 0.0
C249 C 0.18838 0.41001 0.6298 0.0
C250 C 0.1385 0.39382 0.68886 0.0
C251 C 0.11851 0.37602 0.69474 0.0
C252 C 0.09801 0.38294 0.71141 0.0
C253 C 0.09738 0.40768 0.72305 0.0
C254 C 0.11697 0.42579 0.71629 0.0
C255 C 0.13734 0.4189 0.6994 0.0
Zn256 Zn 0.98775 0.06333 0.55222 0.0
Zn257 Zn 0.04905 0.99591 0.50028 0.0
Zn258 Zn 0.01764 0.02936 0.52616 0.0
C259 C 0.06331 0.04692 0.48543 0.0
C260 C 0.99712 0.9872 0.48354 0.0
O261 O 0.01893 0.01873 0.56837 0.0
O262 O 0.99317 0.04744 0.5876 0.0
C263 C 0.02768 0.09207 0.52937 0.0
O264 O 0.04539 0.0525 0.50229 0.0
O265 O 0.06911 0.0235 0.481 0.0
O266 O 0.01982 0.97781 0.48187 0.0
O267 O 0.99276 0.00697 0.49839 0.0
O268 O 0.00769 0.095 0.54356 0.0
O269 O 0.03373 0.06934 0.52073 0.0
O270 O 0.97687 0.02459 0.51215 0.0
O271 O 0.95519 0.05588 0.53238 0.0
C272 C 0.95557 0.03711 0.51647 0.0
O273 O 0.03798 0.00415 0.55527 0.0
O274 O 0.06424 0.97907 0.532 0.0
C275 C 0.00784 0.02784 0.58914 0.0
C276 C 0.05553 0.98629 0.55403 0.0
Zn277 Zn 0.49393 0.04927 1.00053 0.0
Zn278 Zn 0.55379 0.9903 0.06433 0.0
Zn279 Zn 0.52331 0.01885 0.03329 0.0
C280 C 0.58598 0.01006 0.02555 0.0
C281 C 0.51544 0.95726 0.04362 0.0
O282 O 0.50065 0.04655 0.05753 0.0
O283 O 0.47903 0.0712 0.02906 0.0
C284 C 0.54634 0.0561 0.98648 0.0
O285 O 0.56479 0.02248 0.02007 0.0
O286 O 0.58629 0.99333 0.04372 0.0
O287 O 0.53369 0.95765 0.06041 0.0
O288 O 0.50935 0.97803 0.03082 0.0
O289 O 0.52376 0.06312 0.97946 0.0
O290 O 0.54949 0.04007 0.00579 0.0
O291 O 0.49679 0.99281 0.01122 0.0
O292 O 0.47318 0.01942 0.98649 0.0
C293 C 0.47874 0.99664 0.99388 0.0
O294 O 0.51838 0.03321 0.07392 0.0
O295 O 0.54906 0.01219 0.0962 0.0
C296 C 0.48473 0.0653 0.05254 0.0
C297 C 0.53111 0.02892 0.09541 0.0
Zn298 Zn 0.54556 0.5525 0.54444 0.0
Zn299 Zn 0.48801 0.49052 0.48198 0.0
Zn300 Zn 0.5177 0.52213 0.51118 0.0
C301 C 0.52403 0.45914 0.50756 0.0
C302 C 0.51433 0.52531 0.4479 0.0
O303 O 0.49065 0.54404 0.53702 0.0
O304 O 0.51541 0.5673 0.564 0.0
C305 C 0.56084 0.50127 0.55374 0.0
O306 O 0.53161 0.48154 0.51606 0.0
O307 O 0.50405 0.45728 0.49303 0.0
O308 O 0.4994 0.50572 0.4481 0.0
O309 O 0.52326 0.53473 0.46967 0.0
O310 O 0.56606 0.52411 0.56112 0.0
O311 O 0.5438 0.49723 0.5354 0.0
O312 O 0.54042 0.54931 0.48603 0.0
O313 O 0.56166 0.57313 0.51544 0.0
C314 C 0.55661 0.56775 0.49167 0.0
O315 O 0.47608 0.52576 0.52262 0.0
O316 O 0.45323 0.50033 0.4959 0.0
C317 C 0.49301 0.56048 0.55602 0.0
C318 C 0.45407 0.51626 0.5147 0.0
Zn319 Zn 0.03919 0.55623 0.98135 0.0
Zn320 Zn 0.98061 0.49909 0.0507 0.0
Zn321 Zn 0.01032 0.52766 0.01563 0.0
C322 C 0.03413 0.49056 0.06197 0.0
C323 C 0.96881 0.48275 0.99872 0.0
O324 O 0.99825 0.56891 0.0181 0.0
O325 O 0.02438 0.59052 0.99098 0.0
C326 C 0.07352 0.53136 0.01646 0.0
O327 O 0.03702 0.50631 0.04238 0.0
O328 O 0.01152 0.48462 0.07004 0.0
O329 O 0.96333 0.47788 0.02251 0.0
O330 O 0.98587 0.50032 0.9929 0.0
O331 O 0.07359 0.54559 0.99616 0.0
O332 O 0.05185 0.52315 0.02638 0.0
O333 O 0.00374 0.51237 0.97543 0.0
O334 O 0.02633 0.53842 0.94911 0.0
C335 C 0.01153 0.51896 0.95221 0.0
O336 O 0.98565 0.55468 0.03821 0.0
O337 O 0.96214 0.53012 0.06522 0.0
C338 C 0.00578 0.59035 0.00728 0.0
C339 C 0.96846 0.55232 0.05659 0.0
H340 H 0.15394 0.22781 0.3297 0.0
H341 H 0.12829 0.20214 0.36119 0.0
H342 H 0.19091 0.14667 0.3669 0.0
H343 H 0.21652 0.17195 0.33534 0.0
H344 H 0.11157 0.1501 0.35845 0.0
H345 H 0.17717 0.16555 0.44406 0.0
H346 H 0.17899 0.18513 0.41456 0.0
H347 H 0.19377 0.15352 0.41551 0.0
C348 C 0.16218 0.21003 0.3375 0.0
C349 C 0.18741 0.20208 0.33014 0.0
C350 C 0.14755 0.19548 0.35561 0.0
C351 C 0.15791 0.17279 0.36682 0.0
C352 C 0.18281 0.16449 0.35905 0.0
H353 H 0.11268 0.04597 0.46569 0.0
H354 H 0.13409 0.07868 0.43805 0.0
C355 C 0.19742 0.17898 0.34098 0.0
C356 C 0.1426 0.15737 0.38619 0.0
H357 H 0.14527 0.13179 0.44831 0.0
C358 C 0.11873 0.14634 0.37821 0.0
C359 C 0.15196 0.1526 0.41201 0.0
C360 C 0.17675 0.16502 0.42219 0.0
C361 C 0.10457 0.12968 0.39495 0.0
C362 C 0.11438 0.12426 0.42047 0.0
C363 C 0.13784 0.13591 0.42871 0.0
C364 C 0.10146 0.10526 0.43827 0.0
C365 C 0.07981 0.11715 0.3848 0.0
C366 C 0.07615 0.10953 0.44792 0.0
C367 C 0.06382 0.09078 0.46366 0.0
C368 C 0.07675 0.06761 0.47028 0.0
C369 C 0.10225 0.06365 0.46096 0.0
C370 C 0.11453 0.08235 0.44524 0.0
H371 H 0.07772 0.1193 0.36312 0.0
H372 H 0.07935 0.09616 0.38984 0.0
H373 H 0.06271 0.12645 0.39422 0.0
H374 H 0.06583 0.12722 0.44306 0.0
H375 H 0.044 0.09417 0.47019 0.0
H376 H 0.34209 0.84554 0.846 0.0
H377 H 0.36272 0.86636 0.88415 0.0
H378 H 0.43413 0.87573 0.84022 0.0
H379 H 0.41356 0.85584 0.80181 0.0
H380 H 0.41162 0.85741 0.91409 0.0
H381 H 0.40937 0.95052 0.85843 0.0
H382 H 0.39074 0.92239 0.84842 0.0
H383 H 0.4252 0.92413 0.84189 0.0
C384 C 0.36225 0.85185 0.84451 0.0
C385 C 0.37604 0.84926 0.82069 0.0
C386 C 0.37407 0.86352 0.86641 0.0
C387 C 0.39982 0.87282 0.86485 0.0
C388 C 0.41415 0.86883 0.84172 0.0
H389 H 0.4985 0.94874 0.98207 0.0
H390 H 0.47829 0.91576 0.95371 0.0
C391 C 0.40238 0.85725 0.81983 0.0
C392 C 0.41082 0.88902 0.88627 0.0
H393 H 0.43043 0.95094 0.89975 0.0
C394 C 0.41575 0.87787 0.91106 0.0
C395 C 0.41584 0.91576 0.88227 0.0
C396 C 0.40984 0.92905 0.85641 0.0
C397 C 0.42594 0.8928 0.93192 0.0
C398 C 0.43139 0.91943 0.9277 0.0
C399 C 0.42627 0.9305 0.90294 0.0
C400 C 0.442 0.93666 0.94855 0.0
C401 C 0.43035 0.88016 0.95836 0.0
C402 C 0.4282 0.95912 0.95538 0.0
C403 C 0.43974 0.97796 0.97137 0.0
C404 C 0.46527 0.97466 0.98097 0.0
C405 C 0.47863 0.95156 0.97529 0.0
C406 C 0.46708 0.9327 0.95912 0.0
H407 H 0.41951 0.86151 0.96017 0.0
H408 H 0.4515 0.87607 0.96083 0.0
H409 H 0.42429 0.89322 0.97458 0.0
H410 H 0.40885 0.96259 0.94742 0.0
H411 H 0.42899 0.99556 0.97545 0.0
H412 H 0.71586 0.36717 0.69156 0.0
H413 H 0.68918 0.39386 0.66218 0.0
H414 H 0.62282 0.3439 0.67621 0.0
H415 H 0.64958 0.3167 0.70544 0.0
H416 H 0.63289 0.35896 0.62037 0.0
H417 H 0.62962 0.44221 0.68951 0.0
H418 H 0.66176 0.42963 0.68356 0.0
H419 H 0.63788 0.40972 0.69998 0.0
C420 C 0.69567 0.36166 0.68822 0.0
C421 C 0.68484 0.33981 0.70088 0.0
C422 C 0.68041 0.37704 0.67157 0.0
C423 C 0.654 0.37095 0.66722 0.0
C424 C 0.64316 0.34894 0.6794 0.0
H425 H 0.53968 0.45475 0.56902 0.0
H426 H 0.5609 0.42064 0.59526 0.0
C427 C 0.65841 0.33356 0.69622 0.0
C428 C 0.63779 0.38806 0.65035 0.0
H429 H 0.61536 0.45017 0.64571 0.0
C430 C 0.62874 0.37882 0.62595 0.0
C431 C 0.63239 0.4139 0.65779 0.0
C432 C 0.64069 0.42447 0.68423 0.0
C433 C 0.61539 0.39521 0.60826 0.0
C434 C 0.61076 0.42132 0.61542 0.0
C435 C 0.61911 0.43021 0.64017 0.0
C436 C 0.59836 0.44029 0.59728 0.0
C437 C 0.60741 0.38489 0.58163 0.0
C438 C 0.61228 0.46265 0.58981 0.0
C439 C 0.6002 0.48207 0.57498 0.0
C440 C 0.57399 0.47946 0.56717 0.0
C441 C 0.5601 0.45692 0.57428 0.0
C442 C 0.57221 0.43744 0.58922 0.0
H443 H 0.61624 0.36567 0.57746 0.0
H444 H 0.58583 0.38271 0.58085 0.0
H445 H 0.61326 0.3987 0.56588 0.0
H446 H 0.63241 0.46532 0.59595 0.0
H447 H 0.61128 0.49934 0.56991 0.0
H448 H 0.88237 0.73671 0.20727 0.0
H449 H 0.90953 0.71266 0.17608 0.0
H450 H 0.84209 0.66825 0.15166 0.0
H451 H 0.81493 0.69204 0.1827 0.0
H452 H 0.91928 0.6607 0.1745 0.0
H453 H 0.87214 0.69095 0.08133 0.0
H454 H 0.86661 0.70756 0.11208 0.0
H455 H 0.84882 0.67828 0.10441 0.0
C456 C 0.87334 0.7218 0.19526 0.0
C457 C 0.84642 0.71641 0.19738 0.0
C458 C 0.88885 0.7082 0.17733 0.0
C459 C 0.87774 0.68906 0.1611 0.0
C460 C 0.85096 0.68349 0.16336 0.0
H461 H 0.91833 0.55733 0.073 0.0
H462 H 0.89887 0.59415 0.0961 0.0
C463 C 0.83545 0.69708 0.18121 0.0
C464 C 0.89427 0.67365 0.14296 0.0
H465 H 0.89779 0.65175 0.07957 0.0
C466 C 0.91493 0.65913 0.15365 0.0
C467 C 0.88872 0.67177 0.11568 0.0
C468 C 0.86804 0.6882 0.10264 0.0
C469 C 0.92906 0.64158 0.13814 0.0
C470 C 0.92243 0.6386 0.11128 0.0
C471 C 0.90267 0.654 0.10025 0.0
C472 C 0.93396 0.6177 0.09517 0.0
C473 C 0.95011 0.62533 0.15082 0.0
C474 C 0.96002 0.619 0.08669 0.0
C475 C 0.97117 0.59796 0.07348 0.0
C476 C 0.95635 0.57545 0.06846 0.0
C477 C 0.93014 0.57449 0.07654 0.0
C478 C 0.919 0.5955 0.08962 0.0
H479 H 0.95142 0.62847 0.17243 0.0
H480 H 0.94631 0.60441 0.14711 0.0
H481 H 0.9693 0.63026 0.14193 0.0
H482 H 0.97184 0.63602 0.0908 0.0
H483 H 0.99157 0.59897 0.0679 0.0
H484 H 0.34398 0.22801 0.16878 0.0
H485 H 0.37582 0.19997 0.14721 0.0
H486 H 0.35262 0.13621 0.19725 0.0
H487 H 0.32091 0.16421 0.21922 0.0
H488 H 0.41838 0.17178 0.17052 0.0
H489 H 0.34582 0.10676 0.12188 0.0
H490 H 0.33701 0.13794 0.13528 0.0
H491 H 0.34226 0.11076 0.15685 0.0
C492 C 0.34572 0.20808 0.17535 0.0
C493 C 0.32979 0.19838 0.19572 0.0
C494 C 0.36389 0.19206 0.16294 0.0
C495 C 0.36642 0.16596 0.17047 0.0
C496 C 0.35068 0.15619 0.19084 0.0
H497 H 0.46101 0.04504 0.09584 0.0
H498 H 0.43499 0.06836 0.12875 0.0
C499 C 0.3325 0.17221 0.20331 0.0
C500 C 0.38558 0.14911 0.1569 0.0
H501 H 0.3903 0.09721 0.1155 0.0
C502 C 0.41227 0.15539 0.15859 0.0
C503 C 0.37758 0.12761 0.14153 0.0
C504 C 0.34911 0.12037 0.13852 0.0
C505 C 0.43115 0.14095 0.14499 0.0
C506 C 0.42305 0.12003 0.12891 0.0
C507 C 0.39646 0.11325 0.12788 0.0
C508 C 0.44145 0.10624 0.11133 0.0
C509 C 0.45961 0.14819 0.14793 0.0
C510 C 0.45385 0.11979 0.0908 0.0
C511 C 0.46882 0.10653 0.07226 0.0
C512 C 0.47183 0.07951 0.07402 0.0
C513 C 0.45982 0.06598 0.09478 0.0
C514 C 0.44471 0.07924 0.11331 0.0
H515 H 0.46325 0.15924 0.16635 0.0
H516 H 0.47217 0.13064 0.14797 0.0
H517 H 0.46552 0.16065 0.13108 0.0
H518 H 0.4511 0.14051 0.08851 0.0
H519 H 0.47755 0.1173 0.05614 0.0
H520 H 0.22526 0.90968 0.72352 0.0
H521 H 0.18526 0.9318 0.70964 0.0
H522 H 0.16727 0.8685 0.65713 0.0
H523 H 0.20719 0.84639 0.67074 0.0
H524 H 0.17708 0.94788 0.65952 0.0
H525 H 0.09608 0.88293 0.68901 0.0
H526 H 0.12856 0.88022 0.70279 0.0
H527 H 0.12094 0.86573 0.67144 0.0
C528 C 0.2126 0.90031 0.70926 0.0
C529 C 0.21951 0.87632 0.69812 0.0
C530 C 0.18966 0.91291 0.7015 0.0
C531 C 0.17307 0.90168 0.6826 0.0
C532 C 0.17937 0.87725 0.67225 0.0
H533 H 0.07177 0.93671 0.5602 0.0
H534 H 0.09615 0.91841 0.5972 0.0
C535 C 0.20229 0.86464 0.68001 0.0
C536 C 0.15121 0.91683 0.67105 0.0
H537 H 0.08709 0.91228 0.65265 0.0
C538 C 0.15723 0.94044 0.65856 0.0
C539 C 0.12531 0.90714 0.6699 0.0
C540 C 0.11727 0.88274 0.68425 0.0
C541 C 0.13862 0.95361 0.64326 0.0
C542 C 0.11315 0.94306 0.64074 0.0
C543 C 0.10665 0.92029 0.65456 0.0
C544 C 0.09455 0.95324 0.62085 0.0
C545 C 0.14691 0.97771 0.62841 0.0
C546 C 0.08484 0.97867 0.62223 0.0
C547 C 0.07107 0.98928 0.6009 0.0
C548 C 0.06654 0.97445 0.57813 0.0
C549 C 0.07504 0.94858 0.57749 0.0
C550 C 0.08881 0.93805 0.59869 0.0
H551 H 0.16834 0.98115 0.62957 0.0
H552 H 0.14122 0.97624 0.60734 0.0
H553 H 0.13692 0.99484 0.63685 0.0
H554 H 0.08888 0.99063 0.63928 0.0
H555 H 0.06518 0.00941 0.60169 0.0
H556 H 0.79539 0.37957 0.84693 0.0
H557 H 0.82412 0.40808 0.87231 0.0
H558 H 0.88856 0.35605 0.85914 0.0
H559 H 0.86034 0.32815 0.83254 0.0
H560 H 0.84811 0.39702 0.91702 0.0
H561 H 0.9231 0.42467 0.84366 0.0
H562 H 0.89267 0.40925 0.83449 0.0
H563 H 0.91955 0.39014 0.84659 0.0
C564 C 0.81581 0.37446 0.84886 0.0
C565 C 0.82548 0.35149 0.83761 0.0
C566 C 0.8322 0.39073 0.86355 0.0
C567 C 0.85864 0.38446 0.86735 0.0
C568 C 0.86842 0.36167 0.85601 0.0
H569 H 0.95301 0.43237 0.99976 0.0
H570 H 0.92711 0.40925 0.96664 0.0
C571 C 0.85209 0.34547 0.84116 0.0
C572 C 0.87534 0.40063 0.88491 0.0
H573 H 0.93396 0.43257 0.88897 0.0
C574 C 0.86676 0.40497 0.91076 0.0
C575 C 0.89956 0.41134 0.87671 0.0
C576 C 0.90915 0.40886 0.84876 0.0
C577 C 0.88195 0.41908 0.92881 0.0
C578 C 0.90679 0.42854 0.92106 0.0
C579 C 0.91509 0.42494 0.89499 0.0
C580 C 0.92438 0.44198 0.93995 0.0
C581 C 0.87109 0.42389 0.95597 0.0
C582 C 0.93238 0.46772 0.93543 0.0
C583 C 0.94736 0.48091 0.95429 0.0
C584 C 0.95481 0.46845 0.97778 0.0
C585 C 0.94742 0.44247 0.98187 0.0
C586 C 0.93257 0.42929 0.96302 0.0
H587 H 0.84942 0.42227 0.95621 0.0
H588 H 0.87896 0.40914 0.96981 0.0
H589 H 0.87673 0.44342 0.96329 0.0
H590 H 0.92635 0.47785 0.91772 0.0
H591 H 0.95244 0.50107 0.95086 0.0
H592 H 0.67652 0.72827 0.34195 0.0
H593 H 0.6479 0.70023 0.36804 0.0
H594 H 0.70691 0.64073 0.3687 0.0
H595 H 0.73611 0.66905 0.34334 0.0
H596 H 0.628 0.65124 0.35689 0.0
H597 H 0.69007 0.6494 0.44688 0.0
H598 H 0.69533 0.6723 0.42044 0.0
H599 H 0.70612 0.63932 0.41722 0.0
C600 C 0.68359 0.70936 0.34791 0.0
C601 C 0.70877 0.70105 0.34078 0.0
C602 C 0.6671 0.69326 0.36263 0.0
C603 C 0.67538 0.66853 0.37062 0.0
C604 C 0.70027 0.65991 0.36313 0.0
H605 H 0.57106 0.55144 0.44225 0.0
H606 H 0.59937 0.57464 0.41097 0.0
C607 C 0.71684 0.67604 0.3484 0.0
C608 C 0.65786 0.65195 0.38684 0.0
H609 H 0.6519 0.62349 0.44739 0.0
C610 C 0.63325 0.64507 0.37665 0.0
C611 C 0.66468 0.64409 0.41268 0.0
C612 C 0.69038 0.6518 0.42513 0.0
C613 C 0.61518 0.63077 0.39169 0.0
C614 C 0.62202 0.62281 0.41745 0.0
C615 C 0.64675 0.62945 0.42754 0.0
C616 C 0.60327 0.60912 0.43502 0.0
C617 C 0.58869 0.62483 0.38019 0.0
C618 C 0.59592 0.6208 0.45876 0.0
C619 C 0.5798 0.60766 0.4765 0.0
C620 C 0.5706 0.5825 0.47093 0.0
C621 C 0.57732 0.57102 0.4468 0.0
C622 C 0.59361 0.58422 0.42899 0.0
H623 H 0.58467 0.63649 0.36219 0.0
H624 H 0.58795 0.604 0.37486 0.0
H625 H 0.57304 0.6285 0.39481 0.0
H626 H 0.60304 0.64 0.46379 0.0
H627 H 0.57497 0.61703 0.49492 0.0
H628 H 0.2147 0.33593 0.1513 0.0
H629 H 0.19098 0.36743 0.12413 0.0
H630 H 0.14397 0.38832 0.19108 0.0
H631 H 0.16717 0.3567 0.21822 0.0
H632 H 0.13754 0.36937 0.11313 0.0
H633 H 0.16977 0.45897 0.16383 0.0
H634 H 0.18606 0.42822 0.16823 0.0
H635 H 0.15658 0.43517 0.18608 0.0
C636 C 0.19921 0.3471 0.16023 0.0
C637 C 0.19298 0.34383 0.18705 0.0
C638 C 0.18581 0.36525 0.1447 0.0
C639 C 0.16609 0.38063 0.15571 0.0
C640 C 0.15962 0.37719 0.18234 0.0
H641 H 0.03982 0.47782 0.11361 0.0
H642 H 0.07535 0.45319 0.13404 0.0
C643 C 0.17291 0.35904 0.19784 0.0
C644 C 0.15126 0.39937 0.1392 0.0
H645 H 0.13173 0.46269 0.13626 0.0
C646 C 0.1366 0.38986 0.11788 0.0
C647 C 0.15019 0.42615 0.14533 0.0
C648 C 0.1667 0.43782 0.16695 0.0
C649 C 0.11972 0.40608 0.10351 0.0
C650 C 0.11773 0.43258 0.11046 0.0
C651 C 0.13322 0.44235 0.13105 0.0
C652 C 0.09788 0.44975 0.09823 0.0
C653 C 0.10316 0.39449 0.08185 0.0
C654 C 0.09906 0.45646 0.07143 0.0
C655 C 0.07868 0.47047 0.05969 0.0
C656 C 0.05701 0.47824 0.07465 0.0
C657 C 0.05633 0.47216 0.10163 0.0
C658 C 0.07664 0.45819 0.11334 0.0
H659 H 0.10412 0.37295 0.08163 0.0
H660 H 0.08243 0.40038 0.0841 0.0
H661 H 0.11012 0.40182 0.06252 0.0
H662 H 0.11538 0.45029 0.05947 0.0
H663 H 0.07941 0.47433 0.03873 0.0
H664 H 0.6605 0.19796 0.82131 0.0
H665 H 0.63729 0.16732 0.84998 0.0
H666 H 0.69979 0.17202 0.90689 0.0
H667 H 0.72331 0.20256 0.87821 0.0
H668 H 0.67884 0.11832 0.89283 0.0
H669 H 0.60408 0.19044 0.92288 0.0
H670 H 0.61023 0.18799 0.8881 0.0
H671 H 0.63546 0.19985 0.90961 0.0
C672 C 0.66942 0.19232 0.83983 0.0
C673 C 0.6937 0.20277 0.84754 0.0
C674 C 0.65609 0.17491 0.85621 0.0
C675 C 0.66681 0.16753 0.88055 0.0
C676 C 0.69122 0.17753 0.88817 0.0
H677 H 0.5771 0.09424 0.00584 0.0
H678 H 0.61017 0.11954 0.9818 0.0
C679 C 0.7045 0.19511 0.87187 0.0
C680 C 0.65208 0.14997 0.89834 0.0
H681 H 0.59697 0.14689 0.93591 0.0
C682 C 0.66101 0.12452 0.90239 0.0
C683 C 0.62903 0.15829 0.91098 0.0
C684 C 0.61912 0.18568 0.90793 0.0
C685 C 0.64699 0.10691 0.91827 0.0
C686 C 0.62347 0.11503 0.93022 0.0
C687 C 0.61498 0.14069 0.92668 0.0
C688 C 0.60673 0.09723 0.94589 0.0
C689 C 0.65742 0.07982 0.92223 0.0
C690 C 0.59413 0.07609 0.93378 0.0
C691 C 0.57526 0.06171 0.94749 0.0
C692 C 0.56896 0.06815 0.97352 0.0
C693 C 0.58208 0.08874 0.98589 0.0
C694 C 0.60086 0.10316 0.97219 0.0
H695 H 0.67854 0.07862 0.91738 0.0
H696 H 0.65453 0.07326 0.94286 0.0
H697 H 0.64666 0.06623 0.90915 0.0
H698 H 0.59794 0.07153 0.91334 0.0
H699 H 0.56493 0.04618 0.9375 0.0
H700 H 0.81749 0.88359 0.33288 0.0
H701 H 0.84419 0.91413 0.35838 0.0
H702 H 0.89436 0.8514 0.38271 0.0
H703 H 0.86848 0.82097 0.35655 0.0
H704 H 0.85647 0.91557 0.41198 0.0
H705 H 0.94574 0.90387 0.35186 0.0
H706 H 0.91407 0.89249 0.34105 0.0
H707 H 0.93319 0.87346 0.36374 0.0
C708 C 0.83438 0.87633 0.34342 0.0
C709 C 0.84095 0.84982 0.34245 0.0
C710 C 0.84948 0.89379 0.35815 0.0
C711 C 0.87151 0.88512 0.37207 0.0
C712 C 0.87773 0.85861 0.37169 0.0
H713 H 0.99052 0.93572 0.47622 0.0
H714 H 0.95775 0.91382 0.44905 0.0
C715 C 0.86272 0.84116 0.35696 0.0
C716 C 0.88816 0.90364 0.387 0.0
H717 H 0.95139 0.9239 0.39396 0.0
C718 C 0.87716 0.91769 0.40788 0.0
C719 C 0.91506 0.90665 0.38135 0.0
C720 C 0.92768 0.89353 0.35811 0.0
C721 C 0.89273 0.93353 0.4242 0.0
C722 C 0.91987 0.93537 0.41934 0.0
C723 C 0.93059 0.92222 0.39778 0.0
C724 C 0.93802 0.94911 0.43739 0.0
C725 C 0.88035 0.94727 0.44716 0.0
C726 C 0.93771 0.97626 0.43995 0.0
C727 C 0.95653 0.98886 0.45554 0.0
C728 C 0.97579 0.97443 0.46875 0.0
C729 C 0.97581 0.94729 0.46632 0.0
C730 C 0.9571 0.93477 0.45085 0.0
H731 H 0.85983 0.94091 0.45046 0.0
H732 H 0.89179 0.94377 0.46544 0.0
H733 H 0.88037 0.96848 0.44334 0.0
H734 H 0.9235 0.98771 0.42927 0.0
H735 H 0.95661 0.00985 0.45649 0.0
H736 H 0.32005 0.72584 0.63103 0.0
H737 H 0.33709 0.6871 0.60931 0.0
H738 H 0.3873 0.67254 0.67603 0.0
H739 H 0.37066 0.71128 0.69771 0.0
H740 H 0.38863 0.68239 0.59593 0.0
H741 H 0.35969 0.59992 0.65957 0.0
H742 H 0.34417 0.63131 0.6614 0.0
H743 H 0.37485 0.6257 0.67786 0.0
C744 C 0.33448 0.7142 0.64124 0.0
C745 C 0.34408 0.72178 0.66608 0.0
C746 C 0.34406 0.69198 0.62886 0.0
C747 C 0.36324 0.67673 0.64116 0.0
C748 C 0.37203 0.68361 0.66642 0.0
H749 H 0.48715 0.57547 0.6069 0.0
H750 H 0.45122 0.60044 0.62573 0.0
C751 C 0.3625 0.70584 0.6788 0.0
C752 C 0.37658 0.6558 0.62638 0.0
H753 H 0.3965 0.59273 0.63087 0.0
C754 C 0.38991 0.66262 0.60323 0.0
C755 C 0.37823 0.63005 0.63597 0.0
C756 C 0.36325 0.62122 0.65993 0.0
C757 C 0.40616 0.64489 0.59032 0.0
C758 C 0.40875 0.61944 0.60057 0.0
C759 C 0.39449 0.61224 0.62305 0.0
C760 C 0.42832 0.60115 0.58985 0.0
C761 C 0.42163 0.65405 0.56674 0.0
C762 C 0.42703 0.59267 0.56361 0.0
C763 C 0.44775 0.5787 0.55272 0.0
C764 C 0.46976 0.57249 0.56806 0.0
C765 C 0.47039 0.57996 0.59464 0.0
C766 C 0.44982 0.59407 0.60546 0.0
H767 H 0.42109 0.6755 0.56441 0.0
H768 H 0.44235 0.64794 0.56839 0.0
H769 H 0.4133 0.64526 0.54862 0.0
H770 H 0.4105 0.59771 0.55129 0.0
H771 H 0.44709 0.57385 0.532 0.0
H772 H 0.00236 0.94517 0.83081 0.0
H773 H 0.01747 0.95673 0.7864 0.0
H774 H 0.93923 0.94574 0.75645 0.0
H775 H 0.92395 0.93511 0.80086 0.0
H776 H 0.01756 0.93459 0.73687 0.0
H777 H 0.95348 0.02097 0.73886 0.0
H778 H 0.95926 0.00122 0.76763 0.0
H779 H 0.93557 0.99129 0.74332 0.0
C780 C 0.98852 0.94488 0.81462 0.0
C781 C 0.96193 0.93963 0.81924 0.0
C782 C 0.99716 0.95146 0.7893 0.0
C783 C 0.97936 0.95268 0.76822 0.0
C784 C 0.95317 0.9456 0.77254 0.0
H785 H 0.00627 0.97603 0.60073 0.0
H786 H 0.00366 0.95647 0.64479 0.0
C787 C 0.94446 0.93946 0.79786 0.0
C788 C 0.98755 0.96329 0.74226 0.0
H789 H 0.97286 0.01083 0.69786 0.0
C790 C 0.00794 0.95135 0.72834 0.0
C791 C 0.97542 0.98555 0.73143 0.0
C792 C 0.95493 1.00067 0.7462 0.0
C793 C 0.016 0.9607 0.70352 0.0
C794 C 0.00289 0.98218 0.69219 0.0
C795 C 0.98287 0.99429 0.70641 0.0
C796 C 0.00916 0.99276 0.66564 0.0
C797 C 0.0387 0.94781 0.68997 0.0
C798 C 0.01335 0.01957 0.66258 0.0
C799 C 0.01411 0.03075 0.63755 0.0
C800 C 0.01124 0.01529 0.61502 0.0
C801 C 0.00875 0.98827 0.61787 0.0
C802 C 0.00746 0.97709 0.64304 0.0
H803 H 0.0516 0.93772 0.70433 0.0
H804 H 0.03113 0.93305 0.67598 0.0
H805 H 0.0506 0.96209 0.67872 0.0
H806 H 0.01479 0.03207 0.67966 0.0
H807 H 0.01613 0.05163 0.6358 0.0
H808 H 0.60587 0.08856 0.30648 0.0
H809 H 0.58177 0.07487 0.26753 0.0
H810 H 0.52176 0.13102 0.28417 0.0
H811 H 0.54618 0.14518 0.32334 0.0
H812 H 0.53314 0.05511 0.25934 0.0
H813 H 0.54346 0.15143 0.21019 0.0
H814 H 0.56096 0.14345 0.23999 0.0
H815 H 0.52671 0.15087 0.24125 0.0
C816 C 0.5873 0.0977 0.30223 0.0
C817 C 0.57796 0.11799 0.31801 0.0
C818 C 0.57357 0.08991 0.27984 0.0
C819 C 0.55015 0.10217 0.27268 0.0
C820 C 0.54008 0.12168 0.28899 0.0
H821 H 0.48909 0.02734 0.12836 0.0
H822 H 0.48528 0.04895 0.17131 0.0
C823 C 0.55399 0.12967 0.3114 0.0
C824 C 0.53747 0.09498 0.24738 0.0
H825 H 0.52726 0.11718 0.18474 0.0
C826 C 0.53135 0.06874 0.24311 0.0
C827 C 0.53516 0.11286 0.22627 0.0
C828 C 0.54205 0.14121 0.22944 0.0
C829 C 0.52493 0.05949 0.21792 0.0
C830 C 0.52386 0.07717 0.19653 0.0
C831 C 0.52805 0.10372 0.2012 0.0
C832 C 0.52303 0.06801 0.16885 0.0
C833 C 0.52141 0.03061 0.21414 0.0
C834 C 0.54473 0.07276 0.15263 0.0
C835 C 0.54651 0.06107 0.12797 0.0
C836 C 0.52655 0.0446 0.11902 0.0
C837 C 0.5043 0.04065 0.13462 0.0
C838 C 0.50234 0.05262 0.15928 0.0
H839 H 0.52721 0.01935 0.2319 0.0
H840 H 0.50055 0.02632 0.20995 0.0
H841 H 0.53316 0.02373 0.1972 0.0
H842 H 0.56096 0.08446 0.15961 0.0
H843 H 0.56399 0.06405 0.11632 0.0
H844 H 0.49573 0.58789 0.20479 0.0
H845 H 0.51101 0.57845 0.24947 0.0
H846 H 0.43771 0.60522 0.28082 0.0
H847 H 0.42183 0.61372 0.23619 0.0
H848 H 0.51706 0.6094 0.29426 0.0
H849 H 0.44327 0.53149 0.31002 0.0
H850 H 0.44969 0.54532 0.27799 0.0
H851 H 0.42973 0.56243 0.30122 0.0
C852 C 0.48277 0.59162 0.22116 0.0
C853 C 0.45742 0.60128 0.21684 0.0
C854 C 0.49164 0.58644 0.2467 0.0
C855 C 0.47536 0.59077 0.26841 0.0
C856 C 0.45044 0.60134 0.26429 0.0
H857 H 0.51367 0.57726 0.43606 0.0
H858 H 0.50767 0.59582 0.39177 0.0
C859 C 0.4415 0.60644 0.23876 0.0
C860 C 0.48411 0.58327 0.29522 0.0
H861 H 0.46997 0.54245 0.34634 0.0
C862 C 0.50676 0.59482 0.30572 0.0
C863 C 0.47082 0.56398 0.30995 0.0
C864 C 0.44717 0.54988 0.29919 0.0
C865 C 0.51641 0.58759 0.33063 0.0
C866 C 0.50293 0.56859 0.34547 0.0
C867 C 0.48024 0.55714 0.33497 0.0
C868 C 0.5123 0.5592 0.37149 0.0
C869 C 0.54136 0.59965 0.34059 0.0
C870 C 0.5179 0.53276 0.37467 0.0
C871 C 0.52115 0.52222 0.39977 0.0
C872 C 0.519 0.53793 0.42222 0.0
C873 C 0.51573 0.56482 0.41903 0.0
C874 C 0.51224 0.5754 0.39375 0.0
H875 H 0.55175 0.61078 0.32501 0.0
H876 H 0.53677 0.61307 0.35696 0.0
H877 H 0.55455 0.58434 0.3483 0.0
H878 H 0.51815 0.51994 0.35778 0.0
H879 H 0.52364 0.50142 0.40172 0.0
H880 H 0.07236 0.45393 0.73239 0.0
H881 H 0.04645 0.46539 0.77106 0.0
H882 H 0.05187 0.38666 0.79948 0.0
H883 H 0.07875 0.37527 0.76169 0.0
H884 H 0.99933 0.44604 0.79537 0.0
H885 H 0.08813 0.42984 0.85687 0.0
H886 H 0.08945 0.43151 0.82142 0.0
H887 H 0.07748 0.40268 0.83743 0.0
C888 C 0.06797 0.439 0.74679 0.0
C889 C 0.07804 0.41377 0.74404 0.0
C890 C 0.05291 0.44553 0.76874 0.0
C891 C 0.0476 0.42696 0.78831 0.0
C892 C 0.05604 0.40136 0.78476 0.0
H893 H 0.00764 0.46611 0.95042 0.0
H894 H 0.00853 0.43907 0.91076 0.0
C895 C 0.07124 0.39484 0.76294 0.0
C896 C 0.03575 0.43511 0.81357 0.0
H897 H 0.05089 0.44507 0.87826 0.0
C898 C 0.01044 0.44556 0.81359 0.0
C899 C 0.05026 0.43436 0.83734 0.0
C900 C 0.0779 0.4242 0.8384 0.0
C901 C 0.99954 0.45593 0.83667 0.0
C902 C 0.01455 0.45621 0.8601 0.0
C903 C 0.03934 0.44466 0.86031 0.0
C904 C 0.00694 0.47146 0.88356 0.0
C905 C 0.97227 0.46686 0.83573 0.0
C906 C 0.0049 0.49854 0.8814 0.0
C907 C 0.0044 0.51394 0.90396 0.0
C908 C 0.00586 0.50256 0.92909 0.0
C909 C 0.00609 0.47537 0.9313 0.0
C910 C 0.00667 0.45992 0.90867 0.0
H911 H 0.96043 0.45753 0.81997 0.0
H912 H 0.96211 0.46423 0.85487 0.0
H913 H 0.97337 0.48795 0.83134 0.0
H914 H 0.00568 0.50793 0.86231 0.0
H915 H 0.00436 0.53487 0.90173 0.0
H916 H 0.81137 0.99095 0.90981 0.0
H917 H 0.76804 0.0099 0.9168 0.0
H918 H 0.76923 0.9828 0.99732 0.0
H919 H 0.81279 0.96486 0.99066 0.0
H920 H 0.72377 0.98901 0.92712 0.0
H921 H 0.74511 0.05458 0.00971 0.0
H922 H 0.77079 0.03947 0.99097 0.0
H923 H 0.75587 0.02266 0.01837 0.0
C924 C 0.80238 0.98927 0.92904 0.0
C925 C 0.81546 0.9766 0.94976 0.0
C926 C 0.77769 1.00017 0.93305 0.0
C927 C 0.76554 0.99844 0.9578 0.0
C928 C 0.77851 0.98538 0.97835 0.0
H929 H 0.61351 0.97188 0.0031 0.0
H930 H 0.65575 0.97505 0.9813 0.0
C931 C 0.80332 0.97488 0.97447 0.0
C932 C 0.73853 0.00834 0.9618 0.0
H933 H 0.7001 0.03823 0.00735 0.0
C934 C 0.71873 1.00029 0.94437 0.0
C935 C 0.73177 0.02391 0.98369 0.0
C936 C 0.75213 0.03589 0.00151 0.0
C937 C 0.6923 0.0053 0.94961 0.0
C938 C 0.68542 0.01783 0.97335 0.0
C939 C 0.70527 0.02806 0.98944 0.0
C940 C 0.65831 0.01697 0.98371 0.0
C941 C 0.67196 0.99642 0.93001 0.0
C942 C 0.64574 0.03944 0.99288 0.0
C943 C 0.62151 0.03755 0.00565 0.0
C944 C 0.60969 0.01321 0.00948 0.0
C945 C 0.62211 0.99091 1.00002 0.0
C946 C 0.64613 0.99276 0.9873 0.0
H947 H 0.67976 0.99723 0.90962 0.0
H948 H 0.66661 0.97592 0.93422 0.0
H949 H 0.65404 0.00847 0.93101 0.0
H950 H 0.65502 0.05828 0.99088 0.0
H951 H 0.61274 0.05481 0.01378 0.0
H952 H 0.72956 0.04725 0.40448 0.0
H953 H 0.767 0.02104 0.41842 0.0
H954 H 0.78139 0.07399 0.48255 0.0
H955 H 0.74433 0.1002 0.46876 0.0
H956 H 0.81617 0.03864 0.41803 0.0
H957 H 0.79388 0.00543 0.51869 0.0
H958 H 0.76881 0.01697 0.49646 0.0
H959 H 0.78771 0.03954 0.51591 0.0
C960 C 0.74047 0.05305 0.42182 0.0
C961 C 0.73401 0.0759 0.43544 0.0
C962 C 0.76174 0.03795 0.42984 0.0
C963 C 0.7768 0.0453 0.45176 0.0
C964 C 0.76965 0.06745 0.46605 0.0
H965 H 0.92849 0.0701 0.48608 0.0
H966 H 0.88551 0.06327 0.46629 0.0
C967 C 0.74843 0.08252 0.45807 0.0
C968 C 0.80208 0.03244 0.45757 0.0
H969 H 0.84034 0.01367 0.50929 0.0
C970 C 0.82124 0.0324 0.43782 0.0
C971 C 0.80869 0.0237 0.48317 0.0
C972 C 0.78854 0.02113 0.50465 0.0
C973 C 0.84737 0.02663 0.4437 0.0
C974 C 0.85452 0.02112 0.47003 0.0
C975 C 0.83493 0.01831 0.48915 0.0
C976 C 0.88201 0.02324 0.47899 0.0
C977 C 0.86734 0.02808 0.42195 0.0
C978 C 0.89433 0.003 0.49281 0.0
C979 C 0.91915 0.00687 0.50397 0.0
C980 C 0.93152 0.03117 0.50183 0.0
C981 C 0.91935 0.05115 0.48769 0.0
C982 C 0.89491 0.04718 0.47626 0.0
H983 H 0.85858 0.02225 0.4028 0.0
H984 H 0.87432 0.04842 0.41994 0.0
H985 H 0.8844 0.0155 0.42614 0.0
H986 H 0.88449 0.98453 0.49552 0.0
H987 H 0.92819 0.99133 0.51512 0.0
H988 H 0.31448 0.53234 0.0975 0.0
H989 H 0.27044 0.51575 0.08749 0.0
H990 H 0.24053 0.59388 0.08936 0.0
H991 H 0.28444 0.61051 0.09867 0.0
H992 H 0.21987 0.51916 0.11034 0.0
H993 H 0.22557 0.56994 0.01416 0.0
H994 H 0.25362 0.56598 0.03535 0.0
H995 H 0.23046 0.59146 0.04147 0.0
C996 C 0.29837 0.54586 0.09617 0.0
C997 C 0.30283 0.57272 0.09842 0.0
C998 C 0.27328 0.53639 0.0905 0.0
C999 C 0.25236 0.55365 0.08719 0.0
C1000 C 0.25653 0.58029 0.09129 0.0
H1001 H 0.08632 0.53608 0.06834 0.0
H1002 H 0.13054 0.53546 0.08707 0.0
C1003 C 0.28157 0.58977 0.09659 0.0
C1004 C 0.22676 0.54439 0.07712 0.0
H1005 H 0.18376 0.55416 0.0268 0.0
C1006 C 0.21198 0.52656 0.09196 0.0
C1007 C 0.21683 0.55352 0.0528 0.0
C1008 C 0.23255 0.57105 0.03488 0.0
C1009 C 0.18696 0.5185 0.08356 0.0
C1010 C 0.17641 0.52902 0.06004 0.0
C1011 C 0.19169 0.54612 0.04489 0.0
C1012 C 0.14933 0.52372 0.05081 0.0
C1013 C 0.17224 0.49872 0.09981 0.0
C1014 C 0.14501 0.51695 0.02435 0.0
C1015 C 0.11997 0.51812 0.01353 0.0
C1016 C 0.09868 0.52544 0.02911 0.0
C1017 C 0.10252 0.5302 0.05605 0.0
C1018 C 0.12775 0.52961 0.06679 0.0
H1019 H 0.18583 0.48621 0.11124 0.0
H1020 H 0.15958 0.50895 0.1141 0.0
H1021 H 0.15966 0.48615 0.08729 0.0
H1022 H 0.16129 0.51229 0.01163 0.0
H1023 H 0.11737 0.5143 0.99271 0.0
H1024 H 0.23238 0.49536 0.6388 0.0
H1025 H 0.26807 0.52004 0.61778 0.0
H1026 H 0.2963 0.44934 0.58261 0.0
H1027 H 0.2602 0.42521 0.60231 0.0
H1028 H 0.31889 0.5193 0.62117 0.0
H1029 H 0.29412 0.49386 0.51917 0.0
H1030 H 0.27208 0.48716 0.54602 0.0
H1031 H 0.29741 0.46436 0.53752 0.0
C1032 C 0.24613 0.48531 0.6263 0.0
C1033 C 0.24335 0.45855 0.62167 0.0
C1034 C 0.26649 0.49935 0.61436 0.0
C1035 C 0.28446 0.48672 0.59792 0.0
C1036 C 0.28211 0.45978 0.59424 0.0
H1037 H 0.44359 0.50807 0.56627 0.0
H1038 H 0.40066 0.50891 0.58712 0.0
C1039 C 0.26158 0.44594 0.60564 0.0
C1040 C 0.30628 0.50107 0.58507 0.0
H1041 H 0.34027 0.50272 0.52757 0.0
C1042 C 0.32332 0.51618 0.60055 0.0
C1043 C 0.31161 0.49814 0.55791 0.0
C1044 C 0.29259 0.48527 0.53921 0.0
C1045 C 0.34665 0.52639 0.59007 0.0
C1046 C 0.35367 0.52025 0.56383 0.0
C1047 C 0.33548 0.50707 0.54787 0.0
C1048 C 0.38042 0.52474 0.55308 0.0
C1049 C 0.36345 0.54352 0.60731 0.0
C1050 C 0.3837 0.53326 0.52693 0.0
C1051 C 0.40804 0.53154 0.51467 0.0
C1052 C 0.42972 0.52219 0.52863 0.0
C1053 C 0.42707 0.51558 0.55528 0.0
C1054 C 0.40254 0.51642 0.56729 0.0
H1055 H 0.35111 0.55554 0.62045 0.0
H1056 H 0.37591 0.53119 0.62013 0.0
H1057 H 0.37617 0.55663 0.59553 0.0
H1058 H 0.36711 0.53989 0.51549 0.0
H1059 H 0.40979 0.53676 0.49406 0.0
H1060 H 0.97 0.82399 0.98686 0.0
H1061 H 0.97482 0.77893 0.00107 0.0
H1062 H 0.89437 0.76368 0.98059 0.0
H1063 H 0.88939 0.80887 0.96619 0.0
H1064 H 0.9486 0.74857 0.03876 0.0
H1065 H 0.93402 0.71013 0.93731 0.0
H1066 H 0.93944 0.74416 0.94366 0.0
H1067 H 0.90804 0.72976 0.95003 0.0
C1068 C 0.95321 0.81117 0.98567 0.0
C1069 C 0.92934 0.82001 0.97523 0.0
C1070 C 0.95601 0.78539 0.99377 0.0
C1071 C 0.93506 0.76785 0.9916 0.0
C1072 C 0.91094 0.77676 0.98198 0.0
H1073 H 0.95316 0.59847 0.01068 0.0
H1074 H 0.93088 0.64071 0.01205 0.0
C1075 C 0.90814 0.80256 0.97372 0.0
C1076 C 0.93914 0.74008 0.99829 0.0
H1077 H 0.94423 0.68004 0.97042 0.0
C1078 C 0.94731 0.73352 0.02391 0.0
C1079 C 0.93731 0.72041 0.97893 0.0
C1080 C 0.92942 0.72635 0.95088 0.0
C1081 C 0.95464 0.70801 0.03037 0.0
C1082 C 0.95402 0.68874 0.01066 0.0
C1083 C 0.94454 0.69493 0.98549 0.0
C1084 C 0.96662 0.66319 0.01444 0.0
C1085 C 0.96365 0.70186 0.05798 0.0
C1086 C 0.99397 0.66195 0.01567 0.0
C1087 C 0.00663 0.63805 0.01454 0.0
C1088 C 0.99215 0.61494 0.01253 0.0
C1089 C 0.96471 0.61605 0.01255 0.0
C1090 C 0.952 0.64009 0.01329 0.0
H1091 H 0.9572 0.71683 0.07225 0.0
H1092 H 0.9561 0.68261 0.06441 0.0
H1093 H 0.98532 0.70111 0.0584 0.0
H1094 H 0.00559 0.67959 0.01613 0.0
H1095 H 0.02781 0.63767 0.01441 0.0
H1096 H 0.40446 0.74435 0.10763 0.0
H1097 H 0.41158 0.78992 0.09656 0.0
H1098 H 0.45269 0.76744 0.02621 0.0
H1099 H 0.4442 0.72187 0.03622 0.0
H1100 H 0.45685 0.81276 0.09472 0.0
H1101 H 0.41026 0.82605 0.99744 0.0
H1102 H 0.40431 0.79769 0.01756 0.0
H1103 H 0.4328 0.79953 0.99682 0.0
C1104 C 0.41432 0.74903 0.08937 0.0
C1105 C 0.42381 0.7293 0.07288 0.0
C1106 C 0.41852 0.77516 0.08315 0.0
C1107 C 0.43238 0.78221 0.06036 0.0
C1108 C 0.44139 0.76261 0.04356 0.0
H1109 H 0.53622 0.90926 0.04361 0.0
H1110 H 0.51297 0.86782 0.04526 0.0
C1111 C 0.43694 0.73647 0.04961 0.0
C1112 C 0.44008 0.80973 0.05584 0.0
H1113 H 0.44388 0.85746 0.00905 0.0
C1114 C 0.45355 0.82263 0.07611 0.0
C1115 C 0.4356 0.82285 0.03168 0.0
C1116 C 0.41969 0.81087 0.00977 0.0
C1117 C 0.46369 0.84768 0.07249 0.0
C1118 C 0.46087 0.86 0.04773 0.0
C1119 C 0.44632 0.84777 0.02785 0.0
C1120 C 0.4745 0.88479 0.04203 0.0
C1121 C 0.47779 0.86058 0.09514 0.0
C1122 C 0.46057 0.90794 0.03817 0.0
C1123 C 0.47391 0.93179 0.03705 0.0
C1124 C 0.50126 0.93257 0.03967 0.0
C1125 C 0.51511 0.90919 0.04177 0.0
C1126 C 0.50187 0.88553 0.04273 0.0
H1127 H 0.47193 0.85206 0.11439 0.0
H1128 H 0.49915 0.85775 0.09284 0.0
H1129 H 0.47389 0.88176 0.09551 0.0
H1130 H 0.43941 0.9077 0.03743 0.0
H1131 H 0.46281 0.94959 0.03563 0.0
H1132 H 0.17902 0.28479 0.58584 0.0
H1133 H 0.16605 0.24661 0.56029 0.0
H1134 H 0.08496 0.26607 0.57106 0.0
H1135 H 0.09753 0.3036 0.59742 0.0
H1136 H 0.1324 0.20665 0.58309 0.0
H1137 H 0.09176 0.24785 0.49077 0.0
H1138 H 0.11479 0.26524 0.51136 0.0
H1139 H 0.08086 0.26359 0.52032 0.0
C1140 C 0.15841 0.28103 0.58276 0.0
C1141 C 0.13933 0.29726 0.59393 0.0
C1142 C 0.15108 0.25934 0.56791 0.0
C1143 C 0.12459 0.25375 0.56353 0.0
C1144 C 0.10554 0.27038 0.57376 0.0
H1145 H 0.01313 0.14254 0.52803 0.0
H1146 H 0.04145 0.18056 0.53049 0.0
C1147 C 0.1128 0.29189 0.58883 0.0
C1148 C 0.11653 0.22902 0.55109 0.0
H1149 H 0.07874 0.20433 0.50161 0.0
C1150 C 0.12116 0.20593 0.56495 0.0
C1151 C 0.10191 0.22833 0.52747 0.0
C1152 C 0.09718 0.25254 0.51143 0.0
C1153 C 0.1098 0.18237 0.55697 0.0
C1154 C 0.09403 0.18183 0.53397 0.0
C1155 C 0.09085 0.20472 0.51917 0.0
C1156 C 0.07751 0.15895 0.52745 0.0
C1157 C 0.11317 0.15882 0.57443 0.0
C1158 C 0.08828 0.13417 0.52372 0.0
C1159 C 0.07203 0.11222 0.52285 0.0
C1160 C 0.04478 0.11487 0.52496 0.0
C1161 C 0.03407 0.13988 0.52649 0.0
C1162 C 0.05025 0.16166 0.52774 0.0
H1163 H 0.12178 0.16386 0.59388 0.0
H1164 H 0.09412 0.14897 0.57781 0.0
H1165 H 0.12645 0.14486 0.5647 0.0
H1166 H 0.10926 0.13167 0.52282 0.0
H1167 H 0.08086 0.09318 0.52196 0.0
H1168 H 0.66868 0.25526 0.48154 0.0
H1169 H 0.65443 0.29544 0.50257 0.0
H1170 H 0.57452 0.27771 0.48224 0.0
H1171 H 0.58852 0.23818 0.46016 0.0
H1172 H 0.62464 0.33362 0.46995 0.0
H1173 H 0.57371 0.3041 0.56175 0.0
H1174 H 0.59881 0.28459 0.54658 0.0
H1175 H 0.56636 0.28493 0.53306 0.0
C1176 C 0.64803 0.25977 0.48165 0.0
C1177 C 0.62981 0.24354 0.4688 0.0
C1178 C 0.63994 0.28262 0.49394 0.0
C1179 C 0.61344 0.28938 0.49412 0.0
C1180 C 0.59503 0.27257 0.48269 0.0
H1181 H 0.50576 0.40969 0.51055 0.0
H1182 H 0.53128 0.36983 0.5123 0.0
C1183 C 0.60311 0.2499 0.47011 0.0
C1184 C 0.60526 0.3155 0.50275 0.0
H1185 H 0.56494 0.34674 0.54552 0.0
C1186 C 0.61201 0.33671 0.48678 0.0
C1187 C 0.58876 0.31924 0.52462 0.0
C1188 C 0.58157 0.29708 0.54269 0.0
C1189 C 0.60123 0.36133 0.49098 0.0
C1190 C 0.58385 0.36498 0.51235 0.0
C1191 C 0.57828 0.34398 0.5292 0.0
C1192 C 0.56874 0.38933 0.51535 0.0
C1193 C 0.60711 0.38262 0.47132 0.0
C1194 C 0.5812 0.41362 0.51734 0.0
C1195 C 0.56662 0.43651 0.51578 0.0
C1196 C 0.5393 0.43544 0.51302 0.0
C1197 C 0.5268 0.41111 0.51267 0.0
C1198 C 0.54136 0.38831 0.51384 0.0
H1199 H 0.61616 0.37498 0.45307 0.0
H1200 H 0.58904 0.3932 0.46578 0.0
H1201 H 0.62101 0.39669 0.48022 0.0
H1202 H 0.60226 0.41491 0.51903 0.0
H1203 H 0.57682 0.45497 0.51568 0.0
loop_
_geom_bond_atom_site_label_1
_geom_bond_atom_site_label_2
_geom_bond_distance
_geom_bond_site_symmetry_2
_ccdc_geom_bond_type
P0 O11 1.490 . S
P0 C14 1.812 . S
P0 C20 1.803 . S
P0 C26 1.819 . S
H1 C15 0.941 . S
H2 C16 0.939 . S
H3 C18 0.940 . S
H4 C19 0.940 . S
H5 C21 0.939 . S
H6 C22 0.942 . S
H7 C24 0.940 . S
H8 C25 0.939 . S
H9 C27 0.941 . S
H10 C31 0.939 . S
O11 P0 1.490 . S
H12 C28 0.939 . S
H13 C30 0.940 . S
C14 P0 1.812 . S
C14 C15 1.389 . S
C14 C19 1.391 . S
C15 H1 0.941 . S
C15 C14 1.389 . S
C15 C16 1.397 . S
C16 H2 0.939 . S
C16 C15 1.397 . S
C16 C17 1.378 . S
C17 C16 1.378 . S
C17 C18 1.378 . S
C18 H3 0.940 . S
C18 C17 1.378 . S
C18 C19 1.396 . S
C19 H4 0.940 . S
C19 C14 1.391 . S
C19 C18 1.396 . S
C20 P0 1.803 . S
C20 C21 1.378 . S
C20 C25 1.400 . S
C21 H5 0.939 . S
C21 C20 1.378 . S
C21 C22 1.361 . S
C22 H6 0.942 . S
C22 C21 1.361 . S
C22 C23 1.369 . S
C23 C22 1.369 . S
C23 C24 1.404 . S
C24 H7 0.940 . S
C24 C23 1.404 . S
C24 C25 1.389 . S
C25 H8 0.939 . S
C25 C20 1.400 . S
C25 C24 1.389 . S
C26 P0 1.819 . S
C26 C27 1.391 . S
C26 C31 1.391 . S
C27 H9 0.941 . S
C27 C26 1.391 . S
C27 C28 1.396 . S
C28 H12 0.939 . S
C28 C27 1.396 . S
C28 C29 1.397 . S
C29 C28 1.397 . S
C29 C30 1.385 . S
C30 H13 0.940 . S
C30 C29 1.385 . S
C30 C31 1.388 . S
C31 H10 0.939 . S
C31 C26 1.391 . S
C31 C30 1.388 . S
P32 O43 1.490 . S
P32 C46 1.812 . S
P32 C52 1.803 . S
P32 C58 1.819 . S
H33 C47 0.941 . S
H34 C48 0.939 . S
H35 C50 0.940 . S
H36 C51 0.940 . S
H37 C53 0.939 . S
H38 C54 0.942 . S
H39 C56 0.940 . S
H40 C57 0.939 . S
H41 C59 0.941 . S
H42 C63 0.939 . S
O43 P32 1.490 . S
H44 C60 0.939 . S
H45 C62 0.940 . S
C46 P32 1.812 . S
C46 C47 1.389 . S
C46 C51 1.391 . S
C47 H33 0.941 . S
C47 C46 1.389 . S
C47 C48 1.397 . S
C48 H34 0.939 . S
C48 C47 1.397 . S
C48 C49 1.378 . S
C49 C48 1.378 . S
C49 C50 1.378 . S
C50 H35 0.940 . S
C50 C49 1.378 . S
C50 C51 1.396 . S
C51 H36 0.940 . S
C51 C46 1.391 . S
C51 C50 1.396 . S
C52 P32 1.803 . S
C52 C53 1.378 . S
C52 C57 1.400 . S
C53 H37 0.939 . S
C53 C52 1.378 . S
C53 C54 1.361 . S
C54 H38 0.942 . S
C54 C53 1.361 . S
C54 C55 1.369 . S
C55 C54 1.369 . S
C55 C56 1.404 . S
C56 H39 0.940 . S
C56 C55 1.404 . S
C56 C57 1.389 . S
C57 H40 0.939 . S
C57 C52 1.400 . S
C57 C56 1.389 . S
C58 P32 1.819 . S
C58 C59 1.391 . S
C58 C63 1.391 . S
C59 H41 0.941 . S
C59 C58 1.391 . S
C59 C60 1.396 . S
C60 H44 0.939 . S
C60 C59 1.396 . S
C60 C61 1.397 . S
C61 C60 1.397 . S
C61 C62 1.385 . S
C62 H45 0.940 . S
C62 C61 1.385 . S
C62 C63 1.388 . S
C63 H42 0.939 . S
C63 C58 1.391 . S
C63 C62 1.388 . S
P64 O75 1.490 . S
P64 C78 1.812 . S
P64 C84 1.803 . S
P64 C90 1.819 . S
H65 C79 0.941 . S
H66 C80 0.939 . S
H67 C82 0.940 . S
H68 C83 0.940 . S
H69 C85 0.939 . S
H70 C86 0.942 . S
H71 C88 0.940 . S
H72 C89 0.939 . S
H73 C91 0.941 . S
H74 C95 0.939 . S
O75 P64 1.490 . S
H76 C92 0.939 . S
H77 C94 0.940 . S
C78 P64 1.812 . S
C78 C79 1.389 . S
C78 C83 1.391 . S
C79 H65 0.941 . S
C79 C78 1.389 . S
C79 C80 1.397 . S
C80 H66 0.939 . S
C80 C79 1.397 . S
C80 C81 1.378 . S
C81 C80 1.378 . S
C81 C82 1.378 . S
C82 H67 0.940 . S
C82 C81 1.378 . S
C82 C83 1.396 . S
C83 H68 0.940 . S
C83 C78 1.391 . S
C83 C82 1.396 . S
C84 P64 1.803 . S
C84 C85 1.378 . S
C84 C89 1.400 . S
C85 H69 0.939 . S
C85 C84 1.378 . S
C85 C86 1.361 . S
C86 H70 0.942 . S
C86 C85 1.361 . S
C86 C87 1.369 . S
C87 C86 1.369 . S
C87 C88 1.404 . S
C88 H71 0.940 . S
C88 C87 1.404 . S
C88 C89 1.389 . S
C89 H72 0.939 . S
C89 C84 1.400 . S
C89 C88 1.389 . S
C90 P64 1.819 . S
C90 C91 1.391 . S
C90 C95 1.391 . S
C91 H73 0.941 . S
C91 C90 1.391 . S
C91 C92 1.396 . S
C92 H76 0.939 . S
C92 C91 1.396 . S
C92 C93 1.397 . S
C93 C92 1.397 . S
C93 C94 1.385 . S
C94 H77 0.940 . S
C94 C93 1.385 . S
C94 C95 1.388 . S
C95 H74 0.939 . S
C95 C90 1.391 . S
C95 C94 1.388 . S
P96 O107 1.490 . S
P96 C110 1.812 . S
P96 C116 1.803 . S
P96 C122 1.819 . S
H97 C111 0.941 . S
H98 C112 0.939 . S
H99 C114 0.940 . S
H100 C115 0.940 . S
H101 C117 0.939 . S
H102 C118 0.942 . S
H103 C120 0.940 . S
H104 C121 0.939 . S
H105 C123 0.941 . S
H106 C127 0.939 . S
O107 P96 1.490 . S
H108 C124 0.939 . S
H109 C126 0.940 . S
C110 P96 1.812 . S
C110 C111 1.389 . S
C110 C115 1.391 . S
C111 H97 0.941 . S
C111 C110 1.389 . S
C111 C112 1.397 . S
C112 H98 0.939 . S
C112 C111 1.397 . S
C112 C113 1.378 . S
C113 C112 1.378 . S
C113 C114 1.378 . S
C114 H99 0.940 . S
C114 C113 1.378 . S
C114 C115 1.396 . S
C115 H100 0.940 . S
C115 C110 1.391 . S
C115 C114 1.396 . S
C116 P96 1.803 . S
C116 C117 1.378 . S
C116 C121 1.400 . S
C117 H101 0.939 . S
C117 C116 1.378 . S
C117 C118 1.361 . S
C118 H102 0.942 . S
C118 C117 1.361 . S
C118 C119 1.369 . S
C119 C118 1.369 . S
C119 C120 1.404 . S
C120 H103 0.940 . S
C120 C119 1.404 . S
C120 C121 1.389 . S
C121 H104 0.939 . S
C121 C116 1.400 . S
C121 C120 1.389 . S
C122 P96 1.819 . S
C122 C123 1.391 . S
C122 C127 1.391 . S
C123 H105 0.941 . S
C123 C122 1.391 . S
C123 C124 1.396 . S
C124 H108 0.939 . S
C124 C123 1.396 . S
C124 C125 1.397 . S
C125 C124 1.397 . S
C125 C126 1.385 . S
C126 H109 0.940 . S
C126 C125 1.385 . S
C126 C127 1.388 . S
C127 H106 0.939 . S
C127 C122 1.391 . S
C127 C126 1.388 . S
P128 O139 1.490 . S
P128 C142 1.812 . S
P128 C148 1.803 . S
P128 C154 1.819 . S
H129 C143 0.941 1_554 S
H130 C144 0.939 1_554 S
H131 C146 0.940 . S
H132 C147 0.940 . S
H133 C149 0.939 . S
H134 C150 0.942 1_455 S
H135 C152 0.940 . S
H136 C153 0.939 . S
H137 C155 0.941 . S
H138 C159 0.939 . S
O139 P128 1.490 . S
H140 C156 0.939 1_545 S
H141 C158 0.940 . S
C142 P128 1.812 . S
C142 C143 1.389 . S
C142 C147 1.391 . S
C143 H129 0.941 1_556 S
C143 C142 1.389 . S
C143 C144 1.397 . S
C144 H130 0.939 1_556 S
C144 C143 1.397 . S
C144 C145 1.378 . S
C145 C144 1.378 . S
C145 C146 1.378 . S
C146 H131 0.940 . S
C146 C145 1.378 . S
C146 C147 1.396 . S
C147 H132 0.940 . S
C147 C142 1.391 . S
C147 C146 1.396 . S
C148 P128 1.803 . S
C148 C149 1.378 . S
C148 C153 1.400 . S
C149 H133 0.939 . S
C149 C148 1.378 . S
C149 C150 1.361 . S
C150 H134 0.942 1_655 S
C150 C149 1.361 . S
C150 C151 1.369 . S
C151 C150 1.369 . S
C151 C152 1.404 . S
C152 H135 0.940 . S
C152 C151 1.404 . S
C152 C153 1.389 . S
C153 H136 0.939 . S
C153 C148 1.400 . S
C153 C152 1.389 . S
C154 P128 1.819 . S
C154 C155 1.391 . S
C154 C159 1.391 . S
C155 H137 0.941 . S
C155 C154 1.391 . S
C155 C156 1.396 . S
C156 H140 0.939 1_565 S
C156 C155 1.396 . S
C156 C157 1.397 . S
C157 C156 1.397 . S
C157 C158 1.385 . S
C158 H141 0.940 . S
C158 C157 1.385 . S
C158 C159 1.388 . S
C159 H138 0.939 . S
C159 C154 1.391 . S
C159 C158 1.388 . S
P160 O171 1.490 . S
P160 C174 1.812 . S
P160 C180 1.803 . S
P160 C186 1.819 . S
H161 C175 0.941 . S
H162 C176 0.939 . S
H163 C178 0.940 . S
H164 C179 0.940 . S
H165 C181 0.939 . S
H166 C182 0.942 . S
H167 C184 0.940 . S
H168 C185 0.939 . S
H169 C187 0.941 . S
H170 C191 0.939 . S
O171 P160 1.490 . S
H172 C188 0.939 . S
H173 C190 0.940 . S
C174 P160 1.812 . S
C174 C175 1.389 . S
C174 C179 1.391 . S
C175 H161 0.941 . S
C175 C174 1.389 . S
C175 C176 1.397 . S
C176 H162 0.939 . S
C176 C175 1.397 . S
C176 C177 1.378 . S
C177 C176 1.378 . S
C177 C178 1.378 . S
C178 H163 0.940 . S
C178 C177 1.378 . S
C178 C179 1.396 . S
C179 H164 0.940 . S
C179 C174 1.391 . S
C179 C178 1.396 . S
C180 P160 1.803 . S
C180 C181 1.378 . S
C180 C185 1.400 . S
C181 H165 0.939 . S
C181 C180 1.378 . S
C181 C182 1.361 . S
C182 H166 0.942 . S
C182 C181 1.361 . S
C182 C183 1.369 . S
C183 C182 1.369 . S
C183 C184 1.404 . S
C184 H167 0.940 . S
C184 C183 1.404 . S
C184 C185 1.389 . S
C185 H168 0.939 . S
C185 C180 1.400 . S
C185 C184 1.389 . S
C186 P160 1.819 . S
C186 C187 1.391 . S
C186 C191 1.391 . S
C187 H169 0.941 . S
C187 C186 1.391 . S
C187 C188 1.396 . S
C188 H172 0.939 . S
C188 C187 1.396 . S
C188 C189 1.397 . S
C189 C188 1.397 . S
C189 C190 1.385 . S
C190 H173 0.940 . S
C190 C189 1.385 . S
C190 C191 1.388 . S
C191 H170 0.939 . S
C191 C186 1.391 . S
C191 C190 1.388 . S
P192 O203 1.490 . S
P192 C206 1.812 . S
P192 C212 1.803 . S
P192 C218 1.819 . S
H193 C207 0.941 . S
H194 C208 0.939 . S
H195 C210 0.940 . S
H196 C211 0.940 . S
H197 C213 0.939 . S
H198 C214 0.942 . S
H199 C216 0.940 . S
H200 C217 0.939 . S
H201 C219 0.941 . S
H202 C223 0.939 . S
O203 P192 1.490 . S
H204 C220 0.939 . S
H205 C222 0.940 . S
C206 P192 1.812 . S
C206 C207 1.389 . S
C206 C211 1.391 . S
C207 H193 0.941 . S
C207 C206 1.389 . S
C207 C208 1.397 . S
C208 H194 0.939 . S
C208 C207 1.397 . S
C208 C209 1.378 . S
C209 C208 1.378 . S
C209 C210 1.378 . S
C210 H195 0.940 . S
C210 C209 1.378 . S
C210 C211 1.396 . S
C211 H196 0.940 . S
C211 C206 1.391 . S
C211 C210 1.396 . S
C212 P192 1.803 . S
C212 C213 1.378 . S
C212 C217 1.400 . S
C213 H197 0.939 . S
C213 C212 1.378 . S
C213 C214 1.361 . S
C214 H198 0.942 . S
C214 C213 1.361 . S
C214 C215 1.369 . S
C215 C214 1.369 . S
C215 C216 1.404 . S
C216 H199 0.940 . S
C216 C215 1.404 . S
C216 C217 1.389 . S
C217 H200 0.939 . S
C217 C212 1.400 . S
C217 C216 1.389 . S
C218 P192 1.819 . S
C218 C219 1.391 . S
C218 C223 1.391 . S
C219 H201 0.941 . S
C219 C218 1.391 . S
C219 C220 1.396 . S
C220 H204 0.939 . S
C220 C219 1.396 . S
C220 C221 1.397 . S
C221 C220 1.397 . S
C221 C222 1.385 . S
C222 H205 0.940 . S
C222 C221 1.385 . S
C222 C223 1.388 . S
C223 H202 0.939 . S
C223 C218 1.391 . S
C223 C222 1.388 . S
P224 O235 1.490 . S
P224 C238 1.812 . S
P224 C244 1.803 . S
P224 C250 1.819 . S
H225 C239 0.941 . S
H226 C240 0.939 . S
H227 C242 0.940 . S
H228 C243 0.940 . S
H229 C245 0.939 . S
H230 C246 0.942 . S
H231 C248 0.940 . S
H232 C249 0.939 . S
H233 C251 0.941 . S
H234 C255 0.939 . S
O235 P224 1.490 . S
H236 C252 0.939 . S
H237 C254 0.940 . S
C238 P224 1.812 . S
C238 C239 1.389 . S
C238 C243 1.391 . S
C239 H225 0.941 . S
C239 C238 1.389 . S
C239 C240 1.397 . S
C240 H226 0.939 . S
C240 C239 1.397 . S
C240 C241 1.378 . S
C241 C240 1.378 . S
C241 C242 1.378 . S
C242 H227 0.940 . S
C242 C241 1.378 . S
C242 C243 1.396 . S
C243 H228 0.940 . S
C243 C238 1.391 . S
C243 C242 1.396 . S
C244 P224 1.803 . S
C244 C245 1.378 . S
C244 C249 1.400 . S
C245 H229 0.939 . S
C245 C244 1.378 . S
C245 C246 1.361 . S
C246 H230 0.942 . S
C246 C245 1.361 . S
C246 C247 1.369 . S
C247 C246 1.369 . S
C247 C248 1.404 . S
C248 H231 0.940 . S
C248 C247 1.404 . S
C248 C249 1.389 . S
C249 H232 0.939 . S
C249 C244 1.400 . S
C249 C248 1.389 . S
C250 P224 1.819 . S
C250 C251 1.391 . S
C250 C255 1.391 . S
C251 H233 0.941 . S
C251 C250 1.391 . S
C251 C252 1.396 . S
C252 H236 0.939 . S
C252 C251 1.396 . S
C252 C253 1.397 . S
C253 C252 1.397 . S
C253 C254 1.385 . S
C254 H237 0.940 . S
C254 C253 1.385 . S
C254 C255 1.388 . S
C255 H234 0.939 . S
C255 C250 1.391 . S
C255 C254 1.388 . S
Zn256 O262 1.920 . S
Zn256 O268 1.898 . S
Zn256 O271 1.905 . S
Zn257 O265 1.905 1_565 S
Zn257 O266 1.898 . S
Zn257 O274 1.920 . S
Zn258 O261 2.080 1_455 S
Zn258 O264 2.114 . S
Zn258 O267 2.120 1_445 S
Zn258 O269 2.120 . S
Zn258 O270 2.114 1_455 S
Zn258 O273 2.080 . S
C259 O264 1.166 . S
C259 O265 1.182 . S
C260 O266 1.167 1_655 S
C260 O267 1.299 . S
O261 Zn258 2.080 1_655 S
O261 C275 1.305 . S
O262 Zn256 1.920 . S
O262 C275 1.234 . S
C263 O268 1.167 1_455 S
C263 O269 1.299 . S
O264 Zn258 2.114 . S
O264 C259 1.166 . S
O265 Zn257 1.905 1_545 S
O265 C259 1.182 . S
O266 Zn257 1.898 . S
O266 C260 1.167 1_455 S
O267 Zn258 2.120 1_665 S
O267 C260 1.299 . S
O268 Zn256 1.898 . S
O268 C263 1.167 1_655 S
O269 Zn258 2.120 . S
O269 C263 1.299 . S
O270 Zn258 2.114 1_655 S
O270 C272 1.166 . S
O271 Zn256 1.905 . S
O271 C272 1.182 . S
C272 O270 1.166 . S
C272 O271 1.182 . S
O273 Zn258 2.080 . S
O273 C276 1.305 . S
O274 Zn257 1.920 . S
O274 C276 1.234 1_565 S
C275 O261 1.305 . S
C275 O262 1.234 . S
C276 O273 1.305 . S
C276 O274 1.234 1_545 S
Zn277 O283 1.920 1_556 S
Zn277 O289 1.898 . S
Zn277 O292 1.905 . S
Zn278 O286 1.905 . S
Zn278 O287 1.898 . S
Zn278 O295 1.920 . S
Zn279 O282 2.080 . S
Zn279 O285 2.114 1_545 S
Zn279 O288 2.120 1_545 S
Zn279 O290 2.120 . S
Zn279 O291 2.114 1_554 S
Zn279 O294 2.080 . S
C280 O285 1.166 . S
C280 O286 1.182 . S
C281 O287 1.167 . S
C281 O288 1.299 . S
O282 Zn279 2.080 . S
O282 C296 1.305 . S
O283 Zn277 1.920 1_554 S
O283 C296 1.234 . S
C284 O289 1.177 . S
C284 O290 1.284 1_556 S
O285 Zn279 2.114 1_565 S
O285 C280 1.166 . S
O286 Zn278 1.905 . S
O286 C280 1.182 . S
O287 Zn278 1.898 . S
O287 C281 1.167 . S
O288 Zn279 2.120 1_565 S
O288 C281 1.299 . S
O289 Zn277 1.898 . S
O289 C284 1.177 . S
O290 Zn279 2.120 . S
O290 C284 1.284 1_554 S
O291 Zn279 2.114 1_556 S
O291 C293 1.166 . S
O292 Zn277 1.905 . S
O292 C293 1.182 . S
C293 O291 1.166 . S
C293 O292 1.182 . S
O294 Zn279 2.080 . S
O294 C297 1.305 . S
O295 Zn278 1.920 . S
O295 C297 1.234 1_565 S
C296 O282 1.305 . S
C296 O283 1.234 . S
C297 O294 1.305 . S
C297 O295 1.234 1_545 S
Zn298 O304 1.920 . S
Zn298 O310 1.898 . S
Zn298 O313 1.905 . S
Zn299 O307 1.905 . S
Zn299 O308 1.898 . S
Zn299 O316 1.920 . S
Zn300 O303 2.080 . S
Zn300 O306 2.114 . S
Zn300 O309 2.120 . S
Zn300 O311 2.120 . S
Zn300 O312 2.114 . S
Zn300 O315 2.080 . S
C301 O306 1.166 . S
C301 O307 1.182 . S
C302 O308 1.167 . S
C302 O309 1.299 . S
O303 Zn300 2.080 . S
O303 C317 1.305 . S
O304 Zn298 1.920 . S
O304 C317 1.234 . S
C305 O310 1.167 . S
C305 O311 1.299 . S
O306 Zn300 2.114 . S
O306 C301 1.166 . S
O307 Zn299 1.905 . S
O307 C301 1.182 . S
O308 Zn299 1.898 . S
O308 C302 1.167 . S
O309 Zn300 2.120 . S
O309 C302 1.299 . S
O310 Zn298 1.898 . S
O310 C305 1.167 . S
O311 Zn300 2.120 . S
O311 C305 1.299 . S
O312 Zn300 2.114 . S
O312 C314 1.166 . S
O313 Zn298 1.905 . S
O313 C314 1.182 . S
C314 O312 1.166 . S
C314 O313 1.182 . S
O315 Zn300 2.080 . S
O315 C318 1.305 . S
O316 Zn299 1.920 . S
O316 C318 1.234 . S
C317 O303 1.305 . S
C317 O304 1.234 . S
C318 O315 1.305 . S
C318 O316 1.234 . S
Zn319 O325 1.920 . S
Zn319 O331 1.898 . S
Zn319 O334 1.905 . S
Zn320 O328 1.905 1_655 S
Zn320 O329 1.898 . S
Zn320 O337 1.920 . S
Zn321 O324 2.080 1_554 S
Zn321 O327 2.114 . S
Zn321 O330 2.120 1_454 S
Zn321 O332 2.120 . S
Zn321 O333 2.114 1_554 S
Zn321 O336 2.080 . S
C322 O327 1.166 . S
C322 O328 1.182 . S
C323 O329 1.167 1_556 S
C323 O330 1.299 . S
O324 Zn321 2.080 1_556 S
O324 C338 1.305 . S
O325 Zn319 1.920 . S
O325 C338 1.234 . S
C326 O331 1.167 1_554 S
C326 O332 1.299 . S
O327 Zn321 2.114 . S
O327 C322 1.166 . S
O328 Zn320 1.905 1_455 S
O328 C322 1.182 . S
O329 Zn320 1.898 . S
O329 C323 1.167 1_554 S
O330 Zn321 2.120 1_656 S
O330 C323 1.299 . S
O331 Zn319 1.898 . S
O331 C326 1.167 1_556 S
O332 Zn321 2.120 . S
O332 C326 1.299 . S
O333 Zn321 2.114 1_556 S
O333 C335 1.166 . S
O334 Zn319 1.905 . S
O334 C335 1.182 . S
C335 O333 1.166 . S
C335 O334 1.182 . S
O336 Zn321 2.080 . S
O336 C339 1.305 1_455 S
O337 Zn320 1.920 . S
O337 C339 1.234 . S
C338 O324 1.305 . S
C338 O325 1.234 . S
C339 O336 1.305 1_655 S
C339 O337 1.234 . S
H340 C348 0.929 . S
H341 C350 0.930 . S
H342 C352 0.930 . S
H343 C355 0.929 . S
H344 C358 0.930 . S
H345 C360 0.960 . S
H346 C360 0.960 . S
H347 C360 0.960 . S
C348 H340 0.929 . S
C348 C349 1.377 . S
C348 C350 1.384 . S
C349 C348 1.377 . S
C349 C355 1.390 . S
C350 H341 0.930 . S
C350 C348 1.384 . S
C350 C351 1.372 . S
C351 C350 1.372 . S
C351 C352 1.400 . S
C351 C356 1.490 . S
C352 H342 0.930 . S
C352 C351 1.400 . S
C352 C355 1.386 . S
H353 C369 0.930 . S
H354 C370 0.931 . S
C355 H343 0.929 . S
C355 C349 1.390 . S
C355 C352 1.386 . S
C356 C351 1.490 . S
C356 C358 1.395 . S
C356 C359 1.403 . S
H357 C363 0.930 . S
C358 H344 0.930 . S
C358 C356 1.395 . S
C358 C361 1.403 . S
C359 C356 1.403 . S
C359 C360 1.524 . S
C359 C363 1.400 . S
C360 H345 0.960 . S
C360 H346 0.960 . S
C360 H347 0.960 . S
C360 C359 1.524 . S
C361 C358 1.403 . S
C361 C362 1.392 . S
C361 C365 1.495 . S
C362 C361 1.392 . S
C362 C363 1.385 . S
C362 C364 1.478 . S
C363 H357 0.930 . S
C363 C359 1.400 . S
C363 C362 1.385 . S
C364 C362 1.478 . S
C364 C366 1.381 . S
C364 C370 1.383 . S
C365 C361 1.495 . S
C365 H371 0.959 . S
C365 H372 0.961 . S
C365 H373 0.960 . S
C366 C364 1.381 . S
C366 C367 1.394 . S
C366 H374 0.930 . S
C367 C366 1.394 . S
C367 C368 1.383 . S
C367 H375 0.929 . S
C368 C367 1.383 . S
C368 C369 1.377 . S
C369 H353 0.930 . S
C369 C368 1.377 . S
C369 C370 1.379 . S
C370 H354 0.931 . S
C370 C364 1.383 . S
C370 C369 1.379 . S
H371 C365 0.959 . S
H372 C365 0.961 . S
H373 C365 0.960 . S
H374 C366 0.930 . S
H375 C367 0.929 . S
H376 C384 0.929 . S
H377 C386 0.930 . S
H378 C388 0.930 . S
H379 C391 0.929 . S
H380 C394 0.930 . S
H381 C396 0.960 . S
H382 C396 0.960 . S
H383 C396 0.960 . S
C384 H376 0.929 . S
C384 C385 1.377 . S
C384 C386 1.384 . S
C385 C384 1.377 . S
C385 C391 1.390 . S
C386 H377 0.930 . S
C386 C384 1.384 . S
C386 C387 1.372 . S
C387 C386 1.372 . S
C387 C388 1.400 . S
C387 C392 1.490 . S
C388 H378 0.930 . S
C388 C387 1.400 . S
C388 C391 1.386 . S
H389 C405 0.930 . S
H390 C406 0.931 . S
C391 H379 0.929 . S
C391 C385 1.390 . S
C391 C388 1.386 . S
C392 C387 1.490 . S
C392 C394 1.395 . S
C392 C395 1.403 . S
H393 C399 0.930 . S
C394 H380 0.930 . S
C394 C392 1.395 . S
C394 C397 1.403 . S
C395 C392 1.403 . S
C395 C396 1.524 . S
C395 C399 1.400 . S
C396 H381 0.960 . S
C396 H382 0.960 . S
C396 H383 0.960 . S
C396 C395 1.524 . S
C397 C394 1.403 . S
C397 C398 1.392 . S
C397 C401 1.495 . S
C398 C397 1.392 . S
C398 C399 1.385 . S
C398 C400 1.478 . S
C399 H393 0.930 . S
C399 C395 1.400 . S
C399 C398 1.385 . S
C400 C398 1.478 . S
C400 C402 1.381 . S
C400 C406 1.383 . S
C401 C397 1.495 . S
C401 H407 0.959 . S
C401 H408 0.961 . S
C401 H409 0.960 . S
C402 C400 1.381 . S
C402 C403 1.394 . S
C402 H410 0.930 . S
C403 C402 1.394 . S
C403 C404 1.383 . S
C403 H411 0.929 . S
C404 C403 1.383 . S
C404 C405 1.377 . S
C405 H389 0.930 . S
C405 C404 1.377 . S
C405 C406 1.379 . S
C406 H390 0.931 . S
C406 C400 1.383 . S
C406 C405 1.379 . S
H407 C401 0.959 . S
H408 C401 0.961 . S
H409 C401 0.960 . S
H410 C402 0.930 . S
H411 C403 0.929 . S
H412 C420 0.929 . S
H413 C422 0.930 . S
H414 C424 0.930 . S
H415 C427 0.929 . S
H416 C430 0.930 . S
H417 C432 0.960 . S
H418 C432 0.960 . S
H419 C432 0.960 . S
C420 H412 0.929 . S
C420 C421 1.377 . S
C420 C422 1.384 . S
C421 C420 1.377 . S
C421 C427 1.390 . S
C422 H413 0.930 . S
C422 C420 1.384 . S
C422 C423 1.372 . S
C423 C422 1.372 . S
C423 C424 1.400 . S
C423 C428 1.490 . S
C424 H414 0.930 . S
C424 C423 1.400 . S
C424 C427 1.386 . S
H425 C441 0.930 . S
H426 C442 0.931 . S
C427 H415 0.929 . S
C427 C421 1.390 . S
C427 C424 1.386 . S
C428 C423 1.490 . S
C428 C430 1.395 . S
C428 C431 1.403 . S
H429 C435 0.930 . S
C430 H416 0.930 . S
C430 C428 1.395 . S
C430 C433 1.403 . S
C431 C428 1.403 . S
C431 C432 1.524 . S
C431 C435 1.400 . S
C432 H417 0.960 . S
C432 H418 0.960 . S
C432 H419 0.960 . S
C432 C431 1.524 . S
C433 C430 1.403 . S
C433 C434 1.392 . S
C433 C437 1.495 . S
C434 C433 1.392 . S
C434 C435 1.385 . S
C434 C436 1.478 . S
C435 H429 0.930 . S
C435 C431 1.400 . S
C435 C434 1.385 . S
C436 C434 1.478 . S
C436 C438 1.381 . S
C436 C442 1.383 . S
C437 C433 1.495 . S
C437 H443 0.959 . S
C437 H444 0.961 . S
C437 H445 0.960 . S
C438 C436 1.381 . S
C438 C439 1.394 . S
C438 H446 0.930 . S
C439 C438 1.394 . S
C439 C440 1.383 . S
C439 H447 0.929 . S
C440 C439 1.383 . S
C440 C441 1.377 . S
C441 H425 0.930 . S
C441 C440 1.377 . S
C441 C442 1.379 . S
C442 H426 0.931 . S
C442 C436 1.383 . S
C442 C441 1.379 . S
H443 C437 0.959 . S
H444 C437 0.961 . S
H445 C437 0.960 . S
H446 C438 0.930 . S
H447 C439 0.929 . S
H448 C456 0.929 . S
H449 C458 0.930 . S
H450 C460 0.930 . S
H451 C463 0.929 . S
H452 C466 0.930 . S
H453 C468 0.960 . S
H454 C468 0.960 . S
H455 C468 0.960 . S
C456 H448 0.929 . S
C456 C457 1.377 . S
C456 C458 1.384 . S
C457 C456 1.377 . S
C457 C463 1.390 . S
C458 H449 0.930 . S
C458 C456 1.384 . S
C458 C459 1.372 . S
C459 C458 1.372 . S
C459 C460 1.400 . S
C459 C464 1.490 . S
C460 H450 0.930 . S
C460 C459 1.400 . S
C460 C463 1.386 . S
H461 C477 0.930 . S
H462 C478 0.931 . S
C463 H451 0.929 . S
C463 C457 1.390 . S
C463 C460 1.386 . S
C464 C459 1.490 . S
C464 C466 1.395 . S
C464 C467 1.403 . S
H465 C471 0.930 . S
C466 H452 0.930 . S
C466 C464 1.395 . S
C466 C469 1.403 . S
C467 C464 1.403 . S
C467 C468 1.524 . S
C467 C471 1.400 . S
C468 H453 0.960 . S
C468 H454 0.960 . S
C468 H455 0.960 . S
C468 C467 1.524 . S
C469 C466 1.403 . S
C469 C470 1.392 . S
C469 C473 1.495 . S
C470 C469 1.392 . S
C470 C471 1.385 . S
C470 C472 1.478 . S
C471 H465 0.930 . S
C471 C467 1.400 . S
C471 C470 1.385 . S
C472 C470 1.478 . S
C472 C474 1.381 . S
C472 C478 1.383 . S
C473 C469 1.495 . S
C473 H479 0.959 . S
C473 H480 0.961 . S
C473 H481 0.960 1_655 S
C474 C472 1.381 . S
C474 C475 1.394 1_655 S
C474 H482 0.930 1_655 S
C475 C474 1.394 1_455 S
C475 C476 1.383 1_455 S
C475 H483 0.929 . S
C476 C475 1.383 1_655 S
C476 C477 1.377 . S
C477 H461 0.930 . S
C477 C476 1.377 . S
C477 C478 1.379 . S
C478 H462 0.931 . S
C478 C472 1.383 . S
C478 C477 1.379 . S
H479 C473 0.959 . S
H480 C473 0.961 . S
H481 C473 0.960 1_455 S
H482 C474 0.930 1_455 S
H483 C475 0.929 . S
H484 C492 0.929 . S
H485 C494 0.930 . S
H486 C496 0.930 . S
H487 C499 0.929 . S
H488 C502 0.930 . S
H489 C504 0.960 . S
H490 C504 0.960 . S
H491 C504 0.960 . S
C492 H484 0.929 . S
C492 C493 1.377 . S
C492 C494 1.384 . S
C493 C492 1.377 . S
C493 C499 1.390 . S
C494 H485 0.930 . S
C494 C492 1.384 . S
C494 C495 1.372 . S
C495 C494 1.372 . S
C495 C496 1.400 . S
C495 C500 1.490 . S
C496 H486 0.930 . S
C496 C495 1.400 . S
C496 C499 1.386 . S
H497 C513 0.930 . S
H498 C514 0.931 . S
C499 H487 0.929 . S
C499 C493 1.390 . S
C499 C496 1.386 . S
C500 C495 1.490 . S
C500 C502 1.395 . S
C500 C503 1.403 . S
H501 C507 0.930 . S
C502 H488 0.930 . S
C502 C500 1.395 . S
C502 C505 1.403 . S
C503 C500 1.403 . S
C503 C504 1.524 . S
C503 C507 1.400 . S
C504 H489 0.960 . S
C504 H490 0.960 . S
C504 H491 0.960 . S
C504 C503 1.524 . S
C505 C502 1.403 . S
C505 C506 1.392 . S
C505 C509 1.495 . S
C506 C505 1.392 . S
C506 C507 1.385 . S
C506 C508 1.478 . S
C507 H501 0.930 . S
C507 C503 1.400 . S
C507 C506 1.385 . S
C508 C506 1.478 . S
C508 C510 1.381 . S
C508 C514 1.383 . S
C509 C505 1.495 . S
C509 H515 0.959 . S
C509 H516 0.961 . S
C509 H517 0.960 . S
C510 C508 1.381 . S
C510 C511 1.394 . S
C510 H518 0.930 . S
C511 C510 1.394 . S
C511 C512 1.383 . S
C511 H519 0.929 . S
C512 C511 1.383 . S
C512 C513 1.377 . S
C513 H497 0.930 . S
C513 C512 1.377 . S
C513 C514 1.379 . S
C514 H498 0.931 . S
C514 C508 1.383 . S
C514 C513 1.379 . S
H515 C509 0.959 . S
H516 C509 0.961 . S
H517 C509 0.960 . S
H518 C510 0.930 . S
H519 C511 0.929 . S
H520 C528 0.929 . S
H521 C530 0.930 . S
H522 C532 0.930 . S
H523 C535 0.929 . S
H524 C538 0.930 . S
H525 C540 0.960 . S
H526 C540 0.960 . S
H527 C540 0.960 . S
C528 H520 0.929 . S
C528 C529 1.377 . S
C528 C530 1.384 . S
C529 C528 1.377 . S
C529 C535 1.390 . S
C530 H521 0.930 . S
C530 C528 1.384 . S
C530 C531 1.372 . S
C531 C530 1.372 . S
C531 C532 1.400 . S
C531 C536 1.490 . S
C532 H522 0.930 . S
C532 C531 1.400 . S
C532 C535 1.386 . S
H533 C549 0.930 . S
H534 C550 0.931 . S
C535 H523 0.929 . S
C535 C529 1.390 . S
C535 C532 1.386 . S
C536 C531 1.490 . S
C536 C538 1.395 . S
C536 C539 1.403 . S
H537 C543 0.930 . S
C538 H524 0.930 . S
C538 C536 1.395 . S
C538 C541 1.403 . S
C539 C536 1.403 . S
C539 C540 1.524 . S
C539 C543 1.400 . S
C540 H525 0.960 . S
C540 H526 0.960 . S
C540 H527 0.960 . S
C540 C539 1.524 . S
C541 C538 1.403 . S
C541 C542 1.392 . S
C541 C545 1.495 1_565 S
C542 C541 1.392 . S
C542 C543 1.385 . S
C542 C544 1.478 . S
C543 H537 0.930 . S
C543 C539 1.400 . S
C543 C542 1.385 . S
C544 C542 1.478 . S
C544 C546 1.381 . S
C544 C550 1.383 . S
C545 C541 1.495 1_545 S
C545 H551 0.959 . S
C545 H552 0.961 . S
C545 H553 0.960 . S
C546 C544 1.381 . S
C546 C547 1.394 1_565 S
C546 H554 0.930 1_565 S
C547 C546 1.394 1_545 S
C547 C548 1.383 1_545 S
C547 H555 0.929 . S
C548 C547 1.383 1_565 S
C548 C549 1.377 . S
C549 H533 0.930 . S
C549 C548 1.377 . S
C549 C550 1.379 . S
C550 H534 0.931 . S
C550 C544 1.383 . S
C550 C549 1.379 . S
H551 C545 0.959 . S
H552 C545 0.961 . S
H553 C545 0.960 . S
H554 C546 0.930 1_545 S
H555 C547 0.929 . S
H556 C564 0.929 . S
H557 C566 0.930 . S
H558 C568 0.930 . S
H559 C571 0.929 . S
H560 C574 0.930 . S
H561 C576 0.960 . S
H562 C576 0.960 . S
H563 C576 0.960 . S
C564 H556 0.929 . S
C564 C565 1.377 . S
C564 C566 1.384 . S
C565 C564 1.377 . S
C565 C571 1.390 . S
C566 H557 0.930 . S
C566 C564 1.384 . S
C566 C567 1.372 . S
C567 C566 1.372 . S
C567 C568 1.400 . S
C567 C572 1.490 . S
C568 H558 0.930 . S
C568 C567 1.400 . S
C568 C571 1.386 . S
H569 C585 0.930 . S
H570 C586 0.931 . S
C571 H559 0.929 . S
C571 C565 1.390 . S
C571 C568 1.386 . S
C572 C567 1.490 . S
C572 C574 1.395 . S
C572 C575 1.403 . S
H573 C579 0.930 . S
C574 H560 0.930 . S
C574 C572 1.395 . S
C574 C577 1.403 . S
C575 C572 1.403 . S
C575 C576 1.524 . S
C575 C579 1.400 . S
C576 H561 0.960 . S
C576 H562 0.960 . S
C576 H563 0.960 . S
C576 C575 1.524 . S
C577 C574 1.403 . S
C577 C578 1.392 . S
C577 C581 1.495 . S
C578 C577 1.392 . S
C578 C579 1.385 . S
C578 C580 1.478 . S
C579 H573 0.930 . S
C579 C575 1.400 . S
C579 C578 1.385 . S
C580 C578 1.478 . S
C580 C582 1.381 . S
C580 C586 1.383 . S
C581 C577 1.495 . S
C581 H587 0.959 . S
C581 H588 0.961 . S
C581 H589 0.960 . S
C582 C580 1.381 . S
C582 C583 1.394 . S
C582 H590 0.930 . S
C583 C582 1.394 . S
C583 C584 1.383 . S
C583 H591 0.929 1_556 S
C584 C583 1.383 . S
C584 C585 1.377 . S
C585 H569 0.930 . S
C585 C584 1.377 . S
C585 C586 1.379 . S
C586 H570 0.931 . S
C586 C580 1.383 . S
C586 C585 1.379 . S
H587 C581 0.959 . S
H588 C581 0.961 . S
H589 C581 0.960 . S
H590 C582 0.930 . S
H591 C583 0.929 1_554 S
H592 C600 0.929 . S
H593 C602 0.930 . S
H594 C604 0.930 . S
H595 C607 0.929 . S
H596 C610 0.930 . S
H597 C612 0.960 . S
H598 C612 0.960 . S
H599 C612 0.960 . S
C600 H592 0.929 . S
C600 C601 1.377 . S
C600 C602 1.384 . S
C601 C600 1.377 . S
C601 C607 1.390 . S
C602 H593 0.930 . S
C602 C600 1.384 . S
C602 C603 1.372 . S
C603 C602 1.372 . S
C603 C604 1.400 . S
C603 C608 1.490 . S
C604 H594 0.930 . S
C604 C603 1.400 . S
C604 C607 1.386 . S
H605 C621 0.930 . S
H606 C622 0.931 . S
C607 H595 0.929 . S
C607 C601 1.390 . S
C607 C604 1.386 . S
C608 C603 1.490 . S
C608 C610 1.395 . S
C608 C611 1.403 . S
H609 C615 0.930 . S
C610 H596 0.930 . S
C610 C608 1.395 . S
C610 C613 1.403 . S
C611 C608 1.403 . S
C611 C612 1.524 . S
C611 C615 1.400 . S
C612 H597 0.960 . S
C612 H598 0.960 . S
C612 H599 0.960 . S
C612 C611 1.524 . S
C613 C610 1.403 . S
C613 C614 1.392 . S
C613 C617 1.495 . S
C614 C613 1.392 . S
C614 C615 1.385 . S
C614 C616 1.478 . S
C615 H609 0.930 . S
C615 C611 1.400 . S
C615 C614 1.385 . S
C616 C614 1.478 . S
C616 C618 1.381 . S
C616 C622 1.383 . S
C617 C613 1.495 . S
C617 H623 0.959 . S
C617 H624 0.961 . S
C617 H625 0.960 . S
C618 C616 1.381 . S
C618 C619 1.394 . S
C618 H626 0.930 . S
C619 C618 1.394 . S
C619 C620 1.383 . S
C619 H627 0.929 . S
C620 C619 1.383 . S
C620 C621 1.377 . S
C621 H605 0.930 . S
C621 C620 1.377 . S
C621 C622 1.379 . S
C622 H606 0.931 . S
C622 C616 1.383 . S
C622 C621 1.379 . S
H623 C617 0.959 . S
H624 C617 0.961 . S
H625 C617 0.960 . S
H626 C618 0.930 . S
H627 C619 0.929 . S
H628 C636 0.929 . S
H629 C638 0.930 . S
H630 C640 0.930 . S
H631 C643 0.929 . S
H632 C646 0.930 . S
H633 C648 0.960 . S
H634 C648 0.960 . S
H635 C648 0.960 . S
C636 H628 0.929 . S
C636 C637 1.377 . S
C636 C638 1.384 . S
C637 C636 1.377 . S
C637 C643 1.390 . S
C638 H629 0.930 . S
C638 C636 1.384 . S
C638 C639 1.372 . S
C639 C638 1.372 . S
C639 C640 1.400 . S
C639 C644 1.490 . S
C640 H630 0.930 . S
C640 C639 1.400 . S
C640 C643 1.386 . S
H641 C657 0.930 . S
H642 C658 0.931 . S
C643 H631 0.929 . S
C643 C637 1.390 . S
C643 C640 1.386 . S
C644 C639 1.490 . S
C644 C646 1.395 . S
C644 C647 1.403 . S
H645 C651 0.930 . S
C646 H632 0.930 . S
C646 C644 1.395 . S
C646 C649 1.403 . S
C647 C644 1.403 . S
C647 C648 1.524 . S
C647 C651 1.400 . S
C648 H633 0.960 . S
C648 H634 0.960 . S
C648 H635 0.960 . S
C648 C647 1.524 . S
C649 C646 1.403 . S
C649 C650 1.392 . S
C649 C653 1.495 . S
C650 C649 1.392 . S
C650 C651 1.385 . S
C650 C652 1.478 . S
C651 H645 0.930 . S
C651 C647 1.400 . S
C651 C650 1.385 . S
C652 C650 1.478 . S
C652 C654 1.381 . S
C652 C658 1.383 . S
C653 C649 1.495 . S
C653 H659 0.959 . S
C653 H660 0.961 . S
C653 H661 0.960 . S
C654 C652 1.381 . S
C654 C655 1.394 . S
C654 H662 0.930 . S
C655 C654 1.394 . S
C655 C656 1.383 . S
C655 H663 0.929 . S
C656 C655 1.383 . S
C656 C657 1.377 . S
C657 H641 0.930 . S
C657 C656 1.377 . S
C657 C658 1.379 . S
C658 H642 0.931 . S
C658 C652 1.383 . S
C658 C657 1.379 . S
H659 C653 0.959 . S
H660 C653 0.961 . S
H661 C653 0.960 . S
H662 C654 0.930 . S
H663 C655 0.929 . S
H664 C672 0.929 . S
H665 C674 0.930 . S
H666 C676 0.930 . S
H667 C679 0.929 . S
H668 C682 0.930 . S
H669 C684 0.960 . S
H670 C684 0.960 . S
H671 C684 0.960 . S
C672 H664 0.929 . S
C672 C673 1.377 . S
C672 C674 1.384 . S
C673 C672 1.377 . S
C673 C679 1.390 . S
C674 H665 0.930 . S
C674 C672 1.384 . S
C674 C675 1.372 . S
C675 C674 1.372 . S
C675 C676 1.400 . S
C675 C680 1.490 . S
C676 H666 0.930 . S
C676 C675 1.400 . S
C676 C679 1.386 . S
H677 C693 0.930 . S
H678 C694 0.931 1_554 S
C679 H667 0.929 . S
C679 C673 1.390 . S
C679 C676 1.386 . S
C680 C675 1.490 . S
C680 C682 1.395 . S
C680 C683 1.403 . S
H681 C687 0.930 . S
C682 H668 0.930 . S
C682 C680 1.395 . S
C682 C685 1.403 . S
C683 C680 1.403 . S
C683 C684 1.524 . S
C683 C687 1.400 . S
C684 H669 0.960 . S
C684 H670 0.960 . S
C684 H671 0.960 . S
C684 C683 1.524 . S
C685 C682 1.403 . S
C685 C686 1.392 . S
C685 C689 1.495 . S
C686 C685 1.392 . S
C686 C687 1.385 . S
C686 C688 1.478 . S
C687 H681 0.930 . S
C687 C683 1.400 . S
C687 C686 1.385 . S
C688 C686 1.478 . S
C688 C690 1.381 . S
C688 C694 1.383 . S
C689 C685 1.495 . S
C689 H695 0.959 . S
C689 H696 0.961 . S
C689 H697 0.960 . S
C690 C688 1.381 . S
C690 C691 1.394 . S
C690 H698 0.930 . S
C691 C690 1.394 . S
C691 C692 1.383 . S
C691 H699 0.929 . S
C692 C691 1.383 . S
C692 C693 1.377 1_556 S
C693 H677 0.930 . S
C693 C692 1.377 1_554 S
C693 C694 1.379 1_554 S
C694 H678 0.931 1_556 S
C694 C688 1.383 . S
C694 C693 1.379 1_556 S
H695 C689 0.959 . S
H696 C689 0.961 . S
H697 C689 0.960 . S
H698 C690 0.930 . S
H699 C691 0.929 . S
H700 C708 0.929 . S
H701 C710 0.930 . S
H702 C712 0.930 . S
H703 C715 0.929 . S
H704 C718 0.930 . S
H705 C720 0.960 . S
H706 C720 0.960 . S
H707 C720 0.960 . S
C708 H700 0.929 . S
C708 C709 1.377 . S
C708 C710 1.384 . S
C709 C708 1.377 . S
C709 C715 1.390 . S
C710 H701 0.930 . S
C710 C708 1.384 . S
C710 C711 1.372 . S
C711 C710 1.372 . S
C711 C712 1.400 . S
C711 C716 1.490 . S
C712 H702 0.930 . S
C712 C711 1.400 . S
C712 C715 1.386 . S
H713 C729 0.930 . S
H714 C730 0.931 . S
C715 H703 0.929 . S
C715 C709 1.390 . S
C715 C712 1.386 . S
C716 C711 1.490 . S
C716 C718 1.395 . S
C716 C719 1.403 . S
H717 C723 0.930 . S
C718 H704 0.930 . S
C718 C716 1.395 . S
C718 C721 1.403 . S
C719 C716 1.403 . S
C719 C720 1.524 . S
C719 C723 1.400 . S
C720 H705 0.960 . S
C720 H706 0.960 . S
C720 H707 0.960 . S
C720 C719 1.524 . S
C721 C718 1.403 . S
C721 C722 1.392 . S
C721 C725 1.495 . S
C722 C721 1.392 . S
C722 C723 1.385 . S
C722 C724 1.478 . S
C723 H717 0.930 . S
C723 C719 1.400 . S
C723 C722 1.385 . S
C724 C722 1.478 . S
C724 C726 1.381 . S
C724 C730 1.383 . S
C725 C721 1.495 . S
C725 H731 0.959 . S
C725 H732 0.961 . S
C725 H733 0.960 . S
C726 C724 1.381 . S
C726 C727 1.394 . S
C726 H734 0.930 . S
C727 C726 1.394 . S
C727 C728 1.383 . S
C727 H735 0.929 . S
C728 C727 1.383 . S
C728 C729 1.377 . S
C729 H713 0.930 . S
C729 C728 1.377 . S
C729 C730 1.379 . S
C730 H714 0.931 . S
C730 C724 1.383 . S
C730 C729 1.379 . S
H731 C725 0.959 . S
H732 C725 0.961 . S
H733 C725 0.960 . S
H734 C726 0.930 . S
H735 C727 0.929 . S
H736 C744 0.929 . S
H737 C746 0.930 . S
H738 C748 0.930 . S
H739 C751 0.929 . S
H740 C754 0.930 . S
H741 C756 0.960 . S
H742 C756 0.960 . S
H743 C756 0.960 . S
C744 H736 0.929 . S
C744 C745 1.377 . S
C744 C746 1.384 . S
C745 C744 1.377 . S
C745 C751 1.390 . S
C746 H737 0.930 . S
C746 C744 1.384 . S
C746 C747 1.372 . S
C747 C746 1.372 . S
C747 C748 1.400 . S
C747 C752 1.490 . S
C748 H738 0.930 . S
C748 C747 1.400 . S
C748 C751 1.386 . S
H749 C765 0.930 . S
H750 C766 0.931 . S
C751 H739 0.929 . S
C751 C745 1.390 . S
C751 C748 1.386 . S
C752 C747 1.490 . S
C752 C754 1.395 . S
C752 C755 1.403 . S
H753 C759 0.930 . S
C754 H740 0.930 . S
C754 C752 1.395 . S
C754 C757 1.403 . S
C755 C752 1.403 . S
C755 C756 1.524 . S
C755 C759 1.400 . S
C756 H741 0.960 . S
C756 H742 0.960 . S
C756 H743 0.960 . S
C756 C755 1.524 . S
C757 C754 1.403 . S
C757 C758 1.392 . S
C757 C761 1.495 . S
C758 C757 1.392 . S
C758 C759 1.385 . S
C758 C760 1.478 . S
C759 H753 0.930 . S
C759 C755 1.400 . S
C759 C758 1.385 . S
C760 C758 1.478 . S
C760 C762 1.381 . S
C760 C766 1.383 . S
C761 C757 1.495 . S
C761 H767 0.959 . S
C761 H768 0.961 . S
C761 H769 0.960 . S
C762 C760 1.381 . S
C762 C763 1.394 . S
C762 H770 0.930 . S
C763 C762 1.394 . S
C763 C764 1.383 . S
C763 H771 0.929 . S
C764 C763 1.383 . S
C764 C765 1.377 . S
C765 H749 0.930 . S
C765 C764 1.377 . S
C765 C766 1.379 . S
C766 H750 0.931 . S
C766 C760 1.383 . S
C766 C765 1.379 . S
H767 C761 0.959 . S
H768 C761 0.961 . S
H769 C761 0.960 . S
H770 C762 0.930 . S
H771 C763 0.929 . S
H772 C780 0.929 1_455 S
H773 C782 0.930 1_455 S
H774 C784 0.930 . S
H775 C787 0.929 . S
H776 C790 0.930 . S
H777 C792 0.960 . S
H778 C792 0.960 . S
H779 C792 0.960 . S
C780 H772 0.929 1_655 S
C780 C781 1.377 . S
C780 C782 1.384 . S
C781 C780 1.377 . S
C781 C787 1.390 . S
C782 H773 0.930 1_655 S
C782 C780 1.384 . S
C782 C783 1.372 . S
C783 C782 1.372 . S
C783 C784 1.400 . S
C783 C788 1.490 . S
C784 H774 0.930 . S
C784 C783 1.400 . S
C784 C787 1.386 . S
H785 C801 0.930 . S
H786 C802 0.931 . S
C787 H775 0.929 . S
C787 C781 1.390 . S
C787 C784 1.386 . S
C788 C783 1.490 . S
C788 C790 1.395 . S
C788 C791 1.403 1_565 S
H789 C795 0.930 . S
C790 H776 0.930 . S
C790 C788 1.395 . S
C790 C793 1.403 . S
C791 C788 1.403 1_545 S
C791 C792 1.524 . S
C791 C795 1.400 . S
C792 H777 0.960 . S
C792 H778 0.960 . S
C792 H779 0.960 . S
C792 C791 1.524 . S
C793 C790 1.403 . S
C793 C794 1.405 . S
C793 C797 1.495 1_655 S
C794 C793 1.405 . S
C794 C795 1.374 1_565 S
C794 C796 1.475 1_565 S
C795 H789 0.930 . S
C795 C791 1.400 . S
C795 C794 1.374 1_545 S
C796 C794 1.475 1_545 S
C796 C798 1.381 1_655 S
C796 C802 1.383 . S
C797 C793 1.495 1_455 S
C797 H803 0.959 . S
C797 H804 0.961 1_455 S
C797 H805 0.960 . S
C798 C796 1.381 1_455 S
C798 C799 1.394 . S
C798 H806 0.930 . S
C799 C798 1.394 . S
C799 C800 1.383 1_455 S
C799 H807 0.929 . S
C800 C799 1.383 1_655 S
C800 C801 1.377 . S
C801 H785 0.930 . S
C801 C800 1.377 . S
C801 C802 1.379 . S
C802 H786 0.931 . S
C802 C796 1.383 . S
C802 C801 1.379 . S
H803 C797 0.959 . S
H804 C797 0.961 1_655 S
H805 C797 0.960 . S
H806 C798 0.930 . S
H807 C799 0.929 . S
H808 C816 0.929 . S
H809 C818 0.930 . S
H810 C820 0.930 . S
H811 C823 0.929 . S
H812 C826 0.930 . S
H813 C828 0.960 . S
H814 C828 0.960 . S
H815 C828 0.960 . S
C816 H808 0.929 . S
C816 C817 1.377 . S
C816 C818 1.384 . S
C817 C816 1.377 . S
C817 C823 1.390 . S
C818 H809 0.930 . S
C818 C816 1.384 . S
C818 C819 1.372 . S
C819 C818 1.372 . S
C819 C820 1.400 . S
C819 C824 1.490 . S
C820 H810 0.930 . S
C820 C819 1.400 . S
C820 C823 1.386 . S
H821 C837 0.930 . S
H822 C838 0.931 . S
C823 H811 0.929 . S
C823 C817 1.390 . S
C823 C820 1.386 . S
C824 C819 1.490 . S
C824 C826 1.395 . S
C824 C827 1.403 . S
H825 C831 0.930 . S
C826 H812 0.930 . S
C826 C824 1.395 . S
C826 C829 1.403 . S
C827 C824 1.403 . S
C827 C828 1.524 . S
C827 C831 1.400 . S
C828 H813 0.960 . S
C828 H814 0.960 . S
C828 H815 0.960 . S
C828 C827 1.524 . S
C829 C826 1.403 . S
C829 C830 1.392 . S
C829 C833 1.495 . S
C830 C829 1.392 . S
C830 C831 1.385 . S
C830 C832 1.478 . S
C831 H825 0.930 . S
C831 C827 1.400 . S
C831 C830 1.385 . S
C832 C830 1.478 . S
C832 C834 1.381 . S
C832 C838 1.383 . S
C833 C829 1.495 . S
C833 H839 0.959 1_545 S
C833 H840 0.961 1_545 S
C833 H841 0.960 . S
C834 C832 1.381 . S
C834 C835 1.394 . S
C834 H842 0.930 . S
C835 C834 1.394 . S
C835 C836 1.383 . S
C835 H843 0.929 . S
C836 C835 1.383 . S
C836 C837 1.377 . S
C837 H821 0.930 . S
C837 C836 1.377 . S
C837 C838 1.379 . S
C838 H822 0.931 . S
C838 C832 1.383 . S
C838 C837 1.379 . S
H839 C833 0.959 1_565 S
H840 C833 0.961 1_565 S
H841 C833 0.960 . S
H842 C834 0.930 . S
H843 C835 0.929 . S
H844 C852 0.929 . S
H845 C854 0.930 . S
H846 C856 0.930 . S
H847 C859 0.929 . S
H848 C862 0.930 . S
H849 C864 0.960 . S
H850 C864 0.960 . S
H851 C864 0.960 . S
C852 H844 0.929 . S
C852 C853 1.377 . S
C852 C854 1.384 . S
C853 C852 1.377 . S
C853 C859 1.390 . S
C854 H845 0.930 . S
C854 C852 1.384 . S
C854 C855 1.372 . S
C855 C854 1.372 . S
C855 C856 1.400 . S
C855 C860 1.490 . S
C856 H846 0.930 . S
C856 C855 1.400 . S
C856 C859 1.386 . S
H857 C873 0.930 . S
H858 C874 0.931 . S
C859 H847 0.929 . S
C859 C853 1.390 . S
C859 C856 1.386 . S
C860 C855 1.490 . S
C860 C862 1.395 . S
C860 C863 1.403 . S
H861 C867 0.930 . S
C862 H848 0.930 . S
C862 C860 1.395 . S
C862 C865 1.403 . S
C863 C860 1.403 . S
C863 C864 1.524 . S
C863 C867 1.400 . S
C864 H849 0.960 . S
C864 H850 0.960 . S
C864 H851 0.960 . S
C864 C863 1.524 . S
C865 C862 1.403 . S
C865 C866 1.392 . S
C865 C869 1.495 . S
C866 C865 1.392 . S
C866 C867 1.385 . S
C866 C868 1.478 . S
C867 H861 0.930 . S
C867 C863 1.400 . S
C867 C866 1.385 . S
C868 C866 1.478 . S
C868 C870 1.381 . S
C868 C874 1.383 . S
C869 C865 1.495 . S
C869 H875 0.959 . S
C869 H876 0.961 . S
C869 H877 0.960 . S
C870 C868 1.381 . S
C870 C871 1.394 . S
C870 H878 0.930 . S
C871 C870 1.394 . S
C871 C872 1.383 . S
C871 H879 0.929 . S
C872 C871 1.383 . S
C872 C873 1.377 . S
C873 H857 0.930 . S
C873 C872 1.377 . S
C873 C874 1.379 . S
C874 H858 0.931 . S
C874 C868 1.383 . S
C874 C873 1.379 . S
H875 C869 0.959 . S
H876 C869 0.961 . S
H877 C869 0.960 . S
H878 C870 0.930 . S
H879 C871 0.929 . S
H880 C888 0.929 . S
H881 C890 0.930 . S
H882 C892 0.930 . S
H883 C895 0.929 . S
H884 C898 0.930 . S
H885 C900 0.960 . S
H886 C900 0.960 . S
H887 C900 0.960 . S
C888 H880 0.929 . S
C888 C889 1.377 . S
C888 C890 1.384 . S
C889 C888 1.377 . S
C889 C895 1.390 . S
C890 H881 0.930 . S
C890 C888 1.384 . S
C890 C891 1.372 . S
C891 C890 1.372 . S
C891 C892 1.400 . S
C891 C896 1.490 . S
C892 H882 0.930 . S
C892 C891 1.400 . S
C892 C895 1.386 . S
H893 C909 0.930 . S
H894 C910 0.931 . S
C895 H883 0.929 . S
C895 C889 1.390 . S
C895 C892 1.386 . S
C896 C891 1.490 . S
C896 C898 1.395 . S
C896 C899 1.403 . S
H897 C903 0.930 . S
C898 H884 0.930 . S
C898 C896 1.395 . S
C898 C901 1.403 . S
C899 C896 1.403 . S
C899 C900 1.524 . S
C899 C903 1.400 . S
C900 H885 0.960 . S
C900 H886 0.960 . S
C900 H887 0.960 . S
C900 C899 1.524 . S
C901 C898 1.403 . S
C901 C902 1.392 . S
C901 C905 1.488 1_455 S
C902 C901 1.392 . S
C902 C903 1.385 . S
C902 C904 1.478 . S
C903 H897 0.930 . S
C903 C899 1.400 . S
C903 C902 1.385 . S
C904 C902 1.478 . S
C904 C906 1.381 . S
C904 C910 1.383 . S
C905 C901 1.488 1_655 S
C905 H911 0.964 . S
C905 H912 0.964 . S
C905 H913 0.960 . S
C906 C904 1.381 . S
C906 C907 1.394 . S
C906 H914 0.930 . S
C907 C906 1.394 . S
C907 C908 1.383 . S
C907 H915 0.929 . S
C908 C907 1.383 . S
C908 C909 1.377 . S
C909 H893 0.930 . S
C909 C908 1.377 . S
C909 C910 1.379 . S
C910 H894 0.931 . S
C910 C904 1.383 . S
C910 C909 1.379 . S
H911 C905 0.964 . S
H912 C905 0.964 . S
H913 C905 0.960 . S
H914 C906 0.930 . S
H915 C907 0.929 . S
H916 C924 0.929 1_545 S
H917 C926 0.930 . S
H918 C928 0.930 1_554 S
H919 C931 0.929 . S
H920 C934 0.930 . S
H921 C936 0.960 . S
H922 C936 0.960 . S
H923 C936 0.960 . S
C924 H916 0.929 1_565 S
C924 C925 1.377 . S
C924 C926 1.384 1_565 S
C925 C924 1.377 . S
C925 C931 1.390 . S
C926 H917 0.930 . S
C926 C924 1.384 1_545 S
C926 C927 1.372 1_545 S
C927 C926 1.372 1_565 S
C927 C928 1.400 . S
C927 C932 1.490 . S
C928 H918 0.930 1_556 S
C928 C927 1.400 . S
C928 C931 1.386 . S
H929 C945 0.930 . S
H930 C946 0.931 . S
C931 H919 0.929 . S
C931 C925 1.390 . S
C931 C928 1.386 . S
C932 C927 1.490 . S
C932 C934 1.395 . S
C932 C935 1.403 1_556 S
H933 C939 0.930 . S
C934 H920 0.930 . S
C934 C932 1.395 . S
C934 C937 1.403 . S
C935 C932 1.403 1_554 S
C935 C936 1.524 . S
C935 C939 1.400 . S
C936 H921 0.960 . S
C936 H922 0.960 . S
C936 H923 0.960 . S
C936 C935 1.524 . S
C937 C934 1.403 . S
C937 C938 1.425 . S
C937 C941 1.495 . S
C938 C937 1.425 . S
C938 C939 1.357 1_556 S
C938 C940 1.472 1_556 S
C939 H933 0.930 . S
C939 C935 1.400 . S
C939 C938 1.357 1_554 S
C940 C938 1.472 1_554 S
C940 C942 1.385 1_565 S
C940 C946 1.383 . S
C941 C937 1.495 . S
C941 H947 0.959 . S
C941 H948 0.961 . S
C941 H949 0.960 1_565 S
C942 C940 1.385 1_545 S
C942 C943 1.401 . S
C942 H950 0.920 1_554 S
C943 C942 1.401 . S
C943 C944 1.351 1_545 S
C943 H951 0.929 . S
C944 C943 1.351 1_565 S
C944 C945 1.414 . S
C945 H929 0.930 . S
C945 C944 1.414 . S
C945 C946 1.379 . S
C946 H930 0.931 . S
C946 C940 1.383 . S
C946 C945 1.379 . S
H947 C941 0.959 . S
H948 C941 0.961 . S
H949 C941 0.960 1_545 S
H950 C942 0.920 1_556 S
H951 C943 0.929 . S
H952 C960 0.929 . S
H953 C962 0.930 . S
H954 C964 0.930 . S
H955 C967 0.929 . S
H956 C970 0.930 . S
H957 C972 0.960 . S
H958 C972 0.960 . S
H959 C972 0.960 . S
C960 H952 0.929 . S
C960 C961 1.377 . S
C960 C962 1.384 . S
C961 C960 1.377 . S
C961 C967 1.390 . S
C962 H953 0.930 . S
C962 C960 1.384 . S
C962 C963 1.372 . S
C963 C962 1.372 . S
C963 C964 1.400 . S
C963 C968 1.490 . S
C964 H954 0.930 . S
C964 C963 1.400 . S
C964 C967 1.386 . S
H965 C981 0.930 . S
H966 C982 0.931 . S
C967 H955 0.929 . S
C967 C961 1.390 . S
C967 C964 1.386 . S
C968 C963 1.490 . S
C968 C970 1.395 . S
C968 C971 1.403 . S
H969 C975 0.930 . S
C970 H956 0.930 . S
C970 C968 1.395 . S
C970 C973 1.403 . S
C971 C968 1.403 . S
C971 C972 1.524 . S
C971 C975 1.400 . S
C972 H957 0.960 . S
C972 H958 0.960 . S
C972 H959 0.960 . S
C972 C971 1.524 . S
C973 C970 1.403 . S
C973 C974 1.392 . S
C973 C977 1.495 . S
C974 C973 1.392 . S
C974 C975 1.385 . S
C974 C976 1.478 . S
C975 H969 0.930 . S
C975 C971 1.400 . S
C975 C974 1.385 . S
C976 C974 1.478 . S
C976 C978 1.381 . S
C976 C982 1.383 . S
C977 C973 1.495 . S
C977 H983 0.959 . S
C977 H984 0.961 . S
C977 H985 0.960 . S
C978 C976 1.381 . S
C978 C979 1.394 . S
C978 H986 0.930 . S
C979 C978 1.394 . S
C979 C980 1.383 . S
C979 H987 0.929 . S
C980 C979 1.383 . S
C980 C981 1.377 . S
C981 H965 0.930 . S
C981 C980 1.377 . S
C981 C982 1.379 . S
C982 H966 0.931 . S
C982 C976 1.383 . S
C982 C981 1.379 . S
H983 C977 0.959 . S
H984 C977 0.961 . S
H985 C977 0.960 . S
H986 C978 0.930 . S
H987 C979 0.929 . S
H988 C996 0.929 . S
H989 C998 0.930 . S
H990 C1000 0.930 . S
H991 C1003 0.929 . S
H992 C1006 0.930 . S
H993 C1008 0.960 . S
H994 C1008 0.960 1_554 S
H995 C1008 0.960 . S
C996 H988 0.929 . S
C996 C997 1.377 . S
C996 C998 1.384 . S
C997 C996 1.377 . S
C997 C1003 1.390 . S
C998 H989 0.930 . S
C998 C996 1.384 . S
C998 C999 1.372 . S
C999 C998 1.372 . S
C999 C1000 1.400 . S
C999 C1004 1.490 . S
C1000 H990 0.930 . S
C1000 C999 1.400 . S
C1000 C1003 1.386 . S
H1001 C1017 0.928 1_556 S
H1002 C1018 0.931 . S
C1003 H991 0.929 . S
C1003 C997 1.390 . S
C1003 C1000 1.386 . S
C1004 C999 1.490 . S
C1004 C1006 1.395 . S
C1004 C1007 1.403 . S
H1005 C1011 0.930 . S
C1006 H992 0.930 . S
C1006 C1004 1.395 . S
C1006 C1009 1.403 . S
C1007 C1004 1.403 . S
C1007 C1008 1.524 1_554 S
C1007 C1011 1.400 . S
C1008 H993 0.960 . S
C1008 H994 0.960 1_556 S
C1008 H995 0.960 . S
C1008 C1007 1.524 1_556 S
C1009 C1006 1.403 . S
C1009 C1010 1.392 . S
C1009 C1013 1.495 . S
C1010 C1009 1.392 . S
C1010 C1011 1.385 . S
C1010 C1012 1.478 . S
C1011 H1005 0.930 . S
C1011 C1007 1.400 . S
C1011 C1010 1.385 . S
C1012 C1010 1.478 . S
C1012 C1014 1.381 . S
C1012 C1018 1.383 . S
C1013 C1009 1.495 . S
C1013 H1019 0.959 . S
C1013 H1020 0.961 . S
C1013 H1021 0.960 . S
C1014 C1012 1.381 . S
C1014 C1015 1.394 . S
C1014 H1022 0.930 . S
C1015 C1014 1.394 . S
C1015 C1016 1.383 . S
C1015 H1023 0.929 . S
C1016 C1015 1.383 . S
C1016 C1017 1.377 . S
C1017 H1001 0.928 1_554 S
C1017 C1016 1.377 . S
C1017 C1018 1.379 . S
C1018 H1002 0.931 . S
C1018 C1012 1.383 . S
C1018 C1017 1.379 . S
H1019 C1013 0.959 . S
H1020 C1013 0.961 . S
H1021 C1013 0.960 . S
H1022 C1014 0.930 . S
H1023 C1015 0.929 . S
H1024 C1032 0.929 . S
H1025 C1034 0.930 . S
H1026 C1036 0.930 . S
H1027 C1039 0.929 . S
H1028 C1042 0.930 . S
H1029 C1044 0.960 . S
H1030 C1044 0.960 . S
H1031 C1044 0.960 . S
C1032 H1024 0.929 . S
C1032 C1033 1.377 . S
C1032 C1034 1.384 . S
C1033 C1032 1.377 . S
C1033 C1039 1.390 . S
C1034 H1025 0.930 . S
C1034 C1032 1.384 . S
C1034 C1035 1.372 . S
C1035 C1034 1.372 . S
C1035 C1036 1.400 . S
C1035 C1040 1.490 . S
C1036 H1026 0.930 . S
C1036 C1035 1.400 . S
C1036 C1039 1.386 . S
H1037 C1053 0.930 . S
H1038 C1054 0.931 . S
C1039 H1027 0.929 . S
C1039 C1033 1.390 . S
C1039 C1036 1.386 . S
C1040 C1035 1.490 . S
C1040 C1042 1.395 . S
C1040 C1043 1.403 . S
H1041 C1047 0.930 . S
C1042 H1028 0.930 . S
C1042 C1040 1.395 . S
C1042 C1045 1.403 . S
C1043 C1040 1.403 . S
C1043 C1044 1.524 . S
C1043 C1047 1.400 . S
C1044 H1029 0.960 . S
C1044 H1030 0.960 . S
C1044 H1031 0.960 . S
C1044 C1043 1.524 . S
C1045 C1042 1.403 . S
C1045 C1046 1.392 . S
C1045 C1049 1.495 . S
C1046 C1045 1.392 . S
C1046 C1047 1.385 . S
C1046 C1048 1.478 . S
C1047 H1041 0.930 . S
C1047 C1043 1.400 . S
C1047 C1046 1.385 . S
C1048 C1046 1.478 . S
C1048 C1050 1.381 . S
C1048 C1054 1.383 . S
C1049 C1045 1.495 . S
C1049 H1055 0.959 . S
C1049 H1056 0.961 . S
C1049 H1057 0.960 . S
C1050 C1048 1.381 . S
C1050 C1051 1.394 . S
C1050 H1058 0.930 . S
C1051 C1050 1.394 . S
C1051 C1052 1.383 . S
C1051 H1059 0.929 . S
C1052 C1051 1.383 . S
C1052 C1053 1.377 . S
C1053 H1037 0.930 . S
C1053 C1052 1.377 . S
C1053 C1054 1.379 . S
C1054 H1038 0.931 . S
C1054 C1048 1.383 . S
C1054 C1053 1.379 . S
H1055 C1049 0.959 . S
H1056 C1049 0.961 . S
H1057 C1049 0.960 . S
H1058 C1050 0.930 . S
H1059 C1051 0.929 . S
H1060 C1068 0.929 1_455 S
H1061 C1070 0.930 1_455 S
H1062 C1072 0.930 1_554 S
H1063 C1075 0.929 1_554 S
H1064 C1078 0.930 . S
H1065 C1080 0.960 . S
H1066 C1080 0.960 . S
H1067 C1080 0.960 . S
C1068 H1060 0.929 1_655 S
C1068 C1069 1.377 . S
C1068 C1070 1.384 . S
C1069 C1068 1.377 . S
C1069 C1075 1.390 . S
C1070 H1061 0.930 1_655 S
C1070 C1068 1.384 . S
C1070 C1071 1.372 . S
C1071 C1070 1.372 . S
C1071 C1072 1.400 . S
C1071 C1076 1.490 . S
C1072 H1062 0.930 1_556 S
C1072 C1071 1.400 . S
C1072 C1075 1.386 . S
H1073 C1089 0.924 1_655 S
H1074 C1090 0.931 . S
C1075 H1063 0.929 1_556 S
C1075 C1069 1.390 . S
C1075 C1072 1.386 . S
C1076 C1071 1.490 . S
C1076 C1078 1.395 1_655 S
C1076 C1079 1.403 . S
H1077 C1083 0.930 . S
C1078 H1064 0.930 . S
C1078 C1076 1.395 1_455 S
C1078 C1081 1.403 . S
C1079 C1076 1.403 . S
C1079 C1080 1.524 . S
C1079 C1083 1.400 . S
C1080 H1065 0.960 . S
C1080 H1066 0.960 . S
C1080 H1067 0.960 . S
C1080 C1079 1.524 . S
C1081 C1078 1.403 . S
C1081 C1082 1.392 . S
C1081 C1085 1.495 . S
C1082 C1081 1.392 . S
C1082 C1083 1.385 1_455 S
C1082 C1084 1.478 . S
C1083 H1077 0.930 . S
C1083 C1079 1.400 . S
C1083 C1082 1.385 1_655 S
C1084 C1082 1.478 . S
C1084 C1086 1.381 . S
C1084 C1090 1.383 1_456 S
C1085 C1081 1.495 . S
C1085 H1091 0.959 . S
C1085 H1092 0.961 1_556 S
C1085 H1093 0.960 . S
C1086 C1084 1.381 . S
C1086 C1087 1.394 . S
C1086 H1094 0.930 . S
C1087 C1086 1.394 . S
C1087 C1088 1.383 . S
C1087 H1095 0.929 . S
C1088 C1087 1.383 . S
C1088 C1089 1.384 1_556 S
C1089 H1073 0.924 1_455 S
C1089 C1088 1.384 1_554 S
C1089 C1090 1.378 1_455 S
C1090 H1074 0.931 . S
C1090 C1084 1.383 1_654 S
C1090 C1089 1.378 1_655 S
H1091 C1085 0.959 . S
H1092 C1085 0.961 1_554 S
H1093 C1085 0.960 . S
H1094 C1086 0.930 . S
H1095 C1087 0.929 . S
H1096 C1104 0.929 . S
H1097 C1106 0.930 . S
H1098 C1108 0.930 . S
H1099 C1111 0.929 . S
H1100 C1114 0.930 . S
H1101 C1116 0.960 . S
H1102 C1116 0.960 . S
H1103 C1116 0.960 . S
C1104 H1096 0.929 . S
C1104 C1105 1.377 . S
C1104 C1106 1.384 . S
C1105 C1104 1.377 . S
C1105 C1111 1.390 . S
C1106 H1097 0.930 . S
C1106 C1104 1.384 . S
C1106 C1107 1.372 . S
C1107 C1106 1.372 . S
C1107 C1108 1.400 . S
C1107 C1112 1.490 . S
C1108 H1098 0.930 . S
C1108 C1107 1.400 . S
C1108 C1111 1.386 . S
H1109 C1125 0.930 . S
H1110 C1126 0.931 . S
C1111 H1099 0.929 . S
C1111 C1105 1.390 . S
C1111 C1108 1.386 . S
C1112 C1107 1.490 . S
C1112 C1114 1.395 . S
C1112 C1115 1.403 . S
H1113 C1119 0.930 . S
C1114 H1100 0.930 . S
C1114 C1112 1.395 . S
C1114 C1117 1.403 . S
C1115 C1112 1.403 . S
C1115 C1116 1.524 . S
C1115 C1119 1.400 . S
C1116 H1101 0.960 . S
C1116 H1102 0.960 . S
C1116 H1103 0.960 . S
C1116 C1115 1.524 . S
C1117 C1114 1.403 . S
C1117 C1118 1.392 . S
C1117 C1121 1.495 . S
C1118 C1117 1.392 . S
C1118 C1119 1.385 . S
C1118 C1120 1.478 . S
C1119 H1113 0.930 . S
C1119 C1115 1.400 . S
C1119 C1118 1.385 . S
C1120 C1118 1.478 . S
C1120 C1122 1.381 . S
C1120 C1126 1.383 . S
C1121 C1117 1.495 . S
C1121 H1127 0.959 . S
C1121 H1128 0.961 . S
C1121 H1129 0.960 . S
C1122 C1120 1.381 . S
C1122 C1123 1.394 . S
C1122 H1130 0.930 . S
C1123 C1122 1.394 . S
C1123 C1124 1.383 . S
C1123 H1131 0.929 . S
C1124 C1123 1.383 . S
C1124 C1125 1.377 . S
C1125 H1109 0.930 . S
C1125 C1124 1.377 . S
C1125 C1126 1.379 . S
C1126 H1110 0.931 . S
C1126 C1120 1.383 . S
C1126 C1125 1.379 . S
H1127 C1121 0.959 . S
H1128 C1121 0.961 . S
H1129 C1121 0.960 . S
H1130 C1122 0.930 . S
H1131 C1123 0.929 . S
H1132 C1140 0.929 . S
H1133 C1142 0.930 . S
H1134 C1144 0.930 . S
H1135 C1147 0.929 . S
H1136 C1150 0.930 . S
H1137 C1152 0.960 . S
H1138 C1152 0.960 . S
H1139 C1152 0.960 . S
C1140 H1132 0.929 . S
C1140 C1141 1.377 . S
C1140 C1142 1.384 . S
C1141 C1140 1.377 . S
C1141 C1147 1.390 . S
C1142 H1133 0.930 . S
C1142 C1140 1.384 . S
C1142 C1143 1.372 . S
C1143 C1142 1.372 . S
C1143 C1144 1.400 . S
C1143 C1148 1.490 . S
C1144 H1134 0.930 . S
C1144 C1143 1.400 . S
C1144 C1147 1.386 . S
H1145 C1161 0.930 1_655 S
H1146 C1162 0.931 1_655 S
C1147 H1135 0.929 . S
C1147 C1141 1.390 . S
C1147 C1144 1.386 . S
C1148 C1143 1.490 . S
C1148 C1150 1.395 . S
C1148 C1151 1.403 . S
H1149 C1155 0.930 . S
C1150 H1136 0.930 . S
C1150 C1148 1.395 . S
C1150 C1153 1.403 . S
C1151 C1148 1.403 . S
C1151 C1152 1.524 . S
C1151 C1155 1.400 . S
C1152 H1137 0.960 . S
C1152 H1138 0.960 . S
C1152 H1139 0.960 . S
C1152 C1151 1.524 . S
C1153 C1150 1.403 . S
C1153 C1154 1.392 . S
C1153 C1157 1.495 . S
C1154 C1153 1.392 . S
C1154 C1155 1.385 . S
C1154 C1156 1.478 . S
C1155 H1149 0.930 . S
C1155 C1151 1.400 . S
C1155 C1154 1.385 . S
C1156 C1154 1.478 . S
C1156 C1158 1.381 . S
C1156 C1162 1.383 . S
C1157 C1153 1.495 . S
C1157 H1163 0.959 . S
C1157 H1164 0.961 . S
C1157 H1165 0.960 . S
C1158 C1156 1.381 . S
C1158 C1159 1.394 . S
C1158 H1166 0.930 . S
C1159 C1158 1.394 . S
C1159 C1160 1.383 . S
C1159 H1167 0.929 . S
C1160 C1159 1.383 . S
C1160 C1161 1.377 . S
C1161 H1145 0.930 1_455 S
C1161 C1160 1.377 . S
C1161 C1162 1.379 . S
C1162 H1146 0.931 1_455 S
C1162 C1156 1.383 . S
C1162 C1161 1.379 . S
H1163 C1157 0.959 . S
H1164 C1157 0.961 . S
H1165 C1157 0.960 . S
H1166 C1158 0.930 . S
H1167 C1159 0.929 . S
H1168 C1176 0.929 . S
H1169 C1178 0.930 . S
H1170 C1180 0.930 . S
H1171 C1183 0.929 . S
H1172 C1186 0.930 . S
H1173 C1188 0.960 . S
H1174 C1188 0.960 . S
H1175 C1188 0.960 . S
C1176 H1168 0.929 . S
C1176 C1177 1.377 . S
C1176 C1178 1.384 . S
C1177 C1176 1.377 . S
C1177 C1183 1.390 . S
C1178 H1169 0.930 . S
C1178 C1176 1.384 . S
C1178 C1179 1.372 . S
C1179 C1178 1.372 . S
C1179 C1180 1.400 . S
C1179 C1184 1.490 . S
C1180 H1170 0.930 . S
C1180 C1179 1.400 . S
C1180 C1183 1.386 . S
H1181 C1197 0.930 . S
H1182 C1198 0.931 . S
C1183 H1171 0.929 . S
C1183 C1177 1.390 . S
C1183 C1180 1.386 . S
C1184 C1179 1.490 . S
C1184 C1186 1.395 . S
C1184 C1187 1.403 . S
H1185 C1191 0.930 . S
C1186 H1172 0.930 . S
C1186 C1184 1.395 . S
C1186 C1189 1.403 . S
C1187 C1184 1.403 . S
C1187 C1188 1.524 . S
C1187 C1191 1.400 . S
C1188 H1173 0.960 . S
C1188 H1174 0.960 . S
C1188 H1175 0.960 . S
C1188 C1187 1.524 . S
C1189 C1186 1.403 . S
C1189 C1190 1.392 . S
C1189 C1193 1.495 . S
C1190 C1189 1.392 . S
C1190 C1191 1.385 . S
C1190 C1192 1.478 . S
C1191 H1185 0.930 . S
C1191 C1187 1.400 . S
C1191 C1190 1.385 . S
C1192 C1190 1.478 . S
C1192 C1194 1.381 . S
C1192 C1198 1.383 . S
C1193 C1189 1.495 . S
C1193 H1199 0.959 . S
C1193 H1200 0.961 . S
C1193 H1201 0.960 . S
C1194 C1192 1.381 . S
C1194 C1195 1.394 . S
C1194 H1202 0.930 . S
C1195 C1194 1.394 . S
C1195 C1196 1.383 . S
C1195 H1203 0.929 . S
C1196 C1195 1.383 . S
C1196 C1197 1.377 . S
C1197 H1181 0.930 . S
C1197 C1196 1.377 . S
C1197 C1198 1.379 . S
C1198 H1182 0.931 . S
C1198 C1192 1.383 . S
C1198 C1197 1.379 . S
H1199 C1193 0.959 . S
H1200 C1193 0.961 . S
H1201 C1193 0.960 . S
H1202 C1194 0.930 . S
H1203 C1195 0.929 . S
C349 C29 1.560 . S
C368 C259 1.501 . S
C385 C49 1.456 . S
C404 C293 1.409 1_565 S
C440 C305 1.399 . S
C421 C93 1.512 . S
C457 C119 1.435 . S
C476 C339 1.346 . S
C512 C296 1.412 . S
C493 C17 1.492 . S
C548 C276 1.429 1_565 S
C529 C61 1.522 . S
C584 C323 1.322 . S
C565 C81 1.445 . S
C620 C314 1.467 . S
C601 C125 1.521 . S
C637 C23 1.480 . S
C656 C322 1.381 . S
C692 C284 1.400 . S
C673 C87 1.455 . S
C709 C113 1.522 . S
C728 C260 1.466 . S
C745 C55 1.488 . S
C764 C317 1.373 . S
C800 C275 1.567 . S
C781 C157 1.668 . S
C817 C189 1.532 . S
C836 C297 1.511 . S
C853 C221 1.695 . S
C872 C302 1.587 . S
C889 C253 1.567 . S
C908 C335 1.599 . S
C925 C145 1.732 . S
C944 C280 1.632 . S
C980 C272 1.574 . S
C961 C183 1.550 . S
C1016 C326 1.593 . S
C997 C209 1.716 . S
C1052 C318 1.544 . S
C1033 C247 1.532 . S
C1069 C151 1.666 . S
C1088 C338 1.515 . S
C1124 C281 1.516 . S
C1105 C215 1.692 . S
C1160 C263 1.558 . S
C1141 C241 1.583 . S
C1177 C177 1.600 . S
C1196 C301 1.597 . S
