# Generated by pormake.
# Topology pyr, (3,6)-cn, num edge types: 1
# Building blocks:
#     Node 0, Type 0, BuildingBlock: BELTOD_clean_linker_0, # of connection points: 3
#     Node 1, Type 0, BuildingBlock: BELTOD_clean_linker_0, # of connection points: 3
#     Node 2, Type 0, BuildingBlock: BELTOD_clean_linker_0, # of connection points: 3
#     Node 3, Type 0, BuildingBlock: BELTOD_clean_linker_0, # of connection points: 3
#     Node 4, Type 0, BuildingBlock: BELTOD_clean_linker_0, # of connection points: 3
#     Node 5, Type 0, BuildingBlock: BELTOD_clean_linker_0, # of connection points: 3
#     Node 6, Type 0, BuildingBlock: BELTOD_clean_linker_0, # of connection points: 3
#     Node 7, Type 0, BuildingBlock: BELTOD_clean_linker_0, # of connection points: 3
#     Node 8, Type 1, BuildingBlock: JUFBIX_clean_sbu_0, # of connection points: 6
#     Node 9, Type 1, BuildingBlock: JUFBIX_clean_sbu_0, # of connection points: 6
#     Node 10, Type 1, BuildingBlock: JUFBIX_clean_sbu_0, # of connection points: 6
#     Node 11, Type 1, BuildingBlock: JUFBIX_clean_sbu_0, # of connection points: 6
#     Edge 12, Type (0, 1), BuildingBlock: MIFKUJ_clean_linker_0, # of connection points: 2
#     Edge 13, Type (0, 1), BuildingBlock: MIFKUJ_clean_linker_0, # of connection points: 2
#     Edge 14, Type (0, 1), BuildingBlock: MIFKUJ_clean_linker_0, # of connection points: 2
#     Edge 15, Type (0, 1), BuildingBlock: MIFKUJ_clean_linker_0, # of connection points: 2
#     Edge 16, Type (0, 1), BuildingBlock: MIFKUJ_clean_linker_0, # of connection points: 2
#     Edge 17, Type (0, 1), BuildingBlock: MIFKUJ_clean_linker_0, # of connection points: 2
#     Edge 18, Type (0, 1), BuildingBlock: MIFKUJ_clean_linker_0, # of connection points: 2
#     Edge 19, Type (0, 1), BuildingBlock: MIFKUJ_clean_linker_0, # of connection points: 2
#     Edge 20, Type (0, 1), BuildingBlock: MIFKUJ_clean_linker_0, # of connection points: 2
#     Edge 21, Type (0, 1), BuildingBlock: MIFKUJ_clean_linker_0, # of connection points: 2
#     Edge 22, Type (0, 1), BuildingBlock: MIFKUJ_clean_linker_0, # of connection points: 2
#     Edge 23, Type (0, 1), BuildingBlock: MIFKUJ_clean_linker_0, # of connection points: 2
#     Edge 24, Type (0, 1), BuildingBlock: MIFKUJ_clean_linker_0, # of connection points: 2
#     Edge 25, Type (0, 1), BuildingBlock: MIFKUJ_clean_linker_0, # of connection points: 2
#     Edge 26, Type (0, 1), BuildingBlock: MIFKUJ_clean_linker_0, # of connection points: 2
#     Edge 27, Type (0, 1), BuildingBlock: MIFKUJ_clean_linker_0, # of connection points: 2
#     Edge 28, Type (0, 1), BuildingBlock: MIFKUJ_clean_linker_0, # of connection points: 2
#     Edge 29, Type (0, 1), BuildingBlock: MIFKUJ_clean_linker_0, # of connection points: 2
#     Edge 30, Type (0, 1), BuildingBlock: MIFKUJ_clean_linker_0, # of connection points: 2
#     Edge 31, Type (0, 1), BuildingBlock: MIFKUJ_clean_linker_0, # of connection points: 2
#     Edge 32, Type (0, 1), BuildingBlock: MIFKUJ_clean_linker_0, # of connection points: 2
#     Edge 33, Type (0, 1), BuildingBlock: MIFKUJ_clean_linker_0, # of connection points: 2
#     Edge 34, Type (0, 1), BuildingBlock: MIFKUJ_clean_linker_0, # of connection points: 2
#     Edge 35, Type (0, 1), BuildingBlock: MIFKUJ_clean_linker_0, # of connection points: 2
# Relax obj value: 0.039
# Max RMSD: 0.086
# Mean RMSD: 0.038
data_MOF--net-pry--node1-JUFBIX_clean_sbu_0--node2-BELTOD_clean_linker_0--edge1-MIFKUJ_clean_linker_0
_symmetry_space_group_name_H-M    P1
_symmetry_Int_Tables_number       1
_symmetry_cell_setting            triclinic
loop_
_symmetry_equiv_pos_as_xyz
'x, y, z'
_cell_length_a     54.147115
_cell_length_b     52.027677
_cell_length_c     53.625187
_cell_angle_alpha  87.109278
_cell_angle_beta   90.812834
_cell_angle_gamma 92.064153
loop_
_atom_site_label
_atom_site_type_symbol
_atom_site_fract_x
_atom_site_fract_y
_atom_site_fract_z
_atom_type_partial_charge
P0 P 0.19208 0.17901 0.19163 0.0
H1 H 0.23934 0.19717 0.17082 0.0
H2 H 0.27211 0.17666 0.14914 0.0
H3 H 0.22765 0.10615 0.1486 0.0
H4 H 0.19473 0.12695 0.17068 0.0
H5 H 0.16514 0.22328 0.20596 0.0
H6 H 0.142 0.25625 0.18295 0.0
H7 H 0.1536 0.21832 0.11445 0.0
H8 H 0.17732 0.18543 0.13785 0.0
H9 H 0.20593 0.13542 0.22511 0.0
H10 H 0.13956 0.17602 0.20711 0.0
O11 O 0.20912 0.19715 0.21061 0.0
H12 H 0.18495 0.1121 0.25993 0.0
H13 H 0.11875 0.15362 0.2423 0.0
C14 C 0.2146 0.16358 0.17281 0.0
C15 C 0.2365 0.1773 0.16603 0.0
C16 C 0.25539 0.16546 0.15369 0.0
C17 C 0.25284 0.13955 0.14736 0.0
C18 C 0.23035 0.1261 0.15316 0.0
C19 C 0.21147 0.13797 0.16584 0.0
C20 C 0.17306 0.20178 0.17374 0.0
C21 C 0.1626 0.22189 0.186 0.0
C22 C 0.14916 0.24077 0.17274 0.0
C23 C 0.14571 0.24017 0.14668 0.0
C24 C 0.15601 0.21972 0.13442 0.0
C25 C 0.16947 0.20071 0.14781 0.0
C26 C 0.17437 0.15728 0.21301 0.0
C27 C 0.18666 0.13895 0.22826 0.0
C28 C 0.17468 0.12589 0.24855 0.0
C29 C 0.15006 0.13102 0.2544 0.0
C30 C 0.13755 0.14877 0.23847 0.0
C31 C 0.14955 0.16175 0.21815 0.0
P32 P 0.42798 0.91313 0.58603 0.0
H33 H 0.46334 0.94821 0.61051 0.0
H34 H 0.46889 0.95958 0.654 0.0
H35 H 0.40687 0.90876 0.6749 0.0
H36 H 0.40188 0.89707 0.63155 0.0
H37 H 0.41305 0.87723 0.54801 0.0
H38 H 0.41921 0.83124 0.5441 0.0
H39 H 0.46042 0.82897 0.61372 0.0
H40 H 0.45442 0.87489 0.61739 0.0
H41 H 0.40717 0.96026 0.56439 0.0
H42 H 0.38056 0.88422 0.58911 0.0
O43 O 0.4481 0.92976 0.56765 0.0
H44 H 0.36467 0.97252 0.55485 0.0
H45 H 0.33817 0.89628 0.57955 0.0
C46 C 0.43217 0.92184 0.61787 0.0
C47 C 0.45096 0.93952 0.62447 0.0
C48 C 0.45403 0.94611 0.64932 0.0
C49 C 0.43834 0.93505 0.66794 0.0
C50 C 0.41949 0.91735 0.66111 0.0
C51 C 0.41648 0.9108 0.6363 0.0
C52 C 0.4327 0.87932 0.5833 0.0
C53 C 0.42324 0.86676 0.56252 0.0
C54 C 0.42668 0.84048 0.56036 0.0
C55 C 0.44007 0.82644 0.57875 0.0
C56 C 0.45005 0.83927 0.59925 0.0
C57 C 0.44647 0.86551 0.60144 0.0
C58 C 0.39705 0.92115 0.57679 0.0
C59 C 0.39223 0.94609 0.56735 0.0
C60 C 0.36796 0.95311 0.56208 0.0
C61 C 0.34815 0.93528 0.56626 0.0
C62 C 0.3531 0.91026 0.57566 0.0
C63 C 0.37733 0.90335 0.58112 0.0
P64 P 0.69184 0.32325 0.82181 0.0
H65 H 0.74222 0.30805 0.83298 0.0
H66 H 0.77617 0.3271 0.85697 0.0
H67 H 0.72871 0.3871 0.8782 0.0
H68 H 0.69455 0.36766 0.85413 0.0
H69 H 0.667 0.27521 0.80857 0.0
H70 H 0.64079 0.24345 0.8315 0.0
H71 H 0.64567 0.28961 0.89628 0.0
H72 H 0.67239 0.3213 0.87314 0.0
H73 H 0.70517 0.37501 0.8011 0.0
H74 H 0.64061 0.32402 0.80328 0.0
O75 O 0.70566 0.3072 0.80006 0.0
H76 H 0.68364 0.40499 0.77262 0.0
H77 H 0.61933 0.35324 0.77412 0.0
C78 C 0.716 0.33676 0.84131 0.0
C79 C 0.73905 0.32531 0.84277 0.0
C80 C 0.75853 0.3363 0.85644 0.0
C81 C 0.75531 0.35887 0.86921 0.0
C82 C 0.73182 0.36972 0.86859 0.0
C83 C 0.71231 0.35871 0.85476 0.0
C84 C 0.67205 0.30039 0.83927 0.0
C85 C 0.66254 0.2785 0.82774 0.0
C86 C 0.64729 0.26043 0.84083 0.0
C87 C 0.64107 0.2639 0.86579 0.0
C88 C 0.65034 0.28615 0.8772 0.0
C89 C 0.66558 0.30432 0.86398 0.0
C90 C 0.67433 0.34755 0.80494 0.0
C91 C 0.68616 0.37051 0.79592 0.0
C92 C 0.67392 0.38748 0.77928 0.0
C93 C 0.6497 0.38159 0.77089 0.0
C94 C 0.63776 0.35876 0.78043 0.0
C95 C 0.64998 0.34191 0.79719 0.0
P96 P 0.8886 0.6727 0.39667 0.0
H97 H 0.92831 0.7066 0.37775 0.0
H98 H 0.96067 0.73186 0.39828 0.0
H99 H 0.93928 0.69624 0.46965 0.0
H100 H 0.90679 0.67101 0.44891 0.0
H101 H 0.86067 0.66413 0.35103 0.0
H102 H 0.87089 0.64495 0.31195 0.0
H103 H 0.94436 0.63063 0.34064 0.0
H104 H 0.93397 0.64985 0.37975 0.0
H105 H 0.85549 0.67768 0.43813 0.0
H106 H 0.88496 0.61592 0.39823 0.0
O107 O 0.86959 0.69659 0.38953 0.0
H108 H 0.82744 0.64697 0.46035 0.0
H109 H 0.85684 0.58507 0.42037 0.0
C110 C 0.91526 0.68683 0.41175 0.0
C111 C 0.93102 0.7037 0.39774 0.0
C112 C 0.94961 0.71805 0.40951 0.0
C113 C 0.95256 0.71603 0.43561 0.0
C114 C 0.93736 0.69829 0.44952 0.0
C115 C 0.9188 0.68381 0.43767 0.0
C116 C 0.89676 0.65898 0.36795 0.0
C117 C 0.87903 0.65704 0.34882 0.0
C118 C 0.88484 0.64592 0.32659 0.0
C119 C 0.90848 0.63646 0.32321 0.0
C120 C 0.92614 0.63817 0.34259 0.0
C121 C 0.92023 0.64913 0.36491 0.0
C122 C 0.87193 0.64916 0.41624 0.0
C123 C 0.85627 0.65742 0.43455 0.0
C124 C 0.84041 0.63981 0.44739 0.0
C125 C 0.83991 0.61362 0.44202 0.0
C126 C 0.85674 0.60517 0.42474 0.0
C127 C 0.87278 0.62281 0.41205 0.0
P128 P 0.8369 0.85563 0.86572 0.0
H129 H 0.81233 0.85077 0.91388 0.0
H130 H 0.77237 0.86373 0.9285 0.0
H131 H 0.75198 0.88766 0.85291 0.0
H132 H 0.79177 0.87372 0.83836 0.0
H133 H 0.88594 0.83429 0.86674 0.0
H134 H 0.90249 0.79354 0.88264 0.0
H135 H 0.82872 0.76549 0.90147 0.0
H136 H 0.81228 0.80655 0.88544 0.0
H137 H 0.8333 0.90507 0.83774 0.0
H138 H 0.85759 0.8295 0.8228 0.0
O139 O 0.85416 0.87545 0.88287 0.0
H140 H 0.84832 0.92157 0.79713 0.0
H141 H 0.87384 0.84604 0.78265 0.0
C142 C 0.80523 0.86106 0.87496 0.0
C143 C 0.79908 0.85832 0.90033 0.0
C144 C 0.77622 0.86614 0.90875 0.0
C145 C 0.75877 0.87723 0.89205 0.0
C146 C 0.76468 0.87913 0.86643 0.0
C147 C 0.78761 0.87118 0.85802 0.0
C148 C 0.84781 0.82364 0.87469 0.0
C149 C 0.87323 0.81926 0.87394 0.0
C150 C 0.8827 0.7958 0.88306 0.0
C151 C 0.86705 0.776 0.89348 0.0
C152 C 0.84145 0.7803 0.8939 0.0
C153 C 0.83195 0.8038 0.88453 0.0
C154 C 0.84409 0.86596 0.8335 0.0
C155 C 0.84162 0.89189 0.82559 0.0
C156 C 0.85064 0.90143 0.80237 0.0
C157 C 0.86279 0.88538 0.7864 0.0
C158 C 0.86449 0.85912 0.79409 0.0
C159 C 0.85524 0.84956 0.81729 0.0
P160 P 0.64235 0.18179 0.37407 0.0
H161 H 0.66091 0.22082 0.40691 0.0
H162 H 0.64059 0.25363 0.4296 0.0
H163 H 0.56933 0.22246 0.40656 0.0
H164 H 0.5897 0.18951 0.38418 0.0
H165 H 0.68018 0.14799 0.35934 0.0
H166 H 0.70842 0.12009 0.38288 0.0
H167 H 0.67376 0.13837 0.45158 0.0
H168 H 0.64547 0.16632 0.42782 0.0
H169 H 0.61149 0.20084 0.3332 0.0
H170 H 0.62598 0.12729 0.37018 0.0
O171 O 0.66145 0.20013 0.356 0.0
H172 H 0.58474 0.17955 0.30292 0.0
H173 H 0.60013 0.1057 0.33934 0.0
C174 C 0.62685 0.20302 0.39359 0.0
C175 C 0.6409 0.22081 0.4071 0.0
C176 C 0.62928 0.23944 0.42014 0.0
C177 C 0.6034 0.24065 0.41966 0.0
C178 C 0.58933 0.22209 0.40697 0.0
C179 C 0.60098 0.20328 0.39416 0.0
C180 C 0.66104 0.15946 0.39186 0.0
C181 C 0.67851 0.14578 0.37945 0.0
C182 C 0.6945 0.1297 0.39292 0.0
C183 C 0.69332 0.12707 0.4191 0.0
C184 C 0.67523 0.14023 0.43145 0.0
C185 C 0.65907 0.1562 0.41788 0.0
C186 C 0.62102 0.16563 0.35361 0.0
C187 C 0.60887 0.18008 0.33478 0.0
C188 C 0.59368 0.16787 0.31744 0.0
C189 C 0.59056 0.14088 0.31848 0.0
C190 C 0.60198 0.12652 0.33809 0.0
C191 C 0.61701 0.13883 0.3556 0.0
P192 P 0.3459 0.64283 0.16579 0.0
H193 H 0.3211 0.64942 0.11775 0.0
H194 H 0.27909 0.6396 0.10315 0.0
H195 H 0.25847 0.61491 0.17842 0.0
H196 H 0.30032 0.62585 0.19299 0.0
H197 H 0.39599 0.66445 0.16204 0.0
H198 H 0.41315 0.70691 0.14853 0.0
H199 H 0.33925 0.73477 0.13892 0.0
H200 H 0.3222 0.69221 0.15257 0.0
H201 H 0.34175 0.59329 0.19327 0.0
H202 H 0.36343 0.67129 0.20946 0.0
O203 O 0.3618 0.62315 0.14895 0.0
H204 H 0.35385 0.57868 0.23553 0.0
H205 H 0.37659 0.65675 0.25137 0.0
C206 C 0.31392 0.63833 0.15641 0.0
C207 C 0.30742 0.64224 0.13116 0.0
C208 C 0.28341 0.63634 0.12281 0.0
C209 C 0.26536 0.62607 0.13951 0.0
C210 C 0.27178 0.62292 0.16502 0.0
C211 C 0.29583 0.62903 0.17339 0.0
C212 C 0.35785 0.67504 0.15794 0.0
C213 C 0.38348 0.67976 0.15719 0.0
C214 C 0.39327 0.70409 0.14959 0.0
C215 C 0.37757 0.7242 0.14247 0.0
C216 C 0.35183 0.71957 0.14392 0.0
C217 C 0.34206 0.69524 0.15178 0.0
C218 C 0.35179 0.63332 0.19813 0.0
C219 C 0.34898 0.6073 0.20601 0.0
C220 C 0.35615 0.59895 0.23014 0.0
C221 C 0.36655 0.61644 0.24688 0.0
C222 C 0.36848 0.64272 0.23915 0.0
C223 C 0.3611 0.65108 0.21503 0.0
P224 P 0.13513 0.34381 0.63682 0.0
H225 H 0.14252 0.31184 0.59481 0.0
H226 H 0.11398 0.28634 0.56946 0.0
H227 H 0.05217 0.31744 0.60643 0.0
H228 H 0.08074 0.34317 0.6315 0.0
H229 H 0.15738 0.38881 0.65985 0.0
H230 H 0.18403 0.42427 0.64396 0.0
H231 H 0.17755 0.39542 0.56985 0.0
H232 H 0.14955 0.3608 0.58568 0.0
H233 H 0.13024 0.31562 0.6852 0.0
H234 H 0.10523 0.38664 0.65025 0.0
O235 O 0.15681 0.32263 0.64415 0.0
H236 H 0.11174 0.32629 0.72451 0.0
H237 H 0.08724 0.39783 0.68962 0.0
C238 C 0.11381 0.32913 0.61527 0.0
C239 C 0.12281 0.31364 0.59706 0.0
C240 C 0.10649 0.29918 0.58249 0.0
C241 C 0.08086 0.29982 0.5861 0.0
C242 C 0.07185 0.31645 0.60343 0.0
C243 C 0.08821 0.33115 0.61778 0.0
C244 C 0.15092 0.3724 0.62389 0.0
C245 C 0.16088 0.39058 0.64 0.0
C246 C 0.17647 0.41072 0.63093 0.0
C247 C 0.18316 0.41263 0.60564 0.0
C248 C 0.17252 0.39482 0.58935 0.0
C249 C 0.15657 0.37485 0.59843 0.0
C250 C 0.11961 0.35068 0.66506 0.0
C251 C 0.12075 0.33352 0.686 0.0
C252 C 0.11021 0.33966 0.70847 0.0
C253 C 0.09824 0.36303 0.71029 0.0
C254 C 0.09614 0.37959 0.68884 0.0
C255 C 0.10663 0.37336 0.66638 0.0
Co256 Co 0.9888 0.00763 0.50988 0.0
C257 C 0.0119 0.9606 0.50839 0.0
Co258 Co 0.02437 0.00588 0.53013 0.0
C259 C 0.93777 0.01778 0.49915 0.0
C260 C 0.95454 0.99837 0.46983 0.0
N261 N 0.95923 0.00792 0.49238 0.0
N262 N 0.9198 0.01479 0.48171 0.0
C263 C 0.93033 0.00255 0.46323 0.0
H264 H 0.93541 0.02686 0.51664 0.0
H265 H 0.96795 0.98919 0.45882 0.0
C266 C 1.00162 0.05305 0.53128 0.0
N267 N 0.05387 0.00571 0.54776 0.0
C268 C 0.07591 0.99751 0.54059 0.0
C269 C 0.05805 0.01474 0.57062 0.0
N270 N 0.09373 1.00121 0.55804 0.0
C271 C 0.08253 0.01205 0.57697 0.0
C272 C 0.02941 0.02361 0.48011 0.0
O273 O 0.98492 0.04234 0.51811 0.0
O274 O 0.02004 0.0402 0.53874 0.0
O275 O 0.04142 0.01862 0.50027 0.0
O276 O 0.00604 0.01982 0.4801 0.0
O277 O 0.02864 0.97151 0.52136 0.0
H278 H 0.04419 0.02294 0.58186 0.0
H279 H 0.07889 0.9895 0.52268 0.0
O280 O 0.99299 0.97305 0.50158 0.0
O281 O 0.97169 0.99544 0.53985 0.0
O282 O 0.00714 0.9932 0.55978 0.0
C283 C 0.98372 0.98997 0.5599 0.0
H284 H 0.9214 0.99752 0.44587 0.0
H285 H 0.09134 0.01746 0.59427 0.0
Co286 Co 0.48788 0.99988 0.99432 0.0
C287 C 0.48418 0.96101 0.03259 0.0
Co288 Co 0.51014 0.00731 0.028 0.0
C289 C 0.47396 0.99404 0.94249 0.0
C290 C 0.44532 0.98132 0.96787 0.0
N291 N 0.4683 0.99224 0.96697 0.0
N292 N 0.45553 0.98429 0.92822 0.0
C293 C 0.4375 0.97624 0.94408 0.0
H294 H 0.49163 1.00128 0.93538 0.0
H295 H 0.43518 0.97666 0.98484 0.0
C296 C 0.51406 0.04618 0.98984 0.0
N297 N 0.52972 0.01489 0.0553 0.0
C298 C 0.52291 0.01733 0.07916 0.0
C299 C 0.55391 0.02207 0.05477 0.0
N300 N 0.5418 0.02614 0.09339 0.0
C301 C 0.56136 0.02905 0.07814 0.0
C302 C 0.53581 0.98129 0.99216 0.0
O303 O 0.49866 0.03189 0.97828 0.0
O304 O 0.52113 0.03895 0.0117 0.0
O305 O 0.53723 0.99026 0.0138 0.0
O306 O 0.51551 0.98321 0.97998 0.0
O307 O 0.49916 0.97562 0.04426 0.0
H308 H 0.56513 0.02324 0.0382 0.0
H309 H 0.50414 0.01416 0.08562 0.0
O310 O 0.47732 0.96795 0.01058 0.0
O311 O 0.4604 0.01653 0.00883 0.0
O312 O 0.48282 0.02437 0.042 0.0
C313 C 0.46226 0.02591 0.0303 0.0
H314 H 0.42009 0.967 0.93883 0.0
H315 H 0.57954 0.03649 0.08333 0.0
Co316 Co 0.52394 0.53066 0.51305 0.0
C317 C 0.48387 0.53295 0.47928 0.0
Co318 Co 0.48915 0.51289 0.52743 0.0
C319 C 0.57584 0.53878 0.50158 0.0
C320 C 0.55327 0.56819 0.48501 0.0
N321 N 0.55228 0.54644 0.49982 0.0
N322 N 0.59132 0.55475 0.48813 0.0
C323 C 0.57722 0.57325 0.47767 0.0
H324 H 0.58143 0.52154 0.51199 0.0
H325 H 0.53751 0.57955 0.4797 0.0
C326 C 0.52917 0.51039 0.56118 0.0
N327 N 0.46077 0.49731 0.54056 0.0
C328 C 0.43731 0.50503 0.53792 0.0
C329 C 0.45932 0.47581 0.55567 0.0
N330 N 0.42133 0.4893 0.551 0.0
C331 C 0.43511 0.4709 0.56221 0.0
C332 C 0.51855 0.47908 0.50401 0.0
O333 O 0.54123 0.52143 0.54325 0.0
O334 O 0.50612 0.50577 0.55833 0.0
O335 O 0.49871 0.48081 0.51608 0.0
O336 O 0.53233 0.49907 0.49984 0.0
O337 O 0.47239 0.52002 0.49648 0.0
H338 H 0.47492 0.46452 0.56167 0.0
H339 H 0.43212 0.52215 0.52705 0.0
O340 O 0.50638 0.53967 0.48289 0.0
O341 O 0.51543 0.56214 0.52635 0.0
O342 O 0.47972 0.54514 0.53867 0.0
C343 C 0.49462 0.56452 0.53645 0.0
H344 H 0.58383 0.58937 0.46573 0.0
H345 H 0.42812 0.45491 0.5741 0.0
Co346 Co 0.01158 0.50151 0.99716 0.0
C347 C 0.96538 0.47716 0.99389 0.0
Co348 Co 0.99054 0.50264 0.0318 0.0
C349 C 0.03057 0.48302 0.95177 0.0
C350 C 0.04309 0.5217 0.95794 0.0
N351 N 0.02931 0.50184 0.96804 0.0
N352 N 0.04447 0.49038 0.93178 0.0
C353 C 0.05244 0.51472 0.93567 0.0
H354 H 0.02085 0.46454 0.95425 0.0
H355 H 0.04587 0.5402 0.9661 0.0
C356 C 0.03682 0.52691 0.03495 0.0
N357 N 0.97279 0.50224 0.06092 0.0
C358 C 0.9711 0.52109 0.07711 0.0
C359 C 0.95922 0.48221 0.07097 0.0
N360 N 0.95701 0.5136 0.09693 0.0
C361 C 0.94947 0.48913 0.09307 0.0
C362 C 0.02078 0.45966 0.03013 0.0
O363 O 0.03801 0.52006 0.01261 0.0
O364 O 0.01722 0.52148 0.04719 0.0
O365 O 0.00531 0.47084 0.04317 0.0
O366 O 0.02622 0.46968 0.00866 0.0
O367 O 0.96402 0.4839 0.01626 0.0
H368 H 0.95693 0.46359 0.06295 0.0
H369 H 0.98009 0.53992 0.07438 0.0
O370 O 0.98501 0.48281 0.9818 0.0
O371 O 0.9969 0.53338 0.98582 0.0
O372 O 0.97589 0.53444 0.02029 0.0
C373 C 0.98144 0.54456 0.99888 0.0
H374 H 0.06418 0.52669 0.92334 0.0
H375 H 0.93831 0.47682 0.10566 0.0
H376 H 0.17121 0.11918 0.30057 0.0
H377 H 0.15144 0.10064 0.33829 0.0
H378 H 0.08133 0.09732 0.29934 0.0
H379 H 0.10104 0.11552 0.26132 0.0
H380 H 0.07562 0.1155 0.34472 0.0
H381 H 0.11504 0.04273 0.31331 0.0
H382 H 0.14973 0.01854 0.29825 0.0
H383 H 0.18805 0.02686 0.36819 0.0
H384 H 0.15373 0.05143 0.38355 0.0
H385 H 0.00914 0.03548 0.43387 0.0
H386 H 0.02989 0.05333 0.39635 0.0
H387 H 0.09961 0.05417 0.43619 0.0
H388 H 0.07897 0.03591 0.47379 0.0
H389 H 0.10604 0.03763 0.39082 0.0
H390 H 0.06756 0.11036 0.42246 0.0
H391 H 0.03338 0.13498 0.43805 0.0
H392 H 0.99407 0.12734 0.36859 0.0
H393 H 0.0279 0.10245 0.35264 0.0
C394 C 0.15166 0.11415 0.29975 0.0
C395 C 0.13791 0.11886 0.27753 0.0
C396 C 0.14029 0.10357 0.32153 0.0
C397 C 0.1148 0.09724 0.32185 0.0
C398 C 0.10098 0.10201 0.29978 0.0
C399 C 0.11234 0.11255 0.27796 0.0
C400 C 0.10254 0.08602 0.34518 0.0
C401 C 0.08211 0.09826 0.35455 0.0
C402 C 0.11126 0.06391 0.35868 0.0
C403 C 0.13192 0.04916 0.34948 0.0
C404 C 0.13096 0.03959 0.3254 0.0
C405 C 0.15054 0.02578 0.31682 0.0
C406 C 0.17111 0.02124 0.33222 0.0
C407 C 0.17212 0.03044 0.35626 0.0
C408 C 0.1526 0.0443 0.36492 0.0
C409 C 0.0289 0.03943 0.43473 0.0
C410 C 0.04229 0.03422 0.45703 0.0
C411 C 0.04079 0.04982 0.41319 0.0
C412 C 0.0664 0.05555 0.41329 0.0
C413 C 0.07987 0.05005 0.43545 0.0
C414 C 0.06799 0.03961 0.45704 0.0
C415 C 0.07905 0.06704 0.39028 0.0
C416 C 0.09956 0.05488 0.38099 0.0
C417 C 0.07051 0.08931 0.37693 0.0
C418 C 0.05016 0.10432 0.38644 0.0
C419 C 0.05155 0.11376 0.41058 0.0
C420 C 0.03226 0.12779 0.41947 0.0
C421 C 0.01155 0.13263 0.40436 0.0
C422 C 0.01012 0.12353 0.38028 0.0
C423 C 0.02935 0.1095 0.37129 0.0
H424 H 0.99663 0.14349 0.41128 0.0
H425 H 0.18625 0.01053 0.32555 0.0
H426 H 0.4354 0.90276 0.70969 0.0
H427 H 0.43904 0.91406 0.75326 0.0
H428 H 0.4526 0.99378 0.72984 0.0
H429 H 0.44868 0.98268 0.68607 0.0
H430 H 0.48415 0.97741 0.76793 0.0
H431 H 0.39693 0.97512 0.75068 0.0
H432 H 0.35747 0.95606 0.73561 0.0
H433 H 0.3636 0.89275 0.78961 0.0
H434 H 0.40329 0.91124 0.80477 0.0
H435 H 0.46977 0.01947 0.89208 0.0
H436 H 0.46754 0.01425 0.84682 0.0
H437 H 0.4406 0.93565 0.86015 0.0
H438 H 0.44148 0.94154 0.90507 0.0
H439 H 0.41477 0.95567 0.82551 0.0
H440 H 0.50322 0.95588 0.84112 0.0
H441 H 0.54353 0.97378 0.8553 0.0
H442 H 0.53599 0.03951 0.80441 0.0
H443 H 0.49549 0.02218 0.79017 0.0
C444 C 0.43896 0.92274 0.71377 0.0
C445 C 0.44153 0.94185 0.6944 0.0
C446 C 0.44112 0.92915 0.73868 0.0
C447 C 0.44578 0.9548 0.74476 0.0
C448 C 0.44898 0.97387 0.72552 0.0
C449 C 0.4468 0.96747 0.70054 0.0
C450 C 0.44699 0.96162 0.77125 0.0
C451 C 0.4689 0.973 0.78053 0.0
C452 C 0.42719 0.9555 0.78766 0.0
C453 C 0.40318 0.94448 0.77874 0.0
C454 C 0.38995 0.95705 0.75923 0.0
C455 C 0.36753 0.94636 0.75069 0.0
C456 C 0.35806 0.92318 0.76162 0.0
C457 C 0.37096 0.91069 0.78116 0.0
C458 C 0.39341 0.92128 0.78975 0.0
C459 C 0.46352 1.00112 0.88515 0.0
C460 C 0.4557 0.98092 0.90183 0.0
C461 C 0.46236 0.99806 0.85936 0.0
C462 C 0.45417 0.97442 0.84995 0.0
C463 C 0.44685 0.95412 0.86682 0.0
C464 C 0.44738 0.95743 0.89247 0.0
C465 C 0.45231 0.97077 0.82262 0.0
C466 C 0.43012 0.96014 0.81306 0.0
C467 C 0.47195 0.9774 0.80604 0.0
C468 C 0.49622 0.98785 0.81476 0.0
C469 C 0.51008 0.97425 0.8331 0.0
C470 C 0.53297 0.98428 0.84112 0.0
C471 C 0.54228 0.00778 0.83077 0.0
C472 C 0.52873 0.02132 0.81241 0.0
C473 C 0.50582 0.0114 0.80436 0.0
H474 H 0.56003 0.01549 0.83689 0.0
H475 H 0.3407 0.91494 0.75497 0.0
H476 H 0.67092 0.40717 0.73008 0.0
H477 H 0.6506 0.4323 0.69659 0.0
H478 H 0.58039 0.41816 0.73259 0.0
H479 H 0.60064 0.39351 0.76659 0.0
H480 H 0.57834 0.40816 0.68274 0.0
H481 H 0.60813 0.47684 0.733 0.0
H482 H 0.63942 0.50198 0.75624 0.0
H483 H 0.68071 0.51744 0.68904 0.0
H484 H 0.64983 0.49207 0.66545 0.0
H485 H 0.50809 0.49033 0.60421 0.0
H486 H 0.52883 0.47175 0.64122 0.0
H487 H 0.59971 0.4904 0.60794 0.0
H488 H 0.57904 0.50963 0.57096 0.0
H489 H 0.60151 0.49863 0.65682 0.0
H490 H 0.57365 0.42961 0.60665 0.0
H491 H 0.54334 0.40418 0.58247 0.0
H492 H 0.50006 0.38836 0.64831 0.0
H493 H 0.52993 0.41405 0.67282 0.0
C494 C 0.65124 0.40982 0.73125 0.0
C495 C 0.63748 0.39826 0.75119 0.0
C496 C 0.63962 0.42413 0.71196 0.0
C497 C 0.61397 0.42723 0.7121 0.0
C498 C 0.60019 0.41596 0.73204 0.0
C499 C 0.61182 0.40177 0.75143 0.0
C500 C 0.60142 0.44131 0.69096 0.0
C501 C 0.58313 0.42807 0.67733 0.0
C502 C 0.60821 0.46703 0.68338 0.0
C503 C 0.62678 0.48234 0.69751 0.0
C504 C 0.62399 0.48542 0.72322 0.0
C505 C 0.64163 0.49975 0.73644 0.0
C506 C 0.66207 0.51125 0.72414 0.0
C507 C 0.66488 0.5085 0.69856 0.0
C508 C 0.6473 0.49416 0.68525 0.0
C509 C 0.5281 0.49074 0.60482 0.0
C510 C 0.5419 0.50132 0.58452 0.0
C511 C 0.53995 0.47999 0.62599 0.0
C512 C 0.56584 0.4792 0.62721 0.0
C513 C 0.57971 0.49068 0.60741 0.0
C514 C 0.56786 0.50164 0.58626 0.0
C515 C 0.57832 0.46553 0.6487 0.0
C516 C 0.59665 0.47876 0.6623 0.0
C517 C 0.57176 0.43968 0.65613 0.0
C518 C 0.55391 0.42396 0.64152 0.0
C519 C 0.55758 0.42085 0.61594 0.0
C520 C 0.54049 0.40638 0.60218 0.0
C521 C 0.51976 0.39472 0.61383 0.0
C522 C 0.51611 0.39744 0.6393 0.0
C523 C 0.53312 0.41194 0.65314 0.0
H524 H 0.50654 0.38352 0.60315 0.0
H525 H 0.67571 0.52234 0.73441 0.0
H526 H 0.88037 0.60163 0.2979 0.0
H527 H 0.8901 0.58223 0.25879 0.0
H528 H 0.95994 0.6248 0.25621 0.0
H529 H 0.95016 0.64459 0.29528 0.0
H530 H 0.93455 0.62595 0.21035 0.0
H531 H 0.96013 0.56363 0.27343 0.0
H532 H 0.95543 0.53501 0.31125 0.0
H533 H 0.89536 0.49362 0.2764 0.0
H534 H 0.89946 0.52224 0.23848 0.0
H535 H 0.98577 0.55181 0.11606 0.0
H536 H 0.97821 0.57457 0.15385 0.0
H537 H 0.90971 0.5307 0.16451 0.0
H538 H 0.91708 0.50801 0.12672 0.0
H539 H 0.93672 0.53094 0.20671 0.0
H540 H 0.91003 0.59358 0.14422 0.0
H541 H 0.91381 0.62247 0.10647 0.0
H542 H 0.97505 0.6633 0.1399 0.0
H543 H 0.97188 0.6344 0.17774 0.0
C544 C 0.89773 0.60698 0.28892 0.0
C545 C 0.91453 0.62459 0.29962 0.0
C546 C 0.90332 0.59578 0.26669 0.0
C547 C 0.9258 0.60197 0.25476 0.0
C548 C 0.94251 0.61977 0.2652 0.0
C549 C 0.937 0.63087 0.28757 0.0
C550 C 0.93181 0.58964 0.23144 0.0
C551 C 0.93543 0.6052 0.20957 0.0
C552 C 0.93242 0.56257 0.23044 0.0
C553 C 0.92996 0.54524 0.25319 0.0
C554 C 0.94578 0.54856 0.2739 0.0
C555 C 0.94325 0.53231 0.29535 0.0
C556 C 0.92507 0.51255 0.29625 0.0
C557 C 0.90942 0.50895 0.27568 0.0
C558 C 0.91185 0.52517 0.2542 0.0
C559 C 0.96892 0.54729 0.12622 0.0
C560 C 0.95205 0.52804 0.11841 0.0
C561 C 0.96465 0.56028 0.14784 0.0
C562 C 0.94335 0.55438 0.16192 0.0
C563 C 0.92633 0.53545 0.15398 0.0
C564 C 0.9306 0.52244 0.13242 0.0
C565 C 0.93916 0.5672 0.18546 0.0
C566 C 0.93595 0.5517 0.20744 0.0
C567 C 0.93885 0.59431 0.18649 0.0
C568 C 0.94088 0.61164 0.16372 0.0
C569 C 0.92446 0.60856 0.14343 0.0
C570 C 0.92646 0.62497 0.12204 0.0
C571 C 0.94469 0.64467 0.12078 0.0
C572 C 0.96096 0.64801 0.1409 0.0
C573 C 0.95906 0.63163 0.16234 0.0
H574 H 0.94614 0.65741 0.10424 0.0
H575 H 0.92314 0.49999 0.31287 0.0
H576 H 0.25133 0.10724 0.10794 0.0
H577 H 0.286 0.08805 0.08765 0.0
H578 H 0.33675 0.12321 0.13964 0.0
H579 H 0.30228 0.14301 0.15935 0.0
H580 H 0.35706 0.12785 0.09754 0.0
H581 H 0.31826 0.05512 0.14124 0.0
H582 H 0.28421 0.02462 0.15373 0.0
H583 H 0.27461 0.00353 0.07772 0.0
H584 H 0.30841 0.03415 0.06472 0.0
H585 H 0.46116 0.05197 0.07369 0.0
H586 H 0.42568 0.07076 0.09288 0.0
H587 H 0.37857 0.04557 0.03274 0.0
H588 H 0.41402 0.02675 0.0134 0.0
H589 H 0.35647 0.03568 0.07809 0.0
H590 H 0.39767 0.10847 0.03578 0.0
H591 H 0.43311 0.13797 0.02537 0.0
H592 H 0.43952 0.15792 0.10197 0.0
H593 H 0.40447 0.12809 0.11296 0.0
C594 C 0.26986 0.11073 0.11517 0.0
C595 C 0.27386 0.12679 0.13533 0.0
C596 C 0.2898 0.09963 0.10357 0.0
C597 C 0.31432 0.10372 0.11214 0.0
C598 C 0.31824 0.11966 0.13239 0.0
C599 C 0.29839 0.13104 0.14372 0.0
C600 C 0.33593 0.09192 0.09994 0.0
C601 C 0.35692 0.10759 0.09367 0.0
C602 C 0.33602 0.06554 0.09424 0.0
C603 C 0.31569 0.04713 0.10198 0.0
C604 C 0.30876 0.04411 0.12716 0.0
C605 C 0.28953 0.02679 0.13434 0.0
C606 C 0.27721 0.0122 0.11652 0.0
C607 C 0.28414 0.01487 0.0915 0.0
C608 C 0.30335 0.03219 0.08422 0.0
C609 C 0.44329 0.05048 0.06444 0.0
C610 C 0.44063 0.03788 0.04183 0.0
C611 C 0.42294 0.06133 0.07546 0.0
C612 C 0.39927 0.05986 0.06427 0.0
C613 C 0.39652 0.04706 0.04184 0.0
C614 C 0.41691 0.03638 0.03069 0.0
C615 C 0.37746 0.0716 0.07593 0.0
C616 C 0.35648 0.05592 0.08203 0.0
C617 C 0.37752 0.09787 0.08182 0.0
C618 C 0.39858 0.11586 0.07523 0.0
C619 C 0.40678 0.11896 0.05045 0.0
C620 C 0.42681 0.13574 0.04445 0.0
C621 C 0.43864 0.14972 0.06302 0.0
C622 C 0.43042 0.14699 0.08763 0.0
C623 C 0.41048 0.13015 0.09376 0.0
H624 H 0.45412 0.16272 0.05833 0.0
H625 H 0.26232 0.99879 0.12211 0.0
H626 H 0.32731 0.97909 0.58046 0.0
H627 H 0.28396 0.99054 0.5763 0.0
H628 H 0.26714 0.92033 0.53907 0.0
H629 H 0.31061 0.90882 0.543 0.0
H630 H 0.24397 0.96432 0.51693 0.0
H631 H 0.25416 0.92063 0.59741 0.0
H632 H 0.27377 0.9127 0.63872 0.0
H633 H 0.25637 0.98868 0.65908 0.0
H634 H 0.23698 0.99721 0.61771 0.0
H635 H 0.11326 0.96277 0.53328 0.0
H636 H 0.15683 0.95197 0.5321 0.0
H637 H 0.17588 0.01535 0.57846 0.0
H638 H 0.13241 0.02605 0.57983 0.0
H639 H 0.19803 0.97362 0.59521 0.0
H640 H 0.18794 0.01792 0.51529 0.0
H641 H 0.16875 0.02675 0.47391 0.0
H642 H 0.18615 0.95122 0.45226 0.0
H643 H 0.20514 0.94179 0.49367 0.0
C644 C 0.31446 0.96629 0.57103 0.0
C645 C 0.32229 0.94303 0.56211 0.0
C646 C 0.28971 0.97278 0.56881 0.0
C647 C 0.27239 0.95616 0.55757 0.0
C648 C 0.28027 0.93337 0.54783 0.0
C649 C 0.30501 0.92675 0.55024 0.0
C650 C 0.24586 0.96207 0.5571 0.0
C651 C 0.23377 0.96606 0.534 0.0
C652 C 0.23282 0.96478 0.57942 0.0
C653 C 0.24434 0.95964 0.60437 0.0
C654 C 0.2547 0.93573 0.61061 0.0
C655 C 0.26574 0.93111 0.63406 0.0
C656 C 0.26637 0.9502 0.65149 0.0
C657 C 0.2559 0.97392 0.64554 0.0
C658 C 0.24486 0.97865 0.62211 0.0
C659 C 0.12678 0.97455 0.54298 0.0
C660 C 0.11941 0.99522 0.5567 0.0
C661 C 0.15167 0.96838 0.54229 0.0
C662 C 0.16965 0.98299 0.55503 0.0
C663 C 0.16232 0.00375 0.56856 0.0
C664 C 0.13746 0.0098 0.5694 0.0
C665 C 0.19603 0.97623 0.55499 0.0
C666 C 0.20813 0.97195 0.57807 0.0
C667 C 0.20906 0.97341 0.53263 0.0
C668 C 0.19774 0.97906 0.50768 0.0
C669 C 0.1875 0.00312 0.50178 0.0
C670 C 0.17669 0.00824 0.47831 0.0
C671 C 0.17617 0.98953 0.46049 0.0
C672 C 0.18653 0.96568 0.46609 0.0
C673 C 0.19733 0.96044 0.48955 0.0
H674 H 0.1678 0.99354 0.44233 0.0
H675 H 0.27493 0.94658 0.66964 0.0
H676 H 0.75608 0.37946 0.91544 0.0
H677 H 0.79149 0.39897 0.93732 0.0
H678 H 0.83807 0.38585 0.87493 0.0
H679 H 0.80287 0.36614 0.85316 0.0
H680 H 0.8615 0.37325 0.91656 0.0
H681 H 0.81647 0.44649 0.88638 0.0
H682 H 0.7801 0.47344 0.8805 0.0
H683 H 0.77567 0.47992 0.95981 0.0
H684 H 0.81184 0.4527 0.96618 0.0
H685 H 0.96293 0.45772 0.94729 0.0
H686 H 0.92722 0.43697 0.92706 0.0
H687 H 0.88384 0.44551 0.99277 0.0
H688 H 0.91939 0.46637 0.0131 0.0
H689 H 0.85873 0.46008 0.95039 0.0
H690 H 0.9053 0.38773 0.97992 0.0
H691 H 0.94232 0.36164 0.98492 0.0
H692 H 0.9444 0.35413 0.90562 0.0
H693 H 0.90769 0.38068 0.90007 0.0
C694 C 0.77383 0.38092 0.90632 0.0
C695 C 0.77662 0.3712 0.88255 0.0
C696 C 0.79409 0.39208 0.91885 0.0
C697 C 0.8175 0.39413 0.90772 0.0
C698 C 0.82028 0.38442 0.884 0.0
C699 C 0.80011 0.37311 0.87157 0.0
C700 C 0.83918 0.40619 0.92075 0.0
C701 C 0.86096 0.39238 0.92367 0.0
C702 C 0.83843 0.43095 0.93054 0.0
C703 C 0.8167 0.44733 0.92677 0.0
C704 C 0.80762 0.45349 0.90258 0.0
C705 C 0.78707 0.46885 0.89916 0.0
C706 C 0.77554 0.47833 0.91978 0.0
C707 C 0.78459 0.47253 0.94386 0.0
C708 C 0.80513 0.45715 0.94739 0.0
C709 C 0.94583 0.45509 0.9575 0.0
C710 C 0.94406 0.4637 0.98185 0.0
C711 C 0.92544 0.44315 0.94592 0.0
C712 C 0.90286 0.43952 0.95844 0.0
C713 C 0.90105 0.4481 0.98273 0.0
C714 C 0.92144 0.45994 0.99437 0.0
C715 C 0.881 0.42717 0.94609 0.0
C716 C 0.85922 0.44094 0.94331 0.0
C717 C 0.88181 0.40245 0.93628 0.0
C718 C 0.90387 0.38642 0.93956 0.0
C719 C 0.91378 0.38073 0.96352 0.0
C720 C 0.93471 0.36585 0.96645 0.0
C721 C 0.94577 0.35632 0.94559 0.0
C722 C 0.93587 0.3616 0.92175 0.0
C723 C 0.915 0.37657 0.9187 0.0
H724 H 0.96196 0.34479 0.94789 0.0
H725 H 0.75963 0.49022 0.91709 0.0
H726 H 0.81044 0.58129 0.41555 0.0
H727 H 0.7708 0.56153 0.42849 0.0
H728 H 0.78293 0.58767 0.5028 0.0
H729 H 0.82274 0.60778 0.48993 0.0
H730 H 0.7523 0.53124 0.48967 0.0
H731 H 0.75608 0.6274 0.48239 0.0
H732 H 0.77122 0.6673 0.45987 0.0
H733 H 0.7378 0.64175 0.39192 0.0
H734 H 0.72289 0.60148 0.41402 0.0
H735 H 0.62492 0.54217 0.52402 0.0
H736 H 0.67005 0.54414 0.51969 0.0
H737 H 0.66142 0.5641 0.44096 0.0
H738 H 0.61659 0.56321 0.44564 0.0
H739 H 0.69221 0.5959 0.45927 0.0
H740 H 0.68261 0.50381 0.46556 0.0
H741 H 0.66911 0.4615 0.48441 0.0
H742 H 0.71323 0.47548 0.54983 0.0
H743 H 0.72675 0.51804 0.5315 0.0
C744 C 0.80521 0.58192 0.43492 0.0
C745 C 0.81955 0.59628 0.45169 0.0
C746 C 0.78257 0.57058 0.44229 0.0
C747 C 0.77407 0.57319 0.46655 0.0
C748 C 0.78938 0.5853 0.48405 0.0
C749 C 0.81195 0.59696 0.47662 0.0
C750 C 0.74753 0.56861 0.4716 0.0
C751 C 0.73904 0.5454 0.48345 0.0
C752 C 0.73042 0.58688 0.46282 0.0
C753 C 0.73858 0.61143 0.44978 0.0
C754 C 0.7521 0.63027 0.46262 0.0
C755 C 0.76063 0.65293 0.44994 0.0
C756 C 0.75551 0.65704 0.42447 0.0
C757 C 0.74177 0.63853 0.41165 0.0
C758 C 0.73328 0.6158 0.42424 0.0
C759 C 0.63281 0.54657 0.50579 0.0
C760 C 0.61748 0.55278 0.48519 0.0
C761 C 0.65853 0.5476 0.50328 0.0
C762 C 0.66921 0.55422 0.47996 0.0
C763 C 0.65369 0.55918 0.45918 0.0
C764 C 0.62812 0.55867 0.46182 0.0
C765 C 0.69638 0.55822 0.47736 0.0
C766 C 0.70516 0.58155 0.46584 0.0
C767 C 0.71356 0.53982 0.48623 0.0
C768 C 0.70549 0.51423 0.49727 0.0
C769 C 0.68928 0.49795 0.48405 0.0
C770 C 0.68165 0.47391 0.49462 0.0
C771 C 0.69025 0.46584 0.51833 0.0
C772 C 0.70655 0.48177 0.53148 0.0
C773 C 0.71423 0.50585 0.521 0.0
H774 H 0.68432 0.44722 0.52648 0.0
H775 H 0.76215 0.67458 0.41467 0.0
H776 H 0.15518 0.26313 0.09995 0.0
H777 H 0.13367 0.29846 0.07824 0.0
H778 H 0.08379 0.30089 0.13995 0.0
H779 H 0.10455 0.26499 0.1613 0.0
H780 H 0.05852 0.30729 0.09808 0.0
H781 H 0.13388 0.3454 0.13028 0.0
H782 H 0.17899 0.35048 0.1363 0.0
H783 H 0.18808 0.36415 0.05726 0.0
H784 H 0.14302 0.35881 0.05074 0.0
H785 H 0.01185 0.4325 0.07455 0.0
H786 H 0.03248 0.39448 0.09198 0.0
H787 H 0.07798 0.39447 0.02667 0.0
H788 H 0.0575 0.43273 0.00915 0.0
H789 H 0.10562 0.38612 0.06817 0.0
H790 H 0.02993 0.34999 0.03623 0.0
H791 H 0.98476 0.34549 0.03042 0.0
H792 H 0.9762 0.3284 0.10906 0.0
H793 H 0.02132 0.33317 0.1154 0.0
C794 C 0.13943 0.27089 0.10882 0.0
C795 C 0.13187 0.2611 0.13261 0.0
C796 C 0.12726 0.29142 0.09645 0.0
C797 C 0.10723 0.30289 0.10752 0.0
C798 C 0.09922 0.29266 0.13093 0.0
C799 C 0.11134 0.27217 0.14328 0.0
C800 C 0.09473 0.3256 0.09498 0.0
C801 C 0.06886 0.3246 0.09182 0.0
C802 C 0.10804 0.34816 0.08612 0.0
C803 C 0.13511 0.35142 0.09 0.0
C804 C 0.14552 0.34929 0.11417 0.0
C805 C 0.17107 0.35225 0.11767 0.0
C806 C 0.1864 0.35756 0.09717 0.0
C807 C 0.17619 0.35999 0.07312 0.0
C808 C 0.15064 0.35701 0.06951 0.0
C809 C 0.02616 0.42439 0.06376 0.0
C810 C 0.03286 0.43578 0.04032 0.0
C811 C 0.03793 0.40249 0.07377 0.0
C812 C 0.05673 0.39122 0.06063 0.0
C813 C 0.06356 0.40263 0.03726 0.0
C814 C 0.05171 0.42452 0.02718 0.0
C815 C 0.06943 0.36786 0.07147 0.0
C816 C 0.0953 0.36875 0.07433 0.0
C817 C 0.05613 0.34521 0.08008 0.0
C818 C 0.029 0.34217 0.07632 0.0
C819 C 0.01841 0.34546 0.05231 0.0
C820 C 0.99281 0.34283 0.04892 0.0
C821 C 0.97761 0.33672 0.06936 0.0
C822 C 0.98799 0.33316 0.09324 0.0
C823 C 0.01358 0.3358 0.09675 0.0
H824 H 0.9578 0.33469 0.0667 0.0
H825 H 0.20618 0.35985 0.09992 0.0
H826 H 0.64681 0.24548 0.91432 0.0
H827 H 0.62306 0.21062 0.93622 0.0
H828 H 0.5769 0.20167 0.87081 0.0
H829 H 0.60006 0.23706 0.84906 0.0
H830 H 0.54961 0.1968 0.91262 0.0
H831 H 0.62412 0.16158 0.88365 0.0
H832 H 0.66915 0.1589 0.87868 0.0
H833 H 0.67849 0.14853 0.95816 0.0
H834 H 0.63352 0.15152 0.96362 0.0
H835 H 0.50331 0.0682 0.94342 0.0
H836 H 0.52281 0.10695 0.92322 0.0
H837 H 0.56846 0.11743 0.98873 0.0
H838 H 0.54924 0.07884 0.00895 0.0
H839 H 0.59549 0.12176 0.94679 0.0
H840 H 0.52057 0.15602 0.97563 0.0
H841 H 0.47548 0.15822 0.9803 0.0
H842 H 0.4667 0.16977 0.90086 0.0
H843 H 0.51175 0.16726 0.89568 0.0
C844 C 0.63135 0.23641 0.90472 0.0
C845 C 0.62552 0.24397 0.87983 0.0
C846 C 0.61791 0.2163 0.9172 0.0
C847 C 0.59842 0.2032 0.90504 0.0
C848 C 0.59193 0.21136 0.88055 0.0
C849 C 0.60535 0.23146 0.86806 0.0
C850 C 0.58543 0.18039 0.91749 0.0
C851 C 0.55961 0.18027 0.91985 0.0
C852 C 0.59846 0.15894 0.92729 0.0
C853 C 0.62549 0.15704 0.92406 0.0
C854 C 0.6358 0.15893 0.90008 0.0
C855 C 0.6613 0.15732 0.89717 0.0
C856 C 0.67667 0.15362 0.9181 0.0
C857 C 0.66656 0.15144 0.94197 0.0
C858 C 0.64107 0.15307 0.94498 0.0
C859 C 0.51736 0.07887 0.9536 0.0
C860 C 0.52467 0.07039 0.97783 0.0
C861 C 0.52845 0.10107 0.94205 0.0
C862 C 0.54704 0.1152 0.9545 0.0
C863 C 0.5542 0.10685 0.97874 0.0
C864 C 0.54309 0.08479 0.9903 0.0
C865 C 0.55969 0.1382 0.94208 0.0
C866 C 0.58547 0.13832 0.93964 0.0
C867 C 0.5466 0.15956 0.93219 0.0
C868 C 0.51952 0.16119 0.93525 0.0
C869 C 0.50901 0.15882 0.95913 0.0
C870 C 0.48346 0.16016 0.96188 0.0
C871 C 0.46823 0.16407 0.94088 0.0
C872 C 0.47853 0.16671 0.9171 0.0
C873 C 0.50407 0.16535 0.91425 0.0
H874 H 0.44845 0.16511 0.94304 0.0
H875 H 0.69642 0.15238 0.91581 0.0
H876 H 0.99961 0.73236 0.42264 0.0
H877 H 0.02313 0.76935 0.43843 0.0
H878 H 0.96593 0.77955 0.49192 0.0
H879 H 0.94262 0.74273 0.47645 0.0
H880 H 0.00842 0.81588 0.43383 0.0
H881 H 0.9855 0.81118 0.54056 0.0
H882 H 0.9837 0.77867 0.57561 0.0
H883 H 0.03311 0.73168 0.53753 0.0
H884 H 0.03553 0.76407 0.50241 0.0
H885 H 0.98045 0.93324 0.47889 0.0
H886 H 0.98289 0.88845 0.46841 0.0
H887 H 0.05038 0.8818 0.51161 0.0
H888 H 0.04798 0.9269 0.52248 0.0
H889 H 0.01847 0.8412 0.52146 0.0
H890 H 0.05407 0.88248 0.44962 0.0
H891 H 0.05842 0.91474 0.41454 0.0
H892 H 0.98985 0.88715 0.38275 0.0
H893 H 0.98487 0.85498 0.41783 0.0
C894 C 0.99238 0.74217 0.43816 0.0
C895 C 0.96921 0.73472 0.44822 0.0
C896 C 0.00585 0.76325 0.44719 0.0
C897 C 0.99639 0.7772 0.46644 0.0
C898 C 0.97395 0.7688 0.47746 0.0
C899 C 0.96056 0.7477 0.46854 0.0
C900 C 0.00772 0.80255 0.47256 0.0
C901 C 0.01102 0.82127 0.45299 0.0
C902 C 0.01176 0.80952 0.49751 0.0
C903 C 0.01062 0.79007 0.51877 0.0
C904 C 0.99614 0.79402 0.53972 0.0
C905 C 0.99497 0.77557 0.55959 0.0
C906 C 0.00825 0.75311 0.55878 0.0
C907 C 0.02277 0.74906 0.53811 0.0
C908 C 0.02402 0.76744 0.51819 0.0
C909 C 0.99591 0.92237 0.4861 0.0
C910 C 0.01403 0.93364 0.50151 0.0
C911 C 0.99735 0.89677 0.47997 0.0
C912 C 0.017 0.88191 0.48896 0.0
C913 C 0.03515 0.89302 0.50439 0.0
C914 C 0.03376 0.91876 0.51052 0.0
C915 C 0.01765 0.85452 0.4828 0.0
C916 C 0.01658 0.83553 0.50232 0.0
C917 C 0.01611 0.84717 0.45779 0.0
C918 C 0.01908 0.86633 0.43644 0.0
C919 C 0.03984 0.88337 0.43523 0.0
C920 C 0.04243 0.90164 0.41533 0.0
C921 C 0.02442 0.903 0.39644 0.0
C922 C 0.0038 0.88606 0.39739 0.0
C923 C 1.00111 0.86776 0.41726 0.0
H924 H 0.02645 0.91717 0.38105 0.0
H925 H 0.00731 0.73885 0.57418 0.0
H926 H 0.48284 0.80089 0.58686 0.0
H927 H 0.48974 0.75531 0.58165 0.0
H928 H 0.41344 0.74357 0.55952 0.0
H929 H 0.40627 0.78917 0.56512 0.0
H930 H 0.43037 0.70417 0.59222 0.0
H931 H 0.45487 0.74896 0.51572 0.0
H932 H 0.4771 0.78244 0.48972 0.0
H933 H 0.54656 0.75463 0.51727 0.0
H934 H 0.52471 0.7212 0.54373 0.0
H935 H 0.44807 0.58226 0.54016 0.0
H936 H 0.43667 0.62596 0.54887 0.0
H937 H 0.51371 0.64747 0.55972 0.0
H938 H 0.52517 0.60426 0.54969 0.0
H939 H 0.49382 0.68211 0.53175 0.0
H940 H 0.46923 0.63774 0.60944 0.0
H941 H 0.44679 0.60402 0.63502 0.0
H942 H 0.37763 0.63041 0.60525 0.0
H943 H 0.39968 0.66417 0.57932 0.0
C944 C 0.46745 0.78855 0.58118 0.0
C945 C 0.44404 0.79862 0.57629 0.0
C946 C 0.47145 0.76256 0.57808 0.0
C947 C 0.45214 0.74616 0.57 0.0
C948 C 0.42858 0.75595 0.56573 0.0
C949 C 0.42458 0.78201 0.56871 0.0
C950 C 0.45691 0.71903 0.56515 0.0
C951 C 0.44405 0.69925 0.57883 0.0
C952 C 0.47494 0.71273 0.54788 0.0
C953 C 0.48814 0.73273 0.53188 0.0
C954 C 0.47488 0.75012 0.51639 0.0
C955 C 0.48741 0.76906 0.50154 0.0
C956 C 0.51323 0.77071 0.50189 0.0
C957 C 0.52656 0.75336 0.51704 0.0
C958 C 0.51411 0.73439 0.53195 0.0
C959 C 0.4625 0.59628 0.54471 0.0
C960 C 0.48749 0.58995 0.54426 0.0
C961 C 0.45598 0.62122 0.54979 0.0
C962 C 0.4743 0.64002 0.55526 0.0
C963 C 0.49922 0.63338 0.55549 0.0
C964 C 0.50577 0.60867 0.54984 0.0
C965 C 0.46782 0.66699 0.55935 0.0
C966 C 0.48023 0.68686 0.5453 0.0
C967 C 0.44941 0.67328 0.57633 0.0
C968 C 0.43612 0.65334 0.5923 0.0
C969 C 0.44924 0.63629 0.60828 0.0
C970 C 0.43659 0.61718 0.62285 0.0
C971 C 0.4108 0.61505 0.62172 0.0
C972 C 0.3976 0.63209 0.6061 0.0
C973 C 0.41016 0.65124 0.5915 0.0
H974 H 0.40104 0.60021 0.63296 0.0
H975 H 0.5229 0.78539 0.49038 0.0
H976 H 0.86727 0.8621 0.74133 0.0
H977 H 0.88719 0.87954 0.70313 0.0
H978 H 0.90425 0.9508 0.73827 0.0
H979 H 0.88501 0.93342 0.77667 0.0
H980 H 0.88783 0.96056 0.69126 0.0
H981 H 0.94859 0.90688 0.73101 0.0
H982 H 0.96461 0.86667 0.75026 0.0
H983 H 0.9506 0.82858 0.68202 0.0
H984 H 0.93417 0.86849 0.66246 0.0
H985 H 0.00417 0.9753 0.60538 0.0
H986 H 0.98316 0.95792 0.64299 0.0
H987 H 0.91291 0.96292 0.60453 0.0
H988 H 0.9338 0.98064 0.56691 0.0
H989 H 0.95626 0.91549 0.65368 0.0
H990 H 0.86765 0.97396 0.64617 0.0
H991 H 0.854 0.016 0.6288 0.0
H992 H 0.92788 0.04782 0.636 0.0
H993 H 0.9419 0.00608 0.6537 0.0
C994 C 0.87543 0.88141 0.74114 0.0
C995 C 0.87435 0.89619 0.76244 0.0
C996 C 0.88679 0.89144 0.71911 0.0
C997 C 0.89745 0.91654 0.71766 0.0
C998 C 0.8961 0.93147 0.7387 0.0
C999 C 0.88489 0.92144 0.76075 0.0
C1000 C 0.91027 0.92719 0.69446 0.0
C1001 C 0.9027 0.95058 0.68301 0.0
C1002 C 0.93 0.91458 0.68368 0.0
C1003 C 0.93992 0.89059 0.69536 0.0
C1004 C 0.94874 0.88987 0.72017 0.0
C1005 C 0.95793 0.86714 0.73113 0.0
C1006 C 0.95856 0.84506 0.7174 0.0
C1007 C 0.95006 0.84568 0.69265 0.0
C1008 C 0.94083 0.86835 0.68162 0.0
C1009 C 0.98423 0.97281 0.60488 0.0
C1010 C 0.97076 0.97955 0.58298 0.0
C1011 C 0.9722 0.96271 0.62646 0.0
C1012 C 0.94632 0.95919 0.62691 0.0
C1013 C 0.93282 0.96573 0.60499 0.0
C1014 C 0.94485 0.97583 0.58337 0.0
C1015 C 0.9336 0.9487 0.65025 0.0
C1016 C 0.94122 0.92535 0.66176 0.0
C1017 C 0.91413 0.96153 0.66127 0.0
C1018 C 0.90585 0.98682 0.65101 0.0
C1019 C 0.88095 0.98996 0.64413 0.0
C1020 C 0.87316 0.01373 0.63421 0.0
C1021 C 0.89008 0.03455 0.63122 0.0
C1022 C 0.91481 0.03166 0.63824 0.0
C1023 C 0.9227 0.00795 0.64818 0.0
H1024 H 0.88401 0.05292 0.62352 0.0
H1025 H 0.96568 0.82749 0.72591 0.0
H1026 H 0.55895 0.09819 0.32202 0.0
H1027 H 0.53997 0.07493 0.28755 0.0
H1028 H 0.57313 0.1306 0.23461 0.0
H1029 H 0.59227 0.15357 0.26861 0.0
H1030 H 0.5262 0.11776 0.2209 0.0
H1031 H 0.60026 0.07384 0.25032 0.0
H1032 H 0.62549 0.0505 0.28208 0.0
H1033 H 0.56766 0.99227 0.29152 0.0
H1034 H 0.54197 0.0155 0.26001 0.0
H1035 H 0.56532 0.06768 0.11173 0.0
H1036 H 0.56255 0.08289 0.15386 0.0
H1037 H 0.51234 0.01925 0.17403 0.0
H1038 H 0.51492 0.00394 0.1314 0.0
H1039 H 0.55505 0.02982 0.20881 0.0
H1040 H 0.48613 0.07003 0.16993 0.0
H1041 H 0.46394 0.09344 0.13588 0.0
H1042 H 0.51368 0.15892 0.14278 0.0
H1043 H 0.53645 0.13576 0.17657 0.0
C1044 C 0.56209 0.10549 0.30302 0.0
C1045 C 0.57715 0.12775 0.29808 0.0
C1046 C 0.55115 0.09226 0.28338 0.0
C1047 C 0.55521 0.10101 0.25853 0.0
C1048 C 0.56954 0.12364 0.25365 0.0
C1049 C 0.58045 0.13681 0.27317 0.0
C1050 C 0.54627 0.08598 0.23726 0.0
C1051 C 0.53231 0.09845 0.21833 0.0
C1052 C 0.55364 0.06049 0.23424 0.0
C1053 C 0.56908 0.04656 0.25311 0.0
C1054 C 0.59286 0.05617 0.25933 0.0
C1055 C 0.60725 0.04295 0.27725 0.0
C1056 C 0.59814 0.01997 0.28888 0.0
C1057 C 0.57466 0.01012 0.28255 0.0
C1058 C 0.56017 0.0233 0.26467 0.0
C1059 C 0.55386 0.05679 0.12516 0.0
C1060 C 0.54044 0.03456 0.11842 0.0
C1061 C 0.55212 0.0656 0.14912 0.0
C1062 C 0.53711 0.05226 0.16688 0.0
C1063 C 0.52392 0.02981 0.16045 0.0
C1064 C 0.52535 0.02117 0.13621 0.0
C1065 C 0.53591 0.06207 0.19217 0.0
C1066 C 0.54805 0.04869 0.21179 0.0
C1067 C 0.527 0.08679 0.19577 0.0
C1068 C 0.51307 0.10108 0.17577 0.0
C1069 C 0.49244 0.08937 0.16411 0.0
C1070 C 0.47974 0.1026 0.14485 0.0
C1071 C 0.48742 0.12764 0.13716 0.0
C1072 C 0.50775 0.13952 0.14877 0.0
C1073 C 0.52053 0.12636 0.16801 0.0
H1074 H 0.47763 0.13782 0.12221 0.0
H1075 H 0.60932 0.00975 0.30274 0.0
H1076 H 0.36491 0.6397 0.29185 0.0
H1077 H 0.38393 0.6256 0.33165 0.0
H1078 H 0.40885 0.55754 0.29834 0.0
H1079 H 0.39104 0.57204 0.25832 0.0
H1080 H 0.37802 0.5854 0.36354 0.0
H1081 H 0.46451 0.54171 0.32186 0.0
H1082 H 0.49077 0.54809 0.28466 0.0
H1083 H 0.4702 0.62702 0.2761 0.0
H1084 H 0.44412 0.62121 0.31342 0.0
H1085 H 0.44002 0.51376 0.4604 0.0
H1086 H 0.41919 0.52736 0.42138 0.0
H1087 H 0.47758 0.58449 0.40636 0.0
H1088 H 0.49896 0.57018 0.44465 0.0
H1089 H 0.4666 0.56401 0.36569 0.0
H1090 H 0.41817 0.59889 0.42918 0.0
H1091 H 0.39356 0.59726 0.46762 0.0
H1092 H 0.34054 0.54533 0.4347 0.0
H1093 H 0.36501 0.54639 0.39617 0.0
C1094 C 0.37459 0.62181 0.29292 0.0
C1095 C 0.37651 0.60713 0.27172 0.0
C1096 C 0.38525 0.61364 0.31579 0.0
C1097 C 0.39812 0.59065 0.31797 0.0
C1098 C 0.39935 0.57554 0.29708 0.0
C1099 C 0.38886 0.58375 0.27421 0.0
C1100 C 0.4109 0.58281 0.3418 0.0
C1101 C 0.39738 0.5807 0.36402 0.0
C1102 C 0.4363 0.57717 0.34261 0.0
C1103 C 0.45216 0.58092 0.32028 0.0
C1104 C 0.46567 0.56044 0.31208 0.0
C1105 C 0.48051 0.56396 0.29097 0.0
C1106 C 0.48208 0.58791 0.27797 0.0
C1107 C 0.46889 0.60844 0.28612 0.0
C1108 C 0.45406 0.60504 0.30723 0.0
C1109 C 0.44842 0.52917 0.44873 0.0
C1110 C 0.47114 0.54089 0.45563 0.0
C1111 C 0.43641 0.53707 0.42648 0.0
C1112 C 0.44656 0.55728 0.41099 0.0
C1113 C 0.46933 0.56885 0.41787 0.0
C1114 C 0.48154 0.56067 0.43984 0.0
C1115 C 0.43371 0.56632 0.38753 0.0
C1116 C 0.44722 0.56864 0.3653 0.0
C1117 C 0.4085 0.57288 0.3869 0.0
C1118 C 0.39354 0.57255 0.40988 0.0
C1119 C 0.40133 0.58702 0.43019 0.0
C1120 C 0.3874 0.58621 0.45199 0.0
C1121 C 0.36553 0.57115 0.45363 0.0
C1122 C 0.35749 0.55696 0.43342 0.0
C1123 C 0.37137 0.55768 0.41158 0.0
H1124 H 0.35479 0.57051 0.47053 0.0
H1125 H 0.49357 0.59059 0.26163 0.0
H1126 H 0.05554 0.3872 0.72029 0.0
H1127 H 0.04442 0.40557 0.75957 0.0
H1128 H 0.10985 0.37492 0.79493 0.0
H1129 H 0.12154 0.35731 0.75564 0.0
H1130 H 0.03565 0.38773 0.80792 0.0
H1131 H 0.13592 0.42128 0.83025 0.0
H1132 H 0.17491 0.43217 0.8082 0.0
H1133 H 0.13411 0.45358 0.74157 0.0
H1134 H 0.09491 0.44319 0.76333 0.0
H1135 H 0.04384 0.43833 0.92952 0.0
H1136 H 0.05092 0.41382 0.89271 0.0
H1137 H 0.0623 0.48471 0.84847 0.0
H1138 H 0.05501 0.50929 0.88499 0.0
H1139 H 0.09728 0.45134 0.83989 0.0
H1140 H 0.0088 0.45025 0.84388 0.0
H1141 H 0.96843 0.44255 0.86416 0.0
H1142 H 0.9826 0.36202 0.87457 0.0
H1143 H 0.02324 0.36931 0.85464 0.0
C1144 C 0.06748 0.38426 0.73648 0.0
C1145 C 0.08957 0.37105 0.73476 0.0
C1146 C 0.06098 0.39453 0.75895 0.0
C1147 C 0.07648 0.39185 0.78003 0.0
C1148 C 0.09777 0.3774 0.77878 0.0
C1149 C 0.10431 0.36719 0.75634 0.0
C1150 C 0.07162 0.40608 0.80256 0.0
C1151 C 0.04914 0.40153 0.81502 0.0
C1152 C 0.08906 0.42444 0.8115 0.0
C1153 C 0.11252 0.43118 0.79835 0.0
C1154 C 0.13529 0.42841 0.81092 0.0
C1155 C 0.15742 0.43448 0.79847 0.0
C1156 C 0.15699 0.44348 0.77348 0.0
C1157 C 0.13442 0.44653 0.76091 0.0
C1158 C 0.11225 0.44052 0.77328 0.0
C1159 C 0.04763 0.44871 0.91192 0.0
C1160 C 0.04887 0.4758 0.91024 0.0
C1161 C 0.05171 0.43467 0.89092 0.0
C1162 C 0.05699 0.44747 0.86785 0.0
C1163 C 0.05836 0.47447 0.86614 0.0
C1164 C 0.05429 0.48849 0.88708 0.0
C1165 C 0.0614 0.43287 0.84546 0.0
C1166 C 0.08384 0.43736 0.83298 0.0
C1167 C 0.0437 0.41489 0.83628 0.0
C1168 C 0.01916 0.41037 0.84798 0.0
C1169 C 1.00338 0.43093 0.85065 0.0
C1170 C 0.98045 0.42664 0.86205 0.0
C1171 C 0.97298 0.40183 0.8707 0.0
C1172 C 0.98842 0.38124 0.86789 0.0
C1173 C 0.0114 0.38543 0.85652 0.0
H1174 H 0.9552 0.39858 0.87949 0.0
H1175 H 0.17414 0.44814 0.76387 0.0
H1176 H 0.75129 0.90148 0.93577 0.0
H1177 H 0.7131 0.91766 0.95152 0.0
H1178 H 0.67392 0.89349 0.88576 0.0
H1179 H 0.71214 0.87686 0.86989 0.0
H1180 H 0.66 0.94095 0.89765 0.0
H1181 H 0.66819 0.85933 0.94275 0.0
H1182 H 0.68968 0.8268 0.9692 0.0
H1183 H 0.69683 0.87962 0.02809 0.0
H1184 H 0.67567 0.91259 1.00186 0.0
H1185 H 0.53988 0.9597 0.94643 0.0
H1186 H 0.57637 0.9412 0.92873 0.0
H1187 H 0.61844 0.95805 0.99517 0.0
H1188 H 0.58202 0.97604 0.01309 0.0
H1189 H 0.62999 0.91278 0.98196 0.0
H1190 H 0.62482 0.99468 0.93846 0.0
H1191 H 0.60532 0.02939 0.91308 0.0
H1192 H 0.59449 0.97894 0.85261 0.0
H1193 H 0.61364 0.94377 0.8778 0.0
C1194 C 0.73456 0.89917 0.92469 0.0
C1195 C 0.73506 0.88744 0.90154 0.0
C1196 C 0.7126 0.90861 0.93377 0.0
C1197 C 0.6903 0.90657 0.92011 0.0
C1198 C 0.69075 0.89534 0.89678 0.0
C1199 C 0.71276 0.88586 0.88766 0.0
C1200 C 0.66668 0.91616 0.93022 0.0
C1201 C 0.65324 0.93442 0.91591 0.0
C1202 C 0.65799 0.90837 0.95438 0.0
C1203 C 0.67052 0.88849 0.97026 0.0
C1204 C 0.67449 0.86406 0.96128 0.0
C1205 C 0.68659 0.84554 0.97625 0.0
C1206 C 0.69466 0.85116 1.00029 0.0
C1207 C 0.69058 0.8753 0.00946 0.0
C1208 C 0.67851 0.8939 0.99456 0.0
C1209 C 0.55688 0.95942 0.95732 0.0
C1210 C 0.55785 0.96945 0.98126 0.0
C1211 C 0.57788 0.94893 0.94708 0.0
C1212 C 0.60053 0.94837 0.96037 0.0
C1213 C 0.60137 0.95811 0.9844 0.0
C1214 C 0.58042 0.96851 0.99465 0.0
C1215 C 0.62331 0.93769 0.94945 0.0
C1216 C 0.63661 0.91921 0.96361 0.0
C1217 C 0.63204 0.94553 0.92531 0.0
C1218 C 0.62042 0.96653 0.91011 0.0
C1219 C 0.61809 0.99092 0.91983 0.0
C1220 C 0.60713 0.01068 0.90547 0.0
C1221 C 0.59862 0.00636 0.88128 0.0
C1222 C 0.60106 0.98225 0.87138 0.0
C1223 C 0.61197 0.96239 0.88568 0.0
H1224 H 0.59026 0.02175 0.87021 0.0
H1225 H 0.70404 0.8368 0.01185 0.0
H1226 H 0.71914 0.1408 0.46078 0.0
H1227 H 0.75455 0.11933 0.48019 0.0
H1228 H 0.746 0.05874 0.4284 0.0
H1229 H 0.71027 0.07981 0.40925 0.0
H1230 H 0.76041 0.0405 0.47598 0.0
H1231 H 0.78407 0.10839 0.41465 0.0
H1232 H 0.7848 0.153 0.39671 0.0
H1233 H 0.81758 0.17989 0.46442 0.0
H1234 H 0.81669 0.13544 0.4829 0.0
H1235 H 0.87964 0.99531 0.45745 0.0
H1236 H 0.83841 0.01269 0.45529 0.0
H1237 H 0.86187 0.07168 0.5051 0.0
H1238 H 0.90347 0.05492 0.50663 0.0
H1239 H 0.83887 0.09195 0.46543 0.0
H1240 H 0.82126 0.02283 0.52444 0.0
H1241 H 0.82077 0.97816 0.54215 0.0
H1242 H 0.77713 0.95327 0.47978 0.0
H1243 H 0.77765 0.99774 0.46149 0.0
C1244 C 0.72438 0.12254 0.45398 0.0
C1245 C 0.71212 0.11211 0.43332 0.0
C1246 C 0.74469 0.11038 0.465 0.0
C1247 C 0.75307 0.08766 0.45548 0.0
C1248 C 0.73985 0.0763 0.43597 0.0
C1249 C 0.71959 0.08847 0.42492 0.0
C1250 C 0.777 0.07716 0.46393 0.0
C1251 C 0.77761 0.05165 0.47365 0.0
C1252 C 0.79933 0.09199 0.46142 0.0
C1253 C 0.80004 0.11867 0.45026 0.0
C1254 C 0.79125 0.12385 0.42578 0.0
C1255 C 0.79172 0.14909 0.4155 0.0
C1256 C 0.80116 0.16928 0.42944 0.0
C1257 C 0.81022 0.16425 0.45366 0.0
C1258 C 0.80974 0.13904 0.46405 0.0
C1259 C 0.87606 0.01197 0.46796 0.0
C1260 C 0.89494 0.0238 0.48208 0.0
C1261 C 0.85236 0.02169 0.46698 0.0
C1262 C 0.84696 0.04332 0.48026 0.0
C1263 C 0.8656 0.05487 0.49481 0.0
C1264 C 0.88935 0.04516 0.49578 0.0
C1265 C 0.82247 0.05504 0.47722 0.0
C1266 C 0.82172 0.08083 0.46834 0.0
C1267 C 0.80008 0.04043 0.48056 0.0
C1268 C 0.79964 0.01363 0.4915 0.0
C1269 C 0.81171 0.00781 0.51439 0.0
C1270 C 0.8114 0.98252 0.52456 0.0
C1271 C 0.79896 0.96289 0.51208 0.0
C1272 C 0.78677 0.9685 0.48943 0.0
C1273 C 0.78703 0.99376 0.47917 0.0
H1274 H 0.79875 0.94332 0.51998 0.0
H1275 H 0.80151 0.18881 0.42145 0.0
H1276 H 0.25381 0.60237 0.09617 0.0
H1277 H 0.21315 0.58908 0.08041 0.0
H1278 H 0.17937 0.61656 0.14585 0.0
H1279 H 0.22014 0.63052 0.16165 0.0
H1280 H 0.16069 0.56833 0.13366 0.0
H1281 H 0.17486 0.65104 0.09203 0.0
H1282 H 0.19842 0.68441 0.06713 0.0
H1283 H 0.19913 0.63494 0.00545 0.0
H1284 H 0.17587 0.60111 0.03011 0.0
H1285 H 0.03994 0.54852 0.0807 0.0
H1286 H 0.07651 0.56863 0.10017 0.0
H1287 H 0.11945 0.55411 0.03551 0.0
H1288 H 0.08298 0.53485 0.01572 0.0
H1289 H 0.13131 0.59975 0.04992 0.0
H1290 H 0.12142 0.5158 0.09183 0.0
H1291 H 0.09905 0.48112 0.11623 0.0
H1292 H 0.09144 0.53131 0.17661 0.0
H1293 H 0.11351 0.5664 0.15242 0.0
C1294 C 0.23777 0.60601 0.10712 0.0
C1295 C 0.24035 0.61783 0.13011 0.0
C1296 C 0.21449 0.59826 0.09809 0.0
C1297 C 0.19315 0.6021 0.11179 0.0
C1298 C 0.19558 0.61344 0.13495 0.0
C1299 C 0.21893 0.62133 0.14398 0.0
C1300 C 0.16843 0.59405 0.10181 0.0
C1301 C 0.15403 0.57553 0.11555 0.0
C1302 C 0.15995 0.60307 0.07796 0.0
C1303 C 0.17377 0.62347 0.063 0.0
C1304 C 0.18019 0.6472 0.07322 0.0
C1305 C 0.19347 0.66622 0.05914 0.0
C1306 C 0.20031 0.66178 0.03474 0.0
C1307 C 0.19383 0.63834 0.02435 0.0
C1308 C 0.18057 0.61926 0.03837 0.0
C1309 C 0.05716 0.54975 0.0706 0.0
C1310 C 0.05853 0.53999 0.04668 0.0
C1311 C 0.07811 0.56113 0.08181 0.0
C1312 C 0.10092 0.5626 0.06949 0.0
C1313 C 0.10213 0.55327 0.04544 0.0
C1314 C 0.08121 0.54217 0.03415 0.0
C1315 C 0.12372 0.57355 0.0815 0.0
C1316 C 0.13779 0.59269 0.06815 0.0
C1317 C 0.13198 0.56491 0.10559 0.0
C1318 C 0.11886 0.5438 0.12021 0.0
C1319 C 0.11482 0.51949 0.11024 0.0
C1320 C 0.10222 0.49975 0.12404 0.0
C1321 C 0.09376 0.50404 0.14793 0.0
C1322 C 0.09796 0.52804 0.15809 0.0
C1323 C 0.11053 0.54785 0.14435 0.0
H1324 H 0.08401 0.48874 0.15859 0.0
H1325 H 0.21059 0.67652 0.02387 0.0
H1326 H 0.18666 0.44075 0.56074 0.0
H1327 H 0.22236 0.46694 0.5453 0.0
H1328 H 0.26042 0.45234 0.61551 0.0
H1329 H 0.22541 0.42604 0.63081 0.0
H1330 H 0.26933 0.50171 0.59743 0.0
H1331 H 0.26803 0.41437 0.56649 0.0
H1332 H 0.24937 0.37902 0.54276 0.0
H1333 H 0.2487 0.4285 0.4762 0.0
H1334 H 0.26709 0.46424 0.49967 0.0
H1335 H 0.39383 0.47765 0.59166 0.0
H1336 H 0.34891 0.4783 0.59445 0.0
H1337 H 0.34427 0.50661 0.51756 0.0
H1338 H 0.38957 0.50598 0.51473 0.0
H1339 H 0.31358 0.46324 0.52882 0.0
H1340 H 0.328 0.54587 0.5591 0.0
H1341 H 0.34874 0.57935 0.58363 0.0
H1342 H 0.32604 0.53885 0.65168 0.0
H1343 H 0.30552 0.50486 0.6276 0.0
C1344 C 0.20257 0.44333 0.57294 0.0
C1345 C 0.20315 0.4312 0.59701 0.0
C1346 C 0.22286 0.45842 0.56414 0.0
C1347 C 0.24407 0.46149 0.57924 0.0
C1348 C 0.24417 0.45046 0.60363 0.0
C1349 C 0.22402 0.43541 0.61238 0.0
C1350 C 0.26731 0.47363 0.56925 0.0
C1351 C 0.27897 0.49352 0.58229 0.0
C1352 C 0.27951 0.4635 0.54894 0.0
C1353 C 0.26859 0.44202 0.53487 0.0
C1354 C 0.26373 0.41773 0.54684 0.0
C1355 C 0.25323 0.39764 0.53344 0.0
C1356 C 0.24777 0.40154 0.50801 0.0
C1357 C 0.25287 0.42553 0.49591 0.0
C1358 C 0.26332 0.44571 0.50925 0.0
C1359 C 0.38325 0.48416 0.57541 0.0
C1360 C 0.39508 0.4916 0.55295 0.0
C1361 C 0.35764 0.4848 0.57708 0.0
C1362 C 0.34332 0.49276 0.55628 0.0
C1363 C 0.35506 0.50061 0.53386 0.0
C1364 C 0.38084 0.50031 0.53229 0.0
C1365 C 0.31607 0.49042 0.55783 0.0
C1366 C 0.30364 0.47231 0.54325 0.0
C1367 C 0.30324 0.50214 0.57678 0.0
C1368 C 0.31523 0.52273 0.59148 0.0
C1369 C 0.32753 0.544 0.5793 0.0
C1370 C 0.33925 0.56309 0.59313 0.0
C1371 C 0.33872 0.56122 0.61919 0.0
C1372 C 0.32641 0.54028 0.63148 0.0
C1373 C 0.31468 0.52112 0.61774 0.0
H1374 H 0.34784 0.57601 0.62986 0.0
H1375 H 0.23964 0.38595 0.49766 0.0
H1376 H 0.90482 0.74837 0.87538 0.0
H1377 H 0.92318 0.7095 0.89383 0.0
H1378 H 0.87173 0.70834 0.95449 0.0
H1379 H 0.85356 0.74766 0.93638 0.0
H1380 H 0.91773 0.69839 0.97203 0.0
H1381 H 0.86494 0.66594 0.90749 0.0
H1382 H 0.84805 0.66334 0.86471 0.0
H1383 H 0.91957 0.64541 0.83822 0.0
H1384 H 0.93698 0.64825 0.8808 0.0
H1385 H 0.94482 0.57152 0.01994 0.0
H1386 H 0.92471 0.61004 0.00274 0.0
H1387 H 0.97119 0.61107 0.93804 0.0
H1388 H 0.99093 0.57224 0.95485 0.0
H1389 H 0.92643 0.62088 0.92315 0.0
H1390 H 0.97981 0.65468 0.9866 0.0
H1391 H 0.9975 0.65743 0.02905 0.0
H1392 H 0.92605 0.67302 0.05728 0.0
H1393 H 0.90786 0.67011 0.01499 0.0
C1394 C 0.89739 0.73998 0.8927 0.0
C1395 C 0.87758 0.75136 0.90428 0.0
C1396 C 0.90784 0.71751 0.90318 0.0
C1397 C 0.89881 0.70563 0.92555 0.0
C1398 C 0.87909 0.71696 0.93722 0.0
C1399 C 0.86853 0.7394 0.92668 0.0
C1400 C 0.91006 0.68158 0.93675 0.0
C1401 C 0.91928 0.68132 0.96143 0.0
C1402 C 0.91274 0.65934 0.92291 0.0
C1403 C 0.90231 0.65755 0.8973 0.0
C1404 C 0.87711 0.66164 0.89251 0.0
C1405 C 0.86744 0.66009 0.8683 0.0
C1406 C 0.88274 0.65428 0.84875 0.0
C1407 C 0.90775 0.64994 0.85338 0.0
C1408 C 0.91752 0.65149 0.87755 0.0
C1409 C 0.95087 0.57998 1.00209 0.0
C1410 C 0.96963 0.56867 0.98889 0.0
C1411 C 0.93938 0.60218 0.99227 0.0
C1412 C 0.94651 0.61392 0.9691 0.0
C1413 C 0.96522 0.60258 0.9559 0.0
C1414 C 0.97662 0.58033 0.96564 0.0
C1415 C 0.93432 0.6377 0.9584 0.0
C1416 C 0.92488 0.63791 0.9338 0.0
C1417 C 0.93157 0.65993 0.97228 0.0
C1418 C 0.94244 0.66193 0.99767 0.0
C1419 C 0.96784 0.65854 1.00188 0.0
C1420 C 0.97796 0.66016 0.0259 0.0
C1421 C 0.9629 0.66534 0.04585 0.0
C1422 C 0.93768 0.66899 0.0418 0.0
C1423 C 0.92747 0.66739 0.01781 0.0
H1424 H 0.97079 0.66659 0.06442 0.0
H1425 H 0.87521 0.65308 0.83002 0.0
H1426 H 0.41713 0.75212 0.16079 0.0
H1427 H 0.4357 0.79253 0.14316 0.0
H1428 H 0.38051 0.79388 0.08438 0.0
H1429 H 0.36204 0.75332 0.10173 0.0
H1430 H 0.42761 0.80322 0.06657 0.0
H1431 H 0.37705 0.83374 0.13131 0.0
H1432 H 0.36207 0.83562 0.17437 0.0
H1433 H 0.43505 0.85794 0.19939 0.0
H1434 H 0.45054 0.85584 0.15651 0.0
H1435 H 0.44703 0.92955 0.01528 0.0
H1436 H 0.42982 0.88978 0.03505 0.0
H1437 H 0.48153 0.89678 0.09651 0.0
H1438 H 0.49841 0.93719 0.0771 0.0
H1439 H 0.43783 0.88254 0.11384 0.0
H1440 H 0.48886 0.85294 0.05014 0.0
H1441 H 0.50504 0.85056 0.0076 0.0
H1442 H 0.43333 0.82549 0.98126 0.0
H1443 H 0.41662 0.82807 0.02359 0.0
C1444 C 0.40894 0.76104 0.14412 0.0
C1445 C 0.38807 0.74952 0.13269 0.0
C1446 C 0.41949 0.78422 0.13416 0.0
C1447 C 0.40943 0.79632 0.11251 0.0
C1448 C 0.38856 0.78491 0.10111 0.0
C1449 C 0.3779 0.76184 0.11117 0.0
C1450 C 0.421 0.82052 0.10137 0.0
C1451 C 0.42957 0.82067 0.07679 0.0
C1452 C 0.4243 0.84303 0.11498 0.0
C1453 C 0.415 0.84437 0.14075 0.0
C1454 C 0.38995 0.83884 0.14603 0.0
C1455 C 0.38136 0.83998 0.1704 0.0
C1456 C 0.39761 0.84683 0.18961 0.0
C1457 C 0.42248 0.85261 0.18449 0.0
C1458 C 0.43118 0.85146 0.16016 0.0
C1459 C 0.45485 0.92262 0.03296 0.0
C1460 C 0.47423 0.9365 0.04452 0.0
C1461 C 0.44504 0.89976 0.04422 0.0
C1462 C 0.45462 0.88995 0.06711 0.0
C1463 C 0.47385 0.90387 0.07882 0.0
C1464 C 0.48355 0.92693 0.06765 0.0
C1465 C 0.44428 0.86537 0.07888 0.0
C1466 C 0.43597 0.8651 0.1036 0.0
C1467 C 0.44143 0.84263 0.06548 0.0
C1468 C 0.45144 0.84092 0.04001 0.0
C1469 C 0.47649 0.8471 0.03524 0.0
C1470 C 0.48577 0.84568 0.01117 0.0
C1471 C 0.47021 0.83794 0.99173 0.0
C1472 C 0.44535 0.83152 0.99634 0.0
C1473 C 0.43598 0.83293 0.02037 0.0
H1474 H 0.47742 0.83686 0.97311 0.0
H1475 H 0.39093 0.84771 0.20847 0.0
H1476 H 0.0791 0.28739 0.53703 0.0
H1477 H 0.05603 0.25107 0.51933 0.0
H1478 H 0.02329 0.23221 0.5912 0.0
H1479 H 0.04553 0.26876 0.60853 0.0
H1480 H 0.06272 0.2043 0.53019 0.0
H1481 H 0.97181 0.19708 0.58897 0.0
H1482 H 0.94072 0.22626 0.60339 0.0
H1483 H 0.96026 0.2818 0.54439 0.0
H1484 H 0.99121 0.25282 0.52936 0.0
H1485 H 0.03117 0.07942 0.5632 0.0
H1486 H 0.03597 0.12595 0.56554 0.0
H1487 H 0.97689 0.13638 0.5116 0.0
H1488 H 0.97176 0.08946 0.50922 0.0
H1489 H 0.97751 0.17224 0.55026 0.0
H1490 H 0.03045 0.14243 0.48953 0.0
H1491 H 0.06003 0.11304 0.47262 0.0
H1492 H 0.11382 0.13438 0.5281 0.0
H1493 H 0.08436 0.16336 0.54581 0.0
C1494 C 0.06646 0.27582 0.5488 0.0
C1495 C 0.06406 0.28088 0.57413 0.0
C1496 C 0.05329 0.2551 0.5387 0.0
C1497 C 0.03772 0.23892 0.55383 0.0
C1498 C 0.03458 0.2447 0.57888 0.0
C1499 C 0.04743 0.26559 0.58885 0.0
C1500 C 0.0275 0.21414 0.54473 0.0
C1501 C 0.04395 0.19756 0.53421 0.0
C1502 C 1.00281 0.20536 0.54932 0.0
C1503 C 0.98394 0.22277 0.55809 0.0
C1504 C 0.96937 0.21543 0.57894 0.0
C1505 C 0.95179 0.23196 0.58726 0.0
C1506 C 0.94855 0.25588 0.57484 0.0
C1507 C 0.96284 0.2633 0.55404 0.0
C1508 C 0.98043 0.24683 0.54563 0.0
C1509 C 0.01887 0.09152 0.55212 0.0
C1510 C 1.00131 0.0808 0.53576 0.0
C1511 C 0.02167 0.11811 0.55347 0.0
C1512 C 0.00711 0.13452 0.53837 0.0
C1513 C 0.98837 0.12396 0.52328 0.0
C1514 C 0.98549 0.0972 0.52196 0.0
C1515 C 0.01317 0.16248 0.53718 0.0
C1516 C 0.99602 0.17946 0.54568 0.0
C1517 C 0.03699 0.17192 0.53008 0.0
C1518 C 0.05511 0.15504 0.51907 0.0
C1519 C 0.04854 0.14077 0.49822 0.0
C1520 C 0.06528 0.12417 0.48849 0.0
C1521 C 0.08879 0.12188 0.49925 0.0
C1522 C 0.09561 0.1362 0.51977 0.0
C1523 C 0.07889 0.15272 0.52966 0.0
H1524 H 0.10171 0.10902 0.49169 0.0
H1525 H 0.93495 0.26866 0.58133 0.0
H1526 H 0.56838 0.27092 0.39799 0.0
H1527 H 0.55217 0.31016 0.41363 0.0
H1528 H 0.59492 0.2989 0.48161 0.0
H1529 H 0.61169 0.2599 0.46569 0.0
H1530 H 0.52609 0.32299 0.45099 0.0
H1531 H 0.61623 0.35653 0.50117 0.0
H1532 H 0.66124 0.35138 0.49851 0.0
H1533 H 0.65353 0.33659 0.42067 0.0
H1534 H 0.60857 0.34203 0.42279 0.0
H1535 H 0.50113 0.43139 0.52024 0.0
H1536 H 0.51415 0.38975 0.50708 0.0
H1537 H 0.56492 0.42836 0.45502 0.0
H1538 H 0.55268 0.47004 0.46886 0.0
H1539 H 0.58665 0.39057 0.47716 0.0
H1540 H 0.50812 0.3999 0.43642 0.0
H1541 H 0.46345 0.40748 0.4334 0.0
H1542 H 0.44844 0.34087 0.48212 0.0
H1543 H 0.49307 0.33309 0.48569 0.0
C1544 C 0.574 0.2766 0.41644 0.0
C1545 C 0.59139 0.2625 0.43059 0.0
C1546 C 0.56475 0.29903 0.42535 0.0
C1547 C 0.57263 0.30771 0.44862 0.0
C1548 C 0.58899 0.29287 0.46337 0.0
C1549 C 0.5985 0.2706 0.45431 0.0
C1550 C 0.56465 0.33291 0.45676 0.0
C1551 C 0.53932 0.33774 0.45681 0.0
C1552 C 0.58193 0.3524 0.46378 0.0
C1553 C 0.60901 0.34939 0.46223 0.0
C1554 C 0.62417 0.35226 0.48348 0.0
C1555 C 0.64966 0.34929 0.48206 0.0
C1556 C 0.66022 0.34357 0.45946 0.0
C1557 C 0.64532 0.34092 0.43819 0.0
C1558 C 0.61983 0.34393 0.43949 0.0
C1559 C 0.51499 0.43099 0.5059 0.0
C1560 C 0.52582 0.45395 0.49547 0.0
C1561 C 0.52236 0.40718 0.49834 0.0
C1562 C 0.54027 0.4059 0.4798 0.0
C1563 C 0.55109 0.42885 0.46937 0.0
C1564 C 0.54402 0.45265 0.47723 0.0
C1565 C 0.54805 0.38067 0.47149 0.0
C1566 C 0.57338 0.3758 0.47147 0.0
C1567 C 0.5308 0.3615 0.46368 0.0
C1568 C 0.50395 0.36607 0.46151 0.0
C1569 C 0.4953 0.38698 0.44663 0.0
C1570 C 0.46999 0.39129 0.4448 0.0
C1571 C 0.45313 0.37471 0.45762 0.0
C1572 C 0.46153 0.35373 0.47223 0.0
C1573 C 0.48683 0.34934 0.47415 0.0
H1574 H 0.43354 0.37808 0.45618 0.0
H1575 H 0.67996 0.34124 0.45841 0.0
loop_
_geom_bond_atom_site_label_1
_geom_bond_atom_site_label_2
_geom_bond_distance
_geom_bond_site_symmetry_2
_ccdc_geom_bond_type
P0 O11 1.490 . S
P0 C14 1.812 . S
P0 C20 1.803 . S
P0 C26 1.819 . S
H1 C15 0.941 . S
H2 C16 0.939 . S
H3 C18 0.940 . S
H4 C19 0.940 . S
H5 C21 0.939 . S
H6 C22 0.942 . S
H7 C24 0.940 . S
H8 C25 0.939 . S
H9 C27 0.941 . S
H10 C31 0.939 . S
O11 P0 1.490 . S
H12 C28 0.939 . S
H13 C30 0.940 . S
C14 P0 1.812 . S
C14 C15 1.389 . S
C14 C19 1.391 . S
C15 H1 0.941 . S
C15 C14 1.389 . S
C15 C16 1.397 . S
C16 H2 0.939 . S
C16 C15 1.397 . S
C16 C17 1.378 . S
C17 C16 1.378 . S
C17 C18 1.378 . S
C18 H3 0.940 . S
C18 C17 1.378 . S
C18 C19 1.396 . S
C19 H4 0.940 . S
C19 C14 1.391 . S
C19 C18 1.396 . S
C20 P0 1.803 . S
C20 C21 1.378 . S
C20 C25 1.400 . S
C21 H5 0.939 . S
C21 C20 1.378 . S
C21 C22 1.361 . S
C22 H6 0.942 . S
C22 C21 1.361 . S
C22 C23 1.369 . S
C23 C22 1.369 . S
C23 C24 1.404 . S
C24 H7 0.940 . S
C24 C23 1.404 . S
C24 C25 1.389 . S
C25 H8 0.939 . S
C25 C20 1.400 . S
C25 C24 1.389 . S
C26 P0 1.819 . S
C26 C27 1.391 . S
C26 C31 1.391 . S
C27 H9 0.941 . S
C27 C26 1.391 . S
C27 C28 1.396 . S
C28 H12 0.939 . S
C28 C27 1.396 . S
C28 C29 1.397 . S
C29 C28 1.397 . S
C29 C30 1.385 . S
C30 H13 0.940 . S
C30 C29 1.385 . S
C30 C31 1.388 . S
C31 H10 0.939 . S
C31 C26 1.391 . S
C31 C30 1.388 . S
P32 O43 1.490 . S
P32 C46 1.812 . S
P32 C52 1.803 . S
P32 C58 1.819 . S
H33 C47 0.941 . S
H34 C48 0.939 . S
H35 C50 0.940 . S
H36 C51 0.940 . S
H37 C53 0.939 . S
H38 C54 0.942 . S
H39 C56 0.940 . S
H40 C57 0.939 . S
H41 C59 0.941 . S
H42 C63 0.939 . S
O43 P32 1.490 . S
H44 C60 0.939 . S
H45 C62 0.940 . S
C46 P32 1.812 . S
C46 C47 1.389 . S
C46 C51 1.391 . S
C47 H33 0.941 . S
C47 C46 1.389 . S
C47 C48 1.397 . S
C48 H34 0.939 . S
C48 C47 1.397 . S
C48 C49 1.378 . S
C49 C48 1.378 . S
C49 C50 1.378 . S
C50 H35 0.940 . S
C50 C49 1.378 . S
C50 C51 1.396 . S
C51 H36 0.940 . S
C51 C46 1.391 . S
C51 C50 1.396 . S
C52 P32 1.803 . S
C52 C53 1.378 . S
C52 C57 1.400 . S
C53 H37 0.939 . S
C53 C52 1.378 . S
C53 C54 1.361 . S
C54 H38 0.942 . S
C54 C53 1.361 . S
C54 C55 1.369 . S
C55 C54 1.369 . S
C55 C56 1.404 . S
C56 H39 0.940 . S
C56 C55 1.404 . S
C56 C57 1.389 . S
C57 H40 0.939 . S
C57 C52 1.400 . S
C57 C56 1.389 . S
C58 P32 1.819 . S
C58 C59 1.391 . S
C58 C63 1.391 . S
C59 H41 0.941 . S
C59 C58 1.391 . S
C59 C60 1.396 . S
C60 H44 0.939 . S
C60 C59 1.396 . S
C60 C61 1.397 . S
C61 C60 1.397 . S
C61 C62 1.385 . S
C62 H45 0.940 . S
C62 C61 1.385 . S
C62 C63 1.388 . S
C63 H42 0.939 . S
C63 C58 1.391 . S
C63 C62 1.388 . S
P64 O75 1.490 . S
P64 C78 1.812 . S
P64 C84 1.803 . S
P64 C90 1.819 . S
H65 C79 0.941 . S
H66 C80 0.939 . S
H67 C82 0.940 . S
H68 C83 0.940 . S
H69 C85 0.939 . S
H70 C86 0.942 . S
H71 C88 0.940 . S
H72 C89 0.939 . S
H73 C91 0.941 . S
H74 C95 0.939 . S
O75 P64 1.490 . S
H76 C92 0.939 . S
H77 C94 0.940 . S
C78 P64 1.812 . S
C78 C79 1.389 . S
C78 C83 1.391 . S
C79 H65 0.941 . S
C79 C78 1.389 . S
C79 C80 1.397 . S
C80 H66 0.939 . S
C80 C79 1.397 . S
C80 C81 1.378 . S
C81 C80 1.378 . S
C81 C82 1.378 . S
C82 H67 0.940 . S
C82 C81 1.378 . S
C82 C83 1.396 . S
C83 H68 0.940 . S
C83 C78 1.391 . S
C83 C82 1.396 . S
C84 P64 1.803 . S
C84 C85 1.378 . S
C84 C89 1.400 . S
C85 H69 0.939 . S
C85 C84 1.378 . S
C85 C86 1.361 . S
C86 H70 0.942 . S
C86 C85 1.361 . S
C86 C87 1.369 . S
C87 C86 1.369 . S
C87 C88 1.404 . S
C88 H71 0.940 . S
C88 C87 1.404 . S
C88 C89 1.389 . S
C89 H72 0.939 . S
C89 C84 1.400 . S
C89 C88 1.389 . S
C90 P64 1.819 . S
C90 C91 1.391 . S
C90 C95 1.391 . S
C91 H73 0.941 . S
C91 C90 1.391 . S
C91 C92 1.396 . S
C92 H76 0.939 . S
C92 C91 1.396 . S
C92 C93 1.397 . S
C93 C92 1.397 . S
C93 C94 1.385 . S
C94 H77 0.940 . S
C94 C93 1.385 . S
C94 C95 1.388 . S
C95 H74 0.939 . S
C95 C90 1.391 . S
C95 C94 1.388 . S
P96 O107 1.490 . S
P96 C110 1.812 . S
P96 C116 1.803 . S
P96 C122 1.819 . S
H97 C111 0.941 . S
H98 C112 0.939 . S
H99 C114 0.940 . S
H100 C115 0.940 . S
H101 C117 0.939 . S
H102 C118 0.942 . S
H103 C120 0.940 . S
H104 C121 0.939 . S
H105 C123 0.941 . S
H106 C127 0.939 . S
O107 P96 1.490 . S
H108 C124 0.939 . S
H109 C126 0.940 . S
C110 P96 1.812 . S
C110 C111 1.389 . S
C110 C115 1.391 . S
C111 H97 0.941 . S
C111 C110 1.389 . S
C111 C112 1.397 . S
C112 H98 0.939 . S
C112 C111 1.397 . S
C112 C113 1.378 . S
C113 C112 1.378 . S
C113 C114 1.378 . S
C114 H99 0.940 . S
C114 C113 1.378 . S
C114 C115 1.396 . S
C115 H100 0.940 . S
C115 C110 1.391 . S
C115 C114 1.396 . S
C116 P96 1.803 . S
C116 C117 1.378 . S
C116 C121 1.400 . S
C117 H101 0.939 . S
C117 C116 1.378 . S
C117 C118 1.361 . S
C118 H102 0.942 . S
C118 C117 1.361 . S
C118 C119 1.369 . S
C119 C118 1.369 . S
C119 C120 1.404 . S
C120 H103 0.940 . S
C120 C119 1.404 . S
C120 C121 1.389 . S
C121 H104 0.939 . S
C121 C116 1.400 . S
C121 C120 1.389 . S
C122 P96 1.819 . S
C122 C123 1.391 . S
C122 C127 1.391 . S
C123 H105 0.941 . S
C123 C122 1.391 . S
C123 C124 1.396 . S
C124 H108 0.939 . S
C124 C123 1.396 . S
C124 C125 1.397 . S
C125 C124 1.397 . S
C125 C126 1.385 . S
C126 H109 0.940 . S
C126 C125 1.385 . S
C126 C127 1.388 . S
C127 H106 0.939 . S
C127 C122 1.391 . S
C127 C126 1.388 . S
P128 O139 1.490 . S
P128 C142 1.812 . S
P128 C148 1.803 . S
P128 C154 1.819 . S
H129 C143 0.941 . S
H130 C144 0.939 . S
H131 C146 0.940 . S
H132 C147 0.940 . S
H133 C149 0.939 . S
H134 C150 0.942 . S
H135 C152 0.940 . S
H136 C153 0.939 . S
H137 C155 0.941 . S
H138 C159 0.939 . S
O139 P128 1.490 . S
H140 C156 0.939 . S
H141 C158 0.940 . S
C142 P128 1.812 . S
C142 C143 1.389 . S
C142 C147 1.391 . S
C143 H129 0.941 . S
C143 C142 1.389 . S
C143 C144 1.397 . S
C144 H130 0.939 . S
C144 C143 1.397 . S
C144 C145 1.378 . S
C145 C144 1.378 . S
C145 C146 1.378 . S
C146 H131 0.940 . S
C146 C145 1.378 . S
C146 C147 1.396 . S
C147 H132 0.940 . S
C147 C142 1.391 . S
C147 C146 1.396 . S
C148 P128 1.803 . S
C148 C149 1.378 . S
C148 C153 1.400 . S
C149 H133 0.939 . S
C149 C148 1.378 . S
C149 C150 1.361 . S
C150 H134 0.942 . S
C150 C149 1.361 . S
C150 C151 1.369 . S
C151 C150 1.369 . S
C151 C152 1.404 . S
C152 H135 0.940 . S
C152 C151 1.404 . S
C152 C153 1.389 . S
C153 H136 0.939 . S
C153 C148 1.400 . S
C153 C152 1.389 . S
C154 P128 1.819 . S
C154 C155 1.391 . S
C154 C159 1.391 . S
C155 H137 0.941 . S
C155 C154 1.391 . S
C155 C156 1.396 . S
C156 H140 0.939 . S
C156 C155 1.396 . S
C156 C157 1.397 . S
C157 C156 1.397 . S
C157 C158 1.385 . S
C158 H141 0.940 . S
C158 C157 1.385 . S
C158 C159 1.388 . S
C159 H138 0.939 . S
C159 C154 1.391 . S
C159 C158 1.388 . S
P160 O171 1.490 . S
P160 C174 1.812 . S
P160 C180 1.803 . S
P160 C186 1.819 . S
H161 C175 0.941 . S
H162 C176 0.939 . S
H163 C178 0.940 . S
H164 C179 0.940 . S
H165 C181 0.939 . S
H166 C182 0.942 . S
H167 C184 0.940 . S
H168 C185 0.939 . S
H169 C187 0.941 . S
H170 C191 0.939 . S
O171 P160 1.490 . S
H172 C188 0.939 . S
H173 C190 0.940 . S
C174 P160 1.812 . S
C174 C175 1.389 . S
C174 C179 1.391 . S
C175 H161 0.941 . S
C175 C174 1.389 . S
C175 C176 1.397 . S
C176 H162 0.939 . S
C176 C175 1.397 . S
C176 C177 1.378 . S
C177 C176 1.378 . S
C177 C178 1.378 . S
C178 H163 0.940 . S
C178 C177 1.378 . S
C178 C179 1.396 . S
C179 H164 0.940 . S
C179 C174 1.391 . S
C179 C178 1.396 . S
C180 P160 1.803 . S
C180 C181 1.378 . S
C180 C185 1.400 . S
C181 H165 0.939 . S
C181 C180 1.378 . S
C181 C182 1.361 . S
C182 H166 0.942 . S
C182 C181 1.361 . S
C182 C183 1.369 . S
C183 C182 1.369 . S
C183 C184 1.404 . S
C184 H167 0.940 . S
C184 C183 1.404 . S
C184 C185 1.389 . S
C185 H168 0.939 . S
C185 C180 1.400 . S
C185 C184 1.389 . S
C186 P160 1.819 . S
C186 C187 1.391 . S
C186 C191 1.391 . S
C187 H169 0.941 . S
C187 C186 1.391 . S
C187 C188 1.396 . S
C188 H172 0.939 . S
C188 C187 1.396 . S
C188 C189 1.397 . S
C189 C188 1.397 . S
C189 C190 1.385 . S
C190 H173 0.940 . S
C190 C189 1.385 . S
C190 C191 1.388 . S
C191 H170 0.939 . S
C191 C186 1.391 . S
C191 C190 1.388 . S
P192 O203 1.490 . S
P192 C206 1.812 . S
P192 C212 1.803 . S
P192 C218 1.819 . S
H193 C207 0.941 . S
H194 C208 0.939 . S
H195 C210 0.940 . S
H196 C211 0.940 . S
H197 C213 0.939 . S
H198 C214 0.942 . S
H199 C216 0.940 . S
H200 C217 0.939 . S
H201 C219 0.941 . S
H202 C223 0.939 . S
O203 P192 1.490 . S
H204 C220 0.939 . S
H205 C222 0.940 . S
C206 P192 1.812 . S
C206 C207 1.389 . S
C206 C211 1.391 . S
C207 H193 0.941 . S
C207 C206 1.389 . S
C207 C208 1.397 . S
C208 H194 0.939 . S
C208 C207 1.397 . S
C208 C209 1.378 . S
C209 C208 1.378 . S
C209 C210 1.378 . S
C210 H195 0.940 . S
C210 C209 1.378 . S
C210 C211 1.396 . S
C211 H196 0.940 . S
C211 C206 1.391 . S
C211 C210 1.396 . S
C212 P192 1.803 . S
C212 C213 1.378 . S
C212 C217 1.400 . S
C213 H197 0.939 . S
C213 C212 1.378 . S
C213 C214 1.361 . S
C214 H198 0.942 . S
C214 C213 1.361 . S
C214 C215 1.369 . S
C215 C214 1.369 . S
C215 C216 1.404 . S
C216 H199 0.940 . S
C216 C215 1.404 . S
C216 C217 1.389 . S
C217 H200 0.939 . S
C217 C212 1.400 . S
C217 C216 1.389 . S
C218 P192 1.819 . S
C218 C219 1.391 . S
C218 C223 1.391 . S
C219 H201 0.941 . S
C219 C218 1.391 . S
C219 C220 1.396 . S
C220 H204 0.939 . S
C220 C219 1.396 . S
C220 C221 1.397 . S
C221 C220 1.397 . S
C221 C222 1.385 . S
C222 H205 0.940 . S
C222 C221 1.385 . S
C222 C223 1.388 . S
C223 H202 0.939 . S
C223 C218 1.391 . S
C223 C222 1.388 . S
P224 O235 1.490 . S
P224 C238 1.812 . S
P224 C244 1.803 . S
P224 C250 1.819 . S
H225 C239 0.941 . S
H226 C240 0.939 . S
H227 C242 0.940 . S
H228 C243 0.940 . S
H229 C245 0.939 . S
H230 C246 0.942 . S
H231 C248 0.940 . S
H232 C249 0.939 . S
H233 C251 0.941 . S
H234 C255 0.939 . S
O235 P224 1.490 . S
H236 C252 0.939 . S
H237 C254 0.940 . S
C238 P224 1.812 . S
C238 C239 1.389 . S
C238 C243 1.391 . S
C239 H225 0.941 . S
C239 C238 1.389 . S
C239 C240 1.397 . S
C240 H226 0.939 . S
C240 C239 1.397 . S
C240 C241 1.378 . S
C241 C240 1.378 . S
C241 C242 1.378 . S
C242 H227 0.940 . S
C242 C241 1.378 . S
C242 C243 1.396 . S
C243 H228 0.940 . S
C243 C238 1.391 . S
C243 C242 1.396 . S
C244 P224 1.803 . S
C244 C245 1.378 . S
C244 C249 1.400 . S
C245 H229 0.939 . S
C245 C244 1.378 . S
C245 C246 1.361 . S
C246 H230 0.942 . S
C246 C245 1.361 . S
C246 C247 1.369 . S
C247 C246 1.369 . S
C247 C248 1.404 . S
C248 H231 0.940 . S
C248 C247 1.404 . S
C248 C249 1.389 . S
C249 H232 0.939 . S
C249 C244 1.400 . S
C249 C248 1.389 . S
C250 P224 1.819 . S
C250 C251 1.391 . S
C250 C255 1.391 . S
C251 H233 0.941 . S
C251 C250 1.391 . S
C251 C252 1.396 . S
C252 H236 0.939 . S
C252 C251 1.396 . S
C252 C253 1.397 . S
C253 C252 1.397 . S
C253 C254 1.385 . S
C254 H237 0.940 . S
C254 C253 1.385 . S
C254 C255 1.388 . S
C255 H234 0.939 . S
C255 C250 1.391 . S
C255 C254 1.388 . S
Co256 N261 2.057 . S
Co256 O273 2.021 . S
Co256 O276 2.062 . S
Co256 O280 2.117 1_545 S
Co256 O281 2.020 . S
C257 O277 1.259 1_655 S
C257 O280 1.258 . S
Co258 N267 2.057 . S
Co258 O274 2.117 1_565 S
Co258 O275 2.020 1_565 S
Co258 O277 2.021 . S
Co258 O282 2.062 . S
C259 N261 1.316 . S
C259 N262 1.347 . S
C259 H264 0.931 . S
C260 N261 1.375 . S
C260 C263 1.350 . S
C260 H265 0.930 1_545 S
N261 Co256 2.057 . S
N261 C259 1.316 . S
N261 C260 1.375 . S
N262 C259 1.347 . S
N262 C263 1.373 . S
C263 C260 1.350 . S
C263 N262 1.373 . S
C263 H284 0.931 . S
H264 C259 0.931 . S
H265 C260 0.930 1_565 S
C266 O273 1.259 1_455 S
C266 O274 1.258 . S
N267 Co258 2.057 . S
N267 C268 1.316 . S
N267 C269 1.375 1_565 S
C268 N267 1.316 . S
C268 N270 1.347 . S
C268 H279 0.931 . S
C269 N267 1.375 1_545 S
C269 C271 1.346 1_545 S
C269 H278 0.930 . S
N270 C268 1.347 . S
N270 C271 1.382 . S
C271 C269 1.346 1_565 S
C271 N270 1.382 . S
C271 H285 0.927 1_565 S
C272 O275 1.256 . S
C272 O276 1.255 1_455 S
O273 Co256 2.021 . S
O273 C266 1.259 1_655 S
O274 Co258 2.117 1_545 S
O274 C266 1.258 . S
O275 Co258 2.020 1_545 S
O275 C272 1.256 . S
O276 Co256 2.062 . S
O276 C272 1.255 1_655 S
O277 C257 1.259 1_455 S
O277 Co258 2.021 . S
H278 C269 0.930 . S
H279 C268 0.931 . S
O280 Co256 2.117 1_565 S
O280 C257 1.258 . S
O281 Co256 2.020 . S
O281 C283 1.256 1_545 S
O282 Co258 2.062 . S
O282 C283 1.255 1_455 S
C283 O281 1.256 1_565 S
C283 O282 1.255 1_655 S
H284 C263 0.931 . S
H285 C271 0.927 1_545 S
Co286 N291 2.057 1_545 S
Co286 O303 2.021 . S
Co286 O306 2.062 1_545 S
Co286 O310 2.117 1_546 S
Co286 O311 2.020 1_556 S
C287 O307 1.259 . S
C287 O310 1.258 . S
Co288 N297 2.057 . S
Co288 O304 2.117 . S
Co288 O305 2.020 . S
Co288 O307 2.021 1_545 S
Co288 O312 2.062 . S
C289 N291 1.316 . S
C289 N292 1.347 . S
C289 H294 0.931 1_565 S
C290 N291 1.375 . S
C290 C293 1.350 . S
C290 H295 0.930 . S
N291 Co286 2.057 1_565 S
N291 C289 1.316 . S
N291 C290 1.375 . S
N292 C289 1.347 . S
N292 C293 1.373 . S
C293 C290 1.350 . S
C293 N292 1.373 . S
C293 H314 0.931 . S
H294 C289 0.931 1_545 S
H295 C290 0.930 . S
C296 O303 1.259 . S
C296 O304 1.258 1_556 S
N297 Co288 2.057 . S
N297 C298 1.316 . S
N297 C299 1.375 . S
C298 N297 1.316 . S
C298 N300 1.347 . S
C298 H309 0.931 . S
C299 N297 1.375 . S
C299 C301 1.350 . S
C299 H308 0.930 . S
N300 C298 1.347 . S
N300 C301 1.373 . S
C301 C299 1.350 . S
C301 N300 1.373 . S
C301 H315 0.931 . S
C302 O305 1.256 1_566 S
C302 O306 1.255 . S
O303 Co286 2.021 . S
O303 C296 1.259 . S
O304 Co288 2.117 . S
O304 C296 1.258 1_554 S
O305 Co288 2.020 . S
O305 C302 1.256 1_544 S
O306 Co286 2.062 1_565 S
O306 C302 1.255 . S
O307 C287 1.259 . S
O307 Co288 2.021 1_565 S
H308 C299 0.930 . S
H309 C298 0.931 . S
O310 Co286 2.117 1_564 S
O310 C287 1.258 . S
O311 Co286 2.020 1_554 S
O311 C313 1.256 . S
O312 Co288 2.062 . S
O312 C313 1.255 . S
C313 O311 1.256 . S
C313 O312 1.255 . S
H314 C293 0.931 . S
H315 C301 0.931 . S
Co316 N321 2.057 . S
Co316 O333 2.021 . S
Co316 O336 2.062 . S
Co316 O340 2.117 . S
Co316 O341 2.020 . S
C317 O337 1.259 . S
C317 O340 1.258 . S
Co318 N327 2.057 . S
Co318 O334 2.117 . S
Co318 O335 2.020 . S
Co318 O337 2.021 . S
Co318 O342 2.062 . S
C319 N321 1.316 . S
C319 N322 1.347 . S
C319 H324 0.931 . S
C320 N321 1.375 . S
C320 C323 1.350 . S
C320 H325 0.930 . S
N321 Co316 2.057 . S
N321 C319 1.316 . S
N321 C320 1.375 . S
N322 C319 1.347 . S
N322 C323 1.373 . S
C323 C320 1.350 . S
C323 N322 1.373 . S
C323 H344 0.931 . S
H324 C319 0.931 . S
H325 C320 0.930 . S
C326 O333 1.259 . S
C326 O334 1.258 . S
N327 Co318 2.057 . S
N327 C328 1.316 . S
N327 C329 1.375 . S
C328 N327 1.316 . S
C328 N330 1.347 . S
C328 H339 0.931 . S
C329 N327 1.375 . S
C329 C331 1.350 . S
C329 H338 0.930 . S
N330 C328 1.347 . S
N330 C331 1.373 . S
C331 C329 1.350 . S
C331 N330 1.373 . S
C331 H345 0.931 . S
C332 O335 1.256 . S
C332 O336 1.255 . S
O333 Co316 2.021 . S
O333 C326 1.259 . S
O334 Co318 2.117 . S
O334 C326 1.258 . S
O335 Co318 2.020 . S
O335 C332 1.256 . S
O336 Co316 2.062 . S
O336 C332 1.255 . S
O337 C317 1.259 . S
O337 Co318 2.021 . S
H338 C329 0.930 . S
H339 C328 0.931 . S
O340 Co316 2.117 . S
O340 C317 1.258 . S
O341 Co316 2.020 . S
O341 C343 1.256 . S
O342 Co318 2.062 . S
O342 C343 1.255 . S
C343 O341 1.256 . S
C343 O342 1.255 . S
H344 C323 0.931 . S
H345 C331 0.931 . S
Co346 N351 2.057 . S
Co346 O363 2.021 . S
Co346 O366 2.051 1_556 S
Co346 O370 2.117 1_455 S
Co346 O371 2.008 1_455 S
C347 O367 1.271 . S
C347 O370 1.251 1_554 S
Co348 N357 2.057 . S
Co348 O364 2.117 1_655 S
Co348 O365 2.020 1_655 S
Co348 O367 2.021 . S
Co348 O372 2.062 . S
C349 N351 1.316 . S
C349 N352 1.347 . S
C349 H354 0.931 . S
C350 N351 1.375 1_655 S
C350 C353 1.350 1_655 S
C350 H355 0.930 . S
N351 Co346 2.057 . S
N351 C349 1.316 . S
N351 C350 1.375 1_455 S
N352 C349 1.347 . S
N352 C353 1.373 . S
C353 C350 1.350 1_455 S
C353 N352 1.373 . S
C353 H374 0.931 1_455 S
H354 C349 0.931 . S
H355 C350 0.930 . S
C356 O363 1.259 1_554 S
C356 O364 1.258 . S
N357 Co348 2.057 . S
N357 C358 1.316 . S
N357 C359 1.375 1_655 S
C358 N357 1.316 . S
C358 N360 1.347 . S
C358 H369 0.931 . S
C359 N357 1.375 1_455 S
C359 C361 1.350 1_455 S
C359 H368 0.930 . S
N360 C358 1.347 . S
N360 C361 1.373 . S
C361 C359 1.350 1_655 S
C361 N360 1.373 . S
C361 H375 0.931 1_655 S
C362 O365 1.256 . S
C362 O366 1.281 . S
O363 Co346 2.021 . S
O363 C356 1.259 1_556 S
O364 Co348 2.117 1_455 S
O364 C356 1.258 . S
O365 Co348 2.020 1_455 S
O365 C362 1.256 . S
O366 Co346 2.051 1_554 S
O366 C362 1.281 . S
O367 C347 1.271 . S
O367 Co348 2.021 . S
H368 C359 0.930 . S
H369 C358 0.931 . S
O370 Co346 2.117 1_655 S
O370 C347 1.251 1_556 S
O371 Co346 2.008 1_655 S
O371 C373 1.272 . S
O372 Co348 2.062 . S
O372 C373 1.255 1_554 S
C373 O371 1.272 . S
C373 O372 1.255 1_556 S
H374 C353 0.931 1_655 S
H375 C361 0.931 1_455 S
H376 C394 0.951 . S
H377 C396 0.951 . S
H378 C398 0.950 . S
H379 C399 0.950 . S
H380 C401 0.950 . S
H381 C404 0.950 . S
H382 C405 0.950 . S
H383 C407 0.950 . S
H384 C408 0.950 . S
H385 C409 0.951 1_655 S
H386 C411 0.951 . S
H387 C413 0.950 . S
H388 C414 0.950 . S
H389 C416 0.950 . S
H390 C419 0.950 . S
H391 C420 0.950 . S
H392 C422 0.950 . S
H393 C423 0.950 . S
C394 H376 0.951 . S
C394 C395 1.366 . S
C394 C396 1.388 . S
C395 C394 1.366 . S
C395 C399 1.385 . S
C396 H377 0.951 . S
C396 C394 1.388 . S
C396 C397 1.366 . S
C397 C396 1.366 . S
C397 C398 1.414 . S
C397 C400 1.499 . S
C398 H378 0.950 . S
C398 C397 1.414 . S
C398 C399 1.374 . S
C399 H379 0.950 . S
C399 C395 1.385 . S
C399 C398 1.374 . S
C400 C397 1.499 . S
C400 C401 1.373 . S
C400 C402 1.389 . S
C401 H380 0.950 . S
C401 C400 1.373 . S
C401 C417 1.377 . S
C402 C400 1.389 . S
C402 C403 1.524 . S
C402 C416 1.377 . S
C403 C402 1.524 . S
C403 C404 1.397 . S
C403 C408 1.363 . S
C404 H381 0.950 . S
C404 C403 1.397 . S
C404 C405 1.334 . S
C405 H382 0.950 . S
C405 C404 1.334 . S
C405 C406 1.287 . S
C406 C405 1.287 . S
C406 C407 1.524 . S
C406 H425 0.913 . S
C407 H383 0.950 . S
C407 C406 1.524 . S
C407 C408 1.415 . S
C408 H384 0.950 . S
C408 C403 1.363 . S
C408 C407 1.415 . S
C409 H385 0.951 1_455 S
C409 C410 1.366 . S
C409 C411 1.388 . S
C410 C409 1.366 . S
C410 C414 1.385 . S
C411 H386 0.951 . S
C411 C409 1.388 . S
C411 C412 1.366 . S
C412 C411 1.366 . S
C412 C413 1.414 . S
C412 C415 1.499 . S
C413 H387 0.950 . S
C413 C412 1.414 . S
C413 C414 1.374 . S
C414 H388 0.950 . S
C414 C410 1.385 . S
C414 C413 1.374 . S
C415 C412 1.499 . S
C415 C416 1.373 . S
C415 C417 1.389 . S
C416 H389 0.950 . S
C416 C402 1.377 . S
C416 C415 1.373 . S
C417 C401 1.377 . S
C417 C415 1.389 . S
C417 C418 1.524 . S
C418 C417 1.524 . S
C418 C419 1.397 . S
C418 C423 1.363 1_455 S
C419 H390 0.950 . S
C419 C418 1.397 . S
C419 C420 1.334 1_455 S
C420 H391 0.950 . S
C420 C419 1.334 1_655 S
C420 C421 1.287 . S
C421 C420 1.287 . S
C421 C422 1.524 . S
C421 H424 0.999 . S
C422 H392 0.950 . S
C422 C421 1.524 . S
C422 C423 1.415 . S
C423 H393 0.950 . S
C423 C418 1.363 1_655 S
C423 C422 1.415 . S
H424 C421 0.999 . S
H425 C406 0.913 . S
H426 C444 0.951 . S
H427 C446 0.951 . S
H428 C448 0.950 . S
H429 C449 0.950 . S
H430 C451 0.950 . S
H431 C454 0.950 . S
H432 C455 0.950 . S
H433 C457 0.950 . S
H434 C458 0.950 . S
H435 C459 0.951 1_545 S
H436 C461 0.951 . S
H437 C463 0.950 . S
H438 C464 0.950 . S
H439 C466 0.950 . S
H440 C469 0.950 . S
H441 C470 0.950 . S
H442 C472 0.936 1_545 S
H443 C473 0.950 . S
C444 H426 0.951 . S
C444 C445 1.366 . S
C444 C446 1.388 . S
C445 C444 1.366 . S
C445 C449 1.385 . S
C446 H427 0.951 . S
C446 C444 1.388 . S
C446 C447 1.366 . S
C447 C446 1.366 . S
C447 C448 1.414 . S
C447 C450 1.499 . S
C448 H428 0.950 . S
C448 C447 1.414 . S
C448 C449 1.374 . S
C449 H429 0.950 . S
C449 C445 1.385 . S
C449 C448 1.374 . S
C450 C447 1.499 . S
C450 C451 1.373 . S
C450 C452 1.389 . S
C451 H430 0.950 . S
C451 C450 1.373 . S
C451 C467 1.377 . S
C452 C450 1.389 . S
C452 C453 1.524 . S
C452 C466 1.377 . S
C453 C452 1.524 . S
C453 C454 1.397 . S
C453 C458 1.363 . S
C454 H431 0.950 . S
C454 C453 1.397 . S
C454 C455 1.334 . S
C455 H432 0.950 . S
C455 C454 1.334 . S
C455 C456 1.287 . S
C456 C455 1.287 . S
C456 C457 1.524 . S
C456 H475 0.913 . S
C457 H433 0.950 . S
C457 C456 1.524 . S
C457 C458 1.415 . S
C458 H434 0.950 . S
C458 C453 1.363 . S
C458 C457 1.415 . S
C459 H435 0.951 1_565 S
C459 C460 1.366 . S
C459 C461 1.388 . S
C460 C459 1.366 . S
C460 C464 1.385 . S
C461 H436 0.951 . S
C461 C459 1.388 . S
C461 C462 1.366 . S
C462 C461 1.366 . S
C462 C463 1.414 . S
C462 C465 1.499 . S
C463 H437 0.950 . S
C463 C462 1.414 . S
C463 C464 1.374 . S
C464 H438 0.950 . S
C464 C460 1.385 . S
C464 C463 1.374 . S
C465 C462 1.499 . S
C465 C466 1.373 . S
C465 C467 1.389 . S
C466 H439 0.950 . S
C466 C452 1.377 . S
C466 C465 1.373 . S
C467 C451 1.377 . S
C467 C465 1.389 . S
C467 C468 1.524 . S
C468 C467 1.524 . S
C468 C469 1.397 . S
C468 C473 1.363 . S
C469 H440 0.950 . S
C469 C468 1.397 . S
C469 C470 1.334 . S
C470 H441 0.950 . S
C470 C469 1.334 . S
C470 C471 1.287 . S
C471 C470 1.287 . S
C471 C472 1.524 . S
C471 H474 0.999 . S
C472 H442 0.936 1_565 S
C472 C471 1.524 . S
C472 C473 1.415 . S
C473 H443 0.950 . S
C473 C468 1.363 . S
C473 C472 1.415 . S
H474 C471 0.999 . S
H475 C456 0.913 . S
H476 C494 0.951 . S
H477 C496 0.951 . S
H478 C498 0.950 . S
H479 C499 0.950 . S
H480 C501 0.950 . S
H481 C504 0.950 . S
H482 C505 0.950 . S
H483 C507 0.950 . S
H484 C508 0.950 . S
H485 C509 0.951 . S
H486 C511 0.951 . S
H487 C513 0.950 . S
H488 C514 0.950 . S
H489 C516 0.950 . S
H490 C519 0.950 . S
H491 C520 0.950 . S
H492 C522 0.950 . S
H493 C523 0.950 . S
C494 H476 0.951 . S
C494 C495 1.366 . S
C494 C496 1.388 . S
C495 C494 1.366 . S
C495 C499 1.385 . S
C496 H477 0.951 . S
C496 C494 1.388 . S
C496 C497 1.366 . S
C497 C496 1.366 . S
C497 C498 1.414 . S
C497 C500 1.499 . S
C498 H478 0.950 . S
C498 C497 1.414 . S
C498 C499 1.374 . S
C499 H479 0.950 . S
C499 C495 1.385 . S
C499 C498 1.374 . S
C500 C497 1.499 . S
C500 C501 1.373 . S
C500 C502 1.389 . S
C501 H480 0.950 . S
C501 C500 1.373 . S
C501 C517 1.377 . S
C502 C500 1.389 . S
C502 C503 1.524 . S
C502 C516 1.377 . S
C503 C502 1.524 . S
C503 C504 1.397 . S
C503 C508 1.363 . S
C504 H481 0.950 . S
C504 C503 1.397 . S
C504 C505 1.334 . S
C505 H482 0.950 . S
C505 C504 1.334 . S
C505 C506 1.287 . S
C506 C505 1.287 . S
C506 C507 1.524 . S
C506 H525 0.913 . S
C507 H483 0.950 . S
C507 C506 1.524 . S
C507 C508 1.415 . S
C508 H484 0.950 . S
C508 C503 1.363 . S
C508 C507 1.415 . S
C509 H485 0.951 . S
C509 C510 1.366 . S
C509 C511 1.388 . S
C510 C509 1.366 . S
C510 C514 1.385 . S
C511 H486 0.951 . S
C511 C509 1.388 . S
C511 C512 1.366 . S
C512 C511 1.366 . S
C512 C513 1.414 . S
C512 C515 1.499 . S
C513 H487 0.950 . S
C513 C512 1.414 . S
C513 C514 1.374 . S
C514 H488 0.950 . S
C514 C510 1.385 . S
C514 C513 1.374 . S
C515 C512 1.499 . S
C515 C516 1.373 . S
C515 C517 1.389 . S
C516 H489 0.950 . S
C516 C502 1.377 . S
C516 C515 1.373 . S
C517 C501 1.377 . S
C517 C515 1.389 . S
C517 C518 1.524 . S
C518 C517 1.524 . S
C518 C519 1.397 . S
C518 C523 1.363 . S
C519 H490 0.950 . S
C519 C518 1.397 . S
C519 C520 1.334 . S
C520 H491 0.950 . S
C520 C519 1.334 . S
C520 C521 1.287 . S
C521 C520 1.287 . S
C521 C522 1.524 . S
C521 H524 0.999 . S
C522 H492 0.950 . S
C522 C521 1.524 . S
C522 C523 1.415 . S
C523 H493 0.950 . S
C523 C518 1.363 . S
C523 C522 1.415 . S
H524 C521 0.999 . S
H525 C506 0.913 . S
H526 C544 0.951 . S
H527 C546 0.951 . S
H528 C548 0.950 . S
H529 C549 0.950 . S
H530 C551 0.950 . S
H531 C554 0.950 . S
H532 C555 0.950 . S
H533 C557 0.950 . S
H534 C558 0.950 . S
H535 C559 0.951 . S
H536 C561 0.951 . S
H537 C563 0.950 . S
H538 C564 0.950 . S
H539 C566 0.950 . S
H540 C569 0.950 . S
H541 C570 0.950 . S
H542 C572 0.950 . S
H543 C573 0.950 . S
C544 H526 0.951 . S
C544 C545 1.366 . S
C544 C546 1.388 . S
C545 C544 1.366 . S
C545 C549 1.385 . S
C546 H527 0.951 . S
C546 C544 1.388 . S
C546 C547 1.366 . S
C547 C546 1.366 . S
C547 C548 1.414 . S
C547 C550 1.499 . S
C548 H528 0.950 . S
C548 C547 1.414 . S
C548 C549 1.374 . S
C549 H529 0.950 . S
C549 C545 1.385 . S
C549 C548 1.374 . S
C550 C547 1.499 . S
C550 C551 1.373 . S
C550 C552 1.389 . S
C551 H530 0.950 . S
C551 C550 1.373 . S
C551 C567 1.377 . S
C552 C550 1.389 . S
C552 C553 1.524 . S
C552 C566 1.377 . S
C553 C552 1.524 . S
C553 C554 1.397 . S
C553 C558 1.363 . S
C554 H531 0.950 . S
C554 C553 1.397 . S
C554 C555 1.334 1_655 S
C555 H532 0.950 . S
C555 C554 1.334 1_455 S
C555 C556 1.287 . S
C556 C555 1.287 . S
C556 C557 1.524 1_455 S
C556 H575 0.913 . S
C557 H533 0.950 . S
C557 C556 1.524 1_655 S
C557 C558 1.415 . S
C558 H534 0.950 . S
C558 C553 1.363 . S
C558 C557 1.415 . S
C559 H535 0.951 . S
C559 C560 1.366 . S
C559 C561 1.388 . S
C560 C559 1.366 . S
C560 C564 1.385 . S
C561 H536 0.951 . S
C561 C559 1.388 . S
C561 C562 1.366 . S
C562 C561 1.366 . S
C562 C563 1.414 . S
C562 C565 1.499 . S
C563 H537 0.950 . S
C563 C562 1.414 . S
C563 C564 1.374 . S
C564 H538 0.950 . S
C564 C560 1.385 . S
C564 C563 1.374 . S
C565 C562 1.499 . S
C565 C566 1.373 . S
C565 C567 1.389 . S
C566 H539 0.950 . S
C566 C552 1.377 . S
C566 C565 1.373 . S
C567 C551 1.377 . S
C567 C565 1.389 . S
C567 C568 1.524 . S
C568 C567 1.524 . S
C568 C569 1.397 . S
C568 C573 1.363 . S
C569 H540 0.950 . S
C569 C568 1.397 . S
C569 C570 1.334 . S
C570 H541 0.950 . S
C570 C569 1.334 . S
C570 C571 1.287 . S
C571 C570 1.287 . S
C571 C572 1.524 . S
C571 H574 0.999 . S
C572 H542 0.950 . S
C572 C571 1.524 . S
C572 C573 1.415 . S
C573 H543 0.950 . S
C573 C568 1.363 . S
C573 C572 1.415 . S
H574 C571 0.999 . S
H575 C556 0.913 . S
H576 C594 0.951 . S
H577 C596 0.951 . S
H578 C598 0.950 . S
H579 C599 0.950 . S
H580 C601 0.950 . S
H581 C604 0.950 . S
H582 C605 0.950 . S
H583 C607 0.950 . S
H584 C608 0.948 1_545 S
H585 C609 0.951 . S
H586 C611 0.951 . S
H587 C613 0.950 . S
H588 C614 0.950 . S
H589 C616 0.950 . S
H590 C619 0.950 . S
H591 C620 0.950 . S
H592 C622 0.950 . S
H593 C623 0.950 . S
C594 H576 0.951 . S
C594 C595 1.366 . S
C594 C596 1.388 . S
C595 C594 1.366 . S
C595 C599 1.385 . S
C596 H577 0.951 . S
C596 C594 1.388 . S
C596 C597 1.366 . S
C597 C596 1.366 . S
C597 C598 1.414 . S
C597 C600 1.499 . S
C598 H578 0.950 . S
C598 C597 1.414 . S
C598 C599 1.374 . S
C599 H579 0.950 . S
C599 C595 1.385 . S
C599 C598 1.374 . S
C600 C597 1.499 . S
C600 C601 1.373 . S
C600 C602 1.389 . S
C601 H580 0.950 . S
C601 C600 1.373 . S
C601 C617 1.377 . S
C602 C600 1.389 . S
C602 C603 1.524 . S
C602 C616 1.377 . S
C603 C602 1.524 . S
C603 C604 1.397 . S
C603 C608 1.335 1_545 S
C604 H581 0.950 . S
C604 C603 1.397 . S
C604 C605 1.334 1_545 S
C605 H582 0.950 . S
C605 C604 1.334 1_565 S
C605 C606 1.287 . S
C606 C605 1.287 . S
C606 C607 1.524 . S
C606 H625 0.913 . S
C607 H583 0.950 . S
C607 C606 1.524 . S
C607 C608 1.446 . S
C608 H584 0.948 1_565 S
C608 C603 1.335 1_565 S
C608 C607 1.446 . S
C609 H585 0.951 . S
C609 C610 1.366 . S
C609 C611 1.388 . S
C610 C609 1.366 . S
C610 C614 1.385 . S
C611 H586 0.951 . S
C611 C609 1.388 . S
C611 C612 1.366 . S
C612 C611 1.366 . S
C612 C613 1.414 . S
C612 C615 1.499 . S
C613 H587 0.950 . S
C613 C612 1.414 . S
C613 C614 1.374 . S
C614 H588 0.950 . S
C614 C610 1.385 . S
C614 C613 1.374 . S
C615 C612 1.499 . S
C615 C616 1.373 . S
C615 C617 1.389 . S
C616 H589 0.950 . S
C616 C602 1.377 . S
C616 C615 1.373 . S
C617 C601 1.377 . S
C617 C615 1.389 . S
C617 C618 1.524 . S
C618 C617 1.524 . S
C618 C619 1.397 . S
C618 C623 1.363 . S
C619 H590 0.950 . S
C619 C618 1.397 . S
C619 C620 1.334 . S
C620 H591 0.950 . S
C620 C619 1.334 . S
C620 C621 1.287 . S
C621 C620 1.287 . S
C621 C622 1.524 . S
C621 H624 0.999 . S
C622 H592 0.950 . S
C622 C621 1.524 . S
C622 C623 1.415 . S
C623 H593 0.950 . S
C623 C618 1.363 . S
C623 C622 1.415 . S
H624 C621 0.999 . S
H625 C606 0.913 . S
H626 C644 0.951 . S
H627 C646 0.951 . S
H628 C648 0.950 . S
H629 C649 0.950 . S
H630 C651 0.950 . S
H631 C654 0.950 . S
H632 C655 0.950 . S
H633 C657 0.950 . S
H634 C658 0.950 . S
H635 C659 0.951 . S
H636 C661 0.951 . S
H637 C663 0.950 . S
H638 C664 0.950 . S
H639 C666 0.950 . S
H640 C669 0.950 . S
H641 C670 0.950 . S
H642 C672 0.950 . S
H643 C673 0.950 . S
C644 H626 0.951 . S
C644 C645 1.366 . S
C644 C646 1.388 . S
C645 C644 1.366 . S
C645 C649 1.385 . S
C646 H627 0.951 . S
C646 C644 1.388 . S
C646 C647 1.366 . S
C647 C646 1.366 . S
C647 C648 1.414 . S
C647 C650 1.499 . S
C648 H628 0.950 . S
C648 C647 1.414 . S
C648 C649 1.374 . S
C649 H629 0.950 . S
C649 C645 1.385 . S
C649 C648 1.374 . S
C650 C647 1.499 . S
C650 C651 1.373 . S
C650 C652 1.389 . S
C651 H630 0.950 . S
C651 C650 1.373 . S
C651 C667 1.377 . S
C652 C650 1.389 . S
C652 C653 1.524 . S
C652 C666 1.377 . S
C653 C652 1.524 . S
C653 C654 1.397 . S
C653 C658 1.363 . S
C654 H631 0.950 . S
C654 C653 1.397 . S
C654 C655 1.334 . S
C655 H632 0.950 . S
C655 C654 1.334 . S
C655 C656 1.287 . S
C656 C655 1.287 . S
C656 C657 1.524 . S
C656 H675 0.913 . S
C657 H633 0.950 . S
C657 C656 1.524 . S
C657 C658 1.415 . S
C658 H634 0.950 . S
C658 C653 1.363 . S
C658 C657 1.415 . S
C659 H635 0.951 . S
C659 C660 1.366 . S
C659 C661 1.388 . S
C660 C659 1.366 . S
C660 C664 1.385 . S
C661 H636 0.951 . S
C661 C659 1.388 . S
C661 C662 1.366 . S
C662 C661 1.366 . S
C662 C663 1.414 . S
C662 C665 1.499 . S
C663 H637 0.950 . S
C663 C662 1.414 . S
C663 C664 1.374 . S
C664 H638 0.950 . S
C664 C660 1.385 . S
C664 C663 1.374 . S
C665 C662 1.499 . S
C665 C666 1.373 . S
C665 C667 1.389 . S
C666 H639 0.950 . S
C666 C652 1.377 . S
C666 C665 1.373 . S
C667 C651 1.377 . S
C667 C665 1.389 . S
C667 C668 1.524 . S
C668 C667 1.524 . S
C668 C669 1.397 . S
C668 C673 1.363 . S
C669 H640 0.950 . S
C669 C668 1.397 . S
C669 C670 1.334 1_565 S
C670 H641 0.950 . S
C670 C669 1.334 1_545 S
C670 C671 1.287 . S
C671 C670 1.287 . S
C671 C672 1.524 1_545 S
C671 H674 0.999 . S
C672 H642 0.950 . S
C672 C671 1.524 1_565 S
C672 C673 1.415 . S
C673 H643 0.950 . S
C673 C668 1.363 . S
C673 C672 1.415 . S
H674 C671 0.999 . S
H675 C656 0.913 . S
H676 C694 0.951 . S
H677 C696 0.951 . S
H678 C698 0.950 . S
H679 C699 0.950 . S
H680 C701 0.950 . S
H681 C704 0.950 . S
H682 C705 0.950 . S
H683 C707 0.950 . S
H684 C708 0.950 . S
H685 C709 0.951 . S
H686 C711 0.951 . S
H687 C713 0.950 1_554 S
H688 C714 0.950 . S
H689 C716 0.950 . S
H690 C719 0.950 . S
H691 C720 0.950 1_554 S
H692 C722 0.950 . S
H693 C723 0.950 . S
C694 H676 0.951 . S
C694 C695 1.366 . S
C694 C696 1.388 . S
C695 C694 1.366 . S
C695 C699 1.385 . S
C696 H677 0.951 . S
C696 C694 1.388 . S
C696 C697 1.366 . S
C697 C696 1.366 . S
C697 C698 1.414 . S
C697 C700 1.499 . S
C698 H678 0.950 . S
C698 C697 1.414 . S
C698 C699 1.374 . S
C699 H679 0.950 . S
C699 C695 1.385 . S
C699 C698 1.374 . S
C700 C697 1.499 . S
C700 C701 1.373 . S
C700 C702 1.389 . S
C701 H680 0.950 . S
C701 C700 1.373 . S
C701 C717 1.377 . S
C702 C700 1.389 . S
C702 C703 1.524 . S
C702 C716 1.377 . S
C703 C702 1.524 . S
C703 C704 1.397 . S
C703 C708 1.363 . S
C704 H681 0.950 . S
C704 C703 1.397 . S
C704 C705 1.334 . S
C705 H682 0.950 . S
C705 C704 1.334 . S
C705 C706 1.287 . S
C706 C705 1.287 . S
C706 C707 1.524 . S
C706 H725 0.913 . S
C707 H683 0.950 . S
C707 C706 1.524 . S
C707 C708 1.415 . S
C708 H684 0.950 . S
C708 C703 1.363 . S
C708 C707 1.415 . S
C709 H685 0.951 . S
C709 C710 1.366 . S
C709 C711 1.388 . S
C710 C709 1.366 . S
C710 C714 1.385 1_556 S
C711 H686 0.951 . S
C711 C709 1.388 . S
C711 C712 1.366 . S
C712 C711 1.366 . S
C712 C713 1.414 . S
C712 C715 1.499 . S
C713 H687 0.950 1_556 S
C713 C712 1.414 . S
C713 C714 1.374 1_556 S
C714 H688 0.950 . S
C714 C710 1.385 1_554 S
C714 C713 1.374 1_554 S
C715 C712 1.499 . S
C715 C716 1.373 . S
C715 C717 1.389 . S
C716 H689 0.950 . S
C716 C702 1.377 . S
C716 C715 1.373 . S
C717 C701 1.377 . S
C717 C715 1.389 . S
C717 C718 1.524 . S
C718 C717 1.524 . S
C718 C719 1.397 . S
C718 C723 1.363 . S
C719 H690 0.950 . S
C719 C718 1.397 . S
C719 C720 1.334 . S
C720 H691 0.950 1_556 S
C720 C719 1.334 . S
C720 C721 1.287 . S
C721 C720 1.287 . S
C721 C722 1.524 . S
C721 H724 0.999 . S
C722 H692 0.950 . S
C722 C721 1.524 . S
C722 C723 1.415 . S
C723 H693 0.950 . S
C723 C718 1.363 . S
C723 C722 1.415 . S
H724 C721 0.999 . S
H725 C706 0.913 . S
H726 C744 0.951 . S
H727 C746 0.951 . S
H728 C748 0.950 . S
H729 C749 0.950 . S
H730 C751 0.950 . S
H731 C754 0.950 . S
H732 C755 0.950 . S
H733 C757 0.950 . S
H734 C758 0.950 . S
H735 C759 0.951 . S
H736 C761 0.951 . S
H737 C763 0.950 . S
H738 C764 0.950 . S
H739 C766 0.950 . S
H740 C769 0.950 . S
H741 C770 0.950 . S
H742 C772 0.950 . S
H743 C773 0.950 . S
C744 H726 0.951 . S
C744 C745 1.366 . S
C744 C746 1.388 . S
C745 C744 1.366 . S
C745 C749 1.385 . S
C746 H727 0.951 . S
C746 C744 1.388 . S
C746 C747 1.366 . S
C747 C746 1.366 . S
C747 C748 1.414 . S
C747 C750 1.499 . S
C748 H728 0.950 . S
C748 C747 1.414 . S
C748 C749 1.374 . S
C749 H729 0.950 . S
C749 C745 1.385 . S
C749 C748 1.374 . S
C750 C747 1.499 . S
C750 C751 1.373 . S
C750 C752 1.389 . S
C751 H730 0.950 . S
C751 C750 1.373 . S
C751 C767 1.377 . S
C752 C750 1.389 . S
C752 C753 1.524 . S
C752 C766 1.377 . S
C753 C752 1.524 . S
C753 C754 1.397 . S
C753 C758 1.363 . S
C754 H731 0.950 . S
C754 C753 1.397 . S
C754 C755 1.334 . S
C755 H732 0.950 . S
C755 C754 1.334 . S
C755 C756 1.287 . S
C756 C755 1.287 . S
C756 C757 1.524 . S
C756 H775 0.913 . S
C757 H733 0.950 . S
C757 C756 1.524 . S
C757 C758 1.415 . S
C758 H734 0.950 . S
C758 C753 1.363 . S
C758 C757 1.415 . S
C759 H735 0.951 . S
C759 C760 1.366 . S
C759 C761 1.388 . S
C760 C759 1.366 . S
C760 C764 1.385 . S
C761 H736 0.951 . S
C761 C759 1.388 . S
C761 C762 1.366 . S
C762 C761 1.366 . S
C762 C763 1.414 . S
C762 C765 1.499 . S
C763 H737 0.950 . S
C763 C762 1.414 . S
C763 C764 1.374 . S
C764 H738 0.950 . S
C764 C760 1.385 . S
C764 C763 1.374 . S
C765 C762 1.499 . S
C765 C766 1.373 . S
C765 C767 1.389 . S
C766 H739 0.950 . S
C766 C752 1.377 . S
C766 C765 1.373 . S
C767 C751 1.377 . S
C767 C765 1.389 . S
C767 C768 1.524 . S
C768 C767 1.524 . S
C768 C769 1.397 . S
C768 C773 1.363 . S
C769 H740 0.950 . S
C769 C768 1.397 . S
C769 C770 1.334 . S
C770 H741 0.950 . S
C770 C769 1.334 . S
C770 C771 1.287 . S
C771 C770 1.287 . S
C771 C772 1.524 . S
C771 H774 0.999 . S
C772 H742 0.950 . S
C772 C771 1.524 . S
C772 C773 1.415 . S
C773 H743 0.950 . S
C773 C768 1.363 . S
C773 C772 1.415 . S
H774 C771 0.999 . S
H775 C756 0.913 . S
H776 C794 0.951 . S
H777 C796 0.951 . S
H778 C798 0.950 . S
H779 C799 0.950 . S
H780 C801 0.950 . S
H781 C804 0.950 . S
H782 C805 0.950 . S
H783 C807 0.950 . S
H784 C808 0.932 1_556 S
H785 C809 0.951 . S
H786 C811 0.951 . S
H787 C813 0.950 . S
H788 C814 0.950 1_556 S
H789 C816 0.950 . S
H790 C819 0.950 . S
H791 C820 0.950 . S
H792 C822 0.950 . S
H793 C823 0.950 . S
C794 H776 0.951 . S
C794 C795 1.366 . S
C794 C796 1.388 . S
C795 C794 1.366 . S
C795 C799 1.385 . S
C796 H777 0.951 . S
C796 C794 1.388 . S
C796 C797 1.366 . S
C797 C796 1.366 . S
C797 C798 1.414 . S
C797 C800 1.499 . S
C798 H778 0.950 . S
C798 C797 1.414 . S
C798 C799 1.374 . S
C799 H779 0.950 . S
C799 C795 1.385 . S
C799 C798 1.374 . S
C800 C797 1.499 . S
C800 C801 1.373 . S
C800 C802 1.389 . S
C801 H780 0.950 . S
C801 C800 1.373 . S
C801 C817 1.377 . S
C802 C800 1.389 . S
C802 C803 1.524 . S
C802 C816 1.377 . S
C803 C802 1.524 . S
C803 C804 1.397 . S
C803 C808 1.363 . S
C804 H781 0.950 . S
C804 C803 1.397 . S
C804 C805 1.334 . S
C805 H782 0.950 . S
C805 C804 1.334 . S
C805 C806 1.287 . S
C806 C805 1.287 . S
C806 C807 1.524 1_554 S
C806 H825 0.913 . S
C807 H783 0.950 . S
C807 C806 1.524 1_556 S
C807 C808 1.415 1_556 S
C808 H784 0.932 1_554 S
C808 C803 1.363 . S
C808 C807 1.415 1_554 S
C809 H785 0.951 . S
C809 C810 1.366 . S
C809 C811 1.388 . S
C810 C809 1.366 . S
C810 C814 1.385 . S
C811 H786 0.951 . S
C811 C809 1.388 . S
C811 C812 1.366 . S
C812 C811 1.366 . S
C812 C813 1.414 . S
C812 C815 1.499 . S
C813 H787 0.950 . S
C813 C812 1.414 . S
C813 C814 1.374 . S
C814 H788 0.950 1_554 S
C814 C810 1.385 . S
C814 C813 1.374 . S
C815 C812 1.499 . S
C815 C816 1.373 . S
C815 C817 1.389 . S
C816 H789 0.950 . S
C816 C802 1.377 . S
C816 C815 1.373 . S
C817 C801 1.377 . S
C817 C815 1.389 . S
C817 C818 1.524 . S
C818 C817 1.524 . S
C818 C819 1.397 1_455 S
C818 C823 1.363 . S
C819 H790 0.950 . S
C819 C818 1.397 1_655 S
C819 C820 1.334 . S
C820 H791 0.950 . S
C820 C819 1.334 . S
C820 C821 1.287 . S
C821 C820 1.287 . S
C821 C822 1.524 . S
C821 H824 0.999 . S
C822 H792 0.950 . S
C822 C821 1.524 . S
C822 C823 1.415 1_655 S
C823 H793 0.950 . S
C823 C818 1.363 . S
C823 C822 1.415 1_455 S
H824 C821 0.999 . S
H825 C806 0.913 . S
H826 C844 0.951 . S
H827 C846 0.951 . S
H828 C848 0.950 . S
H829 C849 0.950 . S
H830 C851 0.950 . S
H831 C854 0.950 . S
H832 C855 0.950 . S
H833 C857 0.950 . S
H834 C858 0.950 . S
H835 C859 0.951 . S
H836 C861 0.951 . S
H837 C863 0.950 . S
H838 C864 0.950 . S
H839 C866 0.950 . S
H840 C869 0.950 . S
H841 C870 0.950 . S
H842 C872 0.950 . S
H843 C873 0.950 . S
C844 H826 0.951 . S
C844 C845 1.366 . S
C844 C846 1.388 . S
C845 C844 1.366 . S
C845 C849 1.385 . S
C846 H827 0.951 . S
C846 C844 1.388 . S
C846 C847 1.366 . S
C847 C846 1.366 . S
C847 C848 1.414 . S
C847 C850 1.499 . S
C848 H828 0.950 . S
C848 C847 1.414 . S
C848 C849 1.374 . S
C849 H829 0.950 . S
C849 C845 1.385 . S
C849 C848 1.374 . S
C850 C847 1.499 . S
C850 C851 1.373 . S
C850 C852 1.389 . S
C851 H830 0.950 . S
C851 C850 1.373 . S
C851 C867 1.377 . S
C852 C850 1.389 . S
C852 C853 1.524 . S
C852 C866 1.377 . S
C853 C852 1.524 . S
C853 C854 1.397 . S
C853 C858 1.363 . S
C854 H831 0.950 . S
C854 C853 1.397 . S
C854 C855 1.334 . S
C855 H832 0.950 . S
C855 C854 1.334 . S
C855 C856 1.287 . S
C856 C855 1.287 . S
C856 C857 1.524 . S
C856 H875 0.913 . S
C857 H833 0.950 . S
C857 C856 1.524 . S
C857 C858 1.415 . S
C858 H834 0.950 . S
C858 C853 1.363 . S
C858 C857 1.415 . S
C859 H835 0.951 . S
C859 C860 1.366 . S
C859 C861 1.388 . S
C860 C859 1.366 . S
C860 C864 1.385 . S
C861 H836 0.951 . S
C861 C859 1.388 . S
C861 C862 1.366 . S
C862 C861 1.366 . S
C862 C863 1.414 . S
C862 C865 1.499 . S
C863 H837 0.950 . S
C863 C862 1.414 . S
C863 C864 1.374 . S
C864 H838 0.950 . S
C864 C860 1.385 . S
C864 C863 1.374 . S
C865 C862 1.499 . S
C865 C866 1.373 . S
C865 C867 1.389 . S
C866 H839 0.950 . S
C866 C852 1.377 . S
C866 C865 1.373 . S
C867 C851 1.377 . S
C867 C865 1.389 . S
C867 C868 1.524 . S
C868 C867 1.524 . S
C868 C869 1.397 1_556 S
C868 C873 1.363 . S
C869 H840 0.950 . S
C869 C868 1.397 1_554 S
C869 C870 1.334 . S
C870 H841 0.950 . S
C870 C869 1.334 . S
C870 C871 1.287 . S
C871 C870 1.287 . S
C871 C872 1.524 1_554 S
C871 H874 0.999 . S
C872 H842 0.950 . S
C872 C871 1.524 1_556 S
C872 C873 1.415 . S
C873 H843 0.950 . S
C873 C868 1.363 . S
C873 C872 1.415 . S
H874 C871 0.999 . S
H875 C856 0.913 . S
H876 C894 0.951 . S
H877 C896 0.951 . S
H878 C898 0.950 . S
H879 C899 0.950 . S
H880 C901 0.950 . S
H881 C904 0.950 . S
H882 C905 0.950 . S
H883 C907 0.950 . S
H884 C908 0.950 . S
H885 C909 0.951 . S
H886 C911 0.951 . S
H887 C913 0.950 1_455 S
H888 C914 0.950 . S
H889 C916 0.950 . S
H890 C919 0.950 . S
H891 C920 0.950 . S
H892 C922 0.950 . S
H893 C923 0.950 . S
C894 H876 0.951 . S
C894 C895 1.366 . S
C894 C896 1.388 . S
C895 C894 1.366 . S
C895 C899 1.385 . S
C896 H877 0.951 . S
C896 C894 1.388 . S
C896 C897 1.366 . S
C897 C896 1.366 . S
C897 C898 1.414 . S
C897 C900 1.499 . S
C898 H878 0.950 . S
C898 C897 1.414 . S
C898 C899 1.374 . S
C899 H879 0.950 . S
C899 C895 1.385 . S
C899 C898 1.374 . S
C900 C897 1.499 . S
C900 C901 1.373 . S
C900 C902 1.389 . S
C901 H880 0.950 . S
C901 C900 1.373 . S
C901 C917 1.377 . S
C902 C900 1.389 . S
C902 C903 1.524 . S
C902 C916 1.377 . S
C903 C902 1.524 . S
C903 C904 1.397 . S
C903 C908 1.363 1_655 S
C904 H881 0.950 . S
C904 C903 1.397 . S
C904 C905 1.334 . S
C905 H882 0.950 . S
C905 C904 1.334 . S
C905 C906 1.287 1_655 S
C906 C905 1.287 1_455 S
C906 C907 1.524 . S
C906 H925 0.913 . S
C907 H883 0.950 . S
C907 C906 1.524 . S
C907 C908 1.415 . S
C908 H884 0.950 . S
C908 C903 1.363 1_455 S
C908 C907 1.415 . S
C909 H885 0.951 . S
C909 C910 1.366 . S
C909 C911 1.388 . S
C910 C909 1.366 . S
C910 C914 1.385 1_655 S
C911 H886 0.951 . S
C911 C909 1.388 . S
C911 C912 1.366 . S
C912 C911 1.366 . S
C912 C913 1.414 . S
C912 C915 1.499 . S
C913 H887 0.950 1_655 S
C913 C912 1.414 . S
C913 C914 1.374 1_655 S
C914 H888 0.950 . S
C914 C910 1.385 1_455 S
C914 C913 1.374 1_455 S
C915 C912 1.499 . S
C915 C916 1.373 . S
C915 C917 1.389 . S
C916 H889 0.950 . S
C916 C902 1.377 . S
C916 C915 1.373 . S
C917 C901 1.377 . S
C917 C915 1.389 . S
C917 C918 1.524 . S
C918 C917 1.524 . S
C918 C919 1.397 . S
C918 C923 1.363 . S
C919 H890 0.950 . S
C919 C918 1.397 . S
C919 C920 1.334 . S
C920 H891 0.950 . S
C920 C919 1.334 . S
C920 C921 1.287 . S
C921 C920 1.287 . S
C921 C922 1.524 . S
C921 H924 0.999 . S
C922 H892 0.950 . S
C922 C921 1.524 . S
C922 C923 1.415 . S
C923 H893 0.950 . S
C923 C918 1.363 . S
C923 C922 1.415 . S
H924 C921 0.999 . S
H925 C906 0.913 . S
H926 C944 0.951 . S
H927 C946 0.951 . S
H928 C948 0.950 . S
H929 C949 0.950 . S
H930 C951 0.950 . S
H931 C954 0.950 . S
H932 C955 0.950 . S
H933 C957 0.950 . S
H934 C958 0.950 . S
H935 C959 0.951 . S
H936 C961 0.951 . S
H937 C963 0.950 . S
H938 C964 0.950 . S
H939 C966 0.950 . S
H940 C969 0.950 . S
H941 C970 0.950 . S
H942 C972 0.950 . S
H943 C973 0.950 . S
C944 H926 0.951 . S
C944 C945 1.366 . S
C944 C946 1.388 . S
C945 C944 1.366 . S
C945 C949 1.385 . S
C946 H927 0.951 . S
C946 C944 1.388 . S
C946 C947 1.366 . S
C947 C946 1.366 . S
C947 C948 1.414 . S
C947 C950 1.499 . S
C948 H928 0.950 . S
C948 C947 1.414 . S
C948 C949 1.374 . S
C949 H929 0.950 . S
C949 C945 1.385 . S
C949 C948 1.374 . S
C950 C947 1.499 . S
C950 C951 1.373 . S
C950 C952 1.389 . S
C951 H930 0.950 . S
C951 C950 1.373 . S
C951 C967 1.377 . S
C952 C950 1.389 . S
C952 C953 1.524 . S
C952 C966 1.377 . S
C953 C952 1.524 . S
C953 C954 1.397 . S
C953 C958 1.363 . S
C954 H931 0.950 . S
C954 C953 1.397 . S
C954 C955 1.334 . S
C955 H932 0.950 . S
C955 C954 1.334 . S
C955 C956 1.287 . S
C956 C955 1.287 . S
C956 C957 1.524 . S
C956 H975 0.913 . S
C957 H933 0.950 . S
C957 C956 1.524 . S
C957 C958 1.415 . S
C958 H934 0.950 . S
C958 C953 1.363 . S
C958 C957 1.415 . S
C959 H935 0.951 . S
C959 C960 1.366 . S
C959 C961 1.388 . S
C960 C959 1.366 . S
C960 C964 1.385 . S
C961 H936 0.951 . S
C961 C959 1.388 . S
C961 C962 1.366 . S
C962 C961 1.366 . S
C962 C963 1.414 . S
C962 C965 1.499 . S
C963 H937 0.950 . S
C963 C962 1.414 . S
C963 C964 1.374 . S
C964 H938 0.950 . S
C964 C960 1.385 . S
C964 C963 1.374 . S
C965 C962 1.499 . S
C965 C966 1.373 . S
C965 C967 1.389 . S
C966 H939 0.950 . S
C966 C952 1.377 . S
C966 C965 1.373 . S
C967 C951 1.377 . S
C967 C965 1.389 . S
C967 C968 1.524 . S
C968 C967 1.524 . S
C968 C969 1.397 . S
C968 C973 1.363 . S
C969 H940 0.950 . S
C969 C968 1.397 . S
C969 C970 1.334 . S
C970 H941 0.950 . S
C970 C969 1.334 . S
C970 C971 1.287 . S
C971 C970 1.287 . S
C971 C972 1.524 . S
C971 H974 0.999 . S
C972 H942 0.950 . S
C972 C971 1.524 . S
C972 C973 1.415 . S
C973 H943 0.950 . S
C973 C968 1.363 . S
C973 C972 1.415 . S
H974 C971 0.999 . S
H975 C956 0.913 . S
H976 C994 0.951 . S
H977 C996 0.951 . S
H978 C998 0.950 . S
H979 C999 0.950 . S
H980 C1001 0.950 . S
H981 C1004 0.950 . S
H982 C1005 0.950 1_455 S
H983 C1007 0.950 . S
H984 C1008 0.950 . S
H985 C1009 0.951 1_545 S
H986 C1011 0.951 1_545 S
H987 C1013 0.950 . S
H988 C1014 0.950 . S
H989 C1016 0.950 . S
H990 C1019 0.950 . S
H991 C1020 0.950 . S
H992 C1022 0.950 . S
H993 C1023 0.950 . S
C994 H976 0.951 . S
C994 C995 1.366 . S
C994 C996 1.388 . S
C995 C994 1.366 . S
C995 C999 1.385 . S
C996 H977 0.951 . S
C996 C994 1.388 . S
C996 C997 1.366 . S
C997 C996 1.366 . S
C997 C998 1.414 . S
C997 C1000 1.499 . S
C998 H978 0.950 . S
C998 C997 1.414 . S
C998 C999 1.374 . S
C999 H979 0.950 . S
C999 C995 1.385 . S
C999 C998 1.374 . S
C1000 C997 1.499 . S
C1000 C1001 1.373 . S
C1000 C1002 1.389 . S
C1001 H980 0.950 . S
C1001 C1000 1.373 . S
C1001 C1017 1.377 . S
C1002 C1000 1.389 . S
C1002 C1003 1.524 . S
C1002 C1016 1.377 . S
C1003 C1002 1.524 . S
C1003 C1004 1.397 . S
C1003 C1008 1.363 . S
C1004 H981 0.950 . S
C1004 C1003 1.397 . S
C1004 C1005 1.334 . S
C1005 H982 0.950 1_655 S
C1005 C1004 1.334 . S
C1005 C1006 1.287 . S
C1006 C1005 1.287 . S
C1006 C1007 1.524 . S
C1006 H1025 0.913 1_655 S
C1007 H983 0.950 . S
C1007 C1006 1.524 . S
C1007 C1008 1.415 . S
C1008 H984 0.950 . S
C1008 C1003 1.363 . S
C1008 C1007 1.415 . S
C1009 H985 0.951 1_565 S
C1009 C1010 1.366 . S
C1009 C1011 1.388 . S
C1010 C1009 1.366 . S
C1010 C1014 1.385 . S
C1011 H986 0.951 1_565 S
C1011 C1009 1.388 . S
C1011 C1012 1.366 . S
C1012 C1011 1.366 . S
C1012 C1013 1.414 . S
C1012 C1015 1.499 . S
C1013 H987 0.950 . S
C1013 C1012 1.414 . S
C1013 C1014 1.374 . S
C1014 H988 0.950 . S
C1014 C1010 1.385 . S
C1014 C1013 1.374 . S
C1015 C1012 1.499 . S
C1015 C1016 1.373 . S
C1015 C1017 1.389 . S
C1016 H989 0.950 . S
C1016 C1002 1.377 . S
C1016 C1015 1.373 . S
C1017 C1001 1.377 . S
C1017 C1015 1.389 . S
C1017 C1018 1.500 1_565 S
C1018 C1017 1.500 1_545 S
C1018 C1019 1.392 1_545 S
C1018 C1023 1.390 . S
C1019 H990 0.950 . S
C1019 C1018 1.392 1_565 S
C1019 C1020 1.334 1_565 S
C1020 H991 0.950 . S
C1020 C1019 1.334 1_545 S
C1020 C1021 1.287 . S
C1021 C1020 1.287 . S
C1021 C1022 1.524 . S
C1021 H1024 0.999 . S
C1022 H992 0.950 . S
C1022 C1021 1.524 . S
C1022 C1023 1.415 . S
C1023 H993 0.950 . S
C1023 C1018 1.390 . S
C1023 C1022 1.415 . S
H1024 C1021 0.999 . S
H1025 C1006 0.913 1_455 S
H1026 C1044 0.951 . S
H1027 C1046 0.951 . S
H1028 C1048 0.950 . S
H1029 C1049 0.950 . S
H1030 C1051 0.950 . S
H1031 C1054 0.950 . S
H1032 C1055 0.950 . S
H1033 C1057 0.950 . S
H1034 C1058 0.950 . S
H1035 C1059 0.951 . S
H1036 C1061 0.951 . S
H1037 C1063 0.950 . S
H1038 C1064 0.950 . S
H1039 C1066 0.950 . S
H1040 C1069 0.950 . S
H1041 C1070 0.950 . S
H1042 C1072 0.950 . S
H1043 C1073 0.950 . S
C1044 H1026 0.951 . S
C1044 C1045 1.366 . S
C1044 C1046 1.388 . S
C1045 C1044 1.366 . S
C1045 C1049 1.385 . S
C1046 H1027 0.951 . S
C1046 C1044 1.388 . S
C1046 C1047 1.366 . S
C1047 C1046 1.366 . S
C1047 C1048 1.414 . S
C1047 C1050 1.499 . S
C1048 H1028 0.950 . S
C1048 C1047 1.414 . S
C1048 C1049 1.374 . S
C1049 H1029 0.950 . S
C1049 C1045 1.385 . S
C1049 C1048 1.374 . S
C1050 C1047 1.499 . S
C1050 C1051 1.373 . S
C1050 C1052 1.389 . S
C1051 H1030 0.950 . S
C1051 C1050 1.373 . S
C1051 C1067 1.377 . S
C1052 C1050 1.389 . S
C1052 C1053 1.524 . S
C1052 C1066 1.377 . S
C1053 C1052 1.524 . S
C1053 C1054 1.397 . S
C1053 C1058 1.363 . S
C1054 H1031 0.950 . S
C1054 C1053 1.397 . S
C1054 C1055 1.334 . S
C1055 H1032 0.950 . S
C1055 C1054 1.334 . S
C1055 C1056 1.287 . S
C1056 C1055 1.287 . S
C1056 C1057 1.524 . S
C1056 H1075 0.913 . S
C1057 H1033 0.950 . S
C1057 C1056 1.524 . S
C1057 C1058 1.415 . S
C1058 H1034 0.950 . S
C1058 C1053 1.363 . S
C1058 C1057 1.415 . S
C1059 H1035 0.951 . S
C1059 C1060 1.366 . S
C1059 C1061 1.388 . S
C1060 C1059 1.366 . S
C1060 C1064 1.385 . S
C1061 H1036 0.951 . S
C1061 C1059 1.388 . S
C1061 C1062 1.366 . S
C1062 C1061 1.366 . S
C1062 C1063 1.414 . S
C1062 C1065 1.499 . S
C1063 H1037 0.950 . S
C1063 C1062 1.414 . S
C1063 C1064 1.374 . S
C1064 H1038 0.950 . S
C1064 C1060 1.385 . S
C1064 C1063 1.374 . S
C1065 C1062 1.499 . S
C1065 C1066 1.373 . S
C1065 C1067 1.389 . S
C1066 H1039 0.950 . S
C1066 C1052 1.377 . S
C1066 C1065 1.373 . S
C1067 C1051 1.377 . S
C1067 C1065 1.389 . S
C1067 C1068 1.524 . S
C1068 C1067 1.524 . S
C1068 C1069 1.397 . S
C1068 C1073 1.363 . S
C1069 H1040 0.950 . S
C1069 C1068 1.397 . S
C1069 C1070 1.334 . S
C1070 H1041 0.950 . S
C1070 C1069 1.334 . S
C1070 C1071 1.287 . S
C1071 C1070 1.287 . S
C1071 C1072 1.524 . S
C1071 H1074 0.999 . S
C1072 H1042 0.950 . S
C1072 C1071 1.524 . S
C1072 C1073 1.415 . S
C1073 H1043 0.950 . S
C1073 C1068 1.363 . S
C1073 C1072 1.415 . S
H1074 C1071 0.999 . S
H1075 C1056 0.913 . S
H1076 C1094 0.951 . S
H1077 C1096 0.951 . S
H1078 C1098 0.950 . S
H1079 C1099 0.950 . S
H1080 C1101 0.950 . S
H1081 C1104 0.950 . S
H1082 C1105 0.950 . S
H1083 C1107 0.950 . S
H1084 C1108 0.950 . S
H1085 C1109 0.951 . S
H1086 C1111 0.951 . S
H1087 C1113 0.950 . S
H1088 C1114 0.950 . S
H1089 C1116 0.950 . S
H1090 C1119 0.950 . S
H1091 C1120 0.950 . S
H1092 C1122 0.950 . S
H1093 C1123 0.950 . S
C1094 H1076 0.951 . S
C1094 C1095 1.366 . S
C1094 C1096 1.388 . S
C1095 C1094 1.366 . S
C1095 C1099 1.385 . S
C1096 H1077 0.951 . S
C1096 C1094 1.388 . S
C1096 C1097 1.366 . S
C1097 C1096 1.366 . S
C1097 C1098 1.414 . S
C1097 C1100 1.499 . S
C1098 H1078 0.950 . S
C1098 C1097 1.414 . S
C1098 C1099 1.374 . S
C1099 H1079 0.950 . S
C1099 C1095 1.385 . S
C1099 C1098 1.374 . S
C1100 C1097 1.499 . S
C1100 C1101 1.373 . S
C1100 C1102 1.389 . S
C1101 H1080 0.950 . S
C1101 C1100 1.373 . S
C1101 C1117 1.377 . S
C1102 C1100 1.389 . S
C1102 C1103 1.524 . S
C1102 C1116 1.377 . S
C1103 C1102 1.524 . S
C1103 C1104 1.397 . S
C1103 C1108 1.363 . S
C1104 H1081 0.950 . S
C1104 C1103 1.397 . S
C1104 C1105 1.334 . S
C1105 H1082 0.950 . S
C1105 C1104 1.334 . S
C1105 C1106 1.287 . S
C1106 C1105 1.287 . S
C1106 C1107 1.524 . S
C1106 H1125 0.913 . S
C1107 H1083 0.950 . S
C1107 C1106 1.524 . S
C1107 C1108 1.415 . S
C1108 H1084 0.950 . S
C1108 C1103 1.363 . S
C1108 C1107 1.415 . S
C1109 H1085 0.951 . S
C1109 C1110 1.366 . S
C1109 C1111 1.388 . S
C1110 C1109 1.366 . S
C1110 C1114 1.385 . S
C1111 H1086 0.951 . S
C1111 C1109 1.388 . S
C1111 C1112 1.366 . S
C1112 C1111 1.366 . S
C1112 C1113 1.414 . S
C1112 C1115 1.499 . S
C1113 H1087 0.950 . S
C1113 C1112 1.414 . S
C1113 C1114 1.374 . S
C1114 H1088 0.950 . S
C1114 C1110 1.385 . S
C1114 C1113 1.374 . S
C1115 C1112 1.499 . S
C1115 C1116 1.373 . S
C1115 C1117 1.389 . S
C1116 H1089 0.950 . S
C1116 C1102 1.377 . S
C1116 C1115 1.373 . S
C1117 C1101 1.377 . S
C1117 C1115 1.389 . S
C1117 C1118 1.524 . S
C1118 C1117 1.524 . S
C1118 C1119 1.397 . S
C1118 C1123 1.363 . S
C1119 H1090 0.950 . S
C1119 C1118 1.397 . S
C1119 C1120 1.334 . S
C1120 H1091 0.950 . S
C1120 C1119 1.334 . S
C1120 C1121 1.287 . S
C1121 C1120 1.287 . S
C1121 C1122 1.524 . S
C1121 H1124 0.999 . S
C1122 H1092 0.950 . S
C1122 C1121 1.524 . S
C1122 C1123 1.415 . S
C1123 H1093 0.950 . S
C1123 C1118 1.363 . S
C1123 C1122 1.415 . S
H1124 C1121 0.999 . S
H1125 C1106 0.913 . S
H1126 C1144 0.951 . S
H1127 C1146 0.951 . S
H1128 C1148 0.950 . S
H1129 C1149 0.950 . S
H1130 C1151 0.950 . S
H1131 C1154 0.950 . S
H1132 C1155 0.950 . S
H1133 C1157 0.950 . S
H1134 C1158 0.950 . S
H1135 C1159 0.951 . S
H1136 C1161 0.951 . S
H1137 C1163 0.950 . S
H1138 C1164 0.950 . S
H1139 C1166 0.950 . S
H1140 C1169 0.950 . S
H1141 C1170 0.950 . S
H1142 C1172 0.950 . S
H1143 C1173 0.950 . S
C1144 H1126 0.951 . S
C1144 C1145 1.366 . S
C1144 C1146 1.388 . S
C1145 C1144 1.366 . S
C1145 C1149 1.385 . S
C1146 H1127 0.951 . S
C1146 C1144 1.388 . S
C1146 C1147 1.366 . S
C1147 C1146 1.366 . S
C1147 C1148 1.414 . S
C1147 C1150 1.499 . S
C1148 H1128 0.950 . S
C1148 C1147 1.414 . S
C1148 C1149 1.374 . S
C1149 H1129 0.950 . S
C1149 C1145 1.385 . S
C1149 C1148 1.374 . S
C1150 C1147 1.499 . S
C1150 C1151 1.373 . S
C1150 C1152 1.389 . S
C1151 H1130 0.950 . S
C1151 C1150 1.373 . S
C1151 C1167 1.377 . S
C1152 C1150 1.389 . S
C1152 C1153 1.524 . S
C1152 C1166 1.377 . S
C1153 C1152 1.524 . S
C1153 C1154 1.397 . S
C1153 C1158 1.363 . S
C1154 H1131 0.950 . S
C1154 C1153 1.397 . S
C1154 C1155 1.334 . S
C1155 H1132 0.950 . S
C1155 C1154 1.334 . S
C1155 C1156 1.287 . S
C1156 C1155 1.287 . S
C1156 C1157 1.524 . S
C1156 H1175 0.913 . S
C1157 H1133 0.950 . S
C1157 C1156 1.524 . S
C1157 C1158 1.415 . S
C1158 H1134 0.950 . S
C1158 C1153 1.363 . S
C1158 C1157 1.415 . S
C1159 H1135 0.951 . S
C1159 C1160 1.366 . S
C1159 C1161 1.388 . S
C1160 C1159 1.366 . S
C1160 C1164 1.385 . S
C1161 H1136 0.951 . S
C1161 C1159 1.388 . S
C1161 C1162 1.366 . S
C1162 C1161 1.366 . S
C1162 C1163 1.414 . S
C1162 C1165 1.499 . S
C1163 H1137 0.950 . S
C1163 C1162 1.414 . S
C1163 C1164 1.374 . S
C1164 H1138 0.950 . S
C1164 C1160 1.385 . S
C1164 C1163 1.374 . S
C1165 C1162 1.499 . S
C1165 C1166 1.373 . S
C1165 C1167 1.389 . S
C1166 H1139 0.950 . S
C1166 C1152 1.377 . S
C1166 C1165 1.373 . S
C1167 C1151 1.377 . S
C1167 C1165 1.389 . S
C1167 C1168 1.524 . S
C1168 C1167 1.524 . S
C1168 C1169 1.397 . S
C1168 C1173 1.363 . S
C1169 H1140 0.950 . S
C1169 C1168 1.397 . S
C1169 C1170 1.334 1_455 S
C1170 H1141 0.950 . S
C1170 C1169 1.334 1_655 S
C1170 C1171 1.287 1_655 S
C1171 C1170 1.287 1_455 S
C1171 C1172 1.524 . S
C1171 H1174 0.999 1_455 S
C1172 H1142 0.950 . S
C1172 C1171 1.524 . S
C1172 C1173 1.415 . S
C1173 H1143 0.950 . S
C1173 C1168 1.363 . S
C1173 C1172 1.415 . S
H1174 C1171 0.999 1_655 S
H1175 C1156 0.913 . S
H1176 C1194 0.951 . S
H1177 C1196 0.951 . S
H1178 C1198 0.950 . S
H1179 C1199 0.950 . S
H1180 C1201 0.950 . S
H1181 C1204 0.958 . S
H1182 C1205 0.950 . S
H1183 C1207 0.950 . S
H1184 C1208 0.948 . S
H1185 C1209 0.951 . S
H1186 C1211 0.951 . S
H1187 C1213 0.950 1_545 S
H1188 C1214 0.950 . S
H1189 C1216 0.950 . S
H1190 C1219 0.950 . S
H1191 C1220 0.950 . S
H1192 C1222 0.950 . S
H1193 C1223 0.950 . S
C1194 H1176 0.951 . S
C1194 C1195 1.366 . S
C1194 C1196 1.388 . S
C1195 C1194 1.366 . S
C1195 C1199 1.385 . S
C1196 H1177 0.951 . S
C1196 C1194 1.388 . S
C1196 C1197 1.366 . S
C1197 C1196 1.366 . S
C1197 C1198 1.414 . S
C1197 C1200 1.499 . S
C1198 H1178 0.950 . S
C1198 C1197 1.414 . S
C1198 C1199 1.374 . S
C1199 H1179 0.950 . S
C1199 C1195 1.385 . S
C1199 C1198 1.374 . S
C1200 C1197 1.499 . S
C1200 C1201 1.373 . S
C1200 C1202 1.389 . S
C1201 H1180 0.950 . S
C1201 C1200 1.373 . S
C1201 C1217 1.377 . S
C1202 C1200 1.389 . S
C1202 C1203 1.524 . S
C1202 C1216 1.377 . S
C1203 C1202 1.524 . S
C1203 C1204 1.397 1_556 S
C1203 C1208 1.367 1_565 S
C1204 H1181 0.958 . S
C1204 C1203 1.397 1_554 S
C1204 C1205 1.334 . S
C1205 H1182 0.950 . S
C1205 C1204 1.334 . S
C1205 C1206 1.287 . S
C1206 C1205 1.287 . S
C1206 C1207 1.524 1_565 S
C1206 H1225 0.913 . S
C1207 H1183 0.950 . S
C1207 C1206 1.524 1_545 S
C1207 C1208 1.414 1_554 S
C1208 H1184 0.948 . S
C1208 C1203 1.367 1_545 S
C1208 C1207 1.414 1_556 S
C1209 H1185 0.951 . S
C1209 C1210 1.366 . S
C1209 C1211 1.388 . S
C1210 C1209 1.366 . S
C1210 C1214 1.385 1_565 S
C1211 H1186 0.951 . S
C1211 C1209 1.388 . S
C1211 C1212 1.366 . S
C1212 C1211 1.366 . S
C1212 C1213 1.414 . S
C1212 C1215 1.499 . S
C1213 H1187 0.950 1_565 S
C1213 C1212 1.414 . S
C1213 C1214 1.374 1_565 S
C1214 H1188 0.950 . S
C1214 C1210 1.385 1_545 S
C1214 C1213 1.374 1_545 S
C1215 C1212 1.499 . S
C1215 C1216 1.373 . S
C1215 C1217 1.389 . S
C1216 H1189 0.950 . S
C1216 C1202 1.377 . S
C1216 C1215 1.373 . S
C1217 C1201 1.377 . S
C1217 C1215 1.389 . S
C1217 C1218 1.524 . S
C1218 C1217 1.524 . S
C1218 C1219 1.397 . S
C1218 C1223 1.363 . S
C1219 H1190 0.950 . S
C1219 C1218 1.397 . S
C1219 C1220 1.334 . S
C1220 H1191 0.950 . S
C1220 C1219 1.334 . S
C1220 C1221 1.287 . S
C1221 C1220 1.287 . S
C1221 C1222 1.524 . S
C1221 H1224 0.999 . S
C1222 H1192 0.950 . S
C1222 C1221 1.524 . S
C1222 C1223 1.415 . S
C1223 H1193 0.950 . S
C1223 C1218 1.363 . S
C1223 C1222 1.415 . S
H1224 C1221 0.999 . S
H1225 C1206 0.913 . S
H1226 C1244 0.951 . S
H1227 C1246 0.951 . S
H1228 C1248 0.950 . S
H1229 C1249 0.950 . S
H1230 C1251 0.950 . S
H1231 C1254 0.950 . S
H1232 C1255 0.950 . S
H1233 C1257 0.950 . S
H1234 C1258 0.950 . S
H1235 C1259 0.951 . S
H1236 C1261 0.951 . S
H1237 C1263 0.950 . S
H1238 C1264 0.950 . S
H1239 C1266 0.950 . S
H1240 C1269 0.950 . S
H1241 C1270 0.950 . S
H1242 C1272 0.950 1_565 S
H1243 C1273 0.950 . S
C1244 H1226 0.951 . S
C1244 C1245 1.366 . S
C1244 C1246 1.388 . S
C1245 C1244 1.366 . S
C1245 C1249 1.385 . S
C1246 H1227 0.951 . S
C1246 C1244 1.388 . S
C1246 C1247 1.366 . S
C1247 C1246 1.366 . S
C1247 C1248 1.414 . S
C1247 C1250 1.499 . S
C1248 H1228 0.950 . S
C1248 C1247 1.414 . S
C1248 C1249 1.374 . S
C1249 H1229 0.950 . S
C1249 C1245 1.385 . S
C1249 C1248 1.374 . S
C1250 C1247 1.499 . S
C1250 C1251 1.373 . S
C1250 C1252 1.389 . S
C1251 H1230 0.950 . S
C1251 C1250 1.373 . S
C1251 C1267 1.377 . S
C1252 C1250 1.389 . S
C1252 C1253 1.524 . S
C1252 C1266 1.377 . S
C1253 C1252 1.524 . S
C1253 C1254 1.397 . S
C1253 C1258 1.363 . S
C1254 H1231 0.950 . S
C1254 C1253 1.397 . S
C1254 C1255 1.334 . S
C1255 H1232 0.950 . S
C1255 C1254 1.334 . S
C1255 C1256 1.287 . S
C1256 C1255 1.287 . S
C1256 C1257 1.524 . S
C1256 H1275 0.913 . S
C1257 H1233 0.950 . S
C1257 C1256 1.524 . S
C1257 C1258 1.415 . S
C1258 H1234 0.950 . S
C1258 C1253 1.363 . S
C1258 C1257 1.415 . S
C1259 H1235 0.951 . S
C1259 C1260 1.366 . S
C1259 C1261 1.388 . S
C1260 C1259 1.366 . S
C1260 C1264 1.385 . S
C1261 H1236 0.951 . S
C1261 C1259 1.388 . S
C1261 C1262 1.366 . S
C1262 C1261 1.366 . S
C1262 C1263 1.414 . S
C1262 C1265 1.499 . S
C1263 H1237 0.950 . S
C1263 C1262 1.414 . S
C1263 C1264 1.374 . S
C1264 H1238 0.950 . S
C1264 C1260 1.385 . S
C1264 C1263 1.374 . S
C1265 C1262 1.499 . S
C1265 C1266 1.373 . S
C1265 C1267 1.389 . S
C1266 H1239 0.950 . S
C1266 C1252 1.377 . S
C1266 C1265 1.373 . S
C1267 C1251 1.377 . S
C1267 C1265 1.389 . S
C1267 C1268 1.524 . S
C1268 C1267 1.524 . S
C1268 C1269 1.397 . S
C1268 C1273 1.363 . S
C1269 H1240 0.950 . S
C1269 C1268 1.397 . S
C1269 C1270 1.334 . S
C1270 H1241 0.950 . S
C1270 C1269 1.334 . S
C1270 C1271 1.287 . S
C1271 C1270 1.287 . S
C1271 C1272 1.524 . S
C1271 H1274 0.999 . S
C1272 H1242 0.950 1_545 S
C1272 C1271 1.524 . S
C1272 C1273 1.415 . S
C1273 H1243 0.950 . S
C1273 C1268 1.363 . S
C1273 C1272 1.415 . S
H1274 C1271 0.999 . S
H1275 C1256 0.913 . S
H1276 C1294 0.951 . S
H1277 C1296 0.951 . S
H1278 C1298 0.950 . S
H1279 C1299 0.950 . S
H1280 C1301 0.950 . S
H1281 C1304 0.950 . S
H1282 C1305 0.940 1_556 S
H1283 C1307 0.948 . S
H1284 C1308 0.950 . S
H1285 C1309 0.951 . S
H1286 C1311 0.951 . S
H1287 C1313 0.950 . S
H1288 C1314 0.950 . S
H1289 C1316 0.950 . S
H1290 C1319 0.950 . S
H1291 C1320 0.950 . S
H1292 C1322 0.950 . S
H1293 C1323 0.950 . S
C1294 H1276 0.951 . S
C1294 C1295 1.366 . S
C1294 C1296 1.388 . S
C1295 C1294 1.366 . S
C1295 C1299 1.385 . S
C1296 H1277 0.951 . S
C1296 C1294 1.388 . S
C1296 C1297 1.366 . S
C1297 C1296 1.366 . S
C1297 C1298 1.414 . S
C1297 C1300 1.499 . S
C1298 H1278 0.950 . S
C1298 C1297 1.414 . S
C1298 C1299 1.374 . S
C1299 H1279 0.950 . S
C1299 C1295 1.385 . S
C1299 C1298 1.374 . S
C1300 C1297 1.499 . S
C1300 C1301 1.373 . S
C1300 C1302 1.389 . S
C1301 H1280 0.950 . S
C1301 C1300 1.373 . S
C1301 C1317 1.377 . S
C1302 C1300 1.389 . S
C1302 C1303 1.524 . S
C1302 C1316 1.377 . S
C1303 C1302 1.524 . S
C1303 C1304 1.397 . S
C1303 C1308 1.363 . S
C1304 H1281 0.950 . S
C1304 C1303 1.397 . S
C1304 C1305 1.334 . S
C1305 H1282 0.940 1_554 S
C1305 C1304 1.334 . S
C1305 C1306 1.287 1_554 S
C1306 C1305 1.287 1_556 S
C1306 C1307 1.524 1_556 S
C1306 H1325 0.913 . S
C1307 H1283 0.948 . S
C1307 C1306 1.524 1_554 S
C1307 C1308 1.415 . S
C1308 H1284 0.950 . S
C1308 C1303 1.363 . S
C1308 C1307 1.415 . S
C1309 H1285 0.951 . S
C1309 C1310 1.366 . S
C1309 C1311 1.388 . S
C1310 C1309 1.366 . S
C1310 C1314 1.385 . S
C1311 H1286 0.951 . S
C1311 C1309 1.388 . S
C1311 C1312 1.366 . S
C1312 C1311 1.366 . S
C1312 C1313 1.414 . S
C1312 C1315 1.499 . S
C1313 H1287 0.950 . S
C1313 C1312 1.414 . S
C1313 C1314 1.374 . S
C1314 H1288 0.950 . S
C1314 C1310 1.385 . S
C1314 C1313 1.374 . S
C1315 C1312 1.499 . S
C1315 C1316 1.373 . S
C1315 C1317 1.389 . S
C1316 H1289 0.950 . S
C1316 C1302 1.377 . S
C1316 C1315 1.373 . S
C1317 C1301 1.377 . S
C1317 C1315 1.389 . S
C1317 C1318 1.524 . S
C1318 C1317 1.524 . S
C1318 C1319 1.397 . S
C1318 C1323 1.363 . S
C1319 H1290 0.950 . S
C1319 C1318 1.397 . S
C1319 C1320 1.334 . S
C1320 H1291 0.950 . S
C1320 C1319 1.334 . S
C1320 C1321 1.287 . S
C1321 C1320 1.287 . S
C1321 C1322 1.524 . S
C1321 H1324 0.999 . S
C1322 H1292 0.950 . S
C1322 C1321 1.524 . S
C1322 C1323 1.415 . S
C1323 H1293 0.950 . S
C1323 C1318 1.363 . S
C1323 C1322 1.415 . S
H1324 C1321 0.999 . S
H1325 C1306 0.913 . S
H1326 C1344 0.951 . S
H1327 C1346 0.951 . S
H1328 C1348 0.950 . S
H1329 C1349 0.950 . S
H1330 C1351 0.950 . S
H1331 C1354 0.950 . S
H1332 C1355 0.950 . S
H1333 C1357 0.950 . S
H1334 C1358 0.950 . S
H1335 C1359 0.951 . S
H1336 C1361 0.951 . S
H1337 C1363 0.950 . S
H1338 C1364 0.950 . S
H1339 C1366 0.950 . S
H1340 C1369 0.950 . S
H1341 C1370 0.950 . S
H1342 C1372 0.950 . S
H1343 C1373 0.950 . S
C1344 H1326 0.951 . S
C1344 C1345 1.366 . S
C1344 C1346 1.388 . S
C1345 C1344 1.366 . S
C1345 C1349 1.385 . S
C1346 H1327 0.951 . S
C1346 C1344 1.388 . S
C1346 C1347 1.366 . S
C1347 C1346 1.366 . S
C1347 C1348 1.414 . S
C1347 C1350 1.499 . S
C1348 H1328 0.950 . S
C1348 C1347 1.414 . S
C1348 C1349 1.374 . S
C1349 H1329 0.950 . S
C1349 C1345 1.385 . S
C1349 C1348 1.374 . S
C1350 C1347 1.499 . S
C1350 C1351 1.373 . S
C1350 C1352 1.389 . S
C1351 H1330 0.950 . S
C1351 C1350 1.373 . S
C1351 C1367 1.377 . S
C1352 C1350 1.389 . S
C1352 C1353 1.524 . S
C1352 C1366 1.377 . S
C1353 C1352 1.524 . S
C1353 C1354 1.397 . S
C1353 C1358 1.363 . S
C1354 H1331 0.950 . S
C1354 C1353 1.397 . S
C1354 C1355 1.334 . S
C1355 H1332 0.950 . S
C1355 C1354 1.334 . S
C1355 C1356 1.287 . S
C1356 C1355 1.287 . S
C1356 C1357 1.524 . S
C1356 H1375 0.913 . S
C1357 H1333 0.950 . S
C1357 C1356 1.524 . S
C1357 C1358 1.415 . S
C1358 H1334 0.950 . S
C1358 C1353 1.363 . S
C1358 C1357 1.415 . S
C1359 H1335 0.951 . S
C1359 C1360 1.366 . S
C1359 C1361 1.388 . S
C1360 C1359 1.366 . S
C1360 C1364 1.385 . S
C1361 H1336 0.951 . S
C1361 C1359 1.388 . S
C1361 C1362 1.366 . S
C1362 C1361 1.366 . S
C1362 C1363 1.414 . S
C1362 C1365 1.499 . S
C1363 H1337 0.950 . S
C1363 C1362 1.414 . S
C1363 C1364 1.374 . S
C1364 H1338 0.950 . S
C1364 C1360 1.385 . S
C1364 C1363 1.374 . S
C1365 C1362 1.499 . S
C1365 C1366 1.373 . S
C1365 C1367 1.389 . S
C1366 H1339 0.950 . S
C1366 C1352 1.377 . S
C1366 C1365 1.373 . S
C1367 C1351 1.377 . S
C1367 C1365 1.389 . S
C1367 C1368 1.524 . S
C1368 C1367 1.524 . S
C1368 C1369 1.397 . S
C1368 C1373 1.363 . S
C1369 H1340 0.950 . S
C1369 C1368 1.397 . S
C1369 C1370 1.334 . S
C1370 H1341 0.950 . S
C1370 C1369 1.334 . S
C1370 C1371 1.287 . S
C1371 C1370 1.287 . S
C1371 C1372 1.524 . S
C1371 H1374 0.999 . S
C1372 H1342 0.950 . S
C1372 C1371 1.524 . S
C1372 C1373 1.415 . S
C1373 H1343 0.950 . S
C1373 C1368 1.363 . S
C1373 C1372 1.415 . S
H1374 C1371 0.999 . S
H1375 C1356 0.913 . S
H1376 C1394 0.951 . S
H1377 C1396 0.951 . S
H1378 C1398 0.950 . S
H1379 C1399 0.950 . S
H1380 C1401 0.950 . S
H1381 C1404 0.950 . S
H1382 C1405 0.950 . S
H1383 C1407 0.928 1_455 S
H1384 C1408 0.950 1_455 S
H1385 C1409 0.951 . S
H1386 C1411 0.951 . S
H1387 C1413 0.950 1_455 S
H1388 C1414 0.950 1_455 S
H1389 C1416 0.950 . S
H1390 C1419 0.950 . S
H1391 C1420 0.950 . S
H1392 C1422 0.950 . S
H1393 C1423 0.950 . S
C1394 H1376 0.951 . S
C1394 C1395 1.366 . S
C1394 C1396 1.388 . S
C1395 C1394 1.366 . S
C1395 C1399 1.385 . S
C1396 H1377 0.951 . S
C1396 C1394 1.388 . S
C1396 C1397 1.366 . S
C1397 C1396 1.366 . S
C1397 C1398 1.414 . S
C1397 C1400 1.499 . S
C1398 H1378 0.950 . S
C1398 C1397 1.414 . S
C1398 C1399 1.374 . S
C1399 H1379 0.950 . S
C1399 C1395 1.385 . S
C1399 C1398 1.374 . S
C1400 C1397 1.499 . S
C1400 C1401 1.373 . S
C1400 C1402 1.389 . S
C1401 H1380 0.950 . S
C1401 C1400 1.373 . S
C1401 C1417 1.377 . S
C1402 C1400 1.389 . S
C1402 C1403 1.524 . S
C1402 C1416 1.377 . S
C1403 C1402 1.524 . S
C1403 C1404 1.397 . S
C1403 C1408 1.363 . S
C1404 H1381 0.950 . S
C1404 C1403 1.397 . S
C1404 C1405 1.334 . S
C1405 H1382 0.950 . S
C1405 C1404 1.334 . S
C1405 C1406 1.287 . S
C1406 C1405 1.287 . S
C1406 C1407 1.542 . S
C1406 H1425 0.913 . S
C1407 H1383 0.928 1_655 S
C1407 C1406 1.542 . S
C1407 C1408 1.422 . S
C1408 H1384 0.950 1_655 S
C1408 C1403 1.363 . S
C1408 C1407 1.422 . S
C1409 H1385 0.951 . S
C1409 C1410 1.366 . S
C1409 C1411 1.388 . S
C1410 C1409 1.366 . S
C1410 C1414 1.385 . S
C1411 H1386 0.951 . S
C1411 C1409 1.388 . S
C1411 C1412 1.366 . S
C1412 C1411 1.366 . S
C1412 C1413 1.414 . S
C1412 C1415 1.499 . S
C1413 H1387 0.950 1_655 S
C1413 C1412 1.414 . S
C1413 C1414 1.374 . S
C1414 H1388 0.950 1_655 S
C1414 C1410 1.385 . S
C1414 C1413 1.374 . S
C1415 C1412 1.499 . S
C1415 C1416 1.373 . S
C1415 C1417 1.389 . S
C1416 H1389 0.950 . S
C1416 C1402 1.377 . S
C1416 C1415 1.373 . S
C1417 C1401 1.377 . S
C1417 C1415 1.389 . S
C1417 C1418 1.524 1_556 S
C1418 C1417 1.524 1_554 S
C1418 C1419 1.397 . S
C1418 C1423 1.363 . S
C1419 H1390 0.950 . S
C1419 C1418 1.397 . S
C1419 C1420 1.334 . S
C1420 H1391 0.950 . S
C1420 C1419 1.334 . S
C1420 C1421 1.287 . S
C1421 C1420 1.287 . S
C1421 C1422 1.524 . S
C1421 H1424 0.999 . S
C1422 H1392 0.950 . S
C1422 C1421 1.524 . S
C1422 C1423 1.415 . S
C1423 H1393 0.950 . S
C1423 C1418 1.363 . S
C1423 C1422 1.415 . S
H1424 C1421 0.999 . S
H1425 C1406 0.913 . S
H1426 C1444 0.951 . S
H1427 C1446 0.951 . S
H1428 C1448 0.950 . S
H1429 C1449 0.950 . S
H1430 C1451 0.950 . S
H1431 C1454 0.950 . S
H1432 C1455 0.950 . S
H1433 C1457 0.950 . S
H1434 C1458 0.950 . S
H1435 C1459 0.951 . S
H1436 C1461 0.951 . S
H1437 C1463 0.950 . S
H1438 C1464 0.950 . S
H1439 C1466 0.950 . S
H1440 C1469 0.950 . S
H1441 C1470 0.950 . S
H1442 C1472 0.950 . S
H1443 C1473 0.955 . S
C1444 H1426 0.951 . S
C1444 C1445 1.366 . S
C1444 C1446 1.388 . S
C1445 C1444 1.366 . S
C1445 C1449 1.385 . S
C1446 H1427 0.951 . S
C1446 C1444 1.388 . S
C1446 C1447 1.366 . S
C1447 C1446 1.366 . S
C1447 C1448 1.414 . S
C1447 C1450 1.499 . S
C1448 H1428 0.950 . S
C1448 C1447 1.414 . S
C1448 C1449 1.374 . S
C1449 H1429 0.950 . S
C1449 C1445 1.385 . S
C1449 C1448 1.374 . S
C1450 C1447 1.499 . S
C1450 C1451 1.373 . S
C1450 C1452 1.389 . S
C1451 H1430 0.950 . S
C1451 C1450 1.373 . S
C1451 C1467 1.377 . S
C1452 C1450 1.389 . S
C1452 C1453 1.524 . S
C1452 C1466 1.377 . S
C1453 C1452 1.524 . S
C1453 C1454 1.397 . S
C1453 C1458 1.363 . S
C1454 H1431 0.950 . S
C1454 C1453 1.397 . S
C1454 C1455 1.334 . S
C1455 H1432 0.950 . S
C1455 C1454 1.334 . S
C1455 C1456 1.287 . S
C1456 C1455 1.287 . S
C1456 C1457 1.524 . S
C1456 H1475 0.913 . S
C1457 H1433 0.950 . S
C1457 C1456 1.524 . S
C1457 C1458 1.415 . S
C1458 H1434 0.950 . S
C1458 C1453 1.363 . S
C1458 C1457 1.415 . S
C1459 H1435 0.951 . S
C1459 C1460 1.366 . S
C1459 C1461 1.388 . S
C1460 C1459 1.366 . S
C1460 C1464 1.385 . S
C1461 H1436 0.951 . S
C1461 C1459 1.388 . S
C1461 C1462 1.366 . S
C1462 C1461 1.366 . S
C1462 C1463 1.414 . S
C1462 C1465 1.499 . S
C1463 H1437 0.950 . S
C1463 C1462 1.414 . S
C1463 C1464 1.374 . S
C1464 H1438 0.950 . S
C1464 C1460 1.385 . S
C1464 C1463 1.374 . S
C1465 C1462 1.499 . S
C1465 C1466 1.373 . S
C1465 C1467 1.389 . S
C1466 H1439 0.950 . S
C1466 C1452 1.377 . S
C1466 C1465 1.373 . S
C1467 C1451 1.377 . S
C1467 C1465 1.389 . S
C1467 C1468 1.524 . S
C1468 C1467 1.524 . S
C1468 C1469 1.397 . S
C1468 C1473 1.363 1_554 S
C1469 H1440 0.950 . S
C1469 C1468 1.397 . S
C1469 C1470 1.334 1_554 S
C1470 H1441 0.950 . S
C1470 C1469 1.334 1_556 S
C1470 C1471 1.287 . S
C1471 C1470 1.287 . S
C1471 C1472 1.524 . S
C1471 H1474 0.999 . S
C1472 H1442 0.950 . S
C1472 C1471 1.524 . S
C1472 C1473 1.415 . S
C1473 H1443 0.955 . S
C1473 C1468 1.363 1_556 S
C1473 C1472 1.415 . S
H1474 C1471 0.999 . S
H1475 C1456 0.913 . S
H1476 C1494 0.951 . S
H1477 C1496 0.951 . S
H1478 C1498 0.950 . S
H1479 C1499 0.950 . S
H1480 C1501 0.950 . S
H1481 C1504 0.943 1_455 S
H1482 C1505 0.950 . S
H1483 C1507 0.950 . S
H1484 C1508 0.965 . S
H1485 C1509 0.951 . S
H1486 C1511 0.951 . S
H1487 C1513 0.950 . S
H1488 C1514 0.950 . S
H1489 C1516 0.950 . S
H1490 C1519 0.950 . S
H1491 C1520 0.950 . S
H1492 C1522 0.950 . S
H1493 C1523 0.950 . S
C1494 H1476 0.951 . S
C1494 C1495 1.366 . S
C1494 C1496 1.388 . S
C1495 C1494 1.366 . S
C1495 C1499 1.385 . S
C1496 H1477 0.951 . S
C1496 C1494 1.388 . S
C1496 C1497 1.366 . S
C1497 C1496 1.366 . S
C1497 C1498 1.414 . S
C1497 C1500 1.499 . S
C1498 H1478 0.950 . S
C1498 C1497 1.414 . S
C1498 C1499 1.374 . S
C1499 H1479 0.950 . S
C1499 C1495 1.385 . S
C1499 C1498 1.374 . S
C1500 C1497 1.499 . S
C1500 C1501 1.373 . S
C1500 C1502 1.389 . S
C1501 H1480 0.950 . S
C1501 C1500 1.373 . S
C1501 C1517 1.377 . S
C1502 C1500 1.389 . S
C1502 C1503 1.524 . S
C1502 C1516 1.377 . S
C1503 C1502 1.524 . S
C1503 C1504 1.397 1_455 S
C1503 C1508 1.371 . S
C1504 H1481 0.943 1_655 S
C1504 C1503 1.397 1_655 S
C1504 C1505 1.334 . S
C1505 H1482 0.950 . S
C1505 C1504 1.334 . S
C1505 C1506 1.287 . S
C1506 C1505 1.287 . S
C1506 C1507 1.524 . S
C1506 H1525 0.913 . S
C1507 H1483 0.950 . S
C1507 C1506 1.524 . S
C1507 C1508 1.393 1_655 S
C1508 H1484 0.965 . S
C1508 C1503 1.371 . S
C1508 C1507 1.393 1_455 S
C1509 H1485 0.951 . S
C1509 C1510 1.366 . S
C1509 C1511 1.388 . S
C1510 C1509 1.366 . S
C1510 C1514 1.385 . S
C1511 H1486 0.951 . S
C1511 C1509 1.388 . S
C1511 C1512 1.366 . S
C1512 C1511 1.366 . S
C1512 C1513 1.414 . S
C1512 C1515 1.499 . S
C1513 H1487 0.950 . S
C1513 C1512 1.414 . S
C1513 C1514 1.374 . S
C1514 H1488 0.950 . S
C1514 C1510 1.385 . S
C1514 C1513 1.374 . S
C1515 C1512 1.499 . S
C1515 C1516 1.373 . S
C1515 C1517 1.389 . S
C1516 H1489 0.950 . S
C1516 C1502 1.377 . S
C1516 C1515 1.373 . S
C1517 C1501 1.377 . S
C1517 C1515 1.389 . S
C1517 C1518 1.524 . S
C1518 C1517 1.524 . S
C1518 C1519 1.397 . S
C1518 C1523 1.363 . S
C1519 H1490 0.950 . S
C1519 C1518 1.397 . S
C1519 C1520 1.334 . S
C1520 H1491 0.950 . S
C1520 C1519 1.334 . S
C1520 C1521 1.287 . S
C1521 C1520 1.287 . S
C1521 C1522 1.524 . S
C1521 H1524 0.999 . S
C1522 H1492 0.950 . S
C1522 C1521 1.524 . S
C1522 C1523 1.415 . S
C1523 H1493 0.950 . S
C1523 C1518 1.363 . S
C1523 C1522 1.415 . S
H1524 C1521 0.999 . S
H1525 C1506 0.913 . S
H1526 C1544 0.951 . S
H1527 C1546 0.951 . S
H1528 C1548 0.950 . S
H1529 C1549 0.950 . S
H1530 C1551 0.950 . S
H1531 C1554 0.950 . S
H1532 C1555 0.950 . S
H1533 C1557 0.950 . S
H1534 C1558 0.950 . S
H1535 C1559 0.951 . S
H1536 C1561 0.951 . S
H1537 C1563 0.950 . S
H1538 C1564 0.950 . S
H1539 C1566 0.950 . S
H1540 C1569 0.950 . S
H1541 C1570 0.950 . S
H1542 C1572 0.950 . S
H1543 C1573 0.950 . S
C1544 H1526 0.951 . S
C1544 C1545 1.366 . S
C1544 C1546 1.388 . S
C1545 C1544 1.366 . S
C1545 C1549 1.385 . S
C1546 H1527 0.951 . S
C1546 C1544 1.388 . S
C1546 C1547 1.366 . S
C1547 C1546 1.366 . S
C1547 C1548 1.414 . S
C1547 C1550 1.499 . S
C1548 H1528 0.950 . S
C1548 C1547 1.414 . S
C1548 C1549 1.374 . S
C1549 H1529 0.950 . S
C1549 C1545 1.385 . S
C1549 C1548 1.374 . S
C1550 C1547 1.499 . S
C1550 C1551 1.373 . S
C1550 C1552 1.389 . S
C1551 H1530 0.950 . S
C1551 C1550 1.373 . S
C1551 C1567 1.377 . S
C1552 C1550 1.389 . S
C1552 C1553 1.524 . S
C1552 C1566 1.377 . S
C1553 C1552 1.524 . S
C1553 C1554 1.397 . S
C1553 C1558 1.363 . S
C1554 H1531 0.950 . S
C1554 C1553 1.397 . S
C1554 C1555 1.334 . S
C1555 H1532 0.950 . S
C1555 C1554 1.334 . S
C1555 C1556 1.287 . S
C1556 C1555 1.287 . S
C1556 C1557 1.524 . S
C1556 H1575 0.913 . S
C1557 H1533 0.950 . S
C1557 C1556 1.524 . S
C1557 C1558 1.415 . S
C1558 H1534 0.950 . S
C1558 C1553 1.363 . S
C1558 C1557 1.415 . S
C1559 H1535 0.951 . S
C1559 C1560 1.366 . S
C1559 C1561 1.388 . S
C1560 C1559 1.366 . S
C1560 C1564 1.385 . S
C1561 H1536 0.951 . S
C1561 C1559 1.388 . S
C1561 C1562 1.366 . S
C1562 C1561 1.366 . S
C1562 C1563 1.414 . S
C1562 C1565 1.499 . S
C1563 H1537 0.950 . S
C1563 C1562 1.414 . S
C1563 C1564 1.374 . S
C1564 H1538 0.950 . S
C1564 C1560 1.385 . S
C1564 C1563 1.374 . S
C1565 C1562 1.499 . S
C1565 C1566 1.373 . S
C1565 C1567 1.389 . S
C1566 H1539 0.950 . S
C1566 C1552 1.377 . S
C1566 C1565 1.373 . S
C1567 C1551 1.377 . S
C1567 C1565 1.389 . S
C1567 C1568 1.524 . S
C1568 C1567 1.524 . S
C1568 C1569 1.397 . S
C1568 C1573 1.363 . S
C1569 H1540 0.950 . S
C1569 C1568 1.397 . S
C1569 C1570 1.334 . S
C1570 H1541 0.950 . S
C1570 C1569 1.334 . S
C1570 C1571 1.287 . S
C1571 C1570 1.287 . S
C1571 C1572 1.524 . S
C1571 H1574 0.999 . S
C1572 H1542 0.950 . S
C1572 C1571 1.524 . S
C1572 C1573 1.415 . S
C1573 H1543 0.950 . S
C1573 C1568 1.363 . S
C1573 C1572 1.415 . S
H1574 C1571 0.999 . S
H1575 C1556 0.913 . S
C395 C29 2.119 . S
C410 C272 2.225 . S
C445 C49 1.052 . S
C460 N292 1.030 . S
C510 C326 2.000 . S
C495 C93 1.906 . S
C545 C119 1.181 . S
C560 N360 1.190 . S
C610 C313 2.334 . S
C595 C17 2.246 . S
C660 N270 1.186 . S
C645 C61 1.231 . S
C710 C347 1.931 1_556 S
C695 C81 1.855 . S
C760 N322 1.017 . S
C745 C125 0.983 . S
C795 C23 1.722 . S
C810 C362 1.804 . S
C860 C296 1.659 . S
C845 C87 1.582 . S
C895 C113 1.399 . S
C910 C257 1.476 . S
C945 C55 1.429 . S
C960 C343 1.430 . S
C1010 C283 2.149 . S
C995 C157 2.138 . S
C1045 C189 1.056 . S
C1060 N300 1.079 . S
C1095 C221 1.955 . S
C1110 C317 1.961 . S
C1145 C253 1.233 . S
C1160 N352 1.257 . S
C1195 C145 2.386 . S
C1210 C302 2.389 . S
C1260 N262 1.110 . S
C1245 C183 1.097 . S
C1310 C356 1.971 . S
C1295 C209 1.962 . S
C1360 N330 0.964 . S
C1345 C247 0.940 . S
C1395 C151 1.820 . S
C1410 C373 1.823 . S
C1460 C287 1.666 . S
C1445 C215 1.664 . S
C1510 C266 1.462 . S
C1495 C241 1.382 . S
C1545 C177 1.399 . S
C1560 C332 1.469 . S
