# Generated by pormake.
# Topology tsx, (6,3)-cn, num edge types: 1
# Building blocks:
#     Node 0, Type 0, BuildingBlock: JUFBIX_clean_sbu_0, # of connection points: 6
#     Node 1, Type 0, BuildingBlock: JUFBIX_clean_sbu_0, # of connection points: 6
#     Node 2, Type 1, BuildingBlock: BELTOD_clean_linker_0, # of connection points: 3
#     Node 3, Type 1, BuildingBlock: BELTOD_clean_linker_0, # of connection points: 3
#     Node 4, Type 1, BuildingBlock: BELTOD_clean_linker_0, # of connection points: 3
#     Node 5, Type 1, BuildingBlock: BELTOD_clean_linker_0, # of connection points: 3
#     Edge 6, Type (0, 1), BuildingBlock: XIVTED_clean_linker_0, # of connection points: 2
#     Edge 7, Type (0, 1), BuildingBlock: XIVTED_clean_linker_0, # of connection points: 2
#     Edge 8, Type (0, 1), BuildingBlock: XIVTED_clean_linker_0, # of connection points: 2
#     Edge 9, Type (0, 1), BuildingBlock: XIVTED_clean_linker_0, # of connection points: 2
#     Edge 10, Type (0, 1), BuildingBlock: XIVTED_clean_linker_0, # of connection points: 2
#     Edge 11, Type (0, 1), BuildingBlock: XIVTED_clean_linker_0, # of connection points: 2
#     Edge 12, Type (0, 1), BuildingBlock: XIVTED_clean_linker_0, # of connection points: 2
#     Edge 13, Type (0, 1), BuildingBlock: XIVTED_clean_linker_0, # of connection points: 2
#     Edge 14, Type (0, 1), BuildingBlock: XIVTED_clean_linker_0, # of connection points: 2
#     Edge 15, Type (0, 1), BuildingBlock: XIVTED_clean_linker_0, # of connection points: 2
#     Edge 16, Type (0, 1), BuildingBlock: XIVTED_clean_linker_0, # of connection points: 2
#     Edge 17, Type (0, 1), BuildingBlock: XIVTED_clean_linker_0, # of connection points: 2
# Relax obj value: 0.144
# Max RMSD: 0.160
# Mean RMSD: 0.126
data_MOF--net-tsx--node1-JUFBIX_clean_sbu_0--node2-BELTOD_clean_linker_0--edge1-XIVTED_clean_linker_0
_symmetry_space_group_name_H-M    P1
_symmetry_Int_Tables_number       1
_symmetry_cell_setting            triclinic
loop_
_symmetry_equiv_pos_as_xyz
'x, y, z'
_cell_length_a     22.552981
_cell_length_b     26.782315
_cell_length_c     39.941942
_cell_angle_alpha  92.948342
_cell_angle_beta   89.296952
_cell_angle_gamma 98.323105
loop_
_atom_site_label
_atom_site_type_symbol
_atom_site_fract_x
_atom_site_fract_y
_atom_site_fract_z
_atom_type_partial_charge
Co0 Co 0.01477 0.9737 0.01076 0.0
C1 C 0.97291 0.00425 0.95016 0.0
Co2 Co 0.94216 0.0212 0.01564 0.0
C3 C 0.08964 0.89287 0.01393 0.0
C4 C 0.12344 0.95153 0.98123 0.0
N5 N 0.07857 0.93767 0.00306 0.0
N6 N 0.13914 0.87845 0.99922 0.0
C7 C 0.16036 0.91515 0.97869 0.0
H8 H 0.06083 0.87041 0.03108 0.0
H9 H 0.12803 0.98538 0.96721 0.0
C10 C 0.98562 0.9915 0.07635 0.0
N11 N 0.87896 0.05809 0.02272 0.0
C12 C 0.87269 0.10434 0.01242 0.0
C13 C 0.82886 0.0437 0.04062 0.0
N14 N 0.82049 0.11915 0.02307 0.0
C15 C 0.79281 0.08094 0.04076 0.0
C16 C 0.90447 0.91642 0.00949 0.0
O17 O 0.02036 0.96866 0.05772 0.0
O18 O 0.94858 0.01599 0.06292 0.0
O19 O 0.88681 0.95945 0.01301 0.0
O20 O 0.9602 0.9139 0.00785 0.0
O21 O 0.9366 0.02619 0.96821 0.0
H22 H 0.81943 0.00858 0.05319 0.0
H23 H 0.90564 0.12658 0.99726 0.0
O24 O 0.00884 0.97953 0.96412 0.0
O25 O 0.06883 0.03346 0.01354 0.0
O26 O 0.99884 0.08225 0.0181 0.0
C27 C 0.05407 0.07737 0.01618 0.0
H28 H 0.19933 0.91509 0.96258 0.0
H29 H 0.75018 0.08044 0.05358 0.0
Co30 Co 0.54107 0.49349 0.51568 0.0
C31 C 0.49065 0.5147 0.45498 0.0
Co32 Co 0.46034 0.53149 0.52037 0.0
C33 C 0.62208 0.4182 0.51658 0.0
C34 C 0.65484 0.4812 0.48722 0.0
N35 N 0.60964 0.46371 0.5079 0.0
N36 N 0.6726 0.40652 0.50158 0.0
C37 C 0.69338 0.4461 0.48321 0.0
H38 H 0.59273 0.39273 0.53174 0.0
H39 H 0.65784 0.51601 0.47433 0.0
C40 C 0.51291 0.51123 0.58118 0.0
N41 N 0.39142 0.56058 0.528 0.0
C42 C 0.37301 0.60058 0.5141 0.0
C43 C 0.34935 0.54626 0.55128 0.0
N44 N 0.32154 0.61199 0.52817 0.0
C45 C 0.30658 0.5779 0.55156 0.0
C46 C 0.43714 0.42614 0.51727 0.0
O47 O 0.55086 0.49229 0.56255 0.0
O48 O 0.47067 0.52971 0.56771 0.0
O49 O 0.41344 0.46642 0.51952 0.0
O50 O 0.49376 0.42915 0.51544 0.0
O51 O 0.45134 0.53315 0.47291 0.0
H52 H 0.35031 0.51522 0.56747 0.0
H53 H 0.39784 0.62189 0.49486 0.0
O54 O 0.53137 0.49527 0.46904 0.0
O55 O 0.58736 0.55811 0.51573 0.0
O56 O 0.50791 0.59661 0.52091 0.0
C57 C 0.56437 0.59873 0.51775 0.0
H58 H 0.73246 0.44857 0.46703 0.0
H59 H 0.26757 0.57613 0.56776 0.0
P60 P 0.06504 0.05129 0.44067 0.0
H61 H 0.05383 0.13031 0.49234 0.0
H62 H 0.96901 0.1713 0.51157 0.0
H63 H 0.84985 0.06133 0.45211 0.0
H64 H 0.93554 0.02058 0.43288 0.0
H65 H 0.16916 0.03295 0.47825 0.0
H66 H 0.20005 0.95596 0.49799 0.0
H67 H 0.0323 0.87074 0.46446 0.0
H68 H 1.00088 0.94853 0.44505 0.0
H69 H 0.00829 0.1045 0.39091 0.0
H70 H 0.0961 0.97188 0.39244 0.0
O71 O 0.12338 0.09728 0.44441 0.0
H72 H 0.99349 0.09025 0.33056 0.0
H73 H 0.07956 0.95627 0.33241 0.0
C74 C 1.00106 0.07336 0.46055 0.0
C75 C 0.00934 0.11433 0.48406 0.0
C76 C 0.96061 0.13753 0.49522 0.0
C77 C 0.90275 0.12005 0.48293 0.0
C78 C 0.89404 0.07619 0.46156 0.0
C79 C 0.94289 0.05283 0.4506 0.0
C80 C 0.08285 0.99632 0.4601 0.0
C81 C 0.13838 -0.00198 0.47573 0.0
C82 C 0.156 0.95405 0.48705 0.0
C83 C 0.11853 0.90762 0.48265 0.0
C84 C 0.06198 0.90619 0.46799 0.0
C85 C 0.04395 0.95048 0.45711 0.0
C86 C 0.05165 0.03848 0.39643 0.0
C87 C 0.02338 0.07176 0.37837 0.0
C88 C 0.01476 0.06342 0.34382 0.0
C89 C 0.03477 0.02178 0.32656 0.0
C90 C 0.06383 0.98886 0.34478 0.0
C91 C 0.07266 -0.00259 0.37931 0.0
P92 P 0.05679 0.96088 0.59109 0.0
H93 H 0.03184 0.87358 0.54437 0.0
H94 H 0.93959 0.83142 0.51887 0.0
H95 H 0.84698 0.95339 0.55681 0.0
H96 H 0.94004 0.99492 0.58304 0.0
H97 H 0.18099 0.97526 0.56781 0.0
H98 H 0.24505 0.0474 0.54614 0.0
H99 H 0.09619 0.13297 0.55165 0.0
H100 H 0.03152 0.05917 0.57136 0.0
H101 H 0.95976 0.92135 0.63595 0.0
H102 H 0.10844 0.04256 0.63836 0.0
O103 O 0.09753 0.91441 0.59568 0.0
H104 H 0.93754 0.94175 0.6947 0.0
H105 H 0.08606 0.06343 0.69688 0.0
C106 C 0.99219 0.93654 0.56631 0.0
C107 C 0.99197 0.8917 0.54675 0.0
C108 C 0.93906 0.86783 0.53186 0.0
C109 C 0.88542 0.88862 0.5362 0.0
C110 C 0.88718 0.93588 0.55356 0.0
C111 C 0.94035 0.95977 0.56843 0.0
C112 C 0.10149 0.01187 0.57103 0.0
C113 C 0.1618 0.00919 0.5637 0.0
C114 C 0.19867 0.05084 0.55167 0.0
C115 C 0.17618 0.09645 0.54745 0.0
C116 C 0.115 0.09836 0.55395 0.0
C117 C 0.07791 0.05626 0.56546 0.0
C118 C 0.03493 0.9811 0.63252 0.0
C119 C 0.98659 0.95325 0.64881 0.0
C120 C 0.97381 0.96502 0.68239 0.0
C121 C 0.00995 0.00429 0.70039 0.0
C122 C 0.05754 0.03284 0.68371 0.0
C123 C 0.07013 0.02113 0.65013 0.0
P124 P 0.59909 0.58442 0.94414 0.0
H125 H 0.57741 0.67052 0.98837 0.0
H126 H 0.48571 0.70138 0.00749 0.0
H127 H 0.38107 0.56795 0.9616 0.0
H128 H 0.47348 0.53784 0.94196 0.0
H129 H 0.71567 0.55114 0.9436 0.0
H130 H 0.75105 0.4754 0.96193 0.0
H131 H 0.57486 0.4243 0.00173 0.0
H132 H 0.53981 0.49989 0.98291 0.0
H133 H 0.56713 0.64695 0.89201 0.0
H134 H 0.59699 0.49241 0.89956 0.0
O135 O 0.65345 0.63376 0.94739 0.0
H136 H 0.54818 0.6312 0.83196 0.0
H137 H 0.5778 0.47637 0.83969 0.0
C138 C 0.53222 0.60198 0.96367 0.0
C139 C 0.53485 0.64739 0.98299 0.0
C140 C 0.4822 0.66487 0.99412 0.0
C141 C 0.42585 0.63733 0.9859 0.0
C142 C 0.42365 0.59042 0.96799 0.0
C143 C 0.47642 0.57299 0.95692 0.0
C144 C 0.62542 0.53159 0.96231 0.0
C145 C 0.68498 0.52402 0.95687 0.0
C146 C 0.7052 0.48062 0.96753 0.0
C147 C 0.66599 0.44349 0.98362 0.0
C148 C 0.6063 0.45166 0.9893 0.0
C149 C 0.58617 0.49522 0.97867 0.0
C150 C 0.58408 0.57114 0.90018 0.0
C151 C 0.56951 0.60962 0.88073 0.0
C152 C 0.55832 0.60046 0.84648 0.0
C153 C 0.56164 0.55253 0.83104 0.0
C154 C 0.57571 0.51386 0.85075 0.0
C155 C 0.58656 0.52302 0.88507 0.0
P156 P 0.56902 0.44398 0.09671 0.0
H157 H 0.55323 0.36235 0.04538 0.0
H158 H 0.46459 0.31212 0.02055 0.0
H159 H 0.35219 0.40285 0.07845 0.0
H160 H 0.44165 0.45559 0.10078 0.0
H161 H 0.6909 0.47775 0.07394 0.0
H162 H 0.73714 0.55467 0.04889 0.0
H163 H 0.56377 0.60513 0.04429 0.0
H164 H 0.51803 0.52801 0.07013 0.0
H165 H 0.49509 0.3919 0.14806 0.0
H166 H 0.60284 0.53739 0.13855 0.0
O167 O 0.61884 0.40393 0.09918 0.0
H168 H 0.47196 0.41534 0.2062 0.0
H169 H 0.57967 0.56106 0.19659 0.0
C170 C 0.50377 0.41167 0.07553 0.0
C171 C 0.5095 0.37203 0.05213 0.0
C172 C 0.45862 0.34304 0.03823 0.0
C173 C 0.40094 0.35232 0.04828 0.0
C174 C 0.39566 0.39443 0.07009 0.0
C175 C 0.44683 0.42428 0.08327 0.0
C176 C 0.60108 0.49723 0.07377 0.0
C177 C 0.66268 0.50501 0.06711 0.0
C178 C 0.68904 0.54905 0.05253 0.0
C179 C 0.65425 0.58632 0.04447 0.0
C180 C 0.59204 0.57756 0.0504 0.0
C181 C 0.56571 0.53334 0.06497 0.0
C182 C 0.54973 0.46319 0.13879 0.0
C183 C 0.51295 0.4292 0.15832 0.0
C184 C 0.49949 0.44273 0.19147 0.0
C185 C 0.52358 0.49021 0.20585 0.0
C186 C 0.56047 0.52421 0.18616 0.0
C187 C 0.57355 0.51075 0.15291 0.0
H188 H 0.17116 0.07521 0.00196 0.0
H189 H 0.28493 0.36914 0.03548 0.0
H190 H 0.04719 0.17887 0.03055 0.0
H191 H 0.39406 0.24982 0.04117 0.0
H192 H 0.19706 0.30469 0.02473 0.0
H193 H 0.25284 0.14427 0.00553 0.0
C194 C 0.16096 0.11264 0.00906 0.0
C195 C 0.10219 0.12108 0.01656 0.0
C196 C 0.24053 0.29305 0.0281 0.0
C197 C 0.19657 0.20092 0.02078 0.0
C198 C 0.29067 0.32966 0.0343 0.0
C199 C 0.34743 0.31511 0.03898 0.0
C200 C 0.24755 0.24178 0.02626 0.0
C201 C 0.35201 0.26334 0.03685 0.0
C202 C 0.20789 0.15218 0.01107 0.0
C203 C 0.09198 0.17073 0.02491 0.0
N204 N 0.30292 0.22882 0.03066 0.0
N205 N 0.13901 0.20901 0.02707 0.0
H206 H 0.18066 0.84222 0.05499 0.0
H207 H 0.32985 0.63528 0.94443 0.0
H208 H 0.15493 0.81148 0.949 0.0
H209 H 0.39556 0.69286 0.04204 0.0
H210 H 0.24651 0.6834 0.95161 0.0
H211 H 0.24084 0.7723 0.056 0.0
C212 C 0.1864 0.81968 0.03221 0.0
C213 C 0.16326 0.83216 0.00186 0.0
C214 C 0.2787 0.68504 0.97168 0.0
C215 C 0.23158 0.75317 0.00259 0.0
C216 C 0.32614 0.65714 0.96773 0.0
C217 C 0.3703 0.66031 0.99254 0.0
C218 C 0.27518 0.71659 0.00059 0.0
C219 C 0.36321 0.69002 0.02199 0.0
C220 C 0.22096 0.78024 0.03267 0.0
C221 C 0.17234 0.80272 0.97279 0.0
N222 N 0.31692 0.71744 0.02508 0.0
N223 N 0.20605 0.76479 0.97381 0.0
H224 H 0.78508 0.90421 0.02648 0.0
H225 H 0.75013 0.60315 0.00138 0.0
H226 H 0.92562 0.82154 0.99017 0.0
H227 H 0.62635 0.68149 0.05972 0.0
H228 H 0.80545 0.68433 0.98718 0.0
H229 H 0.71733 0.82411 0.02906 0.0
C230 C 0.80146 0.86932 0.01871 0.0
C231 C 0.86121 0.86942 0.00845 0.0
C232 C 0.76586 0.68373 0.00286 0.0
C233 C 0.78417 0.77807 0.01121 0.0
C234 C 0.7343 0.63734 0.0111 0.0
C235 C 0.68376 0.63525 0.03214 0.0
C236 C 0.74704 0.72859 0.01581 0.0
C237 C 0.66479 0.68105 0.0433 0.0
C238 C 0.76287 0.82369 0.02027 0.0
C239 C 0.8801 0.82317 0.99861 0.0
N240 N 0.69675 0.72585 0.03524 0.0
N241 N 0.8418 0.77939 0.00038 0.0
H242 H 0.88673 0.21117 0.01592 0.0
H243 H 0.60283 0.34737 0.98088 0.0
H244 H 0.7049 0.13473 0.01817 0.0
H245 H 0.77673 0.42954 0.00678 0.0
H246 H 0.63993 0.26869 0.99182 0.0
H247 H 0.84851 0.29098 0.00835 0.0
C248 C 0.83882 0.21114 0.0146 0.0
C249 C 0.79895 0.16624 0.0177 0.0
C250 C 0.66989 0.30398 0.99524 0.0
C251 C 0.75485 0.25735 0.00921 0.0
C252 C 0.6486 0.34912 0.98924 0.0
C253 C 0.68671 0.3955 0.99266 0.0
C254 C 0.72998 0.30489 0.00438 0.0
C255 C 0.74596 0.3948 0.00304 0.0
C256 C 0.81699 0.25673 0.01058 0.0
C257 C 0.7372 0.16851 0.01625 0.0
N258 N 0.76585 0.35028 0.00827 0.0
N259 N 0.71708 0.2132 0.01196 0.0
H260 H 0.66922 0.61507 0.48369 0.0
H261 H 0.77889 0.87959 0.57087 0.0
H262 H 0.5488 0.69248 0.54496 0.0
H263 H 0.85984 0.82607 0.4799 0.0
H264 H 0.69177 0.81526 0.56088 0.0
H265 H 0.73848 0.69352 0.48163 0.0
C266 C 0.65734 0.64878 0.49666 0.0
C267 C 0.60369 0.64728 0.51491 0.0
C268 C 0.72808 0.81832 0.54276 0.0
C269 C 0.68301 0.73731 0.51282 0.0
C270 C 0.77781 0.8553 0.5483 0.0
C271 C 0.82746 0.85774 0.52649 0.0
C272 C 0.72843 0.78313 0.51554 0.0
C273 C 0.82343 0.82472 0.49789 0.0
C274 C 0.69666 0.69368 0.49523 0.0
C275 C 0.58998 0.69217 0.53078 0.0
N276 N 0.77535 0.78819 0.49359 0.0
N277 N 0.63002 0.73536 0.52989 0.0
H278 H 0.68649 0.34906 0.55412 0.0
H279 H 0.82463 0.14341 0.4367 0.0
H280 H 0.7094 0.35594 0.44716 0.0
H281 H 0.87184 0.17035 0.54114 0.0
H282 H 0.75755 0.20693 0.4429 0.0
H283 H 0.7323 0.27056 0.55194 0.0
C284 C 0.7006 0.33362 0.53023 0.0
C285 C 0.6951 0.35898 0.50083 0.0
C286 C 0.78195 0.19845 0.46459 0.0
C287 C 0.74596 0.26975 0.49801 0.0
C288 C 0.81981 0.16176 0.46119 0.0
C289 C 0.85426 0.15172 0.48841 0.0
C290 C 0.77819 0.22532 0.49545 0.0
C291 C 0.84669 0.17743 0.5194 0.0
C292 C 0.72674 0.28918 0.52899 0.0
C293 C 0.71387 0.33781 0.47041 0.0
N294 N 0.80976 0.21342 0.52206 0.0
N295 N 0.73842 0.29446 0.46978 0.0
H296 H 0.316 0.40464 0.508 0.0
H297 H 0.29308 0.12515 0.56665 0.0
H298 H 0.4721 0.33458 0.52739 0.0
H299 H 0.15323 0.17402 0.50883 0.0
H300 H 0.35796 0.20308 0.55515 0.0
H301 H 0.25354 0.32229 0.51132 0.0
C302 C 0.33713 0.37191 0.51284 0.0
C303 C 0.39927 0.37643 0.5176 0.0
C304 C 0.31324 0.1965 0.54472 0.0
C305 C 0.32814 0.2825 0.52166 0.0
C306 C 0.27611 0.15173 0.55106 0.0
C307 C 0.21724 0.14262 0.53868 0.0
C308 C 0.29126 0.23304 0.52637 0.0
C309 C 0.19771 0.17956 0.51943 0.0
C310 C 0.30152 0.32496 0.51456 0.0
C311 C 0.42437 0.33278 0.5236 0.0
N312 N 0.23444 0.22337 0.51413 0.0
N313 N 0.38861 0.28769 0.52581 0.0
H314 H 0.30576 0.64934 0.46769 0.0
H315 H 0.16473 0.88597 0.54209 0.0
H316 H 0.26625 0.6688 0.573 0.0
H317 H 0.1254 0.82397 0.4418 0.0
H318 H 0.21188 0.81171 0.55357 0.0
H319 H 0.25062 0.71956 0.45671 0.0
C320 C 0.28565 0.66858 0.48843 0.0
C321 C 0.29029 0.65339 0.52124 0.0
C322 C 0.19236 0.81414 0.52917 0.0
C323 C 0.22789 0.73335 0.50905 0.0
C324 C 0.16551 0.85636 0.52268 0.0
C325 C 0.14096 0.8607 0.49109 0.0
C326 C 0.19598 0.77672 0.50359 0.0
C327 C 0.14335 0.82159 0.46659 0.0
C328 C 0.25389 0.70821 0.48218 0.0
C329 C 0.26311 0.67914 0.54732 0.0
N330 N 0.17113 0.78142 0.4732 0.0
N331 N 0.23348 0.71817 0.54072 0.0
H332 H 0.91057 0.0278 0.12288 0.0
H333 H 0.1124 0.9883 0.27971 0.0
H334 H 0.06978 0.95579 0.11414 0.0
H335 H 0.93786 0.03612 0.28902 0.0
H336 H 0.0983 0.97666 0.21915 0.0
H337 H 0.92062 0.03202 0.18377 0.0
C338 C 0.94755 0.01266 0.13376 0.0
C339 C 0.98953 0.99154 0.11333 0.0
C340 C 0.063 0.9895 0.23447 0.0
C341 C 0.0015 0.99656 0.18318 0.0
C342 C 0.07085 0.99592 0.26913 0.0
C343 C 0.0263 0.01335 0.28966 0.0
C344 C 0.01036 0.00084 0.22006 0.0
C345 C 0.97391 0.02345 0.27426 0.0
C346 C 0.95321 0.01504 0.16857 0.0
C347 C 0.03638 0.97239 0.1289 0.0
N348 N 0.96752 0.01723 0.24045 0.0
N349 N 0.04131 0.97565 0.16288 0.0
H350 H 0.06624 0.98792 0.90987 0.0
H351 H 0.90512 0.00572 0.73648 0.0
H352 H 0.88919 0.03092 0.90694 0.0
H353 H 0.09685 0.01893 0.74805 0.0
H354 H 0.8943 0.01046 0.79788 0.0
H355 H 0.0742 0.99355 0.84955 0.0
C356 C 0.02882 -0.0015 0.89649 0.0
C357 C 0.97678 0.00873 0.91347 0.0
C358 C 0.93866 0.01296 0.78684 0.0
C359 C 0.98573 0.0152 0.84395 0.0
C360 C 0.94487 0.01002 0.75191 0.0
C361 C 0.002 0.01194 0.73714 0.0
C362 C 0.98988 0.01695 0.80698 0.0
C363 C 0.05202 0.01787 0.75825 0.0
C364 C 0.03361 0.00203 0.86198 0.0
C365 C 0.93007 0.02273 0.89475 0.0
N366 N 0.04472 0.01966 0.79201 0.0
N367 N 0.93538 0.02512 0.86079 0.0
H368 H 0.59708 0.47541 0.61889 0.0
H369 H 0.4749 0.58382 0.79304 0.0
H370 H 0.44122 0.55181 0.62774 0.0
H371 H 0.62482 0.50027 0.78565 0.0
H372 H 0.46111 0.57115 0.73249 0.0
H373 H 0.60701 0.48242 0.67995 0.0
C374 C 0.56483 0.4935 0.63365 0.0
C375 C 0.51838 0.51323 0.61813 0.0
C376 C 0.49692 0.55541 0.74409 0.0
C377 C 0.5296 0.52151 0.68802 0.0
C378 C 0.505 0.56287 0.77866 0.0
C379 C 0.55126 0.54328 0.79444 0.0
C380 C 0.53554 0.52834 0.72502 0.0
C381 C 0.58827 0.51569 0.77459 0.0
C382 C 0.57052 0.49748 0.66852 0.0
C383 C 0.47784 0.53617 0.63856 0.0
N384 N 0.57981 0.50927 0.74091 0.0
N385 N 0.48455 0.53984 0.67239 0.0
H386 H 0.58902 0.51826 0.41555 0.0
H387 H 0.419 0.47447 0.24244 0.0
H388 H 0.39803 0.51877 0.411 0.0
H389 H 0.60703 0.53287 0.25154 0.0
H390 H 0.40788 0.48711 0.30343 0.0
H391 H 0.59459 0.51967 0.35486 0.0
C392 C 0.54811 0.51868 0.40169 0.0
C393 C 0.49285 0.51795 0.41826 0.0
C394 C 0.45128 0.49778 0.29192 0.0
C395 C 0.49894 0.51936 0.34846 0.0
C396 C 0.45775 0.49034 0.25723 0.0
C397 C 0.51411 0.50243 0.24196 0.0
C398 C 0.50175 0.51662 0.31138 0.0
C399 C 0.56271 0.52334 0.26219 0.0
C400 C 0.55141 0.51984 0.367 0.0
C401 C 0.44144 0.51922 0.39906 0.0
N402 N 0.55553 0.52919 0.29585 0.0
N403 N 0.44556 0.51919 0.36497 0.0
loop_
_geom_bond_atom_site_label_1
_geom_bond_atom_site_label_2
_geom_bond_distance
_geom_bond_site_symmetry_2
_ccdc_geom_bond_type
Co0 N5 2.057 . S
Co0 O17 2.021 . S
Co0 O20 2.062 1_455 S
Co0 O24 2.117 1_554 S
Co0 O25 2.020 1_565 S
C1 O21 1.259 1_455 S
C1 O24 1.258 1_545 S
Co2 N11 2.057 . S
Co2 O18 2.117 . S
Co2 O19 2.020 1_545 S
Co2 O21 2.021 1_554 S
Co2 O26 2.062 1_655 S
C3 N5 1.316 . S
C3 N6 1.347 . S
C3 H8 0.931 . S
C4 N5 1.375 1_556 S
C4 C7 1.350 . S
C4 H9 0.930 . S
N5 Co0 2.057 . S
N5 C3 1.316 . S
N5 C4 1.375 1_554 S
N6 C3 1.347 . S
N6 C7 1.373 1_554 S
C7 C4 1.350 . S
C7 N6 1.373 1_556 S
C7 H28 0.931 . S
H8 C3 0.931 . S
H9 C4 0.930 . S
C10 O17 1.259 1_545 S
C10 O18 1.258 1_455 S
N11 Co2 2.057 . S
N11 C12 1.316 . S
N11 C13 1.375 . S
C12 N11 1.316 . S
C12 N14 1.347 . S
C12 H23 0.931 1_554 S
C13 N11 1.375 . S
C13 C15 1.350 . S
C13 H22 0.930 . S
N14 C12 1.347 . S
N14 C15 1.373 . S
C15 C13 1.350 . S
C15 N14 1.373 . S
C15 H29 0.931 . S
C16 O19 1.256 . S
C16 O20 1.255 . S
O17 Co0 2.021 . S
O17 C10 1.259 1_565 S
O18 Co2 2.117 . S
O18 C10 1.258 1_655 S
O19 Co2 2.020 1_565 S
O19 C16 1.256 . S
O20 Co0 2.062 1_655 S
O20 C16 1.255 . S
O21 C1 1.259 1_655 S
O21 Co2 2.021 1_556 S
H22 C13 0.930 . S
H23 C12 0.931 1_556 S
O24 Co0 2.117 1_556 S
O24 C1 1.258 1_565 S
O25 Co0 2.020 1_545 S
O25 C27 1.256 . S
O26 Co2 2.062 1_455 S
O26 C27 1.255 . S
C27 O25 1.256 . S
C27 O26 1.255 . S
H28 C7 0.931 . S
H29 C15 0.931 . S
Co30 N35 2.057 . S
Co30 O47 2.021 . S
Co30 O50 2.062 . S
Co30 O54 2.117 . S
Co30 O55 2.020 . S
C31 O51 1.259 . S
C31 O54 1.258 . S
Co32 N41 2.057 . S
Co32 O48 2.117 . S
Co32 O49 2.020 . S
Co32 O51 2.021 . S
Co32 O56 2.062 . S
C33 N35 1.316 . S
C33 N36 1.347 . S
C33 H38 0.931 . S
C34 N35 1.375 . S
C34 C37 1.350 . S
C34 H39 0.930 . S
N35 Co30 2.057 . S
N35 C33 1.316 . S
N35 C34 1.375 . S
N36 C33 1.347 . S
N36 C37 1.373 . S
C37 C34 1.350 . S
C37 N36 1.373 . S
C37 H58 0.931 . S
H38 C33 0.931 . S
H39 C34 0.930 . S
C40 O47 1.259 . S
C40 O48 1.258 . S
N41 Co32 2.057 . S
N41 C42 1.316 . S
N41 C43 1.375 . S
C42 N41 1.316 . S
C42 N44 1.347 . S
C42 H53 0.931 . S
C43 N41 1.375 . S
C43 C45 1.350 . S
C43 H52 0.930 . S
N44 C42 1.347 . S
N44 C45 1.373 . S
C45 C43 1.350 . S
C45 N44 1.373 . S
C45 H59 0.931 . S
C46 O49 1.256 . S
C46 O50 1.255 . S
O47 Co30 2.021 . S
O47 C40 1.259 . S
O48 Co32 2.117 . S
O48 C40 1.258 . S
O49 Co32 2.020 . S
O49 C46 1.256 . S
O50 Co30 2.062 . S
O50 C46 1.255 . S
O51 C31 1.259 . S
O51 Co32 2.021 . S
H52 C43 0.930 . S
H53 C42 0.931 . S
O54 Co30 2.117 . S
O54 C31 1.258 . S
O55 Co30 2.020 . S
O55 C57 1.256 . S
O56 Co32 2.062 . S
O56 C57 1.255 . S
C57 O55 1.256 . S
C57 O56 1.255 . S
H58 C37 0.931 . S
H59 C45 0.931 . S
P60 O71 1.490 . S
P60 C74 1.812 . S
P60 C80 1.803 1_545 S
P60 C86 1.819 . S
H61 C75 0.941 . S
H62 C76 0.939 . S
H63 C78 0.940 . S
H64 C79 0.940 . S
H65 C81 0.939 1_545 S
H66 C82 0.942 . S
H67 C84 0.940 . S
H68 C85 0.934 1_655 S
H69 C87 0.941 . S
H70 C91 0.939 . S
O71 P60 1.490 . S
H72 C88 0.939 . S
H73 C90 0.940 . S
C74 P60 1.812 . S
C74 C75 1.389 . S
C74 C79 1.391 1_455 S
C75 H61 0.941 . S
C75 C74 1.389 . S
C75 C76 1.397 1_455 S
C76 H62 0.939 . S
C76 C75 1.397 1_655 S
C76 C77 1.378 . S
C77 C76 1.378 . S
C77 C78 1.378 . S
C78 H63 0.940 . S
C78 C77 1.378 . S
C78 C79 1.396 . S
C79 H64 0.940 . S
C79 C74 1.391 1_655 S
C79 C78 1.396 . S
C80 P60 1.803 1_565 S
C80 C81 1.378 . S
C80 C85 1.400 . S
C81 H65 0.939 1_565 S
C81 C80 1.378 . S
C81 C82 1.361 . S
C82 H66 0.942 . S
C82 C81 1.361 . S
C82 C83 1.369 . S
C83 C82 1.369 . S
C83 C84 1.404 . S
C84 H67 0.940 . S
C84 C83 1.404 . S
C84 C85 1.389 . S
C85 H68 0.934 1_455 S
C85 C80 1.400 . S
C85 C84 1.389 . S
C86 P60 1.819 . S
C86 C87 1.391 . S
C86 C91 1.391 1_545 S
C87 H69 0.941 . S
C87 C86 1.391 . S
C87 C88 1.396 . S
C88 H72 0.939 . S
C88 C87 1.396 . S
C88 C89 1.397 . S
C89 C88 1.397 . S
C89 C90 1.385 1_545 S
C90 H73 0.940 . S
C90 C89 1.385 1_565 S
C90 C91 1.388 . S
C91 H70 0.939 . S
C91 C86 1.391 1_565 S
C91 C90 1.388 . S
P92 O103 1.490 . S
P92 C106 1.812 1_455 S
P92 C112 1.803 1_565 S
P92 C118 1.819 . S
H93 C107 0.934 1_455 S
H94 C108 0.939 . S
H95 C110 0.940 . S
H96 C111 0.940 . S
H97 C113 0.939 . S
H98 C114 0.942 . S
H99 C116 0.940 . S
H100 C117 0.939 . S
H101 C119 0.941 . S
H102 C123 0.939 . S
O103 P92 1.490 . S
H104 C120 0.939 . S
H105 C122 0.940 . S
C106 P92 1.812 1_655 S
C106 C107 1.390 . S
C106 C111 1.391 . S
C107 H93 0.934 1_655 S
C107 C106 1.390 . S
C107 C108 1.402 . S
C108 H94 0.939 . S
C108 C107 1.402 . S
C108 C109 1.378 . S
C109 C108 1.378 . S
C109 C110 1.378 . S
C110 H95 0.940 . S
C110 C109 1.378 . S
C110 C111 1.396 . S
C111 H96 0.940 . S
C111 C106 1.391 . S
C111 C110 1.396 . S
C112 P92 1.803 1_545 S
C112 C113 1.378 . S
C112 C117 1.400 . S
C113 H97 0.939 . S
C113 C112 1.378 . S
C113 C114 1.361 . S
C114 H98 0.942 . S
C114 C113 1.361 . S
C114 C115 1.369 . S
C115 C114 1.369 . S
C115 C116 1.404 . S
C116 H99 0.940 . S
C116 C115 1.404 . S
C116 C117 1.389 . S
C117 H100 0.939 . S
C117 C112 1.400 . S
C117 C116 1.389 . S
C118 P92 1.819 . S
C118 C119 1.391 . S
C118 C123 1.391 1_565 S
C119 H101 0.941 . S
C119 C118 1.391 . S
C119 C120 1.396 . S
C120 H104 0.939 . S
C120 C119 1.396 . S
C120 C121 1.397 1_565 S
C121 C120 1.397 1_545 S
C121 C122 1.385 . S
C122 H105 0.940 . S
C122 C121 1.385 . S
C122 C123 1.388 . S
C123 H102 0.939 . S
C123 C118 1.391 1_545 S
C123 C122 1.388 . S
P124 O135 1.490 . S
P124 C138 1.812 . S
P124 C144 1.803 . S
P124 C150 1.819 . S
H125 C139 0.941 . S
H126 C140 0.939 1_554 S
H127 C142 0.940 . S
H128 C143 0.940 . S
H129 C145 0.939 . S
H130 C146 0.942 . S
H131 C148 0.940 . S
H132 C149 0.939 . S
H133 C151 0.941 . S
H134 C155 0.939 . S
O135 P124 1.490 . S
H136 C152 0.939 . S
H137 C154 0.940 . S
C138 P124 1.812 . S
C138 C139 1.389 . S
C138 C143 1.391 . S
C139 H125 0.941 . S
C139 C138 1.389 . S
C139 C140 1.397 . S
C140 H126 0.939 1_556 S
C140 C139 1.397 . S
C140 C141 1.378 . S
C141 C140 1.378 . S
C141 C142 1.378 . S
C142 H127 0.940 . S
C142 C141 1.378 . S
C142 C143 1.396 . S
C143 H128 0.940 . S
C143 C138 1.391 . S
C143 C142 1.396 . S
C144 P124 1.803 . S
C144 C145 1.378 . S
C144 C149 1.400 . S
C145 H129 0.939 . S
C145 C144 1.378 . S
C145 C146 1.361 . S
C146 H130 0.942 . S
C146 C145 1.361 . S
C146 C147 1.369 . S
C147 C146 1.369 . S
C147 C148 1.404 . S
C148 H131 0.940 . S
C148 C147 1.404 . S
C148 C149 1.389 . S
C149 H132 0.939 . S
C149 C144 1.400 . S
C149 C148 1.389 . S
C150 P124 1.819 . S
C150 C151 1.391 . S
C150 C155 1.391 . S
C151 H133 0.941 . S
C151 C150 1.391 . S
C151 C152 1.396 . S
C152 H136 0.939 . S
C152 C151 1.396 . S
C152 C153 1.397 . S
C153 C152 1.397 . S
C153 C154 1.385 . S
C154 H137 0.940 . S
C154 C153 1.385 . S
C154 C155 1.388 . S
C155 H134 0.939 . S
C155 C150 1.391 . S
C155 C154 1.388 . S
P156 O167 1.490 . S
P156 C170 1.812 . S
P156 C176 1.803 . S
P156 C182 1.819 . S
H157 C171 0.941 . S
H158 C172 0.939 . S
H159 C174 0.940 . S
H160 C175 0.940 . S
H161 C177 0.939 . S
H162 C178 0.942 . S
H163 C180 0.940 . S
H164 C181 0.939 . S
H165 C183 0.941 . S
H166 C187 0.939 . S
O167 P156 1.490 . S
H168 C184 0.939 . S
H169 C186 0.940 . S
C170 P156 1.812 . S
C170 C171 1.389 . S
C170 C175 1.391 . S
C171 H157 0.941 . S
C171 C170 1.389 . S
C171 C172 1.397 . S
C172 H158 0.939 . S
C172 C171 1.397 . S
C172 C173 1.378 . S
C173 C172 1.378 . S
C173 C174 1.378 . S
C174 H159 0.940 . S
C174 C173 1.378 . S
C174 C175 1.396 . S
C175 H160 0.940 . S
C175 C170 1.391 . S
C175 C174 1.396 . S
C176 P156 1.803 . S
C176 C177 1.378 . S
C176 C181 1.400 . S
C177 H161 0.939 . S
C177 C176 1.378 . S
C177 C178 1.361 . S
C178 H162 0.942 . S
C178 C177 1.361 . S
C178 C179 1.369 . S
C179 C178 1.369 . S
C179 C180 1.404 . S
C180 H163 0.940 . S
C180 C179 1.404 . S
C180 C181 1.389 . S
C181 H164 0.939 . S
C181 C176 1.400 . S
C181 C180 1.389 . S
C182 P156 1.819 . S
C182 C183 1.391 . S
C182 C187 1.391 . S
C183 H165 0.941 . S
C183 C182 1.391 . S
C183 C184 1.396 . S
C184 H168 0.939 . S
C184 C183 1.396 . S
C184 C185 1.397 . S
C185 C184 1.397 . S
C185 C186 1.385 . S
C186 H169 0.940 . S
C186 C185 1.385 . S
C186 C187 1.388 . S
C187 H166 0.939 . S
C187 C182 1.391 . S
C187 C186 1.388 . S
H188 C194 0.930 . S
H189 C198 0.930 . S
H190 C203 0.929 . S
H191 C201 0.929 . S
H192 C196 0.929 . S
H193 C202 0.929 . S
C194 H188 0.930 . S
C194 C195 1.367 . S
C194 C202 1.378 . S
C195 C194 1.367 . S
C195 C203 1.433 . S
C196 H192 0.929 . S
C196 C198 1.378 . S
C196 C200 1.350 . S
C197 C200 1.463 . S
C197 C202 1.350 . S
C197 N205 1.427 . S
C198 H189 0.930 . S
C198 C196 1.378 . S
C198 C199 1.367 . S
C199 C198 1.367 . S
C199 C201 1.433 . S
C200 C196 1.350 . S
C200 C197 1.463 . S
C200 N204 1.427 . S
C201 H191 0.929 . S
C201 C199 1.433 . S
C201 N204 1.384 . S
C202 H193 0.929 . S
C202 C194 1.378 . S
C202 C197 1.350 . S
C203 H190 0.929 . S
C203 C195 1.433 . S
C203 N205 1.384 . S
N204 C200 1.427 . S
N204 C201 1.384 . S
N205 C197 1.427 . S
N205 C203 1.384 . S
H206 C212 0.930 . S
H207 C216 0.930 . S
H208 C221 0.929 . S
H209 C219 0.929 . S
H210 C214 0.929 . S
H211 C220 0.929 . S
C212 H206 0.930 . S
C212 C213 1.367 . S
C212 C220 1.378 . S
C213 C212 1.367 . S
C213 C221 1.433 1_554 S
C214 H210 0.929 . S
C214 C216 1.378 . S
C214 C218 1.368 . S
C215 C218 1.459 1_554 S
C215 C220 1.350 . S
C215 N223 1.427 1_554 S
C216 H207 0.930 . S
C216 C214 1.378 . S
C216 C217 1.367 . S
C217 C216 1.367 . S
C217 C219 1.433 1_556 S
C218 C214 1.368 . S
C218 C215 1.459 1_556 S
C218 N222 1.412 1_556 S
C219 H209 0.929 . S
C219 C217 1.433 1_554 S
C219 N222 1.384 . S
C220 H211 0.929 . S
C220 C212 1.378 . S
C220 C215 1.350 . S
C221 H208 0.929 . S
C221 C213 1.433 1_556 S
C221 N223 1.384 . S
N222 C218 1.412 1_554 S
N222 C219 1.384 . S
N223 C215 1.427 1_556 S
N223 C221 1.384 . S
H224 C230 0.930 . S
H225 C234 0.930 1_556 S
H226 C239 0.929 . S
H227 C237 0.929 . S
H228 C232 0.929 1_556 S
H229 C238 0.929 . S
C230 H224 0.930 . S
C230 C231 1.367 . S
C230 C238 1.378 . S
C231 C230 1.367 . S
C231 C239 1.433 1_554 S
C232 H228 0.929 1_554 S
C232 C234 1.378 . S
C232 C236 1.350 . S
C233 C236 1.463 . S
C233 C238 1.350 . S
C233 N241 1.427 1_554 S
C234 H225 0.930 1_554 S
C234 C232 1.378 . S
C234 C235 1.367 . S
C235 C234 1.367 . S
C235 C237 1.433 . S
C236 C232 1.350 . S
C236 C233 1.463 . S
C236 N240 1.427 . S
C237 H227 0.929 . S
C237 C235 1.433 . S
C237 N240 1.384 . S
C238 H229 0.929 . S
C238 C230 1.378 . S
C238 C233 1.350 . S
C239 H226 0.929 . S
C239 C231 1.433 1_556 S
C239 N241 1.384 . S
N240 C236 1.427 . S
N240 C237 1.384 . S
N241 C233 1.427 1_556 S
N241 C239 1.384 . S
H242 C248 0.930 . S
H243 C252 0.930 . S
H244 C257 0.929 . S
H245 C255 0.929 . S
H246 C250 0.929 . S
H247 C256 0.929 . S
C248 H242 0.930 . S
C248 C249 1.367 . S
C248 C256 1.378 . S
C249 C248 1.367 . S
C249 C257 1.433 . S
C250 H246 0.929 . S
C250 C252 1.378 . S
C250 C254 1.354 . S
C251 C254 1.459 1_554 S
C251 C256 1.350 . S
C251 N259 1.427 . S
C252 H243 0.930 . S
C252 C250 1.378 . S
C252 C253 1.367 . S
C253 C252 1.367 . S
C253 C255 1.433 . S
C254 C250 1.354 . S
C254 C251 1.459 1_556 S
C254 N258 1.427 1_556 S
C255 H245 0.929 . S
C255 C253 1.433 . S
C255 N258 1.384 1_556 S
C256 H247 0.929 . S
C256 C248 1.378 . S
C256 C251 1.350 . S
C257 H244 0.929 . S
C257 C249 1.433 . S
C257 N259 1.384 . S
N258 C254 1.427 1_554 S
N258 C255 1.384 1_554 S
N259 C251 1.427 . S
N259 C257 1.384 . S
H260 C266 0.930 . S
H261 C270 0.930 . S
H262 C275 0.929 . S
H263 C273 0.929 . S
H264 C268 0.929 . S
H265 C274 0.929 . S
C266 H260 0.930 . S
C266 C267 1.367 . S
C266 C274 1.378 . S
C267 C266 1.367 . S
C267 C275 1.433 . S
C268 H264 0.929 . S
C268 C270 1.378 . S
C268 C272 1.350 . S
C269 C272 1.463 . S
C269 C274 1.350 . S
C269 N277 1.427 . S
C270 H261 0.930 . S
C270 C268 1.378 . S
C270 C271 1.367 . S
C271 C270 1.367 . S
C271 C273 1.433 . S
C272 C268 1.350 . S
C272 C269 1.463 . S
C272 N276 1.427 . S
C273 H263 0.929 . S
C273 C271 1.433 . S
C273 N276 1.384 . S
C274 H265 0.929 . S
C274 C266 1.378 . S
C274 C269 1.350 . S
C275 H262 0.929 . S
C275 C267 1.433 . S
C275 N277 1.384 . S
N276 C272 1.427 . S
N276 C273 1.384 . S
N277 C269 1.427 . S
N277 C275 1.384 . S
H278 C284 0.930 . S
H279 C288 0.930 . S
H280 C293 0.929 . S
H281 C291 0.929 . S
H282 C286 0.929 . S
H283 C292 0.929 . S
C284 H278 0.930 . S
C284 C285 1.367 . S
C284 C292 1.378 . S
C285 C284 1.367 . S
C285 C293 1.433 . S
C286 H282 0.929 . S
C286 C288 1.378 . S
C286 C290 1.350 . S
C287 C290 1.463 . S
C287 C292 1.350 . S
C287 N295 1.427 . S
C288 H279 0.930 . S
C288 C286 1.378 . S
C288 C289 1.367 . S
C289 C288 1.367 . S
C289 C291 1.433 . S
C290 C286 1.350 . S
C290 C287 1.463 . S
C290 N294 1.427 . S
C291 H281 0.929 . S
C291 C289 1.433 . S
C291 N294 1.384 . S
C292 H283 0.929 . S
C292 C284 1.378 . S
C292 C287 1.350 . S
C293 H280 0.929 . S
C293 C285 1.433 . S
C293 N295 1.384 . S
N294 C290 1.427 . S
N294 C291 1.384 . S
N295 C287 1.427 . S
N295 C293 1.384 . S
H296 C302 0.930 . S
H297 C306 0.930 . S
H298 C311 0.929 . S
H299 C309 0.929 . S
H300 C304 0.929 . S
H301 C310 0.929 . S
C302 H296 0.930 . S
C302 C303 1.367 . S
C302 C310 1.378 . S
C303 C302 1.367 . S
C303 C311 1.433 . S
C304 H300 0.929 . S
C304 C306 1.378 . S
C304 C308 1.350 . S
C305 C308 1.463 . S
C305 C310 1.350 . S
C305 N313 1.427 . S
C306 H297 0.930 . S
C306 C304 1.378 . S
C306 C307 1.367 . S
C307 C306 1.367 . S
C307 C309 1.433 . S
C308 C304 1.350 . S
C308 C305 1.463 . S
C308 N312 1.427 . S
C309 H299 0.929 . S
C309 C307 1.433 . S
C309 N312 1.384 . S
C310 H301 0.929 . S
C310 C302 1.378 . S
C310 C305 1.350 . S
C311 H298 0.929 . S
C311 C303 1.433 . S
C311 N313 1.384 . S
N312 C308 1.427 . S
N312 C309 1.384 . S
N313 C305 1.427 . S
N313 C311 1.384 . S
H314 C320 0.930 . S
H315 C324 0.930 . S
H316 C329 0.929 . S
H317 C327 0.929 . S
H318 C322 0.929 . S
H319 C328 0.929 . S
C320 H314 0.930 . S
C320 C321 1.367 . S
C320 C328 1.378 . S
C321 C320 1.367 . S
C321 C329 1.433 . S
C322 H318 0.929 . S
C322 C324 1.378 . S
C322 C326 1.350 . S
C323 C326 1.463 . S
C323 C328 1.350 . S
C323 N331 1.427 . S
C324 H315 0.930 . S
C324 C322 1.378 . S
C324 C325 1.367 . S
C325 C324 1.367 . S
C325 C327 1.433 . S
C326 C322 1.350 . S
C326 C323 1.463 . S
C326 N330 1.427 . S
C327 H317 0.929 . S
C327 C325 1.433 . S
C327 N330 1.384 . S
C328 H319 0.929 . S
C328 C320 1.378 . S
C328 C323 1.350 . S
C329 H316 0.929 . S
C329 C321 1.433 . S
C329 N331 1.384 . S
N330 C326 1.427 . S
N330 C327 1.384 . S
N331 C323 1.427 . S
N331 C329 1.384 . S
H332 C338 0.930 . S
H333 C342 0.930 . S
H334 C347 0.929 . S
H335 C345 0.929 . S
H336 C340 0.929 . S
H337 C346 0.929 . S
C338 H332 0.930 . S
C338 C339 1.367 1_655 S
C338 C346 1.378 . S
C339 C338 1.367 1_455 S
C339 C347 1.433 1_545 S
C340 H336 0.929 . S
C340 C342 1.378 . S
C340 C344 1.350 1_565 S
C341 C344 1.463 . S
C341 C346 1.350 1_455 S
C341 N349 1.427 1_545 S
C342 H333 0.930 . S
C342 C340 1.378 . S
C342 C343 1.367 1_565 S
C343 C342 1.367 1_545 S
C343 C345 1.433 1_455 S
C344 C340 1.350 1_545 S
C344 C341 1.463 . S
C344 N348 1.427 1_455 S
C345 H335 0.929 . S
C345 C343 1.433 1_655 S
C345 N348 1.384 . S
C346 H337 0.929 . S
C346 C338 1.378 . S
C346 C341 1.350 1_655 S
C347 H334 0.929 . S
C347 C339 1.433 1_565 S
C347 N349 1.384 . S
N348 C344 1.427 1_655 S
N348 C345 1.384 . S
N349 C341 1.427 1_565 S
N349 C347 1.384 . S
H350 C356 0.930 . S
H351 C360 0.930 . S
H352 C365 0.929 . S
H353 C363 0.929 . S
H354 C358 0.929 . S
H355 C364 0.929 . S
C356 H350 0.930 . S
C356 C357 1.367 . S
C356 C364 1.378 . S
C357 C356 1.367 . S
C357 C365 1.433 1_445 S
C358 H354 0.929 . S
C358 C360 1.378 . S
C358 C362 1.350 1_665 S
C359 C362 1.463 . S
C359 C364 1.350 . S
C359 N367 1.427 1_445 S
C360 H351 0.930 . S
C360 C358 1.378 . S
C360 C361 1.367 1_665 S
C361 C360 1.367 1_445 S
C361 C363 1.433 . S
C362 C358 1.350 1_445 S
C362 C359 1.463 . S
C362 N366 1.427 . S
C363 H353 0.929 . S
C363 C361 1.433 . S
C363 N366 1.384 . S
C364 H355 0.929 . S
C364 C356 1.378 . S
C364 C359 1.350 . S
C365 H352 0.929 . S
C365 C357 1.433 1_665 S
C365 N367 1.384 . S
N366 C362 1.427 . S
N366 C363 1.384 . S
N367 C359 1.427 1_665 S
N367 C365 1.384 . S
H368 C374 0.930 . S
H369 C378 0.930 . S
H370 C383 0.929 . S
H371 C381 0.929 . S
H372 C376 0.929 . S
H373 C382 0.929 . S
C374 H368 0.930 . S
C374 C375 1.367 . S
C374 C382 1.378 . S
C375 C374 1.367 . S
C375 C383 1.433 . S
C376 H372 0.929 . S
C376 C378 1.378 . S
C376 C380 1.350 . S
C377 C380 1.463 . S
C377 C382 1.350 . S
C377 N385 1.427 . S
C378 H369 0.930 . S
C378 C376 1.378 . S
C378 C379 1.367 . S
C379 C378 1.367 . S
C379 C381 1.433 . S
C380 C376 1.350 . S
C380 C377 1.463 . S
C380 N384 1.427 . S
C381 H371 0.929 . S
C381 C379 1.433 . S
C381 N384 1.384 . S
C382 H373 0.929 . S
C382 C374 1.378 . S
C382 C377 1.350 . S
C383 H370 0.929 . S
C383 C375 1.433 . S
C383 N385 1.384 . S
N384 C380 1.427 . S
N384 C381 1.384 . S
N385 C377 1.427 . S
N385 C383 1.384 . S
H386 C392 0.930 . S
H387 C396 0.930 . S
H388 C401 0.929 . S
H389 C399 0.929 . S
H390 C394 0.929 . S
H391 C400 0.929 . S
C392 H386 0.930 . S
C392 C393 1.367 . S
C392 C400 1.378 . S
C393 C392 1.367 . S
C393 C401 1.433 . S
C394 H390 0.929 . S
C394 C396 1.378 . S
C394 C398 1.350 . S
C395 C398 1.463 . S
C395 C400 1.350 . S
C395 N403 1.427 . S
C396 H387 0.930 . S
C396 C394 1.378 . S
C396 C397 1.367 . S
C397 C396 1.367 . S
C397 C399 1.433 . S
C398 C394 1.350 . S
C398 C395 1.463 . S
C398 N402 1.427 . S
C399 H389 0.929 . S
C399 C397 1.433 . S
C399 N402 1.384 . S
C400 H391 0.929 . S
C400 C392 1.378 . S
C400 C395 1.350 . S
C401 H388 0.929 . S
C401 C393 1.433 . S
C401 N403 1.384 . S
N402 C398 1.427 . S
N402 C399 1.384 . S
N403 C395 1.427 . S
N403 C401 1.384 . S
C199 C173 1.417 . S
C195 C27 1.452 . S
C213 N6 1.362 . S
C217 C141 1.376 . S
C231 C16 1.440 . S
C235 C179 1.404 . S
C249 N14 1.391 . S
C253 C147 1.372 . S
C267 C57 1.453 . S
C271 C109 1.414 . S
C285 N36 1.367 . S
C289 C77 1.370 . S
C307 C115 1.393 . S
C303 C46 1.443 . S
C325 C83 1.367 . S
C321 N44 1.389 . S
C339 C10 1.400 . S
C343 C89 1.367 . S
C357 C1 1.533 . S
C361 C121 1.504 . S
C379 C153 1.374 . S
C375 C40 1.396 . S
C393 C31 1.532 . S
C397 C185 1.502 . S
