# Generated by pormake.
# Topology cml, (3,6)-cn, num edge types: 1
# Building blocks:
#     Node 0, Type 0, BuildingBlock: BETDAH_clean_linker_0, # of connection points: 3
#     Node 1, Type 0, BuildingBlock: BETDAH_clean_linker_0, # of connection points: 3
#     Node 2, Type 0, BuildingBlock: BETDAH_clean_linker_0, # of connection points: 3
#     Node 3, Type 0, BuildingBlock: BETDAH_clean_linker_0, # of connection points: 3
#     Node 4, Type 0, BuildingBlock: BETDAH_clean_linker_0, # of connection points: 3
#     Node 5, Type 0, BuildingBlock: BETDAH_clean_linker_0, # of connection points: 3
#     Node 6, Type 0, BuildingBlock: BETDAH_clean_linker_0, # of connection points: 3
#     Node 7, Type 0, BuildingBlock: BETDAH_clean_linker_0, # of connection points: 3
#     Node 8, Type 1, BuildingBlock: IZENUY_clean_sbu_0, # of connection points: 6
#     Node 9, Type 1, BuildingBlock: IZENUY_clean_sbu_0, # of connection points: 6
#     Node 10, Type 1, BuildingBlock: IZENUY_clean_sbu_0, # of connection points: 6
#     Node 11, Type 1, BuildingBlock: IZENUY_clean_sbu_0, # of connection points: 6
#     Edge 12, Type (0, 1), BuildingBlock: AJUNOK_clean_linker_0, # of connection points: 2
#     Edge 13, Type (0, 1), BuildingBlock: AJUNOK_clean_linker_0, # of connection points: 2
#     Edge 14, Type (0, 1), BuildingBlock: AJUNOK_clean_linker_0, # of connection points: 2
#     Edge 15, Type (0, 1), BuildingBlock: AJUNOK_clean_linker_0, # of connection points: 2
#     Edge 16, Type (0, 1), BuildingBlock: AJUNOK_clean_linker_0, # of connection points: 2
#     Edge 17, Type (0, 1), BuildingBlock: AJUNOK_clean_linker_0, # of connection points: 2
#     Edge 18, Type (0, 1), BuildingBlock: AJUNOK_clean_linker_0, # of connection points: 2
#     Edge 19, Type (0, 1), BuildingBlock: AJUNOK_clean_linker_0, # of connection points: 2
#     Edge 20, Type (0, 1), BuildingBlock: AJUNOK_clean_linker_0, # of connection points: 2
#     Edge 21, Type (0, 1), BuildingBlock: AJUNOK_clean_linker_0, # of connection points: 2
#     Edge 22, Type (0, 1), BuildingBlock: AJUNOK_clean_linker_0, # of connection points: 2
#     Edge 23, Type (0, 1), BuildingBlock: AJUNOK_clean_linker_0, # of connection points: 2
#     Edge 24, Type (0, 1), BuildingBlock: AJUNOK_clean_linker_0, # of connection points: 2
#     Edge 25, Type (0, 1), BuildingBlock: AJUNOK_clean_linker_0, # of connection points: 2
#     Edge 26, Type (0, 1), BuildingBlock: AJUNOK_clean_linker_0, # of connection points: 2
#     Edge 27, Type (0, 1), BuildingBlock: AJUNOK_clean_linker_0, # of connection points: 2
#     Edge 28, Type (0, 1), BuildingBlock: AJUNOK_clean_linker_0, # of connection points: 2
#     Edge 29, Type (0, 1), BuildingBlock: AJUNOK_clean_linker_0, # of connection points: 2
#     Edge 30, Type (0, 1), BuildingBlock: AJUNOK_clean_linker_0, # of connection points: 2
#     Edge 31, Type (0, 1), BuildingBlock: AJUNOK_clean_linker_0, # of connection points: 2
#     Edge 32, Type (0, 1), BuildingBlock: AJUNOK_clean_linker_0, # of connection points: 2
#     Edge 33, Type (0, 1), BuildingBlock: AJUNOK_clean_linker_0, # of connection points: 2
#     Edge 34, Type (0, 1), BuildingBlock: AJUNOK_clean_linker_0, # of connection points: 2
#     Edge 35, Type (0, 1), BuildingBlock: AJUNOK_clean_linker_0, # of connection points: 2
# Relax obj value: 0.004
# Max RMSD: 0.062
# Mean RMSD: 0.049
data_MOF--net-cml--node1-IZENUY_clean_sbu_0--node2-BETDAH_clean_linker_0--edge1-AJUNOK_clean_linker_0
_symmetry_space_group_name_H-M    P1
_symmetry_Int_Tables_number       1
_symmetry_cell_setting            triclinic
loop_
_symmetry_equiv_pos_as_xyz
'x, y, z'
_cell_length_a     27.332862
_cell_length_b     30.324894
_cell_length_c     26.530773
_cell_angle_alpha  89.538025
_cell_angle_beta   90.749757
_cell_angle_gamma 91.024608
loop_
_atom_site_label
_atom_site_type_symbol
_atom_site_fract_x
_atom_site_fract_y
_atom_site_fract_z
_atom_type_partial_charge
H0 H 0.38122 0.45291 0.06268 0.0
H1 H 0.30002 0.39746 0.93725 0.0
H2 H 0.32598 0.31975 0.07031 0.0
C3 C 0.35889 0.42654 0.04661 0.0
C4 C 0.35444 0.3866 0.07323 0.0
C5 C 0.33898 0.43127 0.9977 0.0
C6 C 0.31373 0.39518 0.97567 0.0
C7 C 0.30951 0.35494 1.00201 0.0
C8 C 0.32924 0.35112 0.05066 0.0
N9 N 0.29256 0.31604 0.97792 0.0
C10 C 0.24755 0.31175 0.9536 0.0
H11 H 0.64922 0.56289 0.56089 0.0
H12 H 0.73638 0.62504 0.44488 0.0
H13 H 0.71202 0.6919 0.58408 0.0
C14 C 0.67299 0.58966 0.54829 0.0
C15 C 0.68012 0.62646 0.57941 0.0
C16 C 0.69283 0.58857 0.49954 0.0
C17 C 0.7215 0.62485 0.48252 0.0
C18 C 0.72833 0.66211 0.51336 0.0
C19 C 0.70745 0.66261 0.5612 0.0
N20 N 0.7498 0.70202 0.49529 0.0
C21 C 0.79331 0.70601 0.46896 0.0
H22 H 0.63182 0.43394 0.06201 0.0
H23 H 0.74989 0.45147 0.95815 0.0
H24 H 0.76276 0.3577 0.07998 0.0
C25 C 0.66758 0.42453 0.04896 0.0
C26 C 0.69476 0.39325 0.0764 0.0
C27 C 0.68714 0.44563 1.00637 0.0
C28 C 0.73412 0.43475 0.99052 0.0
C29 C 0.7608 0.40203 0.01588 0.0
C30 C 0.74124 0.3815 0.0591 0.0
N31 N 0.80943 0.39415 1.00087 0.0
C32 C 0.82569 0.35351 0.98448 0.0
H33 H 0.39071 0.57131 0.56446 0.0
H34 H 0.3134 0.69401 0.55145 0.0
H35 H 0.33839 0.61662 0.42025 0.0
C36 C 0.36984 0.59473 0.54226 0.0
C37 C 0.36533 0.58863 0.49006 0.0
C38 C 0.35158 0.63282 0.56517 0.0
C39 C 0.3269 0.66409 0.53498 0.0
C40 C 0.32263 0.65808 0.48265 0.0
C41 C 0.34124 0.62035 0.4608 0.0
N42 N 0.30754 0.6925 0.45012 0.0
C43 C 0.26226 0.71213 0.45214 0.0
H44 H 0.87458 0.94863 0.06908 0.0
H45 H 0.82979 0.89666 0.92524 0.0
H46 H 0.8118 0.81777 0.05897 0.0
C47 C 0.85684 0.9228 0.04709 0.0
C48 C 0.84275 0.88313 0.07085 0.0
C49 C 0.85313 0.92788 0.99457 0.0
C50 C 0.8314 0.8939 0.96599 0.0
C51 C 0.81485 0.85483 0.98931 0.0
C52 C 0.8211 0.84926 0.04166 0.0
N53 N 0.80113 0.81853 0.95871 0.0
C54 C 0.75341 0.80228 0.95451 0.0
H55 H 0.14188 0.07104 0.55388 0.0
H56 H 0.22081 0.12793 0.42886 0.0
H57 H 0.20668 0.20054 0.5659 0.0
C58 C 0.16506 0.09698 0.53828 0.0
C59 C 0.17478 0.13486 0.56704 0.0
C60 C 0.18106 0.09383 0.48824 0.0
C61 C 0.20879 0.12915 0.46755 0.0
C62 C 0.2184 0.16751 0.49577 0.0
C63 C 0.20103 0.17019 0.54515 0.0
N64 N 0.23566 0.20663 0.47173 0.0
C65 C 0.28429 0.21537 0.45953 0.0
H66 H 0.13633 0.95229 0.05534 0.0
H67 H 0.25279 0.94985 0.94849 0.0
H68 H 0.25688 0.86448 0.07879 0.0
C69 C 0.17044 0.93853 0.04282 0.0
C70 C 0.19361 0.90622 0.0724 0.0
C71 C 0.19131 0.95447 0.9982 0.0
C72 C 0.23539 0.93666 0.98199 0.0
C73 C 0.25858 0.90341 0.01023 0.0
C74 C 0.2375 0.88807 0.05544 0.0
N75 N 0.30725 0.89255 0.99808 0.0
C76 C 0.32181 0.85136 0.98169 0.0
H77 H 0.87662 0.0614 0.5712 0.0
H78 H 0.80776 0.187 0.54806 0.0
H79 H 0.83655 0.10451 0.42199 0.0
C80 C 0.85928 0.08528 0.54653 0.0
C81 C 0.85576 0.07663 0.49465 0.0
C82 C 0.84343 0.12551 0.56634 0.0
C83 C 0.82086 0.1561 0.53367 0.0
C84 C 0.81832 0.14809 0.48162 0.0
C85 C 0.83653 0.10902 0.46247 0.0
N86 N 0.80221 0.18048 0.4469 0.0
C87 C 0.76061 0.20513 0.45342 0.0
Fe88 Fe 0.02451 0.82225 0.31217 0.0
Fe89 Fe 0.02298 0.87121 0.4133 0.0
O90 O 0.02136 0.87226 0.34643 0.0
Fe91 Fe 0.01608 0.92309 0.31363 0.0
O92 O 0.9591 0.90516 0.28354 0.0
O93 O 0.98553 0.84092 0.25946 0.0
O94 O 0.96921 0.80091 0.34118 0.0
C95 C 0.96202 0.79755 0.38788 0.0
C96 C 0.08305 0.87567 0.25442 0.0
O97 O 0.98964 0.81796 0.41904 0.0
C98 C 0.08069 0.94763 0.38842 0.0
O99 O 0.06405 0.7942 0.35876 0.0
O100 O 0.08178 0.84533 0.41435 0.0
O101 O 0.05238 0.90608 0.25975 0.0
O102 O 0.07988 0.84045 0.28002 0.0
C103 C 0.95456 0.93427 0.39778 0.0
O104 O 0.05649 0.92417 0.41948 0.0
O105 O 0.07244 0.94489 0.34159 0.0
C106 C 0.0914 0.80943 0.3937 0.0
O107 O 0.96429 0.89762 0.41772 0.0
O108 O 0.97943 0.94958 0.36166 0.0
C109 C 0.95438 0.87133 0.25641 0.0
Fe110 Fe 1.01054 0.15465 0.91425 0.0
Fe111 Fe 1.00469 0.09939 0.81763 0.0
O112 O 1.00582 0.15149 0.84757 0.0
Fe113 Fe 1.003 0.20066 0.81093 0.0
O114 O 0.06189 0.21978 0.83534 0.0
O115 O 0.04585 0.20672 0.91488 0.0
O116 O 0.06847 0.12596 0.91519 0.0
C117 C 0.07448 0.08796 0.89732 0.0
C118 C 0.94385 0.21921 0.89561 0.0
O119 O 0.04536 0.07272 0.86395 0.0
C120 C 0.93636 0.14939 0.75977 0.0
O121 O 0.97674 0.10298 0.92599 0.0
O122 O 0.95036 0.08135 0.85149 0.0
O123 O 0.96931 0.23162 0.85828 0.0
O124 O 0.9529 0.18345 0.91834 0.0
C125 C 0.06354 0.14603 0.75248 0.0
O126 O 0.96397 0.11662 0.76593 0.0
O127 O 0.94426 0.18486 0.78329 0.0
C128 C 0.94873 0.07912 0.89891 0.0
O129 O 0.05904 0.11314 0.78158 0.0
O130 O 0.0359 0.17881 0.75686 0.0
C131 C 0.07223 0.22471 0.8814 0.0
Fe132 Fe 0.52999 0.32183 0.32251 0.0
Fe133 Fe 0.52889 0.37672 0.41964 0.0
O134 O 0.53111 0.37387 0.35285 0.0
Fe135 Fe 0.53415 0.42299 0.31623 0.0
O136 O 0.47697 0.40919 0.28368 0.0
O137 O 0.49619 0.34099 0.26681 0.0
O138 O 0.47133 0.30712 0.34972 0.0
C139 C 0.46165 0.30666 0.39608 0.0
C140 C 0.59649 0.36566 0.26366 0.0
O141 O 0.48906 0.3273 0.42723 0.0
C142 C 0.59698 0.44538 0.39328 0.0
O143 O 0.56368 0.29316 0.37286 0.0
O144 O 0.58419 0.34524 0.42641 0.0
O145 O 0.57011 0.39938 0.26567 0.0
O146 O 0.58851 0.33273 0.29202 0.0
C147 C 0.47097 0.44633 0.39594 0.0
O148 O 0.56829 0.42633 0.42406 0.0
O149 O 0.59135 0.44068 0.34626 0.0
C150 C 0.59137 0.30801 0.4076 0.0
O151 O 0.47364 0.40944 0.41812 0.0
O152 O 0.49905 0.4557 0.35983 0.0
C153 C 0.47011 0.37437 0.25854 0.0
Fe154 Fe 0.50412 0.64633 0.92193 0.0
Fe155 Fe 0.50102 0.59355 0.82318 0.0
O156 O 0.5035 0.64487 0.85497 0.0
Fe157 Fe 0.506 0.69483 0.81966 0.0
O158 O 0.56445 0.71022 0.84816 0.0
O159 O 0.54437 0.69549 0.9265 0.0
O160 O 0.55924 0.61355 0.9261 0.0
C161 C 0.56386 0.57589 0.90702 0.0
C162 C 0.4436 0.71557 0.90077 0.0
O163 O 0.53583 0.56319 0.87147 0.0
C164 C 0.43965 0.64814 0.76269 0.0
O165 O 0.46426 0.59731 0.92924 0.0
O166 O 0.44348 0.57813 0.85194 0.0
O167 O 0.472 0.72704 0.86549 0.0
O168 O 0.44905 0.67917 0.92334 0.0
C169 C 0.56602 0.63802 0.76317 0.0
O170 O 0.46535 0.61419 0.76926 0.0
O171 O 0.44795 0.68266 0.78797 0.0
C172 C 0.4362 0.57673 0.89873 0.0
O173 O 0.55861 0.60503 0.79157 0.0
O174 O 0.54028 0.67208 0.76721 0.0
C175 C 0.57345 0.7127 0.89484 0.0
C176 C 0.16334 0.28567 0.96596 0.0
C177 C 0.20102 0.29735 0.93291 0.0
C178 C 0.12101 0.26369 0.94849 0.0
C179 C 0.11496 0.25249 0.89725 0.0
H180 H 0.16745 0.2919 1.00598 0.0
H181 H 0.09352 0.25429 0.97578 0.0
S182 S 0.20326 0.27831 0.79539 0.0
N183 N 0.22982 0.29819 0.8469 0.0
N184 N 0.15015 0.25705 0.81334 0.0
C185 C 0.15192 0.26583 0.86349 0.0
C186 C 0.19509 0.28816 0.88154 0.0
C187 C 0.87639 0.7373 0.47851 0.0
C188 C 0.83851 0.72178 0.4468 0.0
C189 C 0.91695 0.76041 0.45895 0.0
C190 C 0.92107 0.76899 0.40683 0.0
H191 H 0.87376 0.7331 0.519 0.0
H192 H 0.94458 0.77268 0.48518 0.0
S193 S 0.83133 0.73339 0.30798 0.0
N194 N 0.80748 0.71505 0.36123 0.0
N195 N 0.88358 0.75812 0.32378 0.0
C196 C 0.88383 0.75204 0.37459 0.0
C197 C 0.84251 0.7286 0.39476 0.0
C198 C 0.86851 0.28203 0.9907 0.0
C199 C 0.84928 0.31646 0.96128 0.0
C200 C 0.89722 0.24929 0.96886 0.0
C201 C 0.9082 0.2504 0.91701 0.0
H202 H 0.86267 0.28114 0.03101 0.0
H203 H 0.91262 0.22411 0.99319 0.0
S204 S 0.86262 0.33234 0.82359 0.0
N205 N 0.84022 0.34851 0.87779 0.0
N206 N 0.8941 0.28758 0.8366 0.0
C207 C 0.88732 0.28396 0.88714 0.0
C208 C 0.85791 0.31689 0.90934 0.0
C209 C 0.18286 0.71708 0.40867 0.0
C210 C 0.21689 0.73448 0.44348 0.0
C211 C 0.1419 0.74121 0.39347 0.0
C212 C 0.13374 0.78368 0.4125 0.0
H213 H 0.1887 0.68516 0.3919 0.0
H214 H 0.11701 0.72671 0.36588 0.0
S215 S 0.21291 0.84284 0.50607 0.0
N216 N 0.24034 0.79544 0.49755 0.0
N217 N 0.16348 0.84129 0.46961 0.0
C218 C 0.16739 0.80081 0.44855 0.0
C219 C 0.20902 0.77606 0.46386 0.0
C220 C 0.68642 0.78802 0.8938 0.0
C221 C 0.70616 0.78259 0.94245 0.0
C222 C 0.64308 0.76592 0.87908 0.0
C223 C 0.61777 0.73763 0.91263 0.0
H224 H 0.70518 0.80878 0.86649 0.0
H225 H 0.62966 0.77075 0.84088 0.0
S226 S 0.65548 0.71266 0.04481 0.0
N227 N 0.69813 0.74744 0.02433 0.0
N228 N 0.61642 0.70587 0.99734 0.0
C229 C 0.6371 0.73263 0.96192 0.0
C230 C 0.68142 0.75508 0.97666 0.0
C231 C 0.34378 0.23692 0.39411 0.0
C232 C 0.33172 0.23335 0.44521 0.0
C233 C 0.38634 0.25977 0.37882 0.0
C234 C 0.41837 0.28028 0.41408 0.0
H235 H 0.31946 0.22303 0.36558 0.0
H236 H 0.39344 0.26221 0.33881 0.0
S237 S 0.40295 0.27867 0.55317 0.0
N238 N 0.35489 0.25071 0.53132 0.0
N239 N 0.43491 0.29362 0.50325 0.0
C240 C 0.4069 0.27584 0.46565 0.0
C241 C 0.36356 0.25242 0.48102 0.0
C242 C 0.36001 0.77775 0.98902 0.0
C243 C 0.34617 0.81423 0.95952 0.0
C244 C 0.3899 0.74487 0.96921 0.0
C245 C 0.40756 0.74782 0.91948 0.0
H246 H 0.34898 0.7753 0.02803 0.0
H247 H 0.40077 0.71791 0.99369 0.0
S248 S 0.37804 0.83588 0.82629 0.0
N249 N 0.34952 0.85045 0.87789 0.0
N250 N 0.40556 0.78928 0.84048 0.0
C251 C 0.39217 0.7836 0.8893 0.0
C252 C 0.36155 0.81667 0.90941 0.0
C253 C 0.67596 0.2111 0.42385 0.0
C254 C 0.71613 0.22963 0.44984 0.0
C255 C 0.63489 0.23629 0.41214 0.0
C256 C 0.63268 0.28096 0.42603 0.0
H257 H 0.67703 0.17735 0.41078 0.0
H258 H 0.60528 0.22088 0.39076 0.0
S259 S 0.72863 0.34368 0.49731 0.0
N260 N 0.7514 0.29393 0.49113 0.0
N261 N 0.67415 0.34181 0.46962 0.0
C262 C 0.67221 0.29922 0.45408 0.0
C263 C 0.71408 0.2734 0.46578 0.0
C264 C 0.3728 0.46648 0.9196 0.0
C265 C 0.35234 0.47125 0.96764 0.0
C266 C 0.39674 0.50195 0.89558 0.0
C267 C 0.40162 0.54327 0.91904 0.0
H268 H 0.37351 0.43442 0.90195 0.0
H269 H 0.41459 0.49599 0.86011 0.0
S270 S 0.34613 0.57535 0.03972 0.0
N271 N 0.33153 0.52254 0.03375 0.0
N272 N 0.37825 0.58872 0.98938 0.0
C273 C 0.37797 0.54946 0.96502 0.0
C274 C 0.35285 0.5136 0.98908 0.0
C275 C 0.67865 0.50766 0.48529 0.0
C276 C 0.67847 0.55109 0.46596 0.0
C277 C 0.65494 0.4729 0.45972 0.0
C278 C 0.63085 0.47991 0.41329 0.0
H279 H 0.69501 0.50093 0.52191 0.0
H280 H 0.65359 0.44062 0.47752 0.0
S281 S 0.62192 0.5865 0.34459 0.0
N282 N 0.65364 0.59858 0.39622 0.0
N283 N 0.61046 0.53289 0.34749 0.0
C284 C 0.6332 0.52242 0.39173 0.0
C285 C 0.65675 0.55807 0.41817 0.0
C286 C 0.61661 0.46663 0.95101 0.0
C287 C 0.65827 0.47945 0.97912 0.0
C288 C 0.58718 0.49805 0.92687 0.0
C289 C 0.59768 0.54362 0.93077 0.0
H290 H 0.60658 0.43202 0.94793 0.0
H291 H 0.55517 0.48647 0.90604 0.0
S292 S 0.70336 0.59391 0.99987 0.0
N293 N 0.70942 0.54029 0.00895 0.0
N294 N 0.6536 0.59964 0.96456 0.0
C295 C 0.63956 0.55677 0.95869 0.0
C296 C 0.66998 0.52462 0.98257 0.0
C297 C 0.38445 0.50819 0.48099 0.0
C298 C 0.39098 0.55223 0.46502 0.0
C299 C 0.40928 0.47379 0.45766 0.0
C300 C 0.44161 0.48228 0.41761 0.0
H301 H 0.35997 0.50031 0.51168 0.0
H302 H 0.40349 0.44043 0.4715 0.0
S303 S 0.47336 0.59294 0.36412 0.0
N304 N 0.43364 0.60286 0.40868 0.0
N305 N 0.47935 0.53894 0.3641 0.0
C306 C 0.44824 0.52647 0.40144 0.0
C307 C 0.42327 0.56123 0.42536 0.0
C308 C 0.85315 0.99114 0.93222 0.0
C309 C 0.87762 0.96621 0.96951 0.0
C310 C 0.87614 0.02779 0.90903 0.0
C311 C 0.92402 0.04086 0.92294 0.0
H312 H 0.81588 0.98254 0.92133 0.0
H313 H 0.85619 0.04634 0.88067 0.0
S314 S 1.00639 0.98291 0.01286 0.0
N315 N 0.95441 0.95442 0.01472 0.0
N316 N 0.99666 0.02375 0.9727 0.0
C317 C 0.94925 0.01546 0.95905 0.0
C318 C 0.9263 0.97801 0.98194 0.0
C319 C 0.16247 0.01277 0.47868 0.0
C320 C 0.16348 0.0555 0.45727 0.0
C321 C 0.13754 0.9776 0.45499 0.0
C322 C 0.11329 0.98336 0.40838 0.0
H323 H 0.17944 1.00684 0.51518 0.0
H324 H 0.13608 0.94588 0.47407 0.0
S325 S 0.10676 0.08767 0.3347 0.0
N326 N 0.13898 0.10094 0.38559 0.0
N327 N 0.09389 0.03448 0.34029 0.0
C328 C 0.11641 0.02513 0.38499 0.0
C329 C 0.14113 0.06123 0.40954 0.0
C330 C 0.15106 0.98589 0.92065 0.0
C331 C 0.16764 0.99138 0.97056 0.0
C332 C 0.12273 0.01824 0.89651 0.0
C333 C 0.11042 0.05754 0.92116 0.0
H334 H 0.1582 0.95558 0.90093 0.0
H335 H 0.10924 0.01178 0.85866 0.0
S336 S 0.14944 0.08915 0.05077 0.0
N337 N 0.17298 0.03999 0.04273 0.0
N338 N 0.12029 0.10093 0.99758 0.0
C339 C 0.12916 0.06427 0.97027 0.0
C340 C 0.15752 0.03113 0.99491 0.0
C341 C 0.92367 0.02254 0.48992 0.0
C342 C 0.87714 0.03616 0.47327 0.0
C343 C 0.94721 0.98762 0.46679 0.0
C344 C 0.92527 0.96528 0.42604 0.0
H345 H 0.94313 0.04021 0.51954 0.0
H346 H 0.98383 0.97933 0.47937 0.0
S347 S 0.80282 0.98491 0.37033 0.0
N348 N 0.80848 0.02165 0.41581 0.0
N349 N 0.85427 0.95712 0.37109 0.0
C350 C 0.87846 0.97732 0.40981 0.0
C351 C 0.85399 0.01249 0.43378 0.0
C352 C 0.37803 0.41331 0.1597 0.0
C353 C 0.38073 0.38092 0.12218 0.0
C354 C 0.40582 0.41034 0.20442 0.0
C355 C 0.43731 0.37479 0.21339 0.0
H356 H 0.35473 0.44151 0.15412 0.0
H357 H 0.40317 0.43652 0.23173 0.0
S358 S 0.45788 0.28145 0.12639 0.0
N359 N 0.418 0.31266 0.09642 0.0
N360 N 0.46871 0.30597 0.18076 0.0
C361 C 0.43932 0.34157 0.17652 0.0
C362 C 0.41147 0.34492 0.13088 0.0
C363 C 0.62775 0.66704 0.63948 0.0
C364 C 0.65458 0.62927 0.62852 0.0
C365 C 0.60079 0.66988 0.68377 0.0
C366 C 0.59919 0.63498 0.71922 0.0
H367 H 0.62632 0.69428 0.61285 0.0
H368 H 0.57999 0.69946 0.68944 0.0
S369 S 0.66674 0.53015 0.71031 0.0
N370 N 0.68075 0.5573 0.6581 0.0
N371 N 0.62959 0.56225 0.74138 0.0
C372 C 0.62716 0.59745 0.70948 0.0
C373 C 0.65479 0.59464 0.66415 0.0
C374 C 0.62708 0.35864 0.12645 0.0
C375 C 0.67508 0.37613 0.12493 0.0
C376 C 0.6034 0.35136 0.17242 0.0
C377 C 0.62681 0.36127 0.21854 0.0
H378 H 0.60675 0.35283 0.09172 0.0
H379 H 0.56539 0.34064 0.17176 0.0
S380 S 0.753 0.40529 0.23569 0.0
N381 N 0.74604 0.4009 0.17394 0.0
N382 N 0.70103 0.38742 0.26036 0.0
C383 C 0.67553 0.37644 0.21786 0.0
C384 C 0.69988 0.38368 0.17101 0.0
C385 C 0.36086 0.60672 0.65461 0.0
C386 C 0.36412 0.64141 0.61915 0.0
C387 C 0.38231 0.61046 0.70269 0.0
C388 C 0.40718 0.64929 0.71761 0.0
H389 H 0.34381 0.57552 0.64418 0.0
H390 H 0.38148 0.58193 0.72755 0.0
S391 S 0.42306 0.75109 0.64084 0.0
N392 N 0.39221 0.7169 0.6036 0.0
N393 N 0.43099 0.72426 0.69464 0.0
C394 C 0.40758 0.68543 0.68411 0.0
C395 C 0.38638 0.68143 0.63472 0.0
C396 C 0.89135 0.83939 0.13316 0.0
C397 C 0.86033 0.87501 0.12337 0.0
C398 C 0.91937 0.83715 0.17773 0.0
C399 C 0.91768 0.87056 0.21433 0.0
H400 H 0.89677 0.81465 0.10462 0.0
H401 H 0.94456 0.81017 0.18205 0.0
S402 S 0.83479 0.96636 0.21078 0.0
N403 N 0.82406 0.94101 0.15679 0.0
N404 N 0.87661 0.93704 0.24066 0.0
C405 C 0.88349 0.90434 0.20689 0.0
C406 C 0.85492 0.90652 0.16142 0.0
C407 C 0.12342 0.17613 0.62774 0.0
C408 C 0.15193 0.13923 0.61741 0.0
C409 C 0.09644 0.17858 0.67221 0.0
C410 C 0.09674 0.14419 0.70836 0.0
H411 H 0.12029 0.20261 0.60029 0.0
H412 H 0.07397 0.20721 0.67739 0.0
S413 S 0.17038 0.04259 0.70171 0.0
N414 N 0.18241 0.06928 0.64868 0.0
N415 N 0.13172 0.07358 0.73226 0.0
C416 C 0.12705 0.10798 0.6995 0.0
C417 C 0.1545 0.10554 0.65407 0.0
C418 C 0.16099 0.93057 0.15471 0.0
C419 C 0.17321 0.89563 0.12291 0.0
C420 C 0.13416 0.9232 0.19857 0.0
C421 C 0.11871 0.8805 0.21294 0.0
H422 H 0.17066 0.96427 0.14453 0.0
H423 H 0.12403 0.9515 0.22057 0.0
S424 S 0.14507 0.77713 0.14531 0.0
N425 N 0.17081 0.81635 0.11051 0.0
N426 N 0.12072 0.80224 0.19377 0.0
C427 C 0.13341 0.84482 0.18338 0.0
C428 C 0.16063 0.85244 0.1382 0.0
C429 C 0.85305 0.1041 0.65751 0.0
C430 C 0.85649 0.13677 0.61957 0.0
C431 C 0.87605 0.10974 0.70461 0.0
C432 C 0.90227 0.14872 0.7161 0.0
H433 H 0.83483 0.07283 0.64973 0.0
H434 H 0.87534 0.08255 0.73136 0.0
S435 S 0.91886 0.24611 0.63237 0.0
N436 N 0.88621 0.21074 0.59828 0.0
N437 N 0.92732 0.22189 0.68765 0.0
C438 C 0.9026 0.18313 0.68033 0.0
C439 C 0.88011 0.17707 0.63188 0.0
loop_
_geom_bond_atom_site_label_1
_geom_bond_atom_site_label_2
_geom_bond_distance
_geom_bond_site_symmetry_2
_ccdc_geom_bond_type
H0 C3 0.929 . S
H1 C6 0.929 . S
H2 C8 0.930 . S
C3 H0 0.929 . S
C3 C4 1.398 . S
C3 C5 1.396 1_554 S
C4 C3 1.398 . S
C4 C8 1.407 . S
C5 C3 1.396 1_556 S
C5 C6 1.394 . S
C6 H1 0.929 . S
C6 C5 1.394 . S
C6 C7 1.382 1_556 S
C7 C6 1.382 1_554 S
C7 C8 1.392 . S
C7 N9 1.420 1_554 S
C8 H2 0.930 . S
C8 C4 1.407 . S
C8 C7 1.392 . S
N9 C7 1.420 1_556 S
N9 C10 1.244 . S
C10 N9 1.244 . S
H11 C14 0.929 . S
H12 C17 0.929 . S
H13 C19 0.930 . S
C14 H11 0.929 . S
C14 C15 1.398 . S
C14 C16 1.396 . S
C15 C14 1.398 . S
C15 C19 1.407 . S
C16 C14 1.396 . S
C16 C17 1.394 . S
C17 H12 0.929 . S
C17 C16 1.394 . S
C17 C18 1.382 . S
C18 C17 1.382 . S
C18 C19 1.392 . S
C18 N20 1.420 . S
C19 H13 0.930 . S
C19 C15 1.407 . S
C19 C18 1.392 . S
N20 C18 1.420 . S
N20 C21 1.244 . S
C21 N20 1.244 . S
H22 C25 0.929 . S
H23 C28 0.929 . S
H24 C30 0.930 . S
C25 H22 0.929 . S
C25 C26 1.398 . S
C25 C27 1.396 1_554 S
C26 C25 1.398 . S
C26 C30 1.407 . S
C27 C25 1.396 1_556 S
C27 C28 1.394 . S
C28 H23 0.929 . S
C28 C27 1.394 . S
C28 C29 1.382 1_556 S
C29 C28 1.382 1_554 S
C29 C30 1.392 . S
C29 N31 1.420 . S
C30 H24 0.930 . S
C30 C26 1.407 . S
C30 C29 1.392 . S
N31 C29 1.420 . S
N31 C32 1.244 1_554 S
C32 N31 1.244 1_556 S
H33 C36 0.929 . S
H34 C39 0.929 . S
H35 C41 0.930 . S
C36 H33 0.929 . S
C36 C37 1.398 . S
C36 C38 1.396 . S
C37 C36 1.398 . S
C37 C41 1.407 . S
C38 C36 1.396 . S
C38 C39 1.394 . S
C39 H34 0.929 . S
C39 C38 1.394 . S
C39 C40 1.382 . S
C40 C39 1.382 . S
C40 C41 1.392 . S
C40 N42 1.420 . S
C41 H35 0.930 . S
C41 C37 1.407 . S
C41 C40 1.392 . S
N42 C40 1.420 . S
N42 C43 1.244 . S
C43 N42 1.244 . S
H44 C47 0.929 . S
H45 C50 0.929 . S
H46 C52 0.930 . S
C47 H44 0.929 . S
C47 C48 1.398 . S
C47 C49 1.396 1_554 S
C48 C47 1.398 . S
C48 C52 1.407 . S
C49 C47 1.396 1_556 S
C49 C50 1.394 . S
C50 H45 0.929 . S
C50 C49 1.394 . S
C50 C51 1.382 1_556 S
C51 C50 1.382 1_554 S
C51 C52 1.392 . S
C51 N53 1.420 1_554 S
C52 H46 0.930 . S
C52 C48 1.407 . S
C52 C51 1.392 . S
N53 C51 1.420 1_556 S
N53 C54 1.244 . S
C54 N53 1.244 . S
H55 C58 0.929 . S
H56 C61 0.929 . S
H57 C63 0.930 . S
C58 H55 0.929 . S
C58 C59 1.398 . S
C58 C60 1.396 . S
C59 C58 1.398 . S
C59 C63 1.407 . S
C60 C58 1.396 . S
C60 C61 1.394 . S
C61 H56 0.929 . S
C61 C60 1.394 . S
C61 C62 1.382 . S
C62 C61 1.382 . S
C62 C63 1.392 . S
C62 N64 1.420 . S
C63 H57 0.930 . S
C63 C59 1.407 . S
C63 C62 1.392 . S
N64 C62 1.420 . S
N64 C65 1.244 . S
C65 N64 1.244 . S
H66 C69 0.929 . S
H67 C72 0.929 . S
H68 C74 0.930 . S
C69 H66 0.929 . S
C69 C70 1.398 . S
C69 C71 1.396 1_554 S
C70 C69 1.398 . S
C70 C74 1.407 . S
C71 C69 1.396 1_556 S
C71 C72 1.394 . S
C72 H67 0.929 . S
C72 C71 1.394 . S
C72 C73 1.382 1_556 S
C73 C72 1.382 1_554 S
C73 C74 1.392 . S
C73 N75 1.420 . S
C74 H68 0.930 . S
C74 C70 1.407 . S
C74 C73 1.392 . S
N75 C73 1.420 . S
N75 C76 1.244 1_554 S
C76 N75 1.244 1_556 S
H77 C80 0.929 . S
H78 C83 0.929 . S
H79 C85 0.930 . S
C80 H77 0.929 . S
C80 C81 1.398 . S
C80 C82 1.396 . S
C81 C80 1.398 . S
C81 C85 1.407 . S
C82 C80 1.396 . S
C82 C83 1.394 . S
C83 H78 0.929 . S
C83 C82 1.394 . S
C83 C84 1.382 . S
C84 C83 1.382 . S
C84 C85 1.392 . S
C84 N86 1.420 . S
C85 H79 0.930 . S
C85 C81 1.407 . S
C85 C84 1.392 . S
N86 C84 1.420 . S
N86 C87 1.244 . S
C87 N86 1.244 . S
Fe88 O90 1.918 . S
Fe88 O93 1.997 1_455 S
Fe88 O94 2.002 1_455 S
Fe88 O99 1.976 . S
Fe88 O102 1.996 . S
Fe89 O90 1.918 . S
Fe89 O97 1.997 1_455 S
Fe89 O100 1.996 . S
Fe89 O104 1.976 . S
Fe89 O107 2.002 1_455 S
O90 Fe88 1.918 . S
O90 Fe89 1.918 . S
O90 Fe91 1.918 . S
Fe91 O90 1.918 . S
Fe91 O92 2.002 1_455 S
Fe91 O101 1.976 . S
Fe91 O105 1.996 . S
Fe91 O108 1.997 1_455 S
O92 Fe91 2.002 1_655 S
O92 C109 1.295 . S
O93 Fe88 1.997 1_655 S
O93 C109 1.235 . S
O94 Fe88 2.002 1_655 S
O94 C95 1.295 . S
C95 O94 1.295 . S
C95 O97 1.235 . S
C96 O101 1.287 . S
C96 O102 1.255 . S
O97 Fe89 1.997 1_655 S
O97 C95 1.235 . S
C98 O104 1.287 . S
C98 O105 1.255 . S
O99 Fe88 1.976 . S
O99 C106 1.287 . S
O100 Fe89 1.996 . S
O100 C106 1.255 . S
O101 Fe91 1.976 . S
O101 C96 1.287 . S
O102 Fe88 1.996 . S
O102 C96 1.255 . S
C103 O107 1.295 . S
C103 O108 1.235 . S
O104 Fe89 1.976 . S
O104 C98 1.287 . S
O105 Fe91 1.996 . S
O105 C98 1.255 . S
C106 O99 1.287 . S
C106 O100 1.255 . S
O107 Fe89 2.002 1_655 S
O107 C103 1.295 . S
O108 Fe91 1.997 1_655 S
O108 C103 1.235 . S
C109 O92 1.295 . S
C109 O93 1.235 . S
Fe110 O112 1.918 . S
Fe110 O115 1.983 1_655 S
Fe110 O116 1.989 1_655 S
Fe110 O121 1.989 . S
Fe110 O124 2.009 . S
Fe111 O112 1.918 . S
Fe111 O119 1.997 1_655 S
Fe111 O122 1.996 . S
Fe111 O126 1.976 . S
Fe111 O129 2.002 1_655 S
O112 Fe110 1.918 . S
O112 Fe111 1.918 . S
O112 Fe113 1.918 . S
Fe113 O112 1.918 . S
Fe113 O114 2.002 1_655 S
Fe113 O123 1.976 . S
Fe113 O127 1.996 . S
Fe113 O130 1.997 1_655 S
O114 Fe113 2.002 1_455 S
O114 C131 1.295 . S
O115 Fe110 1.983 1_455 S
O115 C131 1.235 . S
O116 Fe110 1.989 1_455 S
O116 C117 1.295 . S
C117 O116 1.295 . S
C117 O119 1.235 . S
C118 O123 1.287 . S
C118 O124 1.255 . S
O119 Fe111 1.997 1_455 S
O119 C117 1.235 . S
C120 O126 1.287 . S
C120 O127 1.255 . S
O121 Fe110 1.989 . S
O121 C128 1.287 . S
O122 Fe111 1.996 . S
O122 C128 1.255 . S
O123 Fe113 1.976 . S
O123 C118 1.287 . S
O124 Fe110 2.009 . S
O124 C118 1.255 . S
C125 O129 1.295 . S
C125 O130 1.235 . S
O126 Fe111 1.976 . S
O126 C120 1.287 . S
O127 Fe113 1.996 . S
O127 C120 1.255 . S
C128 O121 1.287 . S
C128 O122 1.255 . S
O129 Fe111 2.002 1_455 S
O129 C125 1.295 . S
O130 Fe113 1.997 1_455 S
O130 C125 1.235 . S
C131 O114 1.295 . S
C131 O115 1.235 . S
Fe132 O134 1.918 . S
Fe132 O137 1.997 . S
Fe132 O138 2.002 . S
Fe132 O143 1.976 . S
Fe132 O146 1.996 . S
Fe133 O134 1.918 . S
Fe133 O141 1.997 . S
Fe133 O144 1.996 . S
Fe133 O148 1.976 . S
Fe133 O151 2.002 . S
O134 Fe132 1.918 . S
O134 Fe133 1.918 . S
O134 Fe135 1.918 . S
Fe135 O134 1.918 . S
Fe135 O136 2.002 . S
Fe135 O145 1.976 . S
Fe135 O149 1.996 . S
Fe135 O152 1.997 . S
O136 Fe135 2.002 . S
O136 C153 1.295 . S
O137 Fe132 1.997 . S
O137 C153 1.235 . S
O138 Fe132 2.002 . S
O138 C139 1.295 . S
C139 O138 1.295 . S
C139 O141 1.235 . S
C140 O145 1.287 . S
C140 O146 1.255 . S
O141 Fe133 1.997 . S
O141 C139 1.235 . S
C142 O148 1.287 . S
C142 O149 1.255 . S
O143 Fe132 1.976 . S
O143 C150 1.287 . S
O144 Fe133 1.996 . S
O144 C150 1.255 . S
O145 Fe135 1.976 . S
O145 C140 1.287 . S
O146 Fe132 1.996 . S
O146 C140 1.255 . S
C147 O151 1.295 . S
C147 O152 1.235 . S
O148 Fe133 1.976 . S
O148 C142 1.287 . S
O149 Fe135 1.996 . S
O149 C142 1.255 . S
C150 O143 1.287 . S
C150 O144 1.255 . S
O151 Fe133 2.002 . S
O151 C147 1.295 . S
O152 Fe135 1.997 . S
O152 C147 1.235 . S
C153 O136 1.295 . S
C153 O137 1.235 . S
Fe154 O156 1.918 . S
Fe154 O159 1.997 . S
Fe154 O160 2.002 . S
Fe154 O165 1.976 . S
Fe154 O168 1.996 . S
Fe155 O156 1.918 . S
Fe155 O163 1.997 . S
Fe155 O166 1.996 . S
Fe155 O170 1.976 . S
Fe155 O173 2.002 . S
O156 Fe154 1.918 . S
O156 Fe155 1.918 . S
O156 Fe157 1.918 . S
Fe157 O156 1.918 . S
Fe157 O158 2.002 . S
Fe157 O167 1.976 . S
Fe157 O171 1.996 . S
Fe157 O174 1.997 . S
O158 Fe157 2.002 . S
O158 C175 1.295 . S
O159 Fe154 1.997 . S
O159 C175 1.235 . S
O160 Fe154 2.002 . S
O160 C161 1.295 . S
C161 O160 1.295 . S
C161 O163 1.235 . S
C162 O167 1.287 . S
C162 O168 1.255 . S
O163 Fe155 1.997 . S
O163 C161 1.235 . S
C164 O170 1.287 . S
C164 O171 1.255 . S
O165 Fe154 1.976 . S
O165 C172 1.287 . S
O166 Fe155 1.996 . S
O166 C172 1.255 . S
O167 Fe157 1.976 . S
O167 C162 1.287 . S
O168 Fe154 1.996 . S
O168 C162 1.255 . S
C169 O173 1.295 . S
C169 O174 1.235 . S
O170 Fe155 1.976 . S
O170 C164 1.287 . S
O171 Fe157 1.996 . S
O171 C164 1.255 . S
C172 O165 1.287 . S
C172 O166 1.255 . S
O173 Fe155 2.002 . S
O173 C169 1.295 . S
O174 Fe157 1.997 . S
O174 C169 1.235 . S
C175 O158 1.295 . S
C175 O159 1.235 . S
C176 C177 1.369 . S
C176 C178 1.419 . S
C176 H180 0.930 . S
C177 C176 1.369 . S
C177 C186 1.429 . S
C178 C176 1.419 . S
C178 C179 1.363 . S
C178 H181 0.929 . S
C179 C178 1.363 . S
C179 C185 1.428 . S
H180 C176 0.930 . S
H181 C178 0.929 . S
S182 N183 1.613 . S
S182 N184 1.610 . S
N183 S182 1.613 . S
N183 C186 1.350 . S
N184 S182 1.610 . S
N184 C185 1.351 . S
C185 C179 1.428 . S
C185 N184 1.351 . S
C185 C186 1.434 . S
C186 C177 1.429 . S
C186 N183 1.350 . S
C186 C185 1.434 . S
C187 C188 1.369 . S
C187 C189 1.419 . S
C187 H191 0.930 . S
C188 C187 1.369 . S
C188 C197 1.429 . S
C189 C187 1.419 . S
C189 C190 1.363 . S
C189 H192 0.929 . S
C190 C189 1.363 . S
C190 C196 1.428 . S
H191 C187 0.930 . S
H192 C189 0.929 . S
S193 N194 1.613 . S
S193 N195 1.610 . S
N194 S193 1.613 . S
N194 C197 1.350 . S
N195 S193 1.610 . S
N195 C196 1.351 . S
C196 C190 1.428 . S
C196 N195 1.351 . S
C196 C197 1.434 . S
C197 C188 1.429 . S
C197 N194 1.350 . S
C197 C196 1.434 . S
C198 C199 1.369 . S
C198 C200 1.419 . S
C198 H202 0.930 . S
C199 C198 1.369 . S
C199 C208 1.429 . S
C200 C198 1.419 . S
C200 C201 1.363 . S
C200 H203 0.929 . S
C201 C200 1.363 . S
C201 C207 1.428 . S
H202 C198 0.930 . S
H203 C200 0.929 . S
S204 N205 1.613 . S
S204 N206 1.610 . S
N205 S204 1.613 . S
N205 C208 1.350 . S
N206 S204 1.610 . S
N206 C207 1.351 . S
C207 C201 1.428 . S
C207 N206 1.351 . S
C207 C208 1.434 . S
C208 C199 1.429 . S
C208 N205 1.350 . S
C208 C207 1.434 . S
C209 C210 1.369 . S
C209 C211 1.419 . S
C209 H213 0.930 . S
C210 C209 1.369 . S
C210 C219 1.429 . S
C211 C209 1.419 . S
C211 C212 1.363 . S
C211 H214 0.929 . S
C212 C211 1.363 . S
C212 C218 1.428 . S
H213 C209 0.930 . S
H214 C211 0.929 . S
S215 N216 1.613 . S
S215 N217 1.610 . S
N216 S215 1.613 . S
N216 C219 1.350 . S
N217 S215 1.610 . S
N217 C218 1.351 . S
C218 C212 1.428 . S
C218 N217 1.351 . S
C218 C219 1.434 . S
C219 C210 1.429 . S
C219 N216 1.350 . S
C219 C218 1.434 . S
C220 C221 1.369 . S
C220 C222 1.419 . S
C220 H224 0.930 . S
C221 C220 1.369 . S
C221 C230 1.429 . S
C222 C220 1.419 . S
C222 C223 1.363 . S
C222 H225 0.929 . S
C223 C222 1.363 . S
C223 C229 1.428 . S
H224 C220 0.930 . S
H225 C222 0.929 . S
S226 N227 1.613 . S
S226 N228 1.610 1_554 S
N227 S226 1.613 . S
N227 C230 1.350 1_554 S
N228 S226 1.610 1_556 S
N228 C229 1.351 . S
C229 C223 1.428 . S
C229 N228 1.351 . S
C229 C230 1.434 . S
C230 C221 1.429 . S
C230 N227 1.350 1_556 S
C230 C229 1.434 . S
C231 C232 1.369 . S
C231 C233 1.419 . S
C231 H235 0.930 . S
C232 C231 1.369 . S
C232 C241 1.429 . S
C233 C231 1.419 . S
C233 C234 1.363 . S
C233 H236 0.929 . S
C234 C233 1.363 . S
C234 C240 1.428 . S
H235 C231 0.930 . S
H236 C233 0.929 . S
S237 N238 1.613 . S
S237 N239 1.610 . S
N238 S237 1.613 . S
N238 C241 1.350 . S
N239 S237 1.610 . S
N239 C240 1.351 . S
C240 C234 1.428 . S
C240 N239 1.351 . S
C240 C241 1.434 . S
C241 C232 1.429 . S
C241 N238 1.350 . S
C241 C240 1.434 . S
C242 C243 1.369 . S
C242 C244 1.419 . S
C242 H246 0.930 . S
C243 C242 1.369 . S
C243 C252 1.429 . S
C244 C242 1.419 . S
C244 C245 1.363 . S
C244 H247 0.929 . S
C245 C244 1.363 . S
C245 C251 1.428 . S
H246 C242 0.930 . S
H247 C244 0.929 . S
S248 N249 1.613 . S
S248 N250 1.610 . S
N249 S248 1.613 . S
N249 C252 1.350 . S
N250 S248 1.610 . S
N250 C251 1.351 . S
C251 C245 1.428 . S
C251 N250 1.351 . S
C251 C252 1.434 . S
C252 C243 1.429 . S
C252 N249 1.350 . S
C252 C251 1.434 . S
C253 C254 1.369 . S
C253 C255 1.419 . S
C253 H257 0.930 . S
C254 C253 1.369 . S
C254 C263 1.429 . S
C255 C253 1.419 . S
C255 C256 1.363 . S
C255 H258 0.929 . S
C256 C255 1.363 . S
C256 C262 1.428 . S
H257 C253 0.930 . S
H258 C255 0.929 . S
S259 N260 1.613 . S
S259 N261 1.610 . S
N260 S259 1.613 . S
N260 C263 1.350 . S
N261 S259 1.610 . S
N261 C262 1.351 . S
C262 C256 1.428 . S
C262 N261 1.351 . S
C262 C263 1.434 . S
C263 C254 1.429 . S
C263 N260 1.350 . S
C263 C262 1.434 . S
C264 C265 1.369 . S
C264 C266 1.419 . S
C264 H268 0.930 . S
C265 C264 1.369 . S
C265 C274 1.429 . S
C266 C264 1.419 . S
C266 C267 1.363 . S
C266 H269 0.929 . S
C267 C266 1.363 . S
C267 C273 1.428 . S
H268 C264 0.930 . S
H269 C266 0.929 . S
S270 N271 1.613 . S
S270 N272 1.610 1_554 S
N271 S270 1.613 . S
N271 C274 1.350 1_554 S
N272 S270 1.610 1_556 S
N272 C273 1.351 . S
C273 C267 1.428 . S
C273 N272 1.351 . S
C273 C274 1.434 . S
C274 C265 1.429 . S
C274 N271 1.350 1_556 S
C274 C273 1.434 . S
C275 C276 1.369 . S
C275 C277 1.419 . S
C275 H279 0.930 . S
C276 C275 1.369 . S
C276 C285 1.429 . S
C277 C275 1.419 . S
C277 C278 1.363 . S
C277 H280 0.929 . S
C278 C277 1.363 . S
C278 C284 1.428 . S
H279 C275 0.930 . S
H280 C277 0.929 . S
S281 N282 1.613 . S
S281 N283 1.610 . S
N282 S281 1.613 . S
N282 C285 1.350 . S
N283 S281 1.610 . S
N283 C284 1.351 . S
C284 C278 1.428 . S
C284 N283 1.351 . S
C284 C285 1.434 . S
C285 C276 1.429 . S
C285 N282 1.350 . S
C285 C284 1.434 . S
C286 C287 1.369 . S
C286 C288 1.419 . S
C286 H290 0.930 1_556 S
C287 C286 1.369 . S
C287 C296 1.429 . S
C288 C286 1.419 . S
C288 C289 1.363 . S
C288 H291 0.929 . S
C289 C288 1.363 . S
C289 C295 1.428 . S
H290 C286 0.930 1_554 S
H291 C288 0.929 . S
S292 N293 1.613 . S
S292 N294 1.610 . S
N293 S292 1.613 . S
N293 C296 1.350 . S
N294 S292 1.610 . S
N294 C295 1.351 . S
C295 C289 1.428 . S
C295 N294 1.351 . S
C295 C296 1.434 . S
C296 C287 1.429 . S
C296 N293 1.350 . S
C296 C295 1.434 . S
C297 C298 1.369 . S
C297 C299 1.419 . S
C297 H301 0.930 . S
C298 C297 1.369 . S
C298 C307 1.429 . S
C299 C297 1.419 . S
C299 C300 1.363 . S
C299 H302 0.929 . S
C300 C299 1.363 . S
C300 C306 1.428 . S
H301 C297 0.930 . S
H302 C299 0.929 . S
S303 N304 1.613 . S
S303 N305 1.610 . S
N304 S303 1.613 . S
N304 C307 1.350 . S
N305 S303 1.610 . S
N305 C306 1.351 . S
C306 C300 1.428 . S
C306 N305 1.351 . S
C306 C307 1.434 . S
C307 C298 1.429 . S
C307 N304 1.350 . S
C307 C306 1.434 . S
C308 C309 1.369 . S
C308 C310 1.419 . S
C308 H312 0.930 . S
C309 C308 1.369 . S
C309 C318 1.429 . S
C310 C308 1.419 . S
C310 C311 1.363 1_565 S
C310 H313 0.930 . S
C311 C310 1.363 1_545 S
C311 C317 1.428 . S
H312 C308 0.930 . S
H313 C310 0.930 . S
S314 N315 1.613 1_545 S
S314 N316 1.610 1_554 S
N315 S314 1.613 1_565 S
N315 C318 1.350 1_554 S
N316 S314 1.610 1_556 S
N316 C317 1.351 . S
C317 C311 1.428 . S
C317 N316 1.351 . S
C317 C318 1.434 1_545 S
C318 C309 1.429 . S
C318 N315 1.350 1_556 S
C318 C317 1.434 1_565 S
C319 C320 1.369 . S
C319 C321 1.419 1_545 S
C319 H323 0.930 . S
C320 C319 1.369 . S
C320 C329 1.429 . S
C321 C319 1.419 1_565 S
C321 C322 1.363 . S
C321 H324 0.929 . S
C322 C321 1.363 . S
C322 C328 1.428 1_565 S
H323 C319 0.930 . S
H324 C321 0.929 . S
S325 N326 1.613 . S
S325 N327 1.610 . S
N326 S325 1.613 . S
N326 C329 1.350 . S
N327 S325 1.610 . S
N327 C328 1.351 . S
C328 C322 1.428 1_545 S
C328 N327 1.351 . S
C328 C329 1.434 . S
C329 C320 1.429 . S
C329 N326 1.350 . S
C329 C328 1.434 . S
C330 C331 1.369 . S
C330 C332 1.419 . S
C330 H334 0.930 . S
C331 C330 1.369 . S
C331 C340 1.429 1_565 S
C332 C330 1.419 . S
C332 C333 1.363 1_565 S
C332 H335 0.929 . S
C333 C332 1.363 1_545 S
C333 C339 1.428 . S
H334 C330 0.930 . S
H335 C332 0.929 . S
S336 N337 1.613 . S
S336 N338 1.610 . S
N337 S336 1.613 . S
N337 C340 1.350 . S
N338 S336 1.610 . S
N338 C339 1.351 . S
C339 C333 1.428 . S
C339 N338 1.351 . S
C339 C340 1.434 . S
C340 C331 1.429 1_545 S
C340 N337 1.350 . S
C340 C339 1.434 . S
C341 C342 1.369 . S
C341 C343 1.419 . S
C341 H345 0.930 . S
C342 C341 1.369 . S
C342 C351 1.429 . S
C343 C341 1.419 . S
C343 C344 1.363 1_545 S
C343 H346 0.929 . S
C344 C343 1.363 1_565 S
C344 C350 1.428 . S
H345 C341 0.930 . S
H346 C343 0.929 . S
S347 N348 1.613 . S
S347 N349 1.610 . S
N348 S347 1.613 . S
N348 C351 1.350 1_565 S
N349 S347 1.610 . S
N349 C350 1.351 . S
C350 C344 1.428 . S
C350 N349 1.351 . S
C350 C351 1.434 1_565 S
C351 C342 1.429 . S
C351 N348 1.350 1_545 S
C351 C350 1.434 1_545 S
C352 C353 1.369 . S
C352 C354 1.419 . S
C352 H356 0.930 . S
C353 C352 1.369 . S
C353 C362 1.429 . S
C354 C352 1.419 . S
C354 C355 1.363 . S
C354 H357 0.929 . S
C355 C354 1.363 . S
C355 C361 1.428 . S
H356 C352 0.930 . S
H357 C354 0.929 . S
S358 N359 1.613 . S
S358 N360 1.610 . S
N359 S358 1.613 . S
N359 C362 1.350 . S
N360 S358 1.610 . S
N360 C361 1.351 . S
C361 C355 1.428 . S
C361 N360 1.351 . S
C361 C362 1.434 . S
C362 C353 1.429 . S
C362 N359 1.350 . S
C362 C361 1.434 . S
C363 C364 1.369 . S
C363 C365 1.419 . S
C363 H367 0.930 . S
C364 C363 1.369 . S
C364 C373 1.429 . S
C365 C363 1.419 . S
C365 C366 1.363 . S
C365 H368 0.929 . S
C366 C365 1.363 . S
C366 C372 1.428 . S
H367 C363 0.930 . S
H368 C365 0.929 . S
S369 N370 1.613 . S
S369 N371 1.610 . S
N370 S369 1.613 . S
N370 C373 1.350 . S
N371 S369 1.610 . S
N371 C372 1.351 . S
C372 C366 1.428 . S
C372 N371 1.351 . S
C372 C373 1.434 . S
C373 C364 1.429 . S
C373 N370 1.350 . S
C373 C372 1.434 . S
C374 C375 1.369 . S
C374 C376 1.419 . S
C374 H378 0.930 . S
C375 C374 1.369 . S
C375 C384 1.429 . S
C376 C374 1.419 . S
C376 C377 1.363 . S
C376 H379 0.929 . S
C377 C376 1.363 . S
C377 C383 1.428 . S
H378 C374 0.930 . S
H379 C376 0.929 . S
S380 N381 1.613 . S
S380 N382 1.610 . S
N381 S380 1.613 . S
N381 C384 1.350 . S
N382 S380 1.610 . S
N382 C383 1.351 . S
C383 C377 1.428 . S
C383 N382 1.351 . S
C383 C384 1.434 . S
C384 C375 1.429 . S
C384 N381 1.350 . S
C384 C383 1.434 . S
C385 C386 1.369 . S
C385 C387 1.419 . S
C385 H389 0.930 . S
C386 C385 1.369 . S
C386 C395 1.429 . S
C387 C385 1.419 . S
C387 C388 1.363 . S
C387 H390 0.929 . S
C388 C387 1.363 . S
C388 C394 1.428 . S
H389 C385 0.930 . S
H390 C387 0.929 . S
S391 N392 1.613 . S
S391 N393 1.610 . S
N392 S391 1.613 . S
N392 C395 1.350 . S
N393 S391 1.610 . S
N393 C394 1.351 . S
C394 C388 1.428 . S
C394 N393 1.351 . S
C394 C395 1.434 . S
C395 C386 1.429 . S
C395 N392 1.350 . S
C395 C394 1.434 . S
C396 C397 1.369 . S
C396 C398 1.419 . S
C396 H400 0.930 . S
C397 C396 1.369 . S
C397 C406 1.429 . S
C398 C396 1.419 . S
C398 C399 1.363 . S
C398 H401 0.929 . S
C399 C398 1.363 . S
C399 C405 1.428 . S
H400 C396 0.930 . S
H401 C398 0.929 . S
S402 N403 1.600 1_545 S
S402 N404 1.595 1_545 S
N403 S402 1.600 1_565 S
N403 C406 1.350 . S
N404 S402 1.595 1_565 S
N404 C405 1.351 . S
C405 C399 1.428 . S
C405 N404 1.351 . S
C405 C406 1.434 . S
C406 C397 1.429 . S
C406 N403 1.350 . S
C406 C405 1.434 . S
C407 C408 1.369 . S
C407 C409 1.419 . S
C407 H411 0.930 . S
C408 C407 1.369 . S
C408 C417 1.429 . S
C409 C407 1.419 . S
C409 C410 1.363 . S
C409 H412 0.929 . S
C410 C409 1.363 . S
C410 C416 1.428 . S
H411 C407 0.930 . S
H412 C409 0.929 . S
S413 N414 1.613 . S
S413 N415 1.610 . S
N414 S413 1.613 . S
N414 C417 1.350 . S
N415 S413 1.610 . S
N415 C416 1.351 . S
C416 C410 1.428 . S
C416 N415 1.351 . S
C416 C417 1.434 . S
C417 C408 1.429 . S
C417 N414 1.350 . S
C417 C416 1.434 . S
C418 C419 1.369 . S
C418 C420 1.419 . S
C418 H422 0.930 . S
C419 C418 1.369 . S
C419 C428 1.429 . S
C420 C418 1.419 . S
C420 C421 1.363 . S
C420 H423 0.929 . S
C421 C420 1.363 . S
C421 C427 1.428 . S
H422 C418 0.930 . S
H423 C420 0.929 . S
S424 N425 1.613 . S
S424 N426 1.610 . S
N425 S424 1.613 . S
N425 C428 1.350 . S
N426 S424 1.610 . S
N426 C427 1.351 . S
C427 C421 1.428 . S
C427 N426 1.351 . S
C427 C428 1.434 . S
C428 C419 1.429 . S
C428 N425 1.350 . S
C428 C427 1.434 . S
C429 C430 1.369 . S
C429 C431 1.419 . S
C429 H433 0.930 . S
C430 C429 1.369 . S
C430 C439 1.429 . S
C431 C429 1.419 . S
C431 C432 1.363 . S
C431 H434 0.929 . S
C432 C431 1.363 . S
C432 C438 1.428 . S
H433 C429 0.930 . S
H434 C431 0.929 . S
S435 N436 1.613 . S
S435 N437 1.610 . S
N436 S435 1.613 . S
N436 C439 1.350 . S
N437 S435 1.610 . S
N437 C438 1.351 . S
C438 C432 1.428 . S
C438 N437 1.351 . S
C438 C439 1.434 . S
C439 C430 1.429 . S
C439 N436 1.350 . S
C439 C438 1.434 . S
C177 C10 1.539 . S
C179 C131 1.529 . S
C190 C95 1.530 . S
C188 C21 1.539 . S
C201 C118 1.593 . S
C199 C32 1.584 . S
C212 C106 1.492 . S
C210 C43 1.489 . S
C223 C175 1.528 . S
C221 C54 1.541 . S
C234 C139 1.528 . S
C232 C65 1.543 . S
C243 C76 1.586 . S
C245 C162 1.592 . S
C256 C150 1.493 . S
C254 C87 1.489 . S
C265 C5 1.506 . S
C267 C172 1.543 . S
C278 C142 1.521 . S
C276 C16 1.483 . S
C287 C27 1.572 . S
C289 C161 1.601 . S
C298 C37 1.459 . S
C300 C147 1.478 . S
C311 C128 1.543 . S
C309 C49 1.504 . S
C320 C60 1.481 . S
C322 C98 1.521 . S
C333 C117 1.601 . S
C331 C71 1.570 . S
C344 C103 1.478 . S
C342 C81 1.464 . S
C355 C153 1.524 . S
C353 C4 1.514 . S
C366 C169 1.521 . S
C364 C15 1.509 . S
C375 C26 1.502 . S
C377 C140 1.509 . S
C388 C164 1.508 . S
C386 C38 1.472 . S
C399 C109 1.524 . S
C397 C48 1.515 . S
C408 C59 1.506 . S
C410 C125 1.520 . S
C419 C70 1.498 . S
C421 C96 1.508 . S
C430 C82 1.468 . S
C432 C120 1.507 . S
