# Generated by pormake.
# Topology sqc, (4,8)-cn, num edge types: 1
# Building blocks:
#     Node 0, Type 0, BuildingBlock: AZAVOO_clean_linker_0, # of connection points: 4
#     Node 1, Type 0, BuildingBlock: AZAVOO_clean_linker_0, # of connection points: 4
#     Node 2, Type 0, BuildingBlock: AZAVOO_clean_linker_0, # of connection points: 4
#     Node 3, Type 0, BuildingBlock: AZAVOO_clean_linker_0, # of connection points: 4
#     Node 4, Type 0, BuildingBlock: AZAVOO_clean_linker_0, # of connection points: 4
#     Node 5, Type 0, BuildingBlock: AZAVOO_clean_linker_0, # of connection points: 4
#     Node 6, Type 0, BuildingBlock: AZAVOO_clean_linker_0, # of connection points: 4
#     Node 7, Type 0, BuildingBlock: AZAVOO_clean_linker_0, # of connection points: 4
#     Node 8, Type 1, BuildingBlock: VETTIZ_charged_sbu_0, # of connection points: 8
#     Node 9, Type 1, BuildingBlock: VETTIZ_charged_sbu_0, # of connection points: 8
#     Node 10, Type 1, BuildingBlock: VETTIZ_charged_sbu_0, # of connection points: 8
#     Node 11, Type 1, BuildingBlock: VETTIZ_charged_sbu_0, # of connection points: 8
#     Edge 12, Type (0, 1), BuildingBlock: KIFKEQ_clean_linker_1, # of connection points: 2
#     Edge 13, Type (0, 1), BuildingBlock: KIFKEQ_clean_linker_1, # of connection points: 2
#     Edge 14, Type (0, 1), BuildingBlock: KIFKEQ_clean_linker_1, # of connection points: 2
#     Edge 15, Type (0, 1), BuildingBlock: KIFKEQ_clean_linker_1, # of connection points: 2
#     Edge 16, Type (0, 1), BuildingBlock: KIFKEQ_clean_linker_1, # of connection points: 2
#     Edge 17, Type (0, 1), BuildingBlock: KIFKEQ_clean_linker_1, # of connection points: 2
#     Edge 18, Type (0, 1), BuildingBlock: KIFKEQ_clean_linker_1, # of connection points: 2
#     Edge 19, Type (0, 1), BuildingBlock: KIFKEQ_clean_linker_1, # of connection points: 2
#     Edge 20, Type (0, 1), BuildingBlock: KIFKEQ_clean_linker_1, # of connection points: 2
#     Edge 21, Type (0, 1), BuildingBlock: KIFKEQ_clean_linker_1, # of connection points: 2
#     Edge 22, Type (0, 1), BuildingBlock: KIFKEQ_clean_linker_1, # of connection points: 2
#     Edge 23, Type (0, 1), BuildingBlock: KIFKEQ_clean_linker_1, # of connection points: 2
#     Edge 24, Type (0, 1), BuildingBlock: KIFKEQ_clean_linker_1, # of connection points: 2
#     Edge 25, Type (0, 1), BuildingBlock: KIFKEQ_clean_linker_1, # of connection points: 2
#     Edge 26, Type (0, 1), BuildingBlock: KIFKEQ_clean_linker_1, # of connection points: 2
#     Edge 27, Type (0, 1), BuildingBlock: KIFKEQ_clean_linker_1, # of connection points: 2
#     Edge 28, Type (0, 1), BuildingBlock: KIFKEQ_clean_linker_1, # of connection points: 2
#     Edge 29, Type (0, 1), BuildingBlock: KIFKEQ_clean_linker_1, # of connection points: 2
#     Edge 30, Type (0, 1), BuildingBlock: KIFKEQ_clean_linker_1, # of connection points: 2
#     Edge 31, Type (0, 1), BuildingBlock: KIFKEQ_clean_linker_1, # of connection points: 2
#     Edge 32, Type (0, 1), BuildingBlock: KIFKEQ_clean_linker_1, # of connection points: 2
#     Edge 33, Type (0, 1), BuildingBlock: KIFKEQ_clean_linker_1, # of connection points: 2
#     Edge 34, Type (0, 1), BuildingBlock: KIFKEQ_clean_linker_1, # of connection points: 2
#     Edge 35, Type (0, 1), BuildingBlock: KIFKEQ_clean_linker_1, # of connection points: 2
#     Edge 36, Type (0, 1), BuildingBlock: KIFKEQ_clean_linker_1, # of connection points: 2
#     Edge 37, Type (0, 1), BuildingBlock: KIFKEQ_clean_linker_1, # of connection points: 2
#     Edge 38, Type (0, 1), BuildingBlock: KIFKEQ_clean_linker_1, # of connection points: 2
#     Edge 39, Type (0, 1), BuildingBlock: KIFKEQ_clean_linker_1, # of connection points: 2
#     Edge 40, Type (0, 1), BuildingBlock: KIFKEQ_clean_linker_1, # of connection points: 2
#     Edge 41, Type (0, 1), BuildingBlock: KIFKEQ_clean_linker_1, # of connection points: 2
#     Edge 42, Type (0, 1), BuildingBlock: KIFKEQ_clean_linker_1, # of connection points: 2
#     Edge 43, Type (0, 1), BuildingBlock: KIFKEQ_clean_linker_1, # of connection points: 2
# Relax obj value: 0.166
# Max RMSD: 0.285
# Mean RMSD: 0.234
data_MOF--net-sqc--node1-VETTIZ_charged_sbu_0--node2-AZAVOO_clean_linker_0--edge1-KIFKEQ_clean_linker_1
_symmetry_space_group_name_H-M    P1
_symmetry_Int_Tables_number       1
_symmetry_cell_setting            triclinic
loop_
_symmetry_equiv_pos_as_xyz
'x, y, z'
_cell_length_a     26.938239
_cell_length_b     26.805602
_cell_length_c     90.761214
_cell_angle_alpha  90.531269
_cell_angle_beta   90.07259
_cell_angle_gamma 91.183496
loop_
_atom_site_label
_atom_site_type_symbol
_atom_site_fract_x
_atom_site_fract_y
_atom_site_fract_z
_atom_type_partial_charge
H0 H 0.10017 0.13416 0.63561 0.0
H1 H 0.70634 0.89371 0.5208 0.0
H2 H 0.11685 0.06581 0.55071 0.0
H3 H 0.18582 0.09919 0.56562 0.0
H4 H 0.18412 0.9638 0.59113 0.0
H5 H 0.11623 0.93041 0.5759 0.0
H6 H 0.04638 0.08882 0.57447 0.0
H7 H 0.07027 0.12222 0.59869 0.0
H8 H 0.04353 0.97676 0.61769 0.0
H9 H 0.02048 0.94366 0.59331 0.0
H10 H 0.93362 0.07309 0.57097 0.0
H11 H 0.87211 0.08931 0.59015 0.0
H12 H 0.85821 0.93104 0.59833 0.0
H13 H 0.91994 0.91524 0.57904 0.0
H14 H 0.90673 0.03774 0.53413 0.0
H15 H 0.82396 0.02689 0.52326 0.0
H16 H 0.81455 0.87731 0.54064 0.0
H17 H 0.89763 0.88856 0.5513 0.0
H18 H 0.99552 0.02143 0.51463 0.0
H19 H 0.94137 0.00842 0.49327 0.0
H20 H 0.91174 0.85682 0.50717 0.0
H21 H 0.96788 0.86966 0.52794 0.0
H22 H 0.09247 0.02632 0.52191 0.0
H23 H 0.16567 0.00835 0.50694 0.0
H24 H 0.17278 0.86214 0.52647 0.0
H25 H 0.10022 0.88112 0.5416 0.0
O26 O 0.0898 0.12034 0.6262 0.0
O27 O 0.07353 0.0454 0.63557 0.0
O28 O 0.7454 0.97655 0.51658 0.0
O29 O 0.7384 0.89959 0.5254 0.0
C30 C 0.06005 0.9843 0.55723 0.0
C31 C 0.02091 0.99313 0.56724 0.0
C32 C 0.97133 0.984 0.56296 0.0
C33 C 0.96046 0.96868 0.54843 0.0
C34 C 0.99943 0.96031 0.53825 0.0
C35 C 0.04946 0.9672 0.54275 0.0
C36 C 0.11161 0.99566 0.5622 0.0
C37 C 0.13301 0.04246 0.55905 0.0
C38 C 0.17169 0.06187 0.5678 0.0
C39 C 0.18962 0.03468 0.57982 0.0
C40 C 0.1713 0.98576 0.58198 0.0
C41 C 0.13273 0.96637 0.5732 0.0
C42 C 0.03199 0.01382 0.58217 0.0
C43 C 0.04562 0.06429 0.5839 0.0
C44 C 0.05925 0.08327 0.59773 0.0
C45 C 0.059 0.05213 0.61012 0.0
C46 C 0.04424 1.00173 0.60837 0.0
C47 C 0.03086 0.98274 0.59449 0.0
C48 C 0.93086 0.99306 0.57361 0.0
C49 C 0.91692 0.04197 0.57683 0.0
C50 C 0.88224 0.05112 0.58787 0.0
C51 C 0.86079 0.01143 0.59585 0.0
C52 C 0.874 0.96228 0.59233 0.0
C53 C 0.90902 0.9532 0.58132 0.0
C54 C 0.90797 0.96398 0.54351 0.0
C55 C 0.88639 1.00294 0.53574 0.0
C56 C 0.83924 0.99654 0.52949 0.0
C57 C 0.81272 0.95111 0.53102 0.0
C58 C 0.83397 0.91271 0.53923 0.0
C59 C 0.88123 0.91912 0.54543 0.0
C60 C 0.98575 0.94649 0.52286 0.0
C61 C 0.97958 0.98458 0.51257 0.0
C62 C 0.94751 0.97738 0.50055 0.0
C63 C 0.92076 0.93203 0.49868 0.0
C64 C 0.93155 0.89225 0.50813 0.0
C65 C 0.9641 0.89933 0.52002 0.0
C66 C 0.09085 0.95485 0.53271 0.0
C67 C 0.10954 0.99023 0.52279 0.0
C68 C 0.15134 0.9798 0.51424 0.0
C69 C 0.17527 0.93374 0.51549 0.0
C70 C 0.1558 0.89818 0.52535 0.0
C71 C 0.11406 0.90872 0.5339 0.0
C72 C 0.07444 0.07223 0.62475 0.0
C73 C 0.76348 0.94342 0.52391 0.0
H74 H 0.31437 0.63657 0.68914 0.0
H75 H 0.29588 0.06482 0.80644 0.0
H76 H 0.16436 0.65687 0.7544 0.0
H77 H 0.17751 0.5769 0.74192 0.0
H78 H 0.28996 0.54206 0.77392 0.0
H79 H 0.27759 0.62282 0.78614 0.0
H80 H 0.21427 0.74331 0.73676 0.0
H81 H 0.24629 0.70554 0.7141 0.0
H82 H 0.36126 0.63508 0.73933 0.0
H83 H 0.32942 0.67376 0.76182 0.0
H84 H 0.21876 0.85882 0.75087 0.0
H85 H 0.26686 0.91451 0.73499 0.0
H86 H 0.39941 0.8324 0.74485 0.0
H87 H 0.3516 0.77993 0.76167 0.0
H88 H 0.16257 0.87457 0.77795 0.0
H89 H 0.16898 0.96247 0.78539 0.0
H90 H 0.32209 0.942 0.79794 0.0
H91 H 0.31492 0.854 0.79062 0.0
H92 H 0.11313 0.79568 0.79536 0.0
H93 H 0.08391 0.86366 0.81099 0.0
H94 H 0.22809 0.87441 0.83184 0.0
H95 H 0.25714 0.80721 0.81589 0.0
H96 H 0.13244 0.64842 0.78908 0.0
H97 H 0.12537 0.57828 0.80591 0.0
H98 H 0.24367 0.64325 0.8326 0.0
H99 H 0.25313 0.71068 0.81501 0.0
O100 O 0.30281 0.65181 0.69817 0.0
O101 O 0.36036 0.61546 0.71173 0.0
O102 O 0.21386 0.03907 0.79642 0.0
O103 O 0.29271 0.03051 0.80305 0.0
C104 C 0.22454 0.69997 0.77504 0.0
C105 C 0.24822 0.73191 0.76477 0.0
C106 C 0.2532 0.78336 0.76775 0.0
C107 C 0.23278 0.8036 0.78072 0.0
C108 C 0.20962 0.77199 0.79123 0.0
C109 C 0.20718 0.71959 0.78867 0.0
C110 C 0.22018 0.64589 0.77115 0.0
C111 C 0.19047 0.63116 0.75907 0.0
C112 C 0.19837 0.58575 0.75185 0.0
C113 C 0.23525 0.55367 0.75682 0.0
C114 C 0.26121 0.56605 0.76987 0.0
C115 C 0.25392 0.612 0.77694 0.0
C116 C 0.26928 0.71094 0.75092 0.0
C117 C 0.24659 0.72002 0.73733 0.0
C118 C 0.26487 0.69825 0.72443 0.0
C119 C 0.30619 0.66706 0.72492 0.0
C120 C 0.32929 0.65874 0.73856 0.0
C121 C 0.31112 0.6807 0.75142 0.0
C122 C 0.28179 0.81571 0.75751 0.0
C123 C 0.25827 0.85324 0.74966 0.0
C124 C 0.28577 0.88447 0.74038 0.0
C125 C 0.33719 0.87803 0.73858 0.0
C126 C 0.36017 0.83915 0.74615 0.0
C127 C 0.33284 0.80877 0.75567 0.0
C128 C 0.23821 0.858 0.78381 0.0
C129 C 0.19753 0.88928 0.78221 0.0
C130 C 0.20129 0.93942 0.78649 0.0
C131 C 0.246 0.9592 0.79234 0.0
C132 C 0.28709 0.92795 0.79353 0.0
C133 C 0.28322 0.87777 0.78929 0.0
C134 C 0.18724 0.79598 0.80449 0.0
C135 C 0.13768 0.81101 0.8038 0.0
C136 C 0.12122 0.85053 0.81265 0.0
C137 C 0.154 0.87569 0.82245 0.0
C138 C 0.20216 0.85702 0.82414 0.0
C139 C 0.21854 0.81759 0.81529 0.0
C140 C 0.19353 0.6847 0.80071 0.0
C141 C 0.15635 0.6478 0.79868 0.0
C142 C 0.15231 0.60767 0.80839 0.0
C143 C 0.18468 0.60419 0.82055 0.0
C144 C 0.21916 0.64351 0.82314 0.0
C145 C 0.22385 0.68296 0.81326 0.0
C146 C 0.32492 0.64318 0.71125 0.0
C147 C 0.24971 0.01202 0.79734 0.0
H148 H 0.44346 0.931 0.13092 0.0
H149 H 0.8532 0.16176 0.01987 0.0
H150 H 0.44375 0.99899 0.04989 0.0
H151 H 0.37127 0.96862 0.06377 0.0
H152 H 0.35785 0.11356 0.0842 0.0
H153 H 0.43163 0.14333 0.07067 0.0
H154 H 0.5121 0.97647 0.07137 0.0
H155 H 0.48369 0.9428 0.09493 0.0
H156 H 0.49664 0.09028 0.11447 0.0
H157 H 0.52468 0.12349 0.09076 0.0
H158 H 0.60994 0.98652 0.06787 0.0
H159 H 0.67799 0.96168 0.084 0.0
H160 H 0.71645 0.11671 0.09205 0.0
H161 H 0.64676 0.14144 0.0764 0.0
H162 H 0.64586 0.02808 0.03213 0.0
H163 H 0.72918 0.03456 0.0215 0.0
H164 H 0.74649 0.18322 0.03996 0.0
H165 H 0.663 0.17627 0.05046 0.0
H166 H 0.5658 0.06335 0.01081 0.0
H167 H 0.62245 0.08553 0.99093 0.0
H168 H 0.65101 0.22887 0.01195 0.0
H169 H 0.59102 0.20759 0.03097 0.0
H170 H 0.47478 0.05327 0.01711 0.0
H171 H 0.40383 0.07123 1.0013 0.0
H172 H 0.37812 0.20601 0.02644 0.0
H173 H 0.44914 0.1874 0.04226 0.0
O174 O 0.45591 0.94492 0.12181 0.0
O175 O 0.46524 0.021 0.13153 0.0
O176 O 0.81053 0.08055 0.0154 0.0
O177 O 0.82095 0.15747 0.02442 0.0
C178 C 0.49518 0.08557 0.05484 0.0
C179 C 0.53336 0.07332 0.0648 0.0
C180 C 0.58352 0.08046 0.06085 0.0
C181 C 0.59585 0.09953 0.04689 0.0
C182 C 0.55806 0.11337 0.03695 0.0
C183 C 0.50749 0.10621 0.04094 0.0
C184 C 0.44283 0.07357 0.05913 0.0
C185 C 0.42408 0.0248 0.05691 0.0
C186 C 0.38311 0.00731 0.06499 0.0
C187 C 0.35933 0.03867 0.07513 0.0
C188 C 0.37546 0.08872 0.07641 0.0
C189 C 0.41722 0.10591 0.06857 0.0
C190 C 0.5204 0.05235 0.07941 0.0
C191 C 0.50915 1.00133 0.0808 0.0
C192 C 0.49281 0.98223 0.09425 0.0
C193 C 0.48771 0.01387 0.10658 0.0
C194 C 0.50009 0.0649 0.10519 0.0
C195 C 0.5163 0.08395 0.0917 0.0
C196 C 0.62343 0.06572 0.07104 0.0
C197 C 0.63247 0.01509 0.07333 0.0
C198 C 0.67126 1.00101 0.08248 0.0
C199 C 0.70215 0.03741 0.08921 0.0
C200 C 0.69309 0.08811 0.08691 0.0
C201 C 0.65354 0.10218 0.07801 0.0
C202 C 0.64859 0.10161 0.04209 0.0
C203 C 0.66807 0.06168 0.03405 0.0
C204 C 0.71553 0.0656 0.02793 0.0
C205 C 0.74441 0.10954 0.02982 0.0
C206 C 0.72523 0.14891 0.03828 0.0
C207 C 0.67772 0.14493 0.04438 0.0
C208 C 0.57384 0.1338 0.02239 0.0
C209 C 0.58194 0.10067 0.01063 0.0
C210 C 0.61586 0.11302 0.99947 0.0
C211 C 0.64351 0.15835 1.0 0.0
C212 C 0.63103 0.19356 0.01097 0.0
C213 C 0.59612 0.18161 0.0219 0.0
C214 C 0.46736 0.11938 0.03067 0.0
C215 C 0.45435 0.0871 0.01902 0.0
C216 C 0.4138 0.09743 0.01002 0.0
C217 C 0.38536 0.14009 0.01262 0.0
C218 C 0.39897 0.17263 0.02425 0.0
C219 C 0.43967 0.16231 0.03321 0.0
C220 C 0.46905 0.99367 0.12075 0.0
C221 C 0.79395 0.11474 0.02279 0.0
H222 H 0.18789 0.16563 0.20469 0.0
H223 H 0.3411 0.61854 0.31679 0.0
H224 H 0.26059 0.17229 0.28704 0.0
H225 H 0.25101 0.0976 0.27145 0.0
H226 H 0.38091 0.14279 0.2467 0.0
H227 H 0.39014 0.21724 0.26234 0.0
H228 H 0.21524 0.23807 0.26516 0.0
H229 H 0.18956 0.2037 0.24121 0.0
H230 H 0.32176 0.26815 0.22144 0.0
H231 H 0.34725 0.30182 0.24553 0.0
H232 H 0.20027 0.35822 0.27173 0.0
H233 H 0.16666 0.42416 0.25627 0.0
H234 H 0.31577 0.46674 0.24319 0.0
H235 H 0.34883 0.40122 0.25882 0.0
H236 H 0.23596 0.3939 0.30523 0.0
H237 H 0.23159 0.47843 0.31556 0.0
H238 H 0.37622 0.51353 0.2973 0.0
H239 H 0.38009 0.42884 0.28709 0.0
H240 H 0.2815 0.3259 0.32614 0.0
H241 H 0.29936 0.38765 0.34546 0.0
H242 H 0.4414 0.4204 0.32517 0.0
H243 H 0.42415 0.35662 0.30655 0.0
H244 H 0.29088 0.23252 0.32045 0.0
H245 H 0.31295 0.1607 0.33529 0.0
H246 H 0.44268 0.13921 0.30813 0.0
H247 H 0.42134 0.21255 0.29379 0.0
O248 O 0.19784 0.18108 0.21394 0.0
O249 O 0.26472 0.21752 0.20409 0.0
O250 O 0.26649 0.56585 0.32137 0.0
O251 O 0.34108 0.58552 0.3124 0.0
C252 C 0.32159 0.25237 0.28144 0.0
C253 C 0.30117 0.28801 0.27188 0.0
C254 C 0.29731 0.33796 0.27646 0.0
C255 C 0.31315 0.35261 0.29065 0.0
C256 C 0.33309 0.31726 0.30043 0.0
C257 C 0.33699 0.26669 0.29587 0.0
C258 C 0.326 0.20026 0.27582 0.0
C259 C 0.28826 0.16486 0.2787 0.0
C260 C 0.28269 0.12235 0.26969 0.0
C261 C 0.3147 0.11477 0.25766 0.0
C262 C 0.3552 0.14799 0.25572 0.0
C263 C 0.36092 0.19019 0.26478 0.0
C264 C 0.28304 0.27238 0.25704 0.0
C265 C 0.23829 0.24515 0.2556 0.0
C266 C 0.22382 0.22541 0.24192 0.0
C267 C 0.25374 0.23294 0.22942 0.0
C268 C 0.2979 0.26159 0.23085 0.0
C269 C 0.31241 0.28114 0.24456 0.0
C270 C 0.27685 0.37535 0.26638 0.0
C271 C 0.22546 0.38162 0.2654 0.0
C272 C 0.20643 0.41905 0.25654 0.0
C273 C 0.23863 0.45075 0.24857 0.0
C274 C 0.2901 0.44336 0.24935 0.0
C275 C 0.30904 0.40593 0.25819 0.0
C276 C 0.30835 0.40541 0.29546 0.0
C277 C 0.26632 0.42017 0.30332 0.0
C278 C 0.26406 0.46835 0.30926 0.0
C279 C 0.30374 0.50265 0.30733 0.0
C280 C 0.34513 0.48804 0.29903 0.0
C281 C 0.34734 0.43982 0.29312 0.0
C282 C 0.35169 0.33613 0.31496 0.0
C283 C 0.31769 0.34427 0.3264 0.0
C284 C 0.32747 0.38087 0.33721 0.0
C285 C 0.37126 0.41059 0.33673 0.0
C286 C 0.40733 0.39857 0.32609 0.0
C287 C 0.39779 0.36144 0.31544 0.0
C288 C 0.35467 0.22807 0.30611 0.0
C289 C 0.32479 0.21314 0.31797 0.0
C290 C 0.33704 0.17148 0.32628 0.0
C291 C 0.37927 0.14358 0.3228 0.0
C292 C 0.41013 0.15987 0.31122 0.0
C293 C 0.39797 0.20177 0.30298 0.0
C294 C 0.23921 0.21026 0.21503 0.0
C295 C 0.30241 0.5532 0.31411 0.0
H296 H 0.84938 0.19608 0.19629 0.0
H297 H 0.78237 0.60071 0.32075 0.0
H298 H 0.69808 0.1953 0.26319 0.0
H299 H 0.71202 0.11968 0.24871 0.0
H300 H 0.83675 0.08572 0.27659 0.0
H301 H 0.82288 0.1621 0.29092 0.0
H302 H 0.74354 0.28526 0.24592 0.0
H303 H 0.77714 0.25435 0.22258 0.0
H304 H 0.90249 0.19486 0.24594 0.0
H305 H 0.86888 0.22668 0.26914 0.0
H306 H 0.7312 0.39045 0.26041 0.0
H307 H 0.7665 0.45819 0.24557 0.0
H308 H 0.91423 0.41199 0.25714 0.0
H309 H 0.87834 0.34518 0.27227 0.0
H310 H 0.68097 0.39964 0.28777 0.0
H311 H 0.67447 0.48641 0.29606 0.0
H312 H 0.82631 0.48403 0.31154 0.0
H313 H 0.83228 0.39727 0.30313 0.0
H314 H 0.64346 0.31586 0.30573 0.0
H315 H 0.61083 0.37843 0.32275 0.0
H316 H 0.75561 0.39423 0.34301 0.0
H317 H 0.78758 0.33167 0.32606 0.0
H318 H 0.66994 0.17762 0.29513 0.0
H319 H 0.65409 0.10848 0.31215 0.0
H320 H 0.76904 0.16675 0.34107 0.0
H321 H 0.78618 0.23447 0.32377 0.0
O322 O 0.83735 0.20903 0.20558 0.0
O323 O 0.90032 0.17808 0.21818 0.0
O324 O 0.70668 0.56631 0.30869 0.0
O325 O 0.78443 0.56692 0.31697 0.0
C326 C 0.76148 0.23681 0.28309 0.0
C327 C 0.78148 0.27348 0.27345 0.0
C328 C 0.78058 0.32436 0.27739 0.0
C329 C 0.75945 0.33854 0.29093 0.0
C330 C 0.74125 0.30185 0.30085 0.0
C331 C 0.74316 0.25055 0.29714 0.0
C332 C 0.75986 0.18427 0.27796 0.0
C333 C 0.7271 0.17039 0.26654 0.0
C334 C 0.73508 0.12716 0.25829 0.0
C335 C 0.77599 0.09738 0.26137 0.0
C336 C 0.80535 0.10852 0.27387 0.0
C337 C 0.79729 0.15179 0.28214 0.0
C338 C 0.80375 0.25811 0.25919 0.0
C339 C 0.77855 0.26609 0.24593 0.0
C340 C 0.79771 0.24816 0.23264 0.0
C341 C 0.84239 0.22189 0.2324 0.0
C342 C 0.86796 0.21481 0.24572 0.0
C343 C 0.84888 0.23297 0.25898 0.0
C344 C 0.80219 0.36303 0.26746 0.0
C345 C 0.77118 0.3949 0.25967 0.0
C346 C 0.79148 0.43338 0.25112 0.0
C347 C 0.84329 0.44074 0.25017 0.0
C348 C 0.87421 0.40792 0.25778 0.0
C349 C 0.85383 0.36946 0.26633 0.0
C350 C 0.757 0.39229 0.29492 0.0
C351 C 0.71287 0.41812 0.29285 0.0
C352 C 0.70925 0.46759 0.29763 0.0
C353 C 0.74977 0.49204 0.30458 0.0
C354 C 0.79434 0.46626 0.3063 0.0
C355 C 0.79795 0.41682 0.30146 0.0
C356 C 0.71787 0.31931 0.31466 0.0
C357 C 0.66732 0.33074 0.3144 0.0
C358 C 0.649 0.36718 0.32394 0.0
C359 C 0.68099 0.39209 0.33395 0.0
C360 C 0.72999 0.37572 0.33544 0.0
C361 C 0.74829 0.3395 0.32585 0.0
C362 C 0.72932 0.21143 0.30813 0.0
C363 C 0.69179 0.17551 0.30512 0.0
C364 C 0.68283 0.13593 0.31483 0.0
C365 C 0.71048 0.13204 0.32792 0.0
C366 C 0.74692 0.16888 0.33113 0.0
C367 C 0.75651 0.20783 0.32128 0.0
C368 C 0.86195 0.20166 0.21833 0.0
C369 C 0.74549 0.54399 0.31016 0.0
H370 H 0.76255 0.9213 0.69124 0.0
H371 H 0.82423 0.4763 0.8026 0.0
H372 H 0.91506 0.89677 0.75662 0.0
H373 H 0.89917 0.97625 0.74458 0.0
H374 H 0.7775 1.00148 0.77441 0.0
H375 H 0.79242 0.92079 0.7861 0.0
H376 H 0.87422 0.8197 0.73701 0.0
H377 H 0.8387 0.85787 0.71509 0.0
H378 H 0.70856 0.8967 0.74022 0.0
H379 H 0.74432 0.85793 0.762 0.0
H380 H 0.87799 0.72066 0.74302 0.0
H381 H 0.83803 0.66751 0.72413 0.0
H382 H 0.69836 0.67866 0.74732 0.0
H383 H 0.73834 0.73316 0.76569 0.0
H384 H 0.92685 0.68062 0.77291 0.0
H385 H 0.93113 0.5917 0.77864 0.0
H386 H 0.78378 0.59658 0.79741 0.0
H387 H 0.78015 0.68548 0.79163 0.0
H388 H 0.96461 0.746 0.79659 0.0
H389 H 0.98659 0.67722 0.81279 0.0
H390 H 0.83979 0.67939 0.83176 0.0
H391 H 0.818 0.74734 0.81542 0.0
H392 H 0.94397 0.90053 0.79077 0.0
H393 H 0.95006 0.97001 0.80822 0.0
H394 H 0.82874 0.90519 0.8333 0.0
H395 H 0.82027 0.8386 0.81503 0.0
O396 O 0.77547 0.9055 0.69995 0.0
O397 O 0.70946 0.9247 0.71339 0.0
O398 O 0.89822 0.51025 0.78978 0.0
O399 O 0.82287 0.51096 0.79975 0.0
C400 C 0.85378 0.84839 0.77558 0.0
C401 C 0.83456 0.81561 0.76459 0.0
C402 C 0.83423 0.76385 0.76678 0.0
C403 C 0.85312 0.7442 0.77989 0.0
C404 C 0.87073 0.77647 0.79129 0.0
C405 C 0.87017 0.82907 0.78928 0.0
C406 C 0.85489 0.90281 0.77225 0.0
C407 C 0.88612 0.92024 0.76093 0.0
C408 C 0.8767 0.96536 0.75396 0.0
C409 C 0.83677 0.99461 0.75846 0.0
C410 C 0.8086 0.9796 0.77076 0.0
C411 C 0.81736 0.93379 0.77754 0.0
C412 C 0.81175 0.83599 0.75105 0.0
C413 C 0.83779 0.83593 0.73769 0.0
C414 C 0.81752 0.858 0.72522 0.0
C415 C 0.77084 0.88048 0.72591 0.0
C416 C 0.74459 0.87978 0.73931 0.0
C417 C 0.76486 0.8576 0.75175 0.0
C418 C 0.8109 0.73036 0.75566 0.0
C419 C 0.83874 0.71157 0.74391 0.0
C420 C 0.81587 0.68126 0.73319 0.0
C421 C 0.76491 0.66907 0.73416 0.0
C422 C 0.73736 0.68816 0.74603 0.0
C423 C 0.76017 0.71872 0.75665 0.0
C424 C 0.85328 0.6893 0.7819 0.0
C425 C 0.89534 0.66218 0.77808 0.0
C426 C 0.89773 0.61151 0.78143 0.0
C427 C 0.85789 0.5871 0.78858 0.0
C428 C 0.81517 0.61423 0.79196 0.0
C429 C 0.81287 0.66491 0.78861 0.0
C430 C 0.8899 0.75271 0.80493 0.0
C431 C 0.93804 0.73344 0.80478 0.0
C432 C 0.95019 0.69329 0.81382 0.0
C433 C 0.91468 0.67212 0.8234 0.0
C434 C 0.86816 0.69482 0.82458 0.0
C435 C 0.85585 0.73448 0.8154 0.0
C436 C 0.88177 0.86422 0.8016 0.0
C437 C 0.91918 0.90105 0.80016 0.0
C438 C 0.92266 0.94079 0.81023 0.0
C439 C 0.88937 0.94402 0.82216 0.0
C440 C 0.85414 0.90505 0.82407 0.0
C441 C 0.85001 0.86601 0.81381 0.0
C442 C 0.74989 0.90488 0.71274 0.0
C443 C 0.86102 0.53379 0.79268 0.0
H444 H 0.40837 0.37482 0.95988 0.0
H445 H 0.85758 0.47357 0.06786 0.0
H446 H 0.42674 0.53982 0.03046 0.0
H447 H 0.35521 0.52246 0.0145 0.0
H448 H 0.34891 0.37066 0.02995 0.0
H449 H 0.41997 0.38864 0.04611 0.0
H450 H 0.4908 0.49616 0.00825 0.0
H451 H 0.45664 0.45846 0.98565 0.0
H452 H 0.46929 0.31208 0.00479 0.0
H453 H 0.50298 0.35043 0.02739 0.0
H454 H 0.6051 0.50531 0.01386 0.0
H455 H 0.66969 0.48003 0.99659 0.0
H456 H 0.67408 0.33539 0.0172 0.0
H457 H 0.60918 0.36126 0.0345 0.0
H458 H 0.63915 0.5616 0.04655 0.0
H459 H 0.72759 0.57556 0.05168 0.0
H460 H 0.74063 0.41996 0.06295 0.0
H461 H 0.65196 0.40674 0.05799 0.0
H462 H 0.55481 0.59366 0.06737 0.0
H463 H 0.61108 0.63313 0.08561 0.0
H464 H 0.65371 0.48779 0.10045 0.0
H465 H 0.59616 0.44856 0.08269 0.0
H466 H 0.44927 0.57786 0.05511 0.0
H467 H 0.39347 0.61338 0.07348 0.0
H468 H 0.41769 0.48706 0.1017 0.0
H469 H 0.47252 0.45123 0.08302 0.0
O470 O 0.42318 0.38882 0.96875 0.0
O471 O 0.43283 0.31424 0.97877 0.0
O472 O 0.81375 0.54875 0.05987 0.0
O473 O 0.82264 0.46894 0.06559 0.0
C474 C 0.48208 0.46915 0.04359 0.0
C475 C 0.51649 0.44925 0.03349 0.0
C476 C 0.56755 0.4525 0.03649 0.0
C477 C 0.58502 0.47575 0.04951 0.0
C478 C 0.55104 0.49454 0.05992 0.0
C479 C 0.49942 0.4916 0.05689 0.0
C480 C 0.4285 0.46569 0.0396 0.0
C481 C 0.40805 0.50376 0.03113 0.0
C482 C 0.36751 0.49351 0.02182 0.0
C483 C 0.3471 0.44488 0.02074 0.0
C484 C 0.36433 0.40828 0.03039 0.0
C485 C 0.40437 0.41876 0.03984 0.0
C486 C 0.49901 0.42598 0.01944 0.0
C487 C 0.48635 0.45595 0.00749 0.0
C488 C 0.46682 0.43433 0.99461 0.0
C489 C 0.4601 0.38227 0.99343 0.0
C490 C 0.47396 0.3523 0.00535 0.0
C491 C 0.49332 0.37403 0.01824 0.0
C492 C 0.60319 0.43516 0.0254 0.0
C493 C 0.61961 0.46798 0.01447 0.0
C494 C 0.65609 0.45336 0.0046 0.0
C495 C 0.67671 0.40579 0.00562 0.0
C496 C 0.65889 0.37234 0.0163 0.0
C497 C 0.62204 0.38695 0.02612 0.0
C498 C 0.63931 0.48315 0.05185 0.0
C499 C 0.66128 0.53056 0.05006 0.0
C500 C 0.71175 0.53843 0.05301 0.0
C501 C 0.7412 0.49886 0.05773 0.0
C502 C 0.71906 0.45123 0.05932 0.0
C503 C 0.66851 0.44347 0.05642 0.0
C504 C 0.57127 0.51816 0.07368 0.0
C505 C 0.57436 0.57038 0.07505 0.0
C506 C 0.60681 0.59286 0.08537 0.0
C507 C 0.63697 0.56335 0.09427 0.0
C508 C 0.63091 0.51125 0.09367 0.0
C509 C 0.59779 0.48888 0.08362 0.0
C510 C 0.46412 0.51173 0.06769 0.0
C511 C 0.4419 0.55761 0.06517 0.0
C512 C 0.41068 0.57811 0.07576 0.0
C513 C 0.40143 0.55308 0.08907 0.0
C514 C 0.42377 0.50694 0.09151 0.0
C515 C 0.45503 0.48649 0.08089 0.0
C516 C 0.43805 0.35954 0.97989 0.0
C517 C 0.79468 0.50721 0.0611 0.0
H518 H 0.96892 0.38539 0.62792 0.0
H519 H 0.37498 0.65436 0.52581 0.0
H520 H 0.9654 0.46962 0.54907 0.0
H521 H 0.89838 0.43404 0.56401 0.0
H522 H 0.88731 0.57403 0.58761 0.0
H523 H 0.95375 0.60961 0.57237 0.0
H524 H 0.03846 0.44567 0.56965 0.0
H525 H 0.01108 0.406 0.59249 0.0
H526 H 0.01688 0.54961 0.61462 0.0
H527 H 0.04382 0.58885 0.59162 0.0
H528 H 0.14007 0.46464 0.56719 0.0
H529 H 0.20392 0.44414 0.58526 0.0
H530 H 0.22254 0.60055 0.59629 0.0
H531 H 0.15781 0.62065 0.57834 0.0
H532 H 0.17114 0.51062 0.5326 0.0
H533 H 0.25648 0.5219 0.5238 0.0
H534 H 0.26188 0.66997 0.54315 0.0
H535 H 0.1764 0.65819 0.55181 0.0
H536 H 0.08515 0.5372 0.51189 0.0
H537 H 0.14236 0.55928 0.49193 0.0
H538 H 0.16251 0.70655 0.51091 0.0
H539 H 0.10483 0.68436 0.53072 0.0
H540 H 0.96171 0.51913 0.52591 0.0
H541 H 0.88911 0.54337 0.51183 0.0
H542 H 0.92682 0.69883 0.51997 0.0
H543 H 0.99799 0.67376 0.5348 0.0
O544 O 0.98131 0.4016 0.61915 0.0
O545 O 0.98796 0.47566 0.63031 0.0
O546 O 0.33754 0.57147 0.52015 0.0
O547 O 0.3417 0.64842 0.5295 0.0
C548 C 0.0155 0.55612 0.55496 0.0
C549 C 0.05443 0.54456 0.56477 0.0
C550 C 0.10399 0.55598 0.56108 0.0
C551 C 0.1151 0.57733 0.54735 0.0
C552 C 0.07639 0.58946 0.53746 0.0
C553 C 0.02619 0.57954 0.54134 0.0
C554 C 0.96409 0.54244 0.55949 0.0
C555 C 0.94667 0.49346 0.55691 0.0
C556 C 0.90919 0.47281 0.56571 0.0
C557 C 0.88841 0.50084 0.57724 0.0
C558 C 0.90254 0.55144 0.57883 0.0
C559 C 0.9401 0.57208 0.57001 0.0
C560 C 0.04287 0.52008 0.57901 0.0
C561 C 0.0342 0.46838 0.57949 0.0
C562 C 0.01843 0.44586 0.59254 0.0
C563 C 0.01148 0.47467 0.60536 0.0
C564 C 0.02171 0.52636 0.60493 0.0
C565 C 0.03731 0.54885 0.59184 0.0
C566 C 0.14439 0.54406 0.5715 0.0
C567 C 0.1579 0.49441 0.57353 0.0
C568 C 0.19413 0.48281 0.58388 0.0
C569 C 0.21787 0.52078 0.59224 0.0
C570 C 0.20494 0.57064 0.58996 0.0
C571 C 0.16816 0.58215 0.57972 0.0
C572 C 0.16779 0.58358 0.54282 0.0
C573 C 0.19103 0.54529 0.53501 0.0
C574 C 0.23969 0.55188 0.52998 0.0
C575 C 0.26601 0.59688 0.53277 0.0
C576 C 0.24272 0.63486 0.54083 0.0
C577 C 0.19399 0.62822 0.54583 0.0
C578 C 0.09076 0.60914 0.52278 0.0
C579 C 0.0996 0.57514 0.51127 0.0
C580 C 0.13279 0.58765 0.49995 0.0
C581 C 0.15774 0.63426 0.50007 0.0
C582 C 0.14437 0.67011 0.51067 0.0
C583 C 0.11077 0.65777 0.52186 0.0
C584 C 0.98497 0.59458 0.53153 0.0
C585 C 0.95415 0.5584 0.52473 0.0
C586 C 0.91282 0.57247 0.51654 0.0
C587 C 0.90172 0.62322 0.51473 0.0
C588 C 0.9335 0.65944 0.52131 0.0
C589 C 0.97463 0.64522 0.52964 0.0
C590 C 0.993 0.45086 0.61906 0.0
C591 C 0.31725 0.60457 0.52711 0.0
Fe592 Fe 0.04092 0.83821 0.20003 0.0
O593 O 0.04263 0.83719 0.17828 0.0
Fe594 Fe 0.98135 0.80253 0.16761 0.0
Fe595 Fe 0.09644 0.80357 0.16705 0.0
O596 O 0.03749 0.83587 0.1785 0.0
O597 O 0.03525 0.77124 0.15589 0.0
O598 O 0.04001 0.77177 0.15581 0.0
Fe599 Fe 0.03579 0.76833 0.13431 0.0
C600 C 0.1409 0.87906 0.19026 0.0
O601 O 0.09465 0.78529 0.20252 0.0
O602 O 0.09413 0.74411 0.18119 0.0
O603 O 0.97573 0.71963 0.13763 0.0
O604 O 0.92899 0.76351 0.15443 0.0
O605 O 0.98104 0.7424 0.18152 0.0
O606 O 0.98734 0.78252 0.20303 0.0
O607 O 0.1446 0.76204 0.15384 0.0
O608 O 0.09325 0.71936 0.13731 0.0
C609 C 0.9767 0.74341 0.19547 0.0
O610 O 0.98349 0.82307 0.13193 0.0
O611 O 0.97934 0.86207 0.15371 0.0
O612 O 0.09894 0.88779 0.19672 0.0
O613 O 0.14847 0.84307 0.18071 0.0
C614 C 0.10188 0.74588 0.19499 0.0
C615 C 0.13554 0.72703 0.14404 0.0
C616 C 0.10816 0.8589 0.13858 0.0
O617 O 0.10276 0.8624 0.15252 0.0
O618 O 0.09091 0.82189 0.13113 0.0
C619 C 0.93421 0.7292 0.14431 0.0
O620 O 0.9317 0.84085 0.18135 0.0
O621 O 0.98309 0.88595 0.19721 0.0
C622 C 0.97127 0.86022 0.13992 0.0
C623 C 0.94072 0.87669 0.19083 0.0
Fe624 Fe 0.53821 0.78741 0.43768 0.0
O625 O 0.56282 0.74468 0.42133 0.0
Fe626 Fe 0.51604 0.89994 0.42115 0.0
Fe627 Fe 0.55662 0.67191 0.42211 0.0
O628 O 0.50874 0.82695 0.42148 0.0
O629 O 0.5081 0.82662 0.41993 0.0
O630 O 0.56294 0.7447 0.41982 0.0
Fe631 Fe 0.53342 0.78389 0.40336 0.0
C632 C 0.60922 0.70832 0.44991 0.0
O633 O 0.47358 0.7467 0.43876 0.0
O634 O 0.50448 0.67065 0.4392 0.0
O635 O 0.4986 0.83312 0.38872 0.0
O636 O 0.46563 0.89428 0.4039 0.0
O637 O 0.46735 0.89461 0.4385 0.0
O638 O 0.50543 0.83652 0.45299 0.0
O639 O 0.49979 0.66451 0.40731 0.0
O640 O 0.46872 0.73996 0.40312 0.0
C641 C 0.4725 0.87069 0.45075 0.0
O642 O 0.59803 0.82705 0.40134 0.0
O643 O 0.56862 0.90364 0.40495 0.0
O644 O 0.57572 0.74151 0.45282 0.0
O645 O 0.61032 0.68172 0.43793 0.0
C646 C 0.46918 0.70069 0.44158 0.0
C647 C 0.46631 0.69227 0.40223 0.0
C648 C 0.59395 0.69456 0.39106 0.0
O649 O 0.60222 0.67461 0.40383 0.0
O650 O 0.56466 0.73193 0.38859 0.0
C651 C 0.4707 0.87173 0.39121 0.0
O652 O 0.57269 0.90419 0.43698 0.0
O653 O 0.60286 0.8279 0.43664 0.0
C654 C 0.60058 0.87432 0.39966 0.0
C655 C 0.60816 0.87423 0.43904 0.0
Fe656 Fe 0.54454 0.28311 0.70631 0.0
O657 O 0.54845 0.26762 0.68544 0.0
Fe658 Fe 0.48146 0.26778 0.67209 0.0
Fe659 Fe 0.60549 0.27646 0.67153 0.0
O660 O 0.53928 0.2857 0.68507 0.0
O661 O 0.53958 0.26018 0.65864 0.0
O662 O 0.54626 0.27866 0.65826 0.0
Fe663 Fe 0.54205 0.26398 0.63738 0.0
C664 C 0.59902 0.3724 0.69165 0.0
O665 O 0.61246 0.24934 0.7073 0.0
O666 O 0.66009 0.2625 0.68711 0.0
O667 O 0.48025 0.21726 0.63825 0.0
O668 O 0.42983 0.23866 0.65717 0.0
O669 O 0.48508 0.19797 0.68256 0.0
O670 O 0.50817 0.21462 0.70652 0.0
O671 O 0.61072 0.20222 0.664 0.0
O672 O 0.58844 0.2042 0.63962 0.0
C673 C 0.49108 0.18528 0.69621 0.0
O674 O 0.49546 0.32427 0.63755 0.0
O675 O 0.47342 0.33702 0.66169 0.0
O676 O 0.58088 0.35082 0.70321 0.0
O677 O 0.60503 0.35108 0.67892 0.0
C678 C 0.65375 0.24684 0.70035 0.0
C679 C 0.60889 0.18328 0.65081 0.0
C680 C 0.6462 0.31557 0.64268 0.0
O681 O 0.65618 0.29643 0.65528 0.0
O682 O 0.60387 0.31061 0.63625 0.0
C683 C 0.43862 0.21488 0.64509 0.0
O684 O 0.42769 0.28764 0.68734 0.0
O685 O 0.47641 0.31663 0.70605 0.0
C686 C 0.4746 0.34967 0.64794 0.0
C687 C 0.43423 0.31137 0.6996 0.0
Fe688 Fe 0.03726 0.28299 0.93225 0.0
O689 O 0.05598 0.23464 0.91658 0.0
Fe690 Fe 0.03274 0.3959 0.91499 0.0
Fe691 Fe 0.03629 0.16411 0.9183 0.0
O692 O 0.01597 0.32476 0.91549 0.0
O693 O 0.01532 0.32437 0.91402 0.0
O694 O 0.05623 0.23457 0.91498 0.0
Fe695 Fe 0.03387 0.27632 0.89794 0.0
C696 C 0.09128 0.1944 0.9462 0.0
O697 O 0.96641 0.25375 0.93334 0.0
O698 O 0.98503 0.17428 0.93531 0.0
O699 O 0.00762 0.32966 0.88256 0.0
O700 O 0.98445 0.39665 0.89727 0.0
O701 O 0.98084 0.39778 0.93167 0.0
O702 O 0.01295 0.33791 0.94668 0.0
O703 O 0.97991 0.16522 0.90326 0.0
O704 O 0.96332 0.24463 0.89828 0.0
C705 C 0.98189 0.37297 0.9439 0.0
O706 O 0.10394 0.30862 0.89583 0.0
O707 O 0.08761 0.38964 0.89959 0.0
O708 O 0.0642 0.23363 0.94808 0.0
O709 O 0.08992 0.1662 0.93449 0.0
C710 C 0.95554 0.21008 0.9376 0.0
C711 C 0.9529 0.19805 0.89746 0.0
C712 C 0.07494 0.17294 0.88687 0.0
O713 O 0.08133 0.15546 0.90007 0.0
O714 O 0.05568 0.21632 0.88382 0.0
C715 C 0.9862 0.37268 0.88475 0.0
O716 O 0.08578 0.39322 0.93165 0.0
O717 O 0.10746 0.31402 0.93198 0.0
C718 C 0.11424 0.35509 0.89429 0.0
C719 C 0.11573 0.35942 0.93547 0.0
H720 H 0.25957 0.88596 0.52426 0.0
H721 H 0.19386 0.95741 0.48671 0.0
H722 H 0.33458 0.87085 0.50992 0.0
H723 H 0.26861 0.94252 0.47247 0.0
H724 H 0.42348 0.95717 0.45519 0.0
H725 H 0.35393 0.97181 0.47159 0.0
H726 H 0.36661 0.8229 0.48881 0.0
H727 H 0.43734 0.80851 0.47247 0.0
C728 C 0.26088 0.89805 0.51291 0.0
C729 C 0.22066 0.92321 0.50668 0.0
C730 C 0.30397 0.88943 0.50471 0.0
C731 C 0.30793 0.90593 0.49009 0.0
C732 C 0.26738 0.93033 0.48381 0.0
C733 C 0.2244 0.93888 0.49198 0.0
C734 C 0.41194 0.92771 0.46261 0.0
C735 C 0.43587 0.8816 0.46248 0.0
C736 C 0.37174 0.93598 0.47194 0.0
C737 C 0.354 0.89824 0.48133 0.0
C738 C 0.37942 0.85286 0.48175 0.0
C739 C 0.42005 0.84465 0.47243 0.0
H740 H 0.43181 0.91281 0.74406 0.0
H741 H 0.31083 0.92499 0.71299 0.0
H742 H 0.47706 0.9785 0.73143 0.0
H743 H 0.35457 0.99396 0.70112 0.0
H744 H 0.45266 0.10888 0.67885 0.0
H745 H 0.42308 0.02683 0.68697 0.0
H746 H 0.46524 0.06528 0.73169 0.0
H747 H 0.49604 0.14546 0.72366 0.0
C748 C 0.41502 0.92885 0.7344 0.0
C749 C 0.36716 0.91394 0.72971 0.0
C750 C 0.4408 0.96716 0.72727 0.0
C751 C 0.41899 0.99232 0.71548 0.0
C752 C 0.37253 0.97541 0.71017 0.0
C753 C 0.34704 0.93639 0.71715 0.0
C754 C 0.4562 0.09944 0.69038 0.0
C755 C 0.47644 0.13403 0.7006 0.0
C756 C 0.43907 0.05252 0.69503 0.0
C757 C 0.44182 0.03941 0.70998 0.0
C758 C 0.4634 0.07353 0.72005 0.0
C759 C 0.48067 0.12001 0.71543 0.0
H760 H 0.29403 0.17109 0.02174 0.0
H761 H 0.3763 0.13069 0.98275 0.0
H762 H 0.21995 0.18277 0.00671 0.0
H763 H 0.30257 0.1426 0.96774 0.0
H764 H 0.15359 0.11517 0.94692 0.0
H765 H 0.22256 0.10239 0.96359 0.0
H766 H 0.18509 0.23593 0.98777 0.0
H767 H 0.11489 0.24819 0.9713 0.0
C768 C 0.29644 0.16528 0.00994 0.0
C769 C 0.34095 0.14967 0.00344 0.0
C770 C 0.25398 0.17191 1.00134 0.0
C771 C 0.25516 0.16308 0.98605 0.0
C772 C 0.30002 0.14855 0.97954 0.0
C773 C 0.34235 0.14184 0.98812 0.0
C774 C 0.15948 0.14159 0.95589 0.0
C775 C 0.12884 0.1831 0.95762 0.0
C776 C 0.19942 0.13445 0.96538 0.0
C777 C 0.20996 0.16865 0.97684 0.0
C778 C 0.17795 0.2088 0.97907 0.0
C779 C 0.1377 0.21585 0.96959 0.0
H780 H 0.28451 0.01724 0.26156 0.0
H781 H 0.31553 0.12595 0.22781 0.0
H782 H 0.25468 0.95803 0.24271 0.0
H783 H 0.28654 0.06666 0.209 0.0
H784 H 0.14949 0.97905 0.18809 0.0
H785 H 0.2025 0.03408 0.20311 0.0
H786 H 0.2763 0.9059 0.22062 0.0
H787 H 0.2229 0.85077 0.20537 0.0
C788 C 0.28573 0.02816 0.25011 0.0
C789 C 0.30243 0.07627 0.24621 0.0
C790 C 0.26912 0.99409 0.23928 0.0
C791 C 0.26828 0.00758 0.22433 0.0
C792 C 0.28658 0.05512 0.2204 0.0
C793 C 0.30356 0.08896 0.2312 0.0
C794 C 0.17852 0.96286 0.19467 0.0
C795 C 0.18274 0.91086 0.19542 0.0
C796 C 0.2088 0.99431 0.20334 0.0
C797 C 0.24339 0.97438 0.21317 0.0
C798 C 0.24974 0.92234 0.21323 0.0
C799 C 0.21979 0.89083 0.20436 0.0
H800 H 0.18739 0.12979 0.59099 0.0
H801 H 0.26908 0.99319 0.59371 0.0
H802 H 0.24439 0.16954 0.6086 0.0
H803 H 0.32459 0.03213 0.61186 0.0
H804 H 0.45159 0.13894 0.62564 0.0
H805 H 0.38946 0.09379 0.61132 0.0
H806 H 0.2736 0.17253 0.63408 0.0
H807 H 0.33679 0.21941 0.64835 0.0
C808 C 0.21762 0.10826 0.59532 0.0
C809 C 0.22424 0.05855 0.59071 0.0
C810 C 0.24974 0.1308 0.60564 0.0
C811 C 0.28922 0.10415 0.61165 0.0
C812 C 0.29499 0.05402 0.60732 0.0
C813 C 0.26298 0.03154 0.59697 0.0
C814 C 0.41288 0.14658 0.62773 0.0
C815 C 0.39923 0.1833 0.63805 0.0
C816 C 0.3771 0.12018 0.61957 0.0
C817 C 0.32643 0.1295 0.62148 0.0
C818 C 0.31241 0.16488 0.63221 0.0
C819 C 0.34851 0.1914 0.64048 0.0
H820 H 0.06317 0.89868 0.83433 0.0
H821 H 0.21072 0.96053 0.82775 0.0
H822 H 0.03967 0.97474 0.84711 0.0
H823 H 0.18783 0.03585 0.84115 0.0
H824 H 0.1243 0.18066 0.85997 0.0
H825 H 0.14004 0.11174 0.84247 0.0
H826 H 0.05516 0.0113 0.87018 0.0
H827 H 0.03906 0.0792 0.88707 0.0
C828 C 0.09065 0.92849 0.83555 0.0
C829 C 0.13917 0.92275 0.83019 0.0
C830 C 0.07723 0.97223 0.84299 0.0
C831 C 0.11189 0.01167 0.84534 0.0
C832 C 0.15995 0.00665 0.83952 0.0
C833 C 0.17336 0.96288 0.83205 0.0
C834 C 0.10852 0.14394 0.86208 0.0
C835 C 0.08108 0.13515 0.87497 0.0
C836 C 0.1178 0.10432 0.85216 0.0
C837 C 0.09911 0.05556 0.85489 0.0
C838 C 0.0698 0.04802 0.86749 0.0
C839 C 0.06097 0.08706 0.87732 0.0
H840 H 0.37017 0.96451 0.09501 0.0
H841 H 0.26245 0.06635 0.07821 0.0
H842 H 0.30745 0.92869 0.11159 0.0
H843 H 0.19907 0.02965 0.09458 0.0
H844 H 0.09776 0.89107 0.11038 0.0
H845 H 0.15722 0.94032 0.09591 0.0
H846 H 0.25226 0.9564 0.13402 0.0
H847 H 0.19204 0.90798 0.14866 0.0
C848 C 0.33295 0.97911 0.09487 0.0
C849 C 0.32095 0.01788 0.08526 0.0
C850 C 0.2972 0.95894 0.10444 0.0
C851 C 0.24833 0.97641 0.10442 0.0
C852 C 0.23639 0.01539 0.09483 0.0
C853 C 0.27254 0.03638 0.08548 0.0
C854 C 0.13083 0.90607 0.11577 0.0
C855 C 0.14013 0.89572 0.13068 0.0
C856 C 0.16483 0.93432 0.10747 0.0
C857 C 0.20957 0.95197 0.11379 0.0
C858 C 0.2182 0.94306 0.12884 0.0
C859 C 0.18355 0.91573 0.13724 0.0
H860 H 0.31325 0.07201 0.33255 0.0
H861 H 0.47009 0.10912 0.33143 0.0
H862 H 0.33059 0.99769 0.3468 0.0
H863 H 0.48734 0.03425 0.34544 0.0
H864 H 0.50821 0.88021 0.36336 0.0
H865 H 0.48361 0.94061 0.3448 0.0
H866 H 0.36067 0.98404 0.37224 0.0
H867 H 0.38521 0.92398 0.3907 0.0
C868 C 0.35142 0.06447 0.33536 0.0
C869 C 0.39021 0.09704 0.33097 0.0
C870 C 0.36134 0.02163 0.34344 0.0
C871 C 0.41031 0.01002 0.34723 0.0
C872 C 0.44925 0.0417 0.34249 0.0
C873 C 0.43932 0.08475 0.33449 0.0
C874 C 0.47499 0.90148 0.36519 0.0
C875 C 0.4487 0.89748 0.3785 0.0
C876 C 0.46128 0.93651 0.35465 0.0
C877 C 0.42057 0.96754 0.35714 0.0
C878 C 0.39207 0.96061 0.36994 0.0
C879 C 0.40614 0.92619 0.38054 0.0
H880 H 0.8679 0.08292 0.61732 0.0
H881 H 0.77206 0.9633 0.60122 0.0
H882 H 0.80377 0.10842 0.63446 0.0
H883 H 0.70803 0.98788 0.61877 0.0
H884 H 0.59428 0.11654 0.62837 0.0
H885 H 0.65552 0.06043 0.61842 0.0
H886 H 0.75105 0.09188 0.65579 0.0
H887 H 0.68978 0.14914 0.66566 0.0
C888 C 0.83333 0.06158 0.61763 0.0
C889 C 0.82457 0.0218 0.60772 0.0
C890 C 0.79682 0.07566 0.62763 0.0
C891 C 0.75062 0.05029 0.62795 0.0
C892 C 0.74309 0.00841 0.6187 0.0
C893 C 0.77978 0.99422 0.6087 0.0
C894 C 0.62767 0.11034 0.63471 0.0
C895 C 0.63774 0.13817 0.64761 0.0
C896 C 0.66274 0.07782 0.62904 0.0
C897 C 0.70868 0.07253 0.63615 0.0
C898 C 0.71635 0.096 0.64992 0.0
C899 C 0.68106 0.12846 0.65564 0.0
H900 H 0.69723 0.13627 0.35771 0.0
H901 H 0.70389 0.03214 0.32132 0.0
H902 H 0.6809 0.06786 0.37453 0.0
H903 H 0.69011 0.96281 0.3382 0.0
H904 H 0.59952 0.86156 0.3701 0.0
H905 H 0.63123 0.92161 0.35228 0.0
H906 H 0.7096 1.00075 0.38729 0.0
H907 H 0.67442 0.94235 0.4051 0.0
C908 C 0.69595 0.0985 0.35335 0.0
C909 C 0.70161 0.08968 0.33818 0.0
C910 C 0.68705 0.05894 0.36303 0.0
C911 C 0.68448 0.0091 0.35788 0.0
C912 C 0.691 1.00039 0.34266 0.0
C913 C 0.69903 0.04017 0.33294 0.0
C914 C 0.62516 0.89069 0.37383 0.0
C915 C 0.63513 0.89695 0.38892 0.0
C916 C 0.64323 0.92557 0.36362 0.0
C917 C 0.67234 0.9672 0.36826 0.0
C918 C 0.68604 0.97039 0.38326 0.0
C919 C 0.66694 0.93621 0.39348 0.0
H920 H 0.7994 0.06385 0.08565 0.0
H921 H 0.70023 0.97572 0.11274 0.0
H922 H 0.87089 0.03083 0.09894 0.0
H923 H 0.77136 0.94339 0.12615 0.0
H924 H 0.90761 0.92223 0.15412 0.0
H925 H 0.84553 0.97499 0.14286 0.0
H926 H 0.90195 0.93804 0.09971 0.0
H927 H 0.96379 0.88467 0.11089 0.0
C928 C 0.79303 0.03821 0.09464 0.0
C929 C 0.74464 0.02205 0.09821 0.0
C930 C 0.83372 0.0193 0.10217 0.0
C931 C 0.82642 0.98482 0.11356 0.0
C932 C 0.77786 0.97039 0.11752 0.0
C933 C 0.73731 0.98853 0.10982 0.0
C934 C 0.90757 0.92621 0.14225 0.0
C935 C 0.9402 0.89889 0.13335 0.0
C936 C 0.87192 0.95623 0.13584 0.0
C937 C 0.86895 0.96019 0.12046 0.0
C938 C 0.90375 0.93573 0.11161 0.0
C939 C 0.93888 0.90502 0.118 0.0
H940 H 0.96984 1.00184 0.83111 0.0
H941 H 0.81035 0.98827 0.83602 0.0
H942 H 0.97069 0.07401 0.84758 0.0
H943 H 0.81213 0.05904 0.85312 0.0
H944 H 0.88154 0.12572 0.89975 0.0
H945 H 0.85707 0.0692 0.8796 0.0
H946 H 0.93192 0.16585 0.84863 0.0
H947 H 0.95497 0.22319 0.86873 0.0
C948 C 0.93489 0.01426 0.83554 0.0
C949 C 0.89011 0.98851 0.83223 0.0
C950 C 0.93544 0.05577 0.84497 0.0
C951 C 0.89136 0.07226 0.85148 0.0
C952 C 0.84657 0.04701 0.8482 0.0
C953 C 0.84583 0.006 0.83855 0.0
C954 C 0.89001 0.13637 0.88852 0.0
C955 C 0.9197 0.17895 0.88576 0.0
C956 C 0.87652 0.1038 0.87702 0.0
C957 C 0.89343 0.11288 0.86264 0.0
C958 C 0.91875 0.15799 0.85966 0.0
C959 C 0.9312 0.19118 0.87112 0.0
H960 H 0.85407 0.00392 0.49131 0.0
H961 H 0.88966 0.85015 0.48233 0.0
H962 H 0.78191 0.99589 0.47533 0.0
H963 H 0.81534 0.84087 0.46739 0.0
H964 H 0.69956 0.84047 0.43259 0.0
H965 H 0.77721 0.85889 0.44536 0.0
H966 H 0.70145 0.96228 0.47401 0.0
H967 H 0.6242 0.94559 0.4605 0.0
C968 C 0.84697 0.96848 0.4858 0.0
C969 C 0.87832 0.92781 0.48807 0.0
C970 C 0.80479 0.9636 0.47682 0.0
C971 C 0.79227 0.91771 0.46999 0.0
C972 C 0.82391 0.87718 0.47217 0.0
C973 C 0.86643 0.88227 0.48097 0.0
C974 C 0.6998 0.86782 0.44146 0.0
C975 C 0.65587 0.89155 0.44558 0.0
C976 C 0.74426 0.87801 0.44893 0.0
C977 C 0.74587 0.91139 0.46098 0.0
C978 C 0.70211 0.9367 0.46472 0.0
C979 C 0.65766 0.92718 0.457 0.0
H980 H 0.86928 0.0886 0.25089 0.0
H981 H 0.72091 0.0262 0.24613 0.0
H982 H 0.8977 0.03554 0.23099 0.0
H983 H 0.74956 0.97301 0.22576 0.0
H984 H 0.85823 0.84674 0.20575 0.0
H985 H 0.80915 0.90073 0.22183 0.0
H986 H 0.88492 0.03025 0.20398 0.0
H987 H 0.93458 0.9762 0.18833 0.0
C988 C 0.84286 0.0629 0.24572 0.0
C989 C 0.79303 0.06101 0.25021 0.0
C990 C 0.85893 0.03318 0.23411 0.0
C991 C 0.8256 1.00082 0.22664 0.0
C992 C 0.7759 0.99787 0.23129 0.0
C993 C 0.75961 0.02813 0.24292 0.0
C994 C 0.86256 0.88687 0.20484 0.0
C995 C 0.89995 0.90765 0.19592 0.0
C996 C 0.83475 0.91773 0.21407 0.0
C997 C 0.84421 0.96951 0.21439 0.0
C998 C 0.87771 0.99034 0.20418 0.0
C999 C 0.9057 0.95959 0.19512 0.0
H1000 H 0.68388 0.2475 0.98951 0.0
H1001 H 0.70624 0.0882 0.98838 0.0
H1002 H 0.75937 0.26018 0.9754 0.0
H1003 H 0.77807 0.10046 0.97295 0.0
H1004 H 0.93302 0.13395 0.95661 0.0
H1005 H 0.85938 0.12329 0.9718 0.0
H1006 H 0.7984 0.25677 0.9531 0.0
H1007 H 0.87357 0.26874 0.93867 0.0
C1008 C 0.70431 0.21496 0.98617 0.0
C1009 C 0.68788 0.16665 0.99016 0.0
C1010 C 0.74761 0.22225 0.97778 0.0
C1011 C 0.77556 0.18143 0.97282 0.0
C1012 C 0.75866 0.13319 0.97665 0.0
C1013 C 0.71615 0.126 0.9853 0.0
C1014 C 0.90376 0.16088 0.95571 0.0
C1015 C 0.90924 0.202 0.94633 0.0
C1016 C 0.86107 0.15467 0.96439 0.0
C1017 C 0.82191 0.18883 0.96374 0.0
C1018 C 0.82753 0.22987 0.95423 0.0
C1019 C 0.87066 0.23655 0.94577 0.0
H1020 H 0.82236 0.09095 0.7674 0.0
H1021 H 0.81556 0.9945 0.72916 0.0
H1022 H 0.79113 0.15961 0.75278 0.0
H1023 H 0.78149 0.06181 0.71465 0.0
H1024 H 0.73277 0.19446 0.68896 0.0
H1025 H 0.78728 0.13902 0.70261 0.0
H1026 H 0.71649 0.18336 0.74329 0.0
H1027 H 0.66489 0.2396 0.7299 0.0
C1028 C 0.81417 0.0846 0.75584 0.0
C1029 C 0.82128 0.03752 0.74942 0.0
C1030 C 0.79594 0.1238 0.74743 0.0
C1031 C 0.78299 0.11652 0.73247 0.0
C1032 C 0.79162 0.06951 0.726 0.0
C1033 C 0.81085 0.03066 0.73435 0.0
C1034 C 0.73015 0.19335 0.70086 0.0
C1035 C 0.69413 0.22117 0.7083 0.0
C1036 C 0.76087 0.16101 0.70871 0.0
C1037 C 0.75617 0.15588 0.72413 0.0
C1038 C 0.72213 0.18626 0.73152 0.0
C1039 C 0.69193 0.21847 0.72376 0.0
H1040 H 0.68699 0.41884 0.97605 0.0
H1041 H 0.76346 0.36595 0.01455 0.0
H1042 H 0.76261 0.40991 0.96157 0.0
H1043 H 0.83927 0.35778 1.00019 0.0
H1044 H 0.9529 0.30946 0.96565 0.0
H1045 H 0.87759 0.3126 0.9802 0.0
H1046 H 0.8424 0.45396 0.96062 0.0
H1047 H 0.91719 0.45012 0.9456 0.0
C1048 C 0.71995 0.40495 0.98135 0.0
C1049 C 0.71969 0.39333 0.99639 0.0
C1050 C 0.76322 0.40019 0.97312 0.0
C1051 C 0.80702 0.38406 0.97983 0.0
C1052 C 0.80602 0.37013 0.99471 0.0
C1053 C 0.76264 0.37463 0.00292 0.0
C1054 C 0.92971 0.34179 0.96462 0.0
C1055 C 0.94107 0.37969 0.95447 0.0
C1056 C 0.88642 0.34342 0.97295 0.0
C1057 C 0.8539 0.38323 0.97143 0.0
C1058 C 0.86629 0.42221 0.96176 0.0
C1059 C 0.90938 0.42035 0.9533 0.0
H1060 H 0.92227 0.50204 0.25765 0.0
H1061 H 0.81301 0.47627 0.2234 0.0
H1062 H 0.95614 0.57299 0.2441 0.0
H1063 H 0.84567 0.54851 0.21012 0.0
H1064 H 0.94711 0.65316 0.18341 0.0
H1065 H 0.91706 0.57891 0.19626 0.0
H1066 H 0.93323 0.65687 0.2379 0.0
H1067 H 0.9641 0.73062 0.22515 0.0
C1068 C 0.90562 0.51127 0.24718 0.0
C1069 C 0.86483 0.48332 0.24164 0.0
C1070 C 0.92469 0.55242 0.23949 0.0
C1071 C 0.90351 0.56676 0.22604 0.0
C1072 C 0.8632 0.53836 0.22038 0.0
C1073 C 0.84408 0.49723 0.22808 0.0
C1074 C 0.9443 0.65451 0.19531 0.0
C1075 C 0.95794 0.6981 0.20321 0.0
C1076 C 0.92682 0.61193 0.20268 0.0
C1077 C 0.92268 0.61179 0.21813 0.0
C1078 C 0.93654 0.65532 0.22602 0.0
C1079 C 0.95392 0.69785 0.21867 0.0
H1080 H 0.86482 0.57869 0.48962 0.0
H1081 H 0.83817 0.70127 0.51966 0.0
H1082 H 0.79287 0.60101 0.47532 0.0
H1083 H 0.76732 0.72564 0.50466 0.0
H1084 H 0.6126 0.72107 0.48031 0.0
H1085 H 0.6826 0.70241 0.49669 0.0
H1086 H 0.77118 0.66422 0.45873 0.0
H1087 H 0.70195 0.68095 0.44272 0.0
C1088 C 0.84361 0.6104 0.49324 0.0
C1089 C 0.85761 0.638 0.50587 0.0
C1090 C 0.80254 0.62374 0.48486 0.0
C1091 C 0.77441 0.66559 0.48869 0.0
C1092 C 0.78792 0.69308 0.50141 0.0
C1093 C 0.82903 0.67945 0.50989 0.0
C1094 C 0.64715 0.70875 0.47555 0.0
C1095 C 0.65125 0.70132 0.46025 0.0
C1096 C 0.68731 0.69822 0.4849 0.0
C1097 C 0.73231 0.68063 0.47907 0.0
C1098 C 0.73675 0.6759 0.46371 0.0
C1099 C 0.69688 0.68573 0.45449 0.0
H1100 H 0.67162 0.67417 0.72223 0.0
H1101 H 0.80354 0.58495 0.72182 0.0
H1102 H 0.62755 0.60942 0.70797 0.0
H1103 H 0.75988 0.52132 0.70723 0.0
H1104 H 0.67417 0.41965 0.67678 0.0
H1105 H 0.7134 0.50018 0.68316 0.0
H1106 H 0.60356 0.52233 0.71708 0.0
H1107 H 0.56467 0.44208 0.71084 0.0
C1108 C 0.69143 0.64115 0.71892 0.0
C1109 C 0.74084 0.63431 0.72339 0.0
C1110 C 0.6663 0.60438 0.71068 0.0
C1111 C 0.69031 0.56043 0.70658 0.0
C1112 C 0.74069 0.55518 0.7101 0.0
C1113 C 0.76568 0.59167 0.71847 0.0
C1114 C 0.65772 0.44236 0.68534 0.0
C1115 C 0.61684 0.42442 0.69347 0.0
C1116 C 0.68026 0.48825 0.689 0.0
C1117 C 0.66161 0.51719 0.70064 0.0
C1118 C 0.61846 0.50093 0.70798 0.0
C1119 C 0.59647 0.45482 0.7045 0.0
H1120 H 0.63351 0.62901 0.11757 0.0
H1121 H 0.73479 0.54937 0.08971 0.0
H1122 H 0.70365 0.66573 0.13131 0.0
H1123 H 0.80503 0.58817 0.10254 0.0
H1124 H 0.92645 0.63364 0.13363 0.0
H1125 H 0.85361 0.59156 0.12309 0.0
H1126 H 0.7676 0.7235 0.13133 0.0
H1127 H 0.8398 0.76383 0.14276 0.0
C1128 C 0.67095 0.61974 0.11437 0.0
C1129 C 0.67891 0.58615 0.10271 0.0
C1130 C 0.71133 0.64102 0.12214 0.0
C1131 C 0.76066 0.6301 0.11818 0.0
C1132 C 0.76806 0.59673 0.10632 0.0
C1133 C 0.72776 0.5747 0.09882 0.0
C1134 C 0.89172 0.65328 0.13335 0.0
C1135 C 0.88891 0.70201 0.13904 0.0
C1136 C 0.84985 0.62938 0.12713 0.0
C1137 C 0.80424 0.65407 0.12605 0.0
C1138 C 0.80142 0.7026 0.13208 0.0
C1139 C 0.84303 0.726 0.13862 0.0
H1140 H 0.63119 0.46935 0.32181 0.0
H1141 H 0.69819 0.42174 0.36244 0.0
H1142 H 0.61489 0.55065 0.33287 0.0
H1143 H 0.68116 0.50254 0.3736 0.0
H1144 H 0.68646 0.65849 0.38785 0.0
H1145 H 0.70898 0.58812 0.37222 0.0
H1146 H 0.56451 0.59087 0.35149 0.0
H1147 H 0.5431 0.66273 0.36675 0.0
C1148 C 0.64163 0.47595 0.3332 0.0
C1149 C 0.66594 0.4391 0.34128 0.0
C1150 C 0.63253 0.52266 0.3395 0.0
C1151 C 0.64743 0.53347 0.35404 0.0
C1152 C 0.67048 0.49603 0.36223 0.0
C1153 C 0.67981 0.44951 0.3559 0.0
C1154 C 0.66043 0.6453 0.3795 0.0
C1155 C 0.6131 0.66588 0.37848 0.0
C1156 C 0.67291 0.60449 0.37073 0.0
C1157 C 0.63796 0.58287 0.36094 0.0
C1158 C 0.5923 0.60653 0.35892 0.0
C1159 C 0.58009 0.64797 0.36759 0.0
H1160 H 0.80311 0.53677 0.58941 0.0
H1161 H 0.89956 0.41011 0.59022 0.0
H1162 H 0.74836 0.49583 0.60719 0.0
H1163 H 0.84389 0.36837 0.6076 0.0
H1164 H 0.74787 0.32133 0.64728 0.0
H1165 H 0.80918 0.36933 0.63288 0.0
H1166 H 0.69117 0.42548 0.60581 0.0
H1167 H 0.63075 0.37911 0.62008 0.0
C1168 C 0.81265 0.50024 0.5934 0.0
C1169 C 0.85516 0.47635 0.58819 0.0
C1170 C 0.78117 0.47662 0.60353 0.0
C1171 C 0.79148 0.42857 0.60872 0.0
C1172 C 0.83494 0.40541 0.6039 0.0
C1173 C 0.86638 0.42901 0.59374 0.0
C1174 C 0.73517 0.34433 0.63834 0.0
C1175 C 0.68438 0.34595 0.63481 0.0
C1176 C 0.77023 0.37159 0.63004 0.0
C1177 C 0.75505 0.40138 0.6182 0.0
C1178 C 0.70423 0.40364 0.61496 0.0
C1179 C 0.66951 0.37644 0.62311 0.0
H1180 H 0.89296 0.6484 0.85202 0.0
H1181 H 0.95747 0.58737 0.81247 0.0
H1182 H 0.90566 0.56988 0.86457 0.0
H1183 H 0.96916 0.50795 0.82487 0.0
H1184 H 0.03414 0.39574 0.85905 0.0
H1185 H 0.01503 0.4656 0.84295 0.0
H1186 H 0.87778 0.48712 0.86649 0.0
H1187 H 0.89782 0.41857 0.88272 0.0
C1188 C 0.90959 0.61803 0.84597 0.0
C1189 C 0.92441 0.62446 0.83126 0.0
C1190 C 0.91654 0.57259 0.85312 0.0
C1191 C 0.93795 0.53176 0.84575 0.0
C1192 C 0.95301 0.53835 0.83102 0.0
C1193 C 0.94642 0.58406 0.8239 0.0
C1194 C 0.99904 0.41423 0.86038 0.0
C1195 C 0.96736 0.40147 0.87211 0.0
C1196 C 0.98826 0.45479 0.85125 0.0
C1197 C 0.9456 0.48345 0.85367 0.0
C1198 C 0.91187 0.46739 0.86457 0.0
C1199 C 0.92282 0.42734 0.87372 0.0
H1200 H 0.39762 0.65023 0.09822 0.0
H1201 H 0.32931 0.50502 0.10501 0.0
H1202 H 0.33626 0.68768 0.11435 0.0
H1203 H 0.26899 0.54225 0.12162 0.0
H1204 H 0.23488 0.74086 0.14993 0.0
H1205 H 0.30356 0.69423 0.13952 0.0
H1206 H 0.19891 0.59595 0.11694 0.0
H1207 H 0.13053 0.64148 0.12749 0.0
C1208 C 0.3698 0.62627 0.1033 0.0
C1209 C 0.36779 0.57483 0.10019 0.0
C1210 C 0.3351 0.6476 0.11271 0.0
C1211 C 0.29767 0.61792 0.1192 0.0
C1212 C 0.29712 0.56612 0.11664 0.0
C1213 C 0.33186 0.54477 0.10723 0.0
C1214 C 0.2265 0.70876 0.14296 0.0
C1215 C 0.17716 0.69538 0.13938 0.0
C1216 C 0.26587 0.68224 0.13694 0.0
C1217 C 0.25663 0.6417 0.12733 0.0
C1218 C 0.20731 0.62671 0.12442 0.0
C1219 C 0.16805 0.65321 0.13037 0.0
H1220 H 0.26339 0.56 0.83439 0.0
H1221 H 0.10427 0.54518 0.82848 0.0
H1222 H 0.26129 0.4887 0.85093 0.0
H1223 H 0.10341 0.47229 0.84426 0.0
H1224 H 0.18824 0.4246 0.89697 0.0
H1225 H 0.21595 0.47849 0.8769 0.0
H1226 H 0.14037 0.38141 0.84561 0.0
H1227 H 0.11392 0.32673 0.86567 0.0
C1228 C 0.22796 0.54177 0.83655 0.0
C1229 C 0.18385 0.55914 0.83014 0.0
C1230 C 0.22706 0.50043 0.84587 0.0
C1231 C 0.1823 0.47469 0.84869 0.0
C1232 C 0.13855 0.49091 0.84199 0.0
C1233 C 0.13916 0.5328 0.83294 0.0
C1234 C 0.18033 0.41314 0.88571 0.0
C1235 C 0.14931 0.37141 0.88284 0.0
C1236 C 0.19575 0.44421 0.87424 0.0
C1237 C 0.17949 0.43448 0.85977 0.0
C1238 C 0.15313 0.38978 0.8567 0.0
C1239 C 0.13867 0.35809 0.86815 0.0
H1240 H 0.30984 0.56402 0.59615 0.0
H1241 H 0.21208 0.44854 0.61307 0.0
H1242 H 0.37581 0.53682 0.61266 0.0
H1243 H 0.27782 0.42104 0.62939 0.0
H1244 H 0.48645 0.40555 0.62319 0.0
H1245 H 0.42503 0.45905 0.61216 0.0
H1246 H 0.33269 0.44323 0.65077 0.0
H1247 H 0.39416 0.38921 0.66183 0.0
C1248 C 0.30224 0.53343 0.60359 0.0
C1249 C 0.25611 0.50798 0.60324 0.0
C1250 C 0.33997 0.51778 0.61298 0.0
C1251 C 0.33199 0.47683 0.62232 0.0
C1252 C 0.28497 0.45311 0.62247 0.0
C1253 C 0.24751 0.4684 0.613 0.0
C1254 C 0.45371 0.41461 0.62952 0.0
C1255 C 0.44478 0.39247 0.64327 0.0
C1256 C 0.4186 0.44553 0.62322 0.0
C1257 C 0.37369 0.45466 0.63051 0.0
C1258 C 0.36673 0.43621 0.64483 0.0
C1259 C 0.40213 0.40561 0.6512 0.0
H1260 H 0.45782 0.45192 0.34835 0.0
H1261 H 0.29923 0.47423 0.34688 0.0
H1262 H 0.46808 0.52868 0.3628 0.0
H1263 H 0.30996 0.54924 0.3622 0.0
H1264 H 0.39923 0.61988 0.40949 0.0
H1265 H 0.36832 0.5543 0.39261 0.0
H1266 H 0.42949 0.63537 0.35586 0.0
H1267 H 0.45857 0.70204 0.37268 0.0
C1268 C 0.42509 0.4729 0.35103 0.0
C1269 C 0.37759 0.45612 0.34639 0.0
C1270 C 0.43109 0.51686 0.35936 0.0
C1271 C 0.38981 0.5448 0.36351 0.0
C1272 C 0.34233 0.52824 0.35911 0.0
C1273 C 0.3363 0.48476 0.35051 0.0
C1274 C 0.40331 0.62512 0.39772 0.0
C1275 C 0.43035 0.66654 0.39236 0.0
C1276 C 0.38622 0.58733 0.3881 0.0
C1277 C 0.39689 0.58979 0.37299 0.0
C1278 C 0.42061 0.63286 0.36747 0.0
C1279 C 0.4366 0.67129 0.37706 0.0
H1280 H 0.35293 0.36501 1.00208 0.0
H1281 H 0.26474 0.49406 0.01127 0.0
H1282 H 0.3021 0.34545 0.98058 0.0
H1283 H 0.21164 0.47319 0.99022 0.0
H1284 H 0.14843 0.45209 0.94473 0.0
H1285 H 0.20559 0.47229 0.96478 0.0
H1286 H 0.22696 0.31488 0.97194 0.0
H1287 H 0.17249 0.29515 0.95126 0.0
C1288 C 0.32196 0.38871 0.99964 0.0
C1289 C 0.31279 0.43102 0.00842 0.0
C1290 C 0.29255 0.37742 0.98729 0.0
C1291 C 0.2524 0.40763 0.98348 0.0
C1292 C 0.24276 0.44952 0.99249 0.0
C1293 C 0.27287 0.46133 0.00469 0.0
C1294 C 0.16593 0.42181 0.95044 0.0
C1295 C 0.15531 0.37192 0.94645 0.0
C1296 C 0.19834 0.43337 0.96212 0.0
C1297 C 0.22053 0.39535 0.97031 0.0
C1298 C 0.21117 0.34544 0.96594 0.0
C1299 C 0.17947 0.33397 0.95408 0.0
H1300 H 0.24943 0.45711 0.76515 0.0
H1301 H 0.25759 0.55427 0.72758 0.0
H1302 H 0.28479 0.38985 0.75045 0.0
H1303 H 0.29485 0.48806 0.713 0.0
H1304 H 0.35195 0.35595 0.68758 0.0
H1305 H 0.29225 0.40813 0.70078 0.0
H1306 H 0.36489 0.37453 0.74192 0.0
H1307 H 0.42236 0.32211 0.72894 0.0
C1308 C 0.25845 0.46385 0.7537 0.0
C1309 C 0.2509 0.51087 0.74753 0.0
C1310 C 0.27892 0.42546 0.74526 0.0
C1311 C 0.2934 0.4335 0.73053 0.0
C1312 C 0.28365 0.48002 0.7242 0.0
C1313 C 0.26246 0.51815 0.73258 0.0
C1314 C 0.35399 0.35878 0.69948 0.0
C1315 C 0.39207 0.33528 0.7072 0.0
C1316 C 0.32022 0.38908 0.70704 0.0
C1317 C 0.32377 0.396 0.72246 0.0
C1318 C 0.36019 0.36987 0.73013 0.0
C1319 C 0.39366 0.34 0.72263 0.0
H1320 H 0.16709 0.61761 0.47026 0.0
H1321 H 0.24889 0.66909 0.50859 0.0
H1322 H 0.24231 0.62848 0.45519 0.0
H1323 H 0.32401 0.67816 0.4937 0.0
H1324 H 0.45706 0.63197 0.46358 0.0
H1325 H 0.38039 0.61315 0.47734 0.0
H1326 H 0.29978 0.71219 0.44927 0.0
H1327 H 0.37627 0.73215 0.43586 0.0
C1328 C 0.20108 0.63111 0.47545 0.0
C1329 C 0.20204 0.64281 0.49058 0.0
C1330 C 0.24401 0.63719 0.46686 0.0
C1331 C 0.28895 0.65364 0.47335 0.0
C1332 C 0.28998 0.6649 0.48848 0.0
C1333 C 0.24689 0.66011 0.49695 0.0
C1334 C 0.42277 0.64902 0.46023 0.0
C1335 C 0.42254 0.68353 0.44868 0.0
C1336 C 0.3791 0.63851 0.46813 0.0
C1337 C 0.33431 0.66128 0.46433 0.0
C1338 C 0.33372 0.69396 0.45235 0.0
C1339 C 0.37748 0.70542 0.44473 0.0
H1340 H 0.27494 0.54626 0.24767 0.0
H1341 H 0.15747 0.45045 0.23032 0.0
H1342 H 0.24188 0.61634 0.23418 0.0
H1343 H 0.12352 0.52122 0.21708 0.0
H1344 H 0.11262 0.65141 0.18372 0.0
H1345 H 0.14554 0.57889 0.19629 0.0
H1346 H 0.16673 0.66754 0.23586 0.0
H1347 H 0.13444 0.7399 0.22338 0.0
C1348 C 0.24225 0.5401 0.24088 0.0
C1349 C 0.21886 0.49283 0.24002 0.0
C1350 C 0.22301 0.58036 0.23329 0.0
C1351 C 0.18 0.57428 0.22464 0.0
C1352 C 0.15691 0.52688 0.22359 0.0
C1353 C 0.17606 0.48655 0.23126 0.0
C1354 C 0.12438 0.65542 0.1951 0.0
C1355 C 0.12119 0.70155 0.20252 0.0
C1356 C 0.14291 0.61382 0.20231 0.0
C1357 C 0.15895 0.61769 0.21702 0.0
C1358 C 0.15533 0.66365 0.22445 0.0
C1359 C 0.13656 0.70504 0.2173 0.0
loop_
_geom_bond_atom_site_label_1
_geom_bond_atom_site_label_2
_geom_bond_distance
_geom_bond_site_symmetry_2
_ccdc_geom_bond_type
H0 O26 0.856 . S
H1 O29 0.854 . S
H2 C37 0.930 . S
H3 C38 0.930 . S
H4 C40 0.930 1_565 S
H5 C41 0.930 1_565 S
H6 C43 0.928 1_655 S
H7 C44 0.930 . S
H8 C46 0.930 . S
H9 C47 0.929 . S
H10 C49 0.930 . S
H11 C50 0.931 . S
H12 C52 0.930 . S
H13 C53 0.929 1_565 S
H14 C55 0.931 . S
H15 C56 0.930 . S
H16 C58 0.930 . S
H17 C59 0.932 . S
H18 C61 0.930 1_445 S
H19 C62 0.929 . S
H20 C64 0.931 . S
H21 C65 0.930 . S
H22 C67 0.929 . S
H23 C68 0.931 1_545 S
H24 C70 0.930 . S
H25 C71 0.929 . S
O26 H0 0.856 . S
O26 C72 1.300 . S
O27 C72 1.209 . S
O28 C73 1.199 . S
O29 H1 0.854 . S
O29 C73 1.297 . S
C30 C31 1.404 . S
C30 C35 1.397 . S
C30 C36 1.492 . S
C31 C30 1.404 . S
C31 C32 1.396 1_455 S
C31 C42 1.492 . S
C32 C31 1.396 1_655 S
C32 C33 1.397 . S
C32 C48 1.509 . S
C33 C32 1.397 . S
C33 C34 1.412 1_545 S
C33 C54 1.484 1_545 S
C34 C33 1.412 1_565 S
C34 C35 1.388 1_665 S
C34 C60 1.490 . S
C35 C30 1.397 . S
C35 C34 1.388 1_445 S
C35 C66 1.519 1_545 S
C36 C30 1.492 . S
C36 C37 1.363 . S
C36 C41 1.390 . S
C37 H2 0.930 . S
C37 C36 1.363 . S
C37 C38 1.372 . S
C38 H3 0.930 . S
C38 C37 1.372 . S
C38 C39 1.383 . S
C39 C38 1.383 . S
C39 C40 1.395 . S
C40 H4 0.930 1_545 S
C40 C39 1.395 . S
C40 C41 1.362 . S
C41 H5 0.930 1_545 S
C41 C36 1.390 . S
C41 C40 1.362 . S
C42 C31 1.492 . S
C42 C43 1.377 . S
C42 C47 1.397 . S
C43 H6 0.928 1_455 S
C43 C42 1.377 . S
C43 C44 1.376 . S
C44 H7 0.930 . S
C44 C43 1.376 . S
C44 C45 1.376 . S
C45 C44 1.376 . S
C45 C46 1.378 . S
C45 C72 1.486 . S
C46 H8 0.930 . S
C46 C45 1.378 . S
C46 C47 1.376 . S
C47 H9 0.929 . S
C47 C42 1.397 . S
C47 C46 1.376 . S
C48 C32 1.509 . S
C48 C49 1.391 . S
C48 C53 1.386 . S
C49 H10 0.930 . S
C49 C48 1.391 . S
C49 C50 1.375 . S
C50 H11 0.931 . S
C50 C49 1.375 . S
C50 C51 1.375 . S
C51 C50 1.375 . S
C51 C52 1.361 . S
C52 H12 0.930 . S
C52 C51 1.361 . S
C52 C53 1.399 . S
C53 H13 0.929 1_545 S
C53 C48 1.386 . S
C53 C52 1.399 . S
C54 C33 1.484 1_565 S
C54 C55 1.391 1_565 S
C54 C59 1.365 . S
C55 H14 0.931 . S
C55 C54 1.391 1_545 S
C55 C56 1.372 . S
C56 H15 0.930 . S
C56 C55 1.372 . S
C56 C57 1.397 1_545 S
C57 C56 1.397 1_565 S
C57 C58 1.390 . S
C57 C73 1.476 . S
C58 H16 0.930 . S
C58 C57 1.390 . S
C58 C59 1.366 . S
C59 H17 0.932 . S
C59 C54 1.365 . S
C59 C58 1.366 . S
C60 C34 1.490 . S
C60 C61 1.380 . S
C60 C65 1.386 . S
C61 H18 0.930 1_665 S
C61 C60 1.380 . S
C61 C62 1.381 . S
C62 H19 0.929 . S
C62 C61 1.381 . S
C62 C63 1.371 . S
C63 C62 1.371 . S
C63 C64 1.380 . S
C64 H20 0.931 . S
C64 C63 1.380 . S
C64 C65 1.387 . S
C65 H21 0.930 . S
C65 C60 1.386 . S
C65 C64 1.387 . S
C66 C35 1.519 1_565 S
C66 C67 1.377 1_565 S
C66 C71 1.361 . S
C67 H22 0.929 . S
C67 C66 1.377 1_545 S
C67 C68 1.386 1_545 S
C68 H23 0.931 1_565 S
C68 C67 1.386 1_565 S
C68 C69 1.363 . S
C69 C68 1.363 . S
C69 C70 1.385 . S
C70 H24 0.930 . S
C70 C69 1.385 . S
C70 C71 1.396 . S
C71 H25 0.929 . S
C71 C66 1.361 . S
C71 C70 1.396 . S
C72 O26 1.300 . S
C72 O27 1.209 . S
C72 C45 1.486 . S
C73 O28 1.199 . S
C73 O29 1.297 . S
C73 C57 1.476 . S
H74 O100 0.856 . S
H75 O103 0.854 . S
H76 C111 0.930 . S
H77 C112 0.930 . S
H78 C114 0.930 . S
H79 C115 0.930 . S
H80 C117 0.931 . S
H81 C118 0.930 . S
H82 C120 0.930 . S
H83 C121 0.929 . S
H84 C123 0.930 . S
H85 C124 0.931 . S
H86 C126 0.930 . S
H87 C127 0.929 . S
H88 C129 0.931 . S
H89 C130 0.930 . S
H90 C132 0.930 1_545 S
H91 C133 0.932 . S
H92 C135 0.930 . S
H93 C136 0.929 . S
H94 C138 0.931 . S
H95 C139 0.930 . S
H96 C141 0.929 . S
H97 C142 0.931 . S
H98 C144 0.930 . S
H99 C145 0.929 . S
O100 H74 0.856 . S
O100 C146 1.300 . S
O101 C146 1.209 . S
O102 C147 1.199 . S
O103 H75 0.854 . S
O103 C147 1.297 . S
C104 C105 1.404 . S
C104 C109 1.397 . S
C104 C110 1.492 . S
C105 C104 1.404 . S
C105 C106 1.396 . S
C105 C116 1.492 . S
C106 C105 1.396 . S
C106 C107 1.397 . S
C106 C122 1.509 . S
C107 C106 1.397 . S
C107 C108 1.412 . S
C107 C128 1.485 . S
C108 C107 1.412 . S
C108 C109 1.388 . S
C108 C134 1.490 . S
C109 C104 1.397 . S
C109 C108 1.388 . S
C109 C140 1.519 . S
C110 C104 1.492 . S
C110 C111 1.363 . S
C110 C115 1.390 . S
C111 H76 0.930 . S
C111 C110 1.363 . S
C111 C112 1.372 . S
C112 H77 0.930 . S
C112 C111 1.372 . S
C112 C113 1.383 . S
C113 C112 1.383 . S
C113 C114 1.395 . S
C114 H78 0.930 . S
C114 C113 1.395 . S
C114 C115 1.362 . S
C115 H79 0.930 . S
C115 C110 1.390 . S
C115 C114 1.362 . S
C116 C105 1.492 . S
C116 C117 1.377 . S
C116 C121 1.397 . S
C117 H80 0.931 . S
C117 C116 1.377 . S
C117 C118 1.376 . S
C118 H81 0.930 . S
C118 C117 1.376 . S
C118 C119 1.376 . S
C119 C118 1.376 . S
C119 C120 1.378 . S
C119 C146 1.486 . S
C120 H82 0.930 . S
C120 C119 1.378 . S
C120 C121 1.376 . S
C121 H83 0.929 . S
C121 C116 1.397 . S
C121 C120 1.376 . S
C122 C106 1.509 . S
C122 C123 1.391 . S
C122 C127 1.386 . S
C123 H84 0.930 . S
C123 C122 1.391 . S
C123 C124 1.375 . S
C124 H85 0.931 . S
C124 C123 1.375 . S
C124 C125 1.375 . S
C125 C124 1.375 . S
C125 C126 1.361 . S
C126 H86 0.930 . S
C126 C125 1.361 . S
C126 C127 1.399 . S
C127 H87 0.929 . S
C127 C122 1.386 . S
C127 C126 1.399 . S
C128 C107 1.485 . S
C128 C129 1.394 . S
C128 C133 1.360 . S
C129 H88 0.931 . S
C129 C128 1.394 . S
C129 C130 1.372 . S
C130 H89 0.930 . S
C130 C129 1.372 . S
C130 C131 1.397 1_565 S
C131 C130 1.397 1_545 S
C131 C132 1.390 1_545 S
C131 C147 1.476 . S
C132 H90 0.930 1_565 S
C132 C131 1.390 1_565 S
C132 C133 1.366 . S
C133 H91 0.932 . S
C133 C128 1.360 . S
C133 C132 1.366 . S
C134 C108 1.490 . S
C134 C135 1.380 . S
C134 C139 1.386 . S
C135 H92 0.930 . S
C135 C134 1.380 . S
C135 C136 1.381 . S
C136 H93 0.929 . S
C136 C135 1.381 . S
C136 C137 1.371 . S
C137 C136 1.371 . S
C137 C138 1.380 . S
C138 H94 0.931 . S
C138 C137 1.380 . S
C138 C139 1.387 . S
C139 H95 0.930 . S
C139 C134 1.386 . S
C139 C138 1.387 . S
C140 C109 1.519 . S
C140 C141 1.377 . S
C140 C145 1.361 . S
C141 H96 0.929 . S
C141 C140 1.377 . S
C141 C142 1.386 . S
C142 H97 0.931 . S
C142 C141 1.386 . S
C142 C143 1.363 . S
C143 C142 1.363 . S
C143 C144 1.385 . S
C144 H98 0.930 . S
C144 C143 1.385 . S
C144 C145 1.396 . S
C145 H99 0.929 . S
C145 C140 1.361 . S
C145 C144 1.396 . S
C146 O100 1.300 . S
C146 O101 1.209 . S
C146 C119 1.486 . S
C147 O102 1.199 . S
C147 O103 1.297 . S
C147 C131 1.476 . S
H148 O174 0.856 . S
H149 O177 0.854 . S
H150 C185 0.930 . S
H151 C186 0.930 . S
H152 C188 0.930 . S
H153 C189 0.930 . S
H154 C191 0.931 . S
H155 C192 0.930 . S
H156 C194 0.930 1_545 S
H157 C195 0.929 . S
H158 C197 0.930 . S
H159 C198 0.931 . S
H160 C200 0.930 . S
H161 C201 0.929 . S
H162 C203 0.931 . S
H163 C204 0.930 . S
H164 C206 0.930 . S
H165 C207 0.932 . S
H166 C209 0.930 . S
H167 C210 0.929 . S
H168 C212 0.931 . S
H169 C213 0.930 . S
H170 C215 0.929 . S
H171 C216 0.931 . S
H172 C218 0.930 . S
H173 C219 0.929 . S
O174 H148 0.856 . S
O174 C220 1.300 . S
O175 C220 1.209 . S
O176 C221 1.199 . S
O177 H149 0.854 . S
O177 C221 1.297 . S
C178 C179 1.404 . S
C178 C183 1.397 . S
C178 C184 1.492 . S
C179 C178 1.404 . S
C179 C180 1.396 . S
C179 C190 1.492 1_545 S
C180 C179 1.396 . S
C180 C181 1.397 . S
C180 C196 1.509 . S
C181 C180 1.397 . S
C181 C182 1.412 . S
C181 C202 1.485 . S
C182 C181 1.412 . S
C182 C183 1.388 . S
C182 C208 1.490 . S
C183 C178 1.397 . S
C183 C182 1.388 . S
C183 C214 1.519 . S
C184 C178 1.492 . S
C184 C185 1.363 1_545 S
C184 C189 1.390 . S
C185 H150 0.930 . S
C185 C184 1.363 1_565 S
C185 C186 1.372 . S
C186 H151 0.930 . S
C186 C185 1.372 . S
C186 C187 1.383 . S
C187 C186 1.383 . S
C187 C188 1.395 1_565 S
C188 H152 0.930 . S
C188 C187 1.395 1_545 S
C188 C189 1.362 . S
C189 H153 0.930 . S
C189 C184 1.390 . S
C189 C188 1.362 . S
C190 C179 1.492 1_565 S
C190 C191 1.377 . S
C190 C195 1.397 1_565 S
C191 H154 0.931 . S
C191 C190 1.377 . S
C191 C192 1.376 . S
C192 H155 0.930 . S
C192 C191 1.376 . S
C192 C193 1.376 . S
C193 C192 1.376 . S
C193 C194 1.378 . S
C193 C220 1.486 . S
C194 H156 0.930 1_565 S
C194 C193 1.378 . S
C194 C195 1.376 1_565 S
C195 H157 0.929 . S
C195 C190 1.397 1_545 S
C195 C194 1.376 1_545 S
C196 C180 1.509 . S
C196 C197 1.391 1_545 S
C196 C201 1.386 . S
C197 H158 0.930 . S
C197 C196 1.391 1_565 S
C197 C198 1.375 . S
C198 H159 0.931 . S
C198 C197 1.375 . S
C198 C199 1.375 . S
C199 C198 1.375 . S
C199 C200 1.361 1_565 S
C200 H160 0.930 . S
C200 C199 1.361 1_545 S
C200 C201 1.399 . S
C201 H161 0.929 . S
C201 C196 1.386 . S
C201 C200 1.399 . S
C202 C181 1.485 . S
C202 C203 1.394 . S
C202 C207 1.360 . S
C203 H162 0.931 . S
C203 C202 1.394 . S
C203 C204 1.372 . S
C204 H163 0.930 . S
C204 C203 1.372 . S
C204 C205 1.397 . S
C205 C204 1.397 . S
C205 C206 1.390 . S
C205 C221 1.476 . S
C206 H164 0.930 . S
C206 C205 1.390 . S
C206 C207 1.366 . S
C207 H165 0.932 . S
C207 C202 1.360 . S
C207 C206 1.366 . S
C208 C182 1.490 . S
C208 C209 1.380 . S
C208 C213 1.386 . S
C209 H166 0.930 . S
C209 C208 1.380 . S
C209 C210 1.381 1_554 S
C210 H167 0.929 . S
C210 C209 1.381 1_556 S
C210 C211 1.371 . S
C211 C210 1.371 . S
C211 C212 1.380 1_556 S
C212 H168 0.931 . S
C212 C211 1.380 1_554 S
C212 C213 1.387 . S
C213 H169 0.930 . S
C213 C208 1.386 . S
C213 C212 1.387 . S
C214 C183 1.519 . S
C214 C215 1.377 . S
C214 C219 1.361 . S
C215 H170 0.929 . S
C215 C214 1.377 . S
C215 C216 1.386 . S
C216 H171 0.931 . S
C216 C215 1.386 . S
C216 C217 1.363 . S
C217 C216 1.363 . S
C217 C218 1.385 . S
C218 H172 0.930 . S
C218 C217 1.385 . S
C218 C219 1.396 . S
C219 H173 0.929 . S
C219 C214 1.361 . S
C219 C218 1.396 . S
C220 O174 1.300 . S
C220 O175 1.209 . S
C220 C193 1.486 . S
C221 O176 1.199 . S
C221 O177 1.297 . S
C221 C205 1.476 . S
H222 O248 0.856 . S
H223 O251 0.854 . S
H224 C259 0.930 . S
H225 C260 0.930 . S
H226 C262 0.930 . S
H227 C263 0.930 . S
H228 C265 0.931 . S
H229 C266 0.930 . S
H230 C268 0.930 . S
H231 C269 0.929 . S
H232 C271 0.930 . S
H233 C272 0.931 . S
H234 C274 0.930 . S
H235 C275 0.929 . S
H236 C277 0.931 . S
H237 C278 0.930 . S
H238 C280 0.930 . S
H239 C281 0.932 . S
H240 C283 0.930 . S
H241 C284 0.929 . S
H242 C286 0.931 . S
H243 C287 0.930 . S
H244 C289 0.929 . S
H245 C290 0.931 . S
H246 C292 0.930 . S
H247 C293 0.929 . S
O248 H222 0.856 . S
O248 C294 1.300 . S
O249 C294 1.209 . S
O250 C295 1.199 . S
O251 H223 0.854 . S
O251 C295 1.297 . S
C252 C253 1.404 . S
C252 C257 1.397 . S
C252 C258 1.492 . S
C253 C252 1.404 . S
C253 C254 1.396 . S
C253 C264 1.492 . S
C254 C253 1.396 . S
C254 C255 1.397 . S
C254 C270 1.509 . S
C255 C254 1.397 . S
C255 C256 1.412 . S
C255 C276 1.485 . S
C256 C255 1.412 . S
C256 C257 1.388 . S
C256 C282 1.490 . S
C257 C252 1.397 . S
C257 C256 1.388 . S
C257 C288 1.519 . S
C258 C252 1.492 . S
C258 C259 1.363 . S
C258 C263 1.390 . S
C259 H224 0.930 . S
C259 C258 1.363 . S
C259 C260 1.372 . S
C260 H225 0.930 . S
C260 C259 1.372 . S
C260 C261 1.383 . S
C261 C260 1.383 . S
C261 C262 1.395 . S
C262 H226 0.930 . S
C262 C261 1.395 . S
C262 C263 1.362 . S
C263 H227 0.930 . S
C263 C258 1.390 . S
C263 C262 1.362 . S
C264 C253 1.492 . S
C264 C265 1.377 . S
C264 C269 1.397 . S
C265 H228 0.931 . S
C265 C264 1.377 . S
C265 C266 1.376 . S
C266 H229 0.930 . S
C266 C265 1.376 . S
C266 C267 1.376 . S
C267 C266 1.376 . S
C267 C268 1.378 . S
C267 C294 1.486 . S
C268 H230 0.930 . S
C268 C267 1.378 . S
C268 C269 1.376 . S
C269 H231 0.929 . S
C269 C264 1.397 . S
C269 C268 1.376 . S
C270 C254 1.509 . S
C270 C271 1.391 . S
C270 C275 1.386 . S
C271 H232 0.930 . S
C271 C270 1.391 . S
C271 C272 1.375 . S
C272 H233 0.931 . S
C272 C271 1.375 . S
C272 C273 1.375 . S
C273 C272 1.375 . S
C273 C274 1.361 . S
C274 H234 0.930 . S
C274 C273 1.361 . S
C274 C275 1.399 . S
C275 H235 0.929 . S
C275 C270 1.386 . S
C275 C274 1.399 . S
C276 C255 1.485 . S
C276 C277 1.394 . S
C276 C281 1.360 . S
C277 H236 0.931 . S
C277 C276 1.394 . S
C277 C278 1.372 . S
C278 H237 0.930 . S
C278 C277 1.372 . S
C278 C279 1.397 . S
C279 C278 1.397 . S
C279 C280 1.390 . S
C279 C295 1.476 . S
C280 H238 0.930 . S
C280 C279 1.390 . S
C280 C281 1.366 . S
C281 H239 0.932 . S
C281 C276 1.360 . S
C281 C280 1.366 . S
C282 C256 1.490 . S
C282 C283 1.380 . S
C282 C287 1.386 . S
C283 H240 0.930 . S
C283 C282 1.380 . S
C283 C284 1.381 . S
C284 H241 0.929 . S
C284 C283 1.381 . S
C284 C285 1.371 . S
C285 C284 1.371 . S
C285 C286 1.380 . S
C286 H242 0.931 . S
C286 C285 1.380 . S
C286 C287 1.387 . S
C287 H243 0.930 . S
C287 C282 1.386 . S
C287 C286 1.387 . S
C288 C257 1.519 . S
C288 C289 1.377 . S
C288 C293 1.361 . S
C289 H244 0.929 . S
C289 C288 1.377 . S
C289 C290 1.386 . S
C290 H245 0.931 . S
C290 C289 1.386 . S
C290 C291 1.363 . S
C291 C290 1.363 . S
C291 C292 1.385 . S
C292 H246 0.930 . S
C292 C291 1.385 . S
C292 C293 1.396 . S
C293 H247 0.929 . S
C293 C288 1.361 . S
C293 C292 1.396 . S
C294 O248 1.300 . S
C294 O249 1.209 . S
C294 C267 1.486 . S
C295 O250 1.199 . S
C295 O251 1.297 . S
C295 C279 1.476 . S
H296 O322 0.856 . S
H297 O325 0.854 . S
H298 C333 0.930 . S
H299 C334 0.930 . S
H300 C336 0.930 . S
H301 C337 0.930 . S
H302 C339 0.931 . S
H303 C340 0.930 . S
H304 C342 0.930 . S
H305 C343 0.929 . S
H306 C345 0.930 . S
H307 C346 0.931 . S
H308 C348 0.930 . S
H309 C349 0.929 . S
H310 C351 0.931 . S
H311 C352 0.930 . S
H312 C354 0.930 . S
H313 C355 0.932 . S
H314 C357 0.930 . S
H315 C358 0.929 . S
H316 C360 0.931 . S
H317 C361 0.930 . S
H318 C363 0.929 . S
H319 C364 0.931 . S
H320 C366 0.930 . S
H321 C367 0.929 . S
O322 H296 0.856 . S
O322 C368 1.300 . S
O323 C368 1.209 . S
O324 C369 1.199 . S
O325 H297 0.854 . S
O325 C369 1.297 . S
C326 C327 1.404 . S
C326 C331 1.397 . S
C326 C332 1.492 . S
C327 C326 1.404 . S
C327 C328 1.396 . S
C327 C338 1.492 . S
C328 C327 1.396 . S
C328 C329 1.397 . S
C328 C344 1.509 . S
C329 C328 1.397 . S
C329 C330 1.412 . S
C329 C350 1.485 . S
C330 C329 1.412 . S
C330 C331 1.388 . S
C330 C356 1.490 . S
C331 C326 1.397 . S
C331 C330 1.388 . S
C331 C362 1.519 . S
C332 C326 1.492 . S
C332 C333 1.363 . S
C332 C337 1.390 . S
C333 H298 0.930 . S
C333 C332 1.363 . S
C333 C334 1.372 . S
C334 H299 0.930 . S
C334 C333 1.372 . S
C334 C335 1.383 . S
C335 C334 1.383 . S
C335 C336 1.395 . S
C336 H300 0.930 . S
C336 C335 1.395 . S
C336 C337 1.362 . S
C337 H301 0.930 . S
C337 C332 1.390 . S
C337 C336 1.362 . S
C338 C327 1.492 . S
C338 C339 1.377 . S
C338 C343 1.397 . S
C339 H302 0.931 . S
C339 C338 1.377 . S
C339 C340 1.376 . S
C340 H303 0.930 . S
C340 C339 1.376 . S
C340 C341 1.376 . S
C341 C340 1.376 . S
C341 C342 1.378 . S
C341 C368 1.486 . S
C342 H304 0.930 . S
C342 C341 1.378 . S
C342 C343 1.376 . S
C343 H305 0.929 . S
C343 C338 1.397 . S
C343 C342 1.376 . S
C344 C328 1.509 . S
C344 C345 1.391 . S
C344 C349 1.386 . S
C345 H306 0.930 . S
C345 C344 1.391 . S
C345 C346 1.375 . S
C346 H307 0.931 . S
C346 C345 1.375 . S
C346 C347 1.375 . S
C347 C346 1.375 . S
C347 C348 1.361 . S
C348 H308 0.930 . S
C348 C347 1.361 . S
C348 C349 1.399 . S
C349 H309 0.929 . S
C349 C344 1.386 . S
C349 C348 1.399 . S
C350 C329 1.485 . S
C350 C351 1.394 . S
C350 C355 1.360 . S
C351 H310 0.931 . S
C351 C350 1.394 . S
C351 C352 1.372 . S
C352 H311 0.930 . S
C352 C351 1.372 . S
C352 C353 1.397 . S
C353 C352 1.397 . S
C353 C354 1.390 . S
C353 C369 1.476 . S
C354 H312 0.930 . S
C354 C353 1.390 . S
C354 C355 1.366 . S
C355 H313 0.932 . S
C355 C350 1.360 . S
C355 C354 1.366 . S
C356 C330 1.490 . S
C356 C357 1.380 . S
C356 C361 1.386 . S
C357 H314 0.930 . S
C357 C356 1.380 . S
C357 C358 1.381 . S
C358 H315 0.929 . S
C358 C357 1.381 . S
C358 C359 1.371 . S
C359 C358 1.371 . S
C359 C360 1.380 . S
C360 H316 0.931 . S
C360 C359 1.380 . S
C360 C361 1.387 . S
C361 H317 0.930 . S
C361 C356 1.386 . S
C361 C360 1.387 . S
C362 C331 1.519 . S
C362 C363 1.377 . S
C362 C367 1.361 . S
C363 H318 0.929 . S
C363 C362 1.377 . S
C363 C364 1.386 . S
C364 H319 0.931 . S
C364 C363 1.386 . S
C364 C365 1.363 . S
C365 C364 1.363 . S
C365 C366 1.385 . S
C366 H320 0.930 . S
C366 C365 1.385 . S
C366 C367 1.396 . S
C367 H321 0.929 . S
C367 C362 1.361 . S
C367 C366 1.396 . S
C368 O322 1.300 . S
C368 O323 1.209 . S
C368 C341 1.486 . S
C369 O324 1.199 . S
C369 O325 1.297 . S
C369 C353 1.476 . S
H370 O396 0.856 . S
H371 O399 0.854 . S
H372 C407 0.930 . S
H373 C408 0.930 . S
H374 C410 0.930 . S
H375 C411 0.930 . S
H376 C413 0.931 . S
H377 C414 0.930 . S
H378 C416 0.930 . S
H379 C417 0.929 . S
H380 C419 0.930 . S
H381 C420 0.931 . S
H382 C422 0.930 . S
H383 C423 0.929 . S
H384 C425 0.931 . S
H385 C426 0.930 . S
H386 C428 0.930 . S
H387 C429 0.932 . S
H388 C431 0.930 . S
H389 C432 0.929 . S
H390 C434 0.931 . S
H391 C435 0.930 . S
H392 C437 0.929 . S
H393 C438 0.931 . S
H394 C440 0.930 . S
H395 C441 0.929 . S
O396 H370 0.856 . S
O396 C442 1.300 . S
O397 C442 1.209 . S
O398 C443 1.199 . S
O399 H371 0.854 . S
O399 C443 1.297 . S
C400 C401 1.404 . S
C400 C405 1.397 . S
C400 C406 1.492 . S
C401 C400 1.404 . S
C401 C402 1.396 . S
C401 C412 1.492 . S
C402 C401 1.396 . S
C402 C403 1.397 . S
C402 C418 1.509 . S
C403 C402 1.397 . S
C403 C404 1.412 . S
C403 C424 1.485 . S
C404 C403 1.412 . S
C404 C405 1.388 . S
C404 C430 1.490 . S
C405 C400 1.397 . S
C405 C404 1.388 . S
C405 C436 1.519 . S
C406 C400 1.492 . S
C406 C407 1.363 . S
C406 C411 1.390 . S
C407 H372 0.930 . S
C407 C406 1.363 . S
C407 C408 1.372 . S
C408 H373 0.930 . S
C408 C407 1.372 . S
C408 C409 1.383 . S
C409 C408 1.383 . S
C409 C410 1.395 . S
C410 H374 0.930 . S
C410 C409 1.395 . S
C410 C411 1.362 . S
C411 H375 0.930 . S
C411 C406 1.390 . S
C411 C410 1.362 . S
C412 C401 1.492 . S
C412 C413 1.377 . S
C412 C417 1.397 . S
C413 H376 0.931 . S
C413 C412 1.377 . S
C413 C414 1.376 . S
C414 H377 0.930 . S
C414 C413 1.376 . S
C414 C415 1.376 . S
C415 C414 1.376 . S
C415 C416 1.378 . S
C415 C442 1.486 . S
C416 H378 0.930 . S
C416 C415 1.378 . S
C416 C417 1.376 . S
C417 H379 0.929 . S
C417 C412 1.397 . S
C417 C416 1.376 . S
C418 C402 1.509 . S
C418 C419 1.391 . S
C418 C423 1.386 . S
C419 H380 0.930 . S
C419 C418 1.391 . S
C419 C420 1.375 . S
C420 H381 0.931 . S
C420 C419 1.375 . S
C420 C421 1.375 . S
C421 C420 1.375 . S
C421 C422 1.361 . S
C422 H382 0.930 . S
C422 C421 1.361 . S
C422 C423 1.399 . S
C423 H383 0.929 . S
C423 C418 1.386 . S
C423 C422 1.399 . S
C424 C403 1.485 . S
C424 C425 1.394 . S
C424 C429 1.360 . S
C425 H384 0.931 . S
C425 C424 1.394 . S
C425 C426 1.372 . S
C426 H385 0.930 . S
C426 C425 1.372 . S
C426 C427 1.397 . S
C427 C426 1.397 . S
C427 C428 1.390 . S
C427 C443 1.476 . S
C428 H386 0.930 . S
C428 C427 1.390 . S
C428 C429 1.366 . S
C429 H387 0.932 . S
C429 C424 1.360 . S
C429 C428 1.366 . S
C430 C404 1.490 . S
C430 C431 1.380 . S
C430 C435 1.386 . S
C431 H388 0.930 . S
C431 C430 1.380 . S
C431 C432 1.381 . S
C432 H389 0.929 . S
C432 C431 1.381 . S
C432 C433 1.371 . S
C433 C432 1.371 . S
C433 C434 1.380 . S
C434 H390 0.931 . S
C434 C433 1.380 . S
C434 C435 1.387 . S
C435 H391 0.930 . S
C435 C430 1.386 . S
C435 C434 1.387 . S
C436 C405 1.519 . S
C436 C437 1.377 . S
C436 C441 1.361 . S
C437 H392 0.929 . S
C437 C436 1.377 . S
C437 C438 1.386 . S
C438 H393 0.931 . S
C438 C437 1.386 . S
C438 C439 1.363 . S
C439 C438 1.363 . S
C439 C440 1.385 . S
C440 H394 0.930 . S
C440 C439 1.385 . S
C440 C441 1.396 . S
C441 H395 0.929 . S
C441 C436 1.361 . S
C441 C440 1.396 . S
C442 O396 1.300 . S
C442 O397 1.209 . S
C442 C415 1.486 . S
C443 O398 1.199 . S
C443 O399 1.297 . S
C443 C427 1.476 . S
H444 O470 0.856 . S
H445 O473 0.854 . S
H446 C481 0.930 . S
H447 C482 0.947 . S
H448 C484 0.930 . S
H449 C485 0.930 . S
H450 C487 0.931 . S
H451 C488 0.930 . S
H452 C490 0.930 . S
H453 C491 0.929 . S
H454 C493 0.930 . S
H455 C494 0.931 . S
H456 C496 0.930 . S
H457 C497 0.929 . S
H458 C499 0.931 . S
H459 C500 0.930 . S
H460 C502 0.930 . S
H461 C503 0.932 . S
H462 C505 0.930 . S
H463 C506 0.929 . S
H464 C508 0.931 . S
H465 C509 0.930 . S
H466 C511 0.929 . S
H467 C512 0.931 . S
H468 C514 0.930 . S
H469 C515 0.929 . S
O470 H444 0.856 . S
O470 C516 1.300 . S
O471 C516 1.209 . S
O472 C517 1.199 . S
O473 H445 0.854 . S
O473 C517 1.297 . S
C474 C475 1.404 . S
C474 C479 1.397 . S
C474 C480 1.492 . S
C475 C474 1.404 . S
C475 C476 1.396 . S
C475 C486 1.492 . S
C476 C475 1.396 . S
C476 C477 1.397 . S
C476 C492 1.509 . S
C477 C476 1.397 . S
C477 C478 1.412 . S
C477 C498 1.485 . S
C478 C477 1.412 . S
C478 C479 1.388 . S
C478 C504 1.490 . S
C479 C474 1.397 . S
C479 C478 1.388 . S
C479 C510 1.519 . S
C480 C474 1.492 . S
C480 C481 1.363 . S
C480 C485 1.390 . S
C481 H446 0.930 . S
C481 C480 1.363 . S
C481 C482 1.372 . S
C482 H447 0.947 . S
C482 C481 1.372 . S
C482 C483 1.383 . S
C483 C482 1.383 . S
C483 C484 1.395 . S
C484 H448 0.930 . S
C484 C483 1.395 . S
C484 C485 1.362 . S
C485 H449 0.930 . S
C485 C480 1.390 . S
C485 C484 1.362 . S
C486 C475 1.492 . S
C486 C487 1.377 1_554 S
C486 C491 1.397 . S
C487 H450 0.931 . S
C487 C486 1.377 1_556 S
C487 C488 1.376 . S
C488 H451 0.930 . S
C488 C487 1.376 . S
C488 C489 1.376 . S
C489 C488 1.376 . S
C489 C490 1.378 . S
C489 C516 1.486 . S
C490 H452 0.930 . S
C490 C489 1.378 . S
C490 C491 1.376 1_556 S
C491 H453 0.929 . S
C491 C486 1.397 . S
C491 C490 1.376 1_554 S
C492 C476 1.509 . S
C492 C493 1.391 . S
C492 C497 1.386 . S
C493 H454 0.930 . S
C493 C492 1.391 . S
C493 C494 1.375 1_554 S
C494 H455 0.931 . S
C494 C493 1.375 1_556 S
C494 C495 1.375 . S
C495 C494 1.375 . S
C495 C496 1.361 1_556 S
C496 H456 0.930 . S
C496 C495 1.361 1_554 S
C496 C497 1.399 . S
C497 H457 0.929 . S
C497 C492 1.386 . S
C497 C496 1.399 . S
C498 C477 1.485 . S
C498 C499 1.394 . S
C498 C503 1.360 . S
C499 H458 0.931 . S
C499 C498 1.394 . S
C499 C500 1.372 . S
C500 H459 0.930 . S
C500 C499 1.372 . S
C500 C501 1.397 . S
C501 C500 1.397 . S
C501 C502 1.390 . S
C501 C517 1.476 . S
C502 H460 0.930 . S
C502 C501 1.390 . S
C502 C503 1.366 . S
C503 H461 0.932 . S
C503 C498 1.360 . S
C503 C502 1.366 . S
C504 C478 1.490 . S
C504 C505 1.380 . S
C504 C509 1.386 . S
C505 H462 0.930 . S
C505 C504 1.380 . S
C505 C506 1.381 . S
C506 H463 0.929 . S
C506 C505 1.381 . S
C506 C507 1.371 . S
C507 C506 1.371 . S
C507 C508 1.380 . S
C508 H464 0.931 . S
C508 C507 1.380 . S
C508 C509 1.387 . S
C509 H465 0.930 . S
C509 C504 1.386 . S
C509 C508 1.387 . S
C510 C479 1.519 . S
C510 C511 1.377 . S
C510 C515 1.361 . S
C511 H466 0.929 . S
C511 C510 1.377 . S
C511 C512 1.386 . S
C512 H467 0.931 . S
C512 C511 1.386 . S
C512 C513 1.363 . S
C513 C512 1.363 . S
C513 C514 1.385 . S
C514 H468 0.930 . S
C514 C513 1.385 . S
C514 C515 1.396 . S
C515 H469 0.929 . S
C515 C510 1.361 . S
C515 C514 1.396 . S
C516 O470 1.300 . S
C516 O471 1.209 . S
C516 C489 1.486 . S
C517 O472 1.199 . S
C517 O473 1.297 . S
C517 C501 1.476 . S
H518 O544 0.861 . S
H519 O547 0.854 . S
H520 C555 0.930 . S
H521 C556 0.930 . S
H522 C558 0.930 . S
H523 C559 0.930 . S
H524 C561 0.931 . S
H525 C562 0.930 . S
H526 C564 0.930 . S
H527 C565 0.929 . S
H528 C567 0.930 . S
H529 C568 0.931 . S
H530 C570 0.930 . S
H531 C571 0.929 . S
H532 C573 0.931 . S
H533 C574 0.930 . S
H534 C576 0.930 . S
H535 C577 0.932 . S
H536 C579 0.930 . S
H537 C580 0.929 . S
H538 C582 0.931 . S
H539 C583 0.930 . S
H540 C585 0.929 . S
H541 C586 0.931 . S
H542 C588 0.930 . S
H543 C589 0.929 1_455 S
O544 H518 0.861 . S
O544 C590 1.300 1_455 S
O545 C590 1.209 . S
O546 C591 1.199 . S
O547 H519 0.854 . S
O547 C591 1.297 . S
C548 C549 1.404 . S
C548 C553 1.397 . S
C548 C554 1.492 1_455 S
C549 C548 1.404 . S
C549 C550 1.396 . S
C549 C560 1.492 . S
C550 C549 1.396 . S
C550 C551 1.397 . S
C550 C566 1.509 . S
C551 C550 1.397 . S
C551 C552 1.412 . S
C551 C572 1.485 . S
C552 C551 1.412 . S
C552 C553 1.388 . S
C552 C578 1.490 . S
C553 C548 1.397 . S
C553 C552 1.388 . S
C553 C584 1.519 1_455 S
C554 C548 1.492 1_655 S
C554 C555 1.363 . S
C554 C559 1.390 . S
C555 H520 0.930 . S
C555 C554 1.363 . S
C555 C556 1.372 . S
C556 H521 0.930 . S
C556 C555 1.372 . S
C556 C557 1.383 . S
C557 C556 1.383 . S
C557 C558 1.395 . S
C558 H522 0.930 . S
C558 C557 1.395 . S
C558 C559 1.362 . S
C559 H523 0.930 . S
C559 C554 1.390 . S
C559 C558 1.362 . S
C560 C549 1.492 . S
C560 C561 1.377 . S
C560 C565 1.397 . S
C561 H524 0.931 . S
C561 C560 1.377 . S
C561 C562 1.376 . S
C562 H525 0.930 . S
C562 C561 1.376 . S
C562 C563 1.376 . S
C563 C562 1.376 . S
C563 C564 1.378 1_455 S
C563 C590 1.486 1_455 S
C564 H526 0.930 . S
C564 C563 1.378 1_655 S
C564 C565 1.376 1_655 S
C565 H527 0.929 . S
C565 C560 1.397 . S
C565 C564 1.376 1_455 S
C566 C550 1.509 . S
C566 C567 1.391 . S
C566 C571 1.386 . S
C567 H528 0.930 . S
C567 C566 1.391 . S
C567 C568 1.375 . S
C568 H529 0.931 . S
C568 C567 1.375 . S
C568 C569 1.375 . S
C569 C568 1.375 . S
C569 C570 1.361 . S
C570 H530 0.930 . S
C570 C569 1.361 . S
C570 C571 1.399 . S
C571 H531 0.929 . S
C571 C566 1.386 . S
C571 C570 1.399 . S
C572 C551 1.485 . S
C572 C573 1.394 . S
C572 C577 1.360 . S
C573 H532 0.931 . S
C573 C572 1.394 . S
C573 C574 1.372 . S
C574 H533 0.930 . S
C574 C573 1.372 . S
C574 C575 1.397 . S
C575 C574 1.397 . S
C575 C576 1.390 . S
C575 C591 1.476 . S
C576 H534 0.930 . S
C576 C575 1.390 . S
C576 C577 1.366 . S
C577 H535 0.932 . S
C577 C572 1.360 . S
C577 C576 1.366 . S
C578 C552 1.490 . S
C578 C579 1.380 . S
C578 C583 1.386 . S
C579 H536 0.930 . S
C579 C578 1.380 . S
C579 C580 1.381 . S
C580 H537 0.929 . S
C580 C579 1.381 . S
C580 C581 1.371 . S
C581 C580 1.371 . S
C581 C582 1.380 . S
C582 H538 0.931 . S
C582 C581 1.380 . S
C582 C583 1.387 . S
C583 H539 0.930 . S
C583 C578 1.386 . S
C583 C582 1.387 . S
C584 C553 1.519 1_655 S
C584 C585 1.377 . S
C584 C589 1.361 . S
C585 H540 0.929 . S
C585 C584 1.377 . S
C585 C586 1.386 . S
C586 H541 0.931 . S
C586 C585 1.386 . S
C586 C587 1.363 . S
C587 C586 1.363 . S
C587 C588 1.385 . S
C588 H542 0.930 . S
C588 C587 1.385 . S
C588 C589 1.396 . S
C589 H543 0.929 1_655 S
C589 C584 1.361 . S
C589 C588 1.396 . S
C590 O544 1.300 1_655 S
C590 O545 1.209 . S
C590 C563 1.486 1_655 S
C591 O546 1.199 . S
C591 O547 1.297 . S
C591 C575 1.476 . S
Fe592 O593 1.886 . S
Fe592 O596 1.715 1_455 S
Fe592 O601 2.077 . S
Fe592 O606 1.935 1_455 S
Fe592 O612 2.077 . S
Fe592 O621 1.935 1_455 S
O593 Fe592 1.886 . S
O593 Fe595 1.715 . S
Fe594 O596 1.886 . S
Fe594 O597 1.715 . S
Fe594 O604 1.935 . S
Fe594 O605 2.077 . S
Fe594 O611 1.935 . S
Fe594 O620 2.077 . S
Fe595 O593 1.715 . S
Fe595 O598 1.886 . S
Fe595 O602 1.935 . S
Fe595 O607 2.077 . S
Fe595 O613 1.935 . S
Fe595 O617 2.077 . S
O596 Fe592 1.715 1_655 S
O596 Fe594 1.886 . S
O597 Fe594 1.715 . S
O597 Fe599 1.886 1_655 S
O598 Fe595 1.886 . S
O598 Fe599 1.715 . S
Fe599 O597 1.886 1_455 S
Fe599 O598 1.715 . S
Fe599 O603 2.077 1_455 S
Fe599 O608 1.935 . S
Fe599 O610 2.077 1_455 S
Fe599 O618 1.935 . S
C600 O612 1.381 . S
C600 O613 1.421 . S
O601 Fe592 2.077 . S
O601 C614 1.381 . S
O602 Fe595 1.935 . S
O602 C614 1.421 . S
O603 Fe599 2.077 1_655 S
O603 C619 1.381 . S
O604 Fe594 1.935 . S
O604 C619 1.421 . S
O605 Fe594 2.077 . S
O605 C609 1.381 . S
O606 Fe592 1.935 1_655 S
O606 C609 1.421 . S
O607 Fe595 2.077 . S
O607 C615 1.381 . S
O608 Fe599 1.935 . S
O608 C615 1.421 . S
C609 O605 1.381 . S
C609 O606 1.421 . S
O610 Fe599 2.077 1_655 S
O610 C622 1.381 . S
O611 Fe594 1.935 . S
O611 C622 1.421 . S
O612 Fe592 2.077 . S
O612 C600 1.381 . S
O613 Fe595 1.935 . S
O613 C600 1.421 . S
C614 O601 1.381 . S
C614 O602 1.421 . S
C615 O607 1.381 . S
C615 O608 1.421 . S
C616 O617 1.381 . S
C616 O618 1.421 . S
O617 Fe595 2.077 . S
O617 C616 1.381 . S
O618 Fe599 1.935 . S
O618 C616 1.421 . S
C619 O603 1.381 . S
C619 O604 1.421 . S
O620 Fe594 2.077 . S
O620 C623 1.381 . S
O621 Fe592 1.935 1_655 S
O621 C623 1.421 . S
C622 O610 1.381 . S
C622 O611 1.421 . S
C623 O620 1.381 . S
C623 O621 1.421 . S
Fe624 O625 1.886 . S
Fe624 O628 1.715 . S
Fe624 O633 2.077 . S
Fe624 O638 1.935 . S
Fe624 O644 2.077 . S
Fe624 O653 1.935 . S
O625 Fe624 1.886 . S
O625 Fe627 1.715 . S
Fe626 O628 1.886 . S
Fe626 O629 1.715 . S
Fe626 O636 1.935 . S
Fe626 O637 2.077 . S
Fe626 O643 1.935 . S
Fe626 O652 2.077 . S
Fe627 O625 1.715 . S
Fe627 O630 1.886 . S
Fe627 O634 1.935 . S
Fe627 O639 2.077 . S
Fe627 O645 1.935 . S
Fe627 O649 2.077 . S
O628 Fe624 1.715 . S
O628 Fe626 1.886 . S
O629 Fe626 1.715 . S
O629 Fe631 1.886 . S
O630 Fe627 1.886 . S
O630 Fe631 1.715 . S
Fe631 O629 1.886 . S
Fe631 O630 1.715 . S
Fe631 O635 2.077 . S
Fe631 O640 1.935 . S
Fe631 O642 2.077 . S
Fe631 O650 1.935 . S
C632 O644 1.381 . S
C632 O645 1.421 . S
O633 Fe624 2.077 . S
O633 C646 1.381 . S
O634 Fe627 1.935 . S
O634 C646 1.421 . S
O635 Fe631 2.077 . S
O635 C651 1.381 . S
O636 Fe626 1.935 . S
O636 C651 1.421 . S
O637 Fe626 2.077 . S
O637 C641 1.381 . S
O638 Fe624 1.935 . S
O638 C641 1.421 . S
O639 Fe627 2.077 . S
O639 C647 1.381 . S
O640 Fe631 1.935 . S
O640 C647 1.421 . S
C641 O637 1.381 . S
C641 O638 1.421 . S
O642 Fe631 2.077 . S
O642 C654 1.381 . S
O643 Fe626 1.935 . S
O643 C654 1.421 . S
O644 Fe624 2.077 . S
O644 C632 1.381 . S
O645 Fe627 1.935 . S
O645 C632 1.421 . S
C646 O633 1.381 . S
C646 O634 1.421 . S
C647 O639 1.381 . S
C647 O640 1.421 . S
C648 O649 1.381 . S
C648 O650 1.421 . S
O649 Fe627 2.077 . S
O649 C648 1.381 . S
O650 Fe631 1.935 . S
O650 C648 1.421 . S
C651 O635 1.381 . S
C651 O636 1.421 . S
O652 Fe626 2.077 . S
O652 C655 1.381 . S
O653 Fe624 1.935 . S
O653 C655 1.421 . S
C654 O642 1.381 . S
C654 O643 1.421 . S
C655 O652 1.381 . S
C655 O653 1.421 . S
Fe656 O657 1.886 . S
Fe656 O660 1.715 . S
Fe656 O665 2.077 . S
Fe656 O670 1.935 . S
Fe656 O676 2.077 . S
Fe656 O685 1.935 . S
O657 Fe656 1.886 . S
O657 Fe659 1.715 . S
Fe658 O660 1.886 . S
Fe658 O661 1.715 . S
Fe658 O668 1.935 . S
Fe658 O669 2.077 . S
Fe658 O675 1.935 . S
Fe658 O684 2.077 . S
Fe659 O657 1.715 . S
Fe659 O662 1.886 . S
Fe659 O666 1.935 . S
Fe659 O671 2.077 . S
Fe659 O677 1.935 . S
Fe659 O681 2.077 . S
O660 Fe656 1.715 . S
O660 Fe658 1.886 . S
O661 Fe658 1.715 . S
O661 Fe663 1.886 . S
O662 Fe659 1.886 . S
O662 Fe663 1.715 . S
Fe663 O661 1.886 . S
Fe663 O662 1.715 . S
Fe663 O667 2.077 . S
Fe663 O672 1.935 . S
Fe663 O674 2.077 . S
Fe663 O682 1.935 . S
C664 O676 1.381 . S
C664 O677 1.421 . S
O665 Fe656 2.077 . S
O665 C678 1.381 . S
O666 Fe659 1.935 . S
O666 C678 1.421 . S
O667 Fe663 2.077 . S
O667 C683 1.381 . S
O668 Fe658 1.935 . S
O668 C683 1.421 . S
O669 Fe658 2.077 . S
O669 C673 1.381 . S
O670 Fe656 1.935 . S
O670 C673 1.421 . S
O671 Fe659 2.077 . S
O671 C679 1.381 . S
O672 Fe663 1.935 . S
O672 C679 1.421 . S
C673 O669 1.381 . S
C673 O670 1.421 . S
O674 Fe663 2.077 . S
O674 C686 1.381 . S
O675 Fe658 1.935 . S
O675 C686 1.421 . S
O676 Fe656 2.077 . S
O676 C664 1.381 . S
O677 Fe659 1.935 . S
O677 C664 1.421 . S
C678 O665 1.381 . S
C678 O666 1.421 . S
C679 O671 1.381 . S
C679 O672 1.421 . S
C680 O681 1.381 . S
C680 O682 1.421 . S
O681 Fe659 2.077 . S
O681 C680 1.381 . S
O682 Fe663 1.935 . S
O682 C680 1.421 . S
C683 O667 1.381 . S
C683 O668 1.421 . S
O684 Fe658 2.077 . S
O684 C687 1.381 . S
O685 Fe656 1.935 . S
O685 C687 1.421 . S
C686 O674 1.381 . S
C686 O675 1.421 . S
C687 O684 1.381 . S
C687 O685 1.421 . S
Fe688 O689 1.886 . S
Fe688 O692 1.715 . S
Fe688 O697 2.077 1_455 S
Fe688 O702 1.935 1_455 S
Fe688 O708 2.077 . S
Fe688 O717 1.935 . S
O689 Fe688 1.886 . S
O689 Fe691 1.715 . S
Fe690 O692 1.886 . S
Fe690 O693 1.715 . S
Fe690 O700 1.935 1_455 S
Fe690 O701 2.077 1_455 S
Fe690 O707 1.935 . S
Fe690 O716 2.077 . S
Fe691 O689 1.715 . S
Fe691 O694 1.886 . S
Fe691 O698 1.935 1_455 S
Fe691 O703 2.077 1_455 S
Fe691 O709 1.935 . S
Fe691 O713 2.077 . S
O692 Fe688 1.715 . S
O692 Fe690 1.886 . S
O693 Fe690 1.715 . S
O693 Fe695 1.886 . S
O694 Fe691 1.886 . S
O694 Fe695 1.715 . S
Fe695 O693 1.886 . S
Fe695 O694 1.715 . S
Fe695 O699 2.077 1_455 S
Fe695 O704 1.935 1_455 S
Fe695 O706 2.077 . S
Fe695 O714 1.935 . S
C696 O708 1.381 . S
C696 O709 1.421 . S
O697 Fe688 2.077 1_655 S
O697 C710 1.381 . S
O698 Fe691 1.935 1_655 S
O698 C710 1.421 . S
O699 Fe695 2.077 1_655 S
O699 C715 1.381 . S
O700 Fe690 1.935 1_655 S
O700 C715 1.421 . S
O701 Fe690 2.077 1_655 S
O701 C705 1.381 . S
O702 Fe688 1.935 1_655 S
O702 C705 1.421 . S
O703 Fe691 2.077 1_655 S
O703 C711 1.381 . S
O704 Fe695 1.935 1_655 S
O704 C711 1.421 . S
C705 O701 1.381 . S
C705 O702 1.421 . S
O706 Fe695 2.077 . S
O706 C718 1.381 . S
O707 Fe690 1.935 . S
O707 C718 1.421 . S
O708 Fe688 2.077 . S
O708 C696 1.381 . S
O709 Fe691 1.935 . S
O709 C696 1.421 . S
C710 O697 1.381 . S
C710 O698 1.421 . S
C711 O703 1.381 . S
C711 O704 1.421 . S
C712 O713 1.381 . S
C712 O714 1.421 . S
O713 Fe691 2.077 . S
O713 C712 1.381 . S
O714 Fe695 1.935 . S
O714 C712 1.421 . S
C715 O699 1.381 . S
C715 O700 1.421 . S
O716 Fe690 2.077 . S
O716 C719 1.381 . S
O717 Fe688 1.935 . S
O717 C719 1.421 . S
C718 O706 1.381 . S
C718 O707 1.421 . S
C719 O716 1.381 . S
C719 O717 1.421 . S
H720 C728 0.950 . S
H721 C733 0.950 . S
H722 C730 0.950 . S
H723 C732 0.950 . S
H724 C734 0.950 . S
H725 C736 0.950 . S
H726 C738 0.950 . S
H727 C739 0.950 . S
C728 H720 0.950 . S
C728 C729 1.386 . S
C728 C730 1.391 . S
C729 C728 1.386 . S
C729 C733 1.393 . S
C730 H722 0.950 . S
C730 C728 1.391 . S
C730 C731 1.400 . S
C731 C730 1.400 . S
C731 C732 1.398 . S
C731 C737 1.491 . S
C732 H723 0.950 . S
C732 C731 1.398 . S
C732 C733 1.391 . S
C733 H721 0.950 . S
C733 C729 1.393 . S
C733 C732 1.391 . S
C734 H724 0.950 . S
C734 C735 1.386 . S
C734 C736 1.391 . S
C735 C734 1.386 . S
C735 C739 1.393 . S
C736 H725 0.950 . S
C736 C734 1.391 . S
C736 C737 1.400 . S
C737 C731 1.491 . S
C737 C736 1.400 . S
C737 C738 1.398 . S
C738 H726 0.950 . S
C738 C737 1.398 . S
C738 C739 1.391 . S
C739 H727 0.950 . S
C739 C735 1.393 . S
C739 C738 1.391 . S
H740 C748 0.950 . S
H741 C753 0.950 . S
H742 C750 0.950 . S
H743 C752 0.950 . S
H744 C754 0.950 . S
H745 C756 0.950 . S
H746 C758 0.950 . S
H747 C759 0.950 . S
C748 H740 0.950 . S
C748 C749 1.386 1_545 S
C748 C750 1.391 . S
C749 C748 1.386 1_565 S
C749 C753 1.393 . S
C750 H742 0.950 . S
C750 C748 1.391 . S
C750 C751 1.400 . S
C751 C750 1.400 . S
C751 C752 1.398 . S
C751 C757 1.491 . S
C752 H743 0.950 . S
C752 C751 1.398 . S
C752 C753 1.391 1_545 S
C753 H741 0.950 . S
C753 C749 1.393 . S
C753 C752 1.391 1_565 S
C754 H744 0.950 . S
C754 C755 1.386 . S
C754 C756 1.391 . S
C755 C754 1.386 . S
C755 C759 1.393 . S
C756 H745 0.950 . S
C756 C754 1.391 . S
C756 C757 1.400 . S
C757 C751 1.491 . S
C757 C756 1.400 . S
C757 C758 1.398 . S
C758 H746 0.950 . S
C758 C757 1.398 . S
C758 C759 1.391 . S
C759 H747 0.950 . S
C759 C755 1.393 . S
C759 C758 1.391 . S
H760 C768 0.950 . S
H761 C773 0.950 . S
H762 C770 0.950 1_554 S
H763 C772 0.950 . S
H764 C774 0.950 . S
H765 C776 0.950 . S
H766 C778 0.950 . S
H767 C779 0.950 . S
C768 H760 0.950 . S
C768 C769 1.386 . S
C768 C770 1.391 1_554 S
C769 C768 1.386 . S
C769 C773 1.393 1_554 S
C770 H762 0.950 1_556 S
C770 C768 1.391 1_556 S
C770 C771 1.400 . S
C771 C770 1.400 . S
C771 C772 1.398 . S
C771 C777 1.491 . S
C772 H763 0.950 . S
C772 C771 1.398 . S
C772 C773 1.391 . S
C773 H761 0.950 . S
C773 C769 1.393 1_556 S
C773 C772 1.391 . S
C774 H764 0.950 . S
C774 C775 1.386 . S
C774 C776 1.391 . S
C775 C774 1.386 . S
C775 C779 1.393 . S
C776 H765 0.950 . S
C776 C774 1.391 . S
C776 C777 1.400 . S
C777 C771 1.491 . S
C777 C776 1.400 . S
C777 C778 1.398 . S
C778 H766 0.950 . S
C778 C777 1.398 . S
C778 C779 1.391 . S
C779 H767 0.950 . S
C779 C775 1.393 . S
C779 C778 1.391 . S
H780 C788 0.950 . S
H781 C793 0.950 . S
H782 C790 0.950 . S
H783 C792 0.950 . S
H784 C794 0.950 . S
H785 C796 0.950 . S
H786 C798 0.950 . S
H787 C799 0.950 . S
C788 H780 0.950 . S
C788 C789 1.386 . S
C788 C790 1.391 1_545 S
C789 C788 1.386 . S
C789 C793 1.393 . S
C790 H782 0.950 . S
C790 C788 1.391 1_565 S
C790 C791 1.400 . S
C791 C790 1.400 . S
C791 C792 1.398 1_565 S
C791 C797 1.491 . S
C792 H783 0.950 . S
C792 C791 1.398 1_545 S
C792 C793 1.391 . S
C793 H781 0.950 . S
C793 C789 1.393 . S
C793 C792 1.391 . S
C794 H784 0.950 . S
C794 C795 1.386 . S
C794 C796 1.391 . S
C795 C794 1.386 . S
C795 C799 1.393 . S
C796 H785 0.950 . S
C796 C794 1.391 . S
C796 C797 1.400 . S
C797 C791 1.491 . S
C797 C796 1.400 . S
C797 C798 1.398 . S
C798 H786 0.950 . S
C798 C797 1.398 . S
C798 C799 1.391 . S
C799 H787 0.950 . S
C799 C795 1.393 . S
C799 C798 1.391 . S
H800 C808 0.950 . S
H801 C813 0.950 . S
H802 C810 0.950 . S
H803 C812 0.950 . S
H804 C814 0.950 . S
H805 C816 0.950 . S
H806 C818 0.950 . S
H807 C819 0.950 . S
C808 H800 0.950 . S
C808 C809 1.386 . S
C808 C810 1.391 . S
C809 C808 1.386 . S
C809 C813 1.393 . S
C810 H802 0.950 . S
C810 C808 1.391 . S
C810 C811 1.400 . S
C811 C810 1.400 . S
C811 C812 1.398 . S
C811 C817 1.491 . S
C812 H803 0.950 . S
C812 C811 1.398 . S
C812 C813 1.391 . S
C813 H801 0.950 . S
C813 C809 1.393 . S
C813 C812 1.391 . S
C814 H804 0.950 . S
C814 C815 1.386 . S
C814 C816 1.391 . S
C815 C814 1.386 . S
C815 C819 1.393 . S
C816 H805 0.950 . S
C816 C814 1.391 . S
C816 C817 1.400 . S
C817 C811 1.491 . S
C817 C816 1.400 . S
C817 C818 1.398 . S
C818 H806 0.950 . S
C818 C817 1.398 . S
C818 C819 1.391 . S
C819 H807 0.950 . S
C819 C815 1.393 . S
C819 C818 1.391 . S
H820 C828 0.950 . S
H821 C833 0.950 . S
H822 C830 0.950 . S
H823 C832 0.950 1_545 S
H824 C834 0.950 . S
H825 C836 0.950 . S
H826 C838 0.950 . S
H827 C839 0.950 . S
C828 H820 0.950 . S
C828 C829 1.386 . S
C828 C830 1.391 . S
C829 C828 1.386 . S
C829 C833 1.393 . S
C830 H822 0.950 . S
C830 C828 1.391 . S
C830 C831 1.400 1_565 S
C831 C830 1.400 1_545 S
C831 C832 1.398 1_545 S
C831 C837 1.491 . S
C832 H823 0.950 1_565 S
C832 C831 1.398 1_565 S
C832 C833 1.391 . S
C833 H821 0.950 . S
C833 C829 1.393 . S
C833 C832 1.391 . S
C834 H824 0.950 . S
C834 C835 1.386 . S
C834 C836 1.391 . S
C835 C834 1.386 . S
C835 C839 1.393 . S
C836 H825 0.950 . S
C836 C834 1.391 . S
C836 C837 1.400 . S
C837 C831 1.491 . S
C837 C836 1.400 . S
C837 C838 1.398 . S
C838 H826 0.950 . S
C838 C837 1.398 . S
C838 C839 1.391 . S
C839 H827 0.950 . S
C839 C835 1.393 . S
C839 C838 1.391 . S
H840 C848 0.950 . S
H841 C853 0.950 . S
H842 C850 0.950 . S
H843 C852 0.950 1_545 S
H844 C854 0.950 . S
H845 C856 0.950 . S
H846 C858 0.950 . S
H847 C859 0.950 . S
C848 H840 0.950 . S
C848 C849 1.386 . S
C848 C850 1.391 . S
C849 C848 1.386 . S
C849 C853 1.393 1_565 S
C850 H842 0.950 . S
C850 C848 1.391 . S
C850 C851 1.400 . S
C851 C850 1.400 . S
C851 C852 1.398 . S
C851 C857 1.491 . S
C852 H843 0.950 1_565 S
C852 C851 1.398 . S
C852 C853 1.391 1_565 S
C853 H841 0.950 . S
C853 C849 1.393 1_545 S
C853 C852 1.391 1_545 S
C854 H844 0.950 . S
C854 C855 1.386 . S
C854 C856 1.391 . S
C855 C854 1.386 . S
C855 C859 1.393 . S
C856 H845 0.950 . S
C856 C854 1.391 . S
C856 C857 1.400 . S
C857 C851 1.491 . S
C857 C856 1.400 . S
C857 C858 1.398 . S
C858 H846 0.950 . S
C858 C857 1.398 . S
C858 C859 1.391 . S
C859 H847 0.950 . S
C859 C855 1.393 . S
C859 C858 1.391 . S
H860 C868 0.950 . S
H861 C873 0.950 . S
H862 C870 0.950 . S
H863 C872 0.950 . S
H864 C874 0.950 . S
H865 C876 0.950 . S
H866 C878 0.950 . S
H867 C879 0.950 . S
C868 H860 0.950 . S
C868 C869 1.386 . S
C868 C870 1.391 . S
C869 C868 1.386 . S
C869 C873 1.393 . S
C870 H862 0.950 . S
C870 C868 1.391 . S
C870 C871 1.400 . S
C871 C870 1.400 . S
C871 C872 1.398 . S
C871 C877 1.491 1_545 S
C872 H863 0.950 . S
C872 C871 1.398 . S
C872 C873 1.391 . S
C873 H861 0.950 . S
C873 C869 1.393 . S
C873 C872 1.391 . S
C874 H864 0.950 . S
C874 C875 1.386 . S
C874 C876 1.391 . S
C875 C874 1.386 . S
C875 C879 1.393 . S
C876 H865 0.950 . S
C876 C874 1.391 . S
C876 C877 1.400 . S
C877 C871 1.491 1_565 S
C877 C876 1.400 . S
C877 C878 1.398 . S
C878 H866 0.950 . S
C878 C877 1.398 . S
C878 C879 1.391 . S
C879 H867 0.950 . S
C879 C875 1.393 . S
C879 C878 1.391 . S
H880 C888 0.950 . S
H881 C893 0.950 . S
H882 C890 0.950 . S
H883 C892 0.950 . S
H884 C894 0.950 . S
H885 C896 0.950 . S
H886 C898 0.950 . S
H887 C899 0.950 . S
C888 H880 0.950 . S
C888 C889 1.386 . S
C888 C890 1.391 . S
C889 C888 1.386 . S
C889 C893 1.393 . S
C890 H882 0.950 . S
C890 C888 1.391 . S
C890 C891 1.400 . S
C891 C890 1.400 . S
C891 C892 1.398 . S
C891 C897 1.491 . S
C892 H883 0.950 . S
C892 C891 1.398 . S
C892 C893 1.391 . S
C893 H881 0.950 . S
C893 C889 1.393 . S
C893 C892 1.391 . S
C894 H884 0.950 . S
C894 C895 1.386 . S
C894 C896 1.391 . S
C895 C894 1.386 . S
C895 C899 1.393 . S
C896 H885 0.950 . S
C896 C894 1.391 . S
C896 C897 1.400 . S
C897 C891 1.491 . S
C897 C896 1.400 . S
C897 C898 1.398 . S
C898 H886 0.950 . S
C898 C897 1.398 . S
C898 C899 1.391 . S
C899 H887 0.950 . S
C899 C895 1.393 . S
C899 C898 1.391 . S
H900 C908 0.950 . S
H901 C913 0.950 . S
H902 C910 0.950 . S
H903 C912 0.950 1_565 S
H904 C914 0.950 . S
H905 C916 0.950 . S
H906 C918 0.950 1_545 S
H907 C919 0.950 . S
C908 H900 0.950 . S
C908 C909 1.386 . S
C908 C910 1.391 . S
C909 C908 1.386 . S
C909 C913 1.393 . S
C910 H902 0.950 . S
C910 C908 1.391 . S
C910 C911 1.400 . S
C911 C910 1.400 . S
C911 C912 1.398 . S
C911 C917 1.491 1_545 S
C912 H903 0.950 1_545 S
C912 C911 1.398 . S
C912 C913 1.391 . S
C913 H901 0.950 . S
C913 C909 1.393 . S
C913 C912 1.391 . S
C914 H904 0.950 . S
C914 C915 1.386 . S
C914 C916 1.391 . S
C915 C914 1.386 . S
C915 C919 1.393 . S
C916 H905 0.950 . S
C916 C914 1.391 . S
C916 C917 1.400 . S
C917 C911 1.491 1_565 S
C917 C916 1.400 . S
C917 C918 1.398 . S
C918 H906 0.950 1_565 S
C918 C917 1.398 . S
C918 C919 1.391 . S
C919 H907 0.950 . S
C919 C915 1.393 . S
C919 C918 1.391 . S
H920 C928 0.950 1_545 S
H921 C933 0.950 . S
H922 C930 0.950 . S
H923 C932 0.950 . S
H924 C934 0.950 . S
H925 C936 0.950 . S
H926 C938 0.950 . S
H927 C939 0.950 . S
C928 H920 0.950 1_565 S
C928 C929 1.386 . S
C928 C930 1.391 . S
C929 C928 1.386 . S
C929 C933 1.393 . S
C930 H922 0.950 . S
C930 C928 1.391 . S
C930 C931 1.400 . S
C931 C930 1.400 . S
C931 C932 1.398 . S
C931 C937 1.491 . S
C932 H923 0.950 . S
C932 C931 1.398 . S
C932 C933 1.391 . S
C933 H921 0.950 . S
C933 C929 1.393 . S
C933 C932 1.391 . S
C934 H924 0.950 . S
C934 C935 1.386 . S
C934 C936 1.391 . S
C935 C934 1.386 . S
C935 C939 1.393 . S
C936 H925 0.950 . S
C936 C934 1.391 . S
C936 C937 1.400 . S
C937 C931 1.491 . S
C937 C936 1.400 . S
C937 C938 1.398 . S
C938 H926 0.950 . S
C938 C937 1.398 . S
C938 C939 1.391 . S
C939 H927 0.950 . S
C939 C935 1.393 . S
C939 C938 1.391 . S
H940 C948 0.950 . S
H941 C953 0.950 . S
H942 C950 0.950 . S
H943 C952 0.950 . S
H944 C954 0.950 . S
H945 C956 0.950 . S
H946 C958 0.950 . S
H947 C959 0.950 . S
C948 H940 0.950 . S
C948 C949 1.386 . S
C948 C950 1.391 1_565 S
C949 C948 1.386 . S
C949 C953 1.393 . S
C950 H942 0.950 . S
C950 C948 1.391 1_545 S
C950 C951 1.400 . S
C951 C950 1.400 . S
C951 C952 1.398 . S
C951 C957 1.491 . S
C952 H943 0.950 . S
C952 C951 1.398 . S
C952 C953 1.391 1_545 S
C953 H941 0.950 . S
C953 C949 1.393 . S
C953 C952 1.391 1_565 S
C954 H944 0.950 . S
C954 C955 1.386 . S
C954 C956 1.391 . S
C955 C954 1.386 . S
C955 C959 1.393 . S
C956 H945 0.950 . S
C956 C954 1.391 . S
C956 C957 1.400 . S
C957 C951 1.491 . S
C957 C956 1.400 . S
C957 C958 1.398 . S
C958 H946 0.950 . S
C958 C957 1.398 . S
C958 C959 1.391 . S
C959 H947 0.950 . S
C959 C955 1.393 . S
C959 C958 1.391 . S
H960 C968 0.950 . S
H961 C973 0.950 . S
H962 C970 0.950 . S
H963 C972 0.950 . S
H964 C974 0.950 . S
H965 C976 0.950 . S
H966 C978 0.950 . S
H967 C979 0.950 . S
C968 H960 0.950 . S
C968 C969 1.386 . S
C968 C970 1.391 . S
C969 C968 1.386 . S
C969 C973 1.393 . S
C970 H962 0.950 . S
C970 C968 1.391 . S
C970 C971 1.400 . S
C971 C970 1.400 . S
C971 C972 1.398 . S
C971 C977 1.491 . S
C972 H963 0.950 . S
C972 C971 1.398 . S
C972 C973 1.391 . S
C973 H961 0.950 . S
C973 C969 1.393 . S
C973 C972 1.391 . S
C974 H964 0.950 . S
C974 C975 1.386 . S
C974 C976 1.391 . S
C975 C974 1.386 . S
C975 C979 1.393 . S
C976 H965 0.950 . S
C976 C974 1.391 . S
C976 C977 1.400 . S
C977 C971 1.491 . S
C977 C976 1.400 . S
C977 C978 1.398 . S
C978 H966 0.950 . S
C978 C977 1.398 . S
C978 C979 1.391 . S
C979 H967 0.950 . S
C979 C975 1.393 . S
C979 C978 1.391 . S
H980 C988 0.950 . S
H981 C993 0.950 . S
H982 C990 0.950 . S
H983 C992 0.959 . S
H984 C994 0.950 . S
H985 C996 0.950 . S
H986 C998 0.950 . S
H987 C999 0.950 . S
C988 H980 0.950 . S
C988 C989 1.386 . S
C988 C990 1.391 . S
C989 C988 1.386 . S
C989 C993 1.393 . S
C990 H982 0.950 . S
C990 C988 1.391 . S
C990 C991 1.400 1_545 S
C991 C990 1.400 1_565 S
C991 C992 1.401 . S
C991 C997 1.491 . S
C992 H983 0.959 . S
C992 C991 1.401 . S
C992 C993 1.380 1_565 S
C993 H981 0.950 . S
C993 C989 1.393 . S
C993 C992 1.380 1_545 S
C994 H984 0.950 . S
C994 C995 1.386 . S
C994 C996 1.391 . S
C995 C994 1.386 . S
C995 C999 1.393 . S
C996 H985 0.950 . S
C996 C994 1.391 . S
C996 C997 1.400 . S
C997 C991 1.491 . S
C997 C996 1.400 . S
C997 C998 1.398 . S
C998 H986 0.950 . S
C998 C997 1.398 . S
C998 C999 1.391 . S
C999 H987 0.950 . S
C999 C995 1.393 . S
C999 C998 1.391 . S
H1000 C1008 0.950 . S
H1001 C1013 0.950 . S
H1002 C1010 0.950 . S
H1003 C1012 0.950 . S
H1004 C1014 0.950 . S
H1005 C1016 0.950 . S
H1006 C1018 0.950 . S
H1007 C1019 0.950 . S
C1008 H1000 0.950 . S
C1008 C1009 1.386 . S
C1008 C1010 1.391 . S
C1009 C1008 1.386 . S
C1009 C1013 1.393 . S
C1010 H1002 0.950 . S
C1010 C1008 1.391 . S
C1010 C1011 1.400 . S
C1011 C1010 1.400 . S
C1011 C1012 1.398 . S
C1011 C1017 1.491 . S
C1012 H1003 0.950 . S
C1012 C1011 1.398 . S
C1012 C1013 1.391 . S
C1013 H1001 0.950 . S
C1013 C1009 1.393 . S
C1013 C1012 1.391 . S
C1014 H1004 0.950 . S
C1014 C1015 1.386 . S
C1014 C1016 1.391 . S
C1015 C1014 1.386 . S
C1015 C1019 1.393 . S
C1016 H1005 0.950 . S
C1016 C1014 1.391 . S
C1016 C1017 1.400 . S
C1017 C1011 1.491 . S
C1017 C1016 1.400 . S
C1017 C1018 1.398 . S
C1018 H1006 0.950 . S
C1018 C1017 1.398 . S
C1018 C1019 1.391 . S
C1019 H1007 0.950 . S
C1019 C1015 1.393 . S
C1019 C1018 1.391 . S
H1020 C1028 0.950 . S
H1021 C1033 0.950 1_565 S
H1022 C1030 0.950 . S
H1023 C1032 0.950 . S
H1024 C1034 0.950 . S
H1025 C1036 0.950 . S
H1026 C1038 0.950 . S
H1027 C1039 0.950 . S
C1028 H1020 0.950 . S
C1028 C1029 1.386 1_545 S
C1028 C1030 1.391 . S
C1029 C1028 1.386 1_565 S
C1029 C1033 1.393 1_565 S
C1030 H1022 0.950 . S
C1030 C1028 1.391 . S
C1030 C1031 1.400 . S
C1031 C1030 1.400 . S
C1031 C1032 1.398 . S
C1031 C1037 1.491 . S
C1032 H1023 0.950 . S
C1032 C1031 1.398 . S
C1032 C1033 1.391 . S
C1033 H1021 0.950 1_545 S
C1033 C1029 1.393 1_545 S
C1033 C1032 1.391 . S
C1034 H1024 0.950 . S
C1034 C1035 1.386 . S
C1034 C1036 1.391 . S
C1035 C1034 1.386 . S
C1035 C1039 1.393 . S
C1036 H1025 0.950 . S
C1036 C1034 1.391 . S
C1036 C1037 1.400 . S
C1037 C1031 1.491 . S
C1037 C1036 1.400 . S
C1037 C1038 1.398 . S
C1038 H1026 0.950 . S
C1038 C1037 1.398 . S
C1038 C1039 1.391 . S
C1039 H1027 0.950 . S
C1039 C1035 1.393 . S
C1039 C1038 1.391 . S
H1040 C1048 0.950 . S
H1041 C1053 0.950 1_554 S
H1042 C1050 0.950 . S
H1043 C1052 0.950 . S
H1044 C1054 0.950 . S
H1045 C1056 0.950 . S
H1046 C1058 0.950 . S
H1047 C1059 0.950 . S
C1048 H1040 0.950 . S
C1048 C1049 1.386 . S
C1048 C1050 1.391 . S
C1049 C1048 1.386 . S
C1049 C1053 1.393 . S
C1050 H1042 0.950 . S
C1050 C1048 1.391 . S
C1050 C1051 1.400 . S
C1051 C1050 1.400 . S
C1051 C1052 1.398 . S
C1051 C1057 1.491 . S
C1052 H1043 0.950 . S
C1052 C1051 1.398 . S
C1052 C1053 1.391 . S
C1053 H1041 0.950 1_556 S
C1053 C1049 1.393 . S
C1053 C1052 1.391 . S
C1054 H1044 0.950 . S
C1054 C1055 1.386 . S
C1054 C1056 1.391 . S
C1055 C1054 1.386 . S
C1055 C1059 1.393 . S
C1056 H1045 0.950 . S
C1056 C1054 1.391 . S
C1056 C1057 1.400 . S
C1057 C1051 1.491 . S
C1057 C1056 1.400 . S
C1057 C1058 1.398 . S
C1058 H1046 0.950 . S
C1058 C1057 1.398 . S
C1058 C1059 1.391 . S
C1059 H1047 0.950 . S
C1059 C1055 1.393 . S
C1059 C1058 1.391 . S
H1060 C1068 0.950 . S
H1061 C1073 0.950 . S
H1062 C1070 0.950 . S
H1063 C1072 0.950 . S
H1064 C1074 0.950 . S
H1065 C1076 0.950 . S
H1066 C1078 0.950 . S
H1067 C1079 0.950 . S
C1068 H1060 0.950 . S
C1068 C1069 1.386 . S
C1068 C1070 1.391 . S
C1069 C1068 1.386 . S
C1069 C1073 1.393 . S
C1070 H1062 0.950 . S
C1070 C1068 1.391 . S
C1070 C1071 1.400 . S
C1071 C1070 1.400 . S
C1071 C1072 1.398 . S
C1071 C1077 1.491 . S
C1072 H1063 0.950 . S
C1072 C1071 1.398 . S
C1072 C1073 1.391 . S
C1073 H1061 0.950 . S
C1073 C1069 1.393 . S
C1073 C1072 1.391 . S
C1074 H1064 0.950 . S
C1074 C1075 1.386 . S
C1074 C1076 1.391 . S
C1075 C1074 1.386 . S
C1075 C1079 1.393 . S
C1076 H1065 0.950 . S
C1076 C1074 1.391 . S
C1076 C1077 1.400 . S
C1077 C1071 1.491 . S
C1077 C1076 1.400 . S
C1077 C1078 1.398 . S
C1078 H1066 0.950 . S
C1078 C1077 1.398 . S
C1078 C1079 1.391 . S
C1079 H1067 0.950 . S
C1079 C1075 1.393 . S
C1079 C1078 1.391 . S
H1080 C1088 0.950 . S
H1081 C1093 0.950 . S
H1082 C1090 0.950 . S
H1083 C1092 0.950 . S
H1084 C1094 0.950 . S
H1085 C1096 0.950 . S
H1086 C1098 0.950 . S
H1087 C1099 0.950 . S
C1088 H1080 0.950 . S
C1088 C1089 1.386 . S
C1088 C1090 1.391 . S
C1089 C1088 1.386 . S
C1089 C1093 1.393 . S
C1090 H1082 0.950 . S
C1090 C1088 1.391 . S
C1090 C1091 1.400 . S
C1091 C1090 1.400 . S
C1091 C1092 1.398 . S
C1091 C1097 1.491 . S
C1092 H1083 0.950 . S
C1092 C1091 1.398 . S
C1092 C1093 1.391 . S
C1093 H1081 0.950 . S
C1093 C1089 1.393 . S
C1093 C1092 1.391 . S
C1094 H1084 0.950 . S
C1094 C1095 1.386 . S
C1094 C1096 1.391 . S
C1095 C1094 1.386 . S
C1095 C1099 1.393 . S
C1096 H1085 0.950 . S
C1096 C1094 1.391 . S
C1096 C1097 1.400 . S
C1097 C1091 1.491 . S
C1097 C1096 1.400 . S
C1097 C1098 1.398 . S
C1098 H1086 0.950 . S
C1098 C1097 1.398 . S
C1098 C1099 1.391 . S
C1099 H1087 0.950 . S
C1099 C1095 1.393 . S
C1099 C1098 1.391 . S
H1100 C1108 0.950 . S
H1101 C1113 0.950 . S
H1102 C1110 0.950 . S
H1103 C1112 0.950 . S
H1104 C1114 0.950 . S
H1105 C1116 0.950 . S
H1106 C1118 0.950 . S
H1107 C1119 0.950 . S
C1108 H1100 0.950 . S
C1108 C1109 1.386 . S
C1108 C1110 1.391 . S
C1109 C1108 1.386 . S
C1109 C1113 1.393 . S
C1110 H1102 0.950 . S
C1110 C1108 1.391 . S
C1110 C1111 1.400 . S
C1111 C1110 1.400 . S
C1111 C1112 1.398 . S
C1111 C1117 1.491 . S
C1112 H1103 0.950 . S
C1112 C1111 1.398 . S
C1112 C1113 1.391 . S
C1113 H1101 0.950 . S
C1113 C1109 1.393 . S
C1113 C1112 1.391 . S
C1114 H1104 0.950 . S
C1114 C1115 1.386 . S
C1114 C1116 1.391 . S
C1115 C1114 1.386 . S
C1115 C1119 1.393 . S
C1116 H1105 0.950 . S
C1116 C1114 1.391 . S
C1116 C1117 1.400 . S
C1117 C1111 1.491 . S
C1117 C1116 1.400 . S
C1117 C1118 1.398 . S
C1118 H1106 0.950 . S
C1118 C1117 1.398 . S
C1118 C1119 1.391 . S
C1119 H1107 0.950 . S
C1119 C1115 1.393 . S
C1119 C1118 1.391 . S
H1120 C1128 0.950 . S
H1121 C1133 0.950 . S
H1122 C1130 0.950 . S
H1123 C1132 0.950 . S
H1124 C1134 0.950 . S
H1125 C1136 0.950 . S
H1126 C1138 0.950 . S
H1127 C1139 0.950 . S
C1128 H1120 0.950 . S
C1128 C1129 1.386 . S
C1128 C1130 1.391 . S
C1129 C1128 1.386 . S
C1129 C1133 1.393 . S
C1130 H1122 0.950 . S
C1130 C1128 1.391 . S
C1130 C1131 1.400 . S
C1131 C1130 1.400 . S
C1131 C1132 1.398 . S
C1131 C1137 1.491 . S
C1132 H1123 0.950 . S
C1132 C1131 1.398 . S
C1132 C1133 1.391 . S
C1133 H1121 0.950 . S
C1133 C1129 1.393 . S
C1133 C1132 1.391 . S
C1134 H1124 0.950 . S
C1134 C1135 1.386 . S
C1134 C1136 1.391 . S
C1135 C1134 1.386 . S
C1135 C1139 1.393 . S
C1136 H1125 0.950 . S
C1136 C1134 1.391 . S
C1136 C1137 1.400 . S
C1137 C1131 1.491 . S
C1137 C1136 1.400 . S
C1137 C1138 1.398 . S
C1138 H1126 0.950 . S
C1138 C1137 1.398 . S
C1138 C1139 1.391 . S
C1139 H1127 0.950 . S
C1139 C1135 1.393 . S
C1139 C1138 1.391 . S
H1140 C1148 0.950 . S
H1141 C1153 0.950 . S
H1142 C1150 0.950 . S
H1143 C1152 0.950 . S
H1144 C1154 0.950 . S
H1145 C1156 0.950 . S
H1146 C1158 0.950 . S
H1147 C1159 0.950 . S
C1148 H1140 0.950 . S
C1148 C1149 1.386 . S
C1148 C1150 1.391 . S
C1149 C1148 1.386 . S
C1149 C1153 1.393 . S
C1150 H1142 0.950 . S
C1150 C1148 1.391 . S
C1150 C1151 1.400 . S
C1151 C1150 1.400 . S
C1151 C1152 1.398 . S
C1151 C1157 1.491 . S
C1152 H1143 0.950 . S
C1152 C1151 1.398 . S
C1152 C1153 1.391 . S
C1153 H1141 0.950 . S
C1153 C1149 1.393 . S
C1153 C1152 1.391 . S
C1154 H1144 0.950 . S
C1154 C1155 1.386 . S
C1154 C1156 1.391 . S
C1155 C1154 1.386 . S
C1155 C1159 1.393 . S
C1156 H1145 0.950 . S
C1156 C1154 1.391 . S
C1156 C1157 1.400 . S
C1157 C1151 1.491 . S
C1157 C1156 1.400 . S
C1157 C1158 1.398 . S
C1158 H1146 0.950 . S
C1158 C1157 1.398 . S
C1158 C1159 1.391 . S
C1159 H1147 0.950 . S
C1159 C1155 1.393 . S
C1159 C1158 1.391 . S
H1160 C1168 0.950 . S
H1161 C1173 0.950 . S
H1162 C1170 0.950 . S
H1163 C1172 0.950 . S
H1164 C1174 0.950 . S
H1165 C1176 0.950 . S
H1166 C1178 0.950 . S
H1167 C1179 0.950 . S
C1168 H1160 0.950 . S
C1168 C1169 1.386 . S
C1168 C1170 1.391 . S
C1169 C1168 1.386 . S
C1169 C1173 1.393 . S
C1170 H1162 0.950 . S
C1170 C1168 1.391 . S
C1170 C1171 1.400 . S
C1171 C1170 1.400 . S
C1171 C1172 1.398 . S
C1171 C1177 1.491 . S
C1172 H1163 0.950 . S
C1172 C1171 1.398 . S
C1172 C1173 1.391 . S
C1173 H1161 0.950 . S
C1173 C1169 1.393 . S
C1173 C1172 1.391 . S
C1174 H1164 0.950 . S
C1174 C1175 1.386 . S
C1174 C1176 1.391 . S
C1175 C1174 1.386 . S
C1175 C1179 1.393 . S
C1176 H1165 0.950 . S
C1176 C1174 1.391 . S
C1176 C1177 1.400 . S
C1177 C1171 1.491 . S
C1177 C1176 1.400 . S
C1177 C1178 1.398 . S
C1178 H1166 0.950 . S
C1178 C1177 1.398 . S
C1178 C1179 1.391 . S
C1179 H1167 0.950 . S
C1179 C1175 1.393 . S
C1179 C1178 1.391 . S
H1180 C1188 0.950 . S
H1181 C1193 0.950 . S
H1182 C1190 0.950 . S
H1183 C1192 0.950 . S
H1184 C1194 0.950 1_455 S
H1185 C1196 0.966 . S
H1186 C1198 0.950 . S
H1187 C1199 0.950 . S
C1188 H1180 0.950 . S
C1188 C1189 1.386 . S
C1188 C1190 1.391 . S
C1189 C1188 1.386 . S
C1189 C1193 1.393 . S
C1190 H1182 0.950 . S
C1190 C1188 1.391 . S
C1190 C1191 1.400 . S
C1191 C1190 1.400 . S
C1191 C1192 1.398 . S
C1191 C1197 1.491 . S
C1192 H1183 0.950 . S
C1192 C1191 1.398 . S
C1192 C1193 1.391 . S
C1193 H1181 0.950 . S
C1193 C1189 1.393 . S
C1193 C1192 1.391 . S
C1194 H1184 0.950 1_655 S
C1194 C1195 1.386 . S
C1194 C1196 1.391 . S
C1195 C1194 1.386 . S
C1195 C1199 1.393 . S
C1196 H1185 0.966 . S
C1196 C1194 1.391 . S
C1196 C1197 1.400 . S
C1197 C1191 1.491 . S
C1197 C1196 1.400 . S
C1197 C1198 1.398 . S
C1198 H1186 0.950 . S
C1198 C1197 1.398 . S
C1198 C1199 1.391 . S
C1199 H1187 0.950 . S
C1199 C1195 1.393 . S
C1199 C1198 1.391 . S
H1200 C1208 0.950 . S
H1201 C1213 0.950 . S
H1202 C1210 0.950 . S
H1203 C1212 0.950 . S
H1204 C1214 0.950 . S
H1205 C1216 0.950 . S
H1206 C1218 0.950 . S
H1207 C1219 0.950 . S
C1208 H1200 0.950 . S
C1208 C1209 1.386 . S
C1208 C1210 1.391 . S
C1209 C1208 1.386 . S
C1209 C1213 1.393 . S
C1210 H1202 0.950 . S
C1210 C1208 1.391 . S
C1210 C1211 1.400 . S
C1211 C1210 1.400 . S
C1211 C1212 1.398 . S
C1211 C1217 1.491 . S
C1212 H1203 0.950 . S
C1212 C1211 1.398 . S
C1212 C1213 1.391 . S
C1213 H1201 0.950 . S
C1213 C1209 1.393 . S
C1213 C1212 1.391 . S
C1214 H1204 0.950 . S
C1214 C1215 1.386 . S
C1214 C1216 1.391 . S
C1215 C1214 1.386 . S
C1215 C1219 1.393 . S
C1216 H1205 0.950 . S
C1216 C1214 1.391 . S
C1216 C1217 1.400 . S
C1217 C1211 1.491 . S
C1217 C1216 1.400 . S
C1217 C1218 1.398 . S
C1218 H1206 0.950 . S
C1218 C1217 1.398 . S
C1218 C1219 1.391 . S
C1219 H1207 0.950 . S
C1219 C1215 1.393 . S
C1219 C1218 1.391 . S
H1220 C1228 0.950 . S
H1221 C1233 0.950 . S
H1222 C1230 0.950 . S
H1223 C1232 0.950 . S
H1224 C1234 0.950 . S
H1225 C1236 0.950 . S
H1226 C1238 0.950 . S
H1227 C1239 0.950 . S
C1228 H1220 0.950 . S
C1228 C1229 1.386 . S
C1228 C1230 1.391 . S
C1229 C1228 1.386 . S
C1229 C1233 1.393 . S
C1230 H1222 0.950 . S
C1230 C1228 1.391 . S
C1230 C1231 1.400 . S
C1231 C1230 1.400 . S
C1231 C1232 1.398 . S
C1231 C1237 1.491 . S
C1232 H1223 0.950 . S
C1232 C1231 1.398 . S
C1232 C1233 1.391 . S
C1233 H1221 0.950 . S
C1233 C1229 1.393 . S
C1233 C1232 1.391 . S
C1234 H1224 0.950 . S
C1234 C1235 1.386 . S
C1234 C1236 1.391 . S
C1235 C1234 1.386 . S
C1235 C1239 1.393 . S
C1236 H1225 0.950 . S
C1236 C1234 1.391 . S
C1236 C1237 1.400 . S
C1237 C1231 1.491 . S
C1237 C1236 1.400 . S
C1237 C1238 1.398 . S
C1238 H1226 0.950 . S
C1238 C1237 1.398 . S
C1238 C1239 1.391 . S
C1239 H1227 0.950 . S
C1239 C1235 1.393 . S
C1239 C1238 1.391 . S
H1240 C1248 0.950 . S
H1241 C1253 0.950 . S
H1242 C1250 0.950 . S
H1243 C1252 0.950 . S
H1244 C1254 0.950 . S
H1245 C1256 0.950 . S
H1246 C1258 0.950 . S
H1247 C1259 0.950 . S
C1248 H1240 0.950 . S
C1248 C1249 1.386 . S
C1248 C1250 1.391 . S
C1249 C1248 1.386 . S
C1249 C1253 1.393 . S
C1250 H1242 0.950 . S
C1250 C1248 1.391 . S
C1250 C1251 1.400 . S
C1251 C1250 1.400 . S
C1251 C1252 1.398 . S
C1251 C1257 1.491 . S
C1252 H1243 0.950 . S
C1252 C1251 1.398 . S
C1252 C1253 1.391 . S
C1253 H1241 0.950 . S
C1253 C1249 1.393 . S
C1253 C1252 1.391 . S
C1254 H1244 0.950 . S
C1254 C1255 1.386 . S
C1254 C1256 1.391 . S
C1255 C1254 1.386 . S
C1255 C1259 1.393 . S
C1256 H1245 0.950 . S
C1256 C1254 1.391 . S
C1256 C1257 1.400 . S
C1257 C1251 1.491 . S
C1257 C1256 1.400 . S
C1257 C1258 1.398 . S
C1258 H1246 0.950 . S
C1258 C1257 1.398 . S
C1258 C1259 1.391 . S
C1259 H1247 0.950 . S
C1259 C1255 1.393 . S
C1259 C1258 1.391 . S
H1260 C1268 0.950 . S
H1261 C1273 0.950 . S
H1262 C1270 0.950 . S
H1263 C1272 0.950 . S
H1264 C1274 0.950 . S
H1265 C1276 0.950 . S
H1266 C1278 0.950 . S
H1267 C1279 0.950 . S
C1268 H1260 0.950 . S
C1268 C1269 1.386 . S
C1268 C1270 1.391 . S
C1269 C1268 1.386 . S
C1269 C1273 1.393 . S
C1270 H1262 0.950 . S
C1270 C1268 1.391 . S
C1270 C1271 1.400 . S
C1271 C1270 1.400 . S
C1271 C1272 1.398 . S
C1271 C1277 1.491 . S
C1272 H1263 0.950 . S
C1272 C1271 1.398 . S
C1272 C1273 1.391 . S
C1273 H1261 0.950 . S
C1273 C1269 1.393 . S
C1273 C1272 1.391 . S
C1274 H1264 0.950 . S
C1274 C1275 1.386 . S
C1274 C1276 1.391 . S
C1275 C1274 1.386 . S
C1275 C1279 1.393 . S
C1276 H1265 0.950 . S
C1276 C1274 1.391 . S
C1276 C1277 1.400 . S
C1277 C1271 1.491 . S
C1277 C1276 1.400 . S
C1277 C1278 1.398 . S
C1278 H1266 0.950 . S
C1278 C1277 1.398 . S
C1278 C1279 1.391 . S
C1279 H1267 0.950 . S
C1279 C1275 1.393 . S
C1279 C1278 1.391 . S
H1280 C1288 0.950 . S
H1281 C1293 0.950 . S
H1282 C1290 0.936 1_554 S
H1283 C1292 0.950 . S
H1284 C1294 0.950 . S
H1285 C1296 0.950 . S
H1286 C1298 0.950 . S
H1287 C1299 0.950 . S
C1288 H1280 0.950 . S
C1288 C1289 1.386 . S
C1288 C1290 1.391 1_554 S
C1289 C1288 1.386 . S
C1289 C1293 1.393 1_554 S
C1290 H1282 0.936 1_556 S
C1290 C1288 1.391 1_556 S
C1290 C1291 1.400 . S
C1291 C1290 1.400 . S
C1291 C1292 1.398 . S
C1291 C1297 1.491 . S
C1292 H1283 0.950 . S
C1292 C1291 1.398 . S
C1292 C1293 1.391 . S
C1293 H1281 0.950 . S
C1293 C1289 1.393 1_556 S
C1293 C1292 1.391 . S
C1294 H1284 0.950 . S
C1294 C1295 1.386 . S
C1294 C1296 1.391 . S
C1295 C1294 1.386 . S
C1295 C1299 1.393 . S
C1296 H1285 0.950 . S
C1296 C1294 1.391 . S
C1296 C1297 1.400 . S
C1297 C1291 1.491 . S
C1297 C1296 1.400 . S
C1297 C1298 1.398 . S
C1298 H1286 0.950 . S
C1298 C1297 1.398 . S
C1298 C1299 1.391 . S
C1299 H1287 0.950 . S
C1299 C1295 1.393 . S
C1299 C1298 1.391 . S
H1300 C1308 0.950 . S
H1301 C1313 0.950 . S
H1302 C1310 0.950 . S
H1303 C1312 0.950 . S
H1304 C1314 0.950 . S
H1305 C1316 0.950 . S
H1306 C1318 0.950 . S
H1307 C1319 0.950 . S
C1308 H1300 0.950 . S
C1308 C1309 1.386 . S
C1308 C1310 1.391 . S
C1309 C1308 1.386 . S
C1309 C1313 1.393 . S
C1310 H1302 0.950 . S
C1310 C1308 1.391 . S
C1310 C1311 1.400 . S
C1311 C1310 1.400 . S
C1311 C1312 1.398 . S
C1311 C1317 1.491 . S
C1312 H1303 0.950 . S
C1312 C1311 1.398 . S
C1312 C1313 1.391 . S
C1313 H1301 0.950 . S
C1313 C1309 1.393 . S
C1313 C1312 1.391 . S
C1314 H1304 0.950 . S
C1314 C1315 1.386 . S
C1314 C1316 1.391 . S
C1315 C1314 1.386 . S
C1315 C1319 1.393 . S
C1316 H1305 0.950 . S
C1316 C1314 1.391 . S
C1316 C1317 1.400 . S
C1317 C1311 1.491 . S
C1317 C1316 1.400 . S
C1317 C1318 1.398 . S
C1318 H1306 0.950 . S
C1318 C1317 1.398 . S
C1318 C1319 1.391 . S
C1319 H1307 0.950 . S
C1319 C1315 1.393 . S
C1319 C1318 1.391 . S
H1320 C1328 0.950 . S
H1321 C1333 0.950 . S
H1322 C1330 0.950 . S
H1323 C1332 0.950 . S
H1324 C1334 0.950 . S
H1325 C1336 0.950 . S
H1326 C1338 0.950 . S
H1327 C1339 0.950 . S
C1328 H1320 0.950 . S
C1328 C1329 1.386 . S
C1328 C1330 1.391 . S
C1329 C1328 1.386 . S
C1329 C1333 1.393 . S
C1330 H1322 0.950 . S
C1330 C1328 1.391 . S
C1330 C1331 1.400 . S
C1331 C1330 1.400 . S
C1331 C1332 1.398 . S
C1331 C1337 1.491 . S
C1332 H1323 0.950 . S
C1332 C1331 1.398 . S
C1332 C1333 1.391 . S
C1333 H1321 0.950 . S
C1333 C1329 1.393 . S
C1333 C1332 1.391 . S
C1334 H1324 0.950 . S
C1334 C1335 1.386 . S
C1334 C1336 1.391 . S
C1335 C1334 1.386 . S
C1335 C1339 1.393 . S
C1336 H1325 0.950 . S
C1336 C1334 1.391 . S
C1336 C1337 1.400 . S
C1337 C1331 1.491 . S
C1337 C1336 1.400 . S
C1337 C1338 1.398 . S
C1338 H1326 0.950 . S
C1338 C1337 1.398 . S
C1338 C1339 1.391 . S
C1339 H1327 0.950 . S
C1339 C1335 1.393 . S
C1339 C1338 1.391 . S
H1340 C1348 0.950 . S
H1341 C1353 0.950 . S
H1342 C1350 0.950 . S
H1343 C1352 0.950 . S
H1344 C1354 0.950 . S
H1345 C1356 0.950 . S
H1346 C1358 0.950 . S
H1347 C1359 0.950 . S
C1348 H1340 0.950 . S
C1348 C1349 1.386 . S
C1348 C1350 1.391 . S
C1349 C1348 1.386 . S
C1349 C1353 1.393 . S
C1350 H1342 0.950 . S
C1350 C1348 1.391 . S
C1350 C1351 1.400 . S
C1351 C1350 1.400 . S
C1351 C1352 1.398 . S
C1351 C1357 1.491 . S
C1352 H1343 0.950 . S
C1352 C1351 1.398 . S
C1352 C1353 1.391 . S
C1353 H1341 0.950 . S
C1353 C1349 1.393 . S
C1353 C1352 1.391 . S
C1354 H1344 0.950 . S
C1354 C1355 1.386 . S
C1354 C1356 1.391 . S
C1355 C1354 1.386 . S
C1355 C1359 1.393 . S
C1356 H1345 0.950 . S
C1356 C1354 1.391 . S
C1356 C1357 1.400 . S
C1357 C1351 1.491 . S
C1357 C1356 1.400 . S
C1357 C1358 1.398 . S
C1358 H1346 0.950 . S
C1358 C1357 1.398 . S
C1358 C1359 1.391 . S
C1359 H1347 0.950 . S
C1359 C1355 1.393 . S
C1359 C1358 1.391 . S
C735 C641 1.922 . S
C729 C69 1.955 . S
C749 C125 0.737 . S
C755 C673 0.742 . S
C769 C217 1.950 . S
C775 C696 1.949 . S
C795 C600 1.533 . S
C789 C261 1.476 . S
C815 C683 1.620 . S
C809 C39 1.651 . S
C835 C712 1.734 . S
C829 C137 1.821 . S
C855 C616 1.651 . S
C849 C187 1.700 . S
C875 C651 1.925 . S
C869 C291 2.132 . S
C889 C51 0.684 . S
C895 C679 0.729 . S
C909 C365 2.031 . S
C915 C654 1.849 . S
C929 C199 0.752 . S
C935 C622 0.731 . S
C955 C711 1.617 . S
C949 C439 1.791 . S
C975 C655 1.819 . S
C969 C63 1.710 . S
C989 C335 1.498 . S
C995 C623 1.532 . S
C1009 C211 1.660 . S
C1015 C710 1.811 . S
C1035 C678 1.809 . S
C1029 C409 1.757 . S
C1049 C495 0.721 . S
C1055 C705 0.739 . S
C1069 C347 0.899 . S
C1075 C609 0.889 . S
C1089 C587 1.895 . S
C1095 C632 1.901 . S
C1109 C421 0.712 . S
C1115 C664 0.700 . S
C1135 C619 1.619 . S
C1129 C507 1.722 . S
C1149 C359 1.558 . S
C1155 C648 1.484 . S
C1169 C557 1.697 . S
C1175 C680 1.653 . S
C1195 C715 1.649 . S
C1189 C433 1.750 . S
C1209 C513 1.883 . S
C1215 C615 1.721 . S
C1229 C143 1.822 . S
C1235 C718 1.639 . S
C1249 C569 0.722 . S
C1255 C686 0.736 . S
C1275 C647 1.398 . S
C1269 C285 1.445 . S
C1295 C719 1.631 . S
C1289 C483 1.605 . S
C1315 C687 1.793 . S
C1309 C113 1.760 . S
C1335 C646 1.804 . S
C1329 C581 1.668 . S
C1355 C614 0.984 . S
C1349 C273 0.996 . S
