# Generated by pormake.
# Topology anh, (6,3)-cn, num edge types: 1
# Building blocks:
#     Node 0, Type 0, BuildingBlock: MIFKUJ_clean_sbu_0, # of connection points: 6
#     Node 1, Type 0, BuildingBlock: MIFKUJ_clean_sbu_0, # of connection points: 6
#     Node 2, Type 0, BuildingBlock: MIFKUJ_clean_sbu_0, # of connection points: 6
#     Node 3, Type 1, BuildingBlock: BETDAH_clean_linker_0, # of connection points: 3
#     Node 4, Type 1, BuildingBlock: BETDAH_clean_linker_0, # of connection points: 3
#     Node 5, Type 1, BuildingBlock: BETDAH_clean_linker_0, # of connection points: 3
#     Node 6, Type 1, BuildingBlock: BETDAH_clean_linker_0, # of connection points: 3
#     Node 7, Type 1, BuildingBlock: BETDAH_clean_linker_0, # of connection points: 3
#     Node 8, Type 1, BuildingBlock: BETDAH_clean_linker_0, # of connection points: 3
#     Edge 9, Type (0, 1), BuildingBlock: KIFKEQ_clean_linker_1, # of connection points: 2
#     Edge 10, Type (0, 1), BuildingBlock: KIFKEQ_clean_linker_1, # of connection points: 2
#     Edge 11, Type (0, 1), BuildingBlock: KIFKEQ_clean_linker_1, # of connection points: 2
#     Edge 12, Type (0, 1), BuildingBlock: KIFKEQ_clean_linker_1, # of connection points: 2
#     Edge 13, Type (0, 1), BuildingBlock: KIFKEQ_clean_linker_1, # of connection points: 2
#     Edge 14, Type (0, 1), BuildingBlock: KIFKEQ_clean_linker_1, # of connection points: 2
#     Edge 15, Type (0, 1), BuildingBlock: KIFKEQ_clean_linker_1, # of connection points: 2
#     Edge 16, Type (0, 1), BuildingBlock: KIFKEQ_clean_linker_1, # of connection points: 2
#     Edge 17, Type (0, 1), BuildingBlock: KIFKEQ_clean_linker_1, # of connection points: 2
#     Edge 18, Type (0, 1), BuildingBlock: KIFKEQ_clean_linker_1, # of connection points: 2
#     Edge 19, Type (0, 1), BuildingBlock: KIFKEQ_clean_linker_1, # of connection points: 2
#     Edge 20, Type (0, 1), BuildingBlock: KIFKEQ_clean_linker_1, # of connection points: 2
#     Edge 21, Type (0, 1), BuildingBlock: KIFKEQ_clean_linker_1, # of connection points: 2
#     Edge 22, Type (0, 1), BuildingBlock: KIFKEQ_clean_linker_1, # of connection points: 2
#     Edge 23, Type (0, 1), BuildingBlock: KIFKEQ_clean_linker_1, # of connection points: 2
#     Edge 24, Type (0, 1), BuildingBlock: KIFKEQ_clean_linker_1, # of connection points: 2
#     Edge 25, Type (0, 1), BuildingBlock: KIFKEQ_clean_linker_1, # of connection points: 2
#     Edge 26, Type (0, 1), BuildingBlock: KIFKEQ_clean_linker_1, # of connection points: 2
# Relax obj value: 0.069
# Max RMSD: 0.135
# Mean RMSD: 0.096
data_MOF--net-anh--node1-MIFKUJ_clean_sbu_0--node2-BETDAH_clean_linker_0--edge1-KIFKEQ_clean_linker_1
_symmetry_space_group_name_H-M    P1
_symmetry_Int_Tables_number       1
_symmetry_cell_setting            triclinic
loop_
_symmetry_equiv_pos_as_xyz
'x, y, z'
_cell_length_a     32.338009
_cell_length_b     32.206441
_cell_length_c     47.522675
_cell_angle_alpha  96.592826
_cell_angle_beta   93.299232
_cell_angle_gamma 119.47081
loop_
_atom_site_label
_atom_site_type_symbol
_atom_site_fract_x
_atom_site_fract_y
_atom_site_fract_z
_atom_type_partial_charge
Zn0 Zn 0.08066 0.59655 0.16599 0.0
Zn1 Zn 0.95597 0.48866 0.15712 0.0
C2 C 0.1696 0.6006 0.18744 0.0
O3 O 0.17436 0.63601 0.20661 0.0
C4 C 0.87622 0.49785 0.14628 0.0
O5 O 0.86971 0.46185 0.12693 0.0
O6 O 0.11727 0.66867 0.16919 0.0
O7 O 0.04728 0.56625 0.12566 0.0
O8 O 0.97806 0.49679 0.1185 0.0
C9 C 0.12883 0.69205 0.14848 0.0
O10 O 0.11395 0.66847 0.12217 0.0
O11 O 0.13178 0.57748 0.16945 0.0
C12 C 0.88766 0.41112 0.17924 0.0
O13 O 0.89716 0.44833 0.19856 0.0
O14 O 0.90968 0.41852 0.15739 0.0
O15 O 0.0058 0.505 0.19019 0.0
O16 O 0.04448 0.58399 0.20022 0.0
O17 O 0.91556 0.52092 0.16306 0.0
C18 C 0.01288 0.53047 0.109 0.0
C19 C 0.0198 0.54323 0.20789 0.0
Zn20 Zn 0.56263 0.09849 0.49564 0.0
Zn21 Zn 0.51227 0.94961 0.49917 0.0
C22 C 0.66615 0.15898 0.50434 0.0
O23 O 0.66204 0.15032 0.53069 0.0
C24 C 0.40998 0.90128 0.48457 0.0
O25 O 0.42165 0.92997 0.4653 0.0
O26 O 0.5252 0.13192 0.48813 0.0
O27 O 0.53696 0.03176 0.47671 0.0
O28 O 0.51747 0.95991 0.45748 0.0
C29 C 0.53873 0.16146 0.47044 0.0
O30 O 0.5711 0.16316 0.4544 0.0
O31 O 0.62893 0.13949 0.48605 0.0
C32 C 0.54118 0.89364 0.52905 0.0
O33 O 0.5092 0.89262 0.54523 0.0
O34 O 0.5493 0.91683 0.50822 0.0
O35 O 0.53677 0.01242 0.52829 0.0
O36 O 0.56437 0.0913 0.53712 0.0
O37 O 0.44287 0.90402 0.502 0.0
C38 C 0.52948 0.00269 0.45431 0.0
C39 C 0.55195 0.0514 0.54608 0.0
Zn40 Zn 0.60472 0.55241 0.84239 0.0
Zn41 Zn 0.50007 0.56816 0.83328 0.0
C42 C 0.58973 0.46035 0.84985 0.0
O43 O 0.61454 0.48734 0.87433 0.0
C44 C 0.52109 0.65516 0.80876 0.0
O45 O 0.49977 0.62424 0.78492 0.0
O46 O 0.67539 0.57783 0.84679 0.0
O47 O 0.59284 0.5826 0.80997 0.0
O48 O 0.5149 0.53559 0.7997 0.0
C49 C 0.69192 0.57148 0.82408 0.0
O50 O 0.66289 0.55237 0.79989 0.0
O51 O 0.57765 0.47962 0.83143 0.0
C52 C 0.41143 0.55443 0.84769 0.0
O53 O 0.44074 0.58984 0.86825 0.0
O54 O 0.42879 0.53827 0.82902 0.0
O55 O 0.51791 0.56345 0.87352 0.0
O56 O 0.58714 0.56527 0.88111 0.0
O57 O 0.52663 0.63962 0.83133 0.0
C58 C 0.55597 0.55727 0.79163 0.0
C59 C 0.55089 0.56507 0.89028 0.0
H60 H 0.43387 0.98393 0.25153 0.0
H61 H 0.58132 0.0701 0.23826 0.0
H62 H 0.47306 0.98579 0.16658 0.0
C63 C 0.46079 0.99818 0.23727 0.0
C64 C 0.4472 0.98209 0.2077 0.0
C65 C 0.50916 0.02977 0.24867 0.0
C66 C 0.54396 0.04588 0.22986 0.0
C67 C 0.5307 0.02946 0.20026 0.0
C68 C 0.48267 0.99778 0.18946 0.0
N69 N 0.56489 0.04278 0.18076 0.0
C70 C 0.6087 0.08536 0.18595 0.0
H71 H 0.55409 0.45681 0.57488 0.0
H72 H 0.63417 0.61195 0.5818 0.0
H73 H 0.61824 0.52222 0.5033 0.0
C74 C 0.57477 0.48895 0.56558 0.0
C75 C 0.58396 0.48385 0.53724 0.0
C76 C 0.59324 0.53494 0.58221 0.0
C77 C 0.61907 0.57614 0.56941 0.0
C78 C 0.62767 0.57138 0.54087 0.0
C79 C 0.61101 0.52543 0.52519 0.0
N80 N 0.65353 0.61235 0.52756 0.0
C81 C 0.64976 0.65344 0.53353 0.0
H82 H 0.96842 0.54562 0.90025 0.0
H83 H 0.04128 0.46565 0.88481 0.0
H84 H 0.9675 0.486 0.81429 0.0
C85 C 0.9803 0.5268 0.88539 0.0
C86 C 0.96566 0.51933 0.856 0.0
C87 C 0.00724 0.50733 0.89601 0.0
C88 C 0.02072 0.48106 0.87678 0.0
C89 C 0.00654 0.47368 0.84722 0.0
C90 C 0.97852 0.49217 0.83707 0.0
N91 N 0.01939 0.44723 0.82727 0.0
C92 C 0.06322 0.44929 0.83109 0.0
H93 H 0.0744 0.62515 0.41466 0.0
H94 H 0.97323 0.4814 0.42739 0.0
H95 H 0.07996 0.58265 0.49664 0.0
C96 C 0.05932 0.59875 0.42885 0.0
C97 C 0.0815 0.60985 0.45704 0.0
C98 C 0.02047 0.55251 0.41799 0.0
C99 C 0.00272 0.51732 0.43589 0.0
C100 C 0.02394 0.52859 0.46451 0.0
C101 C 0.06322 0.5746 0.47477 0.0
N102 N 0.00821 0.49434 0.48342 0.0
C103 C 0.96762 0.44875 0.47733 0.0
H104 H 0.55306 0.1387 0.75463 0.0
H105 H 0.56529 0.01587 0.76987 0.0
H106 H 0.57779 0.1195 0.8407 0.0
C107 C 0.55736 0.11741 0.76941 0.0
C108 C 0.56431 0.13382 0.79885 0.0
C109 C 0.55765 0.07504 0.75872 0.0
C110 C 0.56517 0.04863 0.77799 0.0
C111 C 0.57234 0.0646 0.80768 0.0
C112 C 0.57238 0.10739 0.81786 0.0
N113 N 0.57974 0.03883 0.82793 0.0
C114 C 0.57401 0.99282 0.82154 0.0
H115 H 0.61316 0.5706 0.09213 0.0
H116 H 0.48716 0.57151 0.11535 0.0
H117 H 0.57422 0.54736 0.17621 0.0
C118 C 0.58947 0.56786 0.10798 0.0
C119 C 0.59845 0.55801 0.13487 0.0
C120 C 0.54963 0.57272 0.10078 0.0
C121 C 0.51827 0.56831 0.12103 0.0
C122 C 0.52772 0.56007 0.1486 0.0
C123 C 0.56782 0.55504 0.1553 0.0
N124 N 0.49755 0.55562 0.17006 0.0
C125 C 0.45698 0.56029 0.16741 0.0
H126 H 0.18113 0.5464 0.14309 0.0
H127 H 0.24989 0.6342 0.22585 0.0
H128 H 0.24998 0.53539 0.13769 0.0
H129 H 0.31868 0.62333 0.22038 0.0
H130 H 0.41169 0.55297 0.21349 0.0
H131 H 0.34049 0.56012 0.21843 0.0
H132 H 0.33577 0.58398 0.13094 0.0
H133 H 0.40707 0.57621 0.12612 0.0
C134 C 0.21074 0.56304 0.16024 0.0
C135 C 0.20991 0.59112 0.18495 0.0
C136 C 0.25039 0.55707 0.15701 0.0
C137 C 0.28993 0.57858 0.17855 0.0
C138 C 0.28867 0.60591 0.20347 0.0
C139 C 0.24927 0.61228 0.20657 0.0
C140 C 0.39526 0.5597 0.19536 0.0
C141 C 0.41453 0.56416 0.16949 0.0
C142 C 0.35469 0.56402 0.1982 0.0
C143 C 0.33247 0.5728 0.17513 0.0
C144 C 0.35173 0.57675 0.14904 0.0
C145 C 0.39257 0.57258 0.14627 0.0
H146 H 0.75226 0.2096 0.53846 0.0
H147 H 0.68494 0.19047 0.45302 0.0
H148 H 0.82666 0.27528 0.52752 0.0
H149 H 0.75976 0.25597 0.44201 0.0
H150 H 0.87768 0.42113 0.45492 0.0
H151 H 0.80515 0.34478 0.45788 0.0
H152 H 0.89209 0.29488 0.49819 0.0
H153 H 0.96424 0.37156 0.49547 0.0
C154 C 0.75353 0.2189 0.51721 0.0
C155 C 0.71262 0.19507 0.4967 0.0
C156 C 0.79628 0.25637 0.51087 0.0
C157 C 0.79901 0.27086 0.48391 0.0
C158 C 0.75856 0.24591 0.46306 0.0
C159 C 0.71581 0.20828 0.46936 0.0
C160 C 0.88101 0.39326 0.46385 0.0
C161 C 0.92593 0.40161 0.475 0.0
C162 C 0.83971 0.34961 0.46547 0.0
C163 C 0.84296 0.31399 0.47847 0.0
C164 C 0.88846 0.32188 0.48841 0.0
C165 C 0.92965 0.36546 0.4867 0.0
H166 H 0.51686 0.7009 0.76439 0.0
H167 H 0.55475 0.72607 0.85588 0.0
H168 H 0.53154 0.78326 0.7669 0.0
H169 H 0.57009 0.80856 0.85831 0.0
H170 H 0.53256 0.92824 0.85643 0.0
H171 H 0.52295 0.84756 0.85297 0.0
H172 H 0.59294 0.86905 0.77679 0.0
H173 H 0.60168 0.94978 0.78025 0.0
C174 C 0.5288 0.72412 0.78501 0.0
C175 C 0.53427 0.70664 0.80996 0.0
C176 C 0.53746 0.77149 0.78643 0.0
C177 C 0.5516 0.80252 0.81284 0.0
C178 C 0.55843 0.78544 0.83766 0.0
C179 C 0.54997 0.73817 0.83624 0.0
C180 C 0.54571 0.91548 0.83894 0.0
C181 C 0.56767 0.94474 0.81856 0.0
C182 C 0.54062 0.86949 0.83705 0.0
C183 C 0.55745 0.85179 0.8147 0.0
C184 C 0.57923 0.88132 0.79414 0.0
C185 C 0.58438 0.92749 0.79611 0.0
H186 H 0.78208 0.43351 0.13145 0.0
H187 H 0.87937 0.58259 0.16878 0.0
H188 H 0.71492 0.44713 0.13303 0.0
H189 H 0.81144 0.59706 0.16934 0.0
H190 H 0.66756 0.5934 0.18191 0.0
H191 H 0.73543 0.57932 0.18848 0.0
H192 H 0.68702 0.48772 0.1058 0.0
H193 H 0.61928 0.50015 0.09993 0.0
C194 C 0.78915 0.46943 0.13988 0.0
C195 C 0.83614 0.50723 0.14948 0.0
C196 C 0.75055 0.47729 0.14073 0.0
C197 C 0.75776 0.52345 0.1507 0.0
C198 C 0.80461 0.56103 0.16154 0.0
C199 C 0.84352 0.55288 0.16109 0.0
C200 C 0.67131 0.56976 0.16543 0.0
C201 C 0.63826 0.54808 0.14034 0.0
C202 C 0.71038 0.56212 0.16902 0.0
C203 C 0.71667 0.53225 0.14772 0.0
C204 C 0.68307 0.5103 0.1229 0.0
C205 C 0.64439 0.51786 0.11935 0.0
H206 H 0.37156 0.84378 0.52492 0.0
H207 H 0.33451 0.87312 0.44363 0.0
H208 H 0.28954 0.77748 0.52272 0.0
H209 H 0.25317 0.80604 0.44095 0.0
H210 H 0.10111 0.70057 0.44975 0.0
H211 H 0.17861 0.77532 0.46028 0.0
H212 H 0.24136 0.69795 0.4956 0.0
H213 H 0.16398 0.62385 0.48555 0.0
C214 C 0.34585 0.83619 0.50664 0.0
C215 C 0.35955 0.86353 0.48439 0.0
C216 C 0.29891 0.79807 0.50532 0.0
C217 C 0.26477 0.78624 0.4816 0.0
C218 C 0.27825 0.81456 0.45976 0.0
C219 C 0.32505 0.85288 0.46119 0.0
C220 C 0.13144 0.69984 0.46009 0.0
C221 C 0.12657 0.65639 0.46675 0.0
C222 C 0.17583 0.74255 0.46602 0.0
C223 C 0.21634 0.74259 0.47856 0.0
C224 C 0.21086 0.69948 0.48631 0.0
C225 C 0.16646 0.65691 0.48053 0.0
H226 H 0.55538 0.39857 0.79837 0.0
H227 H 0.60353 0.40804 0.88677 0.0
H228 H 0.54709 0.31864 0.78758 0.0
H229 H 0.59397 0.32787 0.87624 0.0
H230 H 0.62734 0.21016 0.84003 0.0
H231 H 0.63049 0.28738 0.85299 0.0
H232 H 0.50232 0.23632 0.79382 0.0
H233 H 0.49991 0.15973 0.78059 0.0
C234 C 0.56349 0.38333 0.81558 0.0
C235 C 0.58024 0.40988 0.8434 0.0
C236 C 0.5586 0.33734 0.80945 0.0
C237 C 0.57007 0.31663 0.83101 0.0
C238 C 0.58565 0.34283 0.85896 0.0
C239 C 0.59077 0.3888 0.86504 0.0
C240 C 0.59952 0.21528 0.83012 0.0
C241 C 0.56363 0.17897 0.80913 0.0
C242 C 0.60125 0.25958 0.83753 0.0
C243 C 0.56688 0.2685 0.82427 0.0
C244 C 0.53005 0.23137 0.80401 0.0
C245 C 0.52851 0.1873 0.79652 0.0
H246 H 0.53722 0.84555 0.5735 0.0
H247 H 0.59716 0.87596 0.49436 0.0
H248 H 0.56979 0.79236 0.57862 0.0
H249 H 0.62836 0.82175 0.499 0.0
H250 H 0.70522 0.74362 0.52239 0.0
H251 H 0.68497 0.80787 0.52513 0.0
H252 H 0.55172 0.71397 0.55564 0.0
H253 H 0.57309 0.65082 0.55363 0.0
C254 C 0.55752 0.84105 0.55726 0.0
C255 C 0.5643 0.86468 0.53342 0.0
C256 C 0.57599 0.81039 0.56013 0.0
C257 C 0.6014 0.8025 0.53913 0.0
C258 C 0.60953 0.82746 0.51578 0.0
C259 C 0.59133 0.85833 0.51301 0.0
C260 C 0.6721 0.73742 0.53014 0.0
C261 C 0.6406 0.69289 0.53789 0.0
C262 C 0.66028 0.77387 0.53151 0.0
C263 C 0.6166 0.76602 0.54048 0.0
C264 C 0.58593 0.72157 0.54905 0.0
C265 C 0.59791 0.68532 0.54777 0.0
H266 H 0.7348 0.55387 0.78011 0.0
H267 H 0.75868 0.60316 0.87122 0.0
H268 H 0.80899 0.55132 0.7836 0.0
H269 H 0.83243 0.6 0.87469 0.0
H270 H 0.97346 0.60729 0.87276 0.0
H271 H 0.91418 0.63107 0.86151 0.0
H272 H 0.82719 0.49486 0.80492 0.0
H273 H 0.88602 0.47104 0.81627 0.0
C274 C 0.75626 0.56495 0.8008 0.0
C275 C 0.74053 0.57801 0.82548 0.0
C276 C 0.79865 0.56334 0.80278 0.0
C277 C 0.82619 0.57494 0.82943 0.0
C278 C 0.81216 0.59121 0.8538 0.0
C279 C 0.76971 0.59272 0.85184 0.0
C280 C 0.94189 0.58273 0.85767 0.0
C281 C 0.93404 0.53705 0.84567 0.0
C282 C 0.90808 0.59638 0.85121 0.0
C283 C 0.86594 0.56469 0.83252 0.0
C284 C 0.85961 0.52033 0.81914 0.0
C285 C 0.89331 0.50663 0.82566 0.0
H286 H 0.18106 0.74834 0.11049 0.0
H287 H 0.16164 0.75236 0.19979 0.0
H288 H 0.25439 0.82698 0.12218 0.0
H289 H 0.23495 0.83046 0.21141 0.0
H290 H 0.41383 0.90389 0.16544 0.0
H291 H 0.33126 0.84292 0.14804 0.0
H292 H 0.28251 0.91747 0.20644 0.0
H293 H 0.36578 0.97957 0.22367 0.0
C294 C 0.19174 0.76648 0.13249 0.0
C295 C 0.1662 0.7437 0.15431 0.0
C296 C 0.23383 0.81139 0.13918 0.0
C297 C 0.25082 0.83438 0.16776 0.0
C298 C 0.22278 0.81369 0.18919 0.0
C299 C 0.18091 0.76873 0.18254 0.0
C300 C 0.38565 0.90814 0.17412 0.0
C301 C 0.3965 0.94664 0.19599 0.0
C302 C 0.33821 0.87317 0.16406 0.0
C303 C 0.30039 0.87557 0.17575 0.0
C304 C 0.311 0.91465 0.19713 0.0
C305 C 0.35862 0.94995 0.20709 0.0
H306 H 0.4952 0.18552 0.51185 0.0
H307 H 0.55961 0.22856 0.43532 0.0
H308 H 0.49743 0.26229 0.52281 0.0
H309 H 0.56074 0.30496 0.44594 0.0
H310 H 0.49648 0.40175 0.53394 0.0
H311 H 0.47342 0.31973 0.51185 0.0
H312 H 0.61193 0.37413 0.48225 0.0
H313 H 0.63471 0.45565 0.50414 0.0
C314 C 0.50839 0.21068 0.49686 0.0
C315 C 0.52812 0.20136 0.47302 0.0
C316 C 0.50955 0.25474 0.50312 0.0
C317 C 0.53016 0.29016 0.48553 0.0
C318 C 0.54569 0.27887 0.46026 0.0
C319 C 0.54475 0.23495 0.45409 0.0
C320 C 0.52176 0.3961 0.52248 0.0
C321 C 0.56756 0.43507 0.52097 0.0
C322 C 0.50854 0.34919 0.50981 0.0
C323 C 0.54084 0.34032 0.49536 0.0
C324 C 0.5858 0.37969 0.49277 0.0
C325 C 0.59898 0.42651 0.5054 0.0
H326 H 0.36378 0.58433 0.88257 0.0
H327 H 0.34081 0.47866 0.80953 0.0
H328 H 0.27789 0.55328 0.87912 0.0
H329 H 0.25462 0.44681 0.8065 0.0
H330 H 0.11488 0.45216 0.78855 0.0
H331 H 0.19899 0.47346 0.79328 0.0
H332 H 0.2023 0.48409 0.88503 0.0
H333 H 0.1183 0.46374 0.88004 0.0
C334 C 0.34037 0.55418 0.86593 0.0
C335 C 0.35913 0.53419 0.8462 0.0
C336 C 0.29107 0.53611 0.86409 0.0
C337 C 0.25942 0.49755 0.84254 0.0
C338 C 0.27813 0.47694 0.82313 0.0
C339 C 0.32749 0.4951 0.82493 0.0
C340 C 0.13366 0.45841 0.80962 0.0
C341 C 0.11077 0.45635 0.83394 0.0
C342 C 0.18162 0.47039 0.81237 0.0
C343 C 0.20738 0.4806 0.83955 0.0
C344 C 0.18361 0.47703 0.86384 0.0
C345 C 0.1356 0.46508 0.86104 0.0
H346 H 0.83546 0.38501 0.22356 0.0
H347 H 0.85516 0.32659 0.14219 0.0
H348 H 0.77092 0.30508 0.22808 0.0
H349 H 0.78993 0.24661 0.14656 0.0
H350 H 0.69524 0.1014 0.17386 0.0
H351 H 0.76688 0.18049 0.17455 0.0
H352 H 0.68923 0.25079 0.20435 0.0
H353 H 0.61837 0.17176 0.20409 0.0
C354 C 0.82612 0.35508 0.20666 0.0
C355 C 0.85023 0.36212 0.18243 0.0
C356 C 0.78902 0.30933 0.20923 0.0
C357 C 0.77526 0.26963 0.18765 0.0
C358 C 0.80012 0.27643 0.16371 0.0
C359 C 0.83725 0.32227 0.16112 0.0
C360 C 0.69411 0.13399 0.18094 0.0
C361 C 0.65202 0.13123 0.18905 0.0
C362 C 0.73475 0.17907 0.18114 0.0
C363 C 0.7336 0.22182 0.18941 0.0
C364 C 0.69146 0.21857 0.19824 0.0
C365 C 0.65094 0.17353 0.19802 0.0
H366 H 0.94642 0.46082 0.06598 0.0
H367 H 0.08511 0.59145 0.08123 0.0
H368 H 0.95098 0.4551 0.01473 0.0
H369 H 0.08951 0.58549 0.03013 0.0
H370 H 0.04371 0.58869 0.93598 0.0
H371 H 0.04793 0.59368 0.98778 0.0
H372 H 0.99722 0.44056 0.97853 0.0
H373 H 0.99231 0.43552 0.92656 0.0
C374 C 0.97789 0.48826 0.05848 0.0
C375 C 0.01519 0.52684 0.0778 0.0
C376 C 0.98066 0.48474 0.02912 0.0
C377 C 0.02067 0.5198 0.01843 0.0
C378 C 0.05803 0.55819 0.03771 0.0
C379 C 0.0554 0.56159 0.06703 0.0
C380 C 0.03413 0.55627 0.94509 0.0
C381 C 0.01751 0.5117 0.92732 0.0
C382 C 0.03671 0.55914 0.97472 0.0
C383 C 0.02245 0.5174 0.98719 0.0
C384 C 0.00782 0.47318 0.96947 0.0
C385 C 0.00558 0.47039 0.93979 0.0
H386 H 0.51662 0.07204 0.43485 0.0
H387 H 0.5575 0.96581 0.40995 0.0
H388 H 0.52329 0.09319 0.38681 0.0
H389 H 0.56215 0.98488 0.36171 0.0
H390 H 0.58724 0.03623 0.27931 0.0
H391 H 0.60249 0.0424 0.3308 0.0
H392 H 0.47621 0.05357 0.34093 0.0
H393 H 0.46254 0.05027 0.28966 0.0
C394 C 0.52834 0.05429 0.41926 0.0
C395 C 0.53726 0.01799 0.42612 0.0
C396 C 0.53142 0.06573 0.39164 0.0
C397 C 0.5433 0.04077 0.37033 0.0
C398 C 0.55372 0.00546 0.37763 0.0
C399 C 0.55054 0.99409 0.40519 0.0
C400 C 0.56355 0.04156 0.29255 0.0
C401 C 0.52311 0.04185 0.28023 0.0
C402 C 0.57199 0.0445 0.3221 0.0
C403 C 0.54004 0.04745 0.33997 0.0
C404 C 0.50165 0.05138 0.32787 0.0
C405 C 0.49341 0.04881 0.29837 0.0
H406 H 0.62818 0.6229 0.76607 0.0
H407 H 0.49415 0.48735 0.74771 0.0
H408 H 0.6359 0.61921 0.71495 0.0
H409 H 0.50287 0.48324 0.69674 0.0
H410 H 0.59244 0.47669 0.62035 0.0
H411 H 0.58077 0.48272 0.67044 0.0
H412 H 0.57292 0.61152 0.66562 0.0
H413 H 0.58121 0.6041 0.61469 0.0
C414 C 0.60046 0.59235 0.75114 0.0
C415 C 0.56055 0.55537 0.76083 0.0
C416 C 0.6048 0.59046 0.72199 0.0
C417 C 0.56989 0.55103 0.70217 0.0
C418 C 0.53012 0.514 0.71177 0.0
C419 C 0.52518 0.51642 0.74083 0.0
C420 C 0.58705 0.50573 0.62955 0.0
C421 C 0.58715 0.53953 0.61311 0.0
C422 C 0.58085 0.50932 0.65835 0.0
C423 C 0.57587 0.54743 0.67162 0.0
C424 C 0.57687 0.58188 0.65568 0.0
C425 C 0.58195 0.57772 0.6266 0.0
H426 H 0.5557 0.11934 0.58741 0.0
H427 H 0.55088 0.98195 0.57517 0.0
H428 H 0.55423 0.11758 0.63838 0.0
H429 H 0.54955 0.98037 0.62669 0.0
H430 H 0.6092 0.04435 0.72727 0.0
H431 H 0.60647 0.03315 0.67507 0.0
H432 H 0.48986 0.06223 0.66738 0.0
H433 H 0.49185 0.07245 0.71911 0.0
C434 C 0.55447 0.08877 0.5956 0.0
C435 C 0.55287 0.05048 0.57718 0.0
C436 C 0.55334 0.08766 0.62478 0.0
C437 C 0.55118 0.04856 0.63637 0.0
C438 C 0.55104 0.01084 0.61822 0.0
C439 C 0.55148 0.01161 0.58879 0.0
C440 C 0.58222 0.04709 0.71434 0.0
C441 C 0.55126 0.06008 0.72729 0.0
C442 C 0.58076 0.04082 0.68453 0.0
C443 C 0.54852 0.04771 0.66733 0.0
C444 C 0.51568 0.05765 0.68021 0.0
C445 C 0.51687 0.06353 0.70981 0.0
H446 H 0.6202 0.5853 0.934 0.0
H447 H 0.47319 0.55137 0.91693 0.0
H448 H 0.61464 0.59156 0.98504 0.0
H449 H 0.46786 0.55787 0.96818 0.0
H450 H 0.47208 0.51432 0.06059 0.0
H451 H 0.46918 0.51447 0.00888 0.0
H452 H 0.60676 0.64607 0.02293 0.0
H453 H 0.60963 0.64546 0.0743 0.0
C454 C 0.58672 0.57922 0.9411 0.0
C455 C 0.54726 0.56806 0.92134 0.0
C456 C 0.58364 0.5832 0.97039 0.0
C457 C 0.54095 0.57577 0.98064 0.0
C458 C 0.5012 0.56381 0.96091 0.0
C459 C 0.5044 0.56028 0.93157 0.0
C460 C 0.50075 0.54409 0.05257 0.0
C461 C 0.54109 0.57984 0.07127 0.0
C462 C 0.4993 0.54407 0.02303 0.0
C463 C 0.53825 0.57976 0.01185 0.0
C464 C 0.57673 0.61753 0.03086 0.0
C465 C 0.57815 0.61752 0.06024 0.0
H466 H 0.04611 0.61797 0.25159 0.0
H467 H 0.97454 0.46201 0.2327 0.0
H468 H 0.0351 0.61368 0.30149 0.0
H469 H 0.96139 0.45758 0.28249 0.0
H470 H 0.01495 0.47999 0.37956 0.0
H471 H 0.00679 0.47359 0.32767 0.0
H472 H 0.97906 0.5925 0.33484 0.0
H473 H 0.98916 0.59981 0.38681 0.0
C474 C 0.02742 0.5827 0.25799 0.0
C475 C 0.01122 0.54038 0.23809 0.0
C476 C 0.02057 0.58017 0.28662 0.0
C477 C 0.99699 0.53522 0.29608 0.0
C478 C 0.98003 0.49281 0.27605 0.0
C479 C 0.98728 0.49537 0.24742 0.0
C480 C 0.00571 0.50374 0.36991 0.0
C481 C 0.00307 0.54063 0.38706 0.0
C482 C 0.00107 0.50018 0.34016 0.0
C483 C 0.99326 0.53323 0.32704 0.0
C484 C 0.98644 0.56737 0.34425 0.0
C485 C 0.99167 0.57127 0.37396 0.0
loop_
_geom_bond_atom_site_label_1
_geom_bond_atom_site_label_2
_geom_bond_distance
_geom_bond_site_symmetry_2
_ccdc_geom_bond_type
Zn0 O6 1.969 . S
Zn0 O7 1.965 . S
Zn0 O11 2.024 . S
Zn0 O16 1.969 . S
Zn1 O8 1.969 . S
Zn1 O14 1.969 . S
Zn1 O15 1.965 . S
Zn1 O17 2.024 . S
C2 O3 1.229 . S
C2 O11 1.058 . S
O3 C2 1.229 . S
C4 O5 1.229 . S
C4 O17 1.058 . S
O5 C4 1.229 . S
O6 Zn0 1.969 . S
O6 C9 1.267 . S
O7 Zn0 1.965 . S
O7 C18 1.260 . S
O8 Zn1 1.969 . S
O8 C18 1.258 1_655 S
C9 O6 1.267 . S
C9 O10 1.228 . S
O10 C9 1.228 . S
O11 Zn0 2.024 . S
O11 C2 1.058 . S
C12 O13 1.228 . S
C12 O14 1.267 . S
O13 C12 1.228 . S
O14 Zn1 1.969 . S
O14 C12 1.267 . S
O15 Zn1 1.965 . S
O15 C19 1.260 1_655 S
O16 Zn0 1.969 . S
O16 C19 1.258 . S
O17 Zn1 2.024 . S
O17 C4 1.058 . S
C18 O7 1.260 . S
C18 O8 1.258 1_455 S
C19 O15 1.260 1_455 S
C19 O16 1.258 . S
Zn20 O26 1.969 . S
Zn20 O27 1.965 . S
Zn20 O31 2.024 . S
Zn20 O36 1.969 . S
Zn21 O28 1.969 . S
Zn21 O34 1.969 . S
Zn21 O35 1.965 1_565 S
Zn21 O37 2.024 . S
C22 O23 1.229 . S
C22 O31 1.058 . S
O23 C22 1.229 . S
C24 O25 1.229 . S
C24 O37 1.058 . S
O25 C24 1.229 . S
O26 Zn20 1.969 . S
O26 C29 1.267 . S
O27 Zn20 1.965 . S
O27 C38 1.260 . S
O28 Zn21 1.969 . S
O28 C38 1.258 1_565 S
C29 O26 1.267 . S
C29 O30 1.228 . S
O30 C29 1.228 . S
O31 Zn20 2.024 . S
O31 C22 1.058 . S
C32 O33 1.228 . S
C32 O34 1.267 . S
O33 C32 1.228 . S
O34 Zn21 1.969 . S
O34 C32 1.267 . S
O35 Zn21 1.965 1_545 S
O35 C39 1.260 . S
O36 Zn20 1.969 . S
O36 C39 1.258 . S
O37 Zn21 2.024 . S
O37 C24 1.058 . S
C38 O27 1.260 . S
C38 O28 1.258 1_545 S
C39 O35 1.260 . S
C39 O36 1.258 . S
Zn40 O46 1.969 . S
Zn40 O47 1.965 . S
Zn40 O51 2.024 . S
Zn40 O56 1.969 . S
Zn41 O48 1.969 . S
Zn41 O54 1.969 . S
Zn41 O55 1.965 . S
Zn41 O57 2.024 . S
C42 O43 1.229 . S
C42 O51 1.058 . S
O43 C42 1.229 . S
C44 O45 1.229 . S
C44 O57 1.058 . S
O45 C44 1.229 . S
O46 Zn40 1.969 . S
O46 C49 1.267 . S
O47 Zn40 1.965 . S
O47 C58 1.260 . S
O48 Zn41 1.969 . S
O48 C58 1.258 . S
C49 O46 1.267 . S
C49 O50 1.228 . S
O50 C49 1.228 . S
O51 Zn40 2.024 . S
O51 C42 1.058 . S
C52 O53 1.228 . S
C52 O54 1.267 . S
O53 C52 1.228 . S
O54 Zn41 1.969 . S
O54 C52 1.267 . S
O55 Zn41 1.965 . S
O55 C59 1.260 . S
O56 Zn40 1.969 . S
O56 C59 1.258 . S
O57 Zn41 2.024 . S
O57 C44 1.058 . S
C58 O47 1.260 . S
C58 O48 1.258 . S
C59 O55 1.260 . S
C59 O56 1.258 . S
H60 C63 0.929 1_565 S
H61 C66 0.929 . S
H62 C68 0.930 . S
C63 H60 0.929 1_545 S
C63 C64 1.398 1_545 S
C63 C65 1.396 . S
C64 C63 1.398 1_565 S
C64 C68 1.407 1_565 S
C65 C63 1.396 . S
C65 C66 1.394 . S
C66 H61 0.929 . S
C66 C65 1.394 . S
C66 C67 1.382 . S
C67 C66 1.382 . S
C67 C68 1.392 . S
C67 N69 1.420 . S
C68 H62 0.930 . S
C68 C64 1.407 1_545 S
C68 C67 1.392 . S
N69 C67 1.420 . S
N69 C70 1.244 . S
C70 N69 1.244 . S
H71 C74 0.929 . S
H72 C77 0.929 . S
H73 C79 0.930 . S
C74 H71 0.929 . S
C74 C75 1.398 . S
C74 C76 1.396 . S
C75 C74 1.398 . S
C75 C79 1.407 . S
C76 C74 1.396 . S
C76 C77 1.394 . S
C77 H72 0.929 . S
C77 C76 1.394 . S
C77 C78 1.382 . S
C78 C77 1.382 . S
C78 C79 1.392 . S
C78 N80 1.420 . S
C79 H73 0.930 . S
C79 C75 1.407 . S
C79 C78 1.392 . S
N80 C78 1.420 . S
N80 C81 1.244 . S
C81 N80 1.244 . S
H82 C85 0.929 1_655 S
H83 C88 0.929 . S
H84 C90 0.930 . S
C85 H82 0.929 1_455 S
C85 C86 1.398 1_455 S
C85 C87 1.396 . S
C86 C85 1.398 1_655 S
C86 C90 1.407 1_655 S
C87 C85 1.396 . S
C87 C88 1.394 . S
C88 H83 0.929 . S
C88 C87 1.394 . S
C88 C89 1.382 . S
C89 C88 1.382 . S
C89 C90 1.392 . S
C89 N91 1.420 . S
C90 H84 0.930 . S
C90 C86 1.407 1_455 S
C90 C89 1.392 . S
N91 C89 1.420 . S
N91 C92 1.244 . S
C92 N91 1.244 . S
H93 C96 0.929 . S
H94 C99 0.929 1_655 S
H95 C101 0.930 . S
C96 H93 0.929 . S
C96 C97 1.398 . S
C96 C98 1.396 . S
C97 C96 1.398 . S
C97 C101 1.407 . S
C98 C96 1.396 . S
C98 C99 1.394 . S
C99 H94 0.929 1_455 S
C99 C98 1.394 . S
C99 C100 1.382 . S
C100 C99 1.382 . S
C100 C101 1.392 . S
C100 N102 1.420 1_455 S
C101 H95 0.930 . S
C101 C97 1.407 . S
C101 C100 1.392 . S
N102 C100 1.420 1_655 S
N102 C103 1.244 . S
C103 N102 1.244 . S
H104 C107 0.929 . S
H105 C110 0.929 1_565 S
H106 C112 0.930 . S
C107 H104 0.929 . S
C107 C108 1.398 . S
C107 C109 1.396 . S
C108 C107 1.398 . S
C108 C112 1.407 . S
C109 C107 1.396 . S
C109 C110 1.394 . S
C110 H105 0.929 1_545 S
C110 C109 1.394 . S
C110 C111 1.382 . S
C111 C110 1.382 . S
C111 C112 1.392 . S
C111 N113 1.426 . S
C112 H106 0.930 . S
C112 C108 1.407 . S
C112 C111 1.392 . S
N113 C111 1.426 . S
N113 C114 1.238 1_545 S
C114 N113 1.238 1_565 S
H115 C118 0.929 . S
H116 C121 0.929 . S
H117 C123 0.930 . S
C118 H115 0.929 . S
C118 C119 1.398 . S
C118 C120 1.396 . S
C119 C118 1.398 . S
C119 C123 1.407 . S
C120 C118 1.396 . S
C120 C121 1.394 . S
C121 H116 0.929 . S
C121 C120 1.394 . S
C121 C122 1.382 . S
C122 C121 1.382 . S
C122 C123 1.392 . S
C122 N124 1.420 . S
C123 H117 0.930 . S
C123 C119 1.407 . S
C123 C122 1.392 . S
N124 C122 1.420 . S
N124 C125 1.244 . S
C125 N124 1.244 . S
H126 C134 0.950 . S
H127 C139 0.950 . S
H128 C136 0.950 . S
H129 C138 0.950 . S
H130 C140 0.950 . S
H131 C142 0.950 . S
H132 C144 0.950 . S
H133 C145 0.950 . S
C134 H126 0.950 . S
C134 C135 1.386 . S
C134 C136 1.391 . S
C135 C134 1.386 . S
C135 C139 1.393 . S
C136 H128 0.950 . S
C136 C134 1.391 . S
C136 C137 1.400 . S
C137 C136 1.400 . S
C137 C138 1.398 . S
C137 C143 1.491 . S
C138 H129 0.950 . S
C138 C137 1.398 . S
C138 C139 1.391 . S
C139 H127 0.950 . S
C139 C135 1.393 . S
C139 C138 1.391 . S
C140 H130 0.950 . S
C140 C141 1.386 . S
C140 C142 1.391 . S
C141 C140 1.386 . S
C141 C145 1.393 . S
C142 H131 0.950 . S
C142 C140 1.391 . S
C142 C143 1.400 . S
C143 C137 1.491 . S
C143 C142 1.400 . S
C143 C144 1.398 . S
C144 H132 0.950 . S
C144 C143 1.398 . S
C144 C145 1.391 . S
C145 H133 0.950 . S
C145 C141 1.393 . S
C145 C144 1.391 . S
H146 C154 0.950 . S
H147 C159 0.950 . S
H148 C156 0.950 . S
H149 C158 0.950 . S
H150 C160 0.950 . S
H151 C162 0.950 . S
H152 C164 0.950 . S
H153 C165 0.950 . S
C154 H146 0.950 . S
C154 C155 1.386 . S
C154 C156 1.391 . S
C155 C154 1.386 . S
C155 C159 1.393 . S
C156 H148 0.950 . S
C156 C154 1.391 . S
C156 C157 1.400 . S
C157 C156 1.400 . S
C157 C158 1.398 . S
C157 C163 1.491 . S
C158 H149 0.950 . S
C158 C157 1.398 . S
C158 C159 1.391 . S
C159 H147 0.950 . S
C159 C155 1.393 . S
C159 C158 1.391 . S
C160 H150 0.950 . S
C160 C161 1.386 . S
C160 C162 1.391 . S
C161 C160 1.386 . S
C161 C165 1.393 . S
C162 H151 0.950 . S
C162 C160 1.391 . S
C162 C163 1.400 . S
C163 C157 1.491 . S
C163 C162 1.400 . S
C163 C164 1.398 . S
C164 H152 0.950 . S
C164 C163 1.398 . S
C164 C165 1.391 . S
C165 H153 0.950 . S
C165 C161 1.393 . S
C165 C164 1.391 . S
H166 C174 0.950 . S
H167 C179 0.950 . S
H168 C176 0.950 . S
H169 C178 0.950 . S
H170 C180 0.950 . S
H171 C182 0.950 . S
H172 C184 0.950 . S
H173 C185 0.950 . S
C174 H166 0.950 . S
C174 C175 1.386 . S
C174 C176 1.391 . S
C175 C174 1.386 . S
C175 C179 1.393 . S
C176 H168 0.950 . S
C176 C174 1.391 . S
C176 C177 1.400 . S
C177 C176 1.400 . S
C177 C178 1.398 . S
C177 C183 1.491 . S
C178 H169 0.950 . S
C178 C177 1.398 . S
C178 C179 1.391 . S
C179 H167 0.950 . S
C179 C175 1.393 . S
C179 C178 1.391 . S
C180 H170 0.950 . S
C180 C181 1.386 . S
C180 C182 1.391 . S
C181 C180 1.386 . S
C181 C185 1.393 . S
C182 H171 0.950 . S
C182 C180 1.391 . S
C182 C183 1.400 . S
C183 C177 1.491 . S
C183 C182 1.400 . S
C183 C184 1.398 . S
C184 H172 0.950 . S
C184 C183 1.398 . S
C184 C185 1.391 . S
C185 H173 0.950 . S
C185 C181 1.393 . S
C185 C184 1.391 . S
H186 C194 0.950 . S
H187 C199 0.950 . S
H188 C196 0.950 . S
H189 C198 0.950 . S
H190 C200 0.950 . S
H191 C202 0.950 . S
H192 C204 0.950 . S
H193 C205 0.950 . S
C194 H186 0.950 . S
C194 C195 1.386 . S
C194 C196 1.391 . S
C195 C194 1.386 . S
C195 C199 1.393 . S
C196 H188 0.950 . S
C196 C194 1.391 . S
C196 C197 1.400 . S
C197 C196 1.400 . S
C197 C198 1.398 . S
C197 C203 1.491 . S
C198 H189 0.950 . S
C198 C197 1.398 . S
C198 C199 1.391 . S
C199 H187 0.950 . S
C199 C195 1.393 . S
C199 C198 1.391 . S
C200 H190 0.950 . S
C200 C201 1.386 . S
C200 C202 1.391 . S
C201 C200 1.386 . S
C201 C205 1.393 . S
C202 H191 0.950 . S
C202 C200 1.391 . S
C202 C203 1.400 . S
C203 C197 1.491 . S
C203 C202 1.400 . S
C203 C204 1.398 . S
C204 H192 0.950 . S
C204 C203 1.398 . S
C204 C205 1.391 . S
C205 H193 0.950 . S
C205 C201 1.393 . S
C205 C204 1.391 . S
H206 C214 0.950 . S
H207 C219 0.950 . S
H208 C216 0.950 . S
H209 C218 0.950 . S
H210 C220 0.950 . S
H211 C222 0.950 . S
H212 C224 0.950 . S
H213 C225 0.950 . S
C214 H206 0.950 . S
C214 C215 1.386 . S
C214 C216 1.391 . S
C215 C214 1.386 . S
C215 C219 1.393 . S
C216 H208 0.950 . S
C216 C214 1.391 . S
C216 C217 1.400 . S
C217 C216 1.400 . S
C217 C218 1.398 . S
C217 C223 1.491 . S
C218 H209 0.950 . S
C218 C217 1.398 . S
C218 C219 1.391 . S
C219 H207 0.950 . S
C219 C215 1.393 . S
C219 C218 1.391 . S
C220 H210 0.950 . S
C220 C221 1.386 . S
C220 C222 1.391 . S
C221 C220 1.386 . S
C221 C225 1.393 . S
C222 H211 0.950 . S
C222 C220 1.391 . S
C222 C223 1.400 . S
C223 C217 1.491 . S
C223 C222 1.400 . S
C223 C224 1.398 . S
C224 H212 0.950 . S
C224 C223 1.398 . S
C224 C225 1.391 . S
C225 H213 0.950 . S
C225 C221 1.393 . S
C225 C224 1.391 . S
H226 C234 0.950 . S
H227 C239 0.950 . S
H228 C236 0.950 . S
H229 C238 0.950 . S
H230 C240 0.950 . S
H231 C242 0.950 . S
H232 C244 0.950 . S
H233 C245 0.950 . S
C234 H226 0.950 . S
C234 C235 1.386 . S
C234 C236 1.391 . S
C235 C234 1.386 . S
C235 C239 1.393 . S
C236 H228 0.950 . S
C236 C234 1.391 . S
C236 C237 1.400 . S
C237 C236 1.400 . S
C237 C238 1.398 . S
C237 C243 1.491 . S
C238 H229 0.950 . S
C238 C237 1.398 . S
C238 C239 1.391 . S
C239 H227 0.950 . S
C239 C235 1.393 . S
C239 C238 1.391 . S
C240 H230 0.950 . S
C240 C241 1.386 . S
C240 C242 1.391 . S
C241 C240 1.386 . S
C241 C245 1.393 . S
C242 H231 0.950 . S
C242 C240 1.391 . S
C242 C243 1.400 . S
C243 C237 1.491 . S
C243 C242 1.400 . S
C243 C244 1.398 . S
C244 H232 0.950 . S
C244 C243 1.398 . S
C244 C245 1.391 . S
C245 H233 0.950 . S
C245 C241 1.393 . S
C245 C244 1.391 . S
H246 C254 0.950 . S
H247 C259 0.950 . S
H248 C256 0.950 . S
H249 C258 0.950 . S
H250 C260 0.950 . S
H251 C262 0.950 . S
H252 C264 0.950 . S
H253 C265 0.950 . S
C254 H246 0.950 . S
C254 C255 1.386 . S
C254 C256 1.391 . S
C255 C254 1.386 . S
C255 C259 1.393 . S
C256 H248 0.950 . S
C256 C254 1.391 . S
C256 C257 1.400 . S
C257 C256 1.400 . S
C257 C258 1.398 . S
C257 C263 1.491 . S
C258 H249 0.950 . S
C258 C257 1.398 . S
C258 C259 1.391 . S
C259 H247 0.950 . S
C259 C255 1.393 . S
C259 C258 1.391 . S
C260 H250 0.950 . S
C260 C261 1.386 . S
C260 C262 1.391 . S
C261 C260 1.386 . S
C261 C265 1.393 . S
C262 H251 0.950 . S
C262 C260 1.391 . S
C262 C263 1.400 . S
C263 C257 1.491 . S
C263 C262 1.400 . S
C263 C264 1.398 . S
C264 H252 0.950 . S
C264 C263 1.398 . S
C264 C265 1.391 . S
C265 H253 0.950 . S
C265 C261 1.393 . S
C265 C264 1.391 . S
H266 C274 0.950 . S
H267 C279 0.950 . S
H268 C276 0.950 . S
H269 C278 0.950 . S
H270 C280 0.950 . S
H271 C282 0.950 . S
H272 C284 0.950 . S
H273 C285 0.950 . S
C274 H266 0.950 . S
C274 C275 1.386 . S
C274 C276 1.391 . S
C275 C274 1.386 . S
C275 C279 1.393 . S
C276 H268 0.950 . S
C276 C274 1.391 . S
C276 C277 1.400 . S
C277 C276 1.400 . S
C277 C278 1.398 . S
C277 C283 1.491 . S
C278 H269 0.950 . S
C278 C277 1.398 . S
C278 C279 1.391 . S
C279 H267 0.950 . S
C279 C275 1.393 . S
C279 C278 1.391 . S
C280 H270 0.950 . S
C280 C281 1.386 . S
C280 C282 1.391 . S
C281 C280 1.386 . S
C281 C285 1.393 . S
C282 H271 0.950 . S
C282 C280 1.391 . S
C282 C283 1.400 . S
C283 C277 1.491 . S
C283 C282 1.400 . S
C283 C284 1.398 . S
C284 H272 0.950 . S
C284 C283 1.398 . S
C284 C285 1.391 . S
C285 H273 0.950 . S
C285 C281 1.393 . S
C285 C284 1.391 . S
H286 C294 0.950 . S
H287 C299 0.950 . S
H288 C296 0.950 . S
H289 C298 0.950 . S
H290 C300 0.950 . S
H291 C302 0.950 . S
H292 C304 0.950 . S
H293 C305 0.950 . S
C294 H286 0.950 . S
C294 C295 1.386 . S
C294 C296 1.391 . S
C295 C294 1.386 . S
C295 C299 1.393 . S
C296 H288 0.950 . S
C296 C294 1.391 . S
C296 C297 1.400 . S
C297 C296 1.400 . S
C297 C298 1.398 . S
C297 C303 1.491 . S
C298 H289 0.950 . S
C298 C297 1.398 . S
C298 C299 1.391 . S
C299 H287 0.950 . S
C299 C295 1.393 . S
C299 C298 1.391 . S
C300 H290 0.950 . S
C300 C301 1.386 . S
C300 C302 1.391 . S
C301 C300 1.386 . S
C301 C305 1.393 . S
C302 H291 0.950 . S
C302 C300 1.391 . S
C302 C303 1.400 . S
C303 C297 1.491 . S
C303 C302 1.400 . S
C303 C304 1.398 . S
C304 H292 0.950 . S
C304 C303 1.398 . S
C304 C305 1.391 . S
C305 H293 0.950 . S
C305 C301 1.393 . S
C305 C304 1.391 . S
H306 C314 0.950 . S
H307 C319 0.950 . S
H308 C316 0.950 . S
H309 C318 0.950 . S
H310 C320 0.950 . S
H311 C322 0.950 . S
H312 C324 0.950 . S
H313 C325 0.950 . S
C314 H306 0.950 . S
C314 C315 1.386 . S
C314 C316 1.391 . S
C315 C314 1.386 . S
C315 C319 1.393 . S
C316 H308 0.950 . S
C316 C314 1.391 . S
C316 C317 1.400 . S
C317 C316 1.400 . S
C317 C318 1.398 . S
C317 C323 1.491 . S
C318 H309 0.950 . S
C318 C317 1.398 . S
C318 C319 1.391 . S
C319 H307 0.950 . S
C319 C315 1.393 . S
C319 C318 1.391 . S
C320 H310 0.950 . S
C320 C321 1.386 . S
C320 C322 1.391 . S
C321 C320 1.386 . S
C321 C325 1.393 . S
C322 H311 0.950 . S
C322 C320 1.391 . S
C322 C323 1.400 . S
C323 C317 1.491 . S
C323 C322 1.400 . S
C323 C324 1.398 . S
C324 H312 0.950 . S
C324 C323 1.398 . S
C324 C325 1.391 . S
C325 H313 0.950 . S
C325 C321 1.393 . S
C325 C324 1.391 . S
H326 C334 0.950 . S
H327 C339 0.950 . S
H328 C336 0.950 . S
H329 C338 0.950 . S
H330 C340 0.950 . S
H331 C342 0.950 . S
H332 C344 0.950 . S
H333 C345 0.950 . S
C334 H326 0.950 . S
C334 C335 1.386 . S
C334 C336 1.391 . S
C335 C334 1.386 . S
C335 C339 1.393 . S
C336 H328 0.950 . S
C336 C334 1.391 . S
C336 C337 1.400 . S
C337 C336 1.400 . S
C337 C338 1.398 . S
C337 C343 1.491 . S
C338 H329 0.950 . S
C338 C337 1.398 . S
C338 C339 1.391 . S
C339 H327 0.950 . S
C339 C335 1.393 . S
C339 C338 1.391 . S
C340 H330 0.950 . S
C340 C341 1.386 . S
C340 C342 1.391 . S
C341 C340 1.386 . S
C341 C345 1.393 . S
C342 H331 0.950 . S
C342 C340 1.391 . S
C342 C343 1.400 . S
C343 C337 1.491 . S
C343 C342 1.400 . S
C343 C344 1.398 . S
C344 H332 0.950 . S
C344 C343 1.398 . S
C344 C345 1.391 . S
C345 H333 0.950 . S
C345 C341 1.393 . S
C345 C344 1.391 . S
H346 C354 0.950 . S
H347 C359 0.950 . S
H348 C356 0.950 . S
H349 C358 0.950 . S
H350 C360 0.950 . S
H351 C362 0.950 . S
H352 C364 0.950 . S
H353 C365 0.950 . S
C354 H346 0.950 . S
C354 C355 1.386 . S
C354 C356 1.391 . S
C355 C354 1.386 . S
C355 C359 1.393 . S
C356 H348 0.950 . S
C356 C354 1.391 . S
C356 C357 1.400 . S
C357 C356 1.400 . S
C357 C358 1.398 . S
C357 C363 1.491 . S
C358 H349 0.950 . S
C358 C357 1.398 . S
C358 C359 1.391 . S
C359 H347 0.950 . S
C359 C355 1.393 . S
C359 C358 1.391 . S
C360 H350 0.950 . S
C360 C361 1.386 . S
C360 C362 1.391 . S
C361 C360 1.386 . S
C361 C365 1.393 . S
C362 H351 0.950 . S
C362 C360 1.391 . S
C362 C363 1.400 . S
C363 C357 1.491 . S
C363 C362 1.400 . S
C363 C364 1.398 . S
C364 H352 0.950 . S
C364 C363 1.398 . S
C364 C365 1.391 . S
C365 H353 0.950 . S
C365 C361 1.393 . S
C365 C364 1.391 . S
H366 C374 0.950 . S
H367 C379 0.950 . S
H368 C376 0.950 . S
H369 C378 0.950 . S
H370 C380 0.950 . S
H371 C382 0.950 1_554 S
H372 C384 0.950 . S
H373 C385 0.950 . S
C374 H366 0.950 . S
C374 C375 1.386 1_655 S
C374 C376 1.391 . S
C375 C374 1.386 1_455 S
C375 C379 1.393 . S
C376 H368 0.950 . S
C376 C374 1.391 . S
C376 C377 1.400 1_655 S
C377 C376 1.400 1_455 S
C377 C378 1.398 . S
C377 C383 1.491 . S
C378 H369 0.950 . S
C378 C377 1.398 . S
C378 C379 1.391 . S
C379 H367 0.950 . S
C379 C375 1.393 . S
C379 C378 1.391 . S
C380 H370 0.950 . S
C380 C381 1.386 . S
C380 C382 1.391 . S
C381 C380 1.386 . S
C381 C385 1.393 1_455 S
C382 H371 0.950 1_556 S
C382 C380 1.391 . S
C382 C383 1.400 1_556 S
C383 C377 1.491 . S
C383 C382 1.400 1_554 S
C383 C384 1.398 1_454 S
C384 H372 0.950 . S
C384 C383 1.398 1_656 S
C384 C385 1.391 . S
C385 H373 0.950 . S
C385 C381 1.393 1_655 S
C385 C384 1.391 . S
H386 C394 0.950 . S
H387 C399 0.950 . S
H388 C396 0.950 . S
H389 C398 0.950 . S
H390 C400 0.950 . S
H391 C402 0.950 . S
H392 C404 0.950 . S
H393 C405 0.950 . S
C394 H386 0.950 . S
C394 C395 1.386 . S
C394 C396 1.391 . S
C395 C394 1.386 . S
C395 C399 1.393 . S
C396 H388 0.950 . S
C396 C394 1.391 . S
C396 C397 1.400 . S
C397 C396 1.400 . S
C397 C398 1.398 . S
C397 C403 1.491 . S
C398 H389 0.950 . S
C398 C397 1.398 . S
C398 C399 1.391 . S
C399 H387 0.950 . S
C399 C395 1.393 . S
C399 C398 1.391 . S
C400 H390 0.950 . S
C400 C401 1.386 . S
C400 C402 1.391 . S
C401 C400 1.386 . S
C401 C405 1.393 . S
C402 H391 0.950 . S
C402 C400 1.391 . S
C402 C403 1.400 . S
C403 C397 1.491 . S
C403 C402 1.400 . S
C403 C404 1.398 . S
C404 H392 0.950 . S
C404 C403 1.398 . S
C404 C405 1.391 . S
C405 H393 0.950 . S
C405 C401 1.393 . S
C405 C404 1.391 . S
H406 C414 0.950 . S
H407 C419 0.950 . S
H408 C416 0.950 . S
H409 C418 0.950 . S
H410 C420 0.950 . S
H411 C422 0.950 . S
H412 C424 0.950 . S
H413 C425 0.950 . S
C414 H406 0.950 . S
C414 C415 1.386 . S
C414 C416 1.391 . S
C415 C414 1.386 . S
C415 C419 1.393 . S
C416 H408 0.950 . S
C416 C414 1.391 . S
C416 C417 1.400 . S
C417 C416 1.400 . S
C417 C418 1.398 . S
C417 C423 1.491 . S
C418 H409 0.950 . S
C418 C417 1.398 . S
C418 C419 1.391 . S
C419 H407 0.950 . S
C419 C415 1.393 . S
C419 C418 1.391 . S
C420 H410 0.950 . S
C420 C421 1.386 . S
C420 C422 1.391 . S
C421 C420 1.386 . S
C421 C425 1.393 . S
C422 H411 0.950 . S
C422 C420 1.391 . S
C422 C423 1.400 . S
C423 C417 1.491 . S
C423 C422 1.400 . S
C423 C424 1.398 . S
C424 H412 0.950 . S
C424 C423 1.398 . S
C424 C425 1.391 . S
C425 H413 0.950 . S
C425 C421 1.393 . S
C425 C424 1.391 . S
H426 C434 0.950 . S
H427 C439 0.950 1_565 S
H428 C436 0.950 . S
H429 C438 0.950 1_565 S
H430 C440 0.950 1_565 S
H431 C442 0.950 1_565 S
H432 C444 0.950 . S
H433 C445 0.950 . S
C434 H426 0.950 . S
C434 C435 1.386 . S
C434 C436 1.391 . S
C435 C434 1.386 . S
C435 C439 1.393 . S
C436 H428 0.950 . S
C436 C434 1.391 . S
C436 C437 1.400 . S
C437 C436 1.400 . S
C437 C438 1.398 . S
C437 C443 1.491 . S
C438 H429 0.950 1_545 S
C438 C437 1.398 . S
C438 C439 1.391 . S
C439 H427 0.950 1_545 S
C439 C435 1.393 . S
C439 C438 1.391 . S
C440 H430 0.950 1_545 S
C440 C441 1.386 . S
C440 C442 1.391 . S
C441 C440 1.386 . S
C441 C445 1.393 . S
C442 H431 0.950 1_545 S
C442 C440 1.391 . S
C442 C443 1.400 . S
C443 C437 1.491 . S
C443 C442 1.400 . S
C443 C444 1.398 . S
C444 H432 0.950 . S
C444 C443 1.398 . S
C444 C445 1.391 . S
C445 H433 0.950 . S
C445 C441 1.393 . S
C445 C444 1.391 . S
H446 C454 0.950 . S
H447 C459 0.950 . S
H448 C456 0.950 . S
H449 C458 0.950 . S
H450 C460 0.950 . S
H451 C462 0.950 1_556 S
H452 C464 0.950 . S
H453 C465 0.950 . S
C454 H446 0.950 . S
C454 C455 1.386 . S
C454 C456 1.391 . S
C455 C454 1.386 . S
C455 C459 1.393 . S
C456 H448 0.950 . S
C456 C454 1.391 . S
C456 C457 1.400 . S
C457 C456 1.400 . S
C457 C458 1.398 . S
C457 C463 1.491 . S
C458 H449 0.950 . S
C458 C457 1.398 . S
C458 C459 1.391 . S
C459 H447 0.950 . S
C459 C455 1.393 . S
C459 C458 1.391 . S
C460 H450 0.950 . S
C460 C461 1.386 . S
C460 C462 1.391 . S
C461 C460 1.386 . S
C461 C465 1.393 . S
C462 H451 0.950 1_554 S
C462 C460 1.391 . S
C462 C463 1.400 1_554 S
C463 C457 1.491 . S
C463 C462 1.400 1_556 S
C463 C464 1.398 1_556 S
C464 H452 0.950 . S
C464 C463 1.398 1_554 S
C464 C465 1.391 . S
C465 H453 0.950 . S
C465 C461 1.393 . S
C465 C464 1.391 . S
H466 C474 0.950 . S
H467 C479 0.950 . S
H468 C476 0.950 . S
H469 C478 0.950 . S
H470 C480 0.950 . S
H471 C482 0.950 . S
H472 C484 0.950 1_655 S
H473 C485 0.950 1_655 S
C474 H466 0.950 . S
C474 C475 1.386 1_655 S
C474 C476 1.391 . S
C475 C474 1.386 1_455 S
C475 C479 1.393 . S
C476 H468 0.950 . S
C476 C474 1.391 . S
C476 C477 1.400 1_655 S
C477 C476 1.400 1_455 S
C477 C478 1.398 . S
C477 C483 1.491 . S
C478 H469 0.950 . S
C478 C477 1.398 . S
C478 C479 1.391 . S
C479 H467 0.950 . S
C479 C475 1.393 . S
C479 C478 1.391 . S
C480 H470 0.950 . S
C480 C481 1.386 . S
C480 C482 1.391 . S
C481 C480 1.386 . S
C481 C485 1.393 . S
C482 H471 0.950 . S
C482 C480 1.391 . S
C482 C483 1.400 . S
C483 C477 1.491 . S
C483 C482 1.400 . S
C483 C484 1.398 . S
C484 H472 0.950 1_455 S
C484 C483 1.398 . S
C484 C485 1.391 . S
C485 H473 0.950 1_455 S
C485 C481 1.393 . S
C485 C484 1.391 . S
C135 C2 1.437 . S
C141 C125 1.502 . S
C155 C22 1.446 . S
C161 C103 1.514 . S
C175 C44 1.439 . S
C181 C114 1.524 . S
C195 C4 1.420 . S
C201 C119 1.500 . S
C221 C97 1.502 . S
C215 C24 1.446 . S
C241 C108 1.486 . S
C235 C42 1.385 . S
C255 C32 1.399 . S
C261 C81 1.392 . S
C275 C49 1.174 . S
C281 C86 1.169 . S
C295 C9 1.155 . S
C301 C64 1.177 . S
C321 C75 1.177 . S
C315 C29 1.137 . S
C341 C92 1.318 . S
C335 C52 1.302 . S
C355 C12 1.325 . S
C361 C70 1.320 . S
C381 C87 1.494 . S
C375 C18 1.499 . S
C395 C38 1.476 . S
C401 C65 1.463 . S
C415 C58 1.466 . S
C421 C76 1.495 . S
C441 C109 1.513 . S
C435 C39 1.512 . S
C461 C120 1.519 . S
C455 C59 1.516 . S
C475 C19 1.511 . S
C481 C98 1.529 . S
