# Generated by pormake.
# Topology eea, (3,6)-cn, num edge types: 1
# Building blocks:
#     Node 0, Type 0, BuildingBlock: BELTOD_clean_linker_0, # of connection points: 3
#     Node 1, Type 0, BuildingBlock: BELTOD_clean_linker_0, # of connection points: 3
#     Node 2, Type 0, BuildingBlock: BELTOD_clean_linker_0, # of connection points: 3
#     Node 3, Type 0, BuildingBlock: BELTOD_clean_linker_0, # of connection points: 3
#     Node 4, Type 0, BuildingBlock: BELTOD_clean_linker_0, # of connection points: 3
#     Node 5, Type 0, BuildingBlock: BELTOD_clean_linker_0, # of connection points: 3
#     Node 6, Type 0, BuildingBlock: BELTOD_clean_linker_0, # of connection points: 3
#     Node 7, Type 0, BuildingBlock: BELTOD_clean_linker_0, # of connection points: 3
#     Node 8, Type 0, BuildingBlock: BELTOD_clean_linker_0, # of connection points: 3
#     Node 9, Type 0, BuildingBlock: BELTOD_clean_linker_0, # of connection points: 3
#     Node 10, Type 0, BuildingBlock: BELTOD_clean_linker_0, # of connection points: 3
#     Node 11, Type 0, BuildingBlock: BELTOD_clean_linker_0, # of connection points: 3
#     Node 12, Type 0, BuildingBlock: BELTOD_clean_linker_0, # of connection points: 3
#     Node 13, Type 0, BuildingBlock: BELTOD_clean_linker_0, # of connection points: 3
#     Node 14, Type 0, BuildingBlock: BELTOD_clean_linker_0, # of connection points: 3
#     Node 15, Type 0, BuildingBlock: BELTOD_clean_linker_0, # of connection points: 3
#     Node 16, Type 0, BuildingBlock: BELTOD_clean_linker_0, # of connection points: 3
#     Node 17, Type 0, BuildingBlock: BELTOD_clean_linker_0, # of connection points: 3
#     Node 18, Type 1, BuildingBlock: CUKXOW_clean_sbu_0, # of connection points: 6
#     Node 19, Type 1, BuildingBlock: CUKXOW_clean_sbu_0, # of connection points: 6
#     Node 20, Type 1, BuildingBlock: CUKXOW_clean_sbu_0, # of connection points: 6
#     Node 21, Type 1, BuildingBlock: CUKXOW_clean_sbu_0, # of connection points: 6
#     Node 22, Type 1, BuildingBlock: CUKXOW_clean_sbu_0, # of connection points: 6
#     Node 23, Type 1, BuildingBlock: CUKXOW_clean_sbu_0, # of connection points: 6
#     Node 24, Type 1, BuildingBlock: CUKXOW_clean_sbu_0, # of connection points: 6
#     Node 25, Type 1, BuildingBlock: CUKXOW_clean_sbu_0, # of connection points: 6
#     Node 26, Type 1, BuildingBlock: CUKXOW_clean_sbu_0, # of connection points: 6
#     Edge 27, Type (0, 1), BuildingBlock: OJICUG_clean_linker_0, # of connection points: 2
#     Edge 28, Type (0, 1), BuildingBlock: OJICUG_clean_linker_0, # of connection points: 2
#     Edge 29, Type (0, 1), BuildingBlock: OJICUG_clean_linker_0, # of connection points: 2
#     Edge 30, Type (0, 1), BuildingBlock: OJICUG_clean_linker_0, # of connection points: 2
#     Edge 31, Type (0, 1), BuildingBlock: OJICUG_clean_linker_0, # of connection points: 2
#     Edge 32, Type (0, 1), BuildingBlock: OJICUG_clean_linker_0, # of connection points: 2
#     Edge 33, Type (0, 1), BuildingBlock: OJICUG_clean_linker_0, # of connection points: 2
#     Edge 34, Type (0, 1), BuildingBlock: OJICUG_clean_linker_0, # of connection points: 2
#     Edge 35, Type (0, 1), BuildingBlock: OJICUG_clean_linker_0, # of connection points: 2
#     Edge 36, Type (0, 1), BuildingBlock: OJICUG_clean_linker_0, # of connection points: 2
#     Edge 37, Type (0, 1), BuildingBlock: OJICUG_clean_linker_0, # of connection points: 2
#     Edge 38, Type (0, 1), BuildingBlock: OJICUG_clean_linker_0, # of connection points: 2
#     Edge 39, Type (0, 1), BuildingBlock: OJICUG_clean_linker_0, # of connection points: 2
#     Edge 40, Type (0, 1), BuildingBlock: OJICUG_clean_linker_0, # of connection points: 2
#     Edge 41, Type (0, 1), BuildingBlock: OJICUG_clean_linker_0, # of connection points: 2
#     Edge 42, Type (0, 1), BuildingBlock: OJICUG_clean_linker_0, # of connection points: 2
#     Edge 43, Type (0, 1), BuildingBlock: OJICUG_clean_linker_0, # of connection points: 2
#     Edge 44, Type (0, 1), BuildingBlock: OJICUG_clean_linker_0, # of connection points: 2
#     Edge 45, Type (0, 1), BuildingBlock: OJICUG_clean_linker_0, # of connection points: 2
#     Edge 46, Type (0, 1), BuildingBlock: OJICUG_clean_linker_0, # of connection points: 2
#     Edge 47, Type (0, 1), BuildingBlock: OJICUG_clean_linker_0, # of connection points: 2
#     Edge 48, Type (0, 1), BuildingBlock: OJICUG_clean_linker_0, # of connection points: 2
#     Edge 49, Type (0, 1), BuildingBlock: OJICUG_clean_linker_0, # of connection points: 2
#     Edge 50, Type (0, 1), BuildingBlock: OJICUG_clean_linker_0, # of connection points: 2
#     Edge 51, Type (0, 1), BuildingBlock: OJICUG_clean_linker_0, # of connection points: 2
#     Edge 52, Type (0, 1), BuildingBlock: OJICUG_clean_linker_0, # of connection points: 2
#     Edge 53, Type (0, 1), BuildingBlock: OJICUG_clean_linker_0, # of connection points: 2
#     Edge 54, Type (0, 1), BuildingBlock: OJICUG_clean_linker_0, # of connection points: 2
#     Edge 55, Type (0, 1), BuildingBlock: OJICUG_clean_linker_0, # of connection points: 2
#     Edge 56, Type (0, 1), BuildingBlock: OJICUG_clean_linker_0, # of connection points: 2
#     Edge 57, Type (0, 1), BuildingBlock: OJICUG_clean_linker_0, # of connection points: 2
#     Edge 58, Type (0, 1), BuildingBlock: OJICUG_clean_linker_0, # of connection points: 2
#     Edge 59, Type (0, 1), BuildingBlock: OJICUG_clean_linker_0, # of connection points: 2
#     Edge 60, Type (0, 1), BuildingBlock: OJICUG_clean_linker_0, # of connection points: 2
#     Edge 61, Type (0, 1), BuildingBlock: OJICUG_clean_linker_0, # of connection points: 2
#     Edge 62, Type (0, 1), BuildingBlock: OJICUG_clean_linker_0, # of connection points: 2
#     Edge 63, Type (0, 1), BuildingBlock: OJICUG_clean_linker_0, # of connection points: 2
#     Edge 64, Type (0, 1), BuildingBlock: OJICUG_clean_linker_0, # of connection points: 2
#     Edge 65, Type (0, 1), BuildingBlock: OJICUG_clean_linker_0, # of connection points: 2
#     Edge 66, Type (0, 1), BuildingBlock: OJICUG_clean_linker_0, # of connection points: 2
#     Edge 67, Type (0, 1), BuildingBlock: OJICUG_clean_linker_0, # of connection points: 2
#     Edge 68, Type (0, 1), BuildingBlock: OJICUG_clean_linker_0, # of connection points: 2
#     Edge 69, Type (0, 1), BuildingBlock: OJICUG_clean_linker_0, # of connection points: 2
#     Edge 70, Type (0, 1), BuildingBlock: OJICUG_clean_linker_0, # of connection points: 2
#     Edge 71, Type (0, 1), BuildingBlock: OJICUG_clean_linker_0, # of connection points: 2
#     Edge 72, Type (0, 1), BuildingBlock: OJICUG_clean_linker_0, # of connection points: 2
#     Edge 73, Type (0, 1), BuildingBlock: OJICUG_clean_linker_0, # of connection points: 2
#     Edge 74, Type (0, 1), BuildingBlock: OJICUG_clean_linker_0, # of connection points: 2
#     Edge 75, Type (0, 1), BuildingBlock: OJICUG_clean_linker_0, # of connection points: 2
#     Edge 76, Type (0, 1), BuildingBlock: OJICUG_clean_linker_0, # of connection points: 2
#     Edge 77, Type (0, 1), BuildingBlock: OJICUG_clean_linker_0, # of connection points: 2
#     Edge 78, Type (0, 1), BuildingBlock: OJICUG_clean_linker_0, # of connection points: 2
#     Edge 79, Type (0, 1), BuildingBlock: OJICUG_clean_linker_0, # of connection points: 2
#     Edge 80, Type (0, 1), BuildingBlock: OJICUG_clean_linker_0, # of connection points: 2
# Relax obj value: 0.016
# Max RMSD: 0.121
# Mean RMSD: 0.055
data_MOF--net-eea--node1-CUKXOW_clean_sbu_0--node2-BELTOD_clean_linker_0--edge1-OJICUG_clean_linker_0
_symmetry_space_group_name_H-M    P1
_symmetry_Int_Tables_number       1
_symmetry_cell_setting            triclinic
loop_
_symmetry_equiv_pos_as_xyz
'x, y, z'
_cell_length_a     49.182116
_cell_length_b     45.78037
_cell_length_c     50.317448
_cell_angle_alpha  93.898972
_cell_angle_beta   93.360714
_cell_angle_gamma 119.99805
loop_
_atom_site_label
_atom_site_type_symbol
_atom_site_fract_x
_atom_site_fract_y
_atom_site_fract_z
_atom_type_partial_charge
P0 P 0.29553 0.1593 0.42623 0.0
H1 H 0.31132 0.11696 0.3919 0.0
H2 H 0.28026 0.05877 0.37073 0.0
H3 H 0.19683 0.05031 0.40195 0.0
H4 H 0.22854 0.10848 0.42391 0.0
H5 H 0.30874 0.20084 0.38252 0.0
H6 H 0.2837 0.22989 0.36311 0.0
H7 H 0.21886 0.199 0.42378 0.0
H8 H 0.24336 0.16859 0.44237 0.0
H9 H 0.30487 0.11353 0.45699 0.0
H10 H 0.29362 0.20028 0.47362 0.0
O11 O 0.33238 0.17665 0.4179 0.0
H12 H 0.31293 0.11108 0.50456 0.0
H13 H 0.29942 0.19664 0.52166 0.0
C14 C 0.27215 0.1171 0.40924 0.0
C15 C 0.28632 0.10274 0.39402 0.0
C16 C 0.26841 0.06945 0.38174 0.0
C17 C 0.23592 0.04992 0.38439 0.0
C18 C 0.22179 0.06457 0.3996 0.0
C19 C 0.23982 0.09788 0.41199 0.0
C20 C 0.27868 0.18363 0.41449 0.0
C21 C 0.28945 0.20074 0.39192 0.0
C22 C 0.27506 0.21738 0.38082 0.0
C23 C 0.24945 0.21718 0.39203 0.0
C24 C 0.23841 0.19955 0.41452 0.0
C25 C 0.25271 0.1826 0.42547 0.0
C26 C 0.29759 0.15636 0.4617 0.0
C27 C 0.30318 0.13149 0.47095 0.0
C28 C 0.3076 0.13 0.49833 0.0
C29 C 0.30635 0.15331 0.51724 0.0
C30 C 0.30071 0.17832 0.50781 0.0
C31 C 0.29684 0.18013 0.48027 0.0
P32 P 0.90383 0.10228 0.4639 0.0
H33 H 0.88688 0.03281 0.44565 0.0
H34 H 0.84269 0.98733 0.41653 0.0
H35 H 0.80432 0.0529 0.40452 0.0
H36 H 0.84839 0.09816 0.43491 0.0
H37 H 0.96187 0.16604 0.4805 0.0
H38 H 0.00166 0.20785 0.45536 0.0
H39 H 0.94218 0.15444 0.38147 0.0
H40 H 0.90324 0.11225 0.40657 0.0
H41 H 0.87669 0.07139 0.51089 0.0
H42 H 0.89688 0.1623 0.47533 0.0
O43 O 0.92518 0.08688 0.47744 0.0
H44 H 0.85425 0.08734 0.54718 0.0
H45 H 0.87417 0.17848 0.51175 0.0
C46 C 0.87083 0.06878 0.44245 0.0
C47 C 0.86896 0.03744 0.43687 0.0
C48 C 0.84376 0.01151 0.41989 0.0
C49 C 0.82007 0.01653 0.4078 0.0
C50 C 0.822 0.04807 0.41358 0.0
C51 C 0.84718 0.07397 0.43086 0.0
C52 C 0.92956 0.13614 0.4455 0.0
C53 C 0.9572 0.16374 0.45892 0.0
C54 C 0.97986 0.1877 0.4445 0.0
C55 C 0.9752 0.18438 0.41634 0.0
C56 C 0.94674 0.15745 0.40309 0.0
C57 C 0.92422 0.13342 0.41752 0.0
C58 C 0.88885 0.11592 0.49074 0.0
C59 C 0.87645 0.09494 0.51102 0.0
C60 C 0.86342 0.10396 0.53162 0.0
C61 C 0.86234 0.1341 0.53223 0.0
C62 C 0.87495 0.15527 0.51189 0.0
C63 C 0.88789 0.14605 0.4911 0.0
P64 P 0.86107 0.695 0.43434 0.0
H65 H 0.8704 0.73908 0.39233 0.0
H66 H 0.84263 0.76769 0.3774 0.0
H67 H 0.78396 0.73295 0.44216 0.0
H68 H 0.81265 0.70569 0.45757 0.0
H69 H 0.89604 0.6696 0.40525 0.0
H70 H 0.94854 0.69774 0.39004 0.0
H71 H 0.96817 0.79289 0.43183 0.0
H72 H 0.91507 0.76453 0.44682 0.0
H73 H 0.80881 0.64253 0.45805 0.0
H74 H 0.90246 0.72557 0.48556 0.0
O75 O 0.84051 0.65864 0.41421 0.0
H76 H 0.79936 0.6302 0.50414 0.0
H77 H 0.89314 0.71296 0.53196 0.0
C78 C 0.84408 0.7207 0.42636 0.0
C79 C 0.85214 0.73838 0.40375 0.0
C80 C 0.83593 0.7544 0.39503 0.0
C81 C 0.81085 0.75246 0.40845 0.0
C82 C 0.8034 0.73542 0.43154 0.0
C83 C 0.8198 0.71962 0.44034 0.0
C84 C 0.90154 0.71507 0.42692 0.0
C85 C 0.91163 0.69645 0.41138 0.0
C86 C 0.94162 0.71256 0.4026 0.0
C87 C 0.96224 0.74756 0.40949 0.0
C88 C 0.95273 0.76588 0.42626 0.0
C89 C 0.92247 0.74974 0.43481 0.0
C90 C 0.85641 0.68476 0.46833 0.0
C91 C 0.82754 0.65781 0.47398 0.0
C92 C 0.82207 0.6509 0.50033 0.0
C93 C 0.8455 0.67069 0.52157 0.0
C94 C 0.87479 0.6972 0.51588 0.0
C95 C 0.88009 0.70444 0.48941 0.0
P96 P 0.14915 0.31444 0.58305 0.0
H97 H 0.12316 0.28439 0.63102 0.0
H98 H 0.07004 0.25712 0.64493 0.0
H99 H 0.03422 0.2699 0.56873 0.0
H100 H 0.08744 0.29619 0.55463 0.0
H101 H 0.21585 0.338 0.59651 0.0
H102 H 0.24446 0.30899 0.60856 0.0
H103 H 0.15654 0.2132 0.59872 0.0
H104 H 0.12811 0.24239 0.58657 0.0
H105 H 0.15028 0.36791 0.5537 0.0
H106 H 0.15219 0.27557 0.53571 0.0
O107 O 0.16746 0.35224 0.60139 0.0
H108 H 0.15632 0.37911 0.50689 0.0
H109 H 0.15934 0.28705 0.48931 0.0
C110 C 0.10921 0.2919 0.5917 0.0
C111 C 0.10379 0.28086 0.61716 0.0
C112 C 0.07341 0.26555 0.62517 0.0
C113 C 0.04781 0.26148 0.60802 0.0
C114 C 0.05329 0.27223 0.58231 0.0
C115 C 0.08378 0.28743 0.57426 0.0
C116 C 0.16981 0.2925 0.59145 0.0
C117 C 0.20275 0.31077 0.59703 0.0
C118 C 0.21908 0.29412 0.60368 0.0
C119 C 0.20271 0.25883 0.60479 0.0
C120 C 0.16973 0.24048 0.59846 0.0
C121 C 0.15346 0.25715 0.59159 0.0
C122 C 0.15135 0.32124 0.54824 0.0
C123 C 0.15208 0.3501 0.53966 0.0
C124 C 0.15573 0.35657 0.51294 0.0
C125 C 0.15859 0.33416 0.4943 0.0
C126 C 0.15689 0.30472 0.50296 0.0
C127 C 0.15307 0.29822 0.52961 0.0
P128 P 0.8003 0.88855 0.55774 0.0
H129 H 0.84274 0.9612 0.55848 0.0
H130 H 0.8464 0.01051 0.58373 0.0
H131 H 0.76457 0.94467 0.62257 0.0
H132 H 0.76055 0.89515 0.59636 0.0
H133 H 0.77158 0.81475 0.54546 0.0
H134 H 0.77041 0.77152 0.57223 0.0
H135 H 0.81302 0.84623 0.64159 0.0
H136 H 0.81392 0.8892 0.61496 0.0
H137 H 0.80848 0.91582 0.50684 0.0
H138 H 0.73265 0.83735 0.54383 0.0
O139 O 0.83599 0.90053 0.54818 0.0
H140 H 0.77269 0.90284 0.4664 0.0
H141 H 0.69673 0.82361 0.50286 0.0
C142 C 0.80196 0.92455 0.57618 0.0
C143 C 0.82567 0.95731 0.57251 0.0
C144 C 0.82781 0.98551 0.5871 0.0
C145 C 0.80621 0.98153 0.60567 0.0
C146 C 0.78165 0.94861 0.60853 0.0
C147 C 0.77944 0.92031 0.59373 0.0
C148 C 0.7918 0.855 0.57839 0.0
C149 C 0.77937 0.82151 0.56668 0.0
C150 C 0.77878 0.79682 0.58197 0.0
C151 C 0.79148 0.80557 0.60897 0.0
C152 C 0.80292 0.83882 0.62084 0.0
C153 C 0.80322 0.86333 0.60564 0.0
C154 C 0.77343 0.87688 0.52799 0.0
C155 C 0.78421 0.89544 0.5061 0.0
C156 C 0.76374 0.88816 0.48308 0.0
C157 C 0.73207 0.8621 0.48153 0.0
C158 C 0.72118 0.84351 0.5035 0.0
C159 C 0.74166 0.85126 0.52682 0.0
P160 P 0.14621 0.84482 0.57978 0.0
H161 H 0.20637 0.88658 0.61301 0.0
H162 H 0.2344 0.9458 0.63222 0.0
H163 H 0.16115 0.95957 0.59399 0.0
H164 H 0.13358 0.90016 0.57419 0.0
H165 H 0.08549 0.78907 0.55285 0.0
H166 H 0.03164 0.76318 0.56535 0.0
H167 H 0.06588 0.83226 0.63838 0.0
H168 H 0.11902 0.85886 0.62513 0.0
H169 H 0.19522 0.8426 0.55219 0.0
H170 H 0.10966 0.84389 0.53066 0.0
O171 O 0.1615 0.82441 0.59535 0.0
H172 H 0.20529 0.84318 0.50513 0.0
H173 H 0.1191 0.84311 0.48325 0.0
C174 C 0.16771 0.88897 0.59258 0.0
C175 C 0.19635 0.90231 0.60872 0.0
C176 C 0.21222 0.93615 0.61986 0.0
C177 C 0.19969 0.95727 0.61506 0.0
C178 C 0.17141 0.944 0.59809 0.0
C179 C 0.15561 0.91009 0.58686 0.0
C180 C 0.10606 0.82683 0.58748 0.0
C181 C 0.08121 0.79925 0.57114 0.0
C182 C 0.05047 0.78417 0.57853 0.0
C183 C 0.04428 0.79584 0.60279 0.0
C184 C 0.06948 0.82322 0.61921 0.0
C185 C 0.10002 0.83843 0.61167 0.0
C186 C 0.15115 0.842 0.54478 0.0
C187 C 0.17824 0.84224 0.53727 0.0
C188 C 0.18406 0.84272 0.51046 0.0
C189 C 0.16275 0.84278 0.49071 0.0
C190 C 0.13555 0.84248 0.49817 0.0
C191 C 0.13009 0.84275 0.52516 0.0
P192 P 0.95052 0.48305 0.76498 0.0
H193 H 0.93109 0.45637 0.70904 0.0
H194 H 0.89997 0.39876 0.68612 0.0
H195 H 0.88168 0.3592 0.76277 0.0
H196 H 0.91177 0.41688 0.78543 0.0
H197 H 0.97345 0.54163 0.73491 0.0
H198 H 0.95011 0.57383 0.71924 0.0
H199 H 0.86812 0.51457 0.76043 0.0
H200 H 0.89124 0.48081 0.7748 0.0
H201 H 0.98393 0.45622 0.79393 0.0
H202 H 0.93598 0.51064 0.81393 0.0
O203 O 0.98478 0.49717 0.75194 0.0
H204 H 0.99698 0.45614 0.84137 0.0
H205 H 0.94811 0.50976 0.86163 0.0
C206 C 0.92428 0.44082 0.74888 0.0
C207 C 0.91999 0.43527 0.72086 0.0
C208 C 0.90231 0.40233 0.7078 0.0
C209 C 0.88869 0.3743 0.72261 0.0
C210 C 0.89167 0.38018 0.75074 0.0
C211 C 0.90923 0.41321 0.76377 0.0
C212 C 0.93433 0.50921 0.75644 0.0
C213 C 0.9506 0.53568 0.74085 0.0
C214 C 0.93719 0.55431 0.73199 0.0
C215 C 0.90729 0.54722 0.7388 0.0
C216 C 0.89105 0.52065 0.75461 0.0
C217 C 0.90439 0.50161 0.76315 0.0
C218 C 0.9589 0.48328 0.80036 0.0
C219 C 0.97602 0.46797 0.80859 0.0
C220 C 0.98326 0.46772 0.83575 0.0
C221 C 0.9734 0.48272 0.85537 0.0
C222 C 0.95626 0.4982 0.84705 0.0
C223 C 0.94906 0.49847 0.81973 0.0
P224 P 0.56754 0.4346 0.79875 0.0
H225 H 0.56636 0.39074 0.75391 0.0
H226 H 0.52374 0.34517 0.7231 0.0
H227 H 0.45588 0.36218 0.76184 0.0
H228 H 0.49881 0.40873 0.79176 0.0
H229 H 0.63043 0.49114 0.81653 0.0
H230 H 0.67134 0.5342 0.79274 0.0
H231 H 0.60672 0.49651 0.72035 0.0
H232 H 0.56581 0.45405 0.74423 0.0
H233 H 0.53964 0.40509 0.84618 0.0
H234 H 0.56221 0.49558 0.80896 0.0
O235 O 0.58649 0.41663 0.81237 0.0
H236 H 0.51777 0.42298 0.88189 0.0
H237 H 0.54015 0.51366 0.8447 0.0
C238 C 0.53572 0.40271 0.77534 0.0
C239 C 0.54231 0.38482 0.75557 0.0
C240 C 0.5179 0.35874 0.73804 0.0
C241 C 0.48632 0.34973 0.74021 0.0
C242 C 0.47993 0.36863 0.75946 0.0
C243 C 0.50448 0.39503 0.77683 0.0
C244 C 0.59541 0.469 0.78201 0.0
C245 C 0.62497 0.49252 0.79564 0.0
C246 C 0.64823 0.51713 0.78209 0.0
C247 C 0.6422 0.51833 0.75466 0.0
C248 C 0.61204 0.49574 0.7414 0.0
C249 C 0.58869 0.47143 0.75506 0.0
C250 C 0.55296 0.44929 0.82526 0.0
C251 C 0.54007 0.42895 0.84583 0.0
C252 C 0.52735 0.43906 0.86607 0.0
C253 C 0.52719 0.46967 0.86599 0.0
C254 C 0.54025 0.49012 0.84535 0.0
C255 C 0.55282 0.47981 0.82496 0.0
P256 P 0.52138 0.01708 0.7615 0.0
H257 H 0.53309 0.06872 0.72507 0.0
H258 H 0.50427 0.09695 0.71248 0.0
H259 H 0.43637 0.04337 0.76766 0.0
H260 H 0.46625 0.01658 0.78111 0.0
H261 H 0.55549 0.99418 0.72833 0.0
H262 H 0.60816 0.02347 0.71337 0.0
H263 H 0.62861 0.1158 0.76054 0.0
H264 H 0.57521 0.08669 0.77477 0.0
H265 H 0.47396 0.96182 0.7875 0.0
H266 H 0.56322 0.05337 0.81163 0.0
O267 O 0.50086 0.98012 0.7421 0.0
H268 H 0.46742 0.9517 0.83421 0.0
H269 H 0.55745 0.04283 0.85833 0.0
C270 C 0.50242 0.04119 0.75462 0.0
C271 C 0.51253 0.06373 0.73505 0.0
C272 C 0.49568 0.07953 0.72755 0.0
C273 C 0.46783 0.07242 0.73895 0.0
C274 C 0.45797 0.05002 0.75878 0.0
C275 C 0.47507 0.03453 0.76646 0.0
C276 C 0.56141 0.03821 0.75276 0.0
C277 C 0.57122 0.02067 0.7356 0.0
C278 C 0.6013 0.03741 0.72699 0.0
C279 C 0.6223 0.07184 0.73578 0.0
C280 C 0.61286 0.08917 0.75364 0.0
C281 C 0.58248 0.07253 0.76185 0.0
C282 C 0.51921 0.00818 0.79593 0.0
C283 C 0.49252 0.97939 0.8028 0.0
C284 C 0.48887 0.97354 0.82959 0.0
C285 C 0.51192 0.99641 0.85014 0.0
C286 C 0.53902 0.0249 0.84309 0.0
C287 C 0.54249 0.03085 0.81626 0.0
P288 P 0.81733 0.64299 0.91576 0.0
H289 H 0.78269 0.67227 0.9401 0.0
H290 H 0.72834 0.64779 0.951 0.0
H291 H 0.70725 0.54939 0.91499 0.0
H292 H 0.76183 0.57428 0.90367 0.0
H293 H 0.87352 0.64264 0.90109 0.0
H294 H 0.89891 0.61122 0.91472 0.0
H295 H 0.82198 0.55339 0.96144 0.0
H296 H 0.79809 0.58666 0.94922 0.0
H297 H 0.84182 0.70595 0.89054 0.0
H298 H 0.80225 0.5993 0.86556 0.0
O299 O 0.8387 0.67937 0.93573 0.0
H300 H 0.85072 0.71836 0.84434 0.0
H301 H 0.81152 0.6115 0.81926 0.0
C302 C 0.77651 0.62489 0.92174 0.0
C303 C 0.7664 0.64546 0.93442 0.0
C304 C 0.73526 0.63148 0.94051 0.0
C305 C 0.71365 0.59662 0.93408 0.0
C306 C 0.72355 0.57625 0.92052 0.0
C307 C 0.75465 0.59042 0.91403 0.0
C308 C 0.8334 0.61637 0.92345 0.0
C309 C 0.86192 0.62286 0.91398 0.0
C310 C 0.87635 0.60465 0.92171 0.0
C311 C 0.86251 0.57945 0.93912 0.0
C312 C 0.83363 0.5728 0.94828 0.0
C313 C 0.81955 0.59148 0.9409 0.0
C314 C 0.82169 0.65174 0.88145 0.0
C315 C 0.83502 0.68518 0.87509 0.0
C316 C 0.84026 0.69227 0.84867 0.0
C317 C 0.83209 0.66597 0.82812 0.0
C318 C 0.81787 0.63233 0.83455 0.0
C319 C 0.81266 0.6253 0.861 0.0
P320 P 0.45696 0.21744 0.89648 0.0
H321 H 0.51161 0.28004 0.92209 0.0
H322 H 0.51763 0.33235 0.94411 0.0
H323 H 0.41654 0.28966 0.93244 0.0
H324 H 0.41063 0.23687 0.91046 0.0
H325 H 0.4327 0.14483 0.88484 0.0
H326 H 0.42965 0.10244 0.91342 0.0
H327 H 0.456 0.17492 0.98332 0.0
H328 H 0.45873 0.21709 0.95476 0.0
H329 H 0.46696 0.24777 0.847 0.0
H330 H 0.39026 0.16473 0.87958 0.0
O331 O 0.49231 0.2265 0.88765 0.0
H332 H 0.4331 0.23575 0.80548 0.0
H333 H 0.35621 0.15218 0.83767 0.0
C334 C 0.46075 0.25497 0.91412 0.0
C335 C 0.49071 0.28185 0.92424 0.0
C336 C 0.49412 0.31175 0.93681 0.0
C337 C 0.46758 0.31524 0.93964 0.0
C338 C 0.43738 0.28765 0.93054 0.0
C339 C 0.43401 0.25765 0.91784 0.0
C340 C 0.44538 0.18393 0.91764 0.0
C341 C 0.43647 0.15114 0.90638 0.0
C342 C 0.43473 0.12692 0.92274 0.0
C343 C 0.4426 0.13545 0.95058 0.0
C344 C 0.44979 0.16772 0.96192 0.0
C345 C 0.45123 0.19179 0.94556 0.0
C346 C 0.43132 0.20668 0.86606 0.0
C347 C 0.44288 0.22671 0.84508 0.0
C348 C 0.42349 0.21994 0.82145 0.0
C349 C 0.3921 0.19297 0.81838 0.0
C350 C 0.38046 0.17285 0.83946 0.0
C351 C 0.39987 0.17997 0.86334 0.0
P352 P 0.80741 0.17216 0.91277 0.0
H353 H 0.8313 0.20183 0.96795 0.0
H354 H 0.86094 0.26039 0.98915 0.0
H355 H 0.86052 0.29621 0.91188 0.0
H356 H 0.82995 0.23757 0.89106 0.0
H357 H 0.75698 0.10242 0.91383 0.0
H358 H 0.70365 0.07796 0.92746 0.0
H359 H 0.71487 0.17801 0.938 0.0
H360 H 0.76813 0.20227 0.92438 0.0
H361 H 0.86351 0.18997 0.88669 0.0
H362 H 0.76474 0.15069 0.86238 0.0
O363 O 0.82169 0.15049 0.92778 0.0
H364 H 0.87387 0.19059 0.8398 0.0
H365 H 0.77498 0.15125 0.81518 0.0
C366 C 0.82933 0.21546 0.92789 0.0
C367 C 0.83771 0.22234 0.95561 0.0
C368 C 0.85465 0.25582 0.96767 0.0
C369 C 0.86344 0.28303 0.95216 0.0
C370 C 0.854 0.27589 0.92443 0.0
C371 C 0.83689 0.24235 0.91243 0.0
C372 C 0.76668 0.15414 0.91864 0.0
C373 C 0.74779 0.119 0.91876 0.0
C374 C 0.71729 0.10507 0.92645 0.0
C375 C 0.70525 0.12615 0.93412 0.0
C376 C 0.72376 0.16124 0.93268 0.0
C377 C 0.75418 0.1751 0.92481 0.0
C378 C 0.81342 0.17024 0.87795 0.0
C379 C 0.84402 0.18128 0.8712 0.0
C380 C 0.84993 0.1818 0.84442 0.0
C381 C 0.82525 0.17114 0.82385 0.0
C382 C 0.79439 0.1594 0.83065 0.0
C383 C 0.78854 0.15916 0.85758 0.0
P384 P 0.62447 0.82583 0.09092 0.0
H385 H 0.59932 0.79503 0.03643 0.0
H386 H 0.56684 0.73614 0.01646 0.0
H387 H 0.55764 0.70287 0.0955 0.0
H388 H 0.58904 0.76178 0.11531 0.0
H389 H 0.64617 0.88104 0.05722 0.0
H390 H 0.62142 0.91041 0.03828 0.0
H391 H 0.54145 0.85594 0.08295 0.0
H392 H 0.56577 0.82482 0.10046 0.0
H393 H 0.6622 0.80485 0.12085 0.0
H394 H 0.60779 0.85244 0.13916 0.0
O395 O 0.65783 0.83788 0.0768 0.0
H396 H 0.67395 0.80448 0.1685 0.0
H397 H 0.61898 0.85153 0.18711 0.0
C398 C 0.59714 0.78273 0.07726 0.0
C399 C 0.58988 0.77505 0.04944 0.0
C400 C 0.5714 0.7414 0.03808 0.0
C401 C 0.56004 0.71478 0.05438 0.0
C402 C 0.56587 0.72275 0.08238 0.0
C403 C 0.58422 0.75651 0.09374 0.0
C404 C 0.60811 0.85125 0.08072 0.0
C405 C 0.62348 0.87564 0.06324 0.0
C406 C 0.60925 0.89259 0.05243 0.0
C407 C 0.57941 0.88584 0.05914 0.0
C408 C 0.56423 0.86158 0.07702 0.0
C409 C 0.57834 0.84417 0.08747 0.0
C410 C 0.63417 0.82868 0.12643 0.0
C411 C 0.6529 0.8154 0.13518 0.0
C412 C 0.65936 0.81491 0.16243 0.0
C413 C 0.64712 0.82766 0.18158 0.0
C414 C 0.62883 0.84165 0.17282 0.0
C415 C 0.62228 0.84202 0.14538 0.0
P416 P 0.22991 0.76917 0.12783 0.0
H417 H 0.21949 0.73431 0.07418 0.0
H418 H 0.17208 0.68739 0.04807 0.0
H419 H 0.1155 0.69009 0.10943 0.0
H420 H 0.16232 0.73745 0.13502 0.0
H421 H 0.29624 0.81741 0.14239 0.0
H422 H 0.33706 0.86021 0.11861 0.0
H423 H 0.26701 0.83875 0.05271 0.0
H424 H 0.22607 0.79633 0.07689 0.0
H425 H 0.21428 0.74474 0.17968 0.0
H426 H 0.22279 0.82867 0.13939 0.0
O427 O 0.24666 0.74727 0.13789 0.0
H428 H 0.19518 0.76259 0.21761 0.0
H429 H 0.20366 0.84683 0.17756 0.0
C430 C 0.19451 0.73979 0.10638 0.0
C431 C 0.19672 0.72565 0.08155 0.0
C432 C 0.16971 0.69896 0.06664 0.0
C433 C 0.14032 0.68556 0.07675 0.0
C434 C 0.13795 0.70039 0.10117 0.0
C435 C 0.16481 0.72742 0.11582 0.0
C436 C 0.25838 0.80314 0.1111 0.0
C437 C 0.28962 0.82218 0.12295 0.0
C438 C 0.31286 0.84671 0.1094 0.0
C439 C 0.3052 0.85252 0.0837 0.0
C440 C 0.27358 0.83437 0.07233 0.0
C441 C 0.25022 0.8101 0.08611 0.0
C442 C 0.2204 0.78571 0.15697 0.0
C443 C 0.21261 0.76741 0.17923 0.0
C444 C 0.20145 0.77745 0.20078 0.0
C445 C 0.19782 0.80597 0.2004 0.0
C446 C 0.20648 0.8249 0.17839 0.0
C447 C 0.21741 0.81459 0.15665 0.0
P448 P 0.19189 0.35195 0.09584 0.0
H449 H 0.17722 0.37143 0.04577 0.0
H450 H 0.14853 0.40033 0.03394 0.0
H451 H 0.13767 0.4154 0.11752 0.0
H452 H 0.16602 0.38609 0.12913 0.0
H453 H 0.22874 0.32865 0.06732 0.0
H454 H 0.28172 0.3584 0.05301 0.0
H455 H 0.29685 0.45287 0.09244 0.0
H456 H 0.24326 0.42295 0.10635 0.0
H457 H 0.14116 0.30088 0.12206 0.0
H458 H 0.23599 0.38394 0.14525 0.0
O459 O 0.17194 0.315 0.07636 0.0
H460 H 0.13483 0.29018 0.16878 0.0
H461 H 0.23008 0.37302 0.19204 0.0
C462 C 0.17344 0.37628 0.08822 0.0
C463 C 0.16886 0.38121 0.06155 0.0
C464 C 0.15262 0.39792 0.05486 0.0
C465 C 0.14067 0.41006 0.07479 0.0
C466 C 0.14616 0.40591 0.10166 0.0
C467 C 0.16249 0.38924 0.10833 0.0
C468 C 0.23198 0.37369 0.0876 0.0
C469 C 0.2434 0.35573 0.07298 0.0
C470 C 0.27366 0.37273 0.0648 0.0
C471 C 0.29322 0.40792 0.07149 0.0
C472 C 0.28224 0.42571 0.08711 0.0
C473 C 0.25168 0.4087 0.09496 0.0
C474 C 0.18918 0.34283 0.13012 0.0
C475 C 0.16084 0.31642 0.13718 0.0
C476 C 0.1573 0.31025 0.1639 0.0
C477 C 0.18201 0.33061 0.18415 0.0
C478 C 0.21052 0.357 0.17694 0.0
C479 C 0.21402 0.36314 0.15015 0.0
P480 P 0.48457 0.98238 0.2498 0.0
H481 H 0.45849 0.95384 0.29815 0.0
H482 H 0.40534 0.92711 0.31196 0.0
H483 H 0.36979 0.93841 0.23503 0.0
H484 H 0.42299 0.96405 0.22102 0.0
H485 H 0.55095 0.00409 0.26227 0.0
H486 H 0.57842 0.97385 0.27413 0.0
H487 H 0.48913 0.87965 0.26606 0.0
H488 H 0.46182 0.91004 0.25399 0.0
H489 H 0.48392 0.03505 0.22063 0.0
H490 H 0.48897 0.9446 0.20238 0.0
O491 O 0.50358 0.02012 0.26823 0.0
H492 H 0.48863 0.04602 0.1737 0.0
H493 H 0.49487 0.95592 0.15586 0.0
C494 C 0.44466 0.96061 0.25851 0.0
C495 C 0.43917 0.95015 0.28413 0.0
C496 C 0.40878 0.93513 0.29207 0.0
C497 C 0.38326 0.93081 0.27467 0.0
C498 C 0.38881 0.94098 0.24881 0.0
C499 C 0.4193 0.95584 0.24082 0.0
C500 C 0.50434 0.95948 0.25802 0.0
C501 C 0.5373 0.97695 0.26311 0.0
C502 C 0.55297 0.95959 0.26968 0.0
C503 C 0.53588 0.92441 0.27121 0.0
C504 C 0.50285 0.90684 0.26545 0.0
C505 C 0.48724 0.9242 0.25861 0.0
C506 C 0.48664 0.98936 0.21503 0.0
C507 C 0.48621 0.01766 0.20652 0.0
C508 C 0.48908 0.02398 0.17972 0.0
C509 C 0.49235 0.002 0.16096 0.0
C510 C 0.49203 0.97321 0.1696 0.0
C511 C 0.48895 0.96683 0.19633 0.0
P512 P 0.12091 0.5501 0.23331 0.0
H513 H 0.17299 0.60382 0.26914 0.0
H514 H 0.18072 0.65544 0.2941 0.0
H515 H 0.08555 0.62857 0.26566 0.0
H516 H 0.07768 0.57622 0.24137 0.0
H517 H 0.10387 0.47979 0.21941 0.0
H518 H 0.1032 0.43713 0.24655 0.0
H519 H 0.12112 0.50378 0.31848 0.0
H520 H 0.12082 0.54591 0.29145 0.0
H521 H 0.12449 0.58499 0.18691 0.0
H522 H 0.05678 0.49158 0.2155 0.0
O523 O 0.15586 0.5611 0.22252 0.0
H524 H 0.08918 0.57109 0.14595 0.0
H525 H 0.02148 0.47717 0.17413 0.0
C526 C 0.12509 0.58674 0.2529 0.0
C527 C 0.15376 0.60899 0.26836 0.0
C528 C 0.15814 0.63851 0.28258 0.0
C529 C 0.13392 0.64642 0.28152 0.0
C530 C 0.10463 0.62318 0.26696 0.0
C531 C 0.10021 0.59343 0.25285 0.0
C532 C 0.11194 0.51587 0.25332 0.0
C533 C 0.10633 0.48467 0.24104 0.0
C534 C 0.10598 0.46033 0.25655 0.0
C535 C 0.11208 0.46726 0.28457 0.0
C536 C 0.11628 0.49787 0.2969 0.0
C537 C 0.11609 0.52196 0.28139 0.0
C538 C 0.09353 0.53906 0.20397 0.0
C539 C 0.10203 0.56143 0.18431 0.0
C540 C 0.0818 0.55354 0.161 0.0
C541 C 0.05268 0.52299 0.15687 0.0
C542 C 0.04398 0.50068 0.17673 0.0
C543 C 0.06414 0.50888 0.20032 0.0
P544 P 0.47756 0.51307 0.24392 0.0
H545 H 0.49788 0.54305 0.2993 0.0
H546 H 0.52654 0.60168 0.32038 0.0
H547 H 0.53069 0.6371 0.24239 0.0
H548 H 0.50103 0.57839 0.22164 0.0
H549 H 0.42928 0.44245 0.24542 0.0
H550 H 0.37637 0.4159 0.26009 0.0
H551 H 0.38301 0.51383 0.27018 0.0
H552 H 0.43592 0.5402 0.25557 0.0
H553 H 0.53365 0.52931 0.21827 0.0
H554 H 0.43564 0.49313 0.1932 0.0
O555 O 0.49319 0.49288 0.25933 0.0
H556 H 0.54444 0.52926 0.17154 0.0
H557 H 0.44631 0.49316 0.14611 0.0
C558 C 0.49817 0.55646 0.25891 0.0
C559 C 0.50499 0.56349 0.28679 0.0
C560 C 0.52139 0.59702 0.29878 0.0
C561 C 0.53127 0.62415 0.28305 0.0
C562 C 0.5233 0.61686 0.25512 0.0
C563 C 0.50669 0.58326 0.24318 0.0
C564 C 0.43671 0.4933 0.24989 0.0
C565 C 0.41914 0.4581 0.25042 0.0
C566 C 0.38887 0.44297 0.25874 0.0
C567 C 0.37569 0.46286 0.26665 0.0
C568 C 0.39279 0.49795 0.26472 0.0
C569 C 0.42299 0.51302 0.25624 0.0
C570 C 0.48387 0.51103 0.20914 0.0
C571 C 0.51441 0.52118 0.20263 0.0
C572 C 0.52058 0.52136 0.17592 0.0
C573 C 0.49626 0.51134 0.15513 0.0
C574 C 0.46547 0.50073 0.16171 0.0
C575 C 0.45936 0.50079 0.18858 0.0
Tb576 Tb 0.53349 0.03165 0.00284 0.0
C577 C 0.52222 0.95908 0.0159 0.0
Tb578 Tb 0.46591 0.97353 0.00791 0.0
O579 O 0.53794 0.05545 0.04364 0.0
O580 O 0.50818 0.00367 0.03306 0.0
O581 O 0.54127 0.98901 0.00755 0.0
C582 C 0.41132 0.93812 0.02834 0.0
O583 O 0.49243 0.949 0.02 0.0
C584 C 0.48433 0.97757 0.95991 0.0
C585 C 0.47815 0.04727 0.99688 0.0
O586 O 0.41884 0.92842 0.00647 0.0
O587 O 0.43438 0.96767 0.03845 0.0
O588 O 0.46292 0.9493 0.96776 0.0
O589 O 0.49112 0.00156 0.97761 0.0
O590 O 0.45814 0.01648 0.00344 0.0
O591 O 0.50795 0.05743 0.99307 0.0
C592 C 0.58694 0.06464 0.98027 0.0
O593 O 0.58117 0.07544 0.00264 0.0
O594 O 0.5628 0.03549 0.9709 0.0
C595 C 0.51573 0.0274 0.0512 0.0
Tb596 Tb 0.9726 0.50178 0.00327 0.0
C597 C 0.0412 0.55467 0.02808 0.0
Tb598 Tb 0.01851 0.47644 0.01761 0.0
O599 O 0.97421 0.51851 0.04528 0.0
O600 O 0.98097 0.47794 0.03484 0.0
O601 O 0.0169 0.55024 0.01169 0.0
C602 C 0.05991 0.46093 0.03937 0.0
O603 O 0.04431 0.52909 0.03535 0.0
C604 C 0.00886 0.48142 0.96676 0.0
C605 C 0.94914 0.42242 0.99603 0.0
O606 O 0.06426 0.47897 0.01954 0.0
O607 O 0.03226 0.45169 0.04701 0.0
O608 O 0.01558 0.45942 0.97528 0.0
O609 O 0.01051 0.501 0.98638 0.0
O610 O 0.97496 0.42822 0.01079 0.0
O611 O 0.9446 0.44728 0.98881 0.0
C612 C 0.93326 0.51919 0.98007 0.0
O613 O 0.93151 0.50839 0.00342 0.0
O614 O 0.95704 0.51991 0.96958 0.0
C615 C 0.98171 0.49729 0.05431 0.0
Tb616 Tb 0.46812 0.49539 0.00716 0.0
C617 C 0.4896 0.44612 0.98399 0.0
Tb618 Tb 0.53766 0.52486 0.99546 0.0
O619 O 0.45121 0.48157 0.96449 0.0
O620 O 0.49628 0.5213 0.97706 0.0
O621 O 0.47078 0.44918 0.00053 0.0
C622 C 0.59175 0.54459 0.97374 0.0
O623 O 0.51468 0.47285 0.97668 0.0
C624 C 0.52696 0.51713 0.04566 0.0
C625 C 0.5155 0.57565 0.01447 0.0
O626 O 0.58042 0.52206 0.99052 0.0
O627 O 0.57273 0.55604 0.96937 0.0
O628 O 0.5536 0.53993 0.03826 0.0
O629 O 0.50921 0.49797 0.02535 0.0
O630 O 0.53679 0.5715 0.00235 0.0
O631 O 0.48811 0.54983 0.01981 0.0
C632 C 0.41355 0.47305 0.02861 0.0
O633 O 0.44132 0.48831 0.04207 0.0
O634 O 0.41668 0.47078 0.00331 0.0
C635 C 0.47808 0.50299 0.95664 0.0
Tb636 Tb 0.20496 0.3647 0.33722 0.0
C637 C 0.19337 0.29209 0.3503 0.0
Tb638 Tb 0.13713 0.30661 0.34192 0.0
O639 O 0.2092 0.38831 0.3781 0.0
O640 O 0.1792 0.33666 0.36727 0.0
O641 O 0.21249 0.32182 0.34168 0.0
C642 C 0.08206 0.27016 0.36137 0.0
O643 O 0.16381 0.2826 0.3548 0.0
C644 C 0.1558 0.31082 0.29395 0.0
C645 C 0.14942 0.38017 0.33063 0.0
O646 O 0.09155 0.25982 0.34113 0.0
O647 O 0.10345 0.30104 0.37043 0.0
O648 O 0.13394 0.28268 0.30158 0.0
O649 O 0.16273 0.33469 0.31177 0.0
O650 O 0.12939 0.3495 0.33735 0.0
O651 O 0.17926 0.39028 0.32694 0.0
C652 C 0.25861 0.39794 0.31485 0.0
O653 O 0.25234 0.40903 0.33681 0.0
O654 O 0.23489 0.36832 0.30583 0.0
C655 C 0.18665 0.36031 0.38543 0.0
Tb656 Tb 0.64417 0.84334 0.33187 0.0
C657 C 0.71577 0.89541 0.35123 0.0
Tb658 Tb 0.68875 0.8156 0.34328 0.0
O659 O 0.64874 0.86089 0.37418 0.0
O660 O 0.6533 0.81905 0.36257 0.0
O661 O 0.68851 0.89157 0.34092 0.0
C662 C 0.72914 0.79832 0.36452 0.0
O663 O 0.72051 0.8697 0.35443 0.0
C664 C 0.67665 0.82037 0.2929 0.0
C665 C 0.6182 0.76366 0.3257 0.0
O666 O 0.7141 0.80978 0.37803 0.0
O667 O 0.72138 0.79658 0.33915 0.0
O668 O 0.68301 0.79784 0.30078 0.0
O669 O 0.68004 0.8406 0.31275 0.0
O670 O 0.64364 0.76922 0.34093 0.0
O671 O 0.61508 0.7889 0.31723 0.0
C672 C 0.60602 0.86246 0.30906 0.0
O673 O 0.6006 0.84562 0.32978 0.0
O674 O 0.63273 0.86822 0.30115 0.0
C675 C 0.65616 0.8392 0.38234 0.0
Tb676 Tb 0.135 0.82933 0.34172 0.0
C677 C 0.15849 0.77894 0.32445 0.0
Tb678 Tb 0.20451 0.85891 0.33136 0.0
O679 O 0.11939 0.81312 0.29904 0.0
O680 O 0.16361 0.85485 0.3116 0.0
O681 O 0.13729 0.78267 0.33732 0.0
C682 C 0.26034 0.87951 0.3126 0.0
O683 O 0.1853 0.80517 0.3189 0.0
C684 C 0.19278 0.85156 0.38147 0.0
C685 C 0.18102 0.90932 0.34506 0.0
O686 O 0.23303 0.85957 0.29907 0.0
O687 O 0.2561 0.88754 0.33655 0.0
O688 O 0.21936 0.87444 0.37427 0.0
O689 O 0.17557 0.83211 0.36112 0.0
O690 O 0.20039 0.90386 0.33104 0.0
O691 O 0.1553 0.88413 0.35337 0.0
C692 C 0.08079 0.80933 0.3634 0.0
O693 O 0.10869 0.82472 0.37655 0.0
O694 O 0.0835 0.80562 0.33811 0.0
C695 C 0.14618 0.83511 0.29139 0.0
Tb696 Tb 0.87183 0.69224 0.66932 0.0
C697 C 0.85659 0.62521 0.69355 0.0
Tb698 Tb 0.8024 0.64261 0.67927 0.0
O699 O 0.88874 0.7047 0.71217 0.0
O700 O 0.84162 0.68738 0.69903 0.0
O701 O 0.87644 0.65 0.6803 0.0
C702 C 0.74837 0.60464 0.6997 0.0
O703 O 0.82768 0.61915 0.69709 0.0
C704 C 0.81435 0.64223 0.62927 0.0
C705 C 0.81901 0.71153 0.65714 0.0
O706 O 0.76074 0.59338 0.68264 0.0
O707 O 0.7663 0.63726 0.70515 0.0
O708 O 0.78655 0.63324 0.63646 0.0
O709 O 0.83272 0.64701 0.64975 0.0
O710 O 0.79859 0.68634 0.66987 0.0
O711 O 0.84712 0.71617 0.65249 0.0
C712 C 0.92426 0.72656 0.64572 0.0
O713 O 0.91387 0.74006 0.66295 0.0
O714 O 0.90528 0.69402 0.64203 0.0
C715 C 0.8606 0.6936 0.71948 0.0
Tb716 Tb 0.30967 0.1764 0.66653 0.0
C717 C 0.3813 0.22431 0.68762 0.0
Tb718 Tb 0.35006 0.14392 0.67913 0.0
O719 O 0.31458 0.19516 0.70857 0.0
O720 O 0.31629 0.15133 0.69791 0.0
O721 O 0.35595 0.22254 0.67486 0.0
C722 C 0.38828 0.12317 0.69916 0.0
O723 O 0.38283 0.19709 0.69276 0.0
C724 C 0.3388 0.1486 0.62852 0.0
C725 C 0.27936 0.09589 0.66053 0.0
O726 O 0.36838 0.1275 0.71226 0.0
O727 O 0.38656 0.13044 0.6749 0.0
O728 O 0.34204 0.12417 0.63679 0.0
O729 O 0.34397 0.16992 0.64809 0.0
O730 O 0.30368 0.09947 0.67622 0.0
O731 O 0.27853 0.12221 0.65158 0.0
C732 C 0.27339 0.19775 0.64359 0.0
O733 O 0.30018 0.20312 0.63607 0.0
O734 O 0.26698 0.18021 0.6639 0.0
C735 C 0.32013 0.1724 0.71733 0.0
Tb736 Tb 0.79845 0.15613 0.67386 0.0
C737 C 0.82332 0.10675 0.65725 0.0
Tb738 Tb 0.86854 0.18715 0.66468 0.0
O739 O 0.78384 0.13893 0.63131 0.0
O740 O 0.82751 0.18193 0.64399 0.0
O741 O 0.80051 0.10949 0.66809 0.0
C742 C 0.92468 0.20855 0.64616 0.0
O743 O 0.85077 0.1334 0.65334 0.0
C744 C 0.85587 0.18 0.71453 0.0
C745 C 0.84379 0.23634 0.67869 0.0
O746 O 0.92021 0.21585 0.67023 0.0
O747 O 0.89747 0.18892 0.63241 0.0
O748 O 0.88247 0.20325 0.7076 0.0
O749 O 0.83923 0.16017 0.69411 0.0
O750 O 0.86372 0.23172 0.66478 0.0
O751 O 0.81807 0.21052 0.68639 0.0
C752 C 0.74356 0.13518 0.69447 0.0
O753 O 0.77018 0.1435 0.70795 0.0
O754 O 0.74793 0.13894 0.66948 0.0
C755 C 0.81049 0.16153 0.62383 0.0
C756 C 0.33237 0.86578 0.0419 0.0
C757 C 0.33058 0.87604 0.06841 0.0
H758 H 0.35967 0.87746 0.00839 0.0
C759 C 0.35451 0.90783 0.08085 0.0
H760 H 0.31439 0.84124 0.03194 0.0
C761 C 0.38023 0.92852 0.06737 0.0
C762 C 0.38263 0.91763 0.0413 0.0
H763 H 0.35357 0.91644 0.1012 0.0
H764 H 0.39871 0.95258 0.07768 0.0
C765 C 0.35831 0.88636 0.0285 0.0
C766 C 0.0935 0.41696 0.07923 0.0
C767 C 0.12134 0.4255 0.0673 0.0
H768 H 0.05223 0.42157 0.07971 0.0
C769 C 0.12962 0.44747 0.0472 0.0
H770 H 0.08625 0.39983 0.09457 0.0
C771 C 0.11005 0.45975 0.03863 0.0
C772 C 0.08179 0.45028 0.04997 0.0
H773 H 0.15112 0.45493 0.03788 0.0
H774 H 0.11673 0.47611 0.02275 0.0
C775 C 0.07391 0.42923 0.07063 0.0
C776 C 0.52008 0.65238 0.05293 0.0
C777 C 0.54544 0.67905 0.04223 0.0
H778 H 0.49027 0.59845 0.05229 0.0
C779 C 0.55876 0.67122 0.02092 0.0
H780 H 0.50918 0.65766 0.06923 0.0
C781 C 0.54797 0.63762 0.01126 0.0
C782 C 0.52355 0.6109 0.02263 0.0
H783 H 0.57859 0.69104 0.01243 0.0
H784 H 0.55949 0.63264 0.99533 0.0
C785 C 0.50911 0.61854 0.04312 0.0
C786 C 0.90906 0.3268 0.98396 0.0
C787 C 0.88379 0.31862 0.96465 0.0
H788 H 0.94911 0.36561 0.0091 0.0
C789 C 0.87909 0.34481 0.95674 0.0
H790 H 0.91369 0.30739 0.99023 0.0
C791 C 0.89971 0.37853 0.96747 0.0
C792 C 0.92544 0.3867 0.98629 0.0
H793 H 0.85961 0.33927 0.94212 0.0
H794 H 0.89585 0.39821 0.96058 0.0
C795 C 0.92956 0.36035 0.99466 0.0
C796 C 0.66881 0.55256 0.95609 0.0
C797 C 0.68132 0.58164 0.94245 0.0
H798 H 0.63067 0.5182 0.97702 0.0
C799 C 0.66347 0.59745 0.93822 0.0
H800 H 0.68218 0.54003 0.95982 0.0
C801 C 0.63399 0.58484 0.94785 0.0
C802 C 0.62199 0.55646 0.96224 0.0
H803 H 0.67243 0.61975 0.92759 0.0
H804 H 0.6209 0.59775 0.94453 0.0
C805 C 0.63948 0.54021 0.96606 0.0
C806 C 0.42733 0.07786 0.96434 0.0
C807 C 0.44856 0.11304 0.96681 0.0
H808 H 0.41982 0.02918 0.97275 0.0
C809 C 0.47781 0.12648 0.98229 0.0
H810 H 0.40464 0.06694 0.9525 0.0
C811 C 0.48662 0.105 0.99345 0.0
C812 C 0.46615 0.06973 0.98976 0.0
H813 H 0.4948 0.15344 0.98428 0.0
H814 H 0.51002 0.11591 0.00401 0.0
C815 C 0.43594 0.05635 0.97602 0.0
C816 C 0.67067 0.12765 0.96829 0.0
C817 C 0.6742 0.11171 0.9449 0.0
H818 H 0.64017 0.1251 0.99797 0.0
C819 C 0.64833 0.08102 0.93272 0.0
H820 H 0.69031 0.15115 0.97828 0.0
C821 C 0.61977 0.06618 0.94401 0.0
C822 C 0.61658 0.08165 0.96776 0.0
H823 H 0.65023 0.06837 0.91454 0.0
H824 H 0.60032 0.04231 0.93434 0.0
C825 C 0.6421 0.1127 0.97965 0.0
C826 C 0.87739 0.55299 0.97527 0.0
C827 C 0.87901 0.56166 0.94885 0.0
H828 H 0.89291 0.53238 0.00559 0.0
C829 C 0.89761 0.55448 0.93234 0.0
H830 H 0.86394 0.55865 0.98884 0.0
C831 C 0.91488 0.54009 0.94228 0.0
C832 C 0.91349 0.53208 0.96877 0.0
H833 H 0.89902 0.56014 0.91175 0.0
H834 H 0.92949 0.53549 0.92932 0.0
C835 C 0.89421 0.53812 0.98501 0.0
C836 C 0.45318 0.35045 0.96999 0.0
C837 C 0.47195 0.34832 0.95076 0.0
H838 H 0.44413 0.38317 0.99592 0.0
C839 C 0.49555 0.3783 0.94212 0.0
H840 H 0.43479 0.32766 0.97697 0.0
C841 C 0.50089 0.40976 0.95286 0.0
C842 C 0.48279 0.41218 0.9726 0.0
H843 H 0.5099 0.37746 0.92688 0.0
H844 H 0.51935 0.43222 0.94556 0.0
C845 C 0.4586 0.38217 0.98088 0.0
C846 C 0.10272 0.62459 0.07846 0.0
C847 C 0.11344 0.65298 0.06428 0.0
H848 H 0.0718 0.57125 0.07781 0.0
C849 C 0.09952 0.6494 0.03818 0.0
H850 H 0.11333 0.62681 0.09854 0.0
C851 C 0.07504 0.61756 0.02643 0.0
C852 C 0.06509 0.58896 0.04041 0.0
H853 H 0.10766 0.67112 0.02694 0.0
H854 H 0.06467 0.61508 0.00622 0.0
C855 C 0.07906 0.59285 0.06654 0.0
C856 C 0.32607 0.42075 0.03334 0.0
C857 C 0.32422 0.42599 0.06082 0.0
H858 H 0.35577 0.43201 0.00168 0.0
C859 C 0.35201 0.44793 0.07776 0.0
H860 H 0.30496 0.40425 0.01983 0.0
C861 C 0.38129 0.4636 0.06738 0.0
C862 C 0.38301 0.458 0.03989 0.0
H863 H 0.35114 0.45228 0.09904 0.0
H864 H 0.40252 0.47987 0.08083 0.0
C865 C 0.35512 0.43676 0.02296 0.0
C866 C 0.5831 0.93803 0.04239 0.0
C867 C 0.56439 0.90406 0.0474 0.0
H868 H 0.58464 0.98157 0.02812 0.0
C869 C 0.53144 0.88785 0.04094 0.0
H870 H 0.60843 0.95172 0.04759 0.0
C871 C 0.51761 0.90538 0.03019 0.0
C872 C 0.53648 0.9393 0.02526 0.0
H873 H 0.51627 0.86154 0.04404 0.0
H874 H 0.49218 0.89241 0.02579 0.0
C875 C 0.56938 0.95527 0.03124 0.0
C876 C 0.00748 0.19405 0.3776 0.0
C877 C 0.00091 0.20728 0.40084 0.0
H878 H 0.03829 0.20372 0.34682 0.0
C879 C 0.02028 0.24198 0.40993 0.0
H880 H 0.99339 0.16735 0.37027 0.0
C881 C 0.04621 0.2627 0.3966 0.0
C882 C 0.05317 0.24912 0.37389 0.0
H883 H 0.01565 0.25306 0.42754 0.0
H884 H 0.06118 0.28917 0.40439 0.0
C885 C 0.03332 0.2148 0.36424 0.0
C886 C 0.77889 0.78128 0.41434 0.0
C887 C 0.79115 0.766 0.39735 0.0
H888 H 0.74958 0.80354 0.41723 0.0
C889 C 0.78327 0.76231 0.36951 0.0
H890 H 0.78473 0.78487 0.43584 0.0
C891 C 0.76348 0.77329 0.35894 0.0
C892 C 0.75091 0.78799 0.37593 0.0
H893 H 0.79171 0.75009 0.35582 0.0
H894 H 0.75759 0.76971 0.33743 0.0
C895 C 0.7589 0.79211 0.40372 0.0
C896 C 0.22371 0.00445 0.34724 0.0
C897 C 0.21752 0.01397 0.37229 0.0
H898 H 0.21664 0.96375 0.31884 0.0
C899 C 0.19551 0.98855 0.38651 0.0
H900 H 0.23987 0.0234 0.33543 0.0
C901 C 0.18167 0.95426 0.37669 0.0
C902 C 0.18986 0.94487 0.35265 0.0
H903 H 0.19032 0.99498 0.40594 0.0
H904 H 0.1662 0.93515 0.38876 0.0
C905 C 0.21022 0.97028 0.33763 0.0
C906 C 0.54794 0.68623 0.28649 0.0
C907 C 0.5515 0.65979 0.29555 0.0
H908 H 0.56598 0.73986 0.28907 0.0
C909 C 0.57577 0.66781 0.31588 0.0
H910 H 0.52921 0.68086 0.27109 0.0
C911 C 0.59656 0.70142 0.32631 0.0
C912 C 0.59373 0.72799 0.31665 0.0
H913 H 0.57954 0.64822 0.3231 0.0
H914 H 0.61542 0.70654 0.34148 0.0
C915 C 0.56884 0.72001 0.29695 0.0
C916 C 0.32381 0.89468 0.26705 0.0
C917 C 0.35142 0.91718 0.28407 0.0
H918 H 0.27311 0.8649 0.26278 0.0
C919 C 0.34851 0.927 0.31036 0.0
H920 H 0.32522 0.88642 0.24675 0.0
C921 C 0.31887 0.9145 0.3195 0.0
C922 C 0.29139 0.89202 0.30257 0.0
H923 H 0.36916 0.94481 0.32385 0.0
H924 H 0.3175 0.92266 0.33984 0.0
C925 C 0.29402 0.8822 0.27623 0.0
C926 C 0.14807 0.45888 0.31578 0.0
C927 C 0.11882 0.44503 0.30026 0.0
H928 H 0.18072 0.44891 0.33757 0.0
C929 C 0.09811 0.40976 0.29744 0.0
H930 H 0.16459 0.48598 0.318 0.0
C931 C 0.10712 0.38856 0.30911 0.0
C932 C 0.13727 0.40236 0.3231 0.0
H933 H 0.07546 0.39857 0.28549 0.0
H934 H 0.09133 0.36133 0.30574 0.0
C935 C 0.15735 0.43771 0.32686 0.0
C936 C 0.31975 0.41562 0.2667 0.0
C937 C 0.34497 0.44725 0.27814 0.0
H938 H 0.27261 0.37544 0.26933 0.0
C939 C 0.34114 0.46313 0.30141 0.0
H940 H 0.32184 0.40293 0.24863 0.0
C941 C 0.31293 0.44734 0.3133 0.0
C942 C 0.28805 0.41548 0.30207 0.0
H943 H 0.36027 0.48733 0.31088 0.0
H944 H 0.31076 0.45984 0.33144 0.0
C945 C 0.29156 0.39994 0.27851 0.0
C946 C 0.58064 0.91307 0.26881 0.0
C947 C 0.55254 0.9064 0.27943 0.0
H948 H 0.61932 0.9039 0.26963 0.0
C949 C 0.54121 0.88353 0.29882 0.0
H950 H 0.58973 0.93026 0.25362 0.0
C951 C 0.55822 0.86854 0.30805 0.0
C952 C 0.58668 0.87594 0.29789 0.0
H953 H 0.51975 0.8781 0.3075 0.0
H954 H 0.54942 0.85172 0.32352 0.0
C955 C 0.59747 0.89786 0.27787 0.0
C956 C 0.11745 0.68318 0.30744 0.0
C957 C 0.14019 0.67988 0.29393 0.0
H958 H 0.10541 0.71709 0.32807 0.0
C959 C 0.16907 0.70919 0.29146 0.0
H960 H 0.09501 0.66102 0.30979 0.0
C961 C 0.17508 0.74101 0.302 0.0
C962 C 0.15234 0.74454 0.31527 0.0
H963 H 0.18688 0.70771 0.28071 0.0
H964 H 0.1975 0.76293 0.29921 0.0
C965 C 0.12349 0.71524 0.31807 0.0
C966 C 0.76223 0.98194 0.39065 0.0
C967 C 0.79333 0.98845 0.3898 0.0
H968 H 0.71296 0.94725 0.37849 0.0
C969 C 0.79852 0.96633 0.37292 0.0
H970 H 0.75733 0.99832 0.40352 0.0
C971 C 0.77317 0.937 0.35907 0.0
C972 C 0.7421 0.92951 0.36122 0.0
H973 H 0.82218 0.97106 0.3711 0.0
H974 H 0.77782 0.91952 0.34736 0.0
C975 C 0.7368 0.95276 0.37631 0.0
C976 C 0.02116 0.78686 0.41407 0.0
C977 C 0.99277 0.76488 0.39788 0.0
H978 H 0.07162 0.81801 0.41582 0.0
C979 C 0.99357 0.75895 0.37025 0.0
H980 H 0.02118 0.79178 0.43544 0.0
C981 C 0.02216 0.77418 0.35905 0.0
C982 C 0.05062 0.79537 0.37528 0.0
H983 H 0.97199 0.74248 0.35725 0.0
H984 H 0.02202 0.76882 0.33772 0.0
C985 C 0.04994 0.80178 0.40288 0.0
C986 C 0.20178 0.22208 0.37884 0.0
C987 C 0.23463 0.23553 0.38033 0.0
H988 H 0.16287 0.22914 0.36792 0.0
C989 C 0.25341 0.2669 0.37061 0.0
H990 H 0.18653 0.19771 0.38569 0.0
C991 C 0.23982 0.28459 0.36 0.0
C992 C 0.2071 0.27156 0.35908 0.0
H993 H 0.27882 0.27832 0.37178 0.0
H994 H 0.2552 0.30897 0.3532 0.0
C995 C 0.18817 0.23995 0.3684 0.0
C996 C 0.68798 0.57562 0.74943 0.0
C997 C 0.66801 0.54132 0.73954 0.0
H998 H 0.72901 0.62283 0.74415 0.0
C999 C 0.67388 0.52845 0.71579 0.0
H1000 H 0.68386 0.58611 0.76767 0.0
C1001 C 0.6998 0.54925 0.70256 0.0
C1002 C 0.71997 0.58336 0.71265 0.0
H1003 H 0.65902 0.50198 0.70794 0.0
H1004 H 0.70428 0.53853 0.68464 0.0
C1005 C 0.71364 0.59657 0.73594 0.0
C1006 C 0.44495 0.09026 0.70175 0.0
C1007 C 0.44822 0.08674 0.72913 0.0
H1008 H 0.42358 0.10466 0.67096 0.0
C1009 C 0.43179 0.09592 0.74671 0.0
H1010 H 0.45662 0.08281 0.68748 0.0
C1011 C 0.4123 0.10787 0.73705 0.0
C1012 C 0.4091 0.11116 0.7097 0.0
H1013 H 0.43405 0.094 0.76797 0.0
H1014 H 0.3998 0.1146 0.75098 0.0
C1015 C 0.42577 0.10252 0.69219 0.0
C1016 C 0.84741 0.3121 0.71784 0.0
C1017 C 0.87416 0.33918 0.70898 0.0
H1018 H 0.81643 0.25823 0.71495 0.0
C1019 C 0.88865 0.33215 0.68821 0.0
H1020 H 0.83547 0.31671 0.73359 0.0
C1021 C 0.87767 0.29882 0.67744 0.0
C1022 C 0.85192 0.2716 0.68718 0.0
H1023 H 0.90952 0.35228 0.6811 0.0
H1024 H 0.8902 0.29439 0.66214 0.0
C1025 C 0.83635 0.27862 0.707 0.0
C1026 C 0.23062 0.00066 0.65433 0.0
C1027 C 0.21636 0.99292 0.62782 0.0
H1028 H 0.26134 0.03941 0.68557 0.0
C1029 C 0.21967 0.01958 0.61337 0.0
H1030 H 0.22782 0.9807 0.66627 0.0
C1031 C 0.23851 0.05338 0.62469 0.0
C1032 C 0.25444 0.06096 0.65053 0.0
H1033 H 0.20905 0.01446 0.59288 0.0
H1034 H 0.24211 0.07351 0.61263 0.0
C1035 C 0.24959 0.03428 0.66549 0.0
C1036 C 0.98833 0.22522 0.60038 0.0
C1037 C 0.01594 0.24744 0.61751 0.0
H1038 H 0.93764 0.19529 0.59605 0.0
C1039 C 0.01297 0.25654 0.644 0.0
H1040 H 0.98976 0.21748 0.57994 0.0
C1041 C 0.9833 0.24366 0.6532 0.0
C1042 C 0.95583 0.22148 0.63614 0.0
H1043 H 0.0336 0.2741 0.65761 0.0
H1044 H 0.98188 0.2513 0.67369 0.0
C1045 C 0.95853 0.21235 0.60962 0.0
C1046 C 0.82769 0.79243 0.63517 0.0
C1047 C 0.79708 0.78175 0.62354 0.0
H1048 H 0.85847 0.7784 0.65482 0.0
C1049 C 0.77299 0.74801 0.62442 0.0
H1050 H 0.84677 0.81816 0.63446 0.0
C1051 C 0.77963 0.72525 0.63653 0.0
C1052 C 0.81058 0.7358 0.64722 0.0
H1053 H 0.74923 0.73923 0.6155 0.0
H1054 H 0.76093 0.69917 0.63653 0.0
C1055 C 0.83442 0.76963 0.64667 0.0
C1056 C 0.00099 0.7969 0.62638 0.0
C1057 C 0.0122 0.77839 0.61189 0.0
H1058 H 0.9643 0.79493 0.64862 0.0
C1059 C 0.99326 0.74283 0.60752 0.0
H1060 H 0.01467 0.82435 0.6297 0.0
C1061 C 0.96427 0.72617 0.61798 0.0
C1062 C 0.95377 0.74464 0.63325 0.0
H1063 H 0.00125 0.72768 0.59682 0.0
H1064 H 0.95049 0.6987 0.6147 0.0
C1065 C 0.9721 0.78015 0.6371 0.0
C1066 C 0.20816 0.21789 0.63216 0.0
C1067 C 0.21992 0.24151 0.61336 0.0
H1068 H 0.216 0.18565 0.65654 0.0
C1069 C 0.24878 0.24936 0.60364 0.0
H1070 H 0.18614 0.21156 0.64021 0.0
C1071 C 0.26579 0.23441 0.61292 0.0
C1072 C 0.2544 0.21157 0.63226 0.0
H1073 H 0.25827 0.26719 0.58893 0.0
H1074 H 0.28816 0.24124 0.60535 0.0
C1075 C 0.2253 0.20318 0.6416 0.0
C1076 C 0.78346 0.01523 0.62648 0.0
C1077 C 0.80978 0.01188 0.62186 0.0
H1078 H 0.76705 0.04801 0.64164 0.0
C1079 C 0.84007 0.03866 0.63177 0.0
H1080 H 0.75981 0.99511 0.61903 0.0
C1081 C 0.84418 0.06882 0.64445 0.0
C1082 C 0.81809 0.07288 0.64786 0.0
H1083 H 0.86079 0.0366 0.62924 0.0
H1084 H 0.86798 0.08933 0.65099 0.0
C1085 C 0.78759 0.04548 0.63945 0.0
C1086 C 0.4624 0.28947 0.72048 0.0
C1087 C 0.46018 0.31884 0.7242 0.0
H1088 H 0.43971 0.23714 0.7057 0.0
C1089 C 0.4323 0.31758 0.71393 0.0
H1090 H 0.48323 0.28926 0.72847 0.0
C1091 C 0.40688 0.28723 0.70091 0.0
C1092 C 0.40892 0.25765 0.69809 0.0
H1093 H 0.42998 0.3399 0.71629 0.0
H1094 H 0.38537 0.28668 0.6939 0.0
C1095 C 0.4372 0.25937 0.70756 0.0
C1096 C 0.65546 0.0886 0.69773 0.0
C1097 C 0.65352 0.08969 0.72547 0.0
H1098 H 0.6856 0.10282 0.66622 0.0
C1099 C 0.68144 0.10708 0.74308 0.0
H1100 H 0.63422 0.07554 0.68377 0.0
C1101 C 0.71089 0.12224 0.73304 0.0
C1102 C 0.71275 0.12084 0.70527 0.0
H1103 H 0.68048 0.10815 0.76456 0.0
H1104 H 0.73216 0.13484 0.74697 0.0
C1105 C 0.6848 0.10431 0.68772 0.0
C1106 C 0.86069 0.55218 0.72107 0.0
C1107 C 0.89332 0.56736 0.72893 0.0
H1108 H 0.82326 0.55867 0.70379 0.0
C1109 C 0.91301 0.60197 0.72624 0.0
H1110 H 0.84479 0.52554 0.72265 0.0
C1111 C 0.90083 0.62045 0.7148 0.0
C1112 C 0.86849 0.60511 0.7063 0.0
H1113 H 0.93804 0.61493 0.73285 0.0
H1114 H 0.91684 0.64696 0.71276 0.0
C1115 C 0.84834 0.57102 0.71008 0.0
C1116 C 0.48276 0.98239 0.11175 0.0
C1117 C 0.49663 0.00917 0.1326 0.0
H1118 H 0.47844 0.96716 0.06998 0.0
C1119 C 0.5156 0.04254 0.12617 0.0
H1120 H 0.46756 0.95647 0.11581 0.0
C1121 C 0.5212 0.04878 0.09959 0.0
C1122 C 0.50806 0.02177 0.079 0.0
H1123 H 0.52694 0.06376 0.14175 0.0
H1124 H 0.5364 0.07458 0.09524 0.0
C1125 C 0.48864 0.98859 0.08534 0.0
C1126 C 0.0259 0.53943 0.12228 0.0
C1127 C 0.03179 0.51475 0.13173 0.0
H1128 H 0.00509 0.55293 0.09048 0.0
C1129 C 0.01907 0.48309 0.11632 0.0
H1130 H 0.03516 0.56391 0.13388 0.0
C1131 C 0.00191 0.47684 0.09132 0.0
C1132 C 0.99711 0.50206 0.08153 0.0
H1133 H 0.02331 0.46365 0.12317 0.0
H1134 H 0.9927 0.4525 0.07955 0.0
C1135 C 0.00855 0.53305 0.09751 0.0
C1136 C 0.5306 0.54094 0.11962 0.0
C1137 C 0.50343 0.51276 0.1268 0.0
H1138 H 0.55913 0.56433 0.08833 0.0
C1139 C 0.48381 0.48589 0.10692 0.0
H1140 H 0.54599 0.56223 0.13439 0.0
C1141 C 0.4915 0.48704 0.08048 0.0
C1142 C 0.51865 0.51529 0.07344 0.0
H1143 H 0.46291 0.46368 0.11191 0.0
H1144 H 0.47638 0.46573 0.06564 0.0
C1145 C 0.53811 0.54218 0.09324 0.0
C1146 C 0.9909 0.51083 0.90294 0.0
C1147 C 0.98125 0.4822 0.88429 0.0
H1148 H 0.00779 0.53325 0.94369 0.0
C1149 C 0.98012 0.45323 0.89333 0.0
H1150 H 0.99243 0.5337 0.89661 0.0
C1151 C 0.98905 0.45311 0.92016 0.0
C1152 C 0.99901 0.48181 0.93862 0.0
H1153 H 0.97227 0.43052 0.87966 0.0
H1154 H 0.98802 0.43045 0.92647 0.0
C1155 C 0.99975 0.51063 0.92986 0.0
C1156 C 0.48413 0.45556 0.89545 0.0
C1157 C 0.51309 0.47975 0.88738 0.0
H1158 H 0.45016 0.44426 0.92348 0.0
C1159 C 0.52894 0.51292 0.90065 0.0
H1160 H 0.47115 0.42997 0.88529 0.0
C1161 C 0.51676 0.52117 0.92251 0.0
C1162 C 0.48865 0.49641 0.93133 0.0
H1163 H 0.55129 0.53208 0.89479 0.0
H1164 H 0.52955 0.54664 0.93283 0.0
C1165 C 0.47196 0.46386 0.91712 0.0
C1166 C 0.4919 0.9588 0.88718 0.0
C1167 C 0.50678 0.99152 0.87876 0.0
H1168 H 0.47316 0.92874 0.91955 0.0
C1169 C 0.51534 0.01954 0.8977 0.0
H1170 H 0.48539 0.93668 0.87324 0.0
C1171 C 0.50861 0.01494 0.92417 0.0
C1172 C 0.49308 0.98223 0.93233 0.0
H1173 H 0.52632 0.04503 0.89193 0.0
H1174 H 0.51488 0.03701 0.93809 0.0
C1175 C 0.48502 0.95421 0.9137 0.0
C1176 C 0.18429 0.37494 0.46012 0.0
C1177 C 0.16405 0.34163 0.46611 0.0
H1178 H 0.20722 0.40709 0.42977 0.0
C1179 C 0.15013 0.31515 0.44502 0.0
H1180 H 0.19571 0.39592 0.47589 0.0
C1181 C 0.15716 0.32153 0.41884 0.0
C1182 C 0.17787 0.35461 0.41296 0.0
H1183 H 0.13399 0.28931 0.44874 0.0
H1184 H 0.14681 0.30029 0.4033 0.0
C1185 C 0.19107 0.38137 0.43376 0.0
C1186 C 0.70893 0.88211 0.44682 0.0
C1187 C 0.71059 0.85525 0.45713 0.0
H1188 H 0.68996 0.8978 0.41518 0.0
C1189 C 0.69284 0.82245 0.44335 0.0
H1190 H 0.72226 0.90758 0.45718 0.0
C1191 C 0.67457 0.8169 0.4191 0.0
C1192 C 0.67353 0.84399 0.40859 0.0
H1193 H 0.69392 0.80139 0.45088 0.0
H1194 H 0.6616 0.7916 0.40841 0.0
C1195 C 0.69036 0.87647 0.42289 0.0
C1196 C 0.19833 0.87185 0.45617 0.0
C1197 C 0.1699 0.84483 0.46259 0.0
H1198 H 0.22753 0.8953 0.42529 0.0
C1199 C 0.14894 0.81965 0.44221 0.0
H1200 H 0.21481 0.89154 0.47162 0.0
C1201 C 0.15655 0.82134 0.41577 0.0
C1202 C 0.18474 0.84877 0.40928 0.0
H1203 H 0.12704 0.79839 0.44684 0.0
H1204 H 0.14051 0.80114 0.40048 0.0
C1205 C 0.20558 0.87394 0.42972 0.0
C1206 C 0.65137 0.79603 0.21878 0.0
C1207 C 0.65315 0.8256 0.21048 0.0
H1208 H 0.65729 0.77133 0.25137 0.0
C1209 C 0.66173 0.85326 0.22981 0.0
H1210 H 0.64432 0.77407 0.20446 0.0
C1211 C 0.66915 0.85162 0.25677 0.0
C1212 C 0.66784 0.82221 0.26483 0.0
H1213 H 0.66361 0.8765 0.22399 0.0
H1214 H 0.67671 0.87364 0.27115 0.0
C1215 C 0.6587 0.7944 0.24564 0.0
C1216 C 0.1976 0.8479 0.23523 0.0
C1217 C 0.18351 0.81461 0.22242 0.0
H1218 H 0.19662 0.88059 0.26744 0.0
C1219 C 0.15583 0.78898 0.23125 0.0
H1220 H 0.21899 0.86807 0.22881 0.0
C1221 C 0.14302 0.79616 0.25299 0.0
C1222 C 0.15784 0.82903 0.26655 0.0
H1223 H 0.14424 0.76321 0.22148 0.0
H1224 H 0.12214 0.77562 0.25976 0.0
C1225 C 0.1849 0.85502 0.25727 0.0
C1226 C 0.18801 0.35335 0.23222 0.0
C1227 C 0.17733 0.32536 0.21272 0.0
H1228 H 0.1893 0.37061 0.27309 0.0
C1229 C 0.16074 0.29243 0.22053 0.0
H1230 H 0.20043 0.37903 0.22684 0.0
C1231 C 0.15431 0.28762 0.24711 0.0
C1232 C 0.16437 0.31564 0.26634 0.0
H1233 H 0.15252 0.27035 0.20605 0.0
H1234 H 0.1411 0.26201 0.25252 0.0
C1235 C 0.18154 0.34852 0.25872 0.0
C1236 C 0.81712 0.65268 0.77832 0.0
C1237 C 0.83894 0.67368 0.80021 0.0
H1238 H 0.80754 0.64188 0.73584 0.0
C1239 C 0.86777 0.70162 0.79519 0.0
H1240 H 0.79474 0.6309 0.78141 0.0
C1241 C 0.87459 0.70822 0.7689 0.0
C1242 C 0.85261 0.68734 0.74713 0.0
H1243 H 0.88537 0.71796 0.81156 0.0
H1244 H 0.89711 0.72964 0.76559 0.0
C1245 C 0.82401 0.65941 0.75212 0.0
C1246 C 0.35407 0.15409 0.77921 0.0
C1247 C 0.37168 0.1867 0.79336 0.0
H1248 H 0.32365 0.12389 0.74372 0.0
C1249 C 0.37082 0.21393 0.78291 0.0
H1250 H 0.35446 0.13272 0.78683 0.0
C1251 C 0.35327 0.20886 0.75852 0.0
C1252 C 0.33655 0.17656 0.74392 0.0
H1253 H 0.38394 0.23925 0.79355 0.0
H1254 H 0.35354 0.23049 0.75075 0.0
C1255 C 0.33671 0.14909 0.75455 0.0
C1256 C 0.81352 0.14606 0.77563 0.0
C1257 C 0.83218 0.1733 0.79553 0.0
H1258 H 0.80702 0.12635 0.73435 0.0
C1259 C 0.85822 0.20265 0.78837 0.0
H1260 H 0.79351 0.12301 0.78066 0.0
C1261 C 0.86564 0.20468 0.76199 0.0
C1262 C 0.84725 0.1774 0.74217 0.0
H1263 H 0.8728 0.2242 0.80321 0.0
H1264 H 0.88583 0.22769 0.7571 0.0
C1265 C 0.82118 0.148 0.74918 0.0
C1266 C 0.3032 0.12088 0.55655 0.0
C1267 C 0.3123 0.1521 0.54647 0.0
H1268 H 0.30488 0.09548 0.5903 0.0
C1269 C 0.32862 0.18212 0.56435 0.0
H1270 H 0.28977 0.09711 0.54374 0.0
C1271 C 0.33643 0.18095 0.5913 0.0
C1272 C 0.32864 0.14986 0.60075 0.0
H1273 H 0.33639 0.20669 0.55743 0.0
H1274 H 0.34956 0.20445 0.60451 0.0
C1275 C 0.31166 0.11984 0.58328 0.0
C1276 C 0.86246 0.17555 0.56785 0.0
C1277 C 0.8476 0.14273 0.55396 0.0
H1278 H 0.86203 0.20746 0.60101 0.0
C1279 C 0.81909 0.11736 0.56186 0.0
H1280 H 0.88449 0.19558 0.5622 0.0
C1281 C 0.80648 0.1241 0.58393 0.0
C1282 C 0.82217 0.15633 0.59869 0.0
H1283 H 0.80679 0.09202 0.55123 0.0
H1284 H 0.78502 0.10363 0.59002 0.0
C1285 C 0.84978 0.18229 0.59008 0.0
C1286 C 0.81055 0.66133 0.55791 0.0
C1287 C 0.8385 0.66437 0.54953 0.0
H1288 H 0.78137 0.65232 0.58978 0.0
C1289 C 0.85887 0.66033 0.56771 0.0
H1290 H 0.79456 0.66459 0.54436 0.0
C1291 C 0.85103 0.65276 0.59369 0.0
C1292 C 0.82315 0.64993 0.60202 0.0
H1293 H 0.88035 0.6621 0.56159 0.0
H1294 H 0.86631 0.64825 0.60697 0.0
C1295 C 0.80301 0.65428 0.58388 0.0
loop_
_geom_bond_atom_site_label_1
_geom_bond_atom_site_label_2
_geom_bond_distance
_geom_bond_site_symmetry_2
_ccdc_geom_bond_type
P0 O11 1.490 . S
P0 C14 1.812 . S
P0 C20 1.803 . S
P0 C26 1.819 . S
H1 C15 0.941 . S
H2 C16 0.939 . S
H3 C18 0.940 . S
H4 C19 0.940 . S
H5 C21 0.939 . S
H6 C22 0.942 . S
H7 C24 0.940 . S
H8 C25 0.939 . S
H9 C27 0.941 . S
H10 C31 0.939 . S
O11 P0 1.490 . S
H12 C28 0.939 . S
H13 C30 0.940 . S
C14 P0 1.812 . S
C14 C15 1.389 . S
C14 C19 1.391 . S
C15 H1 0.941 . S
C15 C14 1.389 . S
C15 C16 1.397 . S
C16 H2 0.939 . S
C16 C15 1.397 . S
C16 C17 1.378 . S
C17 C16 1.378 . S
C17 C18 1.378 . S
C18 H3 0.940 . S
C18 C17 1.378 . S
C18 C19 1.396 . S
C19 H4 0.940 . S
C19 C14 1.391 . S
C19 C18 1.396 . S
C20 P0 1.803 . S
C20 C21 1.378 . S
C20 C25 1.400 . S
C21 H5 0.939 . S
C21 C20 1.378 . S
C21 C22 1.361 . S
C22 H6 0.942 . S
C22 C21 1.361 . S
C22 C23 1.369 . S
C23 C22 1.369 . S
C23 C24 1.404 . S
C24 H7 0.940 . S
C24 C23 1.404 . S
C24 C25 1.389 . S
C25 H8 0.939 . S
C25 C20 1.400 . S
C25 C24 1.389 . S
C26 P0 1.819 . S
C26 C27 1.391 . S
C26 C31 1.391 . S
C27 H9 0.941 . S
C27 C26 1.391 . S
C27 C28 1.396 . S
C28 H12 0.939 . S
C28 C27 1.396 . S
C28 C29 1.397 . S
C29 C28 1.397 . S
C29 C30 1.385 . S
C30 H13 0.940 . S
C30 C29 1.385 . S
C30 C31 1.388 . S
C31 H10 0.939 . S
C31 C26 1.391 . S
C31 C30 1.388 . S
P32 O43 1.490 . S
P32 C46 1.812 . S
P32 C52 1.803 . S
P32 C58 1.819 . S
H33 C47 0.941 . S
H34 C48 0.939 . S
H35 C50 0.940 . S
H36 C51 0.940 . S
H37 C53 0.939 . S
H38 C54 0.942 . S
H39 C56 0.940 . S
H40 C57 0.939 . S
H41 C59 0.941 . S
H42 C63 0.939 . S
O43 P32 1.490 . S
H44 C60 0.939 . S
H45 C62 0.940 . S
C46 P32 1.812 . S
C46 C47 1.389 . S
C46 C51 1.391 . S
C47 H33 0.941 . S
C47 C46 1.389 . S
C47 C48 1.397 . S
C48 H34 0.939 . S
C48 C47 1.397 . S
C48 C49 1.378 . S
C49 C48 1.378 . S
C49 C50 1.378 . S
C50 H35 0.940 . S
C50 C49 1.378 . S
C50 C51 1.396 . S
C51 H36 0.940 . S
C51 C46 1.391 . S
C51 C50 1.396 . S
C52 P32 1.803 . S
C52 C53 1.378 . S
C52 C57 1.400 . S
C53 H37 0.939 . S
C53 C52 1.378 . S
C53 C54 1.361 . S
C54 H38 0.942 . S
C54 C53 1.361 . S
C54 C55 1.369 . S
C55 C54 1.369 . S
C55 C56 1.404 . S
C56 H39 0.940 . S
C56 C55 1.404 . S
C56 C57 1.389 . S
C57 H40 0.939 . S
C57 C52 1.400 . S
C57 C56 1.389 . S
C58 P32 1.819 . S
C58 C59 1.391 . S
C58 C63 1.391 . S
C59 H41 0.941 . S
C59 C58 1.391 . S
C59 C60 1.396 . S
C60 H44 0.939 . S
C60 C59 1.396 . S
C60 C61 1.397 . S
C61 C60 1.397 . S
C61 C62 1.385 . S
C62 H45 0.940 . S
C62 C61 1.385 . S
C62 C63 1.388 . S
C63 H42 0.939 . S
C63 C58 1.391 . S
C63 C62 1.388 . S
P64 O75 1.490 . S
P64 C78 1.812 . S
P64 C84 1.803 . S
P64 C90 1.819 . S
H65 C79 0.941 . S
H66 C80 0.939 . S
H67 C82 0.940 . S
H68 C83 0.940 . S
H69 C85 0.939 . S
H70 C86 0.942 . S
H71 C88 0.940 . S
H72 C89 0.939 . S
H73 C91 0.941 . S
H74 C95 0.939 . S
O75 P64 1.490 . S
H76 C92 0.939 . S
H77 C94 0.940 . S
C78 P64 1.812 . S
C78 C79 1.389 . S
C78 C83 1.391 . S
C79 H65 0.941 . S
C79 C78 1.389 . S
C79 C80 1.397 . S
C80 H66 0.939 . S
C80 C79 1.397 . S
C80 C81 1.378 . S
C81 C80 1.378 . S
C81 C82 1.378 . S
C82 H67 0.940 . S
C82 C81 1.378 . S
C82 C83 1.396 . S
C83 H68 0.940 . S
C83 C78 1.391 . S
C83 C82 1.396 . S
C84 P64 1.803 . S
C84 C85 1.378 . S
C84 C89 1.400 . S
C85 H69 0.939 . S
C85 C84 1.378 . S
C85 C86 1.361 . S
C86 H70 0.942 . S
C86 C85 1.361 . S
C86 C87 1.369 . S
C87 C86 1.369 . S
C87 C88 1.404 . S
C88 H71 0.940 . S
C88 C87 1.404 . S
C88 C89 1.389 . S
C89 H72 0.939 . S
C89 C84 1.400 . S
C89 C88 1.389 . S
C90 P64 1.819 . S
C90 C91 1.391 . S
C90 C95 1.391 . S
C91 H73 0.941 . S
C91 C90 1.391 . S
C91 C92 1.396 . S
C92 H76 0.939 . S
C92 C91 1.396 . S
C92 C93 1.397 . S
C93 C92 1.397 . S
C93 C94 1.385 . S
C94 H77 0.940 . S
C94 C93 1.385 . S
C94 C95 1.388 . S
C95 H74 0.939 . S
C95 C90 1.391 . S
C95 C94 1.388 . S
P96 O107 1.490 . S
P96 C110 1.812 . S
P96 C116 1.803 . S
P96 C122 1.819 . S
H97 C111 0.941 . S
H98 C112 0.939 . S
H99 C114 0.940 . S
H100 C115 0.940 . S
H101 C117 0.939 . S
H102 C118 0.942 . S
H103 C120 0.940 . S
H104 C121 0.939 . S
H105 C123 0.941 . S
H106 C127 0.939 . S
O107 P96 1.490 . S
H108 C124 0.939 . S
H109 C126 0.940 . S
C110 P96 1.812 . S
C110 C111 1.389 . S
C110 C115 1.391 . S
C111 H97 0.941 . S
C111 C110 1.389 . S
C111 C112 1.397 . S
C112 H98 0.939 . S
C112 C111 1.397 . S
C112 C113 1.378 . S
C113 C112 1.378 . S
C113 C114 1.378 . S
C114 H99 0.940 . S
C114 C113 1.378 . S
C114 C115 1.396 . S
C115 H100 0.940 . S
C115 C110 1.391 . S
C115 C114 1.396 . S
C116 P96 1.803 . S
C116 C117 1.378 . S
C116 C121 1.400 . S
C117 H101 0.939 . S
C117 C116 1.378 . S
C117 C118 1.361 . S
C118 H102 0.942 . S
C118 C117 1.361 . S
C118 C119 1.369 . S
C119 C118 1.369 . S
C119 C120 1.404 . S
C120 H103 0.940 . S
C120 C119 1.404 . S
C120 C121 1.389 . S
C121 H104 0.939 . S
C121 C116 1.400 . S
C121 C120 1.389 . S
C122 P96 1.819 . S
C122 C123 1.391 . S
C122 C127 1.391 . S
C123 H105 0.941 . S
C123 C122 1.391 . S
C123 C124 1.396 . S
C124 H108 0.939 . S
C124 C123 1.396 . S
C124 C125 1.397 . S
C125 C124 1.397 . S
C125 C126 1.385 . S
C126 H109 0.940 . S
C126 C125 1.385 . S
C126 C127 1.388 . S
C127 H106 0.939 . S
C127 C122 1.391 . S
C127 C126 1.388 . S
P128 O139 1.490 . S
P128 C142 1.812 . S
P128 C148 1.803 . S
P128 C154 1.819 . S
H129 C143 0.941 . S
H130 C144 0.939 . S
H131 C146 0.940 . S
H132 C147 0.940 . S
H133 C149 0.939 . S
H134 C150 0.942 . S
H135 C152 0.940 . S
H136 C153 0.939 . S
H137 C155 0.941 . S
H138 C159 0.939 . S
O139 P128 1.490 . S
H140 C156 0.939 . S
H141 C158 0.940 . S
C142 P128 1.812 . S
C142 C143 1.389 . S
C142 C147 1.391 . S
C143 H129 0.941 . S
C143 C142 1.389 . S
C143 C144 1.397 . S
C144 H130 0.939 . S
C144 C143 1.397 . S
C144 C145 1.378 . S
C145 C144 1.378 . S
C145 C146 1.378 . S
C146 H131 0.940 . S
C146 C145 1.378 . S
C146 C147 1.396 . S
C147 H132 0.940 . S
C147 C142 1.391 . S
C147 C146 1.396 . S
C148 P128 1.803 . S
C148 C149 1.378 . S
C148 C153 1.400 . S
C149 H133 0.939 . S
C149 C148 1.378 . S
C149 C150 1.361 . S
C150 H134 0.942 . S
C150 C149 1.361 . S
C150 C151 1.369 . S
C151 C150 1.369 . S
C151 C152 1.404 . S
C152 H135 0.940 . S
C152 C151 1.404 . S
C152 C153 1.389 . S
C153 H136 0.939 . S
C153 C148 1.400 . S
C153 C152 1.389 . S
C154 P128 1.819 . S
C154 C155 1.391 . S
C154 C159 1.391 . S
C155 H137 0.941 . S
C155 C154 1.391 . S
C155 C156 1.396 . S
C156 H140 0.939 . S
C156 C155 1.396 . S
C156 C157 1.397 . S
C157 C156 1.397 . S
C157 C158 1.385 . S
C158 H141 0.940 . S
C158 C157 1.385 . S
C158 C159 1.388 . S
C159 H138 0.939 . S
C159 C154 1.391 . S
C159 C158 1.388 . S
P160 O171 1.490 . S
P160 C174 1.812 . S
P160 C180 1.803 . S
P160 C186 1.819 . S
H161 C175 0.941 . S
H162 C176 0.939 . S
H163 C178 0.940 . S
H164 C179 0.940 . S
H165 C181 0.939 . S
H166 C182 0.942 . S
H167 C184 0.940 . S
H168 C185 0.939 . S
H169 C187 0.941 . S
H170 C191 0.939 . S
O171 P160 1.490 . S
H172 C188 0.939 . S
H173 C190 0.940 . S
C174 P160 1.812 . S
C174 C175 1.389 . S
C174 C179 1.391 . S
C175 H161 0.941 . S
C175 C174 1.389 . S
C175 C176 1.397 . S
C176 H162 0.939 . S
C176 C175 1.397 . S
C176 C177 1.378 . S
C177 C176 1.378 . S
C177 C178 1.378 . S
C178 H163 0.940 . S
C178 C177 1.378 . S
C178 C179 1.396 . S
C179 H164 0.940 . S
C179 C174 1.391 . S
C179 C178 1.396 . S
C180 P160 1.803 . S
C180 C181 1.378 . S
C180 C185 1.400 . S
C181 H165 0.939 . S
C181 C180 1.378 . S
C181 C182 1.361 . S
C182 H166 0.942 . S
C182 C181 1.361 . S
C182 C183 1.369 . S
C183 C182 1.369 . S
C183 C184 1.404 . S
C184 H167 0.940 . S
C184 C183 1.404 . S
C184 C185 1.389 . S
C185 H168 0.939 . S
C185 C180 1.400 . S
C185 C184 1.389 . S
C186 P160 1.819 . S
C186 C187 1.391 . S
C186 C191 1.391 . S
C187 H169 0.941 . S
C187 C186 1.391 . S
C187 C188 1.396 . S
C188 H172 0.939 . S
C188 C187 1.396 . S
C188 C189 1.397 . S
C189 C188 1.397 . S
C189 C190 1.385 . S
C190 H173 0.940 . S
C190 C189 1.385 . S
C190 C191 1.388 . S
C191 H170 0.939 . S
C191 C186 1.391 . S
C191 C190 1.388 . S
P192 O203 1.490 1_655 S
P192 C206 1.812 . S
P192 C212 1.803 . S
P192 C218 1.819 . S
H193 C207 0.941 . S
H194 C208 0.939 . S
H195 C210 0.940 . S
H196 C211 0.940 . S
H197 C213 0.939 . S
H198 C214 0.942 . S
H199 C216 0.940 . S
H200 C217 0.939 . S
H201 C219 0.941 1_455 S
H202 C223 0.939 . S
O203 P192 1.490 1_455 S
H204 C220 0.939 1_455 S
H205 C222 0.940 . S
C206 P192 1.812 . S
C206 C207 1.389 . S
C206 C211 1.391 . S
C207 H193 0.941 . S
C207 C206 1.389 . S
C207 C208 1.397 . S
C208 H194 0.939 . S
C208 C207 1.397 . S
C208 C209 1.378 . S
C209 C208 1.378 . S
C209 C210 1.378 . S
C210 H195 0.940 . S
C210 C209 1.378 . S
C210 C211 1.396 . S
C211 H196 0.940 . S
C211 C206 1.391 . S
C211 C210 1.396 . S
C212 P192 1.803 . S
C212 C213 1.378 . S
C212 C217 1.400 . S
C213 H197 0.939 . S
C213 C212 1.378 . S
C213 C214 1.361 . S
C214 H198 0.942 . S
C214 C213 1.361 . S
C214 C215 1.369 . S
C215 C214 1.369 . S
C215 C216 1.404 . S
C216 H199 0.940 . S
C216 C215 1.404 . S
C216 C217 1.389 . S
C217 H200 0.939 . S
C217 C212 1.400 . S
C217 C216 1.389 . S
C218 P192 1.819 . S
C218 C219 1.391 . S
C218 C223 1.391 . S
C219 H201 0.941 1_655 S
C219 C218 1.391 . S
C219 C220 1.396 . S
C220 H204 0.939 1_655 S
C220 C219 1.396 . S
C220 C221 1.397 . S
C221 C220 1.397 . S
C221 C222 1.385 . S
C222 H205 0.940 . S
C222 C221 1.385 . S
C222 C223 1.388 . S
C223 H202 0.939 . S
C223 C218 1.391 . S
C223 C222 1.388 . S
P224 O235 1.490 . S
P224 C238 1.812 . S
P224 C244 1.803 . S
P224 C250 1.819 . S
H225 C239 0.941 . S
H226 C240 0.939 . S
H227 C242 0.940 . S
H228 C243 0.940 . S
H229 C245 0.939 . S
H230 C246 0.942 . S
H231 C248 0.940 . S
H232 C249 0.939 . S
H233 C251 0.941 . S
H234 C255 0.939 . S
O235 P224 1.490 . S
H236 C252 0.939 . S
H237 C254 0.940 . S
C238 P224 1.812 . S
C238 C239 1.389 . S
C238 C243 1.391 . S
C239 H225 0.941 . S
C239 C238 1.389 . S
C239 C240 1.397 . S
C240 H226 0.939 . S
C240 C239 1.397 . S
C240 C241 1.378 . S
C241 C240 1.378 . S
C241 C242 1.378 . S
C242 H227 0.940 . S
C242 C241 1.378 . S
C242 C243 1.396 . S
C243 H228 0.940 . S
C243 C238 1.391 . S
C243 C242 1.396 . S
C244 P224 1.803 . S
C244 C245 1.378 . S
C244 C249 1.400 . S
C245 H229 0.939 . S
C245 C244 1.378 . S
C245 C246 1.361 . S
C246 H230 0.942 . S
C246 C245 1.361 . S
C246 C247 1.369 . S
C247 C246 1.369 . S
C247 C248 1.404 . S
C248 H231 0.940 . S
C248 C247 1.404 . S
C248 C249 1.389 . S
C249 H232 0.939 . S
C249 C244 1.400 . S
C249 C248 1.389 . S
C250 P224 1.819 . S
C250 C251 1.391 . S
C250 C255 1.391 . S
C251 H233 0.941 . S
C251 C250 1.391 . S
C251 C252 1.396 . S
C252 H236 0.939 . S
C252 C251 1.396 . S
C252 C253 1.397 . S
C253 C252 1.397 . S
C253 C254 1.385 . S
C254 H237 0.940 . S
C254 C253 1.385 . S
C254 C255 1.388 . S
C255 H234 0.939 . S
C255 C250 1.391 . S
C255 C254 1.388 . S
P256 O267 1.490 1_545 S
P256 C270 1.812 . S
P256 C276 1.803 . S
P256 C282 1.819 . S
H257 C271 0.941 . S
H258 C272 0.939 . S
H259 C274 0.940 . S
H260 C275 0.940 . S
H261 C277 0.939 . S
H262 C278 0.942 . S
H263 C280 0.940 . S
H264 C281 0.939 . S
H265 C283 0.941 1_565 S
H266 C287 0.939 . S
O267 P256 1.490 1_565 S
H268 C284 0.939 1_565 S
H269 C286 0.940 . S
C270 P256 1.812 . S
C270 C271 1.389 . S
C270 C275 1.391 . S
C271 H257 0.941 . S
C271 C270 1.389 . S
C271 C272 1.397 . S
C272 H258 0.939 . S
C272 C271 1.397 . S
C272 C273 1.378 . S
C273 C272 1.378 . S
C273 C274 1.378 . S
C274 H259 0.940 . S
C274 C273 1.378 . S
C274 C275 1.396 . S
C275 H260 0.940 . S
C275 C270 1.391 . S
C275 C274 1.396 . S
C276 P256 1.803 . S
C276 C277 1.378 . S
C276 C281 1.400 . S
C277 H261 0.939 . S
C277 C276 1.378 . S
C277 C278 1.361 . S
C278 H262 0.942 . S
C278 C277 1.361 . S
C278 C279 1.369 . S
C279 C278 1.369 . S
C279 C280 1.404 . S
C280 H263 0.940 . S
C280 C279 1.404 . S
C280 C281 1.389 . S
C281 H264 0.939 . S
C281 C276 1.400 . S
C281 C280 1.389 . S
C282 P256 1.819 . S
C282 C283 1.391 . S
C282 C287 1.391 . S
C283 H265 0.941 1_545 S
C283 C282 1.391 . S
C283 C284 1.396 . S
C284 H268 0.939 1_545 S
C284 C283 1.396 . S
C284 C285 1.397 . S
C285 C284 1.397 . S
C285 C286 1.385 . S
C286 H269 0.940 . S
C286 C285 1.385 . S
C286 C287 1.388 . S
C287 H266 0.939 . S
C287 C282 1.391 . S
C287 C286 1.388 . S
P288 O299 1.490 . S
P288 C302 1.812 . S
P288 C308 1.803 . S
P288 C314 1.819 . S
H289 C303 0.941 . S
H290 C304 0.939 . S
H291 C306 0.940 . S
H292 C307 0.940 . S
H293 C309 0.939 . S
H294 C310 0.942 . S
H295 C312 0.940 . S
H296 C313 0.939 . S
H297 C315 0.941 . S
H298 C319 0.939 . S
O299 P288 1.490 . S
H300 C316 0.939 . S
H301 C318 0.940 . S
C302 P288 1.812 . S
C302 C303 1.389 . S
C302 C307 1.391 . S
C303 H289 0.941 . S
C303 C302 1.389 . S
C303 C304 1.397 . S
C304 H290 0.939 . S
C304 C303 1.397 . S
C304 C305 1.378 . S
C305 C304 1.378 . S
C305 C306 1.378 . S
C306 H291 0.940 . S
C306 C305 1.378 . S
C306 C307 1.396 . S
C307 H292 0.940 . S
C307 C302 1.391 . S
C307 C306 1.396 . S
C308 P288 1.803 . S
C308 C309 1.378 . S
C308 C313 1.400 . S
C309 H293 0.939 . S
C309 C308 1.378 . S
C309 C310 1.361 . S
C310 H294 0.942 . S
C310 C309 1.361 . S
C310 C311 1.369 . S
C311 C310 1.369 . S
C311 C312 1.404 . S
C312 H295 0.940 . S
C312 C311 1.404 . S
C312 C313 1.389 . S
C313 H296 0.939 . S
C313 C308 1.400 . S
C313 C312 1.389 . S
C314 P288 1.819 . S
C314 C315 1.391 . S
C314 C319 1.391 . S
C315 H297 0.941 . S
C315 C314 1.391 . S
C315 C316 1.396 . S
C316 H300 0.939 . S
C316 C315 1.396 . S
C316 C317 1.397 . S
C317 C316 1.397 . S
C317 C318 1.385 . S
C318 H301 0.940 . S
C318 C317 1.385 . S
C318 C319 1.388 . S
C319 H298 0.939 . S
C319 C314 1.391 . S
C319 C318 1.388 . S
P320 O331 1.490 . S
P320 C334 1.812 . S
P320 C340 1.803 . S
P320 C346 1.819 . S
H321 C335 0.941 . S
H322 C336 0.939 . S
H323 C338 0.940 . S
H324 C339 0.940 . S
H325 C341 0.939 . S
H326 C342 0.942 . S
H327 C344 0.940 . S
H328 C345 0.939 . S
H329 C347 0.941 . S
H330 C351 0.939 . S
O331 P320 1.490 . S
H332 C348 0.939 . S
H333 C350 0.940 . S
C334 P320 1.812 . S
C334 C335 1.389 . S
C334 C339 1.391 . S
C335 H321 0.941 . S
C335 C334 1.389 . S
C335 C336 1.397 . S
C336 H322 0.939 . S
C336 C335 1.397 . S
C336 C337 1.378 . S
C337 C336 1.378 . S
C337 C338 1.378 . S
C338 H323 0.940 . S
C338 C337 1.378 . S
C338 C339 1.396 . S
C339 H324 0.940 . S
C339 C334 1.391 . S
C339 C338 1.396 . S
C340 P320 1.803 . S
C340 C341 1.378 . S
C340 C345 1.400 . S
C341 H325 0.939 . S
C341 C340 1.378 . S
C341 C342 1.361 . S
C342 H326 0.942 . S
C342 C341 1.361 . S
C342 C343 1.369 . S
C343 C342 1.369 . S
C343 C344 1.404 . S
C344 H327 0.940 . S
C344 C343 1.404 . S
C344 C345 1.389 . S
C345 H328 0.939 . S
C345 C340 1.400 . S
C345 C344 1.389 . S
C346 P320 1.819 . S
C346 C347 1.391 . S
C346 C351 1.391 . S
C347 H329 0.941 . S
C347 C346 1.391 . S
C347 C348 1.396 . S
C348 H332 0.939 . S
C348 C347 1.396 . S
C348 C349 1.397 . S
C349 C348 1.397 . S
C349 C350 1.385 . S
C350 H333 0.940 . S
C350 C349 1.385 . S
C350 C351 1.388 . S
C351 H330 0.939 . S
C351 C346 1.391 . S
C351 C350 1.388 . S
P352 O363 1.490 . S
P352 C366 1.812 . S
P352 C372 1.803 . S
P352 C378 1.819 . S
H353 C367 0.941 . S
H354 C368 0.939 . S
H355 C370 0.940 . S
H356 C371 0.940 . S
H357 C373 0.939 . S
H358 C374 0.942 . S
H359 C376 0.940 . S
H360 C377 0.939 . S
H361 C379 0.941 . S
H362 C383 0.939 . S
O363 P352 1.490 . S
H364 C380 0.939 . S
H365 C382 0.940 . S
C366 P352 1.812 . S
C366 C367 1.389 . S
C366 C371 1.391 . S
C367 H353 0.941 . S
C367 C366 1.389 . S
C367 C368 1.397 . S
C368 H354 0.939 . S
C368 C367 1.397 . S
C368 C369 1.378 . S
C369 C368 1.378 . S
C369 C370 1.378 . S
C370 H355 0.940 . S
C370 C369 1.378 . S
C370 C371 1.396 . S
C371 H356 0.940 . S
C371 C366 1.391 . S
C371 C370 1.396 . S
C372 P352 1.803 . S
C372 C373 1.378 . S
C372 C377 1.400 . S
C373 H357 0.939 . S
C373 C372 1.378 . S
C373 C374 1.361 . S
C374 H358 0.942 . S
C374 C373 1.361 . S
C374 C375 1.369 . S
C375 C374 1.369 . S
C375 C376 1.404 . S
C376 H359 0.940 . S
C376 C375 1.404 . S
C376 C377 1.389 . S
C377 H360 0.939 . S
C377 C372 1.400 . S
C377 C376 1.389 . S
C378 P352 1.819 . S
C378 C379 1.391 . S
C378 C383 1.391 . S
C379 H361 0.941 . S
C379 C378 1.391 . S
C379 C380 1.396 . S
C380 H364 0.939 . S
C380 C379 1.396 . S
C380 C381 1.397 . S
C381 C380 1.397 . S
C381 C382 1.385 . S
C382 H365 0.940 . S
C382 C381 1.385 . S
C382 C383 1.388 . S
C383 H362 0.939 . S
C383 C378 1.391 . S
C383 C382 1.388 . S
P384 O395 1.490 . S
P384 C398 1.812 . S
P384 C404 1.803 . S
P384 C410 1.819 . S
H385 C399 0.941 . S
H386 C400 0.939 . S
H387 C402 0.940 . S
H388 C403 0.940 . S
H389 C405 0.939 . S
H390 C406 0.942 . S
H391 C408 0.940 . S
H392 C409 0.939 . S
H393 C411 0.941 . S
H394 C415 0.939 . S
O395 P384 1.490 . S
H396 C412 0.939 . S
H397 C414 0.940 . S
C398 P384 1.812 . S
C398 C399 1.389 . S
C398 C403 1.391 . S
C399 H385 0.941 . S
C399 C398 1.389 . S
C399 C400 1.397 . S
C400 H386 0.939 . S
C400 C399 1.397 . S
C400 C401 1.378 . S
C401 C400 1.378 . S
C401 C402 1.378 . S
C402 H387 0.940 . S
C402 C401 1.378 . S
C402 C403 1.396 . S
C403 H388 0.940 . S
C403 C398 1.391 . S
C403 C402 1.396 . S
C404 P384 1.803 . S
C404 C405 1.378 . S
C404 C409 1.400 . S
C405 H389 0.939 . S
C405 C404 1.378 . S
C405 C406 1.361 . S
C406 H390 0.942 . S
C406 C405 1.361 . S
C406 C407 1.369 . S
C407 C406 1.369 . S
C407 C408 1.404 . S
C408 H391 0.940 . S
C408 C407 1.404 . S
C408 C409 1.389 . S
C409 H392 0.939 . S
C409 C404 1.400 . S
C409 C408 1.389 . S
C410 P384 1.819 . S
C410 C411 1.391 . S
C410 C415 1.391 . S
C411 H393 0.941 . S
C411 C410 1.391 . S
C411 C412 1.396 . S
C412 H396 0.939 . S
C412 C411 1.396 . S
C412 C413 1.397 . S
C413 C412 1.397 . S
C413 C414 1.385 . S
C414 H397 0.940 . S
C414 C413 1.385 . S
C414 C415 1.388 . S
C415 H394 0.939 . S
C415 C410 1.391 . S
C415 C414 1.388 . S
P416 O427 1.490 . S
P416 C430 1.812 . S
P416 C436 1.803 . S
P416 C442 1.819 . S
H417 C431 0.941 . S
H418 C432 0.939 . S
H419 C434 0.940 . S
H420 C435 0.940 . S
H421 C437 0.939 . S
H422 C438 0.942 . S
H423 C440 0.940 . S
H424 C441 0.939 . S
H425 C443 0.941 . S
H426 C447 0.939 . S
O427 P416 1.490 . S
H428 C444 0.939 . S
H429 C446 0.940 . S
C430 P416 1.812 . S
C430 C431 1.389 . S
C430 C435 1.391 . S
C431 H417 0.941 . S
C431 C430 1.389 . S
C431 C432 1.397 . S
C432 H418 0.939 . S
C432 C431 1.397 . S
C432 C433 1.378 . S
C433 C432 1.378 . S
C433 C434 1.378 . S
C434 H419 0.940 . S
C434 C433 1.378 . S
C434 C435 1.396 . S
C435 H420 0.940 . S
C435 C430 1.391 . S
C435 C434 1.396 . S
C436 P416 1.803 . S
C436 C437 1.378 . S
C436 C441 1.400 . S
C437 H421 0.939 . S
C437 C436 1.378 . S
C437 C438 1.361 . S
C438 H422 0.942 . S
C438 C437 1.361 . S
C438 C439 1.369 . S
C439 C438 1.369 . S
C439 C440 1.404 . S
C440 H423 0.940 . S
C440 C439 1.404 . S
C440 C441 1.389 . S
C441 H424 0.939 . S
C441 C436 1.400 . S
C441 C440 1.389 . S
C442 P416 1.819 . S
C442 C443 1.391 . S
C442 C447 1.391 . S
C443 H425 0.941 . S
C443 C442 1.391 . S
C443 C444 1.396 . S
C444 H428 0.939 . S
C444 C443 1.396 . S
C444 C445 1.397 . S
C445 C444 1.397 . S
C445 C446 1.385 . S
C446 H429 0.940 . S
C446 C445 1.385 . S
C446 C447 1.388 . S
C447 H426 0.939 . S
C447 C442 1.391 . S
C447 C446 1.388 . S
P448 O459 1.490 . S
P448 C462 1.812 . S
P448 C468 1.803 . S
P448 C474 1.819 . S
H449 C463 0.941 . S
H450 C464 0.939 . S
H451 C466 0.940 . S
H452 C467 0.940 . S
H453 C469 0.939 . S
H454 C470 0.942 . S
H455 C472 0.940 . S
H456 C473 0.939 . S
H457 C475 0.941 . S
H458 C479 0.939 . S
O459 P448 1.490 . S
H460 C476 0.939 . S
H461 C478 0.940 . S
C462 P448 1.812 . S
C462 C463 1.389 . S
C462 C467 1.391 . S
C463 H449 0.941 . S
C463 C462 1.389 . S
C463 C464 1.397 . S
C464 H450 0.939 . S
C464 C463 1.397 . S
C464 C465 1.378 . S
C465 C464 1.378 . S
C465 C466 1.378 . S
C466 H451 0.940 . S
C466 C465 1.378 . S
C466 C467 1.396 . S
C467 H452 0.940 . S
C467 C462 1.391 . S
C467 C466 1.396 . S
C468 P448 1.803 . S
C468 C469 1.378 . S
C468 C473 1.400 . S
C469 H453 0.939 . S
C469 C468 1.378 . S
C469 C470 1.361 . S
C470 H454 0.942 . S
C470 C469 1.361 . S
C470 C471 1.369 . S
C471 C470 1.369 . S
C471 C472 1.404 . S
C472 H455 0.940 . S
C472 C471 1.404 . S
C472 C473 1.389 . S
C473 H456 0.939 . S
C473 C468 1.400 . S
C473 C472 1.389 . S
C474 P448 1.819 . S
C474 C475 1.391 . S
C474 C479 1.391 . S
C475 H457 0.941 . S
C475 C474 1.391 . S
C475 C476 1.396 . S
C476 H460 0.939 . S
C476 C475 1.396 . S
C476 C477 1.397 . S
C477 C476 1.397 . S
C477 C478 1.385 . S
C478 H461 0.940 . S
C478 C477 1.385 . S
C478 C479 1.388 . S
C479 H458 0.939 . S
C479 C474 1.391 . S
C479 C478 1.388 . S
P480 O491 1.490 1_565 S
P480 C494 1.812 . S
P480 C500 1.803 . S
P480 C506 1.819 . S
H481 C495 0.941 . S
H482 C496 0.939 . S
H483 C498 0.940 . S
H484 C499 0.940 . S
H485 C501 0.939 . S
H486 C502 0.942 . S
H487 C504 0.940 . S
H488 C505 0.939 . S
H489 C507 0.941 1_545 S
H490 C511 0.939 . S
O491 P480 1.490 1_545 S
H492 C508 0.939 1_545 S
H493 C510 0.940 . S
C494 P480 1.812 . S
C494 C495 1.389 . S
C494 C499 1.391 . S
C495 H481 0.941 . S
C495 C494 1.389 . S
C495 C496 1.397 . S
C496 H482 0.939 . S
C496 C495 1.397 . S
C496 C497 1.378 . S
C497 C496 1.378 . S
C497 C498 1.378 . S
C498 H483 0.940 . S
C498 C497 1.378 . S
C498 C499 1.396 . S
C499 H484 0.940 . S
C499 C494 1.391 . S
C499 C498 1.396 . S
C500 P480 1.803 . S
C500 C501 1.378 . S
C500 C505 1.400 . S
C501 H485 0.939 . S
C501 C500 1.378 . S
C501 C502 1.361 . S
C502 H486 0.942 . S
C502 C501 1.361 . S
C502 C503 1.369 . S
C503 C502 1.369 . S
C503 C504 1.404 . S
C504 H487 0.940 . S
C504 C503 1.404 . S
C504 C505 1.389 . S
C505 H488 0.939 . S
C505 C500 1.400 . S
C505 C504 1.389 . S
C506 P480 1.819 . S
C506 C507 1.391 . S
C506 C511 1.391 . S
C507 H489 0.941 1_565 S
C507 C506 1.391 . S
C507 C508 1.396 . S
C508 H492 0.939 1_565 S
C508 C507 1.396 . S
C508 C509 1.397 . S
C509 C508 1.397 . S
C509 C510 1.385 . S
C510 H493 0.940 . S
C510 C509 1.385 . S
C510 C511 1.388 . S
C511 H490 0.939 . S
C511 C506 1.391 . S
C511 C510 1.388 . S
P512 O523 1.490 . S
P512 C526 1.812 . S
P512 C532 1.803 . S
P512 C538 1.819 . S
H513 C527 0.941 . S
H514 C528 0.939 . S
H515 C530 0.940 . S
H516 C531 0.940 . S
H517 C533 0.939 . S
H518 C534 0.942 . S
H519 C536 0.940 . S
H520 C537 0.939 . S
H521 C539 0.941 . S
H522 C543 0.939 . S
O523 P512 1.490 . S
H524 C540 0.939 . S
H525 C542 0.940 . S
C526 P512 1.812 . S
C526 C527 1.389 . S
C526 C531 1.391 . S
C527 H513 0.941 . S
C527 C526 1.389 . S
C527 C528 1.397 . S
C528 H514 0.939 . S
C528 C527 1.397 . S
C528 C529 1.378 . S
C529 C528 1.378 . S
C529 C530 1.378 . S
C530 H515 0.940 . S
C530 C529 1.378 . S
C530 C531 1.396 . S
C531 H516 0.940 . S
C531 C526 1.391 . S
C531 C530 1.396 . S
C532 P512 1.803 . S
C532 C533 1.378 . S
C532 C537 1.400 . S
C533 H517 0.939 . S
C533 C532 1.378 . S
C533 C534 1.361 . S
C534 H518 0.942 . S
C534 C533 1.361 . S
C534 C535 1.369 . S
C535 C534 1.369 . S
C535 C536 1.404 . S
C536 H519 0.940 . S
C536 C535 1.404 . S
C536 C537 1.389 . S
C537 H520 0.939 . S
C537 C532 1.400 . S
C537 C536 1.389 . S
C538 P512 1.819 . S
C538 C539 1.391 . S
C538 C543 1.391 . S
C539 H521 0.941 . S
C539 C538 1.391 . S
C539 C540 1.396 . S
C540 H524 0.939 . S
C540 C539 1.396 . S
C540 C541 1.397 . S
C541 C540 1.397 . S
C541 C542 1.385 . S
C542 H525 0.940 . S
C542 C541 1.385 . S
C542 C543 1.388 . S
C543 H522 0.939 . S
C543 C538 1.391 . S
C543 C542 1.388 . S
P544 O555 1.490 . S
P544 C558 1.812 . S
P544 C564 1.803 . S
P544 C570 1.819 . S
H545 C559 0.941 . S
H546 C560 0.939 . S
H547 C562 0.940 . S
H548 C563 0.940 . S
H549 C565 0.939 . S
H550 C566 0.942 . S
H551 C568 0.940 . S
H552 C569 0.939 . S
H553 C571 0.941 . S
H554 C575 0.939 . S
O555 P544 1.490 . S
H556 C572 0.939 . S
H557 C574 0.940 . S
C558 P544 1.812 . S
C558 C559 1.389 . S
C558 C563 1.391 . S
C559 H545 0.941 . S
C559 C558 1.389 . S
C559 C560 1.397 . S
C560 H546 0.939 . S
C560 C559 1.397 . S
C560 C561 1.378 . S
C561 C560 1.378 . S
C561 C562 1.378 . S
C562 H547 0.940 . S
C562 C561 1.378 . S
C562 C563 1.396 . S
C563 H548 0.940 . S
C563 C558 1.391 . S
C563 C562 1.396 . S
C564 P544 1.803 . S
C564 C565 1.378 . S
C564 C569 1.400 . S
C565 H549 0.939 . S
C565 C564 1.378 . S
C565 C566 1.361 . S
C566 H550 0.942 . S
C566 C565 1.361 . S
C566 C567 1.369 . S
C567 C566 1.369 . S
C567 C568 1.404 . S
C568 H551 0.940 . S
C568 C567 1.404 . S
C568 C569 1.389 . S
C569 H552 0.939 . S
C569 C564 1.400 . S
C569 C568 1.389 . S
C570 P544 1.819 . S
C570 C571 1.391 . S
C570 C575 1.391 . S
C571 H553 0.941 . S
C571 C570 1.391 . S
C571 C572 1.396 . S
C572 H556 0.939 . S
C572 C571 1.396 . S
C572 C573 1.397 . S
C573 C572 1.397 . S
C573 C574 1.385 . S
C574 H557 0.940 . S
C574 C573 1.385 . S
C574 C575 1.388 . S
C575 H554 0.939 . S
C575 C570 1.391 . S
C575 C574 1.388 . S
Tb576 O579 2.453 . S
Tb576 O580 2.596 1_545 S
Tb576 O581 2.374 1_545 S
Tb576 O589 2.343 1_554 S
Tb576 O591 2.353 . S
Tb576 O593 2.427 1_554 S
Tb576 O594 2.513 1_554 S
C577 O581 1.251 . S
C577 O583 1.263 . S
Tb578 O580 2.343 1_556 S
Tb578 O583 2.353 1_556 S
Tb578 O586 2.427 1_556 S
Tb578 O587 2.513 1_556 S
Tb578 O588 2.453 . S
Tb578 O589 2.596 1_565 S
Tb578 O590 2.374 1_565 S
O579 Tb576 2.453 . S
O579 C595 1.245 . S
O580 Tb576 2.596 1_565 S
O580 Tb578 2.343 1_554 S
O580 C595 1.259 1_565 S
O581 Tb576 2.374 1_565 S
O581 C577 1.251 . S
C582 O586 1.275 . S
C582 O587 1.246 . S
O583 C577 1.263 . S
O583 Tb578 2.353 1_554 S
C584 O588 1.264 . S
C584 O589 1.256 1_565 S
C585 O590 1.250 . S
C585 O591 1.263 1_556 S
O586 Tb578 2.427 1_554 S
O586 C582 1.275 . S
O587 Tb578 2.513 1_554 S
O587 C582 1.246 . S
O588 Tb578 2.453 . S
O588 C584 1.264 . S
O589 Tb576 2.343 1_556 S
O589 Tb578 2.596 1_545 S
O589 C584 1.256 1_545 S
O590 Tb578 2.374 1_545 S
O590 C585 1.250 . S
O591 Tb576 2.353 . S
O591 C585 1.263 1_554 S
C592 O593 1.275 . S
C592 O594 1.246 . S
O593 Tb576 2.427 1_556 S
O593 C592 1.275 . S
O594 Tb576 2.513 1_556 S
O594 C592 1.246 . S
C595 O579 1.245 . S
C595 O580 1.259 1_545 S
Tb596 O599 2.453 . S
Tb596 O600 2.596 1_655 S
Tb596 O601 2.374 1_655 S
Tb596 O609 2.343 1_554 S
Tb596 O611 2.353 . S
Tb596 O613 2.427 1_554 S
Tb596 O614 2.513 1_554 S
C597 O601 1.251 . S
C597 O603 1.263 . S
Tb598 O600 2.343 1_556 S
Tb598 O603 2.353 1_556 S
Tb598 O606 2.427 1_556 S
Tb598 O607 2.513 1_556 S
Tb598 O608 2.453 . S
Tb598 O609 2.596 1_455 S
Tb598 O610 2.374 1_455 S
O599 Tb596 2.453 . S
O599 C615 1.245 1_655 S
O600 Tb596 2.596 1_455 S
O600 Tb598 2.343 1_554 S
O600 C615 1.259 . S
O601 Tb596 2.374 1_455 S
O601 C597 1.251 . S
C602 O606 1.275 . S
C602 O607 1.246 . S
O603 C597 1.263 . S
O603 Tb598 2.353 1_554 S
C604 O608 1.244 1_655 S
C604 O609 1.260 . S
C605 O610 1.250 . S
C605 O611 1.263 1_556 S
O606 Tb598 2.427 1_554 S
O606 C602 1.275 . S
O607 Tb598 2.513 1_554 S
O607 C602 1.246 . S
O608 Tb598 2.453 . S
O608 C604 1.244 1_455 S
O609 Tb596 2.343 1_556 S
O609 Tb598 2.596 1_655 S
O609 C604 1.260 . S
O610 Tb598 2.374 1_655 S
O610 C605 1.250 . S
O611 Tb596 2.353 . S
O611 C605 1.263 1_554 S
C612 O613 1.275 . S
C612 O614 1.246 . S
O613 Tb596 2.427 1_556 S
O613 C612 1.275 . S
O614 Tb596 2.513 1_556 S
O614 C612 1.246 . S
C615 O599 1.245 1_455 S
C615 O600 1.259 . S
Tb616 O619 2.453 . S
Tb616 O620 2.596 . S
Tb616 O621 2.374 . S
Tb616 O629 2.343 1_556 S
Tb616 O631 2.353 1_556 S
Tb616 O633 2.427 1_556 S
Tb616 O634 2.513 1_556 S
C617 O621 1.251 . S
C617 O623 1.263 1_556 S
Tb618 O620 2.343 1_554 S
Tb618 O623 2.353 . S
Tb618 O626 2.427 1_554 S
Tb618 O627 2.513 1_554 S
Tb618 O628 2.453 . S
Tb618 O629 2.596 . S
Tb618 O630 2.374 . S
O619 Tb616 2.453 . S
O619 C635 1.245 . S
O620 Tb616 2.596 . S
O620 Tb618 2.343 1_556 S
O620 C635 1.259 . S
O621 Tb616 2.374 . S
O621 C617 1.251 . S
C622 O626 1.275 . S
C622 O627 1.246 . S
O623 C617 1.263 1_554 S
O623 Tb618 2.353 . S
C624 O628 1.245 . S
C624 O629 1.259 . S
C625 O630 1.250 . S
C625 O631 1.263 . S
O626 Tb618 2.427 1_556 S
O626 C622 1.275 . S
O627 Tb618 2.513 1_556 S
O627 C622 1.246 . S
O628 Tb618 2.453 . S
O628 C624 1.245 . S
O629 Tb616 2.343 1_554 S
O629 Tb618 2.596 . S
O629 C624 1.259 . S
O630 Tb618 2.374 . S
O630 C625 1.250 . S
O631 Tb616 2.353 1_554 S
O631 C625 1.263 . S
C632 O633 1.275 . S
C632 O634 1.246 . S
O633 Tb616 2.427 1_554 S
O633 C632 1.275 . S
O634 Tb616 2.513 1_554 S
O634 C632 1.246 . S
C635 O619 1.245 . S
C635 O620 1.259 . S
Tb636 O639 2.453 . S
Tb636 O640 2.596 . S
Tb636 O641 2.374 . S
Tb636 O649 2.343 . S
Tb636 O651 2.353 . S
Tb636 O653 2.427 . S
Tb636 O654 2.513 . S
C637 O641 1.251 . S
C637 O643 1.263 . S
Tb638 O640 2.343 . S
Tb638 O643 2.353 . S
Tb638 O646 2.427 . S
Tb638 O647 2.513 . S
Tb638 O648 2.453 . S
Tb638 O649 2.596 . S
Tb638 O650 2.374 . S
O639 Tb636 2.453 . S
O639 C655 1.245 . S
O640 Tb636 2.596 . S
O640 Tb638 2.343 . S
O640 C655 1.259 . S
O641 Tb636 2.374 . S
O641 C637 1.251 . S
C642 O646 1.275 . S
C642 O647 1.246 . S
O643 C637 1.263 . S
O643 Tb638 2.353 . S
C644 O648 1.245 . S
C644 O649 1.259 . S
C645 O650 1.250 . S
C645 O651 1.263 . S
O646 Tb638 2.427 . S
O646 C642 1.275 . S
O647 Tb638 2.513 . S
O647 C642 1.246 . S
O648 Tb638 2.453 . S
O648 C644 1.245 . S
O649 Tb636 2.343 . S
O649 Tb638 2.596 . S
O649 C644 1.259 . S
O650 Tb638 2.374 . S
O650 C645 1.250 . S
O651 Tb636 2.353 . S
O651 C645 1.263 . S
C652 O653 1.275 . S
C652 O654 1.246 . S
O653 Tb636 2.427 . S
O653 C652 1.275 . S
O654 Tb636 2.513 . S
O654 C652 1.246 . S
C655 O639 1.245 . S
C655 O640 1.259 . S
Tb656 O659 2.453 . S
Tb656 O660 2.596 . S
Tb656 O661 2.374 . S
Tb656 O669 2.343 . S
Tb656 O671 2.353 . S
Tb656 O673 2.427 . S
Tb656 O674 2.513 . S
C657 O661 1.251 . S
C657 O663 1.263 . S
Tb658 O660 2.343 . S
Tb658 O663 2.353 . S
Tb658 O666 2.427 . S
Tb658 O667 2.513 . S
Tb658 O668 2.453 . S
Tb658 O669 2.596 . S
Tb658 O670 2.374 . S
O659 Tb656 2.453 . S
O659 C675 1.245 . S
O660 Tb656 2.596 . S
O660 Tb658 2.343 . S
O660 C675 1.259 . S
O661 Tb656 2.374 . S
O661 C657 1.251 . S
C662 O666 1.275 . S
C662 O667 1.246 . S
O663 C657 1.263 . S
O663 Tb658 2.353 . S
C664 O668 1.245 . S
C664 O669 1.259 . S
C665 O670 1.250 . S
C665 O671 1.263 . S
O666 Tb658 2.427 . S
O666 C662 1.275 . S
O667 Tb658 2.513 . S
O667 C662 1.246 . S
O668 Tb658 2.453 . S
O668 C664 1.245 . S
O669 Tb656 2.343 . S
O669 Tb658 2.596 . S
O669 C664 1.259 . S
O670 Tb658 2.374 . S
O670 C665 1.250 . S
O671 Tb656 2.353 . S
O671 C665 1.263 . S
C672 O673 1.275 . S
C672 O674 1.246 . S
O673 Tb656 2.427 . S
O673 C672 1.275 . S
O674 Tb656 2.513 . S
O674 C672 1.246 . S
C675 O659 1.245 . S
C675 O660 1.259 . S
Tb676 O679 2.453 . S
Tb676 O680 2.596 . S
Tb676 O681 2.374 . S
Tb676 O689 2.343 . S
Tb676 O691 2.353 . S
Tb676 O693 2.427 . S
Tb676 O694 2.513 . S
C677 O681 1.251 . S
C677 O683 1.263 . S
Tb678 O680 2.343 . S
Tb678 O683 2.353 . S
Tb678 O686 2.427 . S
Tb678 O687 2.513 . S
Tb678 O688 2.453 . S
Tb678 O689 2.596 . S
Tb678 O690 2.374 . S
O679 Tb676 2.453 . S
O679 C695 1.245 . S
O680 Tb676 2.596 . S
O680 Tb678 2.343 . S
O680 C695 1.259 . S
O681 Tb676 2.374 . S
O681 C677 1.251 . S
C682 O686 1.275 . S
C682 O687 1.246 . S
O683 C677 1.263 . S
O683 Tb678 2.353 . S
C684 O688 1.245 . S
C684 O689 1.259 . S
C685 O690 1.250 . S
C685 O691 1.263 . S
O686 Tb678 2.427 . S
O686 C682 1.275 . S
O687 Tb678 2.513 . S
O687 C682 1.246 . S
O688 Tb678 2.453 . S
O688 C684 1.245 . S
O689 Tb676 2.343 . S
O689 Tb678 2.596 . S
O689 C684 1.259 . S
O690 Tb678 2.374 . S
O690 C685 1.250 . S
O691 Tb676 2.353 . S
O691 C685 1.263 . S
C692 O693 1.275 . S
C692 O694 1.246 . S
O693 Tb676 2.427 . S
O693 C692 1.275 . S
O694 Tb676 2.513 . S
O694 C692 1.246 . S
C695 O679 1.245 . S
C695 O680 1.259 . S
Tb696 O699 2.453 . S
Tb696 O700 2.596 . S
Tb696 O701 2.374 . S
Tb696 O709 2.343 . S
Tb696 O711 2.353 . S
Tb696 O713 2.427 . S
Tb696 O714 2.513 . S
C697 O701 1.251 . S
C697 O703 1.263 . S
Tb698 O700 2.343 . S
Tb698 O703 2.353 . S
Tb698 O706 2.427 . S
Tb698 O707 2.513 . S
Tb698 O708 2.453 . S
Tb698 O709 2.596 . S
Tb698 O710 2.374 . S
O699 Tb696 2.453 . S
O699 C715 1.245 . S
O700 Tb696 2.596 . S
O700 Tb698 2.343 . S
O700 C715 1.259 . S
O701 Tb696 2.374 . S
O701 C697 1.251 . S
C702 O706 1.275 . S
C702 O707 1.246 . S
O703 C697 1.263 . S
O703 Tb698 2.353 . S
C704 O708 1.245 . S
C704 O709 1.259 . S
C705 O710 1.250 . S
C705 O711 1.263 . S
O706 Tb698 2.427 . S
O706 C702 1.275 . S
O707 Tb698 2.513 . S
O707 C702 1.246 . S
O708 Tb698 2.453 . S
O708 C704 1.245 . S
O709 Tb696 2.343 . S
O709 Tb698 2.596 . S
O709 C704 1.259 . S
O710 Tb698 2.374 . S
O710 C705 1.250 . S
O711 Tb696 2.353 . S
O711 C705 1.263 . S
C712 O713 1.275 . S
C712 O714 1.246 . S
O713 Tb696 2.427 . S
O713 C712 1.275 . S
O714 Tb696 2.513 . S
O714 C712 1.246 . S
C715 O699 1.245 . S
C715 O700 1.259 . S
Tb716 O719 2.453 . S
Tb716 O720 2.596 . S
Tb716 O721 2.374 . S
Tb716 O729 2.343 . S
Tb716 O731 2.353 . S
Tb716 O733 2.427 . S
Tb716 O734 2.513 . S
C717 O721 1.251 . S
C717 O723 1.263 . S
Tb718 O720 2.343 . S
Tb718 O723 2.353 . S
Tb718 O726 2.427 . S
Tb718 O727 2.513 . S
Tb718 O728 2.453 . S
Tb718 O729 2.596 . S
Tb718 O730 2.374 . S
O719 Tb716 2.453 . S
O719 C735 1.245 . S
O720 Tb716 2.596 . S
O720 Tb718 2.343 . S
O720 C735 1.259 . S
O721 Tb716 2.374 . S
O721 C717 1.251 . S
C722 O726 1.275 . S
C722 O727 1.246 . S
O723 C717 1.263 . S
O723 Tb718 2.353 . S
C724 O728 1.245 . S
C724 O729 1.259 . S
C725 O730 1.250 . S
C725 O731 1.263 . S
O726 Tb718 2.427 . S
O726 C722 1.275 . S
O727 Tb718 2.513 . S
O727 C722 1.246 . S
O728 Tb718 2.453 . S
O728 C724 1.245 . S
O729 Tb716 2.343 . S
O729 Tb718 2.596 . S
O729 C724 1.259 . S
O730 Tb718 2.374 . S
O730 C725 1.250 . S
O731 Tb716 2.353 . S
O731 C725 1.263 . S
C732 O733 1.275 . S
C732 O734 1.246 . S
O733 Tb716 2.427 . S
O733 C732 1.275 . S
O734 Tb716 2.513 . S
O734 C732 1.246 . S
C735 O719 1.245 . S
C735 O720 1.259 . S
Tb736 O739 2.453 . S
Tb736 O740 2.596 . S
Tb736 O741 2.374 . S
Tb736 O749 2.343 . S
Tb736 O751 2.353 . S
Tb736 O753 2.427 . S
Tb736 O754 2.513 . S
C737 O741 1.251 . S
C737 O743 1.263 . S
Tb738 O740 2.343 . S
Tb738 O743 2.353 . S
Tb738 O746 2.427 . S
Tb738 O747 2.513 . S
Tb738 O748 2.453 . S
Tb738 O749 2.596 . S
Tb738 O750 2.374 . S
O739 Tb736 2.453 . S
O739 C755 1.245 . S
O740 Tb736 2.596 . S
O740 Tb738 2.343 . S
O740 C755 1.259 . S
O741 Tb736 2.374 . S
O741 C737 1.251 . S
C742 O746 1.275 . S
C742 O747 1.246 . S
O743 C737 1.263 . S
O743 Tb738 2.353 . S
C744 O748 1.245 . S
C744 O749 1.259 . S
C745 O750 1.250 . S
C745 O751 1.263 . S
O746 Tb738 2.427 . S
O746 C742 1.275 . S
O747 Tb738 2.513 . S
O747 C742 1.246 . S
O748 Tb738 2.453 . S
O748 C744 1.245 . S
O749 Tb736 2.343 . S
O749 Tb738 2.596 . S
O749 C744 1.259 . S
O750 Tb738 2.374 . S
O750 C745 1.250 . S
O751 Tb736 2.353 . S
O751 C745 1.263 . S
C752 O753 1.275 . S
C752 O754 1.246 . S
O753 Tb736 2.427 . S
O753 C752 1.275 . S
O754 Tb736 2.513 . S
O754 C752 1.246 . S
C755 O739 1.245 . S
C755 O740 1.259 . S
C756 C757 1.387 . S
C756 H760 0.950 . S
C756 C765 1.390 . S
C757 C756 1.387 . S
C757 C759 1.387 . S
H758 C765 0.950 . S
C759 C757 1.387 . S
C759 C761 1.390 . S
C759 H763 0.950 . S
H760 C756 0.950 . S
C761 C759 1.390 . S
C761 C762 1.387 . S
C761 H764 0.950 . S
C762 C761 1.387 . S
C762 C765 1.387 . S
H763 C759 0.950 . S
H764 C761 0.950 . S
C765 C756 1.390 . S
C765 H758 0.950 . S
C765 C762 1.387 . S
C766 C767 1.387 . S
C766 H770 0.950 . S
C766 C775 1.390 . S
C767 C766 1.387 . S
C767 C769 1.387 . S
H768 C775 0.950 . S
C769 C767 1.387 . S
C769 C771 1.390 . S
C769 H773 0.950 . S
H770 C766 0.950 . S
C771 C769 1.390 . S
C771 C772 1.387 . S
C771 H774 0.950 . S
C772 C771 1.387 . S
C772 C775 1.387 . S
H773 C769 0.950 . S
H774 C771 0.950 . S
C775 C766 1.390 . S
C775 H768 0.950 . S
C775 C772 1.387 . S
C776 C777 1.387 . S
C776 H780 0.950 . S
C776 C785 1.390 . S
C777 C776 1.387 . S
C777 C779 1.387 . S
H778 C785 0.950 . S
C779 C777 1.387 . S
C779 C781 1.390 . S
C779 H783 0.950 . S
H780 C776 0.950 . S
C781 C779 1.390 . S
C781 C782 1.387 . S
C781 H784 0.950 . S
C782 C781 1.387 . S
C782 C785 1.387 . S
H783 C779 0.950 . S
H784 C781 0.950 . S
C785 C776 1.390 . S
C785 H778 0.950 . S
C785 C782 1.387 . S
C786 C787 1.387 . S
C786 H790 0.950 . S
C786 C795 1.390 . S
C787 C786 1.387 . S
C787 C789 1.387 . S
H788 C795 0.950 . S
C789 C787 1.387 . S
C789 C791 1.390 . S
C789 H793 0.950 . S
H790 C786 0.950 . S
C791 C789 1.390 . S
C791 C792 1.387 . S
C791 H794 0.950 . S
C792 C791 1.387 . S
C792 C795 1.387 . S
H793 C789 0.950 . S
H794 C791 0.950 . S
C795 C786 1.390 . S
C795 H788 0.950 . S
C795 C792 1.387 . S
C796 C797 1.387 . S
C796 H800 0.950 . S
C796 C805 1.390 . S
C797 C796 1.387 . S
C797 C799 1.387 . S
H798 C805 0.950 . S
C799 C797 1.387 . S
C799 C801 1.390 . S
C799 H803 0.950 . S
H800 C796 0.950 . S
C801 C799 1.390 . S
C801 C802 1.387 . S
C801 H804 0.950 . S
C802 C801 1.387 . S
C802 C805 1.387 . S
H803 C799 0.950 . S
H804 C801 0.950 . S
C805 C796 1.390 . S
C805 H798 0.950 . S
C805 C802 1.387 . S
C806 C807 1.387 . S
C806 H810 0.950 . S
C806 C815 1.390 . S
C807 C806 1.387 . S
C807 C809 1.387 . S
H808 C815 0.950 . S
C809 C807 1.387 . S
C809 C811 1.390 1_556 S
C809 H813 0.950 1_556 S
H810 C806 0.950 . S
C811 C809 1.390 1_554 S
C811 C812 1.387 1_554 S
C811 H814 0.950 . S
C812 C811 1.387 1_556 S
C812 C815 1.387 . S
H813 C809 0.950 1_554 S
H814 C811 0.950 . S
C815 C806 1.390 . S
C815 H808 0.950 . S
C815 C812 1.387 . S
C816 C817 1.387 . S
C816 H820 0.950 . S
C816 C825 1.390 . S
C817 C816 1.387 . S
C817 C819 1.387 . S
H818 C825 0.950 1_554 S
C819 C817 1.387 . S
C819 C821 1.390 . S
C819 H823 0.950 . S
H820 C816 0.950 . S
C821 C819 1.390 . S
C821 C822 1.387 . S
C821 H824 0.950 . S
C822 C821 1.387 . S
C822 C825 1.387 . S
H823 C819 0.950 . S
H824 C821 0.950 . S
C825 C816 1.390 . S
C825 H818 0.950 1_556 S
C825 C822 1.387 . S
C826 C827 1.387 . S
C826 H830 0.950 . S
C826 C835 1.390 . S
C827 C826 1.387 . S
C827 C829 1.387 . S
H828 C835 0.947 1_554 S
C829 C827 1.387 . S
C829 C831 1.390 . S
C829 H833 0.950 . S
H830 C826 0.950 . S
C831 C829 1.390 . S
C831 C832 1.387 . S
C831 H834 0.950 . S
C832 C831 1.387 . S
C832 C835 1.387 . S
H833 C829 0.950 . S
H834 C831 0.950 . S
C835 C826 1.390 . S
C835 H828 0.947 1_556 S
C835 C832 1.387 . S
C836 C837 1.387 . S
C836 H840 0.950 1_556 S
C836 C845 1.391 1_556 S
C837 C836 1.387 . S
C837 C839 1.387 . S
H838 C845 0.947 . S
C839 C837 1.387 . S
C839 C841 1.390 . S
C839 H843 0.950 . S
H840 C836 0.950 1_554 S
C841 C839 1.390 . S
C841 C842 1.387 . S
C841 H844 0.950 . S
C842 C841 1.387 . S
C842 C845 1.390 1_556 S
H843 C839 0.950 . S
H844 C841 0.950 . S
C845 C836 1.391 1_554 S
C845 H838 0.947 . S
C845 C842 1.390 1_554 S
C846 C847 1.387 . S
C846 H850 0.950 . S
C846 C855 1.390 . S
C847 C846 1.387 . S
C847 C849 1.387 . S
H848 C855 0.950 . S
C849 C847 1.387 . S
C849 C851 1.390 . S
C849 H853 0.950 . S
H850 C846 0.950 . S
C851 C849 1.390 . S
C851 C852 1.387 . S
C851 H854 0.950 1_554 S
C852 C851 1.387 . S
C852 C855 1.387 . S
H853 C849 0.950 . S
H854 C851 0.950 1_556 S
C855 C846 1.390 . S
C855 H848 0.950 . S
C855 C852 1.387 . S
C856 C857 1.387 . S
C856 H860 0.950 . S
C856 C865 1.390 . S
C857 C856 1.387 . S
C857 C859 1.387 . S
H858 C865 0.950 . S
C859 C857 1.387 . S
C859 C861 1.390 . S
C859 H863 0.950 . S
H860 C856 0.950 . S
C861 C859 1.390 . S
C861 C862 1.387 . S
C861 H864 0.950 . S
C862 C861 1.387 . S
C862 C865 1.387 . S
H863 C859 0.950 . S
H864 C861 0.950 . S
C865 C856 1.390 . S
C865 H858 0.950 . S
C865 C862 1.387 . S
C866 C867 1.387 . S
C866 H870 0.950 . S
C866 C875 1.390 . S
C867 C866 1.387 . S
C867 C869 1.387 . S
H868 C875 0.950 . S
C869 C867 1.387 . S
C869 C871 1.390 . S
C869 H873 0.950 . S
H870 C866 0.950 . S
C871 C869 1.390 . S
C871 C872 1.387 . S
C871 H874 0.950 1_554 S
C872 C871 1.387 . S
C872 C875 1.387 . S
H873 C869 0.950 . S
H874 C871 0.950 1_556 S
C875 C866 1.390 . S
C875 H868 0.950 . S
C875 C872 1.387 . S
C876 C877 1.387 . S
C876 H880 0.950 . S
C876 C885 1.390 1_655 S
C877 C876 1.387 . S
C877 C879 1.387 1_655 S
H878 C885 0.950 . S
C879 C877 1.387 1_455 S
C879 C881 1.390 . S
C879 H883 0.950 . S
H880 C876 0.950 . S
C881 C879 1.390 . S
C881 C882 1.387 . S
C881 H884 0.950 . S
C882 C881 1.387 . S
C882 C885 1.387 . S
H883 C879 0.950 . S
H884 C881 0.950 . S
C885 C876 1.390 1_455 S
C885 H878 0.950 . S
C885 C882 1.387 . S
C886 C887 1.387 . S
C886 H890 0.950 . S
C886 C895 1.390 . S
C887 C886 1.387 . S
C887 C889 1.387 . S
H888 C895 0.950 . S
C889 C887 1.387 . S
C889 C891 1.390 . S
C889 H893 0.950 . S
H890 C886 0.950 . S
C891 C889 1.390 . S
C891 C892 1.387 . S
C891 H894 0.950 . S
C892 C891 1.387 . S
C892 C895 1.387 . S
H893 C889 0.950 . S
H894 C891 0.950 . S
C895 C886 1.390 . S
C895 H888 0.950 . S
C895 C892 1.387 . S
C896 C897 1.387 1_565 S
C896 H900 0.950 1_565 S
C896 C905 1.390 . S
C897 C896 1.387 1_545 S
C897 C899 1.387 1_545 S
H898 C905 0.950 . S
C899 C897 1.387 1_565 S
C899 C901 1.390 . S
C899 H903 0.950 . S
H900 C896 0.950 1_545 S
C901 C899 1.390 . S
C901 C902 1.387 . S
C901 H904 0.950 . S
C902 C901 1.387 . S
C902 C905 1.387 . S
H903 C899 0.950 . S
H904 C901 0.950 . S
C905 C896 1.390 . S
C905 H898 0.950 . S
C905 C902 1.387 . S
C906 C907 1.387 . S
C906 H910 0.950 . S
C906 C915 1.390 . S
C907 C906 1.387 . S
C907 C909 1.387 . S
H908 C915 0.950 . S
C909 C907 1.387 . S
C909 C911 1.390 . S
C909 H913 0.950 . S
H910 C906 0.950 . S
C911 C909 1.390 . S
C911 C912 1.387 . S
C911 H914 0.950 . S
C912 C911 1.387 . S
C912 C915 1.387 . S
H913 C909 0.950 . S
H914 C911 0.950 . S
C915 C906 1.390 . S
C915 H908 0.950 . S
C915 C912 1.387 . S
C916 C917 1.387 . S
C916 H920 0.950 . S
C916 C925 1.390 . S
C917 C916 1.387 . S
C917 C919 1.387 . S
H918 C925 0.950 . S
C919 C917 1.387 . S
C919 C921 1.390 . S
C919 H923 0.950 . S
H920 C916 0.950 . S
C921 C919 1.390 . S
C921 C922 1.387 . S
C921 H924 0.950 . S
C922 C921 1.387 . S
C922 C925 1.387 . S
H923 C919 0.950 . S
H924 C921 0.950 . S
C925 C916 1.390 . S
C925 H918 0.950 . S
C925 C922 1.387 . S
C926 C927 1.387 . S
C926 H930 0.950 . S
C926 C935 1.390 . S
C927 C926 1.387 . S
C927 C929 1.387 . S
H928 C935 0.950 . S
C929 C927 1.387 . S
C929 C931 1.390 . S
C929 H933 0.950 . S
H930 C926 0.950 . S
C931 C929 1.390 . S
C931 C932 1.387 . S
C931 H934 0.950 . S
C932 C931 1.387 . S
C932 C935 1.387 . S
H933 C929 0.950 . S
H934 C931 0.950 . S
C935 C926 1.390 . S
C935 H928 0.950 . S
C935 C932 1.387 . S
C936 C937 1.387 . S
C936 H940 0.950 . S
C936 C945 1.390 . S
C937 C936 1.387 . S
C937 C939 1.387 . S
H938 C945 0.950 . S
C939 C937 1.387 . S
C939 C941 1.390 . S
C939 H943 0.950 . S
H940 C936 0.950 . S
C941 C939 1.390 . S
C941 C942 1.387 . S
C941 H944 0.950 . S
C942 C941 1.387 . S
C942 C945 1.387 . S
H943 C939 0.950 . S
H944 C941 0.950 . S
C945 C936 1.390 . S
C945 H938 0.950 . S
C945 C942 1.387 . S
C946 C947 1.387 . S
C946 H950 0.950 . S
C946 C955 1.390 . S
C947 C946 1.387 . S
C947 C949 1.387 . S
H948 C955 0.950 . S
C949 C947 1.387 . S
C949 C951 1.390 . S
C949 H953 0.950 . S
H950 C946 0.950 . S
C951 C949 1.390 . S
C951 C952 1.387 . S
C951 H954 0.950 . S
C952 C951 1.387 . S
C952 C955 1.387 . S
H953 C949 0.950 . S
H954 C951 0.950 . S
C955 C946 1.390 . S
C955 H948 0.950 . S
C955 C952 1.387 . S
C956 C957 1.387 . S
C956 H960 0.950 . S
C956 C965 1.390 . S
C957 C956 1.387 . S
C957 C959 1.387 . S
H958 C965 0.950 . S
C959 C957 1.387 . S
C959 C961 1.390 . S
C959 H963 0.950 . S
H960 C956 0.950 . S
C961 C959 1.390 . S
C961 C962 1.387 . S
C961 H964 0.950 . S
C962 C961 1.387 . S
C962 C965 1.387 . S
H963 C959 0.950 . S
H964 C961 0.950 . S
C965 C956 1.390 . S
C965 H958 0.950 . S
C965 C962 1.387 . S
C966 C967 1.387 1_565 S
C966 H970 0.950 . S
C966 C975 1.390 . S
C967 C966 1.387 1_545 S
C967 C969 1.387 1_545 S
H968 C975 0.950 . S
C969 C967 1.387 1_565 S
C969 C971 1.390 . S
C969 H973 0.950 1_565 S
H970 C966 0.950 . S
C971 C969 1.390 . S
C971 C972 1.387 . S
C971 H974 0.950 . S
C972 C971 1.387 . S
C972 C975 1.387 . S
H973 C969 0.950 1_545 S
H974 C971 0.950 . S
C975 C966 1.390 . S
C975 H968 0.950 . S
C975 C972 1.387 . S
C976 C977 1.383 1_455 S
C976 H980 0.950 . S
C976 C985 1.390 . S
C977 C976 1.383 1_655 S
C977 C979 1.382 1_655 S
H978 C985 0.950 . S
C979 C977 1.382 1_455 S
C979 C981 1.390 . S
C979 H983 0.950 1_455 S
H980 C976 0.950 . S
C981 C979 1.390 . S
C981 C982 1.387 . S
C981 H984 0.950 . S
C982 C981 1.387 . S
C982 C985 1.387 . S
H983 C979 0.950 1_655 S
H984 C981 0.950 . S
C985 C976 1.390 . S
C985 H978 0.950 . S
C985 C982 1.387 . S
C986 C987 1.387 . S
C986 H990 0.950 . S
C986 C995 1.390 . S
C987 C986 1.387 . S
C987 C989 1.387 . S
H988 C995 0.950 . S
C989 C987 1.387 . S
C989 C991 1.390 . S
C989 H993 0.950 . S
H990 C986 0.950 . S
C991 C989 1.390 . S
C991 C992 1.387 . S
C991 H994 0.950 . S
C992 C991 1.387 . S
C992 C995 1.387 . S
H993 C989 0.950 . S
H994 C991 0.950 . S
C995 C986 1.390 . S
C995 H988 0.950 . S
C995 C992 1.387 . S
C996 C997 1.387 . S
C996 H1000 0.950 . S
C996 C1005 1.390 . S
C997 C996 1.387 . S
C997 C999 1.387 . S
H998 C1005 0.950 . S
C999 C997 1.387 . S
C999 C1001 1.390 . S
C999 H1003 0.950 . S
H1000 C996 0.950 . S
C1001 C999 1.390 . S
C1001 C1002 1.387 . S
C1001 H1004 0.950 . S
C1002 C1001 1.387 . S
C1002 C1005 1.387 . S
H1003 C999 0.950 . S
H1004 C1001 0.950 . S
C1005 C996 1.390 . S
C1005 H998 0.950 . S
C1005 C1002 1.387 . S
C1006 C1007 1.387 . S
C1006 H1010 0.950 . S
C1006 C1015 1.390 . S
C1007 C1006 1.387 . S
C1007 C1009 1.387 . S
H1008 C1015 0.950 . S
C1009 C1007 1.387 . S
C1009 C1011 1.390 . S
C1009 H1013 0.950 . S
H1010 C1006 0.950 . S
C1011 C1009 1.390 . S
C1011 C1012 1.387 . S
C1011 H1014 0.950 . S
C1012 C1011 1.387 . S
C1012 C1015 1.387 . S
H1013 C1009 0.950 . S
H1014 C1011 0.950 . S
C1015 C1006 1.390 . S
C1015 H1008 0.950 . S
C1015 C1012 1.387 . S
C1016 C1017 1.387 . S
C1016 H1020 0.950 . S
C1016 C1025 1.390 . S
C1017 C1016 1.387 . S
C1017 C1019 1.387 . S
H1018 C1025 0.950 . S
C1019 C1017 1.387 . S
C1019 C1021 1.390 . S
C1019 H1023 0.950 . S
H1020 C1016 0.950 . S
C1021 C1019 1.390 . S
C1021 C1022 1.387 . S
C1021 H1024 0.950 . S
C1022 C1021 1.387 . S
C1022 C1025 1.387 . S
H1023 C1019 0.950 . S
H1024 C1021 0.950 . S
C1025 C1016 1.390 . S
C1025 H1018 0.950 . S
C1025 C1022 1.387 . S
C1026 C1027 1.387 1_545 S
C1026 H1030 0.950 1_545 S
C1026 C1035 1.390 . S
C1027 C1026 1.387 1_565 S
C1027 C1029 1.387 1_565 S
H1028 C1035 0.950 . S
C1029 C1027 1.387 1_545 S
C1029 C1031 1.390 . S
C1029 H1033 0.950 . S
H1030 C1026 0.950 1_565 S
C1031 C1029 1.390 . S
C1031 C1032 1.387 . S
C1031 H1034 0.950 . S
C1032 C1031 1.387 . S
C1032 C1035 1.387 . S
H1033 C1029 0.950 . S
H1034 C1031 0.950 . S
C1035 C1026 1.390 . S
C1035 H1028 0.950 . S
C1035 C1032 1.387 . S
C1036 C1037 1.387 1_655 S
C1036 H1040 0.950 . S
C1036 C1045 1.390 . S
C1037 C1036 1.387 1_455 S
C1037 C1039 1.387 . S
H1038 C1045 0.950 . S
C1039 C1037 1.387 . S
C1039 C1041 1.390 1_455 S
C1039 H1043 0.950 . S
H1040 C1036 0.950 . S
C1041 C1039 1.390 1_655 S
C1041 C1042 1.387 . S
C1041 H1044 0.950 . S
C1042 C1041 1.387 . S
C1042 C1045 1.387 . S
H1043 C1039 0.950 . S
H1044 C1041 0.950 . S
C1045 C1036 1.390 . S
C1045 H1038 0.950 . S
C1045 C1042 1.387 . S
C1046 C1047 1.387 . S
C1046 H1050 0.950 . S
C1046 C1055 1.390 . S
C1047 C1046 1.387 . S
C1047 C1049 1.387 . S
H1048 C1055 0.950 . S
C1049 C1047 1.387 . S
C1049 C1051 1.390 . S
C1049 H1053 0.950 . S
H1050 C1046 0.950 . S
C1051 C1049 1.390 . S
C1051 C1052 1.387 . S
C1051 H1054 0.950 . S
C1052 C1051 1.387 . S
C1052 C1055 1.387 . S
H1053 C1049 0.950 . S
H1054 C1051 0.950 . S
C1055 C1046 1.390 . S
C1055 H1048 0.950 . S
C1055 C1052 1.387 . S
C1056 C1057 1.387 1_655 S
C1056 H1060 0.950 1_655 S
C1056 C1065 1.390 . S
C1057 C1056 1.387 1_455 S
C1057 C1059 1.387 . S
H1058 C1065 0.950 . S
C1059 C1057 1.387 . S
C1059 C1061 1.390 1_455 S
C1059 H1063 0.950 . S
H1060 C1056 0.950 1_455 S
C1061 C1059 1.390 1_655 S
C1061 C1062 1.387 . S
C1061 H1064 0.950 . S
C1062 C1061 1.387 . S
C1062 C1065 1.387 . S
H1063 C1059 0.950 . S
H1064 C1061 0.950 . S
C1065 C1056 1.390 . S
C1065 H1058 0.950 . S
C1065 C1062 1.387 . S
C1066 C1067 1.387 . S
C1066 H1070 0.950 . S
C1066 C1075 1.390 . S
C1067 C1066 1.387 . S
C1067 C1069 1.387 . S
H1068 C1075 0.950 . S
C1069 C1067 1.387 . S
C1069 C1071 1.390 . S
C1069 H1073 0.950 . S
H1070 C1066 0.950 . S
C1071 C1069 1.390 . S
C1071 C1072 1.387 . S
C1071 H1074 0.950 . S
C1072 C1071 1.387 . S
C1072 C1075 1.387 . S
H1073 C1069 0.950 . S
H1074 C1071 0.950 . S
C1075 C1066 1.390 . S
C1075 H1068 0.950 . S
C1075 C1072 1.387 . S
C1076 C1077 1.387 1_545 S
C1076 H1080 0.950 1_545 S
C1076 C1085 1.390 . S
C1077 C1076 1.387 1_565 S
C1077 C1079 1.387 1_565 S
H1078 C1085 0.950 . S
C1079 C1077 1.387 1_545 S
C1079 C1081 1.390 . S
C1079 H1083 0.950 . S
H1080 C1076 0.950 1_565 S
C1081 C1079 1.390 . S
C1081 C1082 1.387 . S
C1081 H1084 0.950 . S
C1082 C1081 1.387 . S
C1082 C1085 1.387 . S
H1083 C1079 0.950 . S
H1084 C1081 0.950 . S
C1085 C1076 1.390 . S
C1085 H1078 0.950 . S
C1085 C1082 1.387 . S
C1086 C1087 1.387 . S
C1086 H1090 0.950 . S
C1086 C1095 1.390 . S
C1087 C1086 1.387 . S
C1087 C1089 1.387 . S
H1088 C1095 0.950 . S
C1089 C1087 1.387 . S
C1089 C1091 1.390 . S
C1089 H1093 0.950 . S
H1090 C1086 0.950 . S
C1091 C1089 1.390 . S
C1091 C1092 1.387 . S
C1091 H1094 0.950 . S
C1092 C1091 1.387 . S
C1092 C1095 1.387 . S
H1093 C1089 0.950 . S
H1094 C1091 0.950 . S
C1095 C1086 1.390 . S
C1095 H1088 0.950 . S
C1095 C1092 1.387 . S
C1096 C1097 1.387 . S
C1096 H1100 0.950 . S
C1096 C1105 1.390 . S
C1097 C1096 1.387 . S
C1097 C1099 1.387 . S
H1098 C1105 0.950 . S
C1099 C1097 1.387 . S
C1099 C1101 1.390 . S
C1099 H1103 0.950 . S
H1100 C1096 0.950 . S
C1101 C1099 1.390 . S
C1101 C1102 1.387 . S
C1101 H1104 0.950 . S
C1102 C1101 1.387 . S
C1102 C1105 1.387 . S
H1103 C1099 0.950 . S
H1104 C1101 0.950 . S
C1105 C1096 1.390 . S
C1105 H1098 0.950 . S
C1105 C1102 1.387 . S
C1106 C1107 1.387 . S
C1106 H1110 0.950 . S
C1106 C1115 1.390 . S
C1107 C1106 1.387 . S
C1107 C1109 1.387 . S
H1108 C1115 0.950 . S
C1109 C1107 1.387 . S
C1109 C1111 1.390 . S
C1109 H1113 0.950 . S
H1110 C1106 0.950 . S
C1111 C1109 1.390 . S
C1111 C1112 1.387 . S
C1111 H1114 0.950 . S
C1112 C1111 1.387 . S
C1112 C1115 1.387 . S
H1113 C1109 0.950 . S
H1114 C1111 0.950 . S
C1115 C1106 1.390 . S
C1115 H1108 0.950 . S
C1115 C1112 1.387 . S
C1116 C1117 1.387 . S
C1116 H1120 0.950 . S
C1116 C1125 1.390 . S
C1117 C1116 1.387 . S
C1117 C1119 1.387 1_565 S
H1118 C1125 0.950 . S
C1119 C1117 1.387 1_545 S
C1119 C1121 1.390 . S
C1119 H1123 0.950 . S
H1120 C1116 0.950 . S
C1121 C1119 1.390 . S
C1121 C1122 1.387 1_545 S
C1121 H1124 0.950 . S
C1122 C1121 1.387 1_565 S
C1122 C1125 1.387 . S
H1123 C1119 0.950 . S
H1124 C1121 0.950 . S
C1125 C1116 1.390 . S
C1125 H1118 0.950 . S
C1125 C1122 1.387 . S
C1126 C1127 1.387 . S
C1126 H1130 0.950 . S
C1126 C1135 1.390 . S
C1127 C1126 1.387 . S
C1127 C1129 1.387 . S
H1128 C1135 0.950 . S
C1129 C1127 1.387 . S
C1129 C1131 1.390 . S
C1129 H1133 0.950 . S
H1130 C1126 0.950 . S
C1131 C1129 1.390 . S
C1131 C1132 1.387 . S
C1131 H1134 0.950 . S
C1132 C1131 1.387 . S
C1132 C1135 1.387 . S
H1133 C1129 0.950 . S
H1134 C1131 0.950 . S
C1135 C1126 1.390 . S
C1135 H1128 0.950 . S
C1135 C1132 1.387 . S
C1136 C1137 1.387 . S
C1136 H1140 0.950 . S
C1136 C1145 1.390 . S
C1137 C1136 1.387 . S
C1137 C1139 1.387 . S
H1138 C1145 0.950 . S
C1139 C1137 1.387 . S
C1139 C1141 1.390 . S
C1139 H1143 0.950 . S
H1140 C1136 0.950 . S
C1141 C1139 1.390 . S
C1141 C1142 1.387 . S
C1141 H1144 0.950 . S
C1142 C1141 1.387 . S
C1142 C1145 1.387 . S
H1143 C1139 0.950 . S
H1144 C1141 0.950 . S
C1145 C1136 1.390 . S
C1145 H1138 0.950 . S
C1145 C1142 1.387 . S
C1146 C1147 1.387 . S
C1146 H1150 0.950 . S
C1146 C1155 1.390 . S
C1147 C1146 1.387 . S
C1147 C1149 1.387 . S
H1148 C1155 0.950 1_455 S
C1149 C1147 1.387 . S
C1149 C1151 1.390 . S
C1149 H1153 0.950 . S
H1150 C1146 0.950 . S
C1151 C1149 1.390 . S
C1151 C1152 1.387 . S
C1151 H1154 0.950 . S
C1152 C1151 1.387 . S
C1152 C1155 1.387 . S
H1153 C1149 0.950 . S
H1154 C1151 0.950 . S
C1155 C1146 1.390 . S
C1155 H1148 0.950 1_655 S
C1155 C1152 1.387 . S
C1156 C1157 1.387 . S
C1156 H1160 0.950 . S
C1156 C1165 1.390 . S
C1157 C1156 1.387 . S
C1157 C1159 1.387 . S
H1158 C1165 0.950 . S
C1159 C1157 1.387 . S
C1159 C1161 1.390 . S
C1159 H1163 0.950 . S
H1160 C1156 0.950 . S
C1161 C1159 1.390 . S
C1161 C1162 1.387 . S
C1161 H1164 0.950 . S
C1162 C1161 1.387 . S
C1162 C1165 1.387 . S
H1163 C1159 0.950 . S
H1164 C1161 0.950 . S
C1165 C1156 1.390 . S
C1165 H1158 0.950 . S
C1165 C1162 1.387 . S
C1166 C1167 1.387 1_565 S
C1166 H1170 0.950 . S
C1166 C1175 1.390 . S
C1167 C1166 1.387 1_545 S
C1167 C1169 1.387 . S
H1168 C1175 0.950 . S
C1169 C1167 1.387 . S
C1169 C1171 1.390 . S
C1169 H1173 0.950 . S
H1170 C1166 0.950 . S
C1171 C1169 1.390 . S
C1171 C1172 1.387 . S
C1171 H1174 0.950 . S
C1172 C1171 1.387 . S
C1172 C1175 1.387 1_545 S
H1173 C1169 0.950 . S
H1174 C1171 0.950 . S
C1175 C1166 1.390 . S
C1175 H1168 0.950 . S
C1175 C1172 1.387 1_565 S
C1176 C1177 1.387 . S
C1176 H1180 0.950 . S
C1176 C1185 1.390 . S
C1177 C1176 1.387 . S
C1177 C1179 1.387 . S
H1178 C1185 0.950 . S
C1179 C1177 1.387 . S
C1179 C1181 1.390 . S
C1179 H1183 0.950 . S
H1180 C1176 0.950 . S
C1181 C1179 1.390 . S
C1181 C1182 1.387 . S
C1181 H1184 0.950 . S
C1182 C1181 1.387 . S
C1182 C1185 1.387 . S
H1183 C1179 0.950 . S
H1184 C1181 0.950 . S
C1185 C1176 1.390 . S
C1185 H1178 0.950 . S
C1185 C1182 1.387 . S
C1186 C1187 1.387 . S
C1186 H1190 0.950 . S
C1186 C1195 1.390 . S
C1187 C1186 1.387 . S
C1187 C1189 1.387 . S
H1188 C1195 0.950 . S
C1189 C1187 1.387 . S
C1189 C1191 1.390 . S
C1189 H1193 0.950 . S
H1190 C1186 0.950 . S
C1191 C1189 1.390 . S
C1191 C1192 1.387 . S
C1191 H1194 0.950 . S
C1192 C1191 1.387 . S
C1192 C1195 1.387 . S
H1193 C1189 0.950 . S
H1194 C1191 0.950 . S
C1195 C1186 1.390 . S
C1195 H1188 0.950 . S
C1195 C1192 1.387 . S
C1196 C1197 1.387 . S
C1196 H1200 0.950 . S
C1196 C1205 1.390 . S
C1197 C1196 1.387 . S
C1197 C1199 1.387 . S
H1198 C1205 0.950 . S
C1199 C1197 1.387 . S
C1199 C1201 1.390 . S
C1199 H1203 0.950 . S
H1200 C1196 0.950 . S
C1201 C1199 1.390 . S
C1201 C1202 1.387 . S
C1201 H1204 0.950 . S
C1202 C1201 1.387 . S
C1202 C1205 1.387 . S
H1203 C1199 0.950 . S
H1204 C1201 0.950 . S
C1205 C1196 1.390 . S
C1205 H1198 0.950 . S
C1205 C1202 1.387 . S
C1206 C1207 1.387 . S
C1206 H1210 0.950 . S
C1206 C1215 1.390 . S
C1207 C1206 1.387 . S
C1207 C1209 1.387 . S
H1208 C1215 0.950 . S
C1209 C1207 1.387 . S
C1209 C1211 1.390 . S
C1209 H1213 0.950 . S
H1210 C1206 0.950 . S
C1211 C1209 1.390 . S
C1211 C1212 1.387 . S
C1211 H1214 0.950 . S
C1212 C1211 1.387 . S
C1212 C1215 1.387 . S
H1213 C1209 0.950 . S
H1214 C1211 0.950 . S
C1215 C1206 1.390 . S
C1215 H1208 0.950 . S
C1215 C1212 1.387 . S
C1216 C1217 1.387 . S
C1216 H1220 0.950 . S
C1216 C1225 1.390 . S
C1217 C1216 1.387 . S
C1217 C1219 1.387 . S
H1218 C1225 0.950 . S
C1219 C1217 1.387 . S
C1219 C1221 1.390 . S
C1219 H1223 0.950 . S
H1220 C1216 0.950 . S
C1221 C1219 1.390 . S
C1221 C1222 1.387 . S
C1221 H1224 0.950 . S
C1222 C1221 1.387 . S
C1222 C1225 1.387 . S
H1223 C1219 0.950 . S
H1224 C1221 0.950 . S
C1225 C1216 1.390 . S
C1225 H1218 0.950 . S
C1225 C1222 1.387 . S
C1226 C1227 1.387 . S
C1226 H1230 0.950 . S
C1226 C1235 1.390 . S
C1227 C1226 1.387 . S
C1227 C1229 1.387 . S
H1228 C1235 0.950 . S
C1229 C1227 1.387 . S
C1229 C1231 1.390 . S
C1229 H1233 0.950 . S
H1230 C1226 0.950 . S
C1231 C1229 1.390 . S
C1231 C1232 1.387 . S
C1231 H1234 0.950 . S
C1232 C1231 1.387 . S
C1232 C1235 1.387 . S
H1233 C1229 0.950 . S
H1234 C1231 0.950 . S
C1235 C1226 1.390 . S
C1235 H1228 0.950 . S
C1235 C1232 1.387 . S
C1236 C1237 1.387 . S
C1236 H1240 0.950 . S
C1236 C1245 1.390 . S
C1237 C1236 1.387 . S
C1237 C1239 1.387 . S
H1238 C1245 0.950 . S
C1239 C1237 1.387 . S
C1239 C1241 1.390 . S
C1239 H1243 0.950 . S
H1240 C1236 0.950 . S
C1241 C1239 1.390 . S
C1241 C1242 1.387 . S
C1241 H1244 0.950 . S
C1242 C1241 1.387 . S
C1242 C1245 1.387 . S
H1243 C1239 0.950 . S
H1244 C1241 0.950 . S
C1245 C1236 1.390 . S
C1245 H1238 0.950 . S
C1245 C1242 1.387 . S
C1246 C1247 1.387 . S
C1246 H1250 0.950 . S
C1246 C1255 1.390 . S
C1247 C1246 1.387 . S
C1247 C1249 1.387 . S
H1248 C1255 0.950 . S
C1249 C1247 1.387 . S
C1249 C1251 1.390 . S
C1249 H1253 0.950 . S
H1250 C1246 0.950 . S
C1251 C1249 1.390 . S
C1251 C1252 1.387 . S
C1251 H1254 0.950 . S
C1252 C1251 1.387 . S
C1252 C1255 1.387 . S
H1253 C1249 0.950 . S
H1254 C1251 0.950 . S
C1255 C1246 1.390 . S
C1255 H1248 0.950 . S
C1255 C1252 1.387 . S
C1256 C1257 1.387 . S
C1256 H1260 0.950 . S
C1256 C1265 1.390 . S
C1257 C1256 1.387 . S
C1257 C1259 1.387 . S
H1258 C1265 0.950 . S
C1259 C1257 1.387 . S
C1259 C1261 1.390 . S
C1259 H1263 0.950 . S
H1260 C1256 0.950 . S
C1261 C1259 1.390 . S
C1261 C1262 1.387 . S
C1261 H1264 0.950 . S
C1262 C1261 1.387 . S
C1262 C1265 1.387 . S
H1263 C1259 0.950 . S
H1264 C1261 0.950 . S
C1265 C1256 1.390 . S
C1265 H1258 0.950 . S
C1265 C1262 1.387 . S
C1266 C1267 1.387 . S
C1266 H1270 0.950 . S
C1266 C1275 1.390 . S
C1267 C1266 1.387 . S
C1267 C1269 1.387 . S
H1268 C1275 0.950 . S
C1269 C1267 1.387 . S
C1269 C1271 1.390 . S
C1269 H1273 0.950 . S
H1270 C1266 0.950 . S
C1271 C1269 1.390 . S
C1271 C1272 1.387 . S
C1271 H1274 0.950 . S
C1272 C1271 1.387 . S
C1272 C1275 1.387 . S
H1273 C1269 0.950 . S
H1274 C1271 0.950 . S
C1275 C1266 1.390 . S
C1275 H1268 0.950 . S
C1275 C1272 1.387 . S
C1276 C1277 1.387 . S
C1276 H1280 0.950 . S
C1276 C1285 1.390 . S
C1277 C1276 1.387 . S
C1277 C1279 1.387 . S
H1278 C1285 0.950 . S
C1279 C1277 1.387 . S
C1279 C1281 1.390 . S
C1279 H1283 0.950 . S
H1280 C1276 0.950 . S
C1281 C1279 1.390 . S
C1281 C1282 1.387 . S
C1281 H1284 0.950 . S
C1282 C1281 1.387 . S
C1282 C1285 1.387 . S
H1283 C1279 0.950 . S
H1284 C1281 0.950 . S
C1285 C1276 1.390 . S
C1285 H1278 0.950 . S
C1285 C1282 1.387 . S
C1286 C1287 1.387 . S
C1286 H1290 0.950 . S
C1286 C1295 1.390 . S
C1287 C1286 1.387 . S
C1287 C1289 1.387 . S
H1288 C1295 0.950 . S
C1289 C1287 1.387 . S
C1289 C1291 1.390 . S
C1289 H1293 0.950 . S
H1290 C1286 0.950 . S
C1291 C1289 1.390 . S
C1291 C1292 1.387 . S
C1291 H1294 0.950 . S
C1292 C1291 1.387 . S
C1292 C1295 1.387 . S
H1293 C1289 0.950 . S
H1294 C1291 0.950 . S
C1295 C1286 1.390 . S
C1295 H1288 0.950 . S
C1295 C1292 1.387 . S
C757 C439 1.461 . S
C762 C582 1.521 . S
C767 C465 1.534 . S
C772 C602 1.494 . S
C777 C401 1.567 . S
C782 C625 1.535 . S
C787 C369 1.494 . S
C792 C605 1.471 . S
C802 C622 1.491 . S
C797 C305 1.509 . S
C807 C343 1.415 . S
C812 C585 1.481 . S
C822 C592 1.549 . S
C817 C375 1.592 . S
C832 C612 1.470 . S
C827 C311 1.512 . S
C837 C337 1.479 . S
C842 C617 1.536 . S
C847 C433 1.413 . S
C852 C597 1.468 . S
C857 C471 1.487 . S
C862 C632 1.465 . S
C872 C577 1.507 . S
C867 C407 1.536 . S
C882 C642 1.521 . S
C877 C55 1.461 . S
C887 C81 1.534 . S
C892 C662 1.492 . S
C897 C17 1.567 . S
C902 C685 1.536 . S
C907 C561 1.494 . S
C912 C665 1.470 . S
C917 C497 1.509 . S
C922 C682 1.491 . S
C927 C535 1.414 . S
C932 C645 1.480 . S
C937 C567 1.592 . S
C942 C652 1.547 . S
C947 C503 1.513 . S
C952 C672 1.470 . S
C962 C677 1.535 . S
C957 C529 1.478 . S
C967 C49 1.413 . S
C972 C657 1.468 . S
C982 C692 1.465 . S
C977 C87 1.497 . S
C987 C23 1.535 . S
C992 C637 1.509 . S
C1002 C702 1.523 . S
C997 C247 1.465 . S
C1007 C273 1.534 . S
C1012 C722 1.494 . S
C1022 C745 1.535 . S
C1017 C209 1.567 . S
C1032 C725 1.470 . S
C1027 C177 1.494 . S
C1042 C742 1.491 . S
C1037 C113 1.509 . S
C1047 C151 1.411 . S
C1052 C705 1.479 . S
C1057 C183 1.592 . S
C1062 C712 1.548 . S
C1067 C119 1.512 . S
C1072 C732 1.470 . S
C1082 C737 1.535 . S
C1077 C145 1.477 . S
C1087 C241 1.414 . S
C1092 C717 1.469 . S
C1097 C279 1.487 . S
C1102 C752 1.465 . S
C1107 C215 1.535 . S
C1112 C697 1.509 . S
C1117 C509 1.355 . S
C1122 C595 1.337 1_565 S
C1132 C615 1.543 . S
C1127 C541 1.528 . S
C1137 C573 1.516 . S
C1142 C624 1.458 . S
C1147 C221 1.645 . S
C1152 C604 1.569 . S
C1157 C253 1.411 . S
C1162 C635 1.433 . S
C1172 C584 1.316 1_545 S
C1167 C285 1.354 . S
C1177 C125 1.356 . S
C1182 C655 1.336 . S
C1187 C157 1.528 . S
C1192 C675 1.543 . S
C1197 C189 1.516 . S
C1202 C684 1.458 . S
C1207 C413 1.646 . S
C1212 C664 1.565 . S
C1222 C695 1.430 . S
C1217 C445 1.408 . S
C1227 C477 1.354 . S
C1232 C644 1.326 . S
C1237 C317 1.356 . S
C1242 C715 1.336 . S
C1247 C349 1.525 . S
C1252 C735 1.539 . S
C1262 C744 1.461 . S
C1257 C381 1.516 . S
C1267 C29 1.646 . S
C1272 C724 1.565 . S
C1277 C61 1.408 . S
C1282 C755 1.430 . S
C1287 C93 1.355 . S
C1292 C704 1.325 . S
