# Generated by pormake.
# Topology eea, (3,6)-cn, num edge types: 1
# Building blocks:
#     Node 0, Type 0, BuildingBlock: BELTOD_clean_linker_0, # of connection points: 3
#     Node 1, Type 0, BuildingBlock: BELTOD_clean_linker_0, # of connection points: 3
#     Node 2, Type 0, BuildingBlock: BELTOD_clean_linker_0, # of connection points: 3
#     Node 3, Type 0, BuildingBlock: BELTOD_clean_linker_0, # of connection points: 3
#     Node 4, Type 0, BuildingBlock: BELTOD_clean_linker_0, # of connection points: 3
#     Node 5, Type 0, BuildingBlock: BELTOD_clean_linker_0, # of connection points: 3
#     Node 6, Type 0, BuildingBlock: BELTOD_clean_linker_0, # of connection points: 3
#     Node 7, Type 0, BuildingBlock: BELTOD_clean_linker_0, # of connection points: 3
#     Node 8, Type 0, BuildingBlock: BELTOD_clean_linker_0, # of connection points: 3
#     Node 9, Type 0, BuildingBlock: BELTOD_clean_linker_0, # of connection points: 3
#     Node 10, Type 0, BuildingBlock: BELTOD_clean_linker_0, # of connection points: 3
#     Node 11, Type 0, BuildingBlock: BELTOD_clean_linker_0, # of connection points: 3
#     Node 12, Type 0, BuildingBlock: BELTOD_clean_linker_0, # of connection points: 3
#     Node 13, Type 0, BuildingBlock: BELTOD_clean_linker_0, # of connection points: 3
#     Node 14, Type 0, BuildingBlock: BELTOD_clean_linker_0, # of connection points: 3
#     Node 15, Type 0, BuildingBlock: BELTOD_clean_linker_0, # of connection points: 3
#     Node 16, Type 0, BuildingBlock: BELTOD_clean_linker_0, # of connection points: 3
#     Node 17, Type 0, BuildingBlock: BELTOD_clean_linker_0, # of connection points: 3
#     Node 18, Type 1, BuildingBlock: KUMBUR_clean_sbu_0, # of connection points: 6
#     Node 19, Type 1, BuildingBlock: KUMBUR_clean_sbu_0, # of connection points: 6
#     Node 20, Type 1, BuildingBlock: KUMBUR_clean_sbu_0, # of connection points: 6
#     Node 21, Type 1, BuildingBlock: KUMBUR_clean_sbu_0, # of connection points: 6
#     Node 22, Type 1, BuildingBlock: KUMBUR_clean_sbu_0, # of connection points: 6
#     Node 23, Type 1, BuildingBlock: KUMBUR_clean_sbu_0, # of connection points: 6
#     Node 24, Type 1, BuildingBlock: KUMBUR_clean_sbu_0, # of connection points: 6
#     Node 25, Type 1, BuildingBlock: KUMBUR_clean_sbu_0, # of connection points: 6
#     Node 26, Type 1, BuildingBlock: KUMBUR_clean_sbu_0, # of connection points: 6
#     Edge 27, Type (0, 1), BuildingBlock: AJUNOK_clean_linker_0, # of connection points: 2
#     Edge 28, Type (0, 1), BuildingBlock: AJUNOK_clean_linker_0, # of connection points: 2
#     Edge 29, Type (0, 1), BuildingBlock: AJUNOK_clean_linker_0, # of connection points: 2
#     Edge 30, Type (0, 1), BuildingBlock: AJUNOK_clean_linker_0, # of connection points: 2
#     Edge 31, Type (0, 1), BuildingBlock: AJUNOK_clean_linker_0, # of connection points: 2
#     Edge 32, Type (0, 1), BuildingBlock: AJUNOK_clean_linker_0, # of connection points: 2
#     Edge 33, Type (0, 1), BuildingBlock: AJUNOK_clean_linker_0, # of connection points: 2
#     Edge 34, Type (0, 1), BuildingBlock: AJUNOK_clean_linker_0, # of connection points: 2
#     Edge 35, Type (0, 1), BuildingBlock: AJUNOK_clean_linker_0, # of connection points: 2
#     Edge 36, Type (0, 1), BuildingBlock: AJUNOK_clean_linker_0, # of connection points: 2
#     Edge 37, Type (0, 1), BuildingBlock: AJUNOK_clean_linker_0, # of connection points: 2
#     Edge 38, Type (0, 1), BuildingBlock: AJUNOK_clean_linker_0, # of connection points: 2
#     Edge 39, Type (0, 1), BuildingBlock: AJUNOK_clean_linker_0, # of connection points: 2
#     Edge 40, Type (0, 1), BuildingBlock: AJUNOK_clean_linker_0, # of connection points: 2
#     Edge 41, Type (0, 1), BuildingBlock: AJUNOK_clean_linker_0, # of connection points: 2
#     Edge 42, Type (0, 1), BuildingBlock: AJUNOK_clean_linker_0, # of connection points: 2
#     Edge 43, Type (0, 1), BuildingBlock: AJUNOK_clean_linker_0, # of connection points: 2
#     Edge 44, Type (0, 1), BuildingBlock: AJUNOK_clean_linker_0, # of connection points: 2
#     Edge 45, Type (0, 1), BuildingBlock: AJUNOK_clean_linker_0, # of connection points: 2
#     Edge 46, Type (0, 1), BuildingBlock: AJUNOK_clean_linker_0, # of connection points: 2
#     Edge 47, Type (0, 1), BuildingBlock: AJUNOK_clean_linker_0, # of connection points: 2
#     Edge 48, Type (0, 1), BuildingBlock: AJUNOK_clean_linker_0, # of connection points: 2
#     Edge 49, Type (0, 1), BuildingBlock: AJUNOK_clean_linker_0, # of connection points: 2
#     Edge 50, Type (0, 1), BuildingBlock: AJUNOK_clean_linker_0, # of connection points: 2
#     Edge 51, Type (0, 1), BuildingBlock: AJUNOK_clean_linker_0, # of connection points: 2
#     Edge 52, Type (0, 1), BuildingBlock: AJUNOK_clean_linker_0, # of connection points: 2
#     Edge 53, Type (0, 1), BuildingBlock: AJUNOK_clean_linker_0, # of connection points: 2
#     Edge 54, Type (0, 1), BuildingBlock: AJUNOK_clean_linker_0, # of connection points: 2
#     Edge 55, Type (0, 1), BuildingBlock: AJUNOK_clean_linker_0, # of connection points: 2
#     Edge 56, Type (0, 1), BuildingBlock: AJUNOK_clean_linker_0, # of connection points: 2
#     Edge 57, Type (0, 1), BuildingBlock: AJUNOK_clean_linker_0, # of connection points: 2
#     Edge 58, Type (0, 1), BuildingBlock: AJUNOK_clean_linker_0, # of connection points: 2
#     Edge 59, Type (0, 1), BuildingBlock: AJUNOK_clean_linker_0, # of connection points: 2
#     Edge 60, Type (0, 1), BuildingBlock: AJUNOK_clean_linker_0, # of connection points: 2
#     Edge 61, Type (0, 1), BuildingBlock: AJUNOK_clean_linker_0, # of connection points: 2
#     Edge 62, Type (0, 1), BuildingBlock: AJUNOK_clean_linker_0, # of connection points: 2
#     Edge 63, Type (0, 1), BuildingBlock: AJUNOK_clean_linker_0, # of connection points: 2
#     Edge 64, Type (0, 1), BuildingBlock: AJUNOK_clean_linker_0, # of connection points: 2
#     Edge 65, Type (0, 1), BuildingBlock: AJUNOK_clean_linker_0, # of connection points: 2
#     Edge 66, Type (0, 1), BuildingBlock: AJUNOK_clean_linker_0, # of connection points: 2
#     Edge 67, Type (0, 1), BuildingBlock: AJUNOK_clean_linker_0, # of connection points: 2
#     Edge 68, Type (0, 1), BuildingBlock: AJUNOK_clean_linker_0, # of connection points: 2
#     Edge 69, Type (0, 1), BuildingBlock: AJUNOK_clean_linker_0, # of connection points: 2
#     Edge 70, Type (0, 1), BuildingBlock: AJUNOK_clean_linker_0, # of connection points: 2
#     Edge 71, Type (0, 1), BuildingBlock: AJUNOK_clean_linker_0, # of connection points: 2
#     Edge 72, Type (0, 1), BuildingBlock: AJUNOK_clean_linker_0, # of connection points: 2
#     Edge 73, Type (0, 1), BuildingBlock: AJUNOK_clean_linker_0, # of connection points: 2
#     Edge 74, Type (0, 1), BuildingBlock: AJUNOK_clean_linker_0, # of connection points: 2
#     Edge 75, Type (0, 1), BuildingBlock: AJUNOK_clean_linker_0, # of connection points: 2
#     Edge 76, Type (0, 1), BuildingBlock: AJUNOK_clean_linker_0, # of connection points: 2
#     Edge 77, Type (0, 1), BuildingBlock: AJUNOK_clean_linker_0, # of connection points: 2
#     Edge 78, Type (0, 1), BuildingBlock: AJUNOK_clean_linker_0, # of connection points: 2
#     Edge 79, Type (0, 1), BuildingBlock: AJUNOK_clean_linker_0, # of connection points: 2
#     Edge 80, Type (0, 1), BuildingBlock: AJUNOK_clean_linker_0, # of connection points: 2
# Relax obj value: 0.007
# Max RMSD: 0.089
# Mean RMSD: 0.079
data_MOF--net-eea--node1-KUMBUR_clean_sbu_0--node2-BELTOD_clean_linker_0--edge1-AJUNOK_clean_linker_0
_symmetry_space_group_name_H-M    P1
_symmetry_Int_Tables_number       1
_symmetry_cell_setting            triclinic
loop_
_symmetry_equiv_pos_as_xyz
'x, y, z'
_cell_length_a     44.419894
_cell_length_b     45.463304
_cell_length_c     65.492302
_cell_angle_alpha  90.381857
_cell_angle_beta   90.007707
_cell_angle_gamma 120.05805
loop_
_atom_site_label
_atom_site_type_symbol
_atom_site_fract_x
_atom_site_fract_y
_atom_site_fract_z
_atom_type_partial_charge
P0 P 0.29812 0.14254 0.41039 0.0
H1 H 0.31233 0.10886 0.37684 0.0
H2 H 0.28359 0.04986 0.36492 0.0
H3 H 0.20444 0.02242 0.41087 0.0
H4 H 0.23352 0.08166 0.42293 0.0
H5 H 0.32631 0.20695 0.38874 0.0
H6 H 0.29982 0.23874 0.37547 0.0
H7 H 0.19945 0.16073 0.3969 0.0
H8 H 0.22637 0.12938 0.41074 0.0
H9 H 0.30173 0.09746 0.44059 0.0
H10 H 0.30189 0.19242 0.44038 0.0
O11 O 0.33916 0.16088 0.40225 0.0
H12 H 0.31382 0.10378 0.47721 0.0
H13 H 0.31399 0.19882 0.47715 0.0
C14 C 0.27532 0.09948 0.40095 0.0
C15 C 0.28875 0.09024 0.38434 0.0
C16 C 0.27232 0.05658 0.37751 0.0
C17 C 0.24187 0.03172 0.38699 0.0
C18 C 0.2277 0.04123 0.40318 0.0
C19 C 0.24435 0.07496 0.41011 0.0
C20 C 0.27819 0.16551 0.40043 0.0
C21 C 0.29856 0.19648 0.39047 0.0
C22 C 0.28334 0.21452 0.38271 0.0
C23 C 0.24742 0.20181 0.38471 0.0
C24 C 0.22715 0.17097 0.39499 0.0
C25 C 0.24246 0.15299 0.40282 0.0
C26 C 0.29996 0.144 0.43784 0.0
C27 C 0.30319 0.11911 0.44854 0.0
C28 C 0.31007 0.12271 0.46949 0.0
C29 C 0.31437 0.15157 0.48006 0.0
C30 C 0.31052 0.17621 0.46938 0.0
C31 C 0.30343 0.17247 0.44841 0.0
P32 P 0.91466 0.10862 0.43947 0.0
H33 H 0.88859 0.03584 0.44194 0.0
H34 H 0.84285 0.98682 0.4237 0.0
H35 H 0.81561 0.05254 0.3912 0.0
H36 H 0.8618 0.10202 0.40969 0.0
H37 H 0.95746 0.18219 0.44505 0.0
H38 H 1.00276 0.22607 0.42401 0.0
H39 H 0.97658 0.15341 0.37484 0.0
H40 H 0.93159 0.10927 0.3962 0.0
H41 H 0.91766 0.10091 0.48355 0.0
H42 H 0.876 0.14541 0.44242 0.0
O43 O 0.94158 0.09617 0.44855 0.0
H44 H 0.89641 0.11882 0.51271 0.0
H45 H 0.85479 0.1638 0.47177 0.0
C46 C 0.87912 0.07266 0.42681 0.0
C47 C 0.87292 0.03987 0.43089 0.0
C48 C 0.84681 0.01184 0.42042 0.0
C49 C 0.82623 0.01602 0.40574 0.0
C50 C 0.83134 0.04872 0.40234 0.0
C51 C 0.85769 0.07691 0.41282 0.0
C52 C 0.94043 0.14261 0.42205 0.0
C53 C 0.96046 0.17594 0.42948 0.0
C54 C 0.98638 0.2011 0.41737 0.0
C55 C 0.99296 0.19334 0.39762 0.0
C56 C 0.97194 0.1602 0.38993 0.0
C57 C 0.94602 0.13503 0.40209 0.0
C58 C 0.89868 0.1221 0.4608 0.0
C59 C 0.90406 0.11468 0.48076 0.0
C60 C 0.89195 0.125 0.49747 0.0
C61 C 0.87388 0.14266 0.49455 0.0
C62 C 0.86825 0.14985 0.47449 0.0
C63 C 0.88049 0.13954 0.45773 0.0
P64 P 0.87598 0.74418 0.41593 0.0
H65 H 0.84265 0.7352 0.37629 0.0
H66 H 0.8016 0.75169 0.36318 0.0
H67 H 0.81719 0.81221 0.41736 0.0
H68 H 0.85828 0.7955 0.43056 0.0
H69 H 0.92653 0.72315 0.42373 0.0
H70 H 0.98286 0.73855 0.40917 0.0
H71 H 0.97768 0.81328 0.3713 0.0
H72 H 0.92146 0.7988 0.3869 0.0
H73 H 0.81608 0.71945 0.44266 0.0
H74 H 0.92692 0.76353 0.45022 0.0
O75 O 0.8544 0.70362 0.40831 0.0
H76 H 0.80779 0.70533 0.47899 0.0
H77 H 0.91849 0.7482 0.48637 0.0
C78 C 0.85304 0.76358 0.40457 0.0
C79 C 0.8378 0.75254 0.38522 0.0
C80 C 0.81428 0.76187 0.37774 0.0
C81 C 0.80583 0.78274 0.38942 0.0
C82 C 0.8232 0.796 0.40809 0.0
C83 C 0.84663 0.78642 0.41565 0.0
C84 C 0.91993 0.76017 0.40674 0.0
C85 C 0.93777 0.74345 0.41266 0.0
C86 C 0.96978 0.75188 0.40402 0.0
C87 C 0.9844 0.77653 0.38864 0.0
C88 C 0.96704 0.79407 0.38304 0.0
C89 C 0.93493 0.78584 0.39198 0.0
C90 C 0.87206 0.7423 0.44353 0.0
C91 C 0.83873 0.72683 0.45219 0.0
C92 C 0.83399 0.71875 0.47298 0.0
C93 C 0.8625 0.72559 0.48549 0.0
C94 C 0.89606 0.74254 0.47704 0.0
C95 C 0.90084 0.75116 0.45629 0.0
P96 P 0.13477 0.26823 0.61336 0.0
H97 H 0.10913 0.25298 0.65499 0.0
H98 H 0.05167 0.23295 0.67003 0.0
H99 H 0.00692 0.21633 0.60961 0.0
H100 H 0.06424 0.2356 0.59467 0.0
H101 H 0.18794 0.29324 0.64539 0.0
H102 H 0.22674 0.27449 0.65833 0.0
H103 H 0.18026 0.18835 0.61706 0.0
H104 H 0.13941 0.20611 0.60518 0.0
H105 H 0.11013 0.30259 0.58667 0.0
H106 H 0.16554 0.24794 0.57909 0.0
O107 O 0.15149 0.30775 0.62251 0.0
H108 H 0.12113 0.31998 0.551 0.0
H109 H 0.17462 0.26334 0.54319 0.0
C110 C 0.09113 0.24571 0.62369 0.0
C111 C 0.0868 0.2441 0.64496 0.0
C112 C 0.05397 0.23292 0.65356 0.0
C113 C 0.02465 0.22301 0.64105 0.0
C114 C 0.0288 0.22322 0.61971 0.0
C115 C 0.06172 0.23446 0.61112 0.0
C116 C 0.16151 0.25187 0.62365 0.0
C117 C 0.18576 0.27017 0.63912 0.0
C118 C 0.20814 0.25941 0.64655 0.0
C119 C 0.20718 0.23012 0.63862 0.0
C120 C 0.18169 0.21084 0.62375 0.0
C121 C 0.15865 0.22131 0.61664 0.0
C122 C 0.13673 0.27372 0.58579 0.0
C123 C 0.1238 0.29345 0.57722 0.0
C124 C 0.13006 0.30335 0.55673 0.0
C125 C 0.14943 0.29372 0.54418 0.0
C126 C 0.16056 0.2722 0.55248 0.0
C127 C 0.15475 0.26275 0.57311 0.0
P128 P 0.80666 0.90939 0.59594 0.0
H129 H 0.83106 0.93534 0.63697 0.0
H130 H 0.82833 0.97901 0.65748 0.0
H131 H 0.75885 0.98334 0.61299 0.0
H132 H 0.76373 0.94168 0.59194 0.0
H133 H 0.86192 0.89337 0.60254 0.0
H134 H 0.86374 0.84743 0.62047 0.0
H135 H 0.75541 0.80436 0.63637 0.0
H136 H 0.75407 0.85123 0.61892 0.0
H137 H 0.81689 0.90491 0.5523 0.0
H138 H 0.73023 0.87428 0.59319 0.0
O139 O 0.84612 0.93551 0.58655 0.0
H140 H 0.77699 0.8839 0.52323 0.0
H141 H 0.69001 0.85303 0.56397 0.0
C142 C 0.797 0.9346 0.61313 0.0
C143 C 0.81447 0.94502 0.63193 0.0
C144 C 0.81268 0.96985 0.64374 0.0
C145 C 0.79311 0.9845 0.63698 0.0
C146 C 0.77421 0.97263 0.61861 0.0
C147 C 0.77663 0.94839 0.60664 0.0
C148 C 0.80783 0.87566 0.6094 0.0
C149 C 0.83858 0.87421 0.60997 0.0
C150 C 0.83958 0.84786 0.62015 0.0
C151 C 0.80979 0.82243 0.62992 0.0
C152 C 0.77895 0.82395 0.62931 0.0
C153 C 0.77805 0.8505 0.61919 0.0
C154 C 0.77657 0.8918 0.57487 0.0
C155 C 0.78925 0.89353 0.55506 0.0
C156 C 0.76642 0.88125 0.53845 0.0
C157 C 0.73045 0.86679 0.54139 0.0
C158 C 0.71767 0.86421 0.56132 0.0
C159 C 0.74057 0.87628 0.57798 0.0
P160 P 0.13311 0.86494 0.61285 0.0
H161 H 0.15678 0.89472 0.65324 0.0
H162 H 0.19005 0.95373 0.66546 0.0
H163 H 0.18474 0.98902 0.60533 0.0
H164 H 0.1504 0.93001 0.59328 0.0
H165 H 0.08443 0.79276 0.60774 0.0
H166 H 0.02749 0.75443 0.62194 0.0
H167 H 0.03055 0.8384 0.65516 0.0
H168 H 0.08604 0.8772 0.63913 0.0
H169 H 0.1935 0.90203 0.587 0.0
H170 H 0.08601 0.82512 0.57834 0.0
O171 O 0.15644 0.84928 0.62317 0.0
H172 H 0.2051 0.89665 0.55122 0.0
H173 H 0.09823 0.81682 0.54329 0.0
C174 C 0.15188 0.90801 0.62225 0.0
C175 C 0.16218 0.91513 0.64278 0.0
C176 C 0.18103 0.94874 0.64977 0.0
C177 C 0.19013 0.97567 0.63624 0.0
C178 C 0.17815 0.96853 0.61596 0.0
C179 C 0.15872 0.93486 0.60907 0.0
C180 C 0.08914 0.83807 0.62176 0.0
C181 C 0.07228 0.80318 0.61745 0.0
C182 C 0.03992 0.78114 0.62596 0.0
C183 C 0.02416 0.79317 0.63976 0.0
C184 C 0.04126 0.82823 0.6442 0.0
C185 C 0.0733 0.85051 0.63512 0.0
C186 C 0.13891 0.86401 0.58552 0.0
C187 C 0.17226 0.88414 0.57737 0.0
C188 C 0.17896 0.88072 0.55691 0.0
C189 C 0.1527 0.85619 0.5442 0.0
C190 C 0.11901 0.83658 0.55231 0.0
C191 C 0.11209 0.84084 0.57266 0.0
P192 P 0.96583 0.48799 0.75305 0.0
H193 H 0.99521 0.44974 0.7339 0.0
H194 H 0.96932 0.39145 0.7211 0.0
H195 H 0.8675 0.37325 0.73815 0.0
H196 H 0.89365 0.43123 0.75155 0.0
H197 H 0.97934 0.53548 0.71996 0.0
H198 H 0.94825 0.56297 0.70703 0.0
H199 H 0.86724 0.50951 0.7515 0.0
H200 H 0.89957 0.48328 0.76511 0.0
H201 H 0.98481 0.45035 0.78078 0.0
H202 H 0.95821 0.52927 0.78547 0.0
O203 O 0.00635 0.50992 0.74413 0.0
H204 H 1.00059 0.45771 0.81685 0.0
H205 H 0.97192 0.53534 0.82192 0.0
C206 C 0.94632 0.44506 0.74342 0.0
C207 C 0.9673 0.43329 0.73486 0.0
C208 C 0.95249 0.39998 0.72749 0.0
C209 C 0.91641 0.37774 0.72867 0.0
C210 C 0.89545 0.38961 0.73732 0.0
C211 C 0.91035 0.42291 0.74479 0.0
C212 C 0.94209 0.50777 0.74374 0.0
C213 C 0.95507 0.52986 0.7271 0.0
C214 C 0.93707 0.54534 0.71957 0.0
C215 C 0.90542 0.53869 0.72835 0.0
C216 C 0.89194 0.51577 0.7447 0.0
C217 C 0.91023 0.50053 0.75238 0.0
C218 C 0.96966 0.48874 0.78046 0.0
C219 C 0.98126 0.4685 0.78972 0.0
C220 C 0.99026 0.47274 0.8104 0.0
C221 C 0.98792 0.4974 0.82228 0.0
C222 C 0.97482 0.51666 0.81313 0.0
C223 C 0.96634 0.51277 0.79232 0.0
P224 P 0.58446 0.44315 0.76902 0.0
H225 H 0.56808 0.37347 0.75998 0.0
H226 H 0.521 0.32687 0.7408 0.0
H227 H 0.47882 0.39151 0.72597 0.0
H228 H 0.5263 0.43838 0.74529 0.0
H229 H 0.62254 0.44513 0.73265 0.0
H230 H 0.66447 0.49135 0.71122 0.0
H231 H 0.64971 0.56291 0.74752 0.0
H232 H 0.60531 0.51643 0.76716 0.0
H233 H 0.51495 0.40992 0.7877 0.0
H234 H 0.61499 0.49865 0.79923 0.0
O235 O 0.60972 0.42938 0.77897 0.0
H236 H 0.49172 0.42248 0.81792 0.0
H237 H 0.59096 0.51315 0.82863 0.0
C238 C 0.55052 0.4093 0.75413 0.0
C239 C 0.54884 0.37776 0.75259 0.0
C240 C 0.52196 0.35115 0.74159 0.0
C241 C 0.49616 0.35554 0.73206 0.0
C242 C 0.49813 0.38733 0.73342 0.0
C243 C 0.52526 0.4141 0.74431 0.0
C244 C 0.61133 0.47729 0.75187 0.0
C245 C 0.62775 0.47073 0.73563 0.0
C246 C 0.65194 0.49724 0.72348 0.0
C247 C 0.66073 0.53105 0.72757 0.0
C248 C 0.6432 0.53728 0.74347 0.0
C249 C 0.61825 0.51058 0.7552 0.0
C250 C 0.5663 0.45448 0.79035 0.0
C251 C 0.53166 0.43294 0.7962 0.0
C252 C 0.51823 0.44027 0.81355 0.0
C253 C 0.539 0.4696 0.82536 0.0
C254 C 0.57402 0.4906 0.81977 0.0
C255 C 0.58766 0.48269 0.80271 0.0
P256 P 0.53846 0.07696 0.74805 0.0
H257 H 0.49508 0.05852 0.71152 0.0
H258 H 0.45657 0.07723 0.69756 0.0
H259 H 0.48828 0.1528 0.74548 0.0
H260 H 0.52784 0.13454 0.75907 0.0
H261 H 0.56951 0.06593 0.71176 0.0
H262 H 0.62946 0.09041 0.69985 0.0
H263 H 0.66496 0.15985 0.75119 0.0
H264 H 0.60457 0.13517 0.76308 0.0
H265 H 0.4893 0.07761 0.77823 0.0
H266 H 0.57916 0.06489 0.77848 0.0
O267 O 0.52016 0.0367 0.73997 0.0
H268 H 0.47868 0.06101 0.81395 0.0
H269 H 0.56738 0.04617 0.81397 0.0
C270 C 0.5136 0.09443 0.73674 0.0
C271 C 0.49406 0.07933 0.71898 0.0
C272 C 0.47196 0.09003 0.71099 0.0
C273 C 0.46903 0.1163 0.72047 0.0
C274 C 0.4901 0.1327 0.73766 0.0
C275 C 0.5125 0.12208 0.74558 0.0
C276 C 0.58262 0.09824 0.73855 0.0
C277 C 0.5901 0.08656 0.72043 0.0
C278 C 0.62439 0.10055 0.71361 0.0
C279 C 0.65194 0.12695 0.7246 0.0
C280 C 0.64424 0.13973 0.74229 0.0
C281 C 0.6098 0.12552 0.74918 0.0
C282 C 0.53573 0.07359 0.77566 0.0
C283 C 0.50744 0.07227 0.78605 0.0
C284 C 0.5009 0.06198 0.80648 0.0
C285 C 0.52166 0.05142 0.81677 0.0
C286 C 0.5509 0.05423 0.8066 0.0
C287 C 0.55774 0.06506 0.78626 0.0
P288 P 0.80253 0.59601 0.94999 0.0
H289 H 0.7784 0.61194 0.98754 0.0
H290 H 0.72061 0.59381 1.00137 0.0
H291 H 0.67403 0.52398 0.95075 0.0
H292 H 0.73223 0.54206 0.93702 0.0
H293 H 0.84795 0.61009 0.9853 0.0
H294 H 0.88428 0.58701 0.99667 0.0
H295 H 0.84275 0.51225 0.94812 0.0
H296 H 0.80543 0.53491 0.93716 0.0
H297 H 0.76018 0.60758 0.92024 0.0
H298 H 0.84959 0.59415 0.91911 0.0
O299 O 0.82532 0.63651 0.95764 0.0
H300 H 0.7693 0.62362 0.88428 0.0
H301 H 0.85791 0.60868 0.88303 0.0
C302 C 0.75962 0.57891 0.96099 0.0
C303 C 0.75581 0.59252 0.97946 0.0
C304 C 0.72276 0.58217 0.98737 0.0
C305 C 0.69274 0.5576 0.97713 0.0
C306 C 0.69666 0.54274 0.95911 0.0
C307 C 0.72988 0.55321 0.95116 0.0
C308 C 0.82482 0.57496 0.95994 0.0
C309 C 0.84641 0.58858 0.97714 0.0
C310 C 0.86739 0.57552 0.98356 0.0
C311 C 0.86729 0.54855 0.97288 0.0
C312 C 0.84373 0.53331 0.95653 0.0
C313 C 0.82248 0.54629 0.9502 0.0
C314 C 0.8033 0.59826 0.92235 0.0
C315 C 0.78077 0.60647 0.91207 0.0
C316 C 0.78602 0.61566 0.89141 0.0
C317 C 0.81413 0.61707 0.88062 0.0
C318 C 0.83595 0.60776 0.89083 0.0
C319 C 0.83085 0.5989 0.91148 0.0
P320 P 0.48367 0.23901 0.92211 0.0
H321 H 0.53567 0.30931 0.93194 0.0
H322 H 0.5337 0.35333 0.95249 0.0
H323 H 0.42595 0.28389 0.96656 0.0
H324 H 0.42812 0.23949 0.9462 0.0
H325 H 0.45065 0.1661 0.91321 0.0
H326 H 0.44855 0.11911 0.93224 0.0
H327 H 0.5002 0.18667 0.98321 0.0
H328 H 0.50133 0.23351 0.96431 0.0
H329 H 0.49442 0.25191 0.87832 0.0
H330 H 0.40733 0.1996 0.91908 0.0
O331 O 0.52387 0.2548 0.91294 0.0
H332 H 0.45449 0.23515 0.84926 0.0
H333 H 0.36718 0.18351 0.88994 0.0
C334 C 0.48189 0.27121 0.93731 0.0
C335 C 0.51157 0.30341 0.9394 0.0
C336 C 0.5105 0.32854 0.9512 0.0
C337 C 0.47962 0.32197 0.96095 0.0
C338 C 0.44992 0.28964 0.95895 0.0
C339 C 0.45114 0.26435 0.9473 0.0
C340 C 0.47554 0.20318 0.93749 0.0
C341 C 0.4606 0.17066 0.92869 0.0
C342 C 0.45979 0.1439 0.93949 0.0
C343 C 0.47469 0.14941 0.95908 0.0
C344 C 0.48839 0.18169 0.96818 0.0
C345 C 0.48901 0.20843 0.9574 0.0
C346 C 0.45387 0.22696 0.90089 0.0
C347 C 0.46674 0.23687 0.88106 0.0
C348 C 0.44395 0.22724 0.86445 0.0
C349 C 0.40788 0.20788 0.86743 0.0
C350 C 0.39493 0.1985 0.88732 0.0
C351 C 0.41781 0.20778 0.90394 0.0
P352 P 0.80323 0.18656 0.94513 0.0
H353 H 0.85323 0.21439 0.9785 0.0
H354 H 0.88737 0.27106 0.99322 0.0
H355 H 0.83893 0.30846 0.95169 0.0
H356 H 0.80335 0.25073 0.93746 0.0
H357 H 0.78068 0.15486 0.98463 0.0
H358 H 0.72344 0.12011 1.00007 0.0
H359 H 0.67508 0.13473 0.94693 0.0
H360 H 0.73276 0.16973 0.93145 0.0
H361 H 0.84005 0.23817 0.91307 0.0
H362 H 0.768 0.13046 0.91635 0.0
O363 O 0.82396 0.16604 0.95202 0.0
H364 H 0.84837 0.23262 0.87682 0.0
H365 H 0.77836 0.12427 0.88037 0.0
C366 C 0.82687 0.22864 0.95622 0.0
C367 C 0.84993 0.23469 0.97242 0.0
C368 C 0.86956 0.26718 0.98083 0.0
C369 C 0.86673 0.29448 0.97314 0.0
C370 C 0.842 0.28799 0.95774 0.0
C371 C 0.82194 0.25517 0.94947 0.0
C372 C 0.76084 0.1641 0.95669 0.0
C373 C 0.75781 0.15083 0.97633 0.0
C374 C 0.72515 0.13112 0.98519 0.0
C375 C 0.69489 0.12472 0.97469 0.0
C376 C 0.69805 0.13957 0.95543 0.0
C377 C 0.7309 0.15925 0.9465 0.0
C378 C 0.80278 0.18482 0.9175 0.0
C379 C 0.82527 0.21341 0.90597 0.0
C380 C 0.83067 0.21005 0.88521 0.0
C381 C 0.81489 0.17782 0.87572 0.0
C382 C 0.79094 0.14951 0.88707 0.0
C383 C 0.78496 0.15302 0.90771 0.0
P384 P 0.62457 0.80911 0.08377 0.0
H385 H 0.64295 0.77487 0.05254 0.0
H386 H 0.61475 0.71619 0.04035 0.0
H387 H 0.52881 0.69009 0.08125 0.0
H388 H 0.55777 0.74903 0.09383 0.0
H389 H 0.64541 0.86045 0.05215 0.0
H390 H 0.61852 0.89158 0.03837 0.0
H391 H 0.53082 0.8371 0.07849 0.0
H392 H 0.55803 0.8058 0.09238 0.0
H393 H 0.62622 0.76303 0.11402 0.0
H394 H 0.63009 0.85975 0.11369 0.0
O395 O 0.66578 0.82839 0.07584 0.0
H396 H 0.64019 0.76996 0.15041 0.0
H397 H 0.64382 0.86665 0.15027 0.0
C398 C 0.60267 0.76612 0.0743 0.0
C399 C 0.6181 0.75658 0.05896 0.0
C400 C 0.60187 0.72306 0.05191 0.0
C401 C 0.56977 0.6985 0.06001 0.0
C402 C 0.55387 0.70834 0.07504 0.0
C403 C 0.57023 0.74198 0.08212 0.0
C404 C 0.60391 0.83117 0.07348 0.0
C405 C 0.62041 0.8551 0.05803 0.0
C406 C 0.60501 0.87284 0.05011 0.0
C407 C 0.57261 0.86666 0.05735 0.0
C408 C 0.55563 0.84202 0.07249 0.0
C409 C 0.57122 0.82435 0.08051 0.0
C410 C 0.62639 0.81054 0.11121 0.0
C411 C 0.62893 0.78524 0.12189 0.0
C412 C 0.637 0.78925 0.1427 0.0
C413 C 0.64334 0.81895 0.15309 0.0
C414 C 0.63941 0.84367 0.14256 0.0
C415 C 0.63123 0.83958 0.12172 0.0
P416 P 0.24533 0.77166 0.09806 0.0
H417 H 0.24213 0.71845 0.07178 0.0
H418 H 0.19527 0.67277 0.05194 0.0
H419 H 0.12736 0.71183 0.06758 0.0
H420 H 0.17453 0.75761 0.08758 0.0
H421 H 0.32043 0.81243 0.103 0.0
H422 H 0.36615 0.85857 0.08328 0.0
H423 H 0.28893 0.85457 0.04153 0.0
H424 H 0.24293 0.80824 0.06155 0.0
H425 H 0.188 0.73352 0.12591 0.0
H426 H 0.26504 0.83863 0.11638 0.0
O427 O 0.26415 0.75185 0.109 0.0
H428 H 0.16691 0.74955 0.1561 0.0
H429 H 0.24383 0.85486 0.14654 0.0
C430 C 0.2116 0.74097 0.08149 0.0
C431 C 0.21729 0.71743 0.07078 0.0
C432 C 0.19055 0.69147 0.05931 0.0
C433 C 0.15765 0.68877 0.05816 0.0
C434 C 0.15239 0.7132 0.0683 0.0
C435 C 0.1793 0.73932 0.07973 0.0
C436 C 0.27833 0.80659 0.08358 0.0
C437 C 0.31325 0.82134 0.08958 0.0
C438 C 0.3394 0.84762 0.07824 0.0
C439 C 0.33116 0.86 0.06077 0.0
C440 C 0.29603 0.84561 0.05497 0.0
C441 C 0.26978 0.81912 0.06634 0.0
C442 C 0.22767 0.78489 0.11866 0.0
C443 C 0.2 0.76013 0.13011 0.0
C444 C 0.18802 0.7693 0.1474 0.0
C445 C 0.20387 0.80342 0.15379 0.0
C446 C 0.23143 0.82829 0.14216 0.0
C447 C 0.24333 0.81908 0.12479 0.0
P448 P 0.20705 0.4087 0.08335 0.0
H449 H 0.13213 0.37707 0.08032 0.0
H450 H 0.09314 0.395 0.06619 0.0
H451 H 0.18148 0.49223 0.05075 0.0
H452 H 0.22069 0.47415 0.06538 0.0
H453 H 0.23104 0.40318 0.04304 0.0
H454 H 0.28894 0.42127 0.02926 0.0
H455 H 0.33566 0.47791 0.08461 0.0
H456 H 0.27745 0.45978 0.09843 0.0
H457 H 0.16532 0.41688 0.11574 0.0
H458 H 0.24773 0.39315 0.11173 0.0
O459 O 0.18848 0.36821 0.0757 0.0
H460 H 0.1569 0.40061 0.15157 0.0
H461 H 0.2405 0.37831 0.1479 0.0
C462 C 0.17933 0.42413 0.07377 0.0
C463 C 0.14321 0.40231 0.07396 0.0
C464 C 0.12091 0.41254 0.06578 0.0
C465 C 0.13416 0.44496 0.05722 0.0
C466 C 0.17045 0.46719 0.05738 0.0
C467 C 0.19288 0.45685 0.06565 0.0
C468 C 0.24988 0.42942 0.07195 0.0
C469 C 0.2537 0.42005 0.05209 0.0
C470 C 0.28675 0.43036 0.04422 0.0
C471 C 0.31666 0.45053 0.05601 0.0
C472 C 0.31297 0.46229 0.07524 0.0
C473 C 0.27974 0.45181 0.08317 0.0
C474 C 0.20759 0.40682 0.11097 0.0
C475 C 0.18254 0.40941 0.12269 0.0
C476 C 0.17785 0.40024 0.14334 0.0
C477 C 0.19818 0.38832 0.15274 0.0
C478 C 0.22434 0.3873 0.14117 0.0
C479 C 0.22878 0.39618 0.1205 0.0
P480 P 0.4687 0.92116 0.27982 0.0
H481 H 0.42065 0.94594 0.27404 0.0
H482 H 0.36383 0.93006 0.28788 0.0
H483 H 0.36415 0.84908 0.32182 0.0
H484 H 0.42063 0.8638 0.30654 0.0
H485 H 0.50115 0.93155 0.31982 0.0
H486 H 0.54119 0.91489 0.33428 0.0
H487 H 0.52576 0.85144 0.28156 0.0
H488 H 0.48545 0.86816 0.26705 0.0
H489 H 0.42066 0.91173 0.24545 0.0
H490 H 0.52696 0.9356 0.2531 0.0
O491 O 0.49059 0.96195 0.28695 0.0
H492 H 0.43222 0.92948 0.2101 0.0
H493 H 0.53784 0.95022 0.21705 0.0
C494 C 0.42479 0.90579 0.28892 0.0
C495 C 0.40827 0.92424 0.28408 0.0
C496 C 0.37597 0.91554 0.2924 0.0
C497 C 0.3598 0.88895 0.30653 0.0
C498 C 0.37597 0.86984 0.31109 0.0
C499 C 0.40826 0.87823 0.30235 0.0
C500 C 0.49096 0.90178 0.29212 0.0
C501 C 0.50582 0.91356 0.31149 0.0
C502 C 0.52875 0.9041 0.31974 0.0
C503 C 0.53705 0.8824 0.30885 0.0
C504 C 0.51991 0.86833 0.29022 0.0
C505 C 0.49697 0.87795 0.2819 0.0
C506 C 0.47293 0.92233 0.2522 0.0
C507 C 0.44623 0.91969 0.23946 0.0
C508 C 0.45278 0.92942 0.21893 0.0
C509 C 0.48605 0.94132 0.21048 0.0
C510 C 0.51202 0.94162 0.22298 0.0
C511 C 0.50566 0.93273 0.24362 0.0
P512 P 0.13149 0.55674 0.25898 0.0
H513 H 0.15953 0.58746 0.29869 0.0
H514 H 0.1619 0.63545 0.3171 0.0
H515 H 0.10459 0.64867 0.26817 0.0
H516 H 0.10073 0.59959 0.25037 0.0
H517 H 0.14834 0.50391 0.25192 0.0
H518 H 0.14914 0.46143 0.27412 0.0
H519 H 0.10119 0.48909 0.32218 0.0
H520 H 0.09889 0.5306 0.29944 0.0
H521 H 0.14378 0.56373 0.21499 0.0
H522 H 0.05543 0.51868 0.25534 0.0
O523 O 0.17225 0.57485 0.25039 0.0
H524 H 0.10492 0.54668 0.18552 0.0
H525 H 0.01611 0.50115 0.22565 0.0
C526 C 0.12884 0.5891 0.27353 0.0
C527 C 0.14643 0.59994 0.29226 0.0
C528 C 0.14813 0.62765 0.30265 0.0
C529 C 0.13305 0.64563 0.29423 0.0
C530 C 0.11551 0.63474 0.2754 0.0
C531 C 0.11342 0.60669 0.26514 0.0
C532 C 0.12471 0.52118 0.27427 0.0
C533 C 0.13738 0.50042 0.26709 0.0
C534 C 0.13798 0.4763 0.27983 0.0
C535 C 0.12599 0.47254 0.30005 0.0
C536 C 0.11073 0.49153 0.30671 0.0
C537 C 0.10978 0.51551 0.29379 0.0
C538 C 0.10244 0.5424 0.23735 0.0
C539 C 0.11598 0.54994 0.21753 0.0
C540 C 0.09375 0.54011 0.20066 0.0
C541 C 0.05752 0.52277 0.2033 0.0
C542 C 0.04395 0.5149 0.2232 0.0
C543 C 0.06631 0.52467 0.24012 0.0
P544 P 0.47105 0.52368 0.28451 0.0
H545 H 0.54168 0.56419 0.30035 0.0
H546 H 0.57502 0.62226 0.31349 0.0
H547 H 0.48767 0.63687 0.30222 0.0
H548 H 0.45401 0.57816 0.28905 0.0
H549 H 0.44635 0.50769 0.32615 0.0
H550 H 0.38856 0.47195 0.34091 0.0
H551 H 0.34283 0.45532 0.28075 0.0
H552 H 0.40058 0.4916 0.26612 0.0
H553 H 0.50001 0.57678 0.25278 0.0
H554 H 0.44672 0.46734 0.25562 0.0
O555 O 0.49063 0.50293 0.29303 0.0
H556 H 0.51111 0.57418 0.21646 0.0
H557 H 0.45819 0.46468 0.21927 0.0
C558 C 0.4951 0.56664 0.29417 0.0
C559 C 0.52946 0.57965 0.30087 0.0
C560 C 0.54851 0.61284 0.3084 0.0
C561 C 0.53367 0.63378 0.30921 0.0
C562 C 0.49956 0.62109 0.3019 0.0
C563 C 0.48034 0.58763 0.29448 0.0
C564 C 0.4278 0.50197 0.29504 0.0
C565 C 0.42381 0.49673 0.31618 0.0
C566 C 0.39086 0.47614 0.32458 0.0
C567 C 0.3613 0.46036 0.31193 0.0
C568 C 0.36519 0.46712 0.29086 0.0
C569 C 0.39821 0.48774 0.28246 0.0
C570 C 0.47258 0.52219 0.25699 0.0
C571 C 0.49011 0.55214 0.24558 0.0
C572 C 0.49669 0.55067 0.2248 0.0
C573 C 0.48607 0.51925 0.21512 0.0
C574 C 0.46667 0.48924 0.22631 0.0
C575 C 0.46013 0.49074 0.24708 0.0
Tb576 Tb 0.49121 0.9745 0.98952 0.0
C577 C 0.55858 0.1013 0.04517 0.0
C578 C 0.62013 0.12133 0.04316 0.0
C579 C 0.60013 0.1616 0.04899 0.0
C580 C 0.58526 0.09475 0.04221 0.0
C581 C 0.56557 0.13465 0.04915 0.0
C582 C 0.62742 0.15495 0.04597 0.0
C583 C 0.50423 0.11163 0.05522 0.0
N584 N 0.52571 0.07448 0.04537 0.0
C585 C 0.49869 0.079 0.05124 0.0
C586 C 0.53774 0.13966 0.05385 0.0
Tb587 Tb 0.51879 0.02212 0.03742 0.0
N588 N 0.57697 0.06191 0.03979 0.0
C589 C 0.60267 0.0537 0.04025 0.0
C590 C 0.64654 0.11318 0.04204 0.0
C591 C 0.63772 0.07912 0.04101 0.0
H592 H 0.47264 0.05766 0.05231 0.0
H593 H 0.6579 0.0724 0.04067 0.0
H594 H 0.65402 0.17579 0.0465 0.0
H595 H 0.48261 0.11511 0.05933 0.0
H596 H 0.59646 0.02761 0.03928 0.0
H597 H 0.35385 0.93307 0.98701 0.0
H598 H 0.67368 0.13281 0.04264 0.0
H599 H 0.533 0.93369 0.97705 0.0
H600 H 0.4163 0.97495 0.98815 0.0
H601 H 0.51882 0.87456 0.97069 0.0
H602 H 0.60608 0.18749 0.05178 0.0
H603 H 0.33397 0.87164 0.98507 0.0
H604 H 0.34935 0.82554 0.9815 0.0
H605 H 0.54198 0.16489 0.05703 0.0
H606 H 0.39436 0.80954 0.97682 0.0
N607 N 0.43229 0.93783 0.98747 0.0
C608 C 0.40831 0.94832 0.98722 0.0
C609 C 0.36155 0.88995 0.98557 0.0
C610 C 0.38621 0.87947 0.98449 0.0
C611 C 0.37269 0.9246 0.98659 0.0
C612 C 0.42176 0.90436 0.98533 0.0
H613 H 0.45768 0.82776 0.97233 0.0
N614 N 0.48053 0.92054 0.98278 0.0
C615 C 0.4983 0.88004 0.97417 0.0
C616 C 0.44684 0.89539 0.98283 0.0
C617 C 0.50624 0.91355 0.97774 0.0
C618 C 0.46379 0.8537 0.97515 0.0
C619 C 0.43745 0.86124 0.97924 0.0
O620 O 0.51862 0.98339 0.96188 0.0
O621 O 0.53148 0.0177 1.00601 0.0
O622 O 0.51157 0.05461 0.01604 0.0
O623 O 0.47746 0.01494 0.99075 0.0
O624 O 0.54664 0.99229 0.98646 0.0
O625 O 0.47233 0.98711 0.96344 0.0
O626 O 0.49017 0.00787 0.06478 0.0
O627 O 0.47907 0.97923 0.02066 0.0
O628 O 0.49785 0.94255 0.01186 0.0
O629 O 0.53609 0.98445 0.03463 0.0
O630 O 0.4628 0.00296 0.04025 0.0
O631 O 0.5399 0.01105 0.06316 0.0
C632 C 0.5579 0.01793 0.99864 0.0
C633 C 0.48625 0.97273 0.93139 0.0
C634 C 0.48499 0.97783 0.8942 0.0
C635 C 0.49489 0.99299 0.91374 0.0
C636 C 0.46717 0.94214 0.89264 0.0
C637 C 0.46794 0.93726 0.92941 0.0
C638 C 0.45863 0.9221 0.91011 0.0
C639 C 0.49129 0.04532 0.99967 0.0
C640 C 0.49686 0.98897 0.95169 0.0
C641 C 0.40215 0.83601 0.97931 0.0
C642 C 0.37653 0.84511 0.98198 0.0
C643 C 0.45201 0.97772 0.02778 0.0
C644 C 0.52212 0.02067 0.09542 0.0
C645 C 0.51399 0.99991 0.11281 0.0
C646 C 0.51982 0.01417 0.13266 0.0
C647 C 0.53422 0.0496 0.13463 0.0
C648 C 0.53684 0.05586 0.09791 0.0
C649 C 0.54281 0.07018 0.11741 0.0
C650 C 0.52097 0.95314 0.02692 0.0
C651 C 0.51384 0.00516 0.07487 0.0
H652 H 0.50894 0.02042 0.91523 0.0
H653 H 0.46005 0.92965 0.87785 0.0
H654 H 0.46103 0.92128 0.94272 0.0
H655 H 0.4448 0.89468 0.90868 0.0
H656 H 0.5034 0.97281 0.11079 0.0
H657 H 0.5386 0.0615 0.14956 0.0
H658 H 0.54346 0.07223 0.08481 0.0
H659 H 0.55391 0.09736 0.11921 0.0
Tb660 Tb 0.02639 0.50365 0.988 0.0
C661 C 0.89811 0.4512 0.03933 0.0
C662 C 0.87785 0.4911 0.03463 0.0
C663 C 0.83623 0.43161 0.04087 0.0
C664 C 0.90505 0.48363 0.03534 0.0
C665 C 0.86373 0.4249 0.04275 0.0
C666 C 0.84329 0.46471 0.03682 0.0
C667 C 0.88679 0.38878 0.05224 0.0
N668 N 0.92549 0.44608 0.0414 0.0
C669 C 0.92045 0.41588 0.04895 0.0
C670 C 0.85824 0.39313 0.04879 0.0
Tb671 Tb 0.97976 0.4917 0.03497 0.0
N672 N 0.93878 0.50832 0.03353 0.0
C673 C 0.94722 0.54164 0.03245 0.0
C674 C 0.8863 0.52496 0.03246 0.0
C675 C 0.92119 0.5504 0.03174 0.0
H676 H 0.94229 0.41224 0.05175 0.0
H677 H 0.92808 0.57676 0.03042 0.0
H678 H 0.82197 0.46983 0.03606 0.0
H679 H 0.88292 0.36464 0.05753 0.0
H680 H 0.97399 0.56169 0.03172 0.0
H681 H 0.97404 0.40902 0.92782 0.0
H682 H 0.8662 0.53181 0.03181 0.0
H683 H 0.10455 0.54133 1.01027 0.0
H684 H 0.97633 0.45344 0.95057 0.0
H685 H 0.15475 0.53283 0.01258 0.0
H686 H 0.80956 0.41167 0.0432 0.0
H687 H 0.01891 0.39217 0.93056 0.0
H688 H 0.07452 0.40169 0.94673 0.0
H689 H 0.83221 0.37221 0.05154 0.0
H690 H 0.12373 0.43535 0.97004 0.0
N691 N 0.021 0.46057 0.96699 0.0
C692 C 0.99586 0.44614 0.95213 0.0
C693 C 0.01988 0.41154 0.94072 0.0
C694 C 0.04685 0.42803 0.95495 0.0
C695 C 0.99452 0.42096 0.93913 0.0
C696 C 0.04688 0.45305 0.96781 0.0
H697 H 0.15415 0.48468 0.99443 0.0
N698 N 0.07444 0.49756 0.99151 0.0
C699 C 0.13228 0.51542 1.0036 0.0
C700 C 0.07448 0.47205 0.98069 0.0
C701 C 0.1035 0.52007 1.00224 0.0
C702 C 0.1318 0.48816 0.9934 0.0
C703 C 0.10296 0.46647 0.98141 0.0
O704 O 0.07035 0.54345 0.97382 0.0
O705 O 0.98936 0.51273 1.00469 0.0
O706 O 0.94908 0.44786 0.01437 0.0
O707 O 0.99172 0.44906 0.99277 0.0
O708 O 0.9771 0.49473 0.97525 0.0
O709 O 0.01975 0.52457 0.96086 0.0
O710 O 0.99461 0.48191 0.0636 0.0
O711 O 0.02601 0.49641 0.02048 0.0
O712 O 0.05611 0.54946 1.00678 0.0
O713 O 0.01824 0.54613 0.03235 0.0
O714 O 1.0001 0.45773 0.04091 0.0
O715 O 0.98363 0.5223 0.06026 0.0
C716 C 0.96636 0.50382 0.99088 0.0
C717 C 0.06476 0.53544 0.93792 0.0
C718 C 0.05398 0.52061 0.90173 0.0
C719 C 0.04568 0.53147 0.91991 0.0
C720 C 0.08176 0.51423 0.90146 0.0
C721 C 0.09292 0.52942 0.93724 0.0
C722 C 0.10127 0.51888 0.91911 0.0
C723 C 0.96036 0.43323 1.00115 0.0
C724 C 0.05294 0.54226 0.9576 0.0
C725 C 0.10226 0.44027 0.96955 0.0
C726 C 0.07427 0.42112 0.95628 0.0
C727 C 0.02644 0.47168 0.029 0.0
C728 C 0.97226 0.4955 0.09234 0.0
C729 C 0.99086 0.50147 0.11067 0.0
C730 C 0.97339 0.49215 0.12951 0.0
C731 C 0.9369 0.47627 0.12969 0.0
C732 C 0.9359 0.47999 0.09283 0.0
C733 C 0.91835 0.47033 0.11143 0.0
C734 C 0.04788 0.56292 0.02224 0.0
C735 C 0.99141 0.50536 0.07296 0.0
H736 H 0.02379 0.53579 0.92017 0.0
H737 H 0.08841 0.50578 0.88755 0.0
H738 H 0.10808 0.53205 0.95079 0.0
H739 H 0.12269 0.51392 0.91881 0.0
H740 H 0.01901 0.51375 0.11028 0.0
H741 H 0.92271 0.46818 0.14391 0.0
H742 H 0.92111 0.47537 0.0789 0.0
H743 H 0.89026 0.45816 0.11171 0.0
Tb744 Tb 0.51907 0.4912 0.04056 0.0
C745 C 0.44317 0.54378 0.98662 0.0
C746 C 0.3825 0.50187 0.99073 0.0
C747 C 0.39925 0.56047 0.98353 0.0
C748 C 0.41789 0.51102 0.99076 0.0
C749 C 0.43419 0.56873 0.98221 0.0
C750 C 0.3734 0.52703 0.98782 0.0
C751 C 0.49393 0.60626 0.97262 0.0
N752 N 0.47638 0.55036 0.98506 0.0
C753 C 0.50139 0.5805 0.97704 0.0
C754 C 0.46032 0.6006 0.97562 0.0
Tb755 Tb 0.48682 0.50733 0.99344 0.0
N756 N 0.42788 0.48752 0.99302 0.0
C757 C 0.40327 0.45373 0.99332 0.0
C758 C 0.35735 0.46755 0.99262 0.0
C759 C 0.3678 0.44331 0.99346 0.0
H760 H 0.52742 0.58518 0.97457 0.0
H761 H 0.34857 0.41658 0.9944 0.0
H762 H 0.34639 0.52061 0.98801 0.0
H763 H 0.51411 0.63043 0.96688 0.0
H764 H 0.41067 0.43455 0.99427 0.0
H765 H 0.65592 0.58616 0.04197 0.0
H766 H 0.32989 0.45943 0.99273 0.0
H767 H 0.47953 0.41021 0.05407 0.0
H768 H 0.59322 0.5658 0.04171 0.0
H769 H 0.49517 0.36587 0.05963 0.0
H770 H 0.39182 0.57938 0.98046 0.0
H771 H 0.67703 0.54511 0.04242 0.0
H772 H 0.66297 0.48429 0.04508 0.0
H773 H 0.45453 0.6205 0.97204 0.0
H774 H 0.61906 0.42405 0.05007 0.0
N775 N 0.57824 0.51326 0.04157 0.0
C776 C 0.60173 0.54737 0.04206 0.0
C777 C 0.64933 0.53592 0.04237 0.0
C778 C 0.62523 0.50115 0.04329 0.0
C779 C 0.63751 0.55915 0.04218 0.0
C780 C 0.58949 0.4906 0.04309 0.0
H781 H 0.55636 0.3797 0.05601 0.0
N782 N 0.53122 0.44866 0.0469 0.0
C783 C 0.51508 0.39138 0.05567 0.0
C784 C 0.56503 0.457 0.04589 0.0
C785 C 0.50633 0.41662 0.05258 0.0
C786 C 0.54962 0.39926 0.05354 0.0
C787 C 0.57523 0.43257 0.04896 0.0
O788 O 0.49463 0.47373 0.06903 0.0
O789 O 0.47718 0.49331 0.02522 0.0
O790 O 0.49604 0.5492 0.01394 0.0
O791 O 0.53188 0.54472 0.03864 0.0
O792 O 0.46392 0.45461 0.04527 0.0
O793 O 0.53863 0.52411 0.0659 0.0
O794 O 0.51382 0.51943 0.96553 0.0
O795 O 0.52903 0.50579 1.00897 0.0
O796 O 0.51232 0.45218 0.01852 0.0
O797 O 0.47167 0.45324 0.99656 0.0
O798 O 0.54205 0.54429 0.98888 0.0
O799 O 0.46359 0.47481 0.96809 0.0
C800 C 0.45148 0.46824 0.03336 0.0
C801 C 0.53054 0.49792 0.09795 0.0
C802 C 0.53252 0.5017 0.13518 0.0
C803 C 0.51865 0.50438 0.11642 0.0
C804 C 0.55788 0.49183 0.13522 0.0
C805 C 0.55603 0.48837 0.09831 0.0
C806 C 0.56951 0.48522 0.11688 0.0
C807 C 0.51763 0.56106 0.02977 0.0
C808 C 0.5164 0.5017 0.07849 0.0
C809 C 0.61066 0.44249 0.04801 0.0
C810 C 0.63566 0.47677 0.04516 0.0
C811 C 0.55479 0.53119 1.00101 0.0
C812 C 0.47969 0.50122 0.93581 0.0
C813 C 0.4913 0.49252 0.91806 0.0
C814 C 0.48517 0.50171 0.89864 0.0
C815 C 0.46757 0.5202 0.89741 0.0
C816 C 0.46111 0.51852 0.93415 0.0
C817 C 0.45526 0.5281 0.91503 0.0
C818 C 0.48871 0.43849 1.00381 0.0
C819 C 0.48898 0.49371 0.95587 0.0
H820 H 0.4991 0.512 0.11617 0.0
H821 H 0.56855 0.489 0.14946 0.0
H822 H 0.56559 0.48345 0.08431 0.0
H823 H 0.58909 0.47769 0.11707 0.0
H824 H 0.50519 0.47867 0.91942 0.0
H825 H 0.46368 0.52902 0.88287 0.0
H826 H 0.45153 0.52503 0.94757 0.0
H827 H 0.44151 0.54207 0.91388 0.0
Tb828 Tb 0.15774 0.31422 0.3264 0.0
C829 C 0.26663 0.40449 0.38083 0.0
C830 C 0.2921 0.3799 0.40253 0.0
C831 C 0.32874 0.43583 0.38801 0.0
C832 C 0.26319 0.37774 0.39221 0.0
C833 C 0.2993 0.43431 0.37898 0.0
C834 C 0.32513 0.40865 0.39983 0.0
C835 C 0.27071 0.45978 0.36111 0.0
N836 N 0.2375 0.40195 0.37247 0.0
C837 C 0.23896 0.42956 0.36331 0.0
C838 C 0.30116 0.46196 0.36863 0.0
Tb839 Tb 0.18675 0.35114 0.37645 0.0
N840 N 0.23088 0.35066 0.39449 0.0
C841 C 0.22492 0.32699 0.40917 0.0
C842 C 0.2866 0.35386 0.41595 0.0
C843 C 0.25272 0.32765 0.41962 0.0
H844 H 0.21589 0.42862 0.35755 0.0
H845 H 0.24795 0.3081 0.43059 0.0
H846 H 0.3478 0.4106 0.40735 0.0
H847 H 0.27166 0.48129 0.3535 0.0
H848 H 0.1987 0.30691 0.41223 0.0
H849 H 0.02481 0.28577 0.33369 0.0
H850 H 0.3081 0.35453 0.42419 0.0
H851 H 0.1889 0.26935 0.30471 0.0
H852 H 0.08844 0.32263 0.33258 0.0
H853 H 0.16805 0.20931 0.29543 0.0
H854 H 0.35416 0.45829 0.38649 0.0
H855 H 0.99833 0.22361 0.32883 0.0
H856 H 0.00651 0.17373 0.32075 0.0
H857 H 0.32574 0.48532 0.36683 0.0
H858 H 0.04583 0.15263 0.31066 0.0
N859 N 0.09831 0.28198 0.32743 0.0
C860 C 0.07738 0.29567 0.33035 0.0
C861 C 0.02633 0.23973 0.32828 0.0
C862 C 0.04782 0.22607 0.32429 0.0
C863 C 0.04118 0.27481 0.33096 0.0
C864 C 0.08408 0.24822 0.32381 0.0
H865 H 0.10629 0.16582 0.30087 0.0
N866 N 0.14029 0.25936 0.3168 0.0
C867 C 0.15035 0.21647 0.30213 0.0
C868 C 0.10602 0.23641 0.31845 0.0
C869 C 0.16215 0.25039 0.30749 0.0
C870 C 0.11551 0.19202 0.30526 0.0
C871 C 0.0926 0.20201 0.313 0.0
O872 O 0.18349 0.32518 0.29796 0.0
O873 O 0.1983 0.3558 0.3441 0.0
O874 O 0.16146 0.37737 0.36266 0.0
O875 O 0.15201 0.35887 0.32866 0.0
O876 O 0.21256 0.33104 0.32292 0.0
O877 O 0.13693 0.32754 0.30159 0.0
O878 O 0.18521 0.38829 0.39512 0.0
O879 O 0.14233 0.31742 0.35738 0.0
O880 O 0.17178 0.28112 0.3435 0.0
O881 O 0.20619 0.31602 0.37065 0.0
O882 O 0.14824 0.30012 0.38536 0.0
O883 O 0.16068 0.33658 0.40476 0.0
C884 C 0.22412 0.35537 0.3361 0.0
C885 C 0.14861 0.31463 0.26857 0.0
C886 C 0.15172 0.31952 0.23128 0.0
C887 C 0.16345 0.334 0.25086 0.0
C888 C 0.1252 0.28528 0.22982 0.0
C889 C 0.12209 0.28065 0.26666 0.0
C890 C 0.11058 0.26608 0.24737 0.0
C891 C 0.15211 0.37844 0.34361 0.0
C892 C 0.16067 0.33042 0.28888 0.0
C893 C 0.05667 0.17928 0.31452 0.0
C894 C 0.03427 0.19129 0.3202 0.0
C895 C 0.12877 0.29236 0.36947 0.0
C896 C 0.18871 0.37829 0.43056 0.0
C897 C 0.17621 0.35623 0.44756 0.0
C898 C 0.19368 0.36617 0.46658 0.0
C899 C 0.2231 0.3988 0.46848 0.0
C900 C 0.21857 0.41046 0.43299 0.0
C901 C 0.23545 0.42058 0.45181 0.0
C902 C 0.19375 0.28834 0.35902 0.0
C903 C 0.17106 0.3676 0.41034 0.0
H904 H 0.18422 0.36016 0.25234 0.0
H905 H 0.11539 0.27342 0.21506 0.0
H906 H 0.11011 0.26546 0.28003 0.0
H907 H 0.09006 0.23983 0.24601 0.0
H908 H 0.15335 0.33128 0.4459 0.0
H909 H 0.23648 0.40768 0.48298 0.0
H910 H 0.22901 0.42796 0.42034 0.0
H911 H 0.25824 0.44552 0.45352 0.0
Tb912 Tb 0.69614 0.84003 0.3277 0.0
C913 C 0.56548 0.79394 0.37942 0.0
C914 C 0.5509 0.83789 0.37436 0.0
C915 C 0.50509 0.77995 0.38089 0.0
C916 C 0.57565 0.82714 0.37515 0.0
C917 C 0.53025 0.77006 0.383 0.0
C918 C 0.51542 0.81388 0.37656 0.0
C919 C 0.54817 0.73016 0.3932 0.0
N920 N 0.59071 0.7858 0.38175 0.0
C921 C 0.5828 0.75501 0.38971 0.0
C922 C 0.52167 0.7375 0.38947 0.0
Tb923 Tb 0.64652 0.827 0.37418 0.0
N924 N 0.61017 0.84943 0.37348 0.0
C925 C 0.62188 0.88358 0.3729 0.0
C926 C 0.56269 0.87257 0.37226 0.0
C927 C 0.59839 0.89558 0.37198 0.0
H928 H 0.60316 0.74935 0.39297 0.0
H929 H 0.60787 0.92256 0.37086 0.0
H930 H 0.49594 0.82152 0.3757 0.0
H931 H 0.54198 0.70546 0.39889 0.0
H932 H 0.6493 0.90182 0.37244 0.0
H933 H 0.73323 0.74326 0.32806 0.0
H934 H 0.54456 0.88191 0.37151 0.0
H935 H 0.74103 0.92112 0.31456 0.0
H936 H 0.69233 0.76465 0.32813 0.0
H937 H 0.80227 0.96429 0.30827 0.0
H938 H 0.47779 0.7619 0.38332 0.0
H939 H 0.79658 0.78336 0.32661 0.0
H940 H 0.84551 0.84356 0.32273 0.0
H941 H 0.49489 0.71836 0.39239 0.0
H942 H 0.86435 0.90382 0.31689 0.0
N943 N 0.73185 0.81695 0.32731 0.0
C944 C 0.71978 0.78272 0.32741 0.0
C945 C 0.77869 0.79303 0.32663 0.0
C946 C 0.79082 0.82785 0.32516 0.0
C947 C 0.74297 0.77033 0.32737 0.0
C948 C 0.76641 0.83907 0.32538 0.0
H949 H 0.84829 0.94896 0.31098 0.0
N950 N 0.75223 0.88179 0.32131 0.0
C951 C 0.79553 0.93864 0.31221 0.0
C952 C 0.77698 0.87271 0.32207 0.0
C953 C 0.76082 0.91405 0.31574 0.0
C954 C 0.82144 0.9299 0.31378 0.0
C955 C 0.81227 0.89647 0.3185 0.0
O956 O 0.69042 0.85693 0.2989 0.0
O957 O 0.65224 0.83958 0.3422 0.0
O958 O 0.61294 0.78479 0.35382 0.0
O959 O 0.65376 0.78668 0.33028 0.0
O960 O 0.67986 0.87751 0.32199 0.0
O961 O 0.68143 0.80611 0.30281 0.0
O962 O 0.65599 0.81307 0.40301 0.0
O963 O 0.68943 0.82638 0.35933 0.0
O964 O 0.73036 0.87819 0.35002 0.0
O965 O 0.68888 0.88043 0.37068 0.0
O966 O 0.66357 0.79012 0.38066 0.0
O967 O 0.65977 0.86167 0.39862 0.0
C968 C 0.65306 0.86468 0.33361 0.0
C969 C 0.70228 0.83198 0.27081 0.0
C970 C 0.70425 0.83471 0.23365 0.0
C971 C 0.68629 0.8305 0.25205 0.0
C972 C 0.73827 0.84006 0.23424 0.0
C973 C 0.7362 0.83725 0.27111 0.0
C974 C 0.75408 0.84128 0.25289 0.0
C975 C 0.62258 0.7714 0.33894 0.0
C976 C 0.68337 0.82861 0.28984 0.0
C977 C 0.83702 0.88589 0.31933 0.0
C978 C 0.82631 0.85161 0.32269 0.0
C979 C 0.68927 0.80179 0.3682 0.0
C980 C 0.64306 0.83677 0.43121 0.0
C981 C 0.66148 0.84117 0.4494 0.0
C982 C 0.645 0.83623 0.46842 0.0
C983 C 0.60981 0.82736 0.46896 0.0
C984 C 0.60794 0.8278 0.43197 0.0
C985 C 0.59144 0.82317 0.45081 0.0
C986 C 0.72136 0.89338 0.36409 0.0
C987 C 0.661 0.84092 0.41173 0.0
H988 H 0.66007 0.82647 0.25177 0.0
H989 H 0.75243 0.84282 0.22025 0.0
H990 H 0.74882 0.83815 0.28534 0.0
H991 H 0.78023 0.84526 0.25322 0.0
H992 H 0.68882 0.84877 0.44871 0.0
H993 H 0.59647 0.82344 0.48339 0.0
H994 H 0.59335 0.82441 0.4181 0.0
H995 H 0.56432 0.81623 0.45134 0.0
Tb996 Tb 0.18567 0.82066 0.36979 0.0
C997 C 0.1164 0.88226 0.31734 0.0
C998 C 0.05487 0.8415 0.31822 0.0
C999 C 0.07452 0.9016 0.31447 0.0
C1000 C 0.08982 0.84931 0.31925 0.0
C1001 C 0.10921 0.90886 0.31451 0.0
C1002 C 0.04736 0.86793 0.31632 0.0
C1003 C 0.17088 0.94717 0.31067 0.0
N1004 N 0.1494 0.88801 0.31737 0.0
C1005 C 0.17662 0.91987 0.31341 0.0
C1006 C 0.13705 0.94171 0.3114 0.0
Tb1007 Tb 0.15645 0.84198 0.32315 0.0
N1008 N 0.09832 0.82465 0.32081 0.0
C1009 C 0.07289 0.79127 0.31956 0.0
C1010 C 0.02867 0.80736 0.31839 0.0
C1011 C 0.03777 0.7821 0.31869 0.0
H1012 H 0.20294 0.92464 0.31296 0.0
H1013 H 0.01778 0.75556 0.31836 0.0
H1014 H 0.02068 0.86251 0.31572 0.0
H1015 H 0.19259 0.97242 0.30802 0.0
H1016 H 0.07941 0.77148 0.31992 0.0
H1017 H 0.32426 0.90702 0.37628 0.0
H1018 H 1.00148 0.80023 0.3177 0.0
H1019 H 0.13904 0.73725 0.37823 0.0
H1020 H 0.26271 0.89125 0.37455 0.0
H1021 H 0.14949 0.68929 0.38166 0.0
H1022 H 0.06843 0.92171 0.31253 0.0
H1023 H 0.34059 0.86238 0.37583 0.0
H1024 H 0.32147 0.80006 0.37623 0.0
H1025 H 0.13267 0.9629 0.30922 0.0
H1026 H 0.27378 0.74063 0.37791 0.0
N1027 N 0.24379 0.83805 0.37254 0.0
C1028 C 0.26919 0.87138 0.3744 0.0
C1029 C 0.31342 0.85527 0.37508 0.0
C1030 C 0.28724 0.82112 0.3745 0.0
C1031 C 0.30429 0.88051 0.3754 0.0
C1032 C 0.25229 0.81331 0.37343 0.0
H1033 H 0.20949 0.69907 0.38024 0.0
N1034 N 0.19263 0.77429 0.3744 0.0
C1035 C 0.1712 0.71473 0.37956 0.0
C1036 C 0.22571 0.78017 0.37447 0.0
C1037 C 0.1654 0.74214 0.37768 0.0
C1038 C 0.20507 0.72034 0.3787 0.0
C1039 C 0.23293 0.75345 0.37644 0.0
O1040 O 0.15774 0.80368 0.39718 0.0
O1041 O 0.14493 0.82468 0.3542 0.0
O1042 O 0.16237 0.87889 0.34666 0.0
O1043 O 0.20246 0.87531 0.3681 0.0
O1044 O 0.12993 0.78454 0.37319 0.0
O1045 O 0.20618 0.85098 0.3963 0.0
O1046 O 0.18275 0.85862 0.29518 0.0
O1047 O 0.19726 0.83892 0.33903 0.0
O1048 O 0.18201 0.78572 0.34571 0.0
O1049 O 0.14029 0.78729 0.32485 0.0
O1050 O 0.2123 0.87746 0.31889 0.0
O1051 O 0.1365 0.8095 0.29756 0.0
C1052 C 0.11848 0.79912 0.36133 0.0
C1053 C 0.19039 0.82088 0.42749 0.0
C1054 C 0.18781 0.82121 0.46482 0.0
C1055 C 0.18223 0.83186 0.44571 0.0
C1056 C 0.2025 0.80001 0.46525 0.0
C1057 C 0.20531 0.8001 0.42835 0.0
C1058 C 0.21142 0.78984 0.44716 0.0
C1059 C 0.18666 0.8915 0.36107 0.0
C1060 C 0.18092 0.82937 0.40778 0.0
C1061 C 0.26765 0.76081 0.37658 0.0
C1062 C 0.29479 0.79462 0.3756 0.0
C1063 C 0.22376 0.86377 0.33141 0.0
C1064 C 0.14896 0.8363 0.26537 0.0
C1065 C 0.16246 0.82975 0.24761 0.0
C1066 C 0.15245 0.83486 0.22815 0.0
C1067 C 0.12838 0.84628 0.22678 0.0
C1068 C 0.12517 0.84787 0.26369 0.0
C1069 C 0.11491 0.85277 0.24445 0.0
C1070 C 0.15766 0.77237 0.3314 0.0
C1071 C 0.16045 0.83124 0.28542 0.0
H1072 H 0.17155 0.84864 0.44489 0.0
H1073 H 0.20677 0.79091 0.47959 0.0
H1074 H 0.21177 0.79142 0.41453 0.0
H1075 H 0.22266 0.77353 0.44773 0.0
H1076 H 0.18045 0.82031 0.24898 0.0
H1077 H 0.12021 0.85049 0.21203 0.0
H1078 H 0.11455 0.85307 0.2772 0.0
H1079 H 0.09652 0.86169 0.24321 0.0
Tb1080 Tb 0.82348 0.64573 0.65846 0.0
C1081 C 0.8975 0.77082 0.7135 0.0
C1082 C 0.95752 0.78508 0.71101 0.0
C1083 C 0.94345 0.82981 0.71631 0.0
C1084 C 0.92172 0.76093 0.7105 0.0
C1085 C 0.90798 0.80519 0.71725 0.0
C1086 C 0.96825 0.81975 0.71315 0.0
C1087 C 0.84832 0.78743 0.72556 0.0
N1088 N 0.86372 0.74616 0.71465 0.0
C1089 C 0.83935 0.75367 0.72173 0.0
C1090 C 0.88266 0.81342 0.72285 0.0
Tb1091 Tb 0.85082 0.69182 0.70694 0.0
N1092 N 0.91011 0.72718 0.70893 0.0
C1093 C 0.93327 0.71571 0.70997 0.0
C1094 C 0.98135 0.77353 0.71041 0.0
C1095 C 0.96913 0.73864 0.71042 0.0
H1096 H 0.81278 0.73368 0.72385 0.0
H1097 H 0.9873 0.72936 0.71058 0.0
H1098 H 0.99563 0.83878 0.71328 0.0
H1099 H 0.82875 0.79336 0.73061 0.0
H1100 H 0.92447 0.68887 0.70976 0.0
H1101 H 0.68644 0.60634 0.65594 0.0
H1102 H 0.00909 0.79122 0.71075 0.0
H1103 H 0.86284 0.6054 0.64097 0.0
H1104 H 0.74903 0.64743 0.65708 0.0
H1105 H 0.84778 0.54648 0.63292 0.0
H1106 H 0.95207 0.85646 0.71885 0.0
H1107 H 0.66554 0.54472 0.65401 0.0
H1108 H 0.67991 0.49801 0.6497 0.0
H1109 H 0.8896 0.83952 0.72594 0.0
H1110 H 0.72414 0.48153 0.64321 0.0
N1111 N 0.76427 0.60973 0.6564 0.0
C1112 C 0.74068 0.62074 0.65613 0.0
C1113 C 0.69321 0.56269 0.65452 0.0
C1114 C 0.71743 0.55169 0.65318 0.0
C1115 C 0.70493 0.59745 0.6555 0.0
C1116 C 0.75313 0.57619 0.65396 0.0
H1117 H 0.78695 0.49961 0.63637 0.0
N1118 N 0.81139 0.59199 0.6497 0.0
C1119 C 0.8278 0.55181 0.638 0.0
C1120 C 0.77772 0.56696 0.65042 0.0
C1121 C 0.83625 0.58522 0.64256 0.0
C1122 C 0.79349 0.52543 0.64004 0.0
C1123 C 0.76775 0.53292 0.64587 0.0
O1124 O 0.85269 0.65807 0.63129 0.0
O1125 O 0.86381 0.68798 0.6756 0.0
O1126 O 0.84288 0.72467 0.68617 0.0
O1127 O 0.80991 0.68611 0.66013 0.0
O1128 O 0.87859 0.66173 0.65654 0.0
O1129 O 0.80525 0.65952 0.63256 0.0
O1130 O 0.82237 0.68156 0.73433 0.0
O1131 O 0.81111 0.64983 0.68975 0.0
O1132 O 0.83062 0.61208 0.67919 0.0
O1133 O 0.86327 0.65057 0.70537 0.0
O1134 O 0.79514 0.67415 0.70933 0.0
O1135 O 0.86903 0.67865 0.73302 0.0
C1136 C 0.89009 0.68732 0.6688 0.0
C1137 C 0.82173 0.64822 0.60041 0.0
C1138 C 0.82655 0.6552 0.56332 0.0
C1139 C 0.83363 0.66939 0.58315 0.0
C1140 C 0.80735 0.61968 0.56102 0.0
C1141 C 0.80212 0.61288 0.59772 0.0
C1142 C 0.79506 0.59874 0.57811 0.0
C1143 C 0.82289 0.71584 0.66966 0.0
C1144 C 0.83079 0.66331 0.62105 0.0
C1145 C 0.73237 0.50793 0.64639 0.0
C1146 C 0.7072 0.5173 0.65008 0.0
C1147 C 0.78428 0.64894 0.69679 0.0
C1148 C 0.85436 0.69236 0.76494 0.0
C1149 C 0.84344 0.67214 0.78262 0.0
C1150 C 0.85288 0.68727 0.8022 0.0
C1151 C 0.87336 0.72289 0.80369 0.0
C1152 C 0.87499 0.72773 0.76688 0.0
C1153 C 0.88431 0.74287 0.78618 0.0
C1154 C 0.85015 0.62064 0.69594 0.0
C1155 C 0.84413 0.67619 0.74463 0.0
H1156 H 0.84882 0.69674 0.58515 0.0
H1157 H 0.80152 0.60814 0.54595 0.0
H1158 H 0.79241 0.59622 0.61073 0.0
H1159 H 0.78006 0.57142 0.57615 0.0
H1160 H 0.82813 0.64474 0.78108 0.0
H1161 H 0.88081 0.73537 0.81848 0.0
H1162 H 0.88396 0.74365 0.75354 0.0
H1163 H 0.90013 0.77022 0.78757 0.0
Tb1164 Tb 0.36403 0.18098 0.65555 0.0
C1165 C 0.23289 0.12878 0.70908 0.0
C1166 C 0.21469 0.1704 0.70515 0.0
C1167 C 0.17187 0.11181 0.71277 0.0
C1168 C 0.24089 0.1615 0.70494 0.0
C1169 C 0.19844 0.10365 0.71359 0.0
C1170 C 0.17999 0.14517 0.70855 0.0
C1171 C 0.21975 0.06545 0.72134 0.0
N1172 N 0.25939 0.12214 0.70991 0.0
C1173 C 0.25349 0.09129 0.71676 0.0
C1174 C 0.192 0.07148 0.71944 0.0
Tb1175 Tb 0.31376 0.16582 0.70174 0.0
N1176 N 0.27474 0.18506 0.70192 0.0
C1177 C 0.28445 0.21871 0.70079 0.0
C1178 C 0.22432 0.2045 0.70261 0.0
C1179 C 0.25944 0.22884 0.70079 0.0
H1180 H 0.27456 0.08611 0.71824 0.0
H1181 H 0.26731 0.25542 0.69925 0.0
H1182 H 0.15942 0.1514 0.70852 0.0
H1183 H 0.21517 0.04088 0.72628 0.0
H1184 H 0.31137 0.23794 0.69917 0.0
H1185 H 0.40743 0.08896 0.65717 0.0
H1186 H 0.205 0.2124 0.70259 0.0
H1187 H 0.406 0.26171 0.64121 0.0
H1188 H 0.36432 0.10767 0.65645 0.0
H1189 H 0.46669 0.30697 0.63575 0.0
H1190 H 0.14515 0.09277 0.71596 0.0
H1191 H 0.47027 0.13129 0.65668 0.0
H1192 H 0.51734 0.19249 0.65345 0.0
H1193 H 0.1659 0.05145 0.72305 0.0
H1194 H 0.53358 0.25208 0.64747 0.0
N1195 N 0.402 0.1605 0.65583 0.0
C1196 C 0.39151 0.12661 0.65597 0.0
C1197 C 0.45139 0.13974 0.65625 0.0
C1198 C 0.46198 0.17424 0.65476 0.0
C1199 C 0.41596 0.11578 0.65645 0.0
C1200 C 0.4363 0.18382 0.65436 0.0
H1201 H 0.51477 0.29493 0.64037 0.0
N1202 N 0.41948 0.22445 0.64938 0.0
C1203 C 0.46108 0.28182 0.64013 0.0
C1204 C 0.44541 0.21708 0.65097 0.0
C1205 C 0.42668 0.25603 0.64318 0.0
C1206 C 0.48816 0.27495 0.64281 0.0
C1207 C 0.48046 0.24209 0.64795 0.0
O1208 O 0.35726 0.1966 0.62653 0.0
O1209 O 0.31905 0.17887 0.66979 0.0
O1210 O 0.28071 0.12459 0.68067 0.0
O1211 O 0.32279 0.12706 0.65823 0.0
O1212 O 0.34584 0.21686 0.64941 0.0
O1213 O 0.35222 0.14744 0.63075 0.0
O1214 O 0.32596 0.15353 0.73032 0.0
O1215 O 0.35832 0.1674 0.6873 0.0
O1216 O 0.39651 0.2206 0.67745 0.0
O1217 O 0.35392 0.22006 0.69837 0.0
O1218 O 0.33158 0.12957 0.70766 0.0
O1219 O 0.32482 0.19988 0.7263 0.0
C1220 C 0.31899 0.20348 0.66097 0.0
C1221 C 0.37206 0.17336 0.59876 0.0
C1222 C 0.37363 0.17319 0.56155 0.0
C1223 C 0.35533 0.16873 0.57986 0.0
C1224 C 0.40897 0.18266 0.56241 0.0
C1225 C 0.40722 0.18241 0.59933 0.0
C1226 C 0.42559 0.18714 0.58122 0.0
C1227 C 0.29077 0.11139 0.66585 0.0
C1228 C 0.35245 0.1689 0.61762 0.0
C1229 C 0.50642 0.23317 0.64949 0.0
C1230 C 0.49719 0.19926 0.65291 0.0
C1231 C 0.35815 0.1425 0.69588 0.0
C1232 C 0.31248 0.17543 0.75918 0.0
C1233 C 0.33296 0.18185 0.77672 0.0
C1234 C 0.31792 0.1753 0.79626 0.0
C1235 C 0.28201 0.16309 0.79796 0.0
C1236 C 0.27672 0.16315 0.7611 0.0
C1237 C 0.26162 0.15714 0.78046 0.0
C1238 C 0.3864 0.23471 0.69159 0.0
C1239 C 0.32911 0.18058 0.73916 0.0
H1240 H 0.32822 0.16201 0.5794 0.0
H1241 H 0.4236 0.18616 0.54852 0.0
H1242 H 0.42046 0.18579 0.61368 0.0
H1243 H 0.45274 0.19418 0.58176 0.0
H1244 H 0.36073 0.19205 0.7751 0.0
H1245 H 0.26966 0.15777 0.81279 0.0
H1246 H 0.26054 0.15815 0.74774 0.0
H1247 H 0.23398 0.1476 0.7819 0.0
Tb1248 Tb 0.85341 0.16712 0.7103 0.0
C1249 C 0.78287 0.22106 0.65712 0.0
C1250 C 0.72239 0.1778 0.66023 0.0
C1251 C 0.73799 0.23654 0.65458 0.0
C1252 C 0.75797 0.18776 0.66032 0.0
C1253 C 0.77324 0.24579 0.65357 0.0
C1254 C 0.71256 0.20255 0.65793 0.0
C1255 C 0.83335 0.28555 0.64573 0.0
N1256 N 0.81643 0.22868 0.65596 0.0
C1257 C 0.84143 0.25992 0.64916 0.0
C1258 C 0.79919 0.27861 0.64829 0.0
Tb1259 Tb 0.82743 0.18539 0.66237 0.0
N1260 N 0.76865 0.16476 0.66236 0.0
C1261 C 0.74479 0.13081 0.66296 0.0
C1262 C 0.69785 0.14322 0.66184 0.0
C1263 C 0.70912 0.11957 0.66282 0.0
H1264 H 0.86784 0.26535 0.64707 0.0
H1265 H 0.69036 0.09271 0.66372 0.0
H1266 H 0.68538 0.19552 0.6581 0.0
H1267 H 0.85344 0.31054 0.64102 0.0
H1268 H 0.75304 0.11223 0.66403 0.0
H1269 H 0.91253 0.25769 0.77199 0.0
H1270 H 0.67025 0.13448 0.66188 0.0
H1271 H 0.88238 0.12152 0.68578 0.0
H1272 H 0.86404 0.21507 0.7507 0.0
H1273 H 0.93781 0.12297 0.68086 0.0
H1274 H 0.73003 0.25524 0.65216 0.0
H1275 H 0.97276 0.27051 0.7652 0.0
H1276 H 0.01273 0.25588 0.74592 0.0
H1277 H 0.7929 0.2984 0.64544 0.0
H1278 H 0.01942 0.21836 0.72128 0.0
N1279 N 0.89686 0.20647 0.73093 0.0
C1280 C 0.89034 0.22125 0.74735 0.0
C1281 C 0.95162 0.2523 0.75561 0.0
C1282 C 0.95753 0.23434 0.7402 0.0
C1283 C 0.9177 0.24514 0.75951 0.0
C1284 C 0.92906 0.21091 0.72821 0.0
H1285 H 0.9914 0.16801 0.69737 0.0
N1286 N 0.90379 0.16578 0.70481 0.0
C1287 C 0.93677 0.14197 0.6904 0.0
C1288 C 0.93267 0.18965 0.7147 0.0
C1289 C 0.90522 0.14131 0.69327 0.0
C1290 C 0.96699 0.16748 0.69968 0.0
C1291 C 0.96507 0.19139 0.71232 0.0
O1292 O 0.85132 0.12535 0.72535 0.0
O1293 O 0.81006 0.16185 0.69195 0.0
O1294 O 0.84084 0.22846 0.68311 0.0
O1295 O 0.87473 0.22238 0.70853 0.0
O1296 O 0.81509 0.17953 0.7216 0.0
O1297 O 0.82505 0.15 0.7377 0.0
O1298 O 0.85542 0.20111 0.63475 0.0
O1299 O 0.8661 0.1782 0.67833 0.0
O1300 O 0.8285 0.11908 0.69306 0.0
O1301 O 0.81532 0.13272 0.66132 0.0
O1302 O 0.8831 0.22064 0.66052 0.0
O1303 O 0.80496 0.15668 0.63561 0.0
C1304 C 0.79624 0.17158 0.70541 0.0
C1305 C 0.85115 0.13065 0.76156 0.0
C1306 C 0.85621 0.14466 0.79813 0.0
C1307 C 0.84079 0.1421 0.77888 0.0
C1308 C 0.88142 0.13474 0.79993 0.0
C1309 C 0.87668 0.12126 0.76387 0.0
C1310 C 0.8916 0.12328 0.78293 0.0
C1311 C 0.86283 0.24003 0.69876 0.0
C1312 C 0.83546 0.12848 0.74119 0.0
C1313 C 0.99419 0.21627 0.72311 0.0
C1314 C 0.99039 0.23769 0.73708 0.0
C1315 C 0.89327 0.20423 0.67179 0.0
C1316 C 0.82291 0.1852 0.60412 0.0
C1317 C 0.83397 0.17584 0.58638 0.0
C1318 C 0.82625 0.18332 0.5669 0.0
C1319 C 0.80772 0.20083 0.56548 0.0
C1320 C 0.80408 0.20225 0.60238 0.0
C1321 C 0.79668 0.21013 0.58312 0.0
C1322 C 0.81686 0.11117 0.67408 0.0
C1323 C 0.83108 0.17649 0.62416 0.0
H1324 H 0.82115 0.14944 0.77736 0.0
H1325 H 0.89302 0.13542 0.8146 0.0
H1326 H 0.88514 0.11225 0.75096 0.0
H1327 H 0.91107 0.11579 0.78455 0.0
H1328 H 0.84818 0.16229 0.58776 0.0
H1329 H 0.80203 0.20762 0.55074 0.0
H1330 H 0.79507 0.2094 0.61583 0.0
H1331 H 0.78234 0.22351 0.58186 0.0
C1332 C 0.38948 0.88706 0.04373 0.0
C1333 C 0.35954 0.88845 0.04919 0.0
C1334 C 0.41873 0.91537 0.0355 0.0
C1335 C 0.4191 0.94611 0.03237 0.0
H1336 H 0.39075 0.86423 0.0465 0.0
H1337 H 0.44168 0.91357 0.03258 0.0
S1338 S 0.34689 0.96257 0.04294 0.0
N1339 N 0.33162 0.92276 0.04994 0.0
N1340 N 0.38664 0.97589 0.03445 0.0
C1341 C 0.38892 0.94742 0.03698 0.0
C1342 C 0.35906 0.91858 0.04527 0.0
C1343 C 0.08278 0.4318 0.035 0.0
C1344 C 0.10963 0.45475 0.04811 0.0
C1345 C 0.05684 0.43833 0.02801 0.0
C1346 C 0.05714 0.46836 0.03346 0.0
H1347 H 0.08133 0.40816 0.03048 0.0
H1348 H 0.03599 0.41941 0.01861 0.0
S1349 S 0.12093 0.53661 0.06748 0.0
N1350 N 0.13451 0.50879 0.06631 0.0
N1351 N 0.08575 0.52098 0.05297 0.0
C1352 C 0.08389 0.49174 0.04631 0.0
C1353 C 0.11033 0.48513 0.0535 0.0
C1354 C 0.55133 0.65577 0.03165 0.0
C1355 C 0.55347 0.66276 0.05273 0.0
C1356 C 0.53882 0.62263 0.02432 0.0
C1357 C 0.52786 0.59524 0.03775 0.0
H1358 H 0.56001 0.67619 0.02071 0.0
H1359 H 0.53931 0.61883 1.00809 0.0
S1360 S 0.52745 0.5996 0.09429 0.0
N1361 N 0.54333 0.63936 0.08698 0.0
N1362 N 0.51898 0.57693 0.07308 0.0
C1363 C 0.52918 0.60169 0.05883 0.0
C1364 C 0.54202 0.63546 0.06635 0.0
C1365 C 0.87787 0.3511 0.98677 0.0
C1366 C 0.89069 0.32968 0.98063 0.0
C1367 C 0.90041 0.38431 0.99395 0.0
C1368 C 0.9366 0.39742 0.99496 0.0
H1369 H 0.85022 0.34203 0.98614 0.0
H1370 H 0.88949 0.40004 0.99833 0.0
S1371 S 0.98313 0.35132 0.98129 0.0
N1372 N 0.94191 0.32401 0.9762 0.0
N1373 N 0.9839 0.38577 0.99008 0.0
C1374 C 0.9496 0.37608 0.98912 0.0
C1375 C 0.92677 0.34241 0.98185 0.0
C1376 C 0.65091 0.57621 0.98854 0.0
C1377 C 0.65765 0.54959 0.98452 0.0
C1378 C 0.61774 0.56967 0.9944 0.0
C1379 C 0.59006 0.53629 0.99704 0.0
H1380 H 0.67124 0.60239 0.98658 0.0
H1381 H 0.61362 0.591 0.99682 0.0
S1382 S 0.59391 0.45752 0.98818 0.0
N1383 N 0.63387 0.48849 0.98362 0.0
N1384 N 0.57143 0.47622 0.99433 0.0
C1385 C 0.59641 0.50939 0.99312 0.0
C1386 C 0.63022 0.51606 0.987 0.0
C1387 C 0.46865 0.11412 0.98986 0.0
C1388 C 0.47838 0.12235 0.96931 0.0
C1389 C 0.4727 0.08897 0.99974 0.0
C1390 C 0.48649 0.07129 0.98933 0.0
H1391 H 0.45761 0.12701 0.9983 0.0
H1392 H 0.46452 0.08299 0.01545 0.0
S1393 S 0.51966 0.08592 0.93632 0.0
N1394 N 0.50505 0.11262 0.93953 0.0
N1395 N 0.5121 0.06518 0.95803 0.0
C1396 C 0.49683 0.07964 0.96897 0.0
C1397 C 0.49294 0.10525 0.95897 0.0
C1398 C 0.65389 0.06669 0.98758 0.0
C1399 C 0.66028 0.09944 0.98283 0.0
C1400 C 0.62085 0.04108 0.99357 0.0
C1401 C 0.59307 0.04737 0.99556 0.0
H1402 H 0.6743 0.06041 0.9859 0.0
H1403 H 0.6168 0.01587 0.99632 0.0
S1404 S 0.59644 0.1292 0.98572 0.0
N1405 N 0.63641 0.13718 0.9811 0.0
N1406 N 0.57415 0.08888 0.99246 0.0
C1407 C 0.59922 0.08022 0.99139 0.0
C1408 C 0.6329 0.10631 0.98503 0.0
C1409 C 0.88187 0.50271 0.98037 0.0
C1410 C 0.89276 0.53746 0.97822 0.0
C1411 C 0.90574 0.49198 0.98513 0.0
C1412 C 0.94116 0.51562 0.98827 0.0
H1413 H 0.85471 0.4837 0.97843 0.0
H1414 H 0.89646 0.46502 0.9864 0.0
S1415 S 0.98379 0.6089 0.98237 0.0
N1416 N 0.94215 0.59516 0.97812 0.0
N1417 N 0.98658 0.57475 0.98723 0.0
C1418 C 0.95259 0.55019 0.9856 0.0
C1419 C 0.92846 0.56119 0.9807 0.0
C1420 C 0.50363 0.36611 0.98847 0.0
C1421 C 0.4788 0.34918 0.97304 0.0
C1422 C 0.50548 0.39392 0.99891 0.0
C1423 C 0.48295 0.40634 0.99415 0.0
H1424 H 0.52217 0.35811 0.99228 0.0
H1425 H 0.52569 0.40643 1.01031 0.0
S1426 S 0.41206 0.36947 0.95537 0.0
N1427 N 0.43024 0.34553 0.9539 0.0
N1428 N 0.43363 0.39794 0.97339 0.0
C1429 C 0.45717 0.38878 0.97912 0.0
C1430 C 0.45513 0.36019 0.9686 0.0
C1431 C 0.09677 0.63919 0.05774 0.0
C1432 C 0.12844 0.65917 0.04755 0.0
C1433 C 0.07031 0.60886 0.04907 0.0
C1434 C 0.07442 0.59729 0.02982 0.0
H1435 H 0.09294 0.64628 0.07294 0.0
H1436 H 0.04701 0.59383 0.05794 0.0
S1437 S 0.15085 0.64299 0.99572 0.0
N1438 N 0.1612 0.66716 0.01639 0.0
N1439 N 0.11174 0.61034 1.00001 0.0
C1440 C 0.10536 0.61807 0.01902 0.0
C1441 C 0.13229 0.6489 0.0279 0.0
C1442 C 0.37978 0.48811 0.04644 0.0
C1443 C 0.35087 0.45543 0.04932 0.0
C1444 C 0.41228 0.49244 0.04051 0.0
C1445 C 0.41685 0.46421 0.03753 0.0
H1446 H 0.37722 0.51036 0.04875 0.0
H1447 H 0.43404 0.51795 0.03866 0.0
S1448 S 0.34973 0.37365 0.0437 0.0
N1449 N 0.32921 0.39464 0.04895 0.0
N1450 N 0.39013 0.40282 0.03831 0.0
C1451 C 0.38828 0.4316 0.04066 0.0
C1452 C 0.35528 0.42719 0.04632 0.0
C1453 C 0.57876 0.92318 0.05041 0.0
C1454 C 0.558 0.8876 0.04982 0.0
C1455 C 0.56634 0.94395 0.04311 0.0
C1456 C 0.53275 0.93004 0.03469 0.0
H1457 H 0.60487 0.9351 0.05668 0.0
H1458 H 0.58354 0.97117 0.04384 0.0
S1459 S 0.46777 0.83818 0.02993 0.0
N1460 N 0.50209 0.83912 0.0404 0.0
N1461 N 0.47855 0.87827 0.02663 0.0
C1462 C 0.51157 0.89443 0.03408 0.0
C1463 C 0.5242 0.8732 0.04171 0.0
C1464 C 0.04831 0.20848 0.37936 0.0
C1465 C 0.02466 0.21833 0.38644 0.0
C1466 C 0.08143 0.23258 0.37236 0.0
C1467 C 0.09167 0.26719 0.37159 0.0
H1468 H 0.04211 0.18228 0.38049 0.0
H1469 H 0.09969 0.22431 0.3683 0.0
S1470 S 0.03907 0.30607 0.38695 0.0
N1471 N 0.01328 0.26502 0.39099 0.0
N1472 N 0.07582 0.31027 0.3781 0.0
C1473 C 0.06798 0.27728 0.37784 0.0
C1474 C 0.03429 0.25282 0.38505 0.0
C1475 C 0.7812 0.82043 0.38041 0.0
C1476 C 0.77647 0.78768 0.38309 0.0
C1477 C 0.75315 0.825 0.37493 0.0
C1478 C 0.71946 0.79705 0.37207 0.0
H1479 H 0.8067 0.84261 0.38258 0.0
H1480 H 0.75767 0.85052 0.37344 0.0
S1481 S 0.69309 0.70634 0.37822 0.0
N1482 N 0.73531 0.72699 0.38298 0.0
N1483 N 0.68283 0.73576 0.37311 0.0
C1484 C 0.71438 0.76435 0.37513 0.0
C1485 C 0.74286 0.75962 0.38039 0.0
C1486 C 0.24762 0.98078 0.38033 0.0
C1487 C 0.22649 0.99565 0.38075 0.0
C1488 C 0.23423 0.94691 0.37433 0.0
C1489 C 0.19929 0.92666 0.36829 0.0
H1490 H 0.27476 0.99547 0.38475 0.0
H1491 H 0.25172 0.93683 0.37403 0.0
S1492 S 0.13299 0.95348 0.36693 0.0
N1493 N 0.16886 0.98768 0.37482 0.0
N1494 N 0.14354 0.92375 0.36349 0.0
C1495 C 0.17776 0.94115 0.36873 0.0
C1496 C 0.19138 0.97568 0.37503 0.0
C1497 C 0.55991 0.69696 0.30588 0.0
C1498 C 0.55411 0.66879 0.31764 0.0
C1499 C 0.58178 0.73033 0.313 0.0
C1500 C 0.59794 0.73647 0.33223 0.0
H1501 H 0.54835 0.69317 0.29083 0.0
H1502 H 0.5864 0.75145 0.30335 0.0
S1503 S 0.59033 0.67176 0.36913 0.0
N1504 N 0.56553 0.64944 0.34969 0.0
N1505 N 0.60666 0.71204 0.36288 0.0
C1506 C 0.59182 0.70865 0.34426 0.0
C1507 C 0.56984 0.6748 0.33701 0.0
C1508 C 0.2978 0.84835 0.31739 0.0
C1509 C 0.32632 0.88178 0.31629 0.0
C1510 C 0.26474 0.84203 0.32374 0.0
C1511 C 0.2592 0.86893 0.32921 0.0
H1512 H 0.30056 0.82711 0.31232 0.0
H1513 H 0.2431 0.81621 0.32329 0.0
S1514 S 0.32595 0.96015 0.33234 0.0
N1515 N 0.34739 0.9414 0.32418 0.0
N1516 N 0.28517 0.92954 0.33491 0.0
C1517 C 0.28772 0.90208 0.32916 0.0
C1518 C 0.32132 0.90848 0.32315 0.0
C1519 C 0.16596 0.45463 0.31462 0.0
C1520 C 0.13264 0.45111 0.31428 0.0
C1521 C 0.17258 0.43233 0.32567 0.0
C1522 C 0.14644 0.40614 0.33723 0.0
H1523 H 0.18683 0.47402 0.3056 0.0
H1524 H 0.19792 0.43452 0.32424 0.0
S1525 S 0.05544 0.3869 0.34259 0.0
N1526 N 0.07345 0.42005 0.32724 0.0
N1527 N 0.08647 0.37844 0.34852 0.0
C1528 C 0.11353 0.40326 0.33801 0.0
C1529 C 0.10653 0.42583 0.3265 0.0
C1530 C 0.29708 0.43748 0.31545 0.0
C1531 C 0.32679 0.43538 0.3204 0.0
C1532 C 0.26384 0.41239 0.32175 0.0
C1533 C 0.25924 0.38459 0.33338 0.0
H1534 H 0.29948 0.45831 0.3063 0.0
H1535 H 0.24146 0.41415 0.31695 0.0
S1536 S 0.32782 0.36607 0.34951 0.0
N1537 N 0.34903 0.40251 0.33726 0.0
N1538 N 0.2864 0.35535 0.3488 0.0
C1539 C 0.2885 0.38204 0.33836 0.0
C1540 C 0.32237 0.40762 0.33212 0.0
C1541 C 0.56136 0.84506 0.31954 0.0
C1542 C 0.56623 0.87766 0.31587 0.0
C1543 C 0.58924 0.84076 0.32592 0.0
C1544 C 0.62289 0.86893 0.32864 0.0
H1545 H 0.53587 0.82282 0.31756 0.0
H1546 H 0.58455 0.81528 0.32842 0.0
S1547 S 0.6495 0.95923 0.32019 0.0
N1548 N 0.60744 0.9383 0.315 0.0
N1549 N 0.65961 0.93014 0.32657 0.0
C1550 C 0.62808 0.90143 0.32463 0.0
C1551 C 0.59979 0.90584 0.31848 0.0
C1552 C 0.17106 0.70127 0.31184 0.0
C1553 C 0.13798 0.67711 0.30435 0.0
C1554 C 0.17695 0.73177 0.32076 0.0
C1555 C 0.15014 0.73955 0.3223 0.0
H1556 H 0.19283 0.69692 0.31046 0.0
H1557 H 0.20295 0.74967 0.32613 0.0
S1558 S 0.05798 0.68346 0.30715 0.0
N1559 N 0.07737 0.66187 0.30065 0.0
N1560 N 0.08873 0.71962 0.31704 0.0
C1561 C 0.11679 0.7154 0.3153 0.0
C1562 C 0.11065 0.68411 0.3064 0.0
C1563 C 0.76504 0.97749 0.39342 0.0
C1564 C 0.80018 0.98617 0.39378 0.0
C1565 C 0.73978 0.94771 0.38353 0.0
C1566 C 0.74882 0.92577 0.37339 0.0
H1567 H 0.75686 0.9933 0.40133 0.0
H1568 H 0.71293 0.94174 0.38401 0.0
S1569 S 0.83801 0.93841 0.36916 0.0
N1570 N 0.84311 0.97151 0.38252 0.0
N1571 N 0.79603 0.91574 0.36406 0.0
C1572 C 0.78417 0.93487 0.37321 0.0
C1573 C 0.80973 0.96497 0.38338 0.0
C1574 C 0.04571 0.81611 0.37629 0.0
C1575 C 0.01723 0.78287 0.37844 0.0
C1576 C 0.0783 0.82178 0.36943 0.0
C1577 C 0.08334 0.79437 0.36446 0.0
H1578 H 0.0433 0.83777 0.38089 0.0
H1579 H 0.1 0.84756 0.36901 0.0
S1580 S 0.01611 0.70315 0.3641 0.0
N1581 N 0.99543 0.72269 0.37223 0.0
N1582 N 0.05669 0.73337 0.36027 0.0
C1583 C 0.05472 0.76134 0.36551 0.0
C1584 C 0.02164 0.75558 0.37214 0.0
C1585 C 0.21013 0.22804 0.38991 0.0
C1586 C 0.23155 0.2216 0.37701 0.0
C1587 C 0.19709 0.24892 0.38364 0.0
C1588 C 0.20485 0.26389 0.36426 0.0
H1589 H 0.20428 0.21774 0.40519 0.0
H1590 H 0.18112 0.25368 0.39411 0.0
S1591 S 0.25814 0.25398 0.32436 0.0
N1592 N 0.25838 0.23061 0.3435 0.0
N1593 N 0.23447 0.27064 0.33207 0.0
C1594 C 0.22536 0.25707 0.35101 0.0
C1595 C 0.23864 0.23576 0.35733 0.0
C1596 C 0.72102 0.5588 0.71289 0.0
C1597 C 0.69027 0.55981 0.71668 0.0
C1598 C 0.75088 0.58709 0.70521 0.0
C1599 C 0.75126 0.61757 0.70119 0.0
H1600 H 0.72273 0.53659 0.71682 0.0
H1601 H 0.77427 0.58555 0.70345 0.0
S1602 S 0.67692 0.63255 0.70568 0.0
N1603 N 0.66121 0.59293 0.71322 0.0
N1604 N 0.71815 0.64669 0.70007 0.0
C1605 C 0.72058 0.61868 0.70415 0.0
C1606 C 0.68988 0.58965 0.71148 0.0
C1607 C 0.40784 0.09777 0.70967 0.0
C1608 C 0.44207 0.12439 0.71326 0.0
C1609 C 0.38141 0.10423 0.70363 0.0
C1610 C 0.38809 0.13753 0.70044 0.0
H1611 H 0.40115 0.07163 0.71202 0.0
H1612 H 0.35536 0.08288 0.70143 0.0
S1613 S 0.47293 0.21642 0.70841 0.0
N1614 N 0.48111 0.18552 0.71335 0.0
N1615 N 0.43118 0.19762 0.7025 0.0
C1616 C 0.42207 0.16447 0.70414 0.0
C1617 C 0.4491 0.1579 0.71036 0.0
C1618 C 0.91048 0.33592 0.70155 0.0
C1619 C 0.90098 0.34229 0.72091 0.0
C1620 C 0.89734 0.30263 0.69421 0.0
C1621 C 0.87452 0.27469 0.70605 0.0
H1622 H 0.92827 0.35684 0.69203 0.0
H1623 H 0.90565 0.2987 0.67939 0.0
S1624 S 0.84034 0.27712 0.75719 0.0
N1625 N 0.8667 0.31745 0.75155 0.0
N1626 N 0.84145 0.25505 0.73737 0.0
C1627 C 0.86416 0.28053 0.72513 0.0
C1628 C 0.87749 0.31432 0.73266 0.0
C1629 C 0.20659 0.02677 0.65837 0.0
C1630 C 0.21507 0.01089 0.64278 0.0
C1631 C 0.23093 0.05951 0.66536 0.0
C1632 C 0.26506 0.07717 0.65751 0.0
H1633 H 0.18093 0.01384 0.66514 0.0
H1634 H 0.22278 0.07088 0.67705 0.0
S1635 S 0.29947 0.04578 0.61607 0.0
N1636 N 0.25902 0.01486 0.61924 0.0
N1637 N 0.30522 0.07566 0.63264 0.0
C1638 C 0.27352 0.0613 0.64168 0.0
C1639 C 0.24846 0.02833 0.63431 0.0
C1640 C 0.98975 0.23829 0.66461 0.0
C1641 C 0.9907 0.21554 0.65021 0.0
C1642 C 0.95808 0.23369 0.6722 0.0
C1643 C 0.92621 0.20561 0.66621 0.0
H1644 H 0.01363 0.26059 0.66948 0.0
H1645 H 0.95848 0.25249 0.68264 0.0
S1646 S 0.91388 0.13826 0.62932 0.0
N1647 N 0.95652 0.16346 0.6306 0.0
N1648 N 0.89717 0.15507 0.64485 0.0
C1649 C 0.92664 0.18254 0.652 0.0
C1650 C 0.95882 0.18731 0.64412 0.0
C1651 C 0.82591 0.77706 0.6301 0.0
C1652 C 0.81113 0.79416 0.64025 0.0
C1653 C 0.82879 0.75115 0.63968 0.0
C1654 C 0.8174 0.74172 0.65981 0.0
H1655 H 0.83537 0.78379 0.61462 0.0
H1656 H 0.84076 0.73893 0.63143 0.0
S1657 S 0.7745 0.77645 0.69258 0.0
N1658 N 0.7837 0.79871 0.67135 0.0
N1659 N 0.78847 0.74927 0.68908 0.0
C1660 C 0.80174 0.75778 0.66997 0.0
C1661 C 0.79869 0.78417 0.66023 0.0
C1662 C 0.9853 0.73658 0.65577 0.0
C1663 C 0.99066 0.76856 0.64975 0.0
C1664 C 0.95296 0.71116 0.66281 0.0
C1665 C 0.92489 0.71691 0.66492 0.0
H1666 H 0.00605 0.73072 0.65456 0.0
H1667 H 0.9497 0.68648 0.66637 0.0
S1668 S 0.92495 0.79627 0.65218 0.0
N1669 N 0.96477 0.8046 0.64678 0.0
N1670 N 0.90439 0.757 0.66083 0.0
C1671 C 0.93005 0.7491 0.65987 0.0
C1672 C 0.9629 0.77496 0.65225 0.0
C1673 C 0.26935 0.24805 0.64675 0.0
C1674 C 0.23446 0.22171 0.64495 0.0
C1675 C 0.29593 0.24157 0.65233 0.0
C1676 C 0.28901 0.20851 0.6566 0.0
H1677 H 0.27643 0.27404 0.64343 0.0
H1678 H 0.32233 0.26277 0.6533 0.0
S1679 S 0.20268 0.12999 0.65321 0.0
N1680 N 0.19463 0.16082 0.64775 0.0
N1681 N 0.24502 0.14866 0.6573 0.0
C1682 C 0.25448 0.18171 0.65449 0.0
C1683 C 0.22716 0.18831 0.64894 0.0
C1684 C 0.80219 0.04313 0.63532 0.0
C1685 C 0.79623 0.01518 0.64729 0.0
C1686 C 0.80775 0.07343 0.64422 0.0
C1687 C 0.80795 0.07742 0.66557 0.0
H1688 H 0.80371 0.04209 0.61884 0.0
H1689 H 0.81307 0.09425 0.63412 0.0
S1690 S 0.79147 0.01125 0.70387 0.0
N1691 N 0.78892 0.99267 0.68166 0.0
N1692 N 0.80022 0.05021 0.69853 0.0
C1693 C 0.80145 0.04953 0.67782 0.0
C1694 C 0.79544 0.01835 0.66866 0.0
C1695 C 0.47512 0.30887 0.7061 0.0
C1696 C 0.46743 0.32672 0.7208 0.0
C1697 C 0.44868 0.27999 0.69632 0.0
C1698 C 0.41332 0.26742 0.70094 0.0
H1699 H 0.50191 0.31707 0.70229 0.0
H1700 H 0.45634 0.26693 0.6855 0.0
S1701 S 0.37951 0.30586 0.73815 0.0
N1702 N 0.42218 0.33058 0.73933 0.0
N1703 N 0.37225 0.27628 0.72096 0.0
C1704 C 0.40526 0.28565 0.71532 0.0
C1705 C 0.43234 0.31528 0.72522 0.0
C1706 C 0.69986 0.11556 0.715 0.0
C1707 C 0.6886 0.1392 0.71831 0.0
C1708 C 0.73454 0.12618 0.70994 0.0
C1709 C 0.75904 0.16077 0.70744 0.0
H1710 H 0.68192 0.08863 0.71688 0.0
H1711 H 0.7424 0.10725 0.70828 0.0
S1712 S 0.74332 0.23289 0.71419 0.0
N1713 N 0.70506 0.1989 0.71856 0.0
N1714 N 0.77024 0.21868 0.70912 0.0
C1715 C 0.74833 0.18466 0.71076 0.0
C1716 C 0.71306 0.17393 0.71601 0.0
C1717 C 0.88416 0.55922 0.6993 0.0
C1718 C 0.88731 0.5564 0.7205 0.0
C1719 C 0.87071 0.57889 0.69142 0.0
C1720 C 0.85976 0.59637 0.7044 0.0
H1721 H 0.89299 0.5468 0.68868 0.0
H1722 H 0.87063 0.58173 0.67509 0.0
S1723 S 0.86017 0.59567 0.76104 0.0
N1724 N 0.87713 0.57197 0.75436 0.0
N1725 N 0.85068 0.60784 0.73946 0.0
C1726 C 0.86138 0.59266 0.7256 0.0
C1727 C 0.87529 0.57284 0.73367 0.0
C1728 C 0.52658 0.98759 0.1868 0.0
C1729 C 0.49493 0.95708 0.18968 0.0
C1730 C 0.53469 0.00493 0.16819 0.0
C1731 C 0.51145 0.99293 0.15151 0.0
H1732 H 0.54497 0.99898 0.19927 0.0
H1733 H 0.55934 0.02838 0.167 0.0
S1734 S 0.42595 0.91301 0.15036 0.0
N1735 N 0.44121 0.9142 0.17353 0.0
N1736 N 0.45567 0.94774 0.1389 0.0
C1737 C 0.48008 0.96192 0.15388 0.0
C1738 C 0.47197 0.94392 0.17285 0.0
C1739 C 0.03949 0.49717 0.16832 0.0
C1740 C 0.03433 0.51349 0.18517 0.0
C1741 C 0.0194 0.48999 0.15052 0.0
C1742 C 0.9934 0.49891 0.14886 0.0
H1743 H 0.05932 0.48996 0.16889 0.0
H1744 H 0.02428 0.47736 0.13794 0.0
S1745 S 0.97082 0.54367 0.18822 0.0
N1746 N 1.00203 0.53926 0.19886 0.0
N1747 N 0.96431 0.52588 0.16537 0.0
C1748 C 0.98788 0.51514 0.16562 0.0
C1749 C 0.00832 0.5224 0.18377 0.0
C1750 C 0.47393 0.49541 0.17934 0.0
C1751 C 0.49776 0.51762 0.19405 0.0
C1752 C 0.48513 0.49135 0.15998 0.0
C1753 C 0.52062 0.50893 0.1548 0.0
H1754 H 0.44649 0.48073 0.18292 0.0
H1755 H 0.46606 0.47345 0.14927 0.0
S1756 S 0.59329 0.57092 0.18747 0.0
N1757 N 0.55838 0.55803 0.2018 0.0
N1758 N 0.57925 0.55049 0.16549 0.0
C1759 C 0.54454 0.53182 0.16915 0.0
C1760 C 0.53316 0.53616 0.18874 0.0
C1761 C 0.99459 0.47687 0.85661 0.0
C1762 C 1.0014 0.50419 0.84367 0.0
C1763 C 0.01065 0.48243 0.8758 0.0
C1764 C 0.03371 0.51549 0.88286 0.0
H1765 H 0.97737 0.45092 0.85165 0.0
H1766 H 0.00571 0.46073 0.88499 0.0
S1767 S 0.06007 0.59574 0.85557 0.0
N1768 N 0.03294 0.56573 0.8397 0.0
N1769 N 0.06204 0.57584 0.87609 0.0
C1770 C 0.03979 0.54304 0.8706 0.0
C1771 C 0.02383 0.53748 0.85094 0.0
C1772 C 0.54448 0.48925 0.86187 0.0
C1773 C 0.52461 0.47769 0.84379 0.0
C1774 C 0.53154 0.49681 0.87946 0.0
C1775 C 0.49803 0.49291 0.87981 0.0
H1776 H 0.57023 0.49222 0.86256 0.0
H1777 H 0.54817 0.50617 0.89283 0.0
S1778 S 0.43514 0.46306 0.83661 0.0
N1779 N 0.46985 0.4635 0.82725 0.0
N1780 N 0.44474 0.47556 0.86062 0.0
C1781 C 0.47769 0.48101 0.86191 0.0
C1782 C 0.4911 0.47386 0.84389 0.0
C1783 C 0.53629 0.0427 0.85278 0.0
C1784 C 0.51131 0.03471 0.83723 0.0
C1785 C 0.52743 0.0252 0.87148 0.0
C1786 C 0.4933 0.99877 0.8753 0.0
H1787 H 0.56304 0.06236 0.85038 0.0
H1788 H 0.54771 0.03164 0.88273 0.0
S1789 S 0.41777 0.96885 0.84022 0.0
N1790 N 0.45065 0.99882 0.82734 0.0
N1791 N 0.43401 0.96692 0.8625 0.0
C1792 C 0.4679 0.9913 0.86019 0.0
C1793 C 0.47686 0.00899 0.84119 0.0
C1794 C 0.13628 0.31139 0.51023 0.0
C1795 C 0.16001 0.30831 0.52315 0.0
C1796 C 0.14677 0.32849 0.49143 0.0
C1797 C 0.18147 0.34341 0.4848 0.0
H1798 H 0.10949 0.30112 0.51489 0.0
H1799 H 0.1279 0.33133 0.48246 0.0
S1800 S 0.25336 0.34048 0.51186 0.0
N1801 N 0.21971 0.32068 0.52724 0.0
N1802 N 0.23884 0.35144 0.49179 0.0
C1803 C 0.20501 0.33906 0.49704 0.0
C1804 C 0.19446 0.32187 0.51618 0.0
C1805 C 0.68391 0.86894 0.52108 0.0
C1806 C 0.70666 0.85613 0.52353 0.0
C1807 C 0.66343 0.86172 0.50343 0.0
C1808 C 0.6649 0.84134 0.48763 0.0
H1809 H 0.6828 0.88562 0.53257 0.0
H1810 H 0.64716 0.87307 0.50187 0.0
S1811 S 0.71711 0.79822 0.48785 0.0
N1812 N 0.72743 0.81992 0.50954 0.0
N1813 N 0.68864 0.80595 0.47647 0.0
C1814 C 0.68652 0.82725 0.49031 0.0
C1815 C 0.70746 0.83473 0.50822 0.0
C1816 C 0.19278 0.84903 0.52029 0.0
C1817 C 0.16148 0.84924 0.5233 0.0
C1818 C 0.20127 0.84086 0.5013 0.0
C1819 C 0.17866 0.83193 0.48441 0.0
H1820 H 0.21072 0.85445 0.53284 0.0
H1821 H 0.22579 0.8413 0.49993 0.0
S1822 S 0.09381 0.82955 0.4838 0.0
N1823 N 0.10857 0.84162 0.50729 0.0
N1824 N 0.12343 0.82403 0.47195 0.0
C1825 C 0.14739 0.8324 0.48706 0.0
C1826 C 0.13902 0.84139 0.50639 0.0
C1827 C 0.64061 0.80003 0.18926 0.0
C1828 C 0.65712 0.82516 0.17429 0.0
C1829 C 0.65536 0.80387 0.20874 0.0
C1830 C 0.68736 0.83275 0.21379 0.0
H1831 H 0.61645 0.77696 0.18575 0.0
H1832 H 0.64227 0.78358 0.21967 0.0
S1833 S 0.74025 0.90648 0.18043 0.0
N1834 N 0.70664 0.8804 0.16611 0.0
N1835 N 0.73417 0.88761 0.20273 0.0
C1836 C 0.70359 0.85847 0.19918 0.0
C1837 C 0.68849 0.8547 0.17944 0.0
C1838 C 0.15593 0.8003 0.17561 0.0
C1839 C 0.19167 0.81264 0.17267 0.0
C1840 C 0.14359 0.80781 0.19348 0.0
C1841 C 0.16644 0.82769 0.20925 0.0
H1842 H 0.13732 0.78478 0.16394 0.0
H1843 H 0.11583 0.79755 0.19508 0.0
S1844 S 0.26244 0.86608 0.20918 0.0
N1845 N 0.24978 0.84553 0.18714 0.0
N1846 N 0.22665 0.86002 0.2206 0.0
C1847 C 0.20226 0.84025 0.2065 0.0
C1848 C 0.21485 0.83272 0.18825 0.0
C1849 C 0.18674 0.34145 0.17708 0.0
C1850 C 0.18956 0.37329 0.17366 0.0
C1851 C 0.17557 0.32492 0.19589 0.0
C1852 C 0.16673 0.33945 0.21221 0.0
H1853 H 0.19206 0.32852 0.16488 0.0
H1854 H 0.17332 0.3002 0.19756 0.0
S1855 S 0.17165 0.4234 0.21175 0.0
N1856 N 0.18452 0.41969 0.1887 0.0
N1857 N 0.16277 0.38826 0.22392 0.0
C1858 C 0.17048 0.37178 0.20928 0.0
C1859 C 0.18191 0.38869 0.19005 0.0
C1860 C 0.85789 0.65707 0.8555 0.0
C1861 C 0.8233 0.63208 0.85973 0.0
C1862 C 0.86718 0.67389 0.83672 0.0
C1863 C 0.84236 0.66655 0.82123 0.0
H1864 H 0.87791 0.66457 0.86707 0.0
H1865 H 0.89409 0.69324 0.83441 0.0
S1866 S 0.74857 0.60174 0.82393 0.0
N1867 N 0.76438 0.59941 0.84631 0.0
N1868 N 0.78174 0.63159 0.81112 0.0
C1869 C 0.80784 0.64088 0.82495 0.0
C1870 C 0.79833 0.62366 0.84416 0.0
C1871 C 0.35818 0.20698 0.84886 0.0
C1872 C 0.38393 0.19768 0.84971 0.0
C1873 C 0.33658 0.19921 0.83166 0.0
C1874 C 0.33981 0.18164 0.81478 0.0
H1875 H 0.35533 0.22113 0.86135 0.0
H1876 H 0.31779 0.20777 0.83138 0.0
S1877 S 0.40065 0.1482 0.81071 0.0
N1878 N 0.40998 0.16805 0.83301 0.0
N1879 N 0.36888 0.15259 0.8009 0.0
C1880 C 0.36469 0.17113 0.81584 0.0
C1881 C 0.38686 0.17936 0.83325 0.0
C1882 C 0.80062 0.15012 0.84075 0.0
C1883 C 0.82557 0.17297 0.85483 0.0
C1884 C 0.81052 0.14226 0.82199 0.0
C1885 C 0.84579 0.1568 0.8166 0.0
H1886 H 0.7732 0.13764 0.84444 0.0
H1887 H 0.79048 0.12361 0.81203 0.0
S1888 S 0.92133 0.22001 0.84709 0.0
N1889 N 0.88728 0.21097 0.86145 0.0
N1890 N 0.90552 0.19723 0.82602 0.0
C1891 C 0.87086 0.18086 0.83005 0.0
C1892 C 0.86088 0.1887 0.84916 0.0
C1893 C 0.3568 0.18822 0.50689 0.0
C1894 C 0.32661 0.15763 0.50157 0.0
C1895 C 0.3714 0.19328 0.52646 0.0
C1896 C 0.35617 0.16808 0.54149 0.0
H1897 H 0.36999 0.20793 0.49563 0.0
H1898 H 0.39508 0.21694 0.52979 0.0
S1899 S 0.27579 0.08431 0.53565 0.0
N1900 N 0.281 0.10246 0.51316 0.0
N1901 N 0.30856 0.11192 0.54998 0.0
C1902 C 0.32532 0.13784 0.53659 0.0
C1903 C 0.31057 0.1326 0.51661 0.0
C1904 C 0.8838 0.17032 0.5291 0.0
C1905 C 0.86125 0.15354 0.51254 0.0
C1906 C 0.87233 0.1799 0.54653 0.0
C1907 C 0.83782 0.17309 0.54814 0.0
H1908 H 0.91065 0.17626 0.52852 0.0
H1909 H 0.89072 0.19301 0.5588 0.0
S1910 S 0.76776 0.12754 0.50972 0.0
N1911 N 0.8024 0.12917 0.49928 0.0
N1912 N 0.78077 0.14707 0.53204 0.0
C1913 C 0.81493 0.15611 0.53176 0.0
C1914 C 0.82665 0.14639 0.51399 0.0
C1915 C 0.86851 0.68906 0.51174 0.0
C1916 C 0.85667 0.71155 0.50654 0.0
C1917 C 0.85959 0.67181 0.53043 0.0
C1918 C 0.83902 0.67685 0.54481 0.0
H1919 H 0.88354 0.68362 0.5009 0.0
H1920 H 0.86822 0.65381 0.53349 0.0
S1921 S 0.80362 0.7349 0.53927 0.0
N1922 N 0.8247 0.73916 0.5177 0.0
N1923 N 0.80849 0.7072 0.55302 0.0
C1924 C 0.82831 0.70038 0.54021 0.0
C1925 C 0.83693 0.71755 0.52102 0.0
loop_
_geom_bond_atom_site_label_1
_geom_bond_atom_site_label_2
_geom_bond_distance
_geom_bond_site_symmetry_2
_ccdc_geom_bond_type
P0 O11 1.490 . S
P0 C14 1.812 . S
P0 C20 1.803 . S
P0 C26 1.819 . S
H1 C15 0.941 . S
H2 C16 0.939 . S
H3 C18 0.940 . S
H4 C19 0.940 . S
H5 C21 0.939 . S
H6 C22 0.942 . S
H7 C24 0.940 . S
H8 C25 0.939 . S
H9 C27 0.941 . S
H10 C31 0.939 . S
O11 P0 1.490 . S
H12 C28 0.939 . S
H13 C30 0.940 . S
C14 P0 1.812 . S
C14 C15 1.389 . S
C14 C19 1.391 . S
C15 H1 0.941 . S
C15 C14 1.389 . S
C15 C16 1.397 . S
C16 H2 0.939 . S
C16 C15 1.397 . S
C16 C17 1.378 . S
C17 C16 1.378 . S
C17 C18 1.378 . S
C18 H3 0.940 . S
C18 C17 1.378 . S
C18 C19 1.396 . S
C19 H4 0.940 . S
C19 C14 1.391 . S
C19 C18 1.396 . S
C20 P0 1.803 . S
C20 C21 1.378 . S
C20 C25 1.400 . S
C21 H5 0.939 . S
C21 C20 1.378 . S
C21 C22 1.361 . S
C22 H6 0.942 . S
C22 C21 1.361 . S
C22 C23 1.369 . S
C23 C22 1.369 . S
C23 C24 1.404 . S
C24 H7 0.940 . S
C24 C23 1.404 . S
C24 C25 1.389 . S
C25 H8 0.939 . S
C25 C20 1.400 . S
C25 C24 1.389 . S
C26 P0 1.819 . S
C26 C27 1.391 . S
C26 C31 1.391 . S
C27 H9 0.941 . S
C27 C26 1.391 . S
C27 C28 1.396 . S
C28 H12 0.939 . S
C28 C27 1.396 . S
C28 C29 1.397 . S
C29 C28 1.397 . S
C29 C30 1.385 . S
C30 H13 0.940 . S
C30 C29 1.385 . S
C30 C31 1.388 . S
C31 H10 0.939 . S
C31 C26 1.391 . S
C31 C30 1.388 . S
P32 O43 1.490 . S
P32 C46 1.812 . S
P32 C52 1.803 . S
P32 C58 1.819 . S
H33 C47 0.941 . S
H34 C48 0.939 . S
H35 C50 0.940 . S
H36 C51 0.940 . S
H37 C53 0.939 . S
H38 C54 0.942 1_455 S
H39 C56 0.940 . S
H40 C57 0.939 . S
H41 C59 0.941 . S
H42 C63 0.939 . S
O43 P32 1.490 . S
H44 C60 0.939 . S
H45 C62 0.940 . S
C46 P32 1.812 . S
C46 C47 1.389 . S
C46 C51 1.391 . S
C47 H33 0.941 . S
C47 C46 1.389 . S
C47 C48 1.397 . S
C48 H34 0.939 . S
C48 C47 1.397 . S
C48 C49 1.378 . S
C49 C48 1.378 . S
C49 C50 1.378 . S
C50 H35 0.940 . S
C50 C49 1.378 . S
C50 C51 1.396 . S
C51 H36 0.940 . S
C51 C46 1.391 . S
C51 C50 1.396 . S
C52 P32 1.803 . S
C52 C53 1.378 . S
C52 C57 1.400 . S
C53 H37 0.939 . S
C53 C52 1.378 . S
C53 C54 1.361 . S
C54 H38 0.942 1_655 S
C54 C53 1.361 . S
C54 C55 1.369 . S
C55 C54 1.369 . S
C55 C56 1.404 . S
C56 H39 0.940 . S
C56 C55 1.404 . S
C56 C57 1.389 . S
C57 H40 0.939 . S
C57 C52 1.400 . S
C57 C56 1.389 . S
C58 P32 1.819 . S
C58 C59 1.391 . S
C58 C63 1.391 . S
C59 H41 0.941 . S
C59 C58 1.391 . S
C59 C60 1.396 . S
C60 H44 0.939 . S
C60 C59 1.396 . S
C60 C61 1.397 . S
C61 C60 1.397 . S
C61 C62 1.385 . S
C62 H45 0.940 . S
C62 C61 1.385 . S
C62 C63 1.388 . S
C63 H42 0.939 . S
C63 C58 1.391 . S
C63 C62 1.388 . S
P64 O75 1.490 . S
P64 C78 1.812 . S
P64 C84 1.803 . S
P64 C90 1.819 . S
H65 C79 0.941 . S
H66 C80 0.939 . S
H67 C82 0.940 . S
H68 C83 0.940 . S
H69 C85 0.939 . S
H70 C86 0.942 . S
H71 C88 0.940 . S
H72 C89 0.939 . S
H73 C91 0.941 . S
H74 C95 0.939 . S
O75 P64 1.490 . S
H76 C92 0.939 . S
H77 C94 0.940 . S
C78 P64 1.812 . S
C78 C79 1.389 . S
C78 C83 1.391 . S
C79 H65 0.941 . S
C79 C78 1.389 . S
C79 C80 1.397 . S
C80 H66 0.939 . S
C80 C79 1.397 . S
C80 C81 1.378 . S
C81 C80 1.378 . S
C81 C82 1.378 . S
C82 H67 0.940 . S
C82 C81 1.378 . S
C82 C83 1.396 . S
C83 H68 0.940 . S
C83 C78 1.391 . S
C83 C82 1.396 . S
C84 P64 1.803 . S
C84 C85 1.378 . S
C84 C89 1.400 . S
C85 H69 0.939 . S
C85 C84 1.378 . S
C85 C86 1.361 . S
C86 H70 0.942 . S
C86 C85 1.361 . S
C86 C87 1.369 . S
C87 C86 1.369 . S
C87 C88 1.404 . S
C88 H71 0.940 . S
C88 C87 1.404 . S
C88 C89 1.389 . S
C89 H72 0.939 . S
C89 C84 1.400 . S
C89 C88 1.389 . S
C90 P64 1.819 . S
C90 C91 1.391 . S
C90 C95 1.391 . S
C91 H73 0.941 . S
C91 C90 1.391 . S
C91 C92 1.396 . S
C92 H76 0.939 . S
C92 C91 1.396 . S
C92 C93 1.397 . S
C93 C92 1.397 . S
C93 C94 1.385 . S
C94 H77 0.940 . S
C94 C93 1.385 . S
C94 C95 1.388 . S
C95 H74 0.939 . S
C95 C90 1.391 . S
C95 C94 1.388 . S
P96 O107 1.490 . S
P96 C110 1.812 . S
P96 C116 1.803 . S
P96 C122 1.819 . S
H97 C111 0.941 . S
H98 C112 0.939 . S
H99 C114 0.940 . S
H100 C115 0.940 . S
H101 C117 0.939 . S
H102 C118 0.942 . S
H103 C120 0.940 . S
H104 C121 0.939 . S
H105 C123 0.941 . S
H106 C127 0.939 . S
O107 P96 1.490 . S
H108 C124 0.939 . S
H109 C126 0.940 . S
C110 P96 1.812 . S
C110 C111 1.389 . S
C110 C115 1.391 . S
C111 H97 0.941 . S
C111 C110 1.389 . S
C111 C112 1.397 . S
C112 H98 0.939 . S
C112 C111 1.397 . S
C112 C113 1.378 . S
C113 C112 1.378 . S
C113 C114 1.378 . S
C114 H99 0.940 . S
C114 C113 1.378 . S
C114 C115 1.396 . S
C115 H100 0.940 . S
C115 C110 1.391 . S
C115 C114 1.396 . S
C116 P96 1.803 . S
C116 C117 1.378 . S
C116 C121 1.400 . S
C117 H101 0.939 . S
C117 C116 1.378 . S
C117 C118 1.361 . S
C118 H102 0.942 . S
C118 C117 1.361 . S
C118 C119 1.369 . S
C119 C118 1.369 . S
C119 C120 1.404 . S
C120 H103 0.940 . S
C120 C119 1.404 . S
C120 C121 1.389 . S
C121 H104 0.939 . S
C121 C116 1.400 . S
C121 C120 1.389 . S
C122 P96 1.819 . S
C122 C123 1.391 . S
C122 C127 1.391 . S
C123 H105 0.941 . S
C123 C122 1.391 . S
C123 C124 1.396 . S
C124 H108 0.939 . S
C124 C123 1.396 . S
C124 C125 1.397 . S
C125 C124 1.397 . S
C125 C126 1.385 . S
C126 H109 0.940 . S
C126 C125 1.385 . S
C126 C127 1.388 . S
C127 H106 0.939 . S
C127 C122 1.391 . S
C127 C126 1.388 . S
P128 O139 1.490 . S
P128 C142 1.812 . S
P128 C148 1.803 . S
P128 C154 1.819 . S
H129 C143 0.941 . S
H130 C144 0.939 . S
H131 C146 0.940 . S
H132 C147 0.940 . S
H133 C149 0.939 . S
H134 C150 0.942 . S
H135 C152 0.940 . S
H136 C153 0.939 . S
H137 C155 0.941 . S
H138 C159 0.939 . S
O139 P128 1.490 . S
H140 C156 0.939 . S
H141 C158 0.940 . S
C142 P128 1.812 . S
C142 C143 1.389 . S
C142 C147 1.391 . S
C143 H129 0.941 . S
C143 C142 1.389 . S
C143 C144 1.397 . S
C144 H130 0.939 . S
C144 C143 1.397 . S
C144 C145 1.378 . S
C145 C144 1.378 . S
C145 C146 1.378 . S
C146 H131 0.940 . S
C146 C145 1.378 . S
C146 C147 1.396 . S
C147 H132 0.940 . S
C147 C142 1.391 . S
C147 C146 1.396 . S
C148 P128 1.803 . S
C148 C149 1.378 . S
C148 C153 1.400 . S
C149 H133 0.939 . S
C149 C148 1.378 . S
C149 C150 1.361 . S
C150 H134 0.942 . S
C150 C149 1.361 . S
C150 C151 1.369 . S
C151 C150 1.369 . S
C151 C152 1.404 . S
C152 H135 0.940 . S
C152 C151 1.404 . S
C152 C153 1.389 . S
C153 H136 0.939 . S
C153 C148 1.400 . S
C153 C152 1.389 . S
C154 P128 1.819 . S
C154 C155 1.391 . S
C154 C159 1.391 . S
C155 H137 0.941 . S
C155 C154 1.391 . S
C155 C156 1.396 . S
C156 H140 0.939 . S
C156 C155 1.396 . S
C156 C157 1.397 . S
C157 C156 1.397 . S
C157 C158 1.385 . S
C158 H141 0.940 . S
C158 C157 1.385 . S
C158 C159 1.388 . S
C159 H138 0.939 . S
C159 C154 1.391 . S
C159 C158 1.388 . S
P160 O171 1.490 . S
P160 C174 1.812 . S
P160 C180 1.803 . S
P160 C186 1.819 . S
H161 C175 0.941 . S
H162 C176 0.939 . S
H163 C178 0.940 . S
H164 C179 0.940 . S
H165 C181 0.939 . S
H166 C182 0.942 . S
H167 C184 0.940 . S
H168 C185 0.939 . S
H169 C187 0.941 . S
H170 C191 0.939 . S
O171 P160 1.490 . S
H172 C188 0.939 . S
H173 C190 0.940 . S
C174 P160 1.812 . S
C174 C175 1.389 . S
C174 C179 1.391 . S
C175 H161 0.941 . S
C175 C174 1.389 . S
C175 C176 1.397 . S
C176 H162 0.939 . S
C176 C175 1.397 . S
C176 C177 1.378 . S
C177 C176 1.378 . S
C177 C178 1.378 . S
C178 H163 0.940 . S
C178 C177 1.378 . S
C178 C179 1.396 . S
C179 H164 0.940 . S
C179 C174 1.391 . S
C179 C178 1.396 . S
C180 P160 1.803 . S
C180 C181 1.378 . S
C180 C185 1.400 . S
C181 H165 0.939 . S
C181 C180 1.378 . S
C181 C182 1.361 . S
C182 H166 0.942 . S
C182 C181 1.361 . S
C182 C183 1.369 . S
C183 C182 1.369 . S
C183 C184 1.404 . S
C184 H167 0.940 . S
C184 C183 1.404 . S
C184 C185 1.389 . S
C185 H168 0.939 . S
C185 C180 1.400 . S
C185 C184 1.389 . S
C186 P160 1.819 . S
C186 C187 1.391 . S
C186 C191 1.391 . S
C187 H169 0.941 . S
C187 C186 1.391 . S
C187 C188 1.396 . S
C188 H172 0.939 . S
C188 C187 1.396 . S
C188 C189 1.397 . S
C189 C188 1.397 . S
C189 C190 1.385 . S
C190 H173 0.940 . S
C190 C189 1.385 . S
C190 C191 1.388 . S
C191 H170 0.939 . S
C191 C186 1.391 . S
C191 C190 1.388 . S
P192 O203 1.490 . S
P192 C206 1.812 . S
P192 C212 1.803 . S
P192 C218 1.819 . S
H193 C207 0.941 . S
H194 C208 0.939 . S
H195 C210 0.940 . S
H196 C211 0.940 . S
H197 C213 0.939 . S
H198 C214 0.942 . S
H199 C216 0.940 . S
H200 C217 0.939 . S
H201 C219 0.941 . S
H202 C223 0.939 . S
O203 P192 1.490 . S
H204 C220 0.939 . S
H205 C222 0.940 . S
C206 P192 1.812 . S
C206 C207 1.389 . S
C206 C211 1.391 . S
C207 H193 0.941 . S
C207 C206 1.389 . S
C207 C208 1.397 . S
C208 H194 0.939 . S
C208 C207 1.397 . S
C208 C209 1.378 . S
C209 C208 1.378 . S
C209 C210 1.378 . S
C210 H195 0.940 . S
C210 C209 1.378 . S
C210 C211 1.396 . S
C211 H196 0.940 . S
C211 C206 1.391 . S
C211 C210 1.396 . S
C212 P192 1.803 . S
C212 C213 1.378 . S
C212 C217 1.400 . S
C213 H197 0.939 . S
C213 C212 1.378 . S
C213 C214 1.361 . S
C214 H198 0.942 . S
C214 C213 1.361 . S
C214 C215 1.369 . S
C215 C214 1.369 . S
C215 C216 1.404 . S
C216 H199 0.940 . S
C216 C215 1.404 . S
C216 C217 1.389 . S
C217 H200 0.939 . S
C217 C212 1.400 . S
C217 C216 1.389 . S
C218 P192 1.819 . S
C218 C219 1.391 . S
C218 C223 1.391 . S
C219 H201 0.941 . S
C219 C218 1.391 . S
C219 C220 1.396 . S
C220 H204 0.939 . S
C220 C219 1.396 . S
C220 C221 1.397 . S
C221 C220 1.397 . S
C221 C222 1.385 . S
C222 H205 0.940 . S
C222 C221 1.385 . S
C222 C223 1.388 . S
C223 H202 0.939 . S
C223 C218 1.391 . S
C223 C222 1.388 . S
P224 O235 1.490 . S
P224 C238 1.812 . S
P224 C244 1.803 . S
P224 C250 1.819 . S
H225 C239 0.941 . S
H226 C240 0.939 . S
H227 C242 0.940 . S
H228 C243 0.940 . S
H229 C245 0.939 . S
H230 C246 0.942 . S
H231 C248 0.940 . S
H232 C249 0.939 . S
H233 C251 0.941 . S
H234 C255 0.939 . S
O235 P224 1.490 . S
H236 C252 0.939 . S
H237 C254 0.940 . S
C238 P224 1.812 . S
C238 C239 1.389 . S
C238 C243 1.391 . S
C239 H225 0.941 . S
C239 C238 1.389 . S
C239 C240 1.397 . S
C240 H226 0.939 . S
C240 C239 1.397 . S
C240 C241 1.378 . S
C241 C240 1.378 . S
C241 C242 1.378 . S
C242 H227 0.940 . S
C242 C241 1.378 . S
C242 C243 1.396 . S
C243 H228 0.940 . S
C243 C238 1.391 . S
C243 C242 1.396 . S
C244 P224 1.803 . S
C244 C245 1.378 . S
C244 C249 1.400 . S
C245 H229 0.939 . S
C245 C244 1.378 . S
C245 C246 1.361 . S
C246 H230 0.942 . S
C246 C245 1.361 . S
C246 C247 1.369 . S
C247 C246 1.369 . S
C247 C248 1.404 . S
C248 H231 0.940 . S
C248 C247 1.404 . S
C248 C249 1.389 . S
C249 H232 0.939 . S
C249 C244 1.400 . S
C249 C248 1.389 . S
C250 P224 1.819 . S
C250 C251 1.391 . S
C250 C255 1.391 . S
C251 H233 0.941 . S
C251 C250 1.391 . S
C251 C252 1.396 . S
C252 H236 0.939 . S
C252 C251 1.396 . S
C252 C253 1.397 . S
C253 C252 1.397 . S
C253 C254 1.385 . S
C254 H237 0.940 . S
C254 C253 1.385 . S
C254 C255 1.388 . S
C255 H234 0.939 . S
C255 C250 1.391 . S
C255 C254 1.388 . S
P256 O267 1.490 . S
P256 C270 1.812 . S
P256 C276 1.803 . S
P256 C282 1.819 . S
H257 C271 0.941 . S
H258 C272 0.939 . S
H259 C274 0.940 . S
H260 C275 0.940 . S
H261 C277 0.939 . S
H262 C278 0.942 . S
H263 C280 0.940 . S
H264 C281 0.939 . S
H265 C283 0.941 . S
H266 C287 0.939 . S
O267 P256 1.490 . S
H268 C284 0.939 . S
H269 C286 0.940 . S
C270 P256 1.812 . S
C270 C271 1.389 . S
C270 C275 1.391 . S
C271 H257 0.941 . S
C271 C270 1.389 . S
C271 C272 1.397 . S
C272 H258 0.939 . S
C272 C271 1.397 . S
C272 C273 1.378 . S
C273 C272 1.378 . S
C273 C274 1.378 . S
C274 H259 0.940 . S
C274 C273 1.378 . S
C274 C275 1.396 . S
C275 H260 0.940 . S
C275 C270 1.391 . S
C275 C274 1.396 . S
C276 P256 1.803 . S
C276 C277 1.378 . S
C276 C281 1.400 . S
C277 H261 0.939 . S
C277 C276 1.378 . S
C277 C278 1.361 . S
C278 H262 0.942 . S
C278 C277 1.361 . S
C278 C279 1.369 . S
C279 C278 1.369 . S
C279 C280 1.404 . S
C280 H263 0.940 . S
C280 C279 1.404 . S
C280 C281 1.389 . S
C281 H264 0.939 . S
C281 C276 1.400 . S
C281 C280 1.389 . S
C282 P256 1.819 . S
C282 C283 1.391 . S
C282 C287 1.391 . S
C283 H265 0.941 . S
C283 C282 1.391 . S
C283 C284 1.396 . S
C284 H268 0.939 . S
C284 C283 1.396 . S
C284 C285 1.397 . S
C285 C284 1.397 . S
C285 C286 1.385 . S
C286 H269 0.940 . S
C286 C285 1.385 . S
C286 C287 1.388 . S
C287 H266 0.939 . S
C287 C282 1.391 . S
C287 C286 1.388 . S
P288 O299 1.490 . S
P288 C302 1.812 . S
P288 C308 1.803 . S
P288 C314 1.819 . S
H289 C303 0.941 . S
H290 C304 0.939 . S
H291 C306 0.940 . S
H292 C307 0.940 . S
H293 C309 0.939 . S
H294 C310 0.942 . S
H295 C312 0.940 . S
H296 C313 0.939 . S
H297 C315 0.941 . S
H298 C319 0.939 . S
O299 P288 1.490 . S
H300 C316 0.939 . S
H301 C318 0.940 . S
C302 P288 1.812 . S
C302 C303 1.389 . S
C302 C307 1.391 . S
C303 H289 0.941 . S
C303 C302 1.389 . S
C303 C304 1.397 . S
C304 H290 0.939 . S
C304 C303 1.397 . S
C304 C305 1.378 . S
C305 C304 1.378 . S
C305 C306 1.378 . S
C306 H291 0.940 . S
C306 C305 1.378 . S
C306 C307 1.396 . S
C307 H292 0.940 . S
C307 C302 1.391 . S
C307 C306 1.396 . S
C308 P288 1.803 . S
C308 C309 1.378 . S
C308 C313 1.400 . S
C309 H293 0.939 . S
C309 C308 1.378 . S
C309 C310 1.361 . S
C310 H294 0.942 . S
C310 C309 1.361 . S
C310 C311 1.369 . S
C311 C310 1.369 . S
C311 C312 1.404 . S
C312 H295 0.940 . S
C312 C311 1.404 . S
C312 C313 1.389 . S
C313 H296 0.939 . S
C313 C308 1.400 . S
C313 C312 1.389 . S
C314 P288 1.819 . S
C314 C315 1.391 . S
C314 C319 1.391 . S
C315 H297 0.941 . S
C315 C314 1.391 . S
C315 C316 1.396 . S
C316 H300 0.939 . S
C316 C315 1.396 . S
C316 C317 1.397 . S
C317 C316 1.397 . S
C317 C318 1.385 . S
C318 H301 0.940 . S
C318 C317 1.385 . S
C318 C319 1.388 . S
C319 H298 0.939 . S
C319 C314 1.391 . S
C319 C318 1.388 . S
P320 O331 1.490 . S
P320 C334 1.812 . S
P320 C340 1.803 . S
P320 C346 1.819 . S
H321 C335 0.941 . S
H322 C336 0.939 . S
H323 C338 0.940 . S
H324 C339 0.940 . S
H325 C341 0.939 . S
H326 C342 0.942 . S
H327 C344 0.940 . S
H328 C345 0.939 . S
H329 C347 0.941 . S
H330 C351 0.939 . S
O331 P320 1.490 . S
H332 C348 0.939 . S
H333 C350 0.940 . S
C334 P320 1.812 . S
C334 C335 1.389 . S
C334 C339 1.391 . S
C335 H321 0.941 . S
C335 C334 1.389 . S
C335 C336 1.397 . S
C336 H322 0.939 . S
C336 C335 1.397 . S
C336 C337 1.378 . S
C337 C336 1.378 . S
C337 C338 1.378 . S
C338 H323 0.940 . S
C338 C337 1.378 . S
C338 C339 1.396 . S
C339 H324 0.940 . S
C339 C334 1.391 . S
C339 C338 1.396 . S
C340 P320 1.803 . S
C340 C341 1.378 . S
C340 C345 1.400 . S
C341 H325 0.939 . S
C341 C340 1.378 . S
C341 C342 1.361 . S
C342 H326 0.942 . S
C342 C341 1.361 . S
C342 C343 1.369 . S
C343 C342 1.369 . S
C343 C344 1.404 . S
C344 H327 0.940 . S
C344 C343 1.404 . S
C344 C345 1.389 . S
C345 H328 0.939 . S
C345 C340 1.400 . S
C345 C344 1.389 . S
C346 P320 1.819 . S
C346 C347 1.391 . S
C346 C351 1.391 . S
C347 H329 0.941 . S
C347 C346 1.391 . S
C347 C348 1.396 . S
C348 H332 0.939 . S
C348 C347 1.396 . S
C348 C349 1.397 . S
C349 C348 1.397 . S
C349 C350 1.385 . S
C350 H333 0.940 . S
C350 C349 1.385 . S
C350 C351 1.388 . S
C351 H330 0.939 . S
C351 C346 1.391 . S
C351 C350 1.388 . S
P352 O363 1.490 . S
P352 C366 1.812 . S
P352 C372 1.803 . S
P352 C378 1.819 . S
H353 C367 0.941 . S
H354 C368 0.939 . S
H355 C370 0.940 . S
H356 C371 0.940 . S
H357 C373 0.939 . S
H358 C374 0.942 . S
H359 C376 0.940 . S
H360 C377 0.939 . S
H361 C379 0.941 . S
H362 C383 0.939 . S
O363 P352 1.490 . S
H364 C380 0.939 . S
H365 C382 0.940 . S
C366 P352 1.812 . S
C366 C367 1.389 . S
C366 C371 1.391 . S
C367 H353 0.941 . S
C367 C366 1.389 . S
C367 C368 1.397 . S
C368 H354 0.939 . S
C368 C367 1.397 . S
C368 C369 1.378 . S
C369 C368 1.378 . S
C369 C370 1.378 . S
C370 H355 0.940 . S
C370 C369 1.378 . S
C370 C371 1.396 . S
C371 H356 0.940 . S
C371 C366 1.391 . S
C371 C370 1.396 . S
C372 P352 1.803 . S
C372 C373 1.378 . S
C372 C377 1.400 . S
C373 H357 0.939 . S
C373 C372 1.378 . S
C373 C374 1.361 . S
C374 H358 0.942 . S
C374 C373 1.361 . S
C374 C375 1.369 . S
C375 C374 1.369 . S
C375 C376 1.404 . S
C376 H359 0.940 . S
C376 C375 1.404 . S
C376 C377 1.389 . S
C377 H360 0.939 . S
C377 C372 1.400 . S
C377 C376 1.389 . S
C378 P352 1.819 . S
C378 C379 1.391 . S
C378 C383 1.391 . S
C379 H361 0.941 . S
C379 C378 1.391 . S
C379 C380 1.396 . S
C380 H364 0.939 . S
C380 C379 1.396 . S
C380 C381 1.397 . S
C381 C380 1.397 . S
C381 C382 1.385 . S
C382 H365 0.940 . S
C382 C381 1.385 . S
C382 C383 1.388 . S
C383 H362 0.939 . S
C383 C378 1.391 . S
C383 C382 1.388 . S
P384 O395 1.490 . S
P384 C398 1.812 . S
P384 C404 1.803 . S
P384 C410 1.819 . S
H385 C399 0.941 . S
H386 C400 0.939 . S
H387 C402 0.940 . S
H388 C403 0.940 . S
H389 C405 0.939 . S
H390 C406 0.942 . S
H391 C408 0.940 . S
H392 C409 0.939 . S
H393 C411 0.941 . S
H394 C415 0.939 . S
O395 P384 1.490 . S
H396 C412 0.939 . S
H397 C414 0.940 . S
C398 P384 1.812 . S
C398 C399 1.389 . S
C398 C403 1.391 . S
C399 H385 0.941 . S
C399 C398 1.389 . S
C399 C400 1.397 . S
C400 H386 0.939 . S
C400 C399 1.397 . S
C400 C401 1.378 . S
C401 C400 1.378 . S
C401 C402 1.378 . S
C402 H387 0.940 . S
C402 C401 1.378 . S
C402 C403 1.396 . S
C403 H388 0.940 . S
C403 C398 1.391 . S
C403 C402 1.396 . S
C404 P384 1.803 . S
C404 C405 1.378 . S
C404 C409 1.400 . S
C405 H389 0.939 . S
C405 C404 1.378 . S
C405 C406 1.361 . S
C406 H390 0.942 . S
C406 C405 1.361 . S
C406 C407 1.369 . S
C407 C406 1.369 . S
C407 C408 1.404 . S
C408 H391 0.940 . S
C408 C407 1.404 . S
C408 C409 1.389 . S
C409 H392 0.939 . S
C409 C404 1.400 . S
C409 C408 1.389 . S
C410 P384 1.819 . S
C410 C411 1.391 . S
C410 C415 1.391 . S
C411 H393 0.941 . S
C411 C410 1.391 . S
C411 C412 1.396 . S
C412 H396 0.939 . S
C412 C411 1.396 . S
C412 C413 1.397 . S
C413 C412 1.397 . S
C413 C414 1.385 . S
C414 H397 0.940 . S
C414 C413 1.385 . S
C414 C415 1.388 . S
C415 H394 0.939 . S
C415 C410 1.391 . S
C415 C414 1.388 . S
P416 O427 1.490 . S
P416 C430 1.812 . S
P416 C436 1.803 . S
P416 C442 1.819 . S
H417 C431 0.941 . S
H418 C432 0.939 . S
H419 C434 0.940 . S
H420 C435 0.940 . S
H421 C437 0.939 . S
H422 C438 0.942 . S
H423 C440 0.940 . S
H424 C441 0.939 . S
H425 C443 0.941 . S
H426 C447 0.939 . S
O427 P416 1.490 . S
H428 C444 0.939 . S
H429 C446 0.940 . S
C430 P416 1.812 . S
C430 C431 1.389 . S
C430 C435 1.391 . S
C431 H417 0.941 . S
C431 C430 1.389 . S
C431 C432 1.397 . S
C432 H418 0.939 . S
C432 C431 1.397 . S
C432 C433 1.378 . S
C433 C432 1.378 . S
C433 C434 1.378 . S
C434 H419 0.940 . S
C434 C433 1.378 . S
C434 C435 1.396 . S
C435 H420 0.940 . S
C435 C430 1.391 . S
C435 C434 1.396 . S
C436 P416 1.803 . S
C436 C437 1.378 . S
C436 C441 1.400 . S
C437 H421 0.939 . S
C437 C436 1.378 . S
C437 C438 1.361 . S
C438 H422 0.942 . S
C438 C437 1.361 . S
C438 C439 1.369 . S
C439 C438 1.369 . S
C439 C440 1.404 . S
C440 H423 0.940 . S
C440 C439 1.404 . S
C440 C441 1.389 . S
C441 H424 0.939 . S
C441 C436 1.400 . S
C441 C440 1.389 . S
C442 P416 1.819 . S
C442 C443 1.391 . S
C442 C447 1.391 . S
C443 H425 0.941 . S
C443 C442 1.391 . S
C443 C444 1.396 . S
C444 H428 0.939 . S
C444 C443 1.396 . S
C444 C445 1.397 . S
C445 C444 1.397 . S
C445 C446 1.385 . S
C446 H429 0.940 . S
C446 C445 1.385 . S
C446 C447 1.388 . S
C447 H426 0.939 . S
C447 C442 1.391 . S
C447 C446 1.388 . S
P448 O459 1.490 . S
P448 C462 1.812 . S
P448 C468 1.803 . S
P448 C474 1.819 . S
H449 C463 0.941 . S
H450 C464 0.939 . S
H451 C466 0.940 . S
H452 C467 0.940 . S
H453 C469 0.939 . S
H454 C470 0.942 . S
H455 C472 0.940 . S
H456 C473 0.939 . S
H457 C475 0.941 . S
H458 C479 0.939 . S
O459 P448 1.490 . S
H460 C476 0.939 . S
H461 C478 0.940 . S
C462 P448 1.812 . S
C462 C463 1.389 . S
C462 C467 1.391 . S
C463 H449 0.941 . S
C463 C462 1.389 . S
C463 C464 1.397 . S
C464 H450 0.939 . S
C464 C463 1.397 . S
C464 C465 1.378 . S
C465 C464 1.378 . S
C465 C466 1.378 . S
C466 H451 0.940 . S
C466 C465 1.378 . S
C466 C467 1.396 . S
C467 H452 0.940 . S
C467 C462 1.391 . S
C467 C466 1.396 . S
C468 P448 1.803 . S
C468 C469 1.378 . S
C468 C473 1.400 . S
C469 H453 0.939 . S
C469 C468 1.378 . S
C469 C470 1.361 . S
C470 H454 0.942 . S
C470 C469 1.361 . S
C470 C471 1.369 . S
C471 C470 1.369 . S
C471 C472 1.404 . S
C472 H455 0.940 . S
C472 C471 1.404 . S
C472 C473 1.389 . S
C473 H456 0.939 . S
C473 C468 1.400 . S
C473 C472 1.389 . S
C474 P448 1.819 . S
C474 C475 1.391 . S
C474 C479 1.391 . S
C475 H457 0.941 . S
C475 C474 1.391 . S
C475 C476 1.396 . S
C476 H460 0.939 . S
C476 C475 1.396 . S
C476 C477 1.397 . S
C477 C476 1.397 . S
C477 C478 1.385 . S
C478 H461 0.940 . S
C478 C477 1.385 . S
C478 C479 1.388 . S
C479 H458 0.939 . S
C479 C474 1.391 . S
C479 C478 1.388 . S
P480 O491 1.490 . S
P480 C494 1.812 . S
P480 C500 1.803 . S
P480 C506 1.819 . S
H481 C495 0.941 . S
H482 C496 0.939 . S
H483 C498 0.940 . S
H484 C499 0.940 . S
H485 C501 0.939 . S
H486 C502 0.942 . S
H487 C504 0.940 . S
H488 C505 0.939 . S
H489 C507 0.941 . S
H490 C511 0.939 . S
O491 P480 1.490 . S
H492 C508 0.939 . S
H493 C510 0.940 . S
C494 P480 1.812 . S
C494 C495 1.389 . S
C494 C499 1.391 . S
C495 H481 0.941 . S
C495 C494 1.389 . S
C495 C496 1.397 . S
C496 H482 0.939 . S
C496 C495 1.397 . S
C496 C497 1.378 . S
C497 C496 1.378 . S
C497 C498 1.378 . S
C498 H483 0.940 . S
C498 C497 1.378 . S
C498 C499 1.396 . S
C499 H484 0.940 . S
C499 C494 1.391 . S
C499 C498 1.396 . S
C500 P480 1.803 . S
C500 C501 1.378 . S
C500 C505 1.400 . S
C501 H485 0.939 . S
C501 C500 1.378 . S
C501 C502 1.361 . S
C502 H486 0.942 . S
C502 C501 1.361 . S
C502 C503 1.369 . S
C503 C502 1.369 . S
C503 C504 1.404 . S
C504 H487 0.940 . S
C504 C503 1.404 . S
C504 C505 1.389 . S
C505 H488 0.939 . S
C505 C500 1.400 . S
C505 C504 1.389 . S
C506 P480 1.819 . S
C506 C507 1.391 . S
C506 C511 1.391 . S
C507 H489 0.941 . S
C507 C506 1.391 . S
C507 C508 1.396 . S
C508 H492 0.939 . S
C508 C507 1.396 . S
C508 C509 1.397 . S
C509 C508 1.397 . S
C509 C510 1.385 . S
C510 H493 0.940 . S
C510 C509 1.385 . S
C510 C511 1.388 . S
C511 H490 0.939 . S
C511 C506 1.391 . S
C511 C510 1.388 . S
P512 O523 1.490 . S
P512 C526 1.812 . S
P512 C532 1.803 . S
P512 C538 1.819 . S
H513 C527 0.941 . S
H514 C528 0.939 . S
H515 C530 0.940 . S
H516 C531 0.940 . S
H517 C533 0.939 . S
H518 C534 0.942 . S
H519 C536 0.940 . S
H520 C537 0.939 . S
H521 C539 0.941 . S
H522 C543 0.939 . S
O523 P512 1.490 . S
H524 C540 0.939 . S
H525 C542 0.940 . S
C526 P512 1.812 . S
C526 C527 1.389 . S
C526 C531 1.391 . S
C527 H513 0.941 . S
C527 C526 1.389 . S
C527 C528 1.397 . S
C528 H514 0.939 . S
C528 C527 1.397 . S
C528 C529 1.378 . S
C529 C528 1.378 . S
C529 C530 1.378 . S
C530 H515 0.940 . S
C530 C529 1.378 . S
C530 C531 1.396 . S
C531 H516 0.940 . S
C531 C526 1.391 . S
C531 C530 1.396 . S
C532 P512 1.803 . S
C532 C533 1.378 . S
C532 C537 1.400 . S
C533 H517 0.939 . S
C533 C532 1.378 . S
C533 C534 1.361 . S
C534 H518 0.942 . S
C534 C533 1.361 . S
C534 C535 1.369 . S
C535 C534 1.369 . S
C535 C536 1.404 . S
C536 H519 0.940 . S
C536 C535 1.404 . S
C536 C537 1.389 . S
C537 H520 0.939 . S
C537 C532 1.400 . S
C537 C536 1.389 . S
C538 P512 1.819 . S
C538 C539 1.391 . S
C538 C543 1.391 . S
C539 H521 0.941 . S
C539 C538 1.391 . S
C539 C540 1.396 . S
C540 H524 0.939 . S
C540 C539 1.396 . S
C540 C541 1.397 . S
C541 C540 1.397 . S
C541 C542 1.385 . S
C542 H525 0.940 . S
C542 C541 1.385 . S
C542 C543 1.388 . S
C543 H522 0.939 . S
C543 C538 1.391 . S
C543 C542 1.388 . S
P544 O555 1.490 . S
P544 C558 1.812 . S
P544 C564 1.803 . S
P544 C570 1.819 . S
H545 C559 0.941 . S
H546 C560 0.939 . S
H547 C562 0.940 . S
H548 C563 0.940 . S
H549 C565 0.939 . S
H550 C566 0.942 . S
H551 C568 0.940 . S
H552 C569 0.939 . S
H553 C571 0.941 . S
H554 C575 0.939 . S
O555 P544 1.490 . S
H556 C572 0.939 . S
H557 C574 0.940 . S
C558 P544 1.812 . S
C558 C559 1.389 . S
C558 C563 1.391 . S
C559 H545 0.941 . S
C559 C558 1.389 . S
C559 C560 1.397 . S
C560 H546 0.939 . S
C560 C559 1.397 . S
C560 C561 1.378 . S
C561 C560 1.378 . S
C561 C562 1.378 . S
C562 H547 0.940 . S
C562 C561 1.378 . S
C562 C563 1.396 . S
C563 H548 0.940 . S
C563 C558 1.391 . S
C563 C562 1.396 . S
C564 P544 1.803 . S
C564 C565 1.378 . S
C564 C569 1.400 . S
C565 H549 0.939 . S
C565 C564 1.378 . S
C565 C566 1.361 . S
C566 H550 0.942 . S
C566 C565 1.361 . S
C566 C567 1.369 . S
C567 C566 1.369 . S
C567 C568 1.404 . S
C568 H551 0.940 . S
C568 C567 1.404 . S
C568 C569 1.389 . S
C569 H552 0.939 . S
C569 C564 1.400 . S
C569 C568 1.389 . S
C570 P544 1.819 . S
C570 C571 1.391 . S
C570 C575 1.391 . S
C571 H553 0.941 . S
C571 C570 1.391 . S
C571 C572 1.396 . S
C572 H556 0.939 . S
C572 C571 1.396 . S
C572 C573 1.397 . S
C573 C572 1.397 . S
C573 C574 1.385 . S
C574 H557 0.940 . S
C574 C573 1.385 . S
C574 C575 1.388 . S
C575 H554 0.939 . S
C575 C570 1.391 . S
C575 C574 1.388 . S
Tb576 N607 2.660 . S
Tb576 N614 2.600 . S
Tb576 O620 2.546 . S
Tb576 O621 2.610 1_565 S
Tb576 O623 2.320 1_565 S
Tb576 O624 2.552 1_565 S
Tb576 O625 2.413 . S
Tb576 O627 2.362 1_556 S
Tb576 O628 2.421 . S
Tb576 C640 2.833 . S
C577 C580 1.432 . S
C577 C581 1.414 . S
C577 N584 1.359 . S
C578 C580 1.417 . S
C578 C582 1.432 . S
C578 C590 1.410 . S
C579 C581 1.444 . S
C579 C582 1.317 . S
C579 H602 0.929 . S
C580 C577 1.432 . S
C580 C578 1.417 . S
C580 N588 1.360 . S
C581 C577 1.414 . S
C581 C579 1.444 . S
C581 C586 1.385 . S
C582 C578 1.432 . S
C582 C579 1.317 . S
C582 H594 0.930 . S
C583 C585 1.392 . S
C583 C586 1.370 . S
C583 H595 0.931 . S
N584 C577 1.359 . S
N584 C585 1.327 . S
N584 Tb587 2.600 . S
C585 C583 1.392 . S
C585 N584 1.327 . S
C585 H592 0.930 . S
C586 C581 1.385 . S
C586 C583 1.370 . S
C586 H605 0.930 . S
Tb587 N584 2.600 . S
Tb587 N588 2.660 . S
Tb587 O621 2.362 1_554 S
Tb587 O622 2.421 . S
Tb587 O626 2.546 . S
Tb587 O627 2.610 1_545 S
Tb587 O629 2.320 1_545 S
Tb587 O630 2.552 1_545 S
Tb587 O631 2.413 . S
Tb587 C651 2.833 . S
N588 C580 1.360 . S
N588 Tb587 2.660 . S
N588 C589 1.305 . S
C589 N588 1.305 . S
C589 C591 1.407 . S
C589 H596 0.930 . S
C590 C578 1.410 . S
C590 C591 1.345 . S
C590 H598 0.930 . S
C591 C589 1.407 . S
C591 C590 1.345 . S
C591 H593 0.930 . S
H592 C585 0.930 . S
H593 C591 0.930 . S
H594 C582 0.930 . S
H595 C583 0.931 . S
H596 C589 0.930 . S
H597 C611 0.930 . S
H598 C590 0.930 . S
H599 C617 0.930 . S
H600 C608 0.930 . S
H601 C615 0.931 . S
H602 C579 0.929 . S
H603 C609 0.930 . S
H604 C642 0.930 . S
H605 C586 0.930 . S
H606 C641 0.929 . S
N607 Tb576 2.660 . S
N607 C608 1.305 . S
N607 C612 1.360 . S
C608 H600 0.930 . S
C608 N607 1.305 . S
C608 C611 1.407 . S
C609 H603 0.930 . S
C609 C610 1.410 . S
C609 C611 1.345 . S
C610 C609 1.410 . S
C610 C612 1.417 . S
C610 C642 1.432 . S
C611 H597 0.930 . S
C611 C608 1.407 . S
C611 C609 1.345 . S
C612 N607 1.360 . S
C612 C610 1.417 . S
C612 C616 1.432 . S
H613 C618 0.930 . S
N614 Tb576 2.600 . S
N614 C616 1.359 . S
N614 C617 1.327 . S
C615 H601 0.931 . S
C615 C617 1.392 . S
C615 C618 1.370 . S
C616 C612 1.432 . S
C616 N614 1.359 . S
C616 C619 1.414 . S
C617 H599 0.930 . S
C617 N614 1.327 . S
C617 C615 1.392 . S
C618 H613 0.930 . S
C618 C615 1.370 . S
C618 C619 1.385 . S
C619 C616 1.414 . S
C619 C618 1.385 . S
C619 C641 1.444 . S
O620 Tb576 2.546 . S
O620 C640 1.251 . S
O621 Tb576 2.610 1_545 S
O621 Tb587 2.362 1_556 S
O621 C632 1.283 . S
O622 Tb587 2.421 . S
O622 C639 1.262 1_554 S
O623 Tb576 2.320 1_545 S
O623 C639 1.260 . S
O624 Tb576 2.552 1_545 S
O624 C632 1.243 . S
O625 Tb576 2.413 . S
O625 C640 1.256 . S
O626 Tb587 2.546 . S
O626 C651 1.251 . S
O627 Tb576 2.362 1_554 S
O627 Tb587 2.610 1_565 S
O627 C643 1.283 . S
O628 Tb576 2.421 . S
O628 C650 1.262 1_556 S
O629 Tb587 2.320 1_565 S
O629 C650 1.260 . S
O630 Tb587 2.552 1_565 S
O630 C643 1.243 . S
O631 Tb587 2.413 . S
O631 C651 1.256 . S
C632 O621 1.283 . S
C632 O624 1.243 . S
C633 C635 1.382 1_565 S
C633 C637 1.393 . S
C633 C640 1.500 . S
C634 C635 1.400 . S
C634 C636 1.384 1_545 S
C635 C633 1.382 1_545 S
C635 C634 1.400 . S
C635 H652 0.930 . S
C636 C634 1.384 1_565 S
C636 C638 1.392 . S
C636 H653 0.931 . S
C637 C633 1.393 . S
C637 C638 1.401 . S
C637 H654 0.930 . S
C638 C636 1.392 . S
C638 C637 1.401 . S
C638 H655 0.930 . S
C639 O622 1.262 1_556 S
C639 O623 1.260 . S
C640 Tb576 2.833 . S
C640 O620 1.251 . S
C640 O625 1.256 . S
C640 C633 1.500 . S
C641 H606 0.929 . S
C641 C619 1.444 . S
C641 C642 1.317 . S
C642 H604 0.930 . S
C642 C610 1.432 . S
C642 C641 1.317 . S
C643 O627 1.283 . S
C643 O630 1.243 . S
C644 C645 1.382 1_545 S
C644 C648 1.393 . S
C644 C651 1.500 . S
C645 C644 1.382 1_565 S
C645 C646 1.400 . S
C645 H656 0.930 . S
C646 C645 1.400 . S
C646 C647 1.384 1_565 S
C647 C646 1.384 1_545 S
C647 C649 1.392 . S
C647 H657 0.931 . S
C648 C644 1.393 . S
C648 C649 1.401 . S
C648 H658 0.930 . S
C649 C647 1.392 . S
C649 C648 1.401 . S
C649 H659 0.930 . S
C650 O628 1.262 1_554 S
C650 O629 1.260 . S
C651 Tb587 2.833 . S
C651 O626 1.251 . S
C651 O631 1.256 . S
C651 C644 1.500 . S
H652 C635 0.930 . S
H653 C636 0.931 . S
H654 C637 0.930 . S
H655 C638 0.930 . S
H656 C645 0.930 . S
H657 C647 0.931 . S
H658 C648 0.930 . S
H659 C649 0.930 . S
Tb660 N691 2.660 . S
Tb660 N698 2.600 . S
Tb660 O704 2.546 . S
Tb660 O705 2.610 1_455 S
Tb660 O707 2.320 1_455 S
Tb660 O708 2.552 1_455 S
Tb660 O709 2.413 . S
Tb660 O711 2.362 1_556 S
Tb660 O712 2.421 . S
Tb660 C724 2.833 . S
C661 C664 1.432 . S
C661 C665 1.414 . S
C661 N668 1.359 . S
C662 C664 1.417 . S
C662 C666 1.432 . S
C662 C674 1.410 . S
C663 C665 1.444 . S
C663 C666 1.317 . S
C663 H686 0.929 . S
C664 C661 1.432 . S
C664 C662 1.417 . S
C664 N672 1.360 . S
C665 C661 1.414 . S
C665 C663 1.444 . S
C665 C670 1.385 . S
C666 C662 1.432 . S
C666 C663 1.317 . S
C666 H678 0.930 . S
C667 C669 1.392 . S
C667 C670 1.370 . S
C667 H679 0.931 . S
N668 C661 1.359 . S
N668 C669 1.327 . S
N668 Tb671 2.600 . S
C669 C667 1.392 . S
C669 N668 1.327 . S
C669 H676 0.930 . S
C670 C665 1.385 . S
C670 C667 1.370 . S
C670 H689 0.930 . S
Tb671 N668 2.600 . S
Tb671 N672 2.660 . S
Tb671 O705 2.362 1_554 S
Tb671 O706 2.421 . S
Tb671 O710 2.546 . S
Tb671 O711 2.610 1_655 S
Tb671 O713 2.320 1_655 S
Tb671 O714 2.552 1_655 S
Tb671 O715 2.413 . S
Tb671 C735 2.833 . S
N672 C664 1.360 . S
N672 Tb671 2.660 . S
N672 C673 1.305 . S
C673 N672 1.305 . S
C673 C675 1.407 . S
C673 H680 0.930 . S
C674 C662 1.410 . S
C674 C675 1.345 . S
C674 H682 0.930 . S
C675 C673 1.407 . S
C675 C674 1.345 . S
C675 H677 0.930 . S
H676 C669 0.930 . S
H677 C675 0.930 . S
H678 C666 0.930 . S
H679 C667 0.931 . S
H680 C673 0.930 . S
H681 C695 0.930 . S
H682 C674 0.930 . S
H683 C701 0.930 . S
H684 C692 0.930 . S
H685 C699 0.931 . S
H686 C663 0.929 . S
H687 C693 0.930 . S
H688 C726 0.930 . S
H689 C670 0.930 . S
H690 C725 0.929 . S
N691 Tb660 2.660 . S
N691 C692 1.305 . S
N691 C696 1.360 . S
C692 H684 0.930 . S
C692 N691 1.305 . S
C692 C695 1.407 . S
C693 H687 0.930 . S
C693 C694 1.410 . S
C693 C695 1.345 . S
C694 C693 1.410 . S
C694 C696 1.417 . S
C694 C726 1.432 . S
C695 H681 0.930 . S
C695 C692 1.407 . S
C695 C693 1.345 . S
C696 N691 1.360 . S
C696 C694 1.417 . S
C696 C700 1.432 . S
H697 C702 0.930 . S
N698 Tb660 2.600 . S
N698 C700 1.359 . S
N698 C701 1.327 . S
C699 H685 0.931 . S
C699 C701 1.392 . S
C699 C702 1.370 . S
C700 C696 1.432 . S
C700 N698 1.359 . S
C700 C703 1.414 . S
C701 H683 0.930 . S
C701 N698 1.327 . S
C701 C699 1.392 . S
C702 H697 0.930 . S
C702 C699 1.370 . S
C702 C703 1.385 . S
C703 C700 1.414 . S
C703 C702 1.385 . S
C703 C725 1.444 . S
O704 Tb660 2.546 . S
O704 C724 1.251 . S
O705 Tb660 2.610 1_655 S
O705 Tb671 2.362 1_556 S
O705 C716 1.283 . S
O706 Tb671 2.421 . S
O706 C723 1.262 1_554 S
O707 Tb660 2.320 1_655 S
O707 C723 1.260 . S
O708 Tb660 2.552 1_655 S
O708 C716 1.243 . S
O709 Tb660 2.413 . S
O709 C724 1.256 . S
O710 Tb671 2.546 . S
O710 C735 1.251 . S
O711 Tb660 2.362 1_554 S
O711 Tb671 2.610 1_455 S
O711 C727 1.283 . S
O712 Tb660 2.421 . S
O712 C734 1.262 1_556 S
O713 Tb671 2.320 1_455 S
O713 C734 1.260 . S
O714 Tb671 2.552 1_455 S
O714 C727 1.243 . S
O715 Tb671 2.413 . S
O715 C735 1.256 . S
C716 O705 1.283 . S
C716 O708 1.243 . S
C717 C719 1.382 1_455 S
C717 C721 1.393 . S
C717 C724 1.500 . S
C718 C719 1.400 . S
C718 C720 1.384 1_655 S
C719 C717 1.382 1_655 S
C719 C718 1.400 . S
C719 H736 0.930 . S
C720 C718 1.384 1_455 S
C720 C722 1.392 . S
C720 H737 0.931 . S
C721 C717 1.393 . S
C721 C722 1.401 . S
C721 H738 0.930 . S
C722 C720 1.392 . S
C722 C721 1.401 . S
C722 H739 0.930 . S
C723 O706 1.262 1_556 S
C723 O707 1.260 . S
C724 Tb660 2.833 . S
C724 O704 1.251 . S
C724 O709 1.256 . S
C724 C717 1.500 . S
C725 H690 0.929 . S
C725 C703 1.444 . S
C725 C726 1.317 . S
C726 H688 0.930 . S
C726 C694 1.432 . S
C726 C725 1.317 . S
C727 O711 1.283 . S
C727 O714 1.243 . S
C728 C729 1.382 1_655 S
C728 C732 1.393 . S
C728 C735 1.500 . S
C729 C728 1.382 1_455 S
C729 C730 1.400 . S
C729 H740 0.930 . S
C730 C729 1.400 . S
C730 C731 1.384 1_455 S
C731 C730 1.384 1_655 S
C731 C733 1.392 . S
C731 H741 0.931 . S
C732 C728 1.393 . S
C732 C733 1.401 . S
C732 H742 0.930 . S
C733 C731 1.392 . S
C733 C732 1.401 . S
C733 H743 0.930 . S
C734 O712 1.262 1_554 S
C734 O713 1.260 . S
C735 Tb671 2.833 . S
C735 O710 1.251 . S
C735 O715 1.256 . S
C735 C728 1.500 . S
H736 C719 0.930 . S
H737 C720 0.931 . S
H738 C721 0.930 . S
H739 C722 0.930 . S
H740 C729 0.930 . S
H741 C731 0.931 . S
H742 C732 0.930 . S
H743 C733 0.930 . S
Tb744 N775 2.660 . S
Tb744 N782 2.600 . S
Tb744 O788 2.546 . S
Tb744 O789 2.610 . S
Tb744 O791 2.320 . S
Tb744 O792 2.552 . S
Tb744 O793 2.413 . S
Tb744 O795 2.362 1_554 S
Tb744 O796 2.421 . S
Tb744 C808 2.833 . S
C745 C748 1.432 . S
C745 C749 1.414 . S
C745 N752 1.359 . S
C746 C748 1.417 . S
C746 C750 1.432 . S
C746 C758 1.410 . S
C747 C749 1.444 . S
C747 C750 1.317 . S
C747 H770 0.929 . S
C748 C745 1.432 . S
C748 C746 1.417 . S
C748 N756 1.360 . S
C749 C745 1.414 . S
C749 C747 1.444 . S
C749 C754 1.385 . S
C750 C746 1.432 . S
C750 C747 1.317 . S
C750 H762 0.930 . S
C751 C753 1.392 . S
C751 C754 1.370 . S
C751 H763 0.931 . S
N752 C745 1.359 . S
N752 C753 1.327 . S
N752 Tb755 2.600 . S
C753 C751 1.392 . S
C753 N752 1.327 . S
C753 H760 0.930 . S
C754 C749 1.385 . S
C754 C751 1.370 . S
C754 H773 0.930 . S
Tb755 N752 2.600 . S
Tb755 N756 2.660 . S
Tb755 O789 2.362 1_556 S
Tb755 O790 2.421 . S
Tb755 O794 2.546 . S
Tb755 O795 2.610 . S
Tb755 O797 2.320 . S
Tb755 O798 2.552 . S
Tb755 O799 2.413 . S
Tb755 C819 2.833 . S
N756 C748 1.360 . S
N756 Tb755 2.660 . S
N756 C757 1.305 . S
C757 N756 1.305 . S
C757 C759 1.407 . S
C757 H764 0.930 . S
C758 C746 1.410 . S
C758 C759 1.345 . S
C758 H766 0.930 . S
C759 C757 1.407 . S
C759 C758 1.345 . S
C759 H761 0.930 . S
H760 C753 0.930 . S
H761 C759 0.930 . S
H762 C750 0.930 . S
H763 C751 0.931 . S
H764 C757 0.930 . S
H765 C779 0.930 . S
H766 C758 0.930 . S
H767 C785 0.930 . S
H768 C776 0.930 . S
H769 C783 0.931 . S
H770 C747 0.929 . S
H771 C777 0.930 . S
H772 C810 0.930 . S
H773 C754 0.930 . S
H774 C809 0.929 . S
N775 Tb744 2.660 . S
N775 C776 1.305 . S
N775 C780 1.360 . S
C776 H768 0.930 . S
C776 N775 1.305 . S
C776 C779 1.407 . S
C777 H771 0.930 . S
C777 C778 1.410 . S
C777 C779 1.345 . S
C778 C777 1.410 . S
C778 C780 1.417 . S
C778 C810 1.432 . S
C779 H765 0.930 . S
C779 C776 1.407 . S
C779 C777 1.345 . S
C780 N775 1.360 . S
C780 C778 1.417 . S
C780 C784 1.432 . S
H781 C786 0.930 . S
N782 Tb744 2.600 . S
N782 C784 1.359 . S
N782 C785 1.327 . S
C783 H769 0.931 . S
C783 C785 1.392 . S
C783 C786 1.370 . S
C784 C780 1.432 . S
C784 N782 1.359 . S
C784 C787 1.414 . S
C785 H767 0.930 . S
C785 N782 1.327 . S
C785 C783 1.392 . S
C786 H781 0.930 . S
C786 C783 1.370 . S
C786 C787 1.385 . S
C787 C784 1.414 . S
C787 C786 1.385 . S
C787 C809 1.444 . S
O788 Tb744 2.546 . S
O788 C808 1.251 . S
O789 Tb744 2.610 . S
O789 Tb755 2.362 1_554 S
O789 C800 1.283 . S
O790 Tb755 2.421 . S
O790 C807 1.262 1_556 S
O791 Tb744 2.320 . S
O791 C807 1.260 . S
O792 Tb744 2.552 . S
O792 C800 1.243 . S
O793 Tb744 2.413 . S
O793 C808 1.256 . S
O794 Tb755 2.546 . S
O794 C819 1.251 . S
O795 Tb744 2.362 1_556 S
O795 Tb755 2.610 . S
O795 C811 1.283 . S
O796 Tb744 2.421 . S
O796 C818 1.262 1_554 S
O797 Tb755 2.320 . S
O797 C818 1.260 . S
O798 Tb755 2.552 . S
O798 C811 1.243 . S
O799 Tb755 2.413 . S
O799 C819 1.256 . S
C800 O789 1.283 . S
C800 O792 1.243 . S
C801 C803 1.382 . S
C801 C805 1.393 . S
C801 C808 1.500 . S
C802 C803 1.400 . S
C802 C804 1.384 . S
C803 C801 1.382 . S
C803 C802 1.400 . S
C803 H820 0.930 . S
C804 C802 1.384 . S
C804 C806 1.392 . S
C804 H821 0.931 . S
C805 C801 1.393 . S
C805 C806 1.401 . S
C805 H822 0.930 . S
C806 C804 1.392 . S
C806 C805 1.401 . S
C806 H823 0.930 . S
C807 O790 1.262 1_554 S
C807 O791 1.260 . S
C808 Tb744 2.833 . S
C808 O788 1.251 . S
C808 O793 1.256 . S
C808 C801 1.500 . S
C809 H774 0.929 . S
C809 C787 1.444 . S
C809 C810 1.317 . S
C810 H772 0.930 . S
C810 C778 1.432 . S
C810 C809 1.317 . S
C811 O795 1.283 . S
C811 O798 1.243 . S
C812 C813 1.382 . S
C812 C816 1.393 . S
C812 C819 1.500 . S
C813 C812 1.382 . S
C813 C814 1.400 . S
C813 H824 0.930 . S
C814 C813 1.400 . S
C814 C815 1.384 . S
C815 C814 1.384 . S
C815 C817 1.392 . S
C815 H825 0.931 . S
C816 C812 1.393 . S
C816 C817 1.401 . S
C816 H826 0.930 . S
C817 C815 1.392 . S
C817 C816 1.401 . S
C817 H827 0.930 . S
C818 O796 1.262 1_556 S
C818 O797 1.260 . S
C819 Tb755 2.833 . S
C819 O794 1.251 . S
C819 O799 1.256 . S
C819 C812 1.500 . S
H820 C803 0.930 . S
H821 C804 0.931 . S
H822 C805 0.930 . S
H823 C806 0.930 . S
H824 C813 0.930 . S
H825 C815 0.931 . S
H826 C816 0.930 . S
H827 C817 0.930 . S
Tb828 N859 2.660 . S
Tb828 N866 2.600 . S
Tb828 O872 2.546 . S
Tb828 O873 2.610 . S
Tb828 O875 2.320 . S
Tb828 O876 2.552 . S
Tb828 O877 2.413 . S
Tb828 O879 2.362 . S
Tb828 O880 2.421 . S
Tb828 C892 2.833 . S
C829 C832 1.432 . S
C829 C833 1.414 . S
C829 N836 1.359 . S
C830 C832 1.417 . S
C830 C834 1.432 . S
C830 C842 1.410 . S
C831 C833 1.444 . S
C831 C834 1.317 . S
C831 H854 0.929 . S
C832 C829 1.432 . S
C832 C830 1.417 . S
C832 N840 1.360 . S
C833 C829 1.414 . S
C833 C831 1.444 . S
C833 C838 1.385 . S
C834 C830 1.432 . S
C834 C831 1.317 . S
C834 H846 0.930 . S
C835 C837 1.392 . S
C835 C838 1.370 . S
C835 H847 0.931 . S
N836 C829 1.359 . S
N836 C837 1.327 . S
N836 Tb839 2.600 . S
C837 C835 1.392 . S
C837 N836 1.327 . S
C837 H844 0.930 . S
C838 C833 1.385 . S
C838 C835 1.370 . S
C838 H857 0.930 . S
Tb839 N836 2.600 . S
Tb839 N840 2.660 . S
Tb839 O873 2.362 . S
Tb839 O874 2.421 . S
Tb839 O878 2.546 . S
Tb839 O879 2.610 . S
Tb839 O881 2.320 . S
Tb839 O882 2.552 . S
Tb839 O883 2.413 . S
Tb839 C903 2.833 . S
N840 C832 1.360 . S
N840 Tb839 2.660 . S
N840 C841 1.305 . S
C841 N840 1.305 . S
C841 C843 1.407 . S
C841 H848 0.930 . S
C842 C830 1.410 . S
C842 C843 1.345 . S
C842 H850 0.930 . S
C843 C841 1.407 . S
C843 C842 1.345 . S
C843 H845 0.930 . S
H844 C837 0.930 . S
H845 C843 0.930 . S
H846 C834 0.930 . S
H847 C835 0.931 . S
H848 C841 0.930 . S
H849 C863 0.930 . S
H850 C842 0.930 . S
H851 C869 0.930 . S
H852 C860 0.930 . S
H853 C867 0.931 . S
H854 C831 0.929 . S
H855 C861 0.930 1_655 S
H856 C894 0.930 1_655 S
H857 C838 0.930 . S
H858 C893 0.929 . S
N859 Tb828 2.660 . S
N859 C860 1.305 . S
N859 C864 1.360 . S
C860 H852 0.930 . S
C860 N859 1.305 . S
C860 C863 1.407 . S
C861 H855 0.930 1_455 S
C861 C862 1.410 . S
C861 C863 1.345 . S
C862 C861 1.410 . S
C862 C864 1.417 . S
C862 C894 1.432 . S
C863 H849 0.930 . S
C863 C860 1.407 . S
C863 C861 1.345 . S
C864 N859 1.360 . S
C864 C862 1.417 . S
C864 C868 1.432 . S
H865 C870 0.930 . S
N866 Tb828 2.600 . S
N866 C868 1.359 . S
N866 C869 1.327 . S
C867 H853 0.931 . S
C867 C869 1.392 . S
C867 C870 1.370 . S
C868 C864 1.432 . S
C868 N866 1.359 . S
C868 C871 1.414 . S
C869 H851 0.930 . S
C869 N866 1.327 . S
C869 C867 1.392 . S
C870 H865 0.930 . S
C870 C867 1.370 . S
C870 C871 1.385 . S
C871 C868 1.414 . S
C871 C870 1.385 . S
C871 C893 1.444 . S
O872 Tb828 2.546 . S
O872 C892 1.251 . S
O873 Tb828 2.610 . S
O873 Tb839 2.362 . S
O873 C884 1.283 . S
O874 Tb839 2.421 . S
O874 C891 1.262 . S
O875 Tb828 2.320 . S
O875 C891 1.260 . S
O876 Tb828 2.552 . S
O876 C884 1.243 . S
O877 Tb828 2.413 . S
O877 C892 1.256 . S
O878 Tb839 2.546 . S
O878 C903 1.251 . S
O879 Tb828 2.362 . S
O879 Tb839 2.610 . S
O879 C895 1.283 . S
O880 Tb828 2.421 . S
O880 C902 1.262 . S
O881 Tb839 2.320 . S
O881 C902 1.260 . S
O882 Tb839 2.552 . S
O882 C895 1.243 . S
O883 Tb839 2.413 . S
O883 C903 1.256 . S
C884 O873 1.283 . S
C884 O876 1.243 . S
C885 C887 1.382 . S
C885 C889 1.393 . S
C885 C892 1.500 . S
C886 C887 1.400 . S
C886 C888 1.384 . S
C887 C885 1.382 . S
C887 C886 1.400 . S
C887 H904 0.930 . S
C888 C886 1.384 . S
C888 C890 1.392 . S
C888 H905 0.931 . S
C889 C885 1.393 . S
C889 C890 1.401 . S
C889 H906 0.930 . S
C890 C888 1.392 . S
C890 C889 1.401 . S
C890 H907 0.930 . S
C891 O874 1.262 . S
C891 O875 1.260 . S
C892 Tb828 2.833 . S
C892 O872 1.251 . S
C892 O877 1.256 . S
C892 C885 1.500 . S
C893 H858 0.929 . S
C893 C871 1.444 . S
C893 C894 1.317 . S
C894 H856 0.930 1_455 S
C894 C862 1.432 . S
C894 C893 1.317 . S
C895 O879 1.283 . S
C895 O882 1.243 . S
C896 C897 1.382 . S
C896 C900 1.393 . S
C896 C903 1.500 . S
C897 C896 1.382 . S
C897 C898 1.400 . S
C897 H908 0.930 . S
C898 C897 1.400 . S
C898 C899 1.384 . S
C899 C898 1.384 . S
C899 C901 1.392 . S
C899 H909 0.931 . S
C900 C896 1.393 . S
C900 C901 1.401 . S
C900 H910 0.930 . S
C901 C899 1.392 . S
C901 C900 1.401 . S
C901 H911 0.930 . S
C902 O880 1.262 . S
C902 O881 1.260 . S
C903 Tb839 2.833 . S
C903 O878 1.251 . S
C903 O883 1.256 . S
C903 C896 1.500 . S
H904 C887 0.930 . S
H905 C888 0.931 . S
H906 C889 0.930 . S
H907 C890 0.930 . S
H908 C897 0.930 . S
H909 C899 0.931 . S
H910 C900 0.930 . S
H911 C901 0.930 . S
Tb912 N943 2.660 . S
Tb912 N950 2.600 . S
Tb912 O956 2.546 . S
Tb912 O957 2.610 . S
Tb912 O959 2.320 . S
Tb912 O960 2.552 . S
Tb912 O961 2.413 . S
Tb912 O963 2.362 . S
Tb912 O964 2.421 . S
Tb912 C976 2.833 . S
C913 C916 1.432 . S
C913 C917 1.414 . S
C913 N920 1.359 . S
C914 C916 1.417 . S
C914 C918 1.432 . S
C914 C926 1.410 . S
C915 C917 1.444 . S
C915 C918 1.317 . S
C915 H938 0.929 . S
C916 C913 1.432 . S
C916 C914 1.417 . S
C916 N924 1.360 . S
C917 C913 1.414 . S
C917 C915 1.444 . S
C917 C922 1.385 . S
C918 C914 1.432 . S
C918 C915 1.317 . S
C918 H930 0.930 . S
C919 C921 1.392 . S
C919 C922 1.370 . S
C919 H931 0.931 . S
N920 C913 1.359 . S
N920 C921 1.327 . S
N920 Tb923 2.600 . S
C921 C919 1.392 . S
C921 N920 1.327 . S
C921 H928 0.930 . S
C922 C917 1.385 . S
C922 C919 1.370 . S
C922 H941 0.930 . S
Tb923 N920 2.600 . S
Tb923 N924 2.660 . S
Tb923 O957 2.362 . S
Tb923 O958 2.421 . S
Tb923 O962 2.546 . S
Tb923 O963 2.610 . S
Tb923 O965 2.320 . S
Tb923 O966 2.552 . S
Tb923 O967 2.413 . S
Tb923 C987 2.833 . S
N924 C916 1.360 . S
N924 Tb923 2.660 . S
N924 C925 1.305 . S
C925 N924 1.305 . S
C925 C927 1.407 . S
C925 H932 0.930 . S
C926 C914 1.410 . S
C926 C927 1.345 . S
C926 H934 0.930 . S
C927 C925 1.407 . S
C927 C926 1.345 . S
C927 H929 0.930 . S
H928 C921 0.930 . S
H929 C927 0.930 . S
H930 C918 0.930 . S
H931 C919 0.931 . S
H932 C925 0.930 . S
H933 C947 0.930 . S
H934 C926 0.930 . S
H935 C953 0.930 . S
H936 C944 0.930 . S
H937 C951 0.931 . S
H938 C915 0.929 . S
H939 C945 0.930 . S
H940 C978 0.930 . S
H941 C922 0.930 . S
H942 C977 0.929 . S
N943 Tb912 2.660 . S
N943 C944 1.305 . S
N943 C948 1.360 . S
C944 H936 0.930 . S
C944 N943 1.305 . S
C944 C947 1.407 . S
C945 H939 0.930 . S
C945 C946 1.410 . S
C945 C947 1.345 . S
C946 C945 1.410 . S
C946 C948 1.417 . S
C946 C978 1.432 . S
C947 H933 0.930 . S
C947 C944 1.407 . S
C947 C945 1.345 . S
C948 N943 1.360 . S
C948 C946 1.417 . S
C948 C952 1.432 . S
H949 C954 0.930 . S
N950 Tb912 2.600 . S
N950 C952 1.359 . S
N950 C953 1.327 . S
C951 H937 0.931 . S
C951 C953 1.392 . S
C951 C954 1.370 . S
C952 C948 1.432 . S
C952 N950 1.359 . S
C952 C955 1.414 . S
C953 H935 0.930 . S
C953 N950 1.327 . S
C953 C951 1.392 . S
C954 H949 0.930 . S
C954 C951 1.370 . S
C954 C955 1.385 . S
C955 C952 1.414 . S
C955 C954 1.385 . S
C955 C977 1.444 . S
O956 Tb912 2.546 . S
O956 C976 1.251 . S
O957 Tb912 2.610 . S
O957 Tb923 2.362 . S
O957 C968 1.283 . S
O958 Tb923 2.421 . S
O958 C975 1.262 . S
O959 Tb912 2.320 . S
O959 C975 1.260 . S
O960 Tb912 2.552 . S
O960 C968 1.243 . S
O961 Tb912 2.413 . S
O961 C976 1.256 . S
O962 Tb923 2.546 . S
O962 C987 1.251 . S
O963 Tb912 2.362 . S
O963 Tb923 2.610 . S
O963 C979 1.283 . S
O964 Tb912 2.421 . S
O964 C986 1.262 . S
O965 Tb923 2.320 . S
O965 C986 1.260 . S
O966 Tb923 2.552 . S
O966 C979 1.243 . S
O967 Tb923 2.413 . S
O967 C987 1.256 . S
C968 O957 1.283 . S
C968 O960 1.243 . S
C969 C971 1.382 . S
C969 C973 1.393 . S
C969 C976 1.500 . S
C970 C971 1.400 . S
C970 C972 1.384 . S
C971 C969 1.382 . S
C971 C970 1.400 . S
C971 H988 0.930 . S
C972 C970 1.384 . S
C972 C974 1.392 . S
C972 H989 0.931 . S
C973 C969 1.393 . S
C973 C974 1.401 . S
C973 H990 0.930 . S
C974 C972 1.392 . S
C974 C973 1.401 . S
C974 H991 0.930 . S
C975 O958 1.262 . S
C975 O959 1.260 . S
C976 Tb912 2.833 . S
C976 O956 1.251 . S
C976 O961 1.256 . S
C976 C969 1.500 . S
C977 H942 0.929 . S
C977 C955 1.444 . S
C977 C978 1.317 . S
C978 H940 0.930 . S
C978 C946 1.432 . S
C978 C977 1.317 . S
C979 O963 1.283 . S
C979 O966 1.243 . S
C980 C981 1.382 . S
C980 C984 1.393 . S
C980 C987 1.500 . S
C981 C980 1.382 . S
C981 C982 1.400 . S
C981 H992 0.930 . S
C982 C981 1.400 . S
C982 C983 1.384 . S
C983 C982 1.384 . S
C983 C985 1.392 . S
C983 H993 0.931 . S
C984 C980 1.393 . S
C984 C985 1.401 . S
C984 H994 0.930 . S
C985 C983 1.392 . S
C985 C984 1.401 . S
C985 H995 0.930 . S
C986 O964 1.262 . S
C986 O965 1.260 . S
C987 Tb923 2.833 . S
C987 O962 1.251 . S
C987 O967 1.256 . S
C987 C980 1.500 . S
H988 C971 0.930 . S
H989 C972 0.931 . S
H990 C973 0.930 . S
H991 C974 0.930 . S
H992 C981 0.930 . S
H993 C983 0.931 . S
H994 C984 0.930 . S
H995 C985 0.930 . S
Tb996 N1027 2.660 . S
Tb996 N1034 2.600 . S
Tb996 O1040 2.546 . S
Tb996 O1041 2.610 . S
Tb996 O1043 2.320 . S
Tb996 O1044 2.552 . S
Tb996 O1045 2.413 . S
Tb996 O1047 2.362 . S
Tb996 O1048 2.421 . S
Tb996 C1060 2.833 . S
C997 C1000 1.432 . S
C997 C1001 1.414 . S
C997 N1004 1.359 . S
C998 C1000 1.417 . S
C998 C1002 1.432 . S
C998 C1010 1.410 . S
C999 C1001 1.444 . S
C999 C1002 1.317 . S
C999 H1022 0.929 . S
C1000 C997 1.432 . S
C1000 C998 1.417 . S
C1000 N1008 1.360 . S
C1001 C997 1.414 . S
C1001 C999 1.444 . S
C1001 C1006 1.385 . S
C1002 C998 1.432 . S
C1002 C999 1.317 . S
C1002 H1014 0.930 1_455 S
C1003 C1005 1.392 . S
C1003 C1006 1.370 . S
C1003 H1015 0.931 . S
N1004 C997 1.359 . S
N1004 C1005 1.327 . S
N1004 Tb1007 2.600 . S
C1005 C1003 1.392 . S
C1005 N1004 1.327 . S
C1005 H1012 0.930 . S
C1006 C1001 1.385 . S
C1006 C1003 1.370 . S
C1006 H1025 0.930 . S
Tb1007 N1004 2.600 . S
Tb1007 N1008 2.660 . S
Tb1007 O1041 2.362 . S
Tb1007 O1042 2.421 . S
Tb1007 O1046 2.546 . S
Tb1007 O1047 2.610 . S
Tb1007 O1049 2.320 . S
Tb1007 O1050 2.552 . S
Tb1007 O1051 2.413 . S
Tb1007 C1071 2.833 . S
N1008 C1000 1.360 . S
N1008 Tb1007 2.660 . S
N1008 C1009 1.305 . S
C1009 N1008 1.305 . S
C1009 C1011 1.407 . S
C1009 H1016 0.930 . S
C1010 C998 1.410 . S
C1010 C1011 1.345 . S
C1010 H1018 0.930 1_455 S
C1011 C1009 1.407 . S
C1011 C1010 1.345 . S
C1011 H1013 0.930 . S
H1012 C1005 0.930 . S
H1013 C1011 0.930 . S
H1014 C1002 0.930 1_655 S
H1015 C1003 0.931 . S
H1016 C1009 0.930 . S
H1017 C1031 0.930 . S
H1018 C1010 0.930 1_655 S
H1019 C1037 0.930 . S
H1020 C1028 0.930 . S
H1021 C1035 0.931 . S
H1022 C999 0.929 . S
H1023 C1029 0.930 . S
H1024 C1062 0.930 . S
H1025 C1006 0.930 . S
H1026 C1061 0.929 . S
N1027 Tb996 2.660 . S
N1027 C1028 1.305 . S
N1027 C1032 1.360 . S
C1028 H1020 0.930 . S
C1028 N1027 1.305 . S
C1028 C1031 1.407 . S
C1029 H1023 0.930 . S
C1029 C1030 1.410 . S
C1029 C1031 1.345 . S
C1030 C1029 1.410 . S
C1030 C1032 1.417 . S
C1030 C1062 1.432 . S
C1031 H1017 0.930 . S
C1031 C1028 1.407 . S
C1031 C1029 1.345 . S
C1032 N1027 1.360 . S
C1032 C1030 1.417 . S
C1032 C1036 1.432 . S
H1033 C1038 0.930 . S
N1034 Tb996 2.600 . S
N1034 C1036 1.359 . S
N1034 C1037 1.327 . S
C1035 H1021 0.931 . S
C1035 C1037 1.392 . S
C1035 C1038 1.370 . S
C1036 C1032 1.432 . S
C1036 N1034 1.359 . S
C1036 C1039 1.414 . S
C1037 H1019 0.930 . S
C1037 N1034 1.327 . S
C1037 C1035 1.392 . S
C1038 H1033 0.930 . S
C1038 C1035 1.370 . S
C1038 C1039 1.385 . S
C1039 C1036 1.414 . S
C1039 C1038 1.385 . S
C1039 C1061 1.444 . S
O1040 Tb996 2.546 . S
O1040 C1060 1.251 . S
O1041 Tb996 2.610 . S
O1041 Tb1007 2.362 . S
O1041 C1052 1.283 . S
O1042 Tb1007 2.421 . S
O1042 C1059 1.262 . S
O1043 Tb996 2.320 . S
O1043 C1059 1.260 . S
O1044 Tb996 2.552 . S
O1044 C1052 1.243 . S
O1045 Tb996 2.413 . S
O1045 C1060 1.256 . S
O1046 Tb1007 2.546 . S
O1046 C1071 1.251 . S
O1047 Tb996 2.362 . S
O1047 Tb1007 2.610 . S
O1047 C1063 1.283 . S
O1048 Tb996 2.421 . S
O1048 C1070 1.262 . S
O1049 Tb1007 2.320 . S
O1049 C1070 1.260 . S
O1050 Tb1007 2.552 . S
O1050 C1063 1.243 . S
O1051 Tb1007 2.413 . S
O1051 C1071 1.256 . S
C1052 O1041 1.283 . S
C1052 O1044 1.243 . S
C1053 C1055 1.382 . S
C1053 C1057 1.393 . S
C1053 C1060 1.500 . S
C1054 C1055 1.400 . S
C1054 C1056 1.384 . S
C1055 C1053 1.382 . S
C1055 C1054 1.400 . S
C1055 H1072 0.930 . S
C1056 C1054 1.384 . S
C1056 C1058 1.392 . S
C1056 H1073 0.931 . S
C1057 C1053 1.393 . S
C1057 C1058 1.401 . S
C1057 H1074 0.930 . S
C1058 C1056 1.392 . S
C1058 C1057 1.401 . S
C1058 H1075 0.930 . S
C1059 O1042 1.262 . S
C1059 O1043 1.260 . S
C1060 Tb996 2.833 . S
C1060 O1040 1.251 . S
C1060 O1045 1.256 . S
C1060 C1053 1.500 . S
C1061 H1026 0.929 . S
C1061 C1039 1.444 . S
C1061 C1062 1.317 . S
C1062 H1024 0.930 . S
C1062 C1030 1.432 . S
C1062 C1061 1.317 . S
C1063 O1047 1.283 . S
C1063 O1050 1.243 . S
C1064 C1065 1.382 . S
C1064 C1068 1.393 . S
C1064 C1071 1.500 . S
C1065 C1064 1.382 . S
C1065 C1066 1.400 . S
C1065 H1076 0.930 . S
C1066 C1065 1.400 . S
C1066 C1067 1.384 . S
C1067 C1066 1.384 . S
C1067 C1069 1.392 . S
C1067 H1077 0.931 . S
C1068 C1064 1.393 . S
C1068 C1069 1.401 . S
C1068 H1078 0.930 . S
C1069 C1067 1.392 . S
C1069 C1068 1.401 . S
C1069 H1079 0.930 . S
C1070 O1048 1.262 . S
C1070 O1049 1.260 . S
C1071 Tb1007 2.833 . S
C1071 O1046 1.251 . S
C1071 O1051 1.256 . S
C1071 C1064 1.500 . S
H1072 C1055 0.930 . S
H1073 C1056 0.931 . S
H1074 C1057 0.930 . S
H1075 C1058 0.930 . S
H1076 C1065 0.930 . S
H1077 C1067 0.931 . S
H1078 C1068 0.930 . S
H1079 C1069 0.930 . S
Tb1080 N1111 2.660 . S
Tb1080 N1118 2.600 . S
Tb1080 O1124 2.546 . S
Tb1080 O1125 2.610 . S
Tb1080 O1127 2.320 . S
Tb1080 O1128 2.552 . S
Tb1080 O1129 2.413 . S
Tb1080 O1131 2.362 . S
Tb1080 O1132 2.421 . S
Tb1080 C1144 2.833 . S
C1081 C1084 1.432 . S
C1081 C1085 1.414 . S
C1081 N1088 1.359 . S
C1082 C1084 1.417 . S
C1082 C1086 1.432 . S
C1082 C1094 1.410 . S
C1083 C1085 1.444 . S
C1083 C1086 1.317 . S
C1083 H1106 0.929 . S
C1084 C1081 1.432 . S
C1084 C1082 1.417 . S
C1084 N1092 1.360 . S
C1085 C1081 1.414 . S
C1085 C1083 1.444 . S
C1085 C1090 1.385 . S
C1086 C1082 1.432 . S
C1086 C1083 1.317 . S
C1086 H1098 0.930 1_655 S
C1087 C1089 1.392 . S
C1087 C1090 1.370 . S
C1087 H1099 0.931 . S
N1088 C1081 1.359 . S
N1088 C1089 1.327 . S
N1088 Tb1091 2.600 . S
C1089 C1087 1.392 . S
C1089 N1088 1.327 . S
C1089 H1096 0.930 . S
C1090 C1085 1.385 . S
C1090 C1087 1.370 . S
C1090 H1109 0.930 . S
Tb1091 N1088 2.600 . S
Tb1091 N1092 2.660 . S
Tb1091 O1125 2.362 . S
Tb1091 O1126 2.421 . S
Tb1091 O1130 2.546 . S
Tb1091 O1131 2.610 . S
Tb1091 O1133 2.320 . S
Tb1091 O1134 2.552 . S
Tb1091 O1135 2.413 . S
Tb1091 C1155 2.833 . S
N1092 C1084 1.360 . S
N1092 Tb1091 2.660 . S
N1092 C1093 1.305 . S
C1093 N1092 1.305 . S
C1093 C1095 1.407 . S
C1093 H1100 0.930 . S
C1094 C1082 1.410 . S
C1094 C1095 1.345 . S
C1094 H1102 0.930 1_655 S
C1095 C1093 1.407 . S
C1095 C1094 1.345 . S
C1095 H1097 0.930 . S
H1096 C1089 0.930 . S
H1097 C1095 0.930 . S
H1098 C1086 0.930 1_455 S
H1099 C1087 0.931 . S
H1100 C1093 0.930 . S
H1101 C1115 0.930 . S
H1102 C1094 0.930 1_455 S
H1103 C1121 0.930 . S
H1104 C1112 0.930 . S
H1105 C1119 0.931 . S
H1106 C1083 0.929 . S
H1107 C1113 0.930 . S
H1108 C1146 0.930 . S
H1109 C1090 0.930 . S
H1110 C1145 0.929 . S
N1111 Tb1080 2.660 . S
N1111 C1112 1.305 . S
N1111 C1116 1.360 . S
C1112 H1104 0.930 . S
C1112 N1111 1.305 . S
C1112 C1115 1.407 . S
C1113 H1107 0.930 . S
C1113 C1114 1.410 . S
C1113 C1115 1.345 . S
C1114 C1113 1.410 . S
C1114 C1116 1.417 . S
C1114 C1146 1.432 . S
C1115 H1101 0.930 . S
C1115 C1112 1.407 . S
C1115 C1113 1.345 . S
C1116 N1111 1.360 . S
C1116 C1114 1.417 . S
C1116 C1120 1.432 . S
H1117 C1122 0.930 . S
N1118 Tb1080 2.600 . S
N1118 C1120 1.359 . S
N1118 C1121 1.327 . S
C1119 H1105 0.931 . S
C1119 C1121 1.392 . S
C1119 C1122 1.370 . S
C1120 C1116 1.432 . S
C1120 N1118 1.359 . S
C1120 C1123 1.414 . S
C1121 H1103 0.930 . S
C1121 N1118 1.327 . S
C1121 C1119 1.392 . S
C1122 H1117 0.930 . S
C1122 C1119 1.370 . S
C1122 C1123 1.385 . S
C1123 C1120 1.414 . S
C1123 C1122 1.385 . S
C1123 C1145 1.444 . S
O1124 Tb1080 2.546 . S
O1124 C1144 1.251 . S
O1125 Tb1080 2.610 . S
O1125 Tb1091 2.362 . S
O1125 C1136 1.283 . S
O1126 Tb1091 2.421 . S
O1126 C1143 1.262 . S
O1127 Tb1080 2.320 . S
O1127 C1143 1.260 . S
O1128 Tb1080 2.552 . S
O1128 C1136 1.243 . S
O1129 Tb1080 2.413 . S
O1129 C1144 1.256 . S
O1130 Tb1091 2.546 . S
O1130 C1155 1.251 . S
O1131 Tb1080 2.362 . S
O1131 Tb1091 2.610 . S
O1131 C1147 1.283 . S
O1132 Tb1080 2.421 . S
O1132 C1154 1.262 . S
O1133 Tb1091 2.320 . S
O1133 C1154 1.260 . S
O1134 Tb1091 2.552 . S
O1134 C1147 1.243 . S
O1135 Tb1091 2.413 . S
O1135 C1155 1.256 . S
C1136 O1125 1.283 . S
C1136 O1128 1.243 . S
C1137 C1139 1.382 . S
C1137 C1141 1.393 . S
C1137 C1144 1.500 . S
C1138 C1139 1.400 . S
C1138 C1140 1.384 . S
C1139 C1137 1.382 . S
C1139 C1138 1.400 . S
C1139 H1156 0.930 . S
C1140 C1138 1.384 . S
C1140 C1142 1.392 . S
C1140 H1157 0.931 . S
C1141 C1137 1.393 . S
C1141 C1142 1.401 . S
C1141 H1158 0.930 . S
C1142 C1140 1.392 . S
C1142 C1141 1.401 . S
C1142 H1159 0.930 . S
C1143 O1126 1.262 . S
C1143 O1127 1.260 . S
C1144 Tb1080 2.833 . S
C1144 O1124 1.251 . S
C1144 O1129 1.256 . S
C1144 C1137 1.500 . S
C1145 H1110 0.929 . S
C1145 C1123 1.444 . S
C1145 C1146 1.317 . S
C1146 H1108 0.930 . S
C1146 C1114 1.432 . S
C1146 C1145 1.317 . S
C1147 O1131 1.283 . S
C1147 O1134 1.243 . S
C1148 C1149 1.382 . S
C1148 C1152 1.393 . S
C1148 C1155 1.500 . S
C1149 C1148 1.382 . S
C1149 C1150 1.400 . S
C1149 H1160 0.930 . S
C1150 C1149 1.400 . S
C1150 C1151 1.384 . S
C1151 C1150 1.384 . S
C1151 C1153 1.392 . S
C1151 H1161 0.931 . S
C1152 C1148 1.393 . S
C1152 C1153 1.401 . S
C1152 H1162 0.930 . S
C1153 C1151 1.392 . S
C1153 C1152 1.401 . S
C1153 H1163 0.930 . S
C1154 O1132 1.262 . S
C1154 O1133 1.260 . S
C1155 Tb1091 2.833 . S
C1155 O1130 1.251 . S
C1155 O1135 1.256 . S
C1155 C1148 1.500 . S
H1156 C1139 0.930 . S
H1157 C1140 0.931 . S
H1158 C1141 0.930 . S
H1159 C1142 0.930 . S
H1160 C1149 0.930 . S
H1161 C1151 0.931 . S
H1162 C1152 0.930 . S
H1163 C1153 0.930 . S
Tb1164 N1195 2.660 . S
Tb1164 N1202 2.600 . S
Tb1164 O1208 2.546 . S
Tb1164 O1209 2.610 . S
Tb1164 O1211 2.320 . S
Tb1164 O1212 2.552 . S
Tb1164 O1213 2.413 . S
Tb1164 O1215 2.362 . S
Tb1164 O1216 2.421 . S
Tb1164 C1228 2.833 . S
C1165 C1168 1.432 . S
C1165 C1169 1.414 . S
C1165 N1172 1.359 . S
C1166 C1168 1.417 . S
C1166 C1170 1.432 . S
C1166 C1178 1.410 . S
C1167 C1169 1.444 . S
C1167 C1170 1.317 . S
C1167 H1190 0.929 . S
C1168 C1165 1.432 . S
C1168 C1166 1.417 . S
C1168 N1176 1.360 . S
C1169 C1165 1.414 . S
C1169 C1167 1.444 . S
C1169 C1174 1.385 . S
C1170 C1166 1.432 . S
C1170 C1167 1.317 . S
C1170 H1182 0.930 . S
C1171 C1173 1.392 . S
C1171 C1174 1.370 . S
C1171 H1183 0.931 . S
N1172 C1165 1.359 . S
N1172 C1173 1.327 . S
N1172 Tb1175 2.600 . S
C1173 C1171 1.392 . S
C1173 N1172 1.327 . S
C1173 H1180 0.930 . S
C1174 C1169 1.385 . S
C1174 C1171 1.370 . S
C1174 H1193 0.930 . S
Tb1175 N1172 2.600 . S
Tb1175 N1176 2.660 . S
Tb1175 O1209 2.362 . S
Tb1175 O1210 2.421 . S
Tb1175 O1214 2.546 . S
Tb1175 O1215 2.610 . S
Tb1175 O1217 2.320 . S
Tb1175 O1218 2.552 . S
Tb1175 O1219 2.413 . S
Tb1175 C1239 2.833 . S
N1176 C1168 1.360 . S
N1176 Tb1175 2.660 . S
N1176 C1177 1.305 . S
C1177 N1176 1.305 . S
C1177 C1179 1.407 . S
C1177 H1184 0.930 . S
C1178 C1166 1.410 . S
C1178 C1179 1.345 . S
C1178 H1186 0.930 . S
C1179 C1177 1.407 . S
C1179 C1178 1.345 . S
C1179 H1181 0.930 . S
H1180 C1173 0.930 . S
H1181 C1179 0.930 . S
H1182 C1170 0.930 . S
H1183 C1171 0.931 . S
H1184 C1177 0.930 . S
H1185 C1199 0.930 . S
H1186 C1178 0.930 . S
H1187 C1205 0.930 . S
H1188 C1196 0.930 . S
H1189 C1203 0.931 . S
H1190 C1167 0.929 . S
H1191 C1197 0.930 . S
H1192 C1230 0.930 . S
H1193 C1174 0.930 . S
H1194 C1229 0.929 . S
N1195 Tb1164 2.660 . S
N1195 C1196 1.305 . S
N1195 C1200 1.360 . S
C1196 H1188 0.930 . S
C1196 N1195 1.305 . S
C1196 C1199 1.407 . S
C1197 H1191 0.930 . S
C1197 C1198 1.410 . S
C1197 C1199 1.345 . S
C1198 C1197 1.410 . S
C1198 C1200 1.417 . S
C1198 C1230 1.432 . S
C1199 H1185 0.930 . S
C1199 C1196 1.407 . S
C1199 C1197 1.345 . S
C1200 N1195 1.360 . S
C1200 C1198 1.417 . S
C1200 C1204 1.432 . S
H1201 C1206 0.930 . S
N1202 Tb1164 2.600 . S
N1202 C1204 1.359 . S
N1202 C1205 1.327 . S
C1203 H1189 0.931 . S
C1203 C1205 1.392 . S
C1203 C1206 1.370 . S
C1204 C1200 1.432 . S
C1204 N1202 1.359 . S
C1204 C1207 1.414 . S
C1205 H1187 0.930 . S
C1205 N1202 1.327 . S
C1205 C1203 1.392 . S
C1206 H1201 0.930 . S
C1206 C1203 1.370 . S
C1206 C1207 1.385 . S
C1207 C1204 1.414 . S
C1207 C1206 1.385 . S
C1207 C1229 1.444 . S
O1208 Tb1164 2.546 . S
O1208 C1228 1.251 . S
O1209 Tb1164 2.610 . S
O1209 Tb1175 2.362 . S
O1209 C1220 1.283 . S
O1210 Tb1175 2.421 . S
O1210 C1227 1.262 . S
O1211 Tb1164 2.320 . S
O1211 C1227 1.260 . S
O1212 Tb1164 2.552 . S
O1212 C1220 1.243 . S
O1213 Tb1164 2.413 . S
O1213 C1228 1.256 . S
O1214 Tb1175 2.546 . S
O1214 C1239 1.251 . S
O1215 Tb1164 2.362 . S
O1215 Tb1175 2.610 . S
O1215 C1231 1.283 . S
O1216 Tb1164 2.421 . S
O1216 C1238 1.262 . S
O1217 Tb1175 2.320 . S
O1217 C1238 1.260 . S
O1218 Tb1175 2.552 . S
O1218 C1231 1.243 . S
O1219 Tb1175 2.413 . S
O1219 C1239 1.256 . S
C1220 O1209 1.283 . S
C1220 O1212 1.243 . S
C1221 C1223 1.382 . S
C1221 C1225 1.393 . S
C1221 C1228 1.500 . S
C1222 C1223 1.400 . S
C1222 C1224 1.384 . S
C1223 C1221 1.382 . S
C1223 C1222 1.400 . S
C1223 H1240 0.930 . S
C1224 C1222 1.384 . S
C1224 C1226 1.392 . S
C1224 H1241 0.931 . S
C1225 C1221 1.393 . S
C1225 C1226 1.401 . S
C1225 H1242 0.930 . S
C1226 C1224 1.392 . S
C1226 C1225 1.401 . S
C1226 H1243 0.930 . S
C1227 O1210 1.262 . S
C1227 O1211 1.260 . S
C1228 Tb1164 2.833 . S
C1228 O1208 1.251 . S
C1228 O1213 1.256 . S
C1228 C1221 1.500 . S
C1229 H1194 0.929 . S
C1229 C1207 1.444 . S
C1229 C1230 1.317 . S
C1230 H1192 0.930 . S
C1230 C1198 1.432 . S
C1230 C1229 1.317 . S
C1231 O1215 1.283 . S
C1231 O1218 1.243 . S
C1232 C1233 1.382 . S
C1232 C1236 1.393 . S
C1232 C1239 1.500 . S
C1233 C1232 1.382 . S
C1233 C1234 1.400 . S
C1233 H1244 0.930 . S
C1234 C1233 1.400 . S
C1234 C1235 1.384 . S
C1235 C1234 1.384 . S
C1235 C1237 1.392 . S
C1235 H1245 0.931 . S
C1236 C1232 1.393 . S
C1236 C1237 1.401 . S
C1236 H1246 0.930 . S
C1237 C1235 1.392 . S
C1237 C1236 1.401 . S
C1237 H1247 0.930 . S
C1238 O1216 1.262 . S
C1238 O1217 1.260 . S
C1239 Tb1175 2.833 . S
C1239 O1214 1.251 . S
C1239 O1219 1.256 . S
C1239 C1232 1.500 . S
H1240 C1223 0.930 . S
H1241 C1224 0.931 . S
H1242 C1225 0.930 . S
H1243 C1226 0.930 . S
H1244 C1233 0.930 . S
H1245 C1235 0.931 . S
H1246 C1236 0.930 . S
H1247 C1237 0.930 . S
Tb1248 N1279 2.660 . S
Tb1248 N1286 2.600 . S
Tb1248 O1292 2.546 . S
Tb1248 O1293 2.610 . S
Tb1248 O1295 2.320 . S
Tb1248 O1296 2.552 . S
Tb1248 O1297 2.413 . S
Tb1248 O1299 2.362 . S
Tb1248 O1300 2.421 . S
Tb1248 C1312 2.833 . S
C1249 C1252 1.432 . S
C1249 C1253 1.414 . S
C1249 N1256 1.359 . S
C1250 C1252 1.417 . S
C1250 C1254 1.432 . S
C1250 C1262 1.410 . S
C1251 C1253 1.444 . S
C1251 C1254 1.317 . S
C1251 H1274 0.929 . S
C1252 C1249 1.432 . S
C1252 C1250 1.417 . S
C1252 N1260 1.360 . S
C1253 C1249 1.414 . S
C1253 C1251 1.444 . S
C1253 C1258 1.385 . S
C1254 C1250 1.432 . S
C1254 C1251 1.317 . S
C1254 H1266 0.930 . S
C1255 C1257 1.392 . S
C1255 C1258 1.370 . S
C1255 H1267 0.931 . S
N1256 C1249 1.359 . S
N1256 C1257 1.327 . S
N1256 Tb1259 2.600 . S
C1257 C1255 1.392 . S
C1257 N1256 1.327 . S
C1257 H1264 0.930 . S
C1258 C1253 1.385 . S
C1258 C1255 1.370 . S
C1258 H1277 0.930 . S
Tb1259 N1256 2.600 . S
Tb1259 N1260 2.660 . S
Tb1259 O1293 2.362 . S
Tb1259 O1294 2.421 . S
Tb1259 O1298 2.546 . S
Tb1259 O1299 2.610 . S
Tb1259 O1301 2.320 . S
Tb1259 O1302 2.552 . S
Tb1259 O1303 2.413 . S
Tb1259 C1323 2.833 . S
N1260 C1252 1.360 . S
N1260 Tb1259 2.660 . S
N1260 C1261 1.305 . S
C1261 N1260 1.305 . S
C1261 C1263 1.407 . S
C1261 H1268 0.930 . S
C1262 C1250 1.410 . S
C1262 C1263 1.345 . S
C1262 H1270 0.930 . S
C1263 C1261 1.407 . S
C1263 C1262 1.345 . S
C1263 H1265 0.930 . S
H1264 C1257 0.930 . S
H1265 C1263 0.930 . S
H1266 C1254 0.930 . S
H1267 C1255 0.931 . S
H1268 C1261 0.930 . S
H1269 C1283 0.930 . S
H1270 C1262 0.930 . S
H1271 C1289 0.930 . S
H1272 C1280 0.930 . S
H1273 C1287 0.931 . S
H1274 C1251 0.929 . S
H1275 C1281 0.930 1_455 S
H1276 C1314 0.930 1_455 S
H1277 C1258 0.930 . S
H1278 C1313 0.929 . S
N1279 Tb1248 2.660 . S
N1279 C1280 1.305 . S
N1279 C1284 1.360 . S
C1280 H1272 0.930 . S
C1280 N1279 1.305 . S
C1280 C1283 1.407 . S
C1281 H1275 0.930 1_655 S
C1281 C1282 1.410 . S
C1281 C1283 1.345 . S
C1282 C1281 1.410 . S
C1282 C1284 1.417 . S
C1282 C1314 1.432 . S
C1283 H1269 0.930 . S
C1283 C1280 1.407 . S
C1283 C1281 1.345 . S
C1284 N1279 1.360 . S
C1284 C1282 1.417 . S
C1284 C1288 1.432 . S
H1285 C1290 0.930 . S
N1286 Tb1248 2.600 . S
N1286 C1288 1.359 . S
N1286 C1289 1.327 . S
C1287 H1273 0.931 . S
C1287 C1289 1.392 . S
C1287 C1290 1.370 . S
C1288 C1284 1.432 . S
C1288 N1286 1.359 . S
C1288 C1291 1.414 . S
C1289 H1271 0.930 . S
C1289 N1286 1.327 . S
C1289 C1287 1.392 . S
C1290 H1285 0.930 . S
C1290 C1287 1.370 . S
C1290 C1291 1.385 . S
C1291 C1288 1.414 . S
C1291 C1290 1.385 . S
C1291 C1313 1.444 . S
O1292 Tb1248 2.546 . S
O1292 C1312 1.251 . S
O1293 Tb1248 2.610 . S
O1293 Tb1259 2.362 . S
O1293 C1304 1.283 . S
O1294 Tb1259 2.421 . S
O1294 C1311 1.262 . S
O1295 Tb1248 2.320 . S
O1295 C1311 1.260 . S
O1296 Tb1248 2.552 . S
O1296 C1304 1.243 . S
O1297 Tb1248 2.413 . S
O1297 C1312 1.256 . S
O1298 Tb1259 2.546 . S
O1298 C1323 1.251 . S
O1299 Tb1248 2.362 . S
O1299 Tb1259 2.610 . S
O1299 C1315 1.283 . S
O1300 Tb1248 2.421 . S
O1300 C1322 1.262 . S
O1301 Tb1259 2.320 . S
O1301 C1322 1.260 . S
O1302 Tb1259 2.552 . S
O1302 C1315 1.243 . S
O1303 Tb1259 2.413 . S
O1303 C1323 1.256 . S
C1304 O1293 1.283 . S
C1304 O1296 1.243 . S
C1305 C1307 1.382 . S
C1305 C1309 1.393 . S
C1305 C1312 1.500 . S
C1306 C1307 1.400 . S
C1306 C1308 1.384 . S
C1307 C1305 1.382 . S
C1307 C1306 1.400 . S
C1307 H1324 0.930 . S
C1308 C1306 1.384 . S
C1308 C1310 1.392 . S
C1308 H1325 0.931 . S
C1309 C1305 1.393 . S
C1309 C1310 1.401 . S
C1309 H1326 0.930 . S
C1310 C1308 1.392 . S
C1310 C1309 1.401 . S
C1310 H1327 0.930 . S
C1311 O1294 1.262 . S
C1311 O1295 1.260 . S
C1312 Tb1248 2.833 . S
C1312 O1292 1.251 . S
C1312 O1297 1.256 . S
C1312 C1305 1.500 . S
C1313 H1278 0.929 . S
C1313 C1291 1.444 . S
C1313 C1314 1.317 . S
C1314 H1276 0.930 1_655 S
C1314 C1282 1.432 . S
C1314 C1313 1.317 . S
C1315 O1299 1.283 . S
C1315 O1302 1.243 . S
C1316 C1317 1.382 . S
C1316 C1320 1.393 . S
C1316 C1323 1.500 . S
C1317 C1316 1.382 . S
C1317 C1318 1.400 . S
C1317 H1328 0.930 . S
C1318 C1317 1.400 . S
C1318 C1319 1.384 . S
C1319 C1318 1.384 . S
C1319 C1321 1.392 . S
C1319 H1329 0.931 . S
C1320 C1316 1.393 . S
C1320 C1321 1.401 . S
C1320 H1330 0.930 . S
C1321 C1319 1.392 . S
C1321 C1320 1.401 . S
C1321 H1331 0.930 . S
C1322 O1300 1.262 . S
C1322 O1301 1.260 . S
C1323 Tb1259 2.833 . S
C1323 O1298 1.251 . S
C1323 O1303 1.256 . S
C1323 C1316 1.500 . S
H1324 C1307 0.930 . S
H1325 C1308 0.931 . S
H1326 C1309 0.930 . S
H1327 C1310 0.930 . S
H1328 C1317 0.930 . S
H1329 C1319 0.931 . S
H1330 C1320 0.930 . S
H1331 C1321 0.930 . S
C1332 C1333 1.369 . S
C1332 C1334 1.419 . S
C1332 H1336 0.930 . S
C1333 C1332 1.369 . S
C1333 C1342 1.429 . S
C1334 C1332 1.419 . S
C1334 C1335 1.363 . S
C1334 H1337 0.929 . S
C1335 C1334 1.363 . S
C1335 C1341 1.428 . S
H1336 C1332 0.930 . S
H1337 C1334 0.929 . S
S1338 N1339 1.613 . S
S1338 N1340 1.610 . S
N1339 S1338 1.613 . S
N1339 C1342 1.350 . S
N1340 S1338 1.610 . S
N1340 C1341 1.351 . S
C1341 C1335 1.428 . S
C1341 N1340 1.351 . S
C1341 C1342 1.434 . S
C1342 C1333 1.429 . S
C1342 N1339 1.350 . S
C1342 C1341 1.434 . S
C1343 C1344 1.369 . S
C1343 C1345 1.419 . S
C1343 H1347 0.930 . S
C1344 C1343 1.369 . S
C1344 C1353 1.429 . S
C1345 C1343 1.419 . S
C1345 C1346 1.363 . S
C1345 H1348 0.929 . S
C1346 C1345 1.363 . S
C1346 C1352 1.428 . S
H1347 C1343 0.930 . S
H1348 C1345 0.929 . S
S1349 N1350 1.613 . S
S1349 N1351 1.610 . S
N1350 S1349 1.613 . S
N1350 C1353 1.350 . S
N1351 S1349 1.610 . S
N1351 C1352 1.351 . S
C1352 C1346 1.428 . S
C1352 N1351 1.351 . S
C1352 C1353 1.434 . S
C1353 C1344 1.429 . S
C1353 N1350 1.350 . S
C1353 C1352 1.434 . S
C1354 C1355 1.369 . S
C1354 C1356 1.419 . S
C1354 H1358 0.930 . S
C1355 C1354 1.369 . S
C1355 C1364 1.429 . S
C1356 C1354 1.419 . S
C1356 C1357 1.363 . S
C1356 H1359 0.951 . S
C1357 C1356 1.363 . S
C1357 C1363 1.428 . S
H1358 C1354 0.930 . S
H1359 C1356 0.951 . S
S1360 N1361 1.613 . S
S1360 N1362 1.610 . S
N1361 S1360 1.613 . S
N1361 C1364 1.350 . S
N1362 S1360 1.610 . S
N1362 C1363 1.351 . S
C1363 C1357 1.428 . S
C1363 N1362 1.351 . S
C1363 C1364 1.434 . S
C1364 C1355 1.429 . S
C1364 N1361 1.350 . S
C1364 C1363 1.434 . S
C1365 C1366 1.369 . S
C1365 C1367 1.419 . S
C1365 H1369 0.930 . S
C1366 C1365 1.369 . S
C1366 C1375 1.429 . S
C1367 C1365 1.419 . S
C1367 C1368 1.363 . S
C1367 H1370 0.929 . S
C1368 C1367 1.363 . S
C1368 C1374 1.428 . S
H1369 C1365 0.930 . S
H1370 C1367 0.929 . S
S1371 N1372 1.613 1_554 S
S1371 N1373 1.610 . S
N1372 S1371 1.613 1_556 S
N1372 C1375 1.350 . S
N1373 S1371 1.610 . S
N1373 C1374 1.351 1_554 S
C1374 C1368 1.428 . S
C1374 N1373 1.351 1_556 S
C1374 C1375 1.434 . S
C1375 C1366 1.429 . S
C1375 N1372 1.350 . S
C1375 C1374 1.434 . S
C1376 C1377 1.369 . S
C1376 C1378 1.419 . S
C1376 H1380 0.930 . S
C1377 C1376 1.369 . S
C1377 C1386 1.429 . S
C1378 C1376 1.419 . S
C1378 C1379 1.363 . S
C1378 H1381 0.929 1_556 S
C1379 C1378 1.363 . S
C1379 C1385 1.428 . S
H1380 C1376 0.930 . S
H1381 C1378 0.929 1_554 S
S1382 N1383 1.613 . S
S1382 N1384 1.610 . S
N1383 S1382 1.613 . S
N1383 C1386 1.350 . S
N1384 S1382 1.610 . S
N1384 C1385 1.351 . S
C1385 C1379 1.428 . S
C1385 N1384 1.351 . S
C1385 C1386 1.434 . S
C1386 C1377 1.429 . S
C1386 N1383 1.350 . S
C1386 C1385 1.434 . S
C1387 C1388 1.369 . S
C1387 C1389 1.419 . S
C1387 H1391 0.930 . S
C1388 C1387 1.369 . S
C1388 C1397 1.429 . S
C1389 C1387 1.419 . S
C1389 C1390 1.363 . S
C1389 H1392 0.929 . S
C1390 C1389 1.363 . S
C1390 C1396 1.428 . S
H1391 C1387 0.930 . S
H1392 C1389 0.929 . S
S1393 N1394 1.613 . S
S1393 N1395 1.610 . S
N1394 S1393 1.613 . S
N1394 C1397 1.350 . S
N1395 S1393 1.610 . S
N1395 C1396 1.351 . S
C1396 C1390 1.428 . S
C1396 N1395 1.351 . S
C1396 C1397 1.434 . S
C1397 C1388 1.429 . S
C1397 N1394 1.350 . S
C1397 C1396 1.434 . S
C1398 C1399 1.369 . S
C1398 C1400 1.419 . S
C1398 H1402 0.930 . S
C1399 C1398 1.369 . S
C1399 C1408 1.429 . S
C1400 C1398 1.419 . S
C1400 C1401 1.363 . S
C1400 H1403 0.929 . S
C1401 C1400 1.363 . S
C1401 C1407 1.428 . S
H1402 C1398 0.930 . S
H1403 C1400 0.929 . S
S1404 N1405 1.613 . S
S1404 N1406 1.610 . S
N1405 S1404 1.613 . S
N1405 C1408 1.350 . S
N1406 S1404 1.610 . S
N1406 C1407 1.351 . S
C1407 C1401 1.428 . S
C1407 N1406 1.351 . S
C1407 C1408 1.434 . S
C1408 C1399 1.429 . S
C1408 N1405 1.350 . S
C1408 C1407 1.434 . S
C1409 C1410 1.369 . S
C1409 C1411 1.419 . S
C1409 H1413 0.930 . S
C1410 C1409 1.369 . S
C1410 C1419 1.429 . S
C1411 C1409 1.419 . S
C1411 C1412 1.363 . S
C1411 H1414 0.929 . S
C1412 C1411 1.363 . S
C1412 C1418 1.428 . S
H1413 C1409 0.930 . S
H1414 C1411 0.929 . S
S1415 N1416 1.613 . S
S1415 N1417 1.610 . S
N1416 S1415 1.613 . S
N1416 C1419 1.350 . S
N1417 S1415 1.610 . S
N1417 C1418 1.351 . S
C1418 C1412 1.428 . S
C1418 N1417 1.351 . S
C1418 C1419 1.434 . S
C1419 C1410 1.429 . S
C1419 N1416 1.350 . S
C1419 C1418 1.434 . S
C1420 C1421 1.369 . S
C1420 C1422 1.419 . S
C1420 H1424 0.930 . S
C1421 C1420 1.369 . S
C1421 C1430 1.429 . S
C1422 C1420 1.419 . S
C1422 C1423 1.363 . S
C1422 H1425 0.929 . S
C1423 C1422 1.363 . S
C1423 C1429 1.428 . S
H1424 C1420 0.930 . S
H1425 C1422 0.929 . S
S1426 N1427 1.613 . S
S1426 N1428 1.610 . S
N1427 S1426 1.613 . S
N1427 C1430 1.350 . S
N1428 S1426 1.610 . S
N1428 C1429 1.351 . S
C1429 C1423 1.428 . S
C1429 N1428 1.351 . S
C1429 C1430 1.434 . S
C1430 C1421 1.429 . S
C1430 N1427 1.350 . S
C1430 C1429 1.434 . S
C1431 C1432 1.369 . S
C1431 C1433 1.419 . S
C1431 H1435 0.930 . S
C1432 C1431 1.369 . S
C1432 C1441 1.429 . S
C1433 C1431 1.419 . S
C1433 C1434 1.363 . S
C1433 H1436 0.929 . S
C1434 C1433 1.363 . S
C1434 C1440 1.428 . S
H1435 C1431 0.930 . S
H1436 C1433 0.929 . S
S1437 N1438 1.613 1_556 S
S1437 N1439 1.610 . S
N1438 S1437 1.613 1_554 S
N1438 C1441 1.350 . S
N1439 S1437 1.610 . S
N1439 C1440 1.351 1_556 S
C1440 C1434 1.428 . S
C1440 N1439 1.351 1_554 S
C1440 C1441 1.434 . S
C1441 C1432 1.429 . S
C1441 N1438 1.350 . S
C1441 C1440 1.434 . S
C1442 C1443 1.369 . S
C1442 C1444 1.419 . S
C1442 H1446 0.930 . S
C1443 C1442 1.369 . S
C1443 C1452 1.429 . S
C1444 C1442 1.419 . S
C1444 C1445 1.363 . S
C1444 H1447 0.929 . S
C1445 C1444 1.363 . S
C1445 C1451 1.428 . S
H1446 C1442 0.930 . S
H1447 C1444 0.929 . S
S1448 N1449 1.613 . S
S1448 N1450 1.610 . S
N1449 S1448 1.613 . S
N1449 C1452 1.350 . S
N1450 S1448 1.610 . S
N1450 C1451 1.351 . S
C1451 C1445 1.428 . S
C1451 N1450 1.351 . S
C1451 C1452 1.434 . S
C1452 C1443 1.429 . S
C1452 N1449 1.350 . S
C1452 C1451 1.434 . S
C1453 C1454 1.369 . S
C1453 C1455 1.419 . S
C1453 H1457 0.930 . S
C1454 C1453 1.369 . S
C1454 C1463 1.429 . S
C1455 C1453 1.419 . S
C1455 C1456 1.363 . S
C1455 H1458 0.929 . S
C1456 C1455 1.363 . S
C1456 C1462 1.428 . S
H1457 C1453 0.930 . S
H1458 C1455 0.929 . S
S1459 N1460 1.613 1_556 S
S1459 N1461 1.610 1_556 S
N1460 S1459 1.613 1_554 S
N1460 C1463 1.350 . S
N1461 S1459 1.610 1_554 S
N1461 C1462 1.351 . S
C1462 C1456 1.428 . S
C1462 N1461 1.351 . S
C1462 C1463 1.434 . S
C1463 C1454 1.429 . S
C1463 N1460 1.350 . S
C1463 C1462 1.434 . S
C1464 C1465 1.369 . S
C1464 C1466 1.419 . S
C1464 H1468 0.930 . S
C1465 C1464 1.369 . S
C1465 C1474 1.429 . S
C1466 C1464 1.419 . S
C1466 C1467 1.363 . S
C1466 H1469 0.929 . S
C1467 C1466 1.363 . S
C1467 C1473 1.428 . S
H1468 C1464 0.930 . S
H1469 C1466 0.929 . S
S1470 N1471 1.613 . S
S1470 N1472 1.610 . S
N1471 S1470 1.613 . S
N1471 C1474 1.350 . S
N1472 S1470 1.610 . S
N1472 C1473 1.351 . S
C1473 C1467 1.428 . S
C1473 N1472 1.351 . S
C1473 C1474 1.434 . S
C1474 C1465 1.429 . S
C1474 N1471 1.350 . S
C1474 C1473 1.434 . S
C1475 C1476 1.369 . S
C1475 C1477 1.419 . S
C1475 H1479 0.930 . S
C1476 C1475 1.369 . S
C1476 C1485 1.429 . S
C1477 C1475 1.419 . S
C1477 C1478 1.363 . S
C1477 H1480 0.929 . S
C1478 C1477 1.363 . S
C1478 C1484 1.428 . S
H1479 C1475 0.930 . S
H1480 C1477 0.929 . S
S1481 N1482 1.613 . S
S1481 N1483 1.610 . S
N1482 S1481 1.613 . S
N1482 C1485 1.350 . S
N1483 S1481 1.610 . S
N1483 C1484 1.351 . S
C1484 C1478 1.428 . S
C1484 N1483 1.351 . S
C1484 C1485 1.434 . S
C1485 C1476 1.429 . S
C1485 N1482 1.350 . S
C1485 C1484 1.434 . S
C1486 C1487 1.366 1_565 S
C1486 C1488 1.419 . S
C1486 H1490 0.930 . S
C1487 C1486 1.366 1_545 S
C1487 C1496 1.428 1_545 S
C1488 C1486 1.419 . S
C1488 C1489 1.363 . S
C1488 H1491 0.929 . S
C1489 C1488 1.363 . S
C1489 C1495 1.428 . S
H1490 C1486 0.930 . S
H1491 C1488 0.929 . S
S1492 N1493 1.613 1_565 S
S1492 N1494 1.610 . S
N1493 S1492 1.613 1_545 S
N1493 C1496 1.350 1_545 S
N1494 S1492 1.610 . S
N1494 C1495 1.351 . S
C1495 C1489 1.428 . S
C1495 N1494 1.351 . S
C1495 C1496 1.434 . S
C1496 C1487 1.428 1_565 S
C1496 N1493 1.350 1_565 S
C1496 C1495 1.434 . S
C1497 C1498 1.369 . S
C1497 C1499 1.419 . S
C1497 H1501 0.930 . S
C1498 C1497 1.369 . S
C1498 C1507 1.429 . S
C1499 C1497 1.419 . S
C1499 C1500 1.363 . S
C1499 H1502 0.929 . S
C1500 C1499 1.363 . S
C1500 C1506 1.428 . S
H1501 C1497 0.930 . S
H1502 C1499 0.929 . S
S1503 N1504 1.613 . S
S1503 N1505 1.610 . S
N1504 S1503 1.613 . S
N1504 C1507 1.350 . S
N1505 S1503 1.610 . S
N1505 C1506 1.351 . S
C1506 C1500 1.428 . S
C1506 N1505 1.351 . S
C1506 C1507 1.434 . S
C1507 C1498 1.429 . S
C1507 N1504 1.350 . S
C1507 C1506 1.434 . S
C1508 C1509 1.369 . S
C1508 C1510 1.419 . S
C1508 H1512 0.930 . S
C1509 C1508 1.369 . S
C1509 C1518 1.429 . S
C1510 C1508 1.419 . S
C1510 C1511 1.363 . S
C1510 H1513 0.929 . S
C1511 C1510 1.363 . S
C1511 C1517 1.428 . S
H1512 C1508 0.930 . S
H1513 C1510 0.929 . S
S1514 N1515 1.613 . S
S1514 N1516 1.610 . S
N1515 S1514 1.613 . S
N1515 C1518 1.350 . S
N1516 S1514 1.610 . S
N1516 C1517 1.351 . S
C1517 C1511 1.428 . S
C1517 N1516 1.351 . S
C1517 C1518 1.434 . S
C1518 C1509 1.429 . S
C1518 N1515 1.350 . S
C1518 C1517 1.434 . S
C1519 C1520 1.369 . S
C1519 C1521 1.419 . S
C1519 H1523 0.930 . S
C1520 C1519 1.369 . S
C1520 C1529 1.429 . S
C1521 C1519 1.419 . S
C1521 C1522 1.363 . S
C1521 H1524 0.929 . S
C1522 C1521 1.363 . S
C1522 C1528 1.428 . S
H1523 C1519 0.930 . S
H1524 C1521 0.929 . S
S1525 N1526 1.613 . S
S1525 N1527 1.610 . S
N1526 S1525 1.613 . S
N1526 C1529 1.350 . S
N1527 S1525 1.610 . S
N1527 C1528 1.351 . S
C1528 C1522 1.428 . S
C1528 N1527 1.351 . S
C1528 C1529 1.434 . S
C1529 C1520 1.429 . S
C1529 N1526 1.350 . S
C1529 C1528 1.434 . S
C1530 C1531 1.369 . S
C1530 C1532 1.419 . S
C1530 H1534 0.930 . S
C1531 C1530 1.369 . S
C1531 C1540 1.429 . S
C1532 C1530 1.419 . S
C1532 C1533 1.363 . S
C1532 H1535 0.929 . S
C1533 C1532 1.363 . S
C1533 C1539 1.428 . S
H1534 C1530 0.930 . S
H1535 C1532 0.929 . S
S1536 N1537 1.613 . S
S1536 N1538 1.610 . S
N1537 S1536 1.613 . S
N1537 C1540 1.350 . S
N1538 S1536 1.610 . S
N1538 C1539 1.351 . S
C1539 C1533 1.428 . S
C1539 N1538 1.351 . S
C1539 C1540 1.434 . S
C1540 C1531 1.429 . S
C1540 N1537 1.350 . S
C1540 C1539 1.434 . S
C1541 C1542 1.369 . S
C1541 C1543 1.419 . S
C1541 H1545 0.930 . S
C1542 C1541 1.369 . S
C1542 C1551 1.429 . S
C1543 C1541 1.419 . S
C1543 C1544 1.363 . S
C1543 H1546 0.929 . S
C1544 C1543 1.363 . S
C1544 C1550 1.428 . S
H1545 C1541 0.930 . S
H1546 C1543 0.929 . S
S1547 N1548 1.613 . S
S1547 N1549 1.610 . S
N1548 S1547 1.613 . S
N1548 C1551 1.350 . S
N1549 S1547 1.610 . S
N1549 C1550 1.351 . S
C1550 C1544 1.428 . S
C1550 N1549 1.351 . S
C1550 C1551 1.434 . S
C1551 C1542 1.429 . S
C1551 N1548 1.350 . S
C1551 C1550 1.434 . S
C1552 C1553 1.369 . S
C1552 C1554 1.419 . S
C1552 H1556 0.930 . S
C1553 C1552 1.369 . S
C1553 C1562 1.429 . S
C1554 C1552 1.419 . S
C1554 C1555 1.363 . S
C1554 H1557 0.929 . S
C1555 C1554 1.363 . S
C1555 C1561 1.428 . S
H1556 C1552 0.930 . S
H1557 C1554 0.929 . S
S1558 N1559 1.613 . S
S1558 N1560 1.610 . S
N1559 S1558 1.613 . S
N1559 C1562 1.350 . S
N1560 S1558 1.610 . S
N1560 C1561 1.351 . S
C1561 C1555 1.428 . S
C1561 N1560 1.351 . S
C1561 C1562 1.434 . S
C1562 C1553 1.429 . S
C1562 N1559 1.350 . S
C1562 C1561 1.434 . S
C1563 C1564 1.369 . S
C1563 C1565 1.419 . S
C1563 H1567 0.930 . S
C1564 C1563 1.369 . S
C1564 C1573 1.429 . S
C1565 C1563 1.419 . S
C1565 C1566 1.363 . S
C1565 H1568 0.929 . S
C1566 C1565 1.363 . S
C1566 C1572 1.428 . S
H1567 C1563 0.930 . S
H1568 C1565 0.929 . S
S1569 N1570 1.613 . S
S1569 N1571 1.610 . S
N1570 S1569 1.613 . S
N1570 C1573 1.350 . S
N1571 S1569 1.610 . S
N1571 C1572 1.351 . S
C1572 C1566 1.428 . S
C1572 N1571 1.351 . S
C1572 C1573 1.434 . S
C1573 C1564 1.429 . S
C1573 N1570 1.350 . S
C1573 C1572 1.434 . S
C1574 C1575 1.369 . S
C1574 C1576 1.419 . S
C1574 H1578 0.930 . S
C1575 C1574 1.369 . S
C1575 C1584 1.429 . S
C1576 C1574 1.419 . S
C1576 C1577 1.363 . S
C1576 H1579 0.929 . S
C1577 C1576 1.363 . S
C1577 C1583 1.428 . S
H1578 C1574 0.930 . S
H1579 C1576 0.929 . S
S1580 N1581 1.613 1_455 S
S1580 N1582 1.610 . S
N1581 S1580 1.613 1_655 S
N1581 C1584 1.350 1_655 S
N1582 S1580 1.610 . S
N1582 C1583 1.351 . S
C1583 C1577 1.428 . S
C1583 N1582 1.351 . S
C1583 C1584 1.434 . S
C1584 C1575 1.429 . S
C1584 N1581 1.350 1_455 S
C1584 C1583 1.434 . S
C1585 C1586 1.369 . S
C1585 C1587 1.419 . S
C1585 H1589 0.930 . S
C1586 C1585 1.369 . S
C1586 C1595 1.429 . S
C1587 C1585 1.419 . S
C1587 C1588 1.363 . S
C1587 H1590 0.929 . S
C1588 C1587 1.363 . S
C1588 C1594 1.428 . S
H1589 C1585 0.930 . S
H1590 C1587 0.929 . S
S1591 N1592 1.613 . S
S1591 N1593 1.610 . S
N1592 S1591 1.613 . S
N1592 C1595 1.350 . S
N1593 S1591 1.610 . S
N1593 C1594 1.351 . S
C1594 C1588 1.428 . S
C1594 N1593 1.351 . S
C1594 C1595 1.434 . S
C1595 C1586 1.429 . S
C1595 N1592 1.350 . S
C1595 C1594 1.434 . S
C1596 C1597 1.369 . S
C1596 C1598 1.419 . S
C1596 H1600 0.930 . S
C1597 C1596 1.369 . S
C1597 C1606 1.429 . S
C1598 C1596 1.419 . S
C1598 C1599 1.363 . S
C1598 H1601 0.929 . S
C1599 C1598 1.363 . S
C1599 C1605 1.428 . S
H1600 C1596 0.930 . S
H1601 C1598 0.929 . S
S1602 N1603 1.613 . S
S1602 N1604 1.610 . S
N1603 S1602 1.613 . S
N1603 C1606 1.350 . S
N1604 S1602 1.610 . S
N1604 C1605 1.351 . S
C1605 C1599 1.428 . S
C1605 N1604 1.351 . S
C1605 C1606 1.434 . S
C1606 C1597 1.429 . S
C1606 N1603 1.350 . S
C1606 C1605 1.434 . S
C1607 C1608 1.369 . S
C1607 C1609 1.419 . S
C1607 H1611 0.930 . S
C1608 C1607 1.369 . S
C1608 C1617 1.429 . S
C1609 C1607 1.419 . S
C1609 C1610 1.363 . S
C1609 H1612 0.929 . S
C1610 C1609 1.363 . S
C1610 C1616 1.428 . S
H1611 C1607 0.930 . S
H1612 C1609 0.929 . S
S1613 N1614 1.613 . S
S1613 N1615 1.610 . S
N1614 S1613 1.613 . S
N1614 C1617 1.350 . S
N1615 S1613 1.610 . S
N1615 C1616 1.351 . S
C1616 C1610 1.428 . S
C1616 N1615 1.351 . S
C1616 C1617 1.434 . S
C1617 C1608 1.429 . S
C1617 N1614 1.350 . S
C1617 C1616 1.434 . S
C1618 C1619 1.369 . S
C1618 C1620 1.419 . S
C1618 H1622 0.930 . S
C1619 C1618 1.369 . S
C1619 C1628 1.429 . S
C1620 C1618 1.419 . S
C1620 C1621 1.363 . S
C1620 H1623 0.929 . S
C1621 C1620 1.363 . S
C1621 C1627 1.428 . S
H1622 C1618 0.930 . S
H1623 C1620 0.929 . S
S1624 N1625 1.613 . S
S1624 N1626 1.610 . S
N1625 S1624 1.613 . S
N1625 C1628 1.350 . S
N1626 S1624 1.610 . S
N1626 C1627 1.351 . S
C1627 C1621 1.428 . S
C1627 N1626 1.351 . S
C1627 C1628 1.434 . S
C1628 C1619 1.429 . S
C1628 N1625 1.350 . S
C1628 C1627 1.434 . S
C1629 C1630 1.369 . S
C1629 C1631 1.419 . S
C1629 H1633 0.930 . S
C1630 C1629 1.369 . S
C1630 C1639 1.429 . S
C1631 C1629 1.419 . S
C1631 C1632 1.363 . S
C1631 H1634 0.929 . S
C1632 C1631 1.363 . S
C1632 C1638 1.428 . S
H1633 C1629 0.930 . S
H1634 C1631 0.929 . S
S1635 N1636 1.613 . S
S1635 N1637 1.610 . S
N1636 S1635 1.613 . S
N1636 C1639 1.350 . S
N1637 S1635 1.610 . S
N1637 C1638 1.351 . S
C1638 C1632 1.428 . S
C1638 N1637 1.351 . S
C1638 C1639 1.434 . S
C1639 C1630 1.429 . S
C1639 N1636 1.350 . S
C1639 C1638 1.434 . S
C1640 C1641 1.369 . S
C1640 C1642 1.419 . S
C1640 H1644 0.930 . S
C1641 C1640 1.369 . S
C1641 C1650 1.429 . S
C1642 C1640 1.419 . S
C1642 C1643 1.363 . S
C1642 H1645 0.929 . S
C1643 C1642 1.363 . S
C1643 C1649 1.428 . S
H1644 C1640 0.930 . S
H1645 C1642 0.929 . S
S1646 N1647 1.613 . S
S1646 N1648 1.610 . S
N1647 S1646 1.613 . S
N1647 C1650 1.350 . S
N1648 S1646 1.610 . S
N1648 C1649 1.351 . S
C1649 C1643 1.428 . S
C1649 N1648 1.351 . S
C1649 C1650 1.434 . S
C1650 C1641 1.429 . S
C1650 N1647 1.350 . S
C1650 C1649 1.434 . S
C1651 C1652 1.369 . S
C1651 C1653 1.419 . S
C1651 H1655 0.930 . S
C1652 C1651 1.369 . S
C1652 C1661 1.429 . S
C1653 C1651 1.419 . S
C1653 C1654 1.363 . S
C1653 H1656 0.929 . S
C1654 C1653 1.363 . S
C1654 C1660 1.428 . S
H1655 C1651 0.930 . S
H1656 C1653 0.929 . S
S1657 N1658 1.613 . S
S1657 N1659 1.610 . S
N1658 S1657 1.613 . S
N1658 C1661 1.350 . S
N1659 S1657 1.610 . S
N1659 C1660 1.351 . S
C1660 C1654 1.428 . S
C1660 N1659 1.351 . S
C1660 C1661 1.434 . S
C1661 C1652 1.429 . S
C1661 N1658 1.350 . S
C1661 C1660 1.434 . S
C1662 C1663 1.369 . S
C1662 C1664 1.419 . S
C1662 H1666 0.947 . S
C1663 C1662 1.369 . S
C1663 C1672 1.429 . S
C1664 C1662 1.419 . S
C1664 C1665 1.363 . S
C1664 H1667 0.929 . S
C1665 C1664 1.363 . S
C1665 C1671 1.428 . S
H1666 C1662 0.947 . S
H1667 C1664 0.929 . S
S1668 N1669 1.613 . S
S1668 N1670 1.610 . S
N1669 S1668 1.613 . S
N1669 C1672 1.350 . S
N1670 S1668 1.610 . S
N1670 C1671 1.351 . S
C1671 C1665 1.428 . S
C1671 N1670 1.351 . S
C1671 C1672 1.434 . S
C1672 C1663 1.429 . S
C1672 N1669 1.350 . S
C1672 C1671 1.434 . S
C1673 C1674 1.369 . S
C1673 C1675 1.419 . S
C1673 H1677 0.930 . S
C1674 C1673 1.369 . S
C1674 C1683 1.429 . S
C1675 C1673 1.419 . S
C1675 C1676 1.363 . S
C1675 H1678 0.929 . S
C1676 C1675 1.363 . S
C1676 C1682 1.428 . S
H1677 C1673 0.930 . S
H1678 C1675 0.929 . S
S1679 N1680 1.613 . S
S1679 N1681 1.610 . S
N1680 S1679 1.613 . S
N1680 C1683 1.350 . S
N1681 S1679 1.610 . S
N1681 C1682 1.351 . S
C1682 C1676 1.428 . S
C1682 N1681 1.351 . S
C1682 C1683 1.434 . S
C1683 C1674 1.429 . S
C1683 N1680 1.350 . S
C1683 C1682 1.434 . S
C1684 C1685 1.369 . S
C1684 C1686 1.419 . S
C1684 H1688 0.930 . S
C1685 C1684 1.369 . S
C1685 C1694 1.429 . S
C1686 C1684 1.419 . S
C1686 C1687 1.363 . S
C1686 H1689 0.929 . S
C1687 C1686 1.363 . S
C1687 C1693 1.428 . S
H1688 C1684 0.930 . S
H1689 C1686 0.929 . S
S1690 N1691 1.613 1_545 S
S1690 N1692 1.610 . S
N1691 S1690 1.613 1_565 S
N1691 C1694 1.350 1_565 S
N1692 S1690 1.610 . S
N1692 C1693 1.351 . S
C1693 C1687 1.428 . S
C1693 N1692 1.351 . S
C1693 C1694 1.434 . S
C1694 C1685 1.429 . S
C1694 N1691 1.350 1_545 S
C1694 C1693 1.434 . S
C1695 C1696 1.369 . S
C1695 C1697 1.419 . S
C1695 H1699 0.930 . S
C1696 C1695 1.369 . S
C1696 C1705 1.429 . S
C1697 C1695 1.419 . S
C1697 C1698 1.363 . S
C1697 H1700 0.929 . S
C1698 C1697 1.363 . S
C1698 C1704 1.428 . S
H1699 C1695 0.930 . S
H1700 C1697 0.929 . S
S1701 N1702 1.613 . S
S1701 N1703 1.610 . S
N1702 S1701 1.613 . S
N1702 C1705 1.350 . S
N1703 S1701 1.610 . S
N1703 C1704 1.351 . S
C1704 C1698 1.428 . S
C1704 N1703 1.351 . S
C1704 C1705 1.434 . S
C1705 C1696 1.429 . S
C1705 N1702 1.350 . S
C1705 C1704 1.434 . S
C1706 C1707 1.369 . S
C1706 C1708 1.419 . S
C1706 H1710 0.930 . S
C1707 C1706 1.369 . S
C1707 C1716 1.429 . S
C1708 C1706 1.419 . S
C1708 C1709 1.363 . S
C1708 H1711 0.929 . S
C1709 C1708 1.363 . S
C1709 C1715 1.428 . S
H1710 C1706 0.930 . S
H1711 C1708 0.929 . S
S1712 N1713 1.613 . S
S1712 N1714 1.610 . S
N1713 S1712 1.613 . S
N1713 C1716 1.350 . S
N1714 S1712 1.610 . S
N1714 C1715 1.351 . S
C1715 C1709 1.428 . S
C1715 N1714 1.351 . S
C1715 C1716 1.434 . S
C1716 C1707 1.429 . S
C1716 N1713 1.350 . S
C1716 C1715 1.434 . S
C1717 C1718 1.369 . S
C1717 C1719 1.419 . S
C1717 H1721 0.930 . S
C1718 C1717 1.369 . S
C1718 C1727 1.429 . S
C1719 C1717 1.419 . S
C1719 C1720 1.363 . S
C1719 H1722 0.929 . S
C1720 C1719 1.363 . S
C1720 C1726 1.428 . S
H1721 C1717 0.930 . S
H1722 C1719 0.929 . S
S1723 N1724 1.613 . S
S1723 N1725 1.610 . S
N1724 S1723 1.613 . S
N1724 C1727 1.350 . S
N1725 S1723 1.610 . S
N1725 C1726 1.351 . S
C1726 C1720 1.428 . S
C1726 N1725 1.351 . S
C1726 C1727 1.434 . S
C1727 C1718 1.429 . S
C1727 N1724 1.350 . S
C1727 C1726 1.434 . S
C1728 C1729 1.369 . S
C1728 C1730 1.419 . S
C1728 H1732 0.930 . S
C1729 C1728 1.369 . S
C1729 C1738 1.429 . S
C1730 C1728 1.419 . S
C1730 C1731 1.363 . S
C1730 H1733 0.929 1_565 S
C1731 C1730 1.363 . S
C1731 C1737 1.428 . S
H1732 C1728 0.930 . S
H1733 C1730 0.929 1_545 S
S1734 N1735 1.613 . S
S1734 N1736 1.610 . S
N1735 S1734 1.613 . S
N1735 C1738 1.350 . S
N1736 S1734 1.610 . S
N1736 C1737 1.351 . S
C1737 C1731 1.428 . S
C1737 N1736 1.351 . S
C1737 C1738 1.434 . S
C1738 C1729 1.429 . S
C1738 N1735 1.350 . S
C1738 C1737 1.434 . S
C1739 C1740 1.369 . S
C1739 C1741 1.419 . S
C1739 H1743 0.930 . S
C1740 C1739 1.369 . S
C1740 C1749 1.429 . S
C1741 C1739 1.419 . S
C1741 C1742 1.363 . S
C1741 H1744 0.929 . S
C1742 C1741 1.363 . S
C1742 C1748 1.428 . S
H1743 C1739 0.930 . S
H1744 C1741 0.929 . S
S1745 N1746 1.613 . S
S1745 N1747 1.610 . S
N1746 S1745 1.613 . S
N1746 C1749 1.350 1_655 S
N1747 S1745 1.610 . S
N1747 C1748 1.351 1_655 S
C1748 C1742 1.428 . S
C1748 N1747 1.351 1_455 S
C1748 C1749 1.434 . S
C1749 C1740 1.429 . S
C1749 N1746 1.350 1_455 S
C1749 C1748 1.434 . S
C1750 C1751 1.369 . S
C1750 C1752 1.419 . S
C1750 H1754 0.930 . S
C1751 C1750 1.369 . S
C1751 C1760 1.429 . S
C1752 C1750 1.419 . S
C1752 C1753 1.363 . S
C1752 H1755 0.929 . S
C1753 C1752 1.363 . S
C1753 C1759 1.428 . S
H1754 C1750 0.930 . S
H1755 C1752 0.929 . S
S1756 N1757 1.613 . S
S1756 N1758 1.610 . S
N1757 S1756 1.613 . S
N1757 C1760 1.350 . S
N1758 S1756 1.610 . S
N1758 C1759 1.351 . S
C1759 C1753 1.428 . S
C1759 N1758 1.351 . S
C1759 C1760 1.434 . S
C1760 C1751 1.429 . S
C1760 N1757 1.350 . S
C1760 C1759 1.434 . S
C1761 C1762 1.369 . S
C1761 C1763 1.419 . S
C1761 H1765 0.930 . S
C1762 C1761 1.369 . S
C1762 C1771 1.429 . S
C1763 C1761 1.419 . S
C1763 C1764 1.363 . S
C1763 H1766 0.929 . S
C1764 C1763 1.363 . S
C1764 C1770 1.428 . S
H1765 C1761 0.930 . S
H1766 C1763 0.929 . S
S1767 N1768 1.613 . S
S1767 N1769 1.610 . S
N1768 S1767 1.613 . S
N1768 C1771 1.350 . S
N1769 S1767 1.610 . S
N1769 C1770 1.351 . S
C1770 C1764 1.428 . S
C1770 N1769 1.351 . S
C1770 C1771 1.434 . S
C1771 C1762 1.429 . S
C1771 N1768 1.350 . S
C1771 C1770 1.434 . S
C1772 C1773 1.369 . S
C1772 C1774 1.419 . S
C1772 H1776 0.930 . S
C1773 C1772 1.369 . S
C1773 C1782 1.429 . S
C1774 C1772 1.419 . S
C1774 C1775 1.363 . S
C1774 H1777 0.929 . S
C1775 C1774 1.363 . S
C1775 C1781 1.428 . S
H1776 C1772 0.930 . S
H1777 C1774 0.929 . S
S1778 N1779 1.613 . S
S1778 N1780 1.610 . S
N1779 S1778 1.613 . S
N1779 C1782 1.350 . S
N1780 S1778 1.610 . S
N1780 C1781 1.351 . S
C1781 C1775 1.428 . S
C1781 N1780 1.351 . S
C1781 C1782 1.434 . S
C1782 C1773 1.429 . S
C1782 N1779 1.350 . S
C1782 C1781 1.434 . S
C1783 C1784 1.369 . S
C1783 C1785 1.419 . S
C1783 H1787 0.930 . S
C1784 C1783 1.369 . S
C1784 C1793 1.429 . S
C1785 C1783 1.419 . S
C1785 C1786 1.363 . S
C1785 H1788 0.929 . S
C1786 C1785 1.363 . S
C1786 C1792 1.428 . S
H1787 C1783 0.930 . S
H1788 C1785 0.929 . S
S1789 N1790 1.613 1_565 S
S1789 N1791 1.610 . S
N1790 S1789 1.613 1_545 S
N1790 C1793 1.350 . S
N1791 S1789 1.610 . S
N1791 C1792 1.351 1_565 S
C1792 C1786 1.428 . S
C1792 N1791 1.351 1_545 S
C1792 C1793 1.434 . S
C1793 C1784 1.429 . S
C1793 N1790 1.350 . S
C1793 C1792 1.434 . S
C1794 C1795 1.369 . S
C1794 C1796 1.419 . S
C1794 H1798 0.930 . S
C1795 C1794 1.369 . S
C1795 C1804 1.429 . S
C1796 C1794 1.419 . S
C1796 C1797 1.363 . S
C1796 H1799 0.929 . S
C1797 C1796 1.363 . S
C1797 C1803 1.428 . S
H1798 C1794 0.930 . S
H1799 C1796 0.929 . S
S1800 N1801 1.613 . S
S1800 N1802 1.610 . S
N1801 S1800 1.613 . S
N1801 C1804 1.350 . S
N1802 S1800 1.610 . S
N1802 C1803 1.351 . S
C1803 C1797 1.428 . S
C1803 N1802 1.351 . S
C1803 C1804 1.434 . S
C1804 C1795 1.429 . S
C1804 N1801 1.350 . S
C1804 C1803 1.434 . S
C1805 C1806 1.369 . S
C1805 C1807 1.419 . S
C1805 H1809 0.930 . S
C1806 C1805 1.369 . S
C1806 C1815 1.429 . S
C1807 C1805 1.419 . S
C1807 C1808 1.363 . S
C1807 H1810 0.929 . S
C1808 C1807 1.363 . S
C1808 C1814 1.428 . S
H1809 C1805 0.930 . S
H1810 C1807 0.929 . S
S1811 N1812 1.613 . S
S1811 N1813 1.610 . S
N1812 S1811 1.613 . S
N1812 C1815 1.350 . S
N1813 S1811 1.610 . S
N1813 C1814 1.351 . S
C1814 C1808 1.428 . S
C1814 N1813 1.351 . S
C1814 C1815 1.434 . S
C1815 C1806 1.429 . S
C1815 N1812 1.350 . S
C1815 C1814 1.434 . S
C1816 C1817 1.369 . S
C1816 C1818 1.419 . S
C1816 H1820 0.930 . S
C1817 C1816 1.369 . S
C1817 C1826 1.429 . S
C1818 C1816 1.419 . S
C1818 C1819 1.363 . S
C1818 H1821 0.929 . S
C1819 C1818 1.363 . S
C1819 C1825 1.428 . S
H1820 C1816 0.930 . S
H1821 C1818 0.929 . S
S1822 N1823 1.613 . S
S1822 N1824 1.610 . S
N1823 S1822 1.613 . S
N1823 C1826 1.350 . S
N1824 S1822 1.610 . S
N1824 C1825 1.351 . S
C1825 C1819 1.428 . S
C1825 N1824 1.351 . S
C1825 C1826 1.434 . S
C1826 C1817 1.429 . S
C1826 N1823 1.350 . S
C1826 C1825 1.434 . S
C1827 C1828 1.369 . S
C1827 C1829 1.419 . S
C1827 H1831 0.930 . S
C1828 C1827 1.369 . S
C1828 C1837 1.429 . S
C1829 C1827 1.419 . S
C1829 C1830 1.363 . S
C1829 H1832 0.929 . S
C1830 C1829 1.363 . S
C1830 C1836 1.428 . S
H1831 C1827 0.930 . S
H1832 C1829 0.929 . S
S1833 N1834 1.613 . S
S1833 N1835 1.610 . S
N1834 S1833 1.613 . S
N1834 C1837 1.350 . S
N1835 S1833 1.610 . S
N1835 C1836 1.351 . S
C1836 C1830 1.428 . S
C1836 N1835 1.351 . S
C1836 C1837 1.434 . S
C1837 C1828 1.429 . S
C1837 N1834 1.350 . S
C1837 C1836 1.434 . S
C1838 C1839 1.369 . S
C1838 C1840 1.419 . S
C1838 H1842 0.930 . S
C1839 C1838 1.369 . S
C1839 C1848 1.429 . S
C1840 C1838 1.419 . S
C1840 C1841 1.363 . S
C1840 H1843 0.929 . S
C1841 C1840 1.363 . S
C1841 C1847 1.428 . S
H1842 C1838 0.930 . S
H1843 C1840 0.929 . S
S1844 N1845 1.613 . S
S1844 N1846 1.610 . S
N1845 S1844 1.613 . S
N1845 C1848 1.350 . S
N1846 S1844 1.610 . S
N1846 C1847 1.351 . S
C1847 C1841 1.428 . S
C1847 N1846 1.351 . S
C1847 C1848 1.434 . S
C1848 C1839 1.429 . S
C1848 N1845 1.350 . S
C1848 C1847 1.434 . S
C1849 C1850 1.369 . S
C1849 C1851 1.419 . S
C1849 H1853 0.930 . S
C1850 C1849 1.369 . S
C1850 C1859 1.429 . S
C1851 C1849 1.419 . S
C1851 C1852 1.363 . S
C1851 H1854 0.929 . S
C1852 C1851 1.363 . S
C1852 C1858 1.428 . S
H1853 C1849 0.930 . S
H1854 C1851 0.929 . S
S1855 N1856 1.613 . S
S1855 N1857 1.610 . S
N1856 S1855 1.613 . S
N1856 C1859 1.350 . S
N1857 S1855 1.610 . S
N1857 C1858 1.351 . S
C1858 C1852 1.428 . S
C1858 N1857 1.351 . S
C1858 C1859 1.434 . S
C1859 C1850 1.429 . S
C1859 N1856 1.350 . S
C1859 C1858 1.434 . S
C1860 C1861 1.369 . S
C1860 C1862 1.419 . S
C1860 H1864 0.930 . S
C1861 C1860 1.369 . S
C1861 C1870 1.429 . S
C1862 C1860 1.419 . S
C1862 C1863 1.363 . S
C1862 H1865 0.929 . S
C1863 C1862 1.363 . S
C1863 C1869 1.428 . S
H1864 C1860 0.930 . S
H1865 C1862 0.929 . S
S1866 N1867 1.613 . S
S1866 N1868 1.610 . S
N1867 S1866 1.613 . S
N1867 C1870 1.350 . S
N1868 S1866 1.610 . S
N1868 C1869 1.351 . S
C1869 C1863 1.428 . S
C1869 N1868 1.351 . S
C1869 C1870 1.434 . S
C1870 C1861 1.429 . S
C1870 N1867 1.350 . S
C1870 C1869 1.434 . S
C1871 C1872 1.369 . S
C1871 C1873 1.419 . S
C1871 H1875 0.930 . S
C1872 C1871 1.369 . S
C1872 C1881 1.429 . S
C1873 C1871 1.419 . S
C1873 C1874 1.363 . S
C1873 H1876 0.929 . S
C1874 C1873 1.363 . S
C1874 C1880 1.428 . S
H1875 C1871 0.930 . S
H1876 C1873 0.929 . S
S1877 N1878 1.613 . S
S1877 N1879 1.610 . S
N1878 S1877 1.613 . S
N1878 C1881 1.350 . S
N1879 S1877 1.610 . S
N1879 C1880 1.351 . S
C1880 C1874 1.428 . S
C1880 N1879 1.351 . S
C1880 C1881 1.434 . S
C1881 C1872 1.429 . S
C1881 N1878 1.350 . S
C1881 C1880 1.434 . S
C1882 C1883 1.369 . S
C1882 C1884 1.419 . S
C1882 H1886 0.930 . S
C1883 C1882 1.369 . S
C1883 C1892 1.429 . S
C1884 C1882 1.419 . S
C1884 C1885 1.363 . S
C1884 H1887 0.929 . S
C1885 C1884 1.363 . S
C1885 C1891 1.428 . S
H1886 C1882 0.930 . S
H1887 C1884 0.929 . S
S1888 N1889 1.613 . S
S1888 N1890 1.610 . S
N1889 S1888 1.613 . S
N1889 C1892 1.350 . S
N1890 S1888 1.610 . S
N1890 C1891 1.351 . S
C1891 C1885 1.428 . S
C1891 N1890 1.351 . S
C1891 C1892 1.434 . S
C1892 C1883 1.429 . S
C1892 N1889 1.350 . S
C1892 C1891 1.434 . S
C1893 C1894 1.369 . S
C1893 C1895 1.419 . S
C1893 H1897 0.930 . S
C1894 C1893 1.369 . S
C1894 C1903 1.429 . S
C1895 C1893 1.419 . S
C1895 C1896 1.363 . S
C1895 H1898 0.929 . S
C1896 C1895 1.363 . S
C1896 C1902 1.428 . S
H1897 C1893 0.930 . S
H1898 C1895 0.929 . S
S1899 N1900 1.613 . S
S1899 N1901 1.610 . S
N1900 S1899 1.613 . S
N1900 C1903 1.350 . S
N1901 S1899 1.610 . S
N1901 C1902 1.351 . S
C1902 C1896 1.428 . S
C1902 N1901 1.351 . S
C1902 C1903 1.434 . S
C1903 C1894 1.429 . S
C1903 N1900 1.350 . S
C1903 C1902 1.434 . S
C1904 C1905 1.369 . S
C1904 C1906 1.419 . S
C1904 H1908 0.930 . S
C1905 C1904 1.369 . S
C1905 C1914 1.429 . S
C1906 C1904 1.419 . S
C1906 C1907 1.363 . S
C1906 H1909 0.929 . S
C1907 C1906 1.363 . S
C1907 C1913 1.428 . S
H1908 C1904 0.930 . S
H1909 C1906 0.929 . S
S1910 N1911 1.613 . S
S1910 N1912 1.610 . S
N1911 S1910 1.613 . S
N1911 C1914 1.350 . S
N1912 S1910 1.610 . S
N1912 C1913 1.351 . S
C1913 C1907 1.428 . S
C1913 N1912 1.351 . S
C1913 C1914 1.434 . S
C1914 C1905 1.429 . S
C1914 N1911 1.350 . S
C1914 C1913 1.434 . S
C1915 C1916 1.369 . S
C1915 C1917 1.419 . S
C1915 H1919 0.930 . S
C1916 C1915 1.369 . S
C1916 C1925 1.429 . S
C1917 C1915 1.419 . S
C1917 C1918 1.363 . S
C1917 H1920 0.929 . S
C1918 C1917 1.363 . S
C1918 C1924 1.428 . S
H1919 C1915 0.930 . S
H1920 C1917 0.929 . S
S1921 N1922 1.613 . S
S1921 N1923 1.610 . S
N1922 S1921 1.613 . S
N1922 C1925 1.350 . S
N1923 S1921 1.610 . S
N1923 C1924 1.351 . S
C1924 C1918 1.428 . S
C1924 N1923 1.351 . S
C1924 C1925 1.434 . S
C1925 C1916 1.429 . S
C1925 N1922 1.350 . S
C1925 C1924 1.434 . S
C1333 C439 1.386 . S
C1335 C643 1.365 . S
C1344 C465 1.531 . S
C1346 C727 1.454 . S
C1355 C401 1.512 . S
C1357 C807 1.446 . S
C1366 C369 1.465 . S
C1368 C723 1.412 . S
C1379 C811 1.400 . S
C1377 C305 1.483 . S
C1388 C343 1.347 . S
C1390 C639 1.373 . S
C1401 C632 1.400 . S
C1399 C375 1.479 . S
C1412 C716 1.430 . S
C1410 C311 1.503 . S
C1421 C337 1.438 . S
C1423 C818 1.446 . S
C1432 C433 1.413 . S
C1434 C734 1.410 . S
C1443 C471 1.454 . S
C1445 C800 1.373 . S
C1456 C650 1.400 . S
C1454 C407 1.465 . S
C1467 C895 1.361 . S
C1465 C55 1.384 1_455 S
C1476 C81 1.529 . S
C1478 C979 1.456 . S
C1487 C17 1.516 . S
C1489 C1059 1.449 . S
C1498 C561 1.466 . S
C1500 C975 1.413 . S
C1509 C497 1.480 . S
C1511 C1063 1.405 . S
C1520 C535 1.357 . S
C1522 C891 1.366 . S
C1531 C567 1.479 . S
C1533 C884 1.392 . S
C1542 C503 1.505 . S
C1544 C968 1.430 . S
C1555 C1070 1.443 . S
C1553 C529 1.441 . S
C1564 C49 1.409 1_565 S
C1566 C986 1.414 . S
C1577 C1052 1.377 . S
C1575 C87 1.453 1_455 S
C1586 C23 1.464 . S
C1588 C902 1.396 . S
C1599 C1147 1.368 . S
C1597 C247 1.383 . S
C1608 C273 1.532 . S
C1610 C1231 1.460 . S
C1621 C1311 1.449 . S
C1619 C209 1.513 . S
C1632 C1227 1.412 . S
C1630 C177 1.466 1_545 S
C1643 C1315 1.405 . S
C1641 C113 1.483 1_655 S
C1652 C151 1.351 . S
C1654 C1143 1.370 . S
C1663 C183 1.479 1_655 S
C1665 C1136 1.397 . S
C1674 C119 1.504 . S
C1676 C1220 1.437 . S
C1687 C1322 1.443 . S
C1685 C145 1.442 1_545 S
C1696 C241 1.410 . S
C1698 C1238 1.413 . S
C1707 C279 1.456 . S
C1709 C1304 1.382 . S
C1718 C215 1.465 . S
C1720 C1154 1.403 . S
C1729 C509 1.465 . S
C1731 C646 1.398 . S
C1742 C730 1.350 . S
C1740 C541 1.459 . S
C1751 C573 1.466 . S
C1753 C802 1.363 . S
C1762 C221 1.497 . S
C1764 C718 1.368 . S
C1773 C253 1.449 . S
C1775 C814 1.354 . S
C1786 C634 1.389 . S
C1784 C285 1.455 . S
C1795 C125 1.460 . S
C1797 C898 1.394 . S
C1806 C157 1.453 . S
C1808 C982 1.361 . S
C1817 C189 1.471 . S
C1819 C1054 1.371 . S
C1828 C413 1.495 . S
C1830 C970 1.364 . S
C1841 C1066 1.353 . S
C1839 C445 1.445 . S
C1850 C477 1.463 . S
C1852 C886 1.398 . S
C1861 C317 1.465 . S
C1863 C1150 1.397 . S
C1872 C349 1.453 . S
C1874 C1234 1.360 . S
C1885 C1306 1.365 . S
C1883 C381 1.466 . S
C1894 C29 1.501 . S
C1896 C1222 1.375 . S
C1905 C61 1.452 . S
C1907 C1318 1.346 . S
C1916 C93 1.461 . S
C1918 C1138 1.395 . S
