# Generated by pormake.
# Topology tbo, (3,4)-cn, num edge types: 1
# Building blocks:
#     Node 0, Type 0, BuildingBlock: OLANEW_clean_sbu_2, # of connection points: 3
#     Node 1, Type 0, BuildingBlock: OLANEW_clean_sbu_2, # of connection points: 3
#     Node 2, Type 0, BuildingBlock: OLANEW_clean_sbu_2, # of connection points: 3
#     Node 3, Type 0, BuildingBlock: OLANEW_clean_sbu_2, # of connection points: 3
#     Node 4, Type 0, BuildingBlock: OLANEW_clean_sbu_2, # of connection points: 3
#     Node 5, Type 0, BuildingBlock: OLANEW_clean_sbu_2, # of connection points: 3
#     Node 6, Type 0, BuildingBlock: OLANEW_clean_sbu_2, # of connection points: 3
#     Node 7, Type 0, BuildingBlock: OLANEW_clean_sbu_2, # of connection points: 3
#     Node 8, Type 0, BuildingBlock: OLANEW_clean_sbu_2, # of connection points: 3
#     Node 9, Type 0, BuildingBlock: OLANEW_clean_sbu_2, # of connection points: 3
#     Node 10, Type 0, BuildingBlock: OLANEW_clean_sbu_2, # of connection points: 3
#     Node 11, Type 0, BuildingBlock: OLANEW_clean_sbu_2, # of connection points: 3
#     Node 12, Type 0, BuildingBlock: OLANEW_clean_sbu_2, # of connection points: 3
#     Node 13, Type 0, BuildingBlock: OLANEW_clean_sbu_2, # of connection points: 3
#     Node 14, Type 0, BuildingBlock: OLANEW_clean_sbu_2, # of connection points: 3
#     Node 15, Type 0, BuildingBlock: OLANEW_clean_sbu_2, # of connection points: 3
#     Node 16, Type 0, BuildingBlock: OLANEW_clean_sbu_2, # of connection points: 3
#     Node 17, Type 0, BuildingBlock: OLANEW_clean_sbu_2, # of connection points: 3
#     Node 18, Type 0, BuildingBlock: OLANEW_clean_sbu_2, # of connection points: 3
#     Node 19, Type 0, BuildingBlock: OLANEW_clean_sbu_2, # of connection points: 3
#     Node 20, Type 0, BuildingBlock: OLANEW_clean_sbu_2, # of connection points: 3
#     Node 21, Type 0, BuildingBlock: OLANEW_clean_sbu_2, # of connection points: 3
#     Node 22, Type 0, BuildingBlock: OLANEW_clean_sbu_2, # of connection points: 3
#     Node 23, Type 0, BuildingBlock: OLANEW_clean_sbu_2, # of connection points: 3
#     Node 24, Type 0, BuildingBlock: OLANEW_clean_sbu_2, # of connection points: 3
#     Node 25, Type 0, BuildingBlock: OLANEW_clean_sbu_2, # of connection points: 3
#     Node 26, Type 0, BuildingBlock: OLANEW_clean_sbu_2, # of connection points: 3
#     Node 27, Type 0, BuildingBlock: OLANEW_clean_sbu_2, # of connection points: 3
#     Node 28, Type 0, BuildingBlock: OLANEW_clean_sbu_2, # of connection points: 3
#     Node 29, Type 0, BuildingBlock: OLANEW_clean_sbu_2, # of connection points: 3
#     Node 30, Type 0, BuildingBlock: OLANEW_clean_sbu_2, # of connection points: 3
#     Node 31, Type 0, BuildingBlock: OLANEW_clean_sbu_2, # of connection points: 3
#     Node 32, Type 1, BuildingBlock: AZAVOO_clean_linker_0, # of connection points: 4
#     Node 33, Type 1, BuildingBlock: AZAVOO_clean_linker_0, # of connection points: 4
#     Node 34, Type 1, BuildingBlock: AZAVOO_clean_linker_0, # of connection points: 4
#     Node 35, Type 1, BuildingBlock: AZAVOO_clean_linker_0, # of connection points: 4
#     Node 36, Type 1, BuildingBlock: AZAVOO_clean_linker_0, # of connection points: 4
#     Node 37, Type 1, BuildingBlock: AZAVOO_clean_linker_0, # of connection points: 4
#     Node 38, Type 1, BuildingBlock: AZAVOO_clean_linker_0, # of connection points: 4
#     Node 39, Type 1, BuildingBlock: AZAVOO_clean_linker_0, # of connection points: 4
#     Node 40, Type 1, BuildingBlock: AZAVOO_clean_linker_0, # of connection points: 4
#     Node 41, Type 1, BuildingBlock: AZAVOO_clean_linker_0, # of connection points: 4
#     Node 42, Type 1, BuildingBlock: AZAVOO_clean_linker_0, # of connection points: 4
#     Node 43, Type 1, BuildingBlock: AZAVOO_clean_linker_0, # of connection points: 4
#     Node 44, Type 1, BuildingBlock: AZAVOO_clean_linker_0, # of connection points: 4
#     Node 45, Type 1, BuildingBlock: AZAVOO_clean_linker_0, # of connection points: 4
#     Node 46, Type 1, BuildingBlock: AZAVOO_clean_linker_0, # of connection points: 4
#     Node 47, Type 1, BuildingBlock: AZAVOO_clean_linker_0, # of connection points: 4
#     Node 48, Type 1, BuildingBlock: AZAVOO_clean_linker_0, # of connection points: 4
#     Node 49, Type 1, BuildingBlock: AZAVOO_clean_linker_0, # of connection points: 4
#     Node 50, Type 1, BuildingBlock: AZAVOO_clean_linker_0, # of connection points: 4
#     Node 51, Type 1, BuildingBlock: AZAVOO_clean_linker_0, # of connection points: 4
#     Node 52, Type 1, BuildingBlock: AZAVOO_clean_linker_0, # of connection points: 4
#     Node 53, Type 1, BuildingBlock: AZAVOO_clean_linker_0, # of connection points: 4
#     Node 54, Type 1, BuildingBlock: AZAVOO_clean_linker_0, # of connection points: 4
#     Node 55, Type 1, BuildingBlock: AZAVOO_clean_linker_0, # of connection points: 4
#     Edge 56, Type (0, 1), BuildingBlock: OJICUG_clean_linker_0, # of connection points: 2
#     Edge 57, Type (0, 1), BuildingBlock: OJICUG_clean_linker_0, # of connection points: 2
#     Edge 58, Type (0, 1), BuildingBlock: OJICUG_clean_linker_0, # of connection points: 2
#     Edge 59, Type (0, 1), BuildingBlock: OJICUG_clean_linker_0, # of connection points: 2
#     Edge 60, Type (0, 1), BuildingBlock: OJICUG_clean_linker_0, # of connection points: 2
#     Edge 61, Type (0, 1), BuildingBlock: OJICUG_clean_linker_0, # of connection points: 2
#     Edge 62, Type (0, 1), BuildingBlock: OJICUG_clean_linker_0, # of connection points: 2
#     Edge 63, Type (0, 1), BuildingBlock: OJICUG_clean_linker_0, # of connection points: 2
#     Edge 64, Type (0, 1), BuildingBlock: OJICUG_clean_linker_0, # of connection points: 2
#     Edge 65, Type (0, 1), BuildingBlock: OJICUG_clean_linker_0, # of connection points: 2
#     Edge 66, Type (0, 1), BuildingBlock: OJICUG_clean_linker_0, # of connection points: 2
#     Edge 67, Type (0, 1), BuildingBlock: OJICUG_clean_linker_0, # of connection points: 2
#     Edge 68, Type (0, 1), BuildingBlock: OJICUG_clean_linker_0, # of connection points: 2
#     Edge 69, Type (0, 1), BuildingBlock: OJICUG_clean_linker_0, # of connection points: 2
#     Edge 70, Type (0, 1), BuildingBlock: OJICUG_clean_linker_0, # of connection points: 2
#     Edge 71, Type (0, 1), BuildingBlock: OJICUG_clean_linker_0, # of connection points: 2
#     Edge 72, Type (0, 1), BuildingBlock: OJICUG_clean_linker_0, # of connection points: 2
#     Edge 73, Type (0, 1), BuildingBlock: OJICUG_clean_linker_0, # of connection points: 2
#     Edge 74, Type (0, 1), BuildingBlock: OJICUG_clean_linker_0, # of connection points: 2
#     Edge 75, Type (0, 1), BuildingBlock: OJICUG_clean_linker_0, # of connection points: 2
#     Edge 76, Type (0, 1), BuildingBlock: OJICUG_clean_linker_0, # of connection points: 2
#     Edge 77, Type (0, 1), BuildingBlock: OJICUG_clean_linker_0, # of connection points: 2
#     Edge 78, Type (0, 1), BuildingBlock: OJICUG_clean_linker_0, # of connection points: 2
#     Edge 79, Type (0, 1), BuildingBlock: OJICUG_clean_linker_0, # of connection points: 2
#     Edge 80, Type (0, 1), BuildingBlock: OJICUG_clean_linker_0, # of connection points: 2
#     Edge 81, Type (0, 1), BuildingBlock: OJICUG_clean_linker_0, # of connection points: 2
#     Edge 82, Type (0, 1), BuildingBlock: OJICUG_clean_linker_0, # of connection points: 2
#     Edge 83, Type (0, 1), BuildingBlock: OJICUG_clean_linker_0, # of connection points: 2
#     Edge 84, Type (0, 1), BuildingBlock: OJICUG_clean_linker_0, # of connection points: 2
#     Edge 85, Type (0, 1), BuildingBlock: OJICUG_clean_linker_0, # of connection points: 2
#     Edge 86, Type (0, 1), BuildingBlock: OJICUG_clean_linker_0, # of connection points: 2
#     Edge 87, Type (0, 1), BuildingBlock: OJICUG_clean_linker_0, # of connection points: 2
#     Edge 88, Type (0, 1), BuildingBlock: OJICUG_clean_linker_0, # of connection points: 2
#     Edge 89, Type (0, 1), BuildingBlock: OJICUG_clean_linker_0, # of connection points: 2
#     Edge 90, Type (0, 1), BuildingBlock: OJICUG_clean_linker_0, # of connection points: 2
#     Edge 91, Type (0, 1), BuildingBlock: OJICUG_clean_linker_0, # of connection points: 2
#     Edge 92, Type (0, 1), BuildingBlock: OJICUG_clean_linker_0, # of connection points: 2
#     Edge 93, Type (0, 1), BuildingBlock: OJICUG_clean_linker_0, # of connection points: 2
#     Edge 94, Type (0, 1), BuildingBlock: OJICUG_clean_linker_0, # of connection points: 2
#     Edge 95, Type (0, 1), BuildingBlock: OJICUG_clean_linker_0, # of connection points: 2
#     Edge 96, Type (0, 1), BuildingBlock: OJICUG_clean_linker_0, # of connection points: 2
#     Edge 97, Type (0, 1), BuildingBlock: OJICUG_clean_linker_0, # of connection points: 2
#     Edge 98, Type (0, 1), BuildingBlock: OJICUG_clean_linker_0, # of connection points: 2
#     Edge 99, Type (0, 1), BuildingBlock: OJICUG_clean_linker_0, # of connection points: 2
#     Edge 100, Type (0, 1), BuildingBlock: OJICUG_clean_linker_0, # of connection points: 2
#     Edge 101, Type (0, 1), BuildingBlock: OJICUG_clean_linker_0, # of connection points: 2
#     Edge 102, Type (0, 1), BuildingBlock: OJICUG_clean_linker_0, # of connection points: 2
#     Edge 103, Type (0, 1), BuildingBlock: OJICUG_clean_linker_0, # of connection points: 2
#     Edge 104, Type (0, 1), BuildingBlock: OJICUG_clean_linker_0, # of connection points: 2
#     Edge 105, Type (0, 1), BuildingBlock: OJICUG_clean_linker_0, # of connection points: 2
#     Edge 106, Type (0, 1), BuildingBlock: OJICUG_clean_linker_0, # of connection points: 2
#     Edge 107, Type (0, 1), BuildingBlock: OJICUG_clean_linker_0, # of connection points: 2
#     Edge 108, Type (0, 1), BuildingBlock: OJICUG_clean_linker_0, # of connection points: 2
#     Edge 109, Type (0, 1), BuildingBlock: OJICUG_clean_linker_0, # of connection points: 2
#     Edge 110, Type (0, 1), BuildingBlock: OJICUG_clean_linker_0, # of connection points: 2
#     Edge 111, Type (0, 1), BuildingBlock: OJICUG_clean_linker_0, # of connection points: 2
#     Edge 112, Type (0, 1), BuildingBlock: OJICUG_clean_linker_0, # of connection points: 2
#     Edge 113, Type (0, 1), BuildingBlock: OJICUG_clean_linker_0, # of connection points: 2
#     Edge 114, Type (0, 1), BuildingBlock: OJICUG_clean_linker_0, # of connection points: 2
#     Edge 115, Type (0, 1), BuildingBlock: OJICUG_clean_linker_0, # of connection points: 2
#     Edge 116, Type (0, 1), BuildingBlock: OJICUG_clean_linker_0, # of connection points: 2
#     Edge 117, Type (0, 1), BuildingBlock: OJICUG_clean_linker_0, # of connection points: 2
#     Edge 118, Type (0, 1), BuildingBlock: OJICUG_clean_linker_0, # of connection points: 2
#     Edge 119, Type (0, 1), BuildingBlock: OJICUG_clean_linker_0, # of connection points: 2
#     Edge 120, Type (0, 1), BuildingBlock: OJICUG_clean_linker_0, # of connection points: 2
#     Edge 121, Type (0, 1), BuildingBlock: OJICUG_clean_linker_0, # of connection points: 2
#     Edge 122, Type (0, 1), BuildingBlock: OJICUG_clean_linker_0, # of connection points: 2
#     Edge 123, Type (0, 1), BuildingBlock: OJICUG_clean_linker_0, # of connection points: 2
#     Edge 124, Type (0, 1), BuildingBlock: OJICUG_clean_linker_0, # of connection points: 2
#     Edge 125, Type (0, 1), BuildingBlock: OJICUG_clean_linker_0, # of connection points: 2
#     Edge 126, Type (0, 1), BuildingBlock: OJICUG_clean_linker_0, # of connection points: 2
#     Edge 127, Type (0, 1), BuildingBlock: OJICUG_clean_linker_0, # of connection points: 2
#     Edge 128, Type (0, 1), BuildingBlock: OJICUG_clean_linker_0, # of connection points: 2
#     Edge 129, Type (0, 1), BuildingBlock: OJICUG_clean_linker_0, # of connection points: 2
#     Edge 130, Type (0, 1), BuildingBlock: OJICUG_clean_linker_0, # of connection points: 2
#     Edge 131, Type (0, 1), BuildingBlock: OJICUG_clean_linker_0, # of connection points: 2
#     Edge 132, Type (0, 1), BuildingBlock: OJICUG_clean_linker_0, # of connection points: 2
#     Edge 133, Type (0, 1), BuildingBlock: OJICUG_clean_linker_0, # of connection points: 2
#     Edge 134, Type (0, 1), BuildingBlock: OJICUG_clean_linker_0, # of connection points: 2
#     Edge 135, Type (0, 1), BuildingBlock: OJICUG_clean_linker_0, # of connection points: 2
#     Edge 136, Type (0, 1), BuildingBlock: OJICUG_clean_linker_0, # of connection points: 2
#     Edge 137, Type (0, 1), BuildingBlock: OJICUG_clean_linker_0, # of connection points: 2
#     Edge 138, Type (0, 1), BuildingBlock: OJICUG_clean_linker_0, # of connection points: 2
#     Edge 139, Type (0, 1), BuildingBlock: OJICUG_clean_linker_0, # of connection points: 2
#     Edge 140, Type (0, 1), BuildingBlock: OJICUG_clean_linker_0, # of connection points: 2
#     Edge 141, Type (0, 1), BuildingBlock: OJICUG_clean_linker_0, # of connection points: 2
#     Edge 142, Type (0, 1), BuildingBlock: OJICUG_clean_linker_0, # of connection points: 2
#     Edge 143, Type (0, 1), BuildingBlock: OJICUG_clean_linker_0, # of connection points: 2
#     Edge 144, Type (0, 1), BuildingBlock: OJICUG_clean_linker_0, # of connection points: 2
#     Edge 145, Type (0, 1), BuildingBlock: OJICUG_clean_linker_0, # of connection points: 2
#     Edge 146, Type (0, 1), BuildingBlock: OJICUG_clean_linker_0, # of connection points: 2
#     Edge 147, Type (0, 1), BuildingBlock: OJICUG_clean_linker_0, # of connection points: 2
#     Edge 148, Type (0, 1), BuildingBlock: OJICUG_clean_linker_0, # of connection points: 2
#     Edge 149, Type (0, 1), BuildingBlock: OJICUG_clean_linker_0, # of connection points: 2
#     Edge 150, Type (0, 1), BuildingBlock: OJICUG_clean_linker_0, # of connection points: 2
#     Edge 151, Type (0, 1), BuildingBlock: OJICUG_clean_linker_0, # of connection points: 2
# Relax obj value: 0.083
# Max RMSD: 0.238
# Mean RMSD: 0.149
data_MOF--net-tbo--node1-OLANEW_clean_sbu_2--node2-AZAVOO_clean_linker_0--edge1-OJICUG_clean_linker_0
_symmetry_space_group_name_H-M    P1
_symmetry_Int_Tables_number       1
_symmetry_cell_setting            triclinic
loop_
_symmetry_equiv_pos_as_xyz
'x, y, z'
_cell_length_a     67.285443
_cell_length_b     68.718234
_cell_length_c     66.223359
_cell_angle_alpha  96.686705
_cell_angle_beta   87.254354
_cell_angle_gamma 96.202883
loop_
_atom_site_label
_atom_site_type_symbol
_atom_site_fract_x
_atom_site_fract_y
_atom_site_fract_z
_atom_type_partial_charge
O0 O 0.21987 0.18177 0.22467 0.0
Cd1 Cd 0.20191 0.1744 0.25642 0.0
O2 O 0.22868 0.2123 0.23743 0.0
Cd3 Cd 0.20655 0.2109 0.26245 0.0
O4 O 0.17614 0.21785 0.27066 0.0
C5 C 0.16681 0.22238 0.25591 0.0
O6 O 0.17586 0.22193 0.23786 0.0
C7 C 0.22974 0.19842 0.22306 0.0
C8 C 0.21591 0.14284 0.27244 0.0
O9 O 0.20041 0.1403 0.26152 0.0
O10 O 0.2248 0.1603 0.27579 0.0
O11 O 0.8803 0.20985 0.19823 0.0
Cd12 Cd 0.85665 0.1864 0.17868 0.0
O13 O 0.90504 0.20632 0.17553 0.0
Cd14 Cd 0.8887 0.18043 0.1596 0.0
O15 O 0.87327 0.15188 0.16495 0.0
C16 C 0.88168 0.14315 0.17756 0.0
O17 O 0.89904 0.15107 0.1845 0.0
C18 C 0.89812 0.21488 0.19206 0.0
C19 C 0.84005 0.20469 0.14908 0.0
O20 O 0.85694 0.19768 0.14582 0.0
O21 O 0.83086 0.20286 0.16627 0.0
O22 O 0.8896 0.84234 0.16866 0.0
Cd23 Cd 0.90449 0.85994 0.19941 0.0
O24 O 0.88891 0.86893 0.15332 0.0
Cd25 Cd 0.89791 0.88793 0.18067 0.0
O26 O 0.88421 0.9055 0.20597 0.0
C27 C 0.86686 0.90925 0.20188 0.0
O28 O 0.85997 0.90267 0.18385 0.0
C29 C 0.88563 0.85036 0.15318 0.0
C30 C 0.9347 0.84016 0.21226 0.0
O31 O 0.91629 0.83544 0.21712 0.0
O32 O 0.93892 0.85439 0.20136 0.0
O33 O 0.18351 0.9452 0.1507 0.0
Cd34 Cd 0.16815 0.93394 0.11828 0.0
O35 O 0.16941 0.91756 0.16058 0.0
Cd36 Cd 0.16245 0.89415 0.18029 0.0
O37 O 0.14813 0.87203 0.19884 0.0
C38 C 0.13106 0.86378 0.19357 0.0
O39 O 0.12328 0.86875 0.17732 0.0
C40 C 0.18066 0.93357 0.16436 0.0
C41 C 0.19071 0.90527 0.09866 0.0
O42 O 0.1941 0.92326 0.095 0.0
O43 O 0.17622 0.90075 0.1111 0.0
O44 O 0.23034 0.91762 0.87306 0.0
Cd45 Cd 0.20746 0.89734 0.89389 0.0
O46 O 0.22344 0.94534 0.8908 0.0
Cd47 Cd 0.1976 0.93019 0.90559 0.0
O48 O 0.16881 0.91436 0.89703 0.0
C49 C 0.16561 0.9143 0.87825 0.0
O50 O 0.17927 0.92341 0.86683 0.0
C51 C 0.23351 0.93628 0.87665 0.0
C52 C 0.2269 0.87905 0.92163 0.0
O53 O 0.222 0.86994 0.90429 0.0
O54 O 0.22279 0.89689 0.9258 0.0
O55 O 0.19554 0.13857 0.93708 0.0
Cd56 Cd 0.17516 0.11633 0.91298 0.0
O57 O 0.18715 0.16585 0.92692 0.0
Cd58 Cd 0.16667 0.1522 0.90369 0.0
O59 O 0.14421 0.15817 0.88328 0.0
C60 C 0.12661 0.16024 0.89042 0.0
O61 O 0.12213 0.15699 0.90935 0.0
C62 C 0.19697 0.15727 0.93852 0.0
C63 C 0.19972 0.09692 0.88406 0.0
O64 O 0.19187 0.11223 0.88026 0.0
O65 O 0.19576 0.09066 0.90144 0.0
O66 O 0.80581 0.21175 0.85813 0.0
Cd67 Cd 0.81407 0.19168 0.82658 0.0
O68 O 0.82152 0.19449 0.87711 0.0
Cd69 Cd 0.822 0.16905 0.8542 0.0
O70 O 0.81307 0.13924 0.84019 0.0
C71 C 0.80544 0.13636 0.82279 0.0
O72 O 0.80387 0.15155 0.81284 0.0
C73 C 0.81251 0.2095 0.87524 0.0
C74 C 0.85467 0.20037 0.81703 0.0
O75 O 0.84162 0.21073 0.81146 0.0
O76 O 0.84847 0.1856 0.82664 0.0
O77 O 0.87692 0.89826 0.86309 0.0
Cd78 Cd 0.85268 0.91647 0.88426 0.0
O79 O 0.87195 0.8698 0.87596 0.0
Cd80 Cd 0.84922 0.87554 0.89995 0.0
O81 O 0.83429 0.86064 0.92489 0.0
C82 C 0.83874 0.86531 0.9434 0.0
O83 O 0.85166 0.88072 0.94817 0.0
C84 C 0.88098 0.88064 0.86336 0.0
C85 C 0.82799 0.93476 0.86113 0.0
O86 O 0.84622 0.94169 0.86384 0.0
O87 O 0.82133 0.9192 0.86926 0.0
O88 O 0.17416 0.66752 0.65938 0.0
Cd89 Cd 0.14876 0.65343 0.68292 0.0
O90 O 0.16313 0.69683 0.66425 0.0
Cd91 Cd 0.1383 0.69134 0.68604 0.0
O92 O 0.11418 0.70427 0.70454 0.0
C93 C 0.10276 0.71391 0.69567 0.0
O94 O 0.10523 0.71445 0.67593 0.0
C95 C 0.17539 0.68537 0.65561 0.0
C96 C 0.16253 0.62586 0.70546 0.0
O97 O 0.15511 0.62052 0.68796 0.0
O98 O 0.1636 0.6442 0.71216 0.0
O99 O 0.88235 0.75916 0.70543 0.0
Cd100 Cd 0.85051 0.74131 0.6943 0.0
O101 O 0.89957 0.73378 0.69697 0.0
Cd102 Cd 0.87442 0.71306 0.6864 0.0
O103 O 0.85943 0.68368 0.68885 0.0
C104 C 0.84252 0.68121 0.69808 0.0
O105 O 0.83322 0.6967 0.70473 0.0
C106 C 0.89886 0.75159 0.70446 0.0
C107 C 0.83693 0.75156 0.65816 0.0
O108 O 0.83321 0.76152 0.67526 0.0
O109 O 0.84735 0.737 0.65814 0.0
O110 O 0.86124 0.32154 0.69089 0.0
Cd111 Cd 0.87318 0.33794 0.72352 0.0
O112 O 0.86418 0.34902 0.67647 0.0
Cd113 Cd 0.87318 0.36794 0.70392 0.0
O114 O 0.86693 0.39357 0.72493 0.0
C115 C 0.84851 0.39472 0.72949 0.0
O116 O 0.83544 0.38017 0.72253 0.0
C117 C 0.85957 0.33051 0.6754 0.0
C118 C 0.90518 0.32102 0.73716 0.0
O119 O 0.88706 0.3139 0.74041 0.0
O120 O 0.90823 0.33615 0.72735 0.0
O121 O 0.14768 0.44821 0.6761 0.0
Cd122 Cd 0.13782 0.42921 0.6442 0.0
O123 O 0.14106 0.42044 0.68932 0.0
Cd124 Cd 0.13697 0.40088 0.71323 0.0
O125 O 0.1228 0.37665 0.72915 0.0
C126 C 0.10786 0.3794 0.74123 0.0
O127 O 0.10192 0.39713 0.74468 0.0
C128 C 0.1474 0.43864 0.6914 0.0
C129 C 0.16723 0.40445 0.63122 0.0
O130 O 0.16792 0.42176 0.62564 0.0
O131 O 0.15241 0.3987 0.64272 0.0
O132 O 0.15796 0.41286 0.36912 0.0
Cd133 Cd 0.13545 0.3933 0.39064 0.0
O134 O 0.15962 0.44021 0.39021 0.0
Cd135 Cd 0.13397 0.42851 0.40813 0.0
O136 O 0.10386 0.41384 0.40393 0.0
C137 C 0.0968 0.41698 0.38729 0.0
O138 O 0.10724 0.42942 0.37622 0.0
C139 C 0.16545 0.43052 0.37383 0.0
C140 C 0.15847 0.37613 0.41613 0.0
O141 O 0.15234 0.39305 0.42151 0.0
O142 O 0.15331 0.3671 0.39884 0.0
O143 O 0.29388 0.71795 0.34839 0.0
Cd144 Cd 0.29937 0.71593 0.31153 0.0
O145 O 0.26292 0.72051 0.34189 0.0
Cd146 Cd 0.23073 0.72259 0.34472 0.0
O147 O 0.20092 0.72689 0.33572 0.0
C148 C 0.19636 0.74422 0.33473 0.0
O149 O 0.20946 0.75931 0.34011 0.0
C150 C 0.27599 0.71951 0.35489 0.0
C151 C 0.29401 0.67651 0.29551 0.0
O152 O 0.31147 0.68505 0.29962 0.0
O153 O 0.2791 0.68676 0.29856 0.0
O154 O 0.87691 0.64475 0.39399 0.0
Cd155 Cd 0.89374 0.61932 0.37334 0.0
O156 O 0.88575 0.63687 0.4233 0.0
Cd157 Cd 0.89072 0.60791 0.40792 0.0
O158 O 0.87519 0.58676 0.38534 0.0
C159 C 0.85979 0.57584 0.3905 0.0
O160 O 0.85474 0.57572 0.4099 0.0
C161 C 0.87811 0.64866 0.41318 0.0
C162 C 0.92674 0.63848 0.35457 0.0
O163 O 0.91031 0.63395 0.3453 0.0
O164 O 0.92776 0.63327 0.37242 0.0
O165 O 0.88944 0.38783 0.37029 0.0
Cd166 Cd 0.86657 0.40611 0.39319 0.0
O167 O 0.88289 0.36116 0.3859 0.0
Cd168 Cd 0.86374 0.37277 0.4109 0.0
O169 O 0.85038 0.3655 0.44011 0.0
C170 C 0.86172 0.35883 0.45191 0.0
O171 O 0.88071 0.35819 0.44653 0.0
C172 C 0.89188 0.36995 0.37169 0.0
C173 C 0.84154 0.42576 0.3719 0.0
O174 O 0.85872 0.43395 0.3775 0.0
O175 O 0.83616 0.40827 0.37639 0.0
O176 O 0.69216 0.19244 0.69081 0.0
Cd177 Cd 0.66853 0.17816 0.7156 0.0
O178 O 0.68028 0.22134 0.69358 0.0
Cd179 Cd 0.65454 0.21513 0.71404 0.0
O180 O 0.62604 0.22416 0.72711 0.0
C181 C 0.61508 0.23151 0.71546 0.0
O182 O 0.62095 0.23226 0.69633 0.0
C183 C 0.69297 0.20988 0.68594 0.0
C184 C 0.68069 0.14269 0.7249 0.0
O185 O 0.66964 0.14321 0.70978 0.0
O186 O 0.68583 0.15894 0.73583 0.0
O187 O 0.38976 0.24348 0.68118 0.0
Cd188 Cd 0.36496 0.22247 0.6604 0.0
O189 O 0.41063 0.22067 0.67863 0.0
Cd190 Cd 0.39054 0.19733 0.66305 0.0
O191 O 0.37597 0.16771 0.66514 0.0
C192 C 0.359 0.16562 0.67433 0.0
O193 O 0.34996 0.18138 0.6806 0.0
C194 C 0.40648 0.23797 0.68512 0.0
C195 C 0.34363 0.24364 0.63682 0.0
O196 O 0.36008 0.23705 0.63009 0.0
O197 O 0.33731 0.24033 0.6548 0.0
O198 O 0.36139 0.81642 0.67642 0.0
Cd199 Cd 0.37796 0.83554 0.70563 0.0
O200 O 0.33275 0.81122 0.69339 0.0
Cd201 Cd 0.34227 0.83231 0.71919 0.0
O202 O 0.34307 0.8627 0.7333 0.0
C203 C 0.34598 0.87558 0.72089 0.0
O204 O 0.34931 0.8697 0.70154 0.0
C205 C 0.34344 0.80842 0.67715 0.0
C206 C 0.41235 0.81985 0.71562 0.0
O207 O 0.39498 0.81337 0.72227 0.0
O208 O 0.41352 0.83375 0.70415 0.0
O209 O 0.65655 0.9144 0.60412 0.0
Cd210 Cd 0.65063 0.89926 0.56955 0.0
O211 O 0.65007 0.88444 0.61256 0.0
Cd212 Cd 0.64455 0.86319 0.63473 0.0
O213 O 0.63148 0.84414 0.65699 0.0
C214 C 0.62203 0.85178 0.67246 0.0
O215 O 0.62106 0.87091 0.67478 0.0
C216 C 0.65524 0.90262 0.61766 0.0
C217 C 0.68044 0.87453 0.55839 0.0
O218 O 0.68231 0.89232 0.55397 0.0
O219 O 0.66425 0.8683 0.56765 0.0
O220 O 0.70316 0.90914 0.36985 0.0
Cd221 Cd 0.6835 0.88473 0.38877 0.0
O222 O 0.69594 0.93444 0.39149 0.0
Cd223 Cd 0.67215 0.91581 0.40556 0.0
O224 O 0.64513 0.89635 0.39757 0.0
C225 C 0.64074 0.89644 0.37912 0.0
O226 O 0.65213 0.90797 0.36781 0.0
C227 C 0.70549 0.92754 0.37568 0.0
C228 C 0.70702 0.86451 0.41103 0.0
O229 O 0.70157 0.85742 0.39314 0.0
O230 O 0.70144 0.88124 0.41835 0.0
O231 O 0.67086 0.16634 0.40191 0.0
Cd232 Cd 0.65131 0.15024 0.37345 0.0
O233 O 0.68642 0.18942 0.38475 0.0
Cd234 Cd 0.6674 0.18344 0.35854 0.0
O235 O 0.64669 0.19479 0.33952 0.0
C236 C 0.63351 0.20447 0.34922 0.0
O237 O 0.63288 0.20597 0.36921 0.0
C238 C 0.684 0.18099 0.40092 0.0
C239 C 0.67297 0.12135 0.3526 0.0
O240 O 0.67377 0.13858 0.34678 0.0
O241 O 0.66156 0.11763 0.36803 0.0
O242 O 0.35534 0.19208 0.44542 0.0
Cd243 Cd 0.3671 0.16529 0.42198 0.0
O244 O 0.3459 0.17508 0.47102 0.0
Cd245 Cd 0.35116 0.14738 0.45295 0.0
O246 O 0.34388 0.12073 0.43223 0.0
C247 C 0.3354 0.12283 0.416 0.0
O248 O 0.33214 0.14062 0.41246 0.0
C249 C 0.34821 0.1914 0.46348 0.0
C250 C 0.39236 0.18131 0.3922 0.0
O251 O 0.37334 0.1793 0.39053 0.0
O252 O 0.39948 0.17539 0.40776 0.0
O253 O 0.42292 0.89996 0.4053 0.0
Cd254 Cd 0.40031 0.91988 0.42681 0.0
O255 O 0.42235 0.87599 0.42483 0.0
Cd256 Cd 0.40043 0.88554 0.44824 0.0
O257 O 0.37994 0.87391 0.47162 0.0
C258 C 0.38722 0.86389 0.48392 0.0
O259 O 0.40657 0.8625 0.48289 0.0
C260 C 0.42881 0.88379 0.40897 0.0
C261 C 0.3732 0.93562 0.4041 0.0
O262 O 0.39144 0.94309 0.40521 0.0
O263 O 0.36765 0.92067 0.41367 0.0
O264 O 0.7493 0.71576 0.22288 0.0
Cd265 Cd 0.73638 0.70713 0.2563 0.0
O266 O 0.74186 0.74639 0.22908 0.0
Cd267 Cd 0.72294 0.74295 0.25645 0.0
O268 O 0.6942 0.75009 0.27074 0.0
C269 C 0.68479 0.76064 0.26072 0.0
O270 O 0.69304 0.76612 0.24361 0.0
C271 C 0.7499 0.73304 0.21758 0.0
C272 C 0.74046 0.66807 0.2622 0.0
O273 O 0.72413 0.67292 0.25596 0.0
O274 O 0.75493 0.68164 0.26551 0.0
O275 O 0.42281 0.68854 0.16322 0.0
Cd276 Cd 0.39964 0.66787 0.14044 0.0
O277 O 0.39909 0.6904 0.18719 0.0
Cd278 Cd 0.37911 0.66635 0.17265 0.0
O279 O 0.36465 0.63702 0.17642 0.0
C280 C 0.36945 0.63068 0.19261 0.0
O281 O 0.38222 0.64186 0.20448 0.0
C282 C 0.41672 0.69566 0.18074 0.0
C283 C 0.37789 0.69147 0.12017 0.0
O284 O 0.37265 0.68751 0.13822 0.0
O285 O 0.39328 0.68409 0.11158 0.0
O286 O 0.42672 0.35863 0.11292 0.0
Cd287 Cd 0.45029 0.37859 0.13583 0.0
O288 O 0.40228 0.3772 0.12142 0.0
Cd289 Cd 0.41689 0.39858 0.14432 0.0
O290 O 0.40436 0.41877 0.16819 0.0
C291 C 0.39594 0.43285 0.16259 0.0
O292 O 0.39708 0.43561 0.14324 0.0
C293 C 0.40885 0.36236 0.11102 0.0
C294 C 0.46159 0.3566 0.1655 0.0
O295 O 0.47074 0.35628 0.14806 0.0
O296 O 0.44718 0.36745 0.16899 0.0
O297 O 0.64636 0.43737 0.13363 0.0
Cd298 Cd 0.63316 0.42127 0.10159 0.0
O299 O 0.638 0.4093 0.14599 0.0
Cd300 Cd 0.63366 0.38968 0.16999 0.0
O301 O 0.6205 0.36872 0.19058 0.0
C302 C 0.60465 0.35813 0.18489 0.0
O303 O 0.59754 0.36022 0.16721 0.0
C304 C 0.64605 0.42699 0.14834 0.0
C305 C 0.65958 0.39466 0.08505 0.0
O306 O 0.66086 0.41211 0.07972 0.0
O307 O 0.64552 0.3897 0.09777 0.0
O308 O 0.71578 0.41225 0.86863 0.0
Cd309 Cd 0.69257 0.38605 0.88118 0.0
O310 O 0.70708 0.43626 0.89113 0.0
Cd311 Cd 0.68188 0.41705 0.90188 0.0
O312 O 0.65263 0.40087 0.89622 0.0
C313 C 0.63807 0.41068 0.89401 0.0
O314 O 0.64093 0.43002 0.89668 0.0
C315 C 0.71816 0.43022 0.8761 0.0
C316 C 0.70929 0.3675 0.91058 0.0
O317 O 0.71248 0.36238 0.89157 0.0
O318 O 0.69821 0.38143 0.91573 0.0
O319 O 0.66213 0.63403 0.94864 0.0
Cd320 Cd 0.64517 0.61278 0.92122 0.0
O321 O 0.66458 0.65902 0.93036 0.0
Cd322 Cd 0.64671 0.64596 0.90477 0.0
O323 O 0.6301 0.65432 0.88027 0.0
C324 C 0.61413 0.66221 0.88542 0.0
O325 O 0.60782 0.66323 0.90457 0.0
C326 C 0.66831 0.65183 0.94643 0.0
C327 C 0.67389 0.59643 0.8947 0.0
O328 O 0.66854 0.61347 0.89297 0.0
O329 O 0.66535 0.58684 0.90878 0.0
O330 O 0.32403 0.74179 0.85282 0.0
Cd331 Cd 0.32714 0.72571 0.81754 0.0
O332 O 0.35504 0.74569 0.86354 0.0
Cd333 Cd 0.36261 0.71972 0.84438 0.0
O334 O 0.35364 0.68818 0.83892 0.0
C335 C 0.33793 0.68248 0.84894 0.0
O336 O 0.32922 0.69555 0.86142 0.0
C337 C 0.3369 0.74931 0.8658 0.0
C338 C 0.36614 0.72858 0.80115 0.0
O339 O 0.35766 0.7123 0.80651 0.0
O340 O 0.35588 0.74338 0.80273 0.0
O341 O 0.33814 0.36025 0.84784 0.0
Cd342 Cd 0.30511 0.36485 0.86391 0.0
O343 O 0.339 0.33108 0.85841 0.0
Cd344 Cd 0.31408 0.33133 0.88078 0.0
O345 O 0.30527 0.32074 0.91021 0.0
C346 C 0.31241 0.30502 0.91343 0.0
O347 O 0.32348 0.29627 0.89898 0.0
C348 C 0.3466 0.34456 0.8479 0.0
C349 C 0.2882 0.39624 0.85023 0.0
O350 O 0.29774 0.39857 0.86678 0.0
O351 O 0.28665 0.37911 0.84012 0.0
H352 H 0.19988 0.13601 0.06963 0.0
H353 H 0.3488 0.31205 0.17404 0.0
H354 H 0.29172 0.20933 0.01957 0.0
H355 H 0.27293 0.19119 0.99122 0.0
H356 H 0.22035 0.21915 0.01338 0.0
H357 H 0.23927 0.23724 0.04161 0.0
H358 H 0.27269 0.18822 0.05602 0.0
H359 H 0.24533 0.16203 0.05878 0.0
H360 H 0.20867 0.20438 0.09101 0.0
H361 H 0.23609 0.23046 0.08794 0.0
H362 H 0.28731 0.20059 0.10114 0.0
H363 H 0.27665 0.19055 0.13469 0.0
H364 H 0.25497 0.24735 0.15181 0.0
H365 H 0.26575 0.25722 0.11842 0.0
H366 H 0.32397 0.23357 0.10738 0.0
H367 H 0.34248 0.24861 0.13717 0.0
H368 H 0.3178 0.30352 0.13306 0.0
H369 H 0.29915 0.28822 0.1035 0.0
H370 H 0.34351 0.2538 0.07025 0.0
H371 H 0.37024 0.28041 0.07605 0.0
H372 H 0.33035 0.32205 0.06227 0.0
H373 H 0.30329 0.29532 0.05784 0.0
H374 H 0.32582 0.24867 0.02266 0.0
H375 H 0.33077 0.26274 0.99023 0.0
H376 H 0.27195 0.28302 0.99817 0.0
H377 H 0.26756 0.26964 0.03086 0.0
O378 O 0.21051 0.14658 0.06874 0.0
O379 O 0.19234 0.1689 0.08539 0.0
O380 O 0.35362 0.27705 0.164 0.0
O381 O 0.34155 0.30569 0.16237 0.0
C382 C 0.27768 0.23397 0.05066 0.0
C383 C 0.27287 0.22711 0.06978 0.0
C384 C 0.2834 0.23574 0.08703 0.0
C385 C 0.29925 0.2507 0.08502 0.0
C386 C 0.30431 0.25734 0.06576 0.0
C387 C 0.29301 0.24948 0.04871 0.0
C388 C 0.2668 0.22453 0.03257 0.0
C389 C 0.27621 0.21168 0.01811 0.0
C390 C 0.26545 0.20126 0.00207 0.0
C391 C 0.24518 0.20372 1.00019 0.0
C392 C 0.23599 0.21709 0.01439 0.0
C393 C 0.24671 0.22737 0.03051 0.0
C394 C 0.25635 0.2112 0.0718 0.0
C395 C 0.25872 0.19179 0.06365 0.0
C396 C 0.24308 0.17687 0.06527 0.0
C397 C 0.22481 0.18111 0.07512 0.0
C398 C 0.22254 0.20061 0.08334 0.0
C399 C 0.23818 0.21552 0.08165 0.0
C400 C 0.27734 0.22964 0.10741 0.0
C401 C 0.28029 0.21083 0.1122 0.0
C402 C 0.27416 0.20512 0.13132 0.0
C403 C 0.26508 0.2182 0.14595 0.0
C404 C 0.26226 0.23706 0.14104 0.0
C405 C 0.26831 0.2427 0.12195 0.0
C406 C 0.31027 0.25981 0.10327 0.0
C407 C 0.32251 0.24881 0.11302 0.0
C408 C 0.3331 0.25745 0.12998 0.0
C409 C 0.33164 0.27729 0.13747 0.0
C410 C 0.31928 0.28823 0.12768 0.0
C411 C 0.30865 0.27954 0.11077 0.0
C412 C 0.32141 0.27267 0.06393 0.0
C413 C 0.34069 0.26862 0.06805 0.0
C414 C 0.35602 0.2839 0.07122 0.0
C415 C 0.35242 0.30351 0.06998 0.0
C416 C 0.33352 0.3072 0.06387 0.0
C417 C 0.31809 0.29192 0.06105 0.0
C418 C 0.29633 0.25809 0.0291 0.0
C419 C 0.3141 0.25628 0.01742 0.0
C420 C 0.3168 0.26419 0.99883 0.0
C421 C 0.30172 0.27398 0.99152 0.0
C422 C 0.28399 0.27583 0.0034 0.0
C423 C 0.28136 0.26803 0.022 0.0
C424 C 0.20821 0.16523 0.07677 0.0
C425 C 0.34295 0.28659 0.15541 0.0
H426 H 0.86888 0.20513 0.99511 0.0
H427 H 0.73672 0.3004 0.16154 0.0
H428 H 0.8166 0.2873 0.98926 0.0
H429 H 0.82544 0.2726 0.95492 0.0
H430 H 0.76354 0.25043 0.94622 0.0
H431 H 0.75489 0.2647 0.98072 0.0
H432 H 0.82866 0.27375 0.02848 0.0
H433 H 0.85053 0.24815 0.01689 0.0
H434 H 0.7995 0.2102 0.99305 0.0
H435 H 0.77776 0.23585 0.00497 0.0
H436 H 0.81593 0.28901 0.06799 0.0
H437 H 0.82981 0.27107 0.09313 0.0
H438 H 0.78322 0.22324 0.08137 0.0
H439 H 0.7697 0.24107 0.05593 0.0
H440 H 0.78353 0.32446 0.07534 0.0
H441 H 0.77581 0.33268 0.11165 0.0
H442 H 0.73866 0.27729 0.11229 0.0
H443 H 0.74636 0.26937 0.07596 0.0
H444 H 0.76669 0.34117 0.03808 0.0
H445 H 0.74186 0.364 0.04967 0.0
H446 H 0.69873 0.31454 0.06046 0.0
H447 H 0.72388 0.29206 0.04963 0.0
H448 H 0.78736 0.32157 0.99059 0.0
H449 H 0.77353 0.33881 0.96491 0.0
H450 H 0.71415 0.31331 0.98068 0.0
H451 H 0.72811 0.29549 0.00574 0.0
O452 O 0.85993 0.21495 0.99979 0.0
O453 O 0.83322 0.19605 0.98771 0.0
O454 O 0.75906 0.32595 0.14598 0.0
O455 O 0.73993 0.29758 0.14716 0.0
C456 C 0.78047 0.28247 0.00943 0.0
C457 C 0.78851 0.27241 0.02411 0.0
C458 C 0.78362 0.27699 0.04493 0.0
C459 C 0.77047 0.29136 0.05115 0.0
C460 C 0.76205 0.30109 0.03651 0.0
C461 C 0.76721 0.29685 0.01561 0.0
C462 C 0.78514 0.2769 0.98752 0.0
C463 C 0.80492 0.27954 0.9798 0.0
C464 C 0.80994 0.27114 0.96026 0.0
C465 C 0.79518 0.26031 0.94803 0.0
C466 C 0.77517 0.25885 0.95529 0.0
C467 C 0.7702 0.26699 0.97496 0.0
C468 C 0.80165 0.25661 0.01762 0.0
C469 C 0.82222 0.25982 0.02093 0.0
C470 C 0.83468 0.24521 0.01421 0.0
C471 C 0.82677 0.22713 0.00401 0.0
C472 C 0.80608 0.22395 1.00084 0.0
C473 C 0.79364 0.23856 0.00763 0.0
C474 C 0.79186 0.26628 0.06023 0.0
C475 C 0.80879 0.27464 0.07084 0.0
C476 C 0.81669 0.2644 0.08508 0.0
C477 C 0.80752 0.24583 0.08913 0.0
C478 C 0.79045 0.23759 0.07858 0.0
C479 C 0.78278 0.24768 0.06408 0.0
C480 C 0.76558 0.2963 0.07311 0.0
C481 C 0.7737 0.31416 0.08337 0.0
C482 C 0.76928 0.3188 0.10409 0.0
C483 C 0.75665 0.30561 0.11489 0.0
C484 C 0.74847 0.28775 0.10446 0.0
C485 C 0.75288 0.28316 0.08374 0.0
C486 C 0.74705 0.31503 0.04312 0.0
C487 C 0.75186 0.33536 0.043 0.0
C488 C 0.73761 0.34834 0.04949 0.0
C489 C 0.71826 0.34114 0.05606 0.0
C490 C 0.71354 0.32066 0.0559 0.0
C491 C 0.72784 0.30777 0.04961 0.0
C492 C 0.75874 0.3074 1.00018 0.0
C493 C 0.77139 0.31962 0.98842 0.0
C494 C 0.7635 0.32944 0.9738 0.0
C495 C 0.74279 0.32744 0.97095 0.0
C496 C 0.73014 0.31526 0.98278 0.0
C497 C 0.73808 0.30515 0.99711 0.0
C498 C 0.84009 0.21173 0.99666 0.0
C499 C 0.752 0.3104 0.13693 0.0
H500 H 0.6843 0.67883 0.11864 0.0
H501 H 0.7619 0.74699 0.9165 0.0
H502 H 0.75376 0.77309 0.10063 0.0
H503 H 0.75088 0.76935 0.13689 0.0
H504 H 0.79805 0.73081 0.1293 0.0
H505 H 0.80062 0.73455 0.09278 0.0
H506 H 0.72296 0.7418 0.07356 0.0
H507 H 0.70179 0.71836 0.09248 0.0
H508 H 0.75135 0.68329 0.09326 0.0
H509 H 0.77227 0.70677 0.07418 0.0
H510 H 0.72373 0.74911 0.02745 0.0
H511 H 0.69987 0.72681 0.00679 0.0
H512 H 0.73715 0.67961 0.00839 0.0
H513 H 0.76081 0.70203 0.0293 0.0
H514 H 0.75381 0.78417 0.01392 0.0
H515 H 0.74867 0.78655 0.97799 0.0
H516 H 0.77468 0.73174 0.96172 0.0
H517 H 0.78 0.7297 0.99768 0.0
H518 H 0.78225 0.80841 0.04568 0.0
H519 H 0.7964 0.83282 0.02332 0.0
H520 H 0.82716 0.78807 0.98723 0.0
H521 H 0.81341 0.76387 0.00997 0.0
H522 H 0.78513 0.80321 0.08371 0.0
H523 H 0.81127 0.82375 0.10322 0.0
H524 H 0.85324 0.78155 0.08304 0.0
H525 H 0.827 0.7612 0.06338 0.0
O526 O 0.6929 0.68786 0.11107 0.0
O527 O 0.71885 0.67038 0.1111 0.0
O528 O 0.75067 0.77463 0.93998 0.0
O529 O 0.76376 0.74642 0.93082 0.0
C530 C 0.77633 0.75385 0.07185 0.0
C531 C 0.76195 0.74039 0.06141 0.0
C532 C 0.75926 0.74117 0.04057 0.0
C533 C 0.77073 0.75559 0.03017 0.0
C534 C 0.78532 0.76896 0.04056 0.0
C535 C 0.78829 0.76786 0.06135 0.0
C536 C 0.77743 0.75416 0.09418 0.0
C537 C 0.7638 0.76424 0.10691 0.0
C538 C 0.76222 0.76208 0.12763 0.0
C539 C 0.77422 0.74973 0.136 0.0
C540 C 0.78848 0.74027 0.12328 0.0
C541 C 0.7901 0.74252 0.1025 0.0
C542 C 0.74911 0.72595 0.07256 0.0
C543 C 0.72916 0.72899 0.07778 0.0
C544 C 0.71713 0.71561 0.08861 0.0
C545 C 0.72489 0.69896 0.09441 0.0
C546 C 0.74491 0.69596 0.08905 0.0
C547 C 0.7569 0.70934 0.07818 0.0
C548 C 0.74402 0.72718 0.02966 0.0
C549 C 0.7266 0.7339 0.02349 0.0
C550 C 0.71306 0.72117 0.01166 0.0
C551 C 0.71674 0.7015 0.00582 0.0
C552 C 0.73383 0.69462 0.01279 0.0
C553 C 0.74738 0.70739 0.02463 0.0
C554 C 0.76731 0.75679 0.00837 0.0
C555 C 0.75844 0.77273 0.00255 0.0
C556 C 0.75549 0.77403 0.98203 0.0
C557 C 0.76128 0.75933 0.96697 0.0
C558 C 0.77006 0.74331 0.97291 0.0
C559 C 0.77306 0.74208 0.99343 0.0
C560 C 0.7969 0.78439 0.02954 0.0
C561 C 0.79262 0.80405 0.0334 0.0
C562 C 0.80058 0.81793 0.02054 0.0
C563 C 0.81268 0.81225 0.00344 0.0
C564 C 0.81768 0.79277 1.00018 0.0
C565 C 0.80999 0.77899 0.01321 0.0
C566 C 0.80429 0.78087 0.07207 0.0
C567 C 0.80006 0.7986 0.08327 0.0
C568 C 0.81499 0.8103 0.09431 0.0
C569 C 0.83429 0.80425 0.09454 0.0
C570 C 0.83849 0.78652 0.08314 0.0
C571 C 0.82359 0.77495 0.0719 0.0
C572 C 0.7121 0.68483 0.10602 0.0
C573 C 0.75822 0.76066 0.94514 0.0
H574 H 0.39496 0.71829 0.98603 0.0
H575 H 0.26033 0.78441 0.16229 0.0
H576 H 0.33943 0.79903 0.99084 0.0
H577 H 0.3465 0.79106 0.95467 0.0
H578 H 0.28311 0.77582 0.94555 0.0
H579 H 0.27679 0.78105 0.98201 0.0
H580 H 0.35218 0.78114 0.02941 0.0
H581 H 0.37497 0.75765 0.01416 0.0
H582 H 0.32597 0.72416 0.98158 0.0
H583 H 0.30328 0.74762 0.99715 0.0
H584 H 0.33332 0.79177 0.07601 0.0
H585 H 0.3493 0.76965 0.09527 0.0
H586 H 0.3183 0.71938 0.06057 0.0
H587 H 0.30156 0.74149 0.04207 0.0
H588 H 0.30504 0.82532 0.08308 0.0
H589 H 0.29666 0.82724 0.11958 0.0
H590 H 0.26423 0.76921 0.11071 0.0
H591 H 0.27254 0.76757 0.07421 0.0
H592 H 0.2934 0.84727 0.04907 0.0
H593 H 0.26996 0.8707 0.06281 0.0
H594 H 0.22368 0.8224 0.06751 0.0
H595 H 0.24754 0.79912 0.05447 0.0
H596 H 0.30796 0.83769 0.00229 0.0
H597 H 0.29252 0.85636 0.97882 0.0
H598 H 0.23646 0.82048 0.98621 0.0
H599 H 0.25186 0.80212 0.00983 0.0
O600 O 0.38568 0.72736 0.99193 0.0
O601 O 0.36001 0.71075 0.97541 0.0
O602 O 0.28052 0.81393 0.15163 0.0
O603 O 0.26377 0.78409 0.14791 0.0
C604 C 0.30367 0.79262 0.01157 0.0
C605 C 0.31229 0.78038 0.02377 0.0
C606 C 0.30763 0.78156 0.04493 0.0
C607 C 0.29457 0.79518 0.0539 0.0
C608 C 0.28615 0.80752 0.04172 0.0
C609 C 0.29062 0.80621 0.0206 0.0
C610 C 0.30762 0.79051 0.98916 0.0
C611 C 0.32712 0.79386 0.98097 0.0
C612 C 0.33106 0.78957 0.96013 0.0
C613 C 0.31543 0.78253 0.94687 0.0
C614 C 0.29571 0.78053 0.95512 0.0
C615 C 0.29194 0.78397 0.97604 0.0
C616 C 0.3261 0.76611 0.01436 0.0
C617 C 0.3464 0.76869 0.01902 0.0
C618 C 0.35938 0.75527 0.01026 0.0
C619 C 0.3523 0.73903 0.99663 0.0
C620 C 0.33192 0.73651 0.992 0.0
C621 C 0.31894 0.7499 1.00082 0.0
C622 C 0.31633 0.76826 0.05756 0.0
C623 C 0.32967 0.776 0.07284 0.0
C624 C 0.33882 0.7634 0.08375 0.0
C625 C 0.33507 0.74289 0.07923 0.0
C626 C 0.32151 0.73516 0.06417 0.0
C627 C 0.312 0.74775 0.05362 0.0
C628 C 0.28938 0.79632 0.07603 0.0
C629 C 0.29604 0.81309 0.08905 0.0
C630 C 0.29128 0.81412 0.10989 0.0
C631 C 0.27978 0.79836 0.11807 0.0
C632 C 0.27312 0.78159 0.10492 0.0
C633 C 0.27786 0.7806 0.08408 0.0
C634 C 0.27214 0.82156 0.0509 0.0
C635 C 0.27822 0.84181 0.05324 0.0
C636 C 0.26474 0.85515 0.0609 0.0
C637 C 0.24485 0.84847 0.06616 0.0
C638 C 0.23891 0.82807 0.06389 0.0
C639 C 0.25248 0.81473 0.05639 0.0
C640 C 0.28101 0.81857 0.00772 0.0
C641 C 0.29229 0.83407 0.99901 0.0
C642 C 0.28348 0.84469 0.98569 0.0
C643 C 0.26337 0.83973 0.98066 0.0
C644 C 0.25204 0.82447 0.98973 0.0
C645 C 0.26074 0.81409 0.00329 0.0
C646 C 0.36615 0.72483 0.98731 0.0
C647 C 0.27476 0.79934 0.14021 0.0
H648 H 0.01646 0.20763 0.17819 0.0
H649 H 0.13693 0.32043 0.35283 0.0
H650 H 0.99459 0.29743 0.24417 0.0
H651 H 0.96703 0.28336 0.22248 0.0
H652 H 0.94105 0.25093 0.27113 0.0
H653 H 0.96856 0.26541 0.29282 0.0
H654 H 0.03468 0.27773 0.23596 0.0
H655 H 0.03067 0.25138 0.20776 0.0
H656 H 0.99532 0.2144 0.24754 0.0
H657 H 0.99965 0.2408 0.27564 0.0
H658 H 0.07002 0.29535 0.26095 0.0
H659 H 0.10057 0.27908 0.25327 0.0
H660 H 0.07507 0.23052 0.28541 0.0
H661 H 0.04456 0.247 0.2931 0.0
H662 H 0.06237 0.33315 0.29428 0.0
H663 H 0.09458 0.34524 0.3092 0.0
H664 H 0.09291 0.29223 0.3389 0.0
H665 H 0.06055 0.28048 0.32415 0.0
H666 H 0.01654 0.34659 0.3031 0.0
H667 H 0.02758 0.37553 0.32627 0.0
H668 H 0.04594 0.33756 0.36816 0.0
H669 H 0.03309 0.30886 0.34575 0.0
H670 H 0.98127 0.32699 0.28041 0.0
H671 H 0.9523 0.34271 0.29603 0.0
H672 H 0.95719 0.31399 0.35004 0.0
H673 H 0.98564 0.29813 0.3342 0.0
O674 O 0.0181 0.21774 0.1896 0.0
O675 O 1.00005 0.19932 0.2107 0.0
O676 O 0.12433 0.34297 0.33112 0.0
O677 O 0.12425 0.31595 0.34664 0.0
C678 C 0.00228 0.28752 0.28108 0.0
C679 C 0.01914 0.27747 0.2746 0.0
C680 C 0.03757 0.28308 0.28396 0.0
C681 C 0.0393 0.29899 0.2995 0.0
C682 C 0.02224 0.30856 0.30653 0.0
C683 C 0.00362 0.30257 0.29752 0.0
C684 C 0.98353 0.28236 0.26998 0.0
C685 C 0.98262 0.28772 0.2503 0.0
C686 C 0.96699 0.27954 0.2379 0.0
C687 C 0.95203 0.26583 0.245 0.0
C688 C 0.95227 0.26156 0.26527 0.0
C689 C 0.96794 0.26979 0.27769 0.0
C690 C 0.01747 0.26114 0.2578 0.0
C691 C 0.02624 0.26385 0.23857 0.0
C692 C 0.02385 0.24881 0.22248 0.0
C693 C 0.01263 0.2308 0.22538 0.0
C694 C 0.00403 0.2281 0.24478 0.0
C695 C 0.00648 0.24313 0.26085 0.0
C696 C 0.05516 0.27232 0.27756 0.0
C697 C 0.07097 0.28108 0.26608 0.0
C698 C 0.08834 0.27175 0.26168 0.0
C699 C 0.09021 0.25355 0.26881 0.0
C700 C 0.07411 0.24461 0.27991 0.0
C701 C 0.05667 0.2539 0.28417 0.0
C702 C 0.05916 0.30594 0.30811 0.0
C703 C 0.06901 0.32418 0.304 0.0
C704 C 0.0874 0.33103 0.31253 0.0
C705 C 0.09633 0.31969 0.32525 0.0
C706 C 0.08647 0.30133 0.32918 0.0
C707 C 0.06803 0.29454 0.32071 0.0
C708 C 0.02441 0.32562 0.32254 0.0
C709 C 0.02217 0.34455 0.31768 0.0
C710 C 0.0288 0.36109 0.33084 0.0
C711 C 0.03833 0.35899 0.34884 0.0
C712 C 0.03873 0.33991 0.35452 0.0
C713 C 0.03156 0.3234 0.3416 0.0
C714 C 0.98546 0.31137 0.30617 0.0
C715 C 0.97585 0.32393 0.2955 0.0
C716 C 0.95945 0.333 0.3045 0.0
C717 C 0.95239 0.32954 0.32424 0.0
C718 C 0.96199 0.31672 0.33469 0.0
C719 C 0.97833 0.30773 0.32573 0.0
C720 C 0.00985 0.21496 0.20819 0.0
C721 C 0.11581 0.32697 0.33446 0.0
H722 H 0.87469 0.96859 0.18658 0.0
H723 H 0.75996 0.15638 0.28505 0.0
H724 H 0.77619 0.9789 0.2582 0.0
H725 H 0.79119 0.9488 0.24596 0.0
H726 H 0.84687 0.97383 0.27288 0.0
H727 H 0.83119 0.00315 0.28638 0.0
H728 H 0.80275 0.99868 0.22565 0.0
H729 H 0.82904 0.98331 0.20483 0.0
H730 H 0.87386 0.02055 0.24006 0.0
H731 H 0.84736 0.03558 0.26103 0.0
H732 H 0.80228 0.04337 0.21689 0.0
H733 H 0.8225 0.06533 0.19536 0.0
H734 H 0.84814 0.09843 0.24914 0.0
H735 H 0.82813 0.07631 0.2704 0.0
H736 H 0.76988 0.06609 0.23889 0.0
H737 H 0.75982 0.09913 0.23789 0.0
H738 H 0.77856 0.11534 0.29968 0.0
H739 H 0.78883 0.08235 0.30036 0.0
H740 H 0.73964 0.04449 0.26737 0.0
H741 H 0.7127 0.06222 0.28431 0.0
H742 H 0.7423 0.06651 0.34133 0.0
H743 H 0.76946 0.04906 0.32417 0.0
H744 H 0.74544 0.99719 0.2785 0.0
H745 H 0.72803 0.97449 0.30112 0.0
H746 H 0.77381 0.99147 0.34517 0.0
H747 H 0.79136 0.01385 0.32226 0.0
O748 O 0.86457 0.97539 0.19452 0.0
O749 O 0.8871 0.99612 0.21174 0.0
O750 O 0.7549 0.1343 0.25309 0.0
O751 O 0.76402 0.14327 0.28495 0.0
C752 C 0.79681 0.0135 0.2726 0.0
C753 C 0.8071 0.02576 0.25887 0.0
C754 C 0.8019 0.04497 0.25824 0.0
C755 C 0.78569 0.05161 0.27045 0.0
C756 C 0.77463 0.03895 0.2833 0.0
C757 C 0.78055 0.02008 0.28478 0.0
C758 C 0.80272 0.99334 0.27287 0.0
C759 C 0.79122 0.97739 0.26253 0.0
C760 C 0.8 0.96034 0.25516 0.0
C761 C 0.8205 0.95924 0.25766 0.0
C762 C 0.8311 0.97414 0.27051 0.0
C763 C 0.82215 0.99098 0.2783 0.0
C764 C 0.82316 0.01818 0.24487 0.0
C765 C 0.81826 0.00361 0.22873 0.0
C766 C 0.83331 0.99482 0.2169 0.0
C767 C 0.85356 0.00061 0.22087 0.0
C768 C 0.85841 0.01571 0.23664 0.0
C769 C 0.84333 0.02441 0.24856 0.0
C770 C 0.8138 0.05831 0.24515 0.0
C771 C 0.81231 0.05536 0.22394 0.0
C772 C 0.82378 0.06792 0.21172 0.0
C773 C 0.83698 0.0835 0.22057 0.0
C774 C 0.83835 0.08636 0.24186 0.0
C775 C 0.82684 0.07388 0.25404 0.0
C776 C 0.78012 0.07186 0.26967 0.0
C777 C 0.77196 0.07686 0.25211 0.0
C778 C 0.76615 0.09571 0.25162 0.0
C779 C 0.76836 0.10987 0.26873 0.0
C780 C 0.77664 0.1048 0.28626 0.0
C781 C 0.78251 0.08597 0.2867 0.0
C782 C 0.75652 0.04557 0.29454 0.0
C783 C 0.74006 0.04885 0.28361 0.0
C784 C 0.72479 0.05906 0.29325 0.0
C785 C 0.72557 0.06589 0.31405 0.0
C786 C 0.74132 0.06131 0.3253 0.0
C787 C 0.75677 0.0513 0.31556 0.0
C788 C 0.76962 0.00708 0.29879 0.0
C789 C 0.75166 0.996 0.29305 0.0
C790 C 0.74182 0.98303 0.3059 0.0
C791 C 0.74965 0.98124 0.32482 0.0
C792 C 0.76745 0.99267 0.3307 0.0
C793 C 0.77747 0.00538 0.31767 0.0
C794 C 0.86947 0.99066 0.20878 0.0
C795 C 0.76201 0.12985 0.26837 0.0
H796 H 0.08869 0.68905 0.37862 0.0
H797 H 0.90795 0.72692 0.26174 0.0
H798 H 0.07725 0.77535 0.32038 0.0
H799 H 0.11169 0.77459 0.33045 0.0
H800 H 0.12363 0.7375 0.27486 0.0
H801 H 0.08911 0.73843 0.26488 0.0
H802 H 0.04689 0.74375 0.33895 0.0
H803 H 0.06247 0.72385 0.36087 0.0
H804 H 0.08316 0.688 0.30757 0.0
H805 H 0.06734 0.70795 0.28586 0.0
H806 H 0.00471 0.74064 0.33052 0.0
H807 H 0.9823 0.71497 0.3453 0.0
H808 H 0.99695 0.6728 0.29464 0.0
H809 H 0.0196 0.69849 0.28015 0.0
H810 H 0.99189 0.7747 0.30011 0.0
H811 H 0.95565 0.77263 0.29665 0.0
H812 H 0.95754 0.71745 0.2582 0.0
H813 H 0.99381 0.71986 0.26155 0.0
H814 H 0.02758 0.80292 0.27969 0.0
H815 H 0.00648 0.82241 0.26251 0.0
H816 H 0.9886 0.77114 0.22078 0.0
H817 H 0.0102 0.7519 0.23754 0.0
H818 H 0.0719 0.80016 0.28977 0.0
H819 H 0.09209 0.82374 0.27012 0.0
H820 H 0.07822 0.78595 0.21466 0.0
H821 H 0.05806 0.76257 0.23441 0.0
O822 O 0.0825 0.69664 0.36968 0.0
O823 O 0.09284 0.67869 0.34179 0.0
O824 O 0.9221 0.75653 0.28319 0.0
O825 O 0.92223 0.72805 0.26346 0.0
C826 C 0.05916 0.7542 0.28808 0.0
C827 C 0.04699 0.73967 0.29768 0.0
C828 C 0.02626 0.73699 0.2948 0.0
C829 C 0.01751 0.74913 0.28276 0.0
C830 C 0.02973 0.76334 0.27266 0.0
C831 C 0.05064 0.76572 0.27513 0.0
C832 C 0.08082 0.75705 0.29187 0.0
C833 C 0.08751 0.76756 0.31012 0.0
C834 C 0.10713 0.76708 0.31585 0.0
C835 C 0.12025 0.75586 0.3035 0.0
C836 C 0.11374 0.74611 0.28474 0.0
C837 C 0.09416 0.74678 0.27892 0.0
C838 C 0.05602 0.72725 0.31088 0.0
C839 C 0.0547 0.73152 0.33208 0.0
C840 C 0.06366 0.72016 0.34454 0.0
C841 C 0.07409 0.70434 0.33597 0.0
C842 C 0.07525 0.70008 0.31466 0.0
C843 C 0.06625 0.71143 0.30223 0.0
C844 C 0.01365 0.72133 0.30432 0.0
C845 C 0.00322 0.7258 0.32279 0.0
C846 C 0.99054 0.71116 0.3312 0.0
C847 C 0.98795 0.69197 0.32106 0.0
C848 C 0.99865 0.68752 0.30267 0.0
C849 C 0.01157 0.70209 0.29444 0.0
C850 C 0.99542 0.74737 0.28119 0.0
C851 C 0.98442 0.76215 0.291 0.0
C852 C 0.96374 0.76094 0.28899 0.0
C853 C 0.95369 0.74485 0.27716 0.0
C854 C 0.96479 0.73 0.26745 0.0
C855 C 0.98549 0.73128 0.26942 0.0
C856 C 0.02025 0.77596 0.25997 0.0
C857 C 0.01961 0.79607 0.26644 0.0
C858 C 0.00755 0.80715 0.25668 0.0
C859 C 0.9958 0.79815 0.24053 0.0
C860 C 0.99739 0.77832 0.23333 0.0
C861 C 0.00971 0.76737 0.24284 0.0
C862 C 0.06358 0.77966 0.2635 0.0
C863 C 0.07343 0.79691 0.2734 0.0
C864 C 0.08496 0.81032 0.26217 0.0
C865 C 0.08669 0.80672 0.24083 0.0
C866 C 0.07696 0.78927 0.23103 0.0
C867 C 0.06552 0.77587 0.24228 0.0
C868 C 0.08373 0.69241 0.34924 0.0
C869 C 0.93173 0.74357 0.27484 0.0
H870 H 0.19785 0.03866 0.20701 0.0
H871 H 0.26554 0.86725 0.29928 0.0
H872 H 0.28056 0.04422 0.28295 0.0
H873 H 0.2707 0.07657 0.27794 0.0
H874 H 0.22355 0.07013 0.32395 0.0
H875 H 0.23395 0.03799 0.3294 0.0
H876 H 0.25895 0.00974 0.25239 0.0
H877 H 0.23745 0.02151 0.22861 0.0
H878 H 0.19107 0.02641 0.27592 0.0
H879 H 0.21264 0.01435 0.29942 0.0
H880 H 0.2699 0.9663 0.25617 0.0
H881 H 0.25243 0.95073 0.22598 0.0
H882 H 0.1957 0.95725 0.25828 0.0
H883 H 0.21337 0.97186 0.28861 0.0
H884 H 0.30054 0.96083 0.29132 0.0
H885 H 0.30603 0.92596 0.28815 0.0
H886 H 0.24459 0.91141 0.30796 0.0
H887 H 0.23936 0.94634 0.31128 0.0
H888 H 0.31696 0.00159 0.32165 0.0
H889 H 0.3398 0.98979 0.34363 0.0
H890 H 0.2911 0.95047 0.36593 0.0
H891 H 0.26805 0.96429 0.34575 0.0
H892 H 0.3045 0.03878 0.31084 0.0
H893 H 0.3209 0.06505 0.33435 0.0
H894 H 0.28537 0.04279 0.38439 0.0
H895 H 0.26881 0.01658 0.36062 0.0
O896 O 0.20608 0.03398 0.21663 0.0
O897 O 0.18285 0.03654 0.24157 0.0
O898 O 0.29527 0.88939 0.29034 0.0
O899 O 0.26379 0.88114 0.3004 0.0
C900 C 0.261 0.01776 0.30621 0.0
C901 C 0.25049 0.00413 0.29196 0.0
C902 C 0.25313 0.98394 0.29067 0.0
C903 C 0.26635 0.97731 0.3037 0.0
C904 C 0.27682 0.99096 0.31829 0.0
C905 C 0.2742 0.01128 0.31935 0.0
C906 C 0.25812 0.03892 0.30671 0.0
C907 C 0.26865 0.05016 0.29254 0.0
C908 C 0.26294 0.06854 0.28961 0.0
C909 C 0.24633 0.07572 0.30051 0.0
C910 C 0.23639 0.06485 0.31537 0.0
C911 C 0.2424 0.04664 0.31861 0.0
C912 C 0.23734 0.01126 0.2776 0.0
C913 C 0.24412 0.01333 0.25754 0.0
C914 C 0.23182 0.02007 0.24402 0.0
C915 C 0.21255 0.02494 0.25037 0.0
C916 C 0.20583 0.02282 0.27054 0.0
C917 C 0.21812 0.01599 0.284 0.0
C918 C 0.24288 0.97027 0.27451 0.0
C919 C 0.25372 0.96368 0.25691 0.0
C920 C 0.24369 0.95508 0.23959 0.0
C921 C 0.22264 0.95313 0.23954 0.0
C922 C 0.21189 0.95841 0.25775 0.0
C923 C 0.22195 0.9668 0.27512 0.0
C924 C 0.26958 0.95611 0.30158 0.0
C925 C 0.28831 0.95009 0.29503 0.0
C926 C 0.29139 0.93016 0.2932 0.0
C927 C 0.27574 0.91589 0.29782 0.0
C928 C 0.25696 0.922 0.30428 0.0
C929 C 0.25391 0.94194 0.30614 0.0
C930 C 0.29073 0.98395 0.33211 0.0
C931 C 0.31113 0.99081 0.33171 0.0
C932 C 0.32431 0.98366 0.34405 0.0
C933 C 0.31757 0.96886 0.3566 0.0
C934 C 0.29702 0.96206 0.35691 0.0
C935 C 0.28376 0.96976 0.34509 0.0
C936 C 0.28528 0.02599 0.33401 0.0
C937 C 0.30026 0.03958 0.32687 0.0
C938 C 0.30961 0.05454 0.3403 0.0
C939 C 0.30428 0.05604 0.36115 0.0
C940 C 0.28983 0.0419 0.3684 0.0
C941 C 0.28034 0.027 0.35489 0.0
C942 C 0.19955 0.03217 0.236 0.0
C943 C 0.27893 0.89471 0.29593 0.0
H944 H 0.00498 0.91665 0.90593 0.0
H945 H 0.1563 0.81346 0.76519 0.0
H946 H 0.98567 0.82277 0.83126 0.0
H947 H 0.95299 0.83238 0.84352 0.0
H948 H 0.95321 0.86938 0.79494 0.0
H949 H 0.98637 0.86004 0.78319 0.0
H950 H 0.02527 0.84654 0.85344 0.0
H951 H 0.01779 0.87279 0.8801 0.0
H952 H 0.0069 0.90969 0.834 0.0
H953 H 0.01463 0.88339 0.80751 0.0
H954 H 0.06585 0.82953 0.83821 0.0
H955 H 0.09459 0.84747 0.85596 0.0
H956 H 0.08873 0.89785 0.82405 0.0
H957 H 0.06037 0.87961 0.80603 0.0
H958 H 0.06448 0.7946 0.80581 0.0
H959 H 0.09852 0.78546 0.79894 0.0
H960 H 0.11334 0.83728 0.76769 0.0
H961 H 0.07917 0.8461 0.77446 0.0
H962 H 0.02829 0.77687 0.78775 0.0
H963 H 0.04174 0.74997 0.76556 0.0
H964 H 0.06295 0.79079 0.7224 0.0
H965 H 0.04902 0.81744 0.7445 0.0
H966 H 0.99223 0.78562 0.78936 0.0
H967 H 0.96528 0.7691 0.76794 0.0
H968 H 0.9707 0.81826 0.73221 0.0
H969 H 0.99799 0.83448 0.75343 0.0
O970 O 0.00795 0.9065 0.89515 0.0
O971 O 0.00244 0.92485 0.87086 0.0
O972 O 0.13433 0.79025 0.78426 0.0
O973 O 0.14275 0.81674 0.76814 0.0
C974 C 0.00919 0.83661 0.80093 0.0
C975 C 0.02485 0.84706 0.81249 0.0
C976 C 0.04458 0.84197 0.80905 0.0
C977 C 0.0486 0.82621 0.79431 0.0
C978 C 0.03295 0.81574 0.78274 0.0
C979 C 0.01331 0.82122 0.78576 0.0
C980 C 0.98827 0.84061 0.8063 0.0
C981 C 0.97848 0.83268 0.82308 0.0
C982 C 0.95975 0.83814 0.82998 0.0
C983 C 0.9504 0.85164 0.82019 0.0
C984 C 0.96006 0.8591 0.80294 0.0
C985 C 0.97888 0.85364 0.79607 0.0
C986 C 0.02045 0.86308 0.82859 0.0
C987 C 0.02133 0.86034 0.84916 0.0
C988 C 0.01701 0.87534 0.86434 0.0
C989 C 0.01172 0.89334 0.85918 0.0
C990 C 0.0109 0.89601 0.8385 0.0
C991 C 0.01526 0.88101 0.82335 0.0
C992 C 0.06114 0.85325 0.82078 0.0
C993 C 0.07077 0.84447 0.83514 0.0
C994 C 0.08707 0.85478 0.84536 0.0
C995 C 0.09398 0.87405 0.84134 0.0
C996 C 0.08394 0.88294 0.82727 0.0
C997 C 0.06767 0.87261 0.81707 0.0
C998 C 0.06939 0.82095 0.79055 0.0
C999 C 0.0751 0.80391 0.79743 0.0
C1000 C 0.09455 0.79876 0.79352 0.0
C1001 C 0.10865 0.81064 0.78274 0.0
C1002 C 0.10286 0.8278 0.77601 0.0
C1003 C 0.08338 0.8329 0.77989 0.0
C1004 C 0.0375 0.79902 0.76759 0.0
C1005 C 0.03526 0.77982 0.77318 0.0
C1006 C 0.04318 0.76455 0.76062 0.0
C1007 C 0.05355 0.76825 0.74228 0.0
C1008 C 0.05485 0.78736 0.73629 0.0
C1009 C 0.04691 0.80262 0.74887 0.0
C1010 C 0.9971 0.81114 0.77282 0.0
C1011 C 0.98774 0.79269 0.77677 0.0
C1012 C 0.97239 0.78332 0.76455 0.0
C1013 C 0.96598 0.79241 0.7484 0.0
C1014 C 0.97529 0.811 0.74462 0.0
C1015 C 0.99085 0.82022 0.75666 0.0
C1016 C 0.00708 0.90922 0.87534 0.0
C1017 C 0.12932 0.8052 0.77847 0.0
H1018 H 0.37273 0.00043 0.6438 0.0
H1019 H 0.29098 0.16213 0.78762 0.0
H1020 H 0.30139 0.98839 0.72689 0.0
H1021 H 0.31059 0.95487 0.71866 0.0
H1022 H 0.3465 0.96219 0.77191 0.0
H1023 H 0.33733 0.99597 0.77997 0.0
H1024 H 0.3115 0.02512 0.70422 0.0
H1025 H 0.33299 0.01529 0.67477 0.0
H1026 H 0.38035 0.00978 0.715 0.0
H1027 H 0.35876 0.01984 0.74431 0.0
H1028 H 0.29163 0.06331 0.72159 0.0
H1029 H 0.30156 0.08995 0.70045 0.0
H1030 H 0.36232 0.09256 0.7198 0.0
H1031 H 0.35221 0.06598 0.74096 0.0
H1032 H 0.26609 0.06651 0.75918 0.0
H1033 H 0.25672 0.10019 0.76527 0.0
H1034 H 0.31683 0.12089 0.78375 0.0
H1035 H 0.32591 0.0871 0.77784 0.0
H1036 H 0.25537 0.03219 0.77944 0.0
H1037 H 0.23145 0.04479 0.80564 0.0
H1038 H 0.2805 0.07365 0.84127 0.0
H1039 H 0.30436 0.06148 0.81471 0.0
H1040 H 0.27506 0.98819 0.76919 0.0
H1041 H 0.26144 0.96643 0.7944 0.0
H1042 H 0.29856 0.00077 0.8399 0.0
H1043 H 0.31225 0.02232 0.81451 0.0
O1044 O 0.36452 0.00438 0.65566 0.0
O1045 O 0.38836 0.00172 0.67701 0.0
O1046 O 0.26352 0.13724 0.77569 0.0
O1047 O 0.29426 0.14866 0.78517 0.0
C1048 C 0.31381 0.0153 0.75811 0.0
C1049 C 0.32046 0.02906 0.74425 0.0
C1050 C 0.31462 0.04834 0.74743 0.0
C1051 C 0.30231 0.05395 0.76453 0.0
C1052 C 0.29567 0.04025 0.77831 0.0
C1053 C 0.30159 0.021 0.77529 0.0
C1054 C 0.31881 0.99465 0.75393 0.0
C1055 C 0.31129 0.98278 0.73675 0.0
C1056 C 0.3166 0.96369 0.73205 0.0
C1057 C 0.32942 0.956 0.74454 0.0
C1058 C 0.33655 0.96773 0.76206 0.0
C1059 C 0.33135 0.98697 0.76666 0.0
C1060 C 0.3336 0.02325 0.72638 0.0
C1061 C 0.32656 0.0219 0.70662 0.0
C1062 C 0.33885 0.01622 0.68983 0.0
C1063 C 0.35839 0.01174 0.69253 0.0
C1064 C 0.36538 0.01312 0.71239 0.0
C1065 C 0.35309 0.01884 0.72915 0.0
C1066 C 0.32119 0.06284 0.73289 0.0
C1067 C 0.30712 0.06953 0.72108 0.0
C1068 C 0.31279 0.08474 0.70908 0.0
C1069 C 0.33269 0.09339 0.70855 0.0
C1070 C 0.34692 0.08604 0.71973 0.0
C1071 C 0.34119 0.07092 0.73185 0.0
C1072 C 0.29663 0.07439 0.76821 0.0
C1073 C 0.27716 0.07833 0.76469 0.0
C1074 C 0.27187 0.09758 0.7681 0.0
C1075 C 0.28603 0.11324 0.77502 0.0
C1076 C 0.30556 0.10919 0.77845 0.0
C1077 C 0.3108 0.08992 0.77508 0.0
C1078 C 0.28153 0.04593 0.79527 0.0
C1079 C 0.26092 0.04103 0.79303 0.0
C1080 C 0.24733 0.04828 0.80788 0.0
C1081 C 0.25422 0.06016 0.82536 0.0
C1082 C 0.27489 0.0644 0.82795 0.0
C1083 C 0.28848 0.05749 0.81288 0.0
C1084 C 0.29458 0.00685 0.79005 0.0
C1085 C 0.28047 0.99079 0.78451 0.0
C1086 C 0.27277 0.97838 0.79891 0.0
C1087 C 0.27892 0.98195 0.81913 0.0
C1088 C 0.29342 0.99778 0.82448 0.0
C1089 C 0.30125 0.01006 0.81003 0.0
C1090 C 0.37138 0.00564 0.67466 0.0
C1091 C 0.28051 0.13373 0.77862 0.0
H1092 H 0.97727 0.13579 0.86199 0.0
H1093 H 0.15145 0.28802 0.83365 0.0
H1094 H 0.98362 0.20682 0.79073 0.0
H1095 H 0.94756 0.19664 0.79103 0.0
H1096 H 0.93686 0.2522 0.82528 0.0
H1097 H 0.97295 0.26207 0.82537 0.0
H1098 H 0.01843 0.19108 0.80921 0.0
H1099 H 0.0036 0.16371 0.82737 0.0
H1100 H 0.97602 0.20492 0.87154 0.0
H1101 H 0.99113 0.23217 0.85335 0.0
H1102 H 0.06108 0.2102 0.80118 0.0
H1103 H 0.082 0.18994 0.81737 0.0
H1104 H 0.06066 0.21462 0.87652 0.0
H1105 H 0.03935 0.23431 0.86007 0.0
H1106 H 0.07258 0.24969 0.77946 0.0
H1107 H 0.10851 0.25993 0.78112 0.0
H1108 H 0.10101 0.27814 0.84554 0.0
H1109 H 0.06508 0.26804 0.8436 0.0
H1110 H 0.03995 0.2675 0.76012 0.0
H1111 H 0.05789 0.29604 0.7457 0.0
H1112 H 0.0634 0.32698 0.80614 0.0
H1113 H 0.04542 0.29846 0.82036 0.0
H1114 H 0.99135 0.24323 0.76477 0.0
H1115 H 0.96642 0.25908 0.7485 0.0
H1116 H 0.97802 0.31146 0.79071 0.0
H1117 H 0.00248 0.29529 0.8074 0.0
O1118 O 0.983 0.14683 0.85505 0.0
O1119 O 0.96904 0.16862 0.87726 0.0
O1120 O 0.14036 0.2743 0.79939 0.0
O1121 O 0.1373 0.28385 0.83255 0.0
C1122 C 0.00284 0.24096 0.80862 0.0
C1123 C 0.01502 0.23023 0.81907 0.0
C1124 C 0.03585 0.23559 0.81951 0.0
C1125 C 0.04443 0.25218 0.8103 0.0
C1126 C 0.03224 0.26318 0.80018 0.0
C1127 C 0.01151 0.25731 0.79888 0.0
C1128 C 0.98091 0.23515 0.80811 0.0
C1129 C 0.97348 0.21675 0.79835 0.0
C1130 C 0.95293 0.21098 0.79851 0.0
C1131 C 0.93945 0.22365 0.80817 0.0
C1132 C 0.94691 0.24224 0.81755 0.0
C1133 C 0.96748 0.24788 0.81764 0.0
C1134 C 0.00588 0.21359 0.83 0.0
C1135 C 0.00925 0.19416 0.82286 0.0
C1136 C 0.00072 0.17855 0.83324 0.0
C1137 C 0.98863 0.18212 0.85092 0.0
C1138 C 0.98526 0.20165 0.85798 0.0
C1139 C 0.99384 0.21724 0.84761 0.0
C1140 C 0.04876 0.22368 0.82949 0.0
C1141 C 0.06097 0.21118 0.81763 0.0
C1142 C 0.07294 0.19969 0.82692 0.0
C1143 C 0.07301 0.20062 0.84826 0.0
C1144 C 0.06072 0.21325 0.86006 0.0
C1145 C 0.04866 0.22464 0.85073 0.0
C1146 C 0.06627 0.25814 0.81141 0.0
C1147 C 0.07874 0.25594 0.7939 0.0
C1148 C 0.09925 0.26177 0.7949 0.0
C1149 C 0.10764 0.26986 0.81348 0.0
C1150 C 0.09505 0.27197 0.831 0.0
C1151 C 0.07454 0.26617 0.82996 0.0
C1152 C 0.04138 0.28099 0.79124 0.0
C1153 C 0.04483 0.28056 0.77017 0.0
C1154 C 0.0552 0.29676 0.76201 0.0
C1155 C 0.06211 0.31369 0.77482 0.0
C1156 C 0.05812 0.31422 0.7959 0.0
C1157 C 0.04791 0.29797 0.80403 0.0
C1158 C 0.9987 0.26807 0.78731 0.0
C1159 C 0.98867 0.2582 0.77037 0.0
C1160 C 0.97443 0.26722 0.76115 0.0
C1161 C 0.97027 0.28642 0.76845 0.0
C1162 C 0.98106 0.29668 0.78474 0.0
C1163 C 0.99507 0.28751 0.79421 0.0
C1164 C 0.9796 0.16552 0.86192 0.0
C1165 C 0.12941 0.27611 0.81463 0.0
H1166 H 0.64711 0.00761 0.65176 0.0
H1167 H 0.72402 0.86558 0.77554 0.0
H1168 H 0.72995 0.03016 0.71773 0.0
H1169 H 0.72124 0.06264 0.7117 0.0
H1170 H 0.69586 0.07088 0.77287 0.0
H1171 H 0.70433 0.03819 0.77868 0.0
H1172 H 0.71314 0.98989 0.69855 0.0
H1173 H 0.68901 0.99569 0.67399 0.0
H1174 H 0.64967 0.01651 0.72352 0.0
H1175 H 0.67379 0.01031 0.74794 0.0
H1176 H 0.72988 0.9514 0.71315 0.0
H1177 H 0.71344 0.93002 0.68537 0.0
H1178 H 0.65578 0.94335 0.71144 0.0
H1179 H 0.67229 0.96409 0.73979 0.0
H1180 H 0.7598 0.95353 0.74827 0.0
H1181 H 0.76495 0.91959 0.75262 0.0
H1182 H 0.70345 0.90942 0.77426 0.0
H1183 H 0.69856 0.94347 0.77007 0.0
H1184 H 0.77748 0.99674 0.77073 0.0
H1185 H 0.79957 0.987 0.79489 0.0
H1186 H 0.74856 0.9559 0.82393 0.0
H1187 H 0.7266 0.968 0.80145 0.0
H1188 H 0.76445 0.02908 0.74688 0.0
H1189 H 0.78346 0.05946 0.76113 0.0
H1190 H 0.75327 0.05366 0.81954 0.0
H1191 H 0.73434 0.02303 0.80509 0.0
O1192 O 0.6565 0.00555 0.66174 0.0
O1193 O 0.63705 0.01665 0.68772 0.0
O1194 O 0.75389 0.88505 0.76244 0.0
O1195 O 0.72238 0.87906 0.77363 0.0
C1196 C 0.72069 0.0111 0.75134 0.0
C1197 C 0.70953 0.99538 0.73993 0.0
C1198 C 0.71238 0.9757 0.7423 0.0
C1199 C 0.72586 0.97175 0.75667 0.0
C1200 C 0.73684 0.98753 0.76849 0.0
C1201 C 0.73474 0.0072 0.76519 0.0
C1202 C 0.7176 0.03174 0.74857 0.0
C1203 C 0.72262 0.03904 0.72986 0.0
C1204 C 0.71758 0.05753 0.72643 0.0
C1205 C 0.7077 0.0692 0.74176 0.0
C1206 C 0.70355 0.06224 0.76082 0.0
C1207 C 0.70837 0.04361 0.76416 0.0
C1208 C 0.69515 0.99958 0.72501 0.0
C1209 C 0.69928 0.99567 0.70405 0.0
C1210 C 0.68549 0.99902 0.69007 0.0
C1211 C 0.66739 0.00653 0.69679 0.0
C1212 C 0.66345 0.01069 0.71783 0.0
C1213 C 0.67721 0.00722 0.73181 0.0
C1214 C 0.7023 0.95943 0.72841 0.0
C1215 C 0.7137 0.9491 0.71334 0.0
C1216 C 0.7043 0.93696 0.69745 0.0
C1217 C 0.68339 0.93525 0.69624 0.0
C1218 C 0.67193 0.94457 0.71203 0.0
C1219 C 0.68133 0.95634 0.72819 0.0
C1220 C 0.72883 0.95098 0.75891 0.0
C1221 C 0.74748 0.94396 0.754 0.0
C1222 C 0.75037 0.92456 0.75646 0.0
C1223 C 0.73461 0.91179 0.76381 0.0
C1224 C 0.7159 0.91885 0.76857 0.0
C1225 C 0.71304 0.93827 0.76614 0.0
C1226 C 0.75034 0.98316 0.78426 0.0
C1227 C 0.77104 0.98841 0.78278 0.0
C1228 C 0.78375 0.98235 0.79643 0.0
C1229 C 0.77616 0.97024 0.81144 0.0
C1230 C 0.75527 0.96544 0.81304 0.0
C1231 C 0.74255 0.97216 0.79992 0.0
C1232 C 0.748 0.02393 0.77495 0.0
C1233 C 0.76217 0.03422 0.76284 0.0
C1234 C 0.7729 0.05162 0.77095 0.0
C1235 C 0.76968 0.05906 0.79138 0.0
C1236 C 0.75615 0.04821 0.80377 0.0
C1237 C 0.74533 0.03075 0.79559 0.0
C1238 C 0.6527 0.00992 0.68189 0.0
C1239 C 0.73762 0.89119 0.76655 0.0
H1240 H 0.16104 0.66656 0.50222 0.0
H1241 H 0.34397 0.781 0.41564 0.0
H1242 H 0.22753 0.74501 0.55583 0.0
H1243 H 0.20727 0.7325 0.584 0.0
H1244 H 0.25518 0.69941 0.59744 0.0
H1245 H 0.27529 0.71179 0.56875 0.0
H1246 H 0.22141 0.73472 0.50866 0.0
H1247 H 0.19262 0.70989 0.50377 0.0
H1248 H 0.22671 0.66675 0.52473 0.0
H1249 H 0.25545 0.69168 0.52934 0.0
H1250 H 0.24973 0.75888 0.48043 0.0
H1251 H 0.24853 0.75207 0.44351 0.0
H1252 H 0.27069 0.69575 0.4466 0.0
H1253 H 0.27271 0.7032 0.48353 0.0
H1254 H 0.28221 0.78936 0.49741 0.0
H1255 H 0.29965 0.8038 0.46856 0.0
H1256 H 0.32658 0.74964 0.45133 0.0
H1257 H 0.30937 0.73554 0.4805 0.0
H1258 H 0.28744 0.7972 0.54258 0.0
H1259 H 0.312 0.82537 0.53742 0.0
H1260 H 0.35515 0.78535 0.51414 0.0
H1261 H 0.33062 0.7574 0.51962 0.0
H1262 H 0.2647 0.77277 0.5774 0.0
H1263 H 0.27962 0.78478 0.61015 0.0
H1264 H 0.33121 0.75364 0.59187 0.0
H1265 H 0.31626 0.74195 0.55914 0.0
O1266 O 0.17264 0.67612 0.50415 0.0
O1267 O 0.19081 0.65451 0.51504 0.0
O1268 O 0.3231 0.80336 0.437 0.0
O1269 O 0.33695 0.77568 0.42721 0.0
C1270 C 0.2645 0.73649 0.54248 0.0
C1271 C 0.25786 0.73016 0.52255 0.0
C1272 C 0.26776 0.7383 0.50572 0.0
C1273 C 0.28419 0.7528 0.50878 0.0
C1274 C 0.29091 0.75901 0.52859 0.0
C1275 C 0.28136 0.7506 0.54542 0.0
C1276 C 0.25286 0.72932 0.56026 0.0
C1277 C 0.23368 0.7351 0.56489 0.0
C1278 C 0.22218 0.72802 0.58107 0.0
C1279 C 0.22965 0.71503 0.59304 0.0
C1280 C 0.24896 0.70929 0.58841 0.0
C1281 C 0.26051 0.71644 0.57217 0.0
C1282 C 0.24051 0.71498 0.51931 0.0
C1283 C 0.22266 0.71987 0.51206 0.0
C1284 C 0.20622 0.70567 0.50935 0.0
C1285 C 0.20735 0.68633 0.51387 0.0
C1286 C 0.22532 0.6815 0.52111 0.0
C1287 C 0.24175 0.69571 0.52378 0.0
C1288 C 0.26152 0.73164 0.48461 0.0
C1289 C 0.25379 0.74484 0.47316 0.0
C1290 C 0.25308 0.74087 0.45203 0.0
C1291 C 0.25988 0.7235 0.44199 0.0
C1292 C 0.26581 0.70948 0.45378 0.0
C1293 C 0.2667 0.71356 0.47492 0.0
C1294 C 0.2946 0.76145 0.49106 0.0
C1295 C 0.29197 0.78069 0.48744 0.0
C1296 C 0.3019 0.78887 0.47093 0.0
C1297 C 0.31452 0.77787 0.45763 0.0
C1298 C 0.317 0.75852 0.46127 0.0
C1299 C 0.30716 0.75042 0.47788 0.0
C1300 C 0.30726 0.77531 0.53139 0.0
C1301 C 0.30246 0.79457 0.53716 0.0
C1302 C 0.31642 0.81062 0.53397 0.0
C1303 C 0.33541 0.80758 0.52508 0.0
C1304 C 0.34073 0.78821 0.52113 0.0
C1305 C 0.32674 0.7722 0.52427 0.0
C1306 C 0.28941 0.7565 0.56594 0.0
C1307 C 0.27909 0.76835 0.58062 0.0
C1308 C 0.28762 0.77513 0.59932 0.0
C1309 C 0.30666 0.77022 0.60359 0.0
C1310 C 0.31668 0.75792 0.58896 0.0
C1311 C 0.30812 0.75114 0.57032 0.0
C1312 C 0.18983 0.67131 0.51108 0.0
C1313 C 0.32507 0.78647 0.44003 0.0
H1314 H 0.85491 0.6836 0.55754 0.0
H1315 H 0.82813 0.78402 0.36778 0.0
H1316 H 0.78066 0.74647 0.54251 0.0
H1317 H 0.78784 0.74171 0.57739 0.0
H1318 H 0.82224 0.79874 0.58422 0.0
H1319 H 0.81529 0.80324 0.54912 0.0
H1320 H 0.80399 0.72258 0.50915 0.0
H1321 H 0.822 0.70118 0.52718 0.0
H1322 H 0.86166 0.75171 0.55052 0.0
H1323 H 0.84372 0.77287 0.53212 0.0
H1324 H 0.7964 0.73073 0.4623 0.0
H1325 H 0.81381 0.70453 0.44341 0.0
H1326 H 0.86991 0.73206 0.46726 0.0
H1327 H 0.85241 0.75873 0.4857 0.0
H1328 H 0.77395 0.75911 0.44967 0.0
H1329 H 0.77721 0.75971 0.41279 0.0
H1330 H 0.83673 0.78998 0.41934 0.0
H1331 H 0.83315 0.78947 0.45624 0.0
H1332 H 0.75042 0.77757 0.47826 0.0
H1333 H 0.73049 0.79682 0.4595 0.0
H1334 H 0.77963 0.8428 0.45959 0.0
H1335 H 0.7996 0.82327 0.47812 0.0
H1336 H 0.74927 0.7757 0.52284 0.0
H1337 H 0.72361 0.79697 0.53585 0.0
H1338 H 0.76807 0.84754 0.53826 0.0
H1339 H 0.79342 0.82609 0.5245 0.0
O1340 O 0.84818 0.69228 0.5503 0.0
O1341 O 0.86791 0.71879 0.5622 0.0
O1342 O 0.79573 0.7681 0.37979 0.0
O1343 O 0.82642 0.78362 0.38232 0.0
C1344 C 0.79866 0.77505 0.52083 0.0
C1345 C 0.81108 0.76233 0.50907 0.0
C1346 C 0.81208 0.76168 0.48765 0.0
C1347 C 0.80123 0.77423 0.47801 0.0
C1348 C 0.78873 0.78677 0.48972 0.0
C1349 C 0.78735 0.78711 0.51111 0.0
C1350 C 0.79755 0.77515 0.54327 0.0
C1351 C 0.78916 0.75822 0.55177 0.0
C1352 C 0.79344 0.75544 0.57158 0.0
C1353 C 0.80587 0.76972 0.58333 0.0
C1354 C 0.81261 0.78752 0.57548 0.0
C1355 C 0.80854 0.79017 0.55551 0.0
C1356 C 0.82259 0.74925 0.5193 0.0
C1357 C 0.8167 0.72895 0.518 0.0
C1358 C 0.82696 0.71679 0.52839 0.0
C1359 C 0.84324 0.72474 0.54034 0.0
C1360 C 0.84918 0.7451 0.54147 0.0
C1361 C 0.83897 0.75722 0.53099 0.0
C1362 C 0.82316 0.7467 0.47524 0.0
C1363 C 0.8125 0.73135 0.46311 0.0
C1364 C 0.82244 0.71639 0.45241 0.0
C1365 C 0.84317 0.71633 0.45392 0.0
C1366 C 0.85389 0.73176 0.46597 0.0
C1367 C 0.84396 0.74696 0.47642 0.0
C1368 C 0.80323 0.77444 0.45561 0.0
C1369 C 0.7876 0.76602 0.44312 0.0
C1370 C 0.78954 0.7663 0.42206 0.0
C1371 C 0.80722 0.77495 0.41311 0.0
C1372 C 0.8229 0.78325 0.42572 0.0
C1373 C 0.82092 0.78297 0.44679 0.0
C1374 C 0.77643 0.79903 0.47942 0.0
C1375 C 0.75682 0.79183 0.47427 0.0
C1376 C 0.74553 0.80278 0.46352 0.0
C1377 C 0.75359 0.82123 0.45804 0.0
C1378 C 0.77306 0.82865 0.46372 0.0
C1379 C 0.78447 0.81754 0.47422 0.0
C1380 C 0.77315 0.79938 0.52289 0.0
C1381 C 0.7535 0.79131 0.52667 0.0
C1382 C 0.73888 0.80352 0.53409 0.0
C1383 C 0.74372 0.82402 0.53795 0.0
C1384 C 0.76374 0.83188 0.5351 0.0
C1385 C 0.77831 0.81965 0.52752 0.0
C1386 C 0.85391 0.71183 0.55162 0.0
C1387 C 0.80936 0.77531 0.39074 0.0
H1388 H 0.65909 0.17455 0.55974 0.0
H1389 H 0.81222 0.26562 0.41133 0.0
H1390 H 0.73577 0.26185 0.57985 0.0
H1391 H 0.72064 0.2541 0.61251 0.0
H1392 H 0.76764 0.2174 0.61945 0.0
H1393 H 0.78245 0.22497 0.58625 0.0
H1394 H 0.71686 0.23997 0.53962 0.0
H1395 H 0.68847 0.21594 0.54646 0.0
H1396 H 0.72934 0.1764 0.56283 0.0
H1397 H 0.7576 0.20048 0.55571 0.0
H1398 H 0.73664 0.25779 0.5009 0.0
H1399 H 0.71818 0.24252 0.47122 0.0
H1400 H 0.74057 0.18699 0.47742 0.0
H1401 H 0.7593 0.20252 0.50706 0.0
H1402 H 0.77036 0.28861 0.50322 0.0
H1403 H 0.77985 0.29724 0.46901 0.0
H1404 H 0.80484 0.24166 0.45466 0.0
H1405 H 0.79558 0.23339 0.48908 0.0
H1406 H 0.78498 0.30467 0.54398 0.0
H1407 H 0.80536 0.33098 0.52838 0.0
H1408 H 0.84561 0.2891 0.5023 0.0
H1409 H 0.82537 0.26302 0.51834 0.0
H1410 H 0.77587 0.29397 0.5807 0.0
H1411 H 0.79573 0.3107 0.60897 0.0
H1412 H 0.83737 0.26662 0.59827 0.0
H1413 H 0.81748 0.2501 0.56986 0.0
O1414 O 0.67053 0.1838 0.55702 0.0
O1415 O 0.69217 0.16403 0.56533 0.0
O1416 O 0.79549 0.29107 0.43321 0.0
O1417 O 0.80827 0.26256 0.42494 0.0
C1418 C 0.76732 0.24675 0.55969 0.0
C1419 C 0.75643 0.23664 0.54322 0.0
C1420 C 0.76147 0.24105 0.52321 0.0
C1421 C 0.77735 0.25558 0.5197 0.0
C1422 C 0.78832 0.26558 0.53618 0.0
C1423 C 0.7835 0.26093 0.55612 0.0
C1424 C 0.76016 0.24397 0.58076 0.0
C1425 C 0.74298 0.25241 0.5886 0.0
C1426 C 0.73442 0.24802 0.60732 0.0
C1427 C 0.74294 0.23513 0.61863 0.0
C1428 C 0.76063 0.22723 0.61102 0.0
C1429 C 0.7692 0.23165 0.5922 0.0
C1430 C 0.73925 0.22191 0.5471 0.0
C1431 C 0.71963 0.22605 0.54456 0.0
C1432 C 0.70346 0.21233 0.54854 0.0
C1433 C 0.70663 0.19424 0.55519 0.0
C1434 C 0.72637 0.19018 0.55772 0.0
C1435 C 0.74252 0.2039 0.55369 0.0
C1436 C 0.74945 0.2313 0.50597 0.0
C1437 C 0.7376 0.24235 0.49581 0.0
C1438 C 0.72712 0.23363 0.47888 0.0
C1439 C 0.72811 0.21363 0.47194 0.0
C1440 C 0.73952 0.20242 0.48251 0.0
C1441 C 0.7502 0.21124 0.49937 0.0
C1442 C 0.78244 0.26046 0.49865 0.0
C1443 C 0.77797 0.27837 0.49269 0.0
C1444 C 0.78335 0.28323 0.47313 0.0
C1445 C 0.79315 0.27015 0.4591 0.0
C1446 C 0.79735 0.25208 0.46508 0.0
C1447 C 0.79204 0.24729 0.4847 0.0
C1448 C 0.80373 0.28196 0.53229 0.0
C1449 C 0.79871 0.30139 0.53569 0.0
C1450 C 0.81021 0.31633 0.52653 0.0
C1451 C 0.8269 0.31205 0.51385 0.0
C1452 C 0.83292 0.29292 0.51208 0.0
C1453 C 0.82141 0.27799 0.52126 0.0
C1454 C 0.79536 0.27095 0.57326 0.0
C1455 C 0.78933 0.28802 0.58444 0.0
C1456 C 0.8007 0.29755 0.60048 0.0
C1457 C 0.81813 0.28998 0.60572 0.0
C1458 C 0.82397 0.2727 0.5946 0.0
C1459 C 0.8127 0.26332 0.57839 0.0
C1460 C 0.68941 0.17974 0.5595 0.0
C1461 C 0.799 0.27529 0.43833 0.0
H1462 H 0.17942 0.41172 0.5659 0.0
H1463 H 0.27575 0.25579 0.40081 0.0
H1464 H 0.2693 0.35237 0.57151 0.0
H1465 H 0.25163 0.372 0.59838 0.0
H1466 H 0.20112 0.32732 0.59456 0.0
H1467 H 0.21912 0.3077 0.56829 0.0
H1468 H 0.24843 0.36856 0.54099 0.0
H1469 H 0.22359 0.39157 0.55162 0.0
H1470 H 0.17637 0.34382 0.54233 0.0
H1471 H 0.20142 0.32097 0.53175 0.0
H1472 H 0.25111 0.35853 0.49703 0.0
H1473 H 0.23033 0.37122 0.47324 0.0
H1474 H 0.1961 0.31416 0.46376 0.0
H1475 H 0.21709 0.3016 0.48751 0.0
H1476 H 0.28038 0.32899 0.4767 0.0
H1477 H 0.28807 0.31697 0.44122 0.0
H1478 H 0.25849 0.25959 0.45103 0.0
H1479 H 0.25072 0.27187 0.48639 0.0
H1480 H 0.30773 0.30685 0.50409 0.0
H1481 H 0.33001 0.28144 0.49298 0.0
H1482 H 0.28652 0.2376 0.51607 0.0
H1483 H 0.26473 0.26319 0.52755 0.0
H1484 H 0.30494 0.31748 0.55087 0.0
H1485 H 0.32382 0.30306 0.575 0.0
H1486 H 0.26967 0.26902 0.59371 0.0
H1487 H 0.25088 0.28369 0.56959 0.0
O1488 O 0.18893 0.40248 0.56103 0.0
O1489 O 0.16517 0.3775 0.55578 0.0
O1490 O 0.28776 0.29075 0.41045 0.0
O1491 O 0.27284 0.26095 0.41474 0.0
C1492 C 0.25138 0.32192 0.54665 0.0
C1493 C 0.24189 0.32898 0.53075 0.0
C1494 C 0.24644 0.32231 0.5103 0.0
C1495 C 0.26058 0.3086 0.50564 0.0
C1496 C 0.27033 0.30176 0.52151 0.0
C1497 C 0.26585 0.30854 0.54207 0.0
C1498 C 0.2454 0.32871 0.56789 0.0
C1499 C 0.25491 0.34633 0.57736 0.0
C1500 C 0.24463 0.35768 0.59245 0.0
C1501 C 0.22472 0.35151 0.59817 0.0
C1502 C 0.2164 0.33256 0.59057 0.0
C1503 C 0.22673 0.32121 0.57559 0.0
C1504 C 0.22669 0.34314 0.53569 0.0
C1505 C 0.2327 0.36315 0.54114 0.0
C1506 C 0.21848 0.37624 0.54723 0.0
C1507 C 0.198 0.36952 0.54796 0.0
C1508 C 0.19203 0.34948 0.54202 0.0
C1509 C 0.20627 0.33641 0.5359 0.0
C1510 C 0.23556 0.32918 0.49396 0.0
C1511 C 0.23929 0.34873 0.48959 0.0
C1512 C 0.22732 0.35597 0.47613 0.0
C1513 C 0.21145 0.34374 0.46678 0.0
C1514 C 0.20829 0.3239 0.4706 0.0
C1515 C 0.22024 0.3167 0.48414 0.0
C1516 C 0.26506 0.30128 0.48409 0.0
C1517 C 0.27553 0.31385 0.47112 0.0
C1518 C 0.27992 0.30694 0.45088 0.0
C1519 C 0.27392 0.2873 0.44329 0.0
C1520 C 0.26336 0.27478 0.45638 0.0
C1521 C 0.25893 0.28173 0.47659 0.0
C1522 C 0.28464 0.2868 0.51653 0.0
C1523 C 0.30322 0.29178 0.50697 0.0
C1524 C 0.31585 0.27723 0.50057 0.0
C1525 C 0.31002 0.25743 0.50352 0.0
C1526 C 0.29165 0.2527 0.5138 0.0
C1527 C 0.2791 0.26727 0.52028 0.0
C1528 C 0.27655 0.30166 0.55853 0.0
C1529 C 0.29713 0.30713 0.56041 0.0
C1530 C 0.3079 0.29876 0.57408 0.0
C1531 C 0.29828 0.28477 0.58616 0.0
C1532 C 0.27749 0.27989 0.58477 0.0
C1533 C 0.26672 0.28825 0.57103 0.0
C1534 C 0.18299 0.38334 0.5551 0.0
C1535 C 0.27862 0.27985 0.42184 0.0
H1536 H 0.86509 0.51913 0.66361 0.0
H1537 H 0.76547 0.66991 0.80636 0.0
H1538 H 0.78998 0.49943 0.74433 0.0
H1539 H 0.80122 0.46671 0.73581 0.0
H1540 H 0.83909 0.47677 0.78767 0.0
H1541 H 0.82767 0.50966 0.79613 0.0
H1542 H 0.80017 0.53781 0.72222 0.0
H1543 H 0.82327 0.53028 0.69338 0.0
H1544 H 0.87012 0.52752 0.73514 0.0
H1545 H 0.84692 0.53526 0.76382 0.0
H1546 H 0.77737 0.57522 0.74042 0.0
H1547 H 0.78671 0.60312 0.72076 0.0
H1548 H 0.84706 0.60729 0.74159 0.0
H1549 H 0.83754 0.5796 0.76142 0.0
H1550 H 0.74917 0.57316 0.77847 0.0
H1551 H 0.73651 0.60547 0.78486 0.0
H1552 H 0.7956 0.63177 0.8016 0.0
H1553 H 0.80799 0.59933 0.79543 0.0
H1554 H 0.74236 0.533 0.79964 0.0
H1555 H 0.71674 0.54296 0.82523 0.0
H1556 H 0.76021 0.58658 0.85468 0.0
H1557 H 0.78596 0.5761 0.82951 0.0
H1558 H 0.76433 0.49703 0.78115 0.0
H1559 H 0.7506 0.47199 0.80274 0.0
H1560 H 0.7805 0.505 0.85418 0.0
H1561 H 0.79451 0.52996 0.83229 0.0
O1562 O 0.85623 0.52219 0.67523 0.0
O1563 O 0.87979 0.52092 0.69734 0.0
O1564 O 0.73993 0.64267 0.79522 0.0
O1565 O 0.77007 0.65694 0.80376 0.0
C1566 C 0.80139 0.52682 0.77545 0.0
C1567 C 0.80779 0.54148 0.76256 0.0
C1568 C 0.8005 0.56013 0.76614 0.0
C1569 C 0.78709 0.56424 0.7828 0.0
C1570 C 0.78079 0.54962 0.79577 0.0
C1571 C 0.78791 0.53087 0.79207 0.0
C1572 C 0.80804 0.50686 0.7708 0.0
C1573 C 0.80064 0.49453 0.75388 0.0
C1574 C 0.80697 0.47583 0.74914 0.0
C1575 C 0.82095 0.46919 0.76116 0.0
C1576 C 0.82836 0.48158 0.77814 0.0
C1577 C 0.82183 0.50027 0.78301 0.0
C1578 C 0.8219 0.53712 0.74508 0.0
C1579 C 0.81546 0.53568 0.72508 0.0
C1580 C 0.82867 0.53132 0.70865 0.0
C1581 C 0.84855 0.52829 0.71195 0.0
C1582 C 0.85492 0.52977 0.73206 0.0
C1583 C 0.84171 0.53416 0.74846 0.0
C1584 C 0.80676 0.57549 0.75243 0.0
C1585 C 0.79265 0.58208 0.74058 0.0
C1586 C 0.79797 0.598 0.72941 0.0
C1587 C 0.81758 0.60739 0.72971 0.0
C1588 C 0.83189 0.6002 0.74092 0.0
C1589 C 0.82649 0.58442 0.75226 0.0
C1590 C 0.77947 0.58392 0.78654 0.0
C1591 C 0.75932 0.58591 0.7836 0.0
C1592 C 0.75215 0.60438 0.78722 0.0
C1593 C 0.76506 0.62121 0.79375 0.0
C1594 C 0.78527 0.61913 0.79659 0.0
C1595 C 0.7924 0.60064 0.79304 0.0
C1596 C 0.76601 0.55387 0.81268 0.0
C1597 C 0.74648 0.54434 0.81193 0.0
C1598 C 0.73188 0.55005 0.82648 0.0
C1599 C 0.73654 0.56562 0.84176 0.0
C1600 C 0.75626 0.57466 0.84291 0.0
C1601 C 0.77093 0.56868 0.82861 0.0
C1602 C 0.78055 0.51522 0.8051 0.0
C1603 C 0.76825 0.49867 0.79698 0.0
C1604 C 0.76043 0.48438 0.80933 0.0
C1605 C 0.76457 0.4865 0.83013 0.0
C1606 C 0.77702 0.50305 0.83823 0.0
C1607 C 0.78504 0.51725 0.82577 0.0
C1608 C 0.86252 0.52358 0.69447 0.0
C1609 C 0.75752 0.64087 0.7976 0.0
H1610 H 0.35102 0.51117 0.86333 0.0
H1611 H 0.22269 0.66431 0.80001 0.0
H1612 H 0.27089 0.49462 0.78603 0.0
H1613 H 0.27904 0.46327 0.79607 0.0
H1614 H 0.23363 0.46669 0.8443 0.0
H1615 H 0.22517 0.49786 0.83379 0.0
H1616 H 0.29842 0.5328 0.80357 0.0
H1617 H 0.32488 0.5245 0.82422 0.0
H1618 H 0.28173 0.51652 0.87389 0.0
H1619 H 0.2555 0.52505 0.85314 0.0
H1620 H 0.28678 0.57301 0.78848 0.0
H1621 H 0.30842 0.60275 0.79958 0.0
H1622 H 0.28513 0.59988 0.86131 0.0
H1623 H 0.2629 0.57045 0.84976 0.0
H1624 H 0.25109 0.57623 0.76456 0.0
H1625 H 0.24629 0.60997 0.75897 0.0
H1626 H 0.22527 0.62118 0.82157 0.0
H1627 H 0.22983 0.58729 0.82683 0.0
H1628 H 0.22764 0.53817 0.74898 0.0
H1629 H 0.20888 0.55615 0.72779 0.0
H1630 H 0.1766 0.57989 0.7814 0.0
H1631 H 0.19544 0.5619 0.80243 0.0
H1632 H 0.23956 0.49456 0.76407 0.0
H1633 H 0.21678 0.47112 0.74339 0.0
H1634 H 0.16628 0.49446 0.77672 0.0
H1635 H 0.18922 0.5173 0.79818 0.0
O1636 O 0.34036 0.5145 0.85547 0.0
O1637 O 0.31756 0.51046 0.88048 0.0
O1638 O 0.23562 0.64437 0.76974 0.0
O1639 O 0.22498 0.65098 0.80187 0.0
C1640 C 0.24516 0.51894 0.80546 0.0
C1641 C 0.25903 0.53418 0.81422 0.0
C1642 C 0.25785 0.55382 0.81066 0.0
C1643 C 0.24234 0.55844 0.79907 0.0
C1644 C 0.22836 0.54333 0.79033 0.0
C1645 C 0.22988 0.52346 0.79329 0.0
C1646 C 0.24724 0.49834 0.809 0.0
C1647 C 0.26224 0.48825 0.79831 0.0
C1648 C 0.26693 0.47042 0.80411 0.0
C1649 C 0.25699 0.46263 0.82098 0.0
C1650 C 0.24153 0.47244 0.83126 0.0
C1651 C 0.23656 0.49009 0.82518 0.0
C1652 C 0.2751 0.52948 0.82688 0.0
C1653 C 0.29477 0.52933 0.81895 0.0
C1654 C 0.30982 0.52454 0.83076 0.0
C1655 C 0.30541 0.51981 0.8507 0.0
C1656 C 0.28564 0.52007 0.85859 0.0
C1657 C 0.27062 0.52491 0.84678 0.0
C1658 C 0.27323 0.56971 0.8183 0.0
C1659 C 0.28663 0.57865 0.80445 0.0
C1660 C 0.29907 0.59558 0.81088 0.0
C1661 C 0.29844 0.6038 0.83134 0.0
C1662 C 0.28576 0.5941 0.84539 0.0
C1663 C 0.2732 0.5772 0.8389 0.0
C1664 C 0.24069 0.57932 0.79605 0.0
C1665 C 0.24546 0.58601 0.77703 0.0
C1666 C 0.24272 0.60529 0.77389 0.0
C1667 C 0.23532 0.61825 0.78981 0.0
C1668 C 0.23095 0.61157 0.80897 0.0
C1669 C 0.23361 0.59226 0.81205 0.0
C1670 C 0.21298 0.54882 0.77724 0.0
C1671 C 0.21595 0.54661 0.75602 0.0
C1672 C 0.20529 0.55699 0.74396 0.0
C1673 C 0.19156 0.56976 0.753 0.0
C1674 C 0.18736 0.57047 0.77406 0.0
C1675 C 0.19792 0.56002 0.78606 0.0
C1676 C 0.2161 0.50756 0.78277 0.0
C1677 C 0.22363 0.49413 0.76749 0.0
C1678 C 0.21061 0.48081 0.75563 0.0
C1679 C 0.18982 0.48101 0.75855 0.0
C1680 C 0.18226 0.49403 0.77425 0.0
C1681 C 0.19532 0.50705 0.78644 0.0
C1682 C 0.32141 0.51464 0.86317 0.0
C1683 C 0.23203 0.63863 0.78646 0.0
H1684 H 0.1772 0.55991 0.3381 0.0
H1685 H 0.28594 0.38089 0.27618 0.0
H1686 H 0.25204 0.5532 0.25501 0.0
H1687 H 0.25581 0.58936 0.25945 0.0
H1688 H 0.31073 0.58884 0.29069 0.0
H1689 H 0.30705 0.55294 0.28568 0.0
H1690 H 0.22395 0.51598 0.27524 0.0
H1691 H 0.19959 0.53214 0.29817 0.0
H1692 H 0.24731 0.5581 0.33735 0.0
H1693 H 0.27148 0.54168 0.31438 0.0
H1694 H 0.23198 0.471 0.26823 0.0
H1695 H 0.20829 0.45437 0.29154 0.0
H1696 H 0.2431 0.48158 0.34245 0.0
H1697 H 0.26653 0.49823 0.31906 0.0
H1698 H 0.26728 0.45993 0.23325 0.0
H1699 H 0.26787 0.42421 0.2313 0.0
H1700 H 0.29035 0.4309 0.29209 0.0
H1701 H 0.28988 0.46661 0.29375 0.0
H1702 H 0.2936 0.49128 0.21088 0.0
H1703 H 0.31984 0.4761 0.18973 0.0
H1704 H 0.35099 0.46991 0.24391 0.0
H1705 H 0.32432 0.4845 0.26484 0.0
H1706 H 0.28065 0.5381 0.22215 0.0
H1707 H 0.3014 0.56305 0.20508 0.0
H1708 H 0.35266 0.55152 0.23712 0.0
H1709 H 0.33144 0.52728 0.2549 0.0
O1710 O 0.1871 0.55366 0.32925 0.0
O1711 O 0.21218 0.56672 0.34884 0.0
O1712 O 0.27415 0.39234 0.24527 0.0
O1713 O 0.28562 0.39496 0.27652 0.0
C1714 C 0.27764 0.52871 0.26697 0.0
C1715 C 0.26408 0.5177 0.27921 0.0
C1716 C 0.26439 0.49708 0.27818 0.0
C1717 C 0.2781 0.48747 0.26471 0.0
C1718 C 0.29149 0.49853 0.25222 0.0
C1719 C 0.29095 0.51908 0.25307 0.0
C1720 C 0.27931 0.55054 0.26999 0.0
C1721 C 0.26485 0.56099 0.2628 0.0
C1722 C 0.26702 0.5816 0.2654 0.0
C1723 C 0.28366 0.59203 0.27531 0.0
C1724 C 0.29798 0.58136 0.2826 0.0
C1725 C 0.29583 0.56084 0.27992 0.0
C1726 C 0.24946 0.52775 0.29312 0.0
C1727 C 0.22909 0.52517 0.28879 0.0
C1728 C 0.21522 0.53442 0.3019 0.0
C1729 C 0.2215 0.54644 0.31958 0.0
C1730 C 0.24197 0.54898 0.32385 0.0
C1731 C 0.25582 0.53968 0.31074 0.0
C1732 C 0.25088 0.48583 0.292 0.0
C1733 C 0.23454 0.47317 0.2844 0.0
C1734 C 0.22109 0.46368 0.29772 0.0
C1735 C 0.22378 0.46677 0.31885 0.0
C1736 C 0.24044 0.47916 0.32631 0.0
C1737 C 0.25389 0.48858 0.31299 0.0
C1738 C 0.27848 0.46582 0.26365 0.0
C1739 C 0.27237 0.45364 0.2461 0.0
C1740 C 0.2727 0.43325 0.24505 0.0
C1741 C 0.27913 0.42469 0.26157 0.0
C1742 C 0.28528 0.43699 0.27912 0.0
C1743 C 0.28498 0.45738 0.28013 0.0
C1744 C 0.30705 0.48886 0.23935 0.0
C1745 C 0.30607 0.48653 0.21811 0.0
C1746 C 0.32118 0.47802 0.20608 0.0
C1747 C 0.33762 0.47184 0.2151 0.0
C1748 C 0.33845 0.47423 0.23645 0.0
C1749 C 0.32327 0.4826 0.24844 0.0
C1750 C 0.30453 0.53096 0.2398 0.0
C1751 C 0.29646 0.54071 0.22515 0.0
C1752 C 0.30839 0.5549 0.21533 0.0
C1753 C 0.32868 0.55946 0.21988 0.0
C1754 C 0.33701 0.54863 0.23356 0.0
C1755 C 0.32499 0.53458 0.24354 0.0
C1756 C 0.20672 0.55625 0.33348 0.0
C1757 C 0.27945 0.40303 0.26055 0.0
H1758 H 0.6898 0.55967 0.17955 0.0
H1759 H 0.70872 0.37578 0.28092 0.0
H1760 H 0.77085 0.54769 0.25359 0.0
H1761 H 0.77072 0.5831 0.25129 0.0
H1762 H 0.72547 0.58621 0.29972 0.0
H1763 H 0.72596 0.5509 0.30216 0.0
H1764 H 0.74031 0.51573 0.22323 0.0
H1765 H 0.72268 0.5325 0.19996 0.0
H1766 H 0.68271 0.5518 0.2496 0.0
H1767 H 0.70033 0.53475 0.27262 0.0
H1768 H 0.73944 0.46746 0.23031 0.0
H1769 H 0.71719 0.44981 0.20453 0.0
H1770 H 0.66699 0.47605 0.23543 0.0
H1771 H 0.6892 0.49308 0.2617 0.0
H1772 H 0.76692 0.45688 0.2613 0.0
H1773 H 0.76192 0.42103 0.26079 0.0
H1774 H 0.70246 0.42547 0.28758 0.0
H1775 H 0.70775 0.46133 0.2882 0.0
H1776 H 0.79435 0.48983 0.28289 0.0
H1777 H 0.81513 0.47357 0.30371 0.0
H1778 H 0.7637 0.45977 0.34309 0.0
H1779 H 0.74303 0.47626 0.32217 0.0
H1780 H 0.7956 0.52929 0.28051 0.0
H1781 H 0.82129 0.54304 0.30451 0.0
H1782 H 0.777 0.54065 0.35401 0.0
H1783 H 0.75177 0.52588 0.32988 0.0
O1784 O 0.69654 0.55312 0.189 0.0
O1785 O 0.67648 0.56278 0.21507 0.0
O1786 O 0.7418 0.38845 0.26725 0.0
O1787 O 0.7111 0.38993 0.28096 0.0
C1788 C 0.74608 0.52502 0.27714 0.0
C1789 C 0.73244 0.51395 0.26359 0.0
C1790 C 0.72974 0.49317 0.26274 0.0
C1791 C 0.74084 0.48346 0.27537 0.0
C1792 C 0.75486 0.49453 0.28851 0.0
C1793 C 0.75736 0.51531 0.28947 0.0
C1794 C 0.74847 0.54681 0.27808 0.0
C1795 C 0.76131 0.55616 0.26403 0.0
C1796 C 0.76118 0.57632 0.26272 0.0
C1797 C 0.74796 0.58732 0.27522 0.0
C1798 C 0.73566 0.57802 0.28979 0.0
C1799 C 0.73604 0.55795 0.29131 0.0
C1800 C 0.72164 0.52413 0.24959 0.0
C1801 C 0.72773 0.52358 0.22901 0.0
C1802 C 0.71764 0.53318 0.21578 0.0
C1803 C 0.70131 0.54353 0.22293 0.0
C1804 C 0.69525 0.544 0.24361 0.0
C1805 C 0.70532 0.53434 0.2568 0.0
C1806 C 0.71595 0.48158 0.24787 0.0
C1807 C 0.72358 0.4691 0.23175 0.0
C1808 C 0.71089 0.45905 0.21706 0.0
C1809 C 0.69043 0.46162 0.21804 0.0
C1810 C 0.68274 0.47392 0.23432 0.0
C1811 C 0.69539 0.48366 0.24926 0.0
C1812 C 0.73773 0.46169 0.27488 0.0
C1813 C 0.75287 0.45008 0.26715 0.0
C1814 C 0.74995 0.42961 0.26682 0.0
C1815 C 0.73179 0.42038 0.27417 0.0
C1816 C 0.71662 0.43209 0.28182 0.0
C1817 C 0.71958 0.45257 0.28216 0.0
C1818 C 0.76725 0.48437 0.30114 0.0
C1819 C 0.78763 0.48344 0.29611 0.0
C1820 C 0.79946 0.47418 0.30803 0.0
C1821 C 0.79107 0.46548 0.3251 0.0
C1822 C 0.77055 0.46623 0.32995 0.0
C1823 C 0.75875 0.47566 0.31809 0.0
C1824 C 0.7719 0.52668 0.30351 0.0
C1825 C 0.79147 0.53204 0.29652 0.0
C1826 C 0.80611 0.5399 0.3103 0.0
C1827 C 0.80132 0.54282 0.3313 0.0
C1828 C 0.78138 0.53817 0.33805 0.0
C1829 C 0.76685 0.53004 0.32429 0.0
C1830 C 0.69065 0.55374 0.20884 0.0
C1831 C 0.72861 0.39863 0.27388 0.0
H1832 H 0.46382 0.40527 0.90844 0.0
H1833 H 0.64214 0.32946 0.78418 0.0
H1834 H 0.46589 0.31438 0.82902 0.0
H1835 H 0.43046 0.31662 0.8373 0.0
H1836 H 0.42818 0.35519 0.79049 0.0
H1837 H 0.46405 0.35313 0.78262 0.0
H1838 H 0.49814 0.34165 0.8564 0.0
H1839 H 0.48461 0.36507 0.88284 0.0
H1840 H 0.47476 0.40282 0.83716 0.0
H1841 H 0.48851 0.37935 0.81092 0.0
H1842 H 0.53826 0.32857 0.84685 0.0
H1843 H 0.56411 0.34549 0.86924 0.0
H1844 H 0.56491 0.39727 0.83768 0.0
H1845 H 0.53866 0.3803 0.81575 0.0
H1846 H 0.54849 0.29832 0.81202 0.0
H1847 H 0.58408 0.29351 0.80924 0.0
H1848 H 0.59656 0.34802 0.78209 0.0
H1849 H 0.56088 0.35248 0.78472 0.0
H1850 H 0.51563 0.27782 0.78852 0.0
H1851 H 0.53612 0.25425 0.76926 0.0
H1852 H 0.5599 0.29904 0.73137 0.0
H1853 H 0.53898 0.32234 0.75045 0.0
H1854 H 0.47852 0.28258 0.78786 0.0
H1855 H 0.45688 0.26332 0.7624 0.0
H1856 H 0.46316 0.3122 0.72624 0.0
H1857 H 0.48505 0.33126 0.75169 0.0
O1858 O 0.46919 0.39624 0.89776 0.0
O1859 O 0.46437 0.41508 0.87368 0.0
O1860 O 0.62075 0.30302 0.79937 0.0
O1861 O 0.62799 0.33102 0.78551 0.0
C1862 C 0.48934 0.33316 0.80183 0.0
C1863 C 0.50238 0.34459 0.81577 0.0
C1864 C 0.52294 0.34207 0.81468 0.0
C1865 C 0.53049 0.32827 0.7996 0.0
C1866 C 0.5175 0.31696 0.78557 0.0
C1867 C 0.49696 0.3196 0.7865 0.0
C1868 C 0.46744 0.33351 0.80519 0.0
C1869 C 0.45767 0.32312 0.8204 0.0
C1870 C 0.4374 0.32436 0.82502 0.0
C1871 C 0.42642 0.336 0.81447 0.0
C1872 C 0.43624 0.3462 0.79897 0.0
C1873 C 0.45663 0.34493 0.79434 0.0
C1874 C 0.49437 0.35888 0.8318 0.0
C1875 C 0.49316 0.35505 0.85218 0.0
C1876 C 0.48537 0.36842 0.86723 0.0
C1877 C 0.47861 0.38583 0.86212 0.0
C1878 C 0.47984 0.38957 0.84162 0.0
C1879 C 0.48767 0.3762 0.82661 0.0
C1880 C 0.53667 0.35324 0.82973 0.0
C1881 C 0.54381 0.34369 0.84507 0.0
C1882 C 0.55867 0.35333 0.85771 0.0
C1883 C 0.56672 0.37268 0.85515 0.0
C1884 C 0.55889 0.38246 0.84024 0.0
C1885 C 0.54396 0.37281 0.82765 0.0
C1886 C 0.55216 0.32568 0.79847 0.0
C1887 C 0.55895 0.30916 0.80543 0.0
C1888 C 0.57928 0.30648 0.80386 0.0
C1889 C 0.59317 0.32038 0.79541 0.0
C1890 C 0.58628 0.33703 0.78865 0.0
C1891 C 0.56593 0.33964 0.79016 0.0
C1892 C 0.52567 0.30171 0.77073 0.0
C1893 C 0.52464 0.28227 0.77552 0.0
C1894 C 0.53659 0.26893 0.76471 0.0
C1895 C 0.54981 0.27484 0.74895 0.0
C1896 C 0.54975 0.29396 0.74329 0.0
C1897 C 0.53778 0.30729 0.75413 0.0
C1898 C 0.48345 0.30818 0.77145 0.0
C1899 C 0.47528 0.28905 0.77438 0.0
C1900 C 0.46298 0.27811 0.75985 0.0
C1901 C 0.45846 0.28626 0.7423 0.0
C1902 C 0.46634 0.30562 0.73966 0.0
C1903 C 0.47885 0.31646 0.75409 0.0
C1904 C 0.47028 0.39998 0.87813 0.0
C1905 C 0.61477 0.31755 0.79359 0.0
H1906 H 0.48311 0.6599 0.85942 0.0
H1907 H 0.66903 0.77902 0.79067 0.0
H1908 H 0.49207 0.7152 0.76959 0.0
H1909 H 0.45548 0.71011 0.77107 0.0
H1910 H 0.45358 0.76915 0.80141 0.0
H1911 H 0.49014 0.77415 0.79951 0.0
H1912 H 0.52491 0.69853 0.79301 0.0
H1913 H 0.50882 0.67724 0.81753 0.0
H1914 H 0.49041 0.7285 0.855 0.0
H1915 H 0.50676 0.74961 0.83046 0.0
H1916 H 0.56882 0.70992 0.78156 0.0
H1917 H 0.58471 0.68976 0.80299 0.0
H1918 H 0.56985 0.72904 0.85613 0.0
H1919 H 0.55359 0.74873 0.83461 0.0
H1920 H 0.58269 0.74218 0.74879 0.0
H1921 H 0.61925 0.74761 0.74644 0.0
H1922 H 0.61944 0.77841 0.80724 0.0
H1923 H 0.58289 0.77306 0.8093 0.0
H1924 H 0.54824 0.75879 0.72695 0.0
H1925 H 0.56647 0.78038 0.70387 0.0
H1926 H 0.58649 0.82092 0.75553 0.0
H1927 H 0.5678 0.79946 0.77844 0.0
H1928 H 0.50211 0.74403 0.73838 0.0
H1929 H 0.47567 0.75878 0.72321 0.0
H1930 H 0.49419 0.8149 0.75693 0.0
H1931 H 0.52031 0.79991 0.77252 0.0
O1932 O 0.48931 0.66857 0.8499 0.0
O1933 O 0.48004 0.69537 0.8685 0.0
O1934 O 0.65368 0.76073 0.75998 0.0
O1935 O 0.65459 0.77666 0.79119 0.0
C1936 C 0.51582 0.74819 0.78307 0.0
C1937 C 0.52721 0.73853 0.79537 0.0
C1938 C 0.54829 0.74139 0.79396 0.0
C1939 C 0.55799 0.75416 0.78049 0.0
C1940 C 0.54653 0.76402 0.76829 0.0
C1941 C 0.52543 0.76083 0.76939 0.0
C1942 C 0.49367 0.74501 0.7845 0.0
C1943 C 0.48369 0.72698 0.77659 0.0
C1944 C 0.46282 0.72411 0.77746 0.0
C1945 C 0.45161 0.73924 0.78632 0.0
C1946 C 0.46174 0.75732 0.79418 0.0
C1947 C 0.4826 0.76016 0.79329 0.0
C1948 C 0.517 0.72558 0.81 0.0
C1949 C 0.51741 0.70511 0.80654 0.0
C1950 C 0.50819 0.693 0.82056 0.0
C1951 C 0.49834 0.70117 0.83824 0.0
C1952 C 0.49787 0.72172 0.84155 0.0
C1953 C 0.50714 0.73381 0.82754 0.0
C1954 C 0.56007 0.73072 0.80658 0.0
C1955 C 0.56927 0.71426 0.79781 0.0
C1956 C 0.57833 0.70279 0.81007 0.0
C1957 C 0.57835 0.70766 0.83131 0.0
C1958 C 0.56971 0.72462 0.8399 0.0
C1959 C 0.56061 0.73602 0.82764 0.0
C1960 C 0.58018 0.75722 0.77921 0.0
C1961 C 0.59067 0.75012 0.76156 0.0
C1962 C 0.61154 0.75322 0.76027 0.0
C1963 C 0.62228 0.76345 0.77666 0.0
C1964 C 0.61166 0.77047 0.79435 0.0
C1965 C 0.59079 0.76739 0.7956 0.0
C1966 C 0.55671 0.77759 0.75433 0.0
C1967 C 0.55641 0.77244 0.73323 0.0
C1968 C 0.56698 0.78468 0.72011 0.0
C1969 C 0.57801 0.8023 0.72789 0.0
C1970 C 0.57799 0.80755 0.74906 0.0
C1971 C 0.56742 0.79528 0.76216 0.0
C1972 C 0.51302 0.77086 0.75667 0.0
C1973 C 0.50075 0.75961 0.74214 0.0
C1974 C 0.48562 0.768 0.7336 0.0
C1975 C 0.48279 0.78789 0.73912 0.0
C1976 C 0.49612 0.79954 0.75241 0.0
C1977 C 0.51107 0.79104 0.76124 0.0
C1978 C 0.48865 0.68827 0.85316 0.0
C1979 C 0.64445 0.76682 0.77536 0.0
H1980 H 0.56423 0.69087 0.21023 0.0
H1981 H 0.39193 0.80461 0.28504 0.0
H1982 H 0.56063 0.75824 0.30233 0.0
H1983 H 0.59575 0.75246 0.29646 0.0
H1984 H 0.60842 0.80982 0.27519 0.0
H1985 H 0.57306 0.81507 0.28033 0.0
H1986 H 0.52451 0.73706 0.27702 0.0
H1987 H 0.53845 0.71295 0.25164 0.0
H1988 H 0.56856 0.76044 0.22061 0.0
H1989 H 0.55432 0.78438 0.24597 0.0
H1990 H 0.48099 0.74861 0.2865 0.0
H1991 H 0.45874 0.72896 0.26196 0.0
H1992 H 0.48586 0.76202 0.21426 0.0
H1993 H 0.50813 0.78152 0.23894 0.0
H1994 H 0.47465 0.78148 0.3244 0.0
H1995 H 0.43848 0.78336 0.32682 0.0
H1996 H 0.44181 0.80761 0.2692 0.0
H1997 H 0.47799 0.80588 0.2671 0.0
H1998 H 0.51286 0.8056 0.34903 0.0
H1999 H 0.49472 0.82649 0.37426 0.0
H2000 H 0.47478 0.85648 0.32619 0.0
H2001 H 0.494 0.83633 0.30131 0.0
H2002 H 0.55772 0.79572 0.33706 0.0
H2003 H 0.58241 0.81876 0.35598 0.0
H2004 H 0.56531 0.86614 0.3251 0.0
H2005 H 0.54127 0.84291 0.30578 0.0
O2006 O 0.55884 0.70066 0.22008 0.0
O2007 O 0.57411 0.7256 0.20477 0.0
O2008 O 0.40532 0.79136 0.31413 0.0
O2009 O 0.4062 0.80375 0.28449 0.0
C2010 C 0.54249 0.78921 0.2926 0.0
C2011 C 0.52989 0.77702 0.27878 0.0
C2012 C 0.50917 0.77879 0.27948 0.0
C2013 C 0.5009 0.79244 0.29426 0.0
C2014 C 0.51351 0.80496 0.30784 0.0
C2015 C 0.53436 0.80348 0.30687 0.0
C2016 C 0.56428 0.78703 0.29167 0.0
C2017 C 0.57106 0.76963 0.29662 0.0
C2018 C 0.59117 0.76642 0.29337 0.0
C2019 C 0.60492 0.78061 0.28521 0.0
C2020 C 0.59819 0.79843 0.28116 0.0
C2021 C 0.57804 0.80157 0.28429 0.0
C2022 C 0.53843 0.76244 0.26334 0.0
C2023 C 0.53407 0.74221 0.26469 0.0
C2024 C 0.54209 0.72848 0.25019 0.0
C2025 C 0.55464 0.73477 0.2341 0.0
C2026 C 0.55897 0.7551 0.23282 0.0
C2027 C 0.55089 0.7688 0.24729 0.0
C2028 C 0.4961 0.76649 0.26448 0.0
C2029 C 0.4821 0.75158 0.27075 0.0
C2030 C 0.46937 0.74046 0.25674 0.0
C2031 C 0.47048 0.74403 0.23619 0.0
C2032 C 0.48477 0.75881 0.22993 0.0
C2033 C 0.49744 0.76998 0.24398 0.0
C2034 C 0.47891 0.79352 0.29557 0.0
C2035 C 0.46753 0.78723 0.31235 0.0
C2036 C 0.44688 0.7883 0.31367 0.0
C2037 C 0.43724 0.79562 0.29818 0.0
C2038 C 0.44874 0.80188 0.28138 0.0
C2039 C 0.46939 0.80086 0.28011 0.0
C2040 C 0.50461 0.81931 0.32331 0.0
C2041 C 0.50495 0.817 0.34404 0.0
C2042 C 0.49434 0.8288 0.3584 0.0
C2043 C 0.48296 0.843 0.35228 0.0
C2044 C 0.48345 0.84585 0.33155 0.0
C2045 C 0.4943 0.83423 0.31724 0.0
C2046 C 0.54783 0.81763 0.31994 0.0
C2047 C 0.55927 0.81111 0.33451 0.0
C2048 C 0.57324 0.82431 0.3454 0.0
C2049 C 0.57594 0.84426 0.34192 0.0
C2050 C 0.56384 0.85082 0.32789 0.0
C2051 C 0.54998 0.83762 0.31696 0.0
C2052 C 0.56315 0.72014 0.21874 0.0
C2053 C 0.41531 0.79675 0.29949 0.0
H2054 H 0.53948 0.21415 0.39649 0.0
H2055 H 0.37495 0.25135 0.25562 0.0
H2056 H 0.54691 0.28019 0.31945 0.0
H2057 H 0.57654 0.26886 0.33241 0.0
H2058 H 0.5772 0.22357 0.28134 0.0
H2059 H 0.54792 0.23544 0.26825 0.0
H2060 H 0.50689 0.26252 0.34159 0.0
H2061 H 0.5185 0.24622 0.36914 0.0
H2062 H 0.53564 0.19877 0.32522 0.0
H2063 H 0.52369 0.21508 0.29788 0.0
H2064 H 0.46077 0.26724 0.32417 0.0
H2065 H 0.4363 0.24945 0.3459 0.0
H2066 H 0.45738 0.19439 0.32036 0.0
H2067 H 0.48121 0.21211 0.29804 0.0
H2068 H 0.46207 0.29473 0.29069 0.0
H2069 H 0.42689 0.29659 0.28413 0.0
H2070 H 0.42169 0.23545 0.25865 0.0
H2071 H 0.45696 0.23387 0.26511 0.0
H2072 H 0.49984 0.31321 0.27434 0.0
H2073 H 0.49108 0.3337 0.24878 0.0
H2074 H 0.47683 0.28133 0.20717 0.0
H2075 H 0.48546 0.26094 0.23291 0.0
H2076 H 0.54268 0.30548 0.28624 0.0
H2077 H 0.56515 0.32542 0.26468 0.0
H2078 H 0.55272 0.28173 0.21316 0.0
H2079 H 0.53005 0.26214 0.2348 0.0
O2080 O 0.53454 0.2201 0.38543 0.0
O2081 O 0.54331 0.19621 0.3622 0.0
O2082 O 0.39242 0.28246 0.27146 0.0
O2083 O 0.38892 0.25104 0.25831 0.0
C2084 C 0.5241 0.26067 0.28934 0.0
C2085 C 0.50893 0.25078 0.30103 0.0
C2086 C 0.48858 0.25177 0.29737 0.0
C2087 C 0.4834 0.26312 0.28229 0.0
C2088 C 0.4986 0.27334 0.27092 0.0
C2089 C 0.51897 0.27193 0.27429 0.0
C2090 C 0.54527 0.25857 0.29299 0.0
C2091 C 0.55402 0.26841 0.31061 0.0
C2092 C 0.57074 0.26169 0.31815 0.0
C2093 C 0.57889 0.24496 0.3082 0.0
C2094 C 0.57132 0.23648 0.28938 0.0
C2095 C 0.55464 0.2433 0.28179 0.0
C2096 C 0.51453 0.24001 0.31778 0.0
C2097 C 0.51296 0.2485 0.33801 0.0
C2098 C 0.51968 0.2392 0.35368 0.0
C2099 C 0.52811 0.22124 0.34937 0.0
C2100 C 0.52929 0.21261 0.32907 0.0
C2101 C 0.52249 0.22189 0.31343 0.0
C2102 C 0.47282 0.24098 0.30955 0.0
C2103 C 0.45984 0.25131 0.32298 0.0
C2104 C 0.44594 0.24118 0.33539 0.0
C2105 C 0.4451 0.2206 0.33482 0.0
C2106 C 0.45788 0.21027 0.32117 0.0
C2107 C 0.47147 0.22036 0.30846 0.0
C2108 C 0.46206 0.26419 0.27829 0.0
C2109 C 0.45333 0.2818 0.28358 0.0
C2110 C 0.43322 0.2828 0.27987 0.0
C2111 C 0.42147 0.26616 0.27085 0.0
C2112 C 0.4303 0.24853 0.26561 0.0
C2113 C 0.45043 0.24757 0.26929 0.0
C2114 C 0.49322 0.28564 0.25544 0.0
C2115 C 0.49478 0.3062 0.25971 0.0
C2116 C 0.48972 0.31784 0.24516 0.0
C2117 C 0.48328 0.30908 0.22602 0.0
C2118 C 0.48189 0.28845 0.22175 0.0
C2119 C 0.48671 0.27682 0.23641 0.0
C2120 C 0.53475 0.28243 0.26204 0.0
C2121 C 0.54514 0.30009 0.27038 0.0
C2122 C 0.55798 0.31142 0.25804 0.0
C2123 C 0.56059 0.30525 0.23714 0.0
C2124 C 0.55078 0.28707 0.2291 0.0
C2125 C 0.53796 0.27578 0.24145 0.0
C2126 C 0.53577 0.21169 0.36599 0.0
C2127 C 0.40008 0.26713 0.26692 0.0
C2128 C 0.25202 0.22072 0.20242 0.0
C2129 C 0.24091 0.20237 0.2039 0.0
H2130 H 0.26866 0.23993 0.18308 0.0
C2131 C 0.23926 0.18859 0.18645 0.0
H2132 H 0.25375 0.23162 0.21558 0.0
C2133 C 0.2477 0.19345 0.16774 0.0
C2134 C 0.25799 0.21217 0.16611 0.0
H2135 H 0.23078 0.17433 0.18706 0.0
H2136 H 0.24542 0.18286 0.1544 0.0
C2137 C 0.26047 0.22555 0.18376 0.0
C2138 C 0.81125 0.21797 0.13462 0.0
C2139 C 0.83161 0.2149 0.13356 0.0
H2140 H 0.78764 0.23004 0.12116 0.0
C2141 C 0.84393 0.22192 0.11767 0.0
H2142 H 0.8014 0.21268 0.14667 0.0
C2143 C 0.83611 0.23207 0.10329 0.0
C2144 C 0.81577 0.23507 0.10433 0.0
H2145 H 0.85969 0.21981 0.1165 0.0
H2146 H 0.84593 0.23743 0.09124 0.0
C2147 C 0.80336 0.22781 0.12002 0.0
C2148 C 0.86535 0.84761 0.12206 0.0
C2149 C 0.87502 0.83841 0.13616 0.0
H2150 H 0.84483 0.84395 0.0978 0.0
C2151 C 0.87262 0.81774 0.13511 0.0
H2152 H 0.86687 0.8635 0.12245 0.0
C2153 C 0.86008 0.80658 0.12093 0.0
C2154 C 0.84954 0.81588 0.10765 0.0
H2155 H 0.87989 0.81021 0.14573 0.0
H2156 H 0.85788 0.79074 0.12101 0.0
C2157 C 0.85263 0.83645 0.10804 0.0
C2158 C 0.20295 0.872 0.09713 0.0
C2159 C 0.20375 0.89034 0.08955 0.0
H2160 H 0.21558 0.84465 0.09613 0.0
C2161 C 0.21774 0.89462 0.07385 0.0
H2162 H 0.19242 0.86833 0.10934 0.0
C2163 C 0.23084 0.88093 0.06606 0.0
C2164 C 0.2304 0.86273 0.07395 0.0
H2165 H 0.21865 0.90859 0.06762 0.0
H2166 H 0.2413 0.88462 0.0538 0.0
C2167 C 0.21619 0.85839 0.08949 0.0
C2168 C 0.24647 0.88009 0.95311 0.0
C2169 C 0.23665 0.86911 0.93654 0.0
H2170 H 0.26287 0.87934 0.97999 0.0
C2171 C 0.23592 0.84846 0.93451 0.0
H2172 H 0.24731 0.89602 0.95504 0.0
C2173 C 0.24454 0.83897 0.94892 0.0
C2174 C 0.25435 0.84994 0.96545 0.0
H2175 H 0.22844 0.8396 0.92194 0.0
H2176 H 0.24368 0.82303 0.94706 0.0
C2177 C 0.25542 0.87058 0.96733 0.0
C2178 C 0.20902 0.18966 0.95762 0.0
C2179 C 0.20979 0.16917 0.9539 0.0
H2180 H 0.21969 0.21663 0.97512 0.0
C2181 C 0.22271 0.16023 0.96518 0.0
H2182 H 0.19925 0.19702 0.94919 0.0
C2183 C 0.23448 0.17152 0.97996 0.0
C2184 C 0.23343 0.19193 0.98387 0.0
H2185 H 0.22367 0.14449 0.96266 0.0
H2186 H 0.24407 0.16421 0.98866 0.0
C2187 C 0.22065 0.2009 0.97251 0.0
C2188 C 0.79442 0.23684 0.89338 0.0
C2189 C 0.80919 0.22381 0.89321 0.0
H2190 H 0.77835 0.25867 0.91101 0.0
C2191 C 0.82016 0.22391 0.91076 0.0
H2192 H 0.78572 0.23708 0.88009 0.0
C2193 C 0.81609 0.2364 0.92829 0.0
C2194 C 0.80083 0.24887 0.9287 0.0
H2195 H 0.83168 0.21411 0.91108 0.0
H2196 H 0.82438 0.23574 0.94179 0.0
C2197 C 0.79016 0.24914 0.91105 0.0
C2198 C 0.82185 0.83326 0.95305 0.0
C2199 C 0.8311 0.85227 0.95898 0.0
H2200 H 0.80894 0.80574 0.96247 0.0
C2201 C 0.83389 0.85822 0.9798 0.0
H2202 H 0.81949 0.82818 0.93716 0.0
C2203 C 0.82771 0.84534 0.99433 0.0
C2204 C 0.81896 0.82618 0.98828 0.0
H2205 H 0.84096 0.87277 0.98486 0.0
H2206 H 0.83015 0.85021 0.01026 0.0
C2207 C 0.81596 0.82033 0.96752 0.0
C2208 C 0.13653 0.22941 0.27812 0.0
C2209 C 0.14664 0.22919 0.25904 0.0
H2210 H 0.11071 0.23731 0.29615 0.0
C2211 C 0.13759 0.23618 0.24298 0.0
H2212 H 0.14309 0.2241 0.29079 0.0
C2213 C 0.11911 0.24374 0.24606 0.0
C2214 C 0.10919 0.24435 0.26523 0.0
H2215 H 0.14493 0.23616 0.22806 0.0
H2216 H 0.1126 0.2492 0.23345 0.0
C2217 C 0.11794 0.23686 0.28116 0.0
C2218 C 0.88001 0.11753 0.20157 0.0
C2219 C 0.87099 0.1261 0.18656 0.0
H2220 H 0.87638 0.09716 0.22389 0.0
C2221 C 0.85117 0.1193 0.18159 0.0
H2222 H 0.8953 0.1223 0.20566 0.0
C2223 C 0.8403 0.10491 0.19213 0.0
C2224 C 0.84904 0.0971 0.20784 0.0
H2225 H 0.8438 0.1256 0.17008 0.0
H2226 H 0.8248 0.10053 0.18856 0.0
C2227 C 0.86915 0.1032 0.21211 0.0
C2228 C 0.97062 0.83759 0.21903 0.0
C2229 C 0.95055 0.82937 0.21902 0.0
H2230 H 0.00079 0.83414 0.2261 0.0
C2231 C 0.94564 0.81073 0.2257 0.0
H2232 H 0.97482 0.85196 0.21401 0.0
C2233 C 0.96049 0.80048 0.23224 0.0
C2234 C 0.98048 0.80879 0.23253 0.0
H2235 H 0.93032 0.80401 0.22581 0.0
H2236 H 0.95627 0.7862 0.23749 0.0
C2237 C 0.98545 0.82746 0.22595 0.0
C2238 C 0.18311 0.93137 0.2018 0.0
C2239 C 0.19118 0.9383 0.1837 0.0
H2240 H 0.18692 0.93006 0.23351 0.0
C2241 C 0.20961 0.95004 0.18411 0.0
H2242 H 0.16857 0.92302 0.20222 0.0
C2243 C 0.2199 0.95452 0.20213 0.0
C2244 C 0.21203 0.94736 0.22022 0.0
H2245 H 0.21615 0.95574 0.17044 0.0
H2246 H 0.23385 0.96398 0.20194 0.0
C2247 C 0.19348 0.93573 0.21985 0.0
C2248 C 0.13261 0.89357 0.88078 0.0
C2249 C 0.14709 0.90415 0.86915 0.0
H2250 H 0.10434 0.87588 0.88117 0.0
C2251 C 0.14384 0.90487 0.84845 0.0
H2252 H 0.13467 0.89275 0.89677 0.0
C2253 C 0.12657 0.89521 0.83955 0.0
C2254 C 0.1121 0.88458 0.85111 0.0
H2255 H 0.1547 0.91282 0.83901 0.0
H2256 H 0.12473 0.89581 0.82348 0.0
C2257 C 0.1153 0.88384 0.87183 0.0
C2258 C 0.21283 0.08969 0.8483 0.0
C2259 C 0.21325 0.08699 0.86898 0.0
H2260 H 0.22537 0.08296 0.81823 0.0
C2261 C 0.227 0.07504 0.87516 0.0
H2262 H 0.20237 0.09879 0.8431 0.0
C2263 C 0.24036 0.06629 0.86099 0.0
C2264 C 0.23986 0.06898 0.84035 0.0
H2265 H 0.22771 0.07277 0.89102 0.0
H2266 H 0.25102 0.05735 0.86611 0.0
C2267 C 0.22589 0.08059 0.83408 0.0
C2268 C 0.89029 0.193 0.81721 0.0
C2269 C 0.87631 0.20578 0.81334 0.0
H2270 H 0.92123 0.18866 0.81853 0.0
C2271 C 0.88325 0.22417 0.80688 0.0
H2272 H 0.88541 0.17874 0.8222 0.0
C2273 C 0.90377 0.22988 0.80492 0.0
C2274 C 0.91772 0.21723 0.80914 0.0
H2275 H 0.87286 0.23435 0.80379 0.0
H2276 H 0.90874 0.24424 0.80018 0.0
C2277 C 0.91079 0.19863 0.81503 0.0
C2278 C 0.82215 0.95046 0.83012 0.0
C2279 C 0.81505 0.94436 0.84885 0.0
H2280 H 0.81542 0.9623 0.80322 0.0
C2281 C 0.79547 0.94735 0.85567 0.0
H2282 H 0.83721 0.94816 0.82451 0.0
C2283 C 0.78317 0.95641 0.84398 0.0
C2284 C 0.78987 0.96197 0.82473 0.0
H2285 H 0.78979 0.94299 0.87023 0.0
H2286 H 0.76842 0.95904 0.8502 0.0
C2287 C 0.80962 0.95882 0.81803 0.0
C2288 C 0.21105 0.10836 0.28181 0.0
C2289 C 0.22345 0.12604 0.28067 0.0
H2290 H 0.20859 0.07867 0.28936 0.0
C2291 C 0.24324 0.12736 0.28704 0.0
H2292 H 0.19573 0.10692 0.27706 0.0
C2293 C 0.25065 0.11111 0.29385 0.0
C2294 C 0.23826 0.09343 0.29484 0.0
H2295 H 0.25316 0.14079 0.28629 0.0
H2296 H 0.26608 0.1123 0.29823 0.0
C2297 C 0.21834 0.09226 0.28899 0.0
C2298 C 0.25156 0.96808 0.86754 0.0
C2299 C 0.24732 0.94758 0.86314 0.0
H2300 H 0.26486 0.99498 0.85705 0.0
C2301 C 0.25495 0.93828 0.84479 0.0
H2302 H 0.24593 0.97571 0.88153 0.0
C2303 C 0.26574 0.94935 0.83073 0.0
C2304 C 0.26929 0.96993 0.83481 0.0
H2305 H 0.25198 0.92251 0.84093 0.0
H2306 H 0.27101 0.94186 0.8165 0.0
C2307 C 0.26249 0.97912 0.85355 0.0
C2308 C 0.11855 0.17654 0.86035 0.0
C2309 C 0.11227 0.16876 0.87858 0.0
H2310 H 0.11131 0.19305 0.83677 0.0
C2311 C 0.09261 0.17053 0.88616 0.0
H2312 H 0.13364 0.17551 0.85415 0.0
C2313 C 0.0797 0.18041 0.87605 0.0
C2314 C 0.08621 0.18887 0.85822 0.0
H2315 H 0.08727 0.16459 0.9001 0.0
H2316 H 0.06466 0.18157 0.88232 0.0
C2317 C 0.1057 0.18655 0.85033 0.0
C2318 C 0.79659 0.10042 0.82612 0.0
C2319 C 0.79719 0.11635 0.81447 0.0
H2320 H 0.78747 0.06977 0.82794 0.0
C2321 C 0.78911 0.11315 0.79505 0.0
H2322 H 0.80267 0.1024 0.84116 0.0
C2323 C 0.78042 0.09451 0.78754 0.0
C2324 C 0.77956 0.07863 0.79928 0.0
H2325 H 0.78927 0.1251 0.7857 0.0
H2326 H 0.77395 0.09263 0.77268 0.0
C2327 C 0.78779 0.08176 0.81863 0.0
C2328 C 0.91143 0.8858 0.84038 0.0
C2329 C 0.89735 0.87295 0.85002 0.0
H2330 H 0.93937 0.88922 0.82366 0.0
C2331 C 0.8999 0.85278 0.84805 0.0
H2332 H 0.90993 0.90143 0.84163 0.0
C2333 C 0.91662 0.84573 0.83752 0.0
C2334 C 0.93131 0.85871 0.82886 0.0
H2335 H 0.8892 0.84243 0.85506 0.0
H2336 H 0.91825 0.83014 0.83657 0.0
C2337 C 0.92828 0.87876 0.82998 0.0
C2338 C 0.8598 0.92539 0.23718 0.0
C2339 C 0.85465 0.92111 0.2167 0.0
H2340 H 0.85261 0.94019 0.2665 0.0
C2341 C 0.83764 0.92843 0.21023 0.0
H2342 H 0.87277 0.91982 0.24262 0.0
C2343 C 0.82628 0.94018 0.22375 0.0
C2344 C 0.83144 0.94475 0.24423 0.0
H2345 H 0.83335 0.92554 0.19452 0.0
H2346 H 0.81388 0.94631 0.21785 0.0
C2347 C 0.84824 0.93704 0.25084 0.0
C2348 C 0.12761 0.84438 0.22363 0.0
C2349 C 0.11991 0.84907 0.20563 0.0
H2350 H 0.12322 0.82722 0.24881 0.0
C2351 C 0.10128 0.8397 0.19932 0.0
H2352 H 0.14193 0.85133 0.22891 0.0
C2353 C 0.09057 0.82595 0.21073 0.0
C2354 C 0.09822 0.82128 0.22874 0.0
H2355 H 0.09488 0.84301 0.18557 0.0
H2356 H 0.07613 0.81919 0.20558 0.0
C2357 C 0.11685 0.83065 0.23509 0.0
C2358 C 0.93115 0.23459 0.19843 0.0
C2359 C 0.91123 0.22958 0.20479 0.0
H2360 H 0.95963 0.24978 0.2062 0.0
C2361 C 0.9044 0.23776 0.22401 0.0
H2362 H 0.93692 0.22855 0.18374 0.0
C2363 C 0.91744 0.25006 0.23689 0.0
C2364 C 0.93753 0.25451 0.23076 0.0
H2365 H 0.88912 0.23424 0.22937 0.0
H2366 H 0.91188 0.25585 0.25175 0.0
C2367 C 0.94415 0.24689 0.21126 0.0
C2368 C 0.19251 0.71304 0.63778 0.0
C2369 C 0.19054 0.69294 0.64063 0.0
H2370 H 0.20663 0.73575 0.62093 0.0
C2371 C 0.20254 0.6803 0.6285 0.0
H2372 H 0.18369 0.72327 0.64697 0.0
C2373 C 0.2157 0.68752 0.61339 0.0
C2374 C 0.21709 0.7075 0.61013 0.0
H2375 H 0.20141 0.66475 0.63031 0.0
H2376 H 0.22426 0.67732 0.60382 0.0
C2377 C 0.20562 0.72021 0.62277 0.0
C2378 C 0.82062 0.7742 0.63843 0.0
C2379 C 0.82907 0.75642 0.63906 0.0
H2380 H 0.80668 0.79241 0.62021 0.0
C2381 C 0.82968 0.74313 0.62129 0.0
H2382 H 0.81997 0.78476 0.65186 0.0
C2383 C 0.82185 0.74741 0.60334 0.0
C2384 C 0.81344 0.76516 0.6027 0.0
H2385 H 0.83607 0.72932 0.62125 0.0
H2386 H 0.82268 0.73694 0.58984 0.0
C2387 C 0.81303 0.7786 0.62035 0.0
C2388 C 0.84503 0.33036 0.64129 0.0
C2389 C 0.85067 0.31982 0.65671 0.0
H2390 H 0.83033 0.32915 0.61314 0.0
C2391 C 0.84645 0.2992 0.65465 0.0
H2392 H 0.84805 0.34624 0.64236 0.0
C2393 C 0.83633 0.28942 0.63781 0.0
C2394 C 0.83007 0.30009 0.62284 0.0
H2395 H 0.85059 0.29065 0.66624 0.0
H2396 H 0.83284 0.27359 0.63684 0.0
C2397 C 0.83475 0.32061 0.62461 0.0
C2398 C 0.18215 0.37241 0.63041 0.0
C2399 C 0.18291 0.3914 0.62428 0.0
H2400 H 0.19511 0.34503 0.62747 0.0
C2401 C 0.19861 0.3977 0.61104 0.0
H2402 H 0.17034 0.36718 0.64076 0.0
C2403 C 0.21276 0.38504 0.60346 0.0
C2404 C 0.21161 0.36577 0.60895 0.0
H2405 H 0.19967 0.41224 0.60604 0.0
H2406 H 0.22406 0.39011 0.59253 0.0
C2407 C 0.19635 0.35972 0.62282 0.0
C2408 C 0.17829 0.34897 0.42332 0.0
C2409 C 0.1716 0.36755 0.42926 0.0
H2410 H 0.1963 0.32695 0.4304 0.0
C2411 C 0.178 0.37812 0.44765 0.0
H2412 H 0.17367 0.34047 0.4092 0.0
C2413 C 0.19094 0.37038 0.45976 0.0
C2414 C 0.19776 0.35188 0.45377 0.0
H2415 H 0.17311 0.39246 0.45269 0.0
H2416 H 0.19545 0.37882 0.47395 0.0
C2417 C 0.1912 0.34119 0.43547 0.0
C2418 C 0.28414 0.71273 0.3896 0.0
C2419 C 0.27094 0.71969 0.37696 0.0
H2420 H 0.29112 0.70857 0.4198 0.0
C2421 C 0.25352 0.72718 0.38578 0.0
H2422 H 0.29775 0.70691 0.38334 0.0
C2423 C 0.24948 0.72779 0.40678 0.0
C2424 C 0.26287 0.72108 0.41945 0.0
H2425 H 0.24329 0.73318 0.3767 0.0
H2426 H 0.236 0.73378 0.41312 0.0
C2427 C 0.28019 0.71343 0.41053 0.0
C2428 C 0.85818 0.67722 0.41289 0.0
C2429 C 0.87013 0.66657 0.4235 0.0
H2430 H 0.84037 0.70137 0.41424 0.0
C2431 C 0.87396 0.67302 0.44401 0.0
H2432 H 0.85496 0.67268 0.39706 0.0
C2433 C 0.86572 0.68962 0.45377 0.0
C2434 C 0.85332 0.69986 0.44325 0.0
H2435 H 0.88317 0.66517 0.45257 0.0
H2436 H 0.86854 0.6941 0.4697 0.0
C2437 C 0.84977 0.69362 0.4227 0.0
C2438 C 0.83255 0.34811 0.47441 0.0
C2439 C 0.85322 0.34935 0.46982 0.0
H2440 H 0.80807 0.33529 0.49188 0.0
C2441 C 0.86546 0.33993 0.48142 0.0
H2442 H 0.82269 0.35519 0.46579 0.0
C2443 C 0.85707 0.32858 0.49649 0.0
C2444 C 0.83628 0.32651 0.50035 0.0
H2445 H 0.88146 0.34068 0.47836 0.0
H2446 H 0.86678 0.32096 0.50472 0.0
C2447 C 0.82418 0.3368 0.4895 0.0
C2448 C 0.08744 0.72757 0.72891 0.0
C2449 C 0.08848 0.72615 0.70755 0.0
H2450 H 0.07575 0.74208 0.75659 0.0
C2451 C 0.07672 0.7376 0.69767 0.0
H2452 H 0.09632 0.71899 0.73701 0.0
C2453 C 0.06482 0.75077 0.7089 0.0
C2454 C 0.06439 0.75277 0.73027 0.0
H2455 H 0.07706 0.73679 0.68123 0.0
H2456 H 0.05621 0.75963 0.70084 0.0
C2457 C 0.07554 0.74074 0.74014 0.0
C2458 C 0.84691 0.64582 0.70039 0.0
C2459 C 0.83493 0.66152 0.70387 0.0
H2460 H 0.85075 0.61633 0.70578 0.0
C2461 C 0.81642 0.65865 0.71442 0.0
H2462 H 0.86124 0.6475 0.69226 0.0
C2463 C 0.81042 0.64075 0.72211 0.0
C2464 C 0.82287 0.62542 0.71949 0.0
H2465 H 0.80683 0.67043 0.71732 0.0
H2466 H 0.79644 0.63923 0.73087 0.0
C2467 C 0.84098 0.62799 0.70822 0.0
C2468 C 0.91903 0.29307 0.75086 0.0
C2469 C 0.92203 0.31209 0.7447 0.0
H2470 H 0.93206 0.27004 0.76304 0.0
C2471 C 0.94116 0.32255 0.74611 0.0
H2472 H 0.90448 0.28464 0.74994 0.0
C2473 C 0.95689 0.31425 0.75384 0.0
C2474 C 0.95386 0.29522 0.75991 0.0
H2475 H 0.9439 0.33726 0.74153 0.0
H2476 H 0.97146 0.32265 0.75495 0.0
C2477 C 0.93482 0.28467 0.75824 0.0
C2478 C 0.15337 0.46852 0.71636 0.0
C2479 C 0.1554 0.44848 0.71073 0.0
H2480 H 0.16241 0.49442 0.7364 0.0
C2481 C 0.16723 0.43867 0.72233 0.0
H2482 H 0.1444 0.47642 0.70759 0.0
C2483 C 0.1778 0.44904 0.73857 0.0
C2484 C 0.17635 0.46926 0.7437 0.0
H2485 H 0.16935 0.42331 0.71806 0.0
H2486 H 0.18765 0.44145 0.74669 0.0
C2487 C 0.16358 0.47878 0.73286 0.0
C2488 C 0.07521 0.40442 0.35812 0.0
C2489 C 0.07931 0.40443 0.3787 0.0
H2490 H 0.05957 0.38999 0.33253 0.0
C2491 C 0.06785 0.391 0.39016 0.0
H2492 H 0.08375 0.41457 0.34883 0.0
C2493 C 0.05342 0.37706 0.38085 0.0
C2494 C 0.0504 0.37608 0.35984 0.0
H2495 H 0.07052 0.3908 0.40613 0.0
H2496 H 0.04518 0.3666 0.38998 0.0
C2497 C 0.06109 0.39035 0.34877 0.0
C2498 C 0.30758 0.64483 0.28226 0.0
C2499 C 0.29108 0.65522 0.28845 0.0
H2500 H 0.31811 0.61687 0.27259 0.0
C2501 C 0.27189 0.64488 0.2889 0.0
H2502 H 0.32253 0.65241 0.28154 0.0
C2503 C 0.26938 0.62442 0.2841 0.0
C2504 C 0.28599 0.61391 0.27859 0.0
H2505 H 0.25887 0.65248 0.29365 0.0
H2506 H 0.25451 0.61679 0.28546 0.0
C2507 C 0.30505 0.62443 0.27726 0.0
C2508 C 0.95878 0.6605 0.35779 0.0
C2509 C 0.94355 0.65058 0.3455 0.0
H2510 H 0.98477 0.68154 0.35963 0.0
C2511 C 0.94378 0.65347 0.32483 0.0
H2512 H 0.95896 0.65861 0.37379 0.0
C2513 C 0.95867 0.66642 0.31673 0.0
C2514 C 0.97339 0.67692 0.32922 0.0
H2515 H 0.93225 0.64601 0.315 0.0
H2516 H 0.95824 0.66878 0.30087 0.0
C2517 C 0.97347 0.67368 0.34975 0.0
C2518 C 0.83511 0.45466 0.35419 0.0
C2519 C 0.8284 0.43612 0.36039 0.0
H2520 H 0.82852 0.47853 0.33836 0.0
C2521 C 0.80912 0.4275 0.3553 0.0
H2522 H 0.84986 0.46175 0.35791 0.0
C2523 C 0.79689 0.43714 0.34409 0.0
C2524 C 0.80373 0.45554 0.33763 0.0
H2525 H 0.80349 0.41324 0.35985 0.0
H2526 H 0.78223 0.42999 0.34011 0.0
C2527 C 0.82293 0.46424 0.3429 0.0
C2528 C 0.16939 0.59135 0.70983 0.0
C2529 C 0.16958 0.61131 0.71764 0.0
H2530 H 0.17603 0.56249 0.71492 0.0
C2531 C 0.1766 0.6173 0.73727 0.0
H2532 H 0.16406 0.58624 0.69476 0.0
C2533 C 0.18336 0.60371 0.74878 0.0
C2534 C 0.1833 0.58378 0.74096 0.0
H2535 H 0.177 0.63255 0.74374 0.0
H2536 H 0.18908 0.60893 0.76368 0.0
C2537 C 0.17627 0.57774 0.72134 0.0
C2538 C 0.18704 0.42897 0.34193 0.0
C2539 C 0.18067 0.43974 0.36002 0.0
H2540 H 0.20579 0.42898 0.3149 0.0
C2541 C 0.18875 0.4594 0.36456 0.0
H2542 H 0.18117 0.41377 0.33798 0.0
C2543 C 0.2028 0.46813 0.35124 0.0
C2544 C 0.20907 0.45739 0.33311 0.0
H2545 H 0.18411 0.46813 0.37832 0.0
H2546 H 0.2085 0.48342 0.35499 0.0
C2547 C 0.20107 0.43771 0.32863 0.0
C2548 C 0.16438 0.73122 0.31781 0.0
C2549 C 0.17691 0.74729 0.32676 0.0
H2550 H 0.13672 0.7214 0.30337 0.0
C2551 C 0.17082 0.76633 0.32765 0.0
H2552 H 0.16863 0.71637 0.31684 0.0
C2553 C 0.15251 0.76919 0.31992 0.0
C2554 C 0.14006 0.7531 0.31093 0.0
H2555 H 0.18015 0.77902 0.33442 0.0
H2556 H 0.14813 0.78399 0.32087 0.0
C2557 C 0.14619 0.73411 0.30991 0.0
C2558 C 0.83073 0.55158 0.37973 0.0
C2559 C 0.84602 0.56602 0.37484 0.0
H2560 H 0.80506 0.53248 0.36968 0.0
C2561 C 0.84704 0.57219 0.35528 0.0
H2562 H 0.82964 0.54647 0.39465 0.0
C2563 C 0.83265 0.56461 0.34115 0.0
C2564 C 0.81705 0.55044 0.34612 0.0
H2565 H 0.85854 0.58346 0.35111 0.0
H2566 H 0.83346 0.57033 0.32654 0.0
C2567 C 0.81652 0.54375 0.36547 0.0
C2568 C 0.9066 0.33907 0.35787 0.0
C2569 C 0.90596 0.35942 0.35764 0.0
H2570 H 0.92138 0.31364 0.34714 0.0
C2571 C 0.91967 0.36959 0.34487 0.0
H2572 H 0.89611 0.33071 0.36732 0.0
C2573 C 0.93434 0.35976 0.33337 0.0
C2574 C 0.93551 0.33958 0.33439 0.0
H2575 H 0.91956 0.38527 0.34434 0.0
H2576 H 0.94526 0.36814 0.32438 0.0
C2577 C 0.92115 0.32927 0.34636 0.0
C2578 C 0.85531 0.42925 0.74656 0.0
C2579 C 0.84158 0.41309 0.74004 0.0
H2580 H 0.85949 0.45974 0.75846 0.0
C2581 C 0.821 0.41512 0.74227 0.0
H2582 H 0.87126 0.42814 0.74511 0.0
C2583 C 0.81432 0.43317 0.74982 0.0
C2584 C 0.82804 0.44956 0.75547 0.0
H2585 H 0.81001 0.40294 0.73753 0.0
H2586 H 0.79838 0.43444 0.75087 0.0
C2587 C 0.84859 0.44731 0.75428 0.0
C2588 C 0.10073 0.34322 0.74394 0.0
C2589 C 0.09654 0.36265 0.75027 0.0
H2590 H 0.0931 0.31255 0.74673 0.0
C2591 C 0.08099 0.36585 0.76483 0.0
H2592 H 0.11259 0.34023 0.73273 0.0
C2593 C 0.06984 0.34998 0.77284 0.0
C2594 C 0.07389 0.33056 0.76632 0.0
H2595 H 0.07737 0.38063 0.77001 0.0
H2596 H 0.05785 0.35288 0.78393 0.0
C2597 C 0.08947 0.32734 0.75182 0.0
C2598 C 0.93347 0.75285 0.71709 0.0
C2599 C 0.91684 0.76272 0.71383 0.0
H2600 H 0.96197 0.75453 0.73063 0.0
C2601 C 0.91705 0.78282 0.72103 0.0
H2602 H 0.93383 0.73738 0.71178 0.0
C2603 C 0.9333 0.79266 0.73175 0.0
C2604 C 0.94949 0.78252 0.7357 0.0
H2605 H 0.90448 0.79084 0.71877 0.0
H2606 H 0.93288 0.80801 0.73757 0.0
C2607 C 0.94955 0.76261 0.72801 0.0
C2608 C 0.71061 0.23659 0.6671 0.0
C2609 C 0.70784 0.21662 0.67036 0.0
H2610 H 0.72437 0.2582 0.64865 0.0
C2611 C 0.71837 0.20308 0.65768 0.0
H2612 H 0.70293 0.24746 0.67675 0.0
C2613 C 0.73052 0.20922 0.64138 0.0
C2614 C 0.73247 0.22906 0.63753 0.0
H2615 H 0.71656 0.18758 0.65979 0.0
H2616 H 0.73757 0.19826 0.63125 0.0
C2617 C 0.72285 0.24275 0.65094 0.0
C2618 C 0.33947 0.25827 0.60454 0.0
C2619 C 0.33219 0.25454 0.62411 0.0
H2620 H 0.33441 0.27052 0.57721 0.0
C2621 C 0.31377 0.26109 0.63127 0.0
H2622 H 0.35357 0.25338 0.59853 0.0
C2623 C 0.3028 0.27101 0.61905 0.0
C2624 C 0.31006 0.27467 0.59944 0.0
H2625 H 0.30774 0.25848 0.64629 0.0
H2626 H 0.2887 0.27594 0.62501 0.0
C2627 C 0.32854 0.26822 0.59236 0.0
C2628 C 0.31427 0.78937 0.65912 0.0
C2629 C 0.33451 0.79708 0.65876 0.0
H2630 H 0.28967 0.77465 0.64207 0.0
C2631 C 0.34574 0.79494 0.64034 0.0
H2632 H 0.30518 0.7907 0.67306 0.0
C2633 C 0.3368 0.78584 0.62257 0.0
C2634 C 0.31641 0.77865 0.62279 0.0
H2635 H 0.36134 0.80075 0.6395 0.0
H2636 H 0.34573 0.78502 0.6085 0.0
C2637 C 0.30532 0.78028 0.64133 0.0
C2638 C 0.69616 0.84364 0.56144 0.0
C2639 C 0.69663 0.86166 0.55326 0.0
H2640 H 0.71089 0.81791 0.56356 0.0
C2641 C 0.71285 0.8674 0.54037 0.0
H2642 H 0.68394 0.83888 0.57158 0.0
C2643 C 0.72818 0.85528 0.53557 0.0
C2644 C 0.72776 0.83722 0.54374 0.0
H2645 H 0.7136 0.88117 0.53376 0.0
H2646 H 0.74016 0.85991 0.52512 0.0
C2647 C 0.71159 0.83159 0.5568 0.0
C2648 C 0.7214 0.83362 0.4169 0.0
C2649 C 0.71916 0.85358 0.42296 0.0
H2650 H 0.73397 0.80776 0.42335 0.0
C2651 C 0.72847 0.86289 0.44062 0.0
H2652 H 0.7144 0.82602 0.40339 0.0
C2653 C 0.73983 0.85246 0.45193 0.0
C2654 C 0.74183 0.83245 0.44598 0.0
H2655 H 0.72704 0.87826 0.44567 0.0
H2656 H 0.7468 0.85994 0.46552 0.0
C2657 C 0.7325 0.82314 0.42837 0.0
C2658 C 0.69503 0.17863 0.43617 0.0
C2659 C 0.696 0.18874 0.4188 0.0
H2660 H 0.70449 0.17858 0.46664 0.0
C2661 C 0.70815 0.20672 0.41887 0.0
H2662 H 0.68584 0.16472 0.43659 0.0
C2663 C 0.7187 0.21465 0.43606 0.0
C2664 C 0.71748 0.20471 0.45351 0.0
H2665 H 0.70929 0.21489 0.40575 0.0
H2666 H 0.72785 0.22859 0.4357 0.0
C2667 C 0.70575 0.18649 0.45333 0.0
C2668 C 0.34034 0.22631 0.46524 0.0
C2669 C 0.3409 0.20922 0.47489 0.0
H2670 H 0.32992 0.25471 0.46652 0.0
C2671 C 0.33288 0.20886 0.49486 0.0
H2672 H 0.34635 0.22711 0.44986 0.0
C2673 C 0.32365 0.22488 0.50456 0.0
C2674 C 0.32214 0.24155 0.49447 0.0
H2675 H 0.33321 0.19598 0.50279 0.0
H2676 H 0.3173 0.22401 0.51981 0.0
C2677 C 0.331 0.24224 0.47487 0.0
C2678 C 0.35302 0.85115 0.49636 0.0
C2679 C 0.37391 0.85165 0.49703 0.0
H2680 H 0.3245 0.83679 0.50467 0.0
C2681 C 0.38197 0.83899 0.50897 0.0
H2682 H 0.34631 0.8607 0.48733 0.0
C2683 C 0.36944 0.82533 0.51902 0.0
C2684 C 0.34859 0.82411 0.51743 0.0
H2685 H 0.398 0.83907 0.50994 0.0
H2686 H 0.3761 0.81532 0.52754 0.0
C2687 C 0.3405 0.83753 0.50644 0.0
C2688 C 0.58593 0.25025 0.71095 0.0
C2689 C 0.59708 0.24084 0.72365 0.0
H2690 H 0.56206 0.26813 0.7089 0.0
C2691 C 0.59155 0.24149 0.74443 0.0
H2692 H 0.58972 0.24996 0.69484 0.0
C2693 C 0.57573 0.25194 0.75246 0.0
C2694 C 0.56505 0.26195 0.73989 0.0
H2695 H 0.59982 0.23443 0.75464 0.0
H2696 H 0.57241 0.25283 0.76869 0.0
C2697 C 0.57012 0.26072 0.71899 0.0
C2698 C 0.33256 0.14403 0.69135 0.0
C2699 C 0.35106 0.14623 0.68065 0.0
H2700 H 0.3123 0.12561 0.70859 0.0
C2701 C 0.36269 0.13024 0.67769 0.0
H2702 H 0.32323 0.15604 0.69387 0.0
C2703 C 0.35643 0.1128 0.68616 0.0
C2704 C 0.33834 0.11093 0.6976 0.0
H2705 H 0.377 0.13143 0.66947 0.0
H2706 H 0.36592 0.10091 0.68409 0.0
C2707 C 0.32625 0.12655 0.6997 0.0
C2708 C 0.44963 0.82148 0.71811 0.0
C2709 C 0.4305 0.81157 0.72117 0.0
H2710 H 0.48125 0.82182 0.72156 0.0
C2711 C 0.42882 0.79372 0.72985 0.0
H2712 H 0.4514 0.8353 0.71152 0.0
C2713 C 0.44587 0.78593 0.7353 0.0
C2714 C 0.46495 0.79594 0.73245 0.0
H2715 H 0.41431 0.78573 0.73242 0.0
H2716 H 0.4441 0.77224 0.74215 0.0
C2717 C 0.46669 0.81383 0.72388 0.0
C2718 C 0.65575 0.92868 0.64727 0.0
C2719 C 0.66033 0.90994 0.63878 0.0
H2720 H 0.65914 0.95117 0.67252 0.0
C2721 C 0.67133 0.89895 0.64999 0.0
H2722 H 0.6474 0.93748 0.63885 0.0
C2723 C 0.67821 0.90684 0.6691 0.0
C2724 C 0.67396 0.92573 0.67742 0.0
H2725 H 0.67551 0.88468 0.64356 0.0
H2726 H 0.6873 0.89842 0.67717 0.0
C2727 C 0.66233 0.93643 0.66654 0.0
C2728 C 0.61185 0.87021 0.38151 0.0
C2729 C 0.62371 0.88341 0.3701 0.0
H2730 H 0.58726 0.84757 0.38164 0.0
C2731 C 0.61947 0.88385 0.3496 0.0
H2732 H 0.61474 0.86953 0.39735 0.0
C2733 C 0.60389 0.87128 0.34063 0.0
C2734 C 0.59208 0.85796 0.35192 0.0
H2735 H 0.62834 0.89377 0.34032 0.0
H2736 H 0.60138 0.87173 0.32466 0.0
C2737 C 0.5962 0.85757 0.37249 0.0
C2738 C 0.69495 0.10928 0.32331 0.0
C2739 C 0.68543 0.10646 0.34225 0.0
H2740 H 0.71501 0.09854 0.29957 0.0
C2741 C 0.6886 0.08972 0.35155 0.0
H2742 H 0.69282 0.12203 0.31577 0.0
C2743 C 0.70146 0.07634 0.34233 0.0
C2744 C 0.71109 0.0793 0.32349 0.0
H2745 H 0.68152 0.08719 0.36618 0.0
H2746 H 0.70394 0.06373 0.34993 0.0
C2747 C 0.70755 0.09578 0.31398 0.0
C2748 C 0.42616 0.18815 0.37551 0.0
C2749 C 0.40569 0.19072 0.37694 0.0
H2750 H 0.45463 0.19545 0.36078 0.0
C2751 C 0.39817 0.20287 0.36407 0.0
H2752 H 0.43237 0.17886 0.38521 0.0
C2753 C 0.41097 0.2126 0.35036 0.0
C2754 C 0.43141 0.21001 0.34897 0.0
H2755 H 0.38247 0.2052 0.3649 0.0
H2756 H 0.40489 0.22209 0.34078 0.0
C2757 C 0.43887 0.19756 0.36151 0.0
C2758 C 0.36555 0.95199 0.37406 0.0
C2759 C 0.359 0.94401 0.39206 0.0
H2760 H 0.35769 0.96498 0.34827 0.0
C2761 C 0.33886 0.94423 0.39849 0.0
H2762 H 0.381 0.95181 0.36867 0.0
C2763 C 0.32554 0.9526 0.38728 0.0
C2764 C 0.3319 0.96037 0.36897 0.0
H2765 H 0.3335 0.93834 0.41246 0.0
H2766 H 0.31033 0.95313 0.39323 0.0
C2767 C 0.35213 0.95975 0.36248 0.0
C2768 C 0.6844 0.10687 0.71551 0.0
C2769 C 0.68753 0.12392 0.72938 0.0
H2770 H 0.68835 0.07628 0.70858 0.0
C2771 C 0.69741 0.12287 0.74741 0.0
H2772 H 0.67685 0.10717 0.70149 0.0
C2773 C 0.70395 0.10511 0.7515 0.0
C2774 C 0.70094 0.08813 0.73752 0.0
H2775 H 0.70005 0.13575 0.75841 0.0
H2776 H 0.71156 0.10472 0.76547 0.0
C2777 C 0.69111 0.0892 0.7195 0.0
C2778 C 0.72331 0.93461 0.34291 0.0
C2779 C 0.71807 0.94097 0.36323 0.0
H2780 H 0.73726 0.94248 0.31482 0.0
C2781 C 0.72399 0.96054 0.37106 0.0
H2782 H 0.71892 0.91965 0.33639 0.0
C2783 C 0.73468 0.97354 0.35872 0.0
C2784 C 0.73932 0.96729 0.33825 0.0
H2785 H 0.72019 0.96587 0.38666 0.0
H2786 H 0.73884 0.98862 0.36501 0.0
C2787 C 0.73368 0.94768 0.33051 0.0
C2788 C 0.62225 0.21625 0.3175 0.0
C2789 C 0.61962 0.21464 0.33846 0.0
H2790 H 0.61177 0.22752 0.29153 0.0
C2791 C 0.60376 0.22328 0.34932 0.0
H2792 H 0.6344 0.20982 0.30874 0.0
C2793 C 0.5908 0.23328 0.33948 0.0
C2794 C 0.59346 0.23508 0.31856 0.0
H2795 H 0.60121 0.2222 0.36544 0.0
H2796 H 0.57841 0.23927 0.34825 0.0
C2797 C 0.60931 0.22639 0.30765 0.0
C2798 C 0.3216 0.10824 0.38261 0.0
C2799 C 0.32834 0.10555 0.40175 0.0
H2800 H 0.30871 0.0947 0.35487 0.0
C2801 C 0.32759 0.08634 0.4073 0.0
H2802 H 0.32199 0.12284 0.37787 0.0
C2803 C 0.31986 0.07018 0.39411 0.0
C2804 C 0.31301 0.07294 0.37504 0.0
H2805 H 0.33263 0.0838 0.42197 0.0
H2806 H 0.3193 0.05554 0.39879 0.0
C2807 C 0.3141 0.09211 0.36938 0.0
C2808 C 0.44632 0.85413 0.39646 0.0
C2809 C 0.44305 0.87371 0.39468 0.0
H2810 H 0.46097 0.82906 0.38435 0.0
C2811 C 0.45337 0.88335 0.37911 0.0
H2812 H 0.43851 0.8462 0.40818 0.0
C2813 C 0.46664 0.87359 0.3656 0.0
C2814 C 0.46972 0.85389 0.36723 0.0
H2815 H 0.45129 0.89848 0.37741 0.0
H2816 H 0.47452 0.88152 0.35392 0.0
C2817 C 0.45938 0.84433 0.38286 0.0
C2818 C 0.34496 0.91017 0.71313 0.0
C2819 C 0.34358 0.89655 0.72754 0.0
H2820 H 0.34176 0.93961 0.70728 0.0
C2821 C 0.33874 0.90299 0.74795 0.0
H2822 H 0.34877 0.90577 0.6973 0.0
C2823 C 0.3347 0.92247 0.75367 0.0
C2824 C 0.33531 0.93582 0.73905 0.0
H2825 H 0.33759 0.89287 0.75943 0.0
H2826 H 0.33043 0.9269 0.76937 0.0
C2827 C 0.34083 0.92955 0.71881 0.0
C2828 C 0.60041 0.84758 0.70384 0.0
C2829 C 0.61137 0.8392 0.68705 0.0
H2830 H 0.5811 0.8425 0.72976 0.0
C2831 C 0.61157 0.81863 0.68402 0.0
H2832 H 0.59991 0.86337 0.7066 0.0
C2833 C 0.60083 0.80669 0.69732 0.0
C2834 C 0.58966 0.81505 0.71397 0.0
H2835 H 0.61991 0.8117 0.67127 0.0
H2836 H 0.60137 0.7909 0.69464 0.0
C2837 C 0.58968 0.83563 0.71717 0.0
C2838 C 0.43697 0.24338 0.70603 0.0
C2839 C 0.42055 0.25097 0.69851 0.0
H2840 H 0.46173 0.24859 0.72575 0.0
C2841 C 0.41719 0.27063 0.70487 0.0
H2842 H 0.44002 0.22831 0.70148 0.0
C2843 C 0.42975 0.28229 0.71877 0.0
C2844 C 0.44574 0.27441 0.72674 0.0
H2845 H 0.40468 0.27693 0.69936 0.0
H2846 H 0.42663 0.29727 0.72373 0.0
C2847 C 0.44934 0.25493 0.72006 0.0
C2848 C 0.76047 0.75694 0.19234 0.0
C2849 C 0.75864 0.73751 0.19744 0.0
H2850 H 0.76731 0.77611 0.16915 0.0
C2851 C 0.76389 0.72237 0.18263 0.0
H2852 H 0.75676 0.76901 0.20342 0.0
C2853 C 0.76983 0.72646 0.16288 0.0
C2854 C 0.7707 0.74577 0.15755 0.0
H2855 H 0.76265 0.70724 0.18604 0.0
H2856 H 0.77281 0.71434 0.15155 0.0
C2857 C 0.76646 0.76102 0.17267 0.0
C2858 C 0.36783 0.70363 0.08837 0.0
C2859 C 0.36666 0.7044 0.10969 0.0
H2860 H 0.35838 0.71509 0.06202 0.0
C2861 C 0.35487 0.71783 0.12092 0.0
H2862 H 0.37676 0.69339 0.07933 0.0
C2863 C 0.34469 0.73047 0.11104 0.0
C2864 C 0.34576 0.72955 0.08975 0.0
H2865 H 0.35377 0.7188 0.13738 0.0
H2866 H 0.33584 0.74085 0.12 0.0
C2867 C 0.35728 0.71595 0.07848 0.0
C2868 C 0.37441 0.35088 0.09929 0.0
C2869 C 0.39497 0.34866 0.09808 0.0
H2870 H 0.34499 0.33837 0.09179 0.0
C2871 C 0.40169 0.33251 0.08563 0.0
H2872 H 0.36867 0.36313 0.10874 0.0
C2873 C 0.388 0.31839 0.07543 0.0
C2874 C 0.36731 0.32001 0.07766 0.0
H2875 H 0.41746 0.33048 0.08421 0.0
H2876 H 0.39362 0.30591 0.06628 0.0
C2877 C 0.36076 0.3367 0.08934 0.0
C2878 C 0.68755 0.38489 0.06089 0.0
C2879 C 0.67426 0.38083 0.07724 0.0
H2880 H 0.71151 0.37537 0.04104 0.0
C2881 C 0.67547 0.36364 0.08651 0.0
H2882 H 0.68694 0.398 0.0534 0.0
C2883 C 0.68979 0.35088 0.0797 0.0
C2884 C 0.70309 0.35485 0.06329 0.0
H2885 H 0.66559 0.36019 0.09928 0.0
H2886 H 0.69061 0.33804 0.08757 0.0
C2887 C 0.70174 0.37199 0.05391 0.0
C2888 C 0.73403 0.34608 0.92085 0.0
C2889 C 0.71804 0.35749 0.92611 0.0
H2890 H 0.75453 0.32779 0.93104 0.0
C2891 C 0.71037 0.35908 0.94628 0.0
H2892 H 0.74029 0.34462 0.90543 0.0
C2893 C 0.71836 0.34924 0.96084 0.0
C2894 C 0.73439 0.33792 0.95557 0.0
H2895 H 0.69803 0.36773 0.95078 0.0
H2896 H 0.71213 0.35062 0.97627 0.0
C2897 C 0.74225 0.33654 0.93549 0.0
C2898 C 0.68557 0.68437 0.95991 0.0
C2899 C 0.68007 0.66441 0.96223 0.0
H2900 H 0.70153 0.71154 0.97168 0.0
C2901 C 0.68628 0.65675 0.9794 0.0
H2902 H 0.68109 0.69079 0.94687 0.0
C2903 C 0.69801 0.6688 0.99378 0.0
C2904 C 0.70361 0.68872 0.99128 0.0
H2905 H 0.68228 0.64144 0.98163 0.0
H2906 H 0.70267 0.66255 0.00684 0.0
C2907 C 0.69718 0.69636 0.97424 0.0
C2908 C 0.31242 0.75267 0.89483 0.0
C2909 C 0.3302 0.75982 0.88511 0.0
H2910 H 0.29434 0.75332 0.92201 0.0
C2911 C 0.34237 0.77557 0.89499 0.0
H2912 H 0.30294 0.7403 0.88762 0.0
C2913 C 0.33702 0.78376 0.91457 0.0
C2914 C 0.3198 0.77583 0.92497 0.0
H2915 H 0.35614 0.78137 0.88768 0.0
H2916 H 0.34668 0.79603 0.92162 0.0
C2917 C 0.30743 0.76033 0.91462 0.0
C2918 C 0.31605 0.27891 0.93601 0.0
C2919 C 0.30916 0.29701 0.93331 0.0
H2920 H 0.31885 0.25735 0.95624 0.0
C2921 C 0.2997 0.30747 0.94987 0.0
H2922 H 0.32334 0.27041 0.92355 0.0
C2923 C 0.29735 0.30007 0.96876 0.0
C2924 C 0.30432 0.28199 0.97149 0.0
H2925 H 0.29433 0.32151 0.94834 0.0
H2926 H 0.29033 0.30869 0.98131 0.0
C2927 C 0.31362 0.27148 0.95483 0.0
C2928 C 0.65423 0.77689 0.25547 0.0
C2929 C 0.66472 0.7663 0.26762 0.0
H2930 H 0.62722 0.78941 0.25131 0.0
C2931 C 0.65567 0.76099 0.28604 0.0
H2932 H 0.6607 0.78117 0.24116 0.0
C2933 C 0.63643 0.76595 0.29201 0.0
C2934 C 0.62583 0.7763 0.27967 0.0
H2935 H 0.66338 0.75291 0.2958 0.0
H2936 H 0.62986 0.76167 0.30629 0.0
C2937 C 0.63504 0.78178 0.26139 0.0
C2938 C 0.34757 0.5988 0.1857 0.0
C2939 C 0.36008 0.61171 0.19878 0.0
H2940 H 0.32828 0.57183 0.18185 0.0
C2941 C 0.36311 0.60667 0.21828 0.0
H2942 H 0.34506 0.60222 0.17053 0.0
C2943 C 0.35337 0.58945 0.22483 0.0
C2944 C 0.34049 0.5767 0.21198 0.0
H2945 H 0.3726 0.61632 0.22877 0.0
H2946 H 0.3554 0.58654 0.24028 0.0
C2947 C 0.33792 0.58143 0.19222 0.0
C2948 C 0.4803 0.32994 0.17584 0.0
C2949 C 0.46737 0.34465 0.18106 0.0
H2950 H 0.49539 0.30712 0.18599 0.0
C2951 C 0.45986 0.34768 0.20123 0.0
H2952 H 0.48632 0.32723 0.16043 0.0
C2953 C 0.4652 0.33626 0.21587 0.0
C2954 C 0.47792 0.32141 0.21058 0.0
H2955 H 0.4499 0.3589 0.20574 0.0
H2956 H 0.45911 0.33883 0.23128 0.0
C2957 C 0.48541 0.31836 0.19042 0.0
C2958 C 0.66647 0.42368 0.17801 0.0
C2959 C 0.65556 0.43532 0.16747 0.0
H2960 H 0.6862 0.42299 0.20235 0.0
C2961 C 0.6553 0.45541 0.17436 0.0
H2962 H 0.66733 0.40828 0.17271 0.0
C2963 C 0.66597 0.46378 0.19137 0.0
C2964 C 0.67744 0.45228 0.20148 0.0
H2965 H 0.64709 0.4647 0.1664 0.0
H2966 H 0.66592 0.4794 0.19613 0.0
C2967 C 0.67744 0.43212 0.1948 0.0
C2968 C 0.60299 0.41151 0.88329 0.0
C2969 C 0.61897 0.40063 0.88612 0.0
H2970 H 0.57378 0.41119 0.87167 0.0
C2971 C 0.61703 0.38027 0.87996 0.0
H2972 H 0.60395 0.42721 0.88797 0.0
C2973 C 0.59984 0.37114 0.87044 0.0
C2974 C 0.58412 0.38213 0.86696 0.0
H2975 H 0.62908 0.37145 0.88185 0.0
H2976 H 0.59923 0.35558 0.8651 0.0
C2977 C 0.58574 0.40236 0.87384 0.0
C2978 C 0.69238 0.56818 0.87935 0.0
C2979 C 0.6898 0.58835 0.88113 0.0
H2980 H 0.7092 0.54509 0.86525 0.0
C2981 C 0.70278 0.6009 0.87 0.0
H2982 H 0.68258 0.55816 0.88774 0.0
C2983 C 0.71812 0.59349 0.85747 0.0
C2984 C 0.72061 0.57333 0.85558 0.0
H2985 H 0.70121 0.61652 0.87111 0.0
H2986 H 0.72789 0.60348 0.849 0.0
C2987 C 0.70754 0.56069 0.8665 0.0
C2988 C 0.39937 0.7153 0.79706 0.0
C2989 C 0.38761 0.73062 0.79508 0.0
H2990 H 0.42878 0.70614 0.79621 0.0
C2991 C 0.39687 0.74837 0.78885 0.0
H2992 H 0.39271 0.70148 0.80194 0.0
C2993 C 0.41759 0.75098 0.78537 0.0
C2994 C 0.42946 0.73593 0.78817 0.0
H2995 H 0.38819 0.76041 0.7871 0.0
H2996 H 0.42435 0.76488 0.78075 0.0
C2997 C 0.42007 0.71795 0.7937 0.0
C2998 C 0.27669 0.43001 0.85613 0.0
C2999 C 0.27943 0.4129 0.84291 0.0
H3000 H 0.26714 0.45904 0.85957 0.0
C3001 C 0.274 0.41197 0.82254 0.0
H3002 H 0.28068 0.43116 0.87191 0.0
C3003 C 0.26646 0.42802 0.81545 0.0
C3004 C 0.26382 0.44514 0.82867 0.0
H3005 H 0.27596 0.399 0.81197 0.0
H3006 H 0.26273 0.42709 0.79961 0.0
C3007 C 0.26881 0.44591 0.84912 0.0
C3008 C 0.76139 0.64123 0.26795 0.0
C3009 C 0.74247 0.64746 0.26563 0.0
H3010 H 0.77797 0.61725 0.27269 0.0
C3011 C 0.72543 0.6338 0.2667 0.0
H3012 H 0.7748 0.6514 0.26718 0.0
C3013 C 0.72724 0.61439 0.27013 0.0
C3014 C 0.74616 0.60813 0.27227 0.0
H3015 H 0.71064 0.63813 0.26501 0.0
H3016 H 0.71386 0.60415 0.27076 0.0
C3017 C 0.76322 0.6217 0.27106 0.0
C3018 C 0.73423 0.46454 0.87317 0.0
C3019 C 0.73235 0.44436 0.86599 0.0
H3020 H 0.74593 0.49371 0.86741 0.0
C3021 C 0.74282 0.43805 0.84793 0.0
H3022 H 0.7264 0.4699 0.88703 0.0
C3023 C 0.75396 0.45168 0.83672 0.0
C3024 C 0.75499 0.47192 0.84336 0.0
H3025 H 0.74182 0.42261 0.84202 0.0
H3026 H 0.76139 0.44643 0.82257 0.0
C3027 C 0.74548 0.47818 0.86198 0.0
C3028 C 0.61331 0.67529 0.85169 0.0
C3029 C 0.60417 0.67228 0.87077 0.0
H3030 H 0.61259 0.68915 0.82444 0.0
C3031 C 0.58604 0.68019 0.87633 0.0
H3032 H 0.62733 0.66945 0.84698 0.0
C3033 C 0.57752 0.69134 0.86336 0.0
C3034 C 0.58699 0.69496 0.84457 0.0
H3035 H 0.57854 0.67803 0.89086 0.0
H3036 H 0.56351 0.69719 0.86811 0.0
C3037 C 0.60484 0.68655 0.83875 0.0
C3038 C 0.33822 0.64755 0.83301 0.0
C3039 C 0.32878 0.66186 0.84576 0.0
H3040 H 0.33632 0.61778 0.81891 0.0
C3041 C 0.31 0.65651 0.85488 0.0
H3042 H 0.35277 0.65117 0.82589 0.0
C3043 C 0.30051 0.63748 0.85073 0.0
C3044 C 0.30962 0.62328 0.83748 0.0
H3045 H 0.30231 0.66718 0.86477 0.0
H3046 H 0.28565 0.63415 0.85731 0.0
C3047 C 0.32876 0.62844 0.82896 0.0
C3048 C 0.37328 0.3236 0.83398 0.0
C3049 C 0.366 0.34218 0.83682 0.0
H3050 H 0.39774 0.307 0.82414 0.0
C3051 C 0.37805 0.35845 0.8303 0.0
H3052 H 0.36428 0.31069 0.83855 0.0
C3053 C 0.39743 0.35635 0.82222 0.0
C3054 C 0.40506 0.33792 0.82039 0.0
H3055 H 0.37287 0.37296 0.83227 0.0
H3056 H 0.40675 0.36933 0.8183 0.0
C3057 C 0.39252 0.32149 0.8258 0.0
C3058 C 0.37688 0.43764 0.19592 0.0
C3059 C 0.38266 0.44405 0.17691 0.0
H3060 H 0.35782 0.44098 0.22259 0.0
C3061 C 0.37432 0.46032 0.17103 0.0
H3062 H 0.38292 0.42506 0.20085 0.0
C3063 C 0.36008 0.46961 0.18361 0.0
C3064 C 0.3537 0.46275 0.20229 0.0
H3065 H 0.37855 0.4657 0.15654 0.0
H3066 H 0.35396 0.48212 0.17861 0.0
C3067 C 0.3625 0.44682 0.20842 0.0
C3068 C 0.576 0.33316 0.1918 0.0
C3069 C 0.59392 0.34414 0.19808 0.0
H3070 H 0.55138 0.31257 0.19925 0.0
C3071 C 0.60114 0.34187 0.21716 0.0
H3072 H 0.56996 0.33458 0.17724 0.0
C3073 C 0.59052 0.32907 0.22977 0.0
C3074 C 0.57248 0.31824 0.22354 0.0
H3075 H 0.61493 0.35008 0.22244 0.0
H3076 H 0.59646 0.32761 0.24437 0.0
C3077 C 0.5654 0.3204 0.20438 0.0
C3078 C 0.45049 0.71372 0.18843 0.0
C3079 C 0.4303 0.70913 0.19422 0.0
H3080 H 0.47909 0.72819 0.19724 0.0
C3081 C 0.42334 0.71675 0.21359 0.0
H3082 H 0.45633 0.70805 0.17364 0.0
C3083 C 0.43633 0.72828 0.22703 0.0
C3084 C 0.45661 0.73247 0.22146 0.0
H3085 H 0.40786 0.71361 0.21853 0.0
H3086 H 0.43048 0.7339 0.24184 0.0
C3087 C 0.46351 0.7253 0.20192 0.0
loop_
_geom_bond_atom_site_label_1
_geom_bond_atom_site_label_2
_geom_bond_distance
_geom_bond_site_symmetry_2
_ccdc_geom_bond_type
O0 Cd1 2.300 . S
O0 C7 1.275 . S
Cd1 O0 2.300 . S
Cd1 O9 2.381 . S
Cd1 O10 2.378 . S
O2 Cd3 2.385 . S
O2 C7 1.255 . S
Cd3 O2 2.385 . S
Cd3 O4 2.317 . S
O4 Cd3 2.317 . S
O4 C5 1.232 . S
C5 O4 1.232 . S
C5 O6 1.218 . S
O6 C5 1.218 . S
C7 O0 1.275 . S
C7 O2 1.255 . S
C8 O9 1.258 . S
C8 O10 1.256 . S
O9 Cd1 2.381 . S
O9 C8 1.258 . S
O10 Cd1 2.378 . S
O10 C8 1.256 . S
O11 Cd12 2.300 . S
O11 C18 1.275 . S
Cd12 O11 2.300 . S
Cd12 O20 2.381 . S
Cd12 O21 2.378 . S
O13 Cd14 2.385 . S
O13 C18 1.255 . S
Cd14 O13 2.385 . S
Cd14 O15 2.317 . S
O15 Cd14 2.317 . S
O15 C16 1.232 . S
C16 O15 1.232 . S
C16 O17 1.218 . S
O17 C16 1.218 . S
C18 O11 1.275 . S
C18 O13 1.255 . S
C19 O20 1.258 . S
C19 O21 1.256 . S
O20 Cd12 2.381 . S
O20 C19 1.258 . S
O21 Cd12 2.378 . S
O21 C19 1.256 . S
O22 Cd23 2.300 . S
O22 C29 1.275 . S
Cd23 O22 2.300 . S
Cd23 O31 2.381 . S
Cd23 O32 2.378 . S
O24 Cd25 2.385 . S
O24 C29 1.255 . S
Cd25 O24 2.385 . S
Cd25 O26 2.317 . S
O26 Cd25 2.317 . S
O26 C27 1.232 . S
C27 O26 1.232 . S
C27 O28 1.218 . S
O28 C27 1.218 . S
C29 O22 1.275 . S
C29 O24 1.255 . S
C30 O31 1.258 . S
C30 O32 1.256 . S
O31 Cd23 2.381 . S
O31 C30 1.258 . S
O32 Cd23 2.378 . S
O32 C30 1.256 . S
O33 Cd34 2.300 . S
O33 C40 1.275 . S
Cd34 O33 2.300 . S
Cd34 O42 2.381 . S
Cd34 O43 2.378 . S
O35 Cd36 2.385 . S
O35 C40 1.255 . S
Cd36 O35 2.385 . S
Cd36 O37 2.317 . S
O37 Cd36 2.317 . S
O37 C38 1.232 . S
C38 O37 1.232 . S
C38 O39 1.218 . S
O39 C38 1.218 . S
C40 O33 1.275 . S
C40 O35 1.255 . S
C41 O42 1.258 . S
C41 O43 1.256 . S
O42 Cd34 2.381 . S
O42 C41 1.258 . S
O43 Cd34 2.378 . S
O43 C41 1.256 . S
O44 Cd45 2.300 . S
O44 C51 1.275 . S
Cd45 O44 2.300 . S
Cd45 O53 2.381 . S
Cd45 O54 2.378 . S
O46 Cd47 2.385 . S
O46 C51 1.255 . S
Cd47 O46 2.385 . S
Cd47 O48 2.317 . S
O48 Cd47 2.317 . S
O48 C49 1.232 . S
C49 O48 1.232 . S
C49 O50 1.218 . S
O50 C49 1.218 . S
C51 O44 1.275 . S
C51 O46 1.255 . S
C52 O53 1.258 . S
C52 O54 1.256 . S
O53 Cd45 2.381 . S
O53 C52 1.258 . S
O54 Cd45 2.378 . S
O54 C52 1.256 . S
O55 Cd56 2.300 . S
O55 C62 1.275 . S
Cd56 O55 2.300 . S
Cd56 O64 2.381 . S
Cd56 O65 2.378 . S
O57 Cd58 2.385 . S
O57 C62 1.255 . S
Cd58 O57 2.385 . S
Cd58 O59 2.317 . S
O59 Cd58 2.317 . S
O59 C60 1.232 . S
C60 O59 1.232 . S
C60 O61 1.218 . S
O61 C60 1.218 . S
C62 O55 1.275 . S
C62 O57 1.255 . S
C63 O64 1.258 . S
C63 O65 1.256 . S
O64 Cd56 2.381 . S
O64 C63 1.258 . S
O65 Cd56 2.378 . S
O65 C63 1.256 . S
O66 Cd67 2.300 . S
O66 C73 1.275 . S
Cd67 O66 2.300 . S
Cd67 O75 2.381 . S
Cd67 O76 2.378 . S
O68 Cd69 2.385 . S
O68 C73 1.255 . S
Cd69 O68 2.385 . S
Cd69 O70 2.317 . S
O70 Cd69 2.317 . S
O70 C71 1.232 . S
C71 O70 1.232 . S
C71 O72 1.218 . S
O72 C71 1.218 . S
C73 O66 1.275 . S
C73 O68 1.255 . S
C74 O75 1.258 . S
C74 O76 1.256 . S
O75 Cd67 2.381 . S
O75 C74 1.258 . S
O76 Cd67 2.378 . S
O76 C74 1.256 . S
O77 Cd78 2.300 . S
O77 C84 1.275 . S
Cd78 O77 2.300 . S
Cd78 O86 2.381 . S
Cd78 O87 2.378 . S
O79 Cd80 2.385 . S
O79 C84 1.255 . S
Cd80 O79 2.385 . S
Cd80 O81 2.317 . S
O81 Cd80 2.317 . S
O81 C82 1.232 . S
C82 O81 1.232 . S
C82 O83 1.218 . S
O83 C82 1.218 . S
C84 O77 1.275 . S
C84 O79 1.255 . S
C85 O86 1.258 . S
C85 O87 1.256 . S
O86 Cd78 2.381 . S
O86 C85 1.258 . S
O87 Cd78 2.378 . S
O87 C85 1.256 . S
O88 Cd89 2.300 . S
O88 C95 1.275 . S
Cd89 O88 2.300 . S
Cd89 O97 2.381 . S
Cd89 O98 2.378 . S
O90 Cd91 2.385 . S
O90 C95 1.255 . S
Cd91 O90 2.385 . S
Cd91 O92 2.317 . S
O92 Cd91 2.317 . S
O92 C93 1.232 . S
C93 O92 1.232 . S
C93 O94 1.218 . S
O94 C93 1.218 . S
C95 O88 1.275 . S
C95 O90 1.255 . S
C96 O97 1.258 . S
C96 O98 1.256 . S
O97 Cd89 2.381 . S
O97 C96 1.258 . S
O98 Cd89 2.378 . S
O98 C96 1.256 . S
O99 Cd100 2.300 . S
O99 C106 1.275 . S
Cd100 O99 2.300 . S
Cd100 O108 2.381 . S
Cd100 O109 2.378 . S
O101 Cd102 2.385 . S
O101 C106 1.255 . S
Cd102 O101 2.385 . S
Cd102 O103 2.317 . S
O103 Cd102 2.317 . S
O103 C104 1.232 . S
C104 O103 1.232 . S
C104 O105 1.218 . S
O105 C104 1.218 . S
C106 O99 1.275 . S
C106 O101 1.255 . S
C107 O108 1.258 . S
C107 O109 1.256 . S
O108 Cd100 2.381 . S
O108 C107 1.258 . S
O109 Cd100 2.378 . S
O109 C107 1.256 . S
O110 Cd111 2.300 . S
O110 C117 1.275 . S
Cd111 O110 2.300 . S
Cd111 O119 2.381 . S
Cd111 O120 2.378 . S
O112 Cd113 2.385 . S
O112 C117 1.255 . S
Cd113 O112 2.385 . S
Cd113 O114 2.317 . S
O114 Cd113 2.317 . S
O114 C115 1.232 . S
C115 O114 1.232 . S
C115 O116 1.218 . S
O116 C115 1.218 . S
C117 O110 1.275 . S
C117 O112 1.255 . S
C118 O119 1.258 . S
C118 O120 1.256 . S
O119 Cd111 2.381 . S
O119 C118 1.258 . S
O120 Cd111 2.378 . S
O120 C118 1.256 . S
O121 Cd122 2.300 . S
O121 C128 1.275 . S
Cd122 O121 2.300 . S
Cd122 O130 2.381 . S
Cd122 O131 2.378 . S
O123 Cd124 2.385 . S
O123 C128 1.255 . S
Cd124 O123 2.385 . S
Cd124 O125 2.317 . S
O125 Cd124 2.317 . S
O125 C126 1.232 . S
C126 O125 1.232 . S
C126 O127 1.218 . S
O127 C126 1.218 . S
C128 O121 1.275 . S
C128 O123 1.255 . S
C129 O130 1.258 . S
C129 O131 1.256 . S
O130 Cd122 2.381 . S
O130 C129 1.258 . S
O131 Cd122 2.378 . S
O131 C129 1.256 . S
O132 Cd133 2.300 . S
O132 C139 1.275 . S
Cd133 O132 2.300 . S
Cd133 O141 2.381 . S
Cd133 O142 2.378 . S
O134 Cd135 2.385 . S
O134 C139 1.255 . S
Cd135 O134 2.385 . S
Cd135 O136 2.317 . S
O136 Cd135 2.317 . S
O136 C137 1.232 . S
C137 O136 1.232 . S
C137 O138 1.218 . S
O138 C137 1.218 . S
C139 O132 1.275 . S
C139 O134 1.255 . S
C140 O141 1.258 . S
C140 O142 1.256 . S
O141 Cd133 2.381 . S
O141 C140 1.258 . S
O142 Cd133 2.378 . S
O142 C140 1.256 . S
O143 Cd144 2.300 . S
O143 C150 1.275 . S
Cd144 O143 2.300 . S
Cd144 O152 2.381 . S
Cd144 O153 2.378 . S
O145 Cd146 2.385 . S
O145 C150 1.255 . S
Cd146 O145 2.385 . S
Cd146 O147 2.317 . S
O147 Cd146 2.317 . S
O147 C148 1.232 . S
C148 O147 1.232 . S
C148 O149 1.218 . S
O149 C148 1.218 . S
C150 O143 1.275 . S
C150 O145 1.255 . S
C151 O152 1.258 . S
C151 O153 1.256 . S
O152 Cd144 2.381 . S
O152 C151 1.258 . S
O153 Cd144 2.378 . S
O153 C151 1.256 . S
O154 Cd155 2.300 . S
O154 C161 1.275 . S
Cd155 O154 2.300 . S
Cd155 O163 2.381 . S
Cd155 O164 2.378 . S
O156 Cd157 2.385 . S
O156 C161 1.255 . S
Cd157 O156 2.385 . S
Cd157 O158 2.317 . S
O158 Cd157 2.317 . S
O158 C159 1.232 . S
C159 O158 1.232 . S
C159 O160 1.218 . S
O160 C159 1.218 . S
C161 O154 1.275 . S
C161 O156 1.255 . S
C162 O163 1.258 . S
C162 O164 1.256 . S
O163 Cd155 2.381 . S
O163 C162 1.258 . S
O164 Cd155 2.378 . S
O164 C162 1.256 . S
O165 Cd166 2.300 . S
O165 C172 1.275 . S
Cd166 O165 2.300 . S
Cd166 O174 2.381 . S
Cd166 O175 2.378 . S
O167 Cd168 2.385 . S
O167 C172 1.255 . S
Cd168 O167 2.385 . S
Cd168 O169 2.317 . S
O169 Cd168 2.317 . S
O169 C170 1.232 . S
C170 O169 1.232 . S
C170 O171 1.218 . S
O171 C170 1.218 . S
C172 O165 1.275 . S
C172 O167 1.255 . S
C173 O174 1.258 . S
C173 O175 1.256 . S
O174 Cd166 2.381 . S
O174 C173 1.258 . S
O175 Cd166 2.378 . S
O175 C173 1.256 . S
O176 Cd177 2.300 . S
O176 C183 1.275 . S
Cd177 O176 2.300 . S
Cd177 O185 2.381 . S
Cd177 O186 2.378 . S
O178 Cd179 2.385 . S
O178 C183 1.255 . S
Cd179 O178 2.385 . S
Cd179 O180 2.317 . S
O180 Cd179 2.317 . S
O180 C181 1.232 . S
C181 O180 1.232 . S
C181 O182 1.218 . S
O182 C181 1.218 . S
C183 O176 1.275 . S
C183 O178 1.255 . S
C184 O185 1.258 . S
C184 O186 1.256 . S
O185 Cd177 2.381 . S
O185 C184 1.258 . S
O186 Cd177 2.378 . S
O186 C184 1.256 . S
O187 Cd188 2.300 . S
O187 C194 1.275 . S
Cd188 O187 2.300 . S
Cd188 O196 2.381 . S
Cd188 O197 2.378 . S
O189 Cd190 2.385 . S
O189 C194 1.255 . S
Cd190 O189 2.385 . S
Cd190 O191 2.317 . S
O191 Cd190 2.317 . S
O191 C192 1.232 . S
C192 O191 1.232 . S
C192 O193 1.218 . S
O193 C192 1.218 . S
C194 O187 1.275 . S
C194 O189 1.255 . S
C195 O196 1.258 . S
C195 O197 1.256 . S
O196 Cd188 2.381 . S
O196 C195 1.258 . S
O197 Cd188 2.378 . S
O197 C195 1.256 . S
O198 Cd199 2.300 . S
O198 C205 1.275 . S
Cd199 O198 2.300 . S
Cd199 O207 2.381 . S
Cd199 O208 2.378 . S
O200 Cd201 2.385 . S
O200 C205 1.255 . S
Cd201 O200 2.385 . S
Cd201 O202 2.317 . S
O202 Cd201 2.317 . S
O202 C203 1.232 . S
C203 O202 1.232 . S
C203 O204 1.218 . S
O204 C203 1.218 . S
C205 O198 1.275 . S
C205 O200 1.255 . S
C206 O207 1.258 . S
C206 O208 1.256 . S
O207 Cd199 2.381 . S
O207 C206 1.258 . S
O208 Cd199 2.378 . S
O208 C206 1.256 . S
O209 Cd210 2.300 . S
O209 C216 1.275 . S
Cd210 O209 2.300 . S
Cd210 O218 2.381 . S
Cd210 O219 2.378 . S
O211 Cd212 2.385 . S
O211 C216 1.255 . S
Cd212 O211 2.385 . S
Cd212 O213 2.317 . S
O213 Cd212 2.317 . S
O213 C214 1.232 . S
C214 O213 1.232 . S
C214 O215 1.218 . S
O215 C214 1.218 . S
C216 O209 1.275 . S
C216 O211 1.255 . S
C217 O218 1.258 . S
C217 O219 1.256 . S
O218 Cd210 2.381 . S
O218 C217 1.258 . S
O219 Cd210 2.378 . S
O219 C217 1.256 . S
O220 Cd221 2.300 . S
O220 C227 1.275 . S
Cd221 O220 2.300 . S
Cd221 O229 2.381 . S
Cd221 O230 2.378 . S
O222 Cd223 2.385 . S
O222 C227 1.255 . S
Cd223 O222 2.385 . S
Cd223 O224 2.317 . S
O224 Cd223 2.317 . S
O224 C225 1.232 . S
C225 O224 1.232 . S
C225 O226 1.218 . S
O226 C225 1.218 . S
C227 O220 1.275 . S
C227 O222 1.255 . S
C228 O229 1.258 . S
C228 O230 1.256 . S
O229 Cd221 2.381 . S
O229 C228 1.258 . S
O230 Cd221 2.378 . S
O230 C228 1.256 . S
O231 Cd232 2.300 . S
O231 C238 1.275 . S
Cd232 O231 2.300 . S
Cd232 O240 2.381 . S
Cd232 O241 2.378 . S
O233 Cd234 2.385 . S
O233 C238 1.255 . S
Cd234 O233 2.385 . S
Cd234 O235 2.317 . S
O235 Cd234 2.317 . S
O235 C236 1.232 . S
C236 O235 1.232 . S
C236 O237 1.218 . S
O237 C236 1.218 . S
C238 O231 1.275 . S
C238 O233 1.255 . S
C239 O240 1.258 . S
C239 O241 1.256 . S
O240 Cd232 2.381 . S
O240 C239 1.258 . S
O241 Cd232 2.378 . S
O241 C239 1.256 . S
O242 Cd243 2.300 . S
O242 C249 1.275 . S
Cd243 O242 2.300 . S
Cd243 O251 2.381 . S
Cd243 O252 2.378 . S
O244 Cd245 2.385 . S
O244 C249 1.255 . S
Cd245 O244 2.385 . S
Cd245 O246 2.317 . S
O246 Cd245 2.317 . S
O246 C247 1.232 . S
C247 O246 1.232 . S
C247 O248 1.218 . S
O248 C247 1.218 . S
C249 O242 1.275 . S
C249 O244 1.255 . S
C250 O251 1.258 . S
C250 O252 1.256 . S
O251 Cd243 2.381 . S
O251 C250 1.258 . S
O252 Cd243 2.378 . S
O252 C250 1.256 . S
O253 Cd254 2.300 . S
O253 C260 1.275 . S
Cd254 O253 2.300 . S
Cd254 O262 2.381 . S
Cd254 O263 2.378 . S
O255 Cd256 2.385 . S
O255 C260 1.255 . S
Cd256 O255 2.385 . S
Cd256 O257 2.317 . S
O257 Cd256 2.317 . S
O257 C258 1.232 . S
C258 O257 1.232 . S
C258 O259 1.218 . S
O259 C258 1.218 . S
C260 O253 1.275 . S
C260 O255 1.255 . S
C261 O262 1.258 . S
C261 O263 1.256 . S
O262 Cd254 2.381 . S
O262 C261 1.258 . S
O263 Cd254 2.378 . S
O263 C261 1.256 . S
O264 Cd265 2.300 . S
O264 C271 1.275 . S
Cd265 O264 2.300 . S
Cd265 O273 2.381 . S
Cd265 O274 2.378 . S
O266 Cd267 2.385 . S
O266 C271 1.255 . S
Cd267 O266 2.385 . S
Cd267 O268 2.317 . S
O268 Cd267 2.317 . S
O268 C269 1.232 . S
C269 O268 1.232 . S
C269 O270 1.218 . S
O270 C269 1.218 . S
C271 O264 1.275 . S
C271 O266 1.255 . S
C272 O273 1.258 . S
C272 O274 1.256 . S
O273 Cd265 2.381 . S
O273 C272 1.258 . S
O274 Cd265 2.378 . S
O274 C272 1.256 . S
O275 Cd276 2.300 . S
O275 C282 1.275 . S
Cd276 O275 2.300 . S
Cd276 O284 2.381 . S
Cd276 O285 2.378 . S
O277 Cd278 2.385 . S
O277 C282 1.255 . S
Cd278 O277 2.385 . S
Cd278 O279 2.317 . S
O279 Cd278 2.317 . S
O279 C280 1.232 . S
C280 O279 1.232 . S
C280 O281 1.218 . S
O281 C280 1.218 . S
C282 O275 1.275 . S
C282 O277 1.255 . S
C283 O284 1.258 . S
C283 O285 1.256 . S
O284 Cd276 2.381 . S
O284 C283 1.258 . S
O285 Cd276 2.378 . S
O285 C283 1.256 . S
O286 Cd287 2.300 . S
O286 C293 1.275 . S
Cd287 O286 2.300 . S
Cd287 O295 2.381 . S
Cd287 O296 2.378 . S
O288 Cd289 2.385 . S
O288 C293 1.255 . S
Cd289 O288 2.385 . S
Cd289 O290 2.317 . S
O290 Cd289 2.317 . S
O290 C291 1.232 . S
C291 O290 1.232 . S
C291 O292 1.218 . S
O292 C291 1.218 . S
C293 O286 1.275 . S
C293 O288 1.255 . S
C294 O295 1.258 . S
C294 O296 1.256 . S
O295 Cd287 2.381 . S
O295 C294 1.258 . S
O296 Cd287 2.378 . S
O296 C294 1.256 . S
O297 Cd298 2.300 . S
O297 C304 1.275 . S
Cd298 O297 2.300 . S
Cd298 O306 2.381 . S
Cd298 O307 2.378 . S
O299 Cd300 2.385 . S
O299 C304 1.255 . S
Cd300 O299 2.385 . S
Cd300 O301 2.317 . S
O301 Cd300 2.317 . S
O301 C302 1.232 . S
C302 O301 1.232 . S
C302 O303 1.218 . S
O303 C302 1.218 . S
C304 O297 1.275 . S
C304 O299 1.255 . S
C305 O306 1.258 . S
C305 O307 1.256 . S
O306 Cd298 2.381 . S
O306 C305 1.258 . S
O307 Cd298 2.378 . S
O307 C305 1.256 . S
O308 Cd309 2.300 . S
O308 C315 1.275 . S
Cd309 O308 2.300 . S
Cd309 O317 2.381 . S
Cd309 O318 2.378 . S
O310 Cd311 2.385 . S
O310 C315 1.255 . S
Cd311 O310 2.385 . S
Cd311 O312 2.317 . S
O312 Cd311 2.317 . S
O312 C313 1.232 . S
C313 O312 1.232 . S
C313 O314 1.218 . S
O314 C313 1.218 . S
C315 O308 1.275 . S
C315 O310 1.255 . S
C316 O317 1.258 . S
C316 O318 1.256 . S
O317 Cd309 2.381 . S
O317 C316 1.258 . S
O318 Cd309 2.378 . S
O318 C316 1.256 . S
O319 Cd320 2.300 . S
O319 C326 1.275 . S
Cd320 O319 2.300 . S
Cd320 O328 2.381 . S
Cd320 O329 2.378 . S
O321 Cd322 2.385 . S
O321 C326 1.255 . S
Cd322 O321 2.385 . S
Cd322 O323 2.317 . S
O323 Cd322 2.317 . S
O323 C324 1.232 . S
C324 O323 1.232 . S
C324 O325 1.218 . S
O325 C324 1.218 . S
C326 O319 1.275 . S
C326 O321 1.255 . S
C327 O328 1.258 . S
C327 O329 1.256 . S
O328 Cd320 2.381 . S
O328 C327 1.258 . S
O329 Cd320 2.378 . S
O329 C327 1.256 . S
O330 Cd331 2.300 . S
O330 C337 1.275 . S
Cd331 O330 2.300 . S
Cd331 O339 2.381 . S
Cd331 O340 2.378 . S
O332 Cd333 2.385 . S
O332 C337 1.255 . S
Cd333 O332 2.385 . S
Cd333 O334 2.317 . S
O334 Cd333 2.317 . S
O334 C335 1.232 . S
C335 O334 1.232 . S
C335 O336 1.218 . S
O336 C335 1.218 . S
C337 O330 1.275 . S
C337 O332 1.255 . S
C338 O339 1.258 . S
C338 O340 1.256 . S
O339 Cd331 2.381 . S
O339 C338 1.258 . S
O340 Cd331 2.378 . S
O340 C338 1.256 . S
O341 Cd342 2.300 . S
O341 C348 1.275 . S
Cd342 O341 2.300 . S
Cd342 O350 2.381 . S
Cd342 O351 2.378 . S
O343 Cd344 2.385 . S
O343 C348 1.255 . S
Cd344 O343 2.385 . S
Cd344 O345 2.317 . S
O345 Cd344 2.317 . S
O345 C346 1.232 . S
C346 O345 1.232 . S
C346 O347 1.218 . S
O347 C346 1.218 . S
C348 O341 1.275 . S
C348 O343 1.255 . S
C349 O350 1.258 . S
C349 O351 1.256 . S
O350 Cd342 2.381 . S
O350 C349 1.258 . S
O351 Cd342 2.378 . S
O351 C349 1.256 . S
H352 O378 0.856 . S
H353 O381 0.854 . S
H354 C389 0.930 . S
H355 C390 0.930 . S
H356 C392 0.930 . S
H357 C393 0.930 . S
H358 C395 0.931 . S
H359 C396 0.930 . S
H360 C398 0.930 . S
H361 C399 0.929 . S
H362 C401 0.930 . S
H363 C402 0.931 . S
H364 C404 0.930 . S
H365 C405 0.929 . S
H366 C407 0.931 . S
H367 C408 0.930 . S
H368 C410 0.930 . S
H369 C411 0.932 . S
H370 C413 0.930 . S
H371 C414 0.929 . S
H372 C416 0.931 . S
H373 C417 0.930 . S
H374 C419 0.929 . S
H375 C420 0.931 . S
H376 C422 0.930 . S
H377 C423 0.929 . S
O378 H352 0.856 . S
O378 C424 1.300 . S
O379 C424 1.209 . S
O380 C425 1.199 . S
O381 H353 0.854 . S
O381 C425 1.297 . S
C382 C383 1.404 . S
C382 C387 1.397 . S
C382 C388 1.492 . S
C383 C382 1.404 . S
C383 C384 1.396 . S
C383 C394 1.492 . S
C384 C383 1.396 . S
C384 C385 1.397 . S
C384 C400 1.509 . S
C385 C384 1.397 . S
C385 C386 1.412 . S
C385 C406 1.485 . S
C386 C385 1.412 . S
C386 C387 1.388 . S
C386 C412 1.490 . S
C387 C382 1.397 . S
C387 C386 1.388 . S
C387 C418 1.519 . S
C388 C382 1.492 . S
C388 C389 1.363 . S
C388 C393 1.390 . S
C389 H354 0.930 . S
C389 C388 1.363 . S
C389 C390 1.372 1_554 S
C390 H355 0.930 . S
C390 C389 1.372 1_556 S
C390 C391 1.383 . S
C391 C390 1.383 . S
C391 C392 1.395 . S
C392 H356 0.930 . S
C392 C391 1.395 . S
C392 C393 1.362 1_556 S
C393 H357 0.930 . S
C393 C388 1.390 . S
C393 C392 1.362 1_554 S
C394 C383 1.492 . S
C394 C395 1.377 . S
C394 C399 1.397 . S
C395 H358 0.931 . S
C395 C394 1.377 . S
C395 C396 1.376 . S
C396 H359 0.930 . S
C396 C395 1.376 . S
C396 C397 1.376 . S
C397 C396 1.376 . S
C397 C398 1.378 . S
C397 C424 1.486 . S
C398 H360 0.930 . S
C398 C397 1.378 . S
C398 C399 1.376 . S
C399 H361 0.929 . S
C399 C394 1.397 . S
C399 C398 1.376 . S
C400 C384 1.509 . S
C400 C401 1.391 . S
C400 C405 1.386 . S
C401 H362 0.930 . S
C401 C400 1.391 . S
C401 C402 1.375 . S
C402 H363 0.931 . S
C402 C401 1.375 . S
C402 C403 1.375 . S
C403 C402 1.375 . S
C403 C404 1.361 . S
C404 H364 0.930 . S
C404 C403 1.361 . S
C404 C405 1.399 . S
C405 H365 0.929 . S
C405 C400 1.386 . S
C405 C404 1.399 . S
C406 C385 1.485 . S
C406 C407 1.394 . S
C406 C411 1.360 . S
C407 H366 0.931 . S
C407 C406 1.394 . S
C407 C408 1.372 . S
C408 H367 0.930 . S
C408 C407 1.372 . S
C408 C409 1.397 . S
C409 C408 1.397 . S
C409 C410 1.390 . S
C409 C425 1.476 . S
C410 H368 0.930 . S
C410 C409 1.390 . S
C410 C411 1.366 . S
C411 H369 0.932 . S
C411 C406 1.360 . S
C411 C410 1.366 . S
C412 C386 1.490 . S
C412 C413 1.380 . S
C412 C417 1.386 . S
C413 H370 0.930 . S
C413 C412 1.380 . S
C413 C414 1.381 . S
C414 H371 0.929 . S
C414 C413 1.381 . S
C414 C415 1.371 . S
C415 C414 1.371 . S
C415 C416 1.380 . S
C416 H372 0.931 . S
C416 C415 1.380 . S
C416 C417 1.387 . S
C417 H373 0.930 . S
C417 C412 1.386 . S
C417 C416 1.387 . S
C418 C387 1.519 . S
C418 C419 1.377 . S
C418 C423 1.361 . S
C419 H374 0.929 . S
C419 C418 1.377 . S
C419 C420 1.386 1_554 S
C420 H375 0.931 . S
C420 C419 1.386 1_556 S
C420 C421 1.363 . S
C421 C420 1.363 . S
C421 C422 1.385 1_556 S
C422 H376 0.930 . S
C422 C421 1.385 1_554 S
C422 C423 1.396 . S
C423 H377 0.929 . S
C423 C418 1.361 . S
C423 C422 1.396 . S
C424 O378 1.300 . S
C424 O379 1.209 . S
C424 C397 1.486 . S
C425 O380 1.199 . S
C425 O381 1.297 . S
C425 C409 1.476 . S
H426 O452 0.856 . S
H427 O455 0.854 . S
H428 C463 0.930 . S
H429 C464 0.930 . S
H430 C466 0.930 . S
H431 C467 0.930 . S
H432 C469 0.931 . S
H433 C470 0.930 . S
H434 C472 0.930 . S
H435 C473 0.929 . S
H436 C475 0.930 . S
H437 C476 0.931 . S
H438 C478 0.930 . S
H439 C479 0.929 . S
H440 C481 0.931 . S
H441 C482 0.930 . S
H442 C484 0.930 . S
H443 C485 0.932 . S
H444 C487 0.930 . S
H445 C488 0.929 . S
H446 C490 0.931 . S
H447 C491 0.930 . S
H448 C493 0.929 . S
H449 C494 0.931 . S
H450 C496 0.930 . S
H451 C497 0.929 . S
O452 H426 0.856 . S
O452 C498 1.300 . S
O453 C498 1.209 . S
O454 C499 1.199 . S
O455 H427 0.854 . S
O455 C499 1.297 . S
C456 C457 1.404 1_556 S
C456 C461 1.397 1_556 S
C456 C462 1.492 . S
C457 C456 1.404 1_554 S
C457 C458 1.396 . S
C457 C468 1.492 1_554 S
C458 C457 1.396 . S
C458 C459 1.397 . S
C458 C474 1.509 . S
C459 C458 1.397 . S
C459 C460 1.412 . S
C459 C480 1.485 . S
C460 C459 1.412 . S
C460 C461 1.388 . S
C460 C486 1.490 . S
C461 C456 1.397 1_554 S
C461 C460 1.388 . S
C461 C492 1.519 1_554 S
C462 C456 1.492 . S
C462 C463 1.363 . S
C462 C467 1.390 . S
C463 H428 0.930 . S
C463 C462 1.363 . S
C463 C464 1.372 . S
C464 H429 0.930 . S
C464 C463 1.372 . S
C464 C465 1.383 . S
C465 C464 1.383 . S
C465 C466 1.395 . S
C466 H430 0.930 . S
C466 C465 1.395 . S
C466 C467 1.362 . S
C467 H431 0.930 . S
C467 C462 1.390 . S
C467 C466 1.362 . S
C468 C457 1.492 1_556 S
C468 C469 1.377 1_556 S
C468 C473 1.397 . S
C469 H432 0.931 . S
C469 C468 1.377 1_554 S
C469 C470 1.376 1_554 S
C470 H433 0.930 . S
C470 C469 1.376 1_556 S
C470 C471 1.376 . S
C471 C470 1.376 . S
C471 C472 1.378 . S
C471 C498 1.486 . S
C472 H434 0.930 . S
C472 C471 1.378 . S
C472 C473 1.376 . S
C473 H435 0.929 . S
C473 C468 1.397 . S
C473 C472 1.376 . S
C474 C458 1.509 . S
C474 C475 1.391 . S
C474 C479 1.386 . S
C475 H436 0.930 . S
C475 C474 1.391 . S
C475 C476 1.375 . S
C476 H437 0.931 . S
C476 C475 1.375 . S
C476 C477 1.375 . S
C477 C476 1.375 . S
C477 C478 1.361 . S
C478 H438 0.930 . S
C478 C477 1.361 . S
C478 C479 1.399 . S
C479 H439 0.929 . S
C479 C474 1.386 . S
C479 C478 1.399 . S
C480 C459 1.485 . S
C480 C481 1.394 . S
C480 C485 1.360 . S
C481 H440 0.931 . S
C481 C480 1.394 . S
C481 C482 1.372 . S
C482 H441 0.930 . S
C482 C481 1.372 . S
C482 C483 1.397 . S
C483 C482 1.397 . S
C483 C484 1.390 . S
C483 C499 1.476 . S
C484 H442 0.930 . S
C484 C483 1.390 . S
C484 C485 1.366 . S
C485 H443 0.932 . S
C485 C480 1.360 . S
C485 C484 1.366 . S
C486 C460 1.490 . S
C486 C487 1.380 . S
C486 C491 1.386 . S
C487 H444 0.930 . S
C487 C486 1.380 . S
C487 C488 1.381 . S
C488 H445 0.929 . S
C488 C487 1.381 . S
C488 C489 1.371 . S
C489 C488 1.371 . S
C489 C490 1.380 . S
C490 H446 0.931 . S
C490 C489 1.380 . S
C490 C491 1.387 . S
C491 H447 0.930 . S
C491 C486 1.386 . S
C491 C490 1.387 . S
C492 C461 1.519 1_556 S
C492 C493 1.377 . S
C492 C497 1.361 . S
C493 H448 0.929 . S
C493 C492 1.377 . S
C493 C494 1.386 . S
C494 H449 0.931 . S
C494 C493 1.386 . S
C494 C495 1.363 . S
C495 C494 1.363 . S
C495 C496 1.385 . S
C496 H450 0.930 . S
C496 C495 1.385 . S
C496 C497 1.396 . S
C497 H451 0.929 . S
C497 C492 1.361 . S
C497 C496 1.396 . S
C498 O452 1.300 . S
C498 O453 1.209 . S
C498 C471 1.486 . S
C499 O454 1.199 . S
C499 O455 1.297 . S
C499 C483 1.476 . S
H500 O526 0.856 . S
H501 O529 0.854 . S
H502 C537 0.930 . S
H503 C538 0.930 . S
H504 C540 0.930 . S
H505 C541 0.930 . S
H506 C543 0.931 . S
H507 C544 0.930 . S
H508 C546 0.930 . S
H509 C547 0.929 . S
H510 C549 0.930 . S
H511 C550 0.931 . S
H512 C552 0.930 . S
H513 C553 0.929 . S
H514 C555 0.931 1_554 S
H515 C556 0.930 . S
H516 C558 0.930 . S
H517 C559 0.932 . S
H518 C561 0.930 . S
H519 C562 0.929 . S
H520 C564 0.931 1_556 S
H521 C565 0.930 . S
H522 C567 0.929 . S
H523 C568 0.931 . S
H524 C570 0.930 . S
H525 C571 0.929 . S
O526 H500 0.856 . S
O526 C572 1.300 . S
O527 C572 1.209 . S
O528 C573 1.199 . S
O529 H501 0.854 . S
O529 C573 1.297 . S
C530 C531 1.404 . S
C530 C535 1.397 . S
C530 C536 1.492 . S
C531 C530 1.404 . S
C531 C532 1.396 . S
C531 C542 1.492 . S
C532 C531 1.396 . S
C532 C533 1.397 . S
C532 C548 1.509 . S
C533 C532 1.397 . S
C533 C534 1.412 . S
C533 C554 1.468 1_554 S
C534 C533 1.412 . S
C534 C535 1.388 . S
C534 C560 1.490 . S
C535 C530 1.397 . S
C535 C534 1.388 . S
C535 C566 1.519 . S
C536 C530 1.492 . S
C536 C537 1.363 . S
C536 C541 1.390 . S
C537 H502 0.930 . S
C537 C536 1.363 . S
C537 C538 1.372 . S
C538 H503 0.930 . S
C538 C537 1.372 . S
C538 C539 1.383 . S
C539 C538 1.383 . S
C539 C540 1.395 . S
C540 H504 0.930 . S
C540 C539 1.395 . S
C540 C541 1.362 . S
C541 H505 0.930 . S
C541 C536 1.390 . S
C541 C540 1.362 . S
C542 C531 1.492 . S
C542 C543 1.377 . S
C542 C547 1.397 . S
C543 H506 0.931 . S
C543 C542 1.377 . S
C543 C544 1.376 . S
C544 H507 0.930 . S
C544 C543 1.376 . S
C544 C545 1.376 . S
C545 C544 1.376 . S
C545 C546 1.378 . S
C545 C572 1.486 . S
C546 H508 0.930 . S
C546 C545 1.378 . S
C546 C547 1.376 . S
C547 H509 0.929 . S
C547 C542 1.397 . S
C547 C546 1.376 . S
C548 C532 1.509 . S
C548 C549 1.391 . S
C548 C553 1.386 . S
C549 H510 0.930 . S
C549 C548 1.391 . S
C549 C550 1.375 1_554 S
C550 H511 0.931 . S
C550 C549 1.375 1_556 S
C550 C551 1.375 . S
C551 C550 1.375 . S
C551 C552 1.361 . S
C552 H512 0.930 . S
C552 C551 1.361 . S
C552 C553 1.399 1_556 S
C553 H513 0.929 . S
C553 C548 1.386 . S
C553 C552 1.399 1_554 S
C554 C533 1.468 1_556 S
C554 C555 1.402 . S
C554 C559 1.370 . S
C555 H514 0.931 1_556 S
C555 C554 1.402 . S
C555 C556 1.372 . S
C556 H515 0.930 . S
C556 C555 1.372 . S
C556 C557 1.397 . S
C557 C556 1.397 . S
C557 C558 1.390 . S
C557 C573 1.476 . S
C558 H516 0.930 . S
C558 C557 1.390 . S
C558 C559 1.366 . S
C559 H517 0.932 . S
C559 C554 1.370 . S
C559 C558 1.366 . S
C560 C534 1.490 . S
C560 C561 1.380 . S
C560 C565 1.386 . S
C561 H518 0.930 . S
C561 C560 1.380 . S
C561 C562 1.381 . S
C562 H519 0.929 . S
C562 C561 1.381 . S
C562 C563 1.371 . S
C563 C562 1.371 . S
C563 C564 1.380 . S
C564 H520 0.931 1_554 S
C564 C563 1.380 . S
C564 C565 1.387 . S
C565 H521 0.930 . S
C565 C560 1.386 . S
C565 C564 1.387 . S
C566 C535 1.519 . S
C566 C567 1.377 . S
C566 C571 1.361 . S
C567 H522 0.929 . S
C567 C566 1.377 . S
C567 C568 1.386 . S
C568 H523 0.931 . S
C568 C567 1.386 . S
C568 C569 1.363 . S
C569 C568 1.363 . S
C569 C570 1.385 . S
C570 H524 0.930 . S
C570 C569 1.385 . S
C570 C571 1.396 . S
C571 H525 0.929 . S
C571 C566 1.361 . S
C571 C570 1.396 . S
C572 O526 1.300 . S
C572 O527 1.209 . S
C572 C545 1.486 . S
C573 O528 1.199 . S
C573 O529 1.297 . S
C573 C557 1.476 . S
H574 O600 0.856 . S
H575 O603 0.854 . S
H576 C611 0.930 . S
H577 C612 0.930 . S
H578 C614 0.930 . S
H579 C615 0.930 . S
H580 C617 0.931 . S
H581 C618 0.930 1_554 S
H582 C620 0.930 . S
H583 C621 0.929 . S
H584 C623 0.930 . S
H585 C624 0.931 . S
H586 C626 0.930 . S
H587 C627 0.929 . S
H588 C629 0.931 . S
H589 C630 0.930 . S
H590 C632 0.930 . S
H591 C633 0.932 . S
H592 C635 0.930 . S
H593 C636 0.929 . S
H594 C638 0.931 . S
H595 C639 0.930 . S
H596 C641 0.929 . S
H597 C642 0.931 . S
H598 C644 0.930 . S
H599 C645 0.929 1_554 S
O600 H574 0.856 . S
O600 C646 1.300 . S
O601 C646 1.209 . S
O602 C647 1.199 . S
O603 H575 0.854 . S
O603 C647 1.297 . S
C604 C605 1.404 . S
C604 C609 1.397 . S
C604 C610 1.492 1_554 S
C605 C604 1.404 . S
C605 C606 1.396 . S
C605 C616 1.492 . S
C606 C605 1.396 . S
C606 C607 1.397 . S
C606 C622 1.509 . S
C607 C606 1.397 . S
C607 C608 1.412 . S
C607 C628 1.485 . S
C608 C607 1.412 . S
C608 C609 1.388 . S
C608 C634 1.490 . S
C609 C604 1.397 . S
C609 C608 1.388 . S
C609 C640 1.519 1_554 S
C610 C604 1.492 1_556 S
C610 C611 1.363 . S
C610 C615 1.390 . S
C611 H576 0.930 . S
C611 C610 1.363 . S
C611 C612 1.372 . S
C612 H577 0.930 . S
C612 C611 1.372 . S
C612 C613 1.383 . S
C613 C612 1.383 . S
C613 C614 1.395 . S
C614 H578 0.930 . S
C614 C613 1.395 . S
C614 C615 1.362 . S
C615 H579 0.930 . S
C615 C610 1.390 . S
C615 C614 1.362 . S
C616 C605 1.492 . S
C616 C617 1.377 . S
C616 C621 1.397 1_554 S
C617 H580 0.931 . S
C617 C616 1.377 . S
C617 C618 1.376 1_554 S
C618 H581 0.930 1_556 S
C618 C617 1.376 1_556 S
C618 C619 1.376 . S
C619 C618 1.376 . S
C619 C620 1.378 . S
C619 C646 1.486 . S
C620 H582 0.930 . S
C620 C619 1.378 . S
C620 C621 1.376 . S
C621 H583 0.929 . S
C621 C616 1.397 1_556 S
C621 C620 1.376 . S
C622 C606 1.509 . S
C622 C623 1.391 . S
C622 C627 1.386 . S
C623 H584 0.930 . S
C623 C622 1.391 . S
C623 C624 1.375 . S
C624 H585 0.931 . S
C624 C623 1.375 . S
C624 C625 1.375 . S
C625 C624 1.375 . S
C625 C626 1.361 . S
C626 H586 0.930 . S
C626 C625 1.361 . S
C626 C627 1.399 . S
C627 H587 0.929 . S
C627 C622 1.386 . S
C627 C626 1.399 . S
C628 C607 1.485 . S
C628 C629 1.394 . S
C628 C633 1.360 . S
C629 H588 0.931 . S
C629 C628 1.394 . S
C629 C630 1.372 . S
C630 H589 0.930 . S
C630 C629 1.372 . S
C630 C631 1.397 . S
C631 C630 1.397 . S
C631 C632 1.390 . S
C631 C647 1.476 . S
C632 H590 0.930 . S
C632 C631 1.390 . S
C632 C633 1.366 . S
C633 H591 0.932 . S
C633 C628 1.360 . S
C633 C632 1.366 . S
C634 C608 1.490 . S
C634 C635 1.380 . S
C634 C639 1.386 . S
C635 H592 0.930 . S
C635 C634 1.380 . S
C635 C636 1.381 . S
C636 H593 0.929 . S
C636 C635 1.381 . S
C636 C637 1.371 . S
C637 C636 1.371 . S
C637 C638 1.380 . S
C638 H594 0.931 . S
C638 C637 1.380 . S
C638 C639 1.387 . S
C639 H595 0.930 . S
C639 C634 1.386 . S
C639 C638 1.387 . S
C640 C609 1.519 1_556 S
C640 C641 1.377 . S
C640 C645 1.361 . S
C641 H596 0.929 . S
C641 C640 1.377 . S
C641 C642 1.386 . S
C642 H597 0.931 . S
C642 C641 1.386 . S
C642 C643 1.363 . S
C643 C642 1.363 . S
C643 C644 1.385 . S
C644 H598 0.930 . S
C644 C643 1.385 . S
C644 C645 1.396 . S
C645 H599 0.929 1_556 S
C645 C640 1.361 . S
C645 C644 1.396 . S
C646 O600 1.300 . S
C646 O601 1.209 . S
C646 C619 1.486 . S
C647 O602 1.199 . S
C647 O603 1.297 . S
C647 C631 1.476 . S
H648 O674 0.866 . S
H649 O677 0.854 . S
H650 C685 0.930 . S
H651 C686 0.930 . S
H652 C688 0.930 . S
H653 C689 0.930 . S
H654 C691 0.931 . S
H655 C692 0.930 . S
H656 C694 0.930 . S
H657 C695 0.929 . S
H658 C697 0.930 . S
H659 C698 0.931 . S
H660 C700 0.930 . S
H661 C701 0.929 . S
H662 C703 0.931 . S
H663 C704 0.930 . S
H664 C706 0.930 . S
H665 C707 0.932 . S
H666 C709 0.930 . S
H667 C710 0.929 . S
H668 C712 0.931 . S
H669 C713 0.930 . S
H670 C715 0.929 . S
H671 C716 0.931 . S
H672 C718 0.930 . S
H673 C719 0.929 . S
O674 H648 0.866 . S
O674 C720 1.300 1_455 S
O675 C720 1.209 . S
O676 C721 1.199 . S
O677 H649 0.854 . S
O677 C721 1.297 . S
C678 C679 1.381 1_655 S
C678 C683 1.392 1_655 S
C678 C684 1.519 . S
C679 C678 1.381 1_455 S
C679 C680 1.396 . S
C679 C690 1.492 . S
C680 C679 1.396 . S
C680 C681 1.397 . S
C680 C696 1.509 . S
C681 C680 1.397 . S
C681 C682 1.412 . S
C681 C702 1.485 . S
C682 C681 1.412 . S
C682 C683 1.388 . S
C682 C708 1.490 . S
C683 C678 1.392 1_455 S
C683 C682 1.388 . S
C683 C714 1.519 1_455 S
C684 C678 1.519 . S
C684 C685 1.363 . S
C684 C689 1.390 . S
C685 H650 0.930 . S
C685 C684 1.363 . S
C685 C686 1.372 . S
C686 H651 0.930 . S
C686 C685 1.372 . S
C686 C687 1.383 . S
C687 C686 1.383 . S
C687 C688 1.395 . S
C688 H652 0.930 . S
C688 C687 1.395 . S
C688 C689 1.362 . S
C689 H653 0.930 . S
C689 C684 1.390 . S
C689 C688 1.362 . S
C690 C679 1.492 . S
C690 C691 1.377 . S
C690 C695 1.397 1_455 S
C691 H654 0.931 . S
C691 C690 1.377 . S
C691 C692 1.376 . S
C692 H655 0.930 . S
C692 C691 1.376 . S
C692 C693 1.367 1_455 S
C693 C692 1.367 1_655 S
C693 C694 1.385 . S
C693 C720 1.489 . S
C694 H656 0.930 . S
C694 C693 1.385 . S
C694 C695 1.376 . S
C695 H657 0.929 . S
C695 C690 1.397 1_655 S
C695 C694 1.376 . S
C696 C680 1.509 . S
C696 C697 1.391 . S
C696 C701 1.386 . S
C697 H658 0.930 . S
C697 C696 1.391 . S
C697 C698 1.375 . S
C698 H659 0.931 . S
C698 C697 1.375 . S
C698 C699 1.375 . S
C699 C698 1.375 . S
C699 C700 1.361 . S
C700 H660 0.930 . S
C700 C699 1.361 . S
C700 C701 1.399 . S
C701 H661 0.929 . S
C701 C696 1.386 . S
C701 C700 1.399 . S
C702 C681 1.485 . S
C702 C703 1.394 . S
C702 C707 1.360 . S
C703 H662 0.931 . S
C703 C702 1.394 . S
C703 C704 1.372 . S
C704 H663 0.930 . S
C704 C703 1.372 . S
C704 C705 1.397 . S
C705 C704 1.397 . S
C705 C706 1.390 . S
C705 C721 1.476 . S
C706 H664 0.930 . S
C706 C705 1.390 . S
C706 C707 1.366 . S
C707 H665 0.932 . S
C707 C702 1.360 . S
C707 C706 1.366 . S
C708 C682 1.490 . S
C708 C709 1.380 . S
C708 C713 1.386 . S
C709 H666 0.930 . S
C709 C708 1.380 . S
C709 C710 1.381 . S
C710 H667 0.929 . S
C710 C709 1.381 . S
C710 C711 1.371 . S
C711 C710 1.371 . S
C711 C712 1.380 . S
C712 H668 0.931 . S
C712 C711 1.380 . S
C712 C713 1.387 . S
C713 H669 0.930 . S
C713 C708 1.386 . S
C713 C712 1.387 . S
C714 C683 1.519 1_655 S
C714 C715 1.377 . S
C714 C719 1.361 . S
C715 H670 0.929 . S
C715 C714 1.377 . S
C715 C716 1.386 . S
C716 H671 0.931 . S
C716 C715 1.386 . S
C716 C717 1.363 . S
C717 C716 1.363 . S
C717 C718 1.385 . S
C718 H672 0.930 . S
C718 C717 1.385 . S
C718 C719 1.396 . S
C719 H673 0.929 . S
C719 C714 1.361 . S
C719 C718 1.396 . S
C720 O674 1.300 1_655 S
C720 O675 1.209 . S
C720 C693 1.489 . S
C721 O676 1.199 . S
C721 O677 1.297 . S
C721 C705 1.476 . S
H722 O748 0.855 . S
H723 O751 0.854 . S
H724 C759 0.930 . S
H725 C760 0.930 . S
H726 C762 0.930 . S
H727 C763 0.930 . S
H728 C765 0.931 . S
H729 C766 0.930 . S
H730 C768 0.907 1_565 S
H731 C769 0.929 . S
H732 C771 0.930 . S
H733 C772 0.931 . S
H734 C774 0.930 . S
H735 C775 0.929 . S
H736 C777 0.931 . S
H737 C778 0.930 . S
H738 C780 0.930 . S
H739 C781 0.932 . S
H740 C783 0.930 . S
H741 C784 0.929 . S
H742 C786 0.931 . S
H743 C787 0.930 . S
H744 C789 0.929 . S
H745 C790 0.931 . S
H746 C792 0.930 . S
H747 C793 0.939 . S
O748 H722 0.855 . S
O748 C794 1.289 1_545 S
O749 C794 1.229 . S
O750 C795 1.199 . S
O751 H723 0.854 . S
O751 C795 1.297 . S
C752 C753 1.404 . S
C752 C757 1.397 . S
C752 C758 1.492 1_545 S
C753 C752 1.404 . S
C753 C754 1.396 . S
C753 C764 1.492 . S
C754 C753 1.396 . S
C754 C755 1.397 . S
C754 C770 1.509 . S
C755 C754 1.397 . S
C755 C756 1.412 . S
C755 C776 1.485 . S
C756 C755 1.412 . S
C756 C757 1.388 . S
C756 C782 1.490 . S
C757 C752 1.397 . S
C757 C756 1.388 . S
C757 C788 1.519 1_545 S
C758 C752 1.492 1_565 S
C758 C759 1.363 . S
C758 C763 1.390 . S
C759 H724 0.930 . S
C759 C758 1.363 . S
C759 C760 1.372 . S
C760 H725 0.930 . S
C760 C759 1.372 . S
C760 C761 1.383 . S
C761 C760 1.383 . S
C761 C762 1.395 . S
C762 H726 0.930 . S
C762 C761 1.395 . S
C762 C763 1.362 . S
C763 H727 0.930 . S
C763 C758 1.390 . S
C763 C762 1.362 . S
C764 C753 1.492 . S
C764 C765 1.377 . S
C764 C769 1.397 . S
C765 H728 0.931 . S
C765 C764 1.377 . S
C765 C766 1.376 . S
C766 H729 0.930 . S
C766 C765 1.376 . S
C766 C767 1.376 . S
C767 C766 1.376 . S
C767 C768 1.378 . S
C767 C794 1.475 1_545 S
C768 H730 0.907 1_545 S
C768 C767 1.378 . S
C768 C769 1.376 . S
C769 H731 0.929 . S
C769 C764 1.397 . S
C769 C768 1.376 . S
C770 C754 1.509 . S
C770 C771 1.391 . S
C770 C775 1.386 . S
C771 H732 0.930 . S
C771 C770 1.391 . S
C771 C772 1.375 . S
C772 H733 0.931 . S
C772 C771 1.375 . S
C772 C773 1.375 . S
C773 C772 1.375 . S
C773 C774 1.361 . S
C774 H734 0.930 . S
C774 C773 1.361 . S
C774 C775 1.399 . S
C775 H735 0.929 . S
C775 C770 1.386 . S
C775 C774 1.399 . S
C776 C755 1.485 . S
C776 C777 1.394 . S
C776 C781 1.360 . S
C777 H736 0.931 . S
C777 C776 1.394 . S
C777 C778 1.372 . S
C778 H737 0.930 . S
C778 C777 1.372 . S
C778 C779 1.397 . S
C779 C778 1.397 . S
C779 C780 1.390 . S
C779 C795 1.476 . S
C780 H738 0.930 . S
C780 C779 1.390 . S
C780 C781 1.366 . S
C781 H739 0.932 . S
C781 C776 1.360 . S
C781 C780 1.366 . S
C782 C756 1.490 . S
C782 C783 1.380 . S
C782 C787 1.386 . S
C783 H740 0.930 . S
C783 C782 1.380 . S
C783 C784 1.381 . S
C784 H741 0.929 . S
C784 C783 1.381 . S
C784 C785 1.371 . S
C785 C784 1.371 . S
C785 C786 1.380 . S
C786 H742 0.931 . S
C786 C785 1.380 . S
C786 C787 1.387 . S
C787 H743 0.930 . S
C787 C782 1.386 . S
C787 C786 1.387 . S
C788 C757 1.519 1_565 S
C788 C789 1.377 . S
C788 C793 1.361 1_565 S
C789 H744 0.929 . S
C789 C788 1.377 . S
C789 C790 1.386 . S
C790 H745 0.931 . S
C790 C789 1.386 . S
C790 C791 1.363 . S
C791 C790 1.363 . S
C791 C792 1.385 . S
C792 H746 0.930 . S
C792 C791 1.385 . S
C792 C793 1.386 1_565 S
C793 H747 0.939 . S
C793 C788 1.361 1_545 S
C793 C792 1.386 1_545 S
C794 O748 1.289 1_565 S
C794 O749 1.229 . S
C794 C767 1.475 1_565 S
C795 O750 1.199 . S
C795 O751 1.297 . S
C795 C779 1.476 . S
H796 O822 0.856 . S
H797 O825 0.854 . S
H798 C833 0.930 . S
H799 C834 0.930 . S
H800 C836 0.930 . S
H801 C837 0.930 . S
H802 C839 0.931 . S
H803 C840 0.930 . S
H804 C842 0.930 . S
H805 C843 0.929 . S
H806 C845 0.930 . S
H807 C846 0.931 . S
H808 C848 0.930 . S
H809 C849 0.929 . S
H810 C851 0.931 . S
H811 C852 0.930 . S
H812 C854 0.930 . S
H813 C855 0.932 . S
H814 C857 0.930 . S
H815 C858 0.929 . S
H816 C860 0.931 . S
H817 C861 0.930 . S
H818 C863 0.929 . S
H819 C864 0.931 . S
H820 C866 0.930 . S
H821 C867 0.929 . S
O822 H796 0.856 . S
O822 C868 1.300 . S
O823 C868 1.209 . S
O824 C869 1.199 . S
O825 H797 0.854 . S
O825 C869 1.297 . S
C826 C827 1.404 . S
C826 C831 1.397 . S
C826 C832 1.492 . S
C827 C826 1.404 . S
C827 C828 1.396 . S
C827 C838 1.492 . S
C828 C827 1.396 . S
C828 C829 1.397 . S
C828 C844 1.509 . S
C829 C828 1.397 . S
C829 C830 1.412 . S
C829 C850 1.485 1_455 S
C830 C829 1.412 . S
C830 C831 1.388 . S
C830 C856 1.490 . S
C831 C826 1.397 . S
C831 C830 1.388 . S
C831 C862 1.519 . S
C832 C826 1.492 . S
C832 C833 1.363 . S
C832 C837 1.390 . S
C833 H798 0.930 . S
C833 C832 1.363 . S
C833 C834 1.372 . S
C834 H799 0.930 . S
C834 C833 1.372 . S
C834 C835 1.383 . S
C835 C834 1.383 . S
C835 C836 1.395 . S
C836 H800 0.930 . S
C836 C835 1.395 . S
C836 C837 1.362 . S
C837 H801 0.930 . S
C837 C832 1.390 . S
C837 C836 1.362 . S
C838 C827 1.492 . S
C838 C839 1.377 . S
C838 C843 1.397 . S
C839 H802 0.931 . S
C839 C838 1.377 . S
C839 C840 1.376 . S
C840 H803 0.930 . S
C840 C839 1.376 . S
C840 C841 1.376 . S
C841 C840 1.376 . S
C841 C842 1.378 . S
C841 C868 1.486 . S
C842 H804 0.930 . S
C842 C841 1.378 . S
C842 C843 1.376 . S
C843 H805 0.929 . S
C843 C838 1.397 . S
C843 C842 1.376 . S
C844 C828 1.509 . S
C844 C845 1.391 . S
C844 C849 1.386 . S
C845 H806 0.930 . S
C845 C844 1.391 . S
C845 C846 1.375 1_455 S
C846 H807 0.931 . S
C846 C845 1.375 1_655 S
C846 C847 1.375 . S
C847 C846 1.375 . S
C847 C848 1.361 . S
C848 H808 0.930 . S
C848 C847 1.361 . S
C848 C849 1.399 1_655 S
C849 H809 0.929 . S
C849 C844 1.386 . S
C849 C848 1.399 1_455 S
C850 C829 1.485 1_655 S
C850 C851 1.394 . S
C850 C855 1.360 . S
C851 H810 0.931 . S
C851 C850 1.394 . S
C851 C852 1.372 . S
C852 H811 0.930 . S
C852 C851 1.372 . S
C852 C853 1.397 . S
C853 C852 1.397 . S
C853 C854 1.390 . S
C853 C869 1.476 . S
C854 H812 0.930 . S
C854 C853 1.390 . S
C854 C855 1.366 . S
C855 H813 0.932 . S
C855 C850 1.360 . S
C855 C854 1.366 . S
C856 C830 1.490 . S
C856 C857 1.380 . S
C856 C861 1.386 . S
C857 H814 0.930 . S
C857 C856 1.380 . S
C857 C858 1.381 . S
C858 H815 0.929 . S
C858 C857 1.381 . S
C858 C859 1.371 . S
C859 C858 1.371 . S
C859 C860 1.380 . S
C860 H816 0.931 . S
C860 C859 1.380 . S
C860 C861 1.387 . S
C861 H817 0.930 . S
C861 C856 1.386 . S
C861 C860 1.387 . S
C862 C831 1.519 . S
C862 C863 1.377 . S
C862 C867 1.361 . S
C863 H818 0.929 . S
C863 C862 1.377 . S
C863 C864 1.386 . S
C864 H819 0.931 . S
C864 C863 1.386 . S
C864 C865 1.363 . S
C865 C864 1.363 . S
C865 C866 1.385 . S
C866 H820 0.930 . S
C866 C865 1.385 . S
C866 C867 1.396 . S
C867 H821 0.929 . S
C867 C862 1.361 . S
C867 C866 1.396 . S
C868 O822 1.300 . S
C868 O823 1.209 . S
C868 C841 1.486 . S
C869 O824 1.199 . S
C869 O825 1.297 . S
C869 C853 1.476 . S
H870 O896 0.856 . S
H871 O899 0.854 . S
H872 C907 0.930 . S
H873 C908 0.930 . S
H874 C910 0.930 . S
H875 C911 0.930 . S
H876 C913 0.931 1_565 S
H877 C914 0.930 . S
H878 C916 0.930 . S
H879 C917 0.929 . S
H880 C919 0.930 . S
H881 C920 0.931 . S
H882 C922 0.930 . S
H883 C923 0.929 . S
H884 C925 0.931 . S
H885 C926 0.930 . S
H886 C928 0.930 . S
H887 C929 0.932 . S
H888 C931 0.902 1_545 S
H889 C932 0.927 1_545 S
H890 C934 0.931 . S
H891 C935 0.930 . S
H892 C937 0.929 . S
H893 C938 0.931 . S
H894 C940 0.930 . S
H895 C941 0.929 . S
O896 H870 0.856 . S
O896 C942 1.300 . S
O897 C942 1.209 . S
O898 C943 1.199 . S
O899 H871 0.854 . S
O899 C943 1.297 . S
C900 C901 1.404 . S
C900 C905 1.397 . S
C900 C906 1.492 . S
C901 C900 1.404 . S
C901 C902 1.396 1_545 S
C901 C912 1.492 . S
C902 C901 1.396 1_565 S
C902 C903 1.397 . S
C902 C918 1.509 . S
C903 C902 1.397 . S
C903 C904 1.412 . S
C903 C924 1.485 . S
C904 C903 1.412 . S
C904 C905 1.388 1_565 S
C904 C930 1.490 . S
C905 C900 1.397 . S
C905 C904 1.388 1_545 S
C905 C936 1.519 . S
C906 C900 1.492 . S
C906 C907 1.363 . S
C906 C911 1.390 . S
C907 H872 0.930 . S
C907 C906 1.363 . S
C907 C908 1.372 . S
C908 H873 0.930 . S
C908 C907 1.372 . S
C908 C909 1.383 . S
C909 C908 1.383 . S
C909 C910 1.395 . S
C910 H874 0.930 . S
C910 C909 1.395 . S
C910 C911 1.362 . S
C911 H875 0.930 . S
C911 C906 1.390 . S
C911 C910 1.362 . S
C912 C901 1.492 . S
C912 C913 1.377 . S
C912 C917 1.397 . S
C913 H876 0.931 1_545 S
C913 C912 1.377 . S
C913 C914 1.376 . S
C914 H877 0.930 . S
C914 C913 1.376 . S
C914 C915 1.376 . S
C915 C914 1.376 . S
C915 C916 1.378 . S
C915 C942 1.486 . S
C916 H878 0.930 . S
C916 C915 1.378 . S
C916 C917 1.376 . S
C917 H879 0.929 . S
C917 C912 1.397 . S
C917 C916 1.376 . S
C918 C902 1.509 . S
C918 C919 1.391 . S
C918 C923 1.386 . S
C919 H880 0.930 . S
C919 C918 1.391 . S
C919 C920 1.375 . S
C920 H881 0.931 . S
C920 C919 1.375 . S
C920 C921 1.375 . S
C921 C920 1.375 . S
C921 C922 1.361 . S
C922 H882 0.930 . S
C922 C921 1.361 . S
C922 C923 1.399 . S
C923 H883 0.929 . S
C923 C918 1.386 . S
C923 C922 1.399 . S
C924 C903 1.485 . S
C924 C925 1.394 . S
C924 C929 1.360 . S
C925 H884 0.931 . S
C925 C924 1.394 . S
C925 C926 1.372 . S
C926 H885 0.930 . S
C926 C925 1.372 . S
C926 C927 1.397 . S
C927 C926 1.397 . S
C927 C928 1.390 . S
C927 C943 1.476 . S
C928 H886 0.930 . S
C928 C927 1.390 . S
C928 C929 1.366 . S
C929 H887 0.932 . S
C929 C924 1.360 . S
C929 C928 1.366 . S
C930 C904 1.490 . S
C930 C931 1.393 . S
C930 C935 1.386 . S
C931 H888 0.902 1_565 S
C931 C930 1.393 . S
C931 C932 1.398 . S
C932 H889 0.927 1_565 S
C932 C931 1.398 . S
C932 C933 1.371 . S
C933 C932 1.371 . S
C933 C934 1.380 . S
C934 H890 0.931 . S
C934 C933 1.380 . S
C934 C935 1.387 . S
C935 H891 0.930 . S
C935 C930 1.386 . S
C935 C934 1.387 . S
C936 C905 1.519 . S
C936 C937 1.377 . S
C936 C941 1.361 . S
C937 H892 0.929 . S
C937 C936 1.377 . S
C937 C938 1.386 . S
C938 H893 0.931 . S
C938 C937 1.386 . S
C938 C939 1.363 . S
C939 C938 1.363 . S
C939 C940 1.385 . S
C940 H894 0.930 . S
C940 C939 1.385 . S
C940 C941 1.396 . S
C941 H895 0.929 . S
C941 C936 1.361 . S
C941 C940 1.396 . S
C942 O896 1.300 . S
C942 O897 1.209 . S
C942 C915 1.486 . S
C943 O898 1.199 . S
C943 O899 1.297 . S
C943 C927 1.476 . S
H944 O970 0.856 . S
H945 O973 0.854 . S
H946 C981 0.930 . S
H947 C982 0.930 . S
H948 C984 0.930 . S
H949 C985 0.930 . S
H950 C987 0.931 . S
H951 C988 0.930 . S
H952 C990 0.930 . S
H953 C991 0.929 . S
H954 C993 0.930 . S
H955 C994 0.931 . S
H956 C996 0.930 . S
H957 C997 0.929 . S
H958 C999 0.931 . S
H959 C1000 0.930 . S
H960 C1002 0.930 . S
H961 C1003 0.932 . S
H962 C1005 0.930 . S
H963 C1006 0.929 . S
H964 C1008 0.931 . S
H965 C1009 0.930 . S
H966 C1011 0.929 . S
H967 C1012 0.931 . S
H968 C1014 0.930 . S
H969 C1015 0.929 1_455 S
O970 H944 0.856 . S
O970 C1016 1.300 . S
O971 C1016 1.209 . S
O972 C1017 1.199 . S
O973 H945 0.854 . S
O973 C1017 1.297 . S
C974 C975 1.404 . S
C974 C979 1.397 . S
C974 C980 1.492 1_455 S
C975 C974 1.404 . S
C975 C976 1.396 . S
C975 C986 1.492 . S
C976 C975 1.396 . S
C976 C977 1.397 . S
C976 C992 1.509 . S
C977 C976 1.397 . S
C977 C978 1.412 . S
C977 C998 1.485 . S
C978 C977 1.412 . S
C978 C979 1.388 . S
C978 C1004 1.490 . S
C979 C974 1.397 . S
C979 C978 1.388 . S
C979 C1010 1.519 1_455 S
C980 C974 1.492 1_655 S
C980 C981 1.363 . S
C980 C985 1.390 . S
C981 H946 0.930 . S
C981 C980 1.363 . S
C981 C982 1.372 . S
C982 H947 0.930 . S
C982 C981 1.372 . S
C982 C983 1.383 . S
C983 C982 1.383 . S
C983 C984 1.395 . S
C984 H948 0.930 . S
C984 C983 1.395 . S
C984 C985 1.362 . S
C985 H949 0.930 . S
C985 C980 1.390 . S
C985 C984 1.362 . S
C986 C975 1.492 . S
C986 C987 1.377 . S
C986 C991 1.397 . S
C987 H950 0.931 . S
C987 C986 1.377 . S
C987 C988 1.376 . S
C988 H951 0.930 . S
C988 C987 1.376 . S
C988 C989 1.376 . S
C989 C988 1.376 . S
C989 C990 1.378 . S
C989 C1016 1.486 . S
C990 H952 0.930 . S
C990 C989 1.378 . S
C990 C991 1.376 . S
C991 H953 0.929 . S
C991 C986 1.397 . S
C991 C990 1.376 . S
C992 C976 1.509 . S
C992 C993 1.391 . S
C992 C997 1.386 . S
C993 H954 0.930 . S
C993 C992 1.391 . S
C993 C994 1.375 . S
C994 H955 0.931 . S
C994 C993 1.375 . S
C994 C995 1.375 . S
C995 C994 1.375 . S
C995 C996 1.361 . S
C996 H956 0.930 . S
C996 C995 1.361 . S
C996 C997 1.399 . S
C997 H957 0.929 . S
C997 C992 1.386 . S
C997 C996 1.399 . S
C998 C977 1.485 . S
C998 C999 1.394 . S
C998 C1003 1.360 . S
C999 H958 0.931 . S
C999 C998 1.394 . S
C999 C1000 1.372 . S
C1000 H959 0.930 . S
C1000 C999 1.372 . S
C1000 C1001 1.397 . S
C1001 C1000 1.397 . S
C1001 C1002 1.390 . S
C1001 C1017 1.476 . S
C1002 H960 0.930 . S
C1002 C1001 1.390 . S
C1002 C1003 1.366 . S
C1003 H961 0.932 . S
C1003 C998 1.360 . S
C1003 C1002 1.366 . S
C1004 C978 1.490 . S
C1004 C1005 1.380 . S
C1004 C1009 1.386 . S
C1005 H962 0.930 . S
C1005 C1004 1.380 . S
C1005 C1006 1.381 . S
C1006 H963 0.929 . S
C1006 C1005 1.381 . S
C1006 C1007 1.371 . S
C1007 C1006 1.371 . S
C1007 C1008 1.380 . S
C1008 H964 0.931 . S
C1008 C1007 1.380 . S
C1008 C1009 1.387 . S
C1009 H965 0.930 . S
C1009 C1004 1.386 . S
C1009 C1008 1.387 . S
C1010 C979 1.519 1_655 S
C1010 C1011 1.377 . S
C1010 C1015 1.361 . S
C1011 H966 0.929 . S
C1011 C1010 1.377 . S
C1011 C1012 1.386 . S
C1012 H967 0.931 . S
C1012 C1011 1.386 . S
C1012 C1013 1.363 . S
C1013 C1012 1.363 . S
C1013 C1014 1.385 . S
C1014 H968 0.930 . S
C1014 C1013 1.385 . S
C1014 C1015 1.396 . S
C1015 H969 0.929 1_655 S
C1015 C1010 1.361 . S
C1015 C1014 1.396 . S
C1016 O970 1.300 . S
C1016 O971 1.209 . S
C1016 C989 1.486 . S
C1017 O972 1.199 . S
C1017 O973 1.297 . S
C1017 C1001 1.476 . S
H1018 O1044 0.856 . S
H1019 O1047 0.854 . S
H1020 C1055 0.930 . S
H1021 C1056 0.930 . S
H1022 C1058 0.930 . S
H1023 C1059 0.930 . S
H1024 C1061 0.931 . S
H1025 C1062 0.930 . S
H1026 C1064 0.930 . S
H1027 C1065 0.929 . S
H1028 C1067 0.930 . S
H1029 C1068 0.931 . S
H1030 C1070 0.930 . S
H1031 C1071 0.929 . S
H1032 C1073 0.931 . S
H1033 C1074 0.930 . S
H1034 C1076 0.930 . S
H1035 C1077 0.932 . S
H1036 C1079 0.930 . S
H1037 C1080 0.929 . S
H1038 C1082 0.931 . S
H1039 C1083 0.930 . S
H1040 C1085 0.929 . S
H1041 C1086 0.931 . S
H1042 C1088 0.930 . S
H1043 C1089 0.929 . S
O1044 H1018 0.856 . S
O1044 C1090 1.300 . S
O1045 C1090 1.185 1_565 S
O1046 C1091 1.199 . S
O1047 H1019 0.854 . S
O1047 C1091 1.297 . S
C1048 C1049 1.404 . S
C1048 C1053 1.397 . S
C1048 C1054 1.492 1_545 S
C1049 C1048 1.404 . S
C1049 C1050 1.396 . S
C1049 C1060 1.492 . S
C1050 C1049 1.396 . S
C1050 C1051 1.397 . S
C1050 C1066 1.509 . S
C1051 C1050 1.397 . S
C1051 C1052 1.412 . S
C1051 C1072 1.485 . S
C1052 C1051 1.412 . S
C1052 C1053 1.388 . S
C1052 C1078 1.490 . S
C1053 C1048 1.397 . S
C1053 C1052 1.388 . S
C1053 C1084 1.519 . S
C1054 C1048 1.492 1_565 S
C1054 C1055 1.363 . S
C1054 C1059 1.390 . S
C1055 H1020 0.930 . S
C1055 C1054 1.363 . S
C1055 C1056 1.372 . S
C1056 H1021 0.930 . S
C1056 C1055 1.372 . S
C1056 C1057 1.383 . S
C1057 C1056 1.383 . S
C1057 C1058 1.395 . S
C1058 H1022 0.930 . S
C1058 C1057 1.395 . S
C1058 C1059 1.362 . S
C1059 H1023 0.930 . S
C1059 C1054 1.390 . S
C1059 C1058 1.362 . S
C1060 C1049 1.492 . S
C1060 C1061 1.377 . S
C1060 C1065 1.397 . S
C1061 H1024 0.931 . S
C1061 C1060 1.377 . S
C1061 C1062 1.376 . S
C1062 H1025 0.930 . S
C1062 C1061 1.376 . S
C1062 C1063 1.376 . S
C1063 C1062 1.376 . S
C1063 C1064 1.378 . S
C1063 C1090 1.486 . S
C1064 H1026 0.930 . S
C1064 C1063 1.378 . S
C1064 C1065 1.376 . S
C1065 H1027 0.929 . S
C1065 C1060 1.397 . S
C1065 C1064 1.376 . S
C1066 C1050 1.509 . S
C1066 C1067 1.391 . S
C1066 C1071 1.386 . S
C1067 H1028 0.930 . S
C1067 C1066 1.391 . S
C1067 C1068 1.375 . S
C1068 H1029 0.931 . S
C1068 C1067 1.375 . S
C1068 C1069 1.375 . S
C1069 C1068 1.375 . S
C1069 C1070 1.361 . S
C1070 H1030 0.930 . S
C1070 C1069 1.361 . S
C1070 C1071 1.399 . S
C1071 H1031 0.929 . S
C1071 C1066 1.386 . S
C1071 C1070 1.399 . S
C1072 C1051 1.485 . S
C1072 C1073 1.394 . S
C1072 C1077 1.360 . S
C1073 H1032 0.931 . S
C1073 C1072 1.394 . S
C1073 C1074 1.372 . S
C1074 H1033 0.930 . S
C1074 C1073 1.372 . S
C1074 C1075 1.397 . S
C1075 C1074 1.397 . S
C1075 C1076 1.390 . S
C1075 C1091 1.476 . S
C1076 H1034 0.930 . S
C1076 C1075 1.390 . S
C1076 C1077 1.366 . S
C1077 H1035 0.932 . S
C1077 C1072 1.360 . S
C1077 C1076 1.366 . S
C1078 C1052 1.490 . S
C1078 C1079 1.380 . S
C1078 C1083 1.386 . S
C1079 H1036 0.930 . S
C1079 C1078 1.380 . S
C1079 C1080 1.381 . S
C1080 H1037 0.929 . S
C1080 C1079 1.381 . S
C1080 C1081 1.371 . S
C1081 C1080 1.371 . S
C1081 C1082 1.380 . S
C1082 H1038 0.931 . S
C1082 C1081 1.380 . S
C1082 C1083 1.387 . S
C1083 H1039 0.930 . S
C1083 C1078 1.386 . S
C1083 C1082 1.387 . S
C1084 C1053 1.519 . S
C1084 C1085 1.377 1_545 S
C1084 C1089 1.361 . S
C1085 H1040 0.929 . S
C1085 C1084 1.377 1_565 S
C1085 C1086 1.386 . S
C1086 H1041 0.931 . S
C1086 C1085 1.386 . S
C1086 C1087 1.363 . S
C1087 C1086 1.363 . S
C1087 C1088 1.385 . S
C1088 H1042 0.930 . S
C1088 C1087 1.385 . S
C1088 C1089 1.396 1_565 S
C1089 H1043 0.929 . S
C1089 C1084 1.361 . S
C1089 C1088 1.396 1_545 S
C1090 O1044 1.300 . S
C1090 O1045 1.185 1_545 S
C1090 C1063 1.486 . S
C1091 O1046 1.199 . S
C1091 O1047 1.297 . S
C1091 C1075 1.476 . S
H1092 O1118 0.871 . S
H1093 O1121 0.854 . S
H1094 C1129 0.930 . S
H1095 C1130 0.930 . S
H1096 C1132 0.930 . S
H1097 C1133 0.930 . S
H1098 C1135 0.931 . S
H1099 C1136 0.930 . S
H1100 C1138 0.904 1_655 S
H1101 C1139 0.929 . S
H1102 C1141 0.930 . S
H1103 C1142 0.931 . S
H1104 C1144 0.930 . S
H1105 C1145 0.929 . S
H1106 C1147 0.931 . S
H1107 C1148 0.930 . S
H1108 C1150 0.930 . S
H1109 C1151 0.932 . S
H1110 C1153 0.930 . S
H1111 C1154 0.929 . S
H1112 C1156 0.931 . S
H1113 C1157 0.930 . S
H1114 C1159 0.929 . S
H1115 C1160 0.931 . S
H1116 C1162 0.940 . S
H1117 C1163 0.929 . S
O1118 H1092 0.871 . S
O1118 C1164 1.316 . S
O1119 C1164 1.209 . S
O1120 C1165 1.199 . S
O1121 H1093 0.854 . S
O1121 C1165 1.297 . S
C1122 C1123 1.404 . S
C1122 C1127 1.397 . S
C1122 C1128 1.492 1_455 S
C1123 C1122 1.404 . S
C1123 C1124 1.396 . S
C1123 C1134 1.492 . S
C1124 C1123 1.396 . S
C1124 C1125 1.397 . S
C1124 C1140 1.509 . S
C1125 C1124 1.397 . S
C1125 C1126 1.412 . S
C1125 C1146 1.485 . S
C1126 C1125 1.412 . S
C1126 C1127 1.388 . S
C1126 C1152 1.490 . S
C1127 C1122 1.397 . S
C1127 C1126 1.388 . S
C1127 C1158 1.519 . S
C1128 C1122 1.492 1_655 S
C1128 C1129 1.363 . S
C1128 C1133 1.390 . S
C1129 H1094 0.930 . S
C1129 C1128 1.363 . S
C1129 C1130 1.372 . S
C1130 H1095 0.930 . S
C1130 C1129 1.372 . S
C1130 C1131 1.383 . S
C1131 C1130 1.383 . S
C1131 C1132 1.395 . S
C1132 H1096 0.930 . S
C1132 C1131 1.395 . S
C1132 C1133 1.362 . S
C1133 H1097 0.930 . S
C1133 C1128 1.390 . S
C1133 C1132 1.362 . S
C1134 C1123 1.492 . S
C1134 C1135 1.377 . S
C1134 C1139 1.397 . S
C1135 H1098 0.931 . S
C1135 C1134 1.377 . S
C1135 C1136 1.376 . S
C1136 H1099 0.930 . S
C1136 C1135 1.376 . S
C1136 C1137 1.376 . S
C1137 C1136 1.376 . S
C1137 C1138 1.390 . S
C1137 C1164 1.486 1_455 S
C1138 H1100 0.904 1_455 S
C1138 C1137 1.390 . S
C1138 C1139 1.392 . S
C1139 H1101 0.929 . S
C1139 C1134 1.397 . S
C1139 C1138 1.392 . S
C1140 C1124 1.509 . S
C1140 C1141 1.391 . S
C1140 C1145 1.386 . S
C1141 H1102 0.930 . S
C1141 C1140 1.391 . S
C1141 C1142 1.375 . S
C1142 H1103 0.931 . S
C1142 C1141 1.375 . S
C1142 C1143 1.375 . S
C1143 C1142 1.375 . S
C1143 C1144 1.361 . S
C1144 H1104 0.930 . S
C1144 C1143 1.361 . S
C1144 C1145 1.399 . S
C1145 H1105 0.929 . S
C1145 C1140 1.386 . S
C1145 C1144 1.399 . S
C1146 C1125 1.485 . S
C1146 C1147 1.394 . S
C1146 C1151 1.360 . S
C1147 H1106 0.931 . S
C1147 C1146 1.394 . S
C1147 C1148 1.372 . S
C1148 H1107 0.930 . S
C1148 C1147 1.372 . S
C1148 C1149 1.397 . S
C1149 C1148 1.397 . S
C1149 C1150 1.390 . S
C1149 C1165 1.476 . S
C1150 H1108 0.930 . S
C1150 C1149 1.390 . S
C1150 C1151 1.366 . S
C1151 H1109 0.932 . S
C1151 C1146 1.360 . S
C1151 C1150 1.366 . S
C1152 C1126 1.490 . S
C1152 C1153 1.380 . S
C1152 C1157 1.386 . S
C1153 H1110 0.930 . S
C1153 C1152 1.380 . S
C1153 C1154 1.381 . S
C1154 H1111 0.929 . S
C1154 C1153 1.381 . S
C1154 C1155 1.371 . S
C1155 C1154 1.371 . S
C1155 C1156 1.380 . S
C1156 H1112 0.931 . S
C1156 C1155 1.380 . S
C1156 C1157 1.387 . S
C1157 H1113 0.930 . S
C1157 C1152 1.386 . S
C1157 C1156 1.387 . S
C1158 C1127 1.519 . S
C1158 C1159 1.377 . S
C1158 C1163 1.361 . S
C1159 H1114 0.929 . S
C1159 C1158 1.377 . S
C1159 C1160 1.386 1_455 S
C1160 H1115 0.931 . S
C1160 C1159 1.386 1_655 S
C1160 C1161 1.363 . S
C1161 C1160 1.363 . S
C1161 C1162 1.385 1_655 S
C1162 H1116 0.940 . S
C1162 C1161 1.385 1_455 S
C1162 C1163 1.396 . S
C1163 H1117 0.929 . S
C1163 C1158 1.361 . S
C1163 C1162 1.396 . S
C1164 O1118 1.316 . S
C1164 O1119 1.209 . S
C1164 C1137 1.486 1_655 S
C1165 O1120 1.199 . S
C1165 O1121 1.297 . S
C1165 C1149 1.476 . S
H1166 O1192 0.856 . S
H1167 O1195 0.854 . S
H1168 C1203 0.930 . S
H1169 C1204 0.930 . S
H1170 C1206 0.930 . S
H1171 C1207 0.930 . S
H1172 C1209 0.901 1_565 S
H1173 C1210 0.920 1_565 S
H1174 C1212 0.930 . S
H1175 C1213 0.929 . S
H1176 C1215 0.930 . S
H1177 C1216 0.931 . S
H1178 C1218 0.930 . S
H1179 C1219 0.929 . S
H1180 C1221 0.931 . S
H1181 C1222 0.930 . S
H1182 C1224 0.930 . S
H1183 C1225 0.932 . S
H1184 C1227 0.930 . S
H1185 C1228 0.929 . S
H1186 C1230 0.931 . S
H1187 C1231 0.930 . S
H1188 C1233 0.929 . S
H1189 C1234 0.931 . S
H1190 C1236 0.930 . S
H1191 C1237 0.929 . S
O1192 H1166 0.856 . S
O1192 C1238 1.300 . S
O1193 C1238 1.209 . S
O1194 C1239 1.199 . S
O1195 H1167 0.854 . S
O1195 C1239 1.297 . S
C1196 C1197 1.404 . S
C1196 C1201 1.397 . S
C1196 C1202 1.492 . S
C1197 C1196 1.404 . S
C1197 C1198 1.396 1_545 S
C1197 C1208 1.492 . S
C1198 C1197 1.396 1_565 S
C1198 C1199 1.397 . S
C1198 C1214 1.509 . S
C1199 C1198 1.397 . S
C1199 C1200 1.412 1_565 S
C1199 C1220 1.485 . S
C1200 C1199 1.412 1_545 S
C1200 C1201 1.388 . S
C1200 C1226 1.502 . S
C1201 C1196 1.397 . S
C1201 C1200 1.388 . S
C1201 C1232 1.519 . S
C1202 C1196 1.492 . S
C1202 C1203 1.363 . S
C1202 C1207 1.390 . S
C1203 H1168 0.930 . S
C1203 C1202 1.363 . S
C1203 C1204 1.372 . S
C1204 H1169 0.930 . S
C1204 C1203 1.372 . S
C1204 C1205 1.383 . S
C1205 C1204 1.383 . S
C1205 C1206 1.395 . S
C1206 H1170 0.930 . S
C1206 C1205 1.395 . S
C1206 C1207 1.362 . S
C1207 H1171 0.930 . S
C1207 C1202 1.390 . S
C1207 C1206 1.362 . S
C1208 C1197 1.492 . S
C1208 C1209 1.392 . S
C1208 C1213 1.397 . S
C1209 H1172 0.901 1_545 S
C1209 C1208 1.392 . S
C1209 C1210 1.393 . S
C1210 H1173 0.920 1_545 S
C1210 C1209 1.393 . S
C1210 C1211 1.376 . S
C1211 C1210 1.376 . S
C1211 C1212 1.378 . S
C1211 C1238 1.486 . S
C1212 H1174 0.930 . S
C1212 C1211 1.378 . S
C1212 C1213 1.376 . S
C1213 H1175 0.929 . S
C1213 C1208 1.397 . S
C1213 C1212 1.376 . S
C1214 C1198 1.509 . S
C1214 C1215 1.391 . S
C1214 C1219 1.386 . S
C1215 H1176 0.930 . S
C1215 C1214 1.391 . S
C1215 C1216 1.375 . S
C1216 H1177 0.931 . S
C1216 C1215 1.375 . S
C1216 C1217 1.375 . S
C1217 C1216 1.375 . S
C1217 C1218 1.361 . S
C1218 H1178 0.930 . S
C1218 C1217 1.361 . S
C1218 C1219 1.399 . S
C1219 H1179 0.929 . S
C1219 C1214 1.386 . S
C1219 C1218 1.399 . S
C1220 C1199 1.485 . S
C1220 C1221 1.394 . S
C1220 C1225 1.360 . S
C1221 H1180 0.931 . S
C1221 C1220 1.394 . S
C1221 C1222 1.372 . S
C1222 H1181 0.930 . S
C1222 C1221 1.372 . S
C1222 C1223 1.397 . S
C1223 C1222 1.397 . S
C1223 C1224 1.390 . S
C1223 C1239 1.476 . S
C1224 H1182 0.930 . S
C1224 C1223 1.390 . S
C1224 C1225 1.366 . S
C1225 H1183 0.932 . S
C1225 C1220 1.360 . S
C1225 C1224 1.366 . S
C1226 C1200 1.502 . S
C1226 C1227 1.393 . S
C1226 C1231 1.364 1_545 S
C1227 H1184 0.930 . S
C1227 C1226 1.393 . S
C1227 C1228 1.381 . S
C1228 H1185 0.929 . S
C1228 C1227 1.381 . S
C1228 C1229 1.371 1_545 S
C1229 C1228 1.371 1_565 S
C1229 C1230 1.380 . S
C1230 H1186 0.931 . S
C1230 C1229 1.380 . S
C1230 C1231 1.387 . S
C1231 H1187 0.930 . S
C1231 C1226 1.364 1_565 S
C1231 C1230 1.387 . S
C1232 C1201 1.519 . S
C1232 C1233 1.377 . S
C1232 C1237 1.361 . S
C1233 H1188 0.929 . S
C1233 C1232 1.377 . S
C1233 C1234 1.386 . S
C1234 H1189 0.931 . S
C1234 C1233 1.386 . S
C1234 C1235 1.363 . S
C1235 C1234 1.363 . S
C1235 C1236 1.385 . S
C1236 H1190 0.930 . S
C1236 C1235 1.385 . S
C1236 C1237 1.396 . S
C1237 H1191 0.929 . S
C1237 C1232 1.361 . S
C1237 C1236 1.396 . S
C1238 O1192 1.300 . S
C1238 O1193 1.209 . S
C1238 C1211 1.486 . S
C1239 O1194 1.199 . S
C1239 O1195 1.297 . S
C1239 C1223 1.476 . S
H1240 O1266 0.856 . S
H1241 O1269 0.854 . S
H1242 C1277 0.930 . S
H1243 C1278 0.930 . S
H1244 C1280 0.930 . S
H1245 C1281 0.930 . S
H1246 C1283 0.931 . S
H1247 C1284 0.930 . S
H1248 C1286 0.930 . S
H1249 C1287 0.929 . S
H1250 C1289 0.930 . S
H1251 C1290 0.931 . S
H1252 C1292 0.930 . S
H1253 C1293 0.929 . S
H1254 C1295 0.931 . S
H1255 C1296 0.930 . S
H1256 C1298 0.930 . S
H1257 C1299 0.932 . S
H1258 C1301 0.930 . S
H1259 C1302 0.929 . S
H1260 C1304 0.931 . S
H1261 C1305 0.930 . S
H1262 C1307 0.929 . S
H1263 C1308 0.931 . S
H1264 C1310 0.930 . S
H1265 C1311 0.929 . S
O1266 H1240 0.856 . S
O1266 C1312 1.300 . S
O1267 C1312 1.209 . S
O1268 C1313 1.199 . S
O1269 H1241 0.854 . S
O1269 C1313 1.297 . S
C1270 C1271 1.404 . S
C1270 C1275 1.397 . S
C1270 C1276 1.492 . S
C1271 C1270 1.404 . S
C1271 C1272 1.396 . S
C1271 C1282 1.492 . S
C1272 C1271 1.396 . S
C1272 C1273 1.397 . S
C1272 C1288 1.509 . S
C1273 C1272 1.397 . S
C1273 C1274 1.412 . S
C1273 C1294 1.485 . S
C1274 C1273 1.412 . S
C1274 C1275 1.388 . S
C1274 C1300 1.490 . S
C1275 C1270 1.397 . S
C1275 C1274 1.388 . S
C1275 C1306 1.519 . S
C1276 C1270 1.492 . S
C1276 C1277 1.363 . S
C1276 C1281 1.390 . S
C1277 H1242 0.930 . S
C1277 C1276 1.363 . S
C1277 C1278 1.372 . S
C1278 H1243 0.930 . S
C1278 C1277 1.372 . S
C1278 C1279 1.383 . S
C1279 C1278 1.383 . S
C1279 C1280 1.395 . S
C1280 H1244 0.930 . S
C1280 C1279 1.395 . S
C1280 C1281 1.362 . S
C1281 H1245 0.930 . S
C1281 C1276 1.390 . S
C1281 C1280 1.362 . S
C1282 C1271 1.492 . S
C1282 C1283 1.377 . S
C1282 C1287 1.397 . S
C1283 H1246 0.931 . S
C1283 C1282 1.377 . S
C1283 C1284 1.376 . S
C1284 H1247 0.930 . S
C1284 C1283 1.376 . S
C1284 C1285 1.376 . S
C1285 C1284 1.376 . S
C1285 C1286 1.378 . S
C1285 C1312 1.486 . S
C1286 H1248 0.930 . S
C1286 C1285 1.378 . S
C1286 C1287 1.376 . S
C1287 H1249 0.929 . S
C1287 C1282 1.397 . S
C1287 C1286 1.376 . S
C1288 C1272 1.509 . S
C1288 C1289 1.391 . S
C1288 C1293 1.386 . S
C1289 H1250 0.930 . S
C1289 C1288 1.391 . S
C1289 C1290 1.375 . S
C1290 H1251 0.931 . S
C1290 C1289 1.375 . S
C1290 C1291 1.375 . S
C1291 C1290 1.375 . S
C1291 C1292 1.361 . S
C1292 H1252 0.930 . S
C1292 C1291 1.361 . S
C1292 C1293 1.399 . S
C1293 H1253 0.929 . S
C1293 C1288 1.386 . S
C1293 C1292 1.399 . S
C1294 C1273 1.485 . S
C1294 C1295 1.394 . S
C1294 C1299 1.360 . S
C1295 H1254 0.931 . S
C1295 C1294 1.394 . S
C1295 C1296 1.372 . S
C1296 H1255 0.930 . S
C1296 C1295 1.372 . S
C1296 C1297 1.397 . S
C1297 C1296 1.397 . S
C1297 C1298 1.390 . S
C1297 C1313 1.476 . S
C1298 H1256 0.930 . S
C1298 C1297 1.390 . S
C1298 C1299 1.366 . S
C1299 H1257 0.932 . S
C1299 C1294 1.360 . S
C1299 C1298 1.366 . S
C1300 C1274 1.490 . S
C1300 C1301 1.380 . S
C1300 C1305 1.386 . S
C1301 H1258 0.930 . S
C1301 C1300 1.380 . S
C1301 C1302 1.381 . S
C1302 H1259 0.929 . S
C1302 C1301 1.381 . S
C1302 C1303 1.371 . S
C1303 C1302 1.371 . S
C1303 C1304 1.380 . S
C1304 H1260 0.931 . S
C1304 C1303 1.380 . S
C1304 C1305 1.387 . S
C1305 H1261 0.930 . S
C1305 C1300 1.386 . S
C1305 C1304 1.387 . S
C1306 C1275 1.519 . S
C1306 C1307 1.377 . S
C1306 C1311 1.361 . S
C1307 H1262 0.929 . S
C1307 C1306 1.377 . S
C1307 C1308 1.386 . S
C1308 H1263 0.931 . S
C1308 C1307 1.386 . S
C1308 C1309 1.363 . S
C1309 C1308 1.363 . S
C1309 C1310 1.385 . S
C1310 H1264 0.930 . S
C1310 C1309 1.385 . S
C1310 C1311 1.396 . S
C1311 H1265 0.929 . S
C1311 C1306 1.361 . S
C1311 C1310 1.396 . S
C1312 O1266 1.300 . S
C1312 O1267 1.209 . S
C1312 C1285 1.486 . S
C1313 O1268 1.199 . S
C1313 O1269 1.297 . S
C1313 C1297 1.476 . S
H1314 O1340 0.856 . S
H1315 O1343 0.854 . S
H1316 C1351 0.930 . S
H1317 C1352 0.930 . S
H1318 C1354 0.930 . S
H1319 C1355 0.930 . S
H1320 C1357 0.931 . S
H1321 C1358 0.930 . S
H1322 C1360 0.930 . S
H1323 C1361 0.929 . S
H1324 C1363 0.930 . S
H1325 C1364 0.931 . S
H1326 C1366 0.930 . S
H1327 C1367 0.929 . S
H1328 C1369 0.931 . S
H1329 C1370 0.930 . S
H1330 C1372 0.930 . S
H1331 C1373 0.932 . S
H1332 C1375 0.930 . S
H1333 C1376 0.929 . S
H1334 C1378 0.931 . S
H1335 C1379 0.930 . S
H1336 C1381 0.929 . S
H1337 C1382 0.931 . S
H1338 C1384 0.930 . S
H1339 C1385 0.929 . S
O1340 H1314 0.856 . S
O1340 C1386 1.300 . S
O1341 C1386 1.209 . S
O1342 C1387 1.199 . S
O1343 H1315 0.854 . S
O1343 C1387 1.297 . S
C1344 C1345 1.404 . S
C1344 C1349 1.397 . S
C1344 C1350 1.492 . S
C1345 C1344 1.404 . S
C1345 C1346 1.396 . S
C1345 C1356 1.492 . S
C1346 C1345 1.396 . S
C1346 C1347 1.397 . S
C1346 C1362 1.509 . S
C1347 C1346 1.397 . S
C1347 C1348 1.412 . S
C1347 C1368 1.485 . S
C1348 C1347 1.412 . S
C1348 C1349 1.388 . S
C1348 C1374 1.490 . S
C1349 C1344 1.397 . S
C1349 C1348 1.388 . S
C1349 C1380 1.519 . S
C1350 C1344 1.492 . S
C1350 C1351 1.363 . S
C1350 C1355 1.390 . S
C1351 H1316 0.930 . S
C1351 C1350 1.363 . S
C1351 C1352 1.372 . S
C1352 H1317 0.930 . S
C1352 C1351 1.372 . S
C1352 C1353 1.383 . S
C1353 C1352 1.383 . S
C1353 C1354 1.395 . S
C1354 H1318 0.930 . S
C1354 C1353 1.395 . S
C1354 C1355 1.362 . S
C1355 H1319 0.930 . S
C1355 C1350 1.390 . S
C1355 C1354 1.362 . S
C1356 C1345 1.492 . S
C1356 C1357 1.377 . S
C1356 C1361 1.397 . S
C1357 H1320 0.931 . S
C1357 C1356 1.377 . S
C1357 C1358 1.376 . S
C1358 H1321 0.930 . S
C1358 C1357 1.376 . S
C1358 C1359 1.376 . S
C1359 C1358 1.376 . S
C1359 C1360 1.378 . S
C1359 C1386 1.486 . S
C1360 H1322 0.930 . S
C1360 C1359 1.378 . S
C1360 C1361 1.376 . S
C1361 H1323 0.929 . S
C1361 C1356 1.397 . S
C1361 C1360 1.376 . S
C1362 C1346 1.509 . S
C1362 C1363 1.391 . S
C1362 C1367 1.386 . S
C1363 H1324 0.930 . S
C1363 C1362 1.391 . S
C1363 C1364 1.375 . S
C1364 H1325 0.931 . S
C1364 C1363 1.375 . S
C1364 C1365 1.375 . S
C1365 C1364 1.375 . S
C1365 C1366 1.361 . S
C1366 H1326 0.930 . S
C1366 C1365 1.361 . S
C1366 C1367 1.399 . S
C1367 H1327 0.929 . S
C1367 C1362 1.386 . S
C1367 C1366 1.399 . S
C1368 C1347 1.485 . S
C1368 C1369 1.394 . S
C1368 C1373 1.360 . S
C1369 H1328 0.931 . S
C1369 C1368 1.394 . S
C1369 C1370 1.372 . S
C1370 H1329 0.930 . S
C1370 C1369 1.372 . S
C1370 C1371 1.397 . S
C1371 C1370 1.397 . S
C1371 C1372 1.390 . S
C1371 C1387 1.476 . S
C1372 H1330 0.930 . S
C1372 C1371 1.390 . S
C1372 C1373 1.366 . S
C1373 H1331 0.932 . S
C1373 C1368 1.360 . S
C1373 C1372 1.366 . S
C1374 C1348 1.490 . S
C1374 C1375 1.380 . S
C1374 C1379 1.386 . S
C1375 H1332 0.930 . S
C1375 C1374 1.380 . S
C1375 C1376 1.381 . S
C1376 H1333 0.929 . S
C1376 C1375 1.381 . S
C1376 C1377 1.371 . S
C1377 C1376 1.371 . S
C1377 C1378 1.380 . S
C1378 H1334 0.931 . S
C1378 C1377 1.380 . S
C1378 C1379 1.387 . S
C1379 H1335 0.930 . S
C1379 C1374 1.386 . S
C1379 C1378 1.387 . S
C1380 C1349 1.519 . S
C1380 C1381 1.377 . S
C1380 C1385 1.361 . S
C1381 H1336 0.929 . S
C1381 C1380 1.377 . S
C1381 C1382 1.386 . S
C1382 H1337 0.931 . S
C1382 C1381 1.386 . S
C1382 C1383 1.363 . S
C1383 C1382 1.363 . S
C1383 C1384 1.385 . S
C1384 H1338 0.930 . S
C1384 C1383 1.385 . S
C1384 C1385 1.396 . S
C1385 H1339 0.929 . S
C1385 C1380 1.361 . S
C1385 C1384 1.396 . S
C1386 O1340 1.300 . S
C1386 O1341 1.209 . S
C1386 C1359 1.486 . S
C1387 O1342 1.199 . S
C1387 O1343 1.297 . S
C1387 C1371 1.476 . S
H1388 O1414 0.856 . S
H1389 O1417 0.854 . S
H1390 C1425 0.930 . S
H1391 C1426 0.930 . S
H1392 C1428 0.930 . S
H1393 C1429 0.930 . S
H1394 C1431 0.931 . S
H1395 C1432 0.930 . S
H1396 C1434 0.930 . S
H1397 C1435 0.929 . S
H1398 C1437 0.930 . S
H1399 C1438 0.931 . S
H1400 C1440 0.930 . S
H1401 C1441 0.929 . S
H1402 C1443 0.931 . S
H1403 C1444 0.930 . S
H1404 C1446 0.930 . S
H1405 C1447 0.932 . S
H1406 C1449 0.930 . S
H1407 C1450 0.929 . S
H1408 C1452 0.931 . S
H1409 C1453 0.930 . S
H1410 C1455 0.929 . S
H1411 C1456 0.931 . S
H1412 C1458 0.930 . S
H1413 C1459 0.929 . S
O1414 H1388 0.856 . S
O1414 C1460 1.300 . S
O1415 C1460 1.209 . S
O1416 C1461 1.199 . S
O1417 H1389 0.854 . S
O1417 C1461 1.297 . S
C1418 C1419 1.404 . S
C1418 C1423 1.397 . S
C1418 C1424 1.492 . S
C1419 C1418 1.404 . S
C1419 C1420 1.396 . S
C1419 C1430 1.492 . S
C1420 C1419 1.396 . S
C1420 C1421 1.397 . S
C1420 C1436 1.509 . S
C1421 C1420 1.397 . S
C1421 C1422 1.412 . S
C1421 C1442 1.485 . S
C1422 C1421 1.412 . S
C1422 C1423 1.388 . S
C1422 C1448 1.490 . S
C1423 C1418 1.397 . S
C1423 C1422 1.388 . S
C1423 C1454 1.519 . S
C1424 C1418 1.492 . S
C1424 C1425 1.363 . S
C1424 C1429 1.390 . S
C1425 H1390 0.930 . S
C1425 C1424 1.363 . S
C1425 C1426 1.372 . S
C1426 H1391 0.930 . S
C1426 C1425 1.372 . S
C1426 C1427 1.383 . S
C1427 C1426 1.383 . S
C1427 C1428 1.395 . S
C1428 H1392 0.930 . S
C1428 C1427 1.395 . S
C1428 C1429 1.362 . S
C1429 H1393 0.930 . S
C1429 C1424 1.390 . S
C1429 C1428 1.362 . S
C1430 C1419 1.492 . S
C1430 C1431 1.377 . S
C1430 C1435 1.397 . S
C1431 H1394 0.931 . S
C1431 C1430 1.377 . S
C1431 C1432 1.376 . S
C1432 H1395 0.930 . S
C1432 C1431 1.376 . S
C1432 C1433 1.376 . S
C1433 C1432 1.376 . S
C1433 C1434 1.378 . S
C1433 C1460 1.486 . S
C1434 H1396 0.930 . S
C1434 C1433 1.378 . S
C1434 C1435 1.376 . S
C1435 H1397 0.929 . S
C1435 C1430 1.397 . S
C1435 C1434 1.376 . S
C1436 C1420 1.509 . S
C1436 C1437 1.391 . S
C1436 C1441 1.386 . S
C1437 H1398 0.930 . S
C1437 C1436 1.391 . S
C1437 C1438 1.375 . S
C1438 H1399 0.931 . S
C1438 C1437 1.375 . S
C1438 C1439 1.375 . S
C1439 C1438 1.375 . S
C1439 C1440 1.361 . S
C1440 H1400 0.930 . S
C1440 C1439 1.361 . S
C1440 C1441 1.399 . S
C1441 H1401 0.929 . S
C1441 C1436 1.386 . S
C1441 C1440 1.399 . S
C1442 C1421 1.485 . S
C1442 C1443 1.394 . S
C1442 C1447 1.360 . S
C1443 H1402 0.931 . S
C1443 C1442 1.394 . S
C1443 C1444 1.372 . S
C1444 H1403 0.930 . S
C1444 C1443 1.372 . S
C1444 C1445 1.397 . S
C1445 C1444 1.397 . S
C1445 C1446 1.390 . S
C1445 C1461 1.476 . S
C1446 H1404 0.930 . S
C1446 C1445 1.390 . S
C1446 C1447 1.366 . S
C1447 H1405 0.932 . S
C1447 C1442 1.360 . S
C1447 C1446 1.366 . S
C1448 C1422 1.490 . S
C1448 C1449 1.380 . S
C1448 C1453 1.386 . S
C1449 H1406 0.930 . S
C1449 C1448 1.380 . S
C1449 C1450 1.381 . S
C1450 H1407 0.929 . S
C1450 C1449 1.381 . S
C1450 C1451 1.371 . S
C1451 C1450 1.371 . S
C1451 C1452 1.380 . S
C1452 H1408 0.931 . S
C1452 C1451 1.380 . S
C1452 C1453 1.387 . S
C1453 H1409 0.930 . S
C1453 C1448 1.386 . S
C1453 C1452 1.387 . S
C1454 C1423 1.519 . S
C1454 C1455 1.377 . S
C1454 C1459 1.361 . S
C1455 H1410 0.929 . S
C1455 C1454 1.377 . S
C1455 C1456 1.386 . S
C1456 H1411 0.931 . S
C1456 C1455 1.386 . S
C1456 C1457 1.363 . S
C1457 C1456 1.363 . S
C1457 C1458 1.385 . S
C1458 H1412 0.930 . S
C1458 C1457 1.385 . S
C1458 C1459 1.396 . S
C1459 H1413 0.929 . S
C1459 C1454 1.361 . S
C1459 C1458 1.396 . S
C1460 O1414 1.300 . S
C1460 O1415 1.209 . S
C1460 C1433 1.486 . S
C1461 O1416 1.199 . S
C1461 O1417 1.297 . S
C1461 C1445 1.476 . S
H1462 O1488 0.856 . S
H1463 O1491 0.854 . S
H1464 C1499 0.930 . S
H1465 C1500 0.930 . S
H1466 C1502 0.930 . S
H1467 C1503 0.930 . S
H1468 C1505 0.931 . S
H1469 C1506 0.930 . S
H1470 C1508 0.930 . S
H1471 C1509 0.929 . S
H1472 C1511 0.930 . S
H1473 C1512 0.931 . S
H1474 C1514 0.930 . S
H1475 C1515 0.929 . S
H1476 C1517 0.931 . S
H1477 C1518 0.930 . S
H1478 C1520 0.930 . S
H1479 C1521 0.932 . S
H1480 C1523 0.930 . S
H1481 C1524 0.929 . S
H1482 C1526 0.931 . S
H1483 C1527 0.930 . S
H1484 C1529 0.929 . S
H1485 C1530 0.931 . S
H1486 C1532 0.930 . S
H1487 C1533 0.929 . S
O1488 H1462 0.856 . S
O1488 C1534 1.300 . S
O1489 C1534 1.209 . S
O1490 C1535 1.199 . S
O1491 H1463 0.854 . S
O1491 C1535 1.297 . S
C1492 C1493 1.404 . S
C1492 C1497 1.397 . S
C1492 C1498 1.492 . S
C1493 C1492 1.404 . S
C1493 C1494 1.396 . S
C1493 C1504 1.492 . S
C1494 C1493 1.396 . S
C1494 C1495 1.397 . S
C1494 C1510 1.509 . S
C1495 C1494 1.397 . S
C1495 C1496 1.412 . S
C1495 C1516 1.485 . S
C1496 C1495 1.412 . S
C1496 C1497 1.388 . S
C1496 C1522 1.490 . S
C1497 C1492 1.397 . S
C1497 C1496 1.388 . S
C1497 C1528 1.519 . S
C1498 C1492 1.492 . S
C1498 C1499 1.363 . S
C1498 C1503 1.390 . S
C1499 H1464 0.930 . S
C1499 C1498 1.363 . S
C1499 C1500 1.372 . S
C1500 H1465 0.930 . S
C1500 C1499 1.372 . S
C1500 C1501 1.383 . S
C1501 C1500 1.383 . S
C1501 C1502 1.395 . S
C1502 H1466 0.930 . S
C1502 C1501 1.395 . S
C1502 C1503 1.362 . S
C1503 H1467 0.930 . S
C1503 C1498 1.390 . S
C1503 C1502 1.362 . S
C1504 C1493 1.492 . S
C1504 C1505 1.377 . S
C1504 C1509 1.397 . S
C1505 H1468 0.931 . S
C1505 C1504 1.377 . S
C1505 C1506 1.376 . S
C1506 H1469 0.930 . S
C1506 C1505 1.376 . S
C1506 C1507 1.376 . S
C1507 C1506 1.376 . S
C1507 C1508 1.378 . S
C1507 C1534 1.486 . S
C1508 H1470 0.930 . S
C1508 C1507 1.378 . S
C1508 C1509 1.376 . S
C1509 H1471 0.929 . S
C1509 C1504 1.397 . S
C1509 C1508 1.376 . S
C1510 C1494 1.509 . S
C1510 C1511 1.391 . S
C1510 C1515 1.386 . S
C1511 H1472 0.930 . S
C1511 C1510 1.391 . S
C1511 C1512 1.375 . S
C1512 H1473 0.931 . S
C1512 C1511 1.375 . S
C1512 C1513 1.375 . S
C1513 C1512 1.375 . S
C1513 C1514 1.361 . S
C1514 H1474 0.930 . S
C1514 C1513 1.361 . S
C1514 C1515 1.399 . S
C1515 H1475 0.929 . S
C1515 C1510 1.386 . S
C1515 C1514 1.399 . S
C1516 C1495 1.485 . S
C1516 C1517 1.394 . S
C1516 C1521 1.360 . S
C1517 H1476 0.931 . S
C1517 C1516 1.394 . S
C1517 C1518 1.372 . S
C1518 H1477 0.930 . S
C1518 C1517 1.372 . S
C1518 C1519 1.397 . S
C1519 C1518 1.397 . S
C1519 C1520 1.390 . S
C1519 C1535 1.476 . S
C1520 H1478 0.930 . S
C1520 C1519 1.390 . S
C1520 C1521 1.366 . S
C1521 H1479 0.932 . S
C1521 C1516 1.360 . S
C1521 C1520 1.366 . S
C1522 C1496 1.490 . S
C1522 C1523 1.380 . S
C1522 C1527 1.386 . S
C1523 H1480 0.930 . S
C1523 C1522 1.380 . S
C1523 C1524 1.381 . S
C1524 H1481 0.929 . S
C1524 C1523 1.381 . S
C1524 C1525 1.371 . S
C1525 C1524 1.371 . S
C1525 C1526 1.380 . S
C1526 H1482 0.931 . S
C1526 C1525 1.380 . S
C1526 C1527 1.387 . S
C1527 H1483 0.930 . S
C1527 C1522 1.386 . S
C1527 C1526 1.387 . S
C1528 C1497 1.519 . S
C1528 C1529 1.377 . S
C1528 C1533 1.361 . S
C1529 H1484 0.929 . S
C1529 C1528 1.377 . S
C1529 C1530 1.386 . S
C1530 H1485 0.931 . S
C1530 C1529 1.386 . S
C1530 C1531 1.363 . S
C1531 C1530 1.363 . S
C1531 C1532 1.385 . S
C1532 H1486 0.930 . S
C1532 C1531 1.385 . S
C1532 C1533 1.396 . S
C1533 H1487 0.929 . S
C1533 C1528 1.361 . S
C1533 C1532 1.396 . S
C1534 O1488 1.300 . S
C1534 O1489 1.209 . S
C1534 C1507 1.486 . S
C1535 O1490 1.199 . S
C1535 O1491 1.297 . S
C1535 C1519 1.476 . S
H1536 O1562 0.856 . S
H1537 O1565 0.854 . S
H1538 C1573 0.930 . S
H1539 C1574 0.930 . S
H1540 C1576 0.930 . S
H1541 C1577 0.930 . S
H1542 C1579 0.931 . S
H1543 C1580 0.930 . S
H1544 C1582 0.930 . S
H1545 C1583 0.929 . S
H1546 C1585 0.930 . S
H1547 C1586 0.931 . S
H1548 C1588 0.930 . S
H1549 C1589 0.929 . S
H1550 C1591 0.931 . S
H1551 C1592 0.930 . S
H1552 C1594 0.930 . S
H1553 C1595 0.932 . S
H1554 C1597 0.930 . S
H1555 C1598 0.929 . S
H1556 C1600 0.931 . S
H1557 C1601 0.930 . S
H1558 C1603 0.929 . S
H1559 C1604 0.931 . S
H1560 C1606 0.930 . S
H1561 C1607 0.929 . S
O1562 H1536 0.856 . S
O1562 C1608 1.300 . S
O1563 C1608 1.209 . S
O1564 C1609 1.199 . S
O1565 H1537 0.854 . S
O1565 C1609 1.297 . S
C1566 C1567 1.404 . S
C1566 C1571 1.397 . S
C1566 C1572 1.492 . S
C1567 C1566 1.404 . S
C1567 C1568 1.396 . S
C1567 C1578 1.492 . S
C1568 C1567 1.396 . S
C1568 C1569 1.397 . S
C1568 C1584 1.509 . S
C1569 C1568 1.397 . S
C1569 C1570 1.412 . S
C1569 C1590 1.485 . S
C1570 C1569 1.412 . S
C1570 C1571 1.388 . S
C1570 C1596 1.490 . S
C1571 C1566 1.397 . S
C1571 C1570 1.388 . S
C1571 C1602 1.519 . S
C1572 C1566 1.492 . S
C1572 C1573 1.363 . S
C1572 C1577 1.390 . S
C1573 H1538 0.930 . S
C1573 C1572 1.363 . S
C1573 C1574 1.372 . S
C1574 H1539 0.930 . S
C1574 C1573 1.372 . S
C1574 C1575 1.383 . S
C1575 C1574 1.383 . S
C1575 C1576 1.395 . S
C1576 H1540 0.930 . S
C1576 C1575 1.395 . S
C1576 C1577 1.362 . S
C1577 H1541 0.930 . S
C1577 C1572 1.390 . S
C1577 C1576 1.362 . S
C1578 C1567 1.492 . S
C1578 C1579 1.377 . S
C1578 C1583 1.397 . S
C1579 H1542 0.931 . S
C1579 C1578 1.377 . S
C1579 C1580 1.376 . S
C1580 H1543 0.930 . S
C1580 C1579 1.376 . S
C1580 C1581 1.376 . S
C1581 C1580 1.376 . S
C1581 C1582 1.378 . S
C1581 C1608 1.486 . S
C1582 H1544 0.930 . S
C1582 C1581 1.378 . S
C1582 C1583 1.376 . S
C1583 H1545 0.929 . S
C1583 C1578 1.397 . S
C1583 C1582 1.376 . S
C1584 C1568 1.509 . S
C1584 C1585 1.391 . S
C1584 C1589 1.386 . S
C1585 H1546 0.930 . S
C1585 C1584 1.391 . S
C1585 C1586 1.375 . S
C1586 H1547 0.931 . S
C1586 C1585 1.375 . S
C1586 C1587 1.375 . S
C1587 C1586 1.375 . S
C1587 C1588 1.361 . S
C1588 H1548 0.930 . S
C1588 C1587 1.361 . S
C1588 C1589 1.399 . S
C1589 H1549 0.929 . S
C1589 C1584 1.386 . S
C1589 C1588 1.399 . S
C1590 C1569 1.485 . S
C1590 C1591 1.394 . S
C1590 C1595 1.360 . S
C1591 H1550 0.931 . S
C1591 C1590 1.394 . S
C1591 C1592 1.372 . S
C1592 H1551 0.930 . S
C1592 C1591 1.372 . S
C1592 C1593 1.397 . S
C1593 C1592 1.397 . S
C1593 C1594 1.390 . S
C1593 C1609 1.476 . S
C1594 H1552 0.930 . S
C1594 C1593 1.390 . S
C1594 C1595 1.366 . S
C1595 H1553 0.932 . S
C1595 C1590 1.360 . S
C1595 C1594 1.366 . S
C1596 C1570 1.490 . S
C1596 C1597 1.380 . S
C1596 C1601 1.386 . S
C1597 H1554 0.930 . S
C1597 C1596 1.380 . S
C1597 C1598 1.381 . S
C1598 H1555 0.929 . S
C1598 C1597 1.381 . S
C1598 C1599 1.371 . S
C1599 C1598 1.371 . S
C1599 C1600 1.380 . S
C1600 H1556 0.931 . S
C1600 C1599 1.380 . S
C1600 C1601 1.387 . S
C1601 H1557 0.930 . S
C1601 C1596 1.386 . S
C1601 C1600 1.387 . S
C1602 C1571 1.519 . S
C1602 C1603 1.377 . S
C1602 C1607 1.361 . S
C1603 H1558 0.929 . S
C1603 C1602 1.377 . S
C1603 C1604 1.386 . S
C1604 H1559 0.931 . S
C1604 C1603 1.386 . S
C1604 C1605 1.363 . S
C1605 C1604 1.363 . S
C1605 C1606 1.385 . S
C1606 H1560 0.930 . S
C1606 C1605 1.385 . S
C1606 C1607 1.396 . S
C1607 H1561 0.929 . S
C1607 C1602 1.361 . S
C1607 C1606 1.396 . S
C1608 O1562 1.300 . S
C1608 O1563 1.209 . S
C1608 C1581 1.486 . S
C1609 O1564 1.199 . S
C1609 O1565 1.297 . S
C1609 C1593 1.476 . S
H1610 O1636 0.856 . S
H1611 O1639 0.854 . S
H1612 C1647 0.930 . S
H1613 C1648 0.930 . S
H1614 C1650 0.930 . S
H1615 C1651 0.930 . S
H1616 C1653 0.931 . S
H1617 C1654 0.930 . S
H1618 C1656 0.930 . S
H1619 C1657 0.929 . S
H1620 C1659 0.930 . S
H1621 C1660 0.931 . S
H1622 C1662 0.930 . S
H1623 C1663 0.929 . S
H1624 C1665 0.931 . S
H1625 C1666 0.930 . S
H1626 C1668 0.930 . S
H1627 C1669 0.932 . S
H1628 C1671 0.930 . S
H1629 C1672 0.929 . S
H1630 C1674 0.931 . S
H1631 C1675 0.930 . S
H1632 C1677 0.929 . S
H1633 C1678 0.931 . S
H1634 C1680 0.930 . S
H1635 C1681 0.929 . S
O1636 H1610 0.856 . S
O1636 C1682 1.300 . S
O1637 C1682 1.209 . S
O1638 C1683 1.199 . S
O1639 H1611 0.854 . S
O1639 C1683 1.297 . S
C1640 C1641 1.404 . S
C1640 C1645 1.397 . S
C1640 C1646 1.492 . S
C1641 C1640 1.404 . S
C1641 C1642 1.396 . S
C1641 C1652 1.492 . S
C1642 C1641 1.396 . S
C1642 C1643 1.397 . S
C1642 C1658 1.509 . S
C1643 C1642 1.397 . S
C1643 C1644 1.412 . S
C1643 C1664 1.485 . S
C1644 C1643 1.412 . S
C1644 C1645 1.388 . S
C1644 C1670 1.490 . S
C1645 C1640 1.397 . S
C1645 C1644 1.388 . S
C1645 C1676 1.519 . S
C1646 C1640 1.492 . S
C1646 C1647 1.363 . S
C1646 C1651 1.390 . S
C1647 H1612 0.930 . S
C1647 C1646 1.363 . S
C1647 C1648 1.372 . S
C1648 H1613 0.930 . S
C1648 C1647 1.372 . S
C1648 C1649 1.383 . S
C1649 C1648 1.383 . S
C1649 C1650 1.395 . S
C1650 H1614 0.930 . S
C1650 C1649 1.395 . S
C1650 C1651 1.362 . S
C1651 H1615 0.930 . S
C1651 C1646 1.390 . S
C1651 C1650 1.362 . S
C1652 C1641 1.492 . S
C1652 C1653 1.377 . S
C1652 C1657 1.397 . S
C1653 H1616 0.931 . S
C1653 C1652 1.377 . S
C1653 C1654 1.376 . S
C1654 H1617 0.930 . S
C1654 C1653 1.376 . S
C1654 C1655 1.376 . S
C1655 C1654 1.376 . S
C1655 C1656 1.378 . S
C1655 C1682 1.486 . S
C1656 H1618 0.930 . S
C1656 C1655 1.378 . S
C1656 C1657 1.376 . S
C1657 H1619 0.929 . S
C1657 C1652 1.397 . S
C1657 C1656 1.376 . S
C1658 C1642 1.509 . S
C1658 C1659 1.391 . S
C1658 C1663 1.386 . S
C1659 H1620 0.930 . S
C1659 C1658 1.391 . S
C1659 C1660 1.375 . S
C1660 H1621 0.931 . S
C1660 C1659 1.375 . S
C1660 C1661 1.375 . S
C1661 C1660 1.375 . S
C1661 C1662 1.361 . S
C1662 H1622 0.930 . S
C1662 C1661 1.361 . S
C1662 C1663 1.399 . S
C1663 H1623 0.929 . S
C1663 C1658 1.386 . S
C1663 C1662 1.399 . S
C1664 C1643 1.485 . S
C1664 C1665 1.394 . S
C1664 C1669 1.360 . S
C1665 H1624 0.931 . S
C1665 C1664 1.394 . S
C1665 C1666 1.372 . S
C1666 H1625 0.930 . S
C1666 C1665 1.372 . S
C1666 C1667 1.397 . S
C1667 C1666 1.397 . S
C1667 C1668 1.390 . S
C1667 C1683 1.476 . S
C1668 H1626 0.930 . S
C1668 C1667 1.390 . S
C1668 C1669 1.366 . S
C1669 H1627 0.932 . S
C1669 C1664 1.360 . S
C1669 C1668 1.366 . S
C1670 C1644 1.490 . S
C1670 C1671 1.380 . S
C1670 C1675 1.386 . S
C1671 H1628 0.930 . S
C1671 C1670 1.380 . S
C1671 C1672 1.381 . S
C1672 H1629 0.929 . S
C1672 C1671 1.381 . S
C1672 C1673 1.371 . S
C1673 C1672 1.371 . S
C1673 C1674 1.380 . S
C1674 H1630 0.931 . S
C1674 C1673 1.380 . S
C1674 C1675 1.387 . S
C1675 H1631 0.930 . S
C1675 C1670 1.386 . S
C1675 C1674 1.387 . S
C1676 C1645 1.519 . S
C1676 C1677 1.377 . S
C1676 C1681 1.361 . S
C1677 H1632 0.929 . S
C1677 C1676 1.377 . S
C1677 C1678 1.386 . S
C1678 H1633 0.931 . S
C1678 C1677 1.386 . S
C1678 C1679 1.363 . S
C1679 C1678 1.363 . S
C1679 C1680 1.385 . S
C1680 H1634 0.930 . S
C1680 C1679 1.385 . S
C1680 C1681 1.396 . S
C1681 H1635 0.929 . S
C1681 C1676 1.361 . S
C1681 C1680 1.396 . S
C1682 O1636 1.300 . S
C1682 O1637 1.209 . S
C1682 C1655 1.486 . S
C1683 O1638 1.199 . S
C1683 O1639 1.297 . S
C1683 C1667 1.476 . S
H1684 O1710 0.856 . S
H1685 O1713 0.854 . S
H1686 C1721 0.930 . S
H1687 C1722 0.930 . S
H1688 C1724 0.930 . S
H1689 C1725 0.930 . S
H1690 C1727 0.931 . S
H1691 C1728 0.930 . S
H1692 C1730 0.930 . S
H1693 C1731 0.929 . S
H1694 C1733 0.930 . S
H1695 C1734 0.931 . S
H1696 C1736 0.930 . S
H1697 C1737 0.929 . S
H1698 C1739 0.931 . S
H1699 C1740 0.930 . S
H1700 C1742 0.930 . S
H1701 C1743 0.932 . S
H1702 C1745 0.930 . S
H1703 C1746 0.929 . S
H1704 C1748 0.931 . S
H1705 C1749 0.930 . S
H1706 C1751 0.929 . S
H1707 C1752 0.931 . S
H1708 C1754 0.930 . S
H1709 C1755 0.929 . S
O1710 H1684 0.856 . S
O1710 C1756 1.300 . S
O1711 C1756 1.209 . S
O1712 C1757 1.199 . S
O1713 H1685 0.854 . S
O1713 C1757 1.297 . S
C1714 C1715 1.404 . S
C1714 C1719 1.397 . S
C1714 C1720 1.492 . S
C1715 C1714 1.404 . S
C1715 C1716 1.396 . S
C1715 C1726 1.492 . S
C1716 C1715 1.396 . S
C1716 C1717 1.397 . S
C1716 C1732 1.509 . S
C1717 C1716 1.397 . S
C1717 C1718 1.412 . S
C1717 C1738 1.485 . S
C1718 C1717 1.412 . S
C1718 C1719 1.388 . S
C1718 C1744 1.490 . S
C1719 C1714 1.397 . S
C1719 C1718 1.388 . S
C1719 C1750 1.519 . S
C1720 C1714 1.492 . S
C1720 C1721 1.363 . S
C1720 C1725 1.390 . S
C1721 H1686 0.930 . S
C1721 C1720 1.363 . S
C1721 C1722 1.372 . S
C1722 H1687 0.930 . S
C1722 C1721 1.372 . S
C1722 C1723 1.383 . S
C1723 C1722 1.383 . S
C1723 C1724 1.395 . S
C1724 H1688 0.930 . S
C1724 C1723 1.395 . S
C1724 C1725 1.362 . S
C1725 H1689 0.930 . S
C1725 C1720 1.390 . S
C1725 C1724 1.362 . S
C1726 C1715 1.492 . S
C1726 C1727 1.377 . S
C1726 C1731 1.397 . S
C1727 H1690 0.931 . S
C1727 C1726 1.377 . S
C1727 C1728 1.376 . S
C1728 H1691 0.930 . S
C1728 C1727 1.376 . S
C1728 C1729 1.376 . S
C1729 C1728 1.376 . S
C1729 C1730 1.378 . S
C1729 C1756 1.486 . S
C1730 H1692 0.930 . S
C1730 C1729 1.378 . S
C1730 C1731 1.376 . S
C1731 H1693 0.929 . S
C1731 C1726 1.397 . S
C1731 C1730 1.376 . S
C1732 C1716 1.509 . S
C1732 C1733 1.391 . S
C1732 C1737 1.386 . S
C1733 H1694 0.930 . S
C1733 C1732 1.391 . S
C1733 C1734 1.375 . S
C1734 H1695 0.931 . S
C1734 C1733 1.375 . S
C1734 C1735 1.375 . S
C1735 C1734 1.375 . S
C1735 C1736 1.361 . S
C1736 H1696 0.930 . S
C1736 C1735 1.361 . S
C1736 C1737 1.399 . S
C1737 H1697 0.929 . S
C1737 C1732 1.386 . S
C1737 C1736 1.399 . S
C1738 C1717 1.485 . S
C1738 C1739 1.394 . S
C1738 C1743 1.360 . S
C1739 H1698 0.931 . S
C1739 C1738 1.394 . S
C1739 C1740 1.372 . S
C1740 H1699 0.930 . S
C1740 C1739 1.372 . S
C1740 C1741 1.397 . S
C1741 C1740 1.397 . S
C1741 C1742 1.390 . S
C1741 C1757 1.476 . S
C1742 H1700 0.930 . S
C1742 C1741 1.390 . S
C1742 C1743 1.366 . S
C1743 H1701 0.932 . S
C1743 C1738 1.360 . S
C1743 C1742 1.366 . S
C1744 C1718 1.490 . S
C1744 C1745 1.380 . S
C1744 C1749 1.386 . S
C1745 H1702 0.930 . S
C1745 C1744 1.380 . S
C1745 C1746 1.381 . S
C1746 H1703 0.929 . S
C1746 C1745 1.381 . S
C1746 C1747 1.371 . S
C1747 C1746 1.371 . S
C1747 C1748 1.380 . S
C1748 H1704 0.931 . S
C1748 C1747 1.380 . S
C1748 C1749 1.387 . S
C1749 H1705 0.930 . S
C1749 C1744 1.386 . S
C1749 C1748 1.387 . S
C1750 C1719 1.519 . S
C1750 C1751 1.377 . S
C1750 C1755 1.361 . S
C1751 H1706 0.929 . S
C1751 C1750 1.377 . S
C1751 C1752 1.386 . S
C1752 H1707 0.931 . S
C1752 C1751 1.386 . S
C1752 C1753 1.363 . S
C1753 C1752 1.363 . S
C1753 C1754 1.385 . S
C1754 H1708 0.930 . S
C1754 C1753 1.385 . S
C1754 C1755 1.396 . S
C1755 H1709 0.929 . S
C1755 C1750 1.361 . S
C1755 C1754 1.396 . S
C1756 O1710 1.300 . S
C1756 O1711 1.209 . S
C1756 C1729 1.486 . S
C1757 O1712 1.199 . S
C1757 O1713 1.297 . S
C1757 C1741 1.476 . S
H1758 O1784 0.856 . S
H1759 O1787 0.854 . S
H1760 C1795 0.930 . S
H1761 C1796 0.930 . S
H1762 C1798 0.930 . S
H1763 C1799 0.930 . S
H1764 C1801 0.931 . S
H1765 C1802 0.930 . S
H1766 C1804 0.930 . S
H1767 C1805 0.929 . S
H1768 C1807 0.930 . S
H1769 C1808 0.931 . S
H1770 C1810 0.930 . S
H1771 C1811 0.929 . S
H1772 C1813 0.931 . S
H1773 C1814 0.930 . S
H1774 C1816 0.930 . S
H1775 C1817 0.932 . S
H1776 C1819 0.930 . S
H1777 C1820 0.929 . S
H1778 C1822 0.931 . S
H1779 C1823 0.930 . S
H1780 C1825 0.929 . S
H1781 C1826 0.931 . S
H1782 C1828 0.930 . S
H1783 C1829 0.929 . S
O1784 H1758 0.856 . S
O1784 C1830 1.300 . S
O1785 C1830 1.209 . S
O1786 C1831 1.199 . S
O1787 H1759 0.854 . S
O1787 C1831 1.297 . S
C1788 C1789 1.404 . S
C1788 C1793 1.397 . S
C1788 C1794 1.492 . S
C1789 C1788 1.404 . S
C1789 C1790 1.396 . S
C1789 C1800 1.492 . S
C1790 C1789 1.396 . S
C1790 C1791 1.397 . S
C1790 C1806 1.509 . S
C1791 C1790 1.397 . S
C1791 C1792 1.412 . S
C1791 C1812 1.485 . S
C1792 C1791 1.412 . S
C1792 C1793 1.388 . S
C1792 C1818 1.490 . S
C1793 C1788 1.397 . S
C1793 C1792 1.388 . S
C1793 C1824 1.519 . S
C1794 C1788 1.492 . S
C1794 C1795 1.363 . S
C1794 C1799 1.390 . S
C1795 H1760 0.930 . S
C1795 C1794 1.363 . S
C1795 C1796 1.372 . S
C1796 H1761 0.930 . S
C1796 C1795 1.372 . S
C1796 C1797 1.383 . S
C1797 C1796 1.383 . S
C1797 C1798 1.395 . S
C1798 H1762 0.930 . S
C1798 C1797 1.395 . S
C1798 C1799 1.362 . S
C1799 H1763 0.930 . S
C1799 C1794 1.390 . S
C1799 C1798 1.362 . S
C1800 C1789 1.492 . S
C1800 C1801 1.377 . S
C1800 C1805 1.397 . S
C1801 H1764 0.931 . S
C1801 C1800 1.377 . S
C1801 C1802 1.376 . S
C1802 H1765 0.930 . S
C1802 C1801 1.376 . S
C1802 C1803 1.376 . S
C1803 C1802 1.376 . S
C1803 C1804 1.378 . S
C1803 C1830 1.486 . S
C1804 H1766 0.930 . S
C1804 C1803 1.378 . S
C1804 C1805 1.376 . S
C1805 H1767 0.929 . S
C1805 C1800 1.397 . S
C1805 C1804 1.376 . S
C1806 C1790 1.509 . S
C1806 C1807 1.391 . S
C1806 C1811 1.386 . S
C1807 H1768 0.930 . S
C1807 C1806 1.391 . S
C1807 C1808 1.375 . S
C1808 H1769 0.931 . S
C1808 C1807 1.375 . S
C1808 C1809 1.375 . S
C1809 C1808 1.375 . S
C1809 C1810 1.361 . S
C1810 H1770 0.930 . S
C1810 C1809 1.361 . S
C1810 C1811 1.399 . S
C1811 H1771 0.929 . S
C1811 C1806 1.386 . S
C1811 C1810 1.399 . S
C1812 C1791 1.485 . S
C1812 C1813 1.394 . S
C1812 C1817 1.360 . S
C1813 H1772 0.931 . S
C1813 C1812 1.394 . S
C1813 C1814 1.372 . S
C1814 H1773 0.930 . S
C1814 C1813 1.372 . S
C1814 C1815 1.397 . S
C1815 C1814 1.397 . S
C1815 C1816 1.390 . S
C1815 C1831 1.476 . S
C1816 H1774 0.930 . S
C1816 C1815 1.390 . S
C1816 C1817 1.366 . S
C1817 H1775 0.932 . S
C1817 C1812 1.360 . S
C1817 C1816 1.366 . S
C1818 C1792 1.490 . S
C1818 C1819 1.380 . S
C1818 C1823 1.386 . S
C1819 H1776 0.930 . S
C1819 C1818 1.380 . S
C1819 C1820 1.381 . S
C1820 H1777 0.929 . S
C1820 C1819 1.381 . S
C1820 C1821 1.371 . S
C1821 C1820 1.371 . S
C1821 C1822 1.380 . S
C1822 H1778 0.931 . S
C1822 C1821 1.380 . S
C1822 C1823 1.387 . S
C1823 H1779 0.930 . S
C1823 C1818 1.386 . S
C1823 C1822 1.387 . S
C1824 C1793 1.519 . S
C1824 C1825 1.377 . S
C1824 C1829 1.361 . S
C1825 H1780 0.929 . S
C1825 C1824 1.377 . S
C1825 C1826 1.386 . S
C1826 H1781 0.931 . S
C1826 C1825 1.386 . S
C1826 C1827 1.363 . S
C1827 C1826 1.363 . S
C1827 C1828 1.385 . S
C1828 H1782 0.930 . S
C1828 C1827 1.385 . S
C1828 C1829 1.396 . S
C1829 H1783 0.929 . S
C1829 C1824 1.361 . S
C1829 C1828 1.396 . S
C1830 O1784 1.300 . S
C1830 O1785 1.209 . S
C1830 C1803 1.486 . S
C1831 O1786 1.199 . S
C1831 O1787 1.297 . S
C1831 C1815 1.476 . S
H1832 O1858 0.856 . S
H1833 O1861 0.854 . S
H1834 C1869 0.930 . S
H1835 C1870 0.930 . S
H1836 C1872 0.930 . S
H1837 C1873 0.930 . S
H1838 C1875 0.931 . S
H1839 C1876 0.930 . S
H1840 C1878 0.930 . S
H1841 C1879 0.929 . S
H1842 C1881 0.930 . S
H1843 C1882 0.931 . S
H1844 C1884 0.930 . S
H1845 C1885 0.929 . S
H1846 C1887 0.931 . S
H1847 C1888 0.930 . S
H1848 C1890 0.930 . S
H1849 C1891 0.932 . S
H1850 C1893 0.930 . S
H1851 C1894 0.929 . S
H1852 C1896 0.931 . S
H1853 C1897 0.930 . S
H1854 C1899 0.929 . S
H1855 C1900 0.931 . S
H1856 C1902 0.930 . S
H1857 C1903 0.929 . S
O1858 H1832 0.856 . S
O1858 C1904 1.300 . S
O1859 C1904 1.209 . S
O1860 C1905 1.199 . S
O1861 H1833 0.854 . S
O1861 C1905 1.297 . S
C1862 C1863 1.404 . S
C1862 C1867 1.397 . S
C1862 C1868 1.492 . S
C1863 C1862 1.404 . S
C1863 C1864 1.396 . S
C1863 C1874 1.492 . S
C1864 C1863 1.396 . S
C1864 C1865 1.397 . S
C1864 C1880 1.509 . S
C1865 C1864 1.397 . S
C1865 C1866 1.412 . S
C1865 C1886 1.485 . S
C1866 C1865 1.412 . S
C1866 C1867 1.388 . S
C1866 C1892 1.490 . S
C1867 C1862 1.397 . S
C1867 C1866 1.388 . S
C1867 C1898 1.519 . S
C1868 C1862 1.492 . S
C1868 C1869 1.363 . S
C1868 C1873 1.390 . S
C1869 H1834 0.930 . S
C1869 C1868 1.363 . S
C1869 C1870 1.372 . S
C1870 H1835 0.930 . S
C1870 C1869 1.372 . S
C1870 C1871 1.383 . S
C1871 C1870 1.383 . S
C1871 C1872 1.395 . S
C1872 H1836 0.930 . S
C1872 C1871 1.395 . S
C1872 C1873 1.362 . S
C1873 H1837 0.930 . S
C1873 C1868 1.390 . S
C1873 C1872 1.362 . S
C1874 C1863 1.492 . S
C1874 C1875 1.377 . S
C1874 C1879 1.397 . S
C1875 H1838 0.931 . S
C1875 C1874 1.377 . S
C1875 C1876 1.376 . S
C1876 H1839 0.930 . S
C1876 C1875 1.376 . S
C1876 C1877 1.376 . S
C1877 C1876 1.376 . S
C1877 C1878 1.378 . S
C1877 C1904 1.486 . S
C1878 H1840 0.930 . S
C1878 C1877 1.378 . S
C1878 C1879 1.376 . S
C1879 H1841 0.929 . S
C1879 C1874 1.397 . S
C1879 C1878 1.376 . S
C1880 C1864 1.509 . S
C1880 C1881 1.391 . S
C1880 C1885 1.386 . S
C1881 H1842 0.930 . S
C1881 C1880 1.391 . S
C1881 C1882 1.375 . S
C1882 H1843 0.931 . S
C1882 C1881 1.375 . S
C1882 C1883 1.375 . S
C1883 C1882 1.375 . S
C1883 C1884 1.361 . S
C1884 H1844 0.930 . S
C1884 C1883 1.361 . S
C1884 C1885 1.399 . S
C1885 H1845 0.929 . S
C1885 C1880 1.386 . S
C1885 C1884 1.399 . S
C1886 C1865 1.485 . S
C1886 C1887 1.394 . S
C1886 C1891 1.360 . S
C1887 H1846 0.931 . S
C1887 C1886 1.394 . S
C1887 C1888 1.372 . S
C1888 H1847 0.930 . S
C1888 C1887 1.372 . S
C1888 C1889 1.397 . S
C1889 C1888 1.397 . S
C1889 C1890 1.390 . S
C1889 C1905 1.476 . S
C1890 H1848 0.930 . S
C1890 C1889 1.390 . S
C1890 C1891 1.366 . S
C1891 H1849 0.932 . S
C1891 C1886 1.360 . S
C1891 C1890 1.366 . S
C1892 C1866 1.490 . S
C1892 C1893 1.380 . S
C1892 C1897 1.386 . S
C1893 H1850 0.930 . S
C1893 C1892 1.380 . S
C1893 C1894 1.381 . S
C1894 H1851 0.929 . S
C1894 C1893 1.381 . S
C1894 C1895 1.371 . S
C1895 C1894 1.371 . S
C1895 C1896 1.380 . S
C1896 H1852 0.931 . S
C1896 C1895 1.380 . S
C1896 C1897 1.387 . S
C1897 H1853 0.930 . S
C1897 C1892 1.386 . S
C1897 C1896 1.387 . S
C1898 C1867 1.519 . S
C1898 C1899 1.377 . S
C1898 C1903 1.361 . S
C1899 H1854 0.929 . S
C1899 C1898 1.377 . S
C1899 C1900 1.386 . S
C1900 H1855 0.931 . S
C1900 C1899 1.386 . S
C1900 C1901 1.363 . S
C1901 C1900 1.363 . S
C1901 C1902 1.385 . S
C1902 H1856 0.930 . S
C1902 C1901 1.385 . S
C1902 C1903 1.396 . S
C1903 H1857 0.929 . S
C1903 C1898 1.361 . S
C1903 C1902 1.396 . S
C1904 O1858 1.300 . S
C1904 O1859 1.209 . S
C1904 C1877 1.486 . S
C1905 O1860 1.199 . S
C1905 O1861 1.297 . S
C1905 C1889 1.476 . S
H1906 O1932 0.856 . S
H1907 O1935 0.854 . S
H1908 C1943 0.930 . S
H1909 C1944 0.930 . S
H1910 C1946 0.930 . S
H1911 C1947 0.930 . S
H1912 C1949 0.931 . S
H1913 C1950 0.930 . S
H1914 C1952 0.930 . S
H1915 C1953 0.929 . S
H1916 C1955 0.930 . S
H1917 C1956 0.931 . S
H1918 C1958 0.930 . S
H1919 C1959 0.929 . S
H1920 C1961 0.931 . S
H1921 C1962 0.930 . S
H1922 C1964 0.930 . S
H1923 C1965 0.932 . S
H1924 C1967 0.930 . S
H1925 C1968 0.929 . S
H1926 C1970 0.931 . S
H1927 C1971 0.930 . S
H1928 C1973 0.929 . S
H1929 C1974 0.931 . S
H1930 C1976 0.930 . S
H1931 C1977 0.929 . S
O1932 H1906 0.856 . S
O1932 C1978 1.300 . S
O1933 C1978 1.209 . S
O1934 C1979 1.199 . S
O1935 H1907 0.854 . S
O1935 C1979 1.297 . S
C1936 C1937 1.404 . S
C1936 C1941 1.397 . S
C1936 C1942 1.492 . S
C1937 C1936 1.404 . S
C1937 C1938 1.396 . S
C1937 C1948 1.492 . S
C1938 C1937 1.396 . S
C1938 C1939 1.397 . S
C1938 C1954 1.509 . S
C1939 C1938 1.397 . S
C1939 C1940 1.412 . S
C1939 C1960 1.485 . S
C1940 C1939 1.412 . S
C1940 C1941 1.388 . S
C1940 C1966 1.490 . S
C1941 C1936 1.397 . S
C1941 C1940 1.388 . S
C1941 C1972 1.519 . S
C1942 C1936 1.492 . S
C1942 C1943 1.363 . S
C1942 C1947 1.390 . S
C1943 H1908 0.930 . S
C1943 C1942 1.363 . S
C1943 C1944 1.372 . S
C1944 H1909 0.930 . S
C1944 C1943 1.372 . S
C1944 C1945 1.383 . S
C1945 C1944 1.383 . S
C1945 C1946 1.395 . S
C1946 H1910 0.930 . S
C1946 C1945 1.395 . S
C1946 C1947 1.362 . S
C1947 H1911 0.930 . S
C1947 C1942 1.390 . S
C1947 C1946 1.362 . S
C1948 C1937 1.492 . S
C1948 C1949 1.377 . S
C1948 C1953 1.397 . S
C1949 H1912 0.931 . S
C1949 C1948 1.377 . S
C1949 C1950 1.376 . S
C1950 H1913 0.930 . S
C1950 C1949 1.376 . S
C1950 C1951 1.376 . S
C1951 C1950 1.376 . S
C1951 C1952 1.378 . S
C1951 C1978 1.486 . S
C1952 H1914 0.930 . S
C1952 C1951 1.378 . S
C1952 C1953 1.376 . S
C1953 H1915 0.929 . S
C1953 C1948 1.397 . S
C1953 C1952 1.376 . S
C1954 C1938 1.509 . S
C1954 C1955 1.391 . S
C1954 C1959 1.386 . S
C1955 H1916 0.930 . S
C1955 C1954 1.391 . S
C1955 C1956 1.375 . S
C1956 H1917 0.931 . S
C1956 C1955 1.375 . S
C1956 C1957 1.375 . S
C1957 C1956 1.375 . S
C1957 C1958 1.361 . S
C1958 H1918 0.930 . S
C1958 C1957 1.361 . S
C1958 C1959 1.399 . S
C1959 H1919 0.929 . S
C1959 C1954 1.386 . S
C1959 C1958 1.399 . S
C1960 C1939 1.485 . S
C1960 C1961 1.394 . S
C1960 C1965 1.360 . S
C1961 H1920 0.931 . S
C1961 C1960 1.394 . S
C1961 C1962 1.372 . S
C1962 H1921 0.930 . S
C1962 C1961 1.372 . S
C1962 C1963 1.397 . S
C1963 C1962 1.397 . S
C1963 C1964 1.390 . S
C1963 C1979 1.476 . S
C1964 H1922 0.930 . S
C1964 C1963 1.390 . S
C1964 C1965 1.366 . S
C1965 H1923 0.932 . S
C1965 C1960 1.360 . S
C1965 C1964 1.366 . S
C1966 C1940 1.490 . S
C1966 C1967 1.380 . S
C1966 C1971 1.386 . S
C1967 H1924 0.930 . S
C1967 C1966 1.380 . S
C1967 C1968 1.381 . S
C1968 H1925 0.929 . S
C1968 C1967 1.381 . S
C1968 C1969 1.371 . S
C1969 C1968 1.371 . S
C1969 C1970 1.380 . S
C1970 H1926 0.931 . S
C1970 C1969 1.380 . S
C1970 C1971 1.387 . S
C1971 H1927 0.930 . S
C1971 C1966 1.386 . S
C1971 C1970 1.387 . S
C1972 C1941 1.519 . S
C1972 C1973 1.377 . S
C1972 C1977 1.361 . S
C1973 H1928 0.929 . S
C1973 C1972 1.377 . S
C1973 C1974 1.386 . S
C1974 H1929 0.931 . S
C1974 C1973 1.386 . S
C1974 C1975 1.363 . S
C1975 C1974 1.363 . S
C1975 C1976 1.385 . S
C1976 H1930 0.930 . S
C1976 C1975 1.385 . S
C1976 C1977 1.396 . S
C1977 H1931 0.929 . S
C1977 C1972 1.361 . S
C1977 C1976 1.396 . S
C1978 O1932 1.300 . S
C1978 O1933 1.209 . S
C1978 C1951 1.486 . S
C1979 O1934 1.199 . S
C1979 O1935 1.297 . S
C1979 C1963 1.476 . S
H1980 O2006 0.856 . S
H1981 O2009 0.854 . S
H1982 C2017 0.930 . S
H1983 C2018 0.930 . S
H1984 C2020 0.930 . S
H1985 C2021 0.930 . S
H1986 C2023 0.931 . S
H1987 C2024 0.930 . S
H1988 C2026 0.930 . S
H1989 C2027 0.929 . S
H1990 C2029 0.930 . S
H1991 C2030 0.931 . S
H1992 C2032 0.930 . S
H1993 C2033 0.929 . S
H1994 C2035 0.931 . S
H1995 C2036 0.930 . S
H1996 C2038 0.930 . S
H1997 C2039 0.932 . S
H1998 C2041 0.930 . S
H1999 C2042 0.929 . S
H2000 C2044 0.931 . S
H2001 C2045 0.930 . S
H2002 C2047 0.929 . S
H2003 C2048 0.931 . S
H2004 C2050 0.930 . S
H2005 C2051 0.929 . S
O2006 H1980 0.856 . S
O2006 C2052 1.300 . S
O2007 C2052 1.209 . S
O2008 C2053 1.199 . S
O2009 H1981 0.854 . S
O2009 C2053 1.297 . S
C2010 C2011 1.404 . S
C2010 C2015 1.397 . S
C2010 C2016 1.492 . S
C2011 C2010 1.404 . S
C2011 C2012 1.396 . S
C2011 C2022 1.492 . S
C2012 C2011 1.396 . S
C2012 C2013 1.397 . S
C2012 C2028 1.509 . S
C2013 C2012 1.397 . S
C2013 C2014 1.412 . S
C2013 C2034 1.485 . S
C2014 C2013 1.412 . S
C2014 C2015 1.388 . S
C2014 C2040 1.490 . S
C2015 C2010 1.397 . S
C2015 C2014 1.388 . S
C2015 C2046 1.519 . S
C2016 C2010 1.492 . S
C2016 C2017 1.363 . S
C2016 C2021 1.390 . S
C2017 H1982 0.930 . S
C2017 C2016 1.363 . S
C2017 C2018 1.372 . S
C2018 H1983 0.930 . S
C2018 C2017 1.372 . S
C2018 C2019 1.383 . S
C2019 C2018 1.383 . S
C2019 C2020 1.395 . S
C2020 H1984 0.930 . S
C2020 C2019 1.395 . S
C2020 C2021 1.362 . S
C2021 H1985 0.930 . S
C2021 C2016 1.390 . S
C2021 C2020 1.362 . S
C2022 C2011 1.492 . S
C2022 C2023 1.377 . S
C2022 C2027 1.397 . S
C2023 H1986 0.931 . S
C2023 C2022 1.377 . S
C2023 C2024 1.376 . S
C2024 H1987 0.930 . S
C2024 C2023 1.376 . S
C2024 C2025 1.376 . S
C2025 C2024 1.376 . S
C2025 C2026 1.378 . S
C2025 C2052 1.486 . S
C2026 H1988 0.930 . S
C2026 C2025 1.378 . S
C2026 C2027 1.376 . S
C2027 H1989 0.929 . S
C2027 C2022 1.397 . S
C2027 C2026 1.376 . S
C2028 C2012 1.509 . S
C2028 C2029 1.391 . S
C2028 C2033 1.386 . S
C2029 H1990 0.930 . S
C2029 C2028 1.391 . S
C2029 C2030 1.375 . S
C2030 H1991 0.931 . S
C2030 C2029 1.375 . S
C2030 C2031 1.375 . S
C2031 C2030 1.375 . S
C2031 C2032 1.361 . S
C2032 H1992 0.930 . S
C2032 C2031 1.361 . S
C2032 C2033 1.399 . S
C2033 H1993 0.929 . S
C2033 C2028 1.386 . S
C2033 C2032 1.399 . S
C2034 C2013 1.485 . S
C2034 C2035 1.394 . S
C2034 C2039 1.360 . S
C2035 H1994 0.931 . S
C2035 C2034 1.394 . S
C2035 C2036 1.372 . S
C2036 H1995 0.930 . S
C2036 C2035 1.372 . S
C2036 C2037 1.397 . S
C2037 C2036 1.397 . S
C2037 C2038 1.390 . S
C2037 C2053 1.476 . S
C2038 H1996 0.930 . S
C2038 C2037 1.390 . S
C2038 C2039 1.366 . S
C2039 H1997 0.932 . S
C2039 C2034 1.360 . S
C2039 C2038 1.366 . S
C2040 C2014 1.490 . S
C2040 C2041 1.380 . S
C2040 C2045 1.386 . S
C2041 H1998 0.930 . S
C2041 C2040 1.380 . S
C2041 C2042 1.381 . S
C2042 H1999 0.929 . S
C2042 C2041 1.381 . S
C2042 C2043 1.371 . S
C2043 C2042 1.371 . S
C2043 C2044 1.380 . S
C2044 H2000 0.931 . S
C2044 C2043 1.380 . S
C2044 C2045 1.387 . S
C2045 H2001 0.930 . S
C2045 C2040 1.386 . S
C2045 C2044 1.387 . S
C2046 C2015 1.519 . S
C2046 C2047 1.377 . S
C2046 C2051 1.361 . S
C2047 H2002 0.929 . S
C2047 C2046 1.377 . S
C2047 C2048 1.386 . S
C2048 H2003 0.931 . S
C2048 C2047 1.386 . S
C2048 C2049 1.363 . S
C2049 C2048 1.363 . S
C2049 C2050 1.385 . S
C2050 H2004 0.930 . S
C2050 C2049 1.385 . S
C2050 C2051 1.396 . S
C2051 H2005 0.929 . S
C2051 C2046 1.361 . S
C2051 C2050 1.396 . S
C2052 O2006 1.300 . S
C2052 O2007 1.209 . S
C2052 C2025 1.486 . S
C2053 O2008 1.199 . S
C2053 O2009 1.297 . S
C2053 C2037 1.476 . S
H2054 O2080 0.856 . S
H2055 O2083 0.854 . S
H2056 C2091 0.930 . S
H2057 C2092 0.930 . S
H2058 C2094 0.930 . S
H2059 C2095 0.930 . S
H2060 C2097 0.931 . S
H2061 C2098 0.930 . S
H2062 C2100 0.930 . S
H2063 C2101 0.929 . S
H2064 C2103 0.930 . S
H2065 C2104 0.931 . S
H2066 C2106 0.930 . S
H2067 C2107 0.929 . S
H2068 C2109 0.931 . S
H2069 C2110 0.930 . S
H2070 C2112 0.930 . S
H2071 C2113 0.932 . S
H2072 C2115 0.930 . S
H2073 C2116 0.929 . S
H2074 C2118 0.931 . S
H2075 C2119 0.930 . S
H2076 C2121 0.929 . S
H2077 C2122 0.931 . S
H2078 C2124 0.930 . S
H2079 C2125 0.929 . S
O2080 H2054 0.856 . S
O2080 C2126 1.300 . S
O2081 C2126 1.209 . S
O2082 C2127 1.199 . S
O2083 H2055 0.854 . S
O2083 C2127 1.297 . S
C2084 C2085 1.404 . S
C2084 C2089 1.397 . S
C2084 C2090 1.492 . S
C2085 C2084 1.404 . S
C2085 C2086 1.396 . S
C2085 C2096 1.492 . S
C2086 C2085 1.396 . S
C2086 C2087 1.397 . S
C2086 C2102 1.509 . S
C2087 C2086 1.397 . S
C2087 C2088 1.412 . S
C2087 C2108 1.485 . S
C2088 C2087 1.412 . S
C2088 C2089 1.388 . S
C2088 C2114 1.490 . S
C2089 C2084 1.397 . S
C2089 C2088 1.388 . S
C2089 C2120 1.519 . S
C2090 C2084 1.492 . S
C2090 C2091 1.363 . S
C2090 C2095 1.390 . S
C2091 H2056 0.930 . S
C2091 C2090 1.363 . S
C2091 C2092 1.372 . S
C2092 H2057 0.930 . S
C2092 C2091 1.372 . S
C2092 C2093 1.383 . S
C2093 C2092 1.383 . S
C2093 C2094 1.395 . S
C2094 H2058 0.930 . S
C2094 C2093 1.395 . S
C2094 C2095 1.362 . S
C2095 H2059 0.930 . S
C2095 C2090 1.390 . S
C2095 C2094 1.362 . S
C2096 C2085 1.492 . S
C2096 C2097 1.377 . S
C2096 C2101 1.397 . S
C2097 H2060 0.931 . S
C2097 C2096 1.377 . S
C2097 C2098 1.376 . S
C2098 H2061 0.930 . S
C2098 C2097 1.376 . S
C2098 C2099 1.376 . S
C2099 C2098 1.376 . S
C2099 C2100 1.378 . S
C2099 C2126 1.486 . S
C2100 H2062 0.930 . S
C2100 C2099 1.378 . S
C2100 C2101 1.376 . S
C2101 H2063 0.929 . S
C2101 C2096 1.397 . S
C2101 C2100 1.376 . S
C2102 C2086 1.509 . S
C2102 C2103 1.391 . S
C2102 C2107 1.386 . S
C2103 H2064 0.930 . S
C2103 C2102 1.391 . S
C2103 C2104 1.375 . S
C2104 H2065 0.931 . S
C2104 C2103 1.375 . S
C2104 C2105 1.375 . S
C2105 C2104 1.375 . S
C2105 C2106 1.361 . S
C2106 H2066 0.930 . S
C2106 C2105 1.361 . S
C2106 C2107 1.399 . S
C2107 H2067 0.929 . S
C2107 C2102 1.386 . S
C2107 C2106 1.399 . S
C2108 C2087 1.485 . S
C2108 C2109 1.394 . S
C2108 C2113 1.360 . S
C2109 H2068 0.931 . S
C2109 C2108 1.394 . S
C2109 C2110 1.372 . S
C2110 H2069 0.930 . S
C2110 C2109 1.372 . S
C2110 C2111 1.397 . S
C2111 C2110 1.397 . S
C2111 C2112 1.390 . S
C2111 C2127 1.476 . S
C2112 H2070 0.930 . S
C2112 C2111 1.390 . S
C2112 C2113 1.366 . S
C2113 H2071 0.932 . S
C2113 C2108 1.360 . S
C2113 C2112 1.366 . S
C2114 C2088 1.490 . S
C2114 C2115 1.380 . S
C2114 C2119 1.386 . S
C2115 H2072 0.930 . S
C2115 C2114 1.380 . S
C2115 C2116 1.381 . S
C2116 H2073 0.929 . S
C2116 C2115 1.381 . S
C2116 C2117 1.371 . S
C2117 C2116 1.371 . S
C2117 C2118 1.380 . S
C2118 H2074 0.931 . S
C2118 C2117 1.380 . S
C2118 C2119 1.387 . S
C2119 H2075 0.930 . S
C2119 C2114 1.386 . S
C2119 C2118 1.387 . S
C2120 C2089 1.519 . S
C2120 C2121 1.377 . S
C2120 C2125 1.361 . S
C2121 H2076 0.929 . S
C2121 C2120 1.377 . S
C2121 C2122 1.386 . S
C2122 H2077 0.931 . S
C2122 C2121 1.386 . S
C2122 C2123 1.363 . S
C2123 C2122 1.363 . S
C2123 C2124 1.385 . S
C2124 H2078 0.930 . S
C2124 C2123 1.385 . S
C2124 C2125 1.396 . S
C2125 H2079 0.929 . S
C2125 C2120 1.361 . S
C2125 C2124 1.396 . S
C2126 O2080 1.300 . S
C2126 O2081 1.209 . S
C2126 C2099 1.486 . S
C2127 O2082 1.199 . S
C2127 O2083 1.297 . S
C2127 C2111 1.476 . S
C2128 C2129 1.387 . S
C2128 H2132 0.950 . S
C2128 C2137 1.390 . S
C2129 C2128 1.387 . S
C2129 C2131 1.387 . S
H2130 C2137 0.950 . S
C2131 C2129 1.387 . S
C2131 C2133 1.390 . S
C2131 H2135 0.950 . S
H2132 C2128 0.950 . S
C2133 C2131 1.390 . S
C2133 C2134 1.387 . S
C2133 H2136 0.950 . S
C2134 C2133 1.387 . S
C2134 C2137 1.387 . S
H2135 C2131 0.950 . S
H2136 C2133 0.950 . S
C2137 C2128 1.390 . S
C2137 H2130 0.950 . S
C2137 C2134 1.387 . S
C2138 C2139 1.387 . S
C2138 H2142 0.950 . S
C2138 C2147 1.390 . S
C2139 C2138 1.387 . S
C2139 C2141 1.387 . S
H2140 C2147 0.950 . S
C2141 C2139 1.387 . S
C2141 C2143 1.390 . S
C2141 H2145 0.950 . S
H2142 C2138 0.950 . S
C2143 C2141 1.390 . S
C2143 C2144 1.387 . S
C2143 H2146 0.950 . S
C2144 C2143 1.387 . S
C2144 C2147 1.387 . S
H2145 C2141 0.950 . S
H2146 C2143 0.950 . S
C2147 C2138 1.390 . S
C2147 H2140 0.950 . S
C2147 C2144 1.387 . S
C2148 C2149 1.387 . S
C2148 H2152 0.950 . S
C2148 C2157 1.390 . S
C2149 C2148 1.387 . S
C2149 C2151 1.387 . S
H2150 C2157 0.950 . S
C2151 C2149 1.387 . S
C2151 C2153 1.390 . S
C2151 H2155 0.950 . S
H2152 C2148 0.950 . S
C2153 C2151 1.390 . S
C2153 C2154 1.387 . S
C2153 H2156 0.950 . S
C2154 C2153 1.387 . S
C2154 C2157 1.387 . S
H2155 C2151 0.950 . S
H2156 C2153 0.950 . S
C2157 C2148 1.390 . S
C2157 H2150 0.950 . S
C2157 C2154 1.387 . S
C2158 C2159 1.387 . S
C2158 H2162 0.950 . S
C2158 C2167 1.390 . S
C2159 C2158 1.387 . S
C2159 C2161 1.387 . S
H2160 C2167 0.950 . S
C2161 C2159 1.387 . S
C2161 C2163 1.390 . S
C2161 H2165 0.950 . S
H2162 C2158 0.950 . S
C2163 C2161 1.390 . S
C2163 C2164 1.387 . S
C2163 H2166 0.950 . S
C2164 C2163 1.387 . S
C2164 C2167 1.387 . S
H2165 C2161 0.950 . S
H2166 C2163 0.950 . S
C2167 C2158 1.390 . S
C2167 H2160 0.950 . S
C2167 C2164 1.387 . S
C2168 C2169 1.387 . S
C2168 H2172 0.950 . S
C2168 C2177 1.390 . S
C2169 C2168 1.387 . S
C2169 C2171 1.387 . S
H2170 C2177 0.950 . S
C2171 C2169 1.387 . S
C2171 C2173 1.390 . S
C2171 H2175 0.950 . S
H2172 C2168 0.950 . S
C2173 C2171 1.390 . S
C2173 C2174 1.387 . S
C2173 H2176 0.950 . S
C2174 C2173 1.387 . S
C2174 C2177 1.387 . S
H2175 C2171 0.950 . S
H2176 C2173 0.950 . S
C2177 C2168 1.390 . S
C2177 H2170 0.950 . S
C2177 C2174 1.387 . S
C2178 C2179 1.387 . S
C2178 H2182 0.950 . S
C2178 C2187 1.390 . S
C2179 C2178 1.387 . S
C2179 C2181 1.387 . S
H2180 C2187 0.950 . S
C2181 C2179 1.387 . S
C2181 C2183 1.390 . S
C2181 H2185 0.950 . S
H2182 C2178 0.950 . S
C2183 C2181 1.390 . S
C2183 C2184 1.387 . S
C2183 H2186 0.950 . S
C2184 C2183 1.387 . S
C2184 C2187 1.387 . S
H2185 C2181 0.950 . S
H2186 C2183 0.950 . S
C2187 C2178 1.390 . S
C2187 H2180 0.950 . S
C2187 C2184 1.387 . S
C2188 C2189 1.387 . S
C2188 H2192 0.950 . S
C2188 C2197 1.390 . S
C2189 C2188 1.387 . S
C2189 C2191 1.387 . S
H2190 C2197 0.950 . S
C2191 C2189 1.387 . S
C2191 C2193 1.390 . S
C2191 H2195 0.950 . S
H2192 C2188 0.950 . S
C2193 C2191 1.390 . S
C2193 C2194 1.387 . S
C2193 H2196 0.950 . S
C2194 C2193 1.387 . S
C2194 C2197 1.387 . S
H2195 C2191 0.950 . S
H2196 C2193 0.950 . S
C2197 C2188 1.390 . S
C2197 H2190 0.950 . S
C2197 C2194 1.387 . S
C2198 C2199 1.387 . S
C2198 H2202 0.950 . S
C2198 C2207 1.390 . S
C2199 C2198 1.387 . S
C2199 C2201 1.387 . S
H2200 C2207 0.950 . S
C2201 C2199 1.387 . S
C2201 C2203 1.390 . S
C2201 H2205 0.950 . S
H2202 C2198 0.950 . S
C2203 C2201 1.390 . S
C2203 C2204 1.387 . S
C2203 H2206 0.950 1_556 S
C2204 C2203 1.387 . S
C2204 C2207 1.387 . S
H2205 C2201 0.950 . S
H2206 C2203 0.950 1_554 S
C2207 C2198 1.390 . S
C2207 H2200 0.950 . S
C2207 C2204 1.387 . S
C2208 C2209 1.387 . S
C2208 H2212 0.950 . S
C2208 C2217 1.390 . S
C2209 C2208 1.387 . S
C2209 C2211 1.387 . S
H2210 C2217 0.950 . S
C2211 C2209 1.387 . S
C2211 C2213 1.390 . S
C2211 H2215 0.950 . S
H2212 C2208 0.950 . S
C2213 C2211 1.390 . S
C2213 C2214 1.387 . S
C2213 H2216 0.950 . S
C2214 C2213 1.387 . S
C2214 C2217 1.387 . S
H2215 C2211 0.950 . S
H2216 C2213 0.950 . S
C2217 C2208 1.390 . S
C2217 H2210 0.950 . S
C2217 C2214 1.387 . S
C2218 C2219 1.387 . S
C2218 H2222 0.950 . S
C2218 C2227 1.390 . S
C2219 C2218 1.387 . S
C2219 C2221 1.387 . S
H2220 C2227 0.950 . S
C2221 C2219 1.387 . S
C2221 C2223 1.390 . S
C2221 H2225 0.950 . S
H2222 C2218 0.950 . S
C2223 C2221 1.390 . S
C2223 C2224 1.387 . S
C2223 H2226 0.950 . S
C2224 C2223 1.387 . S
C2224 C2227 1.387 . S
H2225 C2221 0.950 . S
H2226 C2223 0.950 . S
C2227 C2218 1.390 . S
C2227 H2220 0.950 . S
C2227 C2224 1.387 . S
C2228 C2229 1.387 . S
C2228 H2232 0.950 . S
C2228 C2237 1.390 . S
C2229 C2228 1.387 . S
C2229 C2231 1.387 . S
H2230 C2237 0.950 . S
C2231 C2229 1.387 . S
C2231 C2233 1.390 . S
C2231 H2235 0.950 . S
H2232 C2228 0.950 . S
C2233 C2231 1.390 . S
C2233 C2234 1.387 . S
C2233 H2236 0.950 . S
C2234 C2233 1.387 . S
C2234 C2237 1.387 . S
H2235 C2231 0.950 . S
H2236 C2233 0.950 . S
C2237 C2228 1.390 . S
C2237 H2230 0.950 . S
C2237 C2234 1.387 . S
C2238 C2239 1.387 . S
C2238 H2242 0.950 . S
C2238 C2247 1.390 . S
C2239 C2238 1.387 . S
C2239 C2241 1.387 . S
H2240 C2247 0.950 . S
C2241 C2239 1.387 . S
C2241 C2243 1.390 . S
C2241 H2245 0.950 . S
H2242 C2238 0.950 . S
C2243 C2241 1.390 . S
C2243 C2244 1.387 . S
C2243 H2246 0.950 . S
C2244 C2243 1.387 . S
C2244 C2247 1.387 . S
H2245 C2241 0.950 . S
H2246 C2243 0.950 . S
C2247 C2238 1.390 . S
C2247 H2240 0.950 . S
C2247 C2244 1.387 . S
C2248 C2249 1.387 . S
C2248 H2252 0.950 . S
C2248 C2257 1.390 . S
C2249 C2248 1.387 . S
C2249 C2251 1.387 . S
H2250 C2257 0.950 . S
C2251 C2249 1.387 . S
C2251 C2253 1.390 . S
C2251 H2255 0.950 . S
H2252 C2248 0.950 . S
C2253 C2251 1.390 . S
C2253 C2254 1.387 . S
C2253 H2256 0.950 . S
C2254 C2253 1.387 . S
C2254 C2257 1.387 . S
H2255 C2251 0.950 . S
H2256 C2253 0.950 . S
C2257 C2248 1.390 . S
C2257 H2250 0.950 . S
C2257 C2254 1.387 . S
C2258 C2259 1.387 . S
C2258 H2262 0.950 . S
C2258 C2267 1.390 . S
C2259 C2258 1.387 . S
C2259 C2261 1.387 . S
H2260 C2267 0.950 . S
C2261 C2259 1.387 . S
C2261 C2263 1.390 . S
C2261 H2265 0.950 . S
H2262 C2258 0.950 . S
C2263 C2261 1.390 . S
C2263 C2264 1.387 . S
C2263 H2266 0.950 . S
C2264 C2263 1.387 . S
C2264 C2267 1.387 . S
H2265 C2261 0.950 . S
H2266 C2263 0.950 . S
C2267 C2258 1.390 . S
C2267 H2260 0.950 . S
C2267 C2264 1.387 . S
C2268 C2269 1.387 . S
C2268 H2272 0.950 . S
C2268 C2277 1.390 . S
C2269 C2268 1.387 . S
C2269 C2271 1.387 . S
H2270 C2277 0.950 . S
C2271 C2269 1.387 . S
C2271 C2273 1.390 . S
C2271 H2275 0.950 . S
H2272 C2268 0.950 . S
C2273 C2271 1.390 . S
C2273 C2274 1.387 . S
C2273 H2276 0.950 . S
C2274 C2273 1.387 . S
C2274 C2277 1.387 . S
H2275 C2271 0.950 . S
H2276 C2273 0.950 . S
C2277 C2268 1.390 . S
C2277 H2270 0.950 . S
C2277 C2274 1.387 . S
C2278 C2279 1.387 . S
C2278 H2282 0.950 . S
C2278 C2287 1.390 . S
C2279 C2278 1.387 . S
C2279 C2281 1.387 . S
H2280 C2287 0.950 . S
C2281 C2279 1.387 . S
C2281 C2283 1.390 . S
C2281 H2285 0.950 . S
H2282 C2278 0.950 . S
C2283 C2281 1.390 . S
C2283 C2284 1.387 . S
C2283 H2286 0.950 . S
C2284 C2283 1.387 . S
C2284 C2287 1.387 . S
H2285 C2281 0.950 . S
H2286 C2283 0.950 . S
C2287 C2278 1.390 . S
C2287 H2280 0.950 . S
C2287 C2284 1.387 . S
C2288 C2289 1.387 . S
C2288 H2292 0.950 . S
C2288 C2297 1.390 . S
C2289 C2288 1.387 . S
C2289 C2291 1.387 . S
H2290 C2297 0.950 . S
C2291 C2289 1.387 . S
C2291 C2293 1.390 . S
C2291 H2295 0.950 . S
H2292 C2288 0.950 . S
C2293 C2291 1.390 . S
C2293 C2294 1.387 . S
C2293 H2296 0.950 . S
C2294 C2293 1.387 . S
C2294 C2297 1.387 . S
H2295 C2291 0.950 . S
H2296 C2293 0.950 . S
C2297 C2288 1.390 . S
C2297 H2290 0.950 . S
C2297 C2294 1.387 . S
C2298 C2299 1.387 . S
C2298 H2302 0.950 . S
C2298 C2307 1.390 . S
C2299 C2298 1.387 . S
C2299 C2301 1.387 . S
H2300 C2307 0.950 . S
C2301 C2299 1.387 . S
C2301 C2303 1.390 . S
C2301 H2305 0.950 . S
H2302 C2298 0.950 . S
C2303 C2301 1.390 . S
C2303 C2304 1.387 . S
C2303 H2306 0.950 . S
C2304 C2303 1.387 . S
C2304 C2307 1.387 . S
H2305 C2301 0.950 . S
H2306 C2303 0.950 . S
C2307 C2298 1.390 . S
C2307 H2300 0.950 . S
C2307 C2304 1.387 . S
C2308 C2309 1.387 . S
C2308 H2312 0.950 . S
C2308 C2317 1.390 . S
C2309 C2308 1.387 . S
C2309 C2311 1.387 . S
H2310 C2317 0.950 . S
C2311 C2309 1.387 . S
C2311 C2313 1.390 . S
C2311 H2315 0.950 . S
H2312 C2308 0.950 . S
C2313 C2311 1.390 . S
C2313 C2314 1.387 . S
C2313 H2316 0.950 . S
C2314 C2313 1.387 . S
C2314 C2317 1.387 . S
H2315 C2311 0.950 . S
H2316 C2313 0.950 . S
C2317 C2308 1.390 . S
C2317 H2310 0.950 . S
C2317 C2314 1.387 . S
C2318 C2319 1.387 . S
C2318 H2322 0.950 . S
C2318 C2327 1.390 . S
C2319 C2318 1.387 . S
C2319 C2321 1.387 . S
H2320 C2327 0.950 . S
C2321 C2319 1.387 . S
C2321 C2323 1.390 . S
C2321 H2325 0.950 . S
H2322 C2318 0.950 . S
C2323 C2321 1.390 . S
C2323 C2324 1.387 . S
C2323 H2326 0.950 . S
C2324 C2323 1.387 . S
C2324 C2327 1.387 . S
H2325 C2321 0.950 . S
H2326 C2323 0.950 . S
C2327 C2318 1.390 . S
C2327 H2320 0.950 . S
C2327 C2324 1.387 . S
C2328 C2329 1.387 . S
C2328 H2332 0.950 . S
C2328 C2337 1.390 . S
C2329 C2328 1.387 . S
C2329 C2331 1.387 . S
H2330 C2337 0.950 . S
C2331 C2329 1.387 . S
C2331 C2333 1.390 . S
C2331 H2335 0.950 . S
H2332 C2328 0.950 . S
C2333 C2331 1.390 . S
C2333 C2334 1.387 . S
C2333 H2336 0.950 . S
C2334 C2333 1.387 . S
C2334 C2337 1.387 . S
H2335 C2331 0.950 . S
H2336 C2333 0.950 . S
C2337 C2328 1.390 . S
C2337 H2330 0.950 . S
C2337 C2334 1.387 . S
C2338 C2339 1.387 . S
C2338 H2342 0.950 . S
C2338 C2347 1.390 . S
C2339 C2338 1.387 . S
C2339 C2341 1.387 . S
H2340 C2347 0.950 . S
C2341 C2339 1.387 . S
C2341 C2343 1.390 . S
C2341 H2345 0.950 . S
H2342 C2338 0.950 . S
C2343 C2341 1.390 . S
C2343 C2344 1.387 . S
C2343 H2346 0.950 . S
C2344 C2343 1.387 . S
C2344 C2347 1.387 . S
H2345 C2341 0.950 . S
H2346 C2343 0.950 . S
C2347 C2338 1.390 . S
C2347 H2340 0.950 . S
C2347 C2344 1.387 . S
C2348 C2349 1.387 . S
C2348 H2352 0.950 . S
C2348 C2357 1.390 . S
C2349 C2348 1.387 . S
C2349 C2351 1.387 . S
H2350 C2357 0.950 . S
C2351 C2349 1.387 . S
C2351 C2353 1.390 . S
C2351 H2355 0.950 . S
H2352 C2348 0.950 . S
C2353 C2351 1.390 . S
C2353 C2354 1.387 . S
C2353 H2356 0.950 . S
C2354 C2353 1.387 . S
C2354 C2357 1.387 . S
H2355 C2351 0.950 . S
H2356 C2353 0.950 . S
C2357 C2348 1.390 . S
C2357 H2350 0.950 . S
C2357 C2354 1.387 . S
C2358 C2359 1.387 . S
C2358 H2362 0.950 . S
C2358 C2367 1.390 . S
C2359 C2358 1.387 . S
C2359 C2361 1.387 . S
H2360 C2367 0.950 . S
C2361 C2359 1.387 . S
C2361 C2363 1.390 . S
C2361 H2365 0.950 . S
H2362 C2358 0.950 . S
C2363 C2361 1.390 . S
C2363 C2364 1.387 . S
C2363 H2366 0.950 . S
C2364 C2363 1.387 . S
C2364 C2367 1.387 . S
H2365 C2361 0.950 . S
H2366 C2363 0.950 . S
C2367 C2358 1.390 . S
C2367 H2360 0.950 . S
C2367 C2364 1.387 . S
C2368 C2369 1.387 . S
C2368 H2372 0.950 . S
C2368 C2377 1.390 . S
C2369 C2368 1.387 . S
C2369 C2371 1.387 . S
H2370 C2377 0.950 . S
C2371 C2369 1.387 . S
C2371 C2373 1.390 . S
C2371 H2375 0.950 . S
H2372 C2368 0.950 . S
C2373 C2371 1.390 . S
C2373 C2374 1.387 . S
C2373 H2376 0.950 . S
C2374 C2373 1.387 . S
C2374 C2377 1.387 . S
H2375 C2371 0.950 . S
H2376 C2373 0.950 . S
C2377 C2368 1.390 . S
C2377 H2370 0.950 . S
C2377 C2374 1.387 . S
C2378 C2379 1.387 . S
C2378 H2382 0.950 . S
C2378 C2387 1.390 . S
C2379 C2378 1.387 . S
C2379 C2381 1.387 . S
H2380 C2387 0.950 . S
C2381 C2379 1.387 . S
C2381 C2383 1.390 . S
C2381 H2385 0.950 . S
H2382 C2378 0.950 . S
C2383 C2381 1.390 . S
C2383 C2384 1.387 . S
C2383 H2386 0.950 . S
C2384 C2383 1.387 . S
C2384 C2387 1.387 . S
H2385 C2381 0.950 . S
H2386 C2383 0.950 . S
C2387 C2378 1.390 . S
C2387 H2380 0.950 . S
C2387 C2384 1.387 . S
C2388 C2389 1.387 . S
C2388 H2392 0.950 . S
C2388 C2397 1.390 . S
C2389 C2388 1.387 . S
C2389 C2391 1.387 . S
H2390 C2397 0.950 . S
C2391 C2389 1.387 . S
C2391 C2393 1.390 . S
C2391 H2395 0.950 . S
H2392 C2388 0.950 . S
C2393 C2391 1.390 . S
C2393 C2394 1.387 . S
C2393 H2396 0.950 . S
C2394 C2393 1.387 . S
C2394 C2397 1.387 . S
H2395 C2391 0.950 . S
H2396 C2393 0.950 . S
C2397 C2388 1.390 . S
C2397 H2390 0.950 . S
C2397 C2394 1.387 . S
C2398 C2399 1.387 . S
C2398 H2402 0.950 . S
C2398 C2407 1.390 . S
C2399 C2398 1.387 . S
C2399 C2401 1.387 . S
H2400 C2407 0.950 . S
C2401 C2399 1.387 . S
C2401 C2403 1.390 . S
C2401 H2405 0.950 . S
H2402 C2398 0.950 . S
C2403 C2401 1.390 . S
C2403 C2404 1.387 . S
C2403 H2406 0.950 . S
C2404 C2403 1.387 . S
C2404 C2407 1.387 . S
H2405 C2401 0.950 . S
H2406 C2403 0.950 . S
C2407 C2398 1.390 . S
C2407 H2400 0.950 . S
C2407 C2404 1.387 . S
C2408 C2409 1.387 . S
C2408 H2412 0.950 . S
C2408 C2417 1.390 . S
C2409 C2408 1.387 . S
C2409 C2411 1.387 . S
H2410 C2417 0.950 . S
C2411 C2409 1.387 . S
C2411 C2413 1.390 . S
C2411 H2415 0.950 . S
H2412 C2408 0.950 . S
C2413 C2411 1.390 . S
C2413 C2414 1.387 . S
C2413 H2416 0.950 . S
C2414 C2413 1.387 . S
C2414 C2417 1.387 . S
H2415 C2411 0.950 . S
H2416 C2413 0.950 . S
C2417 C2408 1.390 . S
C2417 H2410 0.950 . S
C2417 C2414 1.387 . S
C2418 C2419 1.387 . S
C2418 H2422 0.950 . S
C2418 C2427 1.390 . S
C2419 C2418 1.387 . S
C2419 C2421 1.387 . S
H2420 C2427 0.950 . S
C2421 C2419 1.387 . S
C2421 C2423 1.390 . S
C2421 H2425 0.950 . S
H2422 C2418 0.950 . S
C2423 C2421 1.390 . S
C2423 C2424 1.387 . S
C2423 H2426 0.950 . S
C2424 C2423 1.387 . S
C2424 C2427 1.387 . S
H2425 C2421 0.950 . S
H2426 C2423 0.950 . S
C2427 C2418 1.390 . S
C2427 H2420 0.950 . S
C2427 C2424 1.387 . S
C2428 C2429 1.387 . S
C2428 H2432 0.950 . S
C2428 C2437 1.390 . S
C2429 C2428 1.387 . S
C2429 C2431 1.387 . S
H2430 C2437 0.950 . S
C2431 C2429 1.387 . S
C2431 C2433 1.390 . S
C2431 H2435 0.950 . S
H2432 C2428 0.950 . S
C2433 C2431 1.390 . S
C2433 C2434 1.387 . S
C2433 H2436 0.950 . S
C2434 C2433 1.387 . S
C2434 C2437 1.387 . S
H2435 C2431 0.950 . S
H2436 C2433 0.950 . S
C2437 C2428 1.390 . S
C2437 H2430 0.950 . S
C2437 C2434 1.387 . S
C2438 C2439 1.387 . S
C2438 H2442 0.950 . S
C2438 C2447 1.390 . S
C2439 C2438 1.387 . S
C2439 C2441 1.387 . S
H2440 C2447 0.950 . S
C2441 C2439 1.387 . S
C2441 C2443 1.390 . S
C2441 H2445 0.950 . S
H2442 C2438 0.950 . S
C2443 C2441 1.390 . S
C2443 C2444 1.387 . S
C2443 H2446 0.950 . S
C2444 C2443 1.387 . S
C2444 C2447 1.387 . S
H2445 C2441 0.950 . S
H2446 C2443 0.950 . S
C2447 C2438 1.390 . S
C2447 H2440 0.950 . S
C2447 C2444 1.387 . S
C2448 C2449 1.387 . S
C2448 H2452 0.950 . S
C2448 C2457 1.390 . S
C2449 C2448 1.387 . S
C2449 C2451 1.387 . S
H2450 C2457 0.950 . S
C2451 C2449 1.387 . S
C2451 C2453 1.390 . S
C2451 H2455 0.950 . S
H2452 C2448 0.950 . S
C2453 C2451 1.390 . S
C2453 C2454 1.387 . S
C2453 H2456 0.950 . S
C2454 C2453 1.387 . S
C2454 C2457 1.387 . S
H2455 C2451 0.950 . S
H2456 C2453 0.950 . S
C2457 C2448 1.390 . S
C2457 H2450 0.950 . S
C2457 C2454 1.387 . S
C2458 C2459 1.387 . S
C2458 H2462 0.950 . S
C2458 C2467 1.390 . S
C2459 C2458 1.387 . S
C2459 C2461 1.387 . S
H2460 C2467 0.950 . S
C2461 C2459 1.387 . S
C2461 C2463 1.390 . S
C2461 H2465 0.950 . S
H2462 C2458 0.950 . S
C2463 C2461 1.390 . S
C2463 C2464 1.387 . S
C2463 H2466 0.950 . S
C2464 C2463 1.387 . S
C2464 C2467 1.387 . S
H2465 C2461 0.950 . S
H2466 C2463 0.950 . S
C2467 C2458 1.390 . S
C2467 H2460 0.950 . S
C2467 C2464 1.387 . S
C2468 C2469 1.387 . S
C2468 H2472 0.950 . S
C2468 C2477 1.390 . S
C2469 C2468 1.387 . S
C2469 C2471 1.387 . S
H2470 C2477 0.950 . S
C2471 C2469 1.387 . S
C2471 C2473 1.390 . S
C2471 H2475 0.950 . S
H2472 C2468 0.950 . S
C2473 C2471 1.390 . S
C2473 C2474 1.387 . S
C2473 H2476 0.950 . S
C2474 C2473 1.387 . S
C2474 C2477 1.387 . S
H2475 C2471 0.950 . S
H2476 C2473 0.950 . S
C2477 C2468 1.390 . S
C2477 H2470 0.950 . S
C2477 C2474 1.387 . S
C2478 C2479 1.387 . S
C2478 H2482 0.950 . S
C2478 C2487 1.390 . S
C2479 C2478 1.387 . S
C2479 C2481 1.387 . S
H2480 C2487 0.950 . S
C2481 C2479 1.387 . S
C2481 C2483 1.390 . S
C2481 H2485 0.950 . S
H2482 C2478 0.950 . S
C2483 C2481 1.390 . S
C2483 C2484 1.387 . S
C2483 H2486 0.950 . S
C2484 C2483 1.387 . S
C2484 C2487 1.387 . S
H2485 C2481 0.950 . S
H2486 C2483 0.950 . S
C2487 C2478 1.390 . S
C2487 H2480 0.950 . S
C2487 C2484 1.387 . S
C2488 C2489 1.387 . S
C2488 H2492 0.950 . S
C2488 C2497 1.390 . S
C2489 C2488 1.387 . S
C2489 C2491 1.387 . S
H2490 C2497 0.950 . S
C2491 C2489 1.387 . S
C2491 C2493 1.390 . S
C2491 H2495 0.950 . S
H2492 C2488 0.950 . S
C2493 C2491 1.390 . S
C2493 C2494 1.387 . S
C2493 H2496 0.950 . S
C2494 C2493 1.387 . S
C2494 C2497 1.387 . S
H2495 C2491 0.950 . S
H2496 C2493 0.950 . S
C2497 C2488 1.390 . S
C2497 H2490 0.950 . S
C2497 C2494 1.387 . S
C2498 C2499 1.387 . S
C2498 H2502 0.950 . S
C2498 C2507 1.390 . S
C2499 C2498 1.387 . S
C2499 C2501 1.387 . S
H2500 C2507 0.950 . S
C2501 C2499 1.387 . S
C2501 C2503 1.390 . S
C2501 H2505 0.950 . S
H2502 C2498 0.950 . S
C2503 C2501 1.390 . S
C2503 C2504 1.387 . S
C2503 H2506 0.950 . S
C2504 C2503 1.387 . S
C2504 C2507 1.387 . S
H2505 C2501 0.950 . S
H2506 C2503 0.950 . S
C2507 C2498 1.390 . S
C2507 H2500 0.950 . S
C2507 C2504 1.387 . S
C2508 C2509 1.387 . S
C2508 H2512 0.950 . S
C2508 C2517 1.390 . S
C2509 C2508 1.387 . S
C2509 C2511 1.387 . S
H2510 C2517 0.950 . S
C2511 C2509 1.387 . S
C2511 C2513 1.390 . S
C2511 H2515 0.950 . S
H2512 C2508 0.950 . S
C2513 C2511 1.390 . S
C2513 C2514 1.387 . S
C2513 H2516 0.950 . S
C2514 C2513 1.387 . S
C2514 C2517 1.387 . S
H2515 C2511 0.950 . S
H2516 C2513 0.950 . S
C2517 C2508 1.390 . S
C2517 H2510 0.950 . S
C2517 C2514 1.387 . S
C2518 C2519 1.387 . S
C2518 H2522 0.950 . S
C2518 C2527 1.390 . S
C2519 C2518 1.387 . S
C2519 C2521 1.387 . S
H2520 C2527 0.950 . S
C2521 C2519 1.387 . S
C2521 C2523 1.390 . S
C2521 H2525 0.950 . S
H2522 C2518 0.950 . S
C2523 C2521 1.390 . S
C2523 C2524 1.387 . S
C2523 H2526 0.950 . S
C2524 C2523 1.387 . S
C2524 C2527 1.387 . S
H2525 C2521 0.950 . S
H2526 C2523 0.950 . S
C2527 C2518 1.390 . S
C2527 H2520 0.950 . S
C2527 C2524 1.387 . S
C2528 C2529 1.387 . S
C2528 H2532 0.950 . S
C2528 C2537 1.390 . S
C2529 C2528 1.387 . S
C2529 C2531 1.387 . S
H2530 C2537 0.950 . S
C2531 C2529 1.387 . S
C2531 C2533 1.390 . S
C2531 H2535 0.950 . S
H2532 C2528 0.950 . S
C2533 C2531 1.390 . S
C2533 C2534 1.387 . S
C2533 H2536 0.950 . S
C2534 C2533 1.387 . S
C2534 C2537 1.387 . S
H2535 C2531 0.950 . S
H2536 C2533 0.950 . S
C2537 C2528 1.390 . S
C2537 H2530 0.950 . S
C2537 C2534 1.387 . S
C2538 C2539 1.387 . S
C2538 H2542 0.950 . S
C2538 C2547 1.390 . S
C2539 C2538 1.387 . S
C2539 C2541 1.387 . S
H2540 C2547 0.950 . S
C2541 C2539 1.387 . S
C2541 C2543 1.390 . S
C2541 H2545 0.950 . S
H2542 C2538 0.950 . S
C2543 C2541 1.390 . S
C2543 C2544 1.387 . S
C2543 H2546 0.950 . S
C2544 C2543 1.387 . S
C2544 C2547 1.387 . S
H2545 C2541 0.950 . S
H2546 C2543 0.950 . S
C2547 C2538 1.390 . S
C2547 H2540 0.950 . S
C2547 C2544 1.387 . S
C2548 C2549 1.387 . S
C2548 H2552 0.950 . S
C2548 C2557 1.390 . S
C2549 C2548 1.387 . S
C2549 C2551 1.387 . S
H2550 C2557 0.950 . S
C2551 C2549 1.387 . S
C2551 C2553 1.390 . S
C2551 H2555 0.950 . S
H2552 C2548 0.950 . S
C2553 C2551 1.390 . S
C2553 C2554 1.387 . S
C2553 H2556 0.950 . S
C2554 C2553 1.387 . S
C2554 C2557 1.387 . S
H2555 C2551 0.950 . S
H2556 C2553 0.950 . S
C2557 C2548 1.390 . S
C2557 H2550 0.950 . S
C2557 C2554 1.387 . S
C2558 C2559 1.387 . S
C2558 H2562 0.950 . S
C2558 C2567 1.390 . S
C2559 C2558 1.387 . S
C2559 C2561 1.387 . S
H2560 C2567 0.950 . S
C2561 C2559 1.387 . S
C2561 C2563 1.390 . S
C2561 H2565 0.950 . S
H2562 C2558 0.950 . S
C2563 C2561 1.390 . S
C2563 C2564 1.387 . S
C2563 H2566 0.950 . S
C2564 C2563 1.387 . S
C2564 C2567 1.387 . S
H2565 C2561 0.950 . S
H2566 C2563 0.950 . S
C2567 C2558 1.390 . S
C2567 H2560 0.950 . S
C2567 C2564 1.387 . S
C2568 C2569 1.387 . S
C2568 H2572 0.950 . S
C2568 C2577 1.390 . S
C2569 C2568 1.387 . S
C2569 C2571 1.387 . S
H2570 C2577 0.950 . S
C2571 C2569 1.387 . S
C2571 C2573 1.390 . S
C2571 H2575 0.950 . S
H2572 C2568 0.950 . S
C2573 C2571 1.390 . S
C2573 C2574 1.387 . S
C2573 H2576 0.950 . S
C2574 C2573 1.387 . S
C2574 C2577 1.387 . S
H2575 C2571 0.950 . S
H2576 C2573 0.950 . S
C2577 C2568 1.390 . S
C2577 H2570 0.950 . S
C2577 C2574 1.387 . S
C2578 C2579 1.387 . S
C2578 H2582 0.950 . S
C2578 C2587 1.390 . S
C2579 C2578 1.387 . S
C2579 C2581 1.387 . S
H2580 C2587 0.950 . S
C2581 C2579 1.387 . S
C2581 C2583 1.390 . S
C2581 H2585 0.950 . S
H2582 C2578 0.950 . S
C2583 C2581 1.390 . S
C2583 C2584 1.387 . S
C2583 H2586 0.950 . S
C2584 C2583 1.387 . S
C2584 C2587 1.387 . S
H2585 C2581 0.950 . S
H2586 C2583 0.950 . S
C2587 C2578 1.390 . S
C2587 H2580 0.950 . S
C2587 C2584 1.387 . S
C2588 C2589 1.387 . S
C2588 H2592 0.950 . S
C2588 C2597 1.390 . S
C2589 C2588 1.387 . S
C2589 C2591 1.387 . S
H2590 C2597 0.950 . S
C2591 C2589 1.387 . S
C2591 C2593 1.390 . S
C2591 H2595 0.950 . S
H2592 C2588 0.950 . S
C2593 C2591 1.390 . S
C2593 C2594 1.387 . S
C2593 H2596 0.950 . S
C2594 C2593 1.387 . S
C2594 C2597 1.387 . S
H2595 C2591 0.950 . S
H2596 C2593 0.950 . S
C2597 C2588 1.390 . S
C2597 H2590 0.950 . S
C2597 C2594 1.387 . S
C2598 C2599 1.387 . S
C2598 H2602 0.950 . S
C2598 C2607 1.390 . S
C2599 C2598 1.387 . S
C2599 C2601 1.387 . S
H2600 C2607 0.950 . S
C2601 C2599 1.387 . S
C2601 C2603 1.390 . S
C2601 H2605 0.950 . S
H2602 C2598 0.950 . S
C2603 C2601 1.390 . S
C2603 C2604 1.387 . S
C2603 H2606 0.950 . S
C2604 C2603 1.387 . S
C2604 C2607 1.387 . S
H2605 C2601 0.950 . S
H2606 C2603 0.950 . S
C2607 C2598 1.390 . S
C2607 H2600 0.950 . S
C2607 C2604 1.387 . S
C2608 C2609 1.387 . S
C2608 H2612 0.950 . S
C2608 C2617 1.390 . S
C2609 C2608 1.387 . S
C2609 C2611 1.387 . S
H2610 C2617 0.950 . S
C2611 C2609 1.387 . S
C2611 C2613 1.390 . S
C2611 H2615 0.950 . S
H2612 C2608 0.950 . S
C2613 C2611 1.390 . S
C2613 C2614 1.387 . S
C2613 H2616 0.950 . S
C2614 C2613 1.387 . S
C2614 C2617 1.387 . S
H2615 C2611 0.950 . S
H2616 C2613 0.950 . S
C2617 C2608 1.390 . S
C2617 H2610 0.950 . S
C2617 C2614 1.387 . S
C2618 C2619 1.387 . S
C2618 H2622 0.950 . S
C2618 C2627 1.390 . S
C2619 C2618 1.387 . S
C2619 C2621 1.387 . S
H2620 C2627 0.950 . S
C2621 C2619 1.387 . S
C2621 C2623 1.390 . S
C2621 H2625 0.950 . S
H2622 C2618 0.950 . S
C2623 C2621 1.390 . S
C2623 C2624 1.387 . S
C2623 H2626 0.950 . S
C2624 C2623 1.387 . S
C2624 C2627 1.387 . S
H2625 C2621 0.950 . S
H2626 C2623 0.950 . S
C2627 C2618 1.390 . S
C2627 H2620 0.950 . S
C2627 C2624 1.387 . S
C2628 C2629 1.387 . S
C2628 H2632 0.950 . S
C2628 C2637 1.390 . S
C2629 C2628 1.387 . S
C2629 C2631 1.387 . S
H2630 C2637 0.950 . S
C2631 C2629 1.387 . S
C2631 C2633 1.390 . S
C2631 H2635 0.950 . S
H2632 C2628 0.950 . S
C2633 C2631 1.390 . S
C2633 C2634 1.387 . S
C2633 H2636 0.950 . S
C2634 C2633 1.387 . S
C2634 C2637 1.387 . S
H2635 C2631 0.950 . S
H2636 C2633 0.950 . S
C2637 C2628 1.390 . S
C2637 H2630 0.950 . S
C2637 C2634 1.387 . S
C2638 C2639 1.387 . S
C2638 H2642 0.950 . S
C2638 C2647 1.390 . S
C2639 C2638 1.387 . S
C2639 C2641 1.387 . S
H2640 C2647 0.950 . S
C2641 C2639 1.387 . S
C2641 C2643 1.390 . S
C2641 H2645 0.950 . S
H2642 C2638 0.950 . S
C2643 C2641 1.390 . S
C2643 C2644 1.387 . S
C2643 H2646 0.950 . S
C2644 C2643 1.387 . S
C2644 C2647 1.387 . S
H2645 C2641 0.950 . S
H2646 C2643 0.950 . S
C2647 C2638 1.390 . S
C2647 H2640 0.950 . S
C2647 C2644 1.387 . S
C2648 C2649 1.387 . S
C2648 H2652 0.950 . S
C2648 C2657 1.390 . S
C2649 C2648 1.387 . S
C2649 C2651 1.387 . S
H2650 C2657 0.950 . S
C2651 C2649 1.387 . S
C2651 C2653 1.390 . S
C2651 H2655 0.950 . S
H2652 C2648 0.950 . S
C2653 C2651 1.390 . S
C2653 C2654 1.387 . S
C2653 H2656 0.950 . S
C2654 C2653 1.387 . S
C2654 C2657 1.387 . S
H2655 C2651 0.950 . S
H2656 C2653 0.950 . S
C2657 C2648 1.390 . S
C2657 H2650 0.950 . S
C2657 C2654 1.387 . S
C2658 C2659 1.387 . S
C2658 H2662 0.950 . S
C2658 C2667 1.390 . S
C2659 C2658 1.387 . S
C2659 C2661 1.387 . S
H2660 C2667 0.950 . S
C2661 C2659 1.387 . S
C2661 C2663 1.390 . S
C2661 H2665 0.950 . S
H2662 C2658 0.950 . S
C2663 C2661 1.390 . S
C2663 C2664 1.387 . S
C2663 H2666 0.950 . S
C2664 C2663 1.387 . S
C2664 C2667 1.387 . S
H2665 C2661 0.950 . S
H2666 C2663 0.950 . S
C2667 C2658 1.390 . S
C2667 H2660 0.950 . S
C2667 C2664 1.387 . S
C2668 C2669 1.387 . S
C2668 H2672 0.950 . S
C2668 C2677 1.390 . S
C2669 C2668 1.387 . S
C2669 C2671 1.387 . S
H2670 C2677 0.950 . S
C2671 C2669 1.387 . S
C2671 C2673 1.390 . S
C2671 H2675 0.950 . S
H2672 C2668 0.950 . S
C2673 C2671 1.390 . S
C2673 C2674 1.387 . S
C2673 H2676 0.950 . S
C2674 C2673 1.387 . S
C2674 C2677 1.387 . S
H2675 C2671 0.950 . S
H2676 C2673 0.950 . S
C2677 C2668 1.390 . S
C2677 H2670 0.950 . S
C2677 C2674 1.387 . S
C2678 C2679 1.387 . S
C2678 H2682 0.950 . S
C2678 C2687 1.390 . S
C2679 C2678 1.387 . S
C2679 C2681 1.387 . S
H2680 C2687 0.950 . S
C2681 C2679 1.387 . S
C2681 C2683 1.390 . S
C2681 H2685 0.950 . S
H2682 C2678 0.950 . S
C2683 C2681 1.390 . S
C2683 C2684 1.387 . S
C2683 H2686 0.950 . S
C2684 C2683 1.387 . S
C2684 C2687 1.387 . S
H2685 C2681 0.950 . S
H2686 C2683 0.950 . S
C2687 C2678 1.390 . S
C2687 H2680 0.950 . S
C2687 C2684 1.387 . S
C2688 C2689 1.387 . S
C2688 H2692 0.950 . S
C2688 C2697 1.390 . S
C2689 C2688 1.387 . S
C2689 C2691 1.387 . S
H2690 C2697 0.950 . S
C2691 C2689 1.387 . S
C2691 C2693 1.390 . S
C2691 H2695 0.950 . S
H2692 C2688 0.950 . S
C2693 C2691 1.390 . S
C2693 C2694 1.387 . S
C2693 H2696 0.950 . S
C2694 C2693 1.387 . S
C2694 C2697 1.387 . S
H2695 C2691 0.950 . S
H2696 C2693 0.950 . S
C2697 C2688 1.390 . S
C2697 H2690 0.950 . S
C2697 C2694 1.387 . S
C2698 C2699 1.387 . S
C2698 H2702 0.950 . S
C2698 C2707 1.390 . S
C2699 C2698 1.387 . S
C2699 C2701 1.387 . S
H2700 C2707 0.950 . S
C2701 C2699 1.387 . S
C2701 C2703 1.390 . S
C2701 H2705 0.950 . S
H2702 C2698 0.950 . S
C2703 C2701 1.390 . S
C2703 C2704 1.387 . S
C2703 H2706 0.950 . S
C2704 C2703 1.387 . S
C2704 C2707 1.387 . S
H2705 C2701 0.950 . S
H2706 C2703 0.950 . S
C2707 C2698 1.390 . S
C2707 H2700 0.950 . S
C2707 C2704 1.387 . S
C2708 C2709 1.387 . S
C2708 H2712 0.950 . S
C2708 C2717 1.390 . S
C2709 C2708 1.387 . S
C2709 C2711 1.387 . S
H2710 C2717 0.950 . S
C2711 C2709 1.387 . S
C2711 C2713 1.390 . S
C2711 H2715 0.950 . S
H2712 C2708 0.950 . S
C2713 C2711 1.390 . S
C2713 C2714 1.387 . S
C2713 H2716 0.950 . S
C2714 C2713 1.387 . S
C2714 C2717 1.387 . S
H2715 C2711 0.950 . S
H2716 C2713 0.950 . S
C2717 C2708 1.390 . S
C2717 H2710 0.950 . S
C2717 C2714 1.387 . S
C2718 C2719 1.387 . S
C2718 H2722 0.950 . S
C2718 C2727 1.390 . S
C2719 C2718 1.387 . S
C2719 C2721 1.387 . S
H2720 C2727 0.950 . S
C2721 C2719 1.387 . S
C2721 C2723 1.390 . S
C2721 H2725 0.950 . S
H2722 C2718 0.950 . S
C2723 C2721 1.390 . S
C2723 C2724 1.387 . S
C2723 H2726 0.950 . S
C2724 C2723 1.387 . S
C2724 C2727 1.387 . S
H2725 C2721 0.950 . S
H2726 C2723 0.950 . S
C2727 C2718 1.390 . S
C2727 H2720 0.950 . S
C2727 C2724 1.387 . S
C2728 C2729 1.387 . S
C2728 H2732 0.950 . S
C2728 C2737 1.390 . S
C2729 C2728 1.387 . S
C2729 C2731 1.387 . S
H2730 C2737 0.950 . S
C2731 C2729 1.387 . S
C2731 C2733 1.390 . S
C2731 H2735 0.950 . S
H2732 C2728 0.950 . S
C2733 C2731 1.390 . S
C2733 C2734 1.387 . S
C2733 H2736 0.950 . S
C2734 C2733 1.387 . S
C2734 C2737 1.387 . S
H2735 C2731 0.950 . S
H2736 C2733 0.950 . S
C2737 C2728 1.390 . S
C2737 H2730 0.950 . S
C2737 C2734 1.387 . S
C2738 C2739 1.387 . S
C2738 H2742 0.950 . S
C2738 C2747 1.390 . S
C2739 C2738 1.387 . S
C2739 C2741 1.387 . S
H2740 C2747 0.950 . S
C2741 C2739 1.387 . S
C2741 C2743 1.390 . S
C2741 H2745 0.950 . S
H2742 C2738 0.950 . S
C2743 C2741 1.390 . S
C2743 C2744 1.387 . S
C2743 H2746 0.950 . S
C2744 C2743 1.387 . S
C2744 C2747 1.387 . S
H2745 C2741 0.950 . S
H2746 C2743 0.950 . S
C2747 C2738 1.390 . S
C2747 H2740 0.950 . S
C2747 C2744 1.387 . S
C2748 C2749 1.387 . S
C2748 H2752 0.950 . S
C2748 C2757 1.390 . S
C2749 C2748 1.387 . S
C2749 C2751 1.387 . S
H2750 C2757 0.950 . S
C2751 C2749 1.387 . S
C2751 C2753 1.390 . S
C2751 H2755 0.950 . S
H2752 C2748 0.950 . S
C2753 C2751 1.390 . S
C2753 C2754 1.387 . S
C2753 H2756 0.950 . S
C2754 C2753 1.387 . S
C2754 C2757 1.387 . S
H2755 C2751 0.950 . S
H2756 C2753 0.950 . S
C2757 C2748 1.390 . S
C2757 H2750 0.950 . S
C2757 C2754 1.387 . S
C2758 C2759 1.387 . S
C2758 H2762 0.950 . S
C2758 C2767 1.390 . S
C2759 C2758 1.387 . S
C2759 C2761 1.387 . S
H2760 C2767 0.950 . S
C2761 C2759 1.387 . S
C2761 C2763 1.390 . S
C2761 H2765 0.950 . S
H2762 C2758 0.950 . S
C2763 C2761 1.390 . S
C2763 C2764 1.387 . S
C2763 H2766 0.950 . S
C2764 C2763 1.387 . S
C2764 C2767 1.387 . S
H2765 C2761 0.950 . S
H2766 C2763 0.950 . S
C2767 C2758 1.390 . S
C2767 H2760 0.950 . S
C2767 C2764 1.387 . S
C2768 C2769 1.387 . S
C2768 H2772 0.950 . S
C2768 C2777 1.390 . S
C2769 C2768 1.387 . S
C2769 C2771 1.387 . S
H2770 C2777 0.950 . S
C2771 C2769 1.387 . S
C2771 C2773 1.390 . S
C2771 H2775 0.950 . S
H2772 C2768 0.950 . S
C2773 C2771 1.390 . S
C2773 C2774 1.387 . S
C2773 H2776 0.950 . S
C2774 C2773 1.387 . S
C2774 C2777 1.387 . S
H2775 C2771 0.950 . S
H2776 C2773 0.950 . S
C2777 C2768 1.390 . S
C2777 H2770 0.950 . S
C2777 C2774 1.387 . S
C2778 C2779 1.387 . S
C2778 H2782 0.950 . S
C2778 C2787 1.390 . S
C2779 C2778 1.387 . S
C2779 C2781 1.387 . S
H2780 C2787 0.950 . S
C2781 C2779 1.387 . S
C2781 C2783 1.390 . S
C2781 H2785 0.950 . S
H2782 C2778 0.950 . S
C2783 C2781 1.390 . S
C2783 C2784 1.387 . S
C2783 H2786 0.950 . S
C2784 C2783 1.387 . S
C2784 C2787 1.387 . S
H2785 C2781 0.950 . S
H2786 C2783 0.950 . S
C2787 C2778 1.390 . S
C2787 H2780 0.950 . S
C2787 C2784 1.387 . S
C2788 C2789 1.387 . S
C2788 H2792 0.950 . S
C2788 C2797 1.390 . S
C2789 C2788 1.387 . S
C2789 C2791 1.387 . S
H2790 C2797 0.950 . S
C2791 C2789 1.387 . S
C2791 C2793 1.390 . S
C2791 H2795 0.950 . S
H2792 C2788 0.950 . S
C2793 C2791 1.390 . S
C2793 C2794 1.387 . S
C2793 H2796 0.950 . S
C2794 C2793 1.387 . S
C2794 C2797 1.387 . S
H2795 C2791 0.950 . S
H2796 C2793 0.950 . S
C2797 C2788 1.390 . S
C2797 H2790 0.950 . S
C2797 C2794 1.387 . S
C2798 C2799 1.387 . S
C2798 H2802 0.950 . S
C2798 C2807 1.390 . S
C2799 C2798 1.387 . S
C2799 C2801 1.387 . S
H2800 C2807 0.950 . S
C2801 C2799 1.387 . S
C2801 C2803 1.390 . S
C2801 H2805 0.950 . S
H2802 C2798 0.950 . S
C2803 C2801 1.390 . S
C2803 C2804 1.387 . S
C2803 H2806 0.950 . S
C2804 C2803 1.387 . S
C2804 C2807 1.387 . S
H2805 C2801 0.950 . S
H2806 C2803 0.950 . S
C2807 C2798 1.390 . S
C2807 H2800 0.950 . S
C2807 C2804 1.387 . S
C2808 C2809 1.387 . S
C2808 H2812 0.950 . S
C2808 C2817 1.390 . S
C2809 C2808 1.387 . S
C2809 C2811 1.387 . S
H2810 C2817 0.950 . S
C2811 C2809 1.387 . S
C2811 C2813 1.390 . S
C2811 H2815 0.950 . S
H2812 C2808 0.950 . S
C2813 C2811 1.390 . S
C2813 C2814 1.387 . S
C2813 H2816 0.950 . S
C2814 C2813 1.387 . S
C2814 C2817 1.387 . S
H2815 C2811 0.950 . S
H2816 C2813 0.950 . S
C2817 C2808 1.390 . S
C2817 H2810 0.950 . S
C2817 C2814 1.387 . S
C2818 C2819 1.387 . S
C2818 H2822 0.950 . S
C2818 C2827 1.390 . S
C2819 C2818 1.387 . S
C2819 C2821 1.387 . S
H2820 C2827 0.950 . S
C2821 C2819 1.387 . S
C2821 C2823 1.390 . S
C2821 H2825 0.950 . S
H2822 C2818 0.950 . S
C2823 C2821 1.390 . S
C2823 C2824 1.387 . S
C2823 H2826 0.950 . S
C2824 C2823 1.387 . S
C2824 C2827 1.387 . S
H2825 C2821 0.950 . S
H2826 C2823 0.950 . S
C2827 C2818 1.390 . S
C2827 H2820 0.950 . S
C2827 C2824 1.387 . S
C2828 C2829 1.387 . S
C2828 H2832 0.950 . S
C2828 C2837 1.390 . S
C2829 C2828 1.387 . S
C2829 C2831 1.387 . S
H2830 C2837 0.950 . S
C2831 C2829 1.387 . S
C2831 C2833 1.390 . S
C2831 H2835 0.950 . S
H2832 C2828 0.950 . S
C2833 C2831 1.390 . S
C2833 C2834 1.387 . S
C2833 H2836 0.950 . S
C2834 C2833 1.387 . S
C2834 C2837 1.387 . S
H2835 C2831 0.950 . S
H2836 C2833 0.950 . S
C2837 C2828 1.390 . S
C2837 H2830 0.950 . S
C2837 C2834 1.387 . S
C2838 C2839 1.387 . S
C2838 H2842 0.950 . S
C2838 C2847 1.390 . S
C2839 C2838 1.387 . S
C2839 C2841 1.387 . S
H2840 C2847 0.950 . S
C2841 C2839 1.387 . S
C2841 C2843 1.390 . S
C2841 H2845 0.950 . S
H2842 C2838 0.950 . S
C2843 C2841 1.390 . S
C2843 C2844 1.387 . S
C2843 H2846 0.950 . S
C2844 C2843 1.387 . S
C2844 C2847 1.387 . S
H2845 C2841 0.950 . S
H2846 C2843 0.950 . S
C2847 C2838 1.390 . S
C2847 H2840 0.950 . S
C2847 C2844 1.387 . S
C2848 C2849 1.387 . S
C2848 H2852 0.950 . S
C2848 C2857 1.390 . S
C2849 C2848 1.387 . S
C2849 C2851 1.387 . S
H2850 C2857 0.950 . S
C2851 C2849 1.387 . S
C2851 C2853 1.390 . S
C2851 H2855 0.950 . S
H2852 C2848 0.950 . S
C2853 C2851 1.390 . S
C2853 C2854 1.387 . S
C2853 H2856 0.950 . S
C2854 C2853 1.387 . S
C2854 C2857 1.387 . S
H2855 C2851 0.950 . S
H2856 C2853 0.950 . S
C2857 C2848 1.390 . S
C2857 H2850 0.950 . S
C2857 C2854 1.387 . S
C2858 C2859 1.387 . S
C2858 H2862 0.950 . S
C2858 C2867 1.390 . S
C2859 C2858 1.387 . S
C2859 C2861 1.387 . S
H2860 C2867 0.950 . S
C2861 C2859 1.387 . S
C2861 C2863 1.390 . S
C2861 H2865 0.950 . S
H2862 C2858 0.950 . S
C2863 C2861 1.390 . S
C2863 C2864 1.387 . S
C2863 H2866 0.950 . S
C2864 C2863 1.387 . S
C2864 C2867 1.387 . S
H2865 C2861 0.950 . S
H2866 C2863 0.950 . S
C2867 C2858 1.390 . S
C2867 H2860 0.950 . S
C2867 C2864 1.387 . S
C2868 C2869 1.387 . S
C2868 H2872 0.950 . S
C2868 C2877 1.390 . S
C2869 C2868 1.387 . S
C2869 C2871 1.387 . S
H2870 C2877 0.950 . S
C2871 C2869 1.387 . S
C2871 C2873 1.390 . S
C2871 H2875 0.950 . S
H2872 C2868 0.950 . S
C2873 C2871 1.390 . S
C2873 C2874 1.387 . S
C2873 H2876 0.950 . S
C2874 C2873 1.387 . S
C2874 C2877 1.387 . S
H2875 C2871 0.950 . S
H2876 C2873 0.950 . S
C2877 C2868 1.390 . S
C2877 H2870 0.950 . S
C2877 C2874 1.387 . S
C2878 C2879 1.387 . S
C2878 H2882 0.950 . S
C2878 C2887 1.390 . S
C2879 C2878 1.387 . S
C2879 C2881 1.387 . S
H2880 C2887 0.950 . S
C2881 C2879 1.387 . S
C2881 C2883 1.390 . S
C2881 H2885 0.950 . S
H2882 C2878 0.950 . S
C2883 C2881 1.390 . S
C2883 C2884 1.387 . S
C2883 H2886 0.950 . S
C2884 C2883 1.387 . S
C2884 C2887 1.387 . S
H2885 C2881 0.950 . S
H2886 C2883 0.950 . S
C2887 C2878 1.390 . S
C2887 H2880 0.950 . S
C2887 C2884 1.387 . S
C2888 C2889 1.387 . S
C2888 H2892 0.950 . S
C2888 C2897 1.390 . S
C2889 C2888 1.387 . S
C2889 C2891 1.387 . S
H2890 C2897 0.950 . S
C2891 C2889 1.387 . S
C2891 C2893 1.390 . S
C2891 H2895 0.950 . S
H2892 C2888 0.950 . S
C2893 C2891 1.390 . S
C2893 C2894 1.387 . S
C2893 H2896 0.950 . S
C2894 C2893 1.387 . S
C2894 C2897 1.387 . S
H2895 C2891 0.950 . S
H2896 C2893 0.950 . S
C2897 C2888 1.390 . S
C2897 H2890 0.950 . S
C2897 C2894 1.387 . S
C2898 C2899 1.387 . S
C2898 H2902 0.950 . S
C2898 C2907 1.390 . S
C2899 C2898 1.387 . S
C2899 C2901 1.387 . S
H2900 C2907 0.950 . S
C2901 C2899 1.387 . S
C2901 C2903 1.390 . S
C2901 H2905 0.950 . S
H2902 C2898 0.950 . S
C2903 C2901 1.390 . S
C2903 C2904 1.387 . S
C2903 H2906 0.950 . S
C2904 C2903 1.387 . S
C2904 C2907 1.387 . S
H2905 C2901 0.950 . S
H2906 C2903 0.950 . S
C2907 C2898 1.390 . S
C2907 H2900 0.950 . S
C2907 C2904 1.387 . S
C2908 C2909 1.387 . S
C2908 H2912 0.950 . S
C2908 C2917 1.390 . S
C2909 C2908 1.387 . S
C2909 C2911 1.387 . S
H2910 C2917 0.950 . S
C2911 C2909 1.387 . S
C2911 C2913 1.390 . S
C2911 H2915 0.950 . S
H2912 C2908 0.950 . S
C2913 C2911 1.390 . S
C2913 C2914 1.387 . S
C2913 H2916 0.950 . S
C2914 C2913 1.387 . S
C2914 C2917 1.387 . S
H2915 C2911 0.950 . S
H2916 C2913 0.950 . S
C2917 C2908 1.390 . S
C2917 H2910 0.950 . S
C2917 C2914 1.387 . S
C2918 C2919 1.387 . S
C2918 H2922 0.950 . S
C2918 C2927 1.390 . S
C2919 C2918 1.387 . S
C2919 C2921 1.387 . S
H2920 C2927 0.950 . S
C2921 C2919 1.387 . S
C2921 C2923 1.390 . S
C2921 H2925 0.950 . S
H2922 C2918 0.950 . S
C2923 C2921 1.390 . S
C2923 C2924 1.387 . S
C2923 H2926 0.950 . S
C2924 C2923 1.387 . S
C2924 C2927 1.387 . S
H2925 C2921 0.950 . S
H2926 C2923 0.950 . S
C2927 C2918 1.390 . S
C2927 H2920 0.950 . S
C2927 C2924 1.387 . S
C2928 C2929 1.387 . S
C2928 H2932 0.950 . S
C2928 C2937 1.390 . S
C2929 C2928 1.387 . S
C2929 C2931 1.387 . S
H2930 C2937 0.950 . S
C2931 C2929 1.387 . S
C2931 C2933 1.390 . S
C2931 H2935 0.950 . S
H2932 C2928 0.950 . S
C2933 C2931 1.390 . S
C2933 C2934 1.387 . S
C2933 H2936 0.950 . S
C2934 C2933 1.387 . S
C2934 C2937 1.387 . S
H2935 C2931 0.950 . S
H2936 C2933 0.950 . S
C2937 C2928 1.390 . S
C2937 H2930 0.950 . S
C2937 C2934 1.387 . S
C2938 C2939 1.387 . S
C2938 H2942 0.950 . S
C2938 C2947 1.390 . S
C2939 C2938 1.387 . S
C2939 C2941 1.387 . S
H2940 C2947 0.950 . S
C2941 C2939 1.387 . S
C2941 C2943 1.390 . S
C2941 H2945 0.950 . S
H2942 C2938 0.950 . S
C2943 C2941 1.390 . S
C2943 C2944 1.387 . S
C2943 H2946 0.950 . S
C2944 C2943 1.387 . S
C2944 C2947 1.387 . S
H2945 C2941 0.950 . S
H2946 C2943 0.950 . S
C2947 C2938 1.390 . S
C2947 H2940 0.950 . S
C2947 C2944 1.387 . S
C2948 C2949 1.387 . S
C2948 H2952 0.950 . S
C2948 C2957 1.390 . S
C2949 C2948 1.387 . S
C2949 C2951 1.387 . S
H2950 C2957 0.950 . S
C2951 C2949 1.387 . S
C2951 C2953 1.390 . S
C2951 H2955 0.950 . S
H2952 C2948 0.950 . S
C2953 C2951 1.390 . S
C2953 C2954 1.387 . S
C2953 H2956 0.950 . S
C2954 C2953 1.387 . S
C2954 C2957 1.387 . S
H2955 C2951 0.950 . S
H2956 C2953 0.950 . S
C2957 C2948 1.390 . S
C2957 H2950 0.950 . S
C2957 C2954 1.387 . S
C2958 C2959 1.387 . S
C2958 H2962 0.950 . S
C2958 C2967 1.390 . S
C2959 C2958 1.387 . S
C2959 C2961 1.387 . S
H2960 C2967 0.950 . S
C2961 C2959 1.387 . S
C2961 C2963 1.390 . S
C2961 H2965 0.950 . S
H2962 C2958 0.950 . S
C2963 C2961 1.390 . S
C2963 C2964 1.387 . S
C2963 H2966 0.950 . S
C2964 C2963 1.387 . S
C2964 C2967 1.387 . S
H2965 C2961 0.950 . S
H2966 C2963 0.950 . S
C2967 C2958 1.390 . S
C2967 H2960 0.950 . S
C2967 C2964 1.387 . S
C2968 C2969 1.387 . S
C2968 H2972 0.950 . S
C2968 C2977 1.390 . S
C2969 C2968 1.387 . S
C2969 C2971 1.387 . S
H2970 C2977 0.950 . S
C2971 C2969 1.387 . S
C2971 C2973 1.390 . S
C2971 H2975 0.950 . S
H2972 C2968 0.950 . S
C2973 C2971 1.390 . S
C2973 C2974 1.387 . S
C2973 H2976 0.950 . S
C2974 C2973 1.387 . S
C2974 C2977 1.387 . S
H2975 C2971 0.950 . S
H2976 C2973 0.950 . S
C2977 C2968 1.390 . S
C2977 H2970 0.950 . S
C2977 C2974 1.387 . S
C2978 C2979 1.387 . S
C2978 H2982 0.950 . S
C2978 C2987 1.390 . S
C2979 C2978 1.387 . S
C2979 C2981 1.387 . S
H2980 C2987 0.950 . S
C2981 C2979 1.387 . S
C2981 C2983 1.390 . S
C2981 H2985 0.950 . S
H2982 C2978 0.950 . S
C2983 C2981 1.390 . S
C2983 C2984 1.387 . S
C2983 H2986 0.950 . S
C2984 C2983 1.387 . S
C2984 C2987 1.387 . S
H2985 C2981 0.950 . S
H2986 C2983 0.950 . S
C2987 C2978 1.390 . S
C2987 H2980 0.950 . S
C2987 C2984 1.387 . S
C2988 C2989 1.387 . S
C2988 H2992 0.950 . S
C2988 C2997 1.390 . S
C2989 C2988 1.387 . S
C2989 C2991 1.387 . S
H2990 C2997 0.950 . S
C2991 C2989 1.387 . S
C2991 C2993 1.390 . S
C2991 H2995 0.950 . S
H2992 C2988 0.950 . S
C2993 C2991 1.390 . S
C2993 C2994 1.387 . S
C2993 H2996 0.950 . S
C2994 C2993 1.387 . S
C2994 C2997 1.387 . S
H2995 C2991 0.950 . S
H2996 C2993 0.950 . S
C2997 C2988 1.390 . S
C2997 H2990 0.950 . S
C2997 C2994 1.387 . S
C2998 C2999 1.387 . S
C2998 H3002 0.950 . S
C2998 C3007 1.390 . S
C2999 C2998 1.387 . S
C2999 C3001 1.387 . S
H3000 C3007 0.950 . S
C3001 C2999 1.387 . S
C3001 C3003 1.390 . S
C3001 H3005 0.950 . S
H3002 C2998 0.950 . S
C3003 C3001 1.390 . S
C3003 C3004 1.387 . S
C3003 H3006 0.950 . S
C3004 C3003 1.387 . S
C3004 C3007 1.387 . S
H3005 C3001 0.950 . S
H3006 C3003 0.950 . S
C3007 C2998 1.390 . S
C3007 H3000 0.950 . S
C3007 C3004 1.387 . S
C3008 C3009 1.387 . S
C3008 H3012 0.950 . S
C3008 C3017 1.390 . S
C3009 C3008 1.387 . S
C3009 C3011 1.387 . S
H3010 C3017 0.950 . S
C3011 C3009 1.387 . S
C3011 C3013 1.390 . S
C3011 H3015 0.950 . S
H3012 C3008 0.950 . S
C3013 C3011 1.390 . S
C3013 C3014 1.387 . S
C3013 H3016 0.950 . S
C3014 C3013 1.387 . S
C3014 C3017 1.387 . S
H3015 C3011 0.950 . S
H3016 C3013 0.950 . S
C3017 C3008 1.390 . S
C3017 H3010 0.950 . S
C3017 C3014 1.387 . S
C3018 C3019 1.387 . S
C3018 H3022 0.950 . S
C3018 C3027 1.390 . S
C3019 C3018 1.387 . S
C3019 C3021 1.387 . S
H3020 C3027 0.950 . S
C3021 C3019 1.387 . S
C3021 C3023 1.390 . S
C3021 H3025 0.950 . S
H3022 C3018 0.950 . S
C3023 C3021 1.390 . S
C3023 C3024 1.387 . S
C3023 H3026 0.950 . S
C3024 C3023 1.387 . S
C3024 C3027 1.387 . S
H3025 C3021 0.950 . S
H3026 C3023 0.950 . S
C3027 C3018 1.390 . S
C3027 H3020 0.950 . S
C3027 C3024 1.387 . S
C3028 C3029 1.387 . S
C3028 H3032 0.950 . S
C3028 C3037 1.390 . S
C3029 C3028 1.387 . S
C3029 C3031 1.387 . S
H3030 C3037 0.950 . S
C3031 C3029 1.387 . S
C3031 C3033 1.390 . S
C3031 H3035 0.950 . S
H3032 C3028 0.950 . S
C3033 C3031 1.390 . S
C3033 C3034 1.387 . S
C3033 H3036 0.950 . S
C3034 C3033 1.387 . S
C3034 C3037 1.387 . S
H3035 C3031 0.950 . S
H3036 C3033 0.950 . S
C3037 C3028 1.390 . S
C3037 H3030 0.950 . S
C3037 C3034 1.387 . S
C3038 C3039 1.387 . S
C3038 H3042 0.950 . S
C3038 C3047 1.390 . S
C3039 C3038 1.387 . S
C3039 C3041 1.387 . S
H3040 C3047 0.950 . S
C3041 C3039 1.387 . S
C3041 C3043 1.390 . S
C3041 H3045 0.950 . S
H3042 C3038 0.950 . S
C3043 C3041 1.390 . S
C3043 C3044 1.387 . S
C3043 H3046 0.950 . S
C3044 C3043 1.387 . S
C3044 C3047 1.387 . S
H3045 C3041 0.950 . S
H3046 C3043 0.950 . S
C3047 C3038 1.390 . S
C3047 H3040 0.950 . S
C3047 C3044 1.387 . S
C3048 C3049 1.387 . S
C3048 H3052 0.950 . S
C3048 C3057 1.390 . S
C3049 C3048 1.387 . S
C3049 C3051 1.387 . S
H3050 C3057 0.950 . S
C3051 C3049 1.387 . S
C3051 C3053 1.390 . S
C3051 H3055 0.950 . S
H3052 C3048 0.950 . S
C3053 C3051 1.390 . S
C3053 C3054 1.387 . S
C3053 H3056 0.950 . S
C3054 C3053 1.387 . S
C3054 C3057 1.387 . S
H3055 C3051 0.950 . S
H3056 C3053 0.950 . S
C3057 C3048 1.390 . S
C3057 H3050 0.950 . S
C3057 C3054 1.387 . S
C3058 C3059 1.387 . S
C3058 H3062 0.950 . S
C3058 C3067 1.390 . S
C3059 C3058 1.387 . S
C3059 C3061 1.387 . S
H3060 C3067 0.950 . S
C3061 C3059 1.387 . S
C3061 C3063 1.390 . S
C3061 H3065 0.950 . S
H3062 C3058 0.950 . S
C3063 C3061 1.390 . S
C3063 C3064 1.387 . S
C3063 H3066 0.950 . S
C3064 C3063 1.387 . S
C3064 C3067 1.387 . S
H3065 C3061 0.950 . S
H3066 C3063 0.950 . S
C3067 C3058 1.390 . S
C3067 H3060 0.950 . S
C3067 C3064 1.387 . S
C3068 C3069 1.387 . S
C3068 H3072 0.950 . S
C3068 C3077 1.390 . S
C3069 C3068 1.387 . S
C3069 C3071 1.387 . S
H3070 C3077 0.950 . S
C3071 C3069 1.387 . S
C3071 C3073 1.390 . S
C3071 H3075 0.950 . S
H3072 C3068 0.950 . S
C3073 C3071 1.390 . S
C3073 C3074 1.387 . S
C3073 H3076 0.950 . S
C3074 C3073 1.387 . S
C3074 C3077 1.387 . S
H3075 C3071 0.950 . S
H3076 C3073 0.950 . S
C3077 C3068 1.390 . S
C3077 H3070 0.950 . S
C3077 C3074 1.387 . S
C3078 C3079 1.387 . S
C3078 H3082 0.950 . S
C3078 C3087 1.390 . S
C3079 C3078 1.387 . S
C3079 C3081 1.387 . S
H3080 C3087 0.950 . S
C3081 C3079 1.387 . S
C3081 C3083 1.390 . S
C3081 H3085 0.950 . S
H3082 C3078 0.950 . S
C3083 C3081 1.390 . S
C3083 C3084 1.387 . S
C3083 H3086 0.950 . S
C3084 C3083 1.387 . S
C3084 C3087 1.387 . S
H3085 C3081 0.950 . S
H3086 C3083 0.950 . S
C3087 C3078 1.390 . S
C3087 H3080 0.950 . S
C3087 C3084 1.387 . S
C2134 C403 1.584 . S
C2129 C7 1.558 . S
C2144 C477 1.174 . S
C2139 C19 1.186 . S
C2149 C29 1.858 . S
C2154 C569 1.863 . S
C2164 C637 1.429 . S
C2159 C41 1.424 . S
C2169 C52 1.664 . S
C2174 C643 1.647 . S
C2179 C62 1.937 . S
C2184 C391 1.869 . S
C2189 C73 1.496 . S
C2194 C465 1.533 . S
C2204 C563 2.139 1_556 S
C2199 C82 1.846 . S
C2214 C699 1.377 . S
C2209 C5 1.341 . S
C2219 C16 1.166 . S
C2224 C773 1.274 . S
C2229 C30 1.770 . S
C2234 C859 1.677 1_655 S
C2244 C921 1.759 . S
C2239 C40 1.725 . S
C2249 C49 1.398 . S
C2254 C995 1.521 . S
C2264 C1081 1.446 . S
C2259 C63 1.462 . S
C2269 C74 1.066 . S
C2274 C1131 1.113 . S
C2284 C1229 1.924 . S
C2279 C85 1.921 . S
C2289 C8 1.297 . S
C2294 C909 1.270 . S
C2299 C51 1.812 . S
C2304 C1087 1.813 . S
C2314 C1143 1.765 . S
C2309 C60 1.690 . S
C2319 C71 1.461 . S
C2324 C1235 1.789 . S
C2334 C983 2.338 . S
C2329 C84 2.203 . S
C2344 C761 1.675 . S
C2339 C27 1.856 . S
C2349 C38 1.019 . S
C2354 C865 1.491 . S
C2364 C687 1.702 . S
C2359 C18 1.888 . S
C2374 C1279 2.586 . S
C2369 C95 2.425 . S
C2379 C107 1.445 . S
C2384 C1353 1.367 . S
C2389 C117 2.249 . S
C2394 C1457 2.259 . S
C2404 C1501 1.354 . S
C2399 C129 1.434 . S
C2409 C140 1.426 . S
C2414 C1513 1.425 . S
C2419 C150 1.756 . S
C2424 C1291 1.912 . S
C2429 C161 1.508 . S
C2434 C1365 1.581 . S
C2439 C170 1.703 . S
C2444 C1451 1.873 . S
C2454 C1007 2.124 . S
C2449 C93 1.781 . S
C2459 C104 1.384 . S
C2464 C1587 1.689 . S
C2474 C1161 2.102 . S
C2469 C118 2.149 . S
C2479 C128 1.806 . S
C2484 C1679 1.707 . S
C2489 C137 1.236 . S
C2494 C711 1.260 . S
C2504 C1723 1.368 . S
C2499 C151 1.402 . S
C2509 C162 0.983 . S
C2514 C847 0.998 . S
C2524 C1821 1.761 . S
C2519 C173 1.673 . S
C2529 C96 1.957 . S
C2534 C1673 1.950 . S
C2544 C1735 1.722 . S
C2539 C139 1.695 . S
C2549 C148 1.339 . S
C2554 C835 1.517 . S
C2564 C1827 1.574 . S
C2559 C159 1.590 . S
C2569 C172 2.269 . S
C2574 C717 2.480 . S
C2579 C115 1.627 . S
C2584 C1575 1.649 . S
C2589 C126 1.093 . S
C2594 C1155 1.233 . S
C2599 C106 1.738 . S
C2604 C1013 1.800 . S
C2609 C183 1.922 . S
C2614 C1427 1.977 . S
C2624 C1531 1.715 . S
C2619 C195 1.747 . S
C2629 C205 2.165 . S
C2634 C1309 2.163 . S
C2639 C217 1.615 . S
C2644 C1383 1.662 . S
C2649 C228 1.688 . S
C2654 C1377 1.660 . S
C2659 C238 1.513 . S
C2664 C1439 1.572 . S
C2674 C1525 1.555 . S
C2669 C249 1.475 . S
C2679 C258 1.522 . S
C2684 C1303 1.800 . S
C2694 C1895 1.730 . S
C2689 C181 1.622 . S
C2699 C192 1.459 . S
C2704 C1069 1.625 . S
C2714 C1975 1.974 . S
C2709 C206 2.013 . S
C2719 C216 1.646 . S
C2724 C1217 1.627 . S
C2729 C225 1.689 . S
C2734 C2049 1.800 . S
C2739 C239 1.387 . S
C2744 C785 1.289 . S
C2754 C2105 1.140 . S
C2749 C250 1.140 . S
C2759 C261 1.905 . S
C2764 C933 2.034 . S
C2774 C1205 1.627 . S
C2769 C184 1.625 . S
C2784 C791 2.158 . S
C2779 C227 2.124 . S
C2789 C236 2.218 . S
C2794 C2093 2.018 . S
C2799 C247 1.632 . S
C2804 C939 1.716 . S
C2814 C2043 2.374 . S
C2809 C260 2.185 . S
C2824 C1057 1.606 . S
C2819 C203 1.492 . S
C2834 C1969 1.392 . S
C2829 C214 0.983 . S
C2844 C1901 1.938 . S
C2839 C194 1.911 . S
C2849 C271 1.973 . S
C2854 C539 1.993 . S
C2859 C283 1.234 . S
C2864 C625 1.241 . S
C2874 C415 1.865 . S
C2869 C293 1.900 . S
C2884 C489 1.395 . S
C2879 C305 1.410 . S
C2894 C495 1.735 . S
C2889 C316 1.799 . S
C2904 C551 1.665 . S
C2899 C326 1.636 . S
C2914 C613 1.127 . S
C2909 C337 1.125 . S
C2919 C346 1.934 . S
C2924 C421 2.141 . S
C2929 C269 1.728 . S
C2934 C2019 1.804 . S
C2944 C1753 1.844 . S
C2939 C280 1.770 . S
C2954 C2117 2.098 . S
C2949 C294 2.168 . S
C2964 C1809 1.603 . S
C2959 C304 1.626 . S
C2969 C313 1.323 . S
C2974 C1883 1.456 . S
C2984 C1599 1.324 . S
C2979 C327 1.311 . S
C2994 C1945 0.687 . S
C2989 C338 0.702 . S
C2999 C349 1.822 . S
C3004 C1649 1.802 . S
C3014 C1797 1.816 . S
C3009 C272 1.820 . S
C3024 C1605 1.925 . S
C3019 C315 1.935 . S
C3034 C1957 1.997 . S
C3029 C324 2.055 . S
C3039 C335 1.186 . S
C3044 C1661 1.509 . S
C3049 C348 2.039 . S
C3054 C1871 2.104 . S
C3059 C291 1.837 . S
C3064 C1747 1.886 . S
C3069 C302 1.173 . S
C3074 C2123 1.701 . S
C3084 C2031 1.802 . S
C3079 C282 1.730 . S
