# Generated by pormake.
# Topology anh, (6,3)-cn, num edge types: 1
# Building blocks:
#     Node 0, Type 0, BuildingBlock: PAMTUU_clean_sbu_0, # of connection points: 6
#     Node 1, Type 0, BuildingBlock: PAMTUU_clean_sbu_0, # of connection points: 6
#     Node 2, Type 0, BuildingBlock: PAMTUU_clean_sbu_0, # of connection points: 6
#     Node 3, Type 1, BuildingBlock: ESEHIV_clean_linker_0, # of connection points: 3
#     Node 4, Type 1, BuildingBlock: ESEHIV_clean_linker_0, # of connection points: 3
#     Node 5, Type 1, BuildingBlock: ESEHIV_clean_linker_0, # of connection points: 3
#     Node 6, Type 1, BuildingBlock: ESEHIV_clean_linker_0, # of connection points: 3
#     Node 7, Type 1, BuildingBlock: ESEHIV_clean_linker_0, # of connection points: 3
#     Node 8, Type 1, BuildingBlock: ESEHIV_clean_linker_0, # of connection points: 3
#     Edge 9, Type (0, 1), BuildingBlock: ZUJKAS_clean_linker_0, # of connection points: 2
#     Edge 10, Type (0, 1), BuildingBlock: ZUJKAS_clean_linker_0, # of connection points: 2
#     Edge 11, Type (0, 1), BuildingBlock: ZUJKAS_clean_linker_0, # of connection points: 2
#     Edge 12, Type (0, 1), BuildingBlock: ZUJKAS_clean_linker_0, # of connection points: 2
#     Edge 13, Type (0, 1), BuildingBlock: ZUJKAS_clean_linker_0, # of connection points: 2
#     Edge 14, Type (0, 1), BuildingBlock: ZUJKAS_clean_linker_0, # of connection points: 2
#     Edge 15, Type (0, 1), BuildingBlock: ZUJKAS_clean_linker_0, # of connection points: 2
#     Edge 16, Type (0, 1), BuildingBlock: ZUJKAS_clean_linker_0, # of connection points: 2
#     Edge 17, Type (0, 1), BuildingBlock: ZUJKAS_clean_linker_0, # of connection points: 2
#     Edge 18, Type (0, 1), BuildingBlock: ZUJKAS_clean_linker_0, # of connection points: 2
#     Edge 19, Type (0, 1), BuildingBlock: ZUJKAS_clean_linker_0, # of connection points: 2
#     Edge 20, Type (0, 1), BuildingBlock: ZUJKAS_clean_linker_0, # of connection points: 2
#     Edge 21, Type (0, 1), BuildingBlock: ZUJKAS_clean_linker_0, # of connection points: 2
#     Edge 22, Type (0, 1), BuildingBlock: ZUJKAS_clean_linker_0, # of connection points: 2
#     Edge 23, Type (0, 1), BuildingBlock: ZUJKAS_clean_linker_0, # of connection points: 2
#     Edge 24, Type (0, 1), BuildingBlock: ZUJKAS_clean_linker_0, # of connection points: 2
#     Edge 25, Type (0, 1), BuildingBlock: ZUJKAS_clean_linker_0, # of connection points: 2
#     Edge 26, Type (0, 1), BuildingBlock: ZUJKAS_clean_linker_0, # of connection points: 2
# Relax obj value: 0.236
# Max RMSD: 0.188
# Mean RMSD: 0.155
data_MOF--net-anh--node1-PAMTUU_clean_sbu_0--node2-ESEHIV_clean_linker_0--edge1-ZUJKAS_clean_linker_0
_symmetry_space_group_name_H-M    P1
_symmetry_Int_Tables_number       1
_symmetry_cell_setting            triclinic
loop_
_symmetry_equiv_pos_as_xyz
'x, y, z'
_cell_length_a     38.58433
_cell_length_b     38.675418
_cell_length_c     67.537624
_cell_angle_alpha  92.949515
_cell_angle_beta   90.91145
_cell_angle_gamma 120.07945
loop_
_atom_site_label
_atom_site_type_symbol
_atom_site_fract_x
_atom_site_fract_y
_atom_site_fract_z
_atom_type_partial_charge
Tb0 Tb 0.08717 0.61097 0.16574 0.0
Tb1 Tb 0.13137 0.5606 0.16844 0.0
C2 C 0.11646 0.58624 0.12606 0.0
C3 C 1.009 0.63345 0.17683 0.0
C4 C 0.93145 0.59193 0.19129 0.0
C5 C 0.93882 0.61405 0.17435 0.0
C6 C 0.9773 0.63463 0.16721 0.0
C7 C 1.00253 0.61431 0.19467 0.0
C8 C 0.96412 0.59399 0.20192 0.0
C9 C 1.04587 0.64481 0.16635 0.0
O10 O 1.03678 0.54875 0.17219 0.0
O11 O 0.06672 0.51128 0.1665 0.0
O12 O 0.10464 0.55681 0.19699 0.0
O13 O 0.10495 0.61545 0.19666 0.0
O14 O 0.13832 0.51223 0.15898 0.0
O15 O 0.17461 0.55274 0.18379 0.0
O16 O 0.1819 0.62515 0.17373 0.0
O17 O 0.15143 0.65995 0.1642 0.0
O18 O 0.09597 0.60131 0.13446 0.0
O19 O 0.13405 0.57115 0.13665 0.0
C20 C 1.0338 0.51277 0.17037 0.0
O21 O 0.07842 0.65735 0.17741 0.0
O22 O 1.04223 0.61865 0.15233 0.0
C23 C 0.10181 0.58572 0.20626 0.0
C24 C 0.20242 0.52044 0.16475 0.0
C25 C 0.2625 0.50659 0.1501 0.0
C26 C 0.25162 0.49995 0.1699 0.0
C27 C 0.22174 0.50672 0.17713 0.0
C28 C 0.21448 0.52907 0.14526 0.0
C29 C 0.24432 0.52215 0.13797 0.0
C30 C 0.16758 0.52194 0.172 0.0
C31 C 0.18464 0.66006 0.17004 0.0
H32 H 0.91444 0.61277 0.16557 0.0
H33 H 0.98164 0.64883 0.15332 0.0
H34 H 1.02654 0.6127 0.2023 0.0
H35 H 0.95963 0.5778 0.21514 0.0
H36 H 0.26566 0.48876 0.17972 0.0
H37 H 0.21285 0.50006 0.19224 0.0
H38 H 0.1999 0.53978 0.13548 0.0
H39 H 0.25192 0.52737 0.12263 0.0
Tb40 Tb 0.5659 0.04929 0.4952 0.0
Tb41 Tb 0.66034 0.09651 0.50255 0.0
C42 C 0.62136 0.07655 0.45854 0.0
C43 C 0.45617 0.97716 0.49789 0.0
C44 C 0.3873 0.9084 0.50919 0.0
C45 C 0.38708 0.94431 0.50726 0.0
C46 C 0.4212 0.97832 0.50163 0.0
C47 C 0.45725 0.94194 0.50058 0.0
C48 C 0.42291 0.90767 0.5061 0.0
C49 C 0.49064 1.01297 0.49092 0.0
O50 O 0.57884 0.99809 0.49647 0.0
O51 O 0.64651 0.03268 0.50451 0.0
O52 O 0.6337 0.09888 0.53059 0.0
O53 O 0.57716 0.03907 0.52495 0.0
O54 O 0.71812 0.13474 0.49318 0.0
O55 O 0.7096 0.11172 0.52219 0.0
O56 O 0.64854 0.14788 0.50113 0.0
O57 O 0.58014 0.11352 0.50181 0.0
O58 O 0.58748 0.06931 0.46608 0.0
O59 O 0.65173 0.08204 0.47014 0.0
C60 C 0.61244 0.99772 0.50136 0.0
O61 O 0.51115 0.04192 0.50446 0.0
O62 O 0.51363 1.00745 0.47872 0.0
C63 C 0.60292 0.06769 0.53733 0.0
C64 C 0.75471 0.18062 0.51944 0.0
C65 C 0.77516 0.26129 0.52298 0.0
C66 C 0.79895 0.24955 0.51223 0.0
C67 C 0.78874 0.20939 0.51046 0.0
C68 C 0.73429 0.19321 0.53236 0.0
C69 C 0.74465 0.23342 0.53421 0.0
C70 C 0.73422 0.13905 0.51089 0.0
C71 C 0.61449 0.14854 0.50245 0.0
H72 H 0.35996 0.94567 0.50918 0.0
H73 H 0.41998 1.00535 0.49971 0.0
H74 H 0.48425 0.94067 0.49802 0.0
H75 H 0.42393 0.88043 0.50757 0.0
H76 H 0.82315 0.27079 0.50372 0.0
H77 H 0.80478 0.20032 0.50039 0.0
H78 H 0.70771 0.17158 0.53938 0.0
H79 H 0.72593 0.24171 0.54263 0.0
Tb80 Tb 0.60097 0.53557 0.82818 0.0
Tb81 Tb 0.65091 0.63004 0.83517 0.0
C82 C 0.62264 0.588 0.79075 0.0
C83 C 0.56566 0.42726 0.83425 0.0
C84 C 0.5593 0.35853 0.85013 0.0
C85 C 0.56747 0.36568 0.83004 0.0
C86 C 0.57051 0.3996 0.82221 0.0
C87 C 0.55945 0.42139 0.85458 0.0
C88 C 0.55612 0.38712 0.86244 0.0
C89 C 0.5643 0.46006 0.82485 0.0
O90 O 0.6652 0.5488 0.83396 0.0
O91 O 0.70187 0.61753 0.8352 0.0
O92 O 0.66063 0.60849 0.86266 0.0
O93 O 0.60231 0.54897 0.85966 0.0
O94 O 0.69125 0.68754 0.82627 0.0
O95 O 0.66057 0.67986 0.85352 0.0
O96 O 0.58677 0.61457 0.8399 0.0
O97 O 0.55115 0.55 0.82683 0.0
O98 O 0.60482 0.55255 0.79783 0.0
O99 O 0.64135 0.62092 0.80258 0.0
C100 C 0.70095 0.58265 0.83559 0.0
O101 O 0.55247 0.48088 0.83548 0.0
O102 O 0.59463 0.48259 0.81439 0.0
C103 C 0.63345 0.57609 0.87038 0.0
C104 C 0.65898 0.72509 0.8325 0.0
C105 C 0.59874 0.74154 0.82057 0.0
C106 C 0.61428 0.75065 0.84031 0.0
C107 C 0.64421 0.7425 0.84622 0.0
C108 C 0.64575 0.71924 0.81243 0.0
C109 C 0.61596 0.72737 0.80655 0.0
C110 C 0.67933 0.70417 0.83977 0.0
C111 C 0.5514 0.58258 0.83443 0.0
H112 H 0.56923 0.34388 0.82002 0.0
H113 H 0.57513 0.40345 0.8065 0.0
H114 H 0.55589 0.4425 0.86426 0.0
H115 H 0.5499 0.3824 0.87796 0.0
H116 H 0.60166 0.76177 0.85141 0.0
H117 H 0.65358 0.74692 0.8618 0.0
H118 H 0.65634 0.70579 0.80142 0.0
H119 H 0.60531 0.72113 0.79112 0.0
H120 H 0.56614 1.03236 0.23925 0.0
H121 H 0.67443 0.14655 0.24047 0.0
H122 H 0.61209 0.08727 0.1841 0.0
C123 C 0.58818 0.05678 0.23118 0.0
C124 C 0.58323 0.0541 0.21028 0.0
C125 C 0.62054 0.08954 0.24211 0.0
C126 C 0.64996 0.12153 0.23186 0.0
C127 C 0.64878 0.12257 0.21093 0.0
C128 C 0.61445 0.08791 0.20011 0.0
H129 H 0.61459 0.63499 0.57146 0.0
H130 H 0.61958 0.52735 0.57144 0.0
H131 H 0.61542 0.57543 0.51531 0.0
C132 C 0.61641 0.61153 0.56293 0.0
C133 C 0.61697 0.61217 0.54195 0.0
C134 C 0.61713 0.58137 0.57349 0.0
C135 C 0.61729 0.54909 0.56288 0.0
C136 C 0.61549 0.54416 0.54188 0.0
C137 C 0.61591 0.57708 0.53136 0.0
H138 H 0.07244 0.58425 0.90556 0.0
H139 H 0.18562 0.58771 0.90661 0.0
H140 H 0.12699 0.58224 0.85031 0.0
C141 C 0.09682 0.58481 0.89756 0.0
C142 C 0.09436 0.58363 0.87661 0.0
C143 C 0.12895 0.58575 0.9085 0.0
C144 C 0.16077 0.58611 0.89809 0.0
C145 C 0.16192 0.58478 0.8771 0.0
C146 C 0.12747 0.58299 0.86635 0.0
H147 H 0.9171 0.55035 0.40286 0.0
H148 H 1.04399 0.63054 0.41262 0.0
H149 H 0.96644 0.60642 0.46112 0.0
C150 C 0.9425 0.57098 0.41263 0.0
C151 C 0.93677 0.57739 0.43275 0.0
C152 C 0.9813 0.58962 0.40539 0.0
C153 C 1.01415 0.61554 0.41827 0.0
C154 C 1.009 0.62201 0.43835 0.0
C155 C 0.97024 0.60312 0.4454 0.0
H156 H 0.46093 0.04667 0.74168 0.0
H157 H 0.44214 0.92906 0.72609 0.0
H158 H 0.4095 0.95538 0.7831 0.0
C159 C 0.44985 1.01592 0.74517 0.0
C160 C 0.43496 1.00403 0.76396 0.0
C161 C 0.45167 0.98879 0.73117 0.0
C162 C 0.43817 0.94931 0.73622 0.0
C163 C 0.42317 0.93704 0.755 0.0
C164 C 0.42032 0.96429 0.76846 0.0
H165 H 0.54164 0.41188 0.04506 0.0
H166 H 0.64355 0.40181 0.06247 0.0
H167 H 0.55956 0.39399 0.10569 0.0
C168 C 0.55819 0.40606 0.05624 0.0
C169 C 0.54549 0.40114 0.07575 0.0
C170 C 0.59379 0.40686 0.05141 0.0
C171 C 0.61583 0.40082 0.06615 0.0
C172 C 0.60355 0.3958 0.08581 0.0
C173 C 0.56795 0.39535 0.09039 0.0
H174 H 0.32308 0.54771 0.12512 0.0
H175 H 0.36861 0.52717 0.11095 0.0
H176 H 0.31237 0.41978 0.14274 0.0
H177 H 0.26599 0.43928 0.15638 0.0
H178 H 0.42265 0.51193 0.13141 0.0
H179 H 0.3099 0.37699 0.08576 0.0
H180 H 0.2994 0.41471 0.09592 0.0
H181 H 0.29831 0.37772 0.11137 0.0
C182 C 0.32017 0.51953 0.12891 0.0
C183 C 0.29098 0.49513 0.14186 0.0
C184 C 0.34626 0.50795 0.12089 0.0
C185 C 0.34334 0.47169 0.12558 0.0
C186 C 0.31456 0.4475 0.13865 0.0
H187 H 0.48478 0.35842 0.1004 0.0
H188 H 0.43454 0.37481 0.11229 0.0
C189 C 0.28848 0.459 0.14665 0.0
C190 C 0.3713 0.45973 0.11736 0.0
H191 H 0.37548 0.38606 0.08926 0.0
C192 C 0.41241 0.48456 0.12209 0.0
C193 C 0.35768 0.42388 0.10529 0.0
C194 C 0.31395 0.39692 0.09911 0.0
C195 C 0.44034 0.4742 0.1153 0.0
C196 C 0.42671 0.43836 0.10327 0.0
C197 C 0.38563 0.41345 0.09855 0.0
C198 C 0.45499 0.4268 0.09517 0.0
C199 C 0.48415 0.50131 0.12129 0.0
C200 C 0.4822 0.45011 0.08131 0.0
C201 C 0.51077 0.44092 0.07456 0.0
C202 C 0.51244 0.40807 0.08148 0.0
C203 C 0.48426 0.384 0.09491 0.0
C204 C 0.45557 0.39321 0.10164 0.0
H205 H 0.48857 0.52261 0.13407 0.0
H206 H 0.4983 0.48354 0.12527 0.0
H207 H 0.49992 0.51898 0.1086 0.0
H208 H 0.48185 0.47592 0.07603 0.0
H209 H 0.53245 0.46045 0.06446 0.0
H210 H 0.7764 0.31827 0.54977 0.0
H211 H 0.77815 0.38075 0.54195 0.0
H212 H 0.77681 0.35003 0.47949 0.0
H213 H 0.77494 0.28854 0.48712 0.0
H214 H 0.83968 0.43996 0.52205 0.0
H215 H 0.6981 0.39105 0.47996 0.0
H216 H 0.7039 0.3604 0.49756 0.0
H217 H 0.71764 0.35938 0.47223 0.0
C218 C 0.77623 0.325 0.53442 0.0
C219 C 0.77658 0.29922 0.51906 0.0
C220 C 0.77681 0.36032 0.52997 0.0
C221 C 0.7766 0.3695 0.51012 0.0
C222 C 0.77581 0.34307 0.49488 0.0
H223 H 0.88485 0.4973 0.42585 0.0
H224 H 0.83262 0.45451 0.44742 0.0
C225 C 0.77572 0.30835 0.49928 0.0
C226 C 0.78386 0.40911 0.50478 0.0
H227 H 0.75923 0.44692 0.466 0.0
C228 C 0.82136 0.44238 0.51046 0.0
C229 C 0.75956 0.41237 0.48996 0.0
C230 C 0.71734 0.37891 0.48477 0.0
C231 C 0.83791 0.47644 0.49949 0.0
C232 C 0.81602 0.477 0.48259 0.0
C233 C 0.77622 0.44613 0.47875 0.0
C234 C 0.83729 0.50339 0.4666 0.0
C235 C 0.88055 0.50932 0.50458 0.0
C236 C 0.85526 0.54511 0.46948 0.0
C237 C 0.88516 0.56977 0.45705 0.0
C238 C 0.89748 0.55295 0.44166 0.0
C239 C 0.87604 0.51126 0.43748 0.0
C240 C 0.84616 0.48671 0.44986 0.0
H241 H 0.89375 0.50348 0.51784 0.0
H242 H 0.89962 0.51259 0.49186 0.0
H243 H 0.88139 0.53821 0.5076 0.0
H244 H 0.84846 0.5585 0.48221 0.0
H245 H 0.90071 0.60188 0.46039 0.0
H246 H 0.5328 0.68771 0.79754 0.0
H247 H 0.47738 0.69606 0.7854 0.0
H248 H 0.52928 0.81066 0.81849 0.0
H249 H 0.58501 0.80287 0.83047 0.0
H250 H 0.43744 0.75368 0.81828 0.0
H251 H 0.50571 0.78579 0.74435 0.0
H252 H 0.49726 0.7416 0.7561 0.0
H253 H 0.53518 0.79002 0.76632 0.0
C254 C 0.53234 0.71469 0.80222 0.0
C255 C 0.56361 0.74508 0.81464 0.0
C256 C 0.50053 0.71916 0.79543 0.0
C257 C 0.49955 0.75401 0.801 0.0
C258 C 0.52958 0.78345 0.81415 0.0
H259 H 0.446 0.92446 0.79097 0.0
H260 H 0.44672 0.8657 0.80078 0.0
C261 C 0.56139 0.77903 0.82094 0.0
C262 C 0.47003 0.7624 0.79166 0.0
H263 H 0.45905 0.80584 0.75128 0.0
C264 C 0.44125 0.76407 0.80342 0.0
C265 C 0.47455 0.77503 0.77213 0.0
C266 C 0.5048 0.7732 0.75888 0.0
C267 C 0.41933 0.78153 0.79675 0.0
C268 C 0.42744 0.79866 0.77816 0.0
C269 C 0.45302 0.79295 0.76559 0.0
C270 C 0.41773 0.82989 0.77347 0.0
C271 C 0.38939 0.78349 0.81014 0.0
C272 C 0.40114 0.8296 0.75474 0.0
C273 C 0.40069 0.86366 0.74899 0.0
C274 C 0.41714 0.89857 0.76183 0.0
C275 C 0.43202 0.89791 0.78086 0.0
C276 C 0.43233 0.86405 0.78658 0.0
H277 H 0.37403 0.75609 0.81848 0.0
H278 H 0.40536 0.80942 0.8212 0.0
H279 H 0.36648 0.78686 0.80165 0.0
H280 H 0.39023 0.80372 0.74429 0.0
H281 H 0.38884 0.86319 0.73427 0.0
H282 H 0.86387 0.59837 0.18848 0.0
H283 H 0.79567 0.54261 0.18342 0.0
H284 H 0.83515 0.46078 0.1992 0.0
H285 H 0.90392 0.51591 0.20279 0.0
H286 H 0.80669 0.44444 0.16272 0.0
H287 H 0.69625 0.45982 0.20661 0.0
H288 H 0.72929 0.50749 0.19736 0.0
H289 H 0.74891 0.486 0.21423 0.0
C290 C 0.85794 0.56865 0.19138 0.0
C291 C 0.88961 0.56158 0.19541 0.0
C292 C 0.81864 0.53671 0.18884 0.0
C293 C 0.8102 0.49726 0.19076 0.0
C294 C 0.84099 0.49086 0.19747 0.0
H295 H 0.58458 0.35271 0.11914 0.0
H296 H 0.6299 0.3633 0.14774 0.0
C297 C 0.88043 0.52268 0.19967 0.0
C298 C 0.77307 0.46373 0.18088 0.0
H299 H 0.67552 0.43657 0.1708 0.0
C300 C 0.77758 0.44142 0.16506 0.0
C301 C 0.73483 0.45908 0.18392 0.0
C302 C 0.72708 0.47915 0.20163 0.0
C303 C 0.74641 0.41896 0.15082 0.0
C304 C 0.71014 0.4193 0.15232 0.0
C305 C 0.70374 0.43707 0.16946 0.0
C306 C 0.68277 0.40921 0.13471 0.0
C307 C 0.75369 0.3979 0.13333 0.0
C308 C 0.69757 0.43166 0.11807 0.0
C309 C 0.67204 0.42593 0.10192 0.0
C310 C 0.63094 0.3977 0.10205 0.0
C311 C 0.61614 0.37466 0.11862 0.0
C312 C 0.6419 0.38054 0.1349 0.0
H313 H 0.77614 0.38917 0.13729 0.0
H314 H 0.72548 0.37077 0.12766 0.0
H315 H 0.7658 0.41853 0.12121 0.0
H316 H 0.72877 0.45489 0.11789 0.0
H317 H 0.68432 0.4451 0.08975 0.0
H318 H 0.35864 0.83553 0.48927 0.0
H319 H 0.2896 0.78002 0.48772 0.0
H320 H 0.2599 0.84172 0.53332 0.0
H321 H 0.32922 0.89756 0.53505 0.0
H322 H 0.22937 0.72862 0.51539 0.0
H323 H 0.19865 0.83957 0.48134 0.0
H324 H 0.24891 0.8485 0.48524 0.0
H325 H 0.22217 0.85262 0.50588 0.0
C326 C 0.33787 0.83668 0.49952 0.0
C327 C 0.3491 0.87117 0.51203 0.0
C328 C 0.29839 0.80495 0.49858 0.0
C329 C 0.26967 0.80725 0.51015 0.0
C330 C 0.28166 0.83977 0.5241 0.0
H331 H 1.01739 0.67603 0.46864 0.0
H332 H 0.07638 0.71721 0.49092 0.0
C333 C 0.32114 0.87161 0.52501 0.0
C334 C 0.22679 0.7791 0.50513 0.0
H335 H 0.14695 0.77307 0.47945 0.0
C336 C 0.21098 0.73829 0.50786 0.0
C337 C 0.20299 0.79198 0.49534 0.0
C338 C 0.2189 0.83547 0.49161 0.0
C339 C 0.17228 0.70972 0.50038 0.0
C340 C 0.14947 0.72241 0.48951 0.0
C341 C 0.16451 0.76343 0.48778 0.0
C342 C 0.11209 0.69389 0.47792 0.0
C343 C 0.15655 0.66625 0.50389 0.0
C344 C 0.11267 0.66725 0.46321 0.0
C345 C 0.07903 0.64356 0.45059 0.0
C346 C 1.0443 0.6465 0.4522 0.0
C347 C 1.04358 0.67286 0.46712 0.0
C348 C 0.07723 0.6964 0.47984 0.0
H349 H 0.16984 0.66314 0.51793 0.0
H350 H 0.12338 0.64956 0.50454 0.0
H351 H 0.16507 0.65228 0.49158 0.0
H352 H 0.13958 0.6656 0.46106 0.0
H353 H 0.08036 0.62309 0.43948 0.0
H354 H 0.59726 0.31607 0.84266 0.0
H355 H 0.56593 0.24362 0.84256 0.0
H356 H 0.46683 0.23823 0.87378 0.0
H357 H 0.49692 0.31076 0.8728 0.0
H358 H 0.53131 0.17877 0.86487 0.0
H359 H 0.41476 0.1893 0.81965 0.0
H360 H 0.46089 0.23336 0.82832 0.0
H361 H 0.42227 0.20688 0.84533 0.0
C362 C 0.56929 0.29959 0.84996 0.0
C363 C 0.54875 0.3188 0.85699 0.0
C364 C 0.55152 0.25815 0.85006 0.0
C365 C 0.51324 0.23543 0.85744 0.0
C366 C 0.49578 0.25518 0.86742 0.0
H367 H 0.38023 1.00014 0.79053 0.0
H368 H 0.39204 0.04837 0.81868 0.0
C369 C 0.51327 0.29673 0.86703 0.0
C370 C 0.48946 0.1924 0.85081 0.0
H371 H 0.4182 0.13143 0.81503 0.0
C372 C 0.50575 0.16788 0.85444 0.0
C373 C 0.45594 0.17811 0.83721 0.0
C374 C 0.43741 0.20318 0.83225 0.0
C375 C 0.49198 0.13127 0.84343 0.0
C376 C 0.46127 0.1191 0.82851 0.0
C377 C 0.44195 0.14123 0.82645 0.0
C378 C 0.45408 0.0884 0.81256 0.0
C379 C 0.51215 0.10717 0.8469 0.0
C380 C 0.48469 0.09578 0.79958 0.0
C381 C 0.47789 0.06891 0.78344 0.0
C382 C 0.44029 0.0341 0.77997 0.0
C383 C 0.40946 1.02683 0.7929 0.0
C384 C 0.41621 0.05407 0.809 0.0
H385 H 0.52487 0.11272 0.86238 0.0
H386 H 0.49085 0.0746 0.84389 0.0
H387 H 0.53719 0.1162 0.83676 0.0
H388 H 0.51382 0.12267 0.80182 0.0
H389 H 0.50237 0.07494 0.77392 0.0
H390 H 0.54801 0.91849 0.50587 0.0
H391 H 0.54834 0.85582 0.51073 0.0
H392 H 0.67648 0.91868 0.50756 0.0
H393 H 0.67631 0.98134 0.50317 0.0
H394 H 0.58078 0.82705 0.53939 0.0
H395 H 0.65123 0.82288 0.46949 0.0
H396 H 0.67959 0.86873 0.48469 0.0
H397 H 0.63133 0.85589 0.47396 0.0
C398 C 0.57655 0.91947 0.50608 0.0
C399 C 0.61212 0.95687 0.50384 0.0
C400 C 0.57675 0.88273 0.509 0.0
C401 C 0.61238 0.88014 0.5094 0.0
C402 C 0.64788 0.91753 0.50709 0.0
H403 H 0.57743 0.62383 0.50789 0.0
H404 H 0.57551 0.68463 0.49943 0.0
C405 C 0.64778 0.95438 0.5046 0.0
C406 C 0.61254 0.83953 0.51242 0.0
H407 H 0.64405 0.77531 0.49236 0.0
C408 C 0.59471 0.81622 0.52889 0.0
C409 C 0.63011 0.8229 0.49919 0.0
C410 C 0.64888 0.84353 0.48073 0.0
C411 C 0.59499 0.77971 0.53258 0.0
C412 C 0.61292 0.76336 0.51949 0.0
C413 C 0.62997 0.78611 0.50278 0.0
C414 C 0.61553 0.72449 0.52359 0.0
C415 C 0.57557 0.75837 0.55078 0.0
C416 C 0.6394 0.72414 0.53967 0.0
C417 C 0.64136 0.68926 0.54422 0.0
C418 C 0.61898 0.65099 0.53345 0.0
C419 C 0.59579 0.65143 0.51687 0.0
C420 C 0.59438 0.68699 0.51205 0.0
H421 H 0.55696 0.76975 0.55769 0.0
H422 H 0.55648 0.72567 0.547 0.0
H423 H 0.59924 0.76281 0.56187 0.0
H424 H 0.65695 0.75139 0.54904 0.0
H425 H 0.66061 0.69248 0.55686 0.0
H426 H 0.71668 0.51786 0.83431 0.0
H427 H 0.78008 0.51776 0.83956 0.0
H428 H 0.84333 0.64594 0.84948 0.0
H429 H 0.78032 0.64606 0.84426 0.0
H430 H 0.85181 0.54401 0.82303 0.0
H431 H 0.8945 0.62797 0.89604 0.0
H432 H 0.84554 0.60938 0.88426 0.0
H433 H 0.88771 0.65534 0.8772 0.0
C434 C 0.74387 0.54631 0.83765 0.0
C435 C 0.74146 0.58198 0.83877 0.0
C436 C 0.78105 0.54626 0.84071 0.0
C437 C 0.81867 0.58176 0.84551 0.0
C438 C 0.81617 0.61738 0.84646 0.0
H439 H 0.07578 0.64506 0.87797 0.0
H440 H 1.01282 0.64376 0.87007 0.0
C441 C 0.77917 0.61748 0.8432 0.0
C442 C 0.85957 0.58165 0.84919 0.0
H443 H 0.9443 0.6183 0.88107 0.0
C444 C 0.87161 0.5603 0.83588 0.0
C445 C 0.88756 0.60253 0.86576 0.0
C446 C 0.87815 0.62479 0.88175 0.0
C447 C 0.90906 0.56022 0.83812 0.0
C448 C 0.93707 0.58095 0.85478 0.0
C449 C 0.92476 0.6021 0.86814 0.0
C450 C 0.97857 0.5818 0.85857 0.0
C451 C 0.91869 0.53888 0.82174 0.0
C452 C 0.984 0.54801 0.85508 0.0
C453 C 1.02149 0.54916 0.85927 0.0
C454 C 0.05663 0.58413 0.86735 0.0
C455 C 0.0511 0.61765 0.87105 0.0
C456 C 1.01387 0.61665 0.86672 0.0
H457 H 0.90271 0.53678 0.8075 0.0
H458 H 0.95133 0.55439 0.81935 0.0
H459 H 0.90867 0.50788 0.82571 0.0
H460 H 0.95861 0.51956 0.84978 0.0
H461 H 1.02229 0.52167 0.85696 0.0
H462 H 0.20572 0.73974 0.16244 0.0
H463 H 0.27018 0.80285 0.16715 0.0
H464 H 0.32463 0.73885 0.19024 0.0
H465 H 0.26075 0.67584 0.18487 0.0
H466 H 0.3208 0.85369 0.19297 0.0
H467 H 0.41572 0.80056 0.15903 0.0
H468 H 0.36191 0.77 0.15763 0.0
H469 H 0.39058 0.77167 0.17944 0.0
C470 C 0.23132 0.73856 0.16833 0.0
C471 C 0.22623 0.70073 0.17289 0.0
C472 C 0.26915 0.77563 0.17117 0.0
C473 C 0.30507 0.77796 0.17873 0.0
C474 C 0.29963 0.74011 0.18364 0.0
H475 H 0.56096 0.97404 0.21403 0.0
H476 H 0.49707 0.91197 0.20633 0.0
C477 C 0.26191 0.70304 0.1807 0.0
C478 C 0.34678 0.81911 0.1818 0.0
H479 H 0.45018 0.86346 0.17746 0.0
C480 C 0.34875 0.85521 0.18931 0.0
C481 C 0.38526 0.82397 0.17733 0.0
C482 C 0.38838 0.78966 0.16772 0.0
C483 C 0.3857 0.89327 0.19285 0.0
C484 C 0.42416 0.89794 0.18861 0.0
C485 C 0.42218 0.86192 0.18103 0.0
C486 C 0.46605 0.93855 0.19237 0.0
C487 C 0.38285 0.92809 0.20195 0.0
C488 C 0.47369 0.97696 0.18689 0.0
C489 C 0.51166 1.01357 0.19114 0.0
C490 C 0.54502 1.01453 0.20106 0.0
C491 C 0.53753 0.97603 0.20604 0.0
C492 C 0.49993 0.93961 0.20168 0.0
H493 H 0.35464 0.91791 0.20984 0.0
H494 H 0.40856 0.94698 0.2126 0.0
H495 H 0.38297 0.94681 0.19001 0.0
H496 H 0.45005 0.97905 0.17925 0.0
H497 H 0.51427 0.04155 0.18725 0.0
H498 H 0.67927 0.22824 0.51012 0.0
H499 H 0.68023 0.29232 0.51479 0.0
H500 H 0.55218 0.23019 0.50495 0.0
H501 H 0.55112 0.16604 0.50083 0.0
H502 H 0.64937 0.32772 0.54128 0.0
H503 H 0.57934 0.31926 0.46801 0.0
H504 H 0.55015 0.27625 0.48187 0.0
H505 H 0.59829 0.28646 0.47364 0.0
C506 C 0.65098 0.22764 0.50898 0.0
C507 C 0.61507 0.18995 0.50501 0.0
C508 C 0.65156 0.26527 0.51169 0.0
C509 C 0.61636 0.26847 0.51012 0.0
C510 C 0.58049 0.23081 0.50605 0.0
H511 H 0.65372 0.52563 0.50938 0.0
H512 H 0.65506 0.46298 0.50108 0.0
C513 C 0.57983 0.1931 0.50374 0.0
C514 C 0.61706 0.31005 0.51294 0.0
H515 H 0.58663 0.37115 0.49117 0.0
C516 C 0.63547 0.33665 0.53013 0.0
C517 C 0.59989 0.32446 0.49879 0.0
C518 C 0.5811 0.30047 0.47944 0.0
C519 C 0.63585 0.37417 0.53367 0.0
C520 C 0.61793 0.38813 0.51975 0.0
C521 C 0.60055 0.36218 0.50229 0.0
C522 C 0.61567 0.42792 0.52368 0.0
C523 C 0.65599 0.39919 0.55263 0.0
C524 C 0.59235 0.4315 0.53878 0.0
C525 C 0.5907 0.46737 0.5432 0.0
C526 C 0.61288 0.50354 0.53327 0.0
C527 C 0.63552 0.49977 0.51765 0.0
C528 C 0.6366 0.46317 0.51293 0.0
H529 H 0.67475 0.38913 0.56029 0.0
H530 H 0.67509 0.43118 0.54958 0.0
H531 H 0.63274 0.39699 0.56279 0.0
H532 H 0.575 0.40608 0.54748 0.0
H533 H 0.57193 0.46673 0.55508 0.0
H534 H 0.46975 0.52301 0.82527 0.0
H535 H 0.40742 0.52443 0.83029 0.0
H536 H 0.47634 0.64481 0.85656 0.0
H537 H 0.53836 0.64384 0.85086 0.0
H538 H 0.36097 0.52497 0.85561 0.0
H539 H 0.40812 0.67252 0.82783 0.0
H540 H 0.43864 0.64963 0.82522 0.0
H541 H 0.44101 0.67726 0.84808 0.0
C542 C 0.47214 0.55023 0.83194 0.0
C543 C 0.51103 0.58339 0.83734 0.0
C544 C 0.43551 0.55103 0.83497 0.0
C545 C 0.43464 0.58512 0.84356 0.0
C546 C 0.47366 0.61805 0.8492 0.0
H547 H 0.24311 0.64151 0.88509 0.0
H548 H 0.30437 0.64068 0.87672 0.0
C549 C 0.51024 0.61732 0.84609 0.0
C550 C 0.39389 0.58559 0.84697 0.0
H551 H 0.3487 0.6444 0.84595 0.0
C552 C 0.35891 0.55137 0.85321 0.0
C553 C 0.38821 0.61913 0.8441 0.0
C554 C 0.42077 0.65652 0.83574 0.0
C555 C 0.32135 0.55007 0.857 0.0
C556 C 0.31599 0.5838 0.8545 0.0
C557 C 0.35083 0.61798 0.84821 0.0
C558 C 0.27581 0.58467 0.85876 0.0
C559 C 0.28778 0.51219 0.86442 0.0
C560 C 0.23653 0.55445 0.85138 0.0
C561 C 0.20038 0.55534 0.85596 0.0
C562 C 0.2007 0.58654 0.86829 0.0
C563 C 0.24001 0.61695 0.8753 0.0
C564 C 0.27599 0.61636 0.87052 0.0
H565 H 0.29906 0.49377 0.87104 0.0
H566 H 0.27102 0.51894 0.87571 0.0
H567 H 0.26663 0.494 0.85177 0.0
H568 H 0.23341 0.52953 0.84193 0.0
H569 H 0.1718 0.5305 0.85032 0.0
H570 H 1.01179 0.43134 0.16282 0.0
H571 H 0.94898 0.3692 0.16771 0.0
H572 H 0.89843 0.43849 0.19169 0.0
H573 H 0.96038 0.50039 0.18574 0.0
H574 H 0.90484 0.32347 0.19156 0.0
H575 H 0.79846 0.36769 0.16459 0.0
H576 H 0.85144 0.3986 0.16151 0.0
H577 H 0.82982 0.40115 0.18471 0.0
C578 C 0.98729 0.43384 0.1689 0.0
C579 C 0.99287 0.47279 0.17344 0.0
C580 C 0.95038 0.39728 0.17188 0.0
C581 C 0.91584 0.39641 0.17975 0.0
C582 C 0.92193 0.43558 0.18474 0.0
H583 H 0.67258 0.20335 0.21905 0.0
H584 H 0.73364 0.26488 0.21142 0.0
C585 C 0.95867 0.47217 0.1815 0.0
C586 C 0.87524 0.35548 0.18306 0.0
H587 H 0.77069 0.30878 0.18166 0.0
C588 C 0.87582 0.32092 0.18909 0.0
C589 C 0.83528 0.34902 0.18016 0.0
C590 C 0.82857 0.3809 0.17217 0.0
C591 C 0.84025 0.28312 0.19256 0.0
C592 C 0.80051 0.27707 0.18994 0.0
C593 C 0.79983 0.31145 0.18395 0.0
C594 C 0.76012 0.2367 0.19376 0.0
C595 C 0.8461 0.25009 0.19976 0.0
C596 C 0.75086 0.19755 0.18625 0.0
C597 C 0.7144 0.16127 0.19039 0.0
C598 C 0.6843 0.16134 0.20233 0.0
C599 C 0.69337 0.2005 0.20947 0.0
C600 C 0.72936 0.2366 0.20514 0.0
H601 H 0.87666 0.26193 0.20662 0.0
H602 H 0.82382 0.23306 0.21081 0.0
H603 H 0.84224 0.22911 0.18696 0.0
H604 H 0.77205 0.19464 0.17704 0.0
H605 H 0.71056 0.1328 0.18475 0.0
H606 H 0.08824 0.61906 0.09932 0.0
H607 H 0.09185 0.6184 0.06318 0.0
H608 H 0.15526 0.5533 0.06543 0.0
H609 H 0.15154 0.55359 0.10168 0.0
H610 H 0.15606 0.64931 0.03904 0.0
H611 H 0.06737 0.4847 0.02334 0.0
H612 H 0.06894 0.50856 0.04729 0.0
H613 H 0.10977 0.50129 0.04038 0.0
C614 C 0.10292 0.60443 0.09223 0.0
C615 C 0.1194 0.5862 0.10373 0.0
C616 C 0.10501 0.60414 0.0714 0.0
C617 C 0.12326 0.58525 0.06121 0.0
C618 C 0.14017 0.56737 0.07264 0.0
H619 H 0.15548 0.54866 0.93394 0.0
H620 H 0.15574 0.54995 0.97023 0.0
C621 C 0.13826 0.56781 0.09353 0.0
C622 C 0.12508 0.58503 0.03879 0.0
H623 H 0.09788 0.52333 0.99607 0.0
C624 C 0.14319 0.62167 0.02969 0.0
C625 C 0.10858 0.54919 0.02629 0.0
C626 C 0.08724 0.50865 0.03474 0.0
C627 C 0.14579 0.62351 0.00882 0.0
C628 C 0.12884 0.58764 0.99627 0.0
C629 C 0.11094 0.55099 0.0054 0.0
C630 C 0.12914 0.58746 0.97378 0.0
C631 C 0.16784 0.66418 0.00053 0.0
C632 C 0.11378 0.60769 0.96316 0.0
C633 C 0.11404 0.60743 0.94227 0.0
C634 C 0.12923 0.58648 0.93108 0.0
C635 C 0.14415 0.56582 0.94176 0.0
C636 C 0.14398 0.56621 0.96268 0.0
H637 H 0.18961 0.68727 0.01174 0.0
H638 H 0.18426 0.66372 0.98726 0.0
H639 H 0.14594 0.67336 0.99617 0.0
H640 H 0.10112 0.62355 0.97101 0.0
H641 H 0.10254 0.62409 0.93491 0.0
H642 H 0.6877 0.09796 0.43564 0.0
H643 H 0.69126 0.10269 0.39942 0.0
H644 H 0.56518 0.0633 0.39476 0.0
H645 H 0.56157 0.05932 0.43058 0.0
H646 H 0.65486 0.04867 0.36763 0.0
H647 H 0.60791 0.16184 0.36451 0.0
H648 H 0.62155 0.14934 0.38761 0.0
H649 H 0.57196 0.11838 0.37624 0.0
C650 C 0.66075 0.09042 0.42692 0.0
C651 C 0.62445 0.07863 0.43632 0.0
C652 C 0.6628 0.09312 0.40612 0.0
C653 C 0.6287 0.08432 0.39411 0.0
C654 C 0.59234 0.07156 0.40348 0.0
H655 H 0.56001 0.06703 0.26848 0.0
H656 H 0.56412 0.06621 0.30464 0.0
C657 C 0.59029 0.069 0.42415 0.0
C658 C 0.63055 0.08773 0.37187 0.0
H659 H 0.606 0.12785 0.3336 0.0
C660 C 0.64456 0.06637 0.36026 0.0
C661 C 0.61723 0.11079 0.36194 0.0
C662 C 0.60421 0.13671 0.37323 0.0
C663 C 0.64425 0.06627 0.33927 0.0
C664 C 0.63006 0.08861 0.32934 0.0
C665 C 0.61666 0.11045 0.34097 0.0
C666 C 0.62805 0.08915 0.30699 0.0
C667 C 0.65786 0.04102 0.32784 0.0
C668 C 0.66262 0.10286 0.29588 0.0
C669 C 0.66035 0.10335 0.27503 0.0
C670 C 0.6234 0.0901 0.26456 0.0
C671 C 0.58895 0.07688 0.27579 0.0
C672 C 0.59129 0.07661 0.29661 0.0
H673 H 0.65819 1.01814 0.33701 0.0
H674 H 0.63814 1.02562 0.31434 0.0
H675 H 0.68879 0.06062 0.3231 0.0
H676 H 0.69158 0.11351 0.30335 0.0
H677 H 0.68758 0.1136 0.26708 0.0
H678 H 0.58434 0.52601 0.76208 0.0
H679 H 0.58442 0.52828 0.72604 0.0
H680 H 0.65853 0.6568 0.73222 0.0
H681 H 0.65898 0.65478 0.76853 0.0
H682 H 0.55758 0.5634 0.70067 0.0
H683 H 0.72127 0.62832 0.69353 0.0
H684 H 0.69706 0.60893 0.71627 0.0
H685 H 0.70786 0.65768 0.70966 0.0
C686 C 0.60081 0.55493 0.75591 0.0
C687 C 0.62188 0.59022 0.76851 0.0
C688 C 0.60075 0.55614 0.73512 0.0
C689 C 0.62201 0.5926 0.7261 0.0
C690 C 0.64258 0.62806 0.7386 0.0
H691 H 0.65761 0.64783 0.60014 0.0
H692 H 0.65765 0.65116 0.63645 0.0
C693 C 0.64257 0.6269 0.75948 0.0
C694 C 0.62193 0.59308 0.70372 0.0
H695 H 0.68284 0.61962 0.66413 0.0
C696 C 0.58505 0.5757 0.69273 0.0
C697 C 0.6576 0.60913 0.69308 0.0
C698 C 0.69821 0.62677 0.70367 0.0
C699 C 0.58284 0.57428 0.67175 0.0
C700 C 0.61847 0.5898 0.66108 0.0
C701 C 0.65539 0.60759 0.67207 0.0
C702 C 0.61806 0.58759 0.63863 0.0
C703 C 0.54216 0.5569 0.66125 0.0
C704 C 0.59625 0.55074 0.62735 0.0
C705 C 0.59587 0.54876 0.60645 0.0
C706 C 0.6176 0.58354 0.59602 0.0
C707 C 0.63988 0.62036 0.60739 0.0
C708 C 0.64021 0.6223 0.62831 0.0
H709 H 0.52001 0.55803 0.67118 0.0
H710 H 0.54368 0.57308 0.64789 0.0
H711 H 0.53096 0.52501 0.65651 0.0
H712 H 0.57959 0.52323 0.63471 0.0
H713 H 0.57807 0.51981 0.59845 0.0
H714 H 0.64247 0.12493 0.56819 0.0
H715 H 0.62643 0.11886 0.60345 0.0
H716 H 0.52993 0.9979 0.5897 0.0
H717 H 0.54568 1.00337 0.55494 0.0
H718 H 0.55164 0.10067 0.61976 0.0
H719 H 0.5921 0.98626 0.63608 0.0
H720 H 0.60948 1.01582 0.61475 0.0
H721 H 0.56004 0.97238 0.61409 0.0
C722 C 0.61814 0.09695 0.57278 0.0
C723 C 0.59545 0.06463 0.55877 0.0
C724 C 0.60898 0.09357 0.59287 0.0
C725 C 0.57741 0.05769 0.59919 0.0
C726 C 0.55495 1.02553 0.58522 0.0
H727 H 0.42823 0.94865 0.69446 0.0
H728 H 0.4624 0.96968 0.66339 0.0
C729 C 0.5639 1.02888 0.56528 0.0
C730 C 0.56604 0.05365 0.62014 0.0
H731 H 0.54607 0.9918 0.65787 0.0
C732 C 0.55116 0.07747 0.62831 0.0
C733 C 0.56546 1.02332 0.63122 0.0
C734 C 0.58301 0.99825 0.62367 0.0
C735 C 0.53351 0.07012 0.64682 0.0
C736 C 0.53107 0.03839 0.65737 0.0
C737 C 0.5476 1.01581 0.64961 0.0
C738 C 0.50993 1.02685 0.6761 0.0
C739 C 0.51587 0.09498 0.65454 0.0
C740 C 0.52546 0.05206 0.69349 0.0
C741 C 0.50618 0.04001 0.7113 0.0
C742 C 0.471 1.0025 0.71202 0.0
C743 C 0.4554 0.97753 0.69446 0.0
C744 C 0.47478 0.98956 0.6767 0.0
H745 H 0.51465 0.11417 0.64318 0.0
H746 H 0.4851 0.07537 0.65951 0.0
H747 H 0.5345 0.11465 0.66755 0.0
H748 H 0.55294 0.08066 0.69339 0.0
H749 H 0.51952 0.05965 0.72461 0.0
H750 H 0.57717 0.5197 0.89228 0.0
H751 H 0.58765 0.49663 0.92345 0.0
H752 H 0.7129 0.58705 0.92562 0.0
H753 H 0.70271 0.61066 0.89409 0.0
H754 H 0.64809 0.47001 0.92788 0.0
H755 H 0.66825 0.5929 0.98237 0.0
H756 H 0.64171 0.58396 0.95868 0.0
H757 H 0.69501 0.60492 0.95978 0.0
C758 C 0.6069 0.53518 0.89947 0.0
C759 C 0.63917 0.56698 0.89071 0.0
C760 C 0.61281 0.52184 0.91724 0.0
C761 C 0.65102 0.54002 0.92668 0.0
C762 C 0.68316 0.57282 0.9185 0.0
H763 H 0.67012 0.46402 0.04415 0.0
H764 H 0.69427 0.49575 0.01298 0.0
C765 C 0.67724 0.58635 0.9006 0.0
C766 C 0.65659 0.52284 0.94463 0.0
H767 H 0.6596 0.53387 0.99509 0.0
C768 C 0.65147 0.48424 0.94261 0.0
C769 C 0.66136 0.54172 0.96371 0.0
C770 C 0.66684 0.58315 0.96647 0.0
C771 C 0.64862 0.46299 0.95928 0.0
C772 C 0.65023 0.48065 0.97836 0.0
C773 C 0.65824 0.52037 0.98041 0.0
C774 C 0.63862 0.45706 0.99609 0.0
C775 C 0.64259 0.42139 0.95627 0.0
C776 C 0.59963 0.4242 0.99677 0.0
C777 C 0.58582 0.40592 0.01449 0.0
C778 C 0.6107 0.42034 0.03188 0.0
C779 C 0.65046 0.45186 0.03092 0.0
C780 C 0.66423 0.47021 0.01318 0.0
H781 H 0.65586 0.41791 0.94236 0.0
H782 H 0.65611 0.41424 0.96892 0.0
H783 H 0.60999 0.3993 0.95501 0.0
H784 H 0.57909 0.41409 0.98386 0.0
H785 H 0.55509 0.3817 0.01482 0.0
H786 H 0.09577 0.64184 0.22969 0.0
H787 H 0.07387 0.63671 0.2636 0.0
H788 H 0.0613 0.51959 0.26458 0.0
H789 H 0.08297 0.52422 0.23037 0.0
H790 H 0.99416 0.52501 0.27875 0.0
H791 H 0.13888 0.64398 0.31427 0.0
H792 H 0.12206 0.65923 0.29325 0.0
H793 H 0.13513 0.62084 0.28982 0.0
C794 C 0.08879 0.61509 0.23712 0.0
C795 C 0.09145 0.58354 0.22735 0.0
C796 C 0.07631 0.61227 0.25654 0.0
C797 C 0.0664 0.57798 0.26664 0.0
C798 C 0.06901 0.54638 0.25702 0.0
H799 H 1.03643 0.56989 0.3934 0.0
H800 H 0.05399 0.56233 0.35951 0.0
C801 C 0.08161 0.54919 0.23754 0.0
C802 C 0.05267 0.57516 0.28715 0.0
H803 H 0.0815 0.62145 0.33368 0.0
C804 C 1.01328 0.54583 0.29084 0.0
C805 C 0.07783 0.60218 0.30287 0.0
C806 C 0.12096 0.63312 0.29996 0.0
C807 C 0.99805 0.54347 0.3098 0.0
C808 C 1.02279 0.57149 0.32534 0.0
C809 C 0.06245 0.60019 0.3217 0.0
C810 C 1.00867 0.57163 0.34562 0.0
C811 C 0.95583 0.51086 0.31309 0.0
C812 C 0.97687 0.57875 0.34907 0.0
C813 C 0.96669 0.58304 0.3685 0.0
C814 C 0.98856 0.58081 0.38473 0.0
C815 C 1.01945 0.57235 0.38117 0.0
C816 C 1.02942 0.56788 0.36183 0.0
H817 H 0.94476 0.48595 0.30138 0.0
H818 H 0.95396 0.49855 0.32779 0.0
H819 H 0.93562 0.5235 0.31271 0.0
H820 H 0.96092 0.58248 0.33679 0.0
H821 H 0.94294 0.58978 0.37086 0.0
loop_
_geom_bond_atom_site_label_1
_geom_bond_atom_site_label_2
_geom_bond_distance
_geom_bond_site_symmetry_2
_ccdc_geom_bond_type
Tb0 C9 2.764 1_455 S
Tb0 O10 2.325 1_455 S
Tb0 O13 2.303 . S
Tb0 O17 2.322 . S
Tb0 O18 2.349 . S
Tb0 O21 2.415 1_455 S
Tb0 O22 2.399 1_455 S
Tb1 O11 2.322 . S
Tb1 O12 2.349 . S
Tb1 O14 2.415 . S
Tb1 O15 2.399 . S
Tb1 O16 2.325 . S
Tb1 O19 2.303 . S
Tb1 C30 2.764 . S
C2 O18 1.261 . S
C2 O19 1.257 . S
C3 C6 1.358 . S
C3 C7 1.332 . S
C3 C9 1.504 . S
C4 C5 1.373 . S
C4 C8 1.308 . S
C5 C4 1.373 . S
C5 C6 1.429 . S
C5 H32 0.932 . S
C6 C3 1.358 . S
C6 C5 1.429 . S
C6 H33 0.930 . S
C7 C3 1.332 . S
C7 C8 1.394 . S
C7 H34 0.932 . S
C8 C4 1.308 . S
C8 C7 1.394 . S
C8 H35 0.929 . S
C9 Tb0 2.764 1_655 S
C9 C3 1.504 . S
C9 O21 1.239 . S
C9 O22 1.263 . S
O10 Tb0 2.325 1_655 S
O10 C20 1.236 . S
O11 Tb1 2.322 . S
O11 C20 1.257 1_455 S
O12 Tb1 2.349 . S
O12 C23 1.261 . S
O13 Tb0 2.303 . S
O13 C23 1.257 . S
O14 Tb1 2.415 . S
O14 C30 1.239 . S
O15 Tb1 2.399 . S
O15 C30 1.263 . S
O16 Tb1 2.325 . S
O16 C31 1.236 . S
O17 Tb0 2.322 . S
O17 C31 1.257 . S
O18 Tb0 2.349 . S
O18 C2 1.261 . S
O19 Tb1 2.303 . S
O19 C2 1.257 . S
C20 O10 1.236 . S
C20 O11 1.257 1_655 S
O21 Tb0 2.415 1_655 S
O21 C9 1.239 . S
O22 Tb0 2.399 1_655 S
O22 C9 1.263 . S
C23 O12 1.261 . S
C23 O13 1.257 . S
C24 C27 1.358 . S
C24 C28 1.332 . S
C24 C30 1.504 . S
C25 C26 1.373 . S
C25 C29 1.308 . S
C26 C25 1.373 . S
C26 C27 1.429 . S
C26 H36 0.932 . S
C27 C24 1.358 . S
C27 C26 1.429 . S
C27 H37 0.930 . S
C28 C24 1.332 . S
C28 C29 1.394 . S
C28 H38 0.932 . S
C29 C25 1.308 . S
C29 C28 1.394 . S
C29 H39 0.929 . S
C30 Tb1 2.764 . S
C30 O14 1.239 . S
C30 O15 1.263 . S
C30 C24 1.504 . S
C31 O16 1.236 . S
C31 O17 1.257 . S
H32 C5 0.932 . S
H33 C6 0.930 . S
H34 C7 0.932 . S
H35 C8 0.929 . S
H36 C26 0.932 . S
H37 C27 0.930 . S
H38 C28 0.932 . S
H39 C29 0.929 . S
Tb40 C49 2.764 . S
Tb40 O50 2.325 . S
Tb40 O53 2.303 1_565 S
Tb40 O57 2.322 1_565 S
Tb40 O58 2.349 1_565 S
Tb40 O61 2.415 . S
Tb40 O62 2.399 . S
Tb41 O51 2.322 1_545 S
Tb41 O52 2.349 . S
Tb41 O54 2.415 . S
Tb41 O55 2.399 . S
Tb41 O56 2.325 . S
Tb41 O59 2.303 . S
Tb41 C70 2.764 . S
C42 O58 1.261 . S
C42 O59 1.257 . S
C43 C46 1.358 . S
C43 C47 1.332 . S
C43 C49 1.504 . S
C44 C45 1.373 . S
C44 C48 1.308 . S
C45 C44 1.373 . S
C45 C46 1.429 . S
C45 H72 0.932 . S
C46 C43 1.358 . S
C46 C45 1.429 . S
C46 H73 0.930 . S
C47 C43 1.332 . S
C47 C48 1.394 . S
C47 H74 0.932 . S
C48 C44 1.308 . S
C48 C47 1.394 . S
C48 H75 0.929 . S
C49 Tb40 2.764 . S
C49 C43 1.504 . S
C49 O61 1.239 . S
C49 O62 1.263 . S
O50 Tb40 2.325 . S
O50 C60 1.236 . S
O51 Tb41 2.322 1_565 S
O51 C60 1.257 . S
O52 Tb41 2.349 . S
O52 C63 1.261 . S
O53 Tb40 2.303 1_545 S
O53 C63 1.257 . S
O54 Tb41 2.415 . S
O54 C70 1.239 . S
O55 Tb41 2.399 . S
O55 C70 1.263 . S
O56 Tb41 2.325 . S
O56 C71 1.236 . S
O57 Tb40 2.322 1_545 S
O57 C71 1.257 . S
O58 Tb40 2.349 1_545 S
O58 C42 1.261 . S
O59 Tb41 2.303 . S
O59 C42 1.257 . S
C60 O50 1.236 . S
C60 O51 1.257 . S
O61 Tb40 2.415 . S
O61 C49 1.239 . S
O62 Tb40 2.399 . S
O62 C49 1.263 . S
C63 O52 1.261 . S
C63 O53 1.257 . S
C64 C67 1.358 . S
C64 C68 1.332 . S
C64 C70 1.504 . S
C65 C66 1.373 . S
C65 C69 1.308 . S
C66 C65 1.373 . S
C66 C67 1.429 . S
C66 H76 0.932 . S
C67 C64 1.358 . S
C67 C66 1.429 . S
C67 H77 0.930 . S
C68 C64 1.332 . S
C68 C69 1.394 . S
C68 H78 0.932 . S
C69 C65 1.308 . S
C69 C68 1.394 . S
C69 H79 0.929 . S
C70 Tb41 2.764 . S
C70 O54 1.239 . S
C70 O55 1.263 . S
C70 C64 1.504 . S
C71 O56 1.236 . S
C71 O57 1.257 . S
H72 C45 0.932 . S
H73 C46 0.930 . S
H74 C47 0.932 . S
H75 C48 0.929 . S
H76 C66 0.932 . S
H77 C67 0.930 . S
H78 C68 0.932 . S
H79 C69 0.929 . S
Tb80 C89 2.764 . S
Tb80 O90 2.325 . S
Tb80 O93 2.303 . S
Tb80 O97 2.322 . S
Tb80 O98 2.349 . S
Tb80 O101 2.415 . S
Tb80 O102 2.399 . S
Tb81 O91 2.322 . S
Tb81 O92 2.349 . S
Tb81 O94 2.415 . S
Tb81 O95 2.399 . S
Tb81 O96 2.325 . S
Tb81 O99 2.303 . S
Tb81 C110 2.764 . S
C82 O98 1.261 . S
C82 O99 1.257 . S
C83 C86 1.358 . S
C83 C87 1.332 . S
C83 C89 1.504 . S
C84 C85 1.373 . S
C84 C88 1.308 . S
C85 C84 1.373 . S
C85 C86 1.429 . S
C85 H112 0.932 . S
C86 C83 1.358 . S
C86 C85 1.429 . S
C86 H113 0.930 . S
C87 C83 1.332 . S
C87 C88 1.394 . S
C87 H114 0.932 . S
C88 C84 1.308 . S
C88 C87 1.394 . S
C88 H115 0.929 . S
C89 Tb80 2.764 . S
C89 C83 1.504 . S
C89 O101 1.239 . S
C89 O102 1.263 . S
O90 Tb80 2.325 . S
O90 C100 1.236 . S
O91 Tb81 2.322 . S
O91 C100 1.257 . S
O92 Tb81 2.349 . S
O92 C103 1.261 . S
O93 Tb80 2.303 . S
O93 C103 1.257 . S
O94 Tb81 2.415 . S
O94 C110 1.239 . S
O95 Tb81 2.399 . S
O95 C110 1.263 . S
O96 Tb81 2.325 . S
O96 C111 1.236 . S
O97 Tb80 2.322 . S
O97 C111 1.257 . S
O98 Tb80 2.349 . S
O98 C82 1.261 . S
O99 Tb81 2.303 . S
O99 C82 1.257 . S
C100 O90 1.236 . S
C100 O91 1.257 . S
O101 Tb80 2.415 . S
O101 C89 1.239 . S
O102 Tb80 2.399 . S
O102 C89 1.263 . S
C103 O92 1.261 . S
C103 O93 1.257 . S
C104 C107 1.358 . S
C104 C108 1.332 . S
C104 C110 1.504 . S
C105 C106 1.373 . S
C105 C109 1.308 . S
C106 C105 1.373 . S
C106 C107 1.429 . S
C106 H116 0.932 . S
C107 C104 1.358 . S
C107 C106 1.429 . S
C107 H117 0.930 . S
C108 C104 1.332 . S
C108 C109 1.394 . S
C108 H118 0.932 . S
C109 C105 1.308 . S
C109 C108 1.394 . S
C109 H119 0.929 . S
C110 Tb81 2.764 . S
C110 O94 1.239 . S
C110 O95 1.263 . S
C110 C104 1.504 . S
C111 O96 1.236 . S
C111 O97 1.257 . S
H112 C85 0.932 . S
H113 C86 0.930 . S
H114 C87 0.932 . S
H115 C88 0.929 . S
H116 C106 0.932 . S
H117 C107 0.930 . S
H118 C108 0.932 . S
H119 C109 0.929 . S
H120 C123 0.931 . S
H121 C126 0.928 . S
H122 C128 0.930 . S
C123 H120 0.931 . S
C123 C124 1.413 . S
C123 C125 1.360 1_565 S
C124 C123 1.413 . S
C124 C128 1.429 1_565 S
C125 C123 1.360 1_545 S
C125 C126 1.372 . S
C126 H121 0.928 . S
C126 C125 1.372 . S
C126 C127 1.404 . S
C127 C126 1.404 . S
C127 C128 1.391 . S
C128 H122 0.930 . S
C128 C124 1.429 1_545 S
C128 C127 1.391 . S
H129 C132 0.931 . S
H130 C135 0.928 . S
H131 C137 0.930 . S
C132 H129 0.931 . S
C132 C133 1.413 . S
C132 C134 1.360 . S
C133 C132 1.413 . S
C133 C137 1.429 . S
C134 C132 1.360 . S
C134 C135 1.372 . S
C135 H130 0.928 . S
C135 C134 1.372 . S
C135 C136 1.404 . S
C136 C135 1.404 . S
C136 C137 1.391 . S
C137 H131 0.930 . S
C137 C133 1.429 . S
C137 C136 1.391 . S
H138 C141 0.931 . S
H139 C144 0.928 . S
H140 C146 0.930 . S
C141 H138 0.931 . S
C141 C142 1.413 . S
C141 C143 1.360 . S
C142 C141 1.413 . S
C142 C146 1.429 . S
C143 C141 1.360 . S
C143 C144 1.372 . S
C144 H139 0.928 . S
C144 C143 1.372 . S
C144 C145 1.404 . S
C145 C144 1.404 . S
C145 C146 1.391 . S
C146 H140 0.930 . S
C146 C142 1.429 . S
C146 C145 1.391 . S
H147 C150 0.931 . S
H148 C153 0.928 . S
H149 C155 0.930 . S
C150 H147 0.931 . S
C150 C151 1.413 . S
C150 C152 1.361 1_655 S
C151 C150 1.413 . S
C151 C155 1.429 1_655 S
C152 C150 1.361 1_455 S
C152 C153 1.371 . S
C153 H148 0.928 . S
C153 C152 1.371 . S
C153 C154 1.404 . S
C154 C153 1.404 . S
C154 C155 1.391 . S
C155 H149 0.930 . S
C155 C151 1.429 1_455 S
C155 C154 1.391 . S
H156 C159 0.931 . S
H157 C162 0.928 . S
H158 C164 0.930 . S
C159 H156 0.931 . S
C159 C160 1.413 . S
C159 C161 1.360 1_545 S
C160 C159 1.413 . S
C160 C164 1.429 . S
C161 C159 1.360 1_565 S
C161 C162 1.372 . S
C162 H157 0.928 . S
C162 C161 1.372 . S
C162 C163 1.404 . S
C163 C162 1.404 . S
C163 C164 1.391 1_565 S
C164 H158 0.930 . S
C164 C160 1.429 . S
C164 C163 1.391 1_545 S
H165 C168 0.931 . S
H166 C171 0.928 . S
H167 C173 0.930 . S
C168 H165 0.931 . S
C168 C169 1.413 . S
C168 C170 1.360 . S
C169 C168 1.413 . S
C169 C173 1.429 . S
C170 C168 1.360 . S
C170 C171 1.372 . S
C171 H166 0.928 . S
C171 C170 1.372 . S
C171 C172 1.404 . S
C172 C171 1.404 . S
C172 C173 1.391 . S
C173 H167 0.930 . S
C173 C169 1.429 . S
C173 C172 1.391 . S
H174 C182 0.929 . S
H175 C184 0.930 . S
H176 C186 0.930 . S
H177 C189 0.929 . S
H178 C192 0.930 . S
H179 C194 0.960 . S
H180 C194 0.960 . S
H181 C194 0.960 . S
C182 H174 0.929 . S
C182 C183 1.377 . S
C182 C184 1.384 . S
C183 C182 1.377 . S
C183 C189 1.390 . S
C184 H175 0.930 . S
C184 C182 1.384 . S
C184 C185 1.372 . S
C185 C184 1.372 . S
C185 C186 1.400 . S
C185 C190 1.490 . S
C186 H176 0.930 . S
C186 C185 1.400 . S
C186 C189 1.386 . S
H187 C203 0.930 . S
H188 C204 0.931 . S
C189 H177 0.929 . S
C189 C183 1.390 . S
C189 C186 1.386 . S
C190 C185 1.490 . S
C190 C192 1.395 . S
C190 C193 1.403 . S
H191 C197 0.930 . S
C192 H178 0.930 . S
C192 C190 1.395 . S
C192 C195 1.403 . S
C193 C190 1.403 . S
C193 C194 1.524 . S
C193 C197 1.400 . S
C194 H179 0.960 . S
C194 H180 0.960 . S
C194 H181 0.960 . S
C194 C193 1.524 . S
C195 C192 1.403 . S
C195 C196 1.392 . S
C195 C199 1.495 . S
C196 C195 1.392 . S
C196 C197 1.385 . S
C196 C198 1.478 . S
C197 H191 0.930 . S
C197 C193 1.400 . S
C197 C196 1.385 . S
C198 C196 1.478 . S
C198 C200 1.381 . S
C198 C204 1.383 . S
C199 C195 1.495 . S
C199 H205 0.959 . S
C199 H206 0.961 . S
C199 H207 0.960 . S
C200 C198 1.381 . S
C200 C201 1.394 . S
C200 H208 0.930 . S
C201 C200 1.394 . S
C201 C202 1.383 . S
C201 H209 0.929 . S
C202 C201 1.383 . S
C202 C203 1.377 . S
C203 H187 0.930 . S
C203 C202 1.377 . S
C203 C204 1.379 . S
C204 H188 0.931 . S
C204 C198 1.383 . S
C204 C203 1.379 . S
H205 C199 0.959 . S
H206 C199 0.961 . S
H207 C199 0.960 . S
H208 C200 0.930 . S
H209 C201 0.929 . S
H210 C218 0.929 . S
H211 C220 0.930 . S
H212 C222 0.930 . S
H213 C225 0.929 . S
H214 C228 0.930 . S
H215 C230 0.960 . S
H216 C230 0.960 . S
H217 C230 0.960 . S
C218 H210 0.929 . S
C218 C219 1.377 . S
C218 C220 1.384 . S
C219 C218 1.377 . S
C219 C225 1.390 . S
C220 H211 0.930 . S
C220 C218 1.384 . S
C220 C221 1.372 . S
C221 C220 1.372 . S
C221 C222 1.400 . S
C221 C226 1.490 . S
C222 H212 0.930 . S
C222 C221 1.400 . S
C222 C225 1.386 . S
H223 C239 0.930 . S
H224 C240 0.931 . S
C225 H213 0.929 . S
C225 C219 1.390 . S
C225 C222 1.386 . S
C226 C221 1.490 . S
C226 C228 1.395 . S
C226 C229 1.403 . S
H227 C233 0.930 . S
C228 H214 0.930 . S
C228 C226 1.395 . S
C228 C231 1.403 . S
C229 C226 1.403 . S
C229 C230 1.524 . S
C229 C233 1.400 . S
C230 H215 0.960 . S
C230 H216 0.960 . S
C230 H217 0.960 . S
C230 C229 1.524 . S
C231 C228 1.403 . S
C231 C232 1.392 . S
C231 C235 1.495 . S
C232 C231 1.392 . S
C232 C233 1.385 . S
C232 C234 1.478 . S
C233 H227 0.930 . S
C233 C229 1.400 . S
C233 C232 1.385 . S
C234 C232 1.478 . S
C234 C236 1.381 . S
C234 C240 1.383 . S
C235 C231 1.495 . S
C235 H241 0.959 . S
C235 H242 0.961 . S
C235 H243 0.960 . S
C236 C234 1.381 . S
C236 C237 1.394 . S
C236 H244 0.930 . S
C237 C236 1.394 . S
C237 C238 1.383 . S
C237 H245 0.929 . S
C238 C237 1.383 . S
C238 C239 1.377 . S
C239 H223 0.930 . S
C239 C238 1.377 . S
C239 C240 1.379 . S
C240 H224 0.931 . S
C240 C234 1.383 . S
C240 C239 1.379 . S
H241 C235 0.959 . S
H242 C235 0.961 . S
H243 C235 0.960 . S
H244 C236 0.930 . S
H245 C237 0.929 . S
H246 C254 0.929 . S
H247 C256 0.930 . S
H248 C258 0.930 . S
H249 C261 0.929 . S
H250 C264 0.930 . S
H251 C266 0.960 . S
H252 C266 0.960 . S
H253 C266 0.960 . S
C254 H246 0.929 . S
C254 C255 1.377 . S
C254 C256 1.384 . S
C255 C254 1.377 . S
C255 C261 1.390 . S
C256 H247 0.930 . S
C256 C254 1.384 . S
C256 C257 1.372 . S
C257 C256 1.372 . S
C257 C258 1.400 . S
C257 C262 1.490 . S
C258 H248 0.930 . S
C258 C257 1.400 . S
C258 C261 1.386 . S
H259 C275 0.930 . S
H260 C276 0.931 . S
C261 H249 0.929 . S
C261 C255 1.390 . S
C261 C258 1.386 . S
C262 C257 1.490 . S
C262 C264 1.395 . S
C262 C265 1.403 . S
H263 C269 0.930 . S
C264 H250 0.930 . S
C264 C262 1.395 . S
C264 C267 1.403 . S
C265 C262 1.403 . S
C265 C266 1.524 . S
C265 C269 1.400 . S
C266 H251 0.960 . S
C266 H252 0.960 . S
C266 H253 0.960 . S
C266 C265 1.524 . S
C267 C264 1.403 . S
C267 C268 1.392 . S
C267 C271 1.495 . S
C268 C267 1.392 . S
C268 C269 1.385 . S
C268 C270 1.478 . S
C269 H263 0.930 . S
C269 C265 1.400 . S
C269 C268 1.385 . S
C270 C268 1.478 . S
C270 C272 1.381 . S
C270 C276 1.383 . S
C271 C267 1.495 . S
C271 H277 0.959 . S
C271 H278 0.961 . S
C271 H279 0.960 . S
C272 C270 1.381 . S
C272 C273 1.394 . S
C272 H280 0.930 . S
C273 C272 1.394 . S
C273 C274 1.383 . S
C273 H281 0.929 . S
C274 C273 1.383 . S
C274 C275 1.377 . S
C275 H259 0.930 . S
C275 C274 1.377 . S
C275 C276 1.379 . S
C276 H260 0.931 . S
C276 C270 1.383 . S
C276 C275 1.379 . S
H277 C271 0.959 . S
H278 C271 0.961 . S
H279 C271 0.960 . S
H280 C272 0.930 . S
H281 C273 0.929 . S
H282 C290 0.929 . S
H283 C292 0.930 . S
H284 C294 0.930 . S
H285 C297 0.929 . S
H286 C300 0.930 . S
H287 C302 0.960 . S
H288 C302 0.960 . S
H289 C302 0.960 . S
C290 H282 0.929 . S
C290 C291 1.377 . S
C290 C292 1.384 . S
C291 C290 1.377 . S
C291 C297 1.390 . S
C292 H283 0.930 . S
C292 C290 1.384 . S
C292 C293 1.372 . S
C293 C292 1.372 . S
C293 C294 1.400 . S
C293 C298 1.490 . S
C294 H284 0.930 . S
C294 C293 1.400 . S
C294 C297 1.386 . S
H295 C311 0.930 . S
H296 C312 0.931 . S
C297 H285 0.929 . S
C297 C291 1.390 . S
C297 C294 1.386 . S
C298 C293 1.490 . S
C298 C300 1.395 . S
C298 C301 1.403 . S
H299 C305 0.930 . S
C300 H286 0.930 . S
C300 C298 1.395 . S
C300 C303 1.403 . S
C301 C298 1.403 . S
C301 C302 1.524 . S
C301 C305 1.400 . S
C302 H287 0.960 . S
C302 H288 0.960 . S
C302 H289 0.960 . S
C302 C301 1.524 . S
C303 C300 1.403 . S
C303 C304 1.392 . S
C303 C307 1.495 . S
C304 C303 1.392 . S
C304 C305 1.385 . S
C304 C306 1.478 . S
C305 H299 0.930 . S
C305 C301 1.400 . S
C305 C304 1.385 . S
C306 C304 1.478 . S
C306 C308 1.381 . S
C306 C312 1.383 . S
C307 C303 1.495 . S
C307 H313 0.959 . S
C307 H314 0.961 . S
C307 H315 0.960 . S
C308 C306 1.381 . S
C308 C309 1.394 . S
C308 H316 0.930 . S
C309 C308 1.394 . S
C309 C310 1.383 . S
C309 H317 0.929 . S
C310 C309 1.383 . S
C310 C311 1.377 . S
C311 H295 0.930 . S
C311 C310 1.377 . S
C311 C312 1.379 . S
C312 H296 0.931 . S
C312 C306 1.383 . S
C312 C311 1.379 . S
H313 C307 0.959 . S
H314 C307 0.961 . S
H315 C307 0.960 . S
H316 C308 0.930 . S
H317 C309 0.929 . S
H318 C326 0.929 . S
H319 C328 0.930 . S
H320 C330 0.930 . S
H321 C333 0.929 . S
H322 C336 0.930 . S
H323 C338 0.960 . S
H324 C338 0.960 . S
H325 C338 0.960 . S
C326 H318 0.929 . S
C326 C327 1.377 . S
C326 C328 1.384 . S
C327 C326 1.377 . S
C327 C333 1.390 . S
C328 H319 0.930 . S
C328 C326 1.384 . S
C328 C329 1.372 . S
C329 C328 1.372 . S
C329 C330 1.400 . S
C329 C334 1.490 . S
C330 H320 0.930 . S
C330 C329 1.400 . S
C330 C333 1.386 . S
H331 C347 0.930 . S
H332 C348 0.931 . S
C333 H321 0.929 . S
C333 C327 1.390 . S
C333 C330 1.386 . S
C334 C329 1.490 . S
C334 C336 1.395 . S
C334 C337 1.403 . S
H335 C341 0.930 . S
C336 H322 0.930 . S
C336 C334 1.395 . S
C336 C339 1.403 . S
C337 C334 1.403 . S
C337 C338 1.524 . S
C337 C341 1.400 . S
C338 H323 0.960 . S
C338 H324 0.960 . S
C338 H325 0.960 . S
C338 C337 1.524 . S
C339 C336 1.403 . S
C339 C340 1.392 . S
C339 C343 1.495 . S
C340 C339 1.392 . S
C340 C341 1.385 . S
C340 C342 1.478 . S
C341 H335 0.930 . S
C341 C337 1.400 . S
C341 C340 1.385 . S
C342 C340 1.478 . S
C342 C344 1.381 . S
C342 C348 1.383 . S
C343 C339 1.495 . S
C343 H349 0.959 . S
C343 H350 0.961 . S
C343 H351 0.960 . S
C344 C342 1.381 . S
C344 C345 1.394 . S
C344 H352 0.930 . S
C345 C344 1.394 . S
C345 C346 1.383 . S
C345 H353 0.929 . S
C346 C345 1.383 . S
C346 C347 1.377 . S
C347 H331 0.930 . S
C347 C346 1.377 . S
C347 C348 1.379 . S
C348 H332 0.931 . S
C348 C342 1.383 . S
C348 C347 1.379 . S
H349 C343 0.959 . S
H350 C343 0.961 . S
H351 C343 0.960 . S
H352 C344 0.930 . S
H353 C345 0.929 . S
H354 C362 0.929 . S
H355 C364 0.930 . S
H356 C366 0.930 . S
H357 C369 0.929 . S
H358 C372 0.930 . S
H359 C374 0.960 . S
H360 C374 0.960 . S
H361 C374 0.960 . S
C362 H354 0.929 . S
C362 C363 1.377 . S
C362 C364 1.384 . S
C363 C362 1.377 . S
C363 C369 1.390 . S
C364 H355 0.930 . S
C364 C362 1.384 . S
C364 C365 1.372 . S
C365 C364 1.372 . S
C365 C366 1.400 . S
C365 C370 1.490 . S
C366 H356 0.930 . S
C366 C365 1.400 . S
C366 C369 1.386 . S
H367 C383 0.930 . S
H368 C384 0.931 . S
C369 H357 0.929 . S
C369 C363 1.390 . S
C369 C366 1.386 . S
C370 C365 1.490 . S
C370 C372 1.395 . S
C370 C373 1.403 . S
H371 C377 0.930 . S
C372 H358 0.930 . S
C372 C370 1.395 . S
C372 C375 1.403 . S
C373 C370 1.403 . S
C373 C374 1.524 . S
C373 C377 1.400 . S
C374 H359 0.960 . S
C374 H360 0.960 . S
C374 H361 0.960 . S
C374 C373 1.524 . S
C375 C372 1.403 . S
C375 C376 1.392 . S
C375 C379 1.495 . S
C376 C375 1.392 . S
C376 C377 1.385 . S
C376 C378 1.478 . S
C377 H371 0.930 . S
C377 C373 1.400 . S
C377 C376 1.385 . S
C378 C376 1.478 . S
C378 C380 1.381 . S
C378 C384 1.383 . S
C379 C375 1.495 . S
C379 H385 0.959 . S
C379 H386 0.961 . S
C379 H387 0.960 . S
C380 C378 1.381 . S
C380 C381 1.394 . S
C380 H388 0.930 . S
C381 C380 1.394 . S
C381 C382 1.383 . S
C381 H389 0.929 . S
C382 C381 1.383 . S
C382 C383 1.377 . S
C383 H367 0.930 . S
C383 C382 1.377 . S
C383 C384 1.379 . S
C384 H368 0.931 . S
C384 C378 1.383 . S
C384 C383 1.379 . S
H385 C379 0.959 . S
H386 C379 0.961 . S
H387 C379 0.960 . S
H388 C380 0.930 . S
H389 C381 0.929 . S
H390 C398 0.929 . S
H391 C400 0.930 . S
H392 C402 0.930 . S
H393 C405 0.929 . S
H394 C408 0.930 . S
H395 C410 0.960 . S
H396 C410 0.960 . S
H397 C410 0.960 . S
C398 H390 0.929 . S
C398 C399 1.377 . S
C398 C400 1.384 . S
C399 C398 1.377 . S
C399 C405 1.390 . S
C400 H391 0.930 . S
C400 C398 1.384 . S
C400 C401 1.372 . S
C401 C400 1.372 . S
C401 C402 1.400 . S
C401 C406 1.490 . S
C402 H392 0.930 . S
C402 C401 1.400 . S
C402 C405 1.386 . S
H403 C419 0.930 . S
H404 C420 0.931 . S
C405 H393 0.929 . S
C405 C399 1.390 . S
C405 C402 1.386 . S
C406 C401 1.490 . S
C406 C408 1.395 . S
C406 C409 1.403 . S
H407 C413 0.930 . S
C408 H394 0.930 . S
C408 C406 1.395 . S
C408 C411 1.403 . S
C409 C406 1.403 . S
C409 C410 1.524 . S
C409 C413 1.400 . S
C410 H395 0.960 . S
C410 H396 0.960 . S
C410 H397 0.960 . S
C410 C409 1.524 . S
C411 C408 1.403 . S
C411 C412 1.392 . S
C411 C415 1.495 . S
C412 C411 1.392 . S
C412 C413 1.385 . S
C412 C414 1.478 . S
C413 H407 0.930 . S
C413 C409 1.400 . S
C413 C412 1.385 . S
C414 C412 1.478 . S
C414 C416 1.381 . S
C414 C420 1.383 . S
C415 C411 1.495 . S
C415 H421 0.959 . S
C415 H422 0.961 . S
C415 H423 0.960 . S
C416 C414 1.381 . S
C416 C417 1.394 . S
C416 H424 0.930 . S
C417 C416 1.394 . S
C417 C418 1.383 . S
C417 H425 0.929 . S
C418 C417 1.383 . S
C418 C419 1.377 . S
C419 H403 0.930 . S
C419 C418 1.377 . S
C419 C420 1.379 . S
C420 H404 0.931 . S
C420 C414 1.383 . S
C420 C419 1.379 . S
H421 C415 0.959 . S
H422 C415 0.961 . S
H423 C415 0.960 . S
H424 C416 0.930 . S
H425 C417 0.929 . S
H426 C434 0.929 . S
H427 C436 0.930 . S
H428 C438 0.930 . S
H429 C441 0.929 . S
H430 C444 0.930 . S
H431 C446 0.960 . S
H432 C446 0.960 . S
H433 C446 0.960 . S
C434 H426 0.929 . S
C434 C435 1.377 . S
C434 C436 1.384 . S
C435 C434 1.377 . S
C435 C441 1.390 . S
C436 H427 0.930 . S
C436 C434 1.384 . S
C436 C437 1.372 . S
C437 C436 1.372 . S
C437 C438 1.400 . S
C437 C442 1.490 . S
C438 H428 0.930 . S
C438 C437 1.400 . S
C438 C441 1.386 . S
H439 C455 0.930 . S
H440 C456 0.931 . S
C441 H429 0.929 . S
C441 C435 1.390 . S
C441 C438 1.386 . S
C442 C437 1.490 . S
C442 C444 1.395 . S
C442 C445 1.403 . S
H443 C449 0.930 . S
C444 H430 0.930 . S
C444 C442 1.395 . S
C444 C447 1.403 . S
C445 C442 1.403 . S
C445 C446 1.524 . S
C445 C449 1.400 . S
C446 H431 0.960 . S
C446 H432 0.960 . S
C446 H433 0.960 . S
C446 C445 1.524 . S
C447 C444 1.403 . S
C447 C448 1.392 . S
C447 C451 1.495 . S
C448 C447 1.392 . S
C448 C449 1.385 . S
C448 C450 1.478 . S
C449 H443 0.930 . S
C449 C445 1.400 . S
C449 C448 1.385 . S
C450 C448 1.478 . S
C450 C452 1.381 . S
C450 C456 1.383 . S
C451 C447 1.495 . S
C451 H457 0.959 . S
C451 H458 0.961 . S
C451 H459 0.960 . S
C452 C450 1.381 . S
C452 C453 1.394 . S
C452 H460 0.930 . S
C453 C452 1.394 . S
C453 C454 1.383 . S
C453 H461 0.929 . S
C454 C453 1.383 . S
C454 C455 1.377 . S
C455 H439 0.930 . S
C455 C454 1.377 . S
C455 C456 1.379 . S
C456 H440 0.931 . S
C456 C450 1.383 . S
C456 C455 1.379 . S
H457 C451 0.959 . S
H458 C451 0.961 . S
H459 C451 0.960 . S
H460 C452 0.930 . S
H461 C453 0.929 . S
H462 C470 0.929 . S
H463 C472 0.930 . S
H464 C474 0.930 . S
H465 C477 0.929 . S
H466 C480 0.930 . S
H467 C482 0.960 . S
H468 C482 0.960 . S
H469 C482 0.960 . S
C470 H462 0.929 . S
C470 C471 1.377 . S
C470 C472 1.384 . S
C471 C470 1.377 . S
C471 C477 1.390 . S
C472 H463 0.930 . S
C472 C470 1.384 . S
C472 C473 1.372 . S
C473 C472 1.372 . S
C473 C474 1.400 . S
C473 C478 1.490 . S
C474 H464 0.930 . S
C474 C473 1.400 . S
C474 C477 1.386 . S
H475 C491 0.930 . S
H476 C492 0.931 . S
C477 H465 0.929 . S
C477 C471 1.390 . S
C477 C474 1.386 . S
C478 C473 1.490 . S
C478 C480 1.395 . S
C478 C481 1.403 . S
H479 C485 0.930 . S
C480 H466 0.930 . S
C480 C478 1.395 . S
C480 C483 1.403 . S
C481 C478 1.403 . S
C481 C482 1.524 . S
C481 C485 1.400 . S
C482 H467 0.960 . S
C482 H468 0.960 . S
C482 H469 0.960 . S
C482 C481 1.524 . S
C483 C480 1.403 . S
C483 C484 1.392 . S
C483 C487 1.495 . S
C484 C483 1.392 . S
C484 C485 1.385 . S
C484 C486 1.478 . S
C485 H479 0.930 . S
C485 C481 1.400 . S
C485 C484 1.385 . S
C486 C484 1.478 . S
C486 C488 1.381 . S
C486 C492 1.383 . S
C487 C483 1.495 . S
C487 H493 0.959 . S
C487 H494 0.961 . S
C487 H495 0.960 . S
C488 C486 1.381 . S
C488 C489 1.394 . S
C488 H496 0.930 . S
C489 C488 1.394 . S
C489 C490 1.383 . S
C489 H497 0.929 . S
C490 C489 1.383 . S
C490 C491 1.377 . S
C491 H475 0.930 . S
C491 C490 1.377 . S
C491 C492 1.379 . S
C492 H476 0.931 . S
C492 C486 1.383 . S
C492 C491 1.379 . S
H493 C487 0.959 . S
H494 C487 0.961 . S
H495 C487 0.960 . S
H496 C488 0.930 . S
H497 C489 0.929 . S
H498 C506 0.929 . S
H499 C508 0.930 . S
H500 C510 0.930 . S
H501 C513 0.929 . S
H502 C516 0.930 . S
H503 C518 0.960 . S
H504 C518 0.960 . S
H505 C518 0.960 . S
C506 H498 0.929 . S
C506 C507 1.377 . S
C506 C508 1.384 . S
C507 C506 1.377 . S
C507 C513 1.390 . S
C508 H499 0.930 . S
C508 C506 1.384 . S
C508 C509 1.372 . S
C509 C508 1.372 . S
C509 C510 1.400 . S
C509 C514 1.490 . S
C510 H500 0.930 . S
C510 C509 1.400 . S
C510 C513 1.386 . S
H511 C527 0.930 . S
H512 C528 0.931 . S
C513 H501 0.929 . S
C513 C507 1.390 . S
C513 C510 1.386 . S
C514 C509 1.490 . S
C514 C516 1.395 . S
C514 C517 1.403 . S
H515 C521 0.930 . S
C516 H502 0.930 . S
C516 C514 1.395 . S
C516 C519 1.403 . S
C517 C514 1.403 . S
C517 C518 1.524 . S
C517 C521 1.400 . S
C518 H503 0.960 . S
C518 H504 0.960 . S
C518 H505 0.960 . S
C518 C517 1.524 . S
C519 C516 1.403 . S
C519 C520 1.392 . S
C519 C523 1.495 . S
C520 C519 1.392 . S
C520 C521 1.385 . S
C520 C522 1.478 . S
C521 H515 0.930 . S
C521 C517 1.400 . S
C521 C520 1.385 . S
C522 C520 1.478 . S
C522 C524 1.381 . S
C522 C528 1.383 . S
C523 C519 1.495 . S
C523 H529 0.959 . S
C523 H530 0.961 . S
C523 H531 0.960 . S
C524 C522 1.381 . S
C524 C525 1.394 . S
C524 H532 0.930 . S
C525 C524 1.394 . S
C525 C526 1.383 . S
C525 H533 0.929 . S
C526 C525 1.383 . S
C526 C527 1.377 . S
C527 H511 0.930 . S
C527 C526 1.377 . S
C527 C528 1.379 . S
C528 H512 0.931 . S
C528 C522 1.383 . S
C528 C527 1.379 . S
H529 C523 0.959 . S
H530 C523 0.961 . S
H531 C523 0.960 . S
H532 C524 0.930 . S
H533 C525 0.929 . S
H534 C542 0.929 . S
H535 C544 0.930 . S
H536 C546 0.930 . S
H537 C549 0.929 . S
H538 C552 0.930 . S
H539 C554 0.960 . S
H540 C554 0.960 . S
H541 C554 0.960 . S
C542 H534 0.929 . S
C542 C543 1.377 . S
C542 C544 1.384 . S
C543 C542 1.377 . S
C543 C549 1.390 . S
C544 H535 0.930 . S
C544 C542 1.384 . S
C544 C545 1.372 . S
C545 C544 1.372 . S
C545 C546 1.400 . S
C545 C550 1.490 . S
C546 H536 0.930 . S
C546 C545 1.400 . S
C546 C549 1.386 . S
H547 C563 0.930 . S
H548 C564 0.931 . S
C549 H537 0.929 . S
C549 C543 1.390 . S
C549 C546 1.386 . S
C550 C545 1.490 . S
C550 C552 1.395 . S
C550 C553 1.403 . S
H551 C557 0.930 . S
C552 H538 0.930 . S
C552 C550 1.395 . S
C552 C555 1.403 . S
C553 C550 1.403 . S
C553 C554 1.524 . S
C553 C557 1.400 . S
C554 H539 0.960 . S
C554 H540 0.960 . S
C554 H541 0.960 . S
C554 C553 1.524 . S
C555 C552 1.403 . S
C555 C556 1.392 . S
C555 C559 1.495 . S
C556 C555 1.392 . S
C556 C557 1.385 . S
C556 C558 1.478 . S
C557 H551 0.930 . S
C557 C553 1.400 . S
C557 C556 1.385 . S
C558 C556 1.478 . S
C558 C560 1.381 . S
C558 C564 1.383 . S
C559 C555 1.495 . S
C559 H565 0.959 . S
C559 H566 0.961 . S
C559 H567 0.960 . S
C560 C558 1.381 . S
C560 C561 1.394 . S
C560 H568 0.930 . S
C561 C560 1.394 . S
C561 C562 1.383 . S
C561 H569 0.929 . S
C562 C561 1.383 . S
C562 C563 1.377 . S
C563 H547 0.930 . S
C563 C562 1.377 . S
C563 C564 1.379 . S
C564 H548 0.931 . S
C564 C558 1.383 . S
C564 C563 1.379 . S
H565 C559 0.959 . S
H566 C559 0.961 . S
H567 C559 0.960 . S
H568 C560 0.930 . S
H569 C561 0.929 . S
H570 C578 0.929 . S
H571 C580 0.930 . S
H572 C582 0.930 . S
H573 C585 0.929 . S
H574 C588 0.930 . S
H575 C590 0.960 . S
H576 C590 0.960 . S
H577 C590 0.960 . S
C578 H570 0.929 . S
C578 C579 1.377 . S
C578 C580 1.384 . S
C579 C578 1.377 . S
C579 C585 1.390 . S
C580 H571 0.930 . S
C580 C578 1.384 . S
C580 C581 1.372 . S
C581 C580 1.372 . S
C581 C582 1.400 . S
C581 C586 1.490 . S
C582 H572 0.930 . S
C582 C581 1.400 . S
C582 C585 1.386 . S
H583 C599 0.930 . S
H584 C600 0.931 . S
C585 H573 0.929 . S
C585 C579 1.390 . S
C585 C582 1.386 . S
C586 C581 1.490 . S
C586 C588 1.395 . S
C586 C589 1.403 . S
H587 C593 0.930 . S
C588 H574 0.930 . S
C588 C586 1.395 . S
C588 C591 1.403 . S
C589 C586 1.403 . S
C589 C590 1.524 . S
C589 C593 1.400 . S
C590 H575 0.960 . S
C590 H576 0.960 . S
C590 H577 0.960 . S
C590 C589 1.524 . S
C591 C588 1.403 . S
C591 C592 1.392 . S
C591 C595 1.495 . S
C592 C591 1.392 . S
C592 C593 1.385 . S
C592 C594 1.478 . S
C593 H587 0.930 . S
C593 C589 1.400 . S
C593 C592 1.385 . S
C594 C592 1.478 . S
C594 C596 1.381 . S
C594 C600 1.383 . S
C595 C591 1.495 . S
C595 H601 0.959 . S
C595 H602 0.961 . S
C595 H603 0.960 . S
C596 C594 1.381 . S
C596 C597 1.394 . S
C596 H604 0.930 . S
C597 C596 1.394 . S
C597 C598 1.383 . S
C597 H605 0.929 . S
C598 C597 1.383 . S
C598 C599 1.377 . S
C599 H583 0.930 . S
C599 C598 1.377 . S
C599 C600 1.379 . S
C600 H584 0.931 . S
C600 C594 1.383 . S
C600 C599 1.379 . S
H601 C595 0.959 . S
H602 C595 0.961 . S
H603 C595 0.960 . S
H604 C596 0.930 . S
H605 C597 0.929 . S
H606 C614 0.929 . S
H607 C616 0.930 . S
H608 C618 0.930 . S
H609 C621 0.929 . S
H610 C624 0.930 . S
H611 C626 0.960 . S
H612 C626 0.960 . S
H613 C626 0.960 . S
C614 H606 0.929 . S
C614 C615 1.377 . S
C614 C616 1.384 . S
C615 C614 1.377 . S
C615 C621 1.390 . S
C616 H607 0.930 . S
C616 C614 1.384 . S
C616 C617 1.372 . S
C617 C616 1.372 . S
C617 C618 1.400 . S
C617 C622 1.490 . S
C618 H608 0.930 . S
C618 C617 1.400 . S
C618 C621 1.386 . S
H619 C635 0.930 . S
H620 C636 0.931 . S
C621 H609 0.929 . S
C621 C615 1.390 . S
C621 C618 1.386 . S
C622 C617 1.490 . S
C622 C624 1.395 . S
C622 C625 1.403 . S
H623 C629 0.909 1_556 S
C624 H610 0.930 . S
C624 C622 1.395 . S
C624 C627 1.403 . S
C625 C622 1.403 . S
C625 C626 1.524 . S
C625 C629 1.400 . S
C626 H611 0.960 . S
C626 H612 0.960 . S
C626 H613 0.960 . S
C626 C625 1.524 . S
C627 C624 1.403 . S
C627 C628 1.392 . S
C627 C631 1.495 . S
C628 C627 1.392 . S
C628 C629 1.385 . S
C628 C630 1.478 1_554 S
C629 H623 0.909 1_554 S
C629 C625 1.400 . S
C629 C628 1.385 . S
C630 C628 1.478 1_556 S
C630 C632 1.381 . S
C630 C636 1.383 . S
C631 C627 1.495 . S
C631 H637 0.959 . S
C631 H638 0.961 . S
C631 H639 0.960 . S
C632 C630 1.381 . S
C632 C633 1.394 . S
C632 H640 0.930 . S
C633 C632 1.394 . S
C633 C634 1.383 . S
C633 H641 0.929 . S
C634 C633 1.383 . S
C634 C635 1.377 . S
C635 H619 0.930 . S
C635 C634 1.377 . S
C635 C636 1.379 . S
C636 H620 0.931 . S
C636 C630 1.383 . S
C636 C635 1.379 . S
H637 C631 0.959 . S
H638 C631 0.961 . S
H639 C631 0.960 . S
H640 C632 0.930 . S
H641 C633 0.929 . S
H642 C650 0.929 . S
H643 C652 0.930 . S
H644 C654 0.930 . S
H645 C657 0.929 . S
H646 C660 0.930 . S
H647 C662 0.960 . S
H648 C662 0.960 . S
H649 C662 0.960 . S
C650 H642 0.929 . S
C650 C651 1.377 . S
C650 C652 1.384 . S
C651 C650 1.377 . S
C651 C657 1.390 . S
C652 H643 0.930 . S
C652 C650 1.384 . S
C652 C653 1.372 . S
C653 C652 1.372 . S
C653 C654 1.400 . S
C653 C658 1.490 . S
C654 H644 0.930 . S
C654 C653 1.400 . S
C654 C657 1.386 . S
H655 C671 0.930 . S
H656 C672 0.931 . S
C657 H645 0.929 . S
C657 C651 1.390 . S
C657 C654 1.386 . S
C658 C653 1.490 . S
C658 C660 1.395 1_545 S
C658 C661 1.403 . S
H659 C665 0.930 . S
C660 H646 0.930 . S
C660 C658 1.395 1_565 S
C660 C663 1.403 . S
C661 C658 1.403 . S
C661 C662 1.524 . S
C661 C665 1.400 . S
C662 H647 0.960 . S
C662 H648 0.960 . S
C662 H649 0.960 . S
C662 C661 1.524 . S
C663 C660 1.403 . S
C663 C664 1.392 1_565 S
C663 C667 1.495 . S
C664 C663 1.392 1_545 S
C664 C665 1.385 . S
C664 C666 1.478 . S
C665 H659 0.930 . S
C665 C661 1.400 . S
C665 C664 1.385 . S
C666 C664 1.478 . S
C666 C668 1.381 . S
C666 C672 1.383 . S
C667 C663 1.495 . S
C667 H673 0.959 . S
C667 H674 0.961 . S
C667 H675 0.960 . S
C668 C666 1.381 . S
C668 C669 1.394 . S
C668 H676 0.930 . S
C669 C668 1.394 . S
C669 C670 1.383 . S
C669 H677 0.929 . S
C670 C669 1.383 . S
C670 C671 1.377 . S
C671 H655 0.930 . S
C671 C670 1.377 . S
C671 C672 1.379 . S
C672 H656 0.931 . S
C672 C666 1.383 . S
C672 C671 1.379 . S
H673 C667 0.959 . S
H674 C667 0.961 . S
H675 C667 0.960 . S
H676 C668 0.930 . S
H677 C669 0.929 . S
H678 C686 0.929 . S
H679 C688 0.930 . S
H680 C690 0.930 . S
H681 C693 0.929 . S
H682 C696 0.930 . S
H683 C698 0.960 . S
H684 C698 0.960 . S
H685 C698 0.960 . S
C686 H678 0.929 . S
C686 C687 1.377 . S
C686 C688 1.384 . S
C687 C686 1.377 . S
C687 C693 1.390 . S
C688 H679 0.930 . S
C688 C686 1.384 . S
C688 C689 1.372 . S
C689 C688 1.372 . S
C689 C690 1.400 . S
C689 C694 1.490 . S
C690 H680 0.930 . S
C690 C689 1.400 . S
C690 C693 1.386 . S
H691 C707 0.930 . S
H692 C708 0.931 . S
C693 H681 0.929 . S
C693 C687 1.390 . S
C693 C690 1.386 . S
C694 C689 1.490 . S
C694 C696 1.395 . S
C694 C697 1.403 . S
H695 C701 0.930 . S
C696 H682 0.930 . S
C696 C694 1.395 . S
C696 C699 1.403 . S
C697 C694 1.403 . S
C697 C698 1.524 . S
C697 C701 1.400 . S
C698 H683 0.960 . S
C698 H684 0.960 . S
C698 H685 0.960 . S
C698 C697 1.524 . S
C699 C696 1.403 . S
C699 C700 1.392 . S
C699 C703 1.495 . S
C700 C699 1.392 . S
C700 C701 1.385 . S
C700 C702 1.478 . S
C701 H695 0.930 . S
C701 C697 1.400 . S
C701 C700 1.385 . S
C702 C700 1.478 . S
C702 C704 1.381 . S
C702 C708 1.383 . S
C703 C699 1.495 . S
C703 H709 0.959 . S
C703 H710 0.961 . S
C703 H711 0.960 . S
C704 C702 1.381 . S
C704 C705 1.394 . S
C704 H712 0.930 . S
C705 C704 1.394 . S
C705 C706 1.383 . S
C705 H713 0.929 . S
C706 C705 1.383 . S
C706 C707 1.377 . S
C707 H691 0.930 . S
C707 C706 1.377 . S
C707 C708 1.379 . S
C708 H692 0.931 . S
C708 C702 1.383 . S
C708 C707 1.379 . S
H709 C703 0.959 . S
H710 C703 0.961 . S
H711 C703 0.960 . S
H712 C704 0.930 . S
H713 C705 0.929 . S
H714 C722 0.929 . S
H715 C724 0.930 . S
H716 C726 0.930 . S
H717 C729 0.929 . S
H718 C732 0.930 . S
H719 C734 0.960 . S
H720 C734 0.960 . S
H721 C734 0.960 . S
C722 H714 0.929 . S
C722 C723 1.377 . S
C722 C724 1.384 . S
C723 C722 1.377 . S
C723 C729 1.390 1_545 S
C724 H715 0.930 . S
C724 C722 1.384 . S
C724 C725 1.372 . S
C725 C724 1.372 . S
C725 C726 1.400 1_545 S
C725 C730 1.490 . S
C726 H716 0.930 . S
C726 C725 1.400 1_565 S
C726 C729 1.386 . S
H727 C743 0.930 . S
H728 C744 0.931 . S
C729 H717 0.929 . S
C729 C723 1.390 1_565 S
C729 C726 1.386 . S
C730 C725 1.490 . S
C730 C732 1.395 . S
C730 C733 1.403 1_545 S
H731 C737 0.930 . S
C732 H718 0.930 . S
C732 C730 1.395 . S
C732 C735 1.403 . S
C733 C730 1.403 1_565 S
C733 C734 1.524 . S
C733 C737 1.400 . S
C734 H719 0.960 . S
C734 H720 0.960 . S
C734 H721 0.960 . S
C734 C733 1.524 . S
C735 C732 1.403 . S
C735 C736 1.392 . S
C735 C739 1.495 . S
C736 C735 1.392 . S
C736 C737 1.385 1_545 S
C736 C738 1.478 . S
C737 H731 0.930 . S
C737 C733 1.400 . S
C737 C736 1.385 1_565 S
C738 C736 1.478 . S
C738 C740 1.381 . S
C738 C744 1.383 1_545 S
C739 C735 1.495 . S
C739 H745 0.959 . S
C739 H746 0.961 . S
C739 H747 0.960 . S
C740 C738 1.381 . S
C740 C741 1.394 . S
C740 H748 0.930 . S
C741 C740 1.394 . S
C741 C742 1.383 . S
C741 H749 0.929 . S
C742 C741 1.383 . S
C742 C743 1.377 1_545 S
C743 H727 0.930 . S
C743 C742 1.377 1_565 S
C743 C744 1.379 . S
C744 H728 0.931 . S
C744 C738 1.383 1_565 S
C744 C743 1.379 . S
H745 C739 0.959 . S
H746 C739 0.961 . S
H747 C739 0.960 . S
H748 C740 0.930 . S
H749 C741 0.929 . S
H750 C758 0.929 . S
H751 C760 0.930 . S
H752 C762 0.930 . S
H753 C765 0.929 . S
H754 C768 0.930 . S
H755 C770 0.960 . S
H756 C770 0.960 . S
H757 C770 0.960 . S
C758 H750 0.929 . S
C758 C759 1.377 . S
C758 C760 1.384 . S
C759 C758 1.377 . S
C759 C765 1.390 . S
C760 H751 0.930 . S
C760 C758 1.384 . S
C760 C761 1.372 . S
C761 C760 1.372 . S
C761 C762 1.400 . S
C761 C766 1.490 . S
C762 H752 0.930 . S
C762 C761 1.400 . S
C762 C765 1.386 . S
H763 C779 0.930 . S
H764 C780 0.931 . S
C765 H753 0.929 . S
C765 C759 1.390 . S
C765 C762 1.386 . S
C766 C761 1.490 . S
C766 C768 1.395 . S
C766 C769 1.403 . S
H767 C773 0.930 . S
C768 H754 0.930 . S
C768 C766 1.395 . S
C768 C771 1.403 . S
C769 C766 1.403 . S
C769 C770 1.524 . S
C769 C773 1.400 . S
C770 H755 0.960 . S
C770 H756 0.960 . S
C770 H757 0.960 . S
C770 C769 1.524 . S
C771 C768 1.403 . S
C771 C772 1.392 . S
C771 C775 1.495 . S
C772 C771 1.392 . S
C772 C773 1.385 . S
C772 C774 1.478 1_556 S
C773 H767 0.930 . S
C773 C769 1.400 . S
C773 C772 1.385 . S
C774 C772 1.478 1_554 S
C774 C776 1.381 . S
C774 C780 1.383 . S
C775 C771 1.495 . S
C775 H781 0.959 . S
C775 H782 0.961 . S
C775 H783 0.960 . S
C776 C774 1.381 . S
C776 C777 1.394 . S
C776 H784 0.930 . S
C777 C776 1.394 . S
C777 C778 1.383 . S
C777 H785 0.929 . S
C778 C777 1.383 . S
C778 C779 1.377 . S
C779 H763 0.930 . S
C779 C778 1.377 . S
C779 C780 1.379 . S
C780 H764 0.931 . S
C780 C774 1.383 . S
C780 C779 1.379 . S
H781 C775 0.959 . S
H782 C775 0.961 . S
H783 C775 0.960 . S
H784 C776 0.930 . S
H785 C777 0.929 . S
H786 C794 0.929 . S
H787 C796 0.930 . S
H788 C798 0.930 . S
H789 C801 0.929 . S
H790 C804 0.930 . S
H791 C806 0.960 . S
H792 C806 0.960 . S
H793 C806 0.960 . S
C794 H786 0.929 . S
C794 C795 1.377 1_655 S
C794 C796 1.384 . S
C795 C794 1.377 1_455 S
C795 C801 1.390 . S
C796 H787 0.930 . S
C796 C794 1.384 . S
C796 C797 1.372 1_655 S
C797 C796 1.372 1_455 S
C797 C798 1.400 . S
C797 C802 1.490 . S
C798 H788 0.930 . S
C798 C797 1.400 . S
C798 C801 1.386 . S
H799 C815 0.930 . S
H800 C816 0.931 . S
C801 H789 0.929 . S
C801 C795 1.390 . S
C801 C798 1.386 . S
C802 C797 1.490 . S
C802 C804 1.395 1_455 S
C802 C805 1.403 . S
H803 C809 0.930 . S
C804 H790 0.930 . S
C804 C802 1.395 1_655 S
C804 C807 1.403 . S
C805 C802 1.403 . S
C805 C806 1.524 . S
C805 C809 1.400 . S
C806 H791 0.960 . S
C806 H792 0.960 . S
C806 H793 0.960 . S
C806 C805 1.524 . S
C807 C804 1.403 . S
C807 C808 1.392 1_655 S
C807 C811 1.495 . S
C808 C807 1.392 1_455 S
C808 C809 1.385 . S
C808 C810 1.477 . S
C809 H803 0.930 . S
C809 C805 1.400 . S
C809 C808 1.385 . S
C810 C808 1.477 . S
C810 C812 1.382 1_455 S
C810 C816 1.382 . S
C811 C807 1.495 . S
C811 H817 0.959 . S
C811 H818 0.961 . S
C811 H819 0.960 . S
C812 C810 1.382 1_655 S
C812 C813 1.394 . S
C812 H820 0.930 . S
C813 C812 1.394 . S
C813 C814 1.383 . S
C813 H821 0.929 . S
C814 C813 1.383 . S
C814 C815 1.377 1_655 S
C815 H799 0.930 . S
C815 C814 1.377 1_455 S
C815 C816 1.379 . S
C816 H800 0.931 . S
C816 C810 1.382 . S
C816 C815 1.379 . S
H817 C811 0.959 . S
H818 C811 0.961 . S
H819 C811 0.960 . S
H820 C812 0.930 . S
H821 C813 0.929 . S
C183 C25 0.348 . S
C202 C169 0.298 . S
C219 C65 0.327 . S
C238 C151 0.205 . S
C255 C105 0.382 . S
C274 C163 0.281 . S
C291 C4 0.387 . S
C310 C172 0.245 . S
C346 C154 0.308 . S
C327 C44 0.350 . S
C382 C160 0.319 . S
C363 C84 0.381 . S
C399 C60 2.784 . S
C418 C133 2.752 . S
C435 C100 2.926 . S
C454 C142 2.893 1_655 S
C471 C31 2.906 . S
C490 C124 2.886 . S
C526 C136 2.860 . S
C507 C71 2.885 . S
C562 C145 2.740 . S
C543 C111 2.745 . S
C579 C20 2.773 . S
C598 C127 2.737 . S
C634 C143 1.801 . S
C615 C2 1.735 . S
C651 C42 1.747 . S
C670 C125 1.786 . S
C687 C82 1.739 . S
C706 C134 1.798 . S
C742 C161 1.039 1_545 S
C723 C63 1.026 . S
C778 C170 1.089 . S
C759 C103 1.067 . S
C795 C23 1.039 . S
C814 C152 1.052 1_655 S
