# Generated by pormake.
# Topology zzz, (3,6)-cn, num edge types: 1
# Building blocks:
#     Node 0, Type 0, BuildingBlock: BETDAH_clean_linker_0, # of connection points: 3
#     Node 1, Type 0, BuildingBlock: BETDAH_clean_linker_0, # of connection points: 3
#     Node 2, Type 0, BuildingBlock: BETDAH_clean_linker_0, # of connection points: 3
#     Node 3, Type 0, BuildingBlock: BETDAH_clean_linker_0, # of connection points: 3
#     Node 4, Type 0, BuildingBlock: BETDAH_clean_linker_0, # of connection points: 3
#     Node 5, Type 0, BuildingBlock: BETDAH_clean_linker_0, # of connection points: 3
#     Node 6, Type 0, BuildingBlock: BETDAH_clean_linker_0, # of connection points: 3
#     Node 7, Type 0, BuildingBlock: BETDAH_clean_linker_0, # of connection points: 3
#     Node 8, Type 1, BuildingBlock: MIFKUJ_clean_sbu_0, # of connection points: 6
#     Node 9, Type 1, BuildingBlock: MIFKUJ_clean_sbu_0, # of connection points: 6
#     Node 10, Type 1, BuildingBlock: MIFKUJ_clean_sbu_0, # of connection points: 6
#     Node 11, Type 1, BuildingBlock: MIFKUJ_clean_sbu_0, # of connection points: 6
#     Edge 12, Type (0, 1), BuildingBlock: OJICUG_clean_linker_0, # of connection points: 2
#     Edge 13, Type (0, 1), BuildingBlock: OJICUG_clean_linker_0, # of connection points: 2
#     Edge 14, Type (0, 1), BuildingBlock: OJICUG_clean_linker_0, # of connection points: 2
#     Edge 15, Type (0, 1), BuildingBlock: OJICUG_clean_linker_0, # of connection points: 2
#     Edge 16, Type (0, 1), BuildingBlock: OJICUG_clean_linker_0, # of connection points: 2
#     Edge 17, Type (0, 1), BuildingBlock: OJICUG_clean_linker_0, # of connection points: 2
#     Edge 18, Type (0, 1), BuildingBlock: OJICUG_clean_linker_0, # of connection points: 2
#     Edge 19, Type (0, 1), BuildingBlock: OJICUG_clean_linker_0, # of connection points: 2
#     Edge 20, Type (0, 1), BuildingBlock: OJICUG_clean_linker_0, # of connection points: 2
#     Edge 21, Type (0, 1), BuildingBlock: OJICUG_clean_linker_0, # of connection points: 2
#     Edge 22, Type (0, 1), BuildingBlock: OJICUG_clean_linker_0, # of connection points: 2
#     Edge 23, Type (0, 1), BuildingBlock: OJICUG_clean_linker_0, # of connection points: 2
#     Edge 24, Type (0, 1), BuildingBlock: OJICUG_clean_linker_0, # of connection points: 2
#     Edge 25, Type (0, 1), BuildingBlock: OJICUG_clean_linker_0, # of connection points: 2
#     Edge 26, Type (0, 1), BuildingBlock: OJICUG_clean_linker_0, # of connection points: 2
#     Edge 27, Type (0, 1), BuildingBlock: OJICUG_clean_linker_0, # of connection points: 2
#     Edge 28, Type (0, 1), BuildingBlock: OJICUG_clean_linker_0, # of connection points: 2
#     Edge 29, Type (0, 1), BuildingBlock: OJICUG_clean_linker_0, # of connection points: 2
#     Edge 30, Type (0, 1), BuildingBlock: OJICUG_clean_linker_0, # of connection points: 2
#     Edge 31, Type (0, 1), BuildingBlock: OJICUG_clean_linker_0, # of connection points: 2
#     Edge 32, Type (0, 1), BuildingBlock: OJICUG_clean_linker_0, # of connection points: 2
#     Edge 33, Type (0, 1), BuildingBlock: OJICUG_clean_linker_0, # of connection points: 2
#     Edge 34, Type (0, 1), BuildingBlock: OJICUG_clean_linker_0, # of connection points: 2
#     Edge 35, Type (0, 1), BuildingBlock: OJICUG_clean_linker_0, # of connection points: 2
# Relax obj value: 0.124
# Max RMSD: 0.125
# Mean RMSD: 0.084
data_MOF--net-zzz--node1-MIFKUJ_clean_sbu_0--node2-BETDAH_clean_linker_0--edge1-OJICUG_clean_linker_0
_symmetry_space_group_name_H-M    P1
_symmetry_Int_Tables_number       1
_symmetry_cell_setting            triclinic
loop_
_symmetry_equiv_pos_as_xyz
'x, y, z'
_cell_length_a     36.65695
_cell_length_b     36.802391
_cell_length_c     12.127302
_cell_angle_alpha  90.016959
_cell_angle_beta   89.843908
_cell_angle_gamma 90.090653
loop_
_atom_site_label
_atom_site_type_symbol
_atom_site_fract_x
_atom_site_fract_y
_atom_site_fract_z
_atom_type_partial_charge
H0 H 0.83607 0.49336 0.12672 0.0
H1 H 0.73313 0.50416 0.9639 0.0
H2 H 0.7422 0.52604 0.31351 0.0
C3 C 0.807 0.49896 0.13062 0.0
C4 C 0.79182 0.51024 0.23001 0.0
C5 C 0.786 0.49628 0.03536 0.0
C6 C 0.74887 0.50507 0.0392 0.0
C7 C 0.73261 0.51542 0.14014 0.0
C8 C 0.75433 0.51782 0.23585 0.0
N9 N 0.69491 0.52417 0.14746 0.0
C10 C 0.67107 0.52342 0.05814 0.0
H11 H 0.04351 0.84047 0.11569 0.0
H12 H 0.0316 0.73742 0.95461 0.0
H13 H 0.01007 0.74772 0.30417 0.0
C14 C 0.03808 0.81147 0.12001 0.0
C15 C 0.02671 0.79665 0.21975 0.0
C16 C 0.04013 0.79037 0.02464 0.0
C17 C 0.03114 0.75336 0.02961 0.0
C18 C 0.02082 0.73752 0.13115 0.0
C19 C 0.01864 0.75945 0.22634 0.0
N20 N 0.01153 0.70011 0.13963 0.0
C21 C 0.01047 0.67623 0.05055 0.0
H22 H 0.67715 0.02621 0.12633 0.0
H23 H 0.78003 0.01557 0.96124 0.0
H24 H 0.77105 0.99316 0.31065 0.0
C25 C 0.70622 0.02059 0.12952 0.0
C26 C 0.72144 0.00914 0.2284 0.0
C27 C 0.72718 0.0234 0.03385 0.0
C28 C 0.76431 0.01457 0.03682 0.0
C29 C 0.78059 1.00405 0.1373 0.0
C30 C 0.75891 1.00152 0.23337 0.0
N31 N 0.81826 0.99522 0.14388 0.0
C32 C 0.84212 0.99601 0.05426 0.0
H33 H 0.46954 0.67915 0.11969 0.0
H34 H 0.48186 0.78183 0.95668 0.0
H35 H 0.50418 0.77195 0.30546 0.0
C36 C 0.47515 0.70812 0.12337 0.0
C37 C 0.48688 0.72303 0.22245 0.0
C38 C 0.47309 0.72905 0.02771 0.0
C39 C 0.48234 0.76602 0.03188 0.0
C40 C 0.49302 0.78195 0.13278 0.0
C41 C 0.49529 0.76017 0.22817 0.0
N42 N 0.50266 0.81929 0.14037 0.0
C43 C 0.50367 0.84305 0.05101 0.0
H44 H 0.18226 0.52737 0.08887 0.0
H45 H 0.28483 0.51451 0.25238 0.0
H46 H 0.27546 0.49226 0.90311 0.0
C47 C 0.21121 0.52116 0.08521 0.0
C48 C 0.22619 0.50936 0.98608 0.0
C49 C 0.23221 0.52348 0.18058 0.0
C50 C 0.26913 0.51387 0.17701 0.0
C51 C 0.28521 0.503 0.07633 0.0
C52 C 0.26349 0.5009 0.98056 0.0
N53 N 0.32271 0.49339 0.06937 0.0
C54 C 0.34656 0.49391 0.15868 0.0
H55 H 0.96992 0.18306 0.09783 0.0
H56 H 0.98397 0.28571 0.25968 0.0
H57 H 0.00585 0.27512 0.91043 0.0
C58 C 0.97599 0.21194 0.09377 0.0
C59 C 0.98787 0.22655 -0.00572 0.0
C60 C 0.97432 0.23301 0.18927 0.0
C61 C 0.98416 0.26982 0.18459 0.0
C62 C 0.99501 0.28547 0.08331 0.0
C63 C 0.99686 0.26356 -0.01196 0.0
N64 N 0.00521 0.32266 0.07522 0.0
C65 C 0.00655 0.34649 0.1644 0.0
H66 H 0.33364 0.99258 0.08754 0.0
H67 H 0.23106 0.00539 0.25288 0.0
H68 H 0.24057 0.02828 0.9039 0.0
C69 C 0.30471 0.99889 0.08448 0.0
C70 C 0.28978 0.01092 0.98582 0.0
C71 C 0.2837 0.99641 0.18012 0.0
C72 C 0.24679 0.00614 0.17731 0.0
C73 C 0.23077 0.01726 0.07704 0.0
C74 C 0.25251 0.01947 0.98102 0.0
N75 N 0.19332 0.02701 0.07067 0.0
C76 C 0.1694 0.02642 0.16014 0.0
H77 H 0.54127 0.3371 0.10058 0.0
H78 H 0.52888 0.23394 0.26066 0.0
H79 H 0.50545 0.24514 0.91288 0.0
C80 C 0.53533 0.3082 0.09617 0.0
C81 C 0.52318 0.29372 -0.00303 0.0
C82 C 0.53774 0.28688 0.19095 0.0
C83 C 0.52815 0.25002 0.18601 0.0
C84 C 0.51695 0.23452 0.08501 0.0
C85 C 0.51457 0.25663 -0.00967 0.0
N86 N 0.50703 0.19727 0.07659 0.0
C87 C 0.50625 0.1732 0.1652 0.0
Zn88 Zn 0.98651 0.04978 0.56983 0.0
Zn89 Zn 0.02522 0.97347 0.64434 0.0
C90 C 0.97696 0.09946 0.73246 0.0
O91 O 0.94401 0.09139 0.69763 0.0
C92 C 0.03576 0.92381 0.48207 0.0
O93 O 0.06854 0.93225 0.51755 0.0
O94 O 0.96519 0.09047 0.48006 0.0
O95 O 0.02719 0.03153 0.47128 0.0
O96 O 0.06485 0.00748 0.59163 0.0
C97 C 0.98809 0.11646 0.47398 0.0
O98 O 0.02142 0.11126 0.51037 0.0
O99 O 1.00351 0.0796 0.70112 0.0
C100 C 0.02438 0.90678 0.74039 0.0
O101 O 0.99104 0.9115 0.70357 0.0
O102 O 0.04693 0.93309 0.73457 0.0
O103 O 0.98403 0.99112 0.74206 0.0
O104 O 0.94655 0.01626 0.62309 0.0
O105 O 0.00891 0.94335 0.51287 0.0
C106 C 0.05926 0.02205 0.49824 0.0
C107 C 0.95207 1.00114 0.71572 0.0
Zn108 Zn 0.46757 0.99193 0.5632 0.0
Zn109 Zn 0.54315 0.02412 0.65107 0.0
C110 C 0.41435 0.98862 0.71951 0.0
O111 O 0.41861 0.95504 0.68495 0.0
C112 C 0.59647 0.02884 0.49519 0.0
O113 O 0.59154 0.06226 0.53041 0.0
O114 O 0.42607 0.97443 0.46901 0.0
O115 O 0.49142 0.03003 0.46653 0.0
O116 O 0.5138 0.06636 0.59318 0.0
C117 C 0.40267 0.99978 0.45968 0.0
O118 O 0.4111 0.03251 0.49488 0.0
O119 O 0.4378 0.01244 0.69058 0.0
C120 C 0.60812 0.01733 0.7549 0.0
O121 O 0.60034 0.9845 0.71926 0.0
O122 O 0.58424 0.04224 0.7458 0.0
O123 O 0.52007 0.98529 0.74687 0.0
O124 O 0.49616 0.9493 0.6217 0.0
O125 O 0.57348 1.00451 0.52353 0.0
C126 C 0.50142 0.06157 0.4965 0.0
C127 C 0.50922 0.95395 0.71761 0.0
Zn128 Zn 0.52776 0.47006 0.57161 0.0
Zn129 Zn 0.48893 0.54607 0.64639 0.0
C130 C 0.5357 0.42045 0.73482 0.0
O131 O 0.56894 0.42795 0.70075 0.0
C132 C 0.47848 0.59595 0.48489 0.0
O133 O 0.44567 0.58728 0.52019 0.0
O134 O 0.54904 0.429 0.48271 0.0
O135 O 0.48792 0.48882 0.47155 0.0
O136 O 0.44964 0.51191 0.59234 0.0
C137 C 0.5259 0.40323 0.47645 0.0
O138 O 0.49249 0.40881 0.51215 0.0
O139 O 0.50961 0.44068 0.70269 0.0
C140 C 0.48915 0.61253 0.74349 0.0
O141 O 0.52262 0.60795 0.70692 0.0
O142 O 0.46671 0.58616 0.73717 0.0
O143 O 0.53006 0.52858 0.74416 0.0
O144 O 0.56783 0.50311 0.62597 0.0
O145 O 0.50538 0.57652 0.51552 0.0
C146 C 0.45567 0.49787 0.49833 0.0
C147 C 0.56206 0.51835 0.71841 0.0
Zn148 Zn 0.04824 0.5267 0.56604 0.0
Zn149 Zn 0.97005 0.49535 0.65009 0.0
C150 C 0.10118 0.53087 0.72244 0.0
O151 O 0.09664 0.56435 0.68743 0.0
C152 C 0.91702 0.49033 0.49411 0.0
O153 O 0.92193 0.45695 0.52959 0.0
O154 O 0.08979 0.54423 0.47166 0.0
O155 O 0.02496 0.48823 0.46966 0.0
O156 O 0.99937 0.45282 0.59366 0.0
C157 C 0.11342 0.51907 0.46278 0.0
O158 O 0.10526 0.48636 0.49879 0.0
O159 O 0.07797 0.50679 0.694 0.0
C160 C 0.90484 0.50236 0.75367 0.0
O161 O 0.91261 0.53513 0.71736 0.0
O162 O 0.92876 0.47746 0.7449 0.0
O163 O 0.99286 0.5343 0.74577 0.0
O164 O 0.01933 0.56946 0.62264 0.0
O165 O 0.93998 0.5147 0.52211 0.0
C166 C 0.01321 0.45715 0.49843 0.0
C167 C 0.005 0.56526 0.71729 0.0
C168 C 0.14937 0.00807 0.34744 0.0
C169 C 0.14281 0.02653 0.2483 0.0
H170 H 0.12814 0.99236 0.5056 0.0
C171 C 0.10967 0.04465 0.23351 0.0
H172 H 0.17484 0.99383 0.36019 0.0
C173 C 0.08299 0.04383 0.31599 0.0
C174 C 0.08897 0.02485 0.41515 0.0
H175 H 0.10417 0.0591 0.15748 0.0
H176 H 0.05745 0.05777 0.30133 0.0
C177 C 0.12268 0.00732 0.43055 0.0
C178 C 0.48612 0.11333 0.23047 0.0
C179 C 0.5042 0.14611 0.25118 0.0
H180 H 0.47078 0.0611 0.29201 0.0
C181 C 0.52052 0.15188 0.35423 0.0
H182 H 0.47332 0.10846 0.15136 0.0
C183 C 0.51908 0.12478 0.43552 0.0
C184 C 0.50144 0.0915 0.41441 0.0
H185 H 0.53467 0.17709 0.37156 0.0
H186 H 0.53232 0.12964 0.51391 0.0
C187 C 0.48474 0.08628 0.31114 0.0
C188 C 0.36592 0.5117 0.34688 0.0
C189 C 0.37296 0.49377 0.24699 0.0
H190 H 0.38648 0.52687 0.50601 0.0
C191 C 0.40636 0.4761 0.23176 0.0
H192 H 0.34025 0.52559 0.36003 0.0
C193 C 0.43279 0.47683 0.31459 0.0
C194 C 0.42628 0.49525 0.41457 0.0
H195 H 0.41224 0.46207 0.15517 0.0
H196 H 0.45852 0.46323 0.29962 0.0
C197 C 0.39234 0.51234 0.43033 0.0
C198 C 0.02939 0.40492 0.23334 0.0
C199 C 0.00918 0.3732 0.25133 0.0
H200 H 0.04681 0.45613 0.29765 0.0
C201 C 0.99122 0.36817 0.35249 0.0
H202 H 0.04348 0.40921 0.15571 0.0
C203 C 0.99312 0.395 0.43452 0.0
C204 C 0.01285 0.42729 0.41602 0.0
H205 H 0.97541 0.34378 0.36767 0.0
H206 H 0.97856 0.39078 0.5113 0.0
C207 C 0.03123 0.43172 0.31474 0.0
C208 C 0.8622 0.01519 0.86781 0.0
C209 C 0.86862 0.99607 0.96588 0.0
H210 H 0.8835 0.03161 0.7104 0.0
C211 C 0.90156 0.97748 0.97942 0.0
H212 H 0.83688 0.0298 0.85607 0.0
C213 C 0.92819 0.97849 0.89681 0.0
C214 C 0.92235 0.99813 0.79876 0.0
H215 H 0.90694 0.96253 0.05462 0.0
H216 H 0.95357 0.96418 0.91054 0.0
C217 C 0.88884 0.01614 0.78456 0.0
C218 C 0.48881 0.86434 0.86239 0.0
C219 C 0.506 0.86984 0.96426 0.0
H220 H 0.47648 0.88664 0.70316 0.0
C221 C 0.52516 0.90213 0.98317 0.0
H222 H 0.47382 0.83951 0.8465 0.0
C223 C 0.52673 0.92899 0.90196 0.0
C224 C 0.50912 0.92408 0.79993 0.0
H225 H 0.53865 0.90679 0.06136 0.0
H226 H 0.5415 0.95382 0.91977 0.0
C227 C 0.49043 0.89125 0.78054 0.0
C228 C 0.61188 0.5421 0.98256 0.0
C229 C 0.64477 0.52333 0.96959 0.0
H230 H 0.56014 0.55557 0.91292 0.0
C231 C 0.65137 0.50402 0.87182 0.0
H232 H 0.60636 0.5572 0.05751 0.0
C233 C 0.62498 0.5031 0.78828 0.0
C234 C 0.59152 0.5213 0.80186 0.0
H235 H 0.67664 0.48926 0.86051 0.0
H236 H 0.63046 0.48748 0.71437 0.0
C237 C 0.58549 0.54111 0.89964 0.0
C238 C 0.98767 0.61786 0.98103 0.0
C239 C 0.00814 0.64947 0.96372 0.0
H240 H 0.97034 0.56668 0.91639 0.0
C241 C 0.02665 0.6543 0.8634 0.0
H242 H 0.97316 0.61373 0.05802 0.0
C243 C 0.02506 0.62739 0.78154 0.0
C244 C 0.00506 0.59521 0.79939 0.0
H245 H 0.04266 0.6786 0.84878 0.0
H246 H 0.04005 0.63146 0.70544 0.0
C247 C 0.98613 0.59098 0.89982 0.0
C248 C 0.94122 0.18732 0.30185 0.0
C249 C 0.96921 0.21342 0.29393 0.0
H250 H 0.92566 0.13508 0.36407 0.0
C251 C 0.99893 0.21144 0.36586 0.0
H252 H 0.91792 0.18856 0.2472 0.0
C253 C 1.00361 0.18074 0.43137 0.0
C254 C 0.97848 0.15186 0.42596 0.0
H255 H 0.02081 0.23123 0.36135 0.0
H256 H 0.02838 0.17846 0.47935 0.0
C257 C 0.94595 0.15649 0.36717 0.0
C258 C 0.32745 0.9597 0.28778 0.0
C259 C 0.3034 0.98941 0.28321 0.0
H260 H 0.37878 0.93998 0.34648 0.0
C261 C 0.30813 0.01849 0.35613 0.0
H262 H 0.32414 0.93699 0.23177 0.0
C263 C 0.33957 0.02052 0.41999 0.0
C264 C 0.36641 0.99336 0.412 0.0
H265 H 0.28998 0.0417 0.35371 0.0
H266 H 0.34405 0.04471 0.46912 0.0
C267 C 0.35896 0.96172 0.35173 0.0
C268 C 0.57174 0.33215 0.30199 0.0
C269 C 0.54359 0.3062 0.29563 0.0
H270 H 0.58783 0.38432 0.36341 0.0
C271 C 0.51427 0.30825 0.36954 0.0
H272 H 0.59473 0.33086 0.24575 0.0
C273 C 0.51007 0.33895 0.43549 0.0
C274 C 0.53527 0.36773 0.42853 0.0
H275 H 0.49228 0.28856 0.36627 0.0
H276 H 0.48555 0.34133 0.485 0.0
C277 C 0.5675 0.36298 0.36779 0.0
C278 C 0.20794 0.50091 0.35654 0.0
C279 C 0.2125 0.53017 0.28415 0.0
H280 H 0.17222 0.47432 0.46983 0.0
C281 C 0.18834 0.55977 0.28988 0.0
H282 H 0.22619 0.47778 0.35321 0.0
C283 C 0.15688 0.55749 0.35452 0.0
C284 C 0.14962 0.5257 0.41433 0.0
H285 H 0.19151 0.58261 0.2343 0.0
H286 H 0.13699 0.57917 0.3502 0.0
C287 C 0.17656 0.49862 0.42113 0.0
C288 C 0.01489 0.81166 0.84864 0.0
C289 C 0.04481 0.81 0.91991 0.0
H290 H 0.98478 0.84432 0.7359 0.0
C291 C 0.07244 0.83646 0.91159 0.0
H292 H 0.99327 0.7916 0.85354 0.0
C293 C 0.06719 0.86726 0.84652 0.0
C294 C 0.03447 0.87151 0.78836 0.0
H295 H 0.09587 0.83549 0.96581 0.0
H296 H 0.08722 0.88891 0.84927 0.0
C297 C 0.00969 0.84233 0.78336 0.0
C298 C 0.68274 0.05907 0.92566 0.0
C299 C 0.70731 0.0298 0.93071 0.0
H300 H 0.63104 0.07776 0.86688 0.0
C301 C 0.70302 1.00044 0.85857 0.0
H302 H 0.68569 0.08198 0.98112 0.0
C303 C 0.67156 0.9977 0.795 0.0
C304 C 0.64427 0.02443 0.80251 0.0
H305 H 0.72157 0.97756 0.86142 0.0
H306 H 0.66747 0.97332 0.74647 0.0
C307 C 0.65121 0.05634 0.86202 0.0
C308 C 0.49806 0.7078 0.85082 0.0
C309 C 0.46832 0.70925 0.92331 0.0
H310 H 0.52815 0.67532 0.73701 0.0
C311 C 0.44088 0.68257 0.91611 0.0
H312 H 0.51953 0.72804 0.85474 0.0
C313 C 0.44622 0.65177 0.85093 0.0
C314 C 0.47883 0.64776 0.79155 0.0
H315 H 0.41756 0.68339 0.97118 0.0
H316 H 0.42638 0.62996 0.85454 0.0
C317 C 0.50335 0.67713 0.78546 0.0
C318 C 0.83026 0.46065 0.92573 0.0
C319 C 0.80578 0.48998 0.93173 0.0
H320 H 0.88185 0.44188 0.86543 0.0
C321 C 0.81008 0.51942 0.85987 0.0
H322 H 0.8273 0.43769 0.98096 0.0
C323 C 0.84149 0.52214 0.79553 0.0
C324 C 0.86871 0.49533 0.80204 0.0
H325 H 0.7916 0.54234 0.86348 0.0
H326 H 0.84561 0.54657 0.74723 0.0
C327 C 0.86174 0.46337 0.86134 0.0
C328 C 0.01932 0.17569 0.89978 0.0
C329 C 0.99073 0.20115 0.901 0.0
H330 H 0.03744 0.12308 0.84582 0.0
C331 C 0.95945 0.19442 0.83847 0.0
H332 H 0.04326 0.17996 0.95041 0.0
C333 C 0.9556 0.16163 0.78199 0.0
C334 C 0.98305 0.13494 0.78672 0.0
H335 H 0.93671 0.2132 0.8408 0.0
H336 H 0.93044 0.15675 0.73772 0.0
C337 C 0.01566 0.1429 0.8421 0.0
C338 C 0.34396 0.03769 0.89368 0.0
C339 C 0.31479 0.01277 0.89081 0.0
H340 H 0.39882 0.04954 0.84202 0.0
C341 C 0.31702 0.98258 0.82111 0.0
H342 H 0.34307 0.06073 0.94928 0.0
C343 C 0.34913 0.9756 0.76287 0.0
C344 C 0.37954 0.99882 0.77284 0.0
H345 H 0.29526 0.96262 0.81963 0.0
H346 H 0.3506 0.95109 0.71358 0.0
C347 C 0.37606 0.03092 0.83429 0.0
C348 C 0.49244 0.34562 0.90609 0.0
C349 C 0.52014 0.31919 0.90402 0.0
H350 H 0.47559 0.39885 0.85428 0.0
C351 C 0.55086 0.32478 0.83754 0.0
H352 H 0.46896 0.3422 0.9596 0.0
C353 C 0.5552 0.35743 0.78062 0.0
C354 C 0.5288 0.38508 0.78878 0.0
H355 H 0.57293 0.30522 0.8371 0.0
H356 H 0.57999 0.36147 0.73332 0.0
C357 C 0.49656 0.37826 0.84788 0.0
C358 C 0.17227 0.48224 0.8942 0.0
C359 C 0.20113 0.50753 0.89155 0.0
H360 H 0.11755 0.46983 0.84318 0.0
C361 C 0.19842 0.53797 0.82305 0.0
H362 H 0.17349 0.45902 0.94897 0.0
C363 C 0.16619 0.54472 0.76569 0.0
C364 C 0.1361 0.52105 0.77533 0.0
H365 H 0.21991 0.55822 0.82184 0.0
H366 H 0.16439 0.56938 0.71727 0.0
C367 C 0.14005 0.4888 0.8357 0.0
C368 C 0.99457 0.84711 0.31409 0.0
C369 C 0.02349 0.82202 0.313 0.0
H370 H 0.97572 0.89945 0.36809 0.0
C371 C 0.05464 0.82913 0.37575 0.0
H372 H 0.97072 0.84255 0.26329 0.0
C373 C 0.05801 0.86195 0.43239 0.0
C374 C 0.03021 0.88829 0.42756 0.0
H375 H 0.07762 0.81065 0.37354 0.0
H376 H 0.08306 0.86714 0.47686 0.0
C377 C 0.99775 0.87992 0.3719 0.0
C378 C 0.69355 0.0371 0.39272 0.0
C379 C 0.69647 0.00686 0.32343 0.0
H380 H 0.6593 0.06793 0.50006 0.0
C381 C 0.66789 0.98127 0.32098 0.0
H382 H 0.71484 0.05756 0.39385 0.0
C383 C 0.63567 0.98737 0.38043 0.0
C384 C 0.63147 0.01945 0.44157 0.0
H385 H 0.6693 0.95818 0.26568 0.0
H386 H 0.61335 0.9682 0.37306 0.0
C387 C 0.66132 0.0434 0.45106 0.0
C388 C 0.45917 0.69051 0.37904 0.0
C389 C 0.49029 0.69777 0.3158 0.0
H390 H 0.43092 0.65238 0.48057 0.0
C391 C 0.51936 0.67285 0.31655 0.0
H392 H 0.43608 0.70886 0.3771 0.0
C393 C 0.51634 0.64004 0.37445 0.0
C394 C 0.48391 0.63152 0.43054 0.0
H395 H 0.54318 0.67753 0.26538 0.0
H396 H 0.53848 0.62062 0.37033 0.0
C397 C 0.45597 0.6577 0.43576 0.0
C398 C 0.81993 0.48195 0.39301 0.0
C399 C 0.81686 0.51236 0.32455 0.0
H400 H 0.85432 0.45097 0.49891 0.0
C401 C 0.84539 0.53802 0.32203 0.0
H402 H 0.7987 0.46143 0.39413 0.0
C403 C 0.87767 0.53187 0.38064 0.0
C404 C 0.882 0.49967 0.44101 0.0
H405 H 0.84388 0.56123 0.26731 0.0
H406 H 0.89991 0.55113 0.37328 0.0
C407 C 0.85222 0.47561 0.45051 0.0
loop_
_geom_bond_atom_site_label_1
_geom_bond_atom_site_label_2
_geom_bond_distance
_geom_bond_site_symmetry_2
_ccdc_geom_bond_type
H0 C3 0.929 . S
H1 C6 0.929 . S
H2 C8 0.930 . S
C3 H0 0.929 . S
C3 C4 1.398 . S
C3 C5 1.396 1_554 S
C4 C3 1.398 . S
C4 C8 1.407 . S
C5 C3 1.396 1_556 S
C5 C6 1.394 . S
C6 H1 0.929 . S
C6 C5 1.394 . S
C6 C7 1.382 1_556 S
C7 C6 1.382 1_554 S
C7 C8 1.392 . S
C7 N9 1.420 . S
C8 H2 0.930 . S
C8 C4 1.407 . S
C8 C7 1.392 . S
N9 C7 1.420 . S
N9 C10 1.244 1_554 S
C10 N9 1.244 1_556 S
H11 C14 0.929 . S
H12 C17 0.929 . S
H13 C19 0.930 . S
C14 H11 0.929 . S
C14 C15 1.395 1_655 S
C14 C16 1.395 1_654 S
C15 C14 1.395 1_455 S
C15 C19 1.413 . S
C16 C14 1.395 1_456 S
C16 C17 1.396 . S
C17 H12 0.929 . S
C17 C16 1.396 . S
C17 C18 1.382 1_556 S
C18 C17 1.382 1_554 S
C18 C19 1.392 . S
C18 N20 1.420 . S
C19 H13 0.930 . S
C19 C15 1.413 . S
C19 C18 1.392 . S
N20 C18 1.420 . S
N20 C21 1.235 1_454 S
C21 N20 1.235 1_656 S
H22 C25 0.929 . S
H23 C28 0.929 . S
H24 C30 0.930 . S
C25 H22 0.929 . S
C25 C26 1.398 . S
C25 C27 1.396 1_554 S
C26 C25 1.398 . S
C26 C30 1.407 . S
C27 C25 1.396 1_556 S
C27 C28 1.394 . S
C28 H23 0.929 . S
C28 C27 1.394 . S
C28 C29 1.382 1_556 S
C29 C28 1.382 1_554 S
C29 C30 1.392 . S
C29 N31 1.420 . S
C30 H24 0.930 . S
C30 C26 1.407 . S
C30 C29 1.392 . S
N31 C29 1.420 . S
N31 C32 1.244 1_554 S
C32 N31 1.244 1_556 S
H33 C36 0.929 . S
H34 C39 0.929 . S
H35 C41 0.930 . S
C36 H33 0.929 . S
C36 C37 1.398 . S
C36 C38 1.396 1_554 S
C37 C36 1.398 . S
C37 C41 1.407 . S
C38 C36 1.396 1_556 S
C38 C39 1.394 . S
C39 H34 0.929 . S
C39 C38 1.394 . S
C39 C40 1.382 1_556 S
C40 C39 1.382 1_554 S
C40 C41 1.392 . S
C40 N42 1.420 . S
C41 H35 0.930 . S
C41 C37 1.407 . S
C41 C40 1.392 . S
N42 C40 1.420 . S
N42 C43 1.244 1_554 S
C43 N42 1.244 1_556 S
H44 C47 0.929 . S
H45 C50 0.929 . S
H46 C52 0.930 . S
C47 H44 0.929 . S
C47 C48 1.398 . S
C47 C49 1.396 . S
C48 C47 1.398 . S
C48 C52 1.407 . S
C49 C47 1.396 . S
C49 C50 1.394 . S
C50 H45 0.929 . S
C50 C49 1.394 . S
C50 C51 1.382 . S
C51 C50 1.382 . S
C51 C52 1.392 . S
C51 N53 1.420 . S
C52 H46 0.930 . S
C52 C48 1.407 . S
C52 C51 1.392 . S
N53 C51 1.420 . S
N53 C54 1.244 . S
C54 N53 1.244 . S
H55 C58 0.929 1_655 S
H56 C61 0.929 . S
H57 C63 0.930 1_556 S
C58 H55 0.929 1_455 S
C58 C59 1.398 . S
C58 C60 1.396 . S
C59 C58 1.398 . S
C59 C63 1.407 . S
C60 C58 1.396 . S
C60 C61 1.394 . S
C61 H56 0.929 . S
C61 C60 1.394 . S
C61 C62 1.382 . S
C62 C61 1.382 . S
C62 C63 1.392 . S
C62 N64 1.420 . S
C63 H57 0.930 1_554 S
C63 C59 1.407 . S
C63 C62 1.392 . S
N64 C62 1.420 . S
N64 C65 1.244 . S
C65 N64 1.244 . S
H66 C69 0.929 . S
H67 C72 0.929 . S
H68 C74 0.930 . S
C69 H66 0.929 . S
C69 C70 1.398 . S
C69 C71 1.396 . S
C70 C69 1.398 . S
C70 C74 1.407 . S
C71 C69 1.396 . S
C71 C72 1.394 . S
C72 H67 0.929 . S
C72 C71 1.394 . S
C72 C73 1.382 . S
C73 C72 1.382 . S
C73 C74 1.392 . S
C73 N75 1.420 . S
C74 H68 0.930 . S
C74 C70 1.407 . S
C74 C73 1.392 . S
N75 C73 1.420 . S
N75 C76 1.244 . S
C76 N75 1.244 . S
H77 C80 0.929 . S
H78 C83 0.929 . S
H79 C85 0.930 . S
C80 H77 0.929 . S
C80 C81 1.398 . S
C80 C82 1.396 . S
C81 C80 1.398 . S
C81 C85 1.407 . S
C82 C80 1.396 . S
C82 C83 1.394 . S
C83 H78 0.929 . S
C83 C82 1.394 . S
C83 C84 1.382 . S
C84 C83 1.382 . S
C84 C85 1.392 . S
C84 N86 1.420 . S
C85 H79 0.930 . S
C85 C81 1.407 . S
C85 C84 1.392 . S
N86 C84 1.420 . S
N86 C87 1.244 . S
C87 N86 1.244 . S
Zn88 O94 1.969 . S
Zn88 O95 1.965 1_655 S
Zn88 O99 2.024 1_655 S
Zn88 O104 1.969 . S
Zn89 O96 1.969 . S
Zn89 O102 1.969 . S
Zn89 O103 1.965 1_455 S
Zn89 O105 2.024 1_455 S
C90 O91 1.229 1_455 S
C90 O99 1.058 . S
O91 C90 1.229 1_655 S
C92 O93 1.229 1_655 S
C92 O105 1.058 . S
O93 C92 1.229 1_455 S
O94 Zn88 1.969 . S
O94 C97 1.267 . S
O95 Zn88 1.965 1_455 S
O95 C106 1.260 . S
O96 Zn89 1.969 . S
O96 C106 1.258 1_565 S
C97 O94 1.267 . S
C97 O98 1.228 1_655 S
O98 C97 1.228 1_455 S
O99 Zn88 2.024 1_455 S
O99 C90 1.058 . S
C100 O101 1.228 1_455 S
C100 O102 1.267 . S
O101 C100 1.228 1_655 S
O102 Zn89 1.969 . S
O102 C100 1.267 . S
O103 Zn89 1.965 1_655 S
O103 C107 1.260 1_565 S
O104 Zn88 1.969 . S
O104 C107 1.258 . S
O105 Zn89 2.024 1_655 S
O105 C92 1.058 . S
C106 O95 1.260 . S
C106 O96 1.258 1_545 S
C107 O103 1.260 1_545 S
C107 O104 1.258 . S
Zn108 O114 1.969 1_545 S
Zn108 O115 1.965 . S
Zn108 O119 2.024 . S
Zn108 O124 1.969 1_545 S
Zn109 O116 1.969 . S
Zn109 O122 1.969 . S
Zn109 O123 1.965 1_545 S
Zn109 O125 2.024 1_545 S
C110 O111 1.233 . S
C110 O119 1.058 . S
O111 C110 1.233 . S
C112 O113 1.229 1_565 S
C112 O125 1.058 . S
O113 C112 1.229 1_545 S
O114 Zn108 1.969 1_565 S
O114 C117 1.267 1_565 S
O115 Zn108 1.965 . S
O115 C126 1.260 . S
O116 Zn109 1.969 . S
O116 C126 1.258 . S
C117 O114 1.267 1_545 S
C117 O118 1.228 . S
O118 C117 1.228 . S
O119 Zn108 2.024 . S
O119 C110 1.058 . S
C120 O121 1.228 . S
C120 O122 1.267 1_565 S
O121 C120 1.228 . S
O122 Zn109 1.969 . S
O122 C120 1.267 1_545 S
O123 Zn109 1.965 1_565 S
O123 C127 1.260 . S
O124 Zn108 1.969 1_565 S
O124 C127 1.258 . S
O125 Zn109 2.024 1_565 S
O125 C112 1.058 . S
C126 O115 1.260 . S
C126 O116 1.258 . S
C127 O123 1.260 . S
C127 O124 1.258 . S
Zn128 O134 1.969 . S
Zn128 O135 1.965 . S
Zn128 O139 2.024 . S
Zn128 O144 1.969 . S
Zn129 O136 1.969 . S
Zn129 O142 1.969 . S
Zn129 O143 1.965 . S
Zn129 O145 2.024 . S
C130 O131 1.229 . S
C130 O139 1.058 . S
O131 C130 1.229 . S
C132 O133 1.229 . S
C132 O145 1.058 . S
O133 C132 1.229 . S
O134 Zn128 1.969 . S
O134 C137 1.267 . S
O135 Zn128 1.965 . S
O135 C146 1.260 . S
O136 Zn129 1.969 . S
O136 C146 1.258 . S
C137 O134 1.267 . S
C137 O138 1.228 . S
O138 C137 1.228 . S
O139 Zn128 2.024 . S
O139 C130 1.058 . S
C140 O141 1.228 . S
C140 O142 1.267 . S
O141 C140 1.228 . S
O142 Zn129 1.969 . S
O142 C140 1.267 . S
O143 Zn129 1.965 . S
O143 C147 1.260 . S
O144 Zn128 1.969 . S
O144 C147 1.258 . S
O145 Zn129 2.024 . S
O145 C132 1.058 . S
C146 O135 1.260 . S
C146 O136 1.258 . S
C147 O143 1.260 . S
C147 O144 1.258 . S
Zn148 O154 1.969 . S
Zn148 O155 1.965 . S
Zn148 O159 2.024 . S
Zn148 O164 1.969 . S
Zn149 O156 1.969 . S
Zn149 O162 1.969 . S
Zn149 O163 1.965 . S
Zn149 O165 2.024 . S
C150 O151 1.229 . S
C150 O159 1.058 . S
O151 C150 1.229 . S
C152 O153 1.229 . S
C152 O165 1.058 . S
O153 C152 1.229 . S
O154 Zn148 1.969 . S
O154 C157 1.267 . S
O155 Zn148 1.965 . S
O155 C166 1.260 1_455 S
O156 Zn149 1.969 . S
O156 C166 1.258 . S
C157 O154 1.267 . S
C157 O158 1.228 . S
O158 C157 1.228 . S
O159 Zn148 2.024 . S
O159 C150 1.058 . S
C160 O161 1.228 . S
C160 O162 1.267 . S
O161 C160 1.228 . S
O162 Zn149 1.969 . S
O162 C160 1.267 . S
O163 Zn149 1.965 . S
O163 C167 1.260 1_655 S
O164 Zn148 1.969 . S
O164 C167 1.258 . S
O165 Zn149 2.024 . S
O165 C152 1.058 . S
C166 O155 1.260 1_655 S
C166 O156 1.258 . S
C167 O163 1.260 1_455 S
C167 O164 1.258 . S
C168 C169 1.387 . S
C168 H172 0.950 . S
C168 C177 1.390 . S
C169 C168 1.387 . S
C169 C171 1.387 . S
H170 C177 0.950 . S
C171 C169 1.387 . S
C171 C173 1.390 . S
C171 H175 0.950 . S
H172 C168 0.950 . S
C173 C171 1.390 . S
C173 C174 1.387 . S
C173 H176 0.950 1_545 S
C174 C173 1.387 . S
C174 C177 1.387 . S
H175 C171 0.950 . S
H176 C173 0.950 1_565 S
C177 C168 1.390 . S
C177 H170 0.950 . S
C177 C174 1.387 . S
C178 C179 1.387 . S
C178 H182 0.950 . S
C178 C187 1.390 . S
C179 C178 1.387 . S
C179 C181 1.387 . S
H180 C187 0.950 . S
C181 C179 1.387 . S
C181 C183 1.390 . S
C181 H185 0.950 . S
H182 C178 0.950 . S
C183 C181 1.390 . S
C183 C184 1.387 . S
C183 H186 0.950 . S
C184 C183 1.387 . S
C184 C187 1.387 . S
H185 C181 0.950 . S
H186 C183 0.950 . S
C187 C178 1.390 . S
C187 H180 0.950 . S
C187 C184 1.387 . S
C188 C189 1.387 . S
C188 H192 0.950 . S
C188 C197 1.390 . S
C189 C188 1.387 . S
C189 C191 1.387 . S
H190 C197 0.950 . S
C191 C189 1.387 . S
C191 C193 1.390 . S
C191 H195 0.950 . S
H192 C188 0.950 . S
C193 C191 1.390 . S
C193 C194 1.387 . S
C193 H196 0.950 . S
C194 C193 1.387 . S
C194 C197 1.387 . S
H195 C191 0.950 . S
H196 C193 0.950 . S
C197 C188 1.390 . S
C197 H190 0.950 . S
C197 C194 1.387 . S
C198 C199 1.387 . S
C198 H202 0.950 . S
C198 C207 1.390 . S
C199 C198 1.387 . S
C199 C201 1.387 1_455 S
H200 C207 0.950 . S
C201 C199 1.387 1_655 S
C201 C203 1.390 . S
C201 H205 0.950 . S
H202 C198 0.950 . S
C203 C201 1.390 . S
C203 C204 1.387 1_655 S
C203 H206 0.950 . S
C204 C203 1.387 1_455 S
C204 C207 1.387 . S
H205 C201 0.950 . S
H206 C203 0.950 . S
C207 C198 1.390 . S
C207 H200 0.950 . S
C207 C204 1.387 . S
C208 C209 1.387 . S
C208 H212 0.950 . S
C208 C217 1.390 . S
C209 C208 1.387 . S
C209 C211 1.387 . S
H210 C217 0.950 . S
C211 C209 1.387 . S
C211 C213 1.385 1_565 S
C211 H215 0.950 1_556 S
H212 C208 0.950 . S
C213 C211 1.385 1_545 S
C213 C214 1.382 1_545 S
C213 H216 0.961 . S
C214 C213 1.382 1_565 S
C214 C217 1.387 . S
H215 C211 0.950 1_554 S
H216 C213 0.961 . S
C217 C208 1.390 . S
C217 H210 0.950 . S
C217 C214 1.387 . S
C218 C219 1.387 . S
C218 H222 0.950 . S
C218 C227 1.390 . S
C219 C218 1.387 . S
C219 C221 1.387 . S
H220 C227 0.950 . S
C221 C219 1.387 . S
C221 C223 1.390 . S
C221 H225 0.950 . S
H222 C218 0.950 . S
C223 C221 1.390 . S
C223 C224 1.387 . S
C223 H226 0.950 . S
C224 C223 1.387 . S
C224 C227 1.387 . S
H225 C221 0.950 . S
H226 C223 0.950 . S
C227 C218 1.390 . S
C227 H220 0.950 . S
C227 C224 1.387 . S
C228 C229 1.387 . S
C228 H232 0.950 . S
C228 C237 1.390 . S
C229 C228 1.387 . S
C229 C231 1.387 . S
H230 C237 0.950 . S
C231 C229 1.387 . S
C231 C233 1.390 . S
C231 H235 0.950 . S
H232 C228 0.950 . S
C233 C231 1.390 . S
C233 C234 1.387 . S
C233 H236 0.950 . S
C234 C233 1.387 . S
C234 C237 1.387 . S
H235 C231 0.950 . S
H236 C233 0.950 . S
C237 C228 1.390 . S
C237 H230 0.950 . S
C237 C234 1.387 . S
C238 C239 1.361 1_655 S
C238 H242 0.950 . S
C238 C247 1.390 . S
C239 C238 1.361 1_455 S
C239 C241 1.415 . S
H240 C247 0.950 . S
C241 C239 1.415 . S
C241 C243 1.390 . S
C241 H245 0.950 . S
H242 C238 0.950 . S
C243 C241 1.390 . S
C243 C244 1.387 . S
C243 H246 0.950 . S
C244 C243 1.387 . S
C244 C247 1.387 1_455 S
H245 C241 0.950 . S
H246 C243 0.950 . S
C247 C238 1.390 . S
C247 H240 0.950 . S
C247 C244 1.387 1_655 S
C248 C249 1.387 1_655 S
C248 H252 0.950 . S
C248 C257 1.390 . S
C249 C248 1.387 1_455 S
C249 C251 1.387 . S
H250 C257 0.950 . S
C251 C249 1.387 . S
C251 C253 1.390 . S
C251 H255 0.950 . S
H252 C248 0.950 . S
C253 C251 1.390 . S
C253 C254 1.387 1_455 S
C253 H256 0.950 . S
C254 C253 1.387 1_655 S
C254 C257 1.387 . S
H255 C251 0.950 . S
H256 C253 0.950 . S
C257 C248 1.390 . S
C257 H250 0.950 . S
C257 C254 1.387 . S
C258 C259 1.387 . S
C258 H262 0.950 . S
C258 C267 1.397 . S
C259 C258 1.387 . S
C259 C261 1.387 . S
H260 C267 0.938 1_565 S
C261 C259 1.387 . S
C261 C263 1.390 . S
C261 H265 0.950 . S
H262 C258 0.950 . S
C263 C261 1.390 . S
C263 C264 1.387 . S
C263 H266 0.950 . S
C264 C263 1.387 . S
C264 C267 1.392 . S
H265 C261 0.950 . S
H266 C263 0.950 . S
C267 C258 1.397 . S
C267 H260 0.938 1_545 S
C267 C264 1.392 . S
C268 C269 1.387 . S
C268 H272 0.950 . S
C268 C277 1.390 . S
C269 C268 1.387 . S
C269 C271 1.387 . S
H270 C277 0.950 . S
C271 C269 1.387 . S
C271 C273 1.390 . S
C271 H275 0.950 . S
H272 C268 0.950 . S
C273 C271 1.390 . S
C273 C274 1.387 . S
C273 H276 0.950 . S
C274 C273 1.387 . S
C274 C277 1.387 . S
H275 C271 0.950 . S
H276 C273 0.950 . S
C277 C268 1.390 . S
C277 H270 0.950 . S
C277 C274 1.387 . S
C278 C279 1.387 . S
C278 H282 0.950 . S
C278 C287 1.390 . S
C279 C278 1.387 . S
C279 C281 1.387 . S
H280 C287 0.950 . S
C281 C279 1.387 . S
C281 C283 1.390 . S
C281 H285 0.950 . S
H282 C278 0.950 . S
C283 C281 1.390 . S
C283 C284 1.387 . S
C283 H286 0.950 . S
C284 C283 1.387 . S
C284 C287 1.387 . S
H285 C281 0.950 . S
H286 C283 0.950 . S
C287 C278 1.390 . S
C287 H280 0.950 . S
C287 C284 1.387 . S
C288 C289 1.387 1_655 S
C288 H292 0.950 . S
C288 C297 1.390 . S
C289 C288 1.387 1_455 S
C289 C291 1.387 . S
H290 C297 0.950 . S
C291 C289 1.387 . S
C291 C293 1.390 . S
C291 H295 0.950 . S
H292 C288 0.950 . S
C293 C291 1.390 . S
C293 C294 1.387 . S
C293 H296 0.950 . S
C294 C293 1.387 . S
C294 C297 1.387 1_455 S
H295 C291 0.950 . S
H296 C293 0.950 . S
C297 C288 1.390 . S
C297 H290 0.950 . S
C297 C294 1.387 1_655 S
C298 C299 1.387 . S
C298 H302 0.950 1_566 S
C298 C307 1.390 1_565 S
C299 C298 1.387 . S
C299 C301 1.387 . S
H300 C307 0.950 . S
C301 C299 1.387 . S
C301 C303 1.390 . S
C301 H305 0.950 . S
H302 C298 0.950 1_544 S
C303 C301 1.390 . S
C303 C304 1.387 . S
C303 H306 0.950 . S
C304 C303 1.387 . S
C304 C307 1.387 1_565 S
H305 C301 0.950 . S
H306 C303 0.950 . S
C307 C298 1.390 1_545 S
C307 H300 0.950 . S
C307 C304 1.387 1_545 S
C308 C309 1.387 . S
C308 H312 0.950 . S
C308 C317 1.390 . S
C309 C308 1.387 . S
C309 C311 1.387 1_556 S
H310 C317 0.950 . S
C311 C309 1.387 1_554 S
C311 C313 1.390 1_554 S
C311 H315 0.950 . S
H312 C308 0.950 . S
C313 C311 1.390 1_556 S
C313 C314 1.387 . S
C313 H316 0.950 1_556 S
C314 C313 1.387 . S
C314 C317 1.387 . S
H315 C311 0.950 . S
H316 C313 0.950 1_554 S
C317 C308 1.390 . S
C317 H310 0.950 . S
C317 C314 1.387 . S
C318 C319 1.387 . S
C318 H322 0.950 1_556 S
C318 C327 1.390 . S
C319 C318 1.387 . S
C319 C321 1.387 . S
H320 C327 0.950 . S
C321 C319 1.387 . S
C321 C323 1.390 . S
C321 H325 0.950 . S
H322 C318 0.950 1_554 S
C323 C321 1.390 . S
C323 C324 1.387 . S
C323 H326 0.950 . S
C324 C323 1.387 . S
C324 C327 1.387 . S
H325 C321 0.950 . S
H326 C323 0.950 . S
C327 C318 1.390 . S
C327 H320 0.950 . S
C327 C324 1.387 . S
C328 C329 1.387 . S
C328 H332 0.950 . S
C328 C337 1.390 . S
C329 C328 1.387 . S
C329 C331 1.387 1_456 S
H330 C337 0.950 . S
C331 C329 1.387 1_654 S
C331 C333 1.390 1_554 S
C331 H335 0.950 . S
H332 C328 0.950 . S
C333 C331 1.390 1_556 S
C333 C334 1.387 1_655 S
C333 H336 0.950 1_556 S
C334 C333 1.387 1_455 S
C334 C337 1.387 . S
H335 C331 0.950 . S
H336 C333 0.950 1_554 S
C337 C328 1.390 . S
C337 H330 0.950 . S
C337 C334 1.387 . S
C338 C339 1.387 1_554 S
C338 H342 0.950 . S
C338 C347 1.390 1_554 S
C339 C338 1.387 1_556 S
C339 C341 1.387 . S
H340 C347 0.950 . S
C341 C339 1.387 . S
C341 C343 1.390 . S
C341 H345 0.950 . S
H342 C338 0.950 . S
C343 C341 1.390 . S
C343 C344 1.387 . S
C343 H346 0.950 1_545 S
C344 C343 1.387 . S
C344 C347 1.387 . S
H345 C341 0.950 . S
H346 C343 0.950 1_565 S
C347 C338 1.390 1_556 S
C347 H340 0.950 . S
C347 C344 1.387 . S
C348 C349 1.387 . S
C348 H352 0.950 1_556 S
C348 C357 1.390 . S
C349 C348 1.387 . S
C349 C351 1.387 . S
H350 C357 0.950 . S
C351 C349 1.387 . S
C351 C353 1.390 . S
C351 H355 0.950 . S
H352 C348 0.950 1_554 S
C353 C351 1.390 . S
C353 C354 1.387 . S
C353 H356 0.950 . S
C354 C353 1.387 . S
C354 C357 1.387 . S
H355 C351 0.950 . S
H356 C353 0.950 . S
C357 C348 1.390 . S
C357 H350 0.950 . S
C357 C354 1.387 . S
C358 C359 1.387 1_554 S
C358 H362 0.950 . S
C358 C367 1.390 1_554 S
C359 C358 1.387 1_556 S
C359 C361 1.387 . S
H360 C367 0.950 1_554 S
C361 C359 1.387 . S
C361 C363 1.390 . S
C361 H365 0.950 . S
H362 C358 0.950 . S
C363 C361 1.390 . S
C363 C364 1.387 . S
C363 H366 0.950 . S
C364 C363 1.387 . S
C364 C367 1.387 . S
H365 C361 0.950 . S
H366 C363 0.950 . S
C367 C358 1.390 1_556 S
C367 H360 0.950 1_556 S
C367 C364 1.387 . S
C368 C369 1.387 . S
C368 H372 0.950 . S
C368 C377 1.390 . S
C369 C368 1.387 . S
C369 C371 1.387 1_655 S
H370 C377 0.950 . S
C371 C369 1.387 1_455 S
C371 C373 1.390 . S
C371 H375 0.950 . S
H372 C368 0.950 . S
C373 C371 1.390 . S
C373 C374 1.387 1_455 S
C373 H376 0.950 . S
C374 C373 1.387 1_655 S
C374 C377 1.387 . S
H375 C371 0.950 . S
H376 C373 0.950 . S
C377 C368 1.390 . S
C377 H370 0.950 . S
C377 C374 1.387 . S
C378 C379 1.412 . S
C378 H382 0.928 1_565 S
C378 C387 1.388 1_565 S
C379 C378 1.412 . S
C379 C381 1.387 . S
H380 C387 0.950 . S
C381 C379 1.387 . S
C381 C383 1.390 . S
C381 H385 0.950 . S
H382 C378 0.928 1_545 S
C383 C381 1.390 . S
C383 C384 1.387 . S
C383 H386 0.950 . S
C384 C383 1.387 . S
C384 C387 1.387 1_565 S
H385 C381 0.950 . S
H386 C383 0.950 . S
C387 C378 1.388 1_545 S
C387 H380 0.950 . S
C387 C384 1.387 1_545 S
C388 C389 1.387 . S
C388 H392 0.950 . S
C388 C397 1.390 . S
C389 C388 1.387 . S
C389 C391 1.387 . S
H390 C397 0.950 . S
C391 C389 1.387 . S
C391 C393 1.390 . S
C391 H395 0.950 . S
H392 C388 0.950 . S
C393 C391 1.390 . S
C393 C394 1.387 . S
C393 H396 0.950 . S
C394 C393 1.387 . S
C394 C397 1.387 . S
H395 C391 0.950 . S
H396 C393 0.950 . S
C397 C388 1.390 . S
C397 H390 0.950 . S
C397 C394 1.387 . S
C398 C399 1.387 . S
C398 H402 0.950 . S
C398 C407 1.390 . S
C399 C398 1.387 . S
C399 C401 1.387 . S
H400 C407 0.950 . S
C401 C399 1.387 . S
C401 C403 1.390 . S
C401 H405 0.950 . S
H402 C398 0.950 . S
C403 C401 1.390 . S
C403 C404 1.387 . S
C403 H406 0.950 . S
C404 C403 1.387 . S
C404 C407 1.387 . S
H405 C401 0.950 . S
H406 C403 0.950 . S
C407 C398 1.390 . S
C407 H400 0.950 . S
C407 C404 1.387 . S
C169 C76 1.528 . S
C174 C106 1.567 . S
C184 C126 1.495 . S
C179 C87 1.484 . S
C194 C146 1.594 . S
C189 C54 1.558 . S
C204 C166 1.507 1_455 S
C199 C65 1.498 . S
C214 C107 1.591 1_565 S
C209 C32 1.565 . S
C219 C43 1.510 . S
C224 C127 1.519 . S
C229 C10 1.564 . S
C234 C147 1.590 . S
C239 C21 1.480 1_455 S
C244 C167 1.490 . S
C254 C97 0.999 . S
C249 C60 1.029 . S
C264 C117 1.029 . S
C259 C71 1.066 . S
C274 C137 1.010 . S
C269 C82 1.041 . S
C279 C49 1.050 . S
C284 C157 1.015 . S
C289 C16 1.000 . S
C294 C100 0.976 . S
C304 C120 1.026 . S
C299 C27 1.052 . S
C314 C140 0.993 . S
C309 C38 1.021 . S
C319 C5 1.038 . S
C324 C160 1.013 . S
C329 C59 1.525 1_556 S
C334 C90 1.470 . S
C339 C70 1.526 1_556 S
C344 C110 1.468 . S
C354 C130 1.448 . S
C349 C81 1.506 1_556 S
C364 C150 1.503 . S
C359 C48 1.561 1_556 S
C369 C15 1.516 1_655 S
C374 C92 1.451 . S
C384 C112 1.492 . S
C379 C26 1.545 . S
C394 C132 1.458 . S
C389 C37 1.521 . S
C399 C4 1.545 . S
C404 C152 1.491 . S
