# Generated by pormake.
# Topology ssa, (4,4)-cn, num edge types: 1
# Building blocks:
#     Node 0, Type 0, BuildingBlock: IZENUY_clean_linker_0, # of connection points: 4
#     Node 1, Type 0, BuildingBlock: IZENUY_clean_linker_0, # of connection points: 4
#     Node 2, Type 0, BuildingBlock: IZENUY_clean_linker_0, # of connection points: 4
#     Node 3, Type 0, BuildingBlock: IZENUY_clean_linker_0, # of connection points: 4
#     Node 4, Type 0, BuildingBlock: IZENUY_clean_linker_0, # of connection points: 4
#     Node 5, Type 0, BuildingBlock: IZENUY_clean_linker_0, # of connection points: 4
#     Node 6, Type 1, BuildingBlock: MUDLON_clean_sbu_0, # of connection points: 4
#     Node 7, Type 1, BuildingBlock: MUDLON_clean_sbu_0, # of connection points: 4
#     Node 8, Type 1, BuildingBlock: MUDLON_clean_sbu_0, # of connection points: 4
#     Node 9, Type 1, BuildingBlock: MUDLON_clean_sbu_0, # of connection points: 4
#     Node 10, Type 1, BuildingBlock: MUDLON_clean_sbu_0, # of connection points: 4
#     Node 11, Type 1, BuildingBlock: MUDLON_clean_sbu_0, # of connection points: 4
#     Edge 12, Type (0, 1), BuildingBlock: EZIPEK_clean_linker_0, # of connection points: 2
#     Edge 13, Type (0, 1), BuildingBlock: EZIPEK_clean_linker_0, # of connection points: 2
#     Edge 14, Type (0, 1), BuildingBlock: EZIPEK_clean_linker_0, # of connection points: 2
#     Edge 15, Type (0, 1), BuildingBlock: EZIPEK_clean_linker_0, # of connection points: 2
#     Edge 16, Type (0, 1), BuildingBlock: EZIPEK_clean_linker_0, # of connection points: 2
#     Edge 17, Type (0, 1), BuildingBlock: EZIPEK_clean_linker_0, # of connection points: 2
#     Edge 18, Type (0, 1), BuildingBlock: EZIPEK_clean_linker_0, # of connection points: 2
#     Edge 19, Type (0, 1), BuildingBlock: EZIPEK_clean_linker_0, # of connection points: 2
#     Edge 20, Type (0, 1), BuildingBlock: EZIPEK_clean_linker_0, # of connection points: 2
#     Edge 21, Type (0, 1), BuildingBlock: EZIPEK_clean_linker_0, # of connection points: 2
#     Edge 22, Type (0, 1), BuildingBlock: EZIPEK_clean_linker_0, # of connection points: 2
#     Edge 23, Type (0, 1), BuildingBlock: EZIPEK_clean_linker_0, # of connection points: 2
#     Edge 24, Type (0, 1), BuildingBlock: EZIPEK_clean_linker_0, # of connection points: 2
#     Edge 25, Type (0, 1), BuildingBlock: EZIPEK_clean_linker_0, # of connection points: 2
#     Edge 26, Type (0, 1), BuildingBlock: EZIPEK_clean_linker_0, # of connection points: 2
#     Edge 27, Type (0, 1), BuildingBlock: EZIPEK_clean_linker_0, # of connection points: 2
#     Edge 28, Type (0, 1), BuildingBlock: EZIPEK_clean_linker_0, # of connection points: 2
#     Edge 29, Type (0, 1), BuildingBlock: EZIPEK_clean_linker_0, # of connection points: 2
#     Edge 30, Type (0, 1), BuildingBlock: EZIPEK_clean_linker_0, # of connection points: 2
#     Edge 31, Type (0, 1), BuildingBlock: EZIPEK_clean_linker_0, # of connection points: 2
#     Edge 32, Type (0, 1), BuildingBlock: EZIPEK_clean_linker_0, # of connection points: 2
#     Edge 33, Type (0, 1), BuildingBlock: EZIPEK_clean_linker_0, # of connection points: 2
#     Edge 34, Type (0, 1), BuildingBlock: EZIPEK_clean_linker_0, # of connection points: 2
#     Edge 35, Type (0, 1), BuildingBlock: EZIPEK_clean_linker_0, # of connection points: 2
# Relax obj value: 0.000
# Max RMSD: 0.033
# Mean RMSD: 0.019
data_MOF--net-ssa--node1-MUDLON_clean_sbu_0--node2-IZENUY_clean_linker_0--edge1-EZIPEK_clean_linker_0
_symmetry_space_group_name_H-M    P1
_symmetry_Int_Tables_number       1
_symmetry_cell_setting            triclinic
loop_
_symmetry_equiv_pos_as_xyz
'x, y, z'
_cell_length_a     35.650902
_cell_length_b     35.280342
_cell_length_c     31.980101
_cell_angle_alpha  90.356491
_cell_angle_beta   91.165401
_cell_angle_gamma 120.20843
loop_
_atom_site_label
_atom_site_type_symbol
_atom_site_fract_x
_atom_site_fract_y
_atom_site_fract_z
_atom_type_partial_charge
H0 H 0.97105 0.45856 1.00671 0.0
H1 H 0.9874 0.58806 1.01891 0.0
H2 H 0.90139 0.49813 0.92355 0.0
H3 H 0.0595 0.58419 0.1143 0.0
H4 H 0.04871 0.45716 0.10013 0.0
H5 H 0.13042 0.5468 0.19792 0.0
N6 N 0.01145 0.53498 0.05273 0.0
N7 N 0.02138 0.50838 0.06751 0.0
C8 C 0.96344 0.48325 0.99662 0.0
C9 C 0.93415 0.47375 0.96261 0.0
C10 C 0.98256 0.5245 1.01748 0.0
C11 C 0.97265 0.55622 1.00334 0.0
C12 C 0.94331 0.5467 0.96951 0.0
C13 C 0.9241 0.50547 0.94965 0.0
C14 C 0.06781 0.55999 0.12431 0.0
C15 C 0.09683 0.5699 0.15854 0.0
C16 C 0.05015 0.51913 0.10293 0.0
C17 C 0.06162 0.48836 0.11661 0.0
C18 C 0.09039 0.49819 0.15106 0.0
C19 C 0.10776 0.53892 0.17167 0.0
H20 H 0.5652 0.05375 0.62127 0.0
H21 H 0.43506 0.03181 0.60623 0.0
H22 H 0.52283 0.1237 0.69949 0.0
H23 H 0.44106 0.95556 0.51599 0.0
H24 H 0.57336 0.98235 0.52632 0.0
H25 H 0.48652 0.89458 0.43012 0.0
N26 N 0.4898 0.00963 0.57484 0.0
N27 N 0.51755 1.00165 0.56059 0.0
C28 C 0.53999 0.06051 0.6303 0.0
C29 C 0.5486 0.09098 0.66302 0.0
C30 C 0.49909 0.03933 0.60917 0.0
C31 C 0.46667 0.04819 0.62193 0.0
C32 C 0.47519 0.07854 0.65458 0.0
C33 C 0.5162 0.10004 0.67448 0.0
C34 C 0.46697 0.95058 0.50546 0.0
C35 C 0.45925 0.92248 0.47093 0.0
C36 C 0.50829 0.97239 0.52586 0.0
C37 C 0.54151 0.96562 0.51111 0.0
C38 C 0.53362 0.93746 0.47657 0.0
C39 C 0.49256 0.91615 0.45691 0.0
H40 H 0.46646 0.4355 1.03159 0.0
H41 H 0.59515 0.54135 1.00508 0.0
H42 H 0.53416 0.42601 0.92593 0.0
H43 H 0.56347 0.5876 0.10468 0.0
H44 H 0.43547 0.48193 0.13292 0.0
H45 H 0.49061 0.6044 0.20124 0.0
N46 N 0.53086 0.5177 0.05702 0.0
N47 N 0.49979 0.50461 0.08114 0.0
C48 C 0.4951 0.44964 1.0127 0.0
C49 C 0.4965 0.42585 0.97781 0.0
C50 C 0.53093 0.49168 1.02276 0.0
C51 C 0.56767 0.50914 0.99764 0.0
C52 C 0.56881 0.48559 0.96257 0.0
C53 C 0.53323 0.44421 0.95301 0.0
C54 C 0.53436 0.57431 0.12286 0.0
C55 C 0.53113 0.60059 0.15426 0.0
C56 C 0.49941 0.53135 0.11458 0.0
C57 C 0.46228 0.51488 0.13903 0.0
C58 C 0.45897 0.5411 0.17041 0.0
C59 C 0.49331 0.5839 0.17743 0.0
H60 H 0.05475 0.50194 0.5088 0.0
H61 H 0.03694 0.61406 0.51802 0.0
H62 H 0.12397 0.61161 0.42835 0.0
H63 H 0.96495 0.5375 0.60987 0.0
H64 H 0.97318 0.42003 0.59561 0.0
H65 H 0.89226 0.42798 0.68918 0.0
N66 N 0.01307 0.53679 0.55125 0.0
N67 N 1.00256 0.49986 0.56529 0.0
C68 C 0.06208 0.53416 0.49869 0.0
C69 C 0.09152 0.55436 0.46632 0.0
C70 C 0.04238 0.55574 0.51782 0.0
C71 C 0.05207 0.59735 0.50372 0.0
C72 C 0.08158 0.61758 0.47151 0.0
C73 C 0.1012 0.596 0.45325 0.0
C74 C 0.95615 0.50469 0.61935 0.0
C75 C 0.92691 0.48529 0.6519 0.0
C76 C 0.97337 0.48138 0.59891 0.0
C77 C 0.96087 0.43853 0.61162 0.0
C78 C 0.93172 0.41925 0.64434 0.0
C79 C 0.91523 0.44299 0.66433 0.0
H80 H 0.49348 0.06244 0.99711 0.0
H81 H 0.60473 0.04504 1.01108 0.0
H82 H 0.6036 0.13291 0.91929 0.0
H83 H 0.52344 0.96397 0.09642 0.0
H84 H 0.41524 0.98694 0.08907 0.0
H85 H 0.41763 0.89903 0.18012 0.0
N86 N 0.52678 0.01879 1.04073 0.0
N87 N 0.49064 0.0091 0.05486 0.0
C88 C 0.52527 0.06939 0.98758 0.0
C89 C 0.54618 0.09974 0.95563 0.0
C90 C 0.54611 0.0489 1.00751 0.0
C91 C 0.58793 0.05946 0.99514 0.0
C92 C 0.60863 0.08964 0.96321 0.0
C93 C 0.58727 0.10898 0.94342 0.0
C94 C 0.49235 0.95799 0.10718 0.0
C95 C 0.47266 0.92896 0.14031 0.0
C96 C 0.47169 0.9792 0.08832 0.0
C97 C 0.43132 0.97087 0.10318 0.0
C98 C 0.41184 0.94196 0.13633 0.0
C99 C 0.43269 0.92132 0.1545 0.0
H100 H 0.43482 0.46878 0.51651 0.0
H101 H 0.54594 0.5923 0.48338 0.0
H102 H 0.42537 0.54218 0.41405 0.0
H103 H 0.5883 0.55839 0.58583 0.0
H104 H 0.48427 0.42686 0.60933 0.0
H105 H 0.60177 0.48387 0.68474 0.0
N106 N 0.52021 0.52705 0.53644 0.0
N107 N 0.50669 0.49484 0.55996 0.0
C108 C 0.45011 0.49689 0.49639 0.0
C109 C 0.42539 0.50146 0.46401 0.0
C110 C 0.49411 0.52958 0.50334 0.0
C111 C 0.51253 0.56666 0.47773 0.0
C112 C 0.4878 0.57114 0.44537 0.0
C113 C 0.44466 0.53826 0.4385 0.0
C114 C 0.57488 0.52838 0.60337 0.0
C115 C 0.59961 0.52505 0.63647 0.0
C116 C 0.53292 0.4928 0.59324 0.0
C117 C 0.51639 0.45425 0.61677 0.0
C118 C 0.54127 0.45095 0.64978 0.0
C119 C 0.58257 0.48642 0.65929 0.0
Mg120 Mg 0.23026 0.45733 0.32186 0.0
C121 C 0.17164 0.41909 0.24249 0.0
O122 O 0.2013 0.41084 0.22882 0.0
C123 C 0.25189 0.41964 0.39813 0.0
O124 O 0.21897 0.4194 0.41603 0.0
C125 C 0.17566 0.47416 0.3787 0.0
O126 O 0.15071 0.43272 0.36775 0.0
O127 O 0.21406 0.49535 0.36485 0.0
O128 O 0.17247 0.42909 0.28083 0.0
O129 O 0.28643 0.49471 0.28217 0.0
C130 C 0.30223 0.4726 0.26636 0.0
O131 O 0.28409 0.43059 0.2741 0.0
O132 O 0.25403 0.4214 0.35853 0.0
Mg133 Mg 0.79025 0.23707 0.80912 0.0
C134 C 0.71493 0.18046 0.75274 0.0
O135 O 0.73264 0.15616 0.75959 0.0
C136 C 0.84921 0.30955 0.8677 0.0
O137 O 0.87342 0.29332 0.85588 0.0
C138 C 0.77262 0.17758 0.88418 0.0
O139 O 0.8084 0.21004 0.90102 0.0
O140 O 0.76584 0.1771 0.84499 0.0
O141 O 0.73242 0.2188 0.76937 0.0
O142 O 0.84612 0.26543 0.76849 0.0
C143 C 0.84438 0.25667 0.72968 0.0
O144 O 0.81228 0.21949 0.7146 0.0
O145 O 0.81018 0.2921 0.85353 0.0
Mg146 Mg 0.58433 0.80645 0.29736 0.0
C147 C 0.52226 0.82395 0.23927 0.0
O148 O 0.49173 0.78332 0.24574 0.0
C149 C 0.55805 0.72662 0.34451 0.0
O150 O 0.60007 0.74404 0.34033 0.0
C151 C 0.58627 0.85424 0.37011 0.0
O152 O 0.54548 0.82618 0.36019 0.0
O153 O 0.61584 0.85433 0.34833 0.0
O154 O 0.55974 0.83888 0.25619 0.0
O155 O 0.61911 0.78452 0.25781 0.0
C156 C 0.59217 0.75768 0.23054 0.0
O157 O 0.55281 0.75196 0.2289 0.0
O158 O 0.53903 0.74569 0.32839 0.0
Mg159 Mg 0.79334 0.58335 0.80234 0.0
C160 C 0.74766 0.58665 0.72812 0.0
O161 O 0.74181 0.54686 0.72959 0.0
C162 C 0.85087 0.5936 0.86887 0.0
O163 O 0.82115 0.55197 0.86434 0.0
C164 C 0.70166 0.541 0.83856 0.0
O165 O 0.69069 0.54772 0.80112 0.0
O166 O 0.74039 0.54969 0.84613 0.0
O167 O 0.77212 0.61456 0.75605 0.0
O168 O 0.81299 0.54302 0.76737 0.0
C169 C 0.84218 0.56378 0.74071 0.0
O170 O 0.85665 0.60576 0.73558 0.0
O171 O 0.84903 0.62117 0.84463 0.0
Mg172 Mg 0.22714 0.80863 0.30959 0.0
C173 C 0.17883 0.73486 0.25113 0.0
O174 O 0.15993 0.75843 0.24703 0.0
C175 C 0.30576 0.82171 0.36602 0.0
O176 O 0.29432 0.78099 0.35636 0.0
C177 C 0.17166 0.75909 0.37423 0.0
O178 O 0.20163 0.74825 0.36986 0.0
O179 O 0.17252 0.7886 0.35083 0.0
O180 O 0.21102 0.74778 0.27665 0.0
O181 O 0.24501 0.857 0.26064 0.0
C182 C 0.27489 0.85652 0.23984 0.0
O183 O 0.28694 0.82802 0.24949 0.0
O184 O 0.2843 0.83854 0.35112 0.0
Mg185 Mg 0.42925 0.226 0.81385 0.0
C186 C 0.42125 0.17105 0.74657 0.0
O187 O 0.46215 0.20119 0.75269 0.0
C188 C 0.43215 0.27824 0.8827 0.0
O189 O 0.47196 0.28861 0.87392 0.0
C190 C 0.49989 0.21238 0.8648 0.0
O191 O 0.52918 0.25403 0.86132 0.0
O192 O 0.46209 0.19734 0.8487 0.0
O193 O 0.39276 0.17234 0.76902 0.0
O194 O 0.46134 0.28417 0.77485 0.0
C195 C 0.49838 0.30427 0.75838 0.0
O196 O 0.52663 0.2913 0.76497 0.0
O197 O 0.40074 0.24754 0.86153 0.0
C198 C 0.08188 0.434 0.19303 0.0
C199 C 0.10612 0.46829 0.16488 0.0
C200 C 0.17231 0.46833 0.18564 0.0
C201 C 0.1482 0.43264 0.21264 0.0
N202 N 0.07879 0.37595 0.23608 0.0
N203 N 0.17063 0.50819 0.12502 0.0
C204 C 0.10243 0.41351 0.21425 0.0
C205 C 0.14994 0.48149 0.15766 0.0
N206 N 0.04006 0.42263 0.20105 0.0
N207 N 0.21651 0.49292 0.18972 0.0
H208 H 0.15486 0.51864 0.10422 0.0
H209 H 0.20166 0.51596 0.11623 0.0
H210 H 0.23414 0.48829 0.21343 0.0
H211 H 0.2351 0.52156 0.17322 0.0
H212 H 0.02228 0.40164 0.22486 0.0
H213 H 0.02387 0.43615 0.18512 0.0
H214 H 0.04499 0.35824 0.23553 0.0
H215 H 0.09314 0.36049 0.25194 0.0
C216 C 0.62946 0.14389 0.66443 0.0
C217 C 0.59156 0.11405 0.68577 0.0
C218 C 0.63382 0.13453 0.75212 0.0
C219 C 0.67236 0.16048 0.72992 0.0
N220 N 0.70787 0.18215 0.66377 0.0
N221 N 0.55905 0.07504 0.74888 0.0
C222 C 0.6705 0.163 0.68572 0.0
C223 C 0.59408 0.10781 0.72944 0.0
N224 N 0.62622 0.15531 0.62432 0.0
N225 N 0.63517 0.13549 0.7949 0.0
H226 H 0.52987 0.0538 0.7331 0.0
H227 H 0.56015 0.06613 0.77967 0.0
H228 H 0.66386 0.15396 0.81251 0.0
H229 H 0.6075 0.12099 0.8129 0.0
H230 H 0.65228 0.18036 0.6089 0.0
H231 H 0.59671 0.14281 0.60783 0.0
H232 H 0.70834 0.18093 0.63123 0.0
H233 H 0.73841 0.19547 0.67818 0.0
C234 C 0.56733 0.68125 0.1416 0.0
C235 C 0.56638 0.64627 0.16408 0.0
C236 C 0.60875 0.69694 0.22193 0.0
C237 C 0.6009 0.72874 0.20345 0.0
N238 N 0.58907 0.75877 0.14112 0.0
N239 N 0.59212 0.62093 0.22127 0.0
C240 C 0.58611 0.72339 0.16129 0.0
C241 C 0.59015 0.6546 0.20249 0.0
N242 N 0.54717 0.67309 0.1031 0.0
N243 N 0.63301 0.70713 0.25819 0.0
H244 H 0.58012 0.59038 0.20647 0.0
H245 H 0.60488 0.62265 0.2512 0.0
H246 H 0.64852 0.7386 0.27142 0.0
H247 H 0.64101 0.68606 0.27331 0.0
H248 H 0.54262 0.69576 0.08647 0.0
H249 H 0.53416 0.64273 0.08776 0.0
H250 H 0.58084 0.75867 0.10972 0.0
H251 H 0.60317 0.78965 0.15577 0.0
C252 C 0.86531 0.49988 0.65868 0.0
C253 C 0.90677 0.5081 0.67294 0.0
C254 C 0.90592 0.55307 0.73137 0.0
C255 C 0.86334 0.54271 0.71856 0.0
N256 N 0.80029 0.50309 0.6731 0.0
N257 N 0.96502 0.53809 0.7247 0.0
C258 C 0.84236 0.51513 0.68307 0.0
C259 C 0.92676 0.53366 0.70973 0.0
N260 N 0.84835 0.47813 0.62135 0.0
N261 N 0.92653 0.58181 0.76412 0.0
H262 H 0.98205 0.52581 0.7088 0.0
H263 H 0.97885 0.55165 0.7539 0.0
H264 H 0.91127 0.59435 0.78241 0.0
H265 H 0.95927 0.59504 0.77204 0.0
H266 H 0.82041 0.4747 0.60682 0.0
H267 H 0.86399 0.46596 0.60306 0.0
H268 H 0.78132 0.47946 0.65046 0.0
H269 H 0.78307 0.51474 0.6895 0.0
C270 C 0.33112 0.89378 0.13909 0.0
C271 C 0.36943 0.93195 0.15359 0.0
C272 C 0.33549 0.93004 0.21999 0.0
C273 C 0.29944 0.88898 0.20746 0.0
N274 N 0.25624 0.8383 0.15248 0.0
N275 N 0.40375 0.99388 0.20089 0.0
C276 C 0.29491 0.8734 0.16574 0.0
C277 C 0.36977 0.95288 0.19164 0.0
N278 N 0.33075 0.87567 0.1011 0.0
N279 N 0.33831 0.94528 0.25998 0.0
H280 H 0.4291 0.01065 0.18033 0.0
H281 H 0.40512 0.0126 0.22678 0.0
H282 H 0.31294 0.92984 0.28073 0.0
H283 H 0.36594 0.97215 0.27306 0.0
H284 H 0.3059 0.84528 0.09022 0.0
H285 H 0.3564 0.89106 0.08061 0.0
H286 H 0.24932 0.82623 0.12183 0.0
H287 H 0.22965 0.82342 0.172 0.0
C288 C 0.52811 0.37447 0.66067 0.0
C289 C 0.52505 0.41081 0.67549 0.0
C290 C 0.50756 0.3787 0.74534 0.0
C291 C 0.50823 0.34119 0.72992 0.0
N292 N 0.50965 0.29902 0.67087 0.0
N293 N 0.50408 0.44405 0.72923 0.0
C294 C 0.51585 0.33782 0.68698 0.0
C295 C 0.51225 0.41174 0.71704 0.0
N296 N 0.54422 0.37561 0.62198 0.0
N297 N 0.5044 0.38371 0.78735 0.0
H298 H 0.50725 0.4687 0.70924 0.0
H299 H 0.49047 0.44425 0.75766 0.0
H300 H 0.50161 0.36063 0.80917 0.0
H301 H 0.50835 0.41235 0.80112 0.0
H302 H 0.55221 0.35263 0.61144 0.0
H303 H 0.55252 0.4013 0.60139 0.0
H304 H 0.51003 0.29306 0.63899 0.0
H305 H 0.50017 0.27126 0.6889 0.0
C306 C 0.58645 0.95005 0.42116 0.0
C307 C 0.56733 0.92936 0.45899 0.0
C308 C 0.58641 0.87291 0.4449 0.0
C309 C 0.59528 0.88745 0.40326 0.0
N310 N 0.60932 0.9423 0.35206 0.0
N311 N 0.55363 0.87469 0.51028 0.0
C312 C 0.59834 0.92764 0.39186 0.0
C313 C 0.56987 0.89251 0.47246 0.0
N314 N 0.59148 0.99027 0.413 0.0
N315 N 0.59277 0.83953 0.45718 0.0
H316 H 0.54278 0.88953 0.53138 0.0
H317 H 0.54985 0.845 0.52033 0.0
H318 H 0.60536 0.82558 0.43697 0.0
H319 H 0.58929 0.82838 0.48769 0.0
H320 H 0.60751 0.0088 0.38724 0.0
H321 H 0.58254 1.00666 0.43434 0.0
H322 H 0.60723 0.96844 0.3398 0.0
H323 H 0.61956 0.92712 0.3307 0.0
C324 C 0.63188 0.48285 0.93224 0.0
C325 C 0.60675 0.50372 0.93469 0.0
C326 C 0.6503 0.55431 0.88016 0.0
C327 C 0.67059 0.52906 0.87311 0.0
N328 N 0.67681 0.46567 0.88934 0.0
N329 N 0.58766 0.5553 0.90645 0.0
C330 C 0.66066 0.49251 0.89856 0.0
C331 C 0.61485 0.53852 0.90754 0.0
N332 N 0.62857 0.45417 0.96245 0.0
N333 N 0.66597 0.59431 0.86205 0.0
H334 H 0.56115 0.54465 0.9258 0.0
H335 H 0.58921 0.57713 0.88381 0.0
H336 H 0.69326 0.60817 0.84346 0.0
H337 H 0.65497 0.61584 0.86927 0.0
H338 H 0.64903 0.44113 0.96466 0.0
H339 H 0.60809 0.44671 0.98773 0.0
H340 H 0.66689 0.43594 0.90401 0.0
H341 H 0.69724 0.47101 0.86445 0.0
C342 C 0.07433 0.66436 0.41699 0.0
C343 C 0.09309 0.66156 0.45557 0.0
C344 C 0.15399 0.73614 0.44768 0.0
C345 C 0.13869 0.73596 0.40639 0.0
N346 N 0.07806 0.70933 0.358 0.0
N347 N 0.1427 0.69801 0.51356 0.0
C348 C 0.09635 0.70332 0.39336 0.0
C349 C 0.13 0.699 0.47318 0.0
N350 N 0.0371 0.62862 0.40193 0.0
N351 N 0.19284 0.77094 0.46106 0.0
H352 H 0.12546 0.67084 0.53238 0.0
H353 H 0.16816 0.72466 0.52941 0.0
H354 H 0.20948 0.79904 0.44317 0.0
H355 H 0.2088 0.77211 0.48904 0.0
H356 H 0.02424 0.62622 0.37188 0.0
H357 H 0.01965 0.6005 0.41957 0.0
H358 H 0.04622 0.68809 0.34779 0.0
H359 H 0.09394 0.73795 0.34077 0.0
C360 C 0.51152 0.11376 0.89323 0.0
C361 C 0.5273 0.12452 0.93523 0.0
C362 C 0.52 0.19013 0.93251 0.0
C363 C 0.50968 0.18236 0.88902 0.0
N364 N 0.50028 0.13941 0.82651 0.0
N365 N 0.55134 0.17538 0.99387 0.0
C366 C 0.50632 0.14464 0.86901 0.0
C367 C 0.53258 0.16325 0.95473 0.0
N368 N 0.50136 0.0738 0.87667 0.0
N369 N 0.51627 0.22218 0.95297 0.0
H370 H 0.55991 0.15608 1.01166 0.0
H371 H 0.56106 0.2059 1.00761 0.0
H372 H 0.50683 0.24234 0.93795 0.0
H373 H 0.51871 0.22623 0.98539 0.0
H374 H 0.48586 0.06204 0.84762 0.0
H375 H 0.50488 0.0506 0.89374 0.0
H376 H 0.5021 0.11517 0.80948 0.0
H377 H 0.49714 0.16166 0.80758 0.0
C378 C 0.35059 0.48779 0.47015 0.0
C379 C 0.37778 0.47137 0.45847 0.0
C380 C 0.31709 0.41259 0.41756 0.0
C381 C 0.2932 0.43457 0.42253 0.0
N382 N 0.29388 0.50057 0.44562 0.0
N383 N 0.38806 0.41846 0.42036 0.0
C384 C 0.31121 0.47376 0.44739 0.0
C385 C 0.36117 0.43336 0.43242 0.0
N386 N 0.36364 0.5186 0.50154 0.0
N387 N 0.29768 0.37207 0.39865 0.0
H388 H 0.4199 0.43216 0.43199 0.0
H389 H 0.37953 0.39413 0.39749 0.0
H390 H 0.26548 0.35618 0.38765 0.0
H391 H 0.31213 0.35278 0.39718 0.0
H392 H 0.34345 0.52922 0.51357 0.0
H393 H 0.39289 0.52987 0.51831 0.0
H394 H 0.30824 0.53124 0.46051 0.0
H395 H 0.26896 0.49541 0.42473 0.0
C396 C 0.882 0.39203 0.95849 0.0
C397 C 0.91385 0.43089 0.9394 0.0
C398 C 0.89891 0.39094 0.87231 0.0
C399 C 0.86987 0.35137 0.89231 0.0
N400 N 0.84186 0.31267 0.95641 0.0
N401 N 0.95885 0.46562 0.8803 0.0
C402 C 0.86363 0.35142 0.93599 0.0
C403 C 0.9241 0.42984 0.89686 0.0
N404 N 0.86811 0.394 0.99754 0.0
N405 N 0.90177 0.39156 0.8297 0.0
H406 H 0.9786 0.49437 0.89758 0.0
H407 H 0.97061 0.46543 0.85081 0.0
H408 H 0.88404 0.36367 0.81067 0.0
H409 H 0.9188 0.42029 0.81293 0.0
H410 H 0.84163 0.36749 1.01103 0.0
H411 H 0.88056 0.42308 1.01504 0.0
H412 H 0.83993 0.3106 0.98885 0.0
H413 H 0.8297 0.28245 0.94118 0.0
C414 C 0.89453 0.57846 0.96958 0.0
C415 C 0.93148 0.5789 0.95349 0.0
C416 C 0.92691 0.61639 0.89094 0.0
C417 C 0.88464 0.6056 0.90229 0.0
N418 N 0.83211 0.58765 0.9553 0.0
N419 N 0.98735 0.60373 0.90261 0.0
C420 C 0.87026 0.59118 0.94319 0.0
C421 C 0.94976 0.60076 0.91575 0.0
N422 N 0.88191 0.56386 1.00915 0.0
N423 N 0.94435 0.64051 0.8561 0.0
H424 H 0.00529 0.59399 0.92123 0.0
H425 H 1.00016 0.61462 0.87326 0.0
H426 H 0.92796 0.65264 0.83837 0.0
H427 H 0.976 0.6517 0.84688 0.0
H428 H 0.85568 0.56303 1.02365 0.0
H429 H 0.89953 0.5545 1.02865 0.0
H430 H 0.81726 0.57465 0.98343 0.0
H431 H 0.81531 0.59858 0.93644 0.0
C432 C 0.41366 0.91604 0.4079 0.0
C433 C 0.41689 0.89995 0.44752 0.0
C434 C 0.34448 0.83535 0.43596 0.0
C435 C 0.34388 0.84865 0.39423 0.0
N436 N 0.38035 0.89888 0.33839 0.0
N437 N 0.38768 0.84259 0.49831 0.0
C438 C 0.37898 0.88849 0.37969 0.0
C439 C 0.38279 0.85922 0.46145 0.0
N440 N 0.44379 0.95786 0.3974 0.0
N441 N 0.30797 0.80086 0.45172 0.0
H442 H 0.41464 0.85975 0.51842 0.0
H443 H 0.36639 0.81073 0.50771 0.0
H444 H 0.27919 0.78281 0.43417 0.0
H445 H 0.30489 0.79256 0.48315 0.0
H446 H 0.44098 0.97317 0.37077 0.0
H447 H 0.46966 0.97878 0.41739 0.0
H448 H 0.40721 0.92502 0.32499 0.0
H449 H 0.3562 0.8791 0.3164 0.0
C450 C 0.43502 0.37727 0.92945 0.0
C451 C 0.46058 0.38126 0.96549 0.0
C452 C 0.44223 0.30486 0.95605 0.0
C453 C 0.42653 0.30505 0.9151 0.0
N454 N 0.40261 0.33834 0.86371 0.0
N455 N 0.48419 0.34797 1.01705 0.0
C456 C 0.41993 0.33977 0.90257 0.0
C457 C 0.46169 0.34421 0.98071 0.0
N458 N 0.42703 0.41037 0.92047 0.0
N459 N 0.43974 0.26726 0.97024 0.0
H460 H 0.49737 0.37609 1.03614 0.0
H461 H 0.49073 0.32407 1.02782 0.0
H462 H 0.42552 0.23843 0.95204 0.0
H463 H 0.44826 0.26348 1.00059 0.0
H464 H 0.4065 0.40891 0.89612 0.0
H465 H 0.43838 0.43799 0.94005 0.0
H466 H 0.40167 0.36468 0.85037 0.0
H467 H 0.39007 0.31062 0.84417 0.0
C468 C 0.10077 0.51848 0.40238 0.0
C469 C 0.11221 0.5322 0.44486 0.0
C470 C 0.16447 0.50627 0.44474 0.0
C471 C 0.15613 0.49665 0.40125 0.0
N472 N 0.12135 0.49981 0.33695 0.0
N473 N 0.1602 0.54631 0.50459 0.0
C474 C 0.12571 0.5046 0.37956 0.0
C475 C 0.14555 0.5281 0.46557 0.0
N476 N 0.06518 0.51743 0.38423 0.0
N477 N 0.18899 0.49296 0.46656 0.0
H478 H 0.14711 0.56242 0.52096 0.0
H479 H 0.18764 0.54864 0.51929 0.0
H480 H 0.20265 0.47629 0.45242 0.0
H481 H 0.19244 0.49485 0.49905 0.0
H482 H 0.05254 0.50359 0.35478 0.0
H483 H 0.04575 0.52675 0.40014 0.0
H484 H 0.10319 0.50959 0.31887 0.0
H485 H 0.13901 0.48963 0.31914 0.0
C486 C 0.6849 0.15033 0.96387 0.0
C487 C 0.65476 0.10631 0.95269 0.0
C488 C 0.70795 0.10583 0.90536 0.0
C489 C 0.73412 0.15209 0.91063 0.0
N490 N 0.73927 0.2192 0.93694 0.0
N491 N 0.63621 0.04154 0.91162 0.0
C492 C 0.72096 0.17468 0.93834 0.0
C493 C 0.66609 0.08355 0.92349 0.0
N494 N 0.67773 0.16947 0.99765 0.0
N495 N 0.72308 0.08336 0.88311 0.0
H496 H 0.60595 0.02414 0.92532 0.0
H497 H 0.64055 0.02488 0.88691 0.0
H498 H 0.75355 0.09889 0.86964 0.0
H499 H 0.70716 0.04925 0.88112 0.0
H500 H 0.70054 0.20066 1.00905 0.0
H501 H 0.65104 0.15225 1.01666 0.0
H502 H 0.72816 0.23655 0.95425 0.0
H503 H 0.76102 0.23806 0.91422 0.0
C504 C 0.51857 0.61002 0.37809 0.0
C505 C 0.50557 0.61127 0.41952 0.0
C506 C 0.52281 0.68747 0.41036 0.0
C507 C 0.53447 0.68567 0.36854 0.0
N508 N 0.53538 0.64339 0.30967 0.0
N509 N 0.48736 0.64768 0.47267 0.0
C510 C 0.52993 0.6463 0.35155 0.0
C511 C 0.50537 0.64902 0.43496 0.0
N512 N 0.52109 0.57454 0.36456 0.0
N513 N 0.52994 0.72639 0.42706 0.0
H514 H 0.47508 0.62051 0.49199 0.0
H515 H 0.48164 0.67215 0.48354 0.0
H516 H 0.54086 0.75466 0.40951 0.0
H517 H 0.52745 0.73143 0.45875 0.0
H518 H 0.53454 0.57335 0.33635 0.0
H519 H 0.51268 0.54728 0.38306 0.0
H520 H 0.52871 0.61451 0.29424 0.0
H521 H 0.54279 0.66918 0.28944 0.0
C522 C 0.42244 0.07169 0.70813 0.0
C523 C 0.44206 0.08894 0.66944 0.0
C524 C 0.42144 0.14529 0.67479 0.0
C525 C 0.41174 0.13454 0.71723 0.0
N526 N 0.39797 0.08524 0.77398 0.0
N527 N 0.45626 0.13858 0.61285 0.0
C528 C 0.4093 0.09608 0.7334 0.0
C529 C 0.43919 0.12395 0.65124 0.0
N530 N 0.41794 0.03279 0.72094 0.0
N531 N 0.41514 0.17722 0.65802 0.0
H532 H 0.46819 0.12257 0.5946 0.0
H533 H 0.45976 0.16697 0.59953 0.0
H534 H 0.40229 0.19294 0.67549 0.0
H535 H 0.41911 0.18554 0.62661 0.0
H536 H 0.40145 0.01659 0.74752 0.0
H537 H 0.42775 0.01487 0.70265 0.0
H538 H 0.40085 0.06105 0.78971 0.0
H539 H 0.38672 0.10172 0.79245 0.0
C540 C 0.4208 0.52079 0.2394 0.0
C541 C 0.41888 0.52467 0.19525 0.0
C542 C 0.34015 0.4934 0.19766 0.0
C543 C 0.34257 0.49363 0.24202 0.0
N544 N 0.38609 0.51354 0.30578 0.0
N545 N 0.37824 0.525 0.13403 0.0
C546 C 0.38329 0.50946 0.26311 0.0
C547 C 0.37899 0.51406 0.17485 0.0
N548 N 0.45777 0.52585 0.25845 0.0
N549 N 0.30082 0.47186 0.17705 0.0
H550 H 0.40613 0.54127 0.11643 0.0
H551 H 0.35062 0.52198 0.11903 0.0
H552 H 0.27176 0.45503 0.1926 0.0
H553 H 0.2974 0.46691 0.14472 0.0
H554 H 0.45973 0.51914 0.28982 0.0
H555 H 0.48548 0.53285 0.24208 0.0
H556 H 0.41547 0.52914 0.32268 0.0
H557 H 0.3591 0.50455 0.32414 0.0
C558 C 0.86991 0.34306 0.64693 0.0
C559 C 0.91419 0.37277 0.65645 0.0
C560 C 0.91509 0.31951 0.70499 0.0
C561 C 0.86909 0.29404 0.70128 0.0
N562 N 0.80227 0.28906 0.67566 0.0
N563 N 0.97962 0.39066 0.69557 0.0
C564 C 0.84625 0.30723 0.67352 0.0
C565 C 0.93727 0.36114 0.68535 0.0
N566 N 0.85005 0.35034 0.6135 0.0
N567 N 0.9374 0.30391 0.72726 0.0
H568 H 0.99693 0.42073 0.68082 0.0
H569 H 0.99678 0.38633 0.72001 0.0
H570 H 0.9219 0.2736 0.74187 0.0
H571 H 0.97113 0.3191 0.7282 0.0
H572 H 0.81857 0.32774 0.60312 0.0
H573 H 0.86679 0.37682 0.59373 0.0
H574 H 0.78481 0.30038 0.65852 0.0
H575 H 0.78397 0.26699 0.69853 0.0
C576 C 0.48671 0.86588 0.14546 0.0
C577 C 0.4931 0.90624 0.16184 0.0
C578 C 0.51832 0.8926 0.22905 0.0
C579 C 0.51333 0.85287 0.21226 0.0
N580 N 0.50269 0.8069 0.15184 0.0
N581 N 0.52367 0.96276 0.21535 0.0
C582 C 0.50045 0.84103 0.16962 0.0
C583 C 0.51192 0.92115 0.2024 0.0
N584 N 0.46596 0.85044 0.10749 0.0
N585 N 0.52668 0.9019 0.27095 0.0
H586 H 0.51924 0.98432 0.19649 0.0
H587 H 0.54139 0.97729 0.24291 0.0
H588 H 0.53052 0.88143 0.29181 0.0
H589 H 0.52603 0.92789 0.28582 0.0
H590 H 0.45548 0.81884 0.09615 0.0
H591 H 0.45679 0.86838 0.08832 0.0
H592 H 0.49804 0.79951 0.11991 0.0
H593 H 0.51316 0.78836 0.16835 0.0
C594 C 0.64914 0.58636 0.68496 0.0
C595 C 0.64402 0.56094 0.64858 0.0
C596 C 0.71995 0.57986 0.65546 0.0
C597 C 0.72108 0.59474 0.69691 0.0
N598 N 0.69149 0.62175 0.7485 0.0
N599 N 0.67539 0.53866 0.59484 0.0
C600 C 0.68763 0.60226 0.7104 0.0
C601 C 0.68022 0.56048 0.63178 0.0
N602 N 0.61634 0.59369 0.69543 0.0
N603 N 0.75677 0.58302 0.63986 0.0
H604 H 0.6469 0.52557 0.5765 0.0
H605 H 0.69881 0.5326 0.58283 0.0
H606 H 0.7859 0.5973 0.65737 0.0
H607 H 0.75955 0.57512 0.60911 0.0
H608 H 0.61811 0.61374 0.72026 0.0
H609 H 0.58816 0.58197 0.67679 0.0
H610 H 0.66642 0.62345 0.76277 0.0
H611 H 0.72037 0.63651 0.76617 0.0
C612 C 0.15502 0.64924 0.16598 0.0
C613 C 0.11675 0.61289 0.1813 0.0
C614 C 0.12073 0.65601 0.24358 0.0
C615 C 0.15965 0.6919 0.22886 0.0
N616 N 0.21701 0.72235 0.17931 0.0
N617 N 0.06487 0.57927 0.23575 0.0
C618 C 0.17774 0.68839 0.19094 0.0
C619 C 0.10004 0.61566 0.22042 0.0
N620 N 0.16923 0.64631 0.12732 0.0
N621 N 0.10338 0.66091 0.27958 0.0
H622 H 0.04734 0.54996 0.21863 0.0
H623 H 0.05396 0.57708 0.26604 0.0
H624 H 0.11938 0.68879 0.29886 0.0
H625 H 0.07263 0.63838 0.28983 0.0
H626 H 0.19426 0.6726 0.11218 0.0
H627 H 0.15428 0.61775 0.10887 0.0
H628 H 0.23433 0.72097 0.15416 0.0
H629 H 0.23401 0.75159 0.19662 0.0
loop_
_geom_bond_atom_site_label_1
_geom_bond_atom_site_label_2
_geom_bond_distance
_geom_bond_site_symmetry_2
_ccdc_geom_bond_type
H0 C8 0.940 . S
H1 C11 0.940 . S
H2 C13 0.940 . S
H3 C14 0.940 . S
H4 C17 0.940 . S
H5 C19 0.940 . S
N6 N7 1.190 1_655 S
N6 C10 1.477 1_554 S
N7 N6 1.190 1_455 S
N7 C16 1.477 . S
C8 H0 0.940 . S
C8 C9 1.390 . S
C8 C10 1.322 . S
C9 C8 1.390 . S
C9 C13 1.370 . S
C10 N6 1.477 1_556 S
C10 C8 1.322 . S
C10 C11 1.447 . S
C11 H1 0.940 . S
C11 C10 1.447 . S
C11 C12 1.373 . S
C12 C11 1.373 . S
C12 C13 1.417 . S
C13 H2 0.940 . S
C13 C9 1.370 . S
C13 C12 1.417 . S
C14 H3 0.940 . S
C14 C15 1.390 . S
C14 C16 1.322 . S
C15 C14 1.390 . S
C15 C19 1.370 . S
C16 N7 1.477 . S
C16 C14 1.322 . S
C16 C17 1.447 . S
C17 H4 0.940 . S
C17 C16 1.447 . S
C17 C18 1.373 . S
C18 C17 1.373 . S
C18 C19 1.417 . S
C19 H5 0.940 . S
C19 C15 1.370 . S
C19 C18 1.417 . S
H20 C28 0.940 . S
H21 C31 0.940 . S
H22 C33 0.940 . S
H23 C34 0.940 . S
H24 C37 0.940 . S
H25 C39 0.940 . S
N26 N27 1.190 . S
N26 C30 1.477 . S
N27 N26 1.190 . S
N27 C36 1.477 1_545 S
C28 H20 0.940 . S
C28 C29 1.390 . S
C28 C30 1.322 . S
C29 C28 1.390 . S
C29 C33 1.370 . S
C30 N26 1.477 . S
C30 C28 1.322 . S
C30 C31 1.447 . S
C31 H21 0.940 . S
C31 C30 1.447 . S
C31 C32 1.373 . S
C32 C31 1.373 . S
C32 C33 1.417 . S
C33 H22 0.940 . S
C33 C29 1.370 . S
C33 C32 1.417 . S
C34 H23 0.940 . S
C34 C35 1.390 . S
C34 C36 1.322 . S
C35 C34 1.390 . S
C35 C39 1.370 . S
C36 N27 1.477 1_565 S
C36 C34 1.322 . S
C36 C37 1.447 . S
C37 H24 0.940 . S
C37 C36 1.447 . S
C37 C38 1.373 . S
C38 C37 1.373 . S
C38 C39 1.417 . S
C39 H25 0.940 . S
C39 C35 1.370 . S
C39 C38 1.417 . S
H40 C48 0.940 . S
H41 C51 0.940 . S
H42 C53 0.940 . S
H43 C54 0.940 . S
H44 C57 0.940 . S
H45 C59 0.940 . S
N46 N47 1.190 1_556 S
N46 C50 1.477 . S
N47 N46 1.190 1_554 S
N47 C56 1.477 . S
C48 H40 0.940 . S
C48 C49 1.390 . S
C48 C50 1.322 . S
C49 C48 1.390 . S
C49 C53 1.370 . S
C50 N46 1.477 . S
C50 C48 1.322 . S
C50 C51 1.447 . S
C51 H41 0.940 . S
C51 C50 1.447 . S
C51 C52 1.373 . S
C52 C51 1.373 . S
C52 C53 1.417 . S
C53 H42 0.940 . S
C53 C49 1.370 . S
C53 C52 1.417 . S
C54 H43 0.940 . S
C54 C55 1.390 . S
C54 C56 1.322 . S
C55 C54 1.390 . S
C55 C59 1.370 . S
C56 N47 1.477 . S
C56 C54 1.322 . S
C56 C57 1.447 . S
C57 H44 0.940 . S
C57 C56 1.447 . S
C57 C58 1.373 . S
C58 C57 1.373 . S
C58 C59 1.417 . S
C59 H45 0.940 . S
C59 C55 1.370 . S
C59 C58 1.417 . S
H60 C68 0.940 . S
H61 C71 0.940 . S
H62 C73 0.940 . S
H63 C74 0.940 . S
H64 C77 0.940 . S
H65 C79 0.940 . S
N66 N67 1.190 . S
N66 C70 1.477 1_655 S
N67 N66 1.190 . S
N67 C76 1.477 . S
C68 H60 0.940 . S
C68 C69 1.390 . S
C68 C70 1.322 . S
C69 C68 1.390 . S
C69 C73 1.370 . S
C70 N66 1.477 1_455 S
C70 C68 1.322 . S
C70 C71 1.447 . S
C71 H61 0.940 . S
C71 C70 1.447 . S
C71 C72 1.373 . S
C72 C71 1.373 . S
C72 C73 1.417 . S
C73 H62 0.940 . S
C73 C69 1.370 . S
C73 C72 1.417 . S
C74 H63 0.940 . S
C74 C75 1.390 . S
C74 C76 1.322 . S
C75 C74 1.390 . S
C75 C79 1.370 . S
C76 N67 1.477 . S
C76 C74 1.322 . S
C76 C77 1.447 . S
C77 H64 0.940 . S
C77 C76 1.447 . S
C77 C78 1.373 . S
C78 C77 1.373 . S
C78 C79 1.417 . S
C79 H65 0.940 . S
C79 C75 1.370 . S
C79 C78 1.417 . S
H80 C88 0.940 . S
H81 C91 0.940 . S
H82 C93 0.940 . S
H83 C94 0.940 . S
H84 C97 0.940 . S
H85 C99 0.940 . S
N86 N87 1.190 . S
N86 C90 1.477 1_554 S
N87 N86 1.190 . S
N87 C96 1.477 1_545 S
C88 H80 0.940 . S
C88 C89 1.390 . S
C88 C90 1.322 . S
C89 C88 1.390 . S
C89 C93 1.370 . S
C90 N86 1.477 1_556 S
C90 C88 1.322 . S
C90 C91 1.447 . S
C91 H81 0.940 . S
C91 C90 1.447 . S
C91 C92 1.373 . S
C92 C91 1.373 . S
C92 C93 1.417 . S
C93 H82 0.940 . S
C93 C89 1.370 . S
C93 C92 1.417 . S
C94 H83 0.940 . S
C94 C95 1.390 . S
C94 C96 1.322 . S
C95 C94 1.390 . S
C95 C99 1.370 . S
C96 N87 1.477 1_565 S
C96 C94 1.322 . S
C96 C97 1.447 . S
C97 H84 0.940 . S
C97 C96 1.447 . S
C97 C98 1.373 . S
C98 C97 1.373 . S
C98 C99 1.417 . S
C99 H85 0.940 . S
C99 C95 1.370 . S
C99 C98 1.417 . S
H100 C108 0.940 . S
H101 C111 0.940 . S
H102 C113 0.940 . S
H103 C114 0.940 . S
H104 C117 0.940 . S
H105 C119 0.940 . S
N106 N107 1.190 . S
N106 C110 1.477 . S
N107 N106 1.190 . S
N107 C116 1.477 . S
C108 H100 0.940 . S
C108 C109 1.390 . S
C108 C110 1.322 . S
C109 C108 1.390 . S
C109 C113 1.370 . S
C110 N106 1.477 . S
C110 C108 1.322 . S
C110 C111 1.447 . S
C111 H101 0.940 . S
C111 C110 1.447 . S
C111 C112 1.373 . S
C112 C111 1.373 . S
C112 C113 1.417 . S
C113 H102 0.940 . S
C113 C109 1.370 . S
C113 C112 1.417 . S
C114 H103 0.940 . S
C114 C115 1.390 . S
C114 C116 1.322 . S
C115 C114 1.390 . S
C115 C119 1.370 . S
C116 N107 1.477 . S
C116 C114 1.322 . S
C116 C117 1.447 . S
C117 H104 0.940 . S
C117 C116 1.447 . S
C117 C118 1.373 . S
C118 C117 1.373 . S
C118 C119 1.417 . S
C119 H105 0.940 . S
C119 C115 1.370 . S
C119 C118 1.417 . S
Mg120 O127 2.141 . S
Mg120 O128 2.048 . S
Mg120 O129 2.048 . S
Mg120 O132 2.141 . S
C121 O122 1.313 . S
C121 O128 1.195 . S
O122 C121 1.313 . S
C123 O124 1.245 . S
C123 O132 1.289 . S
O124 C123 1.245 . S
C125 O126 1.245 . S
C125 O127 1.289 . S
O126 C125 1.245 . S
O127 Mg120 2.141 . S
O127 C125 1.289 . S
O128 Mg120 2.048 . S
O128 C121 1.195 . S
O129 Mg120 2.048 . S
O129 C130 1.195 . S
C130 O129 1.195 . S
C130 O131 1.313 . S
O131 C130 1.313 . S
O132 Mg120 2.141 . S
O132 C123 1.289 . S
Mg133 O140 2.141 . S
Mg133 O141 2.048 . S
Mg133 O142 2.048 . S
Mg133 O145 2.141 . S
C134 O135 1.313 . S
C134 O141 1.195 . S
O135 C134 1.313 . S
C136 O137 1.245 . S
C136 O145 1.289 . S
O137 C136 1.245 . S
C138 O139 1.245 . S
C138 O140 1.289 . S
O139 C138 1.245 . S
O140 Mg133 2.141 . S
O140 C138 1.289 . S
O141 Mg133 2.048 . S
O141 C134 1.195 . S
O142 Mg133 2.048 . S
O142 C143 1.195 . S
C143 O142 1.195 . S
C143 O144 1.313 . S
O144 C143 1.313 . S
O145 Mg133 2.141 . S
O145 C136 1.289 . S
Mg146 O153 2.141 . S
Mg146 O154 2.048 . S
Mg146 O155 2.048 . S
Mg146 O158 2.141 . S
C147 O148 1.313 . S
C147 O154 1.195 . S
O148 C147 1.313 . S
C149 O150 1.245 . S
C149 O158 1.289 . S
O150 C149 1.245 . S
C151 O152 1.245 . S
C151 O153 1.289 . S
O152 C151 1.245 . S
O153 Mg146 2.141 . S
O153 C151 1.289 . S
O154 Mg146 2.048 . S
O154 C147 1.195 . S
O155 Mg146 2.048 . S
O155 C156 1.195 . S
C156 O155 1.195 . S
C156 O157 1.313 . S
O157 C156 1.313 . S
O158 Mg146 2.141 . S
O158 C149 1.289 . S
Mg159 O166 2.141 . S
Mg159 O167 2.048 . S
Mg159 O168 2.048 . S
Mg159 O171 2.141 . S
C160 O161 1.313 . S
C160 O167 1.195 . S
O161 C160 1.313 . S
C162 O163 1.245 . S
C162 O171 1.289 . S
O163 C162 1.245 . S
C164 O165 1.245 . S
C164 O166 1.289 . S
O165 C164 1.245 . S
O166 Mg159 2.141 . S
O166 C164 1.289 . S
O167 Mg159 2.048 . S
O167 C160 1.195 . S
O168 Mg159 2.048 . S
O168 C169 1.195 . S
C169 O168 1.195 . S
C169 O170 1.313 . S
O170 C169 1.313 . S
O171 Mg159 2.141 . S
O171 C162 1.289 . S
Mg172 O179 2.141 . S
Mg172 O180 2.048 . S
Mg172 O181 2.048 . S
Mg172 O184 2.141 . S
C173 O174 1.313 . S
C173 O180 1.195 . S
O174 C173 1.313 . S
C175 O176 1.245 . S
C175 O184 1.289 . S
O176 C175 1.245 . S
C177 O178 1.245 . S
C177 O179 1.289 . S
O178 C177 1.245 . S
O179 Mg172 2.141 . S
O179 C177 1.289 . S
O180 Mg172 2.048 . S
O180 C173 1.195 . S
O181 Mg172 2.048 . S
O181 C182 1.195 . S
C182 O181 1.195 . S
C182 O183 1.313 . S
O183 C182 1.313 . S
O184 Mg172 2.141 . S
O184 C175 1.289 . S
Mg185 O192 2.141 . S
Mg185 O193 2.048 . S
Mg185 O194 2.048 . S
Mg185 O197 2.141 . S
C186 O187 1.313 . S
C186 O193 1.195 . S
O187 C186 1.313 . S
C188 O189 1.245 . S
C188 O197 1.289 . S
O189 C188 1.245 . S
C190 O191 1.245 . S
C190 O192 1.289 . S
O191 C190 1.245 . S
O192 Mg185 2.141 . S
O192 C190 1.289 . S
O193 Mg185 2.048 . S
O193 C186 1.195 . S
O194 Mg185 2.048 . S
O194 C195 1.195 . S
C195 O194 1.195 . S
C195 O196 1.313 . S
O196 C195 1.313 . S
O197 Mg185 2.141 . S
O197 C188 1.289 . S
C198 C199 1.363 . S
C198 C204 1.379 . S
C198 N206 1.356 . S
C199 C198 1.363 . S
C199 C205 1.363 . S
C200 C201 1.363 . S
C200 C205 1.379 . S
C200 N207 1.356 . S
C201 C200 1.363 . S
C201 C204 1.363 . S
N202 C204 1.356 . S
N202 H214 0.984 . S
N202 H215 0.985 . S
N203 C205 1.356 . S
N203 H208 0.984 . S
N203 H209 0.985 . S
C204 C198 1.379 . S
C204 C201 1.363 . S
C204 N202 1.356 . S
C205 C199 1.363 . S
C205 C200 1.379 . S
C205 N203 1.356 . S
N206 C198 1.356 . S
N206 H212 0.984 . S
N206 H213 0.984 . S
N207 C200 1.356 . S
N207 H210 0.984 . S
N207 H211 0.985 . S
H208 N203 0.984 . S
H209 N203 0.985 . S
H210 N207 0.984 . S
H211 N207 0.985 . S
H212 N206 0.984 . S
H213 N206 0.984 . S
H214 N202 0.984 . S
H215 N202 0.985 . S
C216 C217 1.363 . S
C216 C222 1.379 . S
C216 N224 1.356 . S
C217 C216 1.363 . S
C217 C223 1.363 . S
C218 C219 1.363 . S
C218 C223 1.379 . S
C218 N225 1.356 . S
C219 C218 1.363 . S
C219 C222 1.363 . S
N220 C222 1.356 . S
N220 H232 0.984 . S
N220 H233 0.985 . S
N221 C223 1.356 . S
N221 H226 0.984 . S
N221 H227 0.985 . S
C222 C216 1.379 . S
C222 C219 1.363 . S
C222 N220 1.356 . S
C223 C217 1.363 . S
C223 C218 1.379 . S
C223 N221 1.356 . S
N224 C216 1.356 . S
N224 H230 0.984 . S
N224 H231 0.984 . S
N225 C218 1.356 . S
N225 H228 0.984 . S
N225 H229 0.985 . S
H226 N221 0.984 . S
H227 N221 0.985 . S
H228 N225 0.984 . S
H229 N225 0.985 . S
H230 N224 0.984 . S
H231 N224 0.984 . S
H232 N220 0.984 . S
H233 N220 0.985 . S
C234 C235 1.363 . S
C234 C240 1.379 . S
C234 N242 1.356 . S
C235 C234 1.363 . S
C235 C241 1.363 . S
C236 C237 1.363 . S
C236 C241 1.379 . S
C236 N243 1.356 . S
C237 C236 1.363 . S
C237 C240 1.363 . S
N238 C240 1.356 . S
N238 H250 0.984 . S
N238 H251 0.985 . S
N239 C241 1.356 . S
N239 H244 0.984 . S
N239 H245 0.985 . S
C240 C234 1.379 . S
C240 C237 1.363 . S
C240 N238 1.356 . S
C241 C235 1.363 . S
C241 C236 1.379 . S
C241 N239 1.356 . S
N242 C234 1.356 . S
N242 H248 0.984 . S
N242 H249 0.984 . S
N243 C236 1.356 . S
N243 H246 0.984 . S
N243 H247 0.985 . S
H244 N239 0.984 . S
H245 N239 0.985 . S
H246 N243 0.984 . S
H247 N243 0.985 . S
H248 N242 0.984 . S
H249 N242 0.984 . S
H250 N238 0.984 . S
H251 N238 0.985 . S
C252 C253 1.363 . S
C252 C258 1.379 . S
C252 N260 1.356 . S
C253 C252 1.363 . S
C253 C259 1.363 . S
C254 C255 1.363 . S
C254 C259 1.379 . S
C254 N261 1.356 . S
C255 C254 1.363 . S
C255 C258 1.363 . S
N256 C258 1.356 . S
N256 H268 0.984 . S
N256 H269 0.985 . S
N257 C259 1.356 . S
N257 H262 0.984 . S
N257 H263 0.985 . S
C258 C252 1.379 . S
C258 C255 1.363 . S
C258 N256 1.356 . S
C259 C253 1.363 . S
C259 C254 1.379 . S
C259 N257 1.356 . S
N260 C252 1.356 . S
N260 H266 0.984 . S
N260 H267 0.984 . S
N261 C254 1.356 . S
N261 H264 0.984 . S
N261 H265 0.985 . S
H262 N257 0.984 . S
H263 N257 0.985 . S
H264 N261 0.984 . S
H265 N261 0.985 . S
H266 N260 0.984 . S
H267 N260 0.984 . S
H268 N256 0.984 . S
H269 N256 0.985 . S
C270 C271 1.363 . S
C270 C276 1.379 . S
C270 N278 1.356 . S
C271 C270 1.363 . S
C271 C277 1.363 . S
C272 C273 1.363 . S
C272 C277 1.379 . S
C272 N279 1.356 . S
C273 C272 1.363 . S
C273 C276 1.363 . S
N274 C276 1.356 . S
N274 H286 0.984 . S
N274 H287 0.985 . S
N275 C277 1.356 . S
N275 H280 0.984 . S
N275 H281 0.985 . S
C276 C270 1.379 . S
C276 C273 1.363 . S
C276 N274 1.356 . S
C277 C271 1.363 . S
C277 C272 1.379 . S
C277 N275 1.356 . S
N278 C270 1.356 . S
N278 H284 0.984 . S
N278 H285 0.984 . S
N279 C272 1.356 . S
N279 H282 0.984 . S
N279 H283 0.985 . S
H280 N275 0.984 . S
H281 N275 0.985 . S
H282 N279 0.984 . S
H283 N279 0.985 . S
H284 N278 0.984 . S
H285 N278 0.984 . S
H286 N274 0.984 . S
H287 N274 0.985 . S
C288 C289 1.363 . S
C288 C294 1.379 . S
C288 N296 1.356 . S
C289 C288 1.363 . S
C289 C295 1.363 . S
C290 C291 1.363 . S
C290 C295 1.379 . S
C290 N297 1.356 . S
C291 C290 1.363 . S
C291 C294 1.363 . S
N292 C294 1.356 . S
N292 H304 0.984 . S
N292 H305 0.985 . S
N293 C295 1.356 . S
N293 H298 0.984 . S
N293 H299 0.985 . S
C294 C288 1.379 . S
C294 C291 1.363 . S
C294 N292 1.356 . S
C295 C289 1.363 . S
C295 C290 1.379 . S
C295 N293 1.356 . S
N296 C288 1.356 . S
N296 H302 0.984 . S
N296 H303 0.984 . S
N297 C290 1.356 . S
N297 H300 0.984 . S
N297 H301 0.985 . S
H298 N293 0.984 . S
H299 N293 0.985 . S
H300 N297 0.984 . S
H301 N297 0.985 . S
H302 N296 0.984 . S
H303 N296 0.984 . S
H304 N292 0.984 . S
H305 N292 0.985 . S
C306 C307 1.363 . S
C306 C312 1.379 . S
C306 N314 1.356 . S
C307 C306 1.363 . S
C307 C313 1.363 . S
C308 C309 1.363 . S
C308 C313 1.379 . S
C308 N315 1.356 . S
C309 C308 1.363 . S
C309 C312 1.363 . S
N310 C312 1.356 . S
N310 H322 0.984 . S
N310 H323 0.985 . S
N311 C313 1.356 . S
N311 H316 0.984 . S
N311 H317 0.985 . S
C312 C306 1.379 . S
C312 C309 1.363 . S
C312 N310 1.356 . S
C313 C307 1.363 . S
C313 C308 1.379 . S
C313 N311 1.356 . S
N314 C306 1.356 . S
N314 H320 0.984 . S
N314 H321 0.984 . S
N315 C308 1.356 . S
N315 H318 0.984 . S
N315 H319 0.985 . S
H316 N311 0.984 . S
H317 N311 0.985 . S
H318 N315 0.984 . S
H319 N315 0.985 . S
H320 N314 0.984 . S
H321 N314 0.984 . S
H322 N310 0.984 . S
H323 N310 0.985 . S
C324 C325 1.363 . S
C324 C330 1.379 . S
C324 N332 1.356 . S
C325 C324 1.363 . S
C325 C331 1.363 . S
C326 C327 1.363 . S
C326 C331 1.379 . S
C326 N333 1.356 . S
C327 C326 1.363 . S
C327 C330 1.363 . S
N328 C330 1.356 . S
N328 H340 0.984 . S
N328 H341 0.985 . S
N329 C331 1.356 . S
N329 H334 0.984 . S
N329 H335 0.985 . S
C330 C324 1.379 . S
C330 C327 1.363 . S
C330 N328 1.356 . S
C331 C325 1.363 . S
C331 C326 1.379 . S
C331 N329 1.356 . S
N332 C324 1.356 . S
N332 H338 0.984 . S
N332 H339 0.984 . S
N333 C326 1.356 . S
N333 H336 0.984 . S
N333 H337 0.985 . S
H334 N329 0.984 . S
H335 N329 0.985 . S
H336 N333 0.984 . S
H337 N333 0.985 . S
H338 N332 0.984 . S
H339 N332 0.984 . S
H340 N328 0.984 . S
H341 N328 0.985 . S
C342 C343 1.363 . S
C342 C348 1.379 . S
C342 N350 1.356 . S
C343 C342 1.363 . S
C343 C349 1.363 . S
C344 C345 1.363 . S
C344 C349 1.379 . S
C344 N351 1.356 . S
C345 C344 1.363 . S
C345 C348 1.363 . S
N346 C348 1.356 . S
N346 H358 0.984 . S
N346 H359 0.985 . S
N347 C349 1.356 . S
N347 H352 0.984 . S
N347 H353 0.985 . S
C348 C342 1.379 . S
C348 C345 1.363 . S
C348 N346 1.356 . S
C349 C343 1.363 . S
C349 C344 1.379 . S
C349 N347 1.356 . S
N350 C342 1.356 . S
N350 H356 0.984 . S
N350 H357 0.984 . S
N351 C344 1.356 . S
N351 H354 0.984 . S
N351 H355 0.985 . S
H352 N347 0.984 . S
H353 N347 0.985 . S
H354 N351 0.984 . S
H355 N351 0.985 . S
H356 N350 0.984 . S
H357 N350 0.984 . S
H358 N346 0.984 . S
H359 N346 0.985 . S
C360 C361 1.363 . S
C360 C366 1.379 . S
C360 N368 1.356 . S
C361 C360 1.363 . S
C361 C367 1.363 . S
C362 C363 1.363 . S
C362 C367 1.379 . S
C362 N369 1.356 . S
C363 C362 1.363 . S
C363 C366 1.363 . S
N364 C366 1.356 . S
N364 H376 0.984 . S
N364 H377 0.985 . S
N365 C367 1.356 . S
N365 H370 0.984 . S
N365 H371 0.985 . S
C366 C360 1.379 . S
C366 C363 1.363 . S
C366 N364 1.356 . S
C367 C361 1.363 . S
C367 C362 1.379 . S
C367 N365 1.356 . S
N368 C360 1.356 . S
N368 H374 0.984 . S
N368 H375 0.984 . S
N369 C362 1.356 . S
N369 H372 0.984 . S
N369 H373 0.985 . S
H370 N365 0.984 . S
H371 N365 0.985 . S
H372 N369 0.984 . S
H373 N369 0.985 . S
H374 N368 0.984 . S
H375 N368 0.984 . S
H376 N364 0.984 . S
H377 N364 0.985 . S
C378 C379 1.363 . S
C378 C384 1.379 . S
C378 N386 1.356 . S
C379 C378 1.363 . S
C379 C385 1.363 . S
C380 C381 1.363 . S
C380 C385 1.379 . S
C380 N387 1.356 . S
C381 C380 1.363 . S
C381 C384 1.363 . S
N382 C384 1.356 . S
N382 H394 0.984 . S
N382 H395 0.985 . S
N383 C385 1.356 . S
N383 H388 0.984 . S
N383 H389 0.985 . S
C384 C378 1.379 . S
C384 C381 1.363 . S
C384 N382 1.356 . S
C385 C379 1.363 . S
C385 C380 1.379 . S
C385 N383 1.356 . S
N386 C378 1.356 . S
N386 H392 0.984 . S
N386 H393 0.984 . S
N387 C380 1.356 . S
N387 H390 0.984 . S
N387 H391 0.985 . S
H388 N383 0.984 . S
H389 N383 0.985 . S
H390 N387 0.984 . S
H391 N387 0.985 . S
H392 N386 0.984 . S
H393 N386 0.984 . S
H394 N382 0.984 . S
H395 N382 0.985 . S
C396 C397 1.363 . S
C396 C402 1.379 . S
C396 N404 1.356 . S
C397 C396 1.363 . S
C397 C403 1.363 . S
C398 C399 1.363 . S
C398 C403 1.379 . S
C398 N405 1.356 . S
C399 C398 1.363 . S
C399 C402 1.363 . S
N400 C402 1.356 . S
N400 H412 0.984 . S
N400 H413 0.985 . S
N401 C403 1.356 . S
N401 H406 0.984 . S
N401 H407 0.985 . S
C402 C396 1.379 . S
C402 C399 1.363 . S
C402 N400 1.356 . S
C403 C397 1.363 . S
C403 C398 1.379 . S
C403 N401 1.356 . S
N404 C396 1.356 . S
N404 H410 0.984 . S
N404 H411 0.984 . S
N405 C398 1.356 . S
N405 H408 0.984 . S
N405 H409 0.985 . S
H406 N401 0.984 . S
H407 N401 0.985 . S
H408 N405 0.984 . S
H409 N405 0.985 . S
H410 N404 0.984 . S
H411 N404 0.984 . S
H412 N400 0.984 . S
H413 N400 0.985 . S
C414 C415 1.363 . S
C414 C420 1.379 . S
C414 N422 1.356 . S
C415 C414 1.363 . S
C415 C421 1.363 . S
C416 C417 1.363 . S
C416 C421 1.379 . S
C416 N423 1.356 . S
C417 C416 1.363 . S
C417 C420 1.363 . S
N418 C420 1.356 . S
N418 H430 0.984 . S
N418 H431 0.985 . S
N419 C421 1.356 . S
N419 H424 0.984 . S
N419 H425 0.985 . S
C420 C414 1.379 . S
C420 C417 1.363 . S
C420 N418 1.356 . S
C421 C415 1.363 . S
C421 C416 1.379 . S
C421 N419 1.356 . S
N422 C414 1.356 . S
N422 H428 0.984 . S
N422 H429 0.984 . S
N423 C416 1.356 . S
N423 H426 0.984 . S
N423 H427 0.985 . S
H424 N419 0.984 . S
H425 N419 0.985 . S
H426 N423 0.984 . S
H427 N423 0.985 . S
H428 N422 0.984 . S
H429 N422 0.984 . S
H430 N418 0.984 . S
H431 N418 0.985 . S
C432 C433 1.363 . S
C432 C438 1.379 . S
C432 N440 1.356 . S
C433 C432 1.363 . S
C433 C439 1.363 . S
C434 C435 1.363 . S
C434 C439 1.379 . S
C434 N441 1.356 . S
C435 C434 1.363 . S
C435 C438 1.363 . S
N436 C438 1.356 . S
N436 H448 0.984 . S
N436 H449 0.985 . S
N437 C439 1.356 . S
N437 H442 0.984 . S
N437 H443 0.985 . S
C438 C432 1.379 . S
C438 C435 1.363 . S
C438 N436 1.356 . S
C439 C433 1.363 . S
C439 C434 1.379 . S
C439 N437 1.356 . S
N440 C432 1.356 . S
N440 H446 0.984 . S
N440 H447 0.984 . S
N441 C434 1.356 . S
N441 H444 0.984 . S
N441 H445 0.985 . S
H442 N437 0.984 . S
H443 N437 0.985 . S
H444 N441 0.984 . S
H445 N441 0.985 . S
H446 N440 0.984 . S
H447 N440 0.984 . S
H448 N436 0.984 . S
H449 N436 0.985 . S
C450 C451 1.363 . S
C450 C456 1.379 . S
C450 N458 1.356 . S
C451 C450 1.363 . S
C451 C457 1.363 . S
C452 C453 1.363 . S
C452 C457 1.379 . S
C452 N459 1.356 . S
C453 C452 1.363 . S
C453 C456 1.363 . S
N454 C456 1.356 . S
N454 H466 0.984 . S
N454 H467 0.985 . S
N455 C457 1.356 . S
N455 H460 0.984 . S
N455 H461 0.985 . S
C456 C450 1.379 . S
C456 C453 1.363 . S
C456 N454 1.356 . S
C457 C451 1.363 . S
C457 C452 1.379 . S
C457 N455 1.356 . S
N458 C450 1.356 . S
N458 H464 0.984 . S
N458 H465 0.984 . S
N459 C452 1.356 . S
N459 H462 0.984 . S
N459 H463 0.985 . S
H460 N455 0.984 . S
H461 N455 0.985 . S
H462 N459 0.984 . S
H463 N459 0.985 . S
H464 N458 0.984 . S
H465 N458 0.984 . S
H466 N454 0.984 . S
H467 N454 0.985 . S
C468 C469 1.363 . S
C468 C474 1.379 . S
C468 N476 1.356 . S
C469 C468 1.363 . S
C469 C475 1.363 . S
C470 C471 1.363 . S
C470 C475 1.379 . S
C470 N477 1.356 . S
C471 C470 1.363 . S
C471 C474 1.363 . S
N472 C474 1.356 . S
N472 H484 0.984 . S
N472 H485 0.985 . S
N473 C475 1.356 . S
N473 H478 0.984 . S
N473 H479 0.985 . S
C474 C468 1.379 . S
C474 C471 1.363 . S
C474 N472 1.356 . S
C475 C469 1.363 . S
C475 C470 1.379 . S
C475 N473 1.356 . S
N476 C468 1.356 . S
N476 H482 0.984 . S
N476 H483 0.984 . S
N477 C470 1.356 . S
N477 H480 0.984 . S
N477 H481 0.985 . S
H478 N473 0.984 . S
H479 N473 0.985 . S
H480 N477 0.984 . S
H481 N477 0.985 . S
H482 N476 0.984 . S
H483 N476 0.984 . S
H484 N472 0.984 . S
H485 N472 0.985 . S
C486 C487 1.363 . S
C486 C492 1.379 . S
C486 N494 1.356 . S
C487 C486 1.363 . S
C487 C493 1.363 . S
C488 C489 1.363 . S
C488 C493 1.379 . S
C488 N495 1.356 . S
C489 C488 1.363 . S
C489 C492 1.363 . S
N490 C492 1.356 . S
N490 H502 0.984 . S
N490 H503 0.985 . S
N491 C493 1.356 . S
N491 H496 0.984 . S
N491 H497 0.985 . S
C492 C486 1.379 . S
C492 C489 1.363 . S
C492 N490 1.356 . S
C493 C487 1.363 . S
C493 C488 1.379 . S
C493 N491 1.356 . S
N494 C486 1.356 . S
N494 H500 0.984 . S
N494 H501 0.984 . S
N495 C488 1.356 . S
N495 H498 0.984 . S
N495 H499 0.985 . S
H496 N491 0.984 . S
H497 N491 0.985 . S
H498 N495 0.984 . S
H499 N495 0.985 . S
H500 N494 0.984 . S
H501 N494 0.984 . S
H502 N490 0.984 . S
H503 N490 0.985 . S
C504 C505 1.363 . S
C504 C510 1.379 . S
C504 N512 1.356 . S
C505 C504 1.363 . S
C505 C511 1.363 . S
C506 C507 1.363 . S
C506 C511 1.379 . S
C506 N513 1.356 . S
C507 C506 1.363 . S
C507 C510 1.363 . S
N508 C510 1.356 . S
N508 H520 0.984 . S
N508 H521 0.985 . S
N509 C511 1.356 . S
N509 H514 0.984 . S
N509 H515 0.985 . S
C510 C504 1.379 . S
C510 C507 1.363 . S
C510 N508 1.356 . S
C511 C505 1.363 . S
C511 C506 1.379 . S
C511 N509 1.356 . S
N512 C504 1.356 . S
N512 H518 0.984 . S
N512 H519 0.984 . S
N513 C506 1.356 . S
N513 H516 0.984 . S
N513 H517 0.985 . S
H514 N509 0.984 . S
H515 N509 0.985 . S
H516 N513 0.984 . S
H517 N513 0.985 . S
H518 N512 0.984 . S
H519 N512 0.984 . S
H520 N508 0.984 . S
H521 N508 0.985 . S
C522 C523 1.363 . S
C522 C528 1.379 . S
C522 N530 1.356 . S
C523 C522 1.363 . S
C523 C529 1.363 . S
C524 C525 1.363 . S
C524 C529 1.379 . S
C524 N531 1.356 . S
C525 C524 1.363 . S
C525 C528 1.363 . S
N526 C528 1.356 . S
N526 H538 0.984 . S
N526 H539 0.985 . S
N527 C529 1.356 . S
N527 H532 0.984 . S
N527 H533 0.985 . S
C528 C522 1.379 . S
C528 C525 1.363 . S
C528 N526 1.356 . S
C529 C523 1.363 . S
C529 C524 1.379 . S
C529 N527 1.356 . S
N530 C522 1.356 . S
N530 H536 0.984 . S
N530 H537 0.984 . S
N531 C524 1.356 . S
N531 H534 0.984 . S
N531 H535 0.985 . S
H532 N527 0.984 . S
H533 N527 0.985 . S
H534 N531 0.984 . S
H535 N531 0.985 . S
H536 N530 0.984 . S
H537 N530 0.984 . S
H538 N526 0.984 . S
H539 N526 0.985 . S
C540 C541 1.363 . S
C540 C546 1.379 . S
C540 N548 1.356 . S
C541 C540 1.363 . S
C541 C547 1.363 . S
C542 C543 1.363 . S
C542 C547 1.379 . S
C542 N549 1.356 . S
C543 C542 1.363 . S
C543 C546 1.363 . S
N544 C546 1.356 . S
N544 H556 0.984 . S
N544 H557 0.985 . S
N545 C547 1.356 . S
N545 H550 0.984 . S
N545 H551 0.985 . S
C546 C540 1.379 . S
C546 C543 1.363 . S
C546 N544 1.356 . S
C547 C541 1.363 . S
C547 C542 1.379 . S
C547 N545 1.356 . S
N548 C540 1.356 . S
N548 H554 0.984 . S
N548 H555 0.984 . S
N549 C542 1.356 . S
N549 H552 0.984 . S
N549 H553 0.985 . S
H550 N545 0.984 . S
H551 N545 0.985 . S
H552 N549 0.984 . S
H553 N549 0.985 . S
H554 N548 0.984 . S
H555 N548 0.984 . S
H556 N544 0.984 . S
H557 N544 0.985 . S
C558 C559 1.363 . S
C558 C564 1.379 . S
C558 N566 1.356 . S
C559 C558 1.363 . S
C559 C565 1.363 . S
C560 C561 1.363 . S
C560 C565 1.379 . S
C560 N567 1.356 . S
C561 C560 1.363 . S
C561 C564 1.363 . S
N562 C564 1.356 . S
N562 H574 0.984 . S
N562 H575 0.985 . S
N563 C565 1.356 . S
N563 H568 0.984 . S
N563 H569 0.985 . S
C564 C558 1.379 . S
C564 C561 1.363 . S
C564 N562 1.356 . S
C565 C559 1.363 . S
C565 C560 1.379 . S
C565 N563 1.356 . S
N566 C558 1.356 . S
N566 H572 0.984 . S
N566 H573 0.984 . S
N567 C560 1.356 . S
N567 H570 0.984 . S
N567 H571 0.985 . S
H568 N563 0.984 . S
H569 N563 0.985 . S
H570 N567 0.984 . S
H571 N567 0.985 . S
H572 N566 0.984 . S
H573 N566 0.984 . S
H574 N562 0.984 . S
H575 N562 0.985 . S
C576 C577 1.363 . S
C576 C582 1.379 . S
C576 N584 1.356 . S
C577 C576 1.363 . S
C577 C583 1.363 . S
C578 C579 1.363 . S
C578 C583 1.379 . S
C578 N585 1.356 . S
C579 C578 1.363 . S
C579 C582 1.363 . S
N580 C582 1.356 . S
N580 H592 0.984 . S
N580 H593 0.985 . S
N581 C583 1.356 . S
N581 H586 0.984 . S
N581 H587 0.985 . S
C582 C576 1.379 . S
C582 C579 1.363 . S
C582 N580 1.356 . S
C583 C577 1.363 . S
C583 C578 1.379 . S
C583 N581 1.356 . S
N584 C576 1.356 . S
N584 H590 0.984 . S
N584 H591 0.984 . S
N585 C578 1.356 . S
N585 H588 0.984 . S
N585 H589 0.985 . S
H586 N581 0.984 . S
H587 N581 0.985 . S
H588 N585 0.984 . S
H589 N585 0.985 . S
H590 N584 0.984 . S
H591 N584 0.984 . S
H592 N580 0.984 . S
H593 N580 0.985 . S
C594 C595 1.363 . S
C594 C600 1.379 . S
C594 N602 1.356 . S
C595 C594 1.363 . S
C595 C601 1.363 . S
C596 C597 1.363 . S
C596 C601 1.379 . S
C596 N603 1.356 . S
C597 C596 1.363 . S
C597 C600 1.363 . S
N598 C600 1.356 . S
N598 H610 0.984 . S
N598 H611 0.985 . S
N599 C601 1.356 . S
N599 H604 0.984 . S
N599 H605 0.985 . S
C600 C594 1.379 . S
C600 C597 1.363 . S
C600 N598 1.356 . S
C601 C595 1.363 . S
C601 C596 1.379 . S
C601 N599 1.356 . S
N602 C594 1.356 . S
N602 H608 0.984 . S
N602 H609 0.984 . S
N603 C596 1.356 . S
N603 H606 0.984 . S
N603 H607 0.985 . S
H604 N599 0.984 . S
H605 N599 0.985 . S
H606 N603 0.984 . S
H607 N603 0.985 . S
H608 N602 0.984 . S
H609 N602 0.984 . S
H610 N598 0.984 . S
H611 N598 0.985 . S
C612 C613 1.363 . S
C612 C618 1.379 . S
C612 N620 1.356 . S
C613 C612 1.363 . S
C613 C619 1.363 . S
C614 C615 1.363 . S
C614 C619 1.379 . S
C614 N621 1.356 . S
C615 C614 1.363 . S
C615 C618 1.363 . S
N616 C618 1.356 . S
N616 H628 0.984 . S
N616 H629 0.985 . S
N617 C619 1.356 . S
N617 H622 0.984 . S
N617 H623 0.985 . S
C618 C612 1.379 . S
C618 C615 1.363 . S
C618 N616 1.356 . S
C619 C613 1.363 . S
C619 C614 1.379 . S
C619 N617 1.356 . S
N620 C612 1.356 . S
N620 H626 0.984 . S
N620 H627 0.984 . S
N621 C614 1.356 . S
N621 H624 0.984 . S
N621 H625 0.985 . S
H622 N617 0.984 . S
H623 N617 0.985 . S
H624 N621 0.984 . S
H625 N621 0.985 . S
H626 N620 0.984 . S
H627 N620 0.984 . S
H628 N616 0.984 . S
H629 N616 0.985 . S
C199 C18 1.414 . S
C201 C121 1.463 . S
C217 C29 1.450 . S
C219 C134 1.547 . S
C237 C156 1.481 . S
C235 C55 1.404 . S
C255 C169 1.544 . S
C253 C75 1.465 . S
C273 C182 1.461 . S
C271 C98 1.427 . S
C291 C195 1.510 . S
C289 C118 1.473 . S
C307 C38 1.412 . S
C309 C151 1.444 . S
C325 C52 1.471 . S
C327 C164 1.504 . S
C345 C177 1.457 . S
C343 C72 1.425 . S
C363 C190 1.538 . S
C361 C89 1.455 . S
C379 C109 1.396 . S
C381 C123 1.493 . S
C399 C136 1.543 . S
C397 C9 1.442 . S
C417 C162 1.438 . S
C415 C12 1.411 . S
C433 C35 1.442 . S
C435 C175 1.518 . S
C453 C188 1.468 . S
C451 C49 1.395 . S
C469 C69 1.455 . S
C471 C125 1.552 . S
C487 C92 1.423 . S
C489 C138 1.473 . S
C505 C112 1.470 . S
C507 C149 1.499 . S
C523 C32 1.422 . S
C525 C186 1.452 . S
C543 C130 1.533 . S
C541 C58 1.481 . S
C559 C78 1.434 . S
C561 C143 1.484 . S
C577 C95 1.463 . S
C579 C147 1.547 . S
C595 C115 1.404 . S
C597 C160 1.483 . S
C613 C15 1.451 . S
C615 C173 1.534 . S
