# Generated by pormake.
# Topology rtl, (3,6)-cn, num edge types: 1
# Building blocks:
#     Node 0, Type 0, BuildingBlock: BELTOD_clean_linker_0, # of connection points: 3
#     Node 1, Type 0, BuildingBlock: BELTOD_clean_linker_0, # of connection points: 3
#     Node 2, Type 0, BuildingBlock: BELTOD_clean_linker_0, # of connection points: 3
#     Node 3, Type 0, BuildingBlock: BELTOD_clean_linker_0, # of connection points: 3
#     Node 4, Type 1, BuildingBlock: KUMBOL_clean_sbu_1, # of connection points: 6
#     Node 5, Type 1, BuildingBlock: KUMBOL_clean_sbu_1, # of connection points: 6
#     Edge 6, Type (0, 1), BuildingBlock: OJICUG_clean_linker_0, # of connection points: 2
#     Edge 7, Type (0, 1), BuildingBlock: OJICUG_clean_linker_0, # of connection points: 2
#     Edge 8, Type (0, 1), BuildingBlock: OJICUG_clean_linker_0, # of connection points: 2
#     Edge 9, Type (0, 1), BuildingBlock: OJICUG_clean_linker_0, # of connection points: 2
#     Edge 10, Type (0, 1), BuildingBlock: OJICUG_clean_linker_0, # of connection points: 2
#     Edge 11, Type (0, 1), BuildingBlock: OJICUG_clean_linker_0, # of connection points: 2
#     Edge 12, Type (0, 1), BuildingBlock: OJICUG_clean_linker_0, # of connection points: 2
#     Edge 13, Type (0, 1), BuildingBlock: OJICUG_clean_linker_0, # of connection points: 2
#     Edge 14, Type (0, 1), BuildingBlock: OJICUG_clean_linker_0, # of connection points: 2
#     Edge 15, Type (0, 1), BuildingBlock: OJICUG_clean_linker_0, # of connection points: 2
#     Edge 16, Type (0, 1), BuildingBlock: OJICUG_clean_linker_0, # of connection points: 2
#     Edge 17, Type (0, 1), BuildingBlock: OJICUG_clean_linker_0, # of connection points: 2
# Relax obj value: 0.020
# Max RMSD: 0.119
# Mean RMSD: 0.074
data_MOF--net-rtl--node1-KUMBOL_clean_sbu_1--node2-BELTOD_clean_linker_0--edge1-OJICUG_clean_linker_0
_symmetry_space_group_name_H-M    P1
_symmetry_Int_Tables_number       1
_symmetry_cell_setting            triclinic
loop_
_symmetry_equiv_pos_as_xyz
'x, y, z'
_cell_length_a     28.63252
_cell_length_b     29.345015
_cell_length_c     26.011882
_cell_angle_alpha  75.364527
_cell_angle_beta   100.04733
_cell_angle_gamma 90.634506
loop_
_atom_site_label
_atom_site_type_symbol
_atom_site_fract_x
_atom_site_fract_y
_atom_site_fract_z
_atom_type_partial_charge
P0 P 0.25841 0.88818 0.0177 0.0
H1 H 0.28546 0.88497 0.13181 0.0
H2 H 0.23944 0.88496 0.20276 0.0
H3 H 0.10978 0.88366 0.0895 0.0
H4 H 0.15597 0.88181 0.01986 0.0
H5 H 0.33477 0.86849 0.96594 0.0
H6 H 0.37883 0.79616 0.97064 0.0
H7 H 0.30029 0.71854 0.09018 0.0
H8 H 0.2561 0.79104 0.08505 0.0
H9 H 0.20777 0.97463 0.95293 0.0
H10 H 0.22438 0.83233 0.93975 0.0
O11 O 0.29593 0.93185 0.01985 0.0
H12 H 0.15664 0.99516 0.86425 0.0
H13 H 0.17537 0.85304 0.85012 0.0
C14 C 0.22417 0.88407 0.07046 0.0
C15 C 0.24712 0.88426 0.12256 0.0
C16 C 0.22072 0.88459 0.16293 0.0
C17 C 0.1708 0.88479 0.15181 0.0
C18 C 0.14811 0.88307 0.09979 0.0
C19 C 0.17457 0.88245 0.05961 0.0
C20 C 0.29284 0.8352 0.02577 0.0
C21 C 0.32741 0.83596 0.99355 0.0
C22 C 0.35219 0.7946 0.99588 0.0
C23 C 0.34291 0.75176 0.03072 0.0
C24 C 0.30845 0.75118 0.06335 0.0
C25 C 0.28327 0.79258 0.06054 0.0
C26 C 0.2207 0.90237 0.95239 0.0
C27 C 0.20083 0.94798 0.93063 0.0
C28 C 0.17182 0.95968 0.87979 0.0
C29 C 0.16235 0.9259 0.84964 0.0
C30 C 0.18162 0.87985 0.87227 0.0
C31 C 0.2102 0.86809 0.92341 0.0
P32 P 0.73512 0.65962 0.6692 0.0
H33 H 0.76268 0.58988 0.61593 0.0
H34 H 0.72295 0.56187 0.53957 0.0
H35 H 0.60922 0.66572 0.51198 0.0
H36 H 0.64833 0.69205 0.59019 0.0
H37 H 0.81422 0.70079 0.72665 0.0
H38 H 0.85809 0.77243 0.70096 0.0
H39 H 0.75944 0.81502 0.55017 0.0
H40 H 0.71611 0.74334 0.57575 0.0
H41 H 0.64538 0.61082 0.67625 0.0
H42 H 0.73334 0.69703 0.76329 0.0
O43 O 0.7783 0.61989 0.70246 0.0
H44 H 0.59517 0.59519 0.74455 0.0
H45 H 0.68358 0.67988 0.83317 0.0
C46 C 0.70834 0.64293 0.60886 0.0
C47 C 0.72932 0.60681 0.59334 0.0
C48 C 0.70664 0.59099 0.54932 0.0
C49 C 0.66269 0.61134 0.51968 0.0
C50 C 0.64258 0.64865 0.53444 0.0
C51 C 0.66515 0.66416 0.57873 0.0
C52 C 0.76221 0.71615 0.65294 0.0
C53 C 0.80164 0.72582 0.68834 0.0
C54 C 0.82662 0.76695 0.67369 0.0
C55 C 0.81256 0.79924 0.62322 0.0
C56 C 0.77168 0.79046 0.58891 0.0
C57 C 0.74664 0.7494 0.60373 0.0
C58 C 0.69252 0.65647 0.71349 0.0
C59 C 0.65307 0.62793 0.70888 0.0
C60 C 0.6243 0.61871 0.74822 0.0
C61 C 0.63529 0.63655 0.79393 0.0
C62 C 0.6742 0.66591 0.7981 0.0
C63 C 0.70251 0.67589 0.75808 0.0
P64 P 0.84672 0.23744 0.0596 0.0
H65 H 0.86268 0.27961 0.95061 0.0
H66 H 0.87839 0.24544 0.87894 0.0
H67 H 0.84686 0.10768 0.97136 0.0
H68 H 0.83219 0.14229 0.04364 0.0
H69 H 0.81478 0.27948 0.13697 0.0
H70 H 0.74194 0.32207 0.13605 0.0
H71 H 0.68108 0.29335 0.9837 0.0
H72 H 0.75486 0.25153 0.98447 0.0
H73 H 0.94187 0.20275 0.11218 0.0
H74 H 0.79924 0.17411 0.14065 0.0
O75 O 0.88448 0.28143 0.05558 0.0
H76 H 0.97342 0.14786 0.19872 0.0
H77 H 0.83069 0.11962 0.22809 0.0
C78 C 0.84757 0.21327 0.00286 0.0
C79 C 0.85843 0.24217 0.95507 0.0
C80 C 0.86702 0.22257 0.91387 0.0
C81 C 0.86453 0.17365 0.9197 0.0
C82 C 0.85002 0.14532 0.96612 0.0
C83 C 0.84146 0.16506 0.00737 0.0
C84 C 0.79002 0.26213 0.06106 0.0
C85 C 0.78544 0.2817 0.10381 0.0
C86 C 0.74365 0.30586 0.10332 0.0
C87 C 0.70558 0.31106 0.05983 0.0
C88 C 0.70991 0.29033 0.01753 0.0
C89 C 0.75193 0.26612 0.0181 0.0
C90 C 0.86841 0.19357 0.12103 0.0
C91 C 0.91737 0.18454 0.13709 0.0
C92 C 0.93532 0.15314 0.18643 0.0
C93 C 0.9045 0.13 0.2204 0.0
C94 C 0.85523 0.13691 0.20264 0.0
C95 C 0.83727 0.16842 0.15306 0.0
P96 P 0.36708 0.27093 0.484 0.0
H97 H 0.39645 0.2338 0.59952 0.0
H98 H 0.3951 0.26664 0.67658 0.0
H99 H 0.34086 0.39971 0.56789 0.0
H100 H 0.3431 0.36656 0.49065 0.0
H101 H 0.34325 0.1802 0.461 0.0
H102 H 0.27257 0.13317 0.46657 0.0
H103 H 0.19947 0.24691 0.50136 0.0
H104 H 0.27068 0.29352 0.49639 0.0
H105 H 0.4385 0.33937 0.45794 0.0
H106 H 0.31287 0.2909 0.37252 0.0
O107 O 0.41204 0.23134 0.49932 0.0
H108 H 0.45769 0.38522 0.37226 0.0
H109 H 0.33189 0.33703 0.28637 0.0
C110 C 0.37077 0.29801 0.53942 0.0
C111 C 0.38507 0.27031 0.59221 0.0
C112 C 0.38383 0.28901 0.63628 0.0
C113 C 0.36774 0.33578 0.62846 0.0
C114 C 0.35405 0.36376 0.5753 0.0
C115 C 0.35526 0.34489 0.53112 0.0
C116 C 0.31251 0.2399 0.47944 0.0
C117 C 0.31187 0.1952 0.46931 0.0
C118 C 0.27129 0.16843 0.47221 0.0
C119 C 0.23053 0.18604 0.48512 0.0
C120 C 0.23059 0.23195 0.49243 0.0
C121 C 0.2712 0.25874 0.48934 0.0
C122 C 0.37414 0.31205 0.42168 0.0
C123 C 0.41446 0.33948 0.4208 0.0
C124 C 0.42555 0.36538 0.3718 0.0
C125 C 0.39648 0.36432 0.32264 0.0
C126 C 0.35476 0.33865 0.32368 0.0
C127 C 0.34389 0.31231 0.3729 0.0
C128 C 0.9182 0.1347 0.45433 0.0
C129 C 0.84112 0.10547 0.4255 0.0
C130 C 0.88483 0.09997 0.46158 0.0
C131 C 0.83262 0.14486 0.38082 0.0
C132 C 0.90957 0.17463 0.41003 0.0
C133 C 0.86678 0.1793 0.37306 0.0
N134 N 0.96007 0.12839 0.4896 0.0
C135 C 0.99408 0.16135 0.48427 0.0
C136 C 0.94455 0.20835 0.40383 0.0
C137 C 0.98686 0.2018 0.44131 0.0
Gd138 Gd 0.03979 0.95271 0.52274 0.0
Gd139 Gd 0.97099 0.05791 0.55782 0.0
N140 N 0.8946 0.06151 0.5045 0.0
C141 C 0.8068 0.07176 0.43607 0.0
C142 C 0.8594 0.03132 0.51769 0.0
C143 C 0.81559 0.03515 0.48305 0.0
H144 H 0.864 0.00499 0.55558 0.0
H145 H 0.78832 0.01033 0.49314 0.0
H146 H 0.14981 0.9997 0.53541 0.0
H147 H 0.0269 0.15616 0.51305 0.0
H148 H 0.22463 0.98523 0.59986 0.0
H149 H 0.77274 0.07474 0.40943 0.0
H150 H 0.79946 0.14932 0.35239 0.0
H151 H 0.97659 0.85699 0.55642 0.0
H152 H 0.93927 0.2395 0.37028 0.0
H153 H 0.01404 0.22772 0.43691 0.0
H154 H 0.20384 0.83879 0.72487 0.0
H155 H 0.85965 0.20954 0.3385 0.0
H156 H 0.0572 0.76121 0.69491 0.0
H157 H 0.98346 0.78186 0.62709 0.0
N158 N 0.04465 0.8791 0.58534 0.0
C159 C 0.08615 0.86779 0.62097 0.0
C160 C 0.00838 0.8486 0.58653 0.0
C161 C 0.05423 0.79424 0.66412 0.0
C162 C 0.01247 0.80584 0.62606 0.0
C163 C 0.0918 0.82524 0.66183 0.0
H164 H 0.13922 0.78288 0.73124 0.0
N165 N 0.11561 0.94099 0.57823 0.0
C166 C 0.12247 0.89975 0.61759 0.0
C167 C 0.20211 0.92117 0.64904 0.0
C168 C 0.16558 0.88926 0.65468 0.0
C169 C 0.15257 0.9702 0.57013 0.0
C170 C 0.19585 0.96136 0.60598 0.0
O171 O 0.98405 0.06482 0.47351 0.0
O172 O 0.97607 0.99 0.46336 0.0
O173 O 0.07976 0.95524 0.45822 0.0
O174 O 0.03984 0.89392 0.48633 0.0
O175 O 0.94689 0.98282 0.58424 0.0
O176 O 0.96055 0.94836 0.51751 0.0
O177 O 0.03407 0.94792 0.60988 0.0
O178 O 0.03636 0.0245 0.61586 0.0
O179 O 0.93048 0.05876 0.62096 0.0
O180 O 0.9719 0.11839 0.59175 0.0
O181 O 0.06966 0.02613 0.50154 0.0
O182 O 0.04994 0.06658 0.56157 0.0
C183 C 0.97279 0.03571 0.44312 0.0
C184 C 0.9383 0.95035 0.55711 0.0
C185 C 0.04366 0.91601 0.39382 0.0
C186 C 0.05424 0.90842 0.30521 0.0
C187 C 0.97565 0.92447 0.32148 0.0
C188 C 0.99472 0.9241 0.37474 0.0
C189 C 0.0051 0.91653 0.2869 0.0
C190 C 0.07332 0.90845 0.35891 0.0
C191 C 0.064 0.91543 0.44997 0.0
C192 C 0.17111 0.84716 0.6958 0.0
C193 C 0.13435 0.81524 0.69934 0.0
H194 H 0.23574 0.91441 0.6767 0.0
C195 C 0.04711 0.97959 0.63661 0.0
C196 C 0.07612 0.06036 0.52662 0.0
C197 C 0.96806 0.09797 0.68425 0.0
C198 C 0.95852 0.10651 0.77276 0.0
C199 C 0.03573 0.0846 0.75749 0.0
C200 C 0.01648 0.08667 0.70387 0.0
C201 C 0.00705 0.09449 0.79179 0.0
C202 C 0.9392 0.10783 0.71874 0.0
C203 C 0.94731 0.09843 0.6283 0.0
H204 H 0.93792 0.93091 0.30697 0.0
H205 H 0.97123 0.92991 0.40104 0.0
H206 H 0.98953 0.91736 0.24561 0.0
H207 H 0.11107 0.90195 0.37378 0.0
H208 H 0.0731 0.07582 0.77235 0.0
H209 H 0.03948 0.07973 0.67772 0.0
H210 H 0.0232 0.09387 0.83284 0.0
H211 H 0.90176 0.11631 0.70354 0.0
C212 C 0.65676 0.55233 0.08835 0.0
C213 C 0.65599 0.63467 0.03927 0.0
C214 C 0.63207 0.595 0.06365 0.0
C215 C 0.70499 0.63085 0.04006 0.0
C216 C 0.70589 0.54833 0.089 0.0
C217 C 0.72984 0.58781 0.06477 0.0
N218 N 0.63257 0.51456 0.11085 0.0
C219 C 0.65538 0.47216 0.13587 0.0
C220 C 0.72941 0.50463 0.11367 0.0
C221 C 0.70405 0.46642 0.13732 0.0
Gd222 Gd 0.44876 0.49012 0.99737 0.0
Gd223 Gd 0.55119 0.52762 0.10519 0.0
N224 N 0.58425 0.59706 0.06142 0.0
C225 C 0.62982 0.67684 0.01429 0.0
C226 C 0.55888 0.63847 0.03889 0.0
C227 C 0.58113 0.67882 0.01447 0.0
H228 H 0.5216 0.64065 0.03982 0.0
H229 H 0.56075 0.71146 0.99599 0.0
H230 H 0.49331 0.37758 0.02828 0.0
H231 H 0.63614 0.443 0.15558 0.0
H232 H 0.47116 0.2985 0.07327 0.0
H233 H 0.64689 0.70811 0.99507 0.0
H234 H 0.72395 0.66092 0.02138 0.0
H235 H 0.35607 0.56177 0.98762 0.0
H236 H 0.76713 0.50009 0.11488 0.0
H237 H 0.722 0.43264 0.15695 0.0
H238 H 0.31608 0.32172 0.10999 0.0
H239 H 0.76758 0.58539 0.06481 0.0
H240 H 0.24728 0.47841 0.05508 0.0
H241 H 0.27599 0.556 0.01153 0.0
N242 N 0.37272 0.48855 0.0188 0.0
C243 C 0.35735 0.44534 0.04159 0.0
C244 C 0.34409 0.52793 0.00741 0.0
C245 C 0.28249 0.48077 0.04487 0.0
C246 C 0.29862 0.52468 0.02046 0.0
C247 C 0.31188 0.4404 0.0557 0.0
H248 H 0.26262 0.39113 0.09183 0.0
N249 N 0.43197 0.4121 0.03881 0.0
C250 C 0.38792 0.40614 0.05223 0.0
C251 C 0.40401 0.32219 0.08547 0.0
C252 C 0.37312 0.36107 0.07667 0.0
C253 C 0.46084 0.37389 0.04414 0.0
C254 C 0.44777 0.32858 0.06847 0.0
O255 O 0.56515 0.54109 0.01982 0.0
O256 O 0.49227 0.5515 0.96312 0.0
O257 O 0.44873 0.45635 0.93181 0.0
O258 O 0.39675 0.51168 0.92361 0.0
O259 O 0.47847 0.56371 0.08578 0.0
O260 O 0.44659 0.56678 0.99696 0.0
O261 O 0.43733 0.4828 0.08389 0.0
O262 O 0.51155 0.46221 0.13343 0.0
O263 O 0.53657 0.56997 0.15802 0.0
O264 O 0.59267 0.51594 0.1861 0.0
O265 O 0.52289 0.45757 0.01063 0.0
O266 O 0.55223 0.45209 0.10048 0.0
C267 C 0.53861 0.55545 0.97178 0.0
C268 C 0.45057 0.58351 0.03984 0.0
C269 C 0.37367 0.45181 0.87886 0.0
C270 C 0.34592 0.40775 0.81174 0.0
C271 C 0.29673 0.41605 0.8765 0.0
C272 C 0.33128 0.44255 0.89923 0.0
C273 C 0.30388 0.39872 0.83311 0.0
C274 C 0.38074 0.43447 0.835 0.0
C275 C 0.41072 0.4796 0.90253 0.0
C276 C 0.3279 0.35608 0.09101 0.0
C277 C 0.29738 0.3956 0.08054 0.0
H278 H 0.39394 0.28698 0.10408 0.0
C279 C 0.46529 0.46038 0.12859 0.0
C280 C 0.55314 0.43963 0.0555 0.0
C281 C 0.55309 0.53387 0.25108 0.0
C282 C 0.5636 0.53778 0.34496 0.0
C283 C 0.49906 0.49389 0.30838 0.0
C284 C 0.51325 0.5065 0.25815 0.0
C285 C 0.52408 0.50926 0.35166 0.0
C286 C 0.57798 0.54963 0.29429 0.0
C287 C 0.56838 0.54757 0.19851 0.0
H288 H 0.26412 0.40914 0.89239 0.0
H289 H 0.3246 0.45602 0.93235 0.0
H290 H 0.27616 0.37881 0.81576 0.0
H291 H 0.41357 0.44136 0.81943 0.0
H292 H 0.4684 0.47245 0.31367 0.0
H293 H 0.49299 0.49549 0.22467 0.0
H294 H 0.51252 0.49877 0.3903 0.0
H295 H 0.60783 0.57211 0.28786 0.0
C296 C 0.17385 0.12578 0.46008 0.0
C297 C 0.18926 0.1556 0.49385 0.0
H298 H 0.12592 0.07268 0.44358 0.0
C299 C 0.16633 0.15458 0.53772 0.0
H300 H 0.19039 0.1261 0.42559 0.0
C301 C 0.12943 0.12395 0.5481 0.0
C302 C 0.11454 0.0936 0.51484 0.0
H303 H 0.17776 0.17656 0.56501 0.0
H304 H 0.11312 0.12357 0.58278 0.0
C305 C 0.13686 0.0952 0.47039 0.0
C306 C 0.37557 0.6966 0.98513 0.0
C307 C 0.36925 0.70792 0.03292 0.0
H308 H 0.40589 0.64815 0.94976 0.0
C309 C 0.389 0.67756 0.08284 0.0
H310 H 0.36033 0.71921 0.94608 0.0
C311 C 0.41524 0.6371 0.08497 0.0
C312 C 0.42182 0.62586 0.0372 0.0
H313 H 0.38497 0.68561 0.12028 0.0
H314 H 0.43037 0.61463 0.12415 0.0
C315 C 0.40139 0.65582 0.98724 0.0
C316 C 0.86233 0.86669 0.64121 0.0
C317 C 0.84203 0.84034 0.60524 0.0
H318 H 0.90837 0.92235 0.65407 0.0
C319 C 0.85192 0.8521 0.55245 0.0
H320 H 0.85503 0.85885 0.68196 0.0
C321 C 0.88234 0.8885 0.53646 0.0
C322 C 0.90358 0.91398 0.57287 0.0
H323 H 0.83731 0.83219 0.5239 0.0
H324 H 0.8899 0.89613 0.49581 0.0
C325 C 0.89261 0.90327 0.62512 0.0
C326 C 0.64234 0.37245 0.00887 0.0
C327 C 0.66299 0.34051 0.05746 0.0
H328 H 0.59134 0.42897 0.97026 0.0
C329 C 0.64469 0.33929 0.10456 0.0
H330 H 0.65589 0.37469 0.97199 0.0
C331 C 0.60804 0.37064 0.10359 0.0
C332 C 0.58891 0.40384 0.05553 0.0
H333 H 0.65917 0.31451 0.14242 0.0
H334 H 0.59512 0.36933 0.14066 0.0
C335 C 0.60552 0.40371 0.00789 0.0
C336 C 0.15638 0.91807 0.22811 0.0
C337 C 0.14234 0.88862 0.19343 0.0
H338 H 0.13949 0.94756 0.29033 0.0
C339 C 0.09994 0.86436 0.19745 0.0
H340 H 0.18839 0.93789 0.22562 0.0
C341 C 0.07171 0.87035 0.23416 0.0
C342 C 0.08537 0.90043 0.26804 0.0
H343 H 0.08845 0.84071 0.17217 0.0
H344 H 0.03917 0.85131 0.23612 0.0
C345 C 0.1283 0.92376 0.26512 0.0
C346 C 0.6357 0.59978 0.89144 0.0
C347 C 0.60978 0.61973 0.83975 0.0
H348 H 0.6339 0.56199 0.97237 0.0
C349 C 0.55993 0.6194 0.83162 0.0
H350 H 0.67415 0.59851 0.89859 0.0
C351 C 0.53649 0.59934 0.87457 0.0
C352 C 0.56256 0.57858 0.9262 0.0
H353 H 0.53915 0.63433 0.79196 0.0
H354 H 0.49807 0.59953 0.8671 0.0
C355 C 0.61244 0.57893 0.93387 0.0
C356 C 0.90641 0.0589 0.29929 0.0
C357 C 0.92401 0.10289 0.27617 0.0
H358 H 0.90885 0.00222 0.37086 0.0
C359 C 0.95944 0.12261 0.3076 0.0
H360 H 0.87912 0.04294 0.27581 0.0
C361 C 0.97622 0.09955 0.36122 0.0
C362 C 0.95807 0.05619 0.3848 0.0
H363 H 0.97316 0.15676 0.29125 0.0
H364 H 0.00287 0.11627 0.38466 0.0
C365 C 0.92364 0.03547 0.35329 0.0
C366 C 0.37657 0.40029 0.67739 0.0
C367 C 0.36331 0.35432 0.67571 0.0
H368 H 0.38164 0.45322 0.72168 0.0
C369 C 0.34517 0.32598 0.71951 0.0
H370 H 0.39097 0.42289 0.64448 0.0
C371 C 0.34011 0.34318 0.76371 0.0
C372 C 0.35307 0.38919 0.76535 0.0
H373 H 0.33408 0.29061 0.7193 0.0
H374 H 0.3261 0.3203 0.79675 0.0
C375 C 0.37169 0.41748 0.72185 0.0
C376 C 0.66255 0.5779 0.43964 0.0
C377 C 0.63736 0.59279 0.47463 0.0
H378 H 0.65939 0.54791 0.37233 0.0
C379 C 0.58775 0.589 0.46689 0.0
H380 H 0.7007 0.58072 0.44404 0.0
C381 C 0.56393 0.57102 0.42507 0.0
C382 C 0.58912 0.55605 0.39013 0.0
H383 H 0.56724 0.59944 0.49354 0.0
H384 H 0.52564 0.56943 0.41976 0.0
C385 C 0.63876 0.55959 0.39805 0.0
C386 C 0.91188 0.11136 0.89898 0.0
C387 C 0.88219 0.15218 0.88043 0.0
H388 H 0.95856 0.06444 0.87939 0.0
C389 C 0.87398 0.17491 0.82502 0.0
H390 H 0.91935 0.09315 0.94144 0.0
C391 C 0.89717 0.15886 0.78956 0.0
C392 C 0.929 0.11967 0.80875 0.0
H393 H 0.85081 0.20606 0.80931 0.0
H394 H 0.89186 0.17856 0.74762 0.0
C395 C 0.93494 0.09527 0.86353 0.0
C396 C 0.45882 0.37886 0.2649 0.0
C397 C 0.41207 0.38692 0.27086 0.0
H398 H 0.51165 0.39465 0.21506 0.0
C399 C 0.38137 0.41687 0.22774 0.0
H400 H 0.48302 0.35526 0.29702 0.0
C401 C 0.39798 0.44004 0.18053 0.0
C402 C 0.4453 0.43298 0.17545 0.0
H403 H 0.3451 0.42361 0.23129 0.0
H404 H 0.37429 0.4646 0.14895 0.0
C405 C 0.47512 0.40132 0.21774 0.0
C406 C 0.13722 0.98343 0.75967 0.0
C407 C 0.13306 0.93898 0.79461 0.0
H408 H 0.11359 0.03075 0.68231 0.0
C409 C 0.10079 0.90743 0.77647 0.0
H410 H 0.16247 0.00819 0.77169 0.0
C411 C 0.07297 0.92035 0.72488 0.0
C412 C 0.07676 0.96508 0.69065 0.0
H413 H 0.09633 0.87307 0.80245 0.0
H414 H 0.04792 0.89571 0.71216 0.0
C415 C 0.10929 0.99636 0.70838 0.0
loop_
_geom_bond_atom_site_label_1
_geom_bond_atom_site_label_2
_geom_bond_distance
_geom_bond_site_symmetry_2
_ccdc_geom_bond_type
P0 O11 1.490 . S
P0 C14 1.812 . S
P0 C20 1.803 . S
P0 C26 1.819 1_554 S
H1 C15 0.941 . S
H2 C16 0.939 . S
H3 C18 0.940 . S
H4 C19 0.940 . S
H5 C21 0.939 1_556 S
H6 C22 0.942 . S
H7 C24 0.940 . S
H8 C25 0.939 . S
H9 C27 0.941 . S
H10 C31 0.939 . S
O11 P0 1.490 . S
H12 C28 0.939 1_545 S
H13 C30 0.940 . S
C14 P0 1.812 . S
C14 C15 1.389 . S
C14 C19 1.391 . S
C15 H1 0.941 . S
C15 C14 1.389 . S
C15 C16 1.397 . S
C16 H2 0.939 . S
C16 C15 1.397 . S
C16 C17 1.378 . S
C17 C16 1.378 . S
C17 C18 1.378 . S
C18 H3 0.940 . S
C18 C17 1.378 . S
C18 C19 1.396 . S
C19 H4 0.940 . S
C19 C14 1.391 . S
C19 C18 1.396 . S
C20 P0 1.803 . S
C20 C21 1.378 . S
C20 C25 1.400 . S
C21 H5 0.939 1_554 S
C21 C20 1.378 . S
C21 C22 1.361 . S
C22 H6 0.942 . S
C22 C21 1.361 . S
C22 C23 1.369 . S
C23 C22 1.369 . S
C23 C24 1.404 . S
C24 H7 0.940 . S
C24 C23 1.404 . S
C24 C25 1.389 . S
C25 H8 0.939 . S
C25 C20 1.400 . S
C25 C24 1.389 . S
C26 P0 1.819 1_556 S
C26 C27 1.391 . S
C26 C31 1.391 . S
C27 H9 0.941 . S
C27 C26 1.391 . S
C27 C28 1.396 . S
C28 H12 0.939 1_565 S
C28 C27 1.396 . S
C28 C29 1.397 . S
C29 C28 1.397 . S
C29 C30 1.385 . S
C30 H13 0.940 . S
C30 C29 1.385 . S
C30 C31 1.388 . S
C31 H10 0.939 . S
C31 C26 1.391 . S
C31 C30 1.388 . S
P32 O43 1.490 . S
P32 C46 1.812 . S
P32 C52 1.803 . S
P32 C58 1.819 . S
H33 C47 0.941 . S
H34 C48 0.939 . S
H35 C50 0.940 . S
H36 C51 0.940 . S
H37 C53 0.939 . S
H38 C54 0.942 . S
H39 C56 0.940 . S
H40 C57 0.939 . S
H41 C59 0.941 . S
H42 C63 0.939 . S
O43 P32 1.490 . S
H44 C60 0.939 . S
H45 C62 0.940 . S
C46 P32 1.812 . S
C46 C47 1.389 . S
C46 C51 1.391 . S
C47 H33 0.941 . S
C47 C46 1.389 . S
C47 C48 1.397 . S
C48 H34 0.939 . S
C48 C47 1.397 . S
C48 C49 1.378 . S
C49 C48 1.378 . S
C49 C50 1.378 . S
C50 H35 0.940 . S
C50 C49 1.378 . S
C50 C51 1.396 . S
C51 H36 0.940 . S
C51 C46 1.391 . S
C51 C50 1.396 . S
C52 P32 1.803 . S
C52 C53 1.378 . S
C52 C57 1.400 . S
C53 H37 0.939 . S
C53 C52 1.378 . S
C53 C54 1.361 . S
C54 H38 0.942 . S
C54 C53 1.361 . S
C54 C55 1.369 . S
C55 C54 1.369 . S
C55 C56 1.404 . S
C56 H39 0.940 . S
C56 C55 1.404 . S
C56 C57 1.389 . S
C57 H40 0.939 . S
C57 C52 1.400 . S
C57 C56 1.389 . S
C58 P32 1.819 . S
C58 C59 1.391 . S
C58 C63 1.391 . S
C59 H41 0.941 . S
C59 C58 1.391 . S
C59 C60 1.396 . S
C60 H44 0.939 . S
C60 C59 1.396 . S
C60 C61 1.397 . S
C61 C60 1.397 . S
C61 C62 1.385 . S
C62 H45 0.940 . S
C62 C61 1.385 . S
C62 C63 1.388 . S
C63 H42 0.939 . S
C63 C58 1.391 . S
C63 C62 1.388 . S
P64 O75 1.490 . S
P64 C78 1.812 . S
P64 C84 1.803 . S
P64 C90 1.819 . S
H65 C79 0.941 . S
H66 C80 0.939 . S
H67 C82 0.940 1_554 S
H68 C83 0.940 . S
H69 C85 0.939 . S
H70 C86 0.942 . S
H71 C88 0.940 . S
H72 C89 0.939 . S
H73 C91 0.941 . S
H74 C95 0.939 . S
O75 P64 1.490 . S
H76 C92 0.939 . S
H77 C94 0.940 . S
C78 P64 1.812 . S
C78 C79 1.389 1_554 S
C78 C83 1.391 . S
C79 H65 0.941 . S
C79 C78 1.389 1_556 S
C79 C80 1.397 . S
C80 H66 0.939 . S
C80 C79 1.397 . S
C80 C81 1.378 . S
C81 C80 1.378 . S
C81 C82 1.378 . S
C82 H67 0.940 1_556 S
C82 C81 1.378 . S
C82 C83 1.396 1_556 S
C83 H68 0.940 . S
C83 C78 1.391 . S
C83 C82 1.396 1_554 S
C84 P64 1.803 . S
C84 C85 1.378 . S
C84 C89 1.400 . S
C85 H69 0.939 . S
C85 C84 1.378 . S
C85 C86 1.361 . S
C86 H70 0.942 . S
C86 C85 1.361 . S
C86 C87 1.369 . S
C87 C86 1.369 . S
C87 C88 1.404 . S
C88 H71 0.940 . S
C88 C87 1.404 . S
C88 C89 1.389 . S
C89 H72 0.939 . S
C89 C84 1.400 . S
C89 C88 1.389 . S
C90 P64 1.819 . S
C90 C91 1.391 . S
C90 C95 1.391 . S
C91 H73 0.941 . S
C91 C90 1.391 . S
C91 C92 1.396 . S
C92 H76 0.939 . S
C92 C91 1.396 . S
C92 C93 1.397 . S
C93 C92 1.397 . S
C93 C94 1.385 . S
C94 H77 0.940 . S
C94 C93 1.385 . S
C94 C95 1.388 . S
C95 H74 0.939 . S
C95 C90 1.391 . S
C95 C94 1.388 . S
P96 O107 1.490 . S
P96 C110 1.812 . S
P96 C116 1.803 . S
P96 C122 1.819 . S
H97 C111 0.941 . S
H98 C112 0.939 . S
H99 C114 0.940 . S
H100 C115 0.940 . S
H101 C117 0.939 . S
H102 C118 0.942 . S
H103 C120 0.940 . S
H104 C121 0.939 . S
H105 C123 0.941 . S
H106 C127 0.939 . S
O107 P96 1.490 . S
H108 C124 0.939 . S
H109 C126 0.940 . S
C110 P96 1.812 . S
C110 C111 1.389 . S
C110 C115 1.391 . S
C111 H97 0.941 . S
C111 C110 1.389 . S
C111 C112 1.397 . S
C112 H98 0.939 . S
C112 C111 1.397 . S
C112 C113 1.378 . S
C113 C112 1.378 . S
C113 C114 1.378 . S
C114 H99 0.940 . S
C114 C113 1.378 . S
C114 C115 1.396 . S
C115 H100 0.940 . S
C115 C110 1.391 . S
C115 C114 1.396 . S
C116 P96 1.803 . S
C116 C117 1.378 . S
C116 C121 1.400 . S
C117 H101 0.939 . S
C117 C116 1.378 . S
C117 C118 1.361 . S
C118 H102 0.942 . S
C118 C117 1.361 . S
C118 C119 1.369 . S
C119 C118 1.369 . S
C119 C120 1.404 . S
C120 H103 0.940 . S
C120 C119 1.404 . S
C120 C121 1.389 . S
C121 H104 0.939 . S
C121 C116 1.400 . S
C121 C120 1.389 . S
C122 P96 1.819 . S
C122 C123 1.391 . S
C122 C127 1.391 . S
C123 H105 0.941 . S
C123 C122 1.391 . S
C123 C124 1.396 . S
C124 H108 0.939 . S
C124 C123 1.396 . S
C124 C125 1.397 . S
C125 C124 1.397 . S
C125 C126 1.385 . S
C126 H109 0.940 . S
C126 C125 1.385 . S
C126 C127 1.388 . S
C127 H106 0.939 . S
C127 C122 1.391 . S
C127 C126 1.388 . S
C128 C130 1.422 . S
C128 C132 1.415 . S
C128 N134 1.369 . S
C129 C130 1.421 . S
C129 C131 1.417 . S
C129 C141 1.422 . S
C130 C128 1.422 . S
C130 C129 1.421 . S
C130 N140 1.359 . S
C131 C129 1.417 . S
C131 C133 1.329 . S
C131 H150 0.930 . S
C132 C128 1.415 . S
C132 C133 1.437 . S
C132 C136 1.413 . S
C133 C131 1.329 . S
C133 C132 1.437 . S
C133 H155 0.929 . S
N134 C128 1.369 . S
N134 C135 1.358 . S
N134 Gd139 2.622 . S
C135 N134 1.358 . S
C135 C137 1.379 . S
C135 H147 0.908 1_655 S
C136 C132 1.413 . S
C136 C137 1.348 . S
C136 H152 0.931 . S
C137 C135 1.379 . S
C137 C136 1.348 . S
C137 H153 0.930 1_655 S
Gd138 N158 2.622 . S
Gd138 N165 2.570 . S
Gd138 O172 2.353 1_465 S
Gd138 O173 2.468 . S
Gd138 O174 2.427 . S
Gd138 O176 2.388 1_455 S
Gd138 O177 2.386 . S
Gd138 O181 2.307 1_565 S
Gd138 C191 2.805 . S
Gd139 N134 2.622 . S
Gd139 N140 2.570 . S
Gd139 O171 2.386 . S
Gd139 O175 2.307 1_545 S
Gd139 O178 2.353 1_655 S
Gd139 O179 2.468 . S
Gd139 O180 2.427 . S
Gd139 O182 2.388 1_655 S
Gd139 C203 2.805 . S
N140 C130 1.359 . S
N140 Gd139 2.570 . S
N140 C142 1.343 . S
C141 C129 1.422 . S
C141 C143 1.321 . S
C141 H149 0.931 . S
C142 N140 1.343 . S
C142 C143 1.390 . S
C142 H144 0.931 . S
C143 C141 1.321 . S
C143 C142 1.390 . S
C143 H145 0.930 . S
H144 C142 0.931 . S
H145 C143 0.930 . S
H146 C169 0.931 . S
H147 C135 0.908 1_455 S
H148 C170 0.930 . S
H149 C141 0.931 . S
H150 C131 0.930 . S
H151 C160 0.929 1_655 S
H152 C136 0.931 . S
H153 C137 0.930 1_455 S
H154 C192 0.930 . S
H155 C133 0.929 . S
H156 C161 0.931 . S
H157 C162 0.930 1_655 S
N158 Gd138 2.622 . S
N158 C159 1.369 . S
N158 C160 1.338 . S
C159 N158 1.369 . S
C159 C163 1.415 . S
C159 C166 1.422 . S
C160 H151 0.929 1_455 S
C160 N158 1.338 . S
C160 C162 1.378 . S
C161 H156 0.931 . S
C161 C162 1.348 . S
C161 C163 1.413 . S
C162 H157 0.930 1_455 S
C162 C160 1.378 . S
C162 C161 1.348 . S
C163 C159 1.415 . S
C163 C161 1.413 . S
C163 C193 1.437 . S
H164 C193 0.929 . S
N165 Gd138 2.570 . S
N165 C166 1.359 . S
N165 C169 1.343 . S
C166 C159 1.422 . S
C166 N165 1.359 . S
C166 C168 1.421 . S
C167 C168 1.422 . S
C167 C170 1.321 . S
C167 H194 0.931 . S
C168 C166 1.421 . S
C168 C167 1.422 . S
C168 C192 1.417 . S
C169 H146 0.931 . S
C169 N165 1.343 . S
C169 C170 1.390 . S
C170 H148 0.930 . S
C170 C167 1.321 . S
C170 C169 1.390 . S
O171 Gd139 2.386 . S
O171 C183 1.265 . S
O172 Gd138 2.353 1_645 S
O172 C183 1.242 . S
O173 Gd138 2.468 . S
O173 C191 1.263 . S
O174 Gd138 2.427 . S
O174 C191 1.252 . S
O175 Gd139 2.307 1_565 S
O175 C184 1.261 . S
O176 Gd138 2.388 1_655 S
O176 C184 1.252 . S
O177 Gd138 2.386 . S
O177 C195 1.265 . S
O178 Gd139 2.353 1_455 S
O178 C195 1.242 1_545 S
O179 Gd139 2.468 . S
O179 C203 1.263 . S
O180 Gd139 2.427 . S
O180 C203 1.252 . S
O181 Gd138 2.307 1_545 S
O181 C196 1.261 . S
O182 Gd139 2.388 1_455 S
O182 C196 1.252 . S
C183 O171 1.265 . S
C183 O172 1.242 . S
C184 O175 1.261 . S
C184 O176 1.252 . S
C185 C188 1.394 . S
C185 C190 1.370 . S
C185 C191 1.500 . S
C186 C189 1.383 . S
C186 C190 1.395 . S
C187 C188 1.396 . S
C187 C189 1.365 . S
C187 H204 0.929 . S
C188 C185 1.394 . S
C188 C187 1.396 . S
C188 H205 0.930 . S
C189 C186 1.383 . S
C189 C187 1.365 . S
C189 H206 0.931 . S
C190 C185 1.370 . S
C190 C186 1.395 . S
C190 H207 0.930 . S
C191 Gd138 2.805 . S
C191 O173 1.263 . S
C191 O174 1.252 . S
C191 C185 1.500 . S
C192 H154 0.930 . S
C192 C168 1.417 . S
C192 C193 1.329 . S
C193 C163 1.437 . S
C193 H164 0.929 . S
C193 C192 1.329 . S
H194 C167 0.931 . S
C195 O177 1.265 . S
C195 O178 1.242 1_565 S
C196 O181 1.261 . S
C196 O182 1.252 . S
C197 C200 1.394 . S
C197 C202 1.370 . S
C197 C203 1.500 . S
C198 C201 1.383 . S
C198 C202 1.395 . S
C199 C200 1.396 . S
C199 C201 1.365 . S
C199 H208 0.929 . S
C200 C197 1.394 . S
C200 C199 1.396 . S
C200 H209 0.930 . S
C201 C198 1.383 . S
C201 C199 1.365 . S
C201 H210 0.931 . S
C202 C197 1.370 . S
C202 C198 1.395 . S
C202 H211 0.930 . S
C203 Gd139 2.805 . S
C203 O179 1.263 . S
C203 O180 1.252 . S
C203 C197 1.500 . S
H204 C187 0.929 . S
H205 C188 0.930 . S
H206 C189 0.931 . S
H207 C190 0.930 . S
H208 C199 0.929 . S
H209 C200 0.930 . S
H210 C201 0.931 . S
H211 C202 0.930 . S
C212 C214 1.422 . S
C212 C216 1.415 . S
C212 N218 1.369 . S
C213 C214 1.421 . S
C213 C215 1.417 . S
C213 C225 1.422 . S
C214 C212 1.422 . S
C214 C213 1.421 . S
C214 N224 1.359 . S
C215 C213 1.417 . S
C215 C217 1.329 . S
C215 H234 0.930 . S
C216 C212 1.415 . S
C216 C217 1.437 . S
C216 C220 1.413 . S
C217 C215 1.329 . S
C217 C216 1.437 . S
C217 H239 0.929 . S
N218 C212 1.369 . S
N218 C219 1.338 . S
N218 Gd223 2.622 . S
C219 N218 1.338 . S
C219 C221 1.378 . S
C219 H231 0.929 . S
C220 C216 1.413 . S
C220 C221 1.348 . S
C220 H236 0.931 . S
C221 C219 1.378 . S
C221 C220 1.348 . S
C221 H237 0.930 . S
Gd222 N242 2.620 1_556 S
Gd222 N249 2.569 1_556 S
Gd222 O256 2.357 . S
Gd222 O257 2.475 . S
Gd222 O258 2.434 . S
Gd222 O260 2.385 1_556 S
Gd222 O261 2.378 1_556 S
Gd222 O265 2.305 1_556 S
Gd222 C275 2.813 . S
Gd223 N218 2.622 . S
Gd223 N224 2.570 . S
Gd223 O255 2.386 . S
Gd223 O259 2.307 . S
Gd223 O262 2.353 . S
Gd223 O263 2.468 . S
Gd223 O264 2.427 . S
Gd223 O266 2.388 . S
Gd223 C287 2.805 . S
N224 C214 1.359 . S
N224 Gd223 2.570 . S
N224 C226 1.343 . S
C225 C213 1.422 . S
C225 C227 1.321 . S
C225 H233 0.931 . S
C226 N224 1.343 . S
C226 C227 1.390 . S
C226 H228 0.931 . S
C227 C225 1.321 . S
C227 C226 1.390 . S
C227 H229 0.930 . S
H228 C226 0.931 . S
H229 C227 0.930 . S
H230 C253 0.931 . S
H231 C219 0.929 . S
H232 C254 0.930 . S
H233 C225 0.931 . S
H234 C215 0.930 . S
H235 C244 0.929 . S
H236 C220 0.931 . S
H237 C221 0.930 . S
H238 C276 0.930 . S
H239 C217 0.929 . S
H240 C245 0.931 . S
H241 C246 0.930 . S
N242 Gd222 2.620 1_554 S
N242 C243 1.369 . S
N242 C244 1.338 1_554 S
C243 N242 1.369 . S
C243 C247 1.415 . S
C243 C250 1.422 . S
C244 H235 0.929 . S
C244 N242 1.338 1_556 S
C244 C246 1.378 . S
C245 H240 0.931 . S
C245 C246 1.348 1_554 S
C245 C247 1.413 . S
C246 H241 0.930 . S
C246 C244 1.378 . S
C246 C245 1.348 1_556 S
C247 C243 1.415 . S
C247 C245 1.413 . S
C247 C277 1.437 . S
H248 C277 0.929 . S
N249 Gd222 2.569 1_554 S
N249 C250 1.359 . S
N249 C253 1.343 . S
C250 C243 1.422 . S
C250 N249 1.359 . S
C250 C252 1.421 . S
C251 C252 1.422 . S
C251 C254 1.321 . S
C251 H278 0.931 . S
C252 C250 1.421 . S
C252 C251 1.422 . S
C252 C276 1.417 . S
C253 H230 0.931 . S
C253 N249 1.343 . S
C253 C254 1.390 . S
C254 H232 0.930 . S
C254 C251 1.321 . S
C254 C253 1.390 . S
O255 Gd223 2.386 . S
O255 C267 1.265 1_554 S
O256 Gd222 2.357 . S
O256 C267 1.242 . S
O257 Gd222 2.475 . S
O257 C275 1.263 . S
O258 Gd222 2.434 . S
O258 C275 1.252 . S
O259 Gd223 2.307 . S
O259 C268 1.261 . S
O260 Gd222 2.385 1_554 S
O260 C268 1.252 . S
O261 Gd222 2.378 1_554 S
O261 C279 1.265 . S
O262 Gd223 2.353 . S
O262 C279 1.242 . S
O263 Gd223 2.468 . S
O263 C287 1.263 . S
O264 Gd223 2.427 . S
O264 C287 1.252 . S
O265 Gd222 2.305 1_554 S
O265 C280 1.261 . S
O266 Gd223 2.388 . S
O266 C280 1.252 . S
C267 O255 1.265 1_556 S
C267 O256 1.242 . S
C268 O259 1.261 . S
C268 O260 1.252 . S
C269 C272 1.394 . S
C269 C274 1.370 . S
C269 C275 1.500 . S
C270 C273 1.383 . S
C270 C274 1.395 . S
C271 C272 1.396 . S
C271 C273 1.365 . S
C271 H288 0.929 . S
C272 C269 1.394 . S
C272 C271 1.396 . S
C272 H289 0.930 . S
C273 C270 1.383 . S
C273 C271 1.365 . S
C273 H290 0.931 . S
C274 C269 1.370 . S
C274 C270 1.395 . S
C274 H291 0.930 . S
C275 Gd222 2.813 . S
C275 O257 1.263 . S
C275 O258 1.252 . S
C275 C269 1.500 . S
C276 H238 0.930 . S
C276 C252 1.417 . S
C276 C277 1.329 . S
C277 C247 1.437 . S
C277 H248 0.929 . S
C277 C276 1.329 . S
H278 C251 0.931 . S
C279 O261 1.265 . S
C279 O262 1.242 . S
C280 O265 1.261 . S
C280 O266 1.252 . S
C281 C284 1.394 . S
C281 C286 1.370 . S
C281 C287 1.500 . S
C282 C285 1.383 . S
C282 C286 1.395 . S
C283 C284 1.396 . S
C283 C285 1.365 . S
C283 H292 0.929 . S
C284 C281 1.394 . S
C284 C283 1.396 . S
C284 H293 0.930 . S
C285 C282 1.383 . S
C285 C283 1.365 . S
C285 H294 0.931 . S
C286 C281 1.370 . S
C286 C282 1.395 . S
C286 H295 0.930 . S
C287 Gd223 2.805 . S
C287 O263 1.263 . S
C287 O264 1.252 . S
C287 C281 1.500 . S
H288 C271 0.929 . S
H289 C272 0.930 . S
H290 C273 0.931 . S
H291 C274 0.930 . S
H292 C283 0.929 . S
H293 C284 0.930 . S
H294 C285 0.931 . S
H295 C286 0.930 . S
C296 C297 1.387 . S
C296 H300 0.950 . S
C296 C305 1.390 . S
C297 C296 1.387 . S
C297 C299 1.387 . S
H298 C305 0.950 . S
C299 C297 1.387 . S
C299 C301 1.390 . S
C299 H303 0.950 . S
H300 C296 0.950 . S
C301 C299 1.390 . S
C301 C302 1.387 . S
C301 H304 0.950 . S
C302 C301 1.387 . S
C302 C305 1.387 . S
H303 C299 0.950 . S
H304 C301 0.950 . S
C305 C296 1.390 . S
C305 H298 0.950 . S
C305 C302 1.387 . S
C306 C307 1.387 1_556 S
C306 H310 0.950 . S
C306 C315 1.390 . S
C307 C306 1.387 1_554 S
C307 C309 1.387 . S
H308 C315 0.950 . S
C309 C307 1.387 . S
C309 C311 1.390 . S
C309 H313 0.950 . S
H310 C306 0.950 . S
C311 C309 1.390 . S
C311 C312 1.387 . S
C311 H314 0.950 . S
C312 C311 1.387 . S
C312 C315 1.387 1_554 S
H313 C309 0.950 . S
H314 C311 0.950 . S
C315 C306 1.390 . S
C315 H308 0.950 . S
C315 C312 1.387 1_556 S
C316 C317 1.387 . S
C316 H320 0.950 . S
C316 C325 1.390 . S
C317 C316 1.387 . S
C317 C319 1.387 . S
H318 C325 0.950 . S
C319 C317 1.387 . S
C319 C321 1.390 . S
C319 H323 0.950 . S
H320 C316 0.950 . S
C321 C319 1.390 . S
C321 C322 1.387 . S
C321 H324 0.950 . S
C322 C321 1.387 . S
C322 C325 1.387 . S
H323 C319 0.950 . S
H324 C321 0.950 . S
C325 C316 1.390 . S
C325 H318 0.950 . S
C325 C322 1.387 . S
C326 C327 1.387 . S
C326 H330 0.950 1_554 S
C326 C335 1.390 . S
C327 C326 1.387 . S
C327 C329 1.387 . S
H328 C335 0.950 1_556 S
C329 C327 1.387 . S
C329 C331 1.390 . S
C329 H333 0.950 . S
H330 C326 0.950 1_556 S
C331 C329 1.390 . S
C331 C332 1.387 . S
C331 H334 0.950 . S
C332 C331 1.387 . S
C332 C335 1.387 . S
H333 C329 0.950 . S
H334 C331 0.950 . S
C335 C326 1.390 . S
C335 H328 0.950 1_554 S
C335 C332 1.387 . S
C336 C337 1.387 . S
C336 H340 0.950 . S
C336 C345 1.390 . S
C337 C336 1.387 . S
C337 C339 1.387 . S
H338 C345 0.950 1_545 S
C339 C337 1.387 . S
C339 C341 1.390 . S
C339 H343 0.950 . S
H340 C336 0.950 . S
C341 C339 1.390 . S
C341 C342 1.387 . S
C341 H344 0.950 . S
C342 C341 1.387 . S
C342 C345 1.387 . S
H343 C339 0.950 . S
H344 C341 0.950 . S
C345 C336 1.390 . S
C345 H338 0.950 1_565 S
C345 C342 1.387 . S
C346 C347 1.387 . S
C346 H350 0.950 . S
C346 C355 1.390 . S
C347 C346 1.387 . S
C347 C349 1.387 . S
H348 C355 0.950 . S
C349 C347 1.387 . S
C349 C351 1.390 . S
C349 H353 0.950 . S
H350 C346 0.950 . S
C351 C349 1.390 . S
C351 C352 1.387 . S
C351 H354 0.950 . S
C352 C351 1.387 . S
C352 C355 1.387 . S
H353 C349 0.950 . S
H354 C351 0.950 . S
C355 C346 1.390 . S
C355 H348 0.950 . S
C355 C352 1.387 . S
C356 C357 1.387 . S
C356 H360 0.950 1_545 S
C356 C365 1.390 . S
C357 C356 1.387 . S
C357 C359 1.387 . S
H358 C365 0.950 1_565 S
C359 C357 1.387 . S
C359 C361 1.390 . S
C359 H363 0.950 . S
H360 C356 0.950 1_565 S
C361 C359 1.390 . S
C361 C362 1.387 . S
C361 H364 0.950 . S
C362 C361 1.387 . S
C362 C365 1.387 . S
H363 C359 0.950 . S
H364 C361 0.950 . S
C365 C356 1.390 . S
C365 H358 0.950 1_545 S
C365 C362 1.387 . S
C366 C367 1.387 . S
C366 H370 0.950 . S
C366 C375 1.390 . S
C367 C366 1.387 . S
C367 C369 1.387 . S
H368 C375 0.950 . S
C369 C367 1.387 . S
C369 C371 1.390 . S
C369 H373 0.950 . S
H370 C366 0.950 . S
C371 C369 1.390 . S
C371 C372 1.387 . S
C371 H374 0.950 . S
C372 C371 1.387 . S
C372 C375 1.387 . S
H373 C369 0.950 . S
H374 C371 0.950 . S
C375 C366 1.390 . S
C375 H368 0.950 . S
C375 C372 1.387 . S
C376 C377 1.387 . S
C376 H380 0.950 . S
C376 C385 1.390 . S
C377 C376 1.387 . S
C377 C379 1.387 . S
H378 C385 0.950 . S
C379 C377 1.387 . S
C379 C381 1.390 . S
C379 H383 0.950 . S
H380 C376 0.950 . S
C381 C379 1.390 . S
C381 C382 1.387 . S
C381 H384 0.950 . S
C382 C381 1.387 . S
C382 C385 1.387 . S
H383 C379 0.950 . S
H384 C381 0.950 . S
C385 C376 1.390 . S
C385 H378 0.950 . S
C385 C382 1.387 . S
C386 C387 1.387 . S
C386 H390 0.950 . S
C386 C395 1.390 . S
C387 C386 1.387 . S
C387 C389 1.387 . S
H388 C395 0.950 1_565 S
C389 C387 1.387 . S
C389 C391 1.390 . S
C389 H393 0.950 . S
H390 C386 0.950 . S
C391 C389 1.390 . S
C391 C392 1.387 . S
C391 H394 0.950 . S
C392 C391 1.387 . S
C392 C395 1.387 . S
H393 C389 0.950 . S
H394 C391 0.950 . S
C395 C386 1.390 . S
C395 H388 0.950 1_545 S
C395 C392 1.387 . S
C396 C397 1.387 . S
C396 H400 0.950 . S
C396 C405 1.390 . S
C397 C396 1.387 . S
C397 C399 1.387 . S
H398 C405 0.950 . S
C399 C397 1.387 . S
C399 C401 1.390 . S
C399 H403 0.950 . S
H400 C396 0.950 . S
C401 C399 1.390 . S
C401 C402 1.387 . S
C401 H404 0.950 . S
C402 C401 1.387 . S
C402 C405 1.387 . S
H403 C399 0.950 . S
H404 C401 0.950 . S
C405 C396 1.390 . S
C405 H398 0.950 . S
C405 C402 1.387 . S
C406 C407 1.387 . S
C406 H410 0.950 1_565 S
C406 C415 1.391 1_565 S
C407 C406 1.387 . S
C407 C409 1.387 . S
H408 C415 0.957 . S
C409 C407 1.387 . S
C409 C411 1.390 . S
C409 H413 0.950 . S
H410 C406 0.950 1_545 S
C411 C409 1.390 . S
C411 C412 1.387 . S
C411 H414 0.950 . S
C412 C411 1.387 . S
C412 C415 1.379 1_565 S
H413 C409 0.950 . S
H414 C411 0.950 . S
C415 C406 1.391 1_545 S
C415 H408 0.957 . S
C415 C412 1.379 1_545 S
C302 C196 1.651 . S
C297 C119 1.633 . S
C307 C23 1.638 . S
C312 C268 1.618 . S
C317 C55 1.565 . S
C322 C184 1.652 . S
C327 C87 1.521 . S
C332 C280 1.618 . S
C342 C186 1.394 . S
C337 C17 1.537 . S
C352 C267 1.617 . S
C347 C61 1.534 . S
C357 C93 1.495 . S
C362 C183 1.632 . S
C367 C113 1.517 . S
C372 C270 1.398 . S
C382 C282 1.397 . S
C377 C49 1.488 . S
C392 C198 1.395 . S
C387 C81 1.489 . S
C402 C279 1.616 . S
C397 C125 1.607 . S
C407 C29 1.633 . S
C412 C195 1.632 . S
