# Generated by pormake.
# Topology rtl, (3,6)-cn, num edge types: 1
# Building blocks:
#     Node 0, Type 0, BuildingBlock: PAMTOO_clean_linker_0, # of connection points: 3
#     Node 1, Type 0, BuildingBlock: PAMTOO_clean_linker_0, # of connection points: 3
#     Node 2, Type 0, BuildingBlock: PAMTOO_clean_linker_0, # of connection points: 3
#     Node 3, Type 0, BuildingBlock: PAMTOO_clean_linker_0, # of connection points: 3
#     Node 4, Type 1, BuildingBlock: KUMBUR_clean_sbu_1, # of connection points: 6
#     Node 5, Type 1, BuildingBlock: KUMBUR_clean_sbu_1, # of connection points: 6
#     Edge 6, Type (0, 1), BuildingBlock: TEMPAE_clean_linker_10, # of connection points: 2
#     Edge 7, Type (0, 1), BuildingBlock: TEMPAE_clean_linker_10, # of connection points: 2
#     Edge 8, Type (0, 1), BuildingBlock: TEMPAE_clean_linker_10, # of connection points: 2
#     Edge 9, Type (0, 1), BuildingBlock: TEMPAE_clean_linker_10, # of connection points: 2
#     Edge 10, Type (0, 1), BuildingBlock: TEMPAE_clean_linker_10, # of connection points: 2
#     Edge 11, Type (0, 1), BuildingBlock: TEMPAE_clean_linker_10, # of connection points: 2
#     Edge 12, Type (0, 1), BuildingBlock: TEMPAE_clean_linker_10, # of connection points: 2
#     Edge 13, Type (0, 1), BuildingBlock: TEMPAE_clean_linker_10, # of connection points: 2
#     Edge 14, Type (0, 1), BuildingBlock: TEMPAE_clean_linker_10, # of connection points: 2
#     Edge 15, Type (0, 1), BuildingBlock: TEMPAE_clean_linker_10, # of connection points: 2
#     Edge 16, Type (0, 1), BuildingBlock: TEMPAE_clean_linker_10, # of connection points: 2
#     Edge 17, Type (0, 1), BuildingBlock: TEMPAE_clean_linker_10, # of connection points: 2
# Relax obj value: 0.051
# Max RMSD: 0.217
# Mean RMSD: 0.163
data_MOF--net-rtl--node1-KUMBUR_clean_sbu_1--node2-PAMTOO_clean_linker_0--edge1-TEMPAE_clean_linker_10
_symmetry_space_group_name_H-M    P1
_symmetry_Int_Tables_number       1
_symmetry_cell_setting            triclinic
loop_
_symmetry_equiv_pos_as_xyz
'x, y, z'
_cell_length_a     35.508315
_cell_length_b     35.787645
_cell_length_c     27.181732
_cell_angle_alpha  79.477794
_cell_angle_beta   98.961696
_cell_angle_gamma 91.342755
loop_
_atom_site_label
_atom_site_type_symbol
_atom_site_fract_x
_atom_site_fract_y
_atom_site_fract_z
_atom_type_partial_charge
H0 H 0.13395 0.8697 0.01354 0.0
H1 H 0.22278 0.79719 0.10658 0.0
H2 H 0.219 0.82119 0.94623 0.0
H3 H 0.22049 0.73871 1.00143 0.0
C4 C 0.24398 0.74227 0.03255 0.0
O5 O 0.25157 0.78054 0.03068 0.0
H6 H 0.23454 0.73024 0.06931 0.0
C7 C 0.15973 0.85319 0.01733 0.0
C8 C 0.17475 0.84912 0.97346 0.0
C9 C 0.17683 0.83504 0.06592 0.0
C10 C 0.20886 0.81158 0.06994 0.0
C11 C 0.22299 0.80583 0.02661 0.0
C12 C 0.20661 0.82515 0.97887 0.0
H13 H 0.6592 0.62982 0.6494 0.0
H14 H 0.73292 0.71383 0.58027 0.0
H15 H 0.709 0.71767 0.72843 0.0
H16 H 0.72965 0.79517 0.67433 0.0
C17 C 0.73999 0.78456 0.64285 0.0
O18 O 0.74974 0.74657 0.65841 0.0
H19 H 0.71652 0.78794 0.60995 0.0
C20 C 0.67606 0.65531 0.65047 0.0
C21 C 0.68031 0.67222 0.6941 0.0
C22 C 0.69425 0.67019 0.60858 0.0
C23 C 0.71848 0.70162 0.61168 0.0
C24 C 0.72428 0.71797 0.65518 0.0
C25 C 0.70487 0.70376 0.69585 0.0
H26 H 0.89049 0.15666 0.0966 0.0
H27 H 0.81048 0.23452 0.99594 0.0
H28 H 0.8093 0.21674 0.15627 0.0
H29 H 0.73533 0.21947 0.0877 0.0
C30 C 0.74072 0.24534 0.06004 0.0
O31 O 0.77881 0.25483 0.06838 0.0
H32 H 0.73323 0.23897 0.02118 0.0
C33 C 0.86699 0.17658 0.0909 0.0
C34 C 0.85155 0.18391 0.13276 0.0
C35 C 0.8523 0.19442 0.04153 0.0
C36 C 0.82204 0.22043 0.03388 0.0
C37 C 0.80699 0.22874 0.07546 0.0
C38 C 0.82167 0.21049 0.12465 0.0
H39 H 0.36908 0.3871 0.43867 0.0
H40 H 0.2965 0.30643 0.51558 0.0
H41 H 0.31143 0.30108 0.3631 0.0
H42 H 0.23278 0.2776 0.38023 0.0
C43 C 0.23778 0.27554 0.42203 0.0
O44 O 0.27643 0.27096 0.4395 0.0
H45 H 0.22757 0.30248 0.43071 0.0
C46 C 0.35017 0.36287 0.4386 0.0
C47 C 0.34286 0.34576 0.39548 0.0
C48 C 0.33388 0.34885 0.48209 0.0
C49 C 0.3093 0.31756 0.48224 0.0
C50 C 0.30067 0.30081 0.43905 0.0
C51 C 0.31761 0.31475 0.39585 0.0
Tb52 Tb 0.0368 0.97467 0.5161 0.0
C53 C 0.96171 0.12524 0.51404 0.0
N54 N 0.99331 0.10987 0.54532 0.0
C55 C 0.02571 0.16946 0.52871 0.0
C56 C 0.96153 0.16273 0.48669 0.0
C57 C 0.02401 0.13245 0.55587 0.0
C58 C 0.99466 0.18439 0.49298 0.0
C59 C 0.89398 0.12028 0.48512 0.0
C60 C 0.92847 0.10443 0.51308 0.0
C61 C 0.89398 0.15687 0.45574 0.0
C62 C 0.92778 0.17799 0.45624 0.0
Tb63 Tb 0.98781 0.04788 0.58463 0.0
N64 N 0.92973 0.06902 0.54145 0.0
C65 C 0.8605 0.09912 0.48852 0.0
C66 C 0.89693 0.04908 0.54727 0.0
C67 C 0.86192 0.06356 0.52028 0.0
H68 H 0.04712 0.12228 0.58578 0.0
H69 H 0.83609 0.04734 0.52403 0.0
H70 H 1.0027 0.8922 0.5661 0.0
H71 H 0.18272 0.02291 0.51403 0.0
H72 H 0.89794 0.0218 0.57214 0.0
H73 H 0.83339 0.11027 0.4676 0.0
H74 H 0.11424 0.02219 0.48129 0.0
H75 H 0.0506 0.18673 0.53626 0.0
H76 H 0.86783 0.16945 0.43361 0.0
H77 H 0.92715 0.20661 0.43452 0.0
H78 H 0.02628 0.83552 0.62921 0.0
H79 H 0.99578 0.21331 0.47265 0.0
H80 H 0.21058 0.97369 0.58593 0.0
N81 N 0.05618 0.92029 0.57181 0.0
C82 C 0.0937 0.91791 0.59178 0.0
C83 C 0.04551 0.85859 0.6192 0.0
C84 C 0.10846 0.88625 0.62786 0.0
C85 C 0.03224 0.89063 0.58344 0.0
C86 C 0.08371 0.85656 0.64196 0.0
N87 N 0.10192 0.97618 0.53842 0.0
C88 C 0.12537 1.00183 0.51453 0.0
C89 C 0.15666 0.94547 0.59369 0.0
C90 C 0.11727 0.94721 0.57512 0.0
C91 C 0.18017 0.97394 0.5727 0.0
C92 C 0.16454 1.00181 0.53222 0.0
H93 H 0.09392 0.83172 0.66964 0.0
H94 H 0.15943 0.86079 0.67539 0.0
H95 H 0.20161 0.91292 0.64602 0.0
O96 O 0.06531 0.95428 0.46366 0.0
O97 O 0.03343 0.96411 0.59734 0.0
O98 O 0.04235 0.02156 0.62216 0.0
O99 O 1.0048 0.94814 0.46044 0.0
O100 O 0.05366 0.03493 0.5021 0.0
O101 O 0.04833 0.05723 0.57543 0.0
O102 O 0.96734 0.02761 0.65306 0.0
O103 O 0.9621 0.03481 0.5107 0.0
O104 O 0.01245 0.02758 0.47024 0.0
O105 O 0.97901 0.08682 0.63131 0.0
O106 O 0.96503 0.98963 0.59457 0.0
O107 O 0.97762 0.96058 0.52816 0.0
C108 C 0.04927 0.98497 0.6296 0.0
C109 C 0.03721 0.90263 0.42848 0.0
C110 C 0.05692 0.86346 0.37202 0.0
C111 C 0.03849 0.83219 0.39716 0.0
C112 C 0.01906 0.87101 0.45324 0.0
C113 C 0.01997 0.83594 0.43777 0.0
C114 C 0.05649 0.89855 0.38829 0.0
C115 C 0.06383 0.05833 0.5341 0.0
C116 C 0.0345 0.94068 0.44126 0.0
C117 C 0.14743 0.88498 0.64786 0.0
C118 C 0.17146 0.91465 0.63104 0.0
C119 C 0.97823 0.04076 0.4698 0.0
C120 C 0.98612 0.06227 0.71855 0.0
C121 C 0.98167 0.08142 0.7991 0.0
C122 C 0.01734 0.06431 0.81929 0.0
C123 C 0.02185 0.04565 0.73906 0.0
C124 C 0.96631 0.08037 0.74848 0.0
C125 C 0.03735 0.04679 0.78923 0.0
C126 C 0.95812 0.96371 0.56514 0.0
C127 C 0.96868 0.06075 0.66633 0.0
H128 H 0.0385 0.80485 0.3854 0.0
H129 H 1.00366 0.8735 0.48383 0.0
H130 H 1.00582 0.81169 0.45689 0.0
H131 H 0.07005 0.92303 0.36854 0.0
H132 H 0.02994 0.06494 0.85807 0.0
H133 H 0.03764 0.0318 0.71645 0.0
H134 H 0.93862 0.09307 0.73262 0.0
H135 H 0.06498 0.03412 0.80485 0.0
Tb136 Tb 0.47399 0.49055 0.99467 0.0
C137 C 0.60311 0.59387 0.04789 0.0
N138 N 0.60084 0.55639 0.06773 0.0
C139 C 0.6633 0.5458 0.0496 0.0
C140 C 0.63505 0.60863 0.0261 0.0
C141 C 0.63094 0.53251 0.07076 0.0
C142 C 0.66517 0.58393 0.02658 0.0
C143 C 0.575 0.6567 0.03154 0.0
C144 C 0.57339 0.61737 0.05028 0.0
C145 C 0.60604 0.67149 0.00792 0.0
C146 C 0.63608 0.64751 1.00539 0.0
Tb147 Tb 0.54559 0.53696 0.09767 0.0
N148 N 0.54412 0.60199 0.07385 0.0
C149 C 0.54615 0.68011 0.03889 0.0
C150 C 0.5181 0.62528 0.08549 0.0
C151 C 0.51802 0.66442 0.06695 0.0
H152 H 0.62935 0.50297 0.08793 0.0
H153 H 0.49659 0.6825 0.07497 0.0
H154 H 0.40167 0.55249 0.95297 0.0
H155 H 0.46783 0.33961 0.06117 0.0
H156 H 0.49737 0.61397 0.10939 0.0
H157 H 0.54628 0.71049 0.02504 0.0
H158 H 0.49632 0.39969 0.02277 0.0
H159 H 0.68668 0.52662 0.05088 0.0
H160 H 0.60762 0.70158 0.99286 0.0
H161 H 0.66037 0.65946 0.98848 0.0
H162 H 0.33609 0.55904 0.96908 0.0
H163 H 0.69022 0.59414 0.01012 0.0
H164 H 0.40431 0.34054 0.08789 0.0
N165 N 0.41147 0.49906 1.00264 0.0
C166 C 0.39456 0.4687 0.02811 0.0
C167 C 0.35251 0.53384 0.98711 0.0
C168 C 0.35658 0.47049 0.03679 0.0
C169 C 0.39006 0.53031 0.97885 0.0
C170 C 0.33599 0.50421 0.01741 0.0
N171 N 0.45 0.43392 0.02962 0.0
C172 C 0.46868 0.40017 0.03453 0.0
C173 C 0.39678 0.4013 0.06294 0.0
C174 C 0.41422 0.43464 0.04102 0.0
C175 C 0.4167 0.36684 0.07111 0.0
C176 C 0.45257 0.3662 0.05609 0.0
H177 H 0.3067 0.50681 0.02308 0.0
H178 H 0.31078 0.43888 0.06935 0.0
H179 H 0.34597 0.37812 0.09184 0.0
O180 O 0.49551 0.46906 0.93757 0.0
O181 O 0.48528 0.46392 0.07536 0.0
O182 O 0.49162 0.51333 0.11852 0.0
O183 O 0.4362 0.48262 0.92956 0.0
O184 O 0.53177 0.46609 0.01404 0.0
O185 O 0.56005 0.47813 0.0935 0.0
O186 O 0.56603 0.56425 0.15918 0.0
O187 O 0.55843 0.5337 0.02195 0.0
O188 O 0.50221 0.54398 0.96791 0.0
O189 O 0.5698 0.50373 0.16682 0.0
O190 O 0.48526 0.55448 0.08168 0.0
O191 O 0.46604 0.55107 0.99747 0.0
C192 C 0.47871 0.47936 0.11339 0.0
C193 C 0.4628 0.48796 0.85465 0.0
C194 C 0.4453 0.48291 0.76572 0.0
C195 C 0.46363 0.51765 0.75201 0.0
C196 C 0.48067 0.52277 0.8404 0.0
C197 C 0.48094 0.53752 0.78921 0.0
C198 C 0.44491 0.46833 0.81728 0.0
C199 C 0.55716 0.45875 0.05587 0.0
C200 C 0.46283 0.47119 0.90811 0.0
C201 C 0.33978 0.43797 0.06177 0.0
C202 C 0.35979 0.40335 0.07456 0.0
C203 C 0.53891 0.55008 0.97882 0.0
C204 C 0.61619 0.53343 0.21952 0.0
C205 C 0.65582 0.55038 0.29412 0.0
C206 C 0.68648 0.53047 0.28388 0.0
C207 C 0.64722 0.51372 0.20994 0.0
C208 C 0.62081 0.5521 0.26136 0.0
C209 C 0.68221 0.51252 0.24182 0.0
C210 C 0.46358 0.56597 0.03776 0.0
C211 C 0.57815 0.53285 0.18881 0.0
H212 H 0.46413 0.52963 0.71252 0.0
H213 H 0.49444 0.5384 0.8687 0.0
H214 H 0.49455 0.56445 0.77831 0.0
H215 H 0.43127 0.44133 0.8284 0.0
H216 H 0.71377 0.52886 0.30841 0.0
H217 H 0.64429 0.49867 0.17849 0.0
H218 H 0.59678 0.56685 0.26942 0.0
H219 H 0.70598 0.49718 0.2343 0.0
C220 C 0.22799 0.2048 0.4511 0.0
C221 C 0.21511 0.24236 0.4453 0.0
C222 C 0.20531 0.17386 0.46853 0.0
C223 C 0.16852 0.18057 0.47932 0.0
C224 C 0.15545 0.21846 0.47352 0.0
C225 C 0.17885 0.24879 0.45659 0.0
C226 C 0.22034 0.13394 0.47422 0.0
C227 C 0.1164 0.22697 0.48427 0.0
C228 C 0.09316 0.10371 0.46969 0.0
C229 C 0.09165 0.08864 0.5207 0.0
C230 C 0.11815 0.13338 0.45581 0.0
C231 C 0.14278 0.1481 0.49386 0.0
C232 C 0.14192 0.13245 0.54551 0.0
C233 C 0.11626 0.10298 0.55832 0.0
C234 C 0.11763 0.14949 0.40034 0.0
C235 C 0.16791 0.14703 0.58721 0.0
H236 H 0.25561 0.19962 0.44134 0.0
H237 H 0.16845 0.27772 0.45122 0.0
H238 H 0.21842 0.11788 0.51273 0.0
H239 H 0.20259 0.11879 0.44683 0.0
H240 H 0.25042 0.13352 0.46766 0.0
H241 H 0.1099 0.2579 0.47607 0.0
H242 H 0.09419 0.2124 0.46124 0.0
H243 H 0.11449 0.21595 0.52467 0.0
H244 H 0.07417 0.09278 0.44046 0.0
H245 H 0.11543 0.09113 0.5978 0.0
H246 H 0.14643 0.14731 0.39008 0.0
H247 H 0.10989 0.1801 0.39264 0.0
H248 H 0.09702 0.13464 0.37544 0.0
H249 H 0.19804 0.14538 0.58143 0.0
H250 H 0.16494 0.13077 0.62533 0.0
H251 H 0.16141 0.17737 0.58612 0.0
C252 C 0.31578 0.73115 0.04466 0.0
C253 C 0.27853 0.72006 0.02776 0.0
C254 C 0.34731 0.70821 0.04399 0.0
C255 C 0.34134 0.67293 0.02735 0.0
C256 C 0.30378 0.66168 0.01039 0.0
C257 C 0.27295 0.68535 0.0108 0.0
C258 C 0.38692 0.72127 0.06219 0.0
C259 C 0.29603 0.62419 0.99286 0.0
C260 C 0.4224 0.621 0.9909 0.0
C261 C 0.43338 0.59433 0.03517 0.0
C262 C 0.39308 0.64741 0.98811 0.0
C263 C 0.37401 0.6467 0.03037 0.0
C264 C 0.38526 0.61987 0.07524 0.0
C265 C 0.41502 0.59428 0.07721 0.0
C266 C 0.38229 0.67585 0.93987 0.0
C267 C 0.36527 0.61758 0.12083 0.0
H268 H 0.32029 0.75749 0.05901 0.0
H269 H 0.24414 0.67634 0.99876 0.0
H270 H 0.39944 0.70182 0.09725 0.0
H271 H 0.40569 0.72028 0.03341 0.0
H272 H 0.38701 0.75061 0.07025 0.0
H273 H 0.26509 0.61913 0.98225 0.0
H274 H 0.3103 0.62355 0.95953 0.0
H275 H 0.30797 0.60051 0.02321 0.0
H276 H 0.43684 0.62122 0.95852 0.0
H277 H 0.42333 0.57352 0.11138 0.0
H278 H 0.38361 0.70511 0.9482 0.0
H279 H 0.3525 0.67095 0.92296 0.0
H280 H 0.40123 0.67402 0.91147 0.0
H281 H 0.36677 0.64536 0.13361 0.0
H282 H 0.37782 0.5954 0.15301 0.0
H283 H 0.33466 0.61107 0.11049 0.0
C284 C 0.81107 0.79928 0.65342 0.0
C285 C 0.77389 0.80825 0.62827 0.0
C286 C 0.84204 0.82283 0.64198 0.0
C287 C 0.83562 0.8567 0.60545 0.0
C288 C 0.79812 0.86595 0.58018 0.0
C289 C 0.7678 0.8417 0.59197 0.0
C290 C 0.88155 0.81185 0.66972 0.0
C291 C 0.78986 0.902 0.54155 0.0
C292 C 0.90604 0.93799 0.61459 0.0
C293 C 0.92707 0.93591 0.57543 0.0
C294 C 0.87644 0.91238 0.62476 0.0
C295 C 0.86768 0.8835 0.59552 0.0
C296 C 0.88904 0.88083 0.55637 0.0
C297 C 0.91828 0.90715 0.5466 0.0
C298 C 0.85428 0.9165 0.66663 0.0
C299 C 0.88088 0.85025 0.52463 0.0
H300 H 0.81594 0.77399 0.6824 0.0
H301 H 0.73903 0.84921 0.57327 0.0
H302 H 0.90156 0.81155 0.64225 0.0
H303 H 0.89218 0.83323 0.69335 0.0
H304 H 0.88219 0.78347 0.69459 0.0
H305 H 0.75938 0.90448 0.52403 0.0
H306 H 0.79746 0.92704 0.5598 0.0
H307 H 0.8076 0.90306 0.51115 0.0
H308 H 0.9125 0.95985 0.63742 0.0
H309 H 0.93424 0.90508 0.51631 0.0
H310 H 0.85635 0.88991 0.69521 0.0
H311 H 0.82366 0.92137 0.65098 0.0
H312 H 0.86469 0.94041 0.68598 0.0
H313 H 0.88281 0.82183 0.5494 0.0
H314 H 0.90095 0.8511 0.49691 0.0
H315 H 0.85138 0.85358 0.50368 0.0
C316 C 0.72361 0.31527 0.04279 0.0
C317 C 0.71599 0.27785 0.06489 0.0
C318 C 0.69929 0.34536 0.04418 0.0
C319 C 0.66611 0.33772 0.06721 0.0
C320 C 0.65835 0.29999 0.08968 0.0
C321 C 0.68334 0.27052 0.08814 0.0
C322 C 0.70861 0.38519 0.01989 0.0
C323 C 0.62304 0.29058 0.11402 0.0
C324 C 0.61409 0.41909 0.10133 0.0
C325 C 0.58496 0.42753 0.05957 0.0
C326 C 0.64088 0.39013 0.10427 0.0
C327 C 0.63824 0.36875 0.06486 0.0
C328 C 0.60875 0.37688 0.02291 0.0
C329 C 0.58268 0.4062 0.02065 0.0
C330 C 0.67209 0.38249 0.14944 0.0
C331 C 0.60471 0.35459 0.98024 0.0
H332 H 0.74841 0.32092 0.0239 0.0
H333 H 0.677 0.24153 0.10442 0.0
H334 H 0.68647 0.39543 0.9869 0.0
H335 H 0.70854 0.40485 0.04707 0.0
H336 H 0.73682 0.38678 1.0068 0.0
H337 H 0.62207 0.26015 0.13193 0.0
H338 H 0.6217 0.30825 0.14326 0.0
H339 H 0.59725 0.29727 0.08508 0.0
H340 H 0.61619 0.43526 0.13169 0.0
H341 H 0.56042 0.41232 0.98812 0.0
H342 H 0.70038 0.3855 0.13666 0.0
H343 H 0.67009 0.35284 0.16976 0.0
H344 H 0.67065 0.40209 0.17643 0.0
H345 H 0.63088 0.35754 0.96229 0.0
H346 H 0.57988 0.36413 0.95063 0.0
H347 H 0.60133 0.32393 0.99531 0.0
C348 C 0.16083 0.80959 0.15309 0.0
C349 C 0.16064 0.8399 0.11206 0.0
C350 C 0.1454 0.81368 0.19639 0.0
C351 C 0.12841 0.84863 0.19848 0.0
C352 C 0.12802 0.87934 0.15736 0.0
C353 C 0.14451 0.87477 0.11505 0.0
C354 C 0.14695 0.78041 0.23976 0.0
C355 C 0.10969 0.91692 0.15774 0.0
C356 C 0.05476 0.84546 0.28697 0.0
C357 C 0.07537 0.85979 0.32774 0.0
C358 C 0.07153 0.84219 0.24442 0.0
C359 C 0.11012 0.85271 0.24309 0.0
C360 C 0.13116 0.86692 0.28445 0.0
C361 C 0.11337 0.87072 0.32603 0.0
C362 C 0.04783 0.82774 0.20069 0.0
C363 C 0.17257 0.87766 0.28501 0.0
H364 H 0.17249 0.78228 0.15116 0.0
H365 H 0.14479 0.89869 0.08427 0.0
H366 H 0.16035 0.78913 0.27558 0.0
H367 H 0.11762 0.77082 0.24471 0.0
H368 H 0.16324 0.75597 0.23363 0.0
H369 H 0.11143 0.93789 0.12259 0.0
H370 H 0.07922 0.91256 0.16196 0.0
H371 H 0.12367 0.92912 0.19062 0.0
H372 H 0.02524 0.83738 0.28806 0.0
H373 H 0.12935 0.88161 0.35772 0.0
H374 H 0.06064 0.80129 0.19467 0.0
H375 H 0.04752 0.849 0.16535 0.0
H376 H 0.01795 0.82177 0.20704 0.0
H377 H 0.18931 0.85281 0.28126 0.0
H378 H 0.18506 0.88774 0.32033 0.0
H379 H 0.17563 0.90042 0.25223 0.0
C380 C 0.67484 0.65841 0.7878 0.0
C381 C 0.6593 0.65658 0.73739 0.0
C382 C 0.6555 0.64316 0.82842 0.0
C383 C 0.62014 0.6246 0.81892 0.0
C384 C 0.60427 0.62261 0.76837 0.0
C385 C 0.62351 0.63921 0.72841 0.0
C386 C 0.6727 0.64743 0.88147 0.0
C387 C 0.56707 0.60241 0.75643 0.0
C388 C 0.58952 0.5506 0.92485 0.0
C389 C 0.55965 0.56936 0.93842 0.0
C390 C 0.60941 0.56825 0.88609 0.0
C391 C 0.60018 0.60615 0.86168 0.0
C392 C 0.57088 0.62566 0.87687 0.0
C393 C 0.5504 0.60671 0.91437 0.0
C394 C 0.63984 0.54606 0.87063 0.0
C395 C 0.56133 0.66658 0.85376 0.0
H396 H 0.70246 0.67128 0.79591 0.0
H397 H 0.61024 0.63849 0.68994 0.0
H398 H 0.65439 0.6667 0.89526 0.0
H399 H 0.67378 0.61969 0.90768 0.0
H400 H 0.70192 0.65942 0.88328 0.0
H401 H 0.55948 0.60155 0.71543 0.0
H402 H 0.56882 0.5728 0.77788 0.0
H403 H 0.54372 0.61691 0.76842 0.0
H404 H 0.59672 0.52172 0.94384 0.0
H405 H 0.52772 0.62136 0.92577 0.0
H406 H 0.66764 0.56075 0.87593 0.0
H407 H 0.63267 0.54454 0.82981 0.0
H408 H 0.64314 0.51668 0.89277 0.0
H409 H 0.58746 0.68415 0.85702 0.0
H410 H 0.53974 0.67846 0.87226 0.0
H411 H 0.55019 0.66903 0.81285 0.0
C412 C 0.87596 0.12467 0.19241 0.0
C413 C 0.86681 0.16347 0.18449 0.0
C414 C 0.89268 0.1053 0.24007 0.0
C415 C 0.90011 0.12504 0.28114 0.0
C416 C 0.89005 0.16395 0.27384 0.0
C417 C 0.87342 0.1827 0.22558 0.0
C418 C 0.90311 0.06384 0.24622 0.0
C419 C 0.89676 0.18581 0.31688 0.0
C420 C 0.91813 0.06311 0.41189 0.0
C421 C 0.95801 0.06288 0.42225 0.0
C422 C 0.89874 0.08431 0.36686 0.0
C423 C 0.91988 0.10508 0.33098 0.0
C424 C 0.96022 0.10494 0.34137 0.0
C425 C 0.97878 0.08382 0.3869 0.0
C426 C 0.85572 0.08435 0.3576 0.0
C427 C 0.98379 0.12674 0.30411 0.0
H428 H 0.87019 0.1094 0.16111 0.0
H429 H 0.86651 0.21268 0.21976 0.0
H430 H 0.93434 0.06004 0.2581 0.0
H431 H 0.88899 0.04668 0.27638 0.0
H432 H 0.89481 0.05247 0.21069 0.0
H433 H 0.89283 0.21691 0.30349 0.0
H434 H 0.87622 0.17606 0.34326 0.0
H435 H 0.92589 0.18045 0.33852 0.0
H436 H 0.90208 0.04634 0.43878 0.0
H437 H 0.00964 0.08377 0.39487 0.0
H438 H 0.84507 0.07466 0.32146 0.0
H439 H 0.84497 0.11373 0.3541 0.0
H440 H 0.84358 0.06577 0.38863 0.0
H441 H 0.97835 0.11576 0.26804 0.0
H442 H 0.01485 0.12459 0.31862 0.0
H443 H 0.9754 0.15719 0.29541 0.0
C444 C 0.36028 0.34496 0.57375 0.0
C445 C 0.34398 0.3667 0.52743 0.0
C446 C 0.37502 0.36244 0.61494 0.0
C447 C 0.37281 0.4025 0.60971 0.0
C448 C 0.35459 0.4243 0.56373 0.0
C449 C 0.34069 0.40616 0.52301 0.0
C450 C 0.3946 0.33826 0.66313 0.0
C451 C 0.35104 0.46697 0.55687 0.0
C452 C 0.38947 0.44833 0.72701 0.0
C453 C 0.42686 0.46173 0.72638 0.0
C454 C 0.37151 0.42878 0.68947 0.0
C455 C 0.39168 0.42197 0.65093 0.0
C456 C 0.4297 0.43487 0.65071 0.0
C457 C 0.44671 0.45487 0.6882 0.0
C458 C 0.33077 0.41604 0.6905 0.0
C459 C 0.45238 0.42769 0.61072 0.0
H460 H 0.36314 0.31447 0.57696 0.0
H461 H 0.32787 0.42292 0.4872 0.0
H462 H 0.42542 0.34519 0.66873 0.0
H463 H 0.38282 0.34446 0.69626 0.0
H464 H 0.39154 0.30738 0.66242 0.0
H465 H 0.3332 0.47933 0.52046 0.0
H466 H 0.33838 0.47491 0.58838 0.0
H467 H 0.37975 0.47998 0.55778 0.0
H468 H 0.37401 0.45385 0.75634 0.0
H469 H 0.47577 0.46483 0.68804 0.0
H470 H 0.32866 0.38495 0.69151 0.0
H471 H 0.31245 0.43007 0.65542 0.0
H472 H 0.31934 0.42282 0.72366 0.0
H473 H 0.45316 0.39681 0.61007 0.0
H474 H 0.48214 0.43813 0.61719 0.0
H475 H 0.43843 0.44202 0.5728 0.0
C476 C 0.65211 0.63833 0.54495 0.0
C477 C 0.68797 0.65288 0.56181 0.0
C478 C 0.64585 0.62169 0.50137 0.0
C479 C 0.67587 0.62026 0.47306 0.0
C480 C 0.71193 0.63539 0.48926 0.0
C481 C 0.71766 0.65105 0.53363 0.0
C482 C 0.60713 0.60539 0.48583 0.0
C483 C 0.74457 0.63489 0.45979 0.0
C484 C 0.67403 0.54687 0.38753 0.0
C485 C 0.66016 0.56827 0.33985 0.0
C486 C 0.6786 0.56327 0.43125 0.0
C487 C 0.66987 0.60225 0.42707 0.0
C488 C 0.65589 0.62402 0.37891 0.0
C489 C 0.6508 0.60663 0.33593 0.0
C490 C 0.69272 0.53884 0.48195 0.0
C491 C 0.64695 0.6658 0.37268 0.0
H492 H 0.62867 0.64017 0.5656 0.0
H493 H 0.74567 0.66149 0.54649 0.0
H494 H 0.59466 0.62006 0.44739 0.0
H495 H 0.61 0.57486 0.48409 0.0
H496 H 0.58698 0.60811 0.51242 0.0
H497 H 0.77024 0.64949 0.47597 0.0
H498 H 0.7524 0.60512 0.45947 0.0
H499 H 0.73579 0.64891 0.41983 0.0
H500 H 0.68089 0.51708 0.39065 0.0
H501 H 0.64028 0.62324 0.29901 0.0
H502 H 0.67208 0.53988 0.50842 0.0
H503 H 0.7202 0.54996 0.49884 0.0
H504 H 0.69692 0.50871 0.47897 0.0
H505 H 0.62508 0.67005 0.39618 0.0
H506 H 0.63639 0.67873 0.33268 0.0
H507 H 0.67291 0.6812 0.38614 0.0
C508 C 0.90783 0.18879 0.99747 0.0
C509 C 0.86864 0.18471 0.99859 0.0
C510 C 0.92498 0.17478 0.96134 0.0
C511 C 0.90245 0.15551 0.92617 0.0
C512 C 0.86255 0.15256 0.92599 0.0
C513 C 0.84603 0.16751 0.96206 0.0
C514 C 0.96746 0.17919 0.96223 0.0
C515 C 0.83765 0.13181 0.88957 0.0
C516 C 0.94545 0.13688 0.81306 0.0
C517 C 0.96042 0.10012 0.83089 0.0
C518 C 0.92614 0.15522 0.84339 0.0
C519 C 0.92121 0.13607 0.89235 0.0
C520 C 0.93558 0.09862 0.91003 0.0
C521 C 0.95528 0.08123 0.87925 0.0
C522 C 0.9118 0.19534 0.82354 0.0
C523 C 0.93042 0.07699 0.9617 0.0
H524 H 0.92522 0.20218 0.0258 0.0
H525 H 0.81577 0.16405 0.96339 0.0
H526 H 0.98154 0.15094 0.97425 0.0
H527 H 0.97379 0.19099 0.92374 0.0
H528 H 0.98019 0.19805 0.98857 0.0
H529 H 0.80686 0.13466 0.89156 0.0
H530 H 0.84249 0.14267 0.85017 0.0
H531 H 0.8453 0.10117 0.89844 0.0
H532 H 0.94964 0.15162 0.77578 0.0
H533 H 0.96643 0.05264 0.89282 0.0
H534 H 0.92628 0.21465 0.84808 0.0
H535 H 0.88081 0.19698 0.82472 0.0
H536 H 0.91686 0.20583 0.78406 0.0
H537 H 0.9454 0.09185 0.99147 0.0
H538 H 0.9416 0.04745 0.96874 0.0
H539 H 0.89975 0.07593 0.9656 0.0
C540 C 0.40079 0.37114 0.35862 0.0
C541 C 0.36225 0.36067 0.35099 0.0
C542 C 0.41889 0.38885 0.31823 0.0
C543 C 0.39818 0.39601 0.26855 0.0
C544 C 0.35966 0.38425 0.26014 0.0
C545 C 0.34216 0.36661 0.30147 0.0
C546 C 0.45999 0.40082 0.32899 0.0
C547 C 0.33685 0.39055 0.20761 0.0
C548 C 0.43556 0.47731 0.17819 0.0
C549 C 0.45735 0.45794 0.15201 0.0
C550 C 0.4152 0.45742 0.21506 0.0
C551 C 0.41673 0.41716 0.22614 0.0
C552 C 0.43832 0.39748 0.19925 0.0
C553 C 0.45864 0.41814 0.16288 0.0
C554 C 0.39254 0.47955 0.24278 0.0
C555 C 0.44036 0.35463 0.20935 0.0
H556 H 0.41681 0.3659 0.39659 0.0
H557 H 0.3124 0.35861 0.2952 0.0
H558 H 0.47747 0.38806 0.30583 0.0
H559 H 0.46212 0.43216 0.31827 0.0
H560 H 0.47238 0.39231 0.36955 0.0
H561 H 0.30619 0.38383 0.20805 0.0
H562 H 0.33938 0.42041 0.18826 0.0
H563 H 0.3484 0.37208 0.18487 0.0
H564 H 0.43435 0.50809 0.16976 0.0
H565 H 0.47606 0.40313 0.14342 0.0
H566 H 0.40435 0.47425 0.28373 0.0
H567 H 0.36249 0.46983 0.2392 0.0
H568 H 0.39291 0.51063 0.22822 0.0
H569 H 0.4584 0.34365 0.18517 0.0
H570 H 0.41128 0.34279 0.20224 0.0
H571 H 0.45204 0.34399 0.24965 0.0
C572 C 0.15635 0.8529 0.87904 0.0
C573 C 0.15686 0.86944 0.92226 0.0
C574 C 0.14002 0.87189 0.83078 0.0
C575 C 0.12281 0.90798 0.82542 0.0
C576 C 0.12272 0.92469 0.86874 0.0
C577 C 0.14023 0.90559 0.91634 0.0
C578 C 0.142 0.85363 0.7854 0.0
C579 C 0.10386 0.96271 0.86488 0.0
C580 C 0.10582 0.97421 0.6972 0.0
C581 C 0.06797 0.96596 0.67964 0.0
C582 C 0.12441 0.95489 0.7441 0.0
C583 C 0.10405 0.92787 0.77473 0.0
C584 C 0.06554 0.91994 0.75704 0.0
C585 C 0.04818 0.93861 0.7092 0.0
C586 C 0.16592 0.96294 0.76047 0.0
C587 C 0.04262 0.89183 0.78871 0.0
H588 H 0.16842 0.82484 0.88275 0.0
H589 H 0.14105 0.91926 0.9489 0.0
H590 H 0.1137 0.85405 0.76134 0.0
H591 H 0.1618 0.87018 0.76209 0.0
H592 H 0.15241 0.82379 0.79634 0.0
H593 H 0.10475 0.97111 0.90241 0.0
H594 H 0.11823 0.98498 0.84045 0.0
H595 H 0.07364 0.96181 0.84691 0.0
H596 H 0.12112 0.995 0.67358 0.0
H597 H 0.01887 0.9323 0.69516 0.0
H598 H 0.18273 0.93623 0.76752 0.0
H599 H 0.16952 0.97391 0.79652 0.0
H600 H 0.17787 0.98397 0.73164 0.0
H601 H 0.0558 0.86317 0.79561 0.0
H602 H 0.01259 0.89002 0.77028 0.0
H603 H 0.04273 0.90006 0.82617 0.0
loop_
_geom_bond_atom_site_label_1
_geom_bond_atom_site_label_2
_geom_bond_distance
_geom_bond_site_symmetry_2
_ccdc_geom_bond_type
H0 C7 0.929 . S
H1 C10 0.930 . S
H2 C12 0.929 . S
H3 C4 0.969 . S
C4 H3 0.969 . S
C4 O5 1.550 . S
C4 H6 0.973 . S
O5 C4 1.550 . S
O5 C11 1.412 . S
H6 C4 0.973 . S
C7 H0 0.929 . S
C7 C8 1.400 1_554 S
C7 C9 1.364 . S
C8 C7 1.400 1_556 S
C8 C12 1.377 . S
C9 C7 1.364 . S
C9 C10 1.374 . S
C10 H1 0.930 . S
C10 C9 1.374 . S
C10 C11 1.383 . S
C11 O5 1.412 . S
C11 C10 1.383 . S
C11 C12 1.394 1_554 S
C12 H2 0.929 . S
C12 C8 1.377 . S
C12 C11 1.394 1_556 S
H13 C20 0.929 . S
H14 C23 0.930 . S
H15 C25 0.929 . S
H16 C17 0.969 . S
C17 H16 0.969 . S
C17 O18 1.550 . S
C17 H19 0.973 . S
O18 C17 1.550 . S
O18 C24 1.412 . S
H19 C17 0.973 . S
C20 H13 0.929 . S
C20 C21 1.400 . S
C20 C22 1.364 . S
C21 C20 1.400 . S
C21 C25 1.377 . S
C22 C20 1.364 . S
C22 C23 1.374 . S
C23 H14 0.930 . S
C23 C22 1.374 . S
C23 C24 1.383 . S
C24 O18 1.412 . S
C24 C23 1.383 . S
C24 C25 1.394 . S
C25 H15 0.929 . S
C25 C21 1.377 . S
C25 C24 1.394 . S
H26 C33 0.929 . S
H27 C36 0.930 1_556 S
H28 C38 0.929 . S
H29 C30 0.969 . S
C30 H29 0.969 . S
C30 O31 1.550 . S
C30 H32 0.973 1_554 S
O31 C30 1.550 . S
O31 C37 1.412 . S
H32 C30 0.973 1_556 S
C33 H26 0.929 . S
C33 C34 1.400 . S
C33 C35 1.364 . S
C34 C33 1.400 . S
C34 C38 1.377 . S
C35 C33 1.364 . S
C35 C36 1.374 . S
C36 H27 0.930 1_554 S
C36 C35 1.374 . S
C36 C37 1.383 . S
C37 O31 1.412 . S
C37 C36 1.383 . S
C37 C38 1.394 . S
C38 H28 0.929 . S
C38 C34 1.377 . S
C38 C37 1.394 . S
H39 C46 0.929 . S
H40 C49 0.930 . S
H41 C51 0.929 . S
H42 C43 0.969 . S
C43 H42 0.969 . S
C43 O44 1.550 . S
C43 H45 0.973 . S
O44 C43 1.550 . S
O44 C50 1.412 . S
H45 C43 0.973 . S
C46 H39 0.929 . S
C46 C47 1.400 . S
C46 C48 1.364 . S
C47 C46 1.400 . S
C47 C51 1.377 . S
C48 C46 1.364 . S
C48 C49 1.374 . S
C49 H40 0.930 . S
C49 C48 1.374 . S
C49 C50 1.383 . S
C50 O44 1.412 . S
C50 C49 1.383 . S
C50 C51 1.394 . S
C51 H41 0.929 . S
C51 C47 1.377 . S
C51 C50 1.394 . S
Tb52 N81 2.617 . S
Tb52 N87 2.572 . S
Tb52 O96 2.465 . S
Tb52 O97 2.387 . S
Tb52 O99 2.428 . S
Tb52 O100 2.308 1_565 S
Tb52 O104 2.349 1_465 S
Tb52 O107 2.393 1_455 S
Tb52 C116 2.802 . S
C53 N54 1.379 . S
C53 C56 1.416 . S
C53 C60 1.424 . S
N54 C53 1.379 . S
N54 C57 1.334 1_655 S
N54 Tb63 2.617 . S
C55 C57 1.390 . S
C55 C58 1.339 1_455 S
C55 H75 0.930 . S
C56 C53 1.416 . S
C56 C58 1.416 . S
C56 C62 1.448 . S
C57 N54 1.334 1_455 S
C57 C55 1.390 . S
C57 H68 0.930 . S
C58 C55 1.339 1_655 S
C58 C56 1.416 . S
C58 H79 0.930 . S
C59 C60 1.413 . S
C59 C61 1.427 . S
C59 C65 1.416 . S
C60 C53 1.424 . S
C60 C59 1.413 . S
C60 N64 1.361 . S
C61 C59 1.427 . S
C61 C62 1.328 . S
C61 H76 0.929 . S
C62 C56 1.448 . S
C62 C61 1.328 . S
C62 H77 0.930 . S
Tb63 N54 2.617 . S
Tb63 N64 2.572 . S
Tb63 O98 2.349 1_655 S
Tb63 O101 2.393 1_655 S
Tb63 O102 2.465 . S
Tb63 O103 2.387 . S
Tb63 O105 2.428 . S
Tb63 O106 2.308 1_545 S
Tb63 C127 2.802 . S
N64 C60 1.361 . S
N64 Tb63 2.572 . S
N64 C66 1.340 . S
C65 C59 1.416 . S
C65 C67 1.332 . S
C65 H73 0.931 . S
C66 N64 1.340 . S
C66 C67 1.407 . S
C66 H72 0.930 . S
C67 C65 1.332 . S
C67 C66 1.407 . S
C67 H69 0.929 . S
H68 C57 0.930 . S
H69 C67 0.929 . S
H70 C85 0.930 1_655 S
H71 C92 0.929 . S
H72 C66 0.930 . S
H73 C65 0.931 . S
H74 C88 0.930 . S
H75 C55 0.930 . S
H76 C61 0.929 . S
H77 C62 0.930 . S
H78 C83 0.930 1_655 S
H79 C58 0.930 . S
H80 C91 0.931 . S
N81 Tb52 2.617 . S
N81 C82 1.379 . S
N81 C85 1.334 . S
C82 N81 1.379 . S
C82 C84 1.416 . S
C82 C90 1.424 . S
C83 H78 0.930 1_455 S
C83 C85 1.390 . S
C83 C86 1.339 . S
C84 C82 1.416 . S
C84 C86 1.416 . S
C84 C117 1.448 . S
C85 H70 0.930 1_455 S
C85 N81 1.334 . S
C85 C83 1.390 . S
C86 C83 1.339 . S
C86 C84 1.416 . S
C86 H93 0.930 . S
N87 Tb52 2.572 . S
N87 C88 1.340 . S
N87 C90 1.361 . S
C88 H74 0.930 . S
C88 N87 1.340 . S
C88 C92 1.407 . S
C89 C90 1.413 . S
C89 C91 1.416 . S
C89 C118 1.427 . S
C90 C82 1.424 . S
C90 N87 1.361 . S
C90 C89 1.413 . S
C91 H80 0.931 . S
C91 C89 1.416 . S
C91 C92 1.332 . S
C92 H71 0.929 . S
C92 C88 1.407 . S
C92 C91 1.332 . S
H93 C86 0.930 . S
H94 C117 0.930 . S
H95 C118 0.929 . S
O96 Tb52 2.465 . S
O96 C116 1.264 . S
O97 Tb52 2.387 . S
O97 C108 1.264 . S
O98 Tb63 2.349 1_455 S
O98 C108 1.243 1_545 S
O99 Tb52 2.428 . S
O99 C116 1.256 . S
O100 Tb52 2.308 1_545 S
O100 C115 1.266 . S
O101 Tb63 2.393 1_455 S
O101 C115 1.248 . S
O102 Tb63 2.465 . S
O102 C127 1.264 . S
O103 Tb63 2.387 . S
O103 C119 1.264 . S
O104 Tb52 2.349 1_645 S
O104 C119 1.243 . S
O105 Tb63 2.428 . S
O105 C127 1.256 . S
O106 Tb63 2.308 1_565 S
O106 C126 1.266 . S
O107 Tb52 2.393 1_655 S
O107 C126 1.248 . S
C108 O97 1.264 . S
C108 O98 1.243 1_565 S
C109 C112 1.399 . S
C109 C114 1.383 . S
C109 C116 1.496 . S
C110 C111 1.399 . S
C110 C114 1.389 . S
C111 C110 1.399 . S
C111 C113 1.380 . S
C111 H128 0.929 . S
C112 C109 1.399 . S
C112 C113 1.392 . S
C112 H129 0.929 . S
C113 C111 1.380 . S
C113 C112 1.392 . S
C113 H130 0.929 . S
C114 C109 1.383 . S
C114 C110 1.389 . S
C114 H131 0.931 . S
C115 O100 1.266 . S
C115 O101 1.248 . S
C116 Tb52 2.802 . S
C116 O96 1.264 . S
C116 O99 1.256 . S
C116 C109 1.496 . S
C117 C84 1.448 . S
C117 H94 0.930 . S
C117 C118 1.328 . S
C118 C89 1.427 . S
C118 H95 0.929 . S
C118 C117 1.328 . S
C119 O103 1.264 . S
C119 O104 1.243 . S
C120 C123 1.399 . S
C120 C124 1.383 . S
C120 C127 1.496 . S
C121 C122 1.399 . S
C121 C124 1.389 . S
C122 C121 1.399 . S
C122 C125 1.380 . S
C122 H132 0.929 . S
C123 C120 1.399 . S
C123 C125 1.392 . S
C123 H133 0.929 . S
C124 C120 1.383 . S
C124 C121 1.389 . S
C124 H134 0.931 . S
C125 C122 1.380 . S
C125 C123 1.392 . S
C125 H135 0.929 . S
C126 O106 1.266 . S
C126 O107 1.248 . S
C127 Tb63 2.802 . S
C127 O102 1.264 . S
C127 O105 1.256 . S
C127 C120 1.496 . S
H128 C111 0.929 . S
H129 C112 0.929 . S
H130 C113 0.929 . S
H131 C114 0.931 . S
H132 C122 0.929 . S
H133 C123 0.929 . S
H134 C124 0.931 . S
H135 C125 0.929 . S
Tb136 N165 2.617 . S
Tb136 N171 2.572 1_556 S
Tb136 O180 2.465 . S
Tb136 O181 2.387 1_556 S
Tb136 O183 2.428 . S
Tb136 O184 2.308 1_556 S
Tb136 O188 2.349 . S
Tb136 O191 2.393 1_556 S
Tb136 C200 2.802 . S
C137 N138 1.379 . S
C137 C140 1.416 . S
C137 C144 1.424 . S
N138 C137 1.379 . S
N138 C141 1.334 . S
N138 Tb147 2.617 . S
C139 C141 1.390 . S
C139 C142 1.339 . S
C139 H159 0.930 . S
C140 C137 1.416 . S
C140 C142 1.416 . S
C140 C146 1.448 . S
C141 N138 1.334 . S
C141 C139 1.390 . S
C141 H152 0.930 . S
C142 C139 1.339 . S
C142 C140 1.416 . S
C142 H163 0.930 . S
C143 C144 1.413 . S
C143 C145 1.427 . S
C143 C149 1.416 . S
C144 C137 1.424 . S
C144 C143 1.413 . S
C144 N148 1.361 . S
C145 C143 1.427 . S
C145 C146 1.328 . S
C145 H160 0.929 . S
C146 C140 1.448 . S
C146 C145 1.328 . S
C146 H161 0.930 . S
Tb147 N138 2.617 . S
Tb147 N148 2.572 . S
Tb147 O182 2.349 . S
Tb147 O185 2.393 . S
Tb147 O186 2.465 . S
Tb147 O187 2.387 . S
Tb147 O189 2.428 . S
Tb147 O190 2.308 . S
Tb147 C211 2.802 . S
N148 C144 1.361 . S
N148 Tb147 2.572 . S
N148 C150 1.340 . S
C149 C143 1.416 . S
C149 C151 1.332 . S
C149 H157 0.931 . S
C150 N148 1.340 . S
C150 C151 1.407 . S
C150 H156 0.930 . S
C151 C149 1.332 . S
C151 C150 1.407 . S
C151 H153 0.929 . S
H152 C141 0.930 . S
H153 C151 0.929 . S
H154 C169 0.930 . S
H155 C176 0.929 . S
H156 C150 0.930 . S
H157 C149 0.931 . S
H158 C172 0.930 . S
H159 C139 0.930 . S
H160 C145 0.929 . S
H161 C146 0.930 . S
H162 C167 0.930 . S
H163 C142 0.930 . S
H164 C175 0.931 . S
N165 Tb136 2.617 . S
N165 C166 1.379 1_556 S
N165 C169 1.334 . S
C166 N165 1.379 1_554 S
C166 C168 1.416 . S
C166 C174 1.424 . S
C167 H162 0.930 . S
C167 C169 1.390 . S
C167 C170 1.339 1_556 S
C168 C166 1.416 . S
C168 C170 1.416 . S
C168 C201 1.448 . S
C169 H154 0.930 . S
C169 N165 1.334 . S
C169 C167 1.390 . S
C170 C167 1.339 1_554 S
C170 C168 1.416 . S
C170 H177 0.930 . S
N171 Tb136 2.572 1_554 S
N171 C172 1.340 . S
N171 C174 1.361 . S
C172 H158 0.930 . S
C172 N171 1.340 . S
C172 C176 1.407 . S
C173 C174 1.413 . S
C173 C175 1.416 . S
C173 C202 1.427 . S
C174 C166 1.424 . S
C174 N171 1.361 . S
C174 C173 1.413 . S
C175 H164 0.931 . S
C175 C173 1.416 . S
C175 C176 1.332 . S
C176 H155 0.929 . S
C176 C172 1.407 . S
C176 C175 1.332 . S
H177 C170 0.930 . S
H178 C201 0.930 . S
H179 C202 0.929 . S
O180 Tb136 2.465 . S
O180 C200 1.264 . S
O181 Tb136 2.387 1_554 S
O181 C192 1.264 . S
O182 Tb147 2.349 . S
O182 C192 1.243 . S
O183 Tb136 2.428 . S
O183 C200 1.256 . S
O184 Tb136 2.308 1_554 S
O184 C199 1.266 . S
O185 Tb147 2.393 . S
O185 C199 1.248 . S
O186 Tb147 2.465 . S
O186 C211 1.264 . S
O187 Tb147 2.387 . S
O187 C203 1.264 1_554 S
O188 Tb136 2.349 . S
O188 C203 1.243 . S
O189 Tb147 2.428 . S
O189 C211 1.256 . S
O190 Tb147 2.308 . S
O190 C210 1.266 . S
O191 Tb136 2.393 1_554 S
O191 C210 1.248 . S
C192 O181 1.264 . S
C192 O182 1.243 . S
C193 C196 1.399 . S
C193 C198 1.383 . S
C193 C200 1.496 . S
C194 C195 1.399 . S
C194 C198 1.389 . S
C195 C194 1.399 . S
C195 C197 1.380 . S
C195 H212 0.929 . S
C196 C193 1.399 . S
C196 C197 1.392 . S
C196 H213 0.929 . S
C197 C195 1.380 . S
C197 C196 1.392 . S
C197 H214 0.929 . S
C198 C193 1.383 . S
C198 C194 1.389 . S
C198 H215 0.931 . S
C199 O184 1.266 . S
C199 O185 1.248 . S
C200 Tb136 2.802 . S
C200 O180 1.264 . S
C200 O183 1.256 . S
C200 C193 1.496 . S
C201 C168 1.448 . S
C201 H178 0.930 . S
C201 C202 1.328 . S
C202 C173 1.427 . S
C202 H179 0.929 . S
C202 C201 1.328 . S
C203 O187 1.264 1_556 S
C203 O188 1.243 . S
C204 C207 1.399 . S
C204 C208 1.383 . S
C204 C211 1.496 . S
C205 C206 1.399 . S
C205 C208 1.389 . S
C206 C205 1.399 . S
C206 C209 1.380 . S
C206 H216 0.929 . S
C207 C204 1.399 . S
C207 C209 1.392 . S
C207 H217 0.929 . S
C208 C204 1.383 . S
C208 C205 1.389 . S
C208 H218 0.931 . S
C209 C206 1.380 . S
C209 C207 1.392 . S
C209 H219 0.929 . S
C210 O190 1.266 . S
C210 O191 1.248 . S
C211 Tb147 2.802 . S
C211 O186 1.264 . S
C211 O189 1.256 . S
C211 C204 1.496 . S
H212 C195 0.929 . S
H213 C196 0.929 . S
H214 C197 0.929 . S
H215 C198 0.931 . S
H216 C206 0.929 . S
H217 C207 0.929 . S
H218 C208 0.931 . S
H219 C209 0.929 . S
C220 C221 1.391 . S
C220 C222 1.394 . S
C220 H236 0.931 . S
C221 C220 1.391 . S
C221 C225 1.376 . S
C222 C220 1.394 . S
C222 C223 1.369 . S
C222 C226 1.531 . S
C223 C222 1.369 . S
C223 C224 1.410 . S
C223 C231 1.503 . S
C224 C223 1.410 . S
C224 C225 1.392 . S
C224 C227 1.511 . S
C225 C221 1.376 . S
C225 C224 1.392 . S
C225 H237 0.929 . S
C226 C222 1.531 . S
C226 H238 0.960 . S
C226 H239 0.962 . S
C226 H240 0.960 . S
C227 C224 1.511 . S
C227 H241 0.961 . S
C227 H242 0.961 . S
C227 H243 0.961 . S
C228 C229 1.370 . S
C228 C230 1.363 . S
C228 H244 0.931 . S
C229 C228 1.370 . S
C229 C233 1.408 . S
C230 C228 1.363 . S
C230 C231 1.370 . S
C230 C234 1.524 . S
C231 C223 1.503 . S
C231 C230 1.370 . S
C231 C232 1.403 . S
C232 C231 1.403 . S
C232 C233 1.404 . S
C232 C235 1.539 . S
C233 C229 1.408 . S
C233 C232 1.404 . S
C233 H245 0.930 . S
C234 C230 1.524 . S
C234 H246 0.956 . S
C234 H247 0.961 . S
C234 H248 0.961 . S
C235 C232 1.539 . S
C235 H249 0.958 . S
C235 H250 0.961 . S
C235 H251 0.960 . S
H236 C220 0.931 . S
H237 C225 0.929 . S
H238 C226 0.960 . S
H239 C226 0.962 . S
H240 C226 0.960 . S
H241 C227 0.961 . S
H242 C227 0.961 . S
H243 C227 0.961 . S
H244 C228 0.931 . S
H245 C233 0.930 . S
H246 C234 0.956 . S
H247 C234 0.961 . S
H248 C234 0.961 . S
H249 C235 0.958 . S
H250 C235 0.961 . S
H251 C235 0.960 . S
C252 C253 1.391 . S
C252 C254 1.394 . S
C252 H268 0.931 . S
C253 C252 1.391 . S
C253 C257 1.376 . S
C254 C252 1.394 . S
C254 C255 1.369 . S
C254 C258 1.531 . S
C255 C254 1.369 . S
C255 C256 1.410 . S
C255 C263 1.503 . S
C256 C255 1.410 . S
C256 C257 1.392 . S
C256 C259 1.511 1_554 S
C257 C253 1.376 . S
C257 C256 1.392 . S
C257 H269 0.929 1_554 S
C258 C254 1.531 . S
C258 H270 0.960 . S
C258 H271 0.962 . S
C258 H272 0.960 . S
C259 C256 1.511 1_556 S
C259 H273 0.961 . S
C259 H274 0.961 . S
C259 H275 0.961 . S
C260 C261 1.370 . S
C260 C262 1.363 . S
C260 H276 0.931 . S
C261 C260 1.370 . S
C261 C265 1.408 . S
C262 C260 1.363 . S
C262 C263 1.370 . S
C262 C266 1.524 . S
C263 C255 1.503 . S
C263 C262 1.370 . S
C263 C264 1.403 . S
C264 C263 1.403 . S
C264 C265 1.404 . S
C264 C267 1.539 . S
C265 C261 1.408 . S
C265 C264 1.404 . S
C265 H277 0.930 . S
C266 C262 1.524 . S
C266 H278 0.956 . S
C266 H279 0.961 1_554 S
C266 H280 0.961 1_554 S
C267 C264 1.539 . S
C267 H281 0.958 . S
C267 H282 0.961 . S
C267 H283 0.960 . S
H268 C252 0.931 . S
H269 C257 0.929 1_556 S
H270 C258 0.960 . S
H271 C258 0.962 . S
H272 C258 0.960 . S
H273 C259 0.961 . S
H274 C259 0.961 . S
H275 C259 0.961 . S
H276 C260 0.931 . S
H277 C265 0.930 . S
H278 C266 0.956 . S
H279 C266 0.961 1_556 S
H280 C266 0.961 1_556 S
H281 C267 0.958 . S
H282 C267 0.961 . S
H283 C267 0.960 . S
C284 C285 1.391 . S
C284 C286 1.394 . S
C284 H300 0.931 . S
C285 C284 1.391 . S
C285 C289 1.376 . S
C286 C284 1.394 . S
C286 C287 1.369 . S
C286 C290 1.531 . S
C287 C286 1.369 . S
C287 C288 1.410 . S
C287 C295 1.503 . S
C288 C287 1.410 . S
C288 C289 1.392 . S
C288 C291 1.511 . S
C289 C285 1.376 . S
C289 C288 1.392 . S
C289 H301 0.929 . S
C290 C286 1.531 . S
C290 H302 0.960 . S
C290 H303 0.962 . S
C290 H304 0.960 . S
C291 C288 1.511 . S
C291 H305 0.961 . S
C291 H306 0.961 . S
C291 H307 0.961 . S
C292 C293 1.370 . S
C292 C294 1.363 . S
C292 H308 0.931 . S
C293 C292 1.370 . S
C293 C297 1.408 . S
C294 C292 1.363 . S
C294 C295 1.370 . S
C294 C298 1.524 . S
C295 C287 1.503 . S
C295 C294 1.370 . S
C295 C296 1.403 . S
C296 C295 1.403 . S
C296 C297 1.404 . S
C296 C299 1.539 . S
C297 C293 1.408 . S
C297 C296 1.404 . S
C297 H309 0.930 . S
C298 C294 1.524 . S
C298 H310 0.956 . S
C298 H311 0.961 . S
C298 H312 0.961 . S
C299 C296 1.539 . S
C299 H313 0.958 . S
C299 H314 0.961 . S
C299 H315 0.960 . S
H300 C284 0.931 . S
H301 C289 0.929 . S
H302 C290 0.960 . S
H303 C290 0.962 . S
H304 C290 0.960 . S
H305 C291 0.961 . S
H306 C291 0.961 . S
H307 C291 0.961 . S
H308 C292 0.931 . S
H309 C297 0.930 . S
H310 C298 0.956 . S
H311 C298 0.961 . S
H312 C298 0.961 . S
H313 C299 0.958 . S
H314 C299 0.961 . S
H315 C299 0.960 . S
C316 C317 1.391 1_556 S
C316 C318 1.394 . S
C316 H332 0.931 . S
C317 C316 1.391 1_554 S
C317 C321 1.376 . S
C318 C316 1.394 . S
C318 C319 1.369 1_556 S
C318 C322 1.531 . S
C319 C318 1.369 1_554 S
C319 C320 1.410 . S
C319 C327 1.503 . S
C320 C319 1.410 . S
C320 C321 1.392 . S
C320 C323 1.511 . S
C321 C317 1.376 . S
C321 C320 1.392 . S
C321 H333 0.929 . S
C322 C318 1.531 . S
C322 H334 0.960 . S
C322 H335 0.962 . S
C322 H336 0.960 . S
C323 C320 1.511 . S
C323 H337 0.961 . S
C323 H338 0.961 . S
C323 H339 0.961 . S
C324 C325 1.370 . S
C324 C326 1.363 . S
C324 H340 0.931 . S
C325 C324 1.370 . S
C325 C329 1.408 . S
C326 C324 1.363 . S
C326 C327 1.370 . S
C326 C330 1.524 . S
C327 C319 1.503 . S
C327 C326 1.370 . S
C327 C328 1.403 1_554 S
C328 C327 1.403 1_556 S
C328 C329 1.404 1_556 S
C328 C331 1.539 . S
C329 C325 1.408 . S
C329 C328 1.404 1_554 S
C329 H341 0.930 1_554 S
C330 C326 1.524 . S
C330 H342 0.956 . S
C330 H343 0.961 . S
C330 H344 0.961 . S
C331 C328 1.539 . S
C331 H345 0.958 . S
C331 H346 0.961 . S
C331 H347 0.960 . S
H332 C316 0.931 . S
H333 C321 0.929 . S
H334 C322 0.960 . S
H335 C322 0.962 . S
H336 C322 0.960 . S
H337 C323 0.961 . S
H338 C323 0.961 . S
H339 C323 0.961 . S
H340 C324 0.931 . S
H341 C329 0.930 1_556 S
H342 C330 0.956 . S
H343 C330 0.961 . S
H344 C330 0.961 . S
H345 C331 0.958 . S
H346 C331 0.961 . S
H347 C331 0.960 . S
C348 C349 1.391 . S
C348 C350 1.394 . S
C348 H364 0.931 . S
C349 C348 1.391 . S
C349 C353 1.376 . S
C350 C348 1.394 . S
C350 C351 1.369 . S
C350 C354 1.531 . S
C351 C350 1.369 . S
C351 C352 1.410 . S
C351 C359 1.503 . S
C352 C351 1.410 . S
C352 C353 1.392 . S
C352 C355 1.511 . S
C353 C349 1.376 . S
C353 C352 1.392 . S
C353 H365 0.929 . S
C354 C350 1.531 . S
C354 H366 0.960 . S
C354 H367 0.962 . S
C354 H368 0.960 . S
C355 C352 1.511 . S
C355 H369 0.961 . S
C355 H370 0.961 . S
C355 H371 0.961 . S
C356 C357 1.370 . S
C356 C358 1.363 . S
C356 H372 0.931 . S
C357 C356 1.370 . S
C357 C361 1.408 . S
C358 C356 1.363 . S
C358 C359 1.370 . S
C358 C362 1.524 . S
C359 C351 1.503 . S
C359 C358 1.370 . S
C359 C360 1.403 . S
C360 C359 1.403 . S
C360 C361 1.404 . S
C360 C363 1.539 . S
C361 C357 1.408 . S
C361 C360 1.404 . S
C361 H373 0.930 . S
C362 C358 1.524 . S
C362 H374 0.956 . S
C362 H375 0.961 . S
C362 H376 0.961 . S
C363 C360 1.539 . S
C363 H377 0.958 . S
C363 H378 0.961 . S
C363 H379 0.960 . S
H364 C348 0.931 . S
H365 C353 0.929 . S
H366 C354 0.960 . S
H367 C354 0.962 . S
H368 C354 0.960 . S
H369 C355 0.961 . S
H370 C355 0.961 . S
H371 C355 0.961 . S
H372 C356 0.931 . S
H373 C361 0.930 . S
H374 C362 0.956 . S
H375 C362 0.961 . S
H376 C362 0.961 . S
H377 C363 0.958 . S
H378 C363 0.961 . S
H379 C363 0.960 . S
C380 C381 1.391 . S
C380 C382 1.394 . S
C380 H396 0.931 . S
C381 C380 1.391 . S
C381 C385 1.376 . S
C382 C380 1.394 . S
C382 C383 1.369 . S
C382 C386 1.531 . S
C383 C382 1.369 . S
C383 C384 1.410 . S
C383 C391 1.503 . S
C384 C383 1.410 . S
C384 C385 1.392 . S
C384 C387 1.511 . S
C385 C381 1.376 . S
C385 C384 1.392 . S
C385 H397 0.929 . S
C386 C382 1.531 . S
C386 H398 0.960 . S
C386 H399 0.962 . S
C386 H400 0.960 . S
C387 C384 1.511 . S
C387 H401 0.961 . S
C387 H402 0.961 . S
C387 H403 0.961 . S
C388 C389 1.370 . S
C388 C390 1.363 . S
C388 H404 0.931 . S
C389 C388 1.370 . S
C389 C393 1.408 . S
C390 C388 1.363 . S
C390 C391 1.370 . S
C390 C394 1.524 . S
C391 C383 1.503 . S
C391 C390 1.370 . S
C391 C392 1.403 . S
C392 C391 1.403 . S
C392 C393 1.404 . S
C392 C395 1.539 . S
C393 C389 1.408 . S
C393 C392 1.404 . S
C393 H405 0.930 . S
C394 C390 1.524 . S
C394 H406 0.956 . S
C394 H407 0.961 . S
C394 H408 0.961 . S
C395 C392 1.539 . S
C395 H409 0.958 . S
C395 H410 0.961 . S
C395 H411 0.960 . S
H396 C380 0.931 . S
H397 C385 0.929 . S
H398 C386 0.960 . S
H399 C386 0.962 . S
H400 C386 0.960 . S
H401 C387 0.961 . S
H402 C387 0.961 . S
H403 C387 0.961 . S
H404 C388 0.931 . S
H405 C393 0.930 . S
H406 C394 0.956 . S
H407 C394 0.961 . S
H408 C394 0.961 . S
H409 C395 0.958 . S
H410 C395 0.961 . S
H411 C395 0.960 . S
C412 C413 1.391 . S
C412 C414 1.394 . S
C412 H428 0.931 . S
C413 C412 1.391 . S
C413 C417 1.376 . S
C414 C412 1.394 . S
C414 C415 1.369 . S
C414 C418 1.531 . S
C415 C414 1.369 . S
C415 C416 1.410 . S
C415 C423 1.503 . S
C416 C415 1.410 . S
C416 C417 1.392 . S
C416 C419 1.511 . S
C417 C413 1.376 . S
C417 C416 1.392 . S
C417 H429 0.929 . S
C418 C414 1.531 . S
C418 H430 0.960 . S
C418 H431 0.962 . S
C418 H432 0.960 . S
C419 C416 1.511 . S
C419 H433 0.961 . S
C419 H434 0.961 . S
C419 H435 0.961 . S
C420 C421 1.370 . S
C420 C422 1.363 . S
C420 H436 0.931 . S
C421 C420 1.370 . S
C421 C425 1.408 . S
C422 C420 1.363 . S
C422 C423 1.370 . S
C422 C426 1.524 . S
C423 C415 1.503 . S
C423 C422 1.370 . S
C423 C424 1.403 . S
C424 C423 1.403 . S
C424 C425 1.404 . S
C424 C427 1.539 . S
C425 C421 1.408 . S
C425 C424 1.404 . S
C425 H437 0.930 . S
C426 C422 1.524 . S
C426 H438 0.956 . S
C426 H439 0.961 . S
C426 H440 0.961 . S
C427 C424 1.539 . S
C427 H441 0.958 . S
C427 H442 0.961 . S
C427 H443 0.960 . S
H428 C412 0.931 . S
H429 C417 0.929 . S
H430 C418 0.960 . S
H431 C418 0.962 . S
H432 C418 0.960 . S
H433 C419 0.961 . S
H434 C419 0.961 . S
H435 C419 0.961 . S
H436 C420 0.931 . S
H437 C425 0.930 . S
H438 C426 0.956 . S
H439 C426 0.961 . S
H440 C426 0.961 . S
H441 C427 0.958 . S
H442 C427 0.961 . S
H443 C427 0.960 . S
C444 C445 1.391 . S
C444 C446 1.394 . S
C444 H460 0.931 . S
C445 C444 1.391 . S
C445 C449 1.376 . S
C446 C444 1.394 . S
C446 C447 1.369 . S
C446 C450 1.531 . S
C447 C446 1.369 . S
C447 C448 1.410 . S
C447 C455 1.503 . S
C448 C447 1.410 . S
C448 C449 1.392 . S
C448 C451 1.511 . S
C449 C445 1.376 . S
C449 C448 1.392 . S
C449 H461 0.929 . S
C450 C446 1.531 . S
C450 H462 0.960 . S
C450 H463 0.962 . S
C450 H464 0.960 . S
C451 C448 1.511 . S
C451 H465 0.961 . S
C451 H466 0.961 . S
C451 H467 0.961 . S
C452 C453 1.370 . S
C452 C454 1.363 . S
C452 H468 0.931 . S
C453 C452 1.370 . S
C453 C457 1.408 . S
C454 C452 1.363 . S
C454 C455 1.370 . S
C454 C458 1.524 . S
C455 C447 1.503 . S
C455 C454 1.370 . S
C455 C456 1.403 . S
C456 C455 1.403 . S
C456 C457 1.404 . S
C456 C459 1.539 . S
C457 C453 1.408 . S
C457 C456 1.404 . S
C457 H469 0.930 . S
C458 C454 1.524 . S
C458 H470 0.956 . S
C458 H471 0.961 . S
C458 H472 0.961 . S
C459 C456 1.539 . S
C459 H473 0.958 . S
C459 H474 0.961 . S
C459 H475 0.960 . S
H460 C444 0.931 . S
H461 C449 0.929 . S
H462 C450 0.960 . S
H463 C450 0.962 . S
H464 C450 0.960 . S
H465 C451 0.961 . S
H466 C451 0.961 . S
H467 C451 0.961 . S
H468 C452 0.931 . S
H469 C457 0.930 . S
H470 C458 0.956 . S
H471 C458 0.961 . S
H472 C458 0.961 . S
H473 C459 0.958 . S
H474 C459 0.961 . S
H475 C459 0.960 . S
C476 C477 1.391 . S
C476 C478 1.394 . S
C476 H492 0.931 . S
C477 C476 1.391 . S
C477 C481 1.376 . S
C478 C476 1.394 . S
C478 C479 1.369 . S
C478 C482 1.531 . S
C479 C478 1.369 . S
C479 C480 1.410 . S
C479 C487 1.503 . S
C480 C479 1.410 . S
C480 C481 1.392 . S
C480 C483 1.511 . S
C481 C477 1.376 . S
C481 C480 1.392 . S
C481 H493 0.929 . S
C482 C478 1.531 . S
C482 H494 0.960 . S
C482 H495 0.962 . S
C482 H496 0.960 . S
C483 C480 1.511 . S
C483 H497 0.961 . S
C483 H498 0.961 . S
C483 H499 0.961 . S
C484 C485 1.370 . S
C484 C486 1.363 . S
C484 H500 0.931 . S
C485 C484 1.370 . S
C485 C489 1.408 . S
C486 C484 1.363 . S
C486 C487 1.370 . S
C486 C490 1.524 . S
C487 C479 1.503 . S
C487 C486 1.370 . S
C487 C488 1.403 . S
C488 C487 1.403 . S
C488 C489 1.404 . S
C488 C491 1.539 . S
C489 C485 1.408 . S
C489 C488 1.404 . S
C489 H501 0.930 . S
C490 C486 1.524 . S
C490 H502 0.956 . S
C490 H503 0.961 . S
C490 H504 0.961 . S
C491 C488 1.539 . S
C491 H505 0.958 . S
C491 H506 0.961 . S
C491 H507 0.960 . S
H492 C476 0.931 . S
H493 C481 0.929 . S
H494 C482 0.960 . S
H495 C482 0.962 . S
H496 C482 0.960 . S
H497 C483 0.961 . S
H498 C483 0.961 . S
H499 C483 0.961 . S
H500 C484 0.931 . S
H501 C489 0.930 . S
H502 C490 0.956 . S
H503 C490 0.961 . S
H504 C490 0.961 . S
H505 C491 0.958 . S
H506 C491 0.961 . S
H507 C491 0.960 . S
C508 C509 1.391 . S
C508 C510 1.394 . S
C508 H524 0.931 . S
C509 C508 1.391 . S
C509 C513 1.376 . S
C510 C508 1.394 . S
C510 C511 1.369 . S
C510 C514 1.531 . S
C511 C510 1.369 . S
C511 C512 1.410 . S
C511 C519 1.503 . S
C512 C511 1.410 . S
C512 C513 1.392 . S
C512 C515 1.511 . S
C513 C509 1.376 . S
C513 C512 1.392 . S
C513 H525 0.929 . S
C514 C510 1.531 . S
C514 H526 0.960 . S
C514 H527 0.962 . S
C514 H528 0.960 . S
C515 C512 1.511 . S
C515 H529 0.961 . S
C515 H530 0.961 . S
C515 H531 0.961 . S
C516 C517 1.370 . S
C516 C518 1.363 . S
C516 H532 0.931 . S
C517 C516 1.370 . S
C517 C521 1.408 . S
C518 C516 1.363 . S
C518 C519 1.370 . S
C518 C522 1.524 . S
C519 C511 1.503 . S
C519 C518 1.370 . S
C519 C520 1.403 . S
C520 C519 1.403 . S
C520 C521 1.404 . S
C520 C523 1.539 . S
C521 C517 1.408 . S
C521 C520 1.404 . S
C521 H533 0.930 . S
C522 C518 1.524 . S
C522 H534 0.956 . S
C522 H535 0.961 . S
C522 H536 0.961 . S
C523 C520 1.539 . S
C523 H537 0.958 . S
C523 H538 0.961 . S
C523 H539 0.960 . S
H524 C508 0.931 . S
H525 C513 0.929 . S
H526 C514 0.960 . S
H527 C514 0.962 . S
H528 C514 0.960 . S
H529 C515 0.961 . S
H530 C515 0.961 . S
H531 C515 0.961 . S
H532 C516 0.931 . S
H533 C521 0.930 . S
H534 C522 0.956 . S
H535 C522 0.961 . S
H536 C522 0.961 . S
H537 C523 0.958 . S
H538 C523 0.961 . S
H539 C523 0.960 . S
C540 C541 1.391 . S
C540 C542 1.394 . S
C540 H556 0.931 . S
C541 C540 1.391 . S
C541 C545 1.376 . S
C542 C540 1.394 . S
C542 C543 1.369 . S
C542 C546 1.531 . S
C543 C542 1.369 . S
C543 C544 1.410 . S
C543 C551 1.503 . S
C544 C543 1.410 . S
C544 C545 1.392 . S
C544 C547 1.511 . S
C545 C541 1.376 . S
C545 C544 1.392 . S
C545 H557 0.929 . S
C546 C542 1.531 . S
C546 H558 0.960 . S
C546 H559 0.962 . S
C546 H560 0.960 . S
C547 C544 1.511 . S
C547 H561 0.961 . S
C547 H562 0.961 . S
C547 H563 0.961 . S
C548 C549 1.370 . S
C548 C550 1.363 . S
C548 H564 0.931 . S
C549 C548 1.370 . S
C549 C553 1.408 . S
C550 C548 1.363 . S
C550 C551 1.370 . S
C550 C554 1.524 . S
C551 C543 1.503 . S
C551 C550 1.370 . S
C551 C552 1.403 . S
C552 C551 1.403 . S
C552 C553 1.404 . S
C552 C555 1.539 . S
C553 C549 1.408 . S
C553 C552 1.404 . S
C553 H565 0.930 . S
C554 C550 1.524 . S
C554 H566 0.956 . S
C554 H567 0.961 . S
C554 H568 0.961 . S
C555 C552 1.539 . S
C555 H569 0.958 . S
C555 H570 0.961 . S
C555 H571 0.960 . S
H556 C540 0.931 . S
H557 C545 0.929 . S
H558 C546 0.960 . S
H559 C546 0.962 . S
H560 C546 0.960 . S
H561 C547 0.961 . S
H562 C547 0.961 . S
H563 C547 0.961 . S
H564 C548 0.931 . S
H565 C553 0.930 . S
H566 C554 0.956 . S
H567 C554 0.961 . S
H568 C554 0.961 . S
H569 C555 0.958 . S
H570 C555 0.961 . S
H571 C555 0.960 . S
C572 C573 1.391 . S
C572 C574 1.394 . S
C572 H588 0.931 . S
C573 C572 1.391 . S
C573 C577 1.376 . S
C574 C572 1.394 . S
C574 C575 1.369 . S
C574 C578 1.531 . S
C575 C574 1.369 . S
C575 C576 1.410 . S
C575 C583 1.503 . S
C576 C575 1.410 . S
C576 C577 1.392 . S
C576 C579 1.511 . S
C577 C573 1.376 . S
C577 C576 1.392 . S
C577 H589 0.929 . S
C578 C574 1.531 . S
C578 H590 0.960 . S
C578 H591 0.962 . S
C578 H592 0.960 . S
C579 C576 1.511 . S
C579 H593 0.961 1_565 S
C579 H594 0.961 . S
C579 H595 0.961 1_565 S
C580 C581 1.370 . S
C580 C582 1.363 . S
C580 H596 0.931 . S
C581 C580 1.370 . S
C581 C585 1.408 . S
C582 C580 1.363 . S
C582 C583 1.370 . S
C582 C586 1.524 . S
C583 C575 1.503 . S
C583 C582 1.370 . S
C583 C584 1.403 . S
C584 C583 1.403 . S
C584 C585 1.404 . S
C584 C587 1.539 . S
C585 C581 1.408 . S
C585 C584 1.404 . S
C585 H597 0.930 . S
C586 C582 1.524 . S
C586 H598 0.956 . S
C586 H599 0.961 . S
C586 H600 0.961 . S
C587 C584 1.539 . S
C587 H601 0.958 . S
C587 H602 0.961 . S
C587 H603 0.960 . S
H588 C572 0.931 . S
H589 C577 0.929 . S
H590 C578 0.960 . S
H591 C578 0.962 . S
H592 C578 0.960 . S
H593 C579 0.961 1_545 S
H594 C579 0.961 . S
H595 C579 0.961 1_545 S
H596 C580 0.931 . S
H597 C585 0.930 . S
H598 C586 0.956 . S
H599 C586 0.961 . S
H600 C586 0.961 . S
H601 C587 0.958 . S
H602 C587 0.961 . S
H603 C587 0.960 . S
C229 C115 1.649 . S
C221 C43 1.532 . S
C253 C4 1.568 . S
C261 C210 1.640 . S
C285 C17 1.574 . S
C293 C126 1.651 . S
C317 C30 1.623 . S
C325 C199 1.644 . S
C357 C110 1.428 . S
C349 C9 1.582 . S
C389 C203 1.670 . S
C381 C21 1.671 . S
C413 C34 1.616 . S
C421 C119 1.627 . S
C445 C48 1.577 . S
C453 C194 1.430 . S
C485 C205 1.427 . S
C477 C22 1.583 . S
C517 C121 1.410 . S
C509 C35 1.555 1_556 S
C549 C192 1.669 . S
C541 C47 1.668 . S
C573 C8 1.610 . S
C581 C108 1.627 . S
