# Generated by pormake.
# Topology zzz, (3,6)-cn, num edge types: 1
# Building blocks:
#     Node 0, Type 0, BuildingBlock: MIDCAF_clean_linker_0, # of connection points: 3
#     Node 1, Type 0, BuildingBlock: MIDCAF_clean_linker_0, # of connection points: 3
#     Node 2, Type 0, BuildingBlock: MIDCAF_clean_linker_0, # of connection points: 3
#     Node 3, Type 0, BuildingBlock: MIDCAF_clean_linker_0, # of connection points: 3
#     Node 4, Type 0, BuildingBlock: MIDCAF_clean_linker_0, # of connection points: 3
#     Node 5, Type 0, BuildingBlock: MIDCAF_clean_linker_0, # of connection points: 3
#     Node 6, Type 0, BuildingBlock: MIDCAF_clean_linker_0, # of connection points: 3
#     Node 7, Type 0, BuildingBlock: MIDCAF_clean_linker_0, # of connection points: 3
#     Node 8, Type 1, BuildingBlock: BETDIP_clean_sbu_0, # of connection points: 6
#     Node 9, Type 1, BuildingBlock: BETDIP_clean_sbu_0, # of connection points: 6
#     Node 10, Type 1, BuildingBlock: BETDIP_clean_sbu_0, # of connection points: 6
#     Node 11, Type 1, BuildingBlock: BETDIP_clean_sbu_0, # of connection points: 6
#     Edge 12, Type (0, 1), BuildingBlock: AJUNOK_clean_linker_0, # of connection points: 2
#     Edge 13, Type (0, 1), BuildingBlock: AJUNOK_clean_linker_0, # of connection points: 2
#     Edge 14, Type (0, 1), BuildingBlock: AJUNOK_clean_linker_0, # of connection points: 2
#     Edge 15, Type (0, 1), BuildingBlock: AJUNOK_clean_linker_0, # of connection points: 2
#     Edge 16, Type (0, 1), BuildingBlock: AJUNOK_clean_linker_0, # of connection points: 2
#     Edge 17, Type (0, 1), BuildingBlock: AJUNOK_clean_linker_0, # of connection points: 2
#     Edge 18, Type (0, 1), BuildingBlock: AJUNOK_clean_linker_0, # of connection points: 2
#     Edge 19, Type (0, 1), BuildingBlock: AJUNOK_clean_linker_0, # of connection points: 2
#     Edge 20, Type (0, 1), BuildingBlock: AJUNOK_clean_linker_0, # of connection points: 2
#     Edge 21, Type (0, 1), BuildingBlock: AJUNOK_clean_linker_0, # of connection points: 2
#     Edge 22, Type (0, 1), BuildingBlock: AJUNOK_clean_linker_0, # of connection points: 2
#     Edge 23, Type (0, 1), BuildingBlock: AJUNOK_clean_linker_0, # of connection points: 2
#     Edge 24, Type (0, 1), BuildingBlock: AJUNOK_clean_linker_0, # of connection points: 2
#     Edge 25, Type (0, 1), BuildingBlock: AJUNOK_clean_linker_0, # of connection points: 2
#     Edge 26, Type (0, 1), BuildingBlock: AJUNOK_clean_linker_0, # of connection points: 2
#     Edge 27, Type (0, 1), BuildingBlock: AJUNOK_clean_linker_0, # of connection points: 2
#     Edge 28, Type (0, 1), BuildingBlock: AJUNOK_clean_linker_0, # of connection points: 2
#     Edge 29, Type (0, 1), BuildingBlock: AJUNOK_clean_linker_0, # of connection points: 2
#     Edge 30, Type (0, 1), BuildingBlock: AJUNOK_clean_linker_0, # of connection points: 2
#     Edge 31, Type (0, 1), BuildingBlock: AJUNOK_clean_linker_0, # of connection points: 2
#     Edge 32, Type (0, 1), BuildingBlock: AJUNOK_clean_linker_0, # of connection points: 2
#     Edge 33, Type (0, 1), BuildingBlock: AJUNOK_clean_linker_0, # of connection points: 2
#     Edge 34, Type (0, 1), BuildingBlock: AJUNOK_clean_linker_0, # of connection points: 2
#     Edge 35, Type (0, 1), BuildingBlock: AJUNOK_clean_linker_0, # of connection points: 2
# Relax obj value: 0.499
# Max RMSD: 0.260
# Mean RMSD: 0.244
data_MOF--net-zzz--node1-BETDIP_clean_sbu_0--node2-MIDCAF_clean_linker_0--edge1-AJUNOK_clean_linker_0
_symmetry_space_group_name_H-M    P1
_symmetry_Int_Tables_number       1
_symmetry_cell_setting            triclinic
loop_
_symmetry_equiv_pos_as_xyz
'x, y, z'
_cell_length_a     45.272865
_cell_length_b     45.302885
_cell_length_c     14.486342
_cell_angle_alpha  89.697105
_cell_angle_beta   89.877165
_cell_angle_gamma 90.051058
loop_
_atom_site_label
_atom_site_type_symbol
_atom_site_fract_x
_atom_site_fract_y
_atom_site_fract_z
_atom_type_partial_charge
C0 C 0.83595 0.53383 0.45995 0.0
C1 C 0.84077 0.52208 0.54917 0.0
C2 C 0.81804 0.50497 0.58913 0.0
C3 C 0.7924 0.49811 0.53918 0.0
H4 H 0.69052 0.5344 0.30167 0.0
H5 H 0.65061 0.55082 0.19724 0.0
H6 H 0.68339 0.49208 0.98709 0.0
H7 H 0.7227 0.47635 0.08852 0.0
H8 H 0.76534 0.43011 0.12362 0.0
H9 H 0.80604 0.4021 0.06291 0.0
H10 H 0.83115 0.3765 0.33975 0.0
H11 H 0.7913 0.40686 0.40115 0.0
H12 H 0.80813 0.53493 0.33992 0.0
H13 H 0.85307 0.54627 0.42493 0.0
H14 H 0.82063 0.4957 0.65768 0.0
H15 H 0.77655 0.48289 0.56916 0.0
N16 N 0.74681 0.50629 0.33385 0.0
N17 N 0.74052 0.46224 0.25044 0.0
N18 N 0.77525 0.46416 0.36868 0.0
C19 C 0.73235 0.4906 0.26685 0.0
C20 C 0.76173 0.44881 0.30106 0.0
C21 C 0.76816 0.49265 0.38598 0.0
C22 C 0.70981 0.50394 0.20395 0.0
C23 C 0.68933 0.52542 0.23264 0.0
C24 C 0.6663 0.53455 0.17321 0.0
C25 C 0.66363 0.52263 0.08371 0.0
C26 C 0.68474 0.50192 0.05497 0.0
C27 C 0.70731 0.49275 0.11381 0.0
C28 C 0.77588 0.42159 0.26723 0.0
C29 C 0.77861 0.41742 0.17164 0.0
C30 C 0.80205 0.40094 0.13651 0.0
C31 C 0.82261 0.38769 0.19657 0.0
C32 C 0.81624 0.38721 0.29174 0.0
C33 C 0.79334 0.4045 0.32702 0.0
C34 C 0.78834 0.50873 0.4487 0.0
C35 C 0.80998 0.52746 0.41085 0.0
C36 C 1.01684 0.8502 0.45814 0.0
C37 C 1.01998 0.85113 0.55483 0.0
C38 C 0.0263 0.82442 0.60135 0.0
C39 C 0.03206 0.79834 0.55193 0.0
H40 H 0.99651 0.71366 0.28132 0.0
H41 H 0.98122 0.67101 0.18785 0.0
H42 H 0.07266 0.6473 0.14905 0.0
H43 H 0.08773 0.6888 0.24144 0.0
H44 H 0.12201 0.75127 0.16506 0.0
H45 H 0.1522 0.78464 0.07189 0.0
H46 H 0.15458 0.84622 0.29869 0.0
H47 H 0.12576 0.81273 0.39182 0.0
H48 H 0.02224 0.82496 0.33432 0.0
H49 H 1.01215 0.87015 0.41939 0.0
H50 H 0.02807 0.82389 0.67584 0.0
H51 H 0.0395 0.77893 0.58916 0.0
N52 N 0.03684 0.75033 0.36816 0.0
N53 N 0.08197 0.74175 0.29136 0.0
N54 N 0.07615 0.78417 0.37949 0.0
C55 C 0.05418 0.73268 0.31332 0.0
C56 C 0.09316 0.76728 0.32414 0.0
C57 C 0.04832 0.77608 0.40257 0.0
C58 C 0.04337 0.70486 0.26936 0.0
C59 C 1.01323 0.69889 0.25469 0.0
C60 C 1.0045 0.67454 0.20069 0.0
C61 C 0.0257 0.65542 0.16165 0.0
C62 C 0.05563 0.66092 0.17956 0.0
C63 C 0.06428 0.68513 0.23219 0.0
C64 C 0.12043 0.78006 0.28434 0.0
C65 C 0.13032 0.77125 0.19658 0.0
C66 C 0.14761 0.79039 0.14299 0.0
C67 C 0.15512 0.81847 0.1766 0.0
C68 C 0.14939 0.82484 0.26991 0.0
C69 C 0.13235 0.8057 0.32343 0.0
C70 C 0.03092 0.79812 0.455 0.0
C71 C 0.0223 0.82412 0.4091 0.0
C72 C 0.71927 0.03163 0.52229 0.0
C73 C 0.70352 1.01026 0.57352 0.0
C74 C 0.71673 0.98266 0.5888 0.0
C75 C 0.74376 0.97562 0.54739 0.0
H76 H 0.87418 0.95421 0.3251 0.0
H77 H 0.91597 0.96454 0.22295 0.0
H78 H 0.87851 0.04931 0.15495 0.0
H79 H 0.83635 0.03885 0.25778 0.0
H80 H 0.80004 0.94365 0.11384 0.0
H81 H 0.76238 0.94727 0.99514 0.0
H82 H 0.69566 0.92391 0.19556 0.0
H83 H 0.73314 0.91952 0.31354 0.0
H84 H 0.75674 0.04037 0.43408 0.0
H85 H 0.70949 0.05304 0.50896 0.0
H86 H 0.70516 0.9658 0.62807 0.0
H87 H 0.75205 0.95329 0.55454 0.0
N88 N 0.80622 0.99633 0.39899 0.0
N89 N 0.81186 0.96186 0.27853 0.0
N90 N 0.76905 0.96146 0.3676 0.0
C91 C 0.823 0.98427 0.32968 0.0
C92 C 0.78485 0.95043 0.2964 0.0
C93 C 0.77925 0.98407 0.41945 0.0
C94 C 0.85219 0.99589 0.30057 0.0
C95 C 0.87557 0.97567 0.29199 0.0
C96 C 0.89935 0.98144 0.23271 0.0
C97 C 0.9003 1.00755 0.18016 0.0
C98 C 0.87839 0.02906 0.19503 0.0
C99 C 0.85442 0.02323 0.25463 0.0
C100 C 0.76904 0.93367 0.22441 0.0
C101 C 0.77764 0.93738 0.13162 0.0
C102 C 0.75602 0.93951 0.06322 0.0
C103 C 0.72607 0.93799 0.08822 0.0
C104 C 0.71858 0.9263 0.17516 0.0
C105 C 0.74016 0.92393 0.24324 0.0
C106 C 0.75839 0.99595 0.48942 0.0
C107 C 0.74649 0.02451 0.48029 0.0
C108 C 0.39756 0.73191 0.35003 0.0
C109 C 0.38883 0.73396 0.25706 0.0
C110 C 0.39153 0.76155 0.21226 0.0
C111 C 0.40856 0.784 0.25168 0.0
H112 H 0.45535 0.86603 0.2252 0.0
H113 H 0.46934 0.90436 0.11636 0.0
H114 H 0.56101 0.88028 0.14684 0.0
H115 H 0.54688 0.84108 0.25623 0.0
H116 H 0.50962 0.78036 0.59783 0.0
H117 H 0.52267 0.73447 0.67776 0.0
H118 H 0.53911 0.69329 0.41434 0.0
H119 H 0.52788 0.73959 0.33631 0.0
H120 H 0.423 0.7508 0.45816 0.0
H121 H 0.3959 0.71139 0.38816 0.0
H122 H 0.38396 0.76436 0.14188 0.0
H123 H 0.41393 0.8032 0.21 0.0
N124 N 0.46114 0.81661 0.30703 0.0
N125 N 0.5096 0.80851 0.36124 0.0
N126 N 0.47045 0.77828 0.41078 0.0
C127 C 0.49012 0.82487 0.30956 0.0
C128 C 0.49939 0.78542 0.41364 0.0
C129 C 0.45113 0.79338 0.35761 0.0
C130 C 0.49991 0.85006 0.2495 0.0
C131 C 0.47858 0.86881 0.20963 0.0
C132 C 0.48661 0.89105 0.14716 0.0
C133 C 0.51627 0.89532 0.12171 0.0
C134 C 0.53787 0.87727 0.16351 0.0
C135 C 0.5298 0.85494 0.2269 0.0
C136 C 0.51878 0.76393 0.46098 0.0
C137 C 0.5179 0.762 0.55776 0.0
C138 C 0.52472 0.73542 0.60331 0.0
C139 C 0.53193 0.70984 0.55304 0.0
C140 C 0.53456 0.71245 0.45631 0.0
C141 C 0.52829 0.73919 0.41111 0.0
C142 C 0.42235 0.77924 0.33725 0.0
C143 C 0.41369 0.75463 0.3903 0.0
C144 C 0.21762 0.5639 0.92902 0.0
C145 C 0.20158 0.53801 0.94831 0.0
C146 C 0.2135 0.51781 1.01281 0.0
C147 C 0.23987 0.52418 0.06034 0.0
H148 H 0.37387 0.56652 0.17961 0.0
H149 H 0.41495 0.55694 0.28557 0.0
H150 H 0.35607 0.5097 0.46792 0.0
H151 H 0.31493 0.51932 0.36171 0.0
H152 H 0.28126 0.60873 0.40083 0.0
H153 H 0.2414 0.63613 0.47204 0.0
H154 H 0.22512 0.68142 0.21399 0.0
H155 H 0.26378 0.65203 0.14077 0.0
H156 H 0.25433 0.59141 0.96432 0.0
H157 H 0.20901 0.58027 0.8815 0.0
H158 H 0.20175 0.49763 0.02933 0.0
H159 H 0.24733 0.50919 0.1139 0.0
N160 N 0.29884 0.5466 0.15058 0.0
N161 N 0.30912 0.5858 0.25252 0.0
N162 N 0.2706 0.59016 0.14667 0.0
C163 C 0.31591 0.5587 0.2189 0.0
C164 C 0.28668 0.60173 0.21614 0.0
C165 C 0.27617 0.56282 0.11343 0.0
C166 C 0.34129 0.54324 0.26163 0.0
C167 C 0.37001 0.55289 0.24014 0.0
C168 C 0.39345 0.54773 0.30132 0.0
C169 C 0.38865 0.53303 0.38579 0.0
C170 C 0.3605 0.52103 0.40331 0.0
C171 C 0.33697 0.5263 0.34213 0.0
C172 C 0.27474 0.62755 0.26471 0.0
C173 C 0.27013 0.62551 0.36028 0.0
C174 C 0.24719 0.64135 0.40123 0.0
C175 C 0.22906 0.65978 0.34718 0.0
C176 C 0.23785 0.66627 0.25615 0.0
C177 C 0.26016 0.64971 0.21441 0.0
C178 C 0.2547 0.55104 0.04506 0.0
C179 C 0.24371 0.5703 0.97671 0.0
C180 C 1.01388 0.22347 1.01735 0.0
C181 C 0.03291 0.2113 0.95035 0.0
C182 C 0.05618 0.22893 0.9168 0.0
C183 C 0.06204 0.25665 0.95562 0.0
H184 H 0.08643 0.38468 0.17595 0.0
H185 H 0.07761 0.42696 0.27621 0.0
H186 H 0.99761 0.38613 0.37644 0.0
H187 H 1.00639 0.34368 0.27456 0.0
H188 H 0.09322 0.29763 0.39354 0.0
H189 H 0.09545 0.2524 0.48187 0.0
H190 H 0.14147 0.20993 0.25766 0.0
H191 H 0.13786 0.25514 0.16699 0.0
H192 H 1.00619 0.25888 0.11291 0.0
H193 H 0.99541 0.21073 0.04367 0.0
H194 H 0.07129 0.22035 0.86544 0.0
H195 H 0.08184 0.26833 0.93446 0.0
N196 N 0.04536 0.31542 0.11776 0.0
N197 N 0.08271 0.32154 0.22974 0.0
N198 N 0.08244 0.2796 0.13736 0.0
C199 C 0.05862 0.33218 0.18477 0.0
C200 C 0.09475 0.29529 0.20641 0.0
C201 C 0.05804 0.28915 0.09259 0.0
C202 C 0.04696 0.361 0.2166 0.0
C203 C 0.06623 0.38534 0.21613 0.0
C204 C 0.06136 0.40941 0.27441 0.0
C205 C 0.03726 0.40961 0.33573 0.0
C206 C 1.01638 0.3866 0.33 0.0
C207 C 0.02126 0.36241 0.27109 0.0
C208 C 0.11385 0.27922 0.27164 0.0
C209 C 0.10563 0.27934 0.36515 0.0
C210 C 0.10694 0.25318 0.41627 0.0
C211 C 0.11728 0.22719 0.37457 0.0
C212 C 0.13246 0.22946 0.29008 0.0
C213 C 0.13059 0.25545 0.23829 0.0
C214 C 0.04448 0.26779 0.02779 0.0
C215 C 1.01962 0.25139 0.05565 0.0
C216 C 0.33007 0.98763 0.94594 0.0
C217 C 0.34207 1.01622 0.94926 0.0
C218 C 0.32756 0.0374 1.00447 0.0
C219 C 0.30266 0.02968 0.05825 0.0
H220 H 0.17967 0.96408 0.26781 0.0
H221 H 0.13915 0.98007 0.36433 0.0
H222 H 0.17891 0.06645 0.38626 0.0
H223 H 0.22064 0.04965 0.29037 0.0
H224 H 0.28234 0.89868 0.17535 0.0
H225 H 0.3162 0.86499 0.25371 0.0
H226 H 0.30889 0.91837 0.50013 0.0
H227 H 0.27271 0.94881 0.42544 0.0
H228 H 0.29789 0.95729 0.99811 0.0
H229 H 0.34083 0.97042 0.90668 0.0
H230 H 0.33614 0.05967 1.00874 0.0
H231 H 0.29316 0.04591 0.10421 0.0
N232 N 0.24756 1.00425 0.16436 0.0
N233 N 0.23958 0.9663 0.27391 0.0
N234 N 0.27922 0.96304 0.17157 0.0
C235 C 0.23093 0.99213 0.23446 0.0
C236 C 0.26348 0.95164 0.2425 0.0
C237 C 0.27177 0.98919 0.13201 0.0
C238 C 0.20334 1.00562 0.27086 0.0
C239 C 0.17941 0.98681 0.29071 0.0
C240 C 0.15592 0.99611 0.34592 0.0
C241 C 0.15537 0.02473 0.38295 0.0
C242 C 0.17857 0.04424 0.35899 0.0
C243 C 0.2023 0.03481 0.3031 0.0
C244 C 0.27557 0.92651 0.29432 0.0
C245 C 0.28695 0.90193 0.24796 0.0
C246 C 0.30648 0.88281 0.29292 0.0
C247 C 0.31656 0.88932 0.38258 0.0
C248 C 0.30198 0.91188 0.43185 0.0
C249 C 0.28129 0.92993 0.38842 0.0
C250 C 0.29192 1.00056 0.05841 0.0
C251 C 0.3054 0.98001 0.99917 0.0
C252 C 0.39133 0.34282 0.19636 0.0
C253 C 0.39212 0.34293 0.29319 0.0
C254 C 0.39073 0.31567 0.3402 0.0
C255 C 0.39721 0.28961 0.29304 0.0
H256 H 0.52251 0.21543 0.24057 0.0
H257 H 0.53439 0.17404 0.34482 0.0
H258 H 0.44142 0.15737 0.38453 0.0
H259 H 0.42953 0.19814 0.28224 0.0
H260 H 0.47386 0.29297 0.91848 0.0
H261 H 0.48892 0.34071 0.85595 0.0
H262 H 0.53834 0.35797 0.10435 0.0
H263 H 0.52262 0.3101 0.16745 0.0
H264 H 0.40125 0.31805 0.07547 0.0
H265 H 0.3916 0.36334 0.15764 0.0
H266 H 0.39021 0.31509 0.41497 0.0
H267 H 0.40156 0.26987 0.33327 0.0
N268 N 0.43895 0.24873 0.21126 0.0
N269 N 0.4865 0.25268 0.14511 0.0
N270 N 0.44949 0.28712 0.10897 0.0
C271 C 0.4667 0.23759 0.19972 0.0
C272 C 0.47741 0.2773 0.09791 0.0
C273 C 0.43015 0.27347 0.16599 0.0
C274 C 0.47504 0.21057 0.25361 0.0
C275 C 0.50464 0.20264 0.27044 0.0
C276 C 0.51146 0.17885 0.32993 0.0
C277 C 0.48882 0.1625 0.3735 0.0
C278 C 0.45939 0.16968 0.35314 0.0
C279 C 0.45261 0.19322 0.29425 0.0
C280 C 0.49748 0.29748 0.0472 0.0
C281 C 0.48923 0.30626 0.95768 0.0
C282 C 0.49757 0.33389 0.92237 0.0
C283 C 0.51417 0.35364 0.97606 0.0
C284 C 0.52489 0.34365 0.06204 0.0
C285 C 0.51657 0.31586 0.09731 0.0
C286 C 0.40466 0.29101 0.19893 0.0
C287 C 0.3971 0.31667 0.14908 0.0
Tb288 Tb 0.0465 0.02156 0.84778 0.0
Tb289 Tb 1.0048 0.03697 0.70626 0.0
C290 C 0.07518 1.00081 0.98165 0.0
C291 C 0.09737 0.97759 0.99249 0.0
C292 C 0.10746 0.9702 0.08082 0.0
C293 C 0.12643 0.94625 0.09303 0.0
C294 C 0.13558 0.92935 1.0169 0.0
C295 C 0.12668 0.93788 0.92782 0.0
C296 C 0.10774 0.96194 0.91565 0.0
C297 C 0.07237 0.0383 0.68992 0.0
C298 C 1.02023 0.97013 0.7177 0.0
C299 C 0.98319 0.06312 0.57007 0.0
C300 C 0.99712 0.08849 0.52218 0.0
C301 C 1.01634 0.08336 0.44751 0.0
C302 C 0.03701 0.10467 0.42112 0.0
C303 C 0.03845 0.13169 0.46782 0.0
C304 C 1.01712 0.13809 0.53524 0.0
C305 C 0.99668 0.11666 0.56249 0.0
C306 C 0.9789 1.01889 0.86079 0.0
C307 C 0.02985 0.08675 0.83537 0.0
O308 O 0.04863 0.9919 0.9592 0.0
O309 O 0.08359 0.02376 0.93346 0.0
O310 O 0.04962 0.02258 0.69946 0.0
O311 O 0.08209 0.04405 0.77159 0.0
O312 O 0.03603 0.97726 0.7916 0.0
O313 O 1.00654 0.99065 0.66904 0.0
O314 O 0.99781 0.03838 0.56352 0.0
O315 O 0.97406 0.06767 0.65464 0.0
O316 O 1.00135 0.0353 0.8547 0.0
O317 O 0.96907 1.01397 0.77838 0.0
O318 O 0.02426 0.07972 0.74868 0.0
O319 O 0.03406 0.06528 0.89546 0.0
H320 H 0.09975 0.98222 0.14071 0.0
H321 H 0.13236 0.93984 0.16271 0.0
H322 H 0.13338 0.92518 0.86821 0.0
H323 H 0.10037 0.96771 0.84678 0.0
H324 H 1.0169 0.06206 0.41395 0.0
H325 H 0.0528 0.09943 0.36736 0.0
H326 H 1.01693 0.15932 0.56933 0.0
H327 H 0.9819 0.12158 0.61925 0.0
Tb328 Tb 0.52826 0.04673 0.81547 0.0
Tb329 Tb 0.51468 1.00815 0.66346 0.0
C330 C 0.55334 0.06589 0.95609 0.0
C331 C 0.58231 0.05549 0.98987 0.0
C332 C 0.58323 0.03351 0.05863 0.0
C333 C 0.60824 1.01585 0.06875 0.0
C334 C 0.63288 1.02012 1.01115 0.0
C335 C 0.63307 0.04392 0.94886 0.0
C336 C 0.6081 0.06167 0.93894 0.0
C337 C 0.5099 0.07583 0.66799 0.0
C338 C 0.57947 0.02499 0.68198 0.0
C339 C 0.49547 0.9821 0.52339 0.0
C340 C 0.47418 0.95837 0.50605 0.0
C341 C 0.45622 0.96029 0.42805 0.0
C342 C 0.43497 0.93877 0.41158 0.0
C343 C 0.43137 0.91467 0.47251 0.0
C344 C 0.45009 0.91227 0.54938 0.0
C345 C 0.47124 0.93411 0.56644 0.0
C346 C 0.53067 0.97945 0.81724 0.0
C347 C 0.46188 0.02965 0.79715 0.0
O348 O 0.53247 0.04593 0.95931 0.0
O349 O 0.55339 0.08023 0.87729 0.0
O350 O 0.52706 0.05378 0.66787 0.0
O351 O 0.50395 0.08294 0.75259 0.0
O352 O 0.57206 0.03063 0.76848 0.0
O353 O 0.55858 0.0213 0.62029 0.0
O354 O 0.48454 1.00703 0.5534 0.0
O355 O 0.51949 0.9744 0.56701 0.0
O356 O 0.51459 1.00189 0.81026 0.0
O357 O 0.53685 0.97117 0.73434 0.0
O358 O 0.46984 1.01652 0.71912 0.0
O359 O 0.48182 0.04207 0.85095 0.0
H360 H 0.5638 0.02839 0.09951 0.0
H361 H 0.6079 0.9981 0.11917 0.0
H362 H 0.65185 0.0478 0.90397 0.0
H363 H 0.60828 0.07866 0.88609 0.0
H364 H 0.4582 0.97883 0.38081 0.0
H365 H 0.42056 0.94166 0.35261 0.0
H366 H 0.44814 0.89383 0.59685 0.0
H367 H 0.48501 0.93221 0.62724 0.0
Tb368 Tb 0.50038 0.54422 0.85401 0.0
Tb369 Tb 0.53114 0.52095 0.6775 0.0
C370 C 0.47852 0.55675 1.00812 0.0
C371 C 0.45648 0.57843 0.0384 0.0
C372 C 0.4526 0.58415 0.13255 0.0
C373 C 0.43331 0.60645 0.16107 0.0
C374 C 0.41756 0.62323 0.09566 0.0
C375 C 0.42056 0.61647 1.00158 0.0
C376 C 0.4399 0.5943 0.9732 0.0
C377 C 0.46764 0.53934 0.70364 0.0
C378 C 0.52621 0.59058 0.71195 0.0
C379 C 0.52988 0.50146 0.51713 0.0
C380 C 0.50961 0.47873 0.48168 0.0
C381 C 0.49528 0.48237 0.39651 0.0
C382 C 0.47349 0.46223 0.36885 0.0
C383 C 0.46542 0.43851 0.42694 0.0
C384 C 0.47953 0.43543 0.5126 0.0
C385 C 0.50153 0.45499 0.53897 0.0
C386 C 0.57141 0.53296 0.80566 0.0
C387 C 0.51723 0.4759 0.83786 0.0
O388 O 0.50362 0.56776 0.9779 0.0
O389 O 0.46835 0.53576 0.95493 0.0
O390 O 0.48732 0.52175 0.73092 0.0
O391 O 0.46488 0.56009 0.76377 0.0
O392 O 0.51687 0.58604 0.79796 0.0
O393 O 0.53096 0.56874 0.65292 0.0
O394 O 0.51686 0.52616 0.54078 0.0
O395 O 0.54925 0.49251 0.57881 0.0
O396 O 0.54376 0.53587 0.80964 0.0
O397 O 0.57764 0.52386 0.72266 0.0
O398 O 0.52156 0.47949 0.74821 0.0
O399 O 0.51205 0.49867 0.89273 0.0
H400 H 0.46521 0.57207 0.18379 0.0
H401 H 0.43197 0.6116 0.2339 0.0
H402 H 0.40884 0.62916 0.94976 0.0
H403 H 0.44256 0.59018 0.90018 0.0
H404 H 0.50077 0.50085 0.3519 0.0
H405 H 0.46338 0.46496 0.30173 0.0
H406 H 0.47366 0.41767 0.55957 0.0
H407 H 0.51189 0.4516 0.60516 0.0
Tb408 Tb 1.01559 0.50611 0.82259 0.0
Tb409 Tb 0.02442 0.55316 0.69427 0.0
C410 C 1.00119 0.47172 0.95238 0.0
C411 C 0.97907 0.44925 0.97555 0.0
C412 C 0.95199 0.4479 0.9291 0.0
C413 C 0.93004 0.42843 0.95951 0.0
C414 C 0.93496 0.40999 0.03647 0.0
C415 C 0.96283 0.41019 0.07901 0.0
C416 C 0.98472 0.42969 0.04868 0.0
C417 C 0.03238 0.48747 0.65676 0.0
C418 C 0.96046 0.52883 0.70351 0.0
C419 C 0.0402 0.58878 0.56914 0.0
C420 C 0.06488 0.60896 0.5506 0.0
C421 C 0.09221 0.60514 0.59428 0.0
C422 C 0.11647 0.62221 0.56752 0.0
C423 C 0.11358 0.64361 0.4975 0.0
C424 C 0.08551 0.64919 0.46012 0.0
C425 C 0.06137 0.63175 0.48581 0.0
C426 C 1.00822 0.57176 0.86158 0.0
C427 C 0.07948 0.5303 0.81199 0.0
O428 O 0.99185 0.49898 0.9451 0.0
O429 O 1.01988 0.46485 0.88737 0.0
O430 O 1.01384 0.50756 0.67312 0.0
O431 O 0.04149 0.47696 0.73458 0.0
O432 O 0.96929 0.51417 0.7781 0.0
O433 O 0.97983 0.54268 0.6509 0.0
O434 O 0.04626 0.56055 0.56842 0.0
O435 O 0.02311 0.5959 0.63793 0.0
O436 O 0.02646 0.55158 0.84325 0.0
O437 O 0.99863 0.58207 0.78407 0.0
O438 O 0.07074 0.54289 0.73389 0.0
O439 O 0.05966 0.51846 0.86759 0.0
H440 H 0.94738 0.46276 0.8721 0.0
H441 H 0.90858 0.42925 0.92665 0.0
H442 H 0.96716 0.39629 0.13858 0.0
H443 H 1.00567 0.43032 0.08475 0.0
H444 H 0.09506 0.58819 0.64622 0.0
H445 H 0.13784 0.61741 0.59753 0.0
H446 H 0.08264 0.66603 0.40778 0.0
H447 H 0.04022 0.6354 0.45274 0.0
C448 C 0.14093 0.04595 0.53752 0.0
C449 C 0.13245 0.03255 0.45403 0.0
C450 C 0.12099 0.0489 0.61171 0.0
C451 C 0.09173 0.03838 0.60613 0.0
H452 H 0.16357 0.05293 0.54756 0.0
H453 H 0.12899 0.05845 0.67533 0.0
S454 S 0.05717 1.00516 0.39899 0.0
N455 N 0.09154 1.01191 0.36689 0.0
N456 N 0.05468 1.01626 0.50709 0.0
C457 C 0.08252 0.02638 0.52151 0.0
C458 C 0.10268 0.02375 0.44551 0.0
C459 C 0.48037 0.14125 0.53147 0.0
C460 C 0.49513 0.13968 0.44598 0.0
C461 C 0.48513 0.12025 0.60136 0.0
C462 C 0.50474 0.0965 0.58915 0.0
H463 H 0.46515 0.15916 0.54505 0.0
H464 H 0.47332 0.12279 0.66595 0.0
S465 S 0.54826 0.08143 0.37709 0.0
N466 N 0.52983 0.11192 0.35221 0.0
N467 N 0.53868 0.07226 0.48361 0.0
C468 C 0.51946 0.09432 0.50363 0.0
C469 C 0.51477 0.11599 0.43232 0.0
C470 C 0.42097 0.50851 0.50684 0.0
C471 C 0.41133 0.53425 0.46076 0.0
C472 C 0.4405 0.51003 0.58261 0.0
C473 C 0.45027 0.5374 0.6168 0.0
H474 H 0.41307 0.48711 0.48501 0.0
H475 H 0.44696 0.48976 0.61701 0.0
S476 S 0.43235 0.61112 0.51955 0.0
N477 N 0.41412 0.5878 0.45347 0.0
N478 N 0.44982 0.59061 0.59654 0.0
C479 C 0.44123 0.56315 0.57036 0.0
C480 C 0.42202 0.56159 0.49229 0.0
C481 C 1.01169 0.4491 0.43085 0.0
C482 C 0.03656 0.4312 0.41371 0.0
C483 C 1.01084 0.46853 0.50695 0.0
C484 C 0.03456 0.4702 0.56972 0.0
H485 H 0.99275 0.44796 0.38545 0.0
H486 H 0.99109 0.48148 0.51852 0.0
S487 S 0.10459 0.42802 0.55617 0.0
N488 N 0.08546 0.41679 0.46603 0.0
N489 N 0.08363 0.45264 0.60843 0.0
C490 C 0.05953 0.45265 0.55259 0.0
C491 C 0.06059 0.43332 0.47494 0.0
C492 C 0.94237 0.03284 0.09511 0.0
C493 C 0.92129 1.01 0.10079 0.0
C494 C 0.96183 0.0351 0.019 0.0
C495 C 0.96034 1.01503 0.94499 0.0
H496 H 0.94385 0.04896 0.14984 0.0
H497 H 0.97754 0.05314 1.01696 0.0
S498 S 0.90907 0.95145 0.9268 0.0
N499 N 0.90043 0.96688 0.02627 0.0
N500 N 0.93628 0.9715 0.88338 0.0
C501 C 0.93943 0.99215 0.95037 0.0
C502 C 0.92009 0.98956 0.0281 0.0
C503 C 0.51077 0.94612 0.0515 0.0
C504 C 0.5238 0.91785 0.04905 0.0
C505 C 0.51421 0.96637 0.97826 0.0
C506 C 0.53067 0.9592 0.89889 0.0
H507 H 0.49718 0.95243 0.10978 0.0
H508 H 0.503 0.98743 0.98263 0.0
S509 S 0.57099 0.88904 0.85996 0.0
N510 N 0.55509 0.88446 0.96174 0.0
N511 N 0.56176 0.92253 0.82497 0.0
C512 C 0.54493 0.9316 0.89722 0.0
C513 C 0.54148 0.91097 0.97196 0.0
C514 C 0.64575 0.53634 0.92512 0.0
C515 C 0.63911 0.53073 0.0187 0.0
C516 C 0.62348 0.53854 0.85817 0.0
C517 C 0.59344 0.53564 0.8815 0.0
H518 H 0.66854 0.53791 0.90264 0.0
H519 H 0.62998 0.54159 0.78672 0.0
S520 S 0.56369 0.52271 0.11709 0.0
N521 N 0.59988 0.52365 0.13166 0.0
N522 N 0.55804 0.52853 1.00585 0.0
C523 C 0.58623 0.53179 0.97539 0.0
C524 C 0.60904 0.52922 0.04392 0.0
C525 C 0.9986 0.638 0.02023 0.0
C526 C 1.01742 0.63158 0.09493 0.0
C527 C 0.99462 0.61785 0.94765 0.0
C528 C 1.00928 0.59039 0.9464 0.0
H529 H 0.98806 0.6594 1.01518 0.0
H530 H 0.98086 0.62445 0.89006 0.0
S531 S 0.05745 0.56096 0.13223 0.0
N532 N 0.04817 0.59424 0.16819 0.0
N533 N 0.04088 0.55665 0.03173 0.0
C534 C 0.02664 0.5829 0.02349 0.0
C535 C 0.03068 0.60341 0.09752 0.0
C536 C 0.08778 0.18319 0.33124 0.0
C537 C 0.1031 0.19879 0.4003 0.0
C538 C 0.06773 0.16084 0.35367 0.0
C539 C 0.06208 0.15322 0.44595 0.0
H540 H 0.08965 0.18961 0.25931 0.0
H541 H 0.05542 0.15055 0.29851 0.0
S542 S 0.09973 0.18375 0.65186 0.0
N543 N 0.11369 0.20266 0.56417 0.0
N544 N 0.07602 0.16022 0.60651 0.0
C545 C 0.07864 0.16714 0.51549 0.0
C546 C 0.09914 0.18999 0.49261 0.0
C547 C 0.36941 0.87936 0.34506 0.0
C548 C 0.34679 0.87993 0.41225 0.0
C549 C 0.39851 0.88633 0.36806 0.0
C550 C 0.40594 0.8945 0.45847 0.0
H551 H 0.36444 0.87758 0.27231 0.0
H552 H 0.41441 0.88896 0.31265 0.0
S553 S 0.35803 0.88581 0.66501 0.0
N554 N 0.33634 0.87778 0.57712 0.0
N555 N 0.39062 0.89367 0.6197 0.0
C556 C 0.38504 0.88928 0.52869 0.0
C557 C 0.35551 0.88116 0.50549 0.0
C558 C 0.4334 0.36269 0.38558 0.0
C559 C 0.40672 0.36826 0.33899 0.0
C560 C 0.45181 0.38558 0.41342 0.0
C561 C 0.44439 0.41526 0.39706 0.0
H562 H 0.44115 0.34031 0.39616 0.0
H563 H 0.47264 0.37978 0.44541 0.0
S564 S 0.376 0.44208 0.28343 0.0
N565 N 0.37312 0.40571 0.28047 0.0
N566 N 0.40763 0.44921 0.33551 0.0
C567 C 0.41737 0.42139 0.35287 0.0
C568 C 0.39857 0.39782 0.32346 0.0
C569 C 0.19192 0.67156 0.47058 0.0
C570 C 0.19806 0.66487 0.37765 0.0
C571 C 0.16366 0.66704 0.50804 0.0
C572 C 0.14051 0.65597 0.45362 0.0
H573 H 0.20958 0.67829 0.51624 0.0
H574 H 0.16035 0.67049 0.58129 0.0
S575 S 0.14406 0.63752 0.20471 0.0
N576 N 0.1777 0.64871 0.2306 0.0
N577 N 0.12485 0.64061 0.30097 0.0
C578 C 0.14565 0.65167 0.359 0.0
C579 C 0.17436 0.65609 0.32092 0.0
C580 C 0.14041 0.84705 0.03731 0.0
C581 C 0.16013 0.8435 0.11169 0.0
C582 C 0.13511 0.8749 0.99877 0.0
C583 C 0.1493 0.90012 0.03325 0.0
H584 H 0.12634 0.82902 1.01578 0.0
H585 H 0.11743 0.87702 0.94895 0.0
S586 S 0.20912 0.90115 0.20671 0.0
N587 N 0.19892 0.86622 0.20241 0.0
N588 N 0.18846 0.91893 0.13089 0.0
C589 C 0.17206 0.89623 0.09783 0.0
C590 C 0.17768 0.86778 0.13653 0.0
C591 C 0.67526 0.94819 0.02893 0.0
C592 C 0.70438 0.95784 0.04343 0.0
C593 C 0.65238 0.9685 1.01445 0.0
C594 C 0.65784 0.99911 1.01467 0.0
H595 H 0.66989 0.92493 0.03425 0.0
H596 H 0.63007 0.96022 1.00642 0.0
S597 S 0.73033 0.03574 0.04529 0.0
N598 N 0.73758 1.00012 0.0526 0.0
N599 N 0.69451 0.03804 0.02597 0.0
C600 C 0.68704 1.00898 0.02364 0.0
C601 C 0.71035 0.98838 0.03781 0.0
C602 C 0.40274 0.70456 0.11878 0.0
C603 C 0.38648 0.70632 0.20177 0.0
C604 C 0.41048 0.67738 0.08076 0.0
C605 C 0.40246 0.65076 0.12412 0.0
H606 H 0.41221 0.72412 0.08723 0.0
H607 H 0.42509 0.67735 0.02139 0.0
S608 S 0.35343 0.64277 0.32792 0.0
N609 N 0.35727 0.67881 0.3145 0.0
N610 N 0.37296 0.62751 0.24441 0.0
C611 C 0.38353 0.65199 0.20097 0.0
C612 C 0.37516 0.6798 0.23913 0.0
C613 C 0.87663 0.39568 0.2157 0.0
C614 C 0.85349 0.38313 0.16394 0.0
C615 C 0.9041 0.40162 0.1758 0.0
C616 C 0.90957 0.39539 0.08246 0.0
H617 H 0.8728 0.40382 0.28483 0.0
H618 H 0.92014 0.41372 0.21618 0.0
S619 S 0.85967 0.35512 0.92446 0.0
N620 N 0.84025 0.35882 0.0204 0.0
N621 N 0.89197 0.37082 0.94445 0.0
C622 C 0.88804 0.37972 0.03302 0.0
C623 C 0.86003 0.37332 0.0741 0.0
C624 C 0.03196 0.17143 0.82803 0.0
C625 C 0.0305 0.17951 0.92184 0.0
C626 C 0.03148 0.14157 0.80077 0.0
C627 C 0.03003 0.11838 0.86592 0.0
H628 H 0.03348 0.18835 0.77512 0.0
H629 H 0.0327 0.1366 0.72798 0.0
S630 S 0.02663 0.12752 0.12067 0.0
N631 N 0.02809 0.16161 0.08011 0.0
N632 N 0.02716 0.10591 0.02933 0.0
C633 C 0.02863 0.1262 0.96001 0.0
C634 C 0.02885 0.15656 0.98772 0.0
C635 C 0.39376 0.03713 0.95245 0.0
C636 C 0.37125 0.02261 0.90331 0.0
C637 C 0.42253 0.03999 0.91641 0.0
C638 C 0.43032 0.02845 0.82934 0.0
H639 H 0.38949 0.04535 0.02128 0.0
H640 H 0.439 0.05069 0.95881 0.0
S641 S 0.37883 0.99101 0.6681 0.0
N642 N 0.35822 0.99869 0.75903 0.0
N643 N 0.41217 1.00355 0.69215 0.0
C644 C 0.40771 1.01488 0.77774 0.0
C645 C 0.37833 1.01207 0.81442 0.0
C646 C 0.52492 0.39186 0.85299 0.0
C647 C 0.51759 0.38516 0.94527 0.0
C648 C 0.52524 0.4211 0.81986 0.0
C649 C 0.51806 0.44518 0.87719 0.0
H650 H 0.5302 0.37425 0.80543 0.0
H651 H 0.53086 0.42471 0.74801 0.0
S652 S 0.49712 0.43971 0.12508 0.0
N653 N 0.50282 0.4052 0.09377 0.0
N654 N 0.50378 0.46 0.03233 0.0
C655 C 0.51121 0.43884 0.97032 0.0
C656 C 0.5109 0.40898 1.00405 0.0
C657 C 0.14746 0.52641 0.96789 0.0
C658 C 0.17114 0.53393 0.90908 0.0
C659 C 0.11822 0.5251 0.93544 0.0
C660 C 0.11112 0.53125 0.84245 0.0
H661 H 0.15139 0.52236 0.04059 0.0
H662 H 0.10096 0.51973 0.98462 0.0
S663 S 0.16526 0.54921 0.65754 0.0
N664 N 0.18563 0.54575 0.75143 0.0
N665 N 0.13085 0.54309 0.69052 0.0
C666 C 0.13468 0.53797 0.78216 0.0
C667 C 0.16454 0.53937 0.81535 0.0
C668 C 0.99769 0.90181 0.57975 0.0
C669 C 1.0188 0.88031 0.60456 0.0
C670 C 0.99793 0.93029 0.61836 0.0
C671 C 1.01918 0.93879 0.68425 0.0
H672 H 0.98095 0.89672 0.52897 0.0
H673 H 0.9814 0.94592 0.59525 0.0
S674 S 0.07963 0.89115 0.77306 0.0
N675 N 0.06192 0.86995 0.69921 0.0
N676 N 0.06182 0.92292 0.77322 0.0
C677 C 0.03999 0.91732 0.71154 0.0
C678 C 0.03992 0.88834 0.67154 0.0
C679 C 0.66347 0.03559 0.66689 0.0
C680 C 0.6719 1.01478 0.59995 0.0
C681 C 0.63361 0.03873 0.69386 0.0
C682 C 0.61107 0.02152 0.65392 0.0
H683 H 0.68009 0.04923 0.69939 0.0
H684 H 0.62807 0.05512 0.74499 0.0
S685 S 0.62166 0.96446 0.47379 0.0
N686 N 0.65527 0.97706 0.49363 0.0
N687 N 0.59957 0.98315 0.54293 0.0
C688 C 0.61932 1.00101 0.5859 0.0
C689 C 0.64959 0.99757 0.55946 0.0
C690 C 0.51215 0.67249 0.66813 0.0
C691 C 0.53317 0.68007 0.59972 0.0
C692 C 0.51081 0.64391 0.70673 0.0
C693 C 0.53012 0.62147 0.67776 0.0
H694 H 0.49578 0.68843 0.68986 0.0
H695 H 0.49367 0.63907 0.75691 0.0
S696 S 0.59151 0.6302 0.5096 0.0
N697 N 0.57577 0.66305 0.51225 0.0
N698 N 0.57241 0.60928 0.58188 0.0
C699 C 0.55184 0.62887 0.61187 0.0
C700 C 0.55356 0.65809 0.57365 0.0
C701 C 0.88312 0.501 0.64339 0.0
C702 C 0.87025 0.52527 0.59653 0.0
C703 C 0.91174 0.50257 0.68153 0.0
C704 C 0.92896 0.5283 0.67321 0.0
H705 H 0.87145 0.48018 0.64798 0.0
H706 H 0.92088 0.48307 0.71429 0.0
S707 S 0.90476 0.59927 0.56899 0.0
N708 N 0.87631 0.57697 0.55424 0.0
N709 N 0.93023 0.57938 0.62181 0.0
C710 C 0.91609 0.553 0.62975 0.0
C711 C 0.88681 0.55162 0.59246 0.0
loop_
_geom_bond_atom_site_label_1
_geom_bond_atom_site_label_2
_geom_bond_distance
_geom_bond_site_symmetry_2
_ccdc_geom_bond_type
C0 C1 1.384 . S
C0 H13 0.947 . S
C0 C35 1.382 . S
C1 C0 1.384 . S
C1 C2 1.378 . S
C2 C1 1.378 . S
C2 C3 1.378 . S
C2 H14 0.952 . S
C3 C2 1.378 . S
C3 H15 0.950 . S
C3 C34 1.383 . S
H4 C23 0.947 . S
H5 C24 0.946 . S
H6 C26 0.953 . S
H7 C27 0.945 . S
H8 C29 0.952 . S
H9 C30 0.949 . S
H10 C32 0.950 . S
H11 C33 0.948 . S
H12 C35 0.951 . S
H13 C0 0.947 . S
H14 C2 0.952 . S
H15 C3 0.950 . S
N16 C19 1.382 . S
N16 C21 1.363 . S
N17 C19 1.371 . S
N17 C20 1.372 . S
N18 C20 1.361 . S
N18 C21 1.377 . S
C19 N16 1.382 . S
C19 N17 1.371 . S
C19 C22 1.480 . S
C20 N17 1.372 . S
C20 N18 1.361 . S
C20 C28 1.457 . S
C21 N16 1.363 . S
C21 N18 1.377 . S
C21 C34 1.479 . S
C22 C19 1.480 . S
C22 C23 1.383 . S
C22 C27 1.385 . S
C23 H4 0.947 . S
C23 C22 1.383 . S
C23 C24 1.388 . S
C24 H5 0.946 . S
C24 C23 1.388 . S
C24 C25 1.384 . S
C25 C24 1.384 . S
C25 C26 1.377 . S
C26 H6 0.953 . S
C26 C25 1.377 . S
C26 C27 1.369 . S
C27 H7 0.945 . S
C27 C22 1.385 . S
C27 C26 1.369 . S
C28 C20 1.457 . S
C28 C29 1.372 . S
C28 C33 1.364 . S
C29 H8 0.952 . S
C29 C28 1.372 . S
C29 C30 1.389 . S
C30 H9 0.949 . S
C30 C29 1.389 . S
C30 C31 1.387 . S
C31 C30 1.387 . S
C31 C32 1.372 . S
C32 H10 0.950 . S
C32 C31 1.372 . S
C32 C33 1.379 . S
C33 H11 0.948 . S
C33 C28 1.364 . S
C33 C32 1.379 . S
C34 C3 1.383 . S
C34 C21 1.479 . S
C34 C35 1.398 . S
C35 C0 1.382 . S
C35 H12 0.951 . S
C35 C34 1.398 . S
C36 C37 1.384 1_655 S
C36 H49 0.948 . S
C36 C71 1.382 1_655 S
C37 C36 1.384 1_455 S
C37 C38 1.378 . S
C38 C37 1.378 . S
C38 C39 1.378 . S
C38 H50 0.952 . S
C39 C38 1.378 . S
C39 H51 0.950 . S
C39 C70 1.383 . S
H40 C59 0.947 . S
H41 C60 0.952 . S
H42 C62 0.953 . S
H43 C63 0.945 . S
H44 C65 0.949 1_655 S
H45 C66 0.949 . S
H46 C68 0.950 . S
H47 C69 0.948 . S
H48 C71 0.951 1_655 S
H49 C36 0.948 . S
H50 C38 0.952 . S
H51 C39 0.950 . S
N52 C55 1.382 . S
N52 C57 1.363 . S
N53 C55 1.371 . S
N53 C56 1.372 . S
N54 C56 1.361 . S
N54 C57 1.377 . S
C55 N52 1.382 . S
C55 N53 1.371 . S
C55 C58 1.480 . S
C56 N53 1.372 . S
C56 N54 1.361 . S
C56 C64 1.457 . S
C57 N52 1.363 . S
C57 N54 1.377 . S
C57 C70 1.479 . S
C58 C55 1.480 . S
C58 C59 1.383 . S
C58 C63 1.385 . S
C59 H40 0.947 . S
C59 C58 1.383 . S
C59 C60 1.386 1_455 S
C60 H41 0.952 . S
C60 C59 1.386 1_655 S
C60 C61 1.381 1_655 S
C61 C60 1.381 1_455 S
C61 C62 1.377 . S
C62 H42 0.953 . S
C62 C61 1.377 . S
C62 C63 1.369 . S
C63 H43 0.945 . S
C63 C58 1.385 . S
C63 C62 1.369 . S
C64 C56 1.457 . S
C64 C65 1.377 . S
C64 C69 1.364 . S
C65 H44 0.949 1_455 S
C65 C64 1.377 . S
C65 C66 1.387 1_455 S
C66 H45 0.949 . S
C66 C65 1.387 1_655 S
C66 C67 1.387 1_655 S
C67 C66 1.387 1_455 S
C67 C68 1.372 . S
C68 H46 0.950 . S
C68 C67 1.372 . S
C68 C69 1.379 . S
C69 H47 0.948 . S
C69 C64 1.364 . S
C69 C68 1.379 . S
C70 C39 1.383 . S
C70 C57 1.479 . S
C70 C71 1.398 . S
C71 C36 1.382 1_455 S
C71 H48 0.951 1_455 S
C71 C70 1.398 . S
C72 C73 1.384 1_565 S
C72 H85 0.948 . S
C72 C107 1.382 1_565 S
C73 C72 1.384 1_545 S
C73 C74 1.378 . S
C74 C73 1.378 . S
C74 C75 1.378 . S
C74 H86 0.952 . S
C75 C74 1.378 . S
C75 H87 0.950 . S
C75 C106 1.383 . S
H76 C95 0.947 . S
H77 C96 0.952 . S
H78 C98 0.953 . S
H79 C99 0.945 . S
H80 C101 0.949 1_565 S
H81 C102 0.949 . S
H82 C104 0.950 . S
H83 C105 0.948 . S
H84 C107 0.951 1_565 S
H85 C72 0.948 . S
H86 C74 0.952 . S
H87 C75 0.950 . S
N88 C91 1.382 . S
N88 C93 1.363 . S
N89 C91 1.371 . S
N89 C92 1.372 . S
N90 C92 1.361 . S
N90 C93 1.377 . S
C91 N88 1.382 . S
C91 N89 1.371 . S
C91 C94 1.480 . S
C92 N89 1.372 . S
C92 N90 1.361 . S
C92 C100 1.457 . S
C93 N88 1.363 . S
C93 N90 1.377 . S
C93 C106 1.479 . S
C94 C91 1.480 . S
C94 C95 1.383 . S
C94 C99 1.385 . S
C95 H76 0.947 . S
C95 C94 1.383 . S
C95 C96 1.386 1_545 S
C96 H77 0.952 . S
C96 C95 1.386 1_565 S
C96 C97 1.382 1_565 S
C97 C96 1.382 1_545 S
C97 C98 1.377 . S
C98 H78 0.953 . S
C98 C97 1.377 . S
C98 C99 1.369 . S
C99 H79 0.945 . S
C99 C94 1.385 . S
C99 C98 1.369 . S
C100 C92 1.457 . S
C100 C101 1.377 . S
C100 C105 1.364 . S
C101 H80 0.949 1_545 S
C101 C100 1.377 . S
C101 C102 1.387 1_545 S
C102 H81 0.949 . S
C102 C101 1.387 1_565 S
C102 C103 1.387 1_565 S
C103 C102 1.387 1_545 S
C103 C104 1.372 . S
C104 H82 0.950 . S
C104 C103 1.372 . S
C104 C105 1.379 . S
C105 H83 0.948 . S
C105 C100 1.364 . S
C105 C104 1.379 . S
C106 C75 1.383 . S
C106 C93 1.479 . S
C106 C107 1.398 . S
C107 C72 1.382 1_545 S
C107 H84 0.951 1_545 S
C107 C106 1.398 . S
C108 C109 1.384 . S
C108 H121 0.947 . S
C108 C143 1.382 . S
C109 C108 1.384 . S
C109 C110 1.378 . S
C110 C109 1.378 . S
C110 C111 1.378 . S
C110 H122 0.952 . S
C111 C110 1.378 . S
C111 H123 0.950 . S
C111 C142 1.383 . S
H112 C131 0.947 . S
H113 C132 0.946 . S
H114 C134 0.953 . S
H115 C135 0.945 . S
H116 C137 0.952 . S
H117 C138 0.949 . S
H118 C140 0.950 . S
H119 C141 0.948 . S
H120 C143 0.951 . S
H121 C108 0.947 . S
H122 C110 0.952 . S
H123 C111 0.950 . S
N124 C127 1.382 . S
N124 C129 1.363 . S
N125 C127 1.371 . S
N125 C128 1.372 . S
N126 C128 1.361 . S
N126 C129 1.377 . S
C127 N124 1.382 . S
C127 N125 1.371 . S
C127 C130 1.480 . S
C128 N125 1.372 . S
C128 N126 1.361 . S
C128 C136 1.457 . S
C129 N124 1.363 . S
C129 N126 1.377 . S
C129 C142 1.479 . S
C130 C127 1.480 . S
C130 C131 1.383 . S
C130 C135 1.385 . S
C131 H112 0.947 . S
C131 C130 1.383 . S
C131 C132 1.388 . S
C132 H113 0.946 . S
C132 C131 1.388 . S
C132 C133 1.384 . S
C133 C132 1.384 . S
C133 C134 1.377 . S
C134 H114 0.953 . S
C134 C133 1.377 . S
C134 C135 1.369 . S
C135 H115 0.945 . S
C135 C130 1.385 . S
C135 C134 1.369 . S
C136 C128 1.457 . S
C136 C137 1.372 . S
C136 C141 1.364 . S
C137 H116 0.952 . S
C137 C136 1.372 . S
C137 C138 1.389 . S
C138 H117 0.949 . S
C138 C137 1.389 . S
C138 C139 1.387 . S
C139 C138 1.387 . S
C139 C140 1.372 . S
C140 H118 0.950 . S
C140 C139 1.372 . S
C140 C141 1.379 . S
C141 H119 0.948 . S
C141 C136 1.364 . S
C141 C140 1.379 . S
C142 C111 1.383 . S
C142 C129 1.479 . S
C142 C143 1.398 . S
C143 C108 1.382 . S
C143 H120 0.951 . S
C143 C142 1.398 . S
C144 C145 1.384 . S
C144 H157 0.947 . S
C144 C179 1.382 . S
C145 C144 1.384 . S
C145 C146 1.378 . S
C146 C145 1.378 . S
C146 C147 1.378 . S
C146 H158 0.952 . S
C147 C146 1.378 . S
C147 H159 0.950 . S
C147 C178 1.383 . S
H148 C167 0.947 1_556 S
H149 C168 0.946 . S
H150 C170 0.953 . S
H151 C171 0.945 . S
H152 C173 0.952 . S
H153 C174 0.949 . S
H154 C176 0.950 . S
H155 C177 0.948 . S
H156 C179 0.951 . S
H157 C144 0.947 . S
H158 C146 0.952 . S
H159 C147 0.950 . S
N160 C163 1.382 1_556 S
N160 C165 1.363 . S
N161 C163 1.371 . S
N161 C164 1.372 . S
N162 C164 1.361 . S
N162 C165 1.377 1_554 S
C163 N160 1.382 1_554 S
C163 N161 1.371 . S
C163 C166 1.480 . S
C164 N161 1.372 . S
C164 N162 1.361 . S
C164 C172 1.457 . S
C165 N160 1.363 . S
C165 N162 1.377 1_556 S
C165 C178 1.479 . S
C166 C163 1.480 . S
C166 C167 1.383 . S
C166 C171 1.385 . S
C167 H148 0.947 1_554 S
C167 C166 1.383 . S
C167 C168 1.388 . S
C168 H149 0.946 . S
C168 C167 1.388 . S
C168 C169 1.384 . S
C169 C168 1.384 . S
C169 C170 1.377 . S
C170 H150 0.953 . S
C170 C169 1.377 . S
C170 C171 1.369 . S
C171 H151 0.945 . S
C171 C166 1.385 . S
C171 C170 1.369 . S
C172 C164 1.457 . S
C172 C173 1.372 . S
C172 C177 1.364 . S
C173 H152 0.952 . S
C173 C172 1.372 . S
C173 C174 1.389 . S
C174 H153 0.949 . S
C174 C173 1.389 . S
C174 C175 1.387 . S
C175 C174 1.387 . S
C175 C176 1.372 . S
C176 H154 0.950 . S
C176 C175 1.372 . S
C176 C177 1.379 . S
C177 H155 0.948 . S
C177 C172 1.364 . S
C177 C176 1.379 . S
C178 C147 1.383 . S
C178 C165 1.479 . S
C178 C179 1.398 . S
C179 C144 1.382 . S
C179 H156 0.951 . S
C179 C178 1.398 . S
C180 C181 1.384 1_655 S
C180 H193 0.947 . S
C180 C215 1.382 1_655 S
C181 C180 1.384 1_455 S
C181 C182 1.378 . S
C182 C181 1.378 . S
C182 C183 1.378 . S
C182 H194 0.952 . S
C183 C182 1.378 . S
C183 H195 0.950 . S
C183 C214 1.383 . S
H184 C203 0.947 1_556 S
H185 C204 0.950 . S
H186 C206 0.953 . S
H187 C207 0.945 . S
H188 C209 0.947 1_655 S
H189 C210 0.954 . S
H190 C212 0.950 . S
H191 C213 0.948 . S
H192 C215 0.950 1_655 S
H193 C180 0.947 . S
H194 C182 0.952 . S
H195 C183 0.950 . S
N196 C199 1.382 1_556 S
N196 C201 1.363 . S
N197 C199 1.371 . S
N197 C200 1.372 . S
N198 C200 1.361 . S
N198 C201 1.377 1_554 S
C199 N196 1.382 1_554 S
C199 N197 1.371 . S
C199 C202 1.480 . S
C200 N197 1.372 . S
C200 N198 1.361 . S
C200 C208 1.457 . S
C201 N196 1.363 . S
C201 N198 1.377 1_556 S
C201 C214 1.479 . S
C202 C199 1.480 . S
C202 C203 1.383 . S
C202 C207 1.385 . S
C203 H184 0.947 1_554 S
C203 C202 1.383 . S
C203 C204 1.387 1_455 S
C204 H185 0.950 . S
C204 C203 1.387 1_655 S
C204 C205 1.382 1_655 S
C205 C204 1.382 1_455 S
C205 C206 1.377 . S
C206 H186 0.953 . S
C206 C205 1.377 . S
C206 C207 1.369 . S
C207 H187 0.945 . S
C207 C202 1.385 . S
C207 C206 1.369 . S
C208 C200 1.457 . S
C208 C209 1.379 . S
C208 C213 1.364 . S
C209 H188 0.947 1_455 S
C209 C208 1.379 . S
C209 C210 1.387 1_455 S
C210 H189 0.954 . S
C210 C209 1.387 1_655 S
C210 C211 1.383 1_655 S
C211 C210 1.383 1_455 S
C211 C212 1.372 . S
C212 H190 0.950 . S
C212 C211 1.372 . S
C212 C213 1.379 . S
C213 H191 0.948 . S
C213 C208 1.364 . S
C213 C212 1.379 . S
C214 C183 1.383 . S
C214 C201 1.479 . S
C214 C215 1.399 . S
C215 C180 1.382 1_455 S
C215 H192 0.950 1_455 S
C215 C214 1.399 . S
C216 C217 1.384 1_565 S
C216 H229 0.947 . S
C216 C251 1.382 1_565 S
C217 C216 1.384 1_545 S
C217 C218 1.378 . S
C218 C217 1.378 . S
C218 C219 1.378 . S
C218 H230 0.952 . S
C219 C218 1.378 . S
C219 H231 0.950 . S
C219 C250 1.383 . S
H220 C239 0.947 1_556 S
H221 C240 0.950 . S
H222 C242 0.953 . S
H223 C243 0.945 . S
H224 C245 0.948 1_565 S
H225 C246 0.954 . S
H226 C248 0.950 . S
H227 C249 0.948 . S
H228 C251 0.950 1_565 S
H229 C216 0.947 . S
H230 C218 0.952 . S
H231 C219 0.950 . S
N232 C235 1.382 1_556 S
N232 C237 1.363 . S
N233 C235 1.371 . S
N233 C236 1.372 . S
N234 C236 1.361 . S
N234 C237 1.377 1_554 S
C235 N232 1.382 1_554 S
C235 N233 1.371 . S
C235 C238 1.480 . S
C236 N233 1.372 . S
C236 N234 1.361 . S
C236 C244 1.457 . S
C237 N232 1.363 . S
C237 N234 1.377 1_556 S
C237 C250 1.479 . S
C238 C235 1.480 . S
C238 C239 1.383 . S
C238 C243 1.385 . S
C239 H220 0.947 1_554 S
C239 C238 1.383 . S
C239 C240 1.387 1_545 S
C240 H221 0.950 . S
C240 C239 1.387 1_565 S
C240 C241 1.382 1_565 S
C241 C240 1.382 1_545 S
C241 C242 1.377 . S
C242 H222 0.953 . S
C242 C241 1.377 . S
C242 C243 1.369 . S
C243 H223 0.945 . S
C243 C238 1.385 . S
C243 C242 1.369 . S
C244 C236 1.457 . S
C244 C245 1.378 . S
C244 C249 1.364 . S
C245 H224 0.948 1_545 S
C245 C244 1.378 . S
C245 C246 1.387 1_545 S
C246 H225 0.954 . S
C246 C245 1.387 1_565 S
C246 C247 1.384 1_565 S
C247 C246 1.384 1_545 S
C247 C248 1.372 . S
C248 H226 0.950 . S
C248 C247 1.372 . S
C248 C249 1.379 . S
C249 H227 0.948 . S
C249 C244 1.364 . S
C249 C248 1.379 . S
C250 C219 1.383 . S
C250 C237 1.479 . S
C250 C251 1.399 . S
C251 C216 1.382 1_545 S
C251 H228 0.950 1_545 S
C251 C250 1.399 . S
C252 C253 1.384 . S
C252 H265 0.947 . S
C252 C287 1.382 . S
C253 C252 1.384 . S
C253 C254 1.378 . S
C254 C253 1.378 . S
C254 C255 1.378 . S
C254 H266 0.952 . S
C255 C254 1.378 . S
C255 H267 0.950 . S
C255 C286 1.383 . S
H256 C275 0.947 . S
H257 C276 0.946 . S
H258 C278 0.953 1_556 S
H259 C279 0.945 1_556 S
H260 C281 0.952 . S
H261 C282 0.949 . S
H262 C284 0.950 . S
H263 C285 0.948 . S
H264 C287 0.951 . S
H265 C252 0.947 . S
H266 C254 0.952 . S
H267 C255 0.950 . S
N268 C271 1.382 . S
N268 C273 1.363 . S
N269 C271 1.371 1_556 S
N269 C272 1.372 . S
N270 C272 1.361 1_554 S
N270 C273 1.377 . S
C271 N268 1.382 . S
C271 N269 1.371 1_554 S
C271 C274 1.480 . S
C272 N269 1.372 . S
C272 N270 1.361 1_556 S
C272 C280 1.457 . S
C273 N268 1.363 . S
C273 N270 1.377 . S
C273 C286 1.479 . S
C274 C271 1.480 . S
C274 C275 1.383 . S
C274 C279 1.385 . S
C275 H256 0.947 . S
C275 C274 1.383 . S
C275 C276 1.388 . S
C276 H257 0.946 . S
C276 C275 1.388 . S
C276 C277 1.384 . S
C277 C276 1.384 . S
C277 C278 1.377 . S
C278 H258 0.953 1_554 S
C278 C277 1.377 . S
C278 C279 1.369 . S
C279 H259 0.945 1_554 S
C279 C274 1.385 . S
C279 C278 1.369 . S
C280 C272 1.457 . S
C280 C281 1.372 . S
C280 C285 1.364 . S
C281 H260 0.952 . S
C281 C280 1.372 . S
C281 C282 1.389 . S
C282 H261 0.949 . S
C282 C281 1.389 . S
C282 C283 1.387 . S
C283 C282 1.387 . S
C283 C284 1.372 . S
C284 H262 0.950 . S
C284 C283 1.372 . S
C284 C285 1.379 . S
C285 H263 0.948 . S
C285 C280 1.364 . S
C285 C284 1.379 . S
C286 C255 1.383 . S
C286 C273 1.479 . S
C286 C287 1.398 . S
C287 C252 1.382 . S
C287 H264 0.951 . S
C287 C286 1.398 . S
Tb288 C290 2.809 . S
Tb288 O308 2.484 . S
Tb288 O309 2.440 . S
Tb288 O310 2.658 1_565 S
Tb288 O311 2.409 . S
Tb288 O312 2.378 . S
Tb288 O316 2.325 1_455 S
Tb288 O319 2.341 1_565 S
Tb289 C299 2.809 . S
Tb289 O310 2.325 1_655 S
Tb289 O313 2.341 1_545 S
Tb289 O314 2.484 . S
Tb289 O315 2.440 . S
Tb289 O316 2.658 1_545 S
Tb289 O317 2.409 . S
Tb289 O318 2.378 . S
C290 Tb288 2.809 . S
C290 C291 1.514 . S
C290 O308 1.248 . S
C290 O309 1.266 . S
C291 C290 1.514 . S
C291 C292 1.359 1_556 S
C291 C296 1.348 . S
C292 C291 1.359 1_554 S
C292 C293 1.380 . S
C292 H320 0.929 1_455 S
C293 C292 1.380 . S
C293 C294 1.347 . S
C293 H321 0.931 . S
C294 C293 1.347 . S
C294 C295 1.369 . S
C295 C294 1.369 . S
C295 C296 1.408 1_554 S
C295 H322 0.930 1_554 S
C296 C291 1.348 . S
C296 C295 1.408 1_556 S
C296 H323 0.930 . S
C297 O310 1.281 1_565 S
C297 O311 1.254 . S
C298 O312 1.236 1_655 S
C298 O313 1.266 . S
C299 Tb289 2.809 . S
C299 C300 1.514 . S
C299 O314 1.248 . S
C299 O315 1.266 . S
C300 C299 1.514 . S
C300 C301 1.359 . S
C300 C305 1.348 . S
C301 C300 1.359 . S
C301 C302 1.380 . S
C301 H324 0.929 1_655 S
C302 C301 1.380 . S
C302 C303 1.347 . S
C302 H325 0.958 . S
C303 C302 1.347 . S
C303 C304 1.369 . S
C304 C303 1.369 . S
C304 C305 1.408 . S
C304 H326 0.930 . S
C305 C300 1.348 . S
C305 C304 1.408 . S
C305 H327 0.930 . S
C306 O316 1.281 1_545 S
C306 O317 1.254 . S
C307 O318 1.236 1_455 S
C307 O319 1.266 . S
O308 Tb288 2.484 . S
O308 C290 1.248 . S
O309 Tb288 2.440 . S
O309 C290 1.266 . S
O310 Tb288 2.658 1_545 S
O310 Tb289 2.325 1_455 S
O310 C297 1.281 1_545 S
O311 Tb288 2.409 . S
O311 C297 1.254 . S
O312 Tb288 2.378 . S
O312 C298 1.236 1_455 S
O313 Tb289 2.341 1_565 S
O313 C298 1.266 . S
O314 Tb289 2.484 . S
O314 C299 1.248 . S
O315 Tb289 2.440 . S
O315 C299 1.266 . S
O316 Tb288 2.325 1_655 S
O316 Tb289 2.658 1_565 S
O316 C306 1.281 1_565 S
O317 Tb289 2.409 . S
O317 C306 1.254 . S
O318 Tb289 2.378 . S
O318 C307 1.236 1_655 S
O319 Tb288 2.341 1_545 S
O319 C307 1.266 . S
H320 C292 0.929 1_655 S
H321 C293 0.931 . S
H322 C295 0.930 1_556 S
H323 C296 0.930 . S
H324 C301 0.929 1_455 S
H325 C302 0.958 . S
H326 C304 0.930 . S
H327 C305 0.930 . S
Tb328 C330 2.809 . S
Tb328 O348 2.484 . S
Tb328 O349 2.440 . S
Tb328 O350 2.658 . S
Tb328 O351 2.409 . S
Tb328 O352 2.378 . S
Tb328 O356 2.325 1_545 S
Tb328 O359 2.341 . S
Tb329 C339 2.809 . S
Tb329 O350 2.325 1_565 S
Tb329 O353 2.341 . S
Tb329 O354 2.484 . S
Tb329 O355 2.440 . S
Tb329 O356 2.658 . S
Tb329 O357 2.409 . S
Tb329 O358 2.378 . S
C330 Tb328 2.809 . S
C330 C331 1.514 . S
C330 O348 1.248 . S
C330 O349 1.266 . S
C331 C330 1.514 . S
C331 C332 1.359 1_556 S
C331 C336 1.348 . S
C332 C331 1.359 1_554 S
C332 C333 1.380 . S
C332 H360 0.929 1_545 S
C333 C332 1.380 . S
C333 C334 1.347 . S
C333 H361 0.931 1_545 S
C334 C333 1.347 . S
C334 C335 1.369 . S
C335 C334 1.369 . S
C335 C336 1.408 1_554 S
C335 H362 0.930 . S
C336 C331 1.348 . S
C336 C335 1.408 1_556 S
C336 H363 0.930 . S
C337 O350 1.281 . S
C337 O351 1.254 . S
C338 O352 1.236 1_565 S
C338 O353 1.266 . S
C339 Tb329 2.809 . S
C339 C340 1.514 . S
C339 O354 1.248 . S
C339 O355 1.266 . S
C340 C339 1.514 . S
C340 C341 1.359 . S
C340 C345 1.348 . S
C341 C340 1.359 . S
C341 C342 1.380 . S
C341 H364 0.929 1_565 S
C342 C341 1.380 . S
C342 C343 1.347 . S
C342 H365 0.931 1_565 S
C343 C342 1.347 . S
C343 C344 1.369 . S
C344 C343 1.369 . S
C344 C345 1.408 . S
C344 H366 0.930 . S
C345 C340 1.348 . S
C345 C344 1.408 . S
C345 H367 0.930 . S
C346 O356 1.281 . S
C346 O357 1.254 . S
C347 O358 1.236 1_545 S
C347 O359 1.266 . S
O348 Tb328 2.484 . S
O348 C330 1.248 . S
O349 Tb328 2.440 . S
O349 C330 1.266 . S
O350 Tb328 2.658 . S
O350 Tb329 2.325 1_545 S
O350 C337 1.281 . S
O351 Tb328 2.409 . S
O351 C337 1.254 . S
O352 Tb328 2.378 . S
O352 C338 1.236 1_545 S
O353 Tb329 2.341 . S
O353 C338 1.266 . S
O354 Tb329 2.484 . S
O354 C339 1.248 . S
O355 Tb329 2.440 . S
O355 C339 1.266 . S
O356 Tb328 2.325 1_565 S
O356 Tb329 2.658 . S
O356 C346 1.281 . S
O357 Tb329 2.409 . S
O357 C346 1.254 . S
O358 Tb329 2.378 . S
O358 C347 1.236 1_565 S
O359 Tb328 2.341 . S
O359 C347 1.266 . S
H360 C332 0.929 1_565 S
H361 C333 0.931 1_565 S
H362 C335 0.930 . S
H363 C336 0.930 . S
H364 C341 0.929 1_545 S
H365 C342 0.931 1_545 S
H366 C344 0.930 . S
H367 C345 0.930 . S
Tb368 C370 2.809 . S
Tb368 O388 2.484 . S
Tb368 O389 2.440 . S
Tb368 O390 2.658 . S
Tb368 O391 2.409 . S
Tb368 O392 2.378 . S
Tb368 O396 2.325 . S
Tb368 O399 2.341 . S
Tb369 C379 2.809 . S
Tb369 O390 2.325 . S
Tb369 O393 2.341 . S
Tb369 O394 2.484 . S
Tb369 O395 2.440 . S
Tb369 O396 2.658 . S
Tb369 O397 2.409 . S
Tb369 O398 2.378 . S
C370 Tb368 2.809 . S
C370 C371 1.514 . S
C370 O388 1.248 . S
C370 O389 1.266 . S
C371 C370 1.514 . S
C371 C372 1.359 1_556 S
C371 C376 1.348 . S
C372 C371 1.359 1_554 S
C372 C373 1.380 . S
C372 H400 0.929 . S
C373 C372 1.380 . S
C373 C374 1.347 . S
C373 H401 0.931 . S
C374 C373 1.347 . S
C374 C375 1.369 . S
C375 C374 1.369 . S
C375 C376 1.408 1_554 S
C375 H402 0.930 . S
C376 C371 1.348 . S
C376 C375 1.408 1_556 S
C376 H403 0.930 . S
C377 O390 1.281 . S
C377 O391 1.254 . S
C378 O392 1.236 . S
C378 O393 1.266 . S
C379 Tb369 2.809 . S
C379 C380 1.514 . S
C379 O394 1.248 . S
C379 O395 1.266 . S
C380 C379 1.514 . S
C380 C381 1.359 . S
C380 C385 1.348 . S
C381 C380 1.359 . S
C381 C382 1.380 . S
C381 H404 0.929 . S
C382 C381 1.380 . S
C382 C383 1.347 . S
C382 H405 0.931 . S
C383 C382 1.347 . S
C383 C384 1.369 . S
C384 C383 1.369 . S
C384 C385 1.408 . S
C384 H406 0.930 . S
C385 C380 1.348 . S
C385 C384 1.408 . S
C385 H407 0.930 . S
C386 O396 1.281 . S
C386 O397 1.254 . S
C387 O398 1.236 . S
C387 O399 1.266 . S
O388 Tb368 2.484 . S
O388 C370 1.248 . S
O389 Tb368 2.440 . S
O389 C370 1.266 . S
O390 Tb368 2.658 . S
O390 Tb369 2.325 . S
O390 C377 1.281 . S
O391 Tb368 2.409 . S
O391 C377 1.254 . S
O392 Tb368 2.378 . S
O392 C378 1.236 . S
O393 Tb369 2.341 . S
O393 C378 1.266 . S
O394 Tb369 2.484 . S
O394 C379 1.248 . S
O395 Tb369 2.440 . S
O395 C379 1.266 . S
O396 Tb368 2.325 . S
O396 Tb369 2.658 . S
O396 C386 1.281 . S
O397 Tb369 2.409 . S
O397 C386 1.254 . S
O398 Tb369 2.378 . S
O398 C387 1.236 . S
O399 Tb368 2.341 . S
O399 C387 1.266 . S
H400 C372 0.929 . S
H401 C373 0.931 . S
H402 C375 0.930 . S
H403 C376 0.930 . S
H404 C381 0.929 . S
H405 C382 0.931 . S
H406 C384 0.930 . S
H407 C385 0.930 . S
Tb408 C410 2.809 . S
Tb408 O428 2.484 . S
Tb408 O429 2.440 . S
Tb408 O430 2.658 1_655 S
Tb408 O431 2.409 . S
Tb408 O432 2.378 . S
Tb408 O436 2.325 . S
Tb408 O439 2.341 1_655 S
Tb409 C419 2.809 . S
Tb409 O430 2.325 . S
Tb409 O433 2.341 1_455 S
Tb409 O434 2.484 . S
Tb409 O435 2.440 . S
Tb409 O436 2.658 1_455 S
Tb409 O437 2.409 . S
Tb409 O438 2.378 . S
C410 Tb408 2.809 . S
C410 C411 1.514 . S
C410 O428 1.248 . S
C410 O429 1.266 . S
C411 C410 1.514 . S
C411 C412 1.359 1_556 S
C411 C416 1.348 . S
C412 C411 1.359 1_554 S
C412 C413 1.380 . S
C412 H440 0.929 . S
C413 C412 1.380 . S
C413 C414 1.347 . S
C413 H441 0.931 . S
C414 C413 1.347 . S
C414 C415 1.369 . S
C415 C414 1.369 . S
C415 C416 1.408 1_554 S
C415 H442 0.930 . S
C416 C411 1.348 . S
C416 C415 1.408 1_556 S
C416 H443 0.930 . S
C417 O430 1.281 1_655 S
C417 O431 1.254 . S
C418 O432 1.236 . S
C418 O433 1.266 . S
C419 Tb409 2.809 . S
C419 C420 1.514 . S
C419 O434 1.248 . S
C419 O435 1.266 . S
C420 C419 1.514 . S
C420 C421 1.359 . S
C420 C425 1.348 . S
C421 C420 1.359 . S
C421 C422 1.380 . S
C421 H444 0.929 . S
C422 C421 1.380 . S
C422 C423 1.347 . S
C422 H445 0.931 . S
C423 C422 1.347 . S
C423 C424 1.369 . S
C424 C423 1.369 . S
C424 C425 1.408 . S
C424 H446 0.930 . S
C425 C420 1.348 . S
C425 C424 1.408 . S
C425 H447 0.930 . S
C426 O436 1.278 1_455 S
C426 O437 1.258 . S
C427 O438 1.236 . S
C427 O439 1.266 . S
O428 Tb408 2.484 . S
O428 C410 1.248 . S
O429 Tb408 2.440 . S
O429 C410 1.266 . S
O430 Tb408 2.658 1_455 S
O430 Tb409 2.325 . S
O430 C417 1.281 1_455 S
O431 Tb408 2.409 . S
O431 C417 1.254 . S
O432 Tb408 2.378 . S
O432 C418 1.236 . S
O433 Tb409 2.341 1_655 S
O433 C418 1.266 . S
O434 Tb409 2.484 . S
O434 C419 1.248 . S
O435 Tb409 2.440 . S
O435 C419 1.266 . S
O436 Tb408 2.325 . S
O436 Tb409 2.658 1_655 S
O436 C426 1.278 1_655 S
O437 Tb409 2.409 . S
O437 C426 1.258 . S
O438 Tb409 2.378 . S
O438 C427 1.236 . S
O439 Tb408 2.341 1_455 S
O439 C427 1.266 . S
H440 C412 0.929 . S
H441 C413 0.931 . S
H442 C415 0.930 . S
H443 C416 0.930 . S
H444 C421 0.929 . S
H445 C422 0.931 . S
H446 C424 0.930 . S
H447 C425 0.930 . S
C448 C449 1.361 1_565 S
C448 C450 1.419 . S
C448 H452 0.930 . S
C449 C448 1.361 1_545 S
C449 C458 1.437 . S
C450 C448 1.419 . S
C450 C451 1.360 1_565 S
C450 H453 0.929 . S
C451 C450 1.360 1_545 S
C451 C457 1.431 . S
H452 C448 0.930 . S
H453 C450 0.929 . S
S454 N455 1.613 . S
S454 N456 1.610 . S
N455 S454 1.613 . S
N455 C458 1.350 . S
N456 S454 1.610 . S
N456 C457 1.351 . S
C457 C451 1.431 . S
C457 N456 1.351 . S
C457 C458 1.434 . S
C458 C449 1.437 . S
C458 N455 1.350 . S
C458 C457 1.434 . S
C459 C460 1.369 . S
C459 C461 1.419 . S
C459 H463 0.930 . S
C460 C459 1.369 . S
C460 C469 1.429 . S
C461 C459 1.419 . S
C461 C462 1.363 . S
C461 H464 0.929 . S
C462 C461 1.363 . S
C462 C468 1.428 . S
H463 C459 0.930 . S
H464 C461 0.929 . S
S465 N466 1.610 . S
S465 N467 1.608 . S
N466 S465 1.610 . S
N466 C469 1.350 . S
N467 S465 1.608 . S
N467 C468 1.351 . S
C468 C462 1.428 . S
C468 N467 1.351 . S
C468 C469 1.434 . S
C469 C460 1.429 . S
C469 N466 1.350 . S
C469 C468 1.434 . S
C470 C471 1.369 . S
C470 C472 1.419 . S
C470 H474 0.930 . S
C471 C470 1.369 . S
C471 C480 1.429 . S
C472 C470 1.419 . S
C472 C473 1.363 . S
C472 H475 0.929 . S
C473 C472 1.363 . S
C473 C479 1.428 . S
H474 C470 0.930 . S
H475 C472 0.929 . S
S476 N477 1.613 . S
S476 N478 1.610 . S
N477 S476 1.613 . S
N477 C480 1.350 . S
N478 S476 1.610 . S
N478 C479 1.351 . S
C479 C473 1.428 . S
C479 N478 1.351 . S
C479 C480 1.434 . S
C480 C471 1.429 . S
C480 N477 1.350 . S
C480 C479 1.434 . S
C481 C482 1.348 1_655 S
C481 C483 1.419 . S
C481 H485 0.930 . S
C482 C481 1.348 1_455 S
C482 C491 1.451 . S
C483 C481 1.419 . S
C483 C484 1.363 1_655 S
C483 H486 0.929 . S
C484 C483 1.363 1_455 S
C484 C490 1.428 . S
H485 C481 0.930 . S
H486 C483 0.929 . S
S487 N488 1.613 . S
S487 N489 1.610 . S
N488 S487 1.613 . S
N488 C491 1.350 . S
N489 S487 1.610 . S
N489 C490 1.351 . S
C490 C484 1.428 . S
C490 N489 1.351 . S
C490 C491 1.434 . S
C491 C482 1.451 . S
C491 N488 1.350 . S
C491 C490 1.434 . S
C492 C493 1.369 1_545 S
C492 C494 1.419 . S
C492 H496 0.930 . S
C493 C492 1.369 1_565 S
C493 C502 1.428 . S
C494 C492 1.419 . S
C494 C495 1.363 . S
C494 H497 0.929 . S
C495 C494 1.363 . S
C495 C501 1.429 1_545 S
H496 C492 0.930 . S
H497 C494 0.929 . S
S498 N499 1.613 . S
S498 N500 1.610 1_554 S
N499 S498 1.613 . S
N499 C502 1.350 . S
N500 S498 1.610 1_556 S
N500 C501 1.351 1_556 S
C501 C495 1.429 1_565 S
C501 N500 1.351 1_554 S
C501 C502 1.434 . S
C502 C493 1.428 . S
C502 N499 1.350 . S
C502 C501 1.434 . S
C503 C504 1.369 . S
C503 C505 1.419 . S
C503 H507 0.930 . S
C504 C503 1.369 . S
C504 C513 1.429 . S
C505 C503 1.419 . S
C505 C506 1.363 . S
C505 H508 0.929 . S
C506 C505 1.363 . S
C506 C512 1.428 . S
H507 C503 0.930 . S
H508 C505 0.929 . S
S509 N510 1.613 . S
S509 N511 1.618 . S
N510 S509 1.613 . S
N510 C513 1.350 . S
N511 S509 1.618 . S
N511 C512 1.357 . S
C512 C506 1.428 . S
C512 N511 1.357 . S
C512 C513 1.434 . S
C513 C504 1.429 . S
C513 N510 1.350 . S
C513 C512 1.434 . S
C514 C515 1.369 . S
C514 C516 1.419 . S
C514 H518 0.930 . S
C515 C514 1.369 . S
C515 C524 1.429 . S
C516 C514 1.419 . S
C516 C517 1.363 . S
C516 H519 0.929 . S
C517 C516 1.363 . S
C517 C523 1.428 . S
H518 C514 0.930 . S
H519 C516 0.929 . S
S520 N521 1.613 . S
S520 N522 1.610 1_554 S
N521 S520 1.613 . S
N521 C524 1.350 . S
N522 S520 1.610 1_556 S
N522 C523 1.351 1_556 S
C523 C517 1.428 . S
C523 N522 1.351 1_554 S
C523 C524 1.434 . S
C524 C515 1.429 . S
C524 N521 1.350 . S
C524 C523 1.434 . S
C525 C526 1.372 . S
C525 C527 1.419 . S
C525 H529 0.930 . S
C526 C525 1.372 . S
C526 C535 1.426 1_655 S
C527 C525 1.419 . S
C527 C528 1.363 . S
C527 H530 0.929 . S
C528 C527 1.363 . S
C528 C534 1.428 1_655 S
H529 C525 0.930 . S
H530 C527 0.929 . S
S531 N532 1.613 . S
S531 N533 1.610 . S
N532 S531 1.613 . S
N532 C535 1.350 . S
N533 S531 1.610 . S
N533 C534 1.351 . S
C534 C528 1.428 1_455 S
C534 N533 1.351 . S
C534 C535 1.434 . S
C535 C526 1.426 1_455 S
C535 N532 1.350 . S
C535 C534 1.434 . S
C536 C537 1.366 1_655 S
C536 C538 1.419 . S
C536 H540 0.930 . S
C537 C536 1.366 1_455 S
C537 C546 1.429 1_455 S
C538 C536 1.419 . S
C538 C539 1.363 . S
C538 H541 0.929 . S
C539 C538 1.363 . S
C539 C545 1.428 . S
H540 C536 0.930 . S
H541 C538 0.929 . S
S542 N543 1.613 . S
S542 N544 1.610 1_455 S
N543 S542 1.613 . S
N543 C546 1.351 1_455 S
N544 S542 1.610 1_655 S
N544 C545 1.351 . S
C545 C539 1.428 . S
C545 N544 1.351 . S
C545 C546 1.433 . S
C546 C537 1.429 1_655 S
C546 N543 1.351 1_655 S
C546 C545 1.433 . S
C547 C548 1.364 1_565 S
C547 C549 1.419 . S
C547 H551 0.930 . S
C548 C547 1.364 1_545 S
C548 C557 1.428 1_545 S
C549 C547 1.419 . S
C549 C550 1.363 . S
C549 H552 0.929 . S
C550 C549 1.363 . S
C550 C556 1.428 . S
H551 C547 0.930 . S
H552 C549 0.929 . S
S553 N554 1.602 1_565 S
S553 N555 1.635 . S
N554 S553 1.602 1_545 S
N554 C557 1.350 1_545 S
N555 S553 1.635 . S
N555 C556 1.351 . S
C556 C550 1.428 . S
C556 N555 1.351 . S
C556 C557 1.434 . S
C557 C548 1.428 1_565 S
C557 N554 1.350 1_565 S
C557 C556 1.434 . S
C558 C559 1.369 . S
C558 C560 1.419 . S
C558 H562 0.930 . S
C559 C558 1.369 . S
C559 C568 1.429 . S
C560 C558 1.419 . S
C560 C561 1.363 . S
C560 H563 0.929 . S
C561 C560 1.363 . S
C561 C567 1.428 . S
H562 C558 0.930 . S
H563 C560 0.929 . S
S564 N565 1.613 . S
S564 N566 1.610 . S
N565 S564 1.613 . S
N565 C568 1.350 . S
N566 S564 1.610 . S
N566 C567 1.351 . S
C567 C561 1.428 . S
C567 N566 1.351 . S
C567 C568 1.434 . S
C568 C559 1.429 . S
C568 N565 1.350 . S
C568 C567 1.434 . S
C569 C570 1.369 . S
C569 C571 1.419 . S
C569 H573 0.930 . S
C570 C569 1.369 . S
C570 C579 1.429 . S
C571 C569 1.419 . S
C571 C572 1.363 . S
C571 H574 0.929 . S
C572 C571 1.363 . S
C572 C578 1.428 . S
H573 C569 0.930 . S
H574 C571 0.929 . S
S575 N576 1.613 . S
S575 N577 1.610 . S
N576 S575 1.613 . S
N576 C579 1.350 . S
N577 S575 1.610 . S
N577 C578 1.351 . S
C578 C572 1.428 . S
C578 N577 1.351 . S
C578 C579 1.434 . S
C579 C570 1.429 . S
C579 N576 1.350 . S
C579 C578 1.434 . S
C580 C581 1.368 1_655 S
C580 C582 1.419 1_655 S
C580 H584 0.930 . S
C581 C580 1.368 1_455 S
C581 C590 1.435 . S
C582 C580 1.419 1_455 S
C582 C583 1.363 . S
C582 H585 0.929 . S
C583 C582 1.363 . S
C583 C589 1.428 . S
H584 C580 0.930 . S
H585 C582 0.929 . S
S586 N587 1.613 . S
S586 N588 1.610 . S
N587 S586 1.613 . S
N587 C590 1.350 . S
N588 S586 1.610 . S
N588 C589 1.351 . S
C589 C583 1.428 . S
C589 N588 1.351 . S
C589 C590 1.434 . S
C590 C581 1.435 . S
C590 N587 1.350 . S
C590 C589 1.434 . S
C591 C592 1.369 1_565 S
C591 C593 1.419 1_565 S
C591 H595 0.930 . S
C592 C591 1.369 1_545 S
C592 C601 1.438 . S
C593 C591 1.419 1_545 S
C593 C594 1.363 . S
C593 H596 0.929 . S
C594 C593 1.363 . S
C594 C600 1.428 . S
H595 C591 0.930 . S
H596 C593 0.929 . S
S597 N598 1.613 1_556 S
S597 N599 1.610 . S
N598 S597 1.613 1_554 S
N598 C601 1.350 . S
N599 S597 1.610 . S
N599 C600 1.351 1_556 S
C600 C594 1.428 . S
C600 N599 1.351 1_554 S
C600 C601 1.434 . S
C601 C592 1.438 . S
C601 N598 1.350 . S
C601 C600 1.434 . S
C602 C603 1.369 . S
C602 C604 1.419 . S
C602 H606 0.930 . S
C603 C602 1.369 . S
C603 C612 1.429 . S
C604 C602 1.419 . S
C604 C605 1.363 . S
C604 H607 0.929 1_554 S
C605 C604 1.363 . S
C605 C611 1.428 . S
H606 C602 0.930 . S
H607 C604 0.929 1_556 S
S608 N609 1.613 . S
S608 N610 1.610 . S
N609 S608 1.613 . S
N609 C612 1.350 . S
N610 S608 1.610 . S
N610 C611 1.351 . S
C611 C605 1.428 . S
C611 N610 1.351 . S
C611 C612 1.434 . S
C612 C603 1.429 . S
C612 N609 1.350 . S
C612 C611 1.434 . S
C613 C614 1.369 . S
C613 C615 1.419 . S
C613 H617 0.930 . S
C614 C613 1.369 . S
C614 C623 1.429 . S
C615 C613 1.419 . S
C615 C616 1.363 . S
C615 H618 0.929 . S
C616 C615 1.363 . S
C616 C622 1.428 . S
H617 C613 0.930 . S
H618 C615 0.929 . S
S619 N620 1.613 . S
S619 N621 1.610 . S
N620 S619 1.613 . S
N620 C623 1.350 . S
N621 S619 1.610 . S
N621 C622 1.351 . S
C622 C616 1.428 . S
C622 N621 1.351 . S
C622 C623 1.434 . S
C623 C614 1.429 . S
C623 N620 1.350 . S
C623 C622 1.434 . S
C624 C625 1.369 1_655 S
C624 C626 1.419 . S
C624 H628 0.930 . S
C625 C624 1.369 1_455 S
C625 C634 1.429 . S
C626 C624 1.419 . S
C626 C627 1.363 1_655 S
C626 H629 0.929 . S
C627 C626 1.363 1_455 S
C627 C633 1.428 . S
H628 C624 0.930 . S
H629 C626 0.929 . S
S630 N631 1.613 . S
S630 N632 1.610 . S
N631 S630 1.613 . S
N631 C634 1.350 . S
N632 S630 1.610 . S
N632 C633 1.351 . S
C633 C627 1.428 . S
C633 N632 1.351 . S
C633 C634 1.434 . S
C634 C625 1.429 . S
C634 N631 1.350 . S
C634 C633 1.434 . S
C635 C636 1.369 . S
C635 C637 1.419 . S
C635 H639 0.930 . S
C636 C635 1.369 . S
C636 C645 1.429 . S
C637 C635 1.419 . S
C637 C638 1.363 . S
C637 H640 0.929 . S
C638 C637 1.363 . S
C638 C644 1.428 . S
H639 C635 0.930 . S
H640 C637 0.929 . S
S641 N642 1.613 . S
S641 N643 1.610 . S
N642 S641 1.613 . S
N642 C645 1.350 . S
N643 S641 1.610 . S
N643 C644 1.351 . S
C644 C638 1.428 . S
C644 N643 1.351 . S
C644 C645 1.434 . S
C645 C636 1.429 . S
C645 N642 1.350 . S
C645 C644 1.434 . S
C646 C647 1.369 . S
C646 C648 1.419 . S
C646 H650 0.930 . S
C647 C646 1.369 . S
C647 C656 1.429 . S
C648 C646 1.419 . S
C648 C649 1.363 . S
C648 H651 0.929 . S
C649 C648 1.363 . S
C649 C655 1.428 . S
H650 C646 0.930 . S
H651 C648 0.929 . S
S652 N653 1.613 . S
S652 N654 1.610 . S
N653 S652 1.613 . S
N653 C656 1.350 . S
N654 S652 1.610 . S
N654 C655 1.351 . S
C655 C649 1.428 . S
C655 N654 1.351 . S
C655 C656 1.434 . S
C656 C647 1.429 . S
C656 N653 1.350 . S
C656 C655 1.434 . S
C657 C658 1.369 . S
C657 C659 1.419 . S
C657 H661 0.930 . S
C658 C657 1.369 . S
C658 C667 1.429 . S
C659 C657 1.419 . S
C659 C660 1.363 . S
C659 H662 0.929 . S
C660 C659 1.363 . S
C660 C666 1.428 . S
H661 C657 0.930 . S
H662 C659 0.929 . S
S663 N664 1.613 . S
S663 N665 1.610 . S
N664 S663 1.613 . S
N664 C667 1.350 . S
N665 S663 1.610 . S
N665 C666 1.351 . S
C666 C660 1.428 . S
C666 N665 1.351 . S
C666 C667 1.434 . S
C667 C658 1.429 . S
C667 N664 1.350 . S
C667 C666 1.434 . S
C668 C669 1.369 . S
C668 C670 1.419 . S
C668 H672 0.930 . S
C669 C668 1.369 . S
C669 C678 1.424 1_655 S
C670 C668 1.419 . S
C670 C671 1.363 . S
C670 H673 0.929 . S
C671 C670 1.363 . S
C671 C677 1.428 . S
H672 C668 0.930 . S
H673 C670 0.929 . S
S674 N675 1.613 . S
S674 N676 1.610 . S
N675 S674 1.613 . S
N675 C678 1.358 . S
N676 S674 1.610 . S
N676 C677 1.351 1_455 S
C677 C671 1.428 . S
C677 N676 1.351 1_655 S
C677 C678 1.432 1_655 S
C678 C669 1.424 1_455 S
C678 N675 1.358 . S
C678 C677 1.432 1_455 S
C679 C680 1.369 1_545 S
C679 C681 1.416 1_545 S
C679 H683 0.930 . S
C680 C679 1.369 1_565 S
C680 C689 1.429 . S
C681 C679 1.416 1_565 S
C681 C682 1.377 . S
C681 H684 0.919 1_565 S
C682 C681 1.377 . S
C682 C688 1.428 . S
H683 C679 0.930 . S
H684 C681 0.919 1_545 S
S685 N686 1.613 . S
S685 N687 1.610 . S
N686 S685 1.613 . S
N686 C689 1.350 . S
N687 S685 1.610 . S
N687 C688 1.351 . S
C688 C682 1.428 . S
C688 N687 1.351 . S
C688 C689 1.434 . S
C689 C680 1.429 . S
C689 N686 1.350 . S
C689 C688 1.434 . S
C690 C691 1.369 . S
C690 C692 1.419 . S
C690 H694 0.930 . S
C691 C690 1.369 . S
C691 C700 1.429 . S
C692 C690 1.419 . S
C692 C693 1.363 . S
C692 H695 0.929 . S
C693 C692 1.363 . S
C693 C699 1.428 . S
H694 C690 0.930 . S
H695 C692 0.929 . S
S696 N697 1.613 . S
S696 N698 1.610 . S
N697 S696 1.613 . S
N697 C700 1.350 . S
N698 S696 1.610 . S
N698 C699 1.351 . S
C699 C693 1.428 . S
C699 N698 1.351 . S
C699 C700 1.434 . S
C700 C691 1.429 . S
C700 N697 1.350 . S
C700 C699 1.434 . S
C701 C702 1.369 . S
C701 C703 1.419 . S
C701 H705 0.930 . S
C702 C701 1.369 . S
C702 C711 1.429 . S
C703 C701 1.419 . S
C703 C704 1.363 . S
C703 H706 0.929 . S
C704 C703 1.363 . S
C704 C710 1.428 . S
H705 C701 0.930 . S
H706 C703 0.929 . S
S707 N708 1.613 . S
S707 N709 1.610 . S
N708 S707 1.613 . S
N708 C711 1.350 . S
N709 S707 1.610 . S
N709 C710 1.351 . S
C710 C704 1.428 . S
C710 N709 1.351 . S
C710 C711 1.434 . S
C711 C702 1.429 . S
C711 N708 1.350 . S
C711 C710 1.434 . S
C449 C241 2.427 . S
C451 C297 2.825 1_545 S
C462 C337 2.873 . S
C460 C277 2.566 . S
C473 C377 2.859 . S
C471 C169 2.453 . S
C484 C417 2.841 1_455 S
C482 C205 2.438 . S
C495 C306 2.827 1_554 S
C493 C97 2.423 1_565 S
C504 C133 2.542 . S
C506 C346 2.877 1_554 S
C515 C25 2.470 . S
C517 C386 2.859 1_554 S
C526 C61 2.446 1_655 S
C528 C426 2.839 1_654 S
C539 C303 0.745 . S
C537 C211 0.766 . S
C550 C343 0.741 . S
C548 C247 0.763 . S
C561 C383 0.691 . S
C559 C253 0.713 . S
C570 C175 0.704 . S
C572 C423 0.700 . S
C581 C67 0.740 . S
C583 C294 0.768 . S
C594 C334 0.758 . S
C592 C103 0.742 . S
C605 C374 0.710 . S
C603 C109 0.678 . S
C614 C31 0.703 . S
C616 C414 0.727 . S
C625 C181 3.246 . S
C627 C307 3.715 . S
C636 C217 3.191 . S
C638 C347 3.666 . S
C649 C387 3.663 . S
C647 C283 3.124 . S
C660 C427 3.698 . S
C658 C145 3.215 . S
C669 C37 3.251 1_655 S
C671 C298 3.724 . S
C682 C338 3.668 . S
C680 C73 3.194 1_565 S
C693 C378 3.664 . S
C691 C139 3.087 . S
C702 C1 3.239 . S
C704 C418 3.704 . S
