# Generated by pormake.
# Topology rtl, (3,6)-cn, num edge types: 1
# Building blocks:
#     Node 0, Type 0, BuildingBlock: BETDIP_clean_linker_0, # of connection points: 3
#     Node 1, Type 0, BuildingBlock: BETDIP_clean_linker_0, # of connection points: 3
#     Node 2, Type 0, BuildingBlock: BETDIP_clean_linker_0, # of connection points: 3
#     Node 3, Type 0, BuildingBlock: BETDIP_clean_linker_0, # of connection points: 3
#     Node 4, Type 1, BuildingBlock: VOLQOD_clean_sbu_1, # of connection points: 6
#     Node 5, Type 1, BuildingBlock: VOLQOD_clean_sbu_1, # of connection points: 6
#     Edge 6, Type (0, 1), BuildingBlock: KIFKEQ_clean_linker_1, # of connection points: 2
#     Edge 7, Type (0, 1), BuildingBlock: KIFKEQ_clean_linker_1, # of connection points: 2
#     Edge 8, Type (0, 1), BuildingBlock: KIFKEQ_clean_linker_1, # of connection points: 2
#     Edge 9, Type (0, 1), BuildingBlock: KIFKEQ_clean_linker_1, # of connection points: 2
#     Edge 10, Type (0, 1), BuildingBlock: KIFKEQ_clean_linker_1, # of connection points: 2
#     Edge 11, Type (0, 1), BuildingBlock: KIFKEQ_clean_linker_1, # of connection points: 2
#     Edge 12, Type (0, 1), BuildingBlock: KIFKEQ_clean_linker_1, # of connection points: 2
#     Edge 13, Type (0, 1), BuildingBlock: KIFKEQ_clean_linker_1, # of connection points: 2
#     Edge 14, Type (0, 1), BuildingBlock: KIFKEQ_clean_linker_1, # of connection points: 2
#     Edge 15, Type (0, 1), BuildingBlock: KIFKEQ_clean_linker_1, # of connection points: 2
#     Edge 16, Type (0, 1), BuildingBlock: KIFKEQ_clean_linker_1, # of connection points: 2
#     Edge 17, Type (0, 1), BuildingBlock: KIFKEQ_clean_linker_1, # of connection points: 2
# Relax obj value: 0.041
# Max RMSD: 0.143
# Mean RMSD: 0.096
data_MOF--net-rtl--node1-VOLQOD_clean_sbu_1--node2-BETDIP_clean_linker_0--edge1-KIFKEQ_clean_linker_1
_symmetry_space_group_name_H-M    P1
_symmetry_Int_Tables_number       1
_symmetry_cell_setting            triclinic
loop_
_symmetry_equiv_pos_as_xyz
'x, y, z'
_cell_length_a     38.785867
_cell_length_b     38.541444
_cell_length_c     22.643976
_cell_angle_alpha  91.557557
_cell_angle_beta   91.42679
_cell_angle_gamma 89.887435
loop_
_atom_site_label
_atom_site_type_symbol
_atom_site_fract_x
_atom_site_fract_y
_atom_site_fract_z
_atom_type_partial_charge
H0 H 0.20782 0.80829 0.89318 0.0
H1 H 0.20841 0.81207 0.08368 0.0
H2 H 0.12758 0.86243 0.98544 0.0
H3 H 0.26431 0.79665 0.07422 0.0
C4 C 0.2644 0.7798 0.035 0.0
C5 C 0.19629 0.81678 0.93424 0.0
C6 C 0.16578 0.83629 0.93304 0.0
C7 C 0.21197 0.80785 -0.01189 0.0
C8 C 0.19706 0.81904 0.04152 0.0
C9 C 0.16641 0.83848 0.04055 0.0
C10 C 0.15082 0.84671 -0.01374 0.0
N11 N 0.24159 0.78618 -0.01351 0.0
H12 H 0.7031 0.71195 0.6321 0.0
H13 H 0.70113 0.70637 0.44146 0.0
H14 H 0.62499 0.65235 0.53746 0.0
H15 H 0.75755 0.7198 0.4549 0.0
C16 C 0.75699 0.73911 0.49071 0.0
C17 C 0.69155 0.70245 0.5907 0.0
C18 C 0.66222 0.68121 0.59093 0.0
C19 C 0.70596 0.71167 0.53709 0.0
C20 C 0.69092 0.69908 0.48338 0.0
C21 C 0.66162 0.67784 0.48343 0.0
C22 C 0.64728 0.66931 0.53725 0.0
N23 N 0.73451 0.73477 0.53855 0.0
H24 H 0.79736 0.21839 0.89709 0.0
H25 H 0.79025 0.21093 0.08594 0.0
H26 H 0.86231 0.14695 -0.0087 0.0
H27 H 0.72853 0.21814 0.04772 0.0
C28 C 0.7348 0.24198 0.02577 0.0
C29 C 0.80583 0.20694 0.93819 0.0
C30 C 0.83172 0.1815 0.93807 0.0
C31 C 0.79047 0.21735 -0.00878 0.0
C32 C 0.80159 0.20262 0.04464 0.0
C33 C 0.8275 0.17718 0.04463 0.0
C34 C 0.84238 0.16675 -0.00866 0.0
N35 N 0.76427 0.24305 -0.01005 0.0
H36 H 0.27925 0.30796 0.405 0.0
H37 H 0.29288 0.30309 0.59413 0.0
H38 H 0.34633 0.38019 0.49781 0.0
H39 H 0.27045 0.24996 0.58074 0.0
C40 C 0.25296 0.25096 0.54266 0.0
C41 C 0.29095 0.31776 0.4461 0.0
C42 C 0.31377 0.34579 0.44563 0.0
C43 C 0.28301 0.30226 0.49932 0.0
C44 C 0.29864 0.31479 0.55268 0.0
C45 C 0.32211 0.34261 0.55244 0.0
C46 C 0.32881 0.35832 0.49872 0.0
N47 N 0.25867 0.27474 0.4971 0.0
O48 O 0.91772 0.96813 0.48812 0.0
Zn49 Zn 0.94477 0.01318 0.48878 0.0
O50 O -0.00529 0.00496 0.48965 0.0
Zn51 Zn 0.01536 0.02387 0.56306 0.0
Zn52 Zn 0.00303 0.95505 0.48509 0.0
Zn53 Zn 0.0159 0.02719 0.42257 0.0
O54 O 0.05084 0.06005 0.54749 0.0
O55 O 0.05175 0.06255 0.44982 0.0
O56 O 0.93095 0.04212 0.56004 0.0
O57 O 0.97959 0.04667 0.61357 0.0
O58 O 0.03937 0.98693 0.60961 0.0
O59 O 0.03039 0.93879 0.55548 0.0
O60 O 0.02953 0.94174 0.41329 0.0
O61 O 0.93039 0.03957 0.41686 0.0
O62 O 0.03992 0.99164 0.37036 0.0
O63 O 0.97957 0.05178 0.37348 0.0
C64 C 0.92718 0.93647 0.48446 0.0
C65 C 0.06275 0.07269 0.50087 0.0
C66 C 0.04319 0.95439 0.60111 0.0
C67 C 0.94752 0.0528 0.60628 0.0
C68 C 0.04288 0.95874 0.37229 0.0
C69 C 0.94682 0.05389 0.37607 0.0
O70 O 0.95891 0.92828 0.482 0.0
O71 O 0.56948 0.46743 0.01735 0.0
Zn72 Zn 0.54464 0.51355 0.02095 0.0
O73 O 0.49449 0.50648 0.01897 0.0
Zn74 Zn 0.47445 0.528 0.94885 0.0
Zn75 Zn 0.48373 0.45682 0.01712 0.0
Zn76 Zn 0.47476 0.52771 0.08959 0.0
O77 O 0.44063 0.56577 0.97095 0.0
O78 O 0.44236 0.56641 0.06898 0.0
O79 O 0.55976 0.54208 0.95289 0.0
O80 O 0.51104 0.55062 0.90185 0.0
O81 O 0.45026 0.49253 0.89571 0.0
O82 O 0.45748 0.44295 0.94233 0.0
O83 O 0.45345 0.44391 0.08399 0.0
O84 O 0.56028 0.53943 0.09573 0.0
O85 O 0.44788 0.49345 0.135 0.0
O86 O 0.51158 0.54771 0.1437 0.0
C87 C 0.55931 0.4361 0.02008 0.0
C88 C 0.431 0.5784 0.02043 0.0
C89 C 0.44571 0.4599 0.89873 0.0
C90 C 0.54346 0.55471 0.90895 0.0
C91 C 0.44137 0.46129 0.12737 0.0
C92 C 0.54411 0.55102 0.14042 0.0
O93 O 0.52742 0.42844 0.02219 0.0
H94 H 0.24051 0.19731 0.61407 0.0
H95 H 0.20196 0.2466 0.45662 0.0
H96 H 0.19478 0.1539 0.60353 0.0
H97 H 0.15579 0.20398 0.44688 0.0
H98 H 0.09984 0.10091 0.41261 0.0
H99 H 0.14601 0.14361 0.42266 0.0
H100 H 0.13344 0.14807 0.61181 0.0
H101 H 0.08801 0.10476 0.60202 0.0
C102 C 0.22213 0.19891 0.57742 0.0
C103 C 0.22486 0.22517 0.53615 0.0
C104 C 0.19583 0.17421 0.5715 0.0
C105 C 0.17158 0.17543 0.5243 0.0
C106 C 0.17432 0.20192 0.48319 0.0
C107 C 0.2007 0.22649 0.48898 0.0
C108 C 0.10689 0.11102 0.45633 0.0
C109 C 0.09023 0.09933 0.50648 0.0
C110 C 0.13327 0.13565 0.46208 0.0
C111 C 0.14349 0.14927 0.51807 0.0
C112 C 0.12664 0.13773 0.56812 0.0
C113 C 0.10039 0.11303 0.56243 0.0
H114 H 0.31562 0.76521 0.11417 0.0
H115 H 0.26946 0.7292 0.94818 0.0
H116 H 0.35683 0.71719 0.11007 0.0
H117 H 0.30971 0.68077 0.94484 0.0
H118 H 0.40825 0.61737 0.92791 0.0
H119 H 0.3692 0.66693 0.93101 0.0
H120 H 0.3588 0.65537 0.11906 0.0
H121 H 0.3986 0.60655 0.1163 0.0
C122 C 0.3143 0.74696 0.07693 0.0
C123 C 0.28949 0.75097 0.03153 0.0
C124 C 0.3377 0.71935 0.0747 0.0
C125 C 0.33656 0.69505 0.02714 0.0
C126 C 0.3117 0.69926 0.98163 0.0
C127 C 0.28847 0.72696 0.98372 0.0
C128 C 0.39761 0.62538 0.96991 0.0
C129 C 0.40658 0.60798 0.02184 0.0
C130 C 0.37509 0.65372 0.97166 0.0
C131 C 0.36086 0.66518 0.02531 0.0
C132 C 0.36972 0.64764 0.07716 0.0
C133 C 0.39238 0.61945 0.07548 0.0
H134 H 0.76219 0.7949 0.5688 0.0
H135 H 0.80552 0.75044 0.40998 0.0
H136 H 0.80244 0.8435 0.56563 0.0
H137 H 0.84555 0.79915 0.40645 0.0
H138 H 0.93784 0.86726 0.46395 0.0
H139 H 0.89593 0.82053 0.46523 0.0
H140 H 0.81553 0.89471 0.50439 0.0
H141 H 0.85767 0.94182 0.50368 0.0
C142 C 0.7803 0.79553 0.53321 0.0
C143 C 0.78099 0.7688 0.48978 0.0
C144 C 0.80315 0.82349 0.53115 0.0
C145 C 0.82719 0.82509 0.48587 0.0
C146 C 0.82761 0.79842 0.44229 0.0
C147 C 0.80467 0.77062 0.44418 0.0
C148 C 0.91124 0.87375 0.47275 0.0
C149 C 0.90115 0.90836 0.48376 0.0
C150 C 0.88718 0.84692 0.47313 0.0
C151 C 0.85243 0.85394 0.48479 0.0
C152 C 0.84221 0.8885 0.49575 0.0
C153 C 0.8663 0.91548 0.49498 0.0
H154 H 0.74695 0.31087 0.01087 0.0
H155 H 0.66595 0.23731 0.03994 0.0
H156 H 0.70513 0.35803 0.01214 0.0
H157 H 0.62338 0.2837 0.0363 0.0
H158 H 0.55647 0.37594 0.07976 0.0
H159 H 0.59942 0.32999 0.08374 0.0
H160 H 0.66211 0.38587 0.96249 0.0
H161 H 0.62022 0.43293 0.96294 0.0
C162 C 0.71999 0.30484 0.01663 0.0
C163 C 0.70952 0.27059 0.02524 0.0
C164 C 0.69584 0.33182 0.01686 0.0
C165 C 0.6605 0.32503 0.02406 0.0
C166 C 0.65025 0.29042 0.03202 0.0
C167 C 0.67458 0.26364 0.03355 0.0
C168 C 0.57956 0.3783 0.0542 0.0
C169 C 0.58512 0.40794 0.02116 0.0
C170 C 0.60417 0.35179 0.05596 0.0
C171 C 0.63451 0.35377 0.02321 0.0
C172 C 0.63966 0.38347 -0.01049 0.0
C173 C 0.6155 0.41044 -0.01076 0.0
H174 H 0.19669 0.87779 0.12912 0.0
H175 H 0.10052 0.82921 0.07452 0.0
H176 H 0.16818 0.90594 0.21335 0.0
H177 H 0.0721 0.85699 0.15864 0.0
H178 H 0.04212 0.88909 0.34722 0.0
H179 H 0.07425 0.85737 0.27181 0.0
H180 H 0.12045 0.9531 0.21892 0.0
H181 H 0.08816 0.9851 0.29421 0.0
C182 C 0.16966 0.87264 0.13596 0.0
C183 C 0.1507 0.85143 0.09567 0.0
C184 C 0.15332 0.88893 0.18363 0.0
C185 C 0.11795 0.88373 0.19217 0.0
C186 C 0.09943 0.86127 0.15323 0.0
C187 C 0.1156 0.84547 0.10516 0.0
C188 C 0.05918 0.90342 0.31966 0.0
C189 C 0.06247 0.93966 0.32652 0.0
C190 C 0.0775 0.88523 0.27648 0.0
C191 C 0.09986 0.90279 0.23981 0.0
C192 C 0.10362 0.93892 0.24713 0.0
C193 C 0.08492 0.95723 0.28982 0.0
H194 H 0.5971 0.69191 0.6281 0.0
H195 H 0.69371 0.64377 0.67701 0.0
H196 H 0.56935 0.66464 0.7104 0.0
H197 H 0.66582 0.61494 0.75797 0.0
H198 H 0.60839 0.58241 0.92091 0.0
H199 H 0.6382 0.61798 0.85072 0.0
H200 H 0.551 0.60786 0.72876 0.0
H201 H 0.5209 0.57367 0.79954 0.0
C202 C 0.61241 0.67578 0.65719 0.0
C203 C 0.6474 0.66982 0.64654 0.0
C204 C 0.59652 0.65982 0.70387 0.0
C205 C 0.61513 0.63695 0.74017 0.0
C206 C 0.6507 0.63252 0.73125 0.0
C207 C 0.66673 0.64898 0.68495 0.0
C208 C 0.59564 0.58784 0.87907 0.0
C209 C 0.56223 0.57528 0.86586 0.0
C210 C 0.61275 0.60818 0.83877 0.0
C211 C 0.59694 0.61612 0.78419 0.0
C212 C 0.56369 0.60311 0.77091 0.0
C213 C 0.54649 0.58317 0.81134 0.0
H214 H 0.86062 0.20864 0.13885 0.0
H215 H 0.82283 0.10953 0.07245 0.0
H216 H 0.88819 0.18012 0.2236 0.0
H217 H 0.84971 0.08108 0.15737 0.0
H218 H 0.8781 0.04947 0.34766 0.0
H219 H 0.84601 0.08129 0.27221 0.0
H220 H 0.93905 0.13495 0.22795 0.0
H221 H 0.9714 0.10289 0.30285 0.0
C222 C 0.85764 0.18089 0.14329 0.0
C223 C 0.83963 0.16114 0.09973 0.0
C224 C 0.87354 0.1646 0.19127 0.0
C225 C 0.87108 0.12845 0.19675 0.0
C226 C 0.85177 0.109 0.15435 0.0
C227 C 0.83645 0.12518 0.10592 0.0
C228 C 0.89171 0.06814 0.32201 0.0
C229 C 0.92733 0.07355 0.33101 0.0
C230 C 0.87334 0.08627 0.27885 0.0
C231 C 0.89007 0.11061 0.2446 0.0
C232 C 0.9255 0.11655 0.25427 0.0
C233 C 0.94403 0.09799 0.29674 0.0
H234 H 0.29627 0.35212 0.66403 0.0
H235 H 0.38956 0.36187 0.56519 0.0
H236 H 0.32584 0.37859 0.75107 0.0
H237 H 0.4182 0.38944 0.65095 0.0
H238 H 0.43457 0.48095 0.78592 0.0
H239 H 0.40419 0.44976 0.70514 0.0
H240 H 0.38242 0.36601 0.82116 0.0
H241 H 0.4134 0.39691 0.90228 0.0
C242 C 0.32308 0.35949 0.66099 0.0
C243 C 0.34034 0.35544 0.60731 0.0
C244 C 0.33989 0.37474 0.71065 0.0
C245 C 0.37403 0.38645 0.70711 0.0
C246 C 0.39165 0.38117 0.65434 0.0
C247 C 0.37513 0.36554 0.60523 0.0
C248 C 0.42326 0.45594 0.79436 0.0
C249 C 0.42653 0.4413 0.85036 0.0
C250 C 0.406 0.43809 0.7481 0.0
C251 C 0.39113 0.40553 0.75714 0.0
C252 C 0.39362 0.39115 0.81333 0.0
C253 C 0.41149 0.40874 0.85946 0.0
H254 H 0.69353 0.64076 0.39634 0.0
H255 H 0.59473 0.68222 0.44622 0.0
H256 H 0.66622 0.61033 0.31139 0.0
H257 H 0.56748 0.65324 0.36027 0.0
H258 H 0.52254 0.56379 0.25234 0.0
H259 H 0.55219 0.59607 0.33174 0.0
H260 H 0.63765 0.61413 0.21747 0.0
H261 H 0.60836 0.58039 0.13842 0.0
C262 C 0.66607 0.64394 0.38816 0.0
C263 C 0.6461 0.66352 0.42776 0.0
C264 C 0.6504 0.62659 0.33955 0.0
C265 C 0.61452 0.62888 0.32938 0.0
C266 C 0.59498 0.65006 0.3676 0.0
C267 C 0.61056 0.66693 0.41652 0.0
C268 C 0.5477 0.57456 0.24413 0.0
C269 C 0.56306 0.56962 0.18904 0.0
C270 C 0.56462 0.59338 0.28957 0.0
C271 C 0.59715 0.60821 0.28087 0.0
C272 C 0.61275 0.60287 0.22591 0.0
C273 C 0.59595 0.58361 0.18054 0.0
H274 H 0.89911 0.18433 0.91007 0.0
H275 H 0.79959 0.14984 0.84313 0.0
H276 H 0.92665 0.15641 0.82557 0.0
H277 H 0.82702 0.12017 0.7598 0.0
H278 H 0.88586 0.08716 0.59573 0.0
H279 H 0.85759 0.12292 0.67088 0.0
H280 H 0.93978 0.09932 0.79609 0.0
H281 H 0.96856 0.06508 0.72052 0.0
C282 C 0.88319 0.17096 0.87671 0.0
C283 C 0.84738 0.1691 0.88272 0.0
C284 C 0.8989 0.15461 0.82868 0.0
C285 C 0.87918 0.13538 0.78632 0.0
C286 C 0.84304 0.13492 0.79119 0.0
C287 C 0.82727 0.15183 0.83885 0.0
C288 C 0.89782 0.08968 0.63938 0.0
C289 C 0.92949 0.07339 0.65216 0.0
C290 C 0.88158 0.11011 0.68252 0.0
C291 C 0.89648 0.11433 0.73956 0.0
C292 C 0.92793 0.09752 0.75232 0.0
C293 C 0.94434 0.07755 0.70907 0.0
H294 H 0.34601 0.3137 0.35428 0.0
H295 H 0.30573 0.41266 0.41342 0.0
H296 H 0.37384 0.34151 0.27245 0.0
H297 H 0.33189 0.44053 0.33006 0.0
H298 H 0.42417 0.48454 0.23743 0.0
H299 H 0.38847 0.45601 0.30785 0.0
H300 H 0.37083 0.37095 0.18226 0.0
H301 H 0.408 0.399 0.11256 0.0
C302 C 0.34223 0.34126 0.34837 0.0
C303 C 0.324 0.36119 0.38987 0.0
C304 C 0.3581 0.35726 0.30153 0.0
C305 C 0.35562 0.39343 0.29511 0.0
C306 C 0.33517 0.41281 0.33455 0.0
C307 C 0.31984 0.3969 0.38185 0.0
C308 C 0.41262 0.45979 0.22474 0.0
C309 C 0.41905 0.44397 0.16954 0.0
C310 C 0.3918 0.44353 0.26496 0.0
C311 C 0.37644 0.41123 0.2507 0.0
C312 C 0.38254 0.39559 0.19506 0.0
C313 C 0.40378 0.4117 0.15504 0.0
H314 H 0.09931 0.82762 0.8945 0.0
H315 H 0.19679 0.87104 0.84605 0.0
H316 H 0.07135 0.85339 0.80801 0.0
H317 H 0.16876 0.89717 0.75977 0.0
H318 H 0.08999 0.97911 0.68355 0.0
H319 H 0.12208 0.94625 0.75744 0.0
H320 H 0.07329 0.85171 0.69231 0.0
H321 H 0.04137 0.88444 0.61762 0.0
C322 C 0.11476 0.84223 0.8647 0.0
C323 C 0.15008 0.84749 0.87668 0.0
C324 C 0.09887 0.85681 0.81527 0.0
C325 C 0.11795 0.87734 0.77765 0.0
C326 C 0.15354 0.88155 0.78843 0.0
C327 C 0.16956 0.86647 0.83736 0.0
C328 C 0.0862 0.9513 0.68479 0.0
C329 C 0.06307 0.93436 0.64499 0.0
C330 C 0.10478 0.9325 0.7267 0.0
C331 C 0.10018 0.89651 0.7302 0.0
C332 C 0.07721 0.87947 0.69035 0.0
C333 C 0.05904 0.89819 0.64769 0.0
loop_
_geom_bond_atom_site_label_1
_geom_bond_atom_site_label_2
_geom_bond_distance
_geom_bond_site_symmetry_2
_ccdc_geom_bond_type
H0 C5 0.930 . S
H1 C8 0.930 . S
H2 C10 0.930 . S
H3 C4 1.016 . S
C4 H3 1.016 . S
C4 N11 1.286 1_554 S
C5 H0 0.930 . S
C5 C6 1.397 . S
C5 C7 1.361 1_556 S
C6 C5 1.397 . S
C6 C10 1.390 1_556 S
C7 C5 1.361 1_554 S
C7 C8 1.393 . S
C7 N11 1.413 1_554 S
C8 H1 0.930 . S
C8 C7 1.393 . S
C8 C9 1.399 . S
C9 C8 1.399 . S
C9 C10 1.381 . S
C10 H2 0.930 . S
C10 C6 1.390 1_554 S
C10 C9 1.381 . S
N11 C4 1.286 1_556 S
N11 C7 1.413 1_556 S
H12 C17 0.930 . S
H13 C20 0.930 . S
H14 C22 0.930 . S
H15 C16 1.016 . S
C16 H15 1.016 . S
C16 N23 1.286 . S
C17 H12 0.930 . S
C17 C18 1.397 . S
C17 C19 1.361 . S
C18 C17 1.397 . S
C18 C22 1.390 . S
C19 C17 1.361 . S
C19 C20 1.393 . S
C19 N23 1.413 . S
C20 H13 0.930 . S
C20 C19 1.393 . S
C20 C21 1.399 . S
C21 C20 1.399 . S
C21 C22 1.381 . S
C22 H14 0.930 . S
C22 C18 1.390 . S
C22 C21 1.381 . S
N23 C16 1.286 . S
N23 C19 1.413 . S
H24 C29 0.930 . S
H25 C32 0.930 . S
H26 C34 0.930 . S
H27 C28 1.016 . S
C28 H27 1.016 . S
C28 N35 1.286 1_554 S
C29 H24 0.930 . S
C29 C30 1.397 . S
C29 C31 1.361 1_556 S
C30 C29 1.397 . S
C30 C34 1.390 1_556 S
C31 C29 1.361 1_554 S
C31 C32 1.393 . S
C31 N35 1.413 1_554 S
C32 H25 0.930 . S
C32 C31 1.393 . S
C32 C33 1.399 . S
C33 C32 1.399 . S
C33 C34 1.381 . S
C34 H26 0.930 . S
C34 C30 1.390 1_554 S
C34 C33 1.381 . S
N35 C28 1.286 1_556 S
N35 C31 1.413 1_556 S
H36 C41 0.930 . S
H37 C44 0.930 . S
H38 C46 0.930 . S
H39 C40 1.016 . S
C40 H39 1.016 . S
C40 N47 1.286 . S
C41 H36 0.930 . S
C41 C42 1.397 . S
C41 C43 1.361 . S
C42 C41 1.397 . S
C42 C46 1.390 . S
C43 C41 1.361 . S
C43 C44 1.393 . S
C43 N47 1.413 . S
C44 H37 0.930 . S
C44 C43 1.393 . S
C44 C45 1.399 . S
C45 C44 1.399 . S
C45 C46 1.381 . S
C46 H38 0.930 . S
C46 C42 1.390 . S
C46 C45 1.381 . S
N47 C40 1.286 . S
N47 C43 1.413 . S
O48 Zn49 1.953 1_565 S
O48 C64 1.225 . S
Zn49 O48 1.953 1_545 S
Zn49 O50 1.949 1_655 S
Zn49 O56 1.919 . S
Zn49 O61 1.924 . S
O50 Zn49 1.949 1_455 S
O50 Zn51 1.923 . S
O50 Zn52 1.950 1_545 S
O50 Zn53 1.945 . S
Zn51 O50 1.923 . S
Zn51 O54 1.933 . S
Zn51 O57 1.941 1_455 S
Zn51 O58 1.965 1_545 S
Zn52 O50 1.950 1_565 S
Zn52 O59 1.938 . S
Zn52 O60 1.906 . S
Zn52 O70 1.953 1_455 S
Zn53 O50 1.945 . S
Zn53 O55 1.932 . S
Zn53 O62 1.977 1_545 S
Zn53 O63 1.910 1_455 S
O54 Zn51 1.933 . S
O54 C65 1.226 . S
O55 Zn53 1.932 . S
O55 C65 1.307 . S
O56 Zn49 1.919 . S
O56 C67 1.253 . S
O57 Zn51 1.941 1_655 S
O57 C67 1.283 . S
O58 Zn51 1.965 1_565 S
O58 C66 1.303 . S
O59 Zn52 1.938 . S
O59 C66 1.247 . S
O60 Zn52 1.906 . S
O60 C68 1.304 . S
O61 Zn49 1.924 . S
O61 C69 1.311 . S
O62 Zn53 1.977 1_565 S
O62 C68 1.272 . S
O63 Zn53 1.910 1_655 S
O63 C69 1.231 . S
C64 O48 1.225 . S
C64 O70 1.298 . S
C65 O54 1.226 . S
C65 O55 1.307 . S
C66 O58 1.303 . S
C66 O59 1.247 . S
C67 O56 1.253 . S
C67 O57 1.283 . S
C68 O60 1.304 . S
C68 O62 1.272 . S
C69 O61 1.311 . S
C69 O63 1.231 . S
O70 Zn52 1.953 1_655 S
O70 C64 1.298 . S
O71 Zn72 1.953 . S
O71 C87 1.225 . S
Zn72 O71 1.953 . S
Zn72 O73 1.949 . S
Zn72 O79 1.919 1_554 S
Zn72 O84 1.924 . S
O73 Zn72 1.949 . S
O73 Zn74 1.923 1_554 S
O73 Zn75 1.950 . S
O73 Zn76 1.945 . S
Zn74 O73 1.923 1_556 S
Zn74 O77 1.933 . S
Zn74 O80 1.941 . S
Zn74 O81 1.965 . S
Zn75 O73 1.950 . S
Zn75 O82 1.938 1_554 S
Zn75 O83 1.906 . S
Zn75 O93 1.953 . S
Zn76 O73 1.945 . S
Zn76 O78 1.932 . S
Zn76 O85 1.977 . S
Zn76 O86 1.910 . S
O77 Zn74 1.933 . S
O77 C88 1.226 1_556 S
O78 Zn76 1.932 . S
O78 C88 1.307 . S
O79 Zn72 1.919 1_556 S
O79 C90 1.253 . S
O80 Zn74 1.941 . S
O80 C90 1.283 . S
O81 Zn74 1.965 . S
O81 C89 1.303 . S
O82 Zn75 1.938 1_556 S
O82 C89 1.247 . S
O83 Zn75 1.906 . S
O83 C91 1.304 . S
O84 Zn72 1.924 . S
O84 C92 1.311 . S
O85 Zn76 1.977 . S
O85 C91 1.272 . S
O86 Zn76 1.910 . S
O86 C92 1.231 . S
C87 O71 1.225 . S
C87 O93 1.298 . S
C88 O77 1.226 1_554 S
C88 O78 1.307 . S
C89 O81 1.303 . S
C89 O82 1.247 . S
C90 O79 1.253 . S
C90 O80 1.283 . S
C91 O83 1.304 . S
C91 O85 1.272 . S
C92 O84 1.311 . S
C92 O86 1.231 . S
O93 Zn75 1.953 . S
O93 C87 1.298 . S
H94 C102 0.950 . S
H95 C107 0.950 . S
H96 C104 0.950 . S
H97 C106 0.950 . S
H98 C108 0.950 . S
H99 C110 0.950 . S
H100 C112 0.950 . S
H101 C113 0.950 . S
C102 H94 0.950 . S
C102 C103 1.386 . S
C102 C104 1.391 . S
C103 C102 1.386 . S
C103 C107 1.393 . S
C104 H96 0.950 . S
C104 C102 1.391 . S
C104 C105 1.400 . S
C105 C104 1.400 . S
C105 C106 1.398 . S
C105 C111 1.491 . S
C106 H97 0.950 . S
C106 C105 1.398 . S
C106 C107 1.391 . S
C107 H95 0.950 . S
C107 C103 1.393 . S
C107 C106 1.391 . S
C108 H98 0.950 . S
C108 C109 1.386 . S
C108 C110 1.391 . S
C109 C108 1.386 . S
C109 C113 1.393 . S
C110 H99 0.950 . S
C110 C108 1.391 . S
C110 C111 1.400 . S
C111 C105 1.491 . S
C111 C110 1.400 . S
C111 C112 1.398 . S
C112 H100 0.950 . S
C112 C111 1.398 . S
C112 C113 1.391 . S
C113 H101 0.950 . S
C113 C109 1.393 . S
C113 C112 1.391 . S
H114 C122 0.950 . S
H115 C127 0.950 . S
H116 C124 0.950 . S
H117 C126 0.950 . S
H118 C128 0.950 . S
H119 C130 0.950 . S
H120 C132 0.950 . S
H121 C133 0.950 . S
C122 H114 0.950 . S
C122 C123 1.386 . S
C122 C124 1.391 . S
C123 C122 1.386 . S
C123 C127 1.393 1_554 S
C124 H116 0.950 . S
C124 C122 1.391 . S
C124 C125 1.400 . S
C125 C124 1.400 . S
C125 C126 1.398 1_554 S
C125 C131 1.491 . S
C126 H117 0.950 . S
C126 C125 1.398 1_556 S
C126 C127 1.391 . S
C127 H115 0.950 . S
C127 C123 1.393 1_556 S
C127 C126 1.391 . S
C128 H118 0.950 . S
C128 C129 1.386 1_556 S
C128 C130 1.391 . S
C129 C128 1.386 1_554 S
C129 C133 1.393 . S
C130 H119 0.950 . S
C130 C128 1.391 . S
C130 C131 1.400 1_556 S
C131 C125 1.491 . S
C131 C130 1.400 1_554 S
C131 C132 1.398 . S
C132 H120 0.950 . S
C132 C131 1.398 . S
C132 C133 1.391 . S
C133 H121 0.950 . S
C133 C129 1.393 . S
C133 C132 1.391 . S
H134 C142 0.950 . S
H135 C147 0.950 . S
H136 C144 0.950 . S
H137 C146 0.950 . S
H138 C148 0.950 . S
H139 C150 0.950 . S
H140 C152 0.950 . S
H141 C153 0.950 . S
C142 H134 0.950 . S
C142 C143 1.386 . S
C142 C144 1.391 . S
C143 C142 1.386 . S
C143 C147 1.393 . S
C144 H136 0.950 . S
C144 C142 1.391 . S
C144 C145 1.400 . S
C145 C144 1.400 . S
C145 C146 1.398 . S
C145 C151 1.491 . S
C146 H137 0.950 . S
C146 C145 1.398 . S
C146 C147 1.391 . S
C147 H135 0.950 . S
C147 C143 1.393 . S
C147 C146 1.391 . S
C148 H138 0.950 . S
C148 C149 1.386 . S
C148 C150 1.391 . S
C149 C148 1.386 . S
C149 C153 1.393 . S
C150 H139 0.950 . S
C150 C148 1.391 . S
C150 C151 1.400 . S
C151 C145 1.491 . S
C151 C150 1.400 . S
C151 C152 1.398 . S
C152 H140 0.950 . S
C152 C151 1.398 . S
C152 C153 1.391 . S
C153 H141 0.950 . S
C153 C149 1.393 . S
C153 C152 1.391 . S
H154 C162 0.950 . S
H155 C167 0.950 . S
H156 C164 0.950 . S
H157 C166 0.950 . S
H158 C168 0.955 . S
H159 C170 0.950 . S
H160 C172 0.950 . S
H161 C173 0.950 . S
C162 H154 0.950 . S
C162 C163 1.386 . S
C162 C164 1.391 . S
C163 C162 1.386 . S
C163 C167 1.393 1_554 S
C164 H156 0.950 . S
C164 C162 1.391 . S
C164 C165 1.400 . S
C165 C164 1.400 . S
C165 C166 1.398 1_554 S
C165 C171 1.491 . S
C166 H157 0.950 . S
C166 C165 1.398 1_556 S
C166 C167 1.391 . S
C167 H155 0.950 . S
C167 C163 1.393 1_556 S
C167 C166 1.391 . S
C168 H158 0.955 . S
C168 C169 1.380 1_556 S
C168 C170 1.392 . S
C169 C168 1.380 1_554 S
C169 C173 1.393 . S
C170 H159 0.950 . S
C170 C168 1.392 . S
C170 C171 1.400 1_556 S
C171 C165 1.491 . S
C171 C170 1.400 1_554 S
C171 C172 1.398 . S
C172 H160 0.950 . S
C172 C171 1.398 . S
C172 C173 1.391 . S
C173 H161 0.950 . S
C173 C169 1.393 . S
C173 C172 1.391 . S
H174 C182 0.950 . S
H175 C187 0.950 . S
H176 C184 0.950 . S
H177 C186 0.950 . S
H178 C188 0.950 . S
H179 C190 0.950 . S
H180 C192 0.950 . S
H181 C193 0.950 . S
C182 H174 0.950 . S
C182 C183 1.386 . S
C182 C184 1.391 . S
C183 C182 1.386 . S
C183 C187 1.393 . S
C184 H176 0.950 . S
C184 C182 1.391 . S
C184 C185 1.400 . S
C185 C184 1.400 . S
C185 C186 1.398 . S
C185 C191 1.491 . S
C186 H177 0.950 . S
C186 C185 1.398 . S
C186 C187 1.391 . S
C187 H175 0.950 . S
C187 C183 1.393 . S
C187 C186 1.391 . S
C188 H178 0.950 . S
C188 C189 1.386 . S
C188 C190 1.391 . S
C189 C188 1.386 . S
C189 C193 1.393 . S
C190 H179 0.950 . S
C190 C188 1.391 . S
C190 C191 1.400 . S
C191 C185 1.491 . S
C191 C190 1.400 . S
C191 C192 1.398 . S
C192 H180 0.950 . S
C192 C191 1.398 . S
C192 C193 1.391 . S
C193 H181 0.950 . S
C193 C189 1.393 . S
C193 C192 1.391 . S
H194 C202 0.950 . S
H195 C207 0.950 . S
H196 C204 0.950 . S
H197 C206 0.950 . S
H198 C208 0.950 . S
H199 C210 0.950 . S
H200 C212 0.950 . S
H201 C213 0.950 . S
C202 H194 0.950 . S
C202 C203 1.386 . S
C202 C204 1.391 . S
C203 C202 1.386 . S
C203 C207 1.393 . S
C204 H196 0.950 . S
C204 C202 1.391 . S
C204 C205 1.400 . S
C205 C204 1.400 . S
C205 C206 1.398 . S
C205 C211 1.491 . S
C206 H197 0.950 . S
C206 C205 1.398 . S
C206 C207 1.391 . S
C207 H195 0.950 . S
C207 C203 1.393 . S
C207 C206 1.391 . S
C208 H198 0.950 . S
C208 C209 1.386 . S
C208 C210 1.391 . S
C209 C208 1.386 . S
C209 C213 1.393 . S
C210 H199 0.950 . S
C210 C208 1.391 . S
C210 C211 1.400 . S
C211 C205 1.491 . S
C211 C210 1.400 . S
C211 C212 1.398 . S
C212 H200 0.950 . S
C212 C211 1.398 . S
C212 C213 1.391 . S
C213 H201 0.950 . S
C213 C209 1.393 . S
C213 C212 1.391 . S
H214 C222 0.950 . S
H215 C227 0.950 . S
H216 C224 0.950 . S
H217 C226 0.950 . S
H218 C228 0.950 . S
H219 C230 0.950 . S
H220 C232 0.950 . S
H221 C233 0.950 . S
C222 H214 0.950 . S
C222 C223 1.386 . S
C222 C224 1.391 . S
C223 C222 1.386 . S
C223 C227 1.393 . S
C224 H216 0.950 . S
C224 C222 1.391 . S
C224 C225 1.400 . S
C225 C224 1.400 . S
C225 C226 1.398 . S
C225 C231 1.491 . S
C226 H217 0.950 . S
C226 C225 1.398 . S
C226 C227 1.391 . S
C227 H215 0.950 . S
C227 C223 1.393 . S
C227 C226 1.391 . S
C228 H218 0.950 . S
C228 C229 1.386 . S
C228 C230 1.391 . S
C229 C228 1.386 . S
C229 C233 1.393 . S
C230 H219 0.950 . S
C230 C228 1.391 . S
C230 C231 1.400 . S
C231 C225 1.491 . S
C231 C230 1.400 . S
C231 C232 1.398 . S
C232 H220 0.950 . S
C232 C231 1.398 . S
C232 C233 1.391 . S
C233 H221 0.950 . S
C233 C229 1.393 . S
C233 C232 1.391 . S
H234 C242 0.950 . S
H235 C247 0.950 . S
H236 C244 0.950 . S
H237 C246 0.950 . S
H238 C248 0.950 . S
H239 C250 0.950 . S
H240 C252 0.950 . S
H241 C253 0.950 . S
C242 H234 0.950 . S
C242 C243 1.386 . S
C242 C244 1.391 . S
C243 C242 1.386 . S
C243 C247 1.393 . S
C244 H236 0.950 . S
C244 C242 1.391 . S
C244 C245 1.400 . S
C245 C244 1.400 . S
C245 C246 1.398 . S
C245 C251 1.491 . S
C246 H237 0.950 . S
C246 C245 1.398 . S
C246 C247 1.391 . S
C247 H235 0.950 . S
C247 C243 1.393 . S
C247 C246 1.391 . S
C248 H238 0.950 . S
C248 C249 1.386 . S
C248 C250 1.391 . S
C249 C248 1.386 . S
C249 C253 1.393 . S
C250 H239 0.950 . S
C250 C248 1.391 . S
C250 C251 1.400 . S
C251 C245 1.491 . S
C251 C250 1.400 . S
C251 C252 1.398 . S
C252 H240 0.950 . S
C252 C251 1.398 . S
C252 C253 1.391 . S
C253 H241 0.950 . S
C253 C249 1.393 . S
C253 C252 1.391 . S
H254 C262 0.950 . S
H255 C267 0.950 . S
H256 C264 0.950 . S
H257 C266 0.950 . S
H258 C268 0.950 . S
H259 C270 0.950 . S
H260 C272 0.950 . S
H261 C273 0.950 . S
C262 H254 0.950 . S
C262 C263 1.386 . S
C262 C264 1.391 . S
C263 C262 1.386 . S
C263 C267 1.393 . S
C264 H256 0.950 . S
C264 C262 1.391 . S
C264 C265 1.400 . S
C265 C264 1.400 . S
C265 C266 1.398 . S
C265 C271 1.491 . S
C266 H257 0.950 . S
C266 C265 1.398 . S
C266 C267 1.391 . S
C267 H255 0.950 . S
C267 C263 1.393 . S
C267 C266 1.391 . S
C268 H258 0.950 . S
C268 C269 1.386 . S
C268 C270 1.391 . S
C269 C268 1.386 . S
C269 C273 1.393 . S
C270 H259 0.950 . S
C270 C268 1.391 . S
C270 C271 1.400 . S
C271 C265 1.491 . S
C271 C270 1.400 . S
C271 C272 1.398 . S
C272 H260 0.950 . S
C272 C271 1.398 . S
C272 C273 1.391 . S
C273 H261 0.950 . S
C273 C269 1.393 . S
C273 C272 1.391 . S
H274 C282 0.950 . S
H275 C287 0.950 . S
H276 C284 0.950 . S
H277 C286 0.950 . S
H278 C288 0.950 . S
H279 C290 0.950 . S
H280 C292 0.950 . S
H281 C293 0.950 . S
C282 H274 0.950 . S
C282 C283 1.386 . S
C282 C284 1.391 . S
C283 C282 1.386 . S
C283 C287 1.393 . S
C284 H276 0.950 . S
C284 C282 1.391 . S
C284 C285 1.400 . S
C285 C284 1.400 . S
C285 C286 1.398 . S
C285 C291 1.491 . S
C286 H277 0.950 . S
C286 C285 1.398 . S
C286 C287 1.391 . S
C287 H275 0.950 . S
C287 C283 1.393 . S
C287 C286 1.391 . S
C288 H278 0.950 . S
C288 C289 1.386 . S
C288 C290 1.391 . S
C289 C288 1.386 . S
C289 C293 1.393 . S
C290 H279 0.950 . S
C290 C288 1.391 . S
C290 C291 1.400 . S
C291 C285 1.491 . S
C291 C290 1.400 . S
C291 C292 1.398 . S
C292 H280 0.950 . S
C292 C291 1.398 . S
C292 C293 1.391 . S
C293 H281 0.950 . S
C293 C289 1.393 . S
C293 C292 1.391 . S
H294 C302 0.950 . S
H295 C307 0.950 . S
H296 C304 0.950 . S
H297 C306 0.950 . S
H298 C308 0.950 . S
H299 C310 0.950 . S
H300 C312 0.950 . S
H301 C313 0.950 . S
C302 H294 0.950 . S
C302 C303 1.386 . S
C302 C304 1.391 . S
C303 C302 1.386 . S
C303 C307 1.393 . S
C304 H296 0.950 . S
C304 C302 1.391 . S
C304 C305 1.400 . S
C305 C304 1.400 . S
C305 C306 1.398 . S
C305 C311 1.491 . S
C306 H297 0.950 . S
C306 C305 1.398 . S
C306 C307 1.391 . S
C307 H295 0.950 . S
C307 C303 1.393 . S
C307 C306 1.391 . S
C308 H298 0.950 . S
C308 C309 1.386 . S
C308 C310 1.391 . S
C309 C308 1.386 . S
C309 C313 1.393 . S
C310 H299 0.950 . S
C310 C308 1.391 . S
C310 C311 1.400 . S
C311 C305 1.491 . S
C311 C310 1.400 . S
C311 C312 1.398 . S
C312 H300 0.950 . S
C312 C311 1.398 . S
C312 C313 1.391 . S
C313 H301 0.950 . S
C313 C309 1.393 . S
C313 C312 1.391 . S
H314 C322 0.950 . S
H315 C327 0.950 . S
H316 C324 0.950 . S
H317 C326 0.950 . S
H318 C328 0.950 . S
H319 C330 0.950 . S
H320 C332 0.950 . S
H321 C333 0.950 . S
C322 H314 0.950 . S
C322 C323 1.386 . S
C322 C324 1.391 . S
C323 C322 1.386 . S
C323 C327 1.393 . S
C324 H316 0.950 . S
C324 C322 1.391 . S
C324 C325 1.400 . S
C325 C324 1.400 . S
C325 C326 1.398 . S
C325 C331 1.491 . S
C326 H317 0.950 . S
C326 C325 1.398 . S
C326 C327 1.391 . S
C327 H315 0.950 . S
C327 C323 1.393 . S
C327 C326 1.391 . S
C328 H318 0.950 . S
C328 C329 1.386 . S
C328 C330 1.391 . S
C329 C328 1.386 . S
C329 C333 1.393 . S
C330 H319 0.950 . S
C330 C328 1.391 . S
C330 C331 1.400 . S
C331 C325 1.491 . S
C331 C330 1.400 . S
C331 C332 1.398 . S
C332 H320 0.950 . S
C332 C331 1.398 . S
C332 C333 1.391 . S
C333 H321 0.950 . S
C333 C329 1.393 . S
C333 C332 1.391 . S
C109 C65 1.487 . S
C103 C40 1.479 . S
C123 C4 1.484 . S
C129 C88 1.490 . S
C143 C16 1.514 . S
C149 C64 1.520 . S
C163 C28 1.518 . S
C169 C87 1.520 . S
C189 C68 1.476 . S
C183 C9 1.486 . S
C209 C90 1.505 . S
C203 C18 1.545 . S
C223 C33 1.520 . S
C229 C69 1.475 . S
C243 C45 1.530 . S
C249 C89 1.484 . S
C269 C92 1.400 . S
C263 C21 1.436 . S
C289 C67 1.442 . S
C283 C30 1.484 . S
C309 C91 1.394 . S
C303 C42 1.441 . S
C323 C6 1.463 . S
C329 C66 1.419 . S
