# Generated by pormake.
# Topology tsx, (6,3)-cn, num edge types: 1
# Building blocks:
#     Node 0, Type 0, BuildingBlock: VOLQOD_clean_sbu_1, # of connection points: 6
#     Node 1, Type 0, BuildingBlock: VOLQOD_clean_sbu_1, # of connection points: 6
#     Node 2, Type 1, BuildingBlock: VETTIZ_charged_linker_0, # of connection points: 3
#     Node 3, Type 1, BuildingBlock: VETTIZ_charged_linker_0, # of connection points: 3
#     Node 4, Type 1, BuildingBlock: VETTIZ_charged_linker_0, # of connection points: 3
#     Node 5, Type 1, BuildingBlock: VETTIZ_charged_linker_0, # of connection points: 3
#     Edge 6, Type (0, 1), BuildingBlock: EZIPEK_clean_linker_0, # of connection points: 2
#     Edge 7, Type (0, 1), BuildingBlock: EZIPEK_clean_linker_0, # of connection points: 2
#     Edge 8, Type (0, 1), BuildingBlock: EZIPEK_clean_linker_0, # of connection points: 2
#     Edge 9, Type (0, 1), BuildingBlock: EZIPEK_clean_linker_0, # of connection points: 2
#     Edge 10, Type (0, 1), BuildingBlock: EZIPEK_clean_linker_0, # of connection points: 2
#     Edge 11, Type (0, 1), BuildingBlock: EZIPEK_clean_linker_0, # of connection points: 2
#     Edge 12, Type (0, 1), BuildingBlock: EZIPEK_clean_linker_0, # of connection points: 2
#     Edge 13, Type (0, 1), BuildingBlock: EZIPEK_clean_linker_0, # of connection points: 2
#     Edge 14, Type (0, 1), BuildingBlock: EZIPEK_clean_linker_0, # of connection points: 2
#     Edge 15, Type (0, 1), BuildingBlock: EZIPEK_clean_linker_0, # of connection points: 2
#     Edge 16, Type (0, 1), BuildingBlock: EZIPEK_clean_linker_0, # of connection points: 2
#     Edge 17, Type (0, 1), BuildingBlock: EZIPEK_clean_linker_0, # of connection points: 2
# Relax obj value: 0.078
# Max RMSD: 0.110
# Mean RMSD: 0.085
data_MOF--net-tsx--node1-VOLQOD_clean_sbu_1--node2-VETTIZ_charged_linker_0--edge1-EZIPEK_clean_linker_0
_symmetry_space_group_name_H-M    P1
_symmetry_Int_Tables_number       1
_symmetry_cell_setting            triclinic
loop_
_symmetry_equiv_pos_as_xyz
'x, y, z'
_cell_length_a     19.302917
_cell_length_b     19.962647
_cell_length_c     39.75078
_cell_angle_alpha  90.406565
_cell_angle_beta   90.039034
_cell_angle_gamma 90.189891
loop_
_atom_site_label
_atom_site_type_symbol
_atom_site_fract_x
_atom_site_fract_y
_atom_site_fract_z
_atom_type_partial_charge
O0 O 0.06613 0.98986 0.06647 0.0
Zn1 Zn 0.0976 0.99539 0.01825 0.0
O2 O 0.01582 1.00017 -0.00995 0.0
Zn3 Zn 0.00397 0.91538 0.96675 0.0
Zn4 Zn 0.93315 0.0157 0.01628 0.0
Zn5 Zn 0.02772 0.07386 0.95905 0.0
O6 O 0.00123 0.93159 0.91734 0.0
O7 O 0.03891 0.03706 0.91233 0.0
O8 O 0.15979 0.91776 0.00397 0.0
O9 O 0.08587 0.85672 0.97383 0.0
O10 O 0.9199 0.86349 0.98142 0.0
O11 O 0.87481 0.93321 0.01913 0.0
O12 O 0.87167 0.08554 -0.00498 0.0
O13 O 0.15368 0.08029 0.01506 0.0
O14 O 0.94238 0.13064 0.95754 0.0
O15 O 0.10688 0.13462 0.97206 0.0
C16 C 0.01221 0.01401 0.08059 0.0
C17 C 0.02134 0.98076 0.8996 0.0
C18 C 0.87473 0.8774 0.00363 0.0
C19 C 0.14552 0.86529 -0.01322 0.0
C20 C 0.88345 0.12762 0.97176 0.0
C21 C 0.1517 0.13023 -0.0046 0.0
O22 O 0.96016 0.035 0.06396 0.0
O23 O 0.57531 0.5078 0.56671 0.0
Zn24 Zn 0.60196 0.51415 0.5178 0.0
O25 O 0.51693 0.51795 0.49203 0.0
Zn26 Zn 0.50292 0.43247 0.46968 0.0
Zn27 Zn 0.43708 0.53372 0.52017 0.0
Zn28 Zn 0.52529 0.59134 0.46067 0.0
O29 O 0.49808 0.44758 0.42021 0.0
O30 O 0.53285 0.55374 0.41393 0.0
O31 O 0.6629 0.43663 0.50166 0.0
O32 O 0.58423 0.37243 0.47653 0.0
O33 O 0.41815 0.38247 0.48523 0.0
O34 O 0.37899 0.45143 0.52478 0.0
O35 O 0.37231 0.60188 0.49956 0.0
O36 O 0.65642 0.60021 0.51361 0.0
O37 O 0.43951 0.64727 0.46082 0.0
O38 O 0.6042 0.6536 0.47182 0.0
C39 C 0.5232 0.5323 0.58225 0.0
C40 C 0.51571 0.49674 0.40186 0.0
C41 C 0.3758 0.39632 0.50874 0.0
C42 C 0.64603 0.38232 0.48658 0.0
C43 C 0.38153 0.64358 0.47585 0.0
C44 C 0.6512 0.65033 0.49418 0.0
O45 O 0.46959 0.55393 0.56701 0.0
C46 C 0.12031 0.85 0.4353 0.0
C47 C 0.15025 0.79332 0.41998 0.0
C48 C 0.127 0.77335 0.38773 0.0
C49 C 0.05786 0.87361 0.38382 0.0
C50 C 0.07232 0.8879 0.41709 0.0
C51 C 0.02911 0.94509 0.43002 0.0
H52 H 0.84633 0.22405 0.39341 0.0
C53 C 0.0147 0.92806 0.37054 0.0
C54 C 0.99588 0.96941 0.39771 0.0
H55 H 0.85745 0.12594 0.48966 0.0
H56 H 0.93349 0.04089 0.4655 0.0
H57 H 0.00323 0.18781 0.36373 0.0
H58 H 0.8017 0.09589 0.35849 0.0
H59 H 0.83998 0.08283 0.31905 0.0
H60 H 0.82414 0.16729 0.33356 0.0
H61 H 0.93353 0.22128 0.3392 0.0
H62 H 0.99171 0.15913 0.32222 0.0
C63 C 0.07703 0.99884 0.4456 0.0
C64 C 0.97477 0.91611 0.45467 0.0
C65 C 0.0084 0.96465 0.24433 0.0
C66 C 0.9844 0.01781 0.22472 0.0
C67 C 0.95231 0.07305 0.24016 0.0
C68 C 0.94443 0.07556 0.27512 0.0
C69 C 0.96916 0.02229 0.29469 0.0
C70 C 0.00057 0.96804 0.27927 0.0
C71 C 0.02492 0.91677 0.30411 0.0
C72 C 0.00268 0.9493 0.33707 0.0
C73 C 0.97032 0.01103 0.33128 0.0
C74 C 0.10463 0.91165 0.30085 0.0
C75 C 0.98616 0.84988 0.29731 0.0
C76 C 0.86588 0.18471 0.40945 0.0
C77 C 0.84735 0.18243 0.44362 0.0
C78 C 0.87229 0.12942 0.46348 0.0
C79 C 0.91465 0.07941 0.44935 0.0
C80 C 0.92882 0.08035 0.4147 0.0
C81 C 0.90351 0.13191 0.3953 0.0
C82 C 0.91376 0.11949 0.35833 0.0
C83 C 0.94837 0.05142 0.35872 0.0
C84 C 0.95941 0.02987 0.39178 0.0
C85 C 0.96268 0.17481 0.34484 0.0
C86 C 0.8415 0.11662 0.34117 0.0
H87 H 0.06791 0.79771 0.34445 0.0
H88 H 0.13473 0.86483 0.46061 0.0
H89 H 0.9665 0.8614 0.45075 0.0
H90 H 0.92291 0.93817 0.4508 0.0
H91 H 0.99117 0.92312 0.48119 0.0
H92 H 0.11832 0.01318 0.4275 0.0
H93 H 0.10249 0.97979 0.46865 0.0
H94 H 0.04855 0.04494 0.4521 0.0
H95 H 0.03301 0.92171 0.23263 0.0
H96 H 0.93351 0.11419 0.22509 0.0
H97 H 0.9197 0.11903 0.28551 0.0
H98 H 0.1289 0.96207 0.30337 0.0
H99 H 0.11926 0.89067 0.2759 0.0
H100 H 0.12867 0.87985 0.32003 0.0
H101 H 0.93624 0.85807 0.28396 0.0
H102 H 0.97155 0.82419 0.32088 0.0
H103 H 0.01775 0.81544 0.28154 0.0
H104 H 0.1473 0.72841 0.37595 0.0
C105 C 0.08162 0.8137 0.3694 0.0
C106 C 0.1208 0.18292 0.5505 0.0
C107 C 0.17323 0.22007 0.56653 0.0
C108 C 0.18307 0.21406 0.60141 0.0
C109 C 0.09224 0.13041 0.60362 0.0
C110 C 0.08107 0.13813 0.56955 0.0
C111 C 0.0261 0.09106 0.55648 0.0
H112 H 0.83274 0.81122 0.58262 0.0
C113 C 0.04771 0.0752 0.6153 0.0
C114 C 0.009 0.05122 0.5878 0.0
H115 H 0.83512 0.93349 0.49371 0.0
H116 H 0.91298 0.01286 0.52144 0.0
H117 H 0.99591 0.82478 0.60341 0.0
H118 H 0.81031 0.92986 0.63058 0.0
H119 H 0.86273 0.93339 0.66654 0.0
H120 H 0.83406 0.85306 0.65054 0.0
H121 H 0.92763 0.78938 0.62835 0.0
H122 H 0.99713 0.83688 0.64733 0.0
C123 C 0.05893 0.04696 0.52887 0.0
C124 C 0.96412 0.1334 0.54439 0.0
C125 C 0.05351 0.00854 0.73773 0.0
C126 C 0.01992 0.95766 0.75553 0.0
C127 C 0.982 0.90812 0.73814 0.0
C128 C 0.97428 0.91157 0.70321 0.0
C129 C 0.00513 0.96492 0.68576 0.0
C130 C 0.04558 0.01112 0.70289 0.0
C131 C 0.07597 0.06312 0.68011 0.0
C132 C 0.04303 0.04321 0.64687 0.0
C133 C 0.00177 0.98584 0.65036 0.0
C134 C 0.1559 0.05421 0.67981 0.0
C135 C 0.05119 0.13303 0.69219 0.0
C136 C 0.85123 0.8546 0.56901 0.0
C137 C 0.83038 0.86561 0.5358 0.0
C138 C 0.85284 0.92357 0.51903 0.0
C139 C 0.89772 0.96926 0.53509 0.0
C140 C 0.92032 0.95644 0.56805 0.0
C141 C 0.89544 0.90071 0.58468 0.0
C142 C 0.91858 0.89839 0.62065 0.0
C143 C 0.96336 0.96074 0.62265 0.0
C144 C 0.96547 0.99408 0.59167 0.0
C145 C 0.96178 0.83389 0.62552 0.0
C146 C 0.85344 0.90347 0.64345 0.0
H147 H 0.15326 0.1665 0.6465 0.0
H148 H 0.11267 0.18724 0.52364 0.0
H149 H 0.95815 0.17956 0.55996 0.0
H150 H 0.91411 0.10685 0.54682 0.0
H151 H 0.97179 0.14916 0.51794 0.0
H152 H 0.10736 0.02341 0.53821 0.0
H153 H 0.07238 0.07783 0.50674 0.0
H154 H 0.02498 0.00587 0.5205 0.0
H155 H 0.08339 0.04665 0.75084 0.0
H156 H 0.95629 0.86841 0.75181 0.0
H157 H 0.94341 0.87345 0.6913 0.0
H158 H 0.17136 0.00289 0.68753 0.0
H159 H 0.18165 0.09003 0.69733 0.0
H160 H 0.17829 0.06006 0.65437 0.0
H161 H 0.99555 0.1313 0.69944 0.0
H162 H 0.05479 0.1716 0.6725 0.0
H163 H 0.0812 0.1503 0.71449 0.0
H164 H 0.22336 0.24271 0.61399 0.0
C165 C 0.1427 0.16954 0.62008 0.0
C166 C 0.6373 0.34745 0.93105 0.0
C167 C 0.65887 0.28661 0.91647 0.0
C168 C 0.62715 0.26442 0.88635 0.0
C169 C 0.56483 0.36877 0.88259 0.0
C170 C 0.58758 0.38596 0.91439 0.0
C171 C 0.55084 0.4468 0.92773 0.0
H172 H 0.37408 0.72639 0.90118 0.0
C173 C 0.51993 0.42262 0.87035 0.0
C174 C 0.50431 0.46379 0.89803 0.0
H175 H 0.33092 0.59501 0.9843 0.0
H176 H 0.39823 0.50689 0.95662 0.0
H177 H 0.53657 0.67622 0.87492 0.0
H178 H 0.32567 0.61367 0.85707 0.0
H179 H 0.36967 0.6047 0.81897 0.0
H180 H 0.36131 0.68698 0.83762 0.0
H181 H 0.47516 0.72613 0.8523 0.0
H182 H 0.52542 0.66219 0.83145 0.0
C183 C 0.60357 0.50338 0.93479 0.0
C184 C 0.51053 0.42782 0.95949 0.0
C185 C 0.52641 0.47355 0.74521 0.0
C186 C 0.50986 0.53116 0.72697 0.0
C187 C 0.48612 0.58867 0.74387 0.0
C188 C 0.47758 0.58843 0.7788 0.0
C189 C 0.49259 0.52989 0.79681 0.0
C190 C 0.51801 0.47412 0.78017 0.0
C191 C 0.53241 0.41688 0.8036 0.0
C192 C 0.51136 0.44778 0.83721 0.0
C193 C 0.48718 0.5136 0.83275 0.0
C194 C 0.61046 0.40015 0.80153 0.0
C195 C 0.48517 0.35735 0.79366 0.0
C196 C 0.38449 0.68099 0.91507 0.0
C197 C 0.35145 0.66926 0.94603 0.0
C198 C 0.35989 0.60671 0.96175 0.0
C199 C 0.40104 0.55685 0.94677 0.0
C200 C 0.43619 0.57075 0.91675 0.0
C201 C 0.42309 0.62975 0.90004 0.0
C202 C 0.43911 0.62368 0.86297 0.0
C203 C 0.46495 0.55197 0.86085 0.0
C204 C 0.46811 0.52413 0.89286 0.0
C205 C 0.49679 0.67488 0.85464 0.0
C206 C 0.37091 0.63322 0.84284 0.0
H207 H 0.55757 0.28693 0.84637 0.0
H208 H 0.65848 0.36433 0.9549 0.0
H209 H 0.54235 0.39696 0.97672 0.0
H210 H 0.46281 0.39906 0.95316 0.0
H211 H 0.49727 0.47358 0.9736 0.0
H212 H 0.63346 0.51548 0.91169 0.0
H213 H 0.64074 0.48848 0.95471 0.0
H214 H 0.57672 0.54961 0.94332 0.0
H215 H 0.54448 0.42888 0.73236 0.0
H216 H 0.47339 0.63339 0.7299 0.0
H217 H 0.4592 0.63368 0.79034 0.0
H218 H 0.64206 0.44101 0.813 0.0
H219 H 0.62725 0.39381 0.77498 0.0
H220 H 0.62363 0.35279 0.81392 0.0
H221 H 0.43242 0.37504 0.78684 0.0
H222 H 0.47759 0.32195 0.81453 0.0
H223 H 0.50671 0.32977 0.77168 0.0
H224 H 0.64078 0.21635 0.87544 0.0
C225 C 0.58025 0.30546 0.86927 0.0
C226 C 0.62756 0.65604 0.04602 0.0
C227 C 0.67462 0.6998 0.06177 0.0
C228 C 0.67837 0.70248 0.09707 0.0
C229 C 0.59131 0.6154 0.1007 0.0
C230 C 0.5864 0.61433 0.06602 0.0
C231 C 0.53499 0.56305 0.05367 0.0
H232 H 0.32882 0.29682 0.08737 0.0
C233 C 0.54529 0.56265 0.11385 0.0
C234 C 0.51147 0.53216 0.08649 0.0
H235 H 0.35402 0.39734 -0.0076 0.0
H236 H 0.43019 0.47951 0.01911 0.0
H237 H 0.48946 0.30979 0.11334 0.0
H238 H 0.3057 0.42722 0.12841 0.0
H239 H 0.35156 0.4314 0.16644 0.0
H240 H 0.32072 0.35133 0.15112 0.0
H241 H 0.41752 0.28235 0.13836 0.0
H242 H 0.48651 0.3324 0.15614 0.0
C243 C 0.57416 0.51157 0.03174 0.0
C244 C 0.47553 0.59995 0.03535 0.0
C245 C 0.53955 0.51733 0.23893 0.0
C246 C 0.50538 0.46889 0.25812 0.0
C247 C 0.46627 0.41834 0.24217 0.0
C248 C 0.45941 0.41735 0.20715 0.0
C249 C 0.49233 0.46729 0.18813 0.0
C250 C 0.5325 0.51547 0.20401 0.0
C251 C 0.56509 0.56338 0.17973 0.0
C252 C 0.53548 0.53768 0.14676 0.0
C253 C 0.49296 0.48157 0.15187 0.0
C254 C 0.64487 0.55467 0.18172 0.0
C255 C 0.53915 0.63495 0.18816 0.0
C256 C 0.35191 0.33596 0.07226 0.0
C257 C 0.33728 0.34031 0.03781 0.0
C258 C 0.36612 0.39277 0.01889 0.0
C259 C 0.41004 0.44006 0.03428 0.0
C260 C 0.42527 0.43453 0.06869 0.0
C261 C 0.3954 0.38374 0.08718 0.0
C262 C 0.41277 0.3888 0.12392 0.0
C263 C 0.45871 0.45058 0.12432 0.0
C264 C 0.46686 0.47651 0.09187 0.0
C265 C 0.45331 0.32501 0.13379 0.0
C266 C 0.34447 0.39981 0.14376 0.0
H267 H 0.64245 0.66441 0.14345 0.0
H268 H 0.62409 0.65346 0.01884 0.0
H269 H 0.42401 0.57807 0.04081 0.0
H270 H 0.48409 0.60049 0.00774 0.0
H271 H 0.47135 0.65291 0.04398 0.0
H272 H 0.62353 0.49664 0.04401 0.0
H273 H 0.58712 0.53314 0.00689 0.0
H274 H 0.54453 0.46482 0.02809 0.0
H275 H 0.57013 0.55635 0.25094 0.0
H276 H 0.4399 0.38067 0.25695 0.0
H277 H 0.42818 0.37824 0.19632 0.0
H278 H 0.65902 0.50274 0.18898 0.0
H279 H 0.66803 0.58922 0.20068 0.0
H280 H 0.67082 0.56218 0.15726 0.0
H281 H 0.48359 0.63397 0.19561 0.0
H282 H 0.54158 0.66912 0.16646 0.0
H283 H 0.56898 0.65729 0.20937 0.0
H284 H 0.71459 0.73623 0.1094 0.0
C285 C 0.63677 0.66063 0.11667 0.0
C286 C 0.2668 0.18767 -0.00935 0.0
C287 C 0.19756 0.18792 0.00248 0.0
C288 C 0.21708 0.29609 0.03039 0.0
C289 C 0.28848 0.29145 0.0224 0.0
N290 N 0.38349 0.23193 -0.00327 0.0
N291 N 0.10701 0.23849 0.03579 0.0
C292 C 0.31396 0.23733 0.00268 0.0
C293 C 0.17253 0.24137 0.02274 0.0
N294 N 0.28702 0.14033 0.96769 0.0
N295 N 0.19184 0.35344 0.0448 0.0
H296 H 0.07205 0.20007 0.03011 0.0
H297 H 0.08874 0.27161 0.05406 0.0
H298 H 0.22317 0.39464 0.0506 0.0
H299 H 0.13927 0.36272 0.04822 0.0
H300 H 0.33466 0.14115 0.95545 0.0
H301 H 0.25372 0.10288 0.95882 0.0
H302 H 0.40638 0.18996 0.98581 0.0
H303 H 0.41937 0.26793 0.00463 0.0
C304 C 0.2498 0.79281 0.00127 0.0
C305 C 0.20069 0.81648 0.97747 0.0
C306 C 0.24252 0.73403 0.93665 0.0
C307 C 0.29823 0.71759 0.95822 0.0
N308 N 0.3621 0.741 0.00917 0.0
N309 N 0.1687 0.82329 0.91851 0.0
C310 C 0.30407 0.74973 -0.00991 0.0
C311 C 0.20232 0.7911 0.94396 0.0
N312 N 0.24336 0.8088 0.03457 0.0
N313 N 0.22655 0.69432 0.90959 0.0
H314 H 0.14396 0.86917 0.9218 0.0
H315 H 0.17345 0.80884 0.89335 0.0
H316 H 0.25195 0.64932 0.90456 0.0
H317 H 0.18278 0.70213 0.89475 0.0
H318 H 0.27429 0.78771 0.05317 0.0
H319 H 0.20278 0.83759 0.04403 0.0
H320 H 0.37177 0.76805 0.0312 0.0
H321 H 0.4035 0.71152 0.00118 0.0
C322 C 0.75124 0.84238 0.01065 0.0
C323 C 0.82268 0.82672 0.01332 0.0
C324 C 0.79354 0.71975 0.03954 0.0
C325 C 0.72351 0.74034 0.04169 0.0
N326 N 0.63475 0.82223 0.03117 0.0
N327 N 0.91314 0.75412 0.0339 0.0
C328 C 0.70182 0.80169 0.02746 0.0
C329 C 0.84433 0.76591 0.02831 0.0
N330 N 0.73081 0.89543 -0.00848 0.0
N331 N 0.81131 0.65586 0.04812 0.0
H332 H 0.95241 0.78691 0.02666 0.0
H333 H 0.93116 0.71444 0.04831 0.0
H334 H 0.77523 0.62077 0.05659 0.0
H335 H 0.86026 0.63577 0.04383 0.0
H336 H 0.67924 0.9058 0.98597 0.0
H337 H 0.76586 0.9256 0.97853 0.0
H338 H 0.61764 0.86991 0.02483 0.0
H339 H 0.59681 0.79295 0.04267 0.0
C340 C 0.77463 0.19707 0.98004 0.0
C341 C 0.82587 0.16941 0.95835 0.0
C342 C 0.77414 0.2296 0.91129 0.0
C343 C 0.71661 0.24744 0.93156 0.0
N344 N 0.65559 0.23368 0.98422 0.0
N345 N 0.85759 0.14323 0.90055 0.0
C346 C 0.7148 0.22704 0.96573 0.0
C347 C 0.82106 0.18103 0.92313 0.0
N348 N 0.78393 0.19756 0.0141 0.0
N349 N 0.78548 0.26003 0.88111 0.0
H350 H 0.88696 0.10184 0.90736 0.0
H351 H 0.85084 0.14744 0.87461 0.0
H352 H 0.75488 0.29914 0.87229 0.0
H353 H 0.83013 0.25168 0.86693 0.0
H354 H 0.75032 0.22223 0.03051 0.0
H355 H 0.82906 0.1806 0.02559 0.0
H356 H 0.65039 0.21411 0.00834 0.0
H357 H 0.60953 0.25203 0.9742 0.0
C358 C 0.76649 0.70809 0.49094 0.0
C359 C 0.69575 0.70948 0.50046 0.0
C360 C 0.71115 0.8216 0.52501 0.0
C361 C 0.7834 0.81635 0.51944 0.0
N362 N 0.88173 0.75551 0.49805 0.0
N363 N 0.60057 0.76427 0.52869 0.0
C364 C 0.8116 0.76009 0.50232 0.0
C365 C 0.66773 0.76575 0.51771 0.0
N366 N 0.78998 0.65753 0.4706 0.0
N367 N 0.68423 0.88018 0.53724 0.0
H368 H 0.56669 0.72467 0.52359 0.0
H369 H 0.57948 0.79997 0.54488 0.0
H370 H 0.71491 0.92166 0.54333 0.0
H371 H 0.63137 0.8899 0.53868 0.0
H372 H 0.83927 0.65658 0.46003 0.0
H373 H 0.75808 0.61862 0.46211 0.0
H374 H 0.90668 0.71266 0.48932 0.0
H375 H 0.91584 0.79394 0.50486 0.0
C376 C 0.75611 0.31526 0.49815 0.0
C377 C 0.69961 0.33188 0.47674 0.0
C378 C 0.73267 0.24015 0.4391 0.0
C379 C 0.79551 0.23137 0.45693 0.0
N380 N 0.87321 0.2721 0.50026 0.0
N381 N 0.65228 0.32307 0.42018 0.0
C382 C 0.80919 0.27215 0.48567 0.0
C383 C 0.69295 0.29808 0.44526 0.0
N384 N 0.75823 0.33793 0.53061 0.0
N385 N 0.70989 0.19285 0.41666 0.0
H386 H 0.62852 0.36978 0.42165 0.0
H387 H 0.65048 0.30165 0.39617 0.0
H388 H 0.73514 0.14726 0.41297 0.0
H389 H 0.66163 0.19586 0.40493 0.0
H390 H 0.79559 0.32224 0.54776 0.0
H391 H 0.71863 0.36603 0.54147 0.0
H392 H 0.8872 0.30528 0.51948 0.0
H393 H 0.91432 0.24403 0.49078 0.0
C394 C 0.25166 0.36652 0.51881 0.0
C395 C 0.32235 0.34705 0.51863 0.0
C396 C 0.29029 0.23785 0.54157 0.0
C397 C 0.22199 0.26155 0.54682 0.0
N398 N 0.13739 0.34965 0.54266 0.0
N399 N 0.41078 0.26715 0.5338 0.0
C400 C 0.20229 0.32607 0.53578 0.0
C401 C 0.34224 0.28313 0.53066 0.0
N402 N 0.23167 0.42288 0.5021 0.0
N403 N 0.30528 0.17185 0.54682 0.0
H404 H 0.45096 0.29919 0.52689 0.0
H405 H 0.42806 0.22438 0.54605 0.0
H406 H 0.26829 0.13722 0.55482 0.0
H407 H 0.35236 0.15018 0.54013 0.0
H408 H 0.1801 0.43634 0.49863 0.0
H409 H 0.26643 0.45286 0.48882 0.0
H410 H 0.1226 0.3991 0.53875 0.0
H411 H 0.09946 0.32089 0.55449 0.0
C412 C 0.31879 0.69893 0.42776 0.0
C413 C 0.32213 0.68362 0.46267 0.0
C414 C 0.20668 0.73335 0.46931 0.0
C415 C 0.20979 0.75784 0.43585 0.0
N416 N 0.28342 0.78263 0.38819 0.0
N417 N 0.27441 0.70436 0.51821 0.0
C418 C 0.27057 0.74682 0.41667 0.0
C419 C 0.26758 0.70608 0.48405 0.0
N420 N 0.35754 0.665 0.40452 0.0
N421 N 0.14564 0.73344 0.48663 0.0
H422 H 0.32011 0.69036 0.53016 0.0
H423 H 0.23767 0.72499 0.53444 0.0
H424 H 0.09909 0.74933 0.47609 0.0
H425 H 0.14018 0.71085 0.51005 0.0
H426 H 0.35216 0.67274 0.37872 0.0
H427 H 0.38675 0.62285 0.41023 0.0
H428 H 0.32989 0.77846 0.37495 0.0
H429 H 0.25189 0.82188 0.38033 0.0
C430 C 0.95785 0.97096 0.13299 0.0
C431 C 0.00736 0.01341 0.11751 0.0
C432 C 0.04709 0.05286 0.17265 0.0
C433 C 0.99286 0.0157 0.18783 0.0
N434 N 0.89068 0.94642 0.18288 0.0
N435 N 0.09329 0.1011 0.1215 0.0
C436 C 0.94654 0.9766 0.16812 0.0
C437 C 0.05072 0.05597 0.13702 0.0
N438 N 0.9235 0.92359 0.11426 0.0
N439 N 0.09596 0.08379 0.19231 0.0
H440 H 0.09746 0.10462 0.0954 0.0
H441 H 0.12042 0.13854 0.13431 0.0
H442 H 0.09453 0.0831 0.21854 0.0
H443 H 0.14086 0.10555 0.18277 0.0
H444 H 0.89229 0.88652 0.12469 0.0
H445 H 0.931 0.91732 0.08845 0.0
H446 H 0.85082 0.92361 0.16931 0.0
H447 H 0.88114 0.94868 0.20869 0.0
C448 C 0.95748 0.97842 0.84531 0.0
C449 C 0.02104 0.9731 0.8629 0.0
C450 C 0.08188 0.9476 0.81051 0.0
C451 C 0.01976 0.95999 0.7926 0.0
N452 N 0.90169 1.00002 0.79206 0.0
N453 N 0.14546 0.96199 0.86266 0.0
C454 C 0.95824 0.97869 0.80973 0.0
C455 C 0.0839 0.96047 0.84563 0.0
N456 N 0.89637 0.98283 0.86257 0.0
N457 N 0.13813 0.92191 0.79407 0.0
H458 H 0.14874 0.97059 0.88852 0.0
H459 H 0.19354 0.95995 0.85086 0.0
H460 H 0.1381 0.91147 0.76831 0.0
H461 H 0.18258 0.90548 0.80632 0.0
H462 H 0.84802 0.97938 0.85102 0.0
H463 H 0.89364 0.98456 0.88876 0.0
H464 H 0.85838 0.02142 0.8034 0.0
H465 H 0.90025 0.00223 0.76587 0.0
C466 C 0.56986 0.56961 0.63815 0.0
C467 C 0.52201 0.53057 0.61926 0.0
C468 C 0.4638 0.49559 0.67088 0.0
C469 C 0.51471 0.53048 0.68989 0.0
N470 N 0.6228 0.59123 0.6925 0.0
N471 N 0.43316 0.44515 0.61737 0.0
C472 C 0.5698 0.56479 0.67378 0.0
C473 C 0.47164 0.49032 0.63554 0.0
N474 N 0.6134 0.61313 0.62214 0.0
N475 N 0.40681 0.46929 0.68647 0.0
H476 H 0.43836 0.4387 0.59143 0.0
H477 H 0.40092 0.40955 0.62835 0.0
H478 H 0.39912 0.47193 0.71241 0.0
H479 H 0.36431 0.44993 0.67345 0.0
H480 H 0.64414 0.64818 0.63473 0.0
H481 H 0.61482 0.61806 0.59603 0.0
H482 H 0.668 0.6106 0.68204 0.0
H483 H 0.62423 0.58884 0.71871 0.0
C484 C 0.57428 0.47154 0.34742 0.0
C485 C 0.51312 0.48807 0.36526 0.0
C486 C 0.44802 0.49545 0.31281 0.0
C487 C 0.50765 0.47352 0.29511 0.0
N488 N 0.62405 0.42996 0.29536 0.0
N489 N 0.38922 0.50383 0.36639 0.0
C490 C 0.56996 0.45848 0.31236 0.0
C491 C 0.44909 0.49627 0.3484 0.0
N492 N 0.63645 0.4694 0.36389 0.0
N493 N 0.3915 0.51827 0.29561 0.0
H494 H 0.388 0.50551 0.39261 0.0
H495 H 0.34015 0.50283 0.35548 0.0
H496 H 0.38876 0.51917 0.26941 0.0
H497 H 0.34973 0.54187 0.30721 0.0
H498 H 0.68388 0.46455 0.35168 0.0
H499 H 0.64119 0.47742 0.38975 0.0
H500 H 0.66819 0.41155 0.30713 0.0
H501 H 0.62242 0.41945 0.26963 0.0
loop_
_geom_bond_atom_site_label_1
_geom_bond_atom_site_label_2
_geom_bond_distance
_geom_bond_site_symmetry_2
_ccdc_geom_bond_type
O0 Zn1 1.953 . S
O0 C16 1.225 1_565 S
Zn1 O0 1.953 . S
Zn1 O2 1.949 1_565 S
Zn1 O8 1.919 . S
Zn1 O13 1.924 1_565 S
O2 Zn1 1.949 1_545 S
O2 Zn3 1.923 1_444 S
O2 Zn4 1.950 1_455 S
O2 Zn5 1.945 1_554 S
Zn3 O2 1.923 1_666 S
Zn3 O6 1.933 . S
Zn3 O9 1.941 1_655 S
Zn3 O10 1.965 . S
Zn4 O2 1.950 1_655 S
Zn4 O11 1.938 1_545 S
Zn4 O12 1.906 . S
Zn4 O22 1.953 . S
Zn5 O2 1.945 1_556 S
Zn5 O7 1.932 . S
Zn5 O14 1.977 1_455 S
Zn5 O15 1.910 . S
O6 Zn3 1.933 . S
O6 C17 1.226 1_665 S
O7 Zn5 1.932 . S
O7 C17 1.307 . S
O8 Zn1 1.919 . S
O8 C19 1.253 1_554 S
O9 Zn3 1.941 1_455 S
O9 C19 1.283 . S
O10 Zn3 1.965 . S
O10 C18 1.303 1_556 S
O11 Zn4 1.938 1_565 S
O11 C18 1.247 . S
O12 Zn4 1.906 . S
O12 C20 1.304 1_554 S
O13 Zn1 1.924 1_545 S
O13 C21 1.311 . S
O14 Zn5 1.977 1_655 S
O14 C20 1.272 . S
O15 Zn5 1.910 . S
O15 C21 1.231 1_556 S
C16 O0 1.225 1_545 S
C16 O22 1.298 1_455 S
C17 O6 1.226 1_445 S
C17 O7 1.307 . S
C18 O10 1.303 1_554 S
C18 O11 1.247 . S
C19 O8 1.253 1_556 S
C19 O9 1.283 . S
C20 O12 1.304 1_556 S
C20 O14 1.272 . S
C21 O13 1.311 . S
C21 O15 1.231 1_554 S
O22 Zn4 1.953 . S
O22 C16 1.298 1_655 S
O23 Zn24 1.953 . S
O23 C39 1.225 . S
Zn24 O23 1.953 . S
Zn24 O25 1.949 . S
Zn24 O31 1.919 . S
Zn24 O36 1.924 . S
O25 Zn24 1.949 . S
O25 Zn26 1.923 . S
O25 Zn27 1.950 . S
O25 Zn28 1.945 . S
Zn26 O25 1.923 . S
Zn26 O29 1.933 . S
Zn26 O32 1.941 . S
Zn26 O33 1.965 . S
Zn27 O25 1.950 . S
Zn27 O34 1.938 . S
Zn27 O35 1.906 . S
Zn27 O45 1.953 . S
Zn28 O25 1.945 . S
Zn28 O30 1.932 . S
Zn28 O37 1.977 . S
Zn28 O38 1.910 . S
O29 Zn26 1.933 . S
O29 C40 1.226 . S
O30 Zn28 1.932 . S
O30 C40 1.307 . S
O31 Zn24 1.919 . S
O31 C42 1.253 . S
O32 Zn26 1.941 . S
O32 C42 1.283 . S
O33 Zn26 1.965 . S
O33 C41 1.303 . S
O34 Zn27 1.938 . S
O34 C41 1.247 . S
O35 Zn27 1.906 . S
O35 C43 1.304 . S
O36 Zn24 1.924 . S
O36 C44 1.311 . S
O37 Zn28 1.977 . S
O37 C43 1.272 . S
O38 Zn28 1.910 . S
O38 C44 1.231 . S
C39 O23 1.225 . S
C39 O45 1.298 . S
C40 O29 1.226 . S
C40 O30 1.307 . S
C41 O33 1.303 . S
C41 O34 1.247 . S
C42 O31 1.253 . S
C42 O32 1.283 . S
C43 O35 1.304 . S
C43 O37 1.272 . S
C44 O36 1.311 . S
C44 O38 1.231 . S
O45 Zn27 1.953 . S
O45 C39 1.298 . S
C46 C47 1.391 . S
C46 C50 1.391 . S
C46 H88 0.948 . S
C47 C46 1.391 . S
C47 C48 1.391 . S
C48 C47 1.391 . S
C48 H104 0.947 . S
C48 C105 1.392 . S
C49 C50 1.391 . S
C49 C53 1.397 . S
C49 C105 1.419 . S
C50 C46 1.391 . S
C50 C49 1.391 . S
C50 C51 1.399 . S
C51 C50 1.399 . S
C51 C54 1.396 . S
C51 C63 1.453 1_565 S
C51 C64 1.684 1_455 S
H52 C76 0.948 . S
C53 C49 1.397 . S
C53 C54 1.394 . S
C53 C72 1.723 . S
C54 C51 1.396 . S
C54 C53 1.394 . S
C54 C84 1.723 1_465 S
H55 C78 0.947 . S
H56 C79 0.948 . S
H57 C85 0.982 . S
H58 C86 0.979 . S
H59 C86 0.980 . S
H60 C86 0.983 . S
H61 C85 0.979 . S
H62 C85 0.977 . S
C63 C51 1.453 1_545 S
C63 H92 0.982 . S
C63 H93 0.979 1_545 S
C63 H94 0.977 . S
C64 C51 1.684 1_655 S
C64 H89 0.979 . S
C64 H90 0.980 . S
C64 H91 0.983 1_655 S
C65 C66 1.391 1_465 S
C65 C70 1.391 . S
C65 H95 0.948 . S
C66 C65 1.391 1_645 S
C66 C67 1.391 . S
C67 C66 1.391 . S
C67 C68 1.392 . S
C67 H96 0.947 . S
C68 C67 1.392 . S
C68 C69 1.419 . S
C68 H97 0.948 . S
C69 C68 1.419 . S
C69 C70 1.391 1_645 S
C69 C73 1.397 . S
C70 C65 1.391 . S
C70 C69 1.391 1_465 S
C70 C71 1.399 . S
C71 C70 1.399 . S
C71 C72 1.396 . S
C71 C74 1.453 . S
C71 C75 1.684 . S
C72 C53 1.723 . S
C72 C71 1.396 . S
C72 C73 1.394 1_465 S
C73 C69 1.397 . S
C73 C72 1.394 1_645 S
C73 C83 1.723 . S
C74 C71 1.453 . S
C74 H98 0.982 . S
C74 H99 0.979 . S
C74 H100 0.977 . S
C75 C71 1.684 . S
C75 H101 0.979 . S
C75 H102 0.980 . S
C75 H103 0.983 . S
C76 H52 0.948 . S
C76 C77 1.391 . S
C76 C81 1.391 . S
C77 C76 1.391 . S
C77 C78 1.391 . S
C78 H55 0.947 . S
C78 C77 1.391 . S
C78 C79 1.392 . S
C79 H56 0.948 . S
C79 C78 1.392 . S
C79 C80 1.419 . S
C80 C79 1.419 . S
C80 C81 1.391 . S
C80 C84 1.397 . S
C81 C76 1.391 . S
C81 C80 1.391 . S
C81 C82 1.399 . S
C82 C81 1.399 . S
C82 C83 1.396 . S
C82 C85 1.453 . S
C82 C86 1.684 . S
C83 C73 1.723 . S
C83 C82 1.396 . S
C83 C84 1.394 . S
C84 C54 1.723 1_645 S
C84 C80 1.397 . S
C84 C83 1.394 . S
C85 H57 0.982 . S
C85 H61 0.979 . S
C85 H62 0.977 . S
C85 C82 1.453 . S
C86 H58 0.979 . S
C86 H59 0.980 . S
C86 H60 0.983 . S
C86 C82 1.684 . S
H87 C105 0.948 . S
H88 C46 0.948 . S
H89 C64 0.979 . S
H90 C64 0.980 . S
H91 C64 0.983 1_455 S
H92 C63 0.982 . S
H93 C63 0.979 1_565 S
H94 C63 0.977 . S
H95 C65 0.948 . S
H96 C67 0.947 . S
H97 C68 0.948 . S
H98 C74 0.982 . S
H99 C74 0.979 . S
H100 C74 0.977 . S
H101 C75 0.979 . S
H102 C75 0.980 . S
H103 C75 0.983 . S
H104 C48 0.947 . S
C105 C48 1.392 . S
C105 C49 1.419 . S
C105 H87 0.948 . S
C106 C107 1.391 . S
C106 C110 1.391 . S
C106 H148 0.948 . S
C107 C106 1.391 . S
C107 C108 1.391 . S
C108 C107 1.391 . S
C108 H164 0.947 . S
C108 C165 1.392 . S
C109 C110 1.391 . S
C109 C113 1.397 . S
C109 C165 1.419 . S
C110 C106 1.391 . S
C110 C109 1.391 . S
C110 C111 1.399 . S
C111 C110 1.399 . S
C111 C114 1.396 . S
C111 C123 1.453 1_545 S
C111 C124 1.684 1_455 S
H112 C136 0.948 . S
C113 C109 1.397 . S
C113 C114 1.394 . S
C113 C132 1.723 . S
C114 C111 1.396 . S
C114 C113 1.394 . S
C114 C144 1.723 1_445 S
H115 C138 0.947 . S
H116 C139 0.948 . S
H117 C145 0.982 . S
H118 C146 0.979 . S
H119 C146 0.980 . S
H120 C146 0.983 . S
H121 C145 0.979 . S
H122 C145 0.977 . S
C123 C111 1.453 1_565 S
C123 H152 0.982 . S
C123 H153 0.979 1_565 S
C123 H154 0.977 . S
C124 C111 1.684 1_655 S
C124 H149 0.979 . S
C124 H150 0.980 . S
C124 H151 0.983 1_655 S
C125 C126 1.392 . S
C125 C130 1.391 . S
C125 H155 0.948 . S
C126 C125 1.392 . S
C126 C127 1.390 1_445 S
C127 C126 1.390 1_665 S
C127 C128 1.392 . S
C127 H156 0.947 . S
C128 C127 1.392 . S
C128 C129 1.419 . S
C128 H157 0.948 . S
C129 C128 1.419 . S
C129 C130 1.391 1_665 S
C129 C133 1.397 1_655 S
C130 C125 1.391 . S
C130 C129 1.391 1_445 S
C130 C131 1.399 . S
C131 C130 1.399 . S
C131 C132 1.396 . S
C131 C134 1.453 . S
C131 C135 1.684 . S
C132 C113 1.723 . S
C132 C131 1.396 . S
C132 C133 1.394 1_545 S
C133 C129 1.397 1_455 S
C133 C132 1.394 1_565 S
C133 C143 1.723 1_455 S
C134 C131 1.453 . S
C134 H158 0.982 . S
C134 H159 0.979 . S
C134 H160 0.977 . S
C135 C131 1.684 . S
C135 H161 0.979 . S
C135 H162 0.980 . S
C135 H163 0.983 . S
C136 H112 0.948 . S
C136 C137 1.391 . S
C136 C141 1.391 . S
C137 C136 1.391 . S
C137 C138 1.391 . S
C138 H115 0.947 . S
C138 C137 1.391 . S
C138 C139 1.392 . S
C139 H116 0.948 . S
C139 C138 1.392 . S
C139 C140 1.419 . S
C140 C139 1.419 . S
C140 C141 1.391 . S
C140 C144 1.397 . S
C141 C136 1.391 . S
C141 C140 1.391 . S
C141 C142 1.399 . S
C142 C141 1.399 . S
C142 C143 1.396 . S
C142 C145 1.453 . S
C142 C146 1.684 . S
C143 C133 1.723 1_655 S
C143 C142 1.396 . S
C143 C144 1.394 . S
C144 C114 1.723 1_665 S
C144 C140 1.397 . S
C144 C143 1.394 . S
C145 H117 0.982 . S
C145 H121 0.979 . S
C145 H122 0.977 . S
C145 C142 1.453 . S
C146 H118 0.979 . S
C146 H119 0.980 . S
C146 H120 0.983 . S
C146 C142 1.684 . S
H147 C165 0.948 . S
H148 C106 0.948 . S
H149 C124 0.979 . S
H150 C124 0.980 . S
H151 C124 0.983 1_455 S
H152 C123 0.982 . S
H153 C123 0.979 1_545 S
H154 C123 0.977 . S
H155 C125 0.948 . S
H156 C127 0.947 . S
H157 C128 0.948 . S
H158 C134 0.982 . S
H159 C134 0.979 . S
H160 C134 0.977 . S
H161 C135 0.979 . S
H162 C135 0.980 . S
H163 C135 0.983 . S
H164 C108 0.947 . S
C165 C108 1.392 . S
C165 C109 1.419 . S
C165 H147 0.948 . S
C166 C167 1.391 . S
C166 C170 1.391 . S
C166 H208 0.948 . S
C167 C166 1.391 . S
C167 C168 1.391 . S
C168 C167 1.391 . S
C168 H224 0.947 . S
C168 C225 1.392 . S
C169 C170 1.391 . S
C169 C173 1.397 . S
C169 C225 1.419 . S
C170 C166 1.391 . S
C170 C169 1.391 . S
C170 C171 1.399 . S
C171 C170 1.399 . S
C171 C174 1.396 . S
C171 C183 1.453 . S
C171 C184 1.684 . S
H172 C196 0.948 . S
C173 C169 1.397 . S
C173 C174 1.394 . S
C173 C192 1.723 . S
C174 C171 1.396 . S
C174 C173 1.394 . S
C174 C204 1.723 . S
H175 C198 0.947 1_554 S
H176 C199 0.948 . S
H177 C205 0.982 . S
H178 C206 0.979 . S
H179 C206 0.980 . S
H180 C206 0.983 . S
H181 C205 0.979 . S
H182 C205 0.977 . S
C183 C171 1.453 . S
C183 H212 0.982 . S
C183 H213 0.979 1_556 S
C183 H214 0.977 . S
C184 C171 1.684 . S
C184 H209 0.979 . S
C184 H210 0.980 . S
C184 H211 0.983 1_556 S
C185 C186 1.391 . S
C185 C190 1.391 . S
C185 H215 0.948 . S
C186 C185 1.391 . S
C186 C187 1.391 . S
C187 C186 1.391 . S
C187 C188 1.392 . S
C187 H216 0.947 . S
C188 C187 1.392 . S
C188 C189 1.419 . S
C188 H217 0.948 . S
C189 C188 1.419 . S
C189 C190 1.391 . S
C189 C193 1.397 . S
C190 C185 1.391 . S
C190 C189 1.391 . S
C190 C191 1.399 . S
C191 C190 1.399 . S
C191 C192 1.396 . S
C191 C194 1.453 . S
C191 C195 1.684 . S
C192 C173 1.723 . S
C192 C191 1.396 . S
C192 C193 1.394 . S
C193 C189 1.397 . S
C193 C192 1.394 . S
C193 C203 1.723 . S
C194 C191 1.453 . S
C194 H218 0.982 . S
C194 H219 0.979 . S
C194 H220 0.977 . S
C195 C191 1.684 . S
C195 H221 0.979 . S
C195 H222 0.980 . S
C195 H223 0.983 . S
C196 H172 0.948 . S
C196 C197 1.391 . S
C196 C201 1.391 . S
C197 C196 1.391 . S
C197 C198 1.391 . S
C198 H175 0.947 1_556 S
C198 C197 1.391 . S
C198 C199 1.392 . S
C199 H176 0.948 . S
C199 C198 1.392 . S
C199 C200 1.419 . S
C200 C199 1.419 . S
C200 C201 1.391 . S
C200 C204 1.397 . S
C201 C196 1.391 . S
C201 C200 1.391 . S
C201 C202 1.399 . S
C202 C201 1.399 . S
C202 C203 1.396 . S
C202 C205 1.453 . S
C202 C206 1.684 . S
C203 C193 1.723 . S
C203 C202 1.396 . S
C203 C204 1.394 . S
C204 C174 1.723 . S
C204 C200 1.397 . S
C204 C203 1.394 . S
C205 H177 0.982 . S
C205 H181 0.979 . S
C205 H182 0.977 . S
C205 C202 1.453 . S
C206 H178 0.979 . S
C206 H179 0.980 . S
C206 H180 0.983 . S
C206 C202 1.684 . S
H207 C225 0.948 . S
H208 C166 0.948 . S
H209 C184 0.979 . S
H210 C184 0.980 . S
H211 C184 0.983 1_554 S
H212 C183 0.982 . S
H213 C183 0.979 1_554 S
H214 C183 0.977 . S
H215 C185 0.948 . S
H216 C187 0.947 . S
H217 C188 0.948 . S
H218 C194 0.982 . S
H219 C194 0.979 . S
H220 C194 0.977 . S
H221 C195 0.979 . S
H222 C195 0.980 . S
H223 C195 0.983 . S
H224 C168 0.947 . S
C225 C168 1.392 . S
C225 C169 1.419 . S
C225 H207 0.948 . S
C226 C227 1.391 . S
C226 C230 1.391 . S
C226 H268 0.948 . S
C227 C226 1.391 . S
C227 C228 1.391 . S
C228 C227 1.391 . S
C228 H284 0.947 . S
C228 C285 1.392 . S
C229 C230 1.391 . S
C229 C233 1.397 . S
C229 C285 1.419 . S
C230 C226 1.391 . S
C230 C229 1.391 . S
C230 C231 1.399 . S
C231 C230 1.399 . S
C231 C234 1.396 . S
C231 C243 1.453 . S
C231 C244 1.684 . S
H232 C256 0.948 . S
C233 C229 1.397 . S
C233 C234 1.394 . S
C233 C252 1.723 . S
C234 C231 1.396 . S
C234 C233 1.394 . S
C234 C264 1.723 . S
H235 C258 0.947 1_556 S
H236 C259 0.948 . S
H237 C265 0.982 . S
H238 C266 0.979 . S
H239 C266 0.980 . S
H240 C266 0.983 . S
H241 C265 0.979 . S
H242 C265 0.977 . S
C243 C231 1.453 . S
C243 H272 0.982 . S
C243 H273 0.979 . S
C243 H274 0.977 . S
C244 C231 1.684 . S
C244 H269 0.979 . S
C244 H270 0.980 . S
C244 H271 0.983 1_554 S
C245 C246 1.391 . S
C245 C250 1.391 . S
C245 H275 0.948 . S
C246 C245 1.391 . S
C246 C247 1.391 . S
C247 C246 1.391 . S
C247 C248 1.392 . S
C247 H276 0.947 . S
C248 C247 1.392 . S
C248 C249 1.419 . S
C248 H277 0.948 . S
C249 C248 1.419 . S
C249 C250 1.391 . S
C249 C253 1.397 . S
C250 C245 1.391 . S
C250 C249 1.391 . S
C250 C251 1.399 . S
C251 C250 1.399 . S
C251 C252 1.396 . S
C251 C254 1.453 . S
C251 C255 1.684 . S
C252 C233 1.723 . S
C252 C251 1.396 . S
C252 C253 1.394 . S
C253 C249 1.397 . S
C253 C252 1.394 . S
C253 C263 1.723 . S
C254 C251 1.453 . S
C254 H278 0.982 . S
C254 H279 0.979 . S
C254 H280 0.977 . S
C255 C251 1.684 . S
C255 H281 0.979 . S
C255 H282 0.980 . S
C255 H283 0.983 . S
C256 H232 0.948 . S
C256 C257 1.391 . S
C256 C261 1.391 . S
C257 C256 1.391 . S
C257 C258 1.391 . S
C258 H235 0.947 1_554 S
C258 C257 1.391 . S
C258 C259 1.392 . S
C259 H236 0.948 . S
C259 C258 1.392 . S
C259 C260 1.419 . S
C260 C259 1.419 . S
C260 C261 1.391 . S
C260 C264 1.397 . S
C261 C256 1.391 . S
C261 C260 1.391 . S
C261 C262 1.399 . S
C262 C261 1.399 . S
C262 C263 1.396 . S
C262 C265 1.453 . S
C262 C266 1.684 . S
C263 C253 1.723 . S
C263 C262 1.396 . S
C263 C264 1.394 . S
C264 C234 1.723 . S
C264 C260 1.397 . S
C264 C263 1.394 . S
C265 H237 0.982 . S
C265 H241 0.979 . S
C265 H242 0.977 . S
C265 C262 1.453 . S
C266 H238 0.979 . S
C266 H239 0.980 . S
C266 H240 0.983 . S
C266 C262 1.684 . S
H267 C285 0.948 . S
H268 C226 0.948 . S
H269 C244 0.979 . S
H270 C244 0.980 . S
H271 C244 0.983 1_556 S
H272 C243 0.982 . S
H273 C243 0.979 . S
H274 C243 0.977 . S
H275 C245 0.948 . S
H276 C247 0.947 . S
H277 C248 0.948 . S
H278 C254 0.982 . S
H279 C254 0.979 . S
H280 C254 0.977 . S
H281 C255 0.979 . S
H282 C255 0.980 . S
H283 C255 0.983 . S
H284 C228 0.947 . S
C285 C228 1.392 . S
C285 C229 1.419 . S
C285 H267 0.948 . S
C286 C287 1.363 . S
C286 C292 1.379 . S
C286 N294 1.356 1_554 S
C287 C286 1.363 . S
C287 C293 1.363 . S
C288 C289 1.363 . S
C288 C293 1.379 . S
C288 N295 1.356 . S
C289 C288 1.363 . S
C289 C292 1.363 . S
N290 C292 1.356 1_556 S
N290 H302 0.984 . S
N290 H303 0.983 1_556 S
N291 C293 1.356 . S
N291 H296 0.984 . S
N291 H297 0.985 . S
C292 C286 1.379 . S
C292 C289 1.363 . S
C292 N290 1.356 1_554 S
C293 C287 1.363 . S
C293 C288 1.379 . S
C293 N291 1.356 . S
N294 C286 1.356 1_556 S
N294 H300 0.984 . S
N294 H301 0.984 . S
N295 C288 1.356 . S
N295 H298 0.984 . S
N295 H299 0.985 . S
H296 N291 0.984 . S
H297 N291 0.985 . S
H298 N295 0.984 . S
H299 N295 0.985 . S
H300 N294 0.984 . S
H301 N294 0.984 . S
H302 N290 0.984 . S
H303 N290 0.983 1_554 S
C304 C305 1.363 1_554 S
C304 C310 1.379 . S
C304 N312 1.356 . S
C305 C304 1.363 1_556 S
C305 C311 1.363 . S
C306 C307 1.363 . S
C306 C311 1.379 . S
C306 N313 1.356 . S
C307 C306 1.363 . S
C307 C310 1.363 1_556 S
N308 C310 1.356 . S
N308 H320 0.984 . S
N308 H321 0.985 . S
N309 C311 1.356 . S
N309 H314 0.984 . S
N309 H315 0.985 . S
C310 C304 1.379 . S
C310 C307 1.363 1_554 S
C310 N308 1.356 . S
C311 C305 1.363 . S
C311 C306 1.379 . S
C311 N309 1.356 . S
N312 C304 1.356 . S
N312 H318 0.984 . S
N312 H319 0.984 . S
N313 C306 1.356 . S
N313 H316 0.984 . S
N313 H317 0.985 . S
H314 N309 0.984 . S
H315 N309 0.985 . S
H316 N313 0.984 . S
H317 N313 0.985 . S
H318 N312 0.984 . S
H319 N312 0.984 . S
H320 N308 0.984 . S
H321 N308 0.985 . S
C322 C323 1.363 . S
C322 C328 1.379 . S
C322 N330 1.356 . S
C323 C322 1.363 . S
C323 C329 1.363 . S
C324 C325 1.363 . S
C324 C329 1.379 . S
C324 N331 1.356 . S
C325 C324 1.363 . S
C325 C328 1.363 . S
N326 C328 1.356 . S
N326 H338 0.984 . S
N326 H339 0.985 . S
N327 C329 1.356 . S
N327 H332 0.984 . S
N327 H333 0.985 . S
C328 C322 1.379 . S
C328 C325 1.363 . S
C328 N326 1.356 . S
C329 C323 1.363 . S
C329 C324 1.379 . S
C329 N327 1.356 . S
N330 C322 1.356 . S
N330 H336 0.984 1_554 S
N330 H337 0.984 . S
N331 C324 1.356 . S
N331 H334 0.984 . S
N331 H335 0.985 . S
H332 N327 0.984 . S
H333 N327 0.985 . S
H334 N331 0.984 . S
H335 N331 0.985 . S
H336 N330 0.984 1_556 S
H337 N330 0.984 . S
H338 N326 0.984 . S
H339 N326 0.985 . S
C340 C341 1.363 1_554 S
C340 C346 1.379 . S
C340 N348 1.356 . S
C341 C340 1.363 1_556 S
C341 C347 1.363 . S
C342 C343 1.363 . S
C342 C347 1.379 . S
C342 N349 1.356 . S
C343 C342 1.363 . S
C343 C346 1.363 1_556 S
N344 C346 1.356 . S
N344 H356 0.984 . S
N344 H357 0.985 . S
N345 C347 1.356 . S
N345 H350 0.984 . S
N345 H351 0.985 . S
C346 C340 1.379 . S
C346 C343 1.363 1_554 S
C346 N344 1.356 . S
C347 C341 1.363 . S
C347 C342 1.379 . S
C347 N345 1.356 . S
N348 C340 1.356 . S
N348 H354 0.984 . S
N348 H355 0.984 . S
N349 C342 1.356 . S
N349 H352 0.984 . S
N349 H353 0.985 . S
H350 N345 0.984 . S
H351 N345 0.985 . S
H352 N349 0.984 . S
H353 N349 0.985 . S
H354 N348 0.984 . S
H355 N348 0.984 . S
H356 N344 0.984 . S
H357 N344 0.985 . S
C358 C359 1.363 . S
C358 C364 1.379 . S
C358 N366 1.356 . S
C359 C358 1.363 . S
C359 C365 1.363 . S
C360 C361 1.363 . S
C360 C365 1.379 . S
C360 N367 1.356 . S
C361 C360 1.363 . S
C361 C364 1.363 . S
N362 C364 1.356 . S
N362 H374 0.984 . S
N362 H375 0.985 . S
N363 C365 1.356 . S
N363 H368 0.984 . S
N363 H369 0.985 . S
C364 C358 1.379 . S
C364 C361 1.363 . S
C364 N362 1.356 . S
C365 C359 1.363 . S
C365 C360 1.379 . S
C365 N363 1.356 . S
N366 C358 1.356 . S
N366 H372 0.984 . S
N366 H373 0.984 . S
N367 C360 1.356 . S
N367 H370 0.984 . S
N367 H371 0.985 . S
H368 N363 0.984 . S
H369 N363 0.985 . S
H370 N367 0.984 . S
H371 N367 0.985 . S
H372 N366 0.984 . S
H373 N366 0.984 . S
H374 N362 0.984 . S
H375 N362 0.985 . S
C376 C377 1.363 . S
C376 C382 1.379 . S
C376 N384 1.356 . S
C377 C376 1.363 . S
C377 C383 1.363 . S
C378 C379 1.363 . S
C378 C383 1.379 . S
C378 N385 1.356 . S
C379 C378 1.363 . S
C379 C382 1.363 . S
N380 C382 1.356 . S
N380 H392 0.984 . S
N380 H393 0.985 . S
N381 C383 1.356 . S
N381 H386 0.984 . S
N381 H387 0.985 . S
C382 C376 1.379 . S
C382 C379 1.363 . S
C382 N380 1.356 . S
C383 C377 1.363 . S
C383 C378 1.379 . S
C383 N381 1.356 . S
N384 C376 1.356 . S
N384 H390 0.984 . S
N384 H391 0.984 . S
N385 C378 1.356 . S
N385 H388 0.984 . S
N385 H389 0.985 . S
H386 N381 0.984 . S
H387 N381 0.985 . S
H388 N385 0.984 . S
H389 N385 0.985 . S
H390 N384 0.984 . S
H391 N384 0.984 . S
H392 N380 0.984 . S
H393 N380 0.985 . S
C394 C395 1.363 . S
C394 C400 1.379 . S
C394 N402 1.356 . S
C395 C394 1.363 . S
C395 C401 1.363 . S
C396 C397 1.363 . S
C396 C401 1.379 . S
C396 N403 1.356 . S
C397 C396 1.363 . S
C397 C400 1.363 . S
N398 C400 1.356 . S
N398 H410 0.984 . S
N398 H411 0.985 . S
N399 C401 1.356 . S
N399 H404 0.984 . S
N399 H405 0.985 . S
C400 C394 1.379 . S
C400 C397 1.363 . S
C400 N398 1.356 . S
C401 C395 1.363 . S
C401 C396 1.379 . S
C401 N399 1.356 . S
N402 C394 1.356 . S
N402 H408 0.984 . S
N402 H409 0.984 . S
N403 C396 1.356 . S
N403 H406 0.984 . S
N403 H407 0.985 . S
H404 N399 0.984 . S
H405 N399 0.985 . S
H406 N403 0.984 . S
H407 N403 0.985 . S
H408 N402 0.984 . S
H409 N402 0.984 . S
H410 N398 0.984 . S
H411 N398 0.985 . S
C412 C413 1.363 . S
C412 C418 1.379 . S
C412 N420 1.356 . S
C413 C412 1.363 . S
C413 C419 1.363 . S
C414 C415 1.363 . S
C414 C419 1.379 . S
C414 N421 1.356 . S
C415 C414 1.363 . S
C415 C418 1.363 . S
N416 C418 1.356 . S
N416 H428 0.984 . S
N416 H429 0.985 . S
N417 C419 1.356 . S
N417 H422 0.984 . S
N417 H423 0.985 . S
C418 C412 1.379 . S
C418 C415 1.363 . S
C418 N416 1.356 . S
C419 C413 1.363 . S
C419 C414 1.379 . S
C419 N417 1.356 . S
N420 C412 1.356 . S
N420 H426 0.984 . S
N420 H427 0.984 . S
N421 C414 1.356 . S
N421 H424 0.984 . S
N421 H425 0.985 . S
H422 N417 0.984 . S
H423 N417 0.985 . S
H424 N421 0.984 . S
H425 N421 0.985 . S
H426 N420 0.984 . S
H427 N420 0.984 . S
H428 N416 0.984 . S
H429 N416 0.985 . S
C430 C431 1.363 1_665 S
C430 C436 1.379 . S
C430 N438 1.356 . S
C431 C430 1.363 1_445 S
C431 C437 1.363 . S
C432 C433 1.366 . S
C432 C437 1.379 . S
C432 N439 1.356 . S
C433 C432 1.366 . S
C433 C436 1.360 1_445 S
N434 C436 1.356 . S
N434 H446 0.984 . S
N434 H447 0.985 . S
N435 C437 1.356 . S
N435 H440 0.984 . S
N435 H441 0.985 . S
C436 C430 1.379 . S
C436 C433 1.360 1_665 S
C436 N434 1.356 . S
C437 C431 1.363 . S
C437 C432 1.379 . S
C437 N435 1.356 . S
N438 C430 1.356 . S
N438 H444 0.984 . S
N438 H445 0.984 . S
N439 C432 1.356 . S
N439 H442 0.984 . S
N439 H443 0.985 . S
H440 N435 0.984 . S
H441 N435 0.985 . S
H442 N439 0.984 . S
H443 N439 0.985 . S
H444 N438 0.984 . S
H445 N438 0.984 . S
H446 N434 0.984 . S
H447 N434 0.985 . S
C448 C449 1.363 1_655 S
C448 C454 1.379 . S
C448 N456 1.356 . S
C449 C448 1.363 1_455 S
C449 C455 1.363 1_545 S
C450 C451 1.363 1_565 S
C450 C455 1.379 . S
C450 N457 1.356 . S
C451 C450 1.363 1_545 S
C451 C454 1.363 1_455 S
N452 C454 1.356 . S
N452 H464 0.984 . S
N452 H465 0.985 . S
N453 C455 1.356 . S
N453 H458 0.984 . S
N453 H459 0.985 . S
C454 C448 1.379 . S
C454 C451 1.363 1_655 S
C454 N452 1.356 . S
C455 C449 1.363 1_565 S
C455 C450 1.379 . S
C455 N453 1.356 . S
N456 C448 1.356 . S
N456 H462 0.984 . S
N456 H463 0.984 . S
N457 C450 1.356 . S
N457 H460 0.984 . S
N457 H461 0.985 . S
H458 N453 0.984 . S
H459 N453 0.985 . S
H460 N457 0.984 . S
H461 N457 0.985 . S
H462 N456 0.984 . S
H463 N456 0.984 . S
H464 N452 0.984 . S
H465 N452 0.985 . S
C466 C467 1.363 . S
C466 C472 1.379 . S
C466 N474 1.356 . S
C467 C466 1.363 . S
C467 C473 1.363 . S
C468 C469 1.363 . S
C468 C473 1.379 . S
C468 N475 1.356 . S
C469 C468 1.363 . S
C469 C472 1.363 . S
N470 C472 1.356 . S
N470 H482 0.984 . S
N470 H483 0.985 . S
N471 C473 1.356 . S
N471 H476 0.984 . S
N471 H477 0.985 . S
C472 C466 1.379 . S
C472 C469 1.363 . S
C472 N470 1.356 . S
C473 C467 1.363 . S
C473 C468 1.379 . S
C473 N471 1.356 . S
N474 C466 1.356 . S
N474 H480 0.984 . S
N474 H481 0.984 . S
N475 C468 1.356 . S
N475 H478 0.984 . S
N475 H479 0.985 . S
H476 N471 0.984 . S
H477 N471 0.985 . S
H478 N475 0.984 . S
H479 N475 0.985 . S
H480 N474 0.984 . S
H481 N474 0.984 . S
H482 N470 0.984 . S
H483 N470 0.985 . S
C484 C485 1.363 . S
C484 C490 1.379 . S
C484 N492 1.356 . S
C485 C484 1.363 . S
C485 C491 1.363 . S
C486 C487 1.363 . S
C486 C491 1.379 . S
C486 N493 1.356 . S
C487 C486 1.363 . S
C487 C490 1.363 . S
N488 C490 1.356 . S
N488 H500 0.984 . S
N488 H501 0.985 . S
N489 C491 1.356 . S
N489 H494 0.984 . S
N489 H495 0.985 . S
C490 C484 1.379 . S
C490 C487 1.363 . S
C490 N488 1.356 . S
C491 C485 1.363 . S
C491 C486 1.379 . S
C491 N489 1.356 . S
N492 C484 1.356 . S
N492 H498 0.984 . S
N492 H499 0.984 . S
N493 C486 1.356 . S
N493 H496 0.984 . S
N493 H497 0.985 . S
H494 N489 0.984 . S
H495 N489 0.985 . S
H496 N493 0.984 . S
H497 N493 0.985 . S
H498 N492 0.984 . S
H499 N492 0.984 . S
H500 N488 0.984 . S
H501 N488 0.985 . S
C289 C257 1.502 . S
C287 C21 1.490 . S
C305 C19 1.480 . S
C307 C197 1.501 . S
C323 C18 1.461 . S
C325 C227 1.388 . S
C341 C20 1.481 . S
C343 C167 1.402 . S
C359 C44 1.490 . S
C361 C137 1.502 . S
C377 C42 1.480 . S
C379 C77 1.501 . S
C397 C107 1.388 . S
C395 C41 1.461 . S
C415 C47 1.402 . S
C413 C43 1.480 . S
C431 C16 1.496 . S
C433 C66 1.475 1_455 S
C449 C17 1.464 . S
C451 C126 1.441 . S
C469 C186 1.476 . S
C467 C39 1.496 . S
C485 C40 1.464 . S
C487 C246 1.441 . S
