# Generated by pormake.
# Topology nom, (4,4)-cn, num edge types: 1
# Building blocks:
#     Node 0, Type 0, BuildingBlock: MIFKUJ_clean_linker_1, # of connection points: 4
#     Node 1, Type 0, BuildingBlock: MIFKUJ_clean_linker_1, # of connection points: 4
#     Node 2, Type 0, BuildingBlock: MIFKUJ_clean_linker_1, # of connection points: 4
#     Node 3, Type 0, BuildingBlock: MIFKUJ_clean_linker_1, # of connection points: 4
#     Node 4, Type 0, BuildingBlock: MIFKUJ_clean_linker_1, # of connection points: 4
#     Node 5, Type 0, BuildingBlock: MIFKUJ_clean_linker_1, # of connection points: 4
#     Node 6, Type 1, BuildingBlock: UXUYUI_clean_sbu_0, # of connection points: 4
#     Node 7, Type 1, BuildingBlock: UXUYUI_clean_sbu_0, # of connection points: 4
#     Node 8, Type 1, BuildingBlock: UXUYUI_clean_sbu_0, # of connection points: 4
#     Node 9, Type 1, BuildingBlock: UXUYUI_clean_sbu_0, # of connection points: 4
#     Node 10, Type 1, BuildingBlock: UXUYUI_clean_sbu_0, # of connection points: 4
#     Node 11, Type 1, BuildingBlock: UXUYUI_clean_sbu_0, # of connection points: 4
#     Edge 12, Type (0, 1), BuildingBlock: OJICUG_clean_linker_0, # of connection points: 2
#     Edge 13, Type (0, 1), BuildingBlock: OJICUG_clean_linker_0, # of connection points: 2
#     Edge 14, Type (0, 1), BuildingBlock: OJICUG_clean_linker_0, # of connection points: 2
#     Edge 15, Type (0, 1), BuildingBlock: OJICUG_clean_linker_0, # of connection points: 2
#     Edge 16, Type (0, 1), BuildingBlock: OJICUG_clean_linker_0, # of connection points: 2
#     Edge 17, Type (0, 1), BuildingBlock: OJICUG_clean_linker_0, # of connection points: 2
#     Edge 18, Type (0, 1), BuildingBlock: OJICUG_clean_linker_0, # of connection points: 2
#     Edge 19, Type (0, 1), BuildingBlock: OJICUG_clean_linker_0, # of connection points: 2
#     Edge 20, Type (0, 1), BuildingBlock: OJICUG_clean_linker_0, # of connection points: 2
#     Edge 21, Type (0, 1), BuildingBlock: OJICUG_clean_linker_0, # of connection points: 2
#     Edge 22, Type (0, 1), BuildingBlock: OJICUG_clean_linker_0, # of connection points: 2
#     Edge 23, Type (0, 1), BuildingBlock: OJICUG_clean_linker_0, # of connection points: 2
#     Edge 24, Type (0, 1), BuildingBlock: OJICUG_clean_linker_0, # of connection points: 2
#     Edge 25, Type (0, 1), BuildingBlock: OJICUG_clean_linker_0, # of connection points: 2
#     Edge 26, Type (0, 1), BuildingBlock: OJICUG_clean_linker_0, # of connection points: 2
#     Edge 27, Type (0, 1), BuildingBlock: OJICUG_clean_linker_0, # of connection points: 2
#     Edge 28, Type (0, 1), BuildingBlock: OJICUG_clean_linker_0, # of connection points: 2
#     Edge 29, Type (0, 1), BuildingBlock: OJICUG_clean_linker_0, # of connection points: 2
#     Edge 30, Type (0, 1), BuildingBlock: OJICUG_clean_linker_0, # of connection points: 2
#     Edge 31, Type (0, 1), BuildingBlock: OJICUG_clean_linker_0, # of connection points: 2
#     Edge 32, Type (0, 1), BuildingBlock: OJICUG_clean_linker_0, # of connection points: 2
#     Edge 33, Type (0, 1), BuildingBlock: OJICUG_clean_linker_0, # of connection points: 2
#     Edge 34, Type (0, 1), BuildingBlock: OJICUG_clean_linker_0, # of connection points: 2
#     Edge 35, Type (0, 1), BuildingBlock: OJICUG_clean_linker_0, # of connection points: 2
# Relax obj value: 0.035
# Max RMSD: 0.144
# Mean RMSD: 0.118
data_MOF--net-nom--node1-UXUYUI_clean_sbu_0--node2-MIFKUJ_clean_linker_1--edge1-OJICUG_clean_linker_0
_symmetry_space_group_name_H-M    P1
_symmetry_Int_Tables_number       1
_symmetry_cell_setting            triclinic
loop_
_symmetry_equiv_pos_as_xyz
'x, y, z'
_cell_length_a     51.627639
_cell_length_b     51.607329
_cell_length_c     54.881211
_cell_angle_alpha  89.991387
_cell_angle_beta   90.008451
_cell_angle_gamma 120.00253
loop_
_atom_site_label
_atom_site_type_symbol
_atom_site_fract_x
_atom_site_fract_y
_atom_site_fract_z
_atom_type_partial_charge
H0 H 0.98947 0.46633 0.2841 0.0
H1 H 0.9546 0.44582 0.24991 0.0
H2 H 0.92053 0.50498 0.26713 0.0
H3 H 0.95607 0.52594 0.30095 0.0
H4 H 0.03443 0.52645 0.29078 0.0
H5 H 0.93885 0.45426 0.33092 0.0
H6 H 0.88689 0.43748 0.34199 0.0
H7 H 0.91534 0.52218 0.37776 0.0
H8 H 0.96673 0.53924 0.36559 0.0
H9 H 0.04715 0.57115 0.39057 0.0
H10 H 0.08264 0.58615 0.42446 0.0
H11 H 0.11922 0.53412 0.3939 0.0
H12 H 0.08347 0.51891 0.36022 0.0
H13 H 0.00333 0.51883 0.37721 0.0
H14 H 0.08592 0.59531 0.34087 0.0
H15 H 0.13699 0.62919 0.32767 0.0
H16 H 0.13535 0.5584 0.28441 0.0
H17 H 0.08384 0.52443 0.2977 0.0
C18 C 0.97519 0.49746 0.29518 0.0
C19 C 0.97445 0.47484 0.28051 0.0
C20 C 0.95435 0.46298 0.2611 0.0
C21 C 0.9347 0.47368 0.25584 0.0
C22 C 0.93552 0.49641 0.27057 0.0
C23 C 0.95564 0.50825 0.29003 0.0
C24 C 0.99705 0.51012 0.31543 0.0
C25 C 0.02764 0.52425 0.30973 0.0
C26 C 0.98822 0.50934 0.33998 0.0
C27 C 0.95666 0.49816 0.34714 0.0
C28 C 0.9338 0.46928 0.34092 0.0
C29 C 0.90415 0.45962 0.3475 0.0
C30 C 0.89687 0.47855 0.36066 0.0
C31 C 0.91997 0.50721 0.36722 0.0
C32 C 0.94947 0.5169 0.3605 0.0
C33 C 0.06272 0.544 0.37282 0.0
C34 C 0.06281 0.56298 0.39118 0.0
C35 C 0.08322 0.57168 0.41043 0.0
C36 C 0.10369 0.56129 0.41182 0.0
C37 C 0.10354 0.54227 0.39342 0.0
C38 C 0.0833 0.53378 0.37408 0.0
C39 C 0.04065 0.53417 0.35263 0.0
C40 C 0.01015 0.52067 0.35829 0.0
C41 C 0.04956 0.53736 0.32793 0.0
C42 C 0.08118 0.55715 0.32061 0.0
C43 C 0.09668 0.58687 0.32889 0.0
C44 C 0.12593 0.60626 0.32129 0.0
C45 C 0.14034 0.59647 0.30509 0.0
C46 C 0.12478 0.56669 0.29675 0.0
C47 C 0.09542 0.54723 0.3044 0.0
H48 H 0.441 0.96558 0.53367 0.0
H49 H 0.40808 0.9143 0.54728 0.0
H50 H 0.46476 0.88658 0.51147 0.0
H51 H 0.49806 0.93825 0.49813 0.0
H52 H 0.49854 0.00325 0.54369 0.0
H53 H 0.44153 0.95238 0.46901 0.0
H54 H 0.42691 0.91632 0.43554 0.0
H55 H 0.52001 0.95239 0.41678 0.0
H56 H 0.53437 0.98842 0.45006 0.0
H57 H 0.56876 0.08054 0.46092 0.0
H58 H 0.58632 0.13164 0.44654 0.0
H59 H 0.52206 0.13728 0.49337 0.0
H60 H 0.50451 0.08639 0.50747 0.0
H61 H 0.51803 0.03202 0.45658 0.0
H62 H 0.57702 0.085 0.52342 0.0
H63 H 0.599 0.1205 0.55705 0.0
H64 H 0.51259 0.08075 0.59215 0.0
H65 H 0.49069 0.04536 0.55843 0.0
C66 C 0.47187 0.95575 0.5147 0.0
C67 C 0.44649 0.94852 0.52885 0.0
C68 C 0.42772 0.91923 0.53668 0.0
C69 C 0.43387 0.89645 0.53047 0.0
C70 C 0.45932 0.90365 0.51632 0.0
C71 C 0.47832 0.93312 0.50866 0.0
C72 C 0.49142 0.98717 0.50674 0.0
C73 C 0.50257 0.00962 0.52463 0.0
C74 C 0.49836 0.99534 0.48197 0.0
C75 C 0.48906 0.97293 0.46212 0.0
C76 C 0.45876 0.95231 0.45779 0.0
C77 C 0.45046 0.93168 0.43869 0.0
C78 C 0.4723 0.93148 0.42346 0.0
C79 C 0.50261 0.95218 0.42793 0.0
C80 C 0.51086 0.97272 0.447 0.0
C81 C 0.53562 0.07974 0.48556 0.0
C82 C 0.55854 0.09285 0.46813 0.0
C83 C 0.56848 0.12199 0.45987 0.0
C84 C 0.55566 0.13853 0.46891 0.0
C85 C 0.53277 0.12535 0.48638 0.0
C86 C 0.52276 0.09624 0.49451 0.0
C87 C 0.52372 0.04826 0.4935 0.0
C88 C 0.51424 0.0258 0.47568 0.0
C89 C 0.51911 0.04004 0.5184 0.0
C90 C 0.53214 0.06255 0.53829 0.0
C91 C 0.5627 0.08418 0.53818 0.0
C92 C 0.57526 0.10446 0.55743 0.0
C93 C 0.55756 0.10336 0.57731 0.0
C94 C 0.52692 0.08187 0.57728 0.0
C95 C 0.51435 0.06169 0.55798 0.0
H96 H 0.54154 0.56776 0.71293 0.0
H97 H 0.52744 0.58908 0.74668 0.0
H98 H 0.43411 0.53043 0.72951 0.0
H99 H 0.44843 0.50864 0.69611 0.0
H100 H 0.5255 0.50717 0.70687 0.0
H101 H 0.50235 0.57947 0.66668 0.0
H102 H 0.46704 0.59588 0.65523 0.0
H103 H 0.41306 0.51214 0.6174 0.0
H104 H 0.44724 0.49524 0.63024 0.0
H105 H 0.49484 0.46443 0.6062 0.0
H106 H 0.51503 0.44937 0.57229 0.0
H107 H 0.60294 0.49674 0.60486 0.0
H108 H 0.58277 0.51251 0.6384 0.0
H109 H 0.50386 0.51549 0.62012 0.0
H110 H 0.51075 0.43885 0.65562 0.0
H111 H 0.52828 0.40533 0.66926 0.0
H112 H 0.59258 0.4746 0.71649 0.0
H113 H 0.57538 0.50855 0.70232 0.0
C114 C 0.49605 0.53681 0.70191 0.0
C115 C 0.51804 0.55952 0.71645 0.0
C116 C 0.50995 0.57185 0.7356 0.0
C117 C 0.47966 0.56156 0.74072 0.0
C118 C 0.45763 0.5387 0.72615 0.0
C119 C 0.46576 0.52638 0.70696 0.0
C120 C 0.50515 0.52382 0.68185 0.0
C121 C 0.52129 0.50943 0.68784 0.0
C122 C 0.49755 0.52476 0.6572 0.0
C123 C 0.47723 0.53591 0.64967 0.0
C124 C 0.48269 0.56452 0.6562 0.0
C125 C 0.46264 0.57402 0.64936 0.0
C126 C 0.437 0.55527 0.6355 0.0
C127 C 0.43212 0.52695 0.62852 0.0
C128 C 0.45189 0.51737 0.63562 0.0
C129 C 0.53724 0.48953 0.62492 0.0
C130 C 0.51847 0.47164 0.60602 0.0
C131 C 0.53001 0.46282 0.58675 0.0
C132 C 0.5606 0.47182 0.58589 0.0
C133 C 0.57934 0.48968 0.60486 0.0
C134 C 0.56778 0.49846 0.62417 0.0
C135 C 0.52509 0.49963 0.64502 0.0
C136 C 0.50842 0.51344 0.6391 0.0
C137 C 0.5303 0.49624 0.66984 0.0
C138 C 0.54213 0.4765 0.67755 0.0
C139 C 0.52909 0.44716 0.66849 0.0
C140 C 0.53902 0.42793 0.67639 0.0
C141 C 0.56188 0.4374 0.69385 0.0
C142 C 0.5748 0.46667 0.7031 0.0
C143 C 0.56505 0.48608 0.69498 0.0
H144 H 0.04783 0.56824 0.78276 0.0
H145 H 0.08369 0.58794 0.74928 0.0
H146 H 0.1218 0.53431 0.77322 0.0
H147 H 0.08485 0.51363 0.80599 0.0
H148 H 0.00486 0.50967 0.79133 0.0
H149 H 0.09865 0.58449 0.83227 0.0
H150 H 0.15059 0.60163 0.8437 0.0
H151 H 0.12186 0.51875 0.88256 0.0
H152 H 0.07052 0.50122 0.86999 0.0
H153 H 0.99241 0.47088 0.89352 0.0
H154 H 0.95635 0.45563 0.92672 0.0
H155 H 0.91197 0.49676 0.88994 0.0
H156 H 0.94912 0.51337 0.85741 0.0
H157 H 0.03294 0.52088 0.87868 0.0
H158 H 0.95199 0.44154 0.84109 0.0
H159 H 0.90158 0.4071 0.82646 0.0
H160 H 0.90481 0.47708 0.78107 0.0
H161 H 0.95514 0.5118 0.79633 0.0
C162 C 0.06387 0.53974 0.79706 0.0
C163 C 0.06391 0.56071 0.78076 0.0
C164 C 0.08463 0.57217 0.76175 0.0
C165 C 0.10582 0.56289 0.75859 0.0
C166 C 0.10566 0.54178 0.77495 0.0
C167 C 0.08475 0.53015 0.79387 0.0
C168 C 0.04136 0.52751 0.81691 0.0
C169 C 0.01097 0.5126 0.81047 0.0
C170 C 0.04935 0.52944 0.84182 0.0
C171 C 0.08073 0.54136 0.84994 0.0
C172 C 0.10362 0.56998 0.84312 0.0
C173 C 0.13327 0.57986 0.84988 0.0
C174 C 0.14049 0.56145 0.86386 0.0
C175 C 0.11728 0.53326 0.87134 0.0
C176 C 0.08781 0.52333 0.8644 0.0
C177 C 0.97348 0.49318 0.87283 0.0
C178 C 0.97501 0.47675 0.89263 0.0
C179 C 0.95412 0.46774 0.91152 0.0
C180 C 0.93112 0.47485 0.91102 0.0
C181 C 0.92954 0.49117 0.89109 0.0
C182 C 0.95058 0.50036 0.87229 0.0
C183 C 0.99635 0.5036 0.85315 0.0
C184 C 0.02673 0.5182 0.85958 0.0
C185 C 0.98841 0.49962 0.82818 0.0
C186 C 0.95722 0.47937 0.82004 0.0
C187 C 0.9417 0.44963 0.82828 0.0
C188 C 0.91302 0.42985 0.81966 0.0
C189 C 0.89927 0.43932 0.8025 0.0
C190 C 0.91471 0.4692 0.79443 0.0
C191 C 0.9435 0.489 0.80304 0.0
H192 H 0.59267 0.07165 0.03635 0.0
H193 H 0.62515 0.12305 0.04998 0.0
H194 H 0.5727 0.15149 0.00853 0.0
H195 H 0.53929 0.09963 0.99563 0.0
H196 H 0.53623 0.03411 0.04365 0.0
H197 H 0.59574 0.08437 0.97006 0.0
H198 H 0.612 0.12129 0.93715 0.0
H199 H 0.51993 0.08547 0.91511 0.0
H200 H 0.50385 0.0493 0.94844 0.0
H201 H 0.46636 0.95579 0.96223 0.0
H202 H 0.44892 0.9046 0.94824 0.0
H203 H 0.51664 0.90146 0.99242 0.0
H204 H 0.53347 0.95217 0.00657 0.0
H205 H 0.51917 0.00518 0.95647 0.0
H206 H 0.45883 0.95202 0.02307 0.0
H207 H 0.4368 0.91649 0.05668 0.0
H208 H 0.52296 0.95685 0.09225 0.0
H209 H 0.5449 0.99228 0.05857 0.0
C210 C 0.56367 0.08172 0.01472 0.0
C211 C 0.58789 0.08883 0.03035 0.0
C212 C 0.60646 0.11819 0.03814 0.0
C213 C 0.60142 0.14115 0.03025 0.0
C214 C 0.57717 0.13415 0.01466 0.0
C215 C 0.5582 0.10459 0.00722 0.0
C216 C 0.54442 0.05022 0.00667 0.0
C217 C 0.5328 0.02776 0.02457 0.0
C218 C 0.53829 0.04197 0.98182 0.0
C219 C 0.54856 0.06432 0.96186 0.0
C220 C 0.57909 0.08467 0.95825 0.0
C221 C 0.58834 0.1056 0.93931 0.0
C222 C 0.56724 0.10641 0.92354 0.0
C223 C 0.53672 0.0858 0.92715 0.0
C224 C 0.52751 0.06493 0.94606 0.0
C225 C 0.50095 0.95766 0.98568 0.0
C226 C 0.47728 0.94393 0.96897 0.0
C227 C 0.46746 0.91475 0.96091 0.0
C228 C 0.48133 0.89884 0.96924 0.0
C229 C 0.50504 0.91275 0.98598 0.0
C230 C 0.51473 0.94181 0.99409 0.0
C231 C 0.51257 0.9891 0.99346 0.0
C232 C 0.52248 0.0115 0.97557 0.0
C233 C 0.51664 0.99733 0.01834 0.0
C234 C 0.50358 0.97478 0.03819 0.0
C235 C 0.47308 0.95296 0.03793 0.0
C236 C 0.46049 0.93267 0.05718 0.0
C237 C 0.4781 0.93393 0.07719 0.0
C238 C 0.50869 0.95559 0.07729 0.0
C239 C 0.52128 0.9758 0.05801 0.0
H240 H 0.49795 0.47339 0.21454 0.0
H241 H 0.51286 0.45231 0.24794 0.0
H242 H 0.60527 0.50583 0.226 0.0
H243 H 0.59023 0.52716 0.1927 0.0
H244 H 0.5147 0.5324 0.20604 0.0
H245 H 0.53439 0.45717 0.16644 0.0
H246 H 0.56952 0.44037 0.15531 0.0
H247 H 0.62227 0.52242 0.11499 0.0
H248 H 0.58836 0.53976 0.12751 0.0
H249 H 0.54074 0.56868 0.10323 0.0
H250 H 0.5202 0.58359 0.06965 0.0
H251 H 0.43497 0.54459 0.10674 0.0
H252 H 0.45518 0.52805 0.13958 0.0
H253 H 0.53131 0.51953 0.11901 0.0
H254 H 0.52775 0.59902 0.15394 0.0
H255 H 0.51097 0.63316 0.16765 0.0
H256 H 0.44805 0.56529 0.21658 0.0
H257 H 0.46449 0.53079 0.2024 0.0
C258 C 0.54291 0.50158 0.20094 0.0
C259 C 0.52144 0.48065 0.21695 0.0
C260 C 0.52999 0.46867 0.23606 0.0
C261 C 0.56023 0.47736 0.23956 0.0
C262 C 0.58176 0.49841 0.22355 0.0
C263 C 0.57321 0.51062 0.20454 0.0
C264 C 0.53324 0.51408 0.18085 0.0
C265 C 0.51785 0.52919 0.18696 0.0
C266 C 0.53932 0.51176 0.15603 0.0
C267 C 0.559 0.49997 0.14819 0.0
C268 C 0.5537 0.47161 0.15541 0.0
C269 C 0.57365 0.4619 0.14878 0.0
C270 C 0.59898 0.48016 0.13443 0.0
C271 C 0.6035 0.50805 0.12654 0.0
C272 C 0.58385 0.51786 0.13344 0.0
C273 C 0.49962 0.54735 0.12409 0.0
C274 C 0.51756 0.56313 0.10409 0.0
C275 C 0.50584 0.57199 0.08498 0.0
C276 C 0.47591 0.56548 0.08547 0.0
C277 C 0.45799 0.54973 0.10556 0.0
C278 C 0.46966 0.54059 0.12457 0.0
C279 C 0.51204 0.53731 0.14411 0.0
C280 C 0.52784 0.52261 0.13804 0.0
C281 C 0.50823 0.54188 0.169 0.0
C282 C 0.49702 0.56209 0.1768 0.0
C283 C 0.50991 0.5912 0.16726 0.0
C284 C 0.50039 0.61077 0.17518 0.0
C285 C 0.47814 0.60185 0.19313 0.0
C286 C 0.46539 0.57281 0.20284 0.0
C287 C 0.47471 0.55309 0.19471 0.0
Li288 Li 0.63499 0.40472 0.43373 0.0
Li289 Li 0.62538 0.35784 0.41427 0.0
Li290 Li 0.674 0.40586 0.40692 0.0
Li291 Li 0.62791 0.39793 0.38822 0.0
C292 C 0.66747 0.38438 0.46098 0.0
N293 N 0.68735 0.38671 0.50815 0.0
C294 C 0.65163 0.36027 0.47682 0.0
C295 C 0.69379 0.4094 0.46902 0.0
C296 C 0.66192 0.36195 0.50063 0.0
C297 C 0.70339 0.41023 0.49296 0.0
C298 C 0.56968 0.35394 0.41593 0.0
C299 C 0.52633 0.31255 0.39746 0.0
N300 N 0.51044 0.30916 0.41816 0.0
C301 C 0.55283 0.35027 0.43692 0.0
C302 C 0.55625 0.33512 0.39596 0.0
C303 C 0.52295 0.32742 0.43772 0.0
C304 C 0.62857 0.44703 0.46292 0.0
N305 N 0.62546 0.41927 0.46236 0.0
C306 C 0.60399 0.40865 0.50225 0.0
C307 C 0.61335 0.40011 0.48144 0.0
C308 C 0.6068 0.43713 0.50339 0.0
C309 C 0.61954 0.45655 0.48344 0.0
H310 H 0.6374 0.46154 0.44723 0.0
H311 H 0.61001 0.37777 0.48019 0.0
C312 C 0.62109 0.30136 0.40939 0.0
N313 N 0.60879 0.31622 0.42047 0.0
C314 C 0.61206 0.27186 0.41594 0.0
C315 C 0.57762 0.27345 0.44489 0.0
C316 C 0.58735 0.30287 0.43784 0.0
C317 C 0.59039 0.25769 0.43423 0.0
H318 H 0.63866 0.31277 0.39607 0.0
H319 H 0.57869 0.31543 0.44702 0.0
C320 C 0.68099 0.46229 0.40917 0.0
N321 N 0.7285 0.52004 0.41347 0.0
C322 C 0.69034 0.48153 0.38909 0.0
C323 C 0.69548 0.47263 0.43153 0.0
C324 C 0.7145 0.51058 0.39159 0.0
C325 C 0.71953 0.50183 0.43333 0.0
C326 C 0.64375 0.36441 0.35981 0.0
C327 C 0.66496 0.38123 0.34204 0.0
C328 C 0.61839 0.33749 0.3533 0.0
C329 C 0.66002 0.37128 0.31791 0.0
C330 C 0.61426 0.32825 0.32899 0.0
N331 N 0.63495 0.34523 0.31193 0.0
C332 C 0.73086 0.41129 0.41371 0.0
C333 C 0.72831 0.44111 0.38202 0.0
C334 C 0.76068 0.42083 0.40803 0.0
N335 N 0.71543 0.42163 0.40079 0.0
C336 C 0.75798 0.45109 0.37561 0.0
C337 C 0.77459 0.44083 0.3886 0.0
H338 H 0.71985 0.39516 0.42812 0.0
H339 H 0.71525 0.44816 0.37149 0.0
C340 C 0.5843 0.40102 0.35812 0.0
N341 N 0.61341 0.40827 0.36 0.0
C342 C 0.57462 0.41066 0.33808 0.0
C343 C 0.62511 0.43526 0.3224 0.0
C344 C 0.63373 0.42501 0.34265 0.0
C345 C 0.59521 0.42832 0.31996 0.0
H346 H 0.56867 0.38832 0.37239 0.0
H347 H 0.65689 0.43109 0.34486 0.0
O348 O 0.65771 0.38305 0.43756 0.0
O349 O 0.59906 0.37601 0.41493 0.0
O350 O 0.65752 0.43365 0.40701 0.0
O351 O 0.64817 0.37386 0.38353 0.0
H352 H 0.63143 0.34056 0.47088 0.0
H353 H 0.70694 0.42784 0.45684 0.0
H354 H 0.6497 0.34355 0.51312 0.0
H355 H 0.72367 0.42951 0.49941 0.0
H356 H 0.5157 0.29778 0.38214 0.0
H357 H 0.5627 0.36482 0.45245 0.0
H358 H 0.56871 0.33812 0.37939 0.0
H359 H 0.50972 0.32422 0.4539 0.0
H360 H 0.59441 0.39297 0.51721 0.0
H361 H 0.62161 0.47849 0.48334 0.0
H362 H 0.62281 0.26073 0.40747 0.0
H363 H 0.56066 0.26337 0.4589 0.0
H364 H 0.67917 0.47411 0.37171 0.0
H365 H 0.68802 0.45838 0.44741 0.0
H366 H 0.72209 0.52562 0.37614 0.0
H367 H 0.73097 0.51006 0.45053 0.0
H368 H 0.68494 0.40188 0.34678 0.0
H369 H 0.60219 0.32369 0.3669 0.0
H370 H 0.67613 0.38424 0.30395 0.0
H371 H 0.59465 0.30752 0.3237 0.0
H372 H 0.77263 0.4125 0.41869 0.0
H373 H 0.76748 0.46597 0.36016 0.0
H374 H 0.5513 0.40448 0.33691 0.0
H375 H 0.64193 0.44928 0.30923 0.0
Li376 Li 0.2489 0.63631 0.6074 0.0
Li377 Li 0.28631 0.62728 0.58841 0.0
Li378 Li 0.2858 0.67512 0.581 0.0
Li379 Li 0.24807 0.62874 0.56191 0.0
C380 C 0.29731 0.66636 0.63604 0.0
N381 N 0.30486 0.67945 0.68526 0.0
C382 C 0.30439 0.64957 0.65185 0.0
C383 C 0.29464 0.69017 0.64522 0.0
C384 C 0.30796 0.65643 0.67668 0.0
C385 C 0.29838 0.69634 0.67017 0.0
C386 C 0.23407 0.57065 0.5865 0.0
C387 C 0.22679 0.5289 0.56171 0.0
N388 N 0.21754 0.51098 0.58173 0.0
C389 C 0.224 0.55167 0.60674 0.0
C390 C 0.23507 0.55905 0.56373 0.0
C391 C 0.21595 0.52164 0.604 0.0
C392 C 0.20393 0.63517 0.63863 0.0
N393 N 0.22486 0.62673 0.63601 0.0
C394 C 0.21018 0.60008 0.67376 0.0
C395 C 0.22833 0.60964 0.6531 0.0
C396 C 0.18815 0.60814 0.67689 0.0
C397 C 0.18535 0.62624 0.65913 0.0
H398 H 0.20118 0.64824 0.62456 0.0
H399 H 0.24492 0.60297 0.65046 0.0
C400 C 0.33882 0.62365 0.58295 0.0
N401 N 0.31186 0.61123 0.59434 0.0
C402 C 0.35918 0.61421 0.58862 0.0
C403 C 0.32391 0.57985 0.61804 0.0
C404 C 0.30412 0.5897 0.61158 0.0
C405 C 0.352 0.59223 0.60661 0.0
H406 H 0.34477 0.64131 0.56976 0.0
H407 H 0.28311 0.58108 0.6211 0.0
C408 C 0.23771 0.68217 0.57738 0.0
N409 N 0.23087 0.73146 0.57033 0.0
C410 C 0.2294 0.68761 0.55455 0.0
C411 C 0.24198 0.70151 0.59673 0.0
C412 C 0.22621 0.71272 0.55131 0.0
C413 C 0.23857 0.72638 0.59278 0.0
C414 C 0.301 0.64433 0.53533 0.0
C415 C 0.31184 0.66638 0.51724 0.0
C416 C 0.30008 0.61722 0.53091 0.0
C417 C 0.32072 0.66058 0.49482 0.0
C418 C 0.30921 0.61227 0.50827 0.0
N419 N 0.31919 0.63385 0.49082 0.0
C420 C 0.33344 0.73428 0.58979 0.0
C421 C 0.30703 0.72717 0.55279 0.0
C422 C 0.35355 0.76399 0.58359 0.0
N423 N 0.31079 0.71659 0.57439 0.0
C424 C 0.32669 0.75661 0.54578 0.0
C425 C 0.35052 0.77535 0.56116 0.0
H426 H 0.33644 0.7251 0.60655 0.0
H427 H 0.28923 0.71245 0.54065 0.0
C428 C 0.19639 0.58811 0.53496 0.0
N429 N 0.22329 0.6138 0.53368 0.0
C430 C 0.17722 0.57836 0.51483 0.0
C431 C 0.21358 0.62189 0.49261 0.0
C432 C 0.23211 0.63063 0.51306 0.0
C433 C 0.18562 0.59555 0.49339 0.0
H434 H 0.18954 0.57553 0.55178 0.0
H435 H 0.25308 0.65148 0.51276 0.0
O436 O 0.29335 0.65972 0.61168 0.0
O437 O 0.24197 0.60014 0.58888 0.0
O438 O 0.24129 0.65786 0.58083 0.0
O439 O 0.29228 0.64972 0.55745 0.0
H440 H 0.30687 0.63128 0.64509 0.0
H441 H 0.28994 0.70388 0.63322 0.0
H442 H 0.31319 0.64344 0.68914 0.0
H443 H 0.29622 0.71463 0.67751 0.0
H444 H 0.22758 0.51972 0.54418 0.0
H445 H 0.22253 0.56 0.62444 0.0
H446 H 0.24176 0.57303 0.54769 0.0
H447 H 0.20837 0.50681 0.61957 0.0
H448 H 0.21329 0.5864 0.6871 0.0
H449 H 0.16838 0.63263 0.66068 0.0
H450 H 0.38037 0.6242 0.5791 0.0
H451 H 0.31759 0.56342 0.63243 0.0
H452 H 0.22561 0.67274 0.53943 0.0
H453 H 0.24768 0.69728 0.61465 0.0
H454 H 0.22001 0.71731 0.53368 0.0
H455 H 0.24196 0.7416 0.60759 0.0
H456 H 0.31322 0.6877 0.52039 0.0
H457 H 0.29289 0.60032 0.54491 0.0
H458 H 0.32889 0.67736 0.48062 0.0
H459 H 0.30851 0.59133 0.50463 0.0
H460 H 0.37185 0.77761 0.59582 0.0
H461 H 0.32341 0.76456 0.52843 0.0
H462 H 0.15565 0.55815 0.51631 0.0
H463 H 0.22093 0.63576 0.47643 0.0
Li464 Li 0.67919 0.2871 0.75269 0.0
Li465 Li 0.63351 0.2495 0.77233 0.0
Li466 Li 0.63885 0.24827 0.72697 0.0
Li467 Li 0.6302 0.28612 0.74648 0.0
C468 C 0.6839 0.23531 0.74794 0.0
N469 N 0.72669 0.21981 0.73709 0.0
C470 C 0.69327 0.22243 0.76577 0.0
C471 C 0.69596 0.23985 0.72451 0.0
C472 C 0.71503 0.21489 0.75996 0.0
C473 C 0.71763 0.23198 0.71939 0.0
C474 C 0.65247 0.29758 0.80104 0.0
C475 C 0.62599 0.30104 0.83594 0.0
N476 N 0.6487 0.30441 0.85062 0.0
C477 C 0.67572 0.30146 0.81641 0.0
C478 C 0.62754 0.2977 0.81082 0.0
C479 C 0.67333 0.30472 0.84145 0.0
C480 C 0.7336 0.34127 0.74826 0.0
N481 N 0.72078 0.31316 0.75764 0.0
C482 C 0.76609 0.32471 0.77819 0.0
C483 C 0.73634 0.30458 0.77232 0.0
C484 C 0.77991 0.35406 0.76901 0.0
C485 C 0.76334 0.36214 0.75362 0.0
H486 H 0.72049 0.34768 0.73706 0.0
H487 H 0.72531 0.28249 0.7803 0.0
C488 C 0.59054 0.20692 0.8056 0.0
N489 N 0.62008 0.22558 0.80105 0.0
C490 C 0.58156 0.18838 0.82613 0.0
C491 C 0.63357 0.20874 0.8369 0.0
C492 C 0.6415 0.22682 0.8162 0.0
C493 C 0.60324 0.18895 0.842 0.0
H494 H 0.57395 0.20592 0.79304 0.0
H495 H 0.66484 0.24168 0.81203 0.0
C496 C 0.67345 0.30335 0.69995 0.0
N497 N 0.69816 0.32651 0.65489 0.0
C498 C 0.65876 0.3126 0.68376 0.0
C499 C 0.70104 0.30649 0.69338 0.0
C500 C 0.6715 0.32406 0.66101 0.0
C501 C 0.71308 0.31809 0.67048 0.0
C502 C 0.57493 0.23601 0.74372 0.0
C503 C 0.55919 0.22288 0.72227 0.0
C504 C 0.56117 0.24326 0.76231 0.0
C505 C 0.53006 0.21768 0.71963 0.0
C506 C 0.53201 0.23773 0.75897 0.0
N507 N 0.5172 0.22519 0.73787 0.0
C508 C 0.6267 0.19611 0.70053 0.0
C509 C 0.62047 0.23187 0.67814 0.0
C510 C 0.61681 0.17654 0.68067 0.0
N511 N 0.62839 0.2232 0.69889 0.0
C512 C 0.61055 0.21308 0.65784 0.0
C513 C 0.60838 0.18487 0.65899 0.0
H514 H 0.63252 0.18947 0.71742 0.0
H515 H 0.62077 0.25291 0.67761 0.0
C516 C 0.62436 0.33728 0.75313 0.0
N517 N 0.61365 0.31122 0.74055 0.0
C518 C 0.61554 0.35798 0.74684 0.0
C519 C 0.58426 0.32423 0.71522 0.0
C520 C 0.59385 0.30436 0.72199 0.0
C521 C 0.59558 0.35179 0.72735 0.0
H522 H 0.64062 0.34247 0.76746 0.0
H523 H 0.58639 0.28398 0.71174 0.0
O524 O 0.66266 0.2429 0.75339 0.0
O525 O 0.65424 0.29398 0.77652 0.0
O526 O 0.66141 0.2924 0.72243 0.0
O527 O 0.60358 0.2415 0.74652 0.0
H528 H 0.68396 0.2184 0.78394 0.0
H529 H 0.68838 0.24897 0.71032 0.0
H530 H 0.72262 0.20509 0.77363 0.0
H531 H 0.72716 0.23544 0.70131 0.0
H532 H 0.60676 0.30104 0.84377 0.0
H533 H 0.69526 0.30163 0.80913 0.0
H534 H 0.60966 0.29539 0.79912 0.0
H535 H 0.69105 0.30747 0.85358 0.0
H536 H 0.77776 0.31768 0.79054 0.0
H537 H 0.77314 0.38444 0.74601 0.0
H538 H 0.55795 0.17316 0.82914 0.0
H539 H 0.65103 0.21022 0.84874 0.0
H540 H 0.6376 0.31072 0.68859 0.0
H541 H 0.71328 0.30042 0.70589 0.0
H542 H 0.66021 0.33104 0.64825 0.0
H543 H 0.73436 0.32054 0.66516 0.0
H544 H 0.56937 0.21684 0.70779 0.0
H545 H 0.57289 0.25307 0.77911 0.0
H546 H 0.51767 0.20767 0.70309 0.0
H547 H 0.52115 0.24338 0.77317 0.0
H548 H 0.61561 0.15505 0.68232 0.0
H549 H 0.60364 0.22014 0.64172 0.0
H550 H 0.62518 0.37908 0.7565 0.0
H551 H 0.56854 0.31826 0.70032 0.0
Li552 Li 0.40144 0.63305 0.93344 0.0
Li553 Li 0.41113 0.67967 0.91434 0.0
Li554 Li 0.36449 0.63196 0.90591 0.0
Li555 Li 0.41107 0.63965 0.88912 0.0
C556 C 0.37158 0.65306 0.96093 0.0
N557 N 0.35821 0.65065 0.00993 0.0
C558 C 0.39038 0.6765 0.97641 0.0
C559 C 0.34567 0.62867 0.97028 0.0
C560 C 0.38333 0.67479 1.00115 0.0
C561 C 0.33938 0.62779 0.99513 0.0
C562 C 0.46623 0.68263 0.9072 0.0
C563 C 0.49743 0.72076 0.87828 0.0
N564 N 0.522 0.72171 0.88827 0.0
C565 C 0.49177 0.68397 0.91718 0.0
C566 C 0.46903 0.70117 0.8876 0.0
C567 C 0.51978 0.70389 0.90735 0.0
C568 C 0.40085 0.58929 0.96601 0.0
N569 N 0.41038 0.61877 0.96244 0.0
C570 C 0.43826 0.63163 0.99958 0.0
C571 C 0.42889 0.63987 0.9786 0.0
C572 C 0.42919 0.60138 0.00372 0.0
C573 C 0.41 0.58004 0.98663 0.0
H574 H 0.38692 0.57302 0.95251 0.0
H575 H 0.43688 0.66325 0.97494 0.0
C576 C 0.41168 0.73443 0.91258 0.0
N577 N 0.42715 0.7211 0.92042 0.0
C578 C 0.42091 0.76394 0.91917 0.0
C579 C 0.46188 0.76539 0.94169 0.0
C580 C 0.45197 0.73595 0.93454 0.0
C581 C 0.44604 0.77963 0.93426 0.0
H582 H 0.39157 0.72178 0.90192 0.0
H583 H 0.46348 0.72457 0.94094 0.0
C584 C 0.35656 0.57581 0.9049 0.0
N585 N 0.30744 0.51903 0.90065 0.0
C586 C 0.35198 0.55928 0.88354 0.0
C587 C 0.33637 0.56327 0.9242 0.0
C588 C 0.32696 0.53067 0.88172 0.0
C589 C 0.31162 0.5346 0.92167 0.0
C590 C 0.37816 0.66011 0.86 0.0
C591 C 0.36827 0.63363 0.84685 0.0
C592 C 0.37459 0.68312 0.8502 0.0
C593 C 0.35478 0.63049 0.82415 0.0
C594 C 0.36099 0.67915 0.82742 0.0
N595 N 0.35144 0.65314 0.81498 0.0
C596 C 0.30871 0.62833 0.91215 0.0
C597 C 0.30847 0.59579 0.88162 0.0
C598 C 0.27886 0.61946 0.90722 0.0
N599 N 0.32287 0.61644 0.89941 0.0
C600 C 0.27873 0.58643 0.87598 0.0
C601 C 0.26348 0.59833 0.88879 0.0
H602 H 0.32075 0.64504 0.92596 0.0
H603 H 0.32013 0.58697 0.87136 0.0
C604 C 0.43107 0.6053 0.86527 0.0
N605 N 0.42897 0.63036 0.8627 0.0
C606 C 0.44054 0.59468 0.84583 0.0
C607 C 0.44693 0.63671 0.82174 0.0
C608 C 0.43726 0.6465 0.84169 0.0
C609 C 0.44806 0.61011 0.82352 0.0
H610 H 0.42451 0.59305 0.88227 0.0
H611 H 0.43542 0.66641 0.84014 0.0
O612 O 0.37821 0.65426 0.93667 0.0
O613 O 0.4387 0.66317 0.91666 0.0
O614 O 0.38082 0.60397 0.90698 0.0
O615 O 0.39161 0.66375 0.88221 0.0
H616 H 0.41036 0.69568 0.96947 0.0
H617 H 0.33044 0.61073 0.95848 0.0
H618 H 0.39784 0.69265 0.01338 0.0
H619 H 0.31947 0.60899 0.00262 0.0
H620 H 0.49993 0.73523 0.86312 0.0
H621 H 0.48994 0.66977 0.93238 0.0
H622 H 0.44955 0.70052 0.87967 0.0
H623 H 0.53975 0.70517 0.9149 0.0
H624 H 0.45273 0.64891 0.01227 0.0
H625 H 0.40289 0.55656 0.9887 0.0
H626 H 0.40784 0.77395 0.91333 0.0
H627 H 0.48148 0.77677 0.95319 0.0
H628 H 0.36739 0.56851 0.86843 0.0
H629 H 0.33986 0.57551 0.94098 0.0
H630 H 0.32304 0.51772 0.86524 0.0
H631 H 0.29576 0.5247 0.93644 0.0
H632 H 0.3709 0.61563 0.85413 0.0
H633 H 0.38232 0.70387 0.86002 0.0
H634 H 0.34696 0.61006 0.81383 0.0
H635 H 0.35808 0.69678 0.81962 0.0
H636 H 0.26797 0.62902 0.91776 0.0
H637 H 0.26806 0.57054 0.8613 0.0
H638 H 0.44164 0.57442 0.84817 0.0
H639 H 0.45239 0.64923 0.80487 0.0
Li640 Li 0.75187 0.40977 0.08968 0.0
Li641 Li 0.78991 0.40041 0.10617 0.0
Li642 Li 0.78775 0.40835 0.06204 0.0
Li643 Li 0.74996 0.36186 0.08062 0.0
C644 C 0.80213 0.4658 0.09007 0.0
N645 N 0.8136 0.52412 0.09233 0.0
C646 C 0.81511 0.48305 0.11094 0.0
C647 C 0.79543 0.4784 0.07024 0.0
C648 C 0.82062 0.51244 0.11176 0.0
C649 C 0.80127 0.50786 0.07176 0.0
C650 C 0.73864 0.38271 0.13568 0.0
C651 C 0.70586 0.36656 0.1706 0.0
N652 N 0.72347 0.39358 0.18132 0.0
C653 C 0.75642 0.41025 0.14709 0.0
C654 C 0.71317 0.36062 0.14754 0.0
C655 C 0.74839 0.41535 0.17014 0.0
C656 C 0.69919 0.41242 0.08532 0.0
N657 N 0.72632 0.42581 0.09649 0.0
C658 C 0.71345 0.4572 0.11932 0.0
C659 C 0.73375 0.44791 0.11317 0.0
C660 C 0.68517 0.44377 0.10811 0.0
C661 C 0.67829 0.42125 0.09071 0.0
H662 H 0.69361 0.39455 0.07241 0.0
H663 H 0.7551 0.45786 0.12226 0.0
C664 C 0.84423 0.43345 0.1304 0.0
N665 N 0.81684 0.40863 0.13265 0.0
C666 C 0.86414 0.4434 0.14997 0.0
C667 C 0.82784 0.40122 0.17353 0.0
C668 C 0.80857 0.39209 0.15346 0.0
C669 C 0.85582 0.42757 0.17208 0.0
H670 H 0.85025 0.44604 0.11356 0.0
H671 H 0.78662 0.37241 0.15478 0.0
C672 C 0.73751 0.39176 0.03487 0.0
N673 N 0.7254 0.39892 0.98706 0.0
C674 C 0.73288 0.37013 0.01742 0.0
C675 C 0.73531 0.4167 0.02809 0.0
C676 C 0.72699 0.37426 0.99331 0.0
C677 C 0.72933 0.42 0.00381 0.0
C678 C 0.8007 0.35678 0.08737 0.0
C679 C 0.82413 0.35436 0.07704 0.0
C680 C 0.78455 0.33823 0.10684 0.0
C681 C 0.8311 0.33341 0.08643 0.0
C682 C 0.79223 0.31759 0.11571 0.0
N683 N 0.81515 0.31563 0.10541 0.0
C684 C 0.83288 0.45187 0.0305 0.0
C685 C 0.80764 0.40176 0.01647 0.0
C686 C 0.85147 0.46096 0.01001 0.0
N687 N 0.81141 0.42271 0.03326 0.0
C688 C 0.82551 0.40986 0.99565 0.0
C689 C 0.84807 0.43978 0.99228 0.0
H690 H 0.83626 0.46794 0.04452 0.0
H691 H 0.79114 0.37855 0.01954 0.0
C692 C 0.69783 0.30539 0.08603 0.0
N693 N 0.72431 0.32068 0.07404 0.0
C694 C 0.67758 0.27574 0.07983 0.0
C695 C 0.7122 0.27831 0.04894 0.0
C696 C 0.73198 0.30773 0.05601 0.0
C697 C 0.68453 0.26206 0.06081 0.0
H698 H 0.69216 0.31647 0.09998 0.0
H699 H 0.75316 0.32057 0.04671 0.0
O700 O 0.7963 0.43687 0.08901 0.0
O701 O 0.74611 0.37722 0.11308 0.0
O702 O 0.74336 0.38812 0.05856 0.0
O703 O 0.79368 0.37719 0.07829 0.0
H704 H 0.82069 0.47383 0.12643 0.0
H705 H 0.78609 0.46566 0.05377 0.0
H706 H 0.83046 0.52595 0.12785 0.0
H707 H 0.7961 0.51784 0.05655 0.0
H708 H 0.68619 0.34967 0.17997 0.0
H709 H 0.77621 0.42754 0.13824 0.0
H710 H 0.69919 0.33909 0.13909 0.0
H711 H 0.76198 0.43662 0.17912 0.0
H712 H 0.71963 0.4742 0.1332 0.0
H713 H 0.65699 0.41049 0.08133 0.0
H714 H 0.8857 0.4635 0.14788 0.0
H715 H 0.82044 0.38841 0.19025 0.0
H716 H 0.73404 0.35048 0.02236 0.0
H717 H 0.73785 0.43319 0.04145 0.0
H718 H 0.72365 0.35782 0.97959 0.0
H719 H 0.7277 0.43927 0.99832 0.0
H720 H 0.83678 0.36853 0.06192 0.0
H721 H 0.76627 0.33968 0.11502 0.0
H722 H 0.8492 0.3313 0.07862 0.0
H723 H 0.77994 0.30311 0.13078 0.0
H724 H 0.86896 0.48413 0.00853 0.0
H725 H 0.82183 0.39275 0.98246 0.0
H726 H 0.65634 0.26396 0.08926 0.0
H727 H 0.71841 0.26838 0.03432 0.0
Li728 Li 0.40539 0.78848 0.27223 0.0
Li729 Li 0.35939 0.75035 0.25335 0.0
Li730 Li 0.40854 0.75198 0.24618 0.0
Li731 Li 0.3988 0.78926 0.22702 0.0
C732 C 0.38767 0.7409 0.30116 0.0
N733 N 0.39278 0.73503 0.35071 0.0
C734 C 0.36478 0.73718 0.31689 0.0
C735 C 0.41293 0.74113 0.31057 0.0
C736 C 0.36784 0.7344 0.3419 0.0
C737 C 0.41516 0.73826 0.33569 0.0
C738 C 0.35389 0.80174 0.24872 0.0
C739 C 0.31928 0.8042 0.22059 0.0
N740 N 0.3105 0.81655 0.23834 0.0
C741 C 0.34478 0.81478 0.26659 0.0
C742 C 0.34125 0.79667 0.22547 0.0
C743 C 0.32271 0.82198 0.26103 0.0
C744 C 0.44911 0.83116 0.30492 0.0
N745 N 0.41944 0.81263 0.3008 0.0
C746 C 0.40696 0.82978 0.337 0.0
C747 C 0.39844 0.81162 0.31632 0.0
C748 C 0.43743 0.84942 0.34167 0.0
C749 C 0.45866 0.8498 0.32538 0.0
H750 H 0.46536 0.83185 0.29215 0.0
H751 H 0.37499 0.79696 0.31243 0.0
C752 C 0.30527 0.69561 0.25008 0.0
N753 N 0.31804 0.72391 0.25907 0.0
C754 C 0.27588 0.67448 0.25626 0.0
C755 C 0.27338 0.71207 0.28079 0.0
C756 C 0.30274 0.73247 0.27407 0.0
C757 C 0.25971 0.68251 0.27214 0.0
H758 H 0.31825 0.68921 0.23869 0.0
H759 H 0.31369 0.75479 0.28159 0.0
C760 C 0.46336 0.80233 0.24248 0.0
N761 N 0.52105 0.81351 0.23539 0.0
C762 C 0.47851 0.81559 0.22085 0.0
C763 C 0.47769 0.79511 0.26062 0.0
C764 C 0.50763 0.82098 0.21758 0.0
C765 C 0.50681 0.80083 0.25666 0.0
C766 C 0.36397 0.73377 0.20046 0.0
C767 C 0.37852 0.72478 0.18391 0.0
C768 C 0.33594 0.72997 0.1945 0.0
C769 C 0.36521 0.71293 0.16141 0.0
C770 C 0.32333 0.71799 0.17183 0.0
N771 N 0.33812 0.70983 0.15587 0.0
C772 C 0.41551 0.70151 0.25271 0.0
C773 C 0.44475 0.73414 0.22093 0.0
C774 C 0.42467 0.6811 0.24635 0.0
N775 N 0.42544 0.72729 0.23987 0.0
C776 C 0.45467 0.71455 0.21408 0.0
C777 C 0.44418 0.6873 0.22652 0.0
H778 H 0.39962 0.6963 0.26734 0.0
H779 H 0.45159 0.75428 0.21051 0.0
C780 C 0.40979 0.84106 0.20054 0.0
N781 N 0.40834 0.81409 0.19885 0.0
C782 C 0.41927 0.86057 0.18064 0.0
C783 C 0.4256 0.82419 0.15764 0.0
C784 C 0.41605 0.80545 0.17798 0.0
C785 C 0.42757 0.85231 0.15886 0.0
H786 H 0.40415 0.84769 0.21752 0.0
H787 H 0.41597 0.78452 0.1774 0.0
O788 O 0.38526 0.74407 0.27666 0.0
O789 O 0.37543 0.79449 0.25393 0.0
O790 O 0.43473 0.79664 0.2459 0.0
O791 O 0.37657 0.74508 0.22273 0.0
H792 H 0.345 0.73678 0.30991 0.0
H793 H 0.43056 0.74334 0.29862 0.0
H794 H 0.35041 0.73178 0.35431 0.0
H795 H 0.43465 0.73853 0.34323 0.0
H796 H 0.3093 0.80035 0.20266 0.0
H797 H 0.35454 0.81921 0.28462 0.0
H798 H 0.34861 0.78741 0.21124 0.0
H799 H 0.31532 0.83191 0.27474 0.0
H800 H 0.3898 0.82905 0.3488 0.0
H801 H 0.48239 0.8644 0.32836 0.0
H802 H 0.26635 0.65183 0.24945 0.0
H803 H 0.26166 0.71926 0.29294 0.0
H804 H 0.4679 0.82162 0.20672 0.0
H805 H 0.46643 0.78516 0.27755 0.0
H806 H 0.51957 0.8311 0.20089 0.0
H807 H 0.5181 0.7952 0.2705 0.0
H808 H 0.40002 0.72717 0.18827 0.0
H809 H 0.32381 0.73583 0.20731 0.0
H810 H 0.37638 0.70615 0.14836 0.0
H811 H 0.3017 0.71503 0.16698 0.0
H812 H 0.41565 0.66021 0.25625 0.0
H813 H 0.47002 0.72052 0.1989 0.0
H814 H 0.42033 0.88198 0.18235 0.0
H815 H 0.43242 0.81718 0.14145 0.0
C816 C 0.19262 0.63806 0.31309 0.0
C817 C 0.17126 0.61759 0.2967 0.0
H818 H 0.23722 0.67427 0.31826 0.0
C819 C 0.17943 0.61818 0.27217 0.0
H820 H 0.18725 0.63784 0.3322 0.0
C821 C 0.20816 0.63912 0.26416 0.0
C822 C 0.22929 0.65994 0.28051 0.0
H823 H 0.1634 0.60296 0.25902 0.0
H824 H 0.21363 0.63942 0.24508 0.0
C825 C 0.22125 0.65899 0.30509 0.0
C826 C 0.56951 0.19184 0.47637 0.0
C827 C 0.56563 0.16927 0.45997 0.0
H828 H 0.58084 0.2374 0.48119 0.0
C829 C 0.57052 0.1761 0.435 0.0
H830 H 0.56642 0.18743 0.49576 0.0
C831 C 0.57863 0.20478 0.42659 0.0
C832 C 0.58207 0.22723 0.44298 0.0
H833 H 0.56737 0.15909 0.42189 0.0
H834 H 0.58161 0.20917 0.4072 0.0
C835 C 0.57768 0.22046 0.46799 0.0
C836 C 0.42518 0.5948 0.62178 0.0
C837 C 0.41531 0.56495 0.62832 0.0
H838 H 0.41312 0.62694 0.61026 0.0
C839 C 0.38445 0.54421 0.62767 0.0
H840 H 0.44877 0.61134 0.6218 0.0
C841 C 0.36405 0.55297 0.6204 0.0
C842 C 0.37387 0.58281 0.61388 0.0
H843 H 0.37592 0.52112 0.63294 0.0
H844 H 0.34055 0.53619 0.61972 0.0
C845 C 0.40471 0.60365 0.61475 0.0
C846 C 0.86159 0.38853 0.78686 0.0
C847 C 0.86905 0.41792 0.79295 0.0
H848 H 0.82791 0.34557 0.77405 0.0
C849 C 0.84731 0.42649 0.79023 0.0
H850 H 0.87802 0.3814 0.78833 0.0
C851 C 0.81856 0.40593 0.78208 0.0
C852 C 0.81093 0.37637 0.77639 0.0
H853 H 0.85228 0.44887 0.79503 0.0
H854 H 0.80207 0.413 0.7809 0.0
C855 C 0.83289 0.36801 0.77866 0.0
C856 C 0.46366 0.86041 0.93571 0.0
C857 C 0.47158 0.86809 0.96028 0.0
H858 H 0.4497 0.82658 0.90816 0.0
C859 C 0.47075 0.8463 0.97618 0.0
H860 H 0.46448 0.87675 0.92289 0.0
C861 C 0.46261 0.81772 0.96767 0.0
C862 C 0.4549 0.81014 0.9431 0.0
H863 H 0.47613 0.85121 0.9953 0.0
H864 H 0.46192 0.80138 0.98045 0.0
C865 C 0.45532 0.83172 0.92724 0.0
C866 C 0.65169 0.49163 0.12692 0.0
C867 C 0.62093 0.47057 0.12789 0.0
H868 H 0.69577 0.5 0.11932 0.0
C869 C 0.61146 0.44053 0.12238 0.0
H870 H 0.65993 0.51488 0.13145 0.0
C871 C 0.63222 0.43181 0.116 0.0
C872 C 0.66296 0.45296 0.1148 0.0
H873 H 0.58795 0.42373 0.1227 0.0
H874 H 0.62414 0.4084 0.11226 0.0
C875 C 0.67237 0.48299 0.12031 0.0
C876 C 0.40412 0.84133 0.52223 0.0
C877 C 0.41346 0.86529 0.53859 0.0
H878 H 0.37689 0.79411 0.51656 0.0
C879 C 0.40244 0.85941 0.56258 0.0
H880 H 0.41207 0.84521 0.50358 0.0
C881 C 0.38225 0.8302 0.57 0.0
C882 C 0.37247 0.8063 0.55351 0.0
H883 H 0.40947 0.87743 0.57565 0.0
H884 H 0.37387 0.8264 0.58851 0.0
C885 C 0.38374 0.81215 0.52958 0.0
C886 C 0.5766 0.39877 0.68581 0.0
C887 C 0.57171 0.41647 0.70253 0.0
H888 H 0.58862 0.36517 0.68042 0.0
C889 C 0.57533 0.41329 0.72754 0.0
H890 H 0.57442 0.40107 0.66641 0.0
C891 C 0.58311 0.39237 0.73566 0.0
C892 C 0.5876 0.37433 0.71893 0.0
H893 H 0.5714 0.42644 0.74085 0.0
H894 H 0.58499 0.38993 0.75507 0.0
C895 C 0.58457 0.37807 0.69389 0.0
C896 C 0.19226 0.60096 0.87672 0.0
C897 C 0.17205 0.57113 0.87029 0.0
H898 H 0.23694 0.63304 0.88731 0.0
C899 C 0.18217 0.55039 0.8701 0.0
H900 H 0.18517 0.61747 0.87728 0.0
C901 C 0.21164 0.55916 0.87632 0.0
C902 C 0.23191 0.58898 0.88269 0.0
H903 H 0.16739 0.52732 0.86489 0.0
H904 H 0.21845 0.54243 0.87629 0.0
C905 C 0.22185 0.60979 0.88281 0.0
C906 C 0.629 0.17891 0.0629 0.0
C907 C 0.62176 0.17233 0.03814 0.0
H908 H 0.65445 0.21263 0.08949 0.0
C909 C 0.63493 0.19548 0.02092 0.0
H910 H 0.61903 0.16143 0.07653 0.0
C911 C 0.65545 0.22463 0.02829 0.0
C912 C 0.66276 0.23119 0.05304 0.0
H913 H 0.62984 0.1909 1.00171 0.0
H914 H 0.66547 0.24209 0.01465 0.0
C915 C 0.64912 0.20814 0.07031 0.0
C916 C 0.46566 0.6267 0.22681 0.0
C917 C 0.46864 0.62303 0.20179 0.0
H918 H 0.45636 0.65034 0.25432 0.0
C919 C 0.46314 0.64026 0.18502 0.0
H920 H 0.47009 0.61393 0.24016 0.0
C921 C 0.45506 0.6609 0.19307 0.0
C922 C 0.45254 0.66502 0.21812 0.0
H923 H 0.46482 0.63758 0.1656 0.0
H924 H 0.45045 0.67338 0.17958 0.0
C925 C 0.45779 0.64755 0.23491 0.0
C926 C 0.85463 0.48886 0.36673 0.0
C927 C 0.86541 0.46866 0.36756 0.0
H928 H 0.81799 0.49622 0.37318 0.0
C929 C 0.84603 0.43917 0.37533 0.0
H930 H 0.86878 0.51163 0.36052 0.0
C931 C 0.81663 0.43015 0.38219 0.0
C932 C 0.80594 0.45044 0.38152 0.0
H933 H 0.85365 0.4231 0.37643 0.0
H934 H 0.80221 0.40716 0.38777 0.0
C935 C 0.82533 0.4799 0.37371 0.0
C936 C 0.12951 0.54864 0.44459 0.0
C937 C 0.12496 0.57008 0.43252 0.0
H938 H 0.15223 0.53987 0.47331 0.0
C939 C 0.14068 0.59993 0.44049 0.0
H940 H 0.11751 0.52541 0.43897 0.0
C941 C 0.16053 0.60819 0.46009 0.0
C942 C 0.16492 0.58673 0.47229 0.0
H943 H 0.1378 0.61698 0.43143 0.0
H944 H 0.17211 0.63134 0.46594 0.0
C945 C 0.14917 0.55685 0.46435 0.0
C946 C 0.59186 0.15463 0.59431 0.0
C947 C 0.57106 0.12422 0.59821 0.0
H948 H 0.62015 0.19756 0.61042 0.0
C949 C 0.5632 0.11381 0.62225 0.0
H950 H 0.59823 0.16337 0.576 0.0
C951 C 0.57564 0.13339 0.64194 0.0
C952 C 0.59617 0.16387 0.63806 0.0
H953 H 0.54751 0.09044 0.62588 0.0
H954 H 0.56871 0.12473 0.66021 0.0
C955 C 0.60422 0.17425 0.61401 0.0
C956 C 0.44754 0.55533 0.77709 0.0
C957 C 0.47116 0.5742 0.76156 0.0
H958 H 0.42164 0.55185 0.80861 0.0
C959 C 0.48698 0.60511 0.7664 0.0
H960 H 0.43508 0.5314 0.77402 0.0
C961 C 0.47946 0.61684 0.78641 0.0
C962 C 0.45605 0.59789 0.80209 0.0
H963 H 0.50511 0.6203 0.75465 0.0
H964 H 0.49228 0.64069 0.7898 0.0
C965 C 0.44009 0.56702 0.79711 0.0
C966 C 0.89909 0.48475 0.93988 0.0
C967 C 0.90916 0.46559 0.93138 0.0
H968 H 0.87166 0.49155 0.96536 0.0
C969 C 0.89847 0.43767 0.94278 0.0
H970 H 0.90708 0.50657 0.93173 0.0
C971 C 0.87861 0.42931 0.96237 0.0
C972 C 0.86868 0.44853 0.971 0.0
H973 H 0.90539 0.42215 0.93654 0.0
H974 H 0.87149 0.40793 0.97102 0.0
C975 C 0.87906 0.47631 0.9594 0.0
C976 C 0.47233 0.92348 0.12213 0.0
C977 C 0.46458 0.91306 0.09808 0.0
H978 H 0.46686 0.91254 0.16009 0.0
C979 C 0.4439 0.88262 0.09418 0.0
H980 H 0.48791 0.94687 0.12577 0.0
C981 C 0.4316 0.86297 0.11388 0.0
C982 C 0.43959 0.87335 0.13793 0.0
H983 H 0.4376 0.87385 0.07587 0.0
H984 H 0.41578 0.83963 0.11027 0.0
C985 C 0.45996 0.90387 0.14182 0.0
C986 C 0.55683 0.46207 0.28334 0.0
C987 C 0.56918 0.46469 0.26004 0.0
H988 H 0.55572 0.44918 0.32051 0.0
C989 C 0.58994 0.455 0.25646 0.0
H990 H 0.5411 0.46974 0.28675 0.0
C991 C 0.59812 0.44287 0.27577 0.0
C992 C 0.58588 0.44037 0.29916 0.0
H993 H 0.59953 0.45638 0.23862 0.0
H994 H 0.61381 0.43518 0.27228 0.0
C995 C 0.56515 0.45015 0.30268 0.0
C996 C 0.44057 0.88033 0.40517 0.0
C997 C 0.4636 0.91021 0.40269 0.0
H998 H 0.41465 0.83757 0.38808 0.0
C999 C 0.47825 0.91974 0.3801 0.0
H1000 H 0.42913 0.87215 0.42242 0.0
C1001 C 0.47 0.89995 0.36046 0.0
C1002 C 0.44687 0.87011 0.36288 0.0
H1003 H 0.49574 0.94273 0.37742 0.0
H1004 H 0.48131 0.90825 0.34319 0.0
C1005 C 0.43231 0.86051 0.3855 0.0
C1006 C 0.55694 0.43368 0.5556 0.0
C1007 C 0.57287 0.46283 0.56512 0.0
H1008 H 0.55495 0.40285 0.52862 0.0
C1009 C 0.60032 0.48341 0.55438 0.0
H1010 H 0.53588 0.4172 0.56359 0.0
C1011 C 0.61142 0.4751 0.53444 0.0
C1012 C 0.59539 0.44598 0.52485 0.0
H1013 H 0.613 0.50613 0.56113 0.0
H1014 H 0.63266 0.49144 0.52661 0.0
C1015 C 0.56806 0.42536 0.53572 0.0
C1016 C 0.14043 0.60488 0.73076 0.0
C1017 C 0.12754 0.57477 0.73803 0.0
H1018 H 0.1698 0.63907 0.70592 0.0
C1019 C 0.1351 0.55592 0.72515 0.0
H1020 H 0.13552 0.62017 0.74049 0.0
C1021 C 0.15493 0.56685 0.7055 0.0
C1022 C 0.16757 0.59685 0.69812 0.0
H1023 H 0.12522 0.5325 0.72991 0.0
H1024 H 0.15986 0.55159 0.69572 0.0
C1025 C 0.16013 0.61576 0.71098 0.0
C1026 C 0.56079 0.14271 0.89721 0.0
C1027 C 0.57696 0.12826 0.90311 0.0
H1028 H 0.55661 0.17346 0.8736 0.0
C1029 C 0.6021 0.13434 0.88901 0.0
H1030 H 0.54158 0.13887 0.90794 0.0
C1031 C 0.61069 0.15415 0.86934 0.0
C1032 C 0.59439 0.1684 0.86329 0.0
H1033 H 0.61476 0.12324 0.8928 0.0
H1034 H 0.62976 0.15776 0.85852 0.0
C1035 C 0.5694 0.16253 0.87753 0.0
C1036 C 0.43396 0.55647 0.05687 0.0
C1037 C 0.46352 0.57494 0.06498 0.0
H1038 H 0.39976 0.55045 0.03165 0.0
C1039 C 0.48138 0.60238 0.05307 0.0
H1040 H 0.41961 0.53502 0.06538 0.0
C1041 C 0.47022 0.61089 0.03334 0.0
C1042 C 0.44072 0.59239 0.02512 0.0
H1043 H 0.50409 0.61743 0.05899 0.0
H1044 H 0.48502 0.63183 0.02429 0.0
C1045 C 0.42268 0.56513 0.03724 0.0
C1046 C 0.90985 0.48104 0.21929 0.0
C1047 C 0.91398 0.46166 0.23469 0.0
H1048 H 0.88818 0.4855 0.18766 0.0
C1049 C 0.89864 0.43084 0.22946 0.0
H1050 H 0.92155 0.50492 0.22265 0.0
C1051 C 0.8797 0.41971 0.20922 0.0
C1052 C 0.8758 0.43916 0.19369 0.0
H1053 H 0.90112 0.41528 0.2411 0.0
H1054 H 0.86842 0.39591 0.20555 0.0
C1055 C 0.89102 0.46994 0.19904 0.0
loop_
_geom_bond_atom_site_label_1
_geom_bond_atom_site_label_2
_geom_bond_distance
_geom_bond_site_symmetry_2
_ccdc_geom_bond_type
H0 C19 0.949 . S
H1 C20 0.950 . S
H2 C22 0.950 . S
H3 C23 0.950 . S
H4 C25 0.950 . S
H5 C28 0.950 . S
H6 C29 0.950 . S
H7 C31 0.951 . S
H8 C32 0.949 . S
H9 C34 0.949 . S
H10 C35 0.950 . S
H11 C37 0.950 . S
H12 C38 0.950 . S
H13 C40 0.950 . S
H14 C43 0.950 . S
H15 C44 0.950 . S
H16 C46 0.951 . S
H17 C47 0.949 . S
C18 C19 1.376 . S
C18 C23 1.386 . S
C18 C24 1.483 . S
C19 H0 0.949 . S
C19 C18 1.376 . S
C19 C20 1.397 . S
C20 H1 0.950 . S
C20 C19 1.397 . S
C20 C21 1.391 . S
C21 C20 1.391 . S
C21 C22 1.405 . S
C22 H2 0.950 . S
C22 C21 1.405 . S
C22 C23 1.367 . S
C23 H3 0.950 . S
C23 C18 1.386 . S
C23 C22 1.367 . S
C24 C18 1.483 . S
C24 C25 1.382 1_655 S
C24 C26 1.403 . S
C25 H4 0.950 . S
C25 C24 1.382 1_455 S
C25 C41 1.411 . S
C26 C24 1.403 . S
C26 C27 1.489 . S
C26 C40 1.411 1_655 S
C27 C26 1.489 . S
C27 C28 1.383 . S
C27 C32 1.382 . S
C28 H5 0.950 . S
C28 C27 1.383 . S
C28 C29 1.395 . S
C29 H6 0.950 . S
C29 C28 1.395 . S
C29 C30 1.288 . S
C30 C29 1.288 . S
C30 C31 1.392 . S
C31 H7 0.951 . S
C31 C30 1.392 . S
C31 C32 1.392 . S
C32 H8 0.949 . S
C32 C27 1.382 . S
C32 C31 1.392 . S
C33 C34 1.376 . S
C33 C38 1.386 . S
C33 C39 1.483 . S
C34 H9 0.949 . S
C34 C33 1.376 . S
C34 C35 1.397 . S
C35 H10 0.950 . S
C35 C34 1.397 . S
C35 C36 1.391 . S
C36 C35 1.391 . S
C36 C37 1.405 . S
C37 H11 0.950 . S
C37 C36 1.405 . S
C37 C38 1.367 . S
C38 H12 0.950 . S
C38 C33 1.386 . S
C38 C37 1.367 . S
C39 C33 1.483 . S
C39 C40 1.382 . S
C39 C41 1.403 . S
C40 H13 0.950 . S
C40 C26 1.411 1_455 S
C40 C39 1.382 . S
C41 C25 1.411 . S
C41 C39 1.403 . S
C41 C42 1.489 . S
C42 C41 1.489 . S
C42 C43 1.383 . S
C42 C47 1.382 . S
C43 H14 0.950 . S
C43 C42 1.383 . S
C43 C44 1.395 . S
C44 H15 0.950 . S
C44 C43 1.395 . S
C44 C45 1.288 . S
C45 C44 1.288 . S
C45 C46 1.392 . S
C46 H16 0.951 . S
C46 C45 1.392 . S
C46 C47 1.392 . S
C47 H17 0.949 . S
C47 C42 1.382 . S
C47 C46 1.392 . S
H48 C67 0.949 . S
H49 C68 0.950 . S
H50 C70 0.950 . S
H51 C71 0.950 . S
H52 C73 0.960 . S
H53 C76 0.950 . S
H54 C77 0.950 . S
H55 C79 0.951 . S
H56 C80 0.949 . S
H57 C82 0.949 . S
H58 C83 0.950 . S
H59 C85 0.950 . S
H60 C86 0.950 . S
H61 C88 0.950 . S
H62 C91 0.950 . S
H63 C92 0.950 . S
H64 C94 0.951 . S
H65 C95 0.949 . S
C66 C67 1.376 . S
C66 C71 1.386 . S
C66 C72 1.483 . S
C67 H48 0.949 . S
C67 C66 1.376 . S
C67 C68 1.397 . S
C68 H49 0.950 . S
C68 C67 1.397 . S
C68 C69 1.391 . S
C69 C68 1.391 . S
C69 C70 1.405 . S
C70 H50 0.950 . S
C70 C69 1.405 . S
C70 C71 1.367 . S
C71 H51 0.950 . S
C71 C66 1.386 . S
C71 C70 1.367 . S
C72 C66 1.483 . S
C72 C73 1.382 1_565 S
C72 C74 1.403 . S
C73 H52 0.960 . S
C73 C72 1.382 1_545 S
C73 C89 1.411 . S
C74 C72 1.403 . S
C74 C75 1.489 . S
C74 C88 1.411 1_565 S
C75 C74 1.489 . S
C75 C76 1.383 . S
C75 C80 1.382 . S
C76 H53 0.950 . S
C76 C75 1.383 . S
C76 C77 1.395 . S
C77 H54 0.950 . S
C77 C76 1.395 . S
C77 C78 1.288 . S
C78 C77 1.288 . S
C78 C79 1.392 . S
C79 H55 0.951 . S
C79 C78 1.392 . S
C79 C80 1.392 . S
C80 H56 0.949 . S
C80 C75 1.382 . S
C80 C79 1.392 . S
C81 C82 1.376 . S
C81 C86 1.386 . S
C81 C87 1.483 . S
C82 H57 0.949 . S
C82 C81 1.376 . S
C82 C83 1.397 . S
C83 H58 0.950 . S
C83 C82 1.397 . S
C83 C84 1.391 . S
C84 C83 1.391 . S
C84 C85 1.405 . S
C85 H59 0.950 . S
C85 C84 1.405 . S
C85 C86 1.367 . S
C86 H60 0.950 . S
C86 C81 1.386 . S
C86 C85 1.367 . S
C87 C81 1.483 . S
C87 C88 1.382 . S
C87 C89 1.403 . S
C88 H61 0.950 . S
C88 C74 1.411 1_545 S
C88 C87 1.382 . S
C89 C73 1.411 . S
C89 C87 1.403 . S
C89 C90 1.489 . S
C90 C89 1.489 . S
C90 C91 1.383 . S
C90 C95 1.382 . S
C91 H62 0.950 . S
C91 C90 1.383 . S
C91 C92 1.395 . S
C92 H63 0.950 . S
C92 C91 1.395 . S
C92 C93 1.288 . S
C93 C92 1.288 . S
C93 C94 1.392 . S
C94 H64 0.951 . S
C94 C93 1.392 . S
C94 C95 1.392 . S
C95 H65 0.949 . S
C95 C90 1.382 . S
C95 C94 1.392 . S
H96 C115 0.949 . S
H97 C116 0.950 . S
H98 C118 0.950 . S
H99 C119 0.950 . S
H100 C121 0.950 . S
H101 C124 0.950 . S
H102 C125 0.950 . S
H103 C127 0.951 . S
H104 C128 0.949 . S
H105 C130 0.949 . S
H106 C131 0.950 . S
H107 C133 0.950 . S
H108 C134 0.950 . S
H109 C136 0.950 . S
H110 C139 0.950 . S
H111 C140 0.950 . S
H112 C142 0.951 . S
H113 C143 0.949 . S
C114 C115 1.376 . S
C114 C119 1.386 . S
C114 C120 1.483 . S
C115 H96 0.949 . S
C115 C114 1.376 . S
C115 C116 1.397 . S
C116 H97 0.950 . S
C116 C115 1.397 . S
C116 C117 1.391 . S
C117 C116 1.391 . S
C117 C118 1.405 . S
C118 H98 0.950 . S
C118 C117 1.405 . S
C118 C119 1.367 . S
C119 H99 0.950 . S
C119 C114 1.386 . S
C119 C118 1.367 . S
C120 C114 1.483 . S
C120 C121 1.382 . S
C120 C122 1.403 . S
C121 H100 0.950 . S
C121 C120 1.382 . S
C121 C137 1.411 . S
C122 C120 1.403 . S
C122 C123 1.489 . S
C122 C136 1.411 . S
C123 C122 1.489 . S
C123 C124 1.383 . S
C123 C128 1.382 . S
C124 H101 0.950 . S
C124 C123 1.383 . S
C124 C125 1.395 . S
C125 H102 0.950 . S
C125 C124 1.395 . S
C125 C126 1.288 . S
C126 C125 1.288 . S
C126 C127 1.392 . S
C127 H103 0.951 . S
C127 C126 1.392 . S
C127 C128 1.392 . S
C128 H104 0.949 . S
C128 C123 1.382 . S
C128 C127 1.392 . S
C129 C130 1.376 . S
C129 C134 1.386 . S
C129 C135 1.483 . S
C130 H105 0.949 . S
C130 C129 1.376 . S
C130 C131 1.397 . S
C131 H106 0.950 . S
C131 C130 1.397 . S
C131 C132 1.391 . S
C132 C131 1.391 . S
C132 C133 1.405 . S
C133 H107 0.950 . S
C133 C132 1.405 . S
C133 C134 1.367 . S
C134 H108 0.950 . S
C134 C129 1.386 . S
C134 C133 1.367 . S
C135 C129 1.483 . S
C135 C136 1.382 . S
C135 C137 1.403 . S
C136 H109 0.950 . S
C136 C122 1.411 . S
C136 C135 1.382 . S
C137 C121 1.411 . S
C137 C135 1.403 . S
C137 C138 1.489 . S
C138 C137 1.489 . S
C138 C139 1.383 . S
C138 C143 1.382 . S
C139 H110 0.950 . S
C139 C138 1.383 . S
C139 C140 1.395 . S
C140 H111 0.950 . S
C140 C139 1.395 . S
C140 C141 1.288 . S
C141 C140 1.288 . S
C141 C142 1.392 . S
C142 H112 0.951 . S
C142 C141 1.392 . S
C142 C143 1.392 . S
C143 H113 0.949 . S
C143 C138 1.382 . S
C143 C142 1.392 . S
H144 C163 0.949 . S
H145 C164 0.950 . S
H146 C166 0.950 . S
H147 C167 0.950 . S
H148 C169 0.950 . S
H149 C172 0.950 . S
H150 C173 0.950 . S
H151 C175 0.951 . S
H152 C176 0.949 . S
H153 C178 0.949 . S
H154 C179 0.950 . S
H155 C181 0.950 . S
H156 C182 0.950 . S
H157 C184 0.950 . S
H158 C187 0.950 . S
H159 C188 0.950 . S
H160 C190 0.951 . S
H161 C191 0.949 . S
C162 C163 1.376 . S
C162 C167 1.386 . S
C162 C168 1.483 . S
C163 H144 0.949 . S
C163 C162 1.376 . S
C163 C164 1.397 . S
C164 H145 0.950 . S
C164 C163 1.397 . S
C164 C165 1.391 . S
C165 C164 1.391 . S
C165 C166 1.405 . S
C166 H146 0.950 . S
C166 C165 1.405 . S
C166 C167 1.367 . S
C167 H147 0.950 . S
C167 C162 1.386 . S
C167 C166 1.367 . S
C168 C162 1.483 . S
C168 C169 1.382 . S
C168 C170 1.403 . S
C169 H148 0.950 . S
C169 C168 1.382 . S
C169 C185 1.411 1_455 S
C170 C168 1.403 . S
C170 C171 1.489 . S
C170 C184 1.411 . S
C171 C170 1.489 . S
C171 C172 1.383 . S
C171 C176 1.382 . S
C172 H149 0.950 . S
C172 C171 1.383 . S
C172 C173 1.395 . S
C173 H150 0.950 . S
C173 C172 1.395 . S
C173 C174 1.288 . S
C174 C173 1.288 . S
C174 C175 1.392 . S
C175 H151 0.951 . S
C175 C174 1.392 . S
C175 C176 1.392 . S
C176 H152 0.949 . S
C176 C171 1.382 . S
C176 C175 1.392 . S
C177 C178 1.376 . S
C177 C182 1.386 . S
C177 C183 1.483 . S
C178 H153 0.949 . S
C178 C177 1.376 . S
C178 C179 1.397 . S
C179 H154 0.950 . S
C179 C178 1.397 . S
C179 C180 1.391 . S
C180 C179 1.391 . S
C180 C181 1.405 . S
C181 H155 0.950 . S
C181 C180 1.405 . S
C181 C182 1.367 . S
C182 H156 0.950 . S
C182 C177 1.386 . S
C182 C181 1.367 . S
C183 C177 1.483 . S
C183 C184 1.382 1_655 S
C183 C185 1.403 . S
C184 H157 0.950 . S
C184 C170 1.411 . S
C184 C183 1.382 1_455 S
C185 C169 1.411 1_655 S
C185 C183 1.403 . S
C185 C186 1.489 . S
C186 C185 1.489 . S
C186 C187 1.383 . S
C186 C191 1.382 . S
C187 H158 0.950 . S
C187 C186 1.383 . S
C187 C188 1.395 . S
C188 H159 0.950 . S
C188 C187 1.395 . S
C188 C189 1.288 . S
C189 C188 1.288 . S
C189 C190 1.392 . S
C190 H160 0.951 . S
C190 C189 1.392 . S
C190 C191 1.392 . S
C191 H161 0.949 . S
C191 C186 1.382 . S
C191 C190 1.392 . S
H192 C211 0.949 . S
H193 C212 0.950 . S
H194 C214 0.950 . S
H195 C215 0.950 1_556 S
H196 C217 0.950 . S
H197 C220 0.950 . S
H198 C221 0.950 . S
H199 C223 0.951 . S
H200 C224 0.949 . S
H201 C226 0.949 . S
H202 C227 0.950 . S
H203 C229 0.950 . S
H204 C230 0.962 . S
H205 C232 0.960 . S
H206 C235 0.950 . S
H207 C236 0.950 . S
H208 C238 0.951 . S
H209 C239 0.949 . S
C210 C211 1.376 . S
C210 C215 1.386 . S
C210 C216 1.489 . S
C211 H192 0.949 . S
C211 C210 1.376 . S
C211 C212 1.397 . S
C212 H193 0.950 . S
C212 C211 1.397 . S
C212 C213 1.391 . S
C213 C212 1.391 . S
C213 C214 1.405 . S
C214 H194 0.950 . S
C214 C213 1.405 . S
C214 C215 1.367 . S
C215 H195 0.950 1_554 S
C215 C210 1.386 . S
C215 C214 1.367 . S
C216 C210 1.489 . S
C216 C217 1.399 . S
C216 C218 1.381 1_554 S
C217 H196 0.950 . S
C217 C216 1.399 . S
C217 C233 1.411 1_545 S
C218 C216 1.381 1_556 S
C218 C219 1.489 . S
C218 C232 1.411 . S
C219 C218 1.489 . S
C219 C220 1.383 . S
C219 C224 1.382 . S
C220 H197 0.950 . S
C220 C219 1.383 . S
C220 C221 1.395 . S
C221 H198 0.950 . S
C221 C220 1.395 . S
C221 C222 1.288 . S
C222 C221 1.288 . S
C222 C223 1.392 . S
C223 H199 0.951 . S
C223 C222 1.392 . S
C223 C224 1.392 . S
C224 H200 0.949 . S
C224 C219 1.382 . S
C224 C223 1.392 . S
C225 C226 1.376 . S
C225 C230 1.386 . S
C225 C231 1.483 . S
C226 H201 0.949 . S
C226 C225 1.376 . S
C226 C227 1.397 . S
C227 H202 0.950 . S
C227 C226 1.397 . S
C227 C228 1.391 . S
C228 C227 1.391 . S
C228 C229 1.405 . S
C229 H203 0.950 . S
C229 C228 1.405 . S
C229 C230 1.367 . S
C230 H204 0.962 . S
C230 C225 1.386 . S
C230 C229 1.367 . S
C231 C225 1.483 . S
C231 C232 1.382 1_565 S
C231 C233 1.403 1_556 S
C232 H205 0.960 . S
C232 C218 1.411 . S
C232 C231 1.382 1_545 S
C233 C217 1.411 1_565 S
C233 C231 1.403 1_554 S
C233 C234 1.489 . S
C234 C233 1.489 . S
C234 C235 1.383 . S
C234 C239 1.382 . S
C235 H206 0.950 . S
C235 C234 1.383 . S
C235 C236 1.395 . S
C236 H207 0.950 . S
C236 C235 1.395 . S
C236 C237 1.288 . S
C237 C236 1.288 . S
C237 C238 1.392 . S
C238 H208 0.951 . S
C238 C237 1.392 . S
C238 C239 1.392 . S
C239 H209 0.949 . S
C239 C234 1.382 . S
C239 C238 1.392 . S
H240 C259 0.949 . S
H241 C260 0.950 . S
H242 C262 0.950 . S
H243 C263 0.950 . S
H244 C265 0.950 . S
H245 C268 0.950 . S
H246 C269 0.950 . S
H247 C271 0.951 . S
H248 C272 0.949 . S
H249 C274 0.949 . S
H250 C275 0.950 . S
H251 C277 0.950 . S
H252 C278 0.950 . S
H253 C280 0.950 . S
H254 C283 0.950 . S
H255 C284 0.950 . S
H256 C286 0.951 . S
H257 C287 0.949 . S
C258 C259 1.376 . S
C258 C263 1.386 . S
C258 C264 1.483 . S
C259 H240 0.949 . S
C259 C258 1.376 . S
C259 C260 1.397 . S
C260 H241 0.950 . S
C260 C259 1.397 . S
C260 C261 1.391 . S
C261 C260 1.391 . S
C261 C262 1.405 . S
C262 H242 0.950 . S
C262 C261 1.405 . S
C262 C263 1.367 . S
C263 H243 0.950 . S
C263 C258 1.386 . S
C263 C262 1.367 . S
C264 C258 1.483 . S
C264 C265 1.382 . S
C264 C266 1.403 . S
C265 H244 0.950 . S
C265 C264 1.382 . S
C265 C281 1.411 . S
C266 C264 1.403 . S
C266 C267 1.489 . S
C266 C280 1.411 . S
C267 C266 1.489 . S
C267 C268 1.383 . S
C267 C272 1.382 . S
C268 H245 0.950 . S
C268 C267 1.383 . S
C268 C269 1.395 . S
C269 H246 0.950 . S
C269 C268 1.395 . S
C269 C270 1.288 . S
C270 C269 1.288 . S
C270 C271 1.392 . S
C271 H247 0.951 . S
C271 C270 1.392 . S
C271 C272 1.392 . S
C272 H248 0.949 . S
C272 C267 1.382 . S
C272 C271 1.392 . S
C273 C274 1.376 . S
C273 C278 1.386 . S
C273 C279 1.483 . S
C274 H249 0.949 . S
C274 C273 1.376 . S
C274 C275 1.397 . S
C275 H250 0.950 . S
C275 C274 1.397 . S
C275 C276 1.391 . S
C276 C275 1.391 . S
C276 C277 1.405 . S
C277 H251 0.950 . S
C277 C276 1.405 . S
C277 C278 1.367 . S
C278 H252 0.950 . S
C278 C273 1.386 . S
C278 C277 1.367 . S
C279 C273 1.483 . S
C279 C280 1.382 . S
C279 C281 1.403 . S
C280 H253 0.950 . S
C280 C266 1.411 . S
C280 C279 1.382 . S
C281 C265 1.411 . S
C281 C279 1.403 . S
C281 C282 1.489 . S
C282 C281 1.489 . S
C282 C283 1.383 . S
C282 C287 1.382 . S
C283 H254 0.950 . S
C283 C282 1.383 . S
C283 C284 1.395 . S
C284 H255 0.950 . S
C284 C283 1.395 . S
C284 C285 1.288 . S
C285 C284 1.288 . S
C285 C286 1.392 . S
C286 H256 0.951 . S
C286 C285 1.392 . S
C286 C287 1.392 . S
C287 H257 0.949 . S
C287 C282 1.382 . S
C287 C286 1.392 . S
Li288 N305 1.990 . S
Li288 O348 1.956 . S
Li288 O349 1.970 . S
Li288 O350 1.961 . S
Li289 N313 1.990 . S
Li289 O348 1.970 . S
Li289 O349 1.956 . S
Li289 O351 1.961 . S
Li290 N335 1.990 . S
Li290 O348 1.961 . S
Li290 O350 1.956 . S
Li290 O351 1.970 . S
Li291 N341 1.990 . S
Li291 O349 1.961 . S
Li291 O350 1.970 . S
Li291 O351 1.956 . S
C292 C294 1.348 . S
C292 C295 1.356 . S
C292 O348 1.325 . S
N293 C296 1.314 . S
N293 C297 1.279 . S
C294 C292 1.348 . S
C294 C296 1.353 . S
C294 H352 0.929 . S
C295 C292 1.356 . S
C295 C297 1.358 . S
C295 H353 0.930 . S
C296 N293 1.314 . S
C296 C294 1.353 . S
C296 H354 0.930 . S
C297 N293 1.279 . S
C297 C295 1.358 . S
C297 H355 0.930 . S
C298 C301 1.348 . S
C298 C302 1.356 . S
C298 O349 1.325 . S
C299 N300 1.279 . S
C299 C302 1.358 . S
C299 H356 0.930 . S
N300 C299 1.279 . S
N300 C303 1.314 . S
C301 C298 1.348 . S
C301 C303 1.353 . S
C301 H357 0.929 . S
C302 C298 1.356 . S
C302 C299 1.358 . S
C302 H358 0.930 . S
C303 N300 1.314 . S
C303 C301 1.353 . S
C303 H359 0.930 . S
C304 N305 1.314 . S
C304 C309 1.353 . S
C304 H310 0.930 . S
N305 Li288 1.990 . S
N305 C304 1.314 . S
N305 C307 1.279 . S
C306 C307 1.358 . S
C306 C308 1.356 . S
C306 H360 0.930 . S
C307 N305 1.279 . S
C307 C306 1.358 . S
C307 H311 0.930 . S
C308 C306 1.356 . S
C308 C309 1.348 . S
C309 C304 1.353 . S
C309 C308 1.348 . S
C309 H361 0.929 . S
H310 C304 0.930 . S
H311 C307 0.930 . S
C312 N313 1.314 . S
C312 C314 1.353 . S
C312 H318 0.930 . S
N313 Li289 1.990 . S
N313 C312 1.314 . S
N313 C316 1.279 . S
C314 C312 1.353 . S
C314 C317 1.348 . S
C314 H362 0.929 . S
C315 C316 1.358 . S
C315 C317 1.356 . S
C315 H363 0.930 . S
C316 N313 1.279 . S
C316 C315 1.358 . S
C316 H319 0.930 . S
C317 C314 1.348 . S
C317 C315 1.356 . S
H318 C312 0.930 . S
H319 C316 0.930 . S
C320 C322 1.348 . S
C320 C323 1.356 . S
C320 O350 1.325 . S
N321 C324 1.314 . S
N321 C325 1.279 . S
C322 C320 1.348 . S
C322 C324 1.353 . S
C322 H364 0.929 . S
C323 C320 1.356 . S
C323 C325 1.358 . S
C323 H365 0.930 . S
C324 N321 1.314 . S
C324 C322 1.353 . S
C324 H366 0.930 . S
C325 N321 1.279 . S
C325 C323 1.358 . S
C325 H367 0.930 . S
C326 C327 1.348 . S
C326 C328 1.356 . S
C326 O351 1.325 . S
C327 C326 1.348 . S
C327 C329 1.353 . S
C327 H368 0.929 . S
C328 C326 1.356 . S
C328 C330 1.358 . S
C328 H369 0.930 . S
C329 C327 1.353 . S
C329 N331 1.314 . S
C329 H370 0.930 . S
C330 C328 1.358 . S
C330 N331 1.279 . S
C330 H371 0.930 . S
N331 C329 1.314 . S
N331 C330 1.279 . S
C332 C334 1.353 . S
C332 N335 1.314 . S
C332 H338 0.930 . S
C333 N335 1.279 . S
C333 C336 1.358 . S
C333 H339 0.930 . S
C334 C332 1.353 . S
C334 C337 1.348 . S
C334 H372 0.929 . S
N335 Li290 1.990 . S
N335 C332 1.314 . S
N335 C333 1.279 . S
C336 C333 1.358 . S
C336 C337 1.356 . S
C336 H373 0.930 . S
C337 C334 1.348 . S
C337 C336 1.356 . S
H338 C332 0.930 . S
H339 C333 0.930 . S
C340 N341 1.314 . S
C340 C342 1.353 . S
C340 H346 0.930 . S
N341 Li291 1.990 . S
N341 C340 1.314 . S
N341 C344 1.279 . S
C342 C340 1.353 . S
C342 C345 1.348 . S
C342 H374 0.929 . S
C343 C344 1.358 . S
C343 C345 1.356 . S
C343 H375 0.930 . S
C344 N341 1.279 . S
C344 C343 1.358 . S
C344 H347 0.930 . S
C345 C342 1.348 . S
C345 C343 1.356 . S
H346 C340 0.930 . S
H347 C344 0.930 . S
O348 Li288 1.956 . S
O348 Li289 1.970 . S
O348 Li290 1.961 . S
O348 C292 1.325 . S
O349 Li288 1.970 . S
O349 Li289 1.956 . S
O349 Li291 1.961 . S
O349 C298 1.325 . S
O350 Li288 1.961 . S
O350 Li290 1.956 . S
O350 Li291 1.970 . S
O350 C320 1.325 . S
O351 Li289 1.961 . S
O351 Li290 1.970 . S
O351 Li291 1.956 . S
O351 C326 1.325 . S
H352 C294 0.929 . S
H353 C295 0.930 . S
H354 C296 0.930 . S
H355 C297 0.930 . S
H356 C299 0.930 . S
H357 C301 0.929 . S
H358 C302 0.930 . S
H359 C303 0.930 . S
H360 C306 0.930 . S
H361 C309 0.929 . S
H362 C314 0.929 . S
H363 C315 0.930 . S
H364 C322 0.929 . S
H365 C323 0.930 . S
H366 C324 0.930 . S
H367 C325 0.930 . S
H368 C327 0.929 . S
H369 C328 0.930 . S
H370 C329 0.930 . S
H371 C330 0.930 . S
H372 C334 0.929 . S
H373 C336 0.930 . S
H374 C342 0.929 . S
H375 C343 0.930 . S
Li376 N393 1.990 . S
Li376 O436 1.956 . S
Li376 O437 1.970 . S
Li376 O438 1.961 . S
Li377 N401 1.990 . S
Li377 O436 1.970 . S
Li377 O437 1.956 . S
Li377 O439 1.961 . S
Li378 N423 1.990 . S
Li378 O436 1.961 . S
Li378 O438 1.956 . S
Li378 O439 1.970 . S
Li379 N429 1.990 . S
Li379 O437 1.961 . S
Li379 O438 1.970 . S
Li379 O439 1.956 . S
C380 C382 1.348 . S
C380 C383 1.356 . S
C380 O436 1.325 . S
N381 C384 1.314 . S
N381 C385 1.279 . S
C382 C380 1.348 . S
C382 C384 1.353 . S
C382 H440 0.929 . S
C383 C380 1.356 . S
C383 C385 1.358 . S
C383 H441 0.930 . S
C384 N381 1.314 . S
C384 C382 1.353 . S
C384 H442 0.930 . S
C385 N381 1.279 . S
C385 C383 1.358 . S
C385 H443 0.930 . S
C386 C389 1.348 . S
C386 C390 1.356 . S
C386 O437 1.325 . S
C387 N388 1.279 . S
C387 C390 1.358 . S
C387 H444 0.930 . S
N388 C387 1.279 . S
N388 C391 1.314 . S
C389 C386 1.348 . S
C389 C391 1.353 . S
C389 H445 0.929 . S
C390 C386 1.356 . S
C390 C387 1.358 . S
C390 H446 0.930 . S
C391 N388 1.314 . S
C391 C389 1.353 . S
C391 H447 0.930 . S
C392 N393 1.314 . S
C392 C397 1.353 . S
C392 H398 0.930 . S
N393 Li376 1.990 . S
N393 C392 1.314 . S
N393 C395 1.279 . S
C394 C395 1.358 . S
C394 C396 1.356 . S
C394 H448 0.930 . S
C395 N393 1.279 . S
C395 C394 1.358 . S
C395 H399 0.930 . S
C396 C394 1.356 . S
C396 C397 1.348 . S
C397 C392 1.353 . S
C397 C396 1.348 . S
C397 H449 0.929 . S
H398 C392 0.930 . S
H399 C395 0.930 . S
C400 N401 1.314 . S
C400 C402 1.353 . S
C400 H406 0.930 . S
N401 Li377 1.990 . S
N401 C400 1.314 . S
N401 C404 1.279 . S
C402 C400 1.353 . S
C402 C405 1.348 . S
C402 H450 0.929 . S
C403 C404 1.358 . S
C403 C405 1.356 . S
C403 H451 0.930 . S
C404 N401 1.279 . S
C404 C403 1.358 . S
C404 H407 0.930 . S
C405 C402 1.348 . S
C405 C403 1.356 . S
H406 C400 0.930 . S
H407 C404 0.930 . S
C408 C410 1.348 . S
C408 C411 1.356 . S
C408 O438 1.325 . S
N409 C412 1.314 . S
N409 C413 1.279 . S
C410 C408 1.348 . S
C410 C412 1.353 . S
C410 H452 0.929 . S
C411 C408 1.356 . S
C411 C413 1.358 . S
C411 H453 0.930 . S
C412 N409 1.314 . S
C412 C410 1.353 . S
C412 H454 0.930 . S
C413 N409 1.279 . S
C413 C411 1.358 . S
C413 H455 0.930 . S
C414 C415 1.348 . S
C414 C416 1.356 . S
C414 O439 1.325 . S
C415 C414 1.348 . S
C415 C417 1.353 . S
C415 H456 0.929 . S
C416 C414 1.356 . S
C416 C418 1.358 . S
C416 H457 0.930 . S
C417 C415 1.353 . S
C417 N419 1.314 . S
C417 H458 0.930 . S
C418 C416 1.358 . S
C418 N419 1.279 . S
C418 H459 0.930 . S
N419 C417 1.314 . S
N419 C418 1.279 . S
C420 C422 1.353 . S
C420 N423 1.314 . S
C420 H426 0.930 . S
C421 N423 1.279 . S
C421 C424 1.358 . S
C421 H427 0.930 . S
C422 C420 1.353 . S
C422 C425 1.348 . S
C422 H460 0.929 . S
N423 Li378 1.990 . S
N423 C420 1.314 . S
N423 C421 1.279 . S
C424 C421 1.358 . S
C424 C425 1.356 . S
C424 H461 0.930 . S
C425 C422 1.348 . S
C425 C424 1.356 . S
H426 C420 0.930 . S
H427 C421 0.930 . S
C428 N429 1.314 . S
C428 C430 1.353 . S
C428 H434 0.930 . S
N429 Li379 1.990 . S
N429 C428 1.314 . S
N429 C432 1.279 . S
C430 C428 1.353 . S
C430 C433 1.348 . S
C430 H462 0.929 . S
C431 C432 1.358 . S
C431 C433 1.356 . S
C431 H463 0.930 . S
C432 N429 1.279 . S
C432 C431 1.358 . S
C432 H435 0.930 . S
C433 C430 1.348 . S
C433 C431 1.356 . S
H434 C428 0.930 . S
H435 C432 0.930 . S
O436 Li376 1.956 . S
O436 Li377 1.970 . S
O436 Li378 1.961 . S
O436 C380 1.325 . S
O437 Li376 1.970 . S
O437 Li377 1.956 . S
O437 Li379 1.961 . S
O437 C386 1.325 . S
O438 Li376 1.961 . S
O438 Li378 1.956 . S
O438 Li379 1.970 . S
O438 C408 1.325 . S
O439 Li377 1.961 . S
O439 Li378 1.970 . S
O439 Li379 1.956 . S
O439 C414 1.325 . S
H440 C382 0.929 . S
H441 C383 0.930 . S
H442 C384 0.930 . S
H443 C385 0.930 . S
H444 C387 0.930 . S
H445 C389 0.929 . S
H446 C390 0.930 . S
H447 C391 0.930 . S
H448 C394 0.930 . S
H449 C397 0.929 . S
H450 C402 0.929 . S
H451 C403 0.930 . S
H452 C410 0.929 . S
H453 C411 0.930 . S
H454 C412 0.930 . S
H455 C413 0.930 . S
H456 C415 0.929 . S
H457 C416 0.930 . S
H458 C417 0.930 . S
H459 C418 0.930 . S
H460 C422 0.929 . S
H461 C424 0.930 . S
H462 C430 0.929 . S
H463 C431 0.930 . S
Li464 N481 1.990 . S
Li464 O524 1.956 . S
Li464 O525 1.970 . S
Li464 O526 1.961 . S
Li465 N489 1.990 . S
Li465 O524 1.970 . S
Li465 O525 1.956 . S
Li465 O527 1.961 . S
Li466 N511 1.990 . S
Li466 O524 1.961 . S
Li466 O526 1.956 . S
Li466 O527 1.970 . S
Li467 N517 1.990 . S
Li467 O525 1.961 . S
Li467 O526 1.970 . S
Li467 O527 1.956 . S
C468 C470 1.348 . S
C468 C471 1.356 . S
C468 O524 1.325 . S
N469 C472 1.314 . S
N469 C473 1.279 . S
C470 C468 1.348 . S
C470 C472 1.353 . S
C470 H528 0.929 . S
C471 C468 1.356 . S
C471 C473 1.358 . S
C471 H529 0.930 . S
C472 N469 1.314 . S
C472 C470 1.353 . S
C472 H530 0.930 . S
C473 N469 1.279 . S
C473 C471 1.358 . S
C473 H531 0.930 . S
C474 C477 1.348 . S
C474 C478 1.356 . S
C474 O525 1.325 . S
C475 N476 1.279 . S
C475 C478 1.358 . S
C475 H532 0.930 . S
N476 C475 1.279 . S
N476 C479 1.314 . S
C477 C474 1.348 . S
C477 C479 1.353 . S
C477 H533 0.929 . S
C478 C474 1.356 . S
C478 C475 1.358 . S
C478 H534 0.930 . S
C479 N476 1.314 . S
C479 C477 1.353 . S
C479 H535 0.930 . S
C480 N481 1.314 . S
C480 C485 1.353 . S
C480 H486 0.930 . S
N481 Li464 1.990 . S
N481 C480 1.314 . S
N481 C483 1.279 . S
C482 C483 1.358 . S
C482 C484 1.356 . S
C482 H536 0.930 . S
C483 N481 1.279 . S
C483 C482 1.358 . S
C483 H487 0.930 . S
C484 C482 1.356 . S
C484 C485 1.348 . S
C485 C480 1.353 . S
C485 C484 1.348 . S
C485 H537 0.929 . S
H486 C480 0.930 . S
H487 C483 0.930 . S
C488 N489 1.314 . S
C488 C490 1.353 . S
C488 H494 0.930 . S
N489 Li465 1.990 . S
N489 C488 1.314 . S
N489 C492 1.279 . S
C490 C488 1.353 . S
C490 C493 1.348 . S
C490 H538 0.929 . S
C491 C492 1.358 . S
C491 C493 1.356 . S
C491 H539 0.930 . S
C492 N489 1.279 . S
C492 C491 1.358 . S
C492 H495 0.930 . S
C493 C490 1.348 . S
C493 C491 1.356 . S
H494 C488 0.930 . S
H495 C492 0.930 . S
C496 C498 1.348 . S
C496 C499 1.356 . S
C496 O526 1.325 . S
N497 C500 1.314 . S
N497 C501 1.279 . S
C498 C496 1.348 . S
C498 C500 1.353 . S
C498 H540 0.929 . S
C499 C496 1.356 . S
C499 C501 1.358 . S
C499 H541 0.930 . S
C500 N497 1.314 . S
C500 C498 1.353 . S
C500 H542 0.930 . S
C501 N497 1.279 . S
C501 C499 1.358 . S
C501 H543 0.930 . S
C502 C503 1.348 . S
C502 C504 1.356 . S
C502 O527 1.325 . S
C503 C502 1.348 . S
C503 C505 1.353 . S
C503 H544 0.929 . S
C504 C502 1.356 . S
C504 C506 1.358 . S
C504 H545 0.930 . S
C505 C503 1.353 . S
C505 N507 1.314 . S
C505 H546 0.930 . S
C506 C504 1.358 . S
C506 N507 1.279 . S
C506 H547 0.930 . S
N507 C505 1.314 . S
N507 C506 1.279 . S
C508 C510 1.353 . S
C508 N511 1.314 . S
C508 H514 0.930 . S
C509 N511 1.279 . S
C509 C512 1.358 . S
C509 H515 0.930 . S
C510 C508 1.353 . S
C510 C513 1.348 . S
C510 H548 0.929 . S
N511 Li466 1.990 . S
N511 C508 1.314 . S
N511 C509 1.279 . S
C512 C509 1.358 . S
C512 C513 1.356 . S
C512 H549 0.930 . S
C513 C510 1.348 . S
C513 C512 1.356 . S
H514 C508 0.930 . S
H515 C509 0.930 . S
C516 N517 1.314 . S
C516 C518 1.353 . S
C516 H522 0.930 . S
N517 Li467 1.990 . S
N517 C516 1.314 . S
N517 C520 1.279 . S
C518 C516 1.353 . S
C518 C521 1.348 . S
C518 H550 0.929 . S
C519 C520 1.358 . S
C519 C521 1.356 . S
C519 H551 0.930 . S
C520 N517 1.279 . S
C520 C519 1.358 . S
C520 H523 0.930 . S
C521 C518 1.348 . S
C521 C519 1.356 . S
H522 C516 0.930 . S
H523 C520 0.930 . S
O524 Li464 1.956 . S
O524 Li465 1.970 . S
O524 Li466 1.961 . S
O524 C468 1.325 . S
O525 Li464 1.970 . S
O525 Li465 1.956 . S
O525 Li467 1.961 . S
O525 C474 1.325 . S
O526 Li464 1.961 . S
O526 Li466 1.956 . S
O526 Li467 1.970 . S
O526 C496 1.325 . S
O527 Li465 1.961 . S
O527 Li466 1.970 . S
O527 Li467 1.956 . S
O527 C502 1.325 . S
H528 C470 0.929 . S
H529 C471 0.930 . S
H530 C472 0.930 . S
H531 C473 0.930 . S
H532 C475 0.930 . S
H533 C477 0.929 . S
H534 C478 0.930 . S
H535 C479 0.930 . S
H536 C482 0.930 . S
H537 C485 0.929 . S
H538 C490 0.929 . S
H539 C491 0.930 . S
H540 C498 0.929 . S
H541 C499 0.930 . S
H542 C500 0.930 . S
H543 C501 0.930 . S
H544 C503 0.929 . S
H545 C504 0.930 . S
H546 C505 0.930 . S
H547 C506 0.930 . S
H548 C510 0.929 . S
H549 C512 0.930 . S
H550 C518 0.929 . S
H551 C519 0.930 . S
Li552 N569 1.990 . S
Li552 O612 1.956 . S
Li552 O613 1.970 . S
Li552 O614 1.961 . S
Li553 N577 1.990 . S
Li553 O612 1.970 . S
Li553 O613 1.956 . S
Li553 O615 1.961 . S
Li554 N599 1.990 . S
Li554 O612 1.961 . S
Li554 O614 1.956 . S
Li554 O615 1.970 . S
Li555 N605 1.990 . S
Li555 O613 1.961 . S
Li555 O614 1.970 . S
Li555 O615 1.956 . S
C556 C558 1.348 . S
C556 C559 1.356 . S
C556 O612 1.325 . S
N557 C560 1.321 . S
N557 C561 1.288 . S
C558 C556 1.348 . S
C558 C560 1.353 . S
C558 H616 0.929 . S
C559 C556 1.356 . S
C559 C561 1.358 . S
C559 H617 0.930 . S
C560 N557 1.321 . S
C560 C558 1.353 . S
C560 H618 0.930 . S
C561 N557 1.288 . S
C561 C559 1.358 . S
C561 H619 0.930 . S
C562 C565 1.348 . S
C562 C566 1.356 . S
C562 O613 1.325 . S
C563 N564 1.279 . S
C563 C566 1.358 . S
C563 H620 0.930 . S
N564 C563 1.279 . S
N564 C567 1.314 . S
C565 C562 1.348 . S
C565 C567 1.353 . S
C565 H621 0.929 . S
C566 C562 1.356 . S
C566 C563 1.358 . S
C566 H622 0.930 . S
C567 N564 1.314 . S
C567 C565 1.353 . S
C567 H623 0.930 . S
C568 N569 1.314 . S
C568 C573 1.353 . S
C568 H574 0.930 . S
N569 Li552 1.990 . S
N569 C568 1.314 . S
N569 C571 1.279 . S
C570 C571 1.358 1_554 S
C570 C572 1.356 . S
C570 H624 0.930 . S
C571 N569 1.279 . S
C571 C570 1.358 1_556 S
C571 H575 0.930 . S
C572 C570 1.356 . S
C572 C573 1.348 1_554 S
C573 C568 1.353 . S
C573 C572 1.348 1_556 S
C573 H625 0.929 . S
H574 C568 0.930 . S
H575 C571 0.930 . S
C576 N577 1.314 . S
C576 C578 1.353 . S
C576 H582 0.930 . S
N577 Li553 1.990 . S
N577 C576 1.314 . S
N577 C580 1.279 . S
C578 C576 1.353 . S
C578 C581 1.348 . S
C578 H626 0.929 . S
C579 C580 1.358 . S
C579 C581 1.356 . S
C579 H627 0.930 . S
C580 N577 1.279 . S
C580 C579 1.358 . S
C580 H583 0.930 . S
C581 C578 1.348 . S
C581 C579 1.356 . S
H582 C576 0.930 . S
H583 C580 0.930 . S
C584 C586 1.348 . S
C584 C587 1.356 . S
C584 O614 1.325 . S
N585 C588 1.314 . S
N585 C589 1.279 . S
C586 C584 1.348 . S
C586 C588 1.353 . S
C586 H628 0.929 . S
C587 C584 1.356 . S
C587 C589 1.358 . S
C587 H629 0.930 . S
C588 N585 1.314 . S
C588 C586 1.353 . S
C588 H630 0.930 . S
C589 N585 1.279 . S
C589 C587 1.358 . S
C589 H631 0.930 . S
C590 C591 1.348 . S
C590 C592 1.356 . S
C590 O615 1.325 . S
C591 C590 1.348 . S
C591 C593 1.353 . S
C591 H632 0.929 . S
C592 C590 1.356 . S
C592 C594 1.358 . S
C592 H633 0.930 . S
C593 C591 1.353 . S
C593 N595 1.314 . S
C593 H634 0.930 . S
C594 C592 1.358 . S
C594 N595 1.279 . S
C594 H635 0.930 . S
N595 C593 1.314 . S
N595 C594 1.279 . S
C596 C598 1.353 . S
C596 N599 1.314 . S
C596 H602 0.930 . S
C597 N599 1.279 . S
C597 C600 1.358 . S
C597 H603 0.930 . S
C598 C596 1.353 . S
C598 C601 1.348 . S
C598 H636 0.929 . S
N599 Li554 1.990 . S
N599 C596 1.314 . S
N599 C597 1.279 . S
C600 C597 1.358 . S
C600 C601 1.356 . S
C600 H637 0.930 . S
C601 C598 1.348 . S
C601 C600 1.356 . S
H602 C596 0.930 . S
H603 C597 0.930 . S
C604 N605 1.314 . S
C604 C606 1.353 . S
C604 H610 0.930 . S
N605 Li555 1.990 . S
N605 C604 1.314 . S
N605 C608 1.279 . S
C606 C604 1.353 . S
C606 C609 1.348 . S
C606 H638 0.929 . S
C607 C608 1.358 . S
C607 C609 1.356 . S
C607 H639 0.930 . S
C608 N605 1.279 . S
C608 C607 1.358 . S
C608 H611 0.930 . S
C609 C606 1.348 . S
C609 C607 1.356 . S
H610 C604 0.930 . S
H611 C608 0.930 . S
O612 Li552 1.956 . S
O612 Li553 1.970 . S
O612 Li554 1.961 . S
O612 C556 1.325 . S
O613 Li552 1.970 . S
O613 Li553 1.956 . S
O613 Li555 1.961 . S
O613 C562 1.325 . S
O614 Li552 1.961 . S
O614 Li554 1.956 . S
O614 Li555 1.970 . S
O614 C584 1.325 . S
O615 Li553 1.961 . S
O615 Li554 1.970 . S
O615 Li555 1.956 . S
O615 C590 1.325 . S
H616 C558 0.929 . S
H617 C559 0.930 . S
H618 C560 0.930 . S
H619 C561 0.930 . S
H620 C563 0.930 . S
H621 C565 0.929 . S
H622 C566 0.930 . S
H623 C567 0.930 . S
H624 C570 0.930 . S
H625 C573 0.929 . S
H626 C578 0.929 . S
H627 C579 0.930 . S
H628 C586 0.929 . S
H629 C587 0.930 . S
H630 C588 0.930 . S
H631 C589 0.930 . S
H632 C591 0.929 . S
H633 C592 0.930 . S
H634 C593 0.930 . S
H635 C594 0.930 . S
H636 C598 0.929 . S
H637 C600 0.930 . S
H638 C606 0.929 . S
H639 C607 0.930 . S
Li640 N657 1.990 . S
Li640 O700 1.956 . S
Li640 O701 1.970 . S
Li640 O702 1.961 . S
Li641 N665 1.990 . S
Li641 O700 1.970 . S
Li641 O701 1.956 . S
Li641 O703 1.961 . S
Li642 N687 1.990 . S
Li642 O700 1.961 . S
Li642 O702 1.956 . S
Li642 O703 1.970 . S
Li643 N693 1.990 . S
Li643 O701 1.961 . S
Li643 O702 1.970 . S
Li643 O703 1.956 . S
C644 C646 1.348 . S
C644 C647 1.356 . S
C644 O700 1.325 . S
N645 C648 1.314 . S
N645 C649 1.279 . S
C646 C644 1.348 . S
C646 C648 1.353 . S
C646 H704 0.929 . S
C647 C644 1.356 . S
C647 C649 1.358 . S
C647 H705 0.930 . S
C648 N645 1.314 . S
C648 C646 1.353 . S
C648 H706 0.930 . S
C649 N645 1.279 . S
C649 C647 1.358 . S
C649 H707 0.930 . S
C650 C653 1.348 . S
C650 C654 1.356 . S
C650 O701 1.325 . S
C651 N652 1.279 . S
C651 C654 1.358 . S
C651 H708 0.930 . S
N652 C651 1.279 . S
N652 C655 1.314 . S
C653 C650 1.348 . S
C653 C655 1.353 . S
C653 H709 0.929 . S
C654 C650 1.356 . S
C654 C651 1.358 . S
C654 H710 0.930 . S
C655 N652 1.314 . S
C655 C653 1.353 . S
C655 H711 0.930 . S
C656 N657 1.314 . S
C656 C661 1.353 . S
C656 H662 0.930 . S
N657 Li640 1.990 . S
N657 C656 1.314 . S
N657 C659 1.279 . S
C658 C659 1.358 . S
C658 C660 1.356 . S
C658 H712 0.930 . S
C659 N657 1.279 . S
C659 C658 1.358 . S
C659 H663 0.930 . S
C660 C658 1.356 . S
C660 C661 1.348 . S
C661 C656 1.353 . S
C661 C660 1.348 . S
C661 H713 0.929 . S
H662 C656 0.930 . S
H663 C659 0.930 . S
C664 N665 1.314 . S
C664 C666 1.353 . S
C664 H670 0.930 . S
N665 Li641 1.990 . S
N665 C664 1.314 . S
N665 C668 1.279 . S
C666 C664 1.353 . S
C666 C669 1.348 . S
C666 H714 0.929 . S
C667 C668 1.358 . S
C667 C669 1.356 . S
C667 H715 0.930 . S
C668 N665 1.279 . S
C668 C667 1.358 . S
C668 H671 0.930 . S
C669 C666 1.348 . S
C669 C667 1.356 . S
H670 C664 0.930 . S
H671 C668 0.930 . S
C672 C674 1.348 . S
C672 C675 1.356 . S
C672 O702 1.325 . S
N673 C676 1.314 1_556 S
N673 C677 1.279 1_556 S
C674 C672 1.348 . S
C674 C676 1.353 . S
C674 H716 0.929 . S
C675 C672 1.356 . S
C675 C677 1.358 . S
C675 H717 0.930 . S
C676 N673 1.314 1_554 S
C676 C674 1.353 . S
C676 H718 0.930 1_554 S
C677 N673 1.279 1_554 S
C677 C675 1.358 . S
C677 H719 0.930 1_554 S
C678 C679 1.348 . S
C678 C680 1.356 . S
C678 O703 1.325 . S
C679 C678 1.348 . S
C679 C681 1.353 . S
C679 H720 0.929 . S
C680 C678 1.356 . S
C680 C682 1.358 . S
C680 H721 0.930 . S
C681 C679 1.353 . S
C681 N683 1.314 . S
C681 H722 0.930 . S
C682 C680 1.358 . S
C682 N683 1.279 . S
C682 H723 0.930 . S
N683 C681 1.314 . S
N683 C682 1.279 . S
C684 C686 1.353 . S
C684 N687 1.314 . S
C684 H690 0.930 . S
C685 N687 1.279 . S
C685 C688 1.358 1_554 S
C685 H691 0.938 . S
C686 C684 1.353 . S
C686 C689 1.348 1_554 S
C686 H724 0.929 . S
N687 Li642 1.990 . S
N687 C684 1.314 . S
N687 C685 1.279 . S
C688 C685 1.358 1_556 S
C688 C689 1.356 . S
C688 H725 0.930 . S
C689 C686 1.348 1_556 S
C689 C688 1.356 . S
H690 C684 0.930 . S
H691 C685 0.938 . S
C692 N693 1.314 . S
C692 C694 1.353 . S
C692 H698 0.930 . S
N693 Li643 1.990 . S
N693 C692 1.314 . S
N693 C696 1.279 . S
C694 C692 1.353 . S
C694 C697 1.348 . S
C694 H726 0.929 . S
C695 C696 1.358 . S
C695 C697 1.356 . S
C695 H727 0.930 . S
C696 N693 1.279 . S
C696 C695 1.358 . S
C696 H699 0.930 . S
C697 C694 1.348 . S
C697 C695 1.356 . S
H698 C692 0.930 . S
H699 C696 0.930 . S
O700 Li640 1.956 . S
O700 Li641 1.970 . S
O700 Li642 1.961 . S
O700 C644 1.325 . S
O701 Li640 1.970 . S
O701 Li641 1.956 . S
O701 Li643 1.961 . S
O701 C650 1.325 . S
O702 Li640 1.961 . S
O702 Li642 1.956 . S
O702 Li643 1.970 . S
O702 C672 1.325 . S
O703 Li641 1.961 . S
O703 Li642 1.970 . S
O703 Li643 1.956 . S
O703 C678 1.325 . S
H704 C646 0.929 . S
H705 C647 0.930 . S
H706 C648 0.930 . S
H707 C649 0.930 . S
H708 C651 0.930 . S
H709 C653 0.929 . S
H710 C654 0.930 . S
H711 C655 0.930 . S
H712 C658 0.930 . S
H713 C661 0.929 . S
H714 C666 0.929 . S
H715 C667 0.930 . S
H716 C674 0.929 . S
H717 C675 0.930 . S
H718 C676 0.930 1_556 S
H719 C677 0.930 1_556 S
H720 C679 0.929 . S
H721 C680 0.930 . S
H722 C681 0.930 . S
H723 C682 0.930 . S
H724 C686 0.929 . S
H725 C688 0.930 . S
H726 C694 0.929 . S
H727 C695 0.930 . S
Li728 N745 1.990 . S
Li728 O788 1.956 . S
Li728 O789 1.970 . S
Li728 O790 1.961 . S
Li729 N753 1.990 . S
Li729 O788 1.970 . S
Li729 O789 1.956 . S
Li729 O791 1.961 . S
Li730 N775 1.990 . S
Li730 O788 1.961 . S
Li730 O790 1.956 . S
Li730 O791 1.970 . S
Li731 N781 1.990 . S
Li731 O789 1.961 . S
Li731 O790 1.970 . S
Li731 O791 1.956 . S
C732 C734 1.348 . S
C732 C735 1.356 . S
C732 O788 1.325 . S
N733 C736 1.314 . S
N733 C737 1.279 . S
C734 C732 1.348 . S
C734 C736 1.353 . S
C734 H792 0.929 . S
C735 C732 1.356 . S
C735 C737 1.358 . S
C735 H793 0.930 . S
C736 N733 1.314 . S
C736 C734 1.353 . S
C736 H794 0.930 . S
C737 N733 1.279 . S
C737 C735 1.358 . S
C737 H795 0.930 . S
C738 C741 1.348 . S
C738 C742 1.356 . S
C738 O789 1.325 . S
C739 N740 1.279 . S
C739 C742 1.358 . S
C739 H796 0.930 . S
N740 C739 1.279 . S
N740 C743 1.314 . S
C741 C738 1.348 . S
C741 C743 1.353 . S
C741 H797 0.929 . S
C742 C738 1.356 . S
C742 C739 1.358 . S
C742 H798 0.930 . S
C743 N740 1.314 . S
C743 C741 1.353 . S
C743 H799 0.930 . S
C744 N745 1.314 . S
C744 C749 1.353 . S
C744 H750 0.930 . S
N745 Li728 1.990 . S
N745 C744 1.314 . S
N745 C747 1.279 . S
C746 C747 1.358 . S
C746 C748 1.356 . S
C746 H800 0.930 . S
C747 N745 1.279 . S
C747 C746 1.358 . S
C747 H751 0.930 . S
C748 C746 1.356 . S
C748 C749 1.348 . S
C749 C744 1.353 . S
C749 C748 1.348 . S
C749 H801 0.929 . S
H750 C744 0.930 . S
H751 C747 0.930 . S
C752 N753 1.314 . S
C752 C754 1.353 . S
C752 H758 0.930 . S
N753 Li729 1.990 . S
N753 C752 1.314 . S
N753 C756 1.279 . S
C754 C752 1.353 . S
C754 C757 1.348 . S
C754 H802 0.929 . S
C755 C756 1.358 . S
C755 C757 1.356 . S
C755 H803 0.930 . S
C756 N753 1.279 . S
C756 C755 1.358 . S
C756 H759 0.930 . S
C757 C754 1.348 . S
C757 C755 1.356 . S
H758 C752 0.930 . S
H759 C756 0.930 . S
C760 C762 1.348 . S
C760 C763 1.356 . S
C760 O790 1.325 . S
N761 C764 1.314 . S
N761 C765 1.279 . S
C762 C760 1.348 . S
C762 C764 1.353 . S
C762 H804 0.929 . S
C763 C760 1.356 . S
C763 C765 1.358 . S
C763 H805 0.930 . S
C764 N761 1.314 . S
C764 C762 1.353 . S
C764 H806 0.930 . S
C765 N761 1.279 . S
C765 C763 1.358 . S
C765 H807 0.930 . S
C766 C767 1.348 . S
C766 C768 1.356 . S
C766 O791 1.325 . S
C767 C766 1.348 . S
C767 C769 1.353 . S
C767 H808 0.929 . S
C768 C766 1.356 . S
C768 C770 1.358 . S
C768 H809 0.930 . S
C769 C767 1.353 . S
C769 N771 1.314 . S
C769 H810 0.930 . S
C770 C768 1.358 . S
C770 N771 1.279 . S
C770 H811 0.930 . S
N771 C769 1.314 . S
N771 C770 1.279 . S
C772 C774 1.353 . S
C772 N775 1.314 . S
C772 H778 0.930 . S
C773 N775 1.279 . S
C773 C776 1.358 . S
C773 H779 0.930 . S
C774 C772 1.353 . S
C774 C777 1.348 . S
C774 H812 0.929 . S
N775 Li730 1.990 . S
N775 C772 1.314 . S
N775 C773 1.279 . S
C776 C773 1.358 . S
C776 C777 1.356 . S
C776 H813 0.930 . S
C777 C774 1.348 . S
C777 C776 1.356 . S
H778 C772 0.930 . S
H779 C773 0.930 . S
C780 N781 1.314 . S
C780 C782 1.353 . S
C780 H786 0.930 . S
N781 Li731 1.990 . S
N781 C780 1.314 . S
N781 C784 1.279 . S
C782 C780 1.353 . S
C782 C785 1.348 . S
C782 H814 0.929 . S
C783 C784 1.358 . S
C783 C785 1.356 . S
C783 H815 0.930 . S
C784 N781 1.279 . S
C784 C783 1.358 . S
C784 H787 0.930 . S
C785 C782 1.348 . S
C785 C783 1.356 . S
H786 C780 0.930 . S
H787 C784 0.930 . S
O788 Li728 1.956 . S
O788 Li729 1.970 . S
O788 Li730 1.961 . S
O788 C732 1.325 . S
O789 Li728 1.970 . S
O789 Li729 1.956 . S
O789 Li731 1.961 . S
O789 C738 1.325 . S
O790 Li728 1.961 . S
O790 Li730 1.956 . S
O790 Li731 1.970 . S
O790 C760 1.325 . S
O791 Li729 1.961 . S
O791 Li730 1.970 . S
O791 Li731 1.956 . S
O791 C766 1.325 . S
H792 C734 0.929 . S
H793 C735 0.930 . S
H794 C736 0.930 . S
H795 C737 0.930 . S
H796 C739 0.930 . S
H797 C741 0.929 . S
H798 C742 0.930 . S
H799 C743 0.930 . S
H800 C746 0.930 . S
H801 C749 0.929 . S
H802 C754 0.929 . S
H803 C755 0.930 . S
H804 C762 0.929 . S
H805 C763 0.930 . S
H806 C764 0.930 . S
H807 C765 0.930 . S
H808 C767 0.929 . S
H809 C768 0.930 . S
H810 C769 0.930 . S
H811 C770 0.930 . S
H812 C774 0.929 . S
H813 C776 0.930 . S
H814 C782 0.929 . S
H815 C783 0.930 . S
C816 C817 1.387 . S
C816 H820 0.950 . S
C816 C825 1.390 . S
C817 C816 1.387 . S
C817 C819 1.387 . S
H818 C825 0.950 . S
C819 C817 1.387 . S
C819 C821 1.390 . S
C819 H823 0.950 . S
H820 C816 0.950 . S
C821 C819 1.390 . S
C821 C822 1.387 . S
C821 H824 0.950 . S
C822 C821 1.387 . S
C822 C825 1.387 . S
H823 C819 0.950 . S
H824 C821 0.950 . S
C825 C816 1.390 . S
C825 H818 0.950 . S
C825 C822 1.387 . S
C826 C827 1.387 . S
C826 H830 0.950 . S
C826 C835 1.390 . S
C827 C826 1.387 . S
C827 C829 1.387 . S
H828 C835 0.950 . S
C829 C827 1.387 . S
C829 C831 1.390 . S
C829 H833 0.950 . S
H830 C826 0.950 . S
C831 C829 1.390 . S
C831 C832 1.387 . S
C831 H834 0.950 . S
C832 C831 1.387 . S
C832 C835 1.387 . S
H833 C829 0.950 . S
H834 C831 0.950 . S
C835 C826 1.390 . S
C835 H828 0.950 . S
C835 C832 1.387 . S
C836 C837 1.387 . S
C836 H840 0.950 . S
C836 C845 1.390 . S
C837 C836 1.387 . S
C837 C839 1.387 . S
H838 C845 0.950 . S
C839 C837 1.387 . S
C839 C841 1.390 . S
C839 H843 0.950 . S
H840 C836 0.950 . S
C841 C839 1.390 . S
C841 C842 1.387 . S
C841 H844 0.950 . S
C842 C841 1.387 . S
C842 C845 1.387 . S
H843 C839 0.950 . S
H844 C841 0.950 . S
C845 C836 1.390 . S
C845 H838 0.950 . S
C845 C842 1.387 . S
C846 C847 1.387 . S
C846 H850 0.950 . S
C846 C855 1.390 . S
C847 C846 1.387 . S
C847 C849 1.387 . S
H848 C855 0.950 . S
C849 C847 1.387 . S
C849 C851 1.390 . S
C849 H853 0.950 . S
H850 C846 0.950 . S
C851 C849 1.390 . S
C851 C852 1.387 . S
C851 H854 0.950 . S
C852 C851 1.387 . S
C852 C855 1.387 . S
H853 C849 0.950 . S
H854 C851 0.950 . S
C855 C846 1.390 . S
C855 H848 0.950 . S
C855 C852 1.387 . S
C856 C857 1.387 . S
C856 H860 0.950 . S
C856 C865 1.390 . S
C857 C856 1.387 . S
C857 C859 1.387 . S
H858 C865 0.950 . S
C859 C857 1.387 . S
C859 C861 1.390 . S
C859 H863 0.950 . S
H860 C856 0.950 . S
C861 C859 1.390 . S
C861 C862 1.387 . S
C861 H864 0.950 . S
C862 C861 1.387 . S
C862 C865 1.387 . S
H863 C859 0.950 . S
H864 C861 0.950 . S
C865 C856 1.390 . S
C865 H858 0.950 . S
C865 C862 1.387 . S
C866 C867 1.387 . S
C866 H870 0.950 . S
C866 C875 1.390 . S
C867 C866 1.387 . S
C867 C869 1.387 . S
H868 C875 0.950 . S
C869 C867 1.387 . S
C869 C871 1.390 . S
C869 H873 0.950 . S
H870 C866 0.950 . S
C871 C869 1.390 . S
C871 C872 1.387 . S
C871 H874 0.950 . S
C872 C871 1.387 . S
C872 C875 1.387 . S
H873 C869 0.950 . S
H874 C871 0.950 . S
C875 C866 1.390 . S
C875 H868 0.950 . S
C875 C872 1.387 . S
C876 C877 1.387 . S
C876 H880 0.950 . S
C876 C885 1.390 . S
C877 C876 1.387 . S
C877 C879 1.387 . S
H878 C885 0.950 . S
C879 C877 1.387 . S
C879 C881 1.390 . S
C879 H883 0.950 . S
H880 C876 0.950 . S
C881 C879 1.390 . S
C881 C882 1.387 . S
C881 H884 0.950 . S
C882 C881 1.387 . S
C882 C885 1.387 . S
H883 C879 0.950 . S
H884 C881 0.950 . S
C885 C876 1.390 . S
C885 H878 0.950 . S
C885 C882 1.387 . S
C886 C887 1.387 . S
C886 H890 0.950 . S
C886 C895 1.390 . S
C887 C886 1.387 . S
C887 C889 1.387 . S
H888 C895 0.950 . S
C889 C887 1.387 . S
C889 C891 1.390 . S
C889 H893 0.950 . S
H890 C886 0.950 . S
C891 C889 1.390 . S
C891 C892 1.387 . S
C891 H894 0.950 . S
C892 C891 1.387 . S
C892 C895 1.387 . S
H893 C889 0.950 . S
H894 C891 0.950 . S
C895 C886 1.390 . S
C895 H888 0.950 . S
C895 C892 1.387 . S
C896 C897 1.387 . S
C896 H900 0.950 . S
C896 C905 1.390 . S
C897 C896 1.387 . S
C897 C899 1.387 . S
H898 C905 0.950 . S
C899 C897 1.387 . S
C899 C901 1.390 . S
C899 H903 0.950 . S
H900 C896 0.950 . S
C901 C899 1.390 . S
C901 C902 1.387 . S
C901 H904 0.950 . S
C902 C901 1.387 . S
C902 C905 1.387 . S
H903 C899 0.950 . S
H904 C901 0.950 . S
C905 C896 1.390 . S
C905 H898 0.950 . S
C905 C902 1.387 . S
C906 C907 1.387 . S
C906 H910 0.950 . S
C906 C915 1.390 . S
C907 C906 1.387 . S
C907 C909 1.387 . S
H908 C915 0.950 . S
C909 C907 1.387 . S
C909 C911 1.390 . S
C909 H913 0.950 . S
H910 C906 0.950 . S
C911 C909 1.390 . S
C911 C912 1.387 . S
C911 H914 0.950 . S
C912 C911 1.387 . S
C912 C915 1.387 . S
H913 C909 0.950 . S
H914 C911 0.950 . S
C915 C906 1.390 . S
C915 H908 0.950 . S
C915 C912 1.387 . S
C916 C917 1.387 . S
C916 H920 0.950 . S
C916 C925 1.390 . S
C917 C916 1.387 . S
C917 C919 1.387 . S
H918 C925 0.950 . S
C919 C917 1.387 . S
C919 C921 1.390 . S
C919 H923 0.950 . S
H920 C916 0.950 . S
C921 C919 1.390 . S
C921 C922 1.387 . S
C921 H924 0.950 . S
C922 C921 1.387 . S
C922 C925 1.387 . S
H923 C919 0.950 . S
H924 C921 0.950 . S
C925 C916 1.390 . S
C925 H918 0.950 . S
C925 C922 1.387 . S
C926 C927 1.387 . S
C926 H930 0.950 . S
C926 C935 1.390 . S
C927 C926 1.387 . S
C927 C929 1.387 . S
H928 C935 0.950 . S
C929 C927 1.387 . S
C929 C931 1.390 . S
C929 H933 0.950 . S
H930 C926 0.950 . S
C931 C929 1.390 . S
C931 C932 1.387 . S
C931 H934 0.950 . S
C932 C931 1.387 . S
C932 C935 1.387 . S
H933 C929 0.950 . S
H934 C931 0.950 . S
C935 C926 1.390 . S
C935 H928 0.950 . S
C935 C932 1.387 . S
C936 C937 1.387 . S
C936 H940 0.950 . S
C936 C945 1.390 . S
C937 C936 1.387 . S
C937 C939 1.387 . S
H938 C945 0.950 . S
C939 C937 1.387 . S
C939 C941 1.390 . S
C939 H943 0.950 . S
H940 C936 0.950 . S
C941 C939 1.390 . S
C941 C942 1.387 . S
C941 H944 0.950 . S
C942 C941 1.387 . S
C942 C945 1.387 . S
H943 C939 0.950 . S
H944 C941 0.950 . S
C945 C936 1.390 . S
C945 H938 0.950 . S
C945 C942 1.387 . S
C946 C947 1.387 . S
C946 H950 0.950 . S
C946 C955 1.390 . S
C947 C946 1.387 . S
C947 C949 1.387 . S
H948 C955 0.950 . S
C949 C947 1.387 . S
C949 C951 1.390 . S
C949 H953 0.950 . S
H950 C946 0.950 . S
C951 C949 1.390 . S
C951 C952 1.387 . S
C951 H954 0.950 . S
C952 C951 1.387 . S
C952 C955 1.387 . S
H953 C949 0.950 . S
H954 C951 0.950 . S
C955 C946 1.390 . S
C955 H948 0.950 . S
C955 C952 1.387 . S
C956 C957 1.387 . S
C956 H960 0.950 . S
C956 C965 1.390 . S
C957 C956 1.387 . S
C957 C959 1.387 . S
H958 C965 0.950 . S
C959 C957 1.387 . S
C959 C961 1.390 . S
C959 H963 0.950 . S
H960 C956 0.950 . S
C961 C959 1.390 . S
C961 C962 1.387 . S
C961 H964 0.950 . S
C962 C961 1.387 . S
C962 C965 1.387 . S
H963 C959 0.950 . S
H964 C961 0.950 . S
C965 C956 1.390 . S
C965 H958 0.950 . S
C965 C962 1.387 . S
C966 C967 1.387 . S
C966 H970 0.950 . S
C966 C975 1.390 . S
C967 C966 1.387 . S
C967 C969 1.387 . S
H968 C975 0.950 . S
C969 C967 1.387 . S
C969 C971 1.390 . S
C969 H973 0.950 . S
H970 C966 0.950 . S
C971 C969 1.390 . S
C971 C972 1.387 . S
C971 H974 0.950 . S
C972 C971 1.387 . S
C972 C975 1.387 . S
H973 C969 0.950 . S
H974 C971 0.950 . S
C975 C966 1.390 . S
C975 H968 0.950 . S
C975 C972 1.387 . S
C976 C977 1.387 . S
C976 H980 0.950 . S
C976 C985 1.390 . S
C977 C976 1.387 . S
C977 C979 1.387 . S
H978 C985 0.950 . S
C979 C977 1.387 . S
C979 C981 1.390 . S
C979 H983 0.950 . S
H980 C976 0.950 . S
C981 C979 1.390 . S
C981 C982 1.387 . S
C981 H984 0.950 . S
C982 C981 1.387 . S
C982 C985 1.387 . S
H983 C979 0.950 . S
H984 C981 0.950 . S
C985 C976 1.390 . S
C985 H978 0.950 . S
C985 C982 1.387 . S
C986 C987 1.387 . S
C986 H990 0.950 . S
C986 C995 1.390 . S
C987 C986 1.387 . S
C987 C989 1.387 . S
H988 C995 0.950 . S
C989 C987 1.387 . S
C989 C991 1.390 . S
C989 H993 0.950 . S
H990 C986 0.950 . S
C991 C989 1.390 . S
C991 C992 1.387 . S
C991 H994 0.950 . S
C992 C991 1.387 . S
C992 C995 1.387 . S
H993 C989 0.950 . S
H994 C991 0.950 . S
C995 C986 1.390 . S
C995 H988 0.950 . S
C995 C992 1.387 . S
C996 C997 1.387 . S
C996 H1000 0.950 . S
C996 C1005 1.390 . S
C997 C996 1.387 . S
C997 C999 1.387 . S
H998 C1005 0.950 . S
C999 C997 1.387 . S
C999 C1001 1.390 . S
C999 H1003 0.950 . S
H1000 C996 0.950 . S
C1001 C999 1.390 . S
C1001 C1002 1.387 . S
C1001 H1004 0.950 . S
C1002 C1001 1.387 . S
C1002 C1005 1.387 . S
H1003 C999 0.950 . S
H1004 C1001 0.950 . S
C1005 C996 1.390 . S
C1005 H998 0.950 . S
C1005 C1002 1.387 . S
C1006 C1007 1.387 . S
C1006 H1010 0.950 . S
C1006 C1015 1.390 . S
C1007 C1006 1.387 . S
C1007 C1009 1.387 . S
H1008 C1015 0.950 . S
C1009 C1007 1.387 . S
C1009 C1011 1.390 . S
C1009 H1013 0.950 . S
H1010 C1006 0.950 . S
C1011 C1009 1.390 . S
C1011 C1012 1.387 . S
C1011 H1014 0.950 . S
C1012 C1011 1.387 . S
C1012 C1015 1.387 . S
H1013 C1009 0.950 . S
H1014 C1011 0.950 . S
C1015 C1006 1.390 . S
C1015 H1008 0.950 . S
C1015 C1012 1.387 . S
C1016 C1017 1.387 . S
C1016 H1020 0.950 . S
C1016 C1025 1.390 . S
C1017 C1016 1.387 . S
C1017 C1019 1.387 . S
H1018 C1025 0.950 . S
C1019 C1017 1.387 . S
C1019 C1021 1.390 . S
C1019 H1023 0.950 . S
H1020 C1016 0.950 . S
C1021 C1019 1.390 . S
C1021 C1022 1.387 . S
C1021 H1024 0.950 . S
C1022 C1021 1.387 . S
C1022 C1025 1.387 . S
H1023 C1019 0.950 . S
H1024 C1021 0.950 . S
C1025 C1016 1.390 . S
C1025 H1018 0.950 . S
C1025 C1022 1.387 . S
C1026 C1027 1.387 . S
C1026 H1030 0.950 . S
C1026 C1035 1.390 . S
C1027 C1026 1.387 . S
C1027 C1029 1.387 . S
H1028 C1035 0.950 . S
C1029 C1027 1.387 . S
C1029 C1031 1.390 . S
C1029 H1033 0.950 . S
H1030 C1026 0.950 . S
C1031 C1029 1.390 . S
C1031 C1032 1.387 . S
C1031 H1034 0.950 . S
C1032 C1031 1.387 . S
C1032 C1035 1.387 . S
H1033 C1029 0.950 . S
H1034 C1031 0.950 . S
C1035 C1026 1.390 . S
C1035 H1028 0.950 . S
C1035 C1032 1.387 . S
C1036 C1037 1.387 . S
C1036 H1040 0.950 . S
C1036 C1045 1.390 . S
C1037 C1036 1.387 . S
C1037 C1039 1.387 . S
H1038 C1045 0.950 . S
C1039 C1037 1.387 . S
C1039 C1041 1.390 . S
C1039 H1043 0.950 . S
H1040 C1036 0.950 . S
C1041 C1039 1.390 . S
C1041 C1042 1.387 . S
C1041 H1044 0.950 . S
C1042 C1041 1.387 . S
C1042 C1045 1.387 . S
H1043 C1039 0.950 . S
H1044 C1041 0.950 . S
C1045 C1036 1.390 . S
C1045 H1038 0.950 . S
C1045 C1042 1.387 . S
C1046 C1047 1.387 . S
C1046 H1050 0.950 . S
C1046 C1055 1.390 . S
C1047 C1046 1.387 . S
C1047 C1049 1.387 . S
H1048 C1055 0.950 . S
C1049 C1047 1.387 . S
C1049 C1051 1.390 . S
C1049 H1053 0.950 . S
H1050 C1046 0.950 . S
C1051 C1049 1.390 . S
C1051 C1052 1.387 . S
C1051 H1054 0.950 . S
C1052 C1051 1.387 . S
C1052 C1055 1.387 . S
H1053 C1049 0.950 . S
H1054 C1051 0.950 . S
C1055 C1046 1.390 . S
C1055 H1048 0.950 . S
C1055 C1052 1.387 . S
C822 C757 1.739 . S
C817 C45 1.752 . S
C827 C84 1.735 . S
C832 C317 1.741 . S
C837 C126 1.664 . S
C842 C405 1.742 . S
C847 C189 1.753 . S
C852 C484 1.739 . S
C862 C581 1.743 . S
C857 C228 1.737 . S
C867 C270 1.663 . S
C872 C660 1.741 . S
C877 C69 1.702 . S
C882 C425 1.741 . S
C887 C141 1.752 . S
C892 C521 1.739 . S
C897 C174 1.665 . S
C902 C601 1.743 . S
C912 C697 1.744 . S
C907 C213 1.705 . S
C922 C777 1.741 . S
C917 C285 1.754 . S
C932 C337 1.741 . S
C927 C30 1.663 . S
C937 C36 1.518 . S
C942 C433 1.510 . S
C947 C93 1.522 . S
C952 C513 1.506 . S
C962 C609 1.509 . S
C957 C117 1.511 . S
C967 C180 1.519 . S
C972 C689 1.510 . S
C982 C785 1.506 . S
C977 C237 1.522 . S
C992 C345 1.509 . S
C987 C261 1.511 . S
C1002 C748 1.506 . S
C997 C78 1.503 . S
C1007 C132 1.517 . S
C1012 C308 1.508 . S
C1022 C396 1.509 . S
C1017 C165 1.511 . S
C1027 C222 1.504 . S
C1032 C493 1.507 . S
C1037 C276 1.518 . S
C1042 C572 1.510 . S
C1047 C21 1.510 . S
C1052 C669 1.508 . S
