# Generated by pormake.
# Topology zzz, (3,6)-cn, num edge types: 1
# Building blocks:
#     Node 0, Type 0, BuildingBlock: BETDAH_clean_linker_0, # of connection points: 3
#     Node 1, Type 0, BuildingBlock: BETDAH_clean_linker_0, # of connection points: 3
#     Node 2, Type 0, BuildingBlock: BETDAH_clean_linker_0, # of connection points: 3
#     Node 3, Type 0, BuildingBlock: BETDAH_clean_linker_0, # of connection points: 3
#     Node 4, Type 0, BuildingBlock: BETDAH_clean_linker_0, # of connection points: 3
#     Node 5, Type 0, BuildingBlock: BETDAH_clean_linker_0, # of connection points: 3
#     Node 6, Type 0, BuildingBlock: BETDAH_clean_linker_0, # of connection points: 3
#     Node 7, Type 0, BuildingBlock: BETDAH_clean_linker_0, # of connection points: 3
#     Node 8, Type 1, BuildingBlock: BETGAK_clean_sbu_0, # of connection points: 6
#     Node 9, Type 1, BuildingBlock: BETGAK_clean_sbu_0, # of connection points: 6
#     Node 10, Type 1, BuildingBlock: BETGAK_clean_sbu_0, # of connection points: 6
#     Node 11, Type 1, BuildingBlock: BETGAK_clean_sbu_0, # of connection points: 6
#     Edge 12, Type (0, 1), BuildingBlock: CIFDUS_clean_linker_0, # of connection points: 2
#     Edge 13, Type (0, 1), BuildingBlock: CIFDUS_clean_linker_0, # of connection points: 2
#     Edge 14, Type (0, 1), BuildingBlock: CIFDUS_clean_linker_0, # of connection points: 2
#     Edge 15, Type (0, 1), BuildingBlock: CIFDUS_clean_linker_0, # of connection points: 2
#     Edge 16, Type (0, 1), BuildingBlock: CIFDUS_clean_linker_0, # of connection points: 2
#     Edge 17, Type (0, 1), BuildingBlock: CIFDUS_clean_linker_0, # of connection points: 2
#     Edge 18, Type (0, 1), BuildingBlock: CIFDUS_clean_linker_0, # of connection points: 2
#     Edge 19, Type (0, 1), BuildingBlock: CIFDUS_clean_linker_0, # of connection points: 2
#     Edge 20, Type (0, 1), BuildingBlock: CIFDUS_clean_linker_0, # of connection points: 2
#     Edge 21, Type (0, 1), BuildingBlock: CIFDUS_clean_linker_0, # of connection points: 2
#     Edge 22, Type (0, 1), BuildingBlock: CIFDUS_clean_linker_0, # of connection points: 2
#     Edge 23, Type (0, 1), BuildingBlock: CIFDUS_clean_linker_0, # of connection points: 2
#     Edge 24, Type (0, 1), BuildingBlock: CIFDUS_clean_linker_0, # of connection points: 2
#     Edge 25, Type (0, 1), BuildingBlock: CIFDUS_clean_linker_0, # of connection points: 2
#     Edge 26, Type (0, 1), BuildingBlock: CIFDUS_clean_linker_0, # of connection points: 2
#     Edge 27, Type (0, 1), BuildingBlock: CIFDUS_clean_linker_0, # of connection points: 2
#     Edge 28, Type (0, 1), BuildingBlock: CIFDUS_clean_linker_0, # of connection points: 2
#     Edge 29, Type (0, 1), BuildingBlock: CIFDUS_clean_linker_0, # of connection points: 2
#     Edge 30, Type (0, 1), BuildingBlock: CIFDUS_clean_linker_0, # of connection points: 2
#     Edge 31, Type (0, 1), BuildingBlock: CIFDUS_clean_linker_0, # of connection points: 2
#     Edge 32, Type (0, 1), BuildingBlock: CIFDUS_clean_linker_0, # of connection points: 2
#     Edge 33, Type (0, 1), BuildingBlock: CIFDUS_clean_linker_0, # of connection points: 2
#     Edge 34, Type (0, 1), BuildingBlock: CIFDUS_clean_linker_0, # of connection points: 2
#     Edge 35, Type (0, 1), BuildingBlock: CIFDUS_clean_linker_0, # of connection points: 2
# Relax obj value: 0.317
# Max RMSD: 0.203
# Mean RMSD: 0.162
data_MOF--net-zzz--node1-BETGAK_clean_sbu_0--node2-BETDAH_clean_linker_0--edge1-CIFDUS_clean_linker_0
_symmetry_space_group_name_H-M    P1
_symmetry_Int_Tables_number       1
_symmetry_cell_setting            triclinic
loop_
_symmetry_equiv_pos_as_xyz
'x, y, z'
_cell_length_a     45.913568
_cell_length_b     45.813736
_cell_length_c     11.929876
_cell_angle_alpha  89.662186
_cell_angle_beta   89.603191
_cell_angle_gamma 89.920404
loop_
_atom_site_label
_atom_site_type_symbol
_atom_site_fract_x
_atom_site_fract_y
_atom_site_fract_z
_atom_type_partial_charge
H0 H 0.82058 0.47752 0.42459 0.0
H1 H 0.73841 0.49126 0.26346 0.0
H2 H 0.77651 0.55954 0.46365 0.0
C3 C 0.80147 0.49107 0.41157 0.0
C4 C 0.8013 0.51937 0.4546 0.0
C5 C 0.7791 0.48089 0.34249 0.0
C6 C 0.75526 0.49902 0.31887 0.0
C7 C 0.75367 0.52727 0.36478 0.0
C8 C 0.77709 0.53751 0.43123 0.0
N9 N 0.72925 0.54592 0.34393 0.0
C10 C 0.70716 0.54065 0.26579 0.0
H11 H 0.0635 0.8231 0.38421 0.0
H12 H 0.05209 0.73507 0.27568 0.0
H13 H 1.00413 0.767 0.56393 0.0
C14 C 0.0536 0.80183 0.39713 0.0
C15 C 0.03317 0.7982 0.48357 0.0
C16 C 0.06039 0.77919 0.32291 0.0
C17 C 0.04691 0.75206 0.33524 0.0
C18 C 0.02675 0.74708 0.42277 0.0
C19 C 1.02009 0.77032 0.49785 0.0
N20 N 1.0125 0.71936 0.43403 0.0
C21 C 1.01434 0.69702 0.3538 0.0
H22 H 0.71317 0.0636 0.40486 0.0
H23 H 0.79747 0.05201 0.25298 0.0
H24 H 0.76769 0.99325 0.51455 0.0
C25 C 0.73413 0.05262 0.40276 0.0
C26 C 0.738 0.02806 0.47056 0.0
C27 C 0.75519 0.06127 0.3236 0.0
C28 C 0.78147 0.04565 0.31561 0.0
C29 C 0.7866 1.02153 0.38717 0.0
C30 C 0.76446 1.01253 0.46309 0.0
N31 N 0.81326 1.00548 0.38301 0.0
C32 C 0.83493 1.0087 0.30077 0.0
H33 H 0.47485 0.72421 0.41482 0.0
H34 H 0.48683 0.81136 0.28995 0.0
H35 H 0.5475 0.77463 0.52844 0.0
C36 C 0.48661 0.74474 0.41673 0.0
C37 C 0.51202 0.74637 0.48011 0.0
C38 C 0.47737 0.76799 0.34865 0.0
C39 C 0.49357 0.79387 0.34553 0.0
C40 C 0.51867 0.79682 0.4119 0.0
C41 C 0.52771 0.77293 0.48006 0.0
N42 N 0.53562 0.82299 0.40815 0.0
C43 C 0.53288 0.84483 0.32584 0.0
H44 H 0.21521 0.56663 0.16624 0.0
H45 H 0.30069 0.55379 0.30123 0.0
H46 H 0.27123 0.50157 0.02289 0.0
C47 C 0.23635 0.55604 0.16191 0.0
C48 C 0.24041 0.53361 0.08471 0.0
C49 C 0.25787 0.56347 0.23959 0.0
C50 C 0.28452 0.54851 0.23887 0.0
C51 C 0.28995 0.5265 0.15922 0.0
C52 C 0.26768 0.51915 0.08178 0.0
N53 N 0.31703 0.51095 0.15759 0.0
C54 C 0.33861 0.51269 0.2403 0.0
H55 H 0.97704 0.21728 0.20633 0.0
H56 H 0.99205 0.30371 0.3277 0.0
H57 H 0.03911 0.27243 0.03644 0.0
C58 C 0.98776 0.23826 0.19655 0.0
C59 C 1.00862 0.24179 0.11154 0.0
C60 C 0.98169 0.26049 0.27356 0.0
C61 C 0.99643 0.28708 0.26564 0.0
C62 C 1.01692 0.29198 0.17926 0.0
C63 C 0.02282 0.26919 0.10139 0.0
N64 N 0.03225 0.31914 0.17167 0.0
C65 C 0.03158 0.34077 0.25487 0.0
H66 H 0.32414 0.98537 0.16797 0.0
H67 H 0.23998 0.99912 0.3173 0.0
H68 H 0.26993 0.05484 0.04644 0.0
C69 C 0.30331 0.99662 0.16812 0.0
C70 C 0.29955 1.02041 0.09595 0.0
C71 C 0.28215 0.98902 0.24848 0.0
C72 C 0.256 1.00479 0.25377 0.0
C73 C 0.25096 0.02813 0.17867 0.0
C74 C 0.27313 0.03618 0.10116 0.0
N75 N 0.22433 0.04428 0.18123 0.0
C76 C 0.20266 0.04122 0.26363 0.0
H77 H 0.56778 0.32574 0.15682 0.0
H78 H 0.55805 0.23815 0.2779 0.0
H79 H 0.50662 0.26861 0.99774 0.0
C80 C 0.55797 0.30432 0.14857 0.0
C81 C 0.53664 0.30013 0.06717 0.0
C82 C 0.56565 0.28209 0.22399 0.0
C83 C 0.55213 0.25486 0.21776 0.0
C84 C 0.53088 0.24946 0.13592 0.0
C85 C 0.52336 0.27226 0.05959 0.0
N86 N 0.51635 0.2218 0.13181 0.0
C87 C 0.51886 0.20002 0.21483 0.0
La88 La 0.03995 1.01159 0.87273 0.0
La89 La 1.00113 0.0296 0.70677 0.0
C90 C 0.06855 0.98686 0.02585 0.0
C91 C 0.0869 0.96076 0.02795 0.0
C92 C 0.09135 0.94433 0.93034 0.0
C93 C 0.10546 0.91733 0.93617 0.0
C94 C 0.11529 0.90649 0.03974 0.0
C95 C 0.11274 0.92429 0.13538 0.0
C96 C 0.09857 0.95117 0.12942 0.0
C97 C 0.06747 0.03047 0.68863 0.0
C98 C 1.01772 0.96389 0.69987 0.0
C99 C 0.97248 0.05422 0.55363 0.0
C100 C 0.95349 0.07985 0.55303 0.0
C101 C 0.94817 0.09539 0.65219 0.0
C102 C 0.93349 0.1221 0.64842 0.0
C103 C 0.924 0.13357 0.54535 0.0
C104 C 0.92732 0.11654 0.44795 0.0
C105 C 0.94204 0.08993 0.45186 0.0
C106 C 0.97344 1.01101 0.89066 0.0
C107 C 0.02327 0.07719 0.88145 0.0
O108 O 0.07851 1.00845 0.96529 0.0
O109 O 0.04085 0.98225 1.00847 0.0
O110 O 0.07487 0.03607 0.79021 0.0
O111 O 0.0451 1.01452 0.69192 0.0
O112 O 0.02725 0.96852 0.80267 0.0
O113 O 1.01052 0.98658 0.63701 0.0
O114 O 0.96289 0.03211 0.61219 0.0
O115 O 1.0 0.05942 0.57255 0.0
O116 O 0.96622 1.00525 0.78906 0.0
O117 O 0.99594 0.02682 0.88744 0.0
O118 O 1.01353 0.07273 0.77865 0.0
O119 O 0.03068 0.05442 0.94338 0.0
H120 H 0.08278 0.95176 0.85075 0.0
H121 H 0.10718 0.90422 0.86113 0.0
H122 H 0.11955 0.91652 0.21701 0.0
H123 H 0.09545 0.96375 0.20522 0.0
H124 H 0.95657 0.08755 0.7315 0.0
H125 H 0.93118 0.1346 0.72476 0.0
H126 H 0.92078 0.12481 0.36669 0.0
H127 H 0.94583 0.07803 0.37489 0.0
La128 La 0.52344 0.04361 0.87762 0.0
La129 La 0.51506 1.00145 0.68589 0.0
C130 C 0.53954 0.0644 0.06081 0.0
C131 C 0.56387 0.08426 0.0826 0.0
C132 C 0.57938 0.0966 0.99216 0.0
C133 C 0.60588 0.1107 0.0099 0.0
C134 C 0.61721 0.11278 0.11851 0.0
C135 C 0.60052 0.10224 0.20971 0.0
C136 C 0.57417 0.08784 0.19167 0.0
C137 C 0.52192 0.07443 0.68619 0.0
C138 C 0.57772 0.02432 0.72516 0.0
C139 C 0.49683 0.97391 0.51852 0.0
C140 C 0.47036 0.95654 0.50295 0.0
C141 C 0.45463 0.946 0.59622 0.0
C142 C 0.42724 0.93329 0.58217 0.0
C143 C 0.41543 0.93062 0.4745 0.0
C144 C 0.43215 0.93954 0.38102 0.0
C145 C 0.45925 0.95264 0.39531 0.0
C146 C 0.52882 0.97651 0.8802 0.0
C147 C 0.4592 0.02324 0.82965 0.0
O148 O 0.51805 0.07539 1.00219 0.0
O149 O 0.54754 0.03857 0.0249 0.0
O150 O 0.5246 0.08529 0.78514 0.0
O151 O 0.51978 0.04714 0.69924 0.0
O152 O 0.56825 0.03328 0.82441 0.0
O153 O 0.55965 1.01457 0.64806 0.0
O154 O 0.51553 0.96325 0.58994 0.0
O155 O 0.49258 1.00189 0.53301 0.0
O156 O 0.53761 0.968 0.78248 0.0
O157 O 0.51193 0.99814 0.86633 0.0
O158 O 0.46987 1.00748 0.74565 0.0
O159 O 0.47629 0.03858 0.89613 0.0
H160 H 0.57193 0.09379 0.90705 0.0
H161 H 0.61829 0.11848 0.9382 0.0
H162 H 0.60893 0.10299 0.29427 0.0
H163 H 0.56283 0.07796 0.26208 0.0
H164 H 0.46292 0.94883 0.68026 0.0
H165 H 0.41473 0.92684 0.65552 0.0
H166 H 0.42335 0.93844 0.29712 0.0
H167 H 0.47076 0.96108 0.32266 0.0
La168 La 0.50328 0.5314 0.83884 0.0
La169 La 0.54209 0.51302 0.67184 0.0
C170 C 0.47596 0.55962 0.98648 0.0
C171 C 0.46779 0.59077 0.98928 0.0
C172 C 0.43838 0.59901 0.99756 0.0
C173 C 0.43043 0.62853 0.99334 0.0
C174 C 0.45182 0.65028 0.98045 0.0
C175 C 0.48119 0.64177 0.97084 0.0
C176 C 0.48906 0.61246 0.97514 0.0
C177 C 0.47563 0.51343 0.65596 0.0
C178 C 0.52767 0.57864 0.6666 0.0
C179 C 0.57014 0.48856 0.51629 0.0
C180 C 0.58932 0.46311 0.51232 0.0
C181 C 0.59479 0.4466 0.60942 0.0
C182 C 0.60998 0.42021 0.60203 0.0
C183 C 0.61979 0.41004 0.49734 0.0
C184 C 0.61619 0.42803 0.40206 0.0
C185 C 0.60101 0.4543 0.40963 0.0
C186 C 0.57001 0.53089 0.8541 0.0
C187 C 0.51755 0.46514 0.8459 0.0
O188 O 0.46321 0.54438 0.90917 0.0
O189 O 0.50376 0.55356 0.99247 0.0
O190 O 0.4684 0.50702 0.75804 0.0
O191 O 0.49837 0.52899 0.65837 0.0
O192 O 0.5193 0.57378 0.77116 0.0
O193 O 0.53297 0.55608 0.6015 0.0
O194 O 0.57997 0.5106 0.57323 0.0
O195 O 0.54277 0.48311 0.53926 0.0
O196 O 0.5775 0.53647 0.75196 0.0
O197 O 0.54718 0.51546 0.85239 0.0
O198 O 0.52951 0.47008 0.74608 0.0
O199 O 0.50817 0.48738 0.90639 0.0
H200 H 0.42156 0.5826 1.00714 0.0
H201 H 0.40765 0.63434 1.00154 0.0
H202 H 0.49842 0.65782 0.96437 0.0
H203 H 0.51193 0.60691 0.96782 0.0
H204 H 0.58621 0.45345 0.6899 0.0
H205 H 0.61253 0.40699 0.6769 0.0
H206 H 0.62294 0.42079 0.31962 0.0
H207 H 0.59711 0.46696 0.33421 0.0
La208 La 1.01053 0.49586 0.89561 0.0
La209 La 0.02593 0.53747 0.71066 0.0
C210 C 0.98793 0.46743 0.05524 0.0
C211 C 0.9614 0.44966 0.06069 0.0
C212 C 0.94847 0.43961 0.9618 0.0
C213 C 0.92036 0.42795 0.96448 0.0
C214 C 0.9047 0.42639 0.06603 0.0
C215 C 0.91888 0.43413 0.16605 0.0
C216 C 0.94696 0.44576 0.16321 0.0
C217 C 0.02713 0.47062 0.70466 0.0
C218 C 0.95927 0.52066 0.73861 0.0
C219 C 0.04612 0.55815 0.53157 0.0
C220 C 0.07038 0.57845 0.51459 0.0
C221 C 0.08624 0.5882 0.60734 0.0
C222 C 0.11207 0.60376 0.59169 0.0
C223 C 0.12242 0.60976 0.48297 0.0
C224 C 0.10523 0.60181 0.39052 0.0
C225 C 0.07942 0.58615 0.40633 0.0
C226 C 1.02087 0.56886 0.89796 0.0
C227 C 0.07473 0.51666 0.88426 0.0
O228 O 1.00883 0.45734 0.99157 0.0
O229 O 0.98359 0.49535 0.03863 0.0
O230 O 0.03398 0.46176 0.8041 0.0
O231 O 1.01121 0.493 0.71493 0.0
O232 O 0.9671 0.50479 0.82683 0.0
O233 O 0.9789 0.53466 0.67645 0.0
O234 O 0.02331 0.56904 0.58309 0.0
O235 O 0.05365 0.53253 0.57193 0.0
O236 O 0.02671 0.57917 0.79957 0.0
O237 O 1.01755 0.54159 0.88755 0.0
O238 O 0.06921 0.52486 0.77941 0.0
O239 O 0.05325 0.50895 0.95245 0.0
H240 H 0.95937 0.44244 0.8816 0.0
H241 H 0.91014 0.42209 0.88622 0.0
H242 H 0.9074 0.43371 0.24566 0.0
H243 H 0.95659 0.45349 0.24019 0.0
H244 H 0.07948 0.58246 0.69175 0.0
H245 H 0.12479 0.60962 0.6643 0.0
H246 H 0.11281 0.60565 0.30553 0.0
H247 H 0.06744 0.57874 0.334 0.0
H248 H 0.14653 0.02266 0.24907 0.0
H249 H 0.20954 0.05852 0.47587 0.0
H250 H 0.17296 0.05944 0.62622 0.0
H251 H 0.12321 0.05002 0.6937 0.0
H252 H 0.05982 1.01309 0.47072 0.0
H253 H 0.09605 1.0129 0.3183 0.0
C254 C 0.15214 0.03056 0.3317 0.0
C255 C 0.18066 0.04047 0.35204 0.0
C256 C 0.13086 0.03099 0.41805 0.0
C257 C 0.18775 0.05073 0.45882 0.0
C258 C 0.16681 0.05131 0.5446 0.0
C259 C 0.11723 0.04202 0.61165 0.0
C260 C 0.08875 0.03164 0.59374 0.0
C261 C 0.1383 0.04156 0.52524 0.0
C262 C 0.08152 1.02126 0.48682 0.0
C263 C 0.10229 1.02105 0.39974 0.0
H264 H 0.5112 0.14052 0.2142 0.0
H265 H 0.53155 0.21339 0.42692 0.0
H266 H 0.53519 0.18071 0.58849 0.0
H267 H 0.53154 0.13208 0.67146 0.0
H268 H 0.51038 0.05812 0.46623 0.0
H269 H 0.50766 0.09037 0.30044 0.0
C270 C 0.51646 0.14911 0.29609 0.0
C271 C 0.52127 0.17942 0.30856 0.0
C272 C 0.51817 0.13 0.39006 0.0
C273 C 0.528 0.19025 0.41489 0.0
C274 C 0.52999 0.17154 0.50753 0.0
C275 C 0.52641 0.12284 0.59044 0.0
C276 C 0.52107 0.09262 0.58172 0.0
C277 C 0.52499 0.14147 0.49634 0.0
C278 C 0.51456 0.08122 0.4757 0.0
C279 C 0.513 0.09974 0.38091 0.0
H280 H 0.39579 0.52852 0.22331 0.0
H281 H 0.33138 0.49431 0.45294 0.0
H282 H 0.36816 0.49037 0.60016 0.0
H283 H 0.41863 0.49664 0.66452 0.0
H284 H 0.48334 0.53198 0.43831 0.0
H285 H 0.44683 0.53526 0.28932 0.0
C286 C 0.38988 0.52034 0.30586 0.0
C287 C 0.36085 0.51179 0.32758 0.0
C288 C 0.41132 0.51815 0.39059 0.0
C289 C 0.35351 0.50111 0.43449 0.0
C290 C 0.37459 0.49879 0.51859 0.0
C291 C 0.42486 0.50492 0.58247 0.0
C292 C 0.45387 0.51392 0.5629 0.0
C293 C 0.40358 0.50716 0.49772 0.0
C294 C 0.4613 0.52478 0.45592 0.0
C295 C 0.44035 0.52674 0.37067 0.0
H296 H 1.01437 0.39801 0.25215 0.0
H297 H 0.05133 0.331 0.46265 0.0
H298 H 0.05436 0.36542 0.61838 0.0
H299 H 0.04616 0.41435 0.69627 0.0
H300 H 1.00818 0.48173 0.4901 0.0
H301 H 1.0063 0.44783 0.33149 0.0
C302 C 0.02306 0.39105 0.33229 0.0
C303 C 0.03263 0.36195 0.34614 0.0
C304 C 0.02468 0.41114 0.4222 0.0
C305 C 0.04383 0.35322 0.45013 0.0
C306 C 0.0456 0.37294 0.53918 0.0
C307 C 0.03756 0.42173 0.61655 0.0
C308 C 0.02737 0.4507 0.60549 0.0
C309 C 0.03609 0.40193 0.5264 0.0
C310 C 1.01621 0.45967 0.50128 0.0
C311 C 1.01502 0.44019 0.41056 0.0
H312 H 0.89185 0.024 0.32132 0.0
H313 H 0.82829 0.99278 0.08678 0.0
H314 H 0.86582 0.98957 0.94049 0.0
H315 H 0.91659 0.99531 0.87923 0.0
H316 H 0.98063 0.02785 0.10948 0.0
H317 H 0.94335 0.0305 0.25778 0.0
C318 C 0.88632 1.01669 0.23781 0.0
C319 C 0.85738 1.00874 0.2141 0.0
C320 C 0.90817 1.01489 0.15388 0.0
C321 C 0.8504 0.99914 0.10631 0.0
C322 C 0.87188 0.9972 0.02291 0.0
C323 C 0.9225 1.00288 0.96197 0.0
C324 C 0.95147 1.01124 0.98324 0.0
C325 C 0.90084 1.00489 0.04577 0.0
C326 C 0.95857 1.02118 0.09091 0.0
C327 C 0.93719 0.02282 0.17557 0.0
H328 H 0.52346 0.90373 0.33802 0.0
H329 H 0.54091 0.83352 0.10813 0.0
H330 H 0.54173 0.8681 0.95096 0.0
H331 H 0.53796 0.9181 0.8784 0.0
H332 H 0.51866 0.98892 0.1033 0.0
H333 H 0.51933 0.95471 0.26294 0.0
C334 C 0.52734 0.89612 0.2533 0.0
C335 C 0.53212 0.86609 0.23425 0.0
C336 C 0.5277 0.9163 0.16266 0.0
C337 C 0.53714 0.85647 0.12451 0.0
C338 C 0.53765 0.87626 0.0347 0.0
C339 C 0.53371 0.92614 0.96226 0.0
C340 C 0.52841 0.95618 0.97864 0.0
C341 C 0.53303 0.9062 0.05268 0.0
C342 C 0.52277 0.966 0.08803 0.0
C343 C 0.5229 0.94635 0.17927 0.0
H344 H 0.6502 0.52392 0.28908 0.0
H345 H 0.714 0.55413 0.04866 0.0
H346 H 0.6771 0.55458 0.9016 0.0
H347 H 0.6268 0.54701 0.84089 0.0
H348 H 0.56234 0.51557 0.07642 0.0
H349 H 0.59903 0.51533 0.22569 0.0
C350 C 0.65594 0.5304 0.20419 0.0
C351 C 0.68485 0.53888 0.17931 0.0
C352 C 0.6344 0.53061 0.11943 0.0
C353 C 0.69199 0.54738 0.06947 0.0
C354 C 0.67085 0.54773 0.98547 0.0
C355 C 0.62065 0.54012 0.92489 0.0
C356 C 0.59169 0.53141 0.94718 0.0
C357 C 0.64198 0.53954 1.00943 0.0
C358 C 0.58436 0.52244 0.05672 0.0
C359 C 0.60542 0.52221 0.14205 0.0
H360 H 1.01137 0.63703 0.36402 0.0
H361 H 1.02072 0.70995 0.13644 0.0
H362 H 0.02356 0.67665 0.97776 0.0
H363 H 0.0233 0.62736 0.90233 0.0
H364 H 1.01309 0.55312 0.12244 0.0
H365 H 1.01045 0.58614 0.28495 0.0
C366 C 1.01403 0.64549 0.27951 0.0
C367 C 1.016 0.67602 0.2619 0.0
C368 C 1.01538 0.62596 0.18741 0.0
C369 C 1.01936 0.68668 0.15224 0.0
C370 C 1.0209 0.6676 0.06135 0.0
C371 C 1.02044 0.61823 0.98577 0.0
C372 C 1.01835 0.58769 0.99977 0.0
C373 C 1.01893 0.63729 0.07778 0.0
C374 C 1.01464 0.57647 0.10888 0.0
C375 C 1.0132 0.59541 0.2018 0.0
H376 H 0.92539 0.24362 0.2726 0.0
H377 H 0.99772 0.25952 0.49155 0.0
H378 H 0.97824 0.22454 0.62751 0.0
H379 H 0.95167 0.17864 0.64437 0.0
H380 H 0.88197 0.15957 0.41558 0.0
H381 H 0.88859 0.20703 0.3252 0.0
C382 C 0.9359 0.24051 0.35302 0.0
C383 C 0.96326 0.25319 0.37131 0.0
C384 C 0.92545 0.21912 0.42729 0.0
C385 C 0.97675 0.2496 0.47565 0.0
C386 C 0.96582 0.22926 0.55258 0.0
C387 C 0.93683 0.1854 0.5788 0.0
C388 C 0.91734 0.1651 0.53278 0.0
C389 C 0.94176 0.21206 0.52391 0.0
C390 C 0.8979 0.17449 0.44945 0.0
C391 C 0.90182 0.20155 0.39726 0.0
H392 H 0.30124 0.93362 0.22267 0.0
H393 H 0.28438 0.99908 0.47229 0.0
H394 H 0.32253 0.97867 0.59063 0.0
H395 H 0.37016 0.95446 0.58714 0.0
H396 H 0.39062 0.89357 0.32382 0.0
H397 H 0.34172 0.89936 0.24761 0.0
C398 C 0.30495 0.94231 0.30582 0.0
C399 C 0.29089 0.96828 0.3375 0.0
C400 C 0.32843 0.93187 0.36891 0.0
C401 C 0.29527 0.97927 0.44567 0.0
C402 C 0.31751 0.96792 0.51241 0.0
C403 C 0.36343 0.94136 0.51644 0.0
C404 C 0.38411 0.9243 0.4589 0.0
C405 C 0.33585 0.94604 0.46979 0.0
C406 C 0.37515 0.90734 0.36772 0.0
C407 C 0.34725 0.91078 0.32386 0.0
H408 H 0.62103 0.30194 0.21629 0.0
H409 H 0.55078 0.28116 0.44385 0.0
H410 H 0.56928 0.31624 0.57892 0.0
H411 H 0.59396 0.36312 0.59533 0.0
H412 H 0.66203 0.3865 0.36048 0.0
H413 H 0.65662 0.33963 0.267 0.0
C414 C 0.61082 0.30404 0.29818 0.0
C415 C 0.58423 0.2899 0.31945 0.0
C416 C 0.62072 0.32535 0.37246 0.0
C417 C 0.57115 0.29221 0.42568 0.0
C418 C 0.5815 0.31258 0.50217 0.0
C419 C 0.60875 0.35746 0.52756 0.0
C420 C 0.62731 0.37882 0.48099 0.0
C421 C 0.60462 0.33103 0.47148 0.0
C422 C 0.64672 0.37079 0.39479 0.0
C423 C 0.64352 0.34405 0.3409 0.0
H424 H 0.23632 0.61825 0.22262 0.0
H425 H 0.25811 0.55137 0.46281 0.0
H426 H 0.21904 0.56791 0.58658 0.0
H427 H 0.1698 0.58824 0.58839 0.0
H428 H 0.14409 0.64986 0.33267 0.0
H429 H 0.19325 0.64884 0.25324 0.0
C430 C 0.23343 0.60845 0.30502 0.0
C431 C 0.24911 0.58301 0.33207 0.0
C432 C 0.20926 0.61636 0.37046 0.0
C433 C 0.2459 0.57071 0.43946 0.0
C434 C 0.22311 0.57979 0.50921 0.0
C435 C 0.17528 0.60255 0.51863 0.0
C436 C 0.15317 0.6184 0.46408 0.0
C437 C 0.20309 0.60062 0.47009 0.0
C438 C 0.16064 0.6369 0.37407 0.0
C439 C 0.18872 0.63624 0.32853 0.0
H440 H 0.11638 0.79698 0.31892 0.0
H441 H 0.04319 0.77929 0.10644 0.0
H442 H 0.0612 0.81448 0.96818 0.0
H443 H 0.087 0.86078 0.94741 0.0
H444 H 0.15785 0.8813 0.16904 0.0
H445 H 0.15225 0.83408 0.2622 0.0
C446 C 0.10539 0.79973 0.23928 0.0
C447 C 0.07821 0.78645 0.22349 0.0
C448 C 0.11502 0.82119 0.16367 0.0
C449 C 0.06405 0.78965 0.1203 0.0
C450 C 0.07413 0.81011 0.04211 0.0
C451 C 0.10228 0.85439 0.01204 0.0
C452 C 0.12188 0.87502 0.05512 0.0
C453 C 0.09804 0.8278 0.0683 0.0
C454 C 0.14185 0.86613 0.13743 0.0
C455 C 0.13854 0.83919 0.19114 0.0
H456 H 0.73427 0.11574 0.35823 0.0
H457 H 0.7534 0.05387 0.09777 0.0
H458 H 0.71281 0.07248 0.9875 0.0
H459 H 0.66352 0.09277 1.00074 0.0
H460 H 0.6405 0.14855 0.2776 0.0
H461 H 0.69046 0.14605 0.34629 0.0
C462 C 0.73044 0.10755 0.27443 0.0
C463 C 0.7459 0.08279 0.23788 0.0
C464 C 0.70533 0.11637 0.21714 0.0
C465 C 0.74142 0.07261 0.12858 0.0
C466 C 0.71773 0.08283 0.06662 0.0
C467 C 0.66975 0.10549 0.07316 0.0
C468 C 0.64826 0.12024 0.13581 0.0
C469 C 0.69807 0.10263 0.11529 0.0
C470 C 0.65661 0.13656 0.22953 0.0
C471 C 0.68515 0.13507 0.26886 0.0
H472 H 0.48205 0.77191 0.1237 0.0
H473 H 0.42207 0.74841 0.38793 0.0
H474 H 0.40081 0.71086 0.27011 0.0
H475 H 0.41336 0.67467 0.12724 0.0
H476 H 0.47444 0.69706 0.8645 0.0
H477 H 0.48092 0.74537 0.94515 0.0
C478 C 0.4631 0.75983 0.15273 0.0
C479 C 0.4545 0.76172 0.26561 0.0
C480 C 0.45212 0.73723 0.08649 0.0
C481 C 0.42948 0.74662 0.30181 0.0
C482 C 0.41768 0.72477 0.23508 0.0
C483 C 0.42692 0.69054 0.08399 0.0
C484 C 0.44484 0.68175 0.99424 0.0
C485 C 0.43093 0.71808 0.13218 0.0
C486 C 0.46164 0.70291 0.93753 0.0
C487 C 0.46533 0.73057 0.98354 0.0
H488 H 0.78402 0.47601 0.11903 0.0
H489 H 0.78948 0.42608 0.42476 0.0
H490 H 0.82769 0.39565 0.34329 0.0
H491 H 0.86992 0.39668 0.21495 0.0
H492 H 0.86681 0.45088 0.91884 0.0
H493 H 0.81723 0.46524 0.96332 0.0
C494 C 0.79229 0.45728 0.16506 0.0
C495 C 0.78501 0.45393 0.27881 0.0
C496 C 0.81562 0.44126 0.12018 0.0
C497 C 0.79533 0.42933 0.33743 0.0
C498 C 0.81762 0.4123 0.29152 0.0
C499 C 0.85791 0.41071 0.15804 0.0
C500 C 0.87245 0.42368 0.06633 0.0
C501 C 0.82978 0.4201 0.18747 0.0
C502 C 0.85638 0.44097 0.991 0.0
C503 C 0.828 0.4495 0.01718 0.0
H504 H 0.02944 0.19016 0.18655 0.0
H505 H 1.00209 0.23317 0.88345 0.0
H506 H 1.00429 0.18636 0.78294 0.0
H507 H 1.01083 0.13178 0.78595 0.0
H508 H 0.03802 0.09062 0.09494 0.0
H509 H 0.03881 0.13761 0.18711 0.0
C510 C 0.02458 0.18943 0.09772 0.0
C511 C 1.01595 0.21533 0.04258 0.0
C512 C 0.02539 0.16241 0.04151 0.0
C513 C 1.00935 0.21381 0.92773 0.0
C514 C 1.01027 0.18688 0.87062 0.0
C515 C 1.01709 0.13311 0.8732 0.0
C516 C 0.02422 0.10718 0.93276 0.0
C517 C 1.01772 0.16079 0.9272 0.0
C518 C 0.03231 0.10974 0.04601 0.0
C519 C 0.03285 0.13681 0.09942 0.0
H520 H 0.32812 0.98929 0.93587 0.0
H521 H 0.33017 0.07121 0.1105 0.0
H522 H 0.37981 0.08014 0.04109 0.0
H523 H 0.42477 0.06178 0.94777 0.0
H524 H 0.42151 0.98028 0.76893 0.0
H525 H 0.37055 0.97414 0.82211 0.0
C526 C 0.33912 1.00954 0.9556 0.0
C527 C 0.32532 0.0297 0.02746 0.0
C528 C 0.36781 1.0143 0.91648 0.0
C529 C 0.34003 0.05563 0.05373 0.0
C530 C 0.36862 0.06051 0.01534 0.0
C531 C 0.41284 0.04279 0.91974 0.0
C532 C 0.42731 1.02132 0.85545 0.0
C533 C 0.38311 0.03954 0.94961 0.0
C534 C 0.41121 0.99712 0.81859 0.0
C535 C 0.38194 0.99354 0.84921 0.0
H536 H 0.5108 0.34947 0.14158 0.0
H537 H 0.54585 0.31072 0.84193 0.0
H538 H 0.54266 0.3581 0.74431 0.0
H539 H 0.53351 0.41205 0.7501 0.0
H540 H 0.49855 0.44941 0.05435 0.0
H541 H 0.49818 0.40154 0.14308 0.0
C542 C 0.51696 0.35121 0.05383 0.0
C543 C 0.52805 0.32635 0.99873 0.0
C544 C 0.51557 0.37863 0.99932 0.0
C545 C 0.53657 0.32922 0.88571 0.0
C546 C 0.5351 0.35649 0.83038 0.0
C547 C 0.52558 0.4097 0.83547 0.0
C548 C 0.51622 0.43479 0.89501 0.0
C549 C 0.52524 0.38161 0.88711 0.0
C550 C 0.506 0.43092 1.00571 0.0
C551 C 0.50573 0.40338 0.05703 0.0
H552 H 0.19123 0.50958 0.1663 0.0
H553 H 0.22967 0.54063 0.85834 0.0
H554 H 0.18194 0.53782 0.7658 0.0
H555 H 0.12772 0.5303 0.77862 0.0
H556 H 0.09108 0.50077 0.09422 0.0
H557 H 0.13909 0.49951 0.17642 0.0
C558 C 0.18934 0.51489 0.07787 0.0
C559 C 0.21419 0.52469 0.01888 0.0
C560 C 0.16174 0.51413 0.02685 0.0
C561 C 0.21115 0.53227 0.90508 0.0
C562 C 0.18368 0.53108 0.85272 0.0
C563 C 0.13026 0.52344 0.86512 0.0
C564 C 0.10528 0.51579 0.92948 0.0
C565 C 0.15854 0.5227 0.91357 0.0
C566 C 0.10942 0.50694 0.04166 0.0
C567 C 0.13708 0.50609 0.08938 0.0
H568 H 1.01159 0.84918 0.40429 0.0
H569 H 0.03934 0.80813 0.7109 0.0
H570 H 0.0368 0.85549 0.80727 0.0
H571 H 0.03012 0.90995 0.79938 0.0
H572 H 1.00282 0.94934 0.4873 0.0
H573 H 1.00203 0.90174 0.39912 0.0
C574 C 1.01646 0.85044 0.493 0.0
C575 C 0.02534 0.82492 0.55031 0.0
C576 C 1.01554 0.87781 0.54677 0.0
C577 C 0.0319 0.82716 0.66498 0.0
C578 C 0.03081 0.85441 0.7197 0.0
C579 C 0.02383 0.9081 0.71231 0.0
C580 C 1.01668 0.93369 0.65058 0.0
C581 C 0.02324 0.88012 0.66083 0.0
C582 C 1.00854 0.93048 0.53769 0.0
C583 C 1.00801 0.90307 0.48668 0.0
H584 H 0.7104 0.05556 0.64216 0.0
H585 H 0.70604 0.9791 0.435 0.0
H586 H 0.65559 0.9707 0.49572 0.0
H587 H 0.61083 0.98855 0.59156 0.0
H588 H 0.61625 0.06406 0.80452 0.0
H589 H 0.66786 0.06946 0.75801 0.0
C590 C 0.69871 0.03645 0.61374 0.0
C591 C 0.71208 1.01774 0.53534 0.0
C592 C 0.66956 0.03207 0.64779 0.0
C593 C 0.69649 0.99341 0.49724 0.0
C594 C 0.66745 0.98892 0.53053 0.0
C595 C 0.62338 1.00609 0.62801 0.0
C596 C 0.6095 0.02619 0.69995 0.0
C597 C 0.65341 1.00869 0.60279 0.0
C598 C 0.62625 0.04842 0.74837 0.0
C599 C 0.65584 0.05152 0.72186 0.0
H600 H 0.5253 0.69546 0.37942 0.0
H601 H 0.51933 0.73468 0.70574 0.0
H602 H 0.52484 0.68628 0.79414 0.0
H603 H 0.52636 0.63185 0.77688 0.0
H604 H 0.53171 0.59405 0.44667 0.0
H605 H 0.53099 0.64249 0.36235 0.0
C606 C 0.52581 0.69349 0.47008 0.0
C607 C 0.52212 0.71875 0.53578 0.0
C608 C 0.52812 0.6656 0.51977 0.0
C609 C 0.52258 0.71575 0.65311 0.0
C610 C 0.52527 0.68797 0.70354 0.0
C611 C 0.52746 0.63422 0.68658 0.0
C612 C 0.52878 0.60898 0.61864 0.0
C613 C 0.5272 0.66256 0.63764 0.0
C614 C 0.5306 0.61276 0.50163 0.0
C615 C 0.53019 0.64059 0.45293 0.0
H616 H 0.82659 0.49396 0.63532 0.0
H617 H 0.83758 0.56538 0.40309 0.0
H618 H 0.88745 0.57301 0.47085 0.0
H619 H 0.92988 0.55591 0.58521 0.0
H620 H 0.91695 0.48415 0.81673 0.0
H621 H 0.86652 0.48005 0.7587 0.0
C622 C 0.83964 0.51171 0.60149 0.0
C623 C 0.82814 0.52922 0.51478 0.0
C624 C 0.86843 0.51553 0.63923 0.0
C625 C 0.84555 0.55191 0.47122 0.0
C626 C 0.8743 0.55598 0.50897 0.0
C627 C 0.91599 0.53952 0.62373 0.0
C628 C 0.92774 0.52022 0.70506 0.0
C629 C 0.88633 0.53737 0.59105 0.0
C630 C 0.90901 0.49933 0.75413 0.0
C631 C 0.87995 0.49693 0.72129 0.0
loop_
_geom_bond_atom_site_label_1
_geom_bond_atom_site_label_2
_geom_bond_distance
_geom_bond_site_symmetry_2
_ccdc_geom_bond_type
H0 C3 0.929 . S
H1 C6 0.929 . S
H2 C8 0.930 . S
C3 H0 0.929 . S
C3 C4 1.398 . S
C3 C5 1.396 . S
C4 C3 1.398 . S
C4 C8 1.407 . S
C5 C3 1.396 . S
C5 C6 1.394 . S
C6 H1 0.929 . S
C6 C5 1.394 . S
C6 C7 1.382 . S
C7 C6 1.382 . S
C7 C8 1.392 . S
C7 N9 1.420 . S
C8 H2 0.930 . S
C8 C4 1.407 . S
C8 C7 1.392 . S
N9 C7 1.420 . S
N9 C10 1.244 . S
C10 N9 1.244 . S
H11 C14 0.929 . S
H12 C17 0.929 . S
H13 C19 0.930 . S
C14 H11 0.929 . S
C14 C15 1.395 1_655 S
C14 C16 1.394 1_655 S
C15 C14 1.395 1_455 S
C15 C19 1.414 . S
C16 C14 1.394 1_455 S
C16 C17 1.397 . S
C17 H12 0.929 . S
C17 C16 1.397 . S
C17 C18 1.382 . S
C18 C17 1.382 . S
C18 C19 1.392 . S
C18 N20 1.420 . S
C19 H13 0.930 . S
C19 C15 1.414 . S
C19 C18 1.392 . S
N20 C18 1.420 . S
N20 C21 1.232 1_455 S
C21 N20 1.232 1_655 S
H22 C25 0.929 . S
H23 C28 0.929 . S
H24 C30 0.930 . S
C25 H22 0.929 . S
C25 C26 1.395 1_565 S
C25 C27 1.395 1_565 S
C26 C25 1.395 1_545 S
C26 C30 1.414 . S
C27 C25 1.395 1_545 S
C27 C28 1.397 . S
C28 H23 0.929 . S
C28 C27 1.397 . S
C28 C29 1.382 . S
C29 C28 1.382 . S
C29 C30 1.392 . S
C29 N31 1.420 . S
C30 H24 0.930 . S
C30 C26 1.414 . S
C30 C29 1.392 . S
N31 C29 1.420 . S
N31 C32 1.232 1_545 S
C32 N31 1.232 1_565 S
H33 C36 0.929 . S
H34 C39 0.929 . S
H35 C41 0.930 . S
C36 H33 0.929 . S
C36 C37 1.398 . S
C36 C38 1.396 . S
C37 C36 1.398 . S
C37 C41 1.407 . S
C38 C36 1.396 . S
C38 C39 1.394 . S
C39 H34 0.929 . S
C39 C38 1.394 . S
C39 C40 1.382 . S
C40 C39 1.382 . S
C40 C41 1.392 . S
C40 N42 1.420 . S
C41 H35 0.930 . S
C41 C37 1.407 . S
C41 C40 1.392 . S
N42 C40 1.420 . S
N42 C43 1.244 . S
C43 N42 1.244 . S
H44 C47 0.929 . S
H45 C50 0.929 . S
H46 C52 0.930 . S
C47 H44 0.929 . S
C47 C48 1.398 1_554 S
C47 C49 1.396 . S
C48 C47 1.398 1_556 S
C48 C52 1.407 . S
C49 C47 1.396 . S
C49 C50 1.394 . S
C50 H45 0.929 . S
C50 C49 1.394 . S
C50 C51 1.382 . S
C51 C50 1.382 . S
C51 C52 1.392 1_554 S
C51 N53 1.420 . S
C52 H46 0.930 . S
C52 C48 1.407 . S
C52 C51 1.392 1_556 S
N53 C51 1.420 . S
N53 C54 1.244 . S
C54 N53 1.244 . S
H55 C58 0.929 . S
H56 C61 0.929 . S
H57 C63 0.930 . S
C58 H55 0.929 . S
C58 C59 1.395 1_654 S
C58 C60 1.394 1_655 S
C59 C58 1.395 1_456 S
C59 C63 1.416 . S
C60 C58 1.394 1_455 S
C60 C61 1.398 . S
C61 H56 0.929 . S
C61 C60 1.398 . S
C61 C62 1.382 . S
C62 C61 1.382 . S
C62 C63 1.392 1_554 S
C62 N64 1.420 . S
C63 H57 0.930 . S
C63 C59 1.416 . S
C63 C62 1.392 1_556 S
N64 C62 1.420 . S
N64 C65 1.236 1_455 S
C65 N64 1.236 1_655 S
H66 C69 0.929 . S
H67 C72 0.929 . S
H68 C74 0.930 . S
C69 H66 0.929 . S
C69 C70 1.395 1_564 S
C69 C71 1.394 1_565 S
C70 C69 1.395 1_546 S
C70 C74 1.416 . S
C71 C69 1.394 1_545 S
C71 C72 1.398 . S
C72 H67 0.929 . S
C72 C71 1.398 . S
C72 C73 1.382 . S
C73 C72 1.382 . S
C73 C74 1.392 1_554 S
C73 N75 1.420 . S
C74 H68 0.930 . S
C74 C70 1.416 . S
C74 C73 1.392 1_556 S
N75 C73 1.420 . S
N75 C76 1.236 1_545 S
C76 N75 1.236 1_565 S
H77 C80 0.929 1_556 S
H78 C83 0.929 . S
H79 C85 0.930 . S
C80 H77 0.929 1_554 S
C80 C81 1.398 1_554 S
C80 C82 1.396 . S
C81 C80 1.398 1_556 S
C81 C85 1.407 . S
C82 C80 1.396 . S
C82 C83 1.394 . S
C83 H78 0.929 . S
C83 C82 1.394 . S
C83 C84 1.382 . S
C84 C83 1.382 . S
C84 C85 1.392 1_554 S
C84 N86 1.420 . S
C85 H79 0.930 . S
C85 C81 1.407 . S
C85 C84 1.392 1_556 S
N86 C84 1.420 . S
N86 C87 1.244 . S
C87 N86 1.244 . S
La88 C90 2.928 1_556 S
La88 O108 2.521 . S
La88 O109 2.628 1_556 S
La88 O110 2.554 . S
La88 O111 2.757 1_565 S
La88 O112 2.470 . S
La88 O117 2.482 1_455 S
La88 O119 2.503 1_565 S
La89 C99 2.928 . S
La89 O111 2.482 1_655 S
La89 O113 2.503 1_545 S
La89 O114 2.521 . S
La89 O115 2.628 . S
La89 O116 2.554 . S
La89 O117 2.757 1_545 S
La89 O118 2.470 . S
C90 La88 2.928 1_554 S
C90 C91 1.503 . S
C90 O108 1.261 1_554 S
C90 O109 1.243 . S
C91 C90 1.503 . S
C91 C92 1.394 . S
C91 C96 1.373 . S
C92 C91 1.394 . S
C92 C93 1.380 . S
C92 H120 0.930 . S
C93 C92 1.380 . S
C93 C94 1.376 . S
C93 H121 0.930 . S
C94 C93 1.376 . S
C94 C95 1.370 . S
C95 C94 1.370 . S
C95 C96 1.396 . S
C95 H122 0.897 1_455 S
C96 C91 1.373 . S
C96 C95 1.396 . S
C96 H123 0.929 1_455 S
C97 O110 1.240 . S
C97 O111 1.289 1_565 S
C98 O112 1.258 1_655 S
C98 O113 1.256 . S
C99 La89 2.928 . S
C99 C100 1.503 . S
C99 O114 1.261 . S
C99 O115 1.243 . S
C100 C99 1.503 . S
C100 C101 1.394 . S
C100 C105 1.373 . S
C101 C100 1.394 . S
C101 C102 1.380 . S
C101 H124 0.930 . S
C102 C101 1.380 . S
C102 C103 1.376 . S
C102 H125 0.930 . S
C103 C102 1.376 . S
C103 C104 1.370 . S
C104 C103 1.370 . S
C104 C105 1.396 . S
C104 H126 0.929 1_655 S
C105 C100 1.373 . S
C105 C104 1.396 . S
C105 H127 0.929 1_655 S
C106 O116 1.240 . S
C106 O117 1.289 1_545 S
C107 O118 1.258 1_455 S
C107 O119 1.256 . S
O108 La88 2.521 . S
O108 C90 1.261 1_556 S
O109 La88 2.628 1_554 S
O109 C90 1.243 . S
O110 La88 2.554 . S
O110 C97 1.240 . S
O111 La88 2.757 1_545 S
O111 La89 2.482 1_455 S
O111 C97 1.289 1_545 S
O112 La88 2.470 . S
O112 C98 1.258 1_455 S
O113 La89 2.503 1_565 S
O113 C98 1.256 . S
O114 La89 2.521 . S
O114 C99 1.261 . S
O115 La89 2.628 . S
O115 C99 1.243 . S
O116 La89 2.554 . S
O116 C106 1.240 . S
O117 La88 2.482 1_655 S
O117 La89 2.757 1_565 S
O117 C106 1.289 1_565 S
O118 La89 2.470 . S
O118 C107 1.258 1_655 S
O119 La88 2.503 1_545 S
O119 C107 1.256 . S
H120 C92 0.930 . S
H121 C93 0.930 . S
H122 C95 0.897 1_655 S
H123 C96 0.929 1_655 S
H124 C101 0.930 . S
H125 C102 0.930 . S
H126 C104 0.929 1_455 S
H127 C105 0.929 1_455 S
La128 C130 2.928 1_556 S
La128 O148 2.521 . S
La128 O149 2.628 1_556 S
La128 O150 2.554 . S
La128 O151 2.757 . S
La128 O152 2.470 . S
La128 O157 2.482 1_545 S
La128 O159 2.503 . S
La129 C139 2.928 . S
La129 O151 2.482 1_565 S
La129 O153 2.503 . S
La129 O154 2.521 . S
La129 O155 2.628 . S
La129 O156 2.554 . S
La129 O157 2.757 . S
La129 O158 2.470 . S
C130 La128 2.928 1_554 S
C130 C131 1.503 . S
C130 O148 1.261 1_554 S
C130 O149 1.243 . S
C131 C130 1.503 . S
C131 C132 1.394 . S
C131 C136 1.373 . S
C132 C131 1.394 . S
C132 C133 1.380 . S
C132 H160 0.930 . S
C133 C132 1.380 . S
C133 C134 1.376 . S
C133 H161 0.930 . S
C134 C133 1.376 . S
C134 C135 1.370 . S
C135 C134 1.370 . S
C135 C136 1.396 . S
C135 H162 0.929 1_545 S
C136 C131 1.373 . S
C136 C135 1.396 . S
C136 H163 0.929 1_545 S
C137 O150 1.240 . S
C137 O151 1.289 . S
C138 O152 1.258 1_565 S
C138 O153 1.256 . S
C139 La129 2.928 . S
C139 C140 1.503 . S
C139 O154 1.261 . S
C139 O155 1.243 . S
C140 C139 1.503 . S
C140 C141 1.394 . S
C140 C145 1.373 . S
C141 C140 1.394 . S
C141 C142 1.380 . S
C141 H164 0.930 . S
C142 C141 1.380 . S
C142 C143 1.376 . S
C142 H165 0.930 . S
C143 C142 1.376 . S
C143 C144 1.370 . S
C144 C143 1.370 . S
C144 C145 1.396 . S
C144 H166 0.929 1_565 S
C145 C140 1.373 . S
C145 C144 1.396 . S
C145 H167 0.929 1_565 S
C146 O156 1.240 . S
C146 O157 1.289 . S
C147 O158 1.258 1_545 S
C147 O159 1.256 . S
O148 La128 2.521 . S
O148 C130 1.261 1_556 S
O149 La128 2.628 1_554 S
O149 C130 1.243 . S
O150 La128 2.554 . S
O150 C137 1.240 . S
O151 La128 2.757 . S
O151 La129 2.482 1_545 S
O151 C137 1.289 . S
O152 La128 2.470 . S
O152 C138 1.258 1_545 S
O153 La129 2.503 . S
O153 C138 1.256 . S
O154 La129 2.521 . S
O154 C139 1.261 . S
O155 La129 2.628 . S
O155 C139 1.243 . S
O156 La129 2.554 . S
O156 C146 1.240 . S
O157 La128 2.482 1_565 S
O157 La129 2.757 . S
O157 C146 1.289 . S
O158 La129 2.470 . S
O158 C147 1.258 1_565 S
O159 La128 2.503 . S
O159 C147 1.256 . S
H160 C132 0.930 . S
H161 C133 0.930 . S
H162 C135 0.929 1_565 S
H163 C136 0.929 1_565 S
H164 C141 0.930 . S
H165 C142 0.930 . S
H166 C144 0.929 1_545 S
H167 C145 0.929 1_545 S
La168 C170 2.928 1_556 S
La168 O188 2.521 . S
La168 O189 2.628 1_556 S
La168 O190 2.554 . S
La168 O191 2.757 . S
La168 O192 2.470 . S
La168 O197 2.482 . S
La168 O199 2.503 . S
La169 C179 2.928 . S
La169 O191 2.482 . S
La169 O193 2.503 . S
La169 O194 2.521 . S
La169 O195 2.628 . S
La169 O196 2.554 . S
La169 O197 2.757 . S
La169 O198 2.470 . S
C170 La168 2.928 1_554 S
C170 C171 1.503 . S
C170 O188 1.261 1_554 S
C170 O189 1.243 . S
C171 C170 1.503 . S
C171 C172 1.394 . S
C171 C176 1.373 . S
C172 C171 1.394 . S
C172 C173 1.380 . S
C172 H200 0.930 . S
C173 C172 1.380 . S
C173 C174 1.376 . S
C173 H201 0.930 . S
C174 C173 1.376 . S
C174 C175 1.370 . S
C175 C174 1.370 . S
C175 C176 1.396 . S
C175 H202 0.929 . S
C176 C171 1.373 . S
C176 C175 1.396 . S
C176 H203 0.929 . S
C177 O190 1.240 . S
C177 O191 1.289 . S
C178 O192 1.258 . S
C178 O193 1.256 . S
C179 La169 2.928 . S
C179 C180 1.503 . S
C179 O194 1.261 . S
C179 O195 1.243 . S
C180 C179 1.503 . S
C180 C181 1.394 . S
C180 C185 1.373 . S
C181 C180 1.394 . S
C181 C182 1.380 . S
C181 H204 0.930 . S
C182 C181 1.380 . S
C182 C183 1.376 . S
C182 H205 0.930 . S
C183 C182 1.376 . S
C183 C184 1.370 . S
C184 C183 1.370 . S
C184 C185 1.396 . S
C184 H206 0.929 . S
C185 C180 1.373 . S
C185 C184 1.396 . S
C185 H207 0.929 . S
C186 O196 1.240 . S
C186 O197 1.289 . S
C187 O198 1.258 . S
C187 O199 1.256 . S
O188 La168 2.521 . S
O188 C170 1.261 1_556 S
O189 La168 2.628 1_554 S
O189 C170 1.243 . S
O190 La168 2.554 . S
O190 C177 1.240 . S
O191 La168 2.757 . S
O191 La169 2.482 . S
O191 C177 1.289 . S
O192 La168 2.470 . S
O192 C178 1.258 . S
O193 La169 2.503 . S
O193 C178 1.256 . S
O194 La169 2.521 . S
O194 C179 1.261 . S
O195 La169 2.628 . S
O195 C179 1.243 . S
O196 La169 2.554 . S
O196 C186 1.240 . S
O197 La168 2.482 . S
O197 La169 2.757 . S
O197 C186 1.289 . S
O198 La169 2.470 . S
O198 C187 1.258 . S
O199 La168 2.503 . S
O199 C187 1.256 . S
H200 C172 0.930 . S
H201 C173 0.930 . S
H202 C175 0.929 . S
H203 C176 0.929 . S
H204 C181 0.930 . S
H205 C182 0.930 . S
H206 C184 0.929 . S
H207 C185 0.929 . S
La208 C210 2.928 1_556 S
La208 O228 2.521 . S
La208 O229 2.628 1_556 S
La208 O230 2.554 . S
La208 O231 2.757 1_655 S
La208 O232 2.470 . S
La208 O237 2.482 . S
La208 O239 2.503 1_655 S
La209 C219 2.928 . S
La209 O231 2.482 . S
La209 O233 2.503 1_455 S
La209 O234 2.521 . S
La209 O235 2.628 . S
La209 O236 2.554 . S
La209 O237 2.757 1_455 S
La209 O238 2.470 . S
C210 La208 2.928 1_554 S
C210 C211 1.503 . S
C210 O228 1.261 1_554 S
C210 O229 1.243 . S
C211 C210 1.503 . S
C211 C212 1.394 . S
C211 C216 1.373 . S
C212 C211 1.394 . S
C212 C213 1.380 . S
C212 H240 0.930 . S
C213 C212 1.380 . S
C213 C214 1.376 . S
C213 H241 0.930 . S
C214 C213 1.376 . S
C214 C215 1.370 . S
C215 C214 1.370 . S
C215 C216 1.396 . S
C215 H242 0.929 . S
C216 C211 1.373 . S
C216 C215 1.396 . S
C216 H243 0.929 . S
C217 O230 1.252 . S
C217 O231 1.282 1_655 S
C218 O232 1.258 . S
C218 O233 1.256 . S
C219 La209 2.928 . S
C219 C220 1.503 . S
C219 O234 1.261 . S
C219 O235 1.243 . S
C220 C219 1.503 . S
C220 C221 1.394 . S
C220 C225 1.373 . S
C221 C220 1.394 . S
C221 C222 1.380 . S
C221 H244 0.930 . S
C222 C221 1.380 . S
C222 C223 1.376 . S
C222 H245 0.930 . S
C223 C222 1.376 . S
C223 C224 1.370 . S
C224 C223 1.370 . S
C224 C225 1.396 . S
C224 H246 0.929 . S
C225 C220 1.373 . S
C225 C224 1.396 . S
C225 H247 0.929 . S
C226 O236 1.257 . S
C226 O237 1.279 1_455 S
C227 O238 1.258 . S
C227 O239 1.256 . S
O228 La208 2.521 . S
O228 C210 1.261 1_556 S
O229 La208 2.628 1_554 S
O229 C210 1.243 . S
O230 La208 2.554 . S
O230 C217 1.252 . S
O231 La208 2.757 1_455 S
O231 La209 2.482 . S
O231 C217 1.282 1_455 S
O232 La208 2.470 . S
O232 C218 1.258 . S
O233 La209 2.503 1_655 S
O233 C218 1.256 . S
O234 La209 2.521 . S
O234 C219 1.261 . S
O235 La209 2.628 . S
O235 C219 1.243 . S
O236 La209 2.554 . S
O236 C226 1.257 . S
O237 La208 2.482 . S
O237 La209 2.757 1_655 S
O237 C226 1.279 1_655 S
O238 La209 2.470 . S
O238 C227 1.258 . S
O239 La208 2.503 1_455 S
O239 C227 1.256 . S
H240 C212 0.930 . S
H241 C213 0.930 . S
H242 C215 0.929 . S
H243 C216 0.929 . S
H244 C221 0.930 . S
H245 C222 0.930 . S
H246 C224 0.929 . S
H247 C225 0.929 . S
H248 C254 0.930 . S
H249 C257 0.930 . S
H250 C258 0.930 . S
H251 C259 0.930 . S
H252 C262 0.930 . S
H253 C263 0.930 . S
C254 H248 0.930 . S
C254 C255 1.350 1_545 S
C254 C256 1.415 . S
C255 C254 1.350 1_565 S
C255 C257 1.425 . S
C256 C254 1.415 . S
C256 C261 1.425 1_545 S
C256 C263 1.409 . S
C257 H249 0.930 . S
C257 C255 1.425 . S
C257 C258 1.362 . S
C258 H250 0.930 . S
C258 C257 1.362 . S
C258 C261 1.409 . S
C259 H251 0.930 . S
C259 C260 1.355 1_565 S
C259 C261 1.415 . S
C260 C259 1.355 1_545 S
C260 C262 1.419 . S
C261 C256 1.425 1_565 S
C261 C258 1.409 . S
C261 C259 1.415 . S
C262 H252 0.930 . S
C262 C260 1.419 . S
C262 C263 1.362 . S
C263 H253 0.930 . S
C263 C256 1.409 . S
C263 C262 1.362 . S
H264 C270 0.930 . S
H265 C273 0.930 . S
H266 C274 0.930 . S
H267 C275 0.930 . S
H268 C278 0.930 . S
H269 C279 0.930 . S
C270 H264 0.930 . S
C270 C271 1.355 . S
C270 C272 1.415 . S
C271 C270 1.355 . S
C271 C273 1.419 . S
C272 C270 1.415 . S
C272 C277 1.425 . S
C272 C279 1.409 . S
C273 H265 0.930 . S
C273 C271 1.419 . S
C273 C274 1.362 . S
C274 H266 0.930 . S
C274 C273 1.362 . S
C274 C277 1.409 . S
C275 H267 0.930 . S
C275 C276 1.355 . S
C275 C277 1.415 . S
C276 C275 1.355 . S
C276 C278 1.419 . S
C277 C272 1.425 . S
C277 C274 1.409 . S
C277 C275 1.415 . S
C278 H268 0.930 . S
C278 C276 1.419 . S
C278 C279 1.362 . S
C279 H269 0.930 . S
C279 C272 1.409 . S
C279 C278 1.362 . S
H280 C286 0.930 . S
H281 C289 0.930 . S
H282 C290 0.930 . S
H283 C291 0.930 . S
H284 C294 0.930 . S
H285 C295 0.930 . S
C286 H280 0.930 . S
C286 C287 1.355 . S
C286 C288 1.415 . S
C287 C286 1.355 . S
C287 C289 1.419 . S
C288 C286 1.415 . S
C288 C293 1.425 . S
C288 C295 1.409 . S
C289 H281 0.930 . S
C289 C287 1.419 . S
C289 C290 1.362 . S
C290 H282 0.930 . S
C290 C289 1.362 . S
C290 C293 1.409 . S
C291 H283 0.930 . S
C291 C292 1.355 . S
C291 C293 1.415 . S
C292 C291 1.355 . S
C292 C294 1.419 . S
C293 C288 1.425 . S
C293 C290 1.409 . S
C293 C291 1.415 . S
C294 H284 0.930 . S
C294 C292 1.419 . S
C294 C295 1.362 . S
C295 H285 0.930 . S
C295 C288 1.409 . S
C295 C294 1.362 . S
H296 C302 0.930 . S
H297 C305 0.930 . S
H298 C306 0.930 . S
H299 C307 0.930 . S
H300 C310 0.930 . S
H301 C311 0.930 . S
C302 H296 0.930 . S
C302 C303 1.355 1_655 S
C302 C304 1.415 . S
C303 C302 1.355 1_455 S
C303 C305 1.419 . S
C304 C302 1.415 . S
C304 C309 1.425 1_655 S
C304 C311 1.409 . S
C305 H297 0.930 . S
C305 C303 1.419 . S
C305 C306 1.362 . S
C306 H298 0.930 . S
C306 C305 1.362 . S
C306 C309 1.409 . S
C307 H299 0.930 . S
C307 C308 1.369 . S
C307 C309 1.415 . S
C308 C307 1.369 . S
C308 C310 1.401 1_455 S
C309 C304 1.425 1_455 S
C309 C306 1.409 . S
C309 C307 1.415 . S
C310 H300 0.930 . S
C310 C308 1.401 1_655 S
C310 C311 1.362 . S
C311 H301 0.930 . S
C311 C304 1.409 . S
C311 C310 1.362 . S
H312 C318 0.930 . S
H313 C321 0.930 . S
H314 C322 0.930 . S
H315 C323 0.930 1_556 S
H316 C326 0.930 . S
H317 C327 0.930 . S
C318 H312 0.930 . S
C318 C319 1.356 . S
C318 C320 1.415 . S
C319 C318 1.356 . S
C319 C321 1.417 1_545 S
C320 C318 1.415 . S
C320 C325 1.425 1_545 S
C320 C327 1.409 . S
C321 H313 0.930 . S
C321 C319 1.417 1_565 S
C321 C322 1.362 . S
C322 H314 0.930 . S
C322 C321 1.362 . S
C322 C325 1.409 . S
C323 H315 0.930 1_554 S
C323 C324 1.355 . S
C323 C325 1.415 . S
C324 C323 1.355 . S
C324 C326 1.419 1_565 S
C325 C320 1.425 1_565 S
C325 C322 1.409 . S
C325 C323 1.415 . S
C326 H316 0.930 . S
C326 C324 1.419 1_545 S
C326 C327 1.362 . S
C327 H317 0.930 . S
C327 C320 1.409 . S
C327 C326 1.362 . S
H328 C334 0.930 . S
H329 C337 0.930 . S
H330 C338 0.930 . S
H331 C339 0.930 . S
H332 C342 0.925 1_556 S
H333 C343 0.930 . S
C334 H328 0.930 . S
C334 C335 1.355 . S
C334 C336 1.415 . S
C335 C334 1.355 . S
C335 C337 1.419 . S
C336 C334 1.415 . S
C336 C341 1.425 . S
C336 C343 1.409 . S
C337 H329 0.930 . S
C337 C335 1.419 . S
C337 C338 1.362 . S
C338 H330 0.930 . S
C338 C337 1.362 . S
C338 C341 1.409 . S
C339 H331 0.930 . S
C339 C340 1.355 1_554 S
C339 C341 1.415 . S
C340 C339 1.355 1_556 S
C340 C342 1.419 1_556 S
C341 C336 1.425 . S
C341 C338 1.409 . S
C341 C339 1.415 . S
C342 H332 0.925 1_554 S
C342 C340 1.419 1_554 S
C342 C343 1.367 . S
C343 H333 0.930 . S
C343 C336 1.409 . S
C343 C342 1.367 . S
H344 C350 0.930 . S
H345 C353 0.930 . S
H346 C354 0.930 . S
H347 C355 0.930 . S
H348 C358 0.930 . S
H349 C359 0.930 . S
C350 H344 0.930 . S
C350 C351 1.355 . S
C350 C352 1.415 . S
C351 C350 1.355 . S
C351 C353 1.419 . S
C352 C350 1.415 . S
C352 C357 1.425 . S
C352 C359 1.409 . S
C353 H345 0.930 . S
C353 C351 1.419 . S
C353 C354 1.362 . S
C354 H346 0.930 . S
C354 C353 1.362 . S
C354 C357 1.409 . S
C355 H347 0.930 . S
C355 C356 1.355 1_554 S
C355 C357 1.415 . S
C356 C355 1.355 1_556 S
C356 C358 1.419 . S
C357 C352 1.425 . S
C357 C354 1.409 . S
C357 C355 1.415 . S
C358 H348 0.930 . S
C358 C356 1.419 . S
C358 C359 1.362 1_556 S
C359 H349 0.930 . S
C359 C352 1.409 . S
C359 C358 1.362 1_554 S
H360 C366 0.930 . S
H361 C369 0.930 . S
H362 C370 0.930 . S
H363 C371 0.930 . S
H364 C374 0.930 . S
H365 C375 0.930 . S
C366 H360 0.930 . S
C366 C367 1.355 1_455 S
C366 C368 1.415 . S
C367 C366 1.355 1_655 S
C367 C369 1.419 . S
C368 C366 1.415 . S
C368 C373 1.425 1_455 S
C368 C375 1.409 . S
C369 H361 0.930 . S
C369 C367 1.419 . S
C369 C370 1.362 . S
C370 H362 0.930 . S
C370 C369 1.362 . S
C370 C373 1.409 . S
C371 H363 0.930 . S
C371 C372 1.346 1_654 S
C371 C373 1.415 . S
C372 C371 1.346 1_456 S
C372 C374 1.430 . S
C373 C368 1.425 1_655 S
C373 C370 1.409 . S
C373 C371 1.415 . S
C374 H364 0.930 . S
C374 C372 1.430 . S
C374 C375 1.362 1_556 S
C375 H365 0.930 . S
C375 C368 1.409 . S
C375 C374 1.362 1_554 S
H376 C382 0.930 . S
H377 C385 0.930 . S
H378 C386 0.930 . S
H379 C387 0.930 . S
H380 C390 0.930 . S
H381 C391 0.930 . S
C382 H376 0.930 . S
C382 C383 1.355 1_655 S
C382 C384 1.415 . S
C383 C382 1.355 1_455 S
C383 C385 1.419 . S
C384 C382 1.415 . S
C384 C389 1.425 . S
C384 C391 1.409 . S
C385 H377 0.930 . S
C385 C383 1.419 . S
C385 C386 1.362 . S
C386 H378 0.930 . S
C386 C385 1.362 . S
C386 C389 1.409 1_455 S
C387 H379 0.930 . S
C387 C388 1.355 . S
C387 C389 1.415 . S
C388 C387 1.355 . S
C388 C390 1.419 . S
C389 C384 1.425 . S
C389 C386 1.409 1_655 S
C389 C387 1.415 . S
C390 H380 0.930 . S
C390 C388 1.419 . S
C390 C391 1.362 . S
C391 H381 0.930 . S
C391 C384 1.409 . S
C391 C390 1.362 . S
H392 C398 0.930 . S
H393 C401 0.930 . S
H394 C402 0.930 . S
H395 C403 0.930 . S
H396 C406 0.930 . S
H397 C407 0.930 . S
C398 H392 0.930 . S
C398 C399 1.355 1_565 S
C398 C400 1.415 . S
C399 C398 1.355 1_545 S
C399 C401 1.419 . S
C400 C398 1.415 . S
C400 C405 1.425 . S
C400 C407 1.409 . S
C401 H393 0.930 . S
C401 C399 1.419 . S
C401 C402 1.362 . S
C402 H394 0.930 . S
C402 C401 1.362 . S
C402 C405 1.409 1_545 S
C403 H395 0.930 . S
C403 C404 1.355 . S
C403 C405 1.415 . S
C404 C403 1.355 . S
C404 C406 1.419 . S
C405 C400 1.425 . S
C405 C402 1.409 1_565 S
C405 C403 1.415 . S
C406 H396 0.930 . S
C406 C404 1.419 . S
C406 C407 1.362 . S
C407 H397 0.930 . S
C407 C400 1.409 . S
C407 C406 1.362 . S
H408 C414 0.930 . S
H409 C417 0.930 . S
H410 C418 0.930 . S
H411 C419 0.930 . S
H412 C422 0.930 . S
H413 C423 0.930 . S
C414 H408 0.930 . S
C414 C415 1.355 . S
C414 C416 1.415 . S
C415 C414 1.355 . S
C415 C417 1.419 . S
C416 C414 1.415 . S
C416 C421 1.425 . S
C416 C423 1.409 . S
C417 H409 0.930 . S
C417 C415 1.419 . S
C417 C418 1.362 . S
C418 H410 0.930 . S
C418 C417 1.362 . S
C418 C421 1.409 . S
C419 H411 0.930 . S
C419 C420 1.355 . S
C419 C421 1.415 . S
C420 C419 1.355 . S
C420 C422 1.419 . S
C421 C416 1.425 . S
C421 C418 1.409 . S
C421 C419 1.415 . S
C422 H412 0.930 . S
C422 C420 1.419 . S
C422 C423 1.362 . S
C423 H413 0.930 . S
C423 C416 1.409 . S
C423 C422 1.362 . S
H424 C430 0.930 . S
H425 C433 0.930 . S
H426 C434 0.930 . S
H427 C435 0.930 . S
H428 C438 0.930 . S
H429 C439 0.930 . S
C430 H424 0.930 . S
C430 C431 1.355 . S
C430 C432 1.415 . S
C431 C430 1.355 . S
C431 C433 1.419 . S
C432 C430 1.415 . S
C432 C437 1.425 . S
C432 C439 1.409 . S
C433 H425 0.930 . S
C433 C431 1.419 . S
C433 C434 1.362 . S
C434 H426 0.930 . S
C434 C433 1.362 . S
C434 C437 1.409 . S
C435 H427 0.930 . S
C435 C436 1.355 . S
C435 C437 1.415 . S
C436 C435 1.355 . S
C436 C438 1.419 . S
C437 C432 1.425 . S
C437 C434 1.409 . S
C437 C435 1.415 . S
C438 H428 0.930 . S
C438 C436 1.419 . S
C438 C439 1.362 . S
C439 H429 0.930 . S
C439 C432 1.409 . S
C439 C438 1.362 . S
H440 C446 0.930 . S
H441 C449 0.930 . S
H442 C450 0.930 . S
H443 C451 0.930 . S
H444 C454 0.930 . S
H445 C455 0.930 . S
C446 H440 0.930 . S
C446 C447 1.355 1_455 S
C446 C448 1.415 . S
C447 C446 1.355 1_655 S
C447 C449 1.419 . S
C448 C446 1.415 . S
C448 C453 1.425 . S
C448 C455 1.409 . S
C449 H441 0.930 . S
C449 C447 1.419 . S
C449 C450 1.362 1_655 S
C450 H442 0.930 . S
C450 C449 1.362 1_455 S
C450 C453 1.409 . S
C451 H443 0.930 . S
C451 C452 1.355 . S
C451 C453 1.415 . S
C452 C451 1.355 . S
C452 C454 1.419 . S
C453 C448 1.425 . S
C453 C450 1.409 . S
C453 C451 1.415 . S
C454 H444 0.930 . S
C454 C452 1.419 . S
C454 C455 1.362 . S
C455 H445 0.930 . S
C455 C448 1.409 . S
C455 C454 1.362 . S
H456 C462 0.930 . S
H457 C465 0.930 . S
H458 C466 0.930 . S
H459 C467 0.930 . S
H460 C470 0.930 . S
H461 C471 0.930 . S
C462 H456 0.930 . S
C462 C463 1.355 1_545 S
C462 C464 1.415 . S
C463 C462 1.355 1_565 S
C463 C465 1.419 . S
C464 C462 1.415 . S
C464 C469 1.425 . S
C464 C471 1.409 . S
C465 H457 0.930 . S
C465 C463 1.419 . S
C465 C466 1.362 . S
C466 H458 0.930 . S
C466 C465 1.362 . S
C466 C469 1.409 1_565 S
C467 H459 0.930 . S
C467 C468 1.355 . S
C467 C469 1.415 . S
C468 C467 1.355 . S
C468 C470 1.419 . S
C469 C464 1.425 . S
C469 C466 1.409 1_545 S
C469 C467 1.415 . S
C470 H460 0.930 . S
C470 C468 1.419 . S
C470 C471 1.362 . S
C471 H461 0.930 . S
C471 C464 1.409 . S
C471 C470 1.362 . S
H472 C478 0.930 . S
H473 C481 0.930 . S
H474 C482 0.930 . S
H475 C483 0.930 . S
H476 C486 0.930 . S
H477 C487 0.930 . S
C478 H472 0.930 . S
C478 C479 1.355 . S
C478 C480 1.415 . S
C479 C478 1.355 . S
C479 C481 1.419 . S
C480 C478 1.415 . S
C480 C485 1.425 . S
C480 C487 1.409 . S
C481 H473 0.930 . S
C481 C479 1.419 . S
C481 C482 1.362 . S
C482 H474 0.930 . S
C482 C481 1.362 . S
C482 C485 1.409 . S
C483 H475 0.930 . S
C483 C484 1.355 . S
C483 C485 1.415 . S
C484 C483 1.355 . S
C484 C486 1.419 . S
C485 C480 1.425 . S
C485 C482 1.409 . S
C485 C483 1.415 . S
C486 H476 0.930 . S
C486 C484 1.419 . S
C486 C487 1.362 . S
C487 H477 0.930 . S
C487 C480 1.409 . S
C487 C486 1.362 . S
H488 C494 0.930 . S
H489 C497 0.930 . S
H490 C498 0.930 . S
H491 C499 0.930 . S
H492 C502 0.930 . S
H493 C503 0.930 . S
C494 H488 0.930 . S
C494 C495 1.355 . S
C494 C496 1.415 . S
C495 C494 1.355 . S
C495 C497 1.419 . S
C496 C494 1.415 . S
C496 C501 1.425 . S
C496 C503 1.409 . S
C497 H489 0.930 . S
C497 C495 1.419 . S
C497 C498 1.362 . S
C498 H490 0.930 . S
C498 C497 1.362 . S
C498 C501 1.409 . S
C499 H491 0.930 . S
C499 C500 1.355 . S
C499 C501 1.415 . S
C500 C499 1.355 . S
C500 C502 1.419 . S
C501 C496 1.425 . S
C501 C498 1.409 . S
C501 C499 1.415 . S
C502 H492 0.930 . S
C502 C500 1.419 . S
C502 C503 1.362 . S
C503 H493 0.930 . S
C503 C496 1.409 . S
C503 C502 1.362 . S
H504 C510 0.930 . S
H505 C513 0.930 . S
H506 C514 0.930 . S
H507 C515 0.930 . S
H508 C518 0.930 . S
H509 C519 0.930 . S
C510 H504 0.930 . S
C510 C511 1.365 . S
C510 C512 1.415 . S
C511 C510 1.365 . S
C511 C513 1.408 1_455 S
C512 C510 1.415 . S
C512 C517 1.425 1_455 S
C512 C519 1.409 . S
C513 H505 0.930 . S
C513 C511 1.408 1_655 S
C513 C514 1.362 . S
C514 H506 0.930 . S
C514 C513 1.362 . S
C514 C517 1.409 . S
C515 H507 0.930 . S
C515 C516 1.355 1_655 S
C515 C517 1.415 . S
C516 C515 1.355 1_455 S
C516 C518 1.419 . S
C517 C512 1.425 1_655 S
C517 C514 1.409 . S
C517 C515 1.415 . S
C518 H508 0.930 . S
C518 C516 1.419 . S
C518 C519 1.362 . S
C519 H509 0.930 . S
C519 C512 1.409 . S
C519 C518 1.362 . S
H520 C526 0.930 . S
H521 C529 0.930 1_554 S
H522 C530 0.930 1_554 S
H523 C531 0.930 . S
H524 C534 0.930 . S
H525 C535 0.929 1_565 S
C526 H520 0.930 . S
C526 C527 1.355 1_565 S
C526 C528 1.415 1_565 S
C527 C526 1.355 1_545 S
C527 C529 1.419 . S
C528 C526 1.415 1_545 S
C528 C533 1.425 . S
C528 C535 1.410 . S
C529 H521 0.930 1_556 S
C529 C527 1.419 . S
C529 C530 1.362 . S
C530 H522 0.930 1_556 S
C530 C529 1.362 . S
C530 C533 1.409 . S
C531 H523 0.930 . S
C531 C532 1.355 . S
C531 C533 1.415 . S
C532 C531 1.355 . S
C532 C534 1.419 . S
C533 C528 1.425 . S
C533 C530 1.409 . S
C533 C531 1.415 . S
C534 H524 0.930 . S
C534 C532 1.419 . S
C534 C535 1.363 . S
C535 H525 0.929 1_545 S
C535 C528 1.410 . S
C535 C534 1.363 . S
H536 C542 0.930 . S
H537 C545 0.930 . S
H538 C546 0.930 . S
H539 C547 0.930 . S
H540 C550 0.930 . S
H541 C551 0.930 . S
C542 H536 0.930 . S
C542 C543 1.355 . S
C542 C544 1.415 . S
C543 C542 1.355 . S
C543 C545 1.419 . S
C544 C542 1.415 . S
C544 C549 1.425 . S
C544 C551 1.409 . S
C545 H537 0.930 . S
C545 C543 1.419 . S
C545 C546 1.362 . S
C546 H538 0.930 . S
C546 C545 1.362 . S
C546 C549 1.409 . S
C547 H539 0.930 . S
C547 C548 1.355 . S
C547 C549 1.415 . S
C548 C547 1.355 . S
C548 C550 1.419 . S
C549 C544 1.425 . S
C549 C546 1.409 . S
C549 C547 1.415 . S
C550 H540 0.930 . S
C550 C548 1.419 . S
C550 C551 1.362 . S
C551 H541 0.930 . S
C551 C544 1.409 . S
C551 C550 1.362 . S
H552 C558 0.930 . S
H553 C561 0.930 . S
H554 C562 0.930 . S
H555 C563 0.930 . S
H556 C566 0.930 . S
H557 C567 0.930 . S
C558 H552 0.930 . S
C558 C559 1.355 . S
C558 C560 1.415 . S
C559 C558 1.355 . S
C559 C561 1.419 . S
C560 C558 1.415 . S
C560 C565 1.425 . S
C560 C567 1.409 . S
C561 H553 0.930 . S
C561 C559 1.419 . S
C561 C562 1.362 . S
C562 H554 0.930 . S
C562 C561 1.362 . S
C562 C565 1.409 . S
C563 H555 0.930 . S
C563 C564 1.355 . S
C563 C565 1.415 . S
C564 C563 1.355 . S
C564 C566 1.419 . S
C565 C560 1.425 . S
C565 C562 1.409 . S
C565 C563 1.415 . S
C566 H556 0.930 . S
C566 C564 1.419 . S
C566 C567 1.362 . S
C567 H557 0.930 . S
C567 C560 1.409 . S
C567 C566 1.362 . S
H568 C574 0.930 . S
H569 C577 0.930 . S
H570 C578 0.930 . S
H571 C579 0.930 1_455 S
H572 C582 0.930 . S
H573 C583 0.930 . S
C574 H568 0.930 . S
C574 C575 1.373 . S
C574 C576 1.415 . S
C575 C574 1.373 . S
C575 C577 1.401 1_655 S
C576 C574 1.415 . S
C576 C581 1.442 . S
C576 C583 1.409 . S
C577 H569 0.930 . S
C577 C575 1.401 1_455 S
C577 C578 1.362 . S
C578 H570 0.930 . S
C578 C577 1.362 . S
C578 C581 1.393 1_455 S
C579 H571 0.930 1_655 S
C579 C580 1.355 . S
C579 C581 1.416 . S
C580 C579 1.355 . S
C580 C582 1.419 . S
C581 C576 1.442 . S
C581 C578 1.393 1_655 S
C581 C579 1.416 . S
C582 H572 0.930 . S
C582 C580 1.419 . S
C582 C583 1.362 . S
C583 H573 0.930 . S
C583 C576 1.409 . S
C583 C582 1.362 . S
H584 C590 0.930 . S
H585 C593 0.930 . S
H586 C594 0.930 . S
H587 C595 0.930 . S
H588 C598 0.930 . S
H589 C599 0.930 . S
C590 H584 0.930 . S
C590 C591 1.355 1_545 S
C590 C592 1.415 . S
C591 C590 1.355 1_565 S
C591 C593 1.419 . S
C592 C590 1.415 . S
C592 C597 1.425 1_545 S
C592 C599 1.409 . S
C593 H585 0.930 . S
C593 C591 1.419 . S
C593 C594 1.362 . S
C594 H586 0.930 . S
C594 C593 1.362 . S
C594 C597 1.409 . S
C595 H587 0.930 . S
C595 C596 1.355 . S
C595 C597 1.415 . S
C596 C595 1.355 . S
C596 C598 1.419 1_565 S
C597 C592 1.425 1_565 S
C597 C594 1.409 . S
C597 C595 1.415 . S
C598 H588 0.930 . S
C598 C596 1.419 1_545 S
C598 C599 1.362 . S
C599 H589 0.930 . S
C599 C592 1.409 . S
C599 C598 1.362 . S
H600 C606 0.930 . S
H601 C609 0.930 . S
H602 C610 0.930 . S
H603 C611 0.930 . S
H604 C614 0.930 . S
H605 C615 0.930 . S
C606 H600 0.930 . S
C606 C607 1.355 . S
C606 C608 1.415 . S
C607 C606 1.355 . S
C607 C609 1.419 . S
C608 C606 1.415 . S
C608 C613 1.425 . S
C608 C615 1.409 . S
C609 H601 0.930 . S
C609 C607 1.419 . S
C609 C610 1.362 . S
C610 H602 0.930 . S
C610 C609 1.362 . S
C610 C613 1.409 . S
C611 H603 0.930 . S
C611 C612 1.355 . S
C611 C613 1.415 . S
C612 C611 1.355 . S
C612 C614 1.419 . S
C613 C608 1.425 . S
C613 C610 1.409 . S
C613 C611 1.415 . S
C614 H604 0.930 . S
C614 C612 1.419 . S
C614 C615 1.362 . S
C615 H605 0.930 . S
C615 C608 1.409 . S
C615 C614 1.362 . S
H616 C622 0.930 . S
H617 C625 0.930 . S
H618 C626 0.930 . S
H619 C627 0.930 . S
H620 C630 0.930 . S
H621 C631 0.930 . S
C622 H616 0.930 . S
C622 C623 1.355 . S
C622 C624 1.415 . S
C623 C622 1.355 . S
C623 C625 1.419 . S
C624 C622 1.415 . S
C624 C629 1.425 . S
C624 C631 1.409 . S
C625 H617 0.930 . S
C625 C623 1.419 . S
C625 C626 1.362 . S
C626 H618 0.930 . S
C626 C625 1.362 . S
C626 C629 1.409 . S
C627 H619 0.930 . S
C627 C628 1.355 . S
C627 C629 1.415 . S
C628 C627 1.355 . S
C628 C630 1.419 . S
C629 C624 1.425 . S
C629 C626 1.409 . S
C629 C627 1.415 . S
C630 H620 0.930 . S
C630 C628 1.419 . S
C630 C631 1.362 . S
C631 H621 0.930 . S
C631 C624 1.409 . S
C631 C630 1.362 . S
C255 C76 1.832 . S
C260 C97 2.052 1_545 S
C276 C137 2.068 . S
C271 C87 1.845 . S
C292 C177 2.080 . S
C287 C54 1.869 . S
C308 C217 2.051 1_455 S
C303 C65 1.921 1_455 S
C324 C106 2.054 1_564 S
C319 C32 1.836 1_545 S
C335 C43 1.885 . S
C340 C146 2.054 . S
C351 C10 1.914 . S
C356 C186 2.059 . S
C367 C21 1.907 . S
C372 C226 2.049 . S
C388 C103 0.702 . S
C383 C60 0.723 . S
C404 C143 0.718 . S
C399 C71 0.670 . S
C420 C183 0.723 . S
C415 C82 0.682 . S
C431 C49 0.714 . S
C436 C223 0.690 . S
C447 C16 0.551 1_655 S
C452 C94 0.615 . S
C468 C134 0.711 . S
C463 C27 0.657 1_565 S
C484 C174 0.553 . S
C479 C38 0.608 . S
C495 C5 0.549 . S
C500 C214 0.538 . S
C511 C59 2.149 . S
C516 C107 2.419 . S
C527 C70 2.064 . S
C532 C147 2.376 . S
C548 C187 2.381 . S
C543 C81 2.103 . S
C564 C227 2.407 . S
C559 C48 2.149 . S
C575 C15 2.166 1_655 S
C580 C98 2.426 . S
C596 C138 2.356 . S
C591 C26 2.121 1_565 S
C612 C178 2.379 . S
C607 C37 2.077 . S
C623 C4 2.156 . S
C628 C218 2.380 . S
