# Generated by pormake.
# Topology pyr, (3,6)-cn, num edge types: 1
# Building blocks:
#     Node 0, Type 0, BuildingBlock: BELTOD_clean_linker_0, # of connection points: 3
#     Node 1, Type 0, BuildingBlock: BELTOD_clean_linker_0, # of connection points: 3
#     Node 2, Type 0, BuildingBlock: BELTOD_clean_linker_0, # of connection points: 3
#     Node 3, Type 0, BuildingBlock: BELTOD_clean_linker_0, # of connection points: 3
#     Node 4, Type 0, BuildingBlock: BELTOD_clean_linker_0, # of connection points: 3
#     Node 5, Type 0, BuildingBlock: BELTOD_clean_linker_0, # of connection points: 3
#     Node 6, Type 0, BuildingBlock: BELTOD_clean_linker_0, # of connection points: 3
#     Node 7, Type 0, BuildingBlock: BELTOD_clean_linker_0, # of connection points: 3
#     Node 8, Type 1, BuildingBlock: MIFKUJ_clean_sbu_0, # of connection points: 6
#     Node 9, Type 1, BuildingBlock: MIFKUJ_clean_sbu_0, # of connection points: 6
#     Node 10, Type 1, BuildingBlock: MIFKUJ_clean_sbu_0, # of connection points: 6
#     Node 11, Type 1, BuildingBlock: MIFKUJ_clean_sbu_0, # of connection points: 6
#     Edge 12, Type (0, 1), BuildingBlock: EYOCIG_clean_linker_4, # of connection points: 2
#     Edge 13, Type (0, 1), BuildingBlock: EYOCIG_clean_linker_4, # of connection points: 2
#     Edge 14, Type (0, 1), BuildingBlock: EYOCIG_clean_linker_4, # of connection points: 2
#     Edge 15, Type (0, 1), BuildingBlock: EYOCIG_clean_linker_4, # of connection points: 2
#     Edge 16, Type (0, 1), BuildingBlock: EYOCIG_clean_linker_4, # of connection points: 2
#     Edge 17, Type (0, 1), BuildingBlock: EYOCIG_clean_linker_4, # of connection points: 2
#     Edge 18, Type (0, 1), BuildingBlock: EYOCIG_clean_linker_4, # of connection points: 2
#     Edge 19, Type (0, 1), BuildingBlock: EYOCIG_clean_linker_4, # of connection points: 2
#     Edge 20, Type (0, 1), BuildingBlock: EYOCIG_clean_linker_4, # of connection points: 2
#     Edge 21, Type (0, 1), BuildingBlock: EYOCIG_clean_linker_4, # of connection points: 2
#     Edge 22, Type (0, 1), BuildingBlock: EYOCIG_clean_linker_4, # of connection points: 2
#     Edge 23, Type (0, 1), BuildingBlock: EYOCIG_clean_linker_4, # of connection points: 2
#     Edge 24, Type (0, 1), BuildingBlock: EYOCIG_clean_linker_4, # of connection points: 2
#     Edge 25, Type (0, 1), BuildingBlock: EYOCIG_clean_linker_4, # of connection points: 2
#     Edge 26, Type (0, 1), BuildingBlock: EYOCIG_clean_linker_4, # of connection points: 2
#     Edge 27, Type (0, 1), BuildingBlock: EYOCIG_clean_linker_4, # of connection points: 2
#     Edge 28, Type (0, 1), BuildingBlock: EYOCIG_clean_linker_4, # of connection points: 2
#     Edge 29, Type (0, 1), BuildingBlock: EYOCIG_clean_linker_4, # of connection points: 2
#     Edge 30, Type (0, 1), BuildingBlock: EYOCIG_clean_linker_4, # of connection points: 2
#     Edge 31, Type (0, 1), BuildingBlock: EYOCIG_clean_linker_4, # of connection points: 2
#     Edge 32, Type (0, 1), BuildingBlock: EYOCIG_clean_linker_4, # of connection points: 2
#     Edge 33, Type (0, 1), BuildingBlock: EYOCIG_clean_linker_4, # of connection points: 2
#     Edge 34, Type (0, 1), BuildingBlock: EYOCIG_clean_linker_4, # of connection points: 2
#     Edge 35, Type (0, 1), BuildingBlock: EYOCIG_clean_linker_4, # of connection points: 2
# Relax obj value: 0.034
# Max RMSD: 0.089
# Mean RMSD: 0.053
data_MOF--net-pyr--node1-MIFKUJ_clean_sbu_0--node2-BELTOD_clean_linker_0--edge1-EYOCIG_clean_linker_4
_symmetry_space_group_name_H-M    P1
_symmetry_Int_Tables_number       1
_symmetry_cell_setting            triclinic
loop_
_symmetry_equiv_pos_as_xyz
'x, y, z'
_cell_length_a     36.979184
_cell_length_b     33.579094
_cell_length_c     35.335535
_cell_angle_alpha  85.946543
_cell_angle_beta   88.31052
_cell_angle_gamma 97.060131
loop_
_atom_site_label
_atom_site_type_symbol
_atom_site_fract_x
_atom_site_fract_y
_atom_site_fract_z
_atom_type_partial_charge
P0 P 0.23638 0.23025 0.25186 0.0
H1 H 0.31026 0.24579 0.2189 0.0
H2 H 0.34736 0.20619 0.18127 0.0
H3 H 0.25917 0.10884 0.1875 0.0
H4 H 0.22196 0.14857 0.22549 0.0
H5 H 0.21167 0.30953 0.25531 0.0
H6 H 0.17065 0.34543 0.21581 0.0
H7 H 0.15963 0.24814 0.14193 0.0
H8 H 0.20075 0.21237 0.18108 0.0
H9 H 0.24975 0.18225 0.32086 0.0
H10 H 0.1568 0.20766 0.25606 0.0
O11 O 0.26367 0.26186 0.27595 0.0
H12 H 0.20896 0.13599 0.36509 0.0
H13 H 0.11679 0.16192 0.29987 0.0
C14 C 0.26361 0.19997 0.22539 0.0
C15 C 0.29893 0.21586 0.21242 0.0
C16 C 0.32004 0.19332 0.19085 0.0
C17 C 0.30602 0.1547 0.18154 0.0
C18 C 0.27054 0.13865 0.19436 0.0
C19 C 0.24939 0.16124 0.21613 0.0
C20 C 0.21004 0.25878 0.22051 0.0
C21 C 0.20097 0.29622 0.23027 0.0
C22 C 0.17736 0.31648 0.20803 0.0
C23 C 0.16219 0.29911 0.17629 0.0
C24 C 0.17118 0.26182 0.16645 0.0
C25 C 0.19492 0.24168 0.18854 0.0
C26 C 0.20638 0.19846 0.28524 0.0
C27 C 0.22076 0.17802 0.3162 0.0
C28 C 0.19769 0.15163 0.34118 0.0
C29 C 0.16026 0.1457 0.33508 0.0
C30 C 0.14582 0.16621 0.30451 0.0
C31 C 0.16875 0.19245 0.27962 0.0
P32 P 0.36779 0.87118 0.65522 0.0
H33 H 0.43195 0.90397 0.69312 0.0
H34 H 0.44199 0.91848 0.75913 0.0
H35 H 0.33143 0.86744 0.79059 0.0
H36 H 0.32128 0.85278 0.72424 0.0
H37 H 0.39591 0.84013 0.58748 0.0
H38 H 0.40886 0.77287 0.57335 0.0
H39 H 0.37104 0.7266 0.68653 0.0
H40 H 0.35795 0.79395 0.70081 0.0
H41 H 0.33076 0.94189 0.65136 0.0
H42 H 0.30281 0.81434 0.64203 0.0
O43 O 0.39522 0.90543 0.6278 0.0
H44 H 0.26763 0.95241 0.63906 0.0
H45 H 0.23967 0.82499 0.62959 0.0
C46 C 0.37558 0.87874 0.70386 0.0
C47 C 0.40988 0.8959 0.71415 0.0
C48 C 0.4156 0.90399 0.75167 0.0
C49 C 0.38713 0.89478 0.77905 0.0
C50 C 0.35339 0.87535 0.7694 0.0
C51 C 0.34764 0.86725 0.7317 0.0
C52 C 0.37711 0.82206 0.64545 0.0
C53 C 0.39058 0.81563 0.60931 0.0
C54 C 0.39773 0.7774 0.60122 0.0
C55 C 0.39126 0.74552 0.62918 0.0
C56 C 0.37648 0.75136 0.66491 0.0
C57 C 0.36932 0.7897 0.67305 0.0
C58 C 0.32155 0.87766 0.64633 0.0
C59 C 0.31109 0.91627 0.64647 0.0
C60 C 0.27518 0.92219 0.63976 0.0
C61 C 0.24951 0.88951 0.63295 0.0
C62 C 0.25945 0.85054 0.63445 0.0
C63 C 0.29547 0.84459 0.64125 0.0
P64 P 0.69655 0.31039 0.77718 0.0
H65 H 0.76985 0.30043 0.80198 0.0
H66 H 0.81319 0.34061 0.83962 0.0
H67 H 0.73812 0.4285 0.84808 0.0
H68 H 0.6946 0.38827 0.81004 0.0
H69 H 0.6651 0.22673 0.77148 0.0
H70 H 0.62678 0.17771 0.8149 0.0
H71 H 0.6232 0.26709 0.89623 0.0
H72 H 0.66181 0.31637 0.85273 0.0
H73 H 0.71903 0.3636 0.70951 0.0
H74 H 0.61985 0.32705 0.77685 0.0
O75 O 0.72025 0.28362 0.74966 0.0
H76 H 0.68571 0.40417 0.66518 0.0
H77 H 0.58655 0.36753 0.73257 0.0
C78 C 0.72897 0.34136 0.80321 0.0
C79 C 0.76271 0.32845 0.81161 0.0
C80 C 0.78745 0.35136 0.83308 0.0
C81 C 0.77861 0.38716 0.84692 0.0
C82 C 0.74529 0.40074 0.83783 0.0
C83 C 0.72051 0.37781 0.81618 0.0
C84 C 0.66689 0.27513 0.80904 0.0
C85 C 0.65608 0.23598 0.79856 0.0
C86 C 0.63408 0.208 0.82327 0.0
C87 C 0.62237 0.21875 0.85878 0.0
C88 C 0.6321 0.2582 0.86893 0.0
C89 C 0.65423 0.28625 0.84418 0.0
C90 C 0.67184 0.34175 0.74617 0.0
C91 C 0.69014 0.36442 0.71485 0.0
C92 C 0.67116 0.38767 0.68962 0.0
C93 C 0.63355 0.38864 0.69536 0.0
C94 C 0.61552 0.3671 0.72745 0.0
C95 C 0.63452 0.34384 0.75269 0.0
P96 P 0.81878 0.71098 0.23964 0.0
H97 H 0.85631 0.79339 0.23171 0.0
H98 H 0.89121 0.83501 0.27579 0.0
H99 H 0.87849 0.73511 0.36077 0.0
H100 H 0.84346 0.6934 0.31668 0.0
H101 H 0.81205 0.68569 0.1625 0.0
H102 H 0.84666 0.64357 0.12477 0.0
H103 H 0.91713 0.62699 0.21817 0.0
H104 H 0.88259 0.66927 0.25595 0.0
H105 H 0.75537 0.73002 0.28166 0.0
H106 H 0.80432 0.6232 0.25999 0.0
O107 O 0.79921 0.74238 0.21029 0.0
H108 H 0.71097 0.68996 0.32648 0.0
H109 H 0.75984 0.58319 0.30491 0.0
C110 C 0.84687 0.74046 0.27108 0.0
C111 C 0.8612 0.78028 0.25969 0.0
C112 C 0.88119 0.80399 0.28478 0.0
C113 C 0.88738 0.7881 0.32145 0.0
C114 C 0.87406 0.7479 0.33252 0.0
C115 C 0.85398 0.72418 0.30742 0.0
C116 C 0.84527 0.68134 0.21171 0.0
C117 C 0.8351 0.67329 0.17481 0.0
C118 C 0.85467 0.6491 0.15338 0.0
C119 C 0.88441 0.63242 0.16875 0.0
C120 C 0.89426 0.63981 0.20585 0.0
C121 C 0.87473 0.6641 0.22728 0.0
C122 C 0.7832 0.6797 0.26758 0.0
C123 C 0.75625 0.69791 0.28612 0.0
C124 C 0.73105 0.67513 0.31177 0.0
C125 C 0.73263 0.63391 0.31939 0.0
C126 C 0.75853 0.61516 0.29968 0.0
C127 C 0.78383 0.63802 0.27396 0.0
P128 P 0.83701 0.84517 0.81474 0.0
H129 H 0.80357 0.87191 0.8815 0.0
H130 H 0.742 0.88665 0.89665 0.0
H131 H 0.70701 0.84912 0.78781 0.0
H132 H 0.7693 0.83427 0.7725 0.0
H133 H 0.90165 0.81532 0.84321 0.0
H134 H 0.91685 0.74775 0.85913 0.0
H135 H 0.80942 0.69712 0.82925 0.0
H136 H 0.79381 0.76563 0.81347 0.0
H137 H 0.84399 0.92012 0.76887 0.0
H138 H 0.84963 0.79476 0.7517 0.0
O139 O 0.86483 0.87754 0.83757 0.0
H140 H 0.86176 0.93785 0.70196 0.0
H141 H 0.86722 0.81273 0.68491 0.0
C142 C 0.79092 0.85251 0.82587 0.0
C143 C 0.7827 0.86659 0.86095 0.0
C144 C 0.7476 0.87496 0.86957 0.0
C145 C 0.72014 0.86907 0.8434 0.0
C146 C 0.72794 0.85388 0.80842 0.0
C147 C 0.76336 0.84549 0.79971 0.0
C148 C 0.84628 0.79534 0.82841 0.0
C149 C 0.8811 0.78989 0.8405 0.0
C150 C 0.8899 0.75141 0.84919 0.0
C151 C 0.86423 0.71798 0.84524 0.0
C152 C 0.82948 0.72294 0.83237 0.0
C153 C 0.82051 0.76179 0.82385 0.0
C154 C 0.84622 0.85641 0.7652 0.0
C155 C 0.84831 0.89644 0.75057 0.0
C156 C 0.85785 0.90644 0.71251 0.0
C157 C 0.86529 0.87635 0.68917 0.0
C158 C 0.86084 0.83599 0.70289 0.0
C159 C 0.85141 0.82595 0.74108 0.0
P160 P 0.71618 0.21159 0.29371 0.0
H161 H 0.72423 0.29131 0.32182 0.0
H162 H 0.68256 0.32725 0.35776 0.0
H163 H 0.60165 0.22257 0.36469 0.0
H164 H 0.64339 0.1864 0.3287 0.0
H165 H 0.78859 0.18907 0.28181 0.0
H166 H 0.82541 0.14683 0.31997 0.0
H167 H 0.73863 0.12337 0.40594 0.0
H168 H 0.70167 0.16588 0.36775 0.0
H169 H 0.67238 0.23062 0.22994 0.0
H170 H 0.69718 0.12391 0.2946 0.0
O171 O 0.74345 0.24567 0.26597 0.0
H172 H 0.63141 0.18833 0.19134 0.0
H173 H 0.65646 0.08208 0.25616 0.0
C174 C 0.68655 0.23664 0.32208 0.0
C175 C 0.69761 0.27604 0.33111 0.0
C176 C 0.67394 0.29643 0.35156 0.0
C177 C 0.63919 0.27745 0.36326 0.0
C178 C 0.6284 0.23758 0.35545 0.0
C179 C 0.65213 0.21713 0.33493 0.0
C180 C 0.74316 0.18191 0.32276 0.0
C181 C 0.77766 0.17536 0.30908 0.0
C182 C 0.79848 0.15109 0.33065 0.0
C183 C 0.78479 0.13285 0.36585 0.0
C184 C 0.74971 0.13794 0.37902 0.0
C185 C 0.72885 0.16239 0.35742 0.0
C186 C 0.68844 0.18031 0.26435 0.0
C187 C 0.66934 0.1982 0.2355 0.0
C188 C 0.64591 0.17424 0.21378 0.0
C189 C 0.64147 0.13234 0.22102 0.0
C190 C 0.65997 0.11447 0.25025 0.0
C191 C 0.68336 0.13839 0.27196 0.0
P192 P 0.36985 0.64544 0.17275 0.0
H193 H 0.33521 0.61619 0.10588 0.0
H194 H 0.27188 0.59696 0.09079 0.0
H195 H 0.23657 0.62433 0.20242 0.0
H196 H 0.3009 0.64341 0.21795 0.0
H197 H 0.43701 0.68915 0.13789 0.0
H198 H 0.45568 0.76007 0.11761 0.0
H199 H 0.35221 0.78982 0.15897 0.0
H200 H 0.33323 0.7183 0.17925 0.0
H201 H 0.36939 0.56701 0.21316 0.0
H202 H 0.38901 0.69113 0.23937 0.0
O203 O 0.3946 0.61946 0.14547 0.0
H204 H 0.38614 0.54557 0.27747 0.0
H205 H 0.4058 0.66966 0.3038 0.0
C206 C 0.32275 0.63104 0.16305 0.0
C207 C 0.31407 0.61795 0.12731 0.0
C208 C 0.27792 0.60703 0.11866 0.0
C209 C 0.24979 0.60958 0.14529 0.0
C210 C 0.25809 0.6224 0.18138 0.0
C211 C 0.29463 0.63323 0.1902 0.0
C212 C 0.38353 0.69829 0.15966 0.0
C213 C 0.41828 0.71078 0.14282 0.0
C214 C 0.42904 0.75129 0.13139 0.0
C215 C 0.40534 0.78002 0.13679 0.0
C216 C 0.37092 0.76798 0.15464 0.0
C217 C 0.36005 0.72722 0.16602 0.0
C218 C 0.37852 0.63065 0.22134 0.0
C219 C 0.37691 0.58961 0.23289 0.0
C220 C 0.38632 0.57738 0.2696 0.0
C221 C 0.39748 0.60602 0.29527 0.0
C222 C 0.39735 0.64706 0.28437 0.0
C223 C 0.38793 0.65932 0.24755 0.0
P224 P 0.20543 0.29822 0.76458 0.0
H225 H 0.20771 0.21774 0.73887 0.0
H226 H 0.16794 0.17586 0.6991 0.0
H227 H 0.09755 0.26888 0.68667 0.0
H228 H 0.13736 0.31089 0.72685 0.0
H229 H 0.2825 0.32851 0.77392 0.0
H230 H 0.32821 0.3707 0.73149 0.0
H231 H 0.2467 0.38255 0.64801 0.0
H232 H 0.20134 0.34055 0.68999 0.0
H233 H 0.15487 0.27611 0.8293 0.0
H234 H 0.19801 0.38497 0.76227 0.0
O235 O 0.22688 0.26827 0.79355 0.0
H236 H 0.11793 0.31516 0.86799 0.0
H237 H 0.16115 0.42379 0.80093 0.0
C238 C 0.17522 0.26717 0.7363 0.0
C239 C 0.18359 0.22907 0.72795 0.0
C240 C 0.16093 0.20521 0.70522 0.0
C241 C 0.12979 0.21922 0.69018 0.0
C242 C 0.12136 0.25742 0.69827 0.0
C243 C 0.14403 0.28131 0.72119 0.0
C244 C 0.23886 0.3302 0.73447 0.0
C245 C 0.27454 0.34008 0.74643 0.0
C246 C 0.3005 0.36432 0.72241 0.0
C247 C 0.29075 0.37898 0.68643 0.0
C248 C 0.25471 0.37095 0.67549 0.0
C249 C 0.22892 0.34673 0.69934 0.0
C250 C 0.17943 0.32762 0.79319 0.0
C251 C 0.15654 0.30834 0.82304 0.0
C252 C 0.13546 0.33054 0.845 0.0
C253 C 0.13699 0.37222 0.83723 0.0
C254 C 0.15974 0.39159 0.80732 0.0
C255 C 0.18081 0.36937 0.78532 0.0
Zn256 Zn 0.05075 0.00676 0.54081 0.0
Zn257 Zn 0.96848 -0.0007 0.47369 0.0
C258 C 0.07529 0.07843 0.57788 0.0
O259 O 0.10586 0.0736 0.56006 0.0
C260 C 0.94191 0.92696 0.43865 0.0
O261 O 0.91232 0.93197 0.45819 0.0
O262 O 0.09601 0.98191 0.55312 0.0
O263 O 0.01044 0.96386 0.55609 0.0
O264 O 0.96122 0.98043 0.52696 0.0
C265 C 0.09936 0.96653 0.58643 0.0
O266 O 0.07439 0.96894 0.61301 0.0
O267 O 0.04693 0.05375 0.57403 0.0
C268 C 0.91805 0.03743 0.43013 0.0
O269 O 0.94257 0.03579 0.40288 0.0
O270 O 0.9228 0.02288 0.4633 0.0
O271 O 0.00824 0.0423 0.45782 0.0
O272 O 0.05804 0.02665 0.48664 0.0
O273 O 0.97061 0.95169 0.44078 0.0
C274 C 0.97641 0.96428 0.55443 0.0
C275 C 0.04233 0.04211 0.45894 0.0
Zn276 Zn 0.5305 0.97677 0.97289 0.0
Zn277 Zn 0.48372 0.03602 0.03876 0.0
C278 C 0.48211 0.94816 0.91828 0.0
O279 O 0.4974 0.91568 0.92695 0.0
C280 C 0.53019 0.06478 0.09451 0.0
O281 O 0.51744 0.09792 0.08235 0.0
O282 O 0.56846 0.94304 0.95126 0.0
O283 O 0.55521 0.03347 0.97638 0.0
O284 O 0.50931 0.06726 0.99209 0.0
C285 C 0.58383 0.95221 0.91851 0.0
O286 O 0.5763 0.98426 0.89837 0.0
O287 O 0.49202 0.98022 0.93407 0.0
C288 C 0.42873 0.0596 0.09168 0.0
O289 O 0.43822 0.02948 0.11325 0.0
O290 O 0.44419 0.06849 0.05892 0.0
O291 O 0.45931 0.98013 0.03279 0.0
O292 O 0.50596 0.94624 0.02093 0.0
O293 O 0.52019 0.03219 0.07964 0.0
C294 C 0.53941 0.06513 0.97431 0.0
C295 C 0.47553 0.94908 0.03784 0.0
Zn296 Zn 0.5416 0.4863 0.4705 0.0
Zn297 Zn 0.4805 0.52563 0.53314 0.0
C298 C 0.60038 0.53164 0.42721 0.0
O299 O 0.58386 0.51102 0.40122 0.0
C300 C 0.4223 0.48179 0.57653 0.0
O301 O 0.43985 0.50261 0.60175 0.0
O302 O 0.54955 0.44016 0.44061 0.0
O303 O 0.54305 0.46096 0.52461 0.0
O304 O 0.52228 0.50434 0.56135 0.0
C305 C 0.57652 0.42168 0.44825 0.0
O306 O 0.59918 0.43413 0.47404 0.0
O307 O 0.587 0.52781 0.46101 0.0
C308 C 0.44363 0.58794 0.55375 0.0
O309 O 0.4227 0.57445 0.52692 0.0
O310 O 0.47153 0.5715 0.56235 0.0
O311 O 0.48079 0.55202 0.47973 0.0
O312 O 0.49822 0.50633 0.44371 0.0
O313 O 0.43465 0.48493 0.54235 0.0
C314 C 0.54041 0.47524 0.55671 0.0
C315 C 0.48097 0.53612 0.44836 0.0
Zn316 Zn 0.97692 0.51926 0.96775 0.0
Zn317 Zn 0.04214 0.48431 0.03808 0.0
C318 C 0.91813 0.47543 0.93405 0.0
O319 O 0.93817 0.49194 0.90453 0.0
C320 C 0.09865 0.53041 0.07256 0.0
O321 O 0.08012 0.51052 0.10153 0.0
O322 O 0.96912 0.56373 0.93012 0.0
O323 O 0.97862 0.54657 0.01672 0.0
O324 O -0.00083 0.50632 0.06142 0.0
C325 C 0.94158 0.58098 0.93792 0.0
O326 O 0.92272 0.57081 0.96991 0.0
O327 O 0.92943 0.48063 0.96724 0.0
C328 C 0.07679 0.42038 0.0668 0.0
O329 O 0.09718 0.43179 0.03601 0.0
O330 O 0.05013 0.43893 0.07491 0.0
O331 O 0.04287 0.45853 0.98869 0.0
O332 O 0.01767 0.49418 0.94373 0.0
O333 O 0.08771 0.52568 0.03921 0.0
C334 C 0.9808 0.53436 0.05118 0.0
C335 C 0.03753 0.46761 0.95416 0.0
C336 C 0.11334 0.09886 0.38018 0.0
C337 C 0.136 0.11976 0.36058 0.0
C338 C 0.08619 0.07818 0.40479 0.0
C339 C 0.06464 0.06219 0.42861 0.0
C340 C 0.40611 0.92159 0.84378 0.0
C341 C 0.39313 0.90754 0.81626 0.0
C342 C 0.42915 0.9373 0.8713 0.0
C343 C 0.45275 0.94592 0.89294 0.0
C344 C 0.5963 0.42675 0.64345 0.0
C345 C 0.61315 0.40938 0.66713 0.0
C346 C 0.57637 0.44471 0.61414 0.0
C347 C 0.55982 0.45898 0.5883 0.0
C348 C 0.92249 0.58935 0.12621 0.0
C349 C 0.90543 0.6089 0.14596 0.0
C350 C 0.94313 0.56866 0.1016 0.0
C351 C 0.96065 0.55235 0.07935 0.0
C352 C 0.34975 0.11593 0.14034 0.0
C353 C 0.32859 0.13207 0.15911 0.0
C354 C 0.3767 0.098 0.12025 0.0
C355 C 0.40051 0.08182 0.10552 0.0
C356 C 0.18564 0.90881 0.61332 0.0
C357 C 0.21386 0.8971 0.62207 0.0
C358 C 0.15504 0.92742 0.60282 0.0
C359 C 0.12981 0.94539 0.5948 0.0
C360 C 0.82607 0.42323 0.89222 0.0
C361 C 0.80329 0.40837 0.87181 0.0
C362 C 0.85528 0.43926 0.91392 0.0
C363 C 0.88276 0.45449 0.92753 0.0
C364 C 0.68722 0.59521 0.373 0.0
C365 C 0.70839 0.61167 0.3484 0.0
C366 C 0.65977 0.57602 0.39923 0.0
C367 C 0.63354 0.55751 0.41636 0.0
C368 C 0.11777 0.33842 0.13529 0.0
C369 C 0.13794 0.31989 0.15351 0.0
C370 C 0.0986 0.36429 0.11292 0.0
C371 C 0.08719 0.39003 0.09304 0.0
C372 C 0.58602 0.16155 0.90604 0.0
C373 C 0.60249 0.18842 0.88535 0.0
C374 C 0.56921 0.12839 0.93008 0.0
C375 C 0.55564 0.09949 0.95025 0.0
C376 C 0.92034 0.83753 0.36882 0.0
C377 C 0.90525 0.81401 0.34817 0.0
C378 C 0.93362 0.86795 0.39264 0.0
C379 C 0.94018 0.8955 0.41271 0.0
C380 C 0.41183 0.67811 0.60941 0.0
C381 C 0.40158 0.70751 0.62103 0.0
C382 C 0.42438 0.64634 0.59173 0.0
C383 C 0.4338 0.61959 0.5748 0.0
C384 C 0.90316 0.90314 0.62775 0.0
C385 C 0.88576 0.88804 0.65497 0.0
C386 C 0.92972 0.92324 0.60254 0.0
C387 C 0.953 0.94123 0.58188 0.0
C388 C 0.59896 0.08959 0.17673 0.0
C389 C 0.61863 0.10772 0.19772 0.0
C390 C 0.57568 0.07363 0.14949 0.0
C391 C 0.55523 0.06613 0.12449 0.0
C392 C 0.42506 0.58081 0.36019 0.0
C393 C 0.41266 0.5933 0.3309 0.0
C394 C 0.44337 0.56534 0.39187 0.0
C395 C 0.46052 0.55199 0.41758 0.0
C396 C 0.09647 0.41261 0.87984 0.0
C397 C 0.11518 0.39487 0.86003 0.0
C398 C 0.07474 0.43242 0.90412 0.0
C399 C 0.05728 0.44914 0.92606 0.0
C400 C 0.65841 0.89227 0.86736 0.0
C401 C 0.68487 0.88049 0.85312 0.0
C402 C 0.631 0.90987 0.88681 0.0
C403 C 0.60932 0.92778 0.90286 0.0
C404 C 0.83037 0.09203 0.40297 0.0
C405 C 0.80764 0.10989 0.38829 0.0
C406 C 0.85986 0.07254 0.41526 0.0
C407 C 0.88624 0.05635 0.4227 0.0
C408 C 0.18592 0.58892 0.11703 0.0
C409 C 0.21301 0.59922 0.13382 0.0
C410 C 0.15695 0.57334 0.09497 0.0
C411 C 0.13154 0.55564 0.07995 0.0
C412 C 0.33894 0.41712 0.63527 0.0
C413 C 0.31775 0.39968 0.6593 0.0
C414 C 0.3649 0.4369 0.60788 0.0
C415 C 0.38996 0.45553 0.58908 0.0
C416 C 0.89046 0.65279 0.86883 0.0
C417 C 0.87432 0.67942 0.85666 0.0
C418 C 0.91164 0.62724 0.88871 0.0
C419 C 0.92719 0.60598 0.90952 0.0
C420 C 0.42853 0.85335 0.10635 0.0
C421 C 0.41587 0.82088 0.12113 0.0
C422 C 0.44461 0.88821 0.08424 0.0
C423 C 0.45862 0.91606 0.06309 0.0
C424 C 0.09254 0.16973 0.64611 0.0
C425 C 0.10761 0.19429 0.66575 0.0
C426 C 0.08036 0.13829 0.62297 0.0
C427 C 0.07516 0.11031 0.60319 0.0
C428 C 0.59937 0.32411 0.39766 0.0
C429 C 0.61487 0.29995 0.3824 0.0
C430 C 0.58758 0.35687 0.41469 0.0
C431 C 0.58165 0.38659 0.42944 0.0
loop_
_geom_bond_atom_site_label_1
_geom_bond_atom_site_label_2
_geom_bond_distance
_geom_bond_site_symmetry_2
_ccdc_geom_bond_type
P0 O11 1.490 . S
P0 C14 1.812 . S
P0 C20 1.803 . S
P0 C26 1.819 . S
H1 C15 0.941 . S
H2 C16 0.939 . S
H3 C18 0.940 . S
H4 C19 0.940 . S
H5 C21 0.939 . S
H6 C22 0.942 . S
H7 C24 0.940 . S
H8 C25 0.939 . S
H9 C27 0.941 . S
H10 C31 0.939 . S
O11 P0 1.490 . S
H12 C28 0.939 . S
H13 C30 0.940 . S
C14 P0 1.812 . S
C14 C15 1.389 . S
C14 C19 1.391 . S
C15 H1 0.941 . S
C15 C14 1.389 . S
C15 C16 1.397 . S
C16 H2 0.939 . S
C16 C15 1.397 . S
C16 C17 1.378 . S
C17 C16 1.378 . S
C17 C18 1.378 . S
C18 H3 0.940 . S
C18 C17 1.378 . S
C18 C19 1.396 . S
C19 H4 0.940 . S
C19 C14 1.391 . S
C19 C18 1.396 . S
C20 P0 1.803 . S
C20 C21 1.378 . S
C20 C25 1.400 . S
C21 H5 0.939 . S
C21 C20 1.378 . S
C21 C22 1.361 . S
C22 H6 0.942 . S
C22 C21 1.361 . S
C22 C23 1.369 . S
C23 C22 1.369 . S
C23 C24 1.404 . S
C24 H7 0.940 . S
C24 C23 1.404 . S
C24 C25 1.389 . S
C25 H8 0.939 . S
C25 C20 1.400 . S
C25 C24 1.389 . S
C26 P0 1.819 . S
C26 C27 1.391 . S
C26 C31 1.391 . S
C27 H9 0.941 . S
C27 C26 1.391 . S
C27 C28 1.396 . S
C28 H12 0.939 . S
C28 C27 1.396 . S
C28 C29 1.397 . S
C29 C28 1.397 . S
C29 C30 1.385 . S
C30 H13 0.940 . S
C30 C29 1.385 . S
C30 C31 1.388 . S
C31 H10 0.939 . S
C31 C26 1.391 . S
C31 C30 1.388 . S
P32 O43 1.490 . S
P32 C46 1.812 . S
P32 C52 1.803 . S
P32 C58 1.819 . S
H33 C47 0.941 . S
H34 C48 0.939 . S
H35 C50 0.940 . S
H36 C51 0.940 . S
H37 C53 0.939 . S
H38 C54 0.942 . S
H39 C56 0.940 . S
H40 C57 0.939 . S
H41 C59 0.941 . S
H42 C63 0.939 . S
O43 P32 1.490 . S
H44 C60 0.939 . S
H45 C62 0.940 . S
C46 P32 1.812 . S
C46 C47 1.389 . S
C46 C51 1.391 . S
C47 H33 0.941 . S
C47 C46 1.389 . S
C47 C48 1.397 . S
C48 H34 0.939 . S
C48 C47 1.397 . S
C48 C49 1.378 . S
C49 C48 1.378 . S
C49 C50 1.378 . S
C50 H35 0.940 . S
C50 C49 1.378 . S
C50 C51 1.396 . S
C51 H36 0.940 . S
C51 C46 1.391 . S
C51 C50 1.396 . S
C52 P32 1.803 . S
C52 C53 1.378 . S
C52 C57 1.400 . S
C53 H37 0.939 . S
C53 C52 1.378 . S
C53 C54 1.361 . S
C54 H38 0.942 . S
C54 C53 1.361 . S
C54 C55 1.369 . S
C55 C54 1.369 . S
C55 C56 1.404 . S
C56 H39 0.940 . S
C56 C55 1.404 . S
C56 C57 1.389 . S
C57 H40 0.939 . S
C57 C52 1.400 . S
C57 C56 1.389 . S
C58 P32 1.819 . S
C58 C59 1.391 . S
C58 C63 1.391 . S
C59 H41 0.941 . S
C59 C58 1.391 . S
C59 C60 1.396 . S
C60 H44 0.939 . S
C60 C59 1.396 . S
C60 C61 1.397 . S
C61 C60 1.397 . S
C61 C62 1.385 . S
C62 H45 0.940 . S
C62 C61 1.385 . S
C62 C63 1.388 . S
C63 H42 0.939 . S
C63 C58 1.391 . S
C63 C62 1.388 . S
P64 O75 1.490 . S
P64 C78 1.812 . S
P64 C84 1.803 . S
P64 C90 1.819 . S
H65 C79 0.941 . S
H66 C80 0.939 . S
H67 C82 0.940 . S
H68 C83 0.940 . S
H69 C85 0.939 . S
H70 C86 0.942 . S
H71 C88 0.940 . S
H72 C89 0.939 . S
H73 C91 0.941 . S
H74 C95 0.939 . S
O75 P64 1.490 . S
H76 C92 0.939 . S
H77 C94 0.940 . S
C78 P64 1.812 . S
C78 C79 1.389 . S
C78 C83 1.391 . S
C79 H65 0.941 . S
C79 C78 1.389 . S
C79 C80 1.397 . S
C80 H66 0.939 . S
C80 C79 1.397 . S
C80 C81 1.378 . S
C81 C80 1.378 . S
C81 C82 1.378 . S
C82 H67 0.940 . S
C82 C81 1.378 . S
C82 C83 1.396 . S
C83 H68 0.940 . S
C83 C78 1.391 . S
C83 C82 1.396 . S
C84 P64 1.803 . S
C84 C85 1.378 . S
C84 C89 1.400 . S
C85 H69 0.939 . S
C85 C84 1.378 . S
C85 C86 1.361 . S
C86 H70 0.942 . S
C86 C85 1.361 . S
C86 C87 1.369 . S
C87 C86 1.369 . S
C87 C88 1.404 . S
C88 H71 0.940 . S
C88 C87 1.404 . S
C88 C89 1.389 . S
C89 H72 0.939 . S
C89 C84 1.400 . S
C89 C88 1.389 . S
C90 P64 1.819 . S
C90 C91 1.391 . S
C90 C95 1.391 . S
C91 H73 0.941 . S
C91 C90 1.391 . S
C91 C92 1.396 . S
C92 H76 0.939 . S
C92 C91 1.396 . S
C92 C93 1.397 . S
C93 C92 1.397 . S
C93 C94 1.385 . S
C94 H77 0.940 . S
C94 C93 1.385 . S
C94 C95 1.388 . S
C95 H74 0.939 . S
C95 C90 1.391 . S
C95 C94 1.388 . S
P96 O107 1.490 . S
P96 C110 1.812 . S
P96 C116 1.803 . S
P96 C122 1.819 . S
H97 C111 0.941 . S
H98 C112 0.939 . S
H99 C114 0.940 . S
H100 C115 0.940 . S
H101 C117 0.939 . S
H102 C118 0.942 . S
H103 C120 0.940 . S
H104 C121 0.939 . S
H105 C123 0.941 . S
H106 C127 0.939 . S
O107 P96 1.490 . S
H108 C124 0.939 . S
H109 C126 0.940 . S
C110 P96 1.812 . S
C110 C111 1.389 . S
C110 C115 1.391 . S
C111 H97 0.941 . S
C111 C110 1.389 . S
C111 C112 1.397 . S
C112 H98 0.939 . S
C112 C111 1.397 . S
C112 C113 1.378 . S
C113 C112 1.378 . S
C113 C114 1.378 . S
C114 H99 0.940 . S
C114 C113 1.378 . S
C114 C115 1.396 . S
C115 H100 0.940 . S
C115 C110 1.391 . S
C115 C114 1.396 . S
C116 P96 1.803 . S
C116 C117 1.378 . S
C116 C121 1.400 . S
C117 H101 0.939 . S
C117 C116 1.378 . S
C117 C118 1.361 . S
C118 H102 0.942 . S
C118 C117 1.361 . S
C118 C119 1.369 . S
C119 C118 1.369 . S
C119 C120 1.404 . S
C120 H103 0.940 . S
C120 C119 1.404 . S
C120 C121 1.389 . S
C121 H104 0.939 . S
C121 C116 1.400 . S
C121 C120 1.389 . S
C122 P96 1.819 . S
C122 C123 1.391 . S
C122 C127 1.391 . S
C123 H105 0.941 . S
C123 C122 1.391 . S
C123 C124 1.396 . S
C124 H108 0.939 . S
C124 C123 1.396 . S
C124 C125 1.397 . S
C125 C124 1.397 . S
C125 C126 1.385 . S
C126 H109 0.940 . S
C126 C125 1.385 . S
C126 C127 1.388 . S
C127 H106 0.939 . S
C127 C122 1.391 . S
C127 C126 1.388 . S
P128 O139 1.490 . S
P128 C142 1.812 . S
P128 C148 1.803 . S
P128 C154 1.819 . S
H129 C143 0.941 . S
H130 C144 0.939 . S
H131 C146 0.940 . S
H132 C147 0.940 . S
H133 C149 0.939 . S
H134 C150 0.942 . S
H135 C152 0.940 . S
H136 C153 0.939 . S
H137 C155 0.941 . S
H138 C159 0.939 . S
O139 P128 1.490 . S
H140 C156 0.939 . S
H141 C158 0.940 . S
C142 P128 1.812 . S
C142 C143 1.389 . S
C142 C147 1.391 . S
C143 H129 0.941 . S
C143 C142 1.389 . S
C143 C144 1.397 . S
C144 H130 0.939 . S
C144 C143 1.397 . S
C144 C145 1.378 . S
C145 C144 1.378 . S
C145 C146 1.378 . S
C146 H131 0.940 . S
C146 C145 1.378 . S
C146 C147 1.396 . S
C147 H132 0.940 . S
C147 C142 1.391 . S
C147 C146 1.396 . S
C148 P128 1.803 . S
C148 C149 1.378 . S
C148 C153 1.400 . S
C149 H133 0.939 . S
C149 C148 1.378 . S
C149 C150 1.361 . S
C150 H134 0.942 . S
C150 C149 1.361 . S
C150 C151 1.369 . S
C151 C150 1.369 . S
C151 C152 1.404 . S
C152 H135 0.940 . S
C152 C151 1.404 . S
C152 C153 1.389 . S
C153 H136 0.939 . S
C153 C148 1.400 . S
C153 C152 1.389 . S
C154 P128 1.819 . S
C154 C155 1.391 . S
C154 C159 1.391 . S
C155 H137 0.941 . S
C155 C154 1.391 . S
C155 C156 1.396 . S
C156 H140 0.939 . S
C156 C155 1.396 . S
C156 C157 1.397 . S
C157 C156 1.397 . S
C157 C158 1.385 . S
C158 H141 0.940 . S
C158 C157 1.385 . S
C158 C159 1.388 . S
C159 H138 0.939 . S
C159 C154 1.391 . S
C159 C158 1.388 . S
P160 O171 1.490 . S
P160 C174 1.812 . S
P160 C180 1.803 . S
P160 C186 1.819 . S
H161 C175 0.941 . S
H162 C176 0.939 . S
H163 C178 0.940 . S
H164 C179 0.940 . S
H165 C181 0.939 . S
H166 C182 0.942 . S
H167 C184 0.940 . S
H168 C185 0.939 . S
H169 C187 0.941 . S
H170 C191 0.939 . S
O171 P160 1.490 . S
H172 C188 0.939 . S
H173 C190 0.940 . S
C174 P160 1.812 . S
C174 C175 1.389 . S
C174 C179 1.391 . S
C175 H161 0.941 . S
C175 C174 1.389 . S
C175 C176 1.397 . S
C176 H162 0.939 . S
C176 C175 1.397 . S
C176 C177 1.378 . S
C177 C176 1.378 . S
C177 C178 1.378 . S
C178 H163 0.940 . S
C178 C177 1.378 . S
C178 C179 1.396 . S
C179 H164 0.940 . S
C179 C174 1.391 . S
C179 C178 1.396 . S
C180 P160 1.803 . S
C180 C181 1.378 . S
C180 C185 1.400 . S
C181 H165 0.939 . S
C181 C180 1.378 . S
C181 C182 1.361 . S
C182 H166 0.942 . S
C182 C181 1.361 . S
C182 C183 1.369 . S
C183 C182 1.369 . S
C183 C184 1.404 . S
C184 H167 0.940 . S
C184 C183 1.404 . S
C184 C185 1.389 . S
C185 H168 0.939 . S
C185 C180 1.400 . S
C185 C184 1.389 . S
C186 P160 1.819 . S
C186 C187 1.391 . S
C186 C191 1.391 . S
C187 H169 0.941 . S
C187 C186 1.391 . S
C187 C188 1.396 . S
C188 H172 0.939 . S
C188 C187 1.396 . S
C188 C189 1.397 . S
C189 C188 1.397 . S
C189 C190 1.385 . S
C190 H173 0.940 . S
C190 C189 1.385 . S
C190 C191 1.388 . S
C191 H170 0.939 . S
C191 C186 1.391 . S
C191 C190 1.388 . S
P192 O203 1.490 . S
P192 C206 1.812 . S
P192 C212 1.803 . S
P192 C218 1.819 . S
H193 C207 0.941 . S
H194 C208 0.939 . S
H195 C210 0.940 . S
H196 C211 0.940 . S
H197 C213 0.939 . S
H198 C214 0.942 . S
H199 C216 0.940 . S
H200 C217 0.939 . S
H201 C219 0.941 . S
H202 C223 0.939 . S
O203 P192 1.490 . S
H204 C220 0.939 . S
H205 C222 0.940 . S
C206 P192 1.812 . S
C206 C207 1.389 . S
C206 C211 1.391 . S
C207 H193 0.941 . S
C207 C206 1.389 . S
C207 C208 1.397 . S
C208 H194 0.939 . S
C208 C207 1.397 . S
C208 C209 1.378 . S
C209 C208 1.378 . S
C209 C210 1.378 . S
C210 H195 0.940 . S
C210 C209 1.378 . S
C210 C211 1.396 . S
C211 H196 0.940 . S
C211 C206 1.391 . S
C211 C210 1.396 . S
C212 P192 1.803 . S
C212 C213 1.378 . S
C212 C217 1.400 . S
C213 H197 0.939 . S
C213 C212 1.378 . S
C213 C214 1.361 . S
C214 H198 0.942 . S
C214 C213 1.361 . S
C214 C215 1.369 . S
C215 C214 1.369 . S
C215 C216 1.404 . S
C216 H199 0.940 . S
C216 C215 1.404 . S
C216 C217 1.389 . S
C217 H200 0.939 . S
C217 C212 1.400 . S
C217 C216 1.389 . S
C218 P192 1.819 . S
C218 C219 1.391 . S
C218 C223 1.391 . S
C219 H201 0.941 . S
C219 C218 1.391 . S
C219 C220 1.396 . S
C220 H204 0.939 . S
C220 C219 1.396 . S
C220 C221 1.397 . S
C221 C220 1.397 . S
C221 C222 1.385 . S
C222 H205 0.940 . S
C222 C221 1.385 . S
C222 C223 1.388 . S
C223 H202 0.939 . S
C223 C218 1.391 . S
C223 C222 1.388 . S
P224 O235 1.490 . S
P224 C238 1.812 . S
P224 C244 1.803 . S
P224 C250 1.819 . S
H225 C239 0.941 . S
H226 C240 0.939 . S
H227 C242 0.940 . S
H228 C243 0.940 . S
H229 C245 0.939 . S
H230 C246 0.942 . S
H231 C248 0.940 . S
H232 C249 0.939 . S
H233 C251 0.941 . S
H234 C255 0.939 . S
O235 P224 1.490 . S
H236 C252 0.939 . S
H237 C254 0.940 . S
C238 P224 1.812 . S
C238 C239 1.389 . S
C238 C243 1.391 . S
C239 H225 0.941 . S
C239 C238 1.389 . S
C239 C240 1.397 . S
C240 H226 0.939 . S
C240 C239 1.397 . S
C240 C241 1.378 . S
C241 C240 1.378 . S
C241 C242 1.378 . S
C242 H227 0.940 . S
C242 C241 1.378 . S
C242 C243 1.396 . S
C243 H228 0.940 . S
C243 C238 1.391 . S
C243 C242 1.396 . S
C244 P224 1.803 . S
C244 C245 1.378 . S
C244 C249 1.400 . S
C245 H229 0.939 . S
C245 C244 1.378 . S
C245 C246 1.361 . S
C246 H230 0.942 . S
C246 C245 1.361 . S
C246 C247 1.369 . S
C247 C246 1.369 . S
C247 C248 1.404 . S
C248 H231 0.940 . S
C248 C247 1.404 . S
C248 C249 1.389 . S
C249 H232 0.939 . S
C249 C244 1.400 . S
C249 C248 1.389 . S
C250 P224 1.819 . S
C250 C251 1.391 . S
C250 C255 1.391 . S
C251 H233 0.941 . S
C251 C250 1.391 . S
C251 C252 1.396 . S
C252 H236 0.939 . S
C252 C251 1.396 . S
C252 C253 1.397 . S
C253 C252 1.397 . S
C253 C254 1.385 . S
C254 H237 0.940 . S
C254 C253 1.385 . S
C254 C255 1.388 . S
C255 H234 0.939 . S
C255 C250 1.391 . S
C255 C254 1.388 . S
Zn256 O262 1.969 1_545 S
Zn256 O263 1.965 1_545 S
Zn256 O267 2.024 . S
Zn256 O272 1.969 . S
Zn257 O264 1.969 . S
Zn257 O270 1.969 1_565 S
Zn257 O271 1.965 1_665 S
Zn257 O273 2.024 . S
C258 O259 1.229 . S
C258 O267 1.058 . S
O259 C258 1.229 . S
C260 O261 1.229 . S
C260 O273 1.058 . S
O261 C260 1.229 . S
O262 Zn256 1.969 1_565 S
O262 C265 1.267 . S
O263 Zn256 1.965 1_565 S
O263 C274 1.260 1_455 S
O264 Zn257 1.969 . S
O264 C274 1.258 . S
C265 O262 1.267 . S
C265 O266 1.228 . S
O266 C265 1.228 . S
O267 Zn256 2.024 . S
O267 C258 1.058 . S
C268 O269 1.228 . S
C268 O270 1.267 . S
O269 C268 1.228 . S
O270 Zn257 1.969 1_545 S
O270 C268 1.267 . S
O271 Zn257 1.965 1_445 S
O271 C275 1.260 . S
O272 Zn256 1.969 . S
O272 C275 1.258 . S
O273 Zn257 2.024 . S
O273 C260 1.058 . S
C274 O263 1.260 1_655 S
C274 O264 1.258 . S
C275 O271 1.260 . S
C275 O272 1.258 . S
Zn276 O282 1.969 . S
Zn276 O283 1.965 1_565 S
Zn276 O287 2.024 . S
Zn276 O292 1.969 1_556 S
Zn277 O284 1.969 . S
Zn277 O290 1.969 . S
Zn277 O291 1.965 1_545 S
Zn277 O293 2.024 . S
C278 O279 1.229 . S
C278 O287 1.058 . S
O279 C278 1.229 . S
C280 O281 1.229 . S
C280 O293 1.058 . S
O281 C280 1.229 . S
O282 Zn276 1.969 . S
O282 C285 1.267 . S
O283 Zn276 1.965 1_545 S
O283 C294 1.260 . S
O284 Zn277 1.969 . S
O284 C294 1.258 1_554 S
C285 O282 1.267 . S
C285 O286 1.228 . S
O286 C285 1.228 . S
O287 Zn276 2.024 . S
O287 C278 1.058 . S
C288 O289 1.228 . S
C288 O290 1.267 . S
O289 C288 1.228 . S
O290 Zn277 1.969 . S
O290 C288 1.267 . S
O291 Zn277 1.965 1_565 S
O291 C295 1.260 . S
O292 Zn276 1.969 1_554 S
O292 C295 1.258 . S
O293 Zn277 2.024 . S
O293 C280 1.058 . S
C294 O283 1.260 . S
C294 O284 1.258 1_556 S
C295 O291 1.260 . S
C295 O292 1.258 . S
Zn296 O302 1.969 . S
Zn296 O303 1.965 . S
Zn296 O307 2.024 . S
Zn296 O312 1.969 . S
Zn297 O304 1.969 . S
Zn297 O310 1.969 . S
Zn297 O311 1.965 . S
Zn297 O313 2.024 . S
C298 O299 1.229 . S
C298 O307 1.058 . S
O299 C298 1.229 . S
C300 O301 1.229 . S
C300 O313 1.058 . S
O301 C300 1.229 . S
O302 Zn296 1.969 . S
O302 C305 1.267 . S
O303 Zn296 1.965 . S
O303 C314 1.260 . S
O304 Zn297 1.969 . S
O304 C314 1.258 . S
C305 O302 1.267 . S
C305 O306 1.228 . S
O306 C305 1.228 . S
O307 Zn296 2.024 . S
O307 C298 1.058 . S
C308 O309 1.228 . S
C308 O310 1.267 . S
O309 C308 1.228 . S
O310 Zn297 1.969 . S
O310 C308 1.267 . S
O311 Zn297 1.965 . S
O311 C315 1.260 . S
O312 Zn296 1.969 . S
O312 C315 1.258 . S
O313 Zn297 2.024 . S
O313 C300 1.058 . S
C314 O303 1.260 . S
C314 O304 1.258 . S
C315 O311 1.260 . S
C315 O312 1.258 . S
Zn316 O322 1.969 . S
Zn316 O323 1.965 1_556 S
Zn316 O327 2.024 . S
Zn316 O332 1.969 1_655 S
Zn317 O324 1.969 . S
Zn317 O330 1.969 . S
Zn317 O331 1.965 1_554 S
Zn317 O333 2.024 . S
C318 O319 1.229 . S
C318 O327 1.058 . S
O319 C318 1.229 . S
C320 O321 1.229 . S
C320 O333 1.058 . S
O321 C320 1.229 . S
O322 Zn316 1.969 . S
O322 C325 1.267 . S
O323 Zn316 1.965 1_554 S
O323 C334 1.260 . S
O324 Zn317 1.969 . S
O324 C334 1.258 1_455 S
C325 O322 1.267 . S
C325 O326 1.228 . S
O326 C325 1.228 . S
O327 Zn316 2.024 . S
O327 C318 1.058 . S
C328 O329 1.228 . S
C328 O330 1.267 . S
O329 C328 1.228 . S
O330 Zn317 1.969 . S
O330 C328 1.267 . S
O331 Zn317 1.965 1_556 S
O331 C335 1.260 . S
O332 Zn316 1.969 1_455 S
O332 C335 1.258 . S
O333 Zn317 2.024 . S
O333 C320 1.058 . S
C334 O323 1.260 . S
C334 O324 1.258 1_655 S
C335 O331 1.260 . S
C335 O332 1.258 . S
C336 C337 1.170 . S
C336 C338 1.380 . S
C337 C336 1.170 . S
C338 C336 1.380 . S
C338 C339 1.170 . S
C339 C338 1.170 . S
C340 C341 1.170 . S
C340 C342 1.380 . S
C341 C340 1.170 . S
C342 C340 1.380 . S
C342 C343 1.170 . S
C343 C342 1.170 . S
C344 C345 1.170 . S
C344 C346 1.380 . S
C345 C344 1.170 . S
C346 C344 1.380 . S
C346 C347 1.170 . S
C347 C346 1.170 . S
C348 C349 1.170 . S
C348 C350 1.380 . S
C349 C348 1.170 . S
C350 C348 1.380 . S
C350 C351 1.170 . S
C351 C350 1.170 . S
C352 C353 1.170 . S
C352 C354 1.380 . S
C353 C352 1.170 . S
C354 C352 1.380 . S
C354 C355 1.170 . S
C355 C354 1.170 . S
C356 C357 1.170 . S
C356 C358 1.380 . S
C357 C356 1.170 . S
C358 C356 1.380 . S
C358 C359 1.170 . S
C359 C358 1.170 . S
C360 C361 1.170 . S
C360 C362 1.380 . S
C361 C360 1.170 . S
C362 C360 1.380 . S
C362 C363 1.170 . S
C363 C362 1.170 . S
C364 C365 1.170 . S
C364 C366 1.380 . S
C365 C364 1.170 . S
C366 C364 1.380 . S
C366 C367 1.170 . S
C367 C366 1.170 . S
C368 C369 1.170 . S
C368 C370 1.380 . S
C369 C368 1.170 . S
C370 C368 1.380 . S
C370 C371 1.170 . S
C371 C370 1.170 . S
C372 C373 1.170 . S
C372 C374 1.380 . S
C373 C372 1.170 . S
C374 C372 1.380 . S
C374 C375 1.170 . S
C375 C374 1.170 . S
C376 C377 1.170 . S
C376 C378 1.380 . S
C377 C376 1.170 . S
C378 C376 1.380 . S
C378 C379 1.170 . S
C379 C378 1.170 . S
C380 C381 1.170 . S
C380 C382 1.380 . S
C381 C380 1.170 . S
C382 C380 1.380 . S
C382 C383 1.170 . S
C383 C382 1.170 . S
C384 C385 1.170 . S
C384 C386 1.380 . S
C385 C384 1.170 . S
C386 C384 1.380 . S
C386 C387 1.170 . S
C387 C386 1.170 . S
C388 C389 1.170 . S
C388 C390 1.380 . S
C389 C388 1.170 . S
C390 C388 1.380 . S
C390 C391 1.170 . S
C391 C390 1.170 . S
C392 C393 1.170 . S
C392 C394 1.380 . S
C393 C392 1.170 . S
C394 C392 1.380 . S
C394 C395 1.170 . S
C395 C394 1.170 . S
C396 C397 1.170 . S
C396 C398 1.380 . S
C397 C396 1.170 . S
C398 C396 1.380 . S
C398 C399 1.170 . S
C399 C398 1.170 . S
C400 C401 1.170 . S
C400 C402 1.380 . S
C401 C400 1.170 . S
C402 C400 1.380 . S
C402 C403 1.170 . S
C403 C402 1.170 . S
C404 C405 1.170 . S
C404 C406 1.380 . S
C405 C404 1.170 . S
C406 C404 1.380 . S
C406 C407 1.170 . S
C407 C406 1.170 . S
C408 C409 1.170 . S
C408 C410 1.380 . S
C409 C408 1.170 . S
C410 C408 1.380 . S
C410 C411 1.170 . S
C411 C410 1.170 . S
C412 C413 1.170 . S
C412 C414 1.380 . S
C413 C412 1.170 . S
C414 C412 1.380 . S
C414 C415 1.170 . S
C415 C414 1.170 . S
C416 C417 1.170 . S
C416 C418 1.380 . S
C417 C416 1.170 . S
C418 C416 1.380 . S
C418 C419 1.170 . S
C419 C418 1.170 . S
C420 C421 1.170 . S
C420 C422 1.380 . S
C421 C420 1.170 . S
C422 C420 1.380 . S
C422 C423 1.170 . S
C423 C422 1.170 . S
C424 C425 1.170 . S
C424 C426 1.380 . S
C425 C424 1.170 . S
C426 C424 1.380 . S
C426 C427 1.170 . S
C427 C426 1.170 . S
C428 C429 1.170 . S
C428 C430 1.380 . S
C429 C428 1.170 . S
C430 C428 1.380 . S
C430 C431 1.170 . S
C431 C430 1.170 . S
C337 C29 1.565 . S
C339 C275 1.528 . S
C341 C49 1.242 . S
C343 C278 1.250 . S
C347 C314 1.820 . S
C345 C93 1.809 . S
C349 C119 1.666 . S
C351 C334 1.627 . S
C355 C288 1.634 . S
C353 C17 1.645 . S
C359 C265 1.516 . S
C357 C61 1.487 . S
C363 C318 1.539 . S
C361 C81 1.688 . S
C367 C298 1.432 . S
C365 C125 1.515 . S
C369 C23 1.370 . S
C371 C328 1.290 . S
C375 C294 1.629 . S
C373 C87 1.626 . S
C377 C113 1.659 . S
C379 C260 1.617 . S
C381 C55 1.287 . S
C383 C308 1.286 . S
C387 C274 1.449 . S
C385 C157 1.401 . S
C389 C189 1.273 . S
C391 C280 1.226 . S
C393 C221 1.750 . S
C395 C315 1.797 . S
C397 C253 1.714 . S
C399 C335 1.679 . S
C401 C145 1.647 . S
C403 C285 1.644 . S
C407 C268 1.447 . S
C405 C183 1.435 . S
C411 C320 1.608 . S
C409 C209 1.653 . S
C415 C300 1.362 . S
C413 C247 1.489 . S
C417 C151 1.318 . S
C419 C325 1.274 . S
C423 C295 1.623 . S
C421 C215 1.615 . S
C427 C258 1.630 . S
C425 C241 1.641 . S
C429 C177 1.317 . S
C431 C305 1.306 . S
