# Generated by pormake.
# Topology pyr, (3,6)-cn, num edge types: 1
# Building blocks:
#     Node 0, Type 0, BuildingBlock: ESEHIV_clean_linker_0, # of connection points: 3
#     Node 1, Type 0, BuildingBlock: ESEHIV_clean_linker_0, # of connection points: 3
#     Node 2, Type 0, BuildingBlock: ESEHIV_clean_linker_0, # of connection points: 3
#     Node 3, Type 0, BuildingBlock: ESEHIV_clean_linker_0, # of connection points: 3
#     Node 4, Type 0, BuildingBlock: ESEHIV_clean_linker_0, # of connection points: 3
#     Node 5, Type 0, BuildingBlock: ESEHIV_clean_linker_0, # of connection points: 3
#     Node 6, Type 0, BuildingBlock: ESEHIV_clean_linker_0, # of connection points: 3
#     Node 7, Type 0, BuildingBlock: ESEHIV_clean_linker_0, # of connection points: 3
#     Node 8, Type 1, BuildingBlock: BETDIP_clean_sbu_0, # of connection points: 6
#     Node 9, Type 1, BuildingBlock: BETDIP_clean_sbu_0, # of connection points: 6
#     Node 10, Type 1, BuildingBlock: BETDIP_clean_sbu_0, # of connection points: 6
#     Node 11, Type 1, BuildingBlock: BETDIP_clean_sbu_0, # of connection points: 6
#     Edge 12, Type (0, 1), BuildingBlock: ZUJKAS_clean_linker_0, # of connection points: 2
#     Edge 13, Type (0, 1), BuildingBlock: ZUJKAS_clean_linker_0, # of connection points: 2
#     Edge 14, Type (0, 1), BuildingBlock: ZUJKAS_clean_linker_0, # of connection points: 2
#     Edge 15, Type (0, 1), BuildingBlock: ZUJKAS_clean_linker_0, # of connection points: 2
#     Edge 16, Type (0, 1), BuildingBlock: ZUJKAS_clean_linker_0, # of connection points: 2
#     Edge 17, Type (0, 1), BuildingBlock: ZUJKAS_clean_linker_0, # of connection points: 2
#     Edge 18, Type (0, 1), BuildingBlock: ZUJKAS_clean_linker_0, # of connection points: 2
#     Edge 19, Type (0, 1), BuildingBlock: ZUJKAS_clean_linker_0, # of connection points: 2
#     Edge 20, Type (0, 1), BuildingBlock: ZUJKAS_clean_linker_0, # of connection points: 2
#     Edge 21, Type (0, 1), BuildingBlock: ZUJKAS_clean_linker_0, # of connection points: 2
#     Edge 22, Type (0, 1), BuildingBlock: ZUJKAS_clean_linker_0, # of connection points: 2
#     Edge 23, Type (0, 1), BuildingBlock: ZUJKAS_clean_linker_0, # of connection points: 2
#     Edge 24, Type (0, 1), BuildingBlock: ZUJKAS_clean_linker_0, # of connection points: 2
#     Edge 25, Type (0, 1), BuildingBlock: ZUJKAS_clean_linker_0, # of connection points: 2
#     Edge 26, Type (0, 1), BuildingBlock: ZUJKAS_clean_linker_0, # of connection points: 2
#     Edge 27, Type (0, 1), BuildingBlock: ZUJKAS_clean_linker_0, # of connection points: 2
#     Edge 28, Type (0, 1), BuildingBlock: ZUJKAS_clean_linker_0, # of connection points: 2
#     Edge 29, Type (0, 1), BuildingBlock: ZUJKAS_clean_linker_0, # of connection points: 2
#     Edge 30, Type (0, 1), BuildingBlock: ZUJKAS_clean_linker_0, # of connection points: 2
#     Edge 31, Type (0, 1), BuildingBlock: ZUJKAS_clean_linker_0, # of connection points: 2
#     Edge 32, Type (0, 1), BuildingBlock: ZUJKAS_clean_linker_0, # of connection points: 2
#     Edge 33, Type (0, 1), BuildingBlock: ZUJKAS_clean_linker_0, # of connection points: 2
#     Edge 34, Type (0, 1), BuildingBlock: ZUJKAS_clean_linker_0, # of connection points: 2
#     Edge 35, Type (0, 1), BuildingBlock: ZUJKAS_clean_linker_0, # of connection points: 2
# Relax obj value: 0.117
# Max RMSD: 0.192
# Mean RMSD: 0.085
data_MOF--net-pyr--node1-BETDIP_clean_sbu_0--node2-ESEHIV_clean_linker_0--edge1-ZUJKAS_clean_linker_0
_symmetry_space_group_name_H-M    P1
_symmetry_Int_Tables_number       1
_symmetry_cell_setting            triclinic
loop_
_symmetry_equiv_pos_as_xyz
'x, y, z'
_cell_length_a     44.039623
_cell_length_b     48.633759
_cell_length_c     47.997819
_cell_angle_alpha  88.788175
_cell_angle_beta   92.932879
_cell_angle_gamma 103.59275
loop_
_atom_site_label
_atom_site_type_symbol
_atom_site_fract_x
_atom_site_fract_y
_atom_site_fract_z
_atom_type_partial_charge
H0 H 0.29112 0.28222 0.23172 0.0
H1 H 0.36531 0.24056 0.25211 0.0
H2 H 0.35384 0.27274 0.16895 0.0
C3 C 0.31192 0.27583 0.22597 0.0
C4 C 0.32169 0.28053 0.19852 0.0
C5 C 0.32717 0.26105 0.24534 0.0
C6 C 0.35308 0.25159 0.23714 0.0
C7 C 0.36273 0.25537 0.20957 0.0
C8 C 0.34704 0.27013 0.1904 0.0
H9 H 0.15638 0.80859 0.74203 0.0
H10 H 0.22892 0.76332 0.74465 0.0
H11 H 0.16604 0.7581 0.67202 0.0
C12 C 0.16767 0.79385 0.73249 0.0
C13 C 0.15789 0.78394 0.70549 0.0
C14 C 0.19308 0.78629 0.74673 0.0
C15 C 0.20835 0.76798 0.73406 0.0
C16 C 0.19891 0.75755 0.70708 0.0
C17 C 0.17351 0.76568 0.6929 0.0
H18 H 0.67107 0.33702 0.88964 0.0
H19 H 0.67799 0.401 0.82568 0.0
H20 H 0.59865 0.32938 0.82446 0.0
C21 C 0.66148 0.34518 0.87088 0.0
C22 C 0.63283 0.32979 0.85874 0.0
C23 C 0.67803 0.37089 0.85937 0.0
C24 C 0.66544 0.38131 0.83482 0.0
C25 C 0.63681 0.36662 0.82187 0.0
C26 C 0.62063 0.34082 0.83412 0.0
H27 H 0.84787 0.71433 0.3785 0.0
H28 H 0.91489 0.72234 0.31499 0.0
H29 H 0.84208 0.64564 0.32215 0.0
C30 C 0.85684 0.70539 0.36107 0.0
C31 C 0.84185 0.67794 0.35217 0.0
C32 C 0.88315 0.7217 0.34807 0.0
C33 C 0.89485 0.70982 0.32527 0.0
C34 C 0.87985 0.6824 0.31496 0.0
C35 C 0.85334 0.66685 0.32889 0.0
H36 H 0.65482 0.81794 0.83022 0.0
H37 H 0.72677 0.77172 0.83911 0.0
H38 H 0.66491 0.77083 0.90564 0.0
C39 C 0.66611 0.80363 0.84212 0.0
C40 C 0.65664 0.79525 0.86914 0.0
C41 C 0.69128 0.7951 0.831 0.0
C42 C 0.70635 0.77725 0.84694 0.0
C43 C 0.69703 0.76841 0.87387 0.0
C44 C 0.67201 0.77735 0.88476 0.0
H45 H 0.79973 0.30428 0.30576 0.0
H46 H 0.86371 0.25025 0.30305 0.0
H47 H 0.84507 0.28237 0.38171 0.0
C48 C 0.81667 0.29422 0.31632 0.0
C49 C 0.82153 0.29632 0.34544 0.0
C50 C 0.83145 0.27734 0.30099 0.0
C51 C 0.85202 0.26305 0.31495 0.0
C52 C 0.85703 0.26455 0.34409 0.0
C53 C 0.84186 0.28146 0.35919 0.0
H54 H 0.3574 0.71198 0.18031 0.0
H55 H 0.34916 0.64577 0.24205 0.0
H56 H 0.42747 0.71841 0.2472 0.0
C57 C 0.3663 0.70328 0.19911 0.0
C58 C 0.39417 0.71862 0.2125 0.0
C59 C 0.34977 0.677 0.20946 0.0
C60 C 0.36206 0.66569 0.23366 0.0
C61 C 0.39021 0.68014 0.24768 0.0
C62 C 0.40578 0.707 0.23704 0.0
H63 H 0.10562 0.32576 0.74982 0.0
H64 H 0.17419 0.33176 0.68794 0.0
H65 H 0.18161 0.40024 0.74496 0.0
C66 C 0.12659 0.33749 0.74029 0.0
C67 C 0.14186 0.36486 0.75047 0.0
C68 C 0.13838 0.32514 0.71784 0.0
C69 C 0.16562 0.34069 0.70559 0.0
C70 C 0.18149 0.36777 0.71496 0.0
C71 C 0.16921 0.37969 0.73726 0.0
Tb72 Tb 0.97439 1.01758 0.53696 0.0
Tb73 Tb 0.03971 0.03243 0.52516 0.0
C74 C 0.91812 0.99358 0.54498 0.0
C75 C 0.89976 0.97585 0.56615 0.0
C76 C 0.91412 0.96277 0.58768 0.0
C77 C 0.896 0.94599 0.6076 0.0
C78 C 0.86331 0.94232 0.60638 0.0
C79 C 0.84912 0.95558 0.58479 0.0
C80 C 0.86723 0.97217 0.56482 0.0
C81 C 1.00553 0.06547 0.56158 0.0
C82 C 0.02177 0.98907 0.57277 0.0
C83 C 0.09587 0.05521 0.51566 0.0
C84 C 0.11441 0.07933 0.50051 0.0
C85 C 0.10064 0.09389 0.47979 0.0
C86 C 0.11938 0.11497 0.46377 0.0
C87 C 0.15211 0.12155 0.46815 0.0
C88 C 0.16559 0.10754 0.48961 0.0
C89 C 0.14686 0.08662 0.50566 0.0
C90 C 1.00837 0.98412 0.50156 0.0
C91 C 0.99245 0.06085 0.49017 0.0
O92 O 0.93698 0.9821 0.53154 0.0
O93 O 0.93114 1.01953 0.5522 0.0
O94 O 0.0153 0.04309 0.55933 0.0
O95 O 0.97725 0.06071 0.55095 0.0
O96 O 0.99246 0.98793 0.56444 0.0
O97 O 0.04499 1.00815 0.56256 0.0
O98 O 0.08184 0.06092 0.5374 0.0
O99 O 0.07803 0.03539 0.50032 0.0
O100 O 0.99888 1.00675 0.50294 0.0
O101 O 0.03631 0.98869 0.51295 0.0
O102 O 0.02117 0.06433 0.50116 0.0
O103 O 0.97032 0.03917 0.49769 0.0
H104 H 0.93925 0.96562 0.58917 0.0
H105 H 0.90759 0.93629 0.62419 0.0
H106 H 0.82397 0.9529 0.58316 0.0
H107 H 0.8558 0.98214 0.5483 0.0
H108 H 0.07561 0.08835 0.47543 0.0
H109 H 0.10838 0.12525 0.44722 0.0
H110 H 0.1907 0.11243 0.49367 0.0
H111 H 0.15782 0.07558 0.52161 0.0
Tb112 Tb 0.55166 0.03748 0.05082 0.0
Tb113 Tb 0.48107 1.02075 0.03362 0.0
C114 C 0.60821 0.06291 0.05102 0.0
C115 C 0.62599 0.09204 0.05591 0.0
C116 C 0.65857 0.09864 0.05451 0.0
C117 C 0.67632 0.12488 0.06367 0.0
C118 C 0.66166 0.14484 0.07451 0.0
C119 C 0.62879 0.13874 0.07421 0.0
C120 C 0.6111 0.11252 0.06501 0.0
C121 C 0.52379 0.98974 0.07761 0.0
C122 C 0.50577 0.06424 0.08318 0.0
C123 C 0.42259 1.00372 1.02993 0.0
C124 C 0.40031 0.98675 1.00962 0.0
C125 C 0.37266 0.96909 1.01881 0.0
C126 C 0.3522 0.95134 1.00006 0.0
C127 C 0.35908 0.95115 0.97181 0.0
C128 C 0.38669 0.96912 0.96263 0.0
C129 C 0.40727 0.98665 0.98143 0.0
C130 C 0.51629 0.0612 1.00312 0.0
C131 C 0.52567 0.99047 1.00466 0.0
O132 O 0.59006 0.05848 1.02821 0.0
O133 O 0.59455 0.05006 0.07295 0.0
O134 O 0.51229 1.00483 0.06035 0.0
O135 O 0.55317 1.00223 0.08064 0.0
O136 O 0.53507 0.06632 0.07681 0.0
O137 O 0.48199 0.04591 0.07096 0.0
O138 O 0.44103 0.99008 0.04357 0.0
O139 O 0.43755 0.02883 1.02154 0.0
O140 O 0.51871 0.05758 1.02923 0.0
O141 O 0.49268 0.04196 0.99334 0.0
O142 O 0.49653 0.98872 1.0114 0.0
O143 O 0.54969 1.0101 1.01488 0.0
H144 H 0.6704 0.08298 0.04764 0.0
H145 H 0.70158 0.1288 0.06391 0.0
H146 H 0.61684 0.1538 0.08219 0.0
H147 H 0.58594 0.10775 0.06626 0.0
H148 H 0.36711 0.96876 0.04057 0.0
H149 H 0.33098 0.93779 1.00762 0.0
H150 H 0.39275 0.96909 0.94104 0.0
H151 H 0.42881 0.9998 0.97404 0.0
Tb152 Tb 0.51089 0.55371 0.54574 0.0
Tb153 Tb 0.51398 0.49221 0.52351 0.0
C154 C 0.49476 0.59964 0.54822 0.0
C155 C 0.47443 0.61125 0.56572 0.0
C156 C 0.45093 0.59311 0.58046 0.0
C157 C 0.42883 0.60385 0.59382 0.0
C158 C 0.43028 0.63301 0.59312 0.0
C159 C 0.45481 0.65133 0.57962 0.0
C160 C 0.47662 0.64047 0.56581 0.0
C161 C 0.53246 0.52192 0.58528 0.0
C162 C 0.45643 0.4987 0.55935 0.0
C163 C 0.5307 0.44659 0.52074 0.0
C164 C 0.54966 0.43446 0.50238 0.0
C165 C 0.55387 0.4072 0.50793 0.0
C166 C 0.57501 0.39665 0.49299 0.0
C167 C 0.59243 0.41331 0.47233 0.0
C168 C 0.58736 0.44036 0.46624 0.0
C169 C 0.56608 0.45083 0.48113 0.0
C170 C 0.49156 0.52393 0.48448 0.0
C171 C 0.56843 0.54715 0.50967 0.0
O172 O 0.48012 0.57844 0.53243 0.0
O173 O 0.52088 0.59555 0.56019 0.0
O174 O 0.52351 0.51645 0.56021 0.0
O175 O 0.52996 0.54775 0.58878 0.0
O176 O 0.46574 0.52683 0.55785 0.0
O177 O 0.47257 0.4815 0.54905 0.0
O178 O 0.54639 0.46851 0.53504 0.0
O179 O 0.50365 0.45002 0.5102 0.0
O180 O 0.50174 0.52948 0.5092 0.0
O181 O 0.49328 0.49788 0.48091 0.0
O182 O 0.55857 0.51904 0.51035 0.0
O183 O 0.55298 0.56438 0.52096 0.0
H184 H 0.44911 0.57055 0.58089 0.0
H185 H 0.41033 0.58936 0.60436 0.0
H186 H 0.45633 0.67389 0.57875 0.0
H187 H 0.49458 0.65477 0.5545 0.0
H188 H 0.54158 0.39441 0.52447 0.0
H189 H 0.57861 0.37588 0.49841 0.0
H190 H 0.60013 0.45356 0.45023 0.0
H191 H 0.5631 0.47198 0.47662 0.0
Tb192 Tb 0.01476 0.54968 1.01629 0.0
Tb193 Tb 0.01354 0.49951 0.05116 0.0
C194 C 1.00034 0.58972 0.98878 0.0
C195 C 0.97682 0.60642 0.99077 0.0
C196 C 0.9497 0.59606 1.00551 0.0
C197 C 0.92625 0.61106 1.00523 0.0
C198 C 0.92961 0.63668 0.99024 0.0
C199 C 0.95737 0.64743 0.97636 0.0
C200 C 0.98077 0.63238 0.97662 0.0
C201 C 0.06889 0.55019 0.0434 0.0
C202 C 0.98802 0.54712 0.07817 0.0
C203 C 0.02818 0.45954 0.07865 0.0
C204 C 0.04946 0.44086 0.07516 0.0
C205 C 0.07528 0.44902 0.05834 0.0
C206 C 0.09696 0.43225 0.05729 0.0
C207 C 0.09314 0.40705 0.07303 0.0
C208 C 0.06652 0.39844 0.08895 0.0
C209 C 0.04488 0.41525 0.09 0.0
C210 C 0.95938 0.49924 1.02415 0.0
C211 C 0.03981 0.50182 0.98897 0.0
O212 O 0.9893 0.56301 0.98286 0.0
O213 O 0.0224 0.59342 1.00856 0.0
O214 O 0.04191 0.54156 0.05257 0.0
O215 O 0.06598 0.56003 1.01833 0.0
O216 O 0.98827 0.55796 0.05245 0.0
O217 O 0.9994 0.52455 0.0834 0.0
O218 O 0.04165 0.48623 0.08258 0.0
O219 O 1.00391 0.4561 0.06113 0.0
O220 O 0.98638 0.50766 1.01494 0.0
O221 O 0.96229 0.48951 0.04929 0.0
O222 O 0.03831 0.49013 1.01434 0.0
O223 O 0.02989 0.52522 0.98411 0.0
H224 H 0.94628 0.57603 1.01662 0.0
H225 H 0.90527 0.60241 1.01634 0.0
H226 H 0.9605 0.6669 0.96432 0.0
H227 H 1.00157 0.64063 0.96511 0.0
H228 H 0.0792 0.46874 0.04667 0.0
H229 H 0.11705 0.43929 0.04463 0.0
H230 H 0.0631 0.37936 0.1016 0.0
H231 H 0.02508 0.40868 0.1031 0.0
H232 H 0.32169 0.21037 0.27267 0.0
H233 H 0.29496 0.19495 0.31552 0.0
H234 H 0.27395 0.2766 0.32285 0.0
H235 H 0.30167 0.29276 0.28028 0.0
H236 H 0.30409 0.22509 0.37343 0.0
H237 H 0.18766 0.21144 0.31697 0.0
H238 H 0.22247 0.21103 0.29881 0.0
H239 H 0.2171 0.24364 0.31206 0.0
C240 C 0.31221 0.22541 0.28372 0.0
C241 C 0.31386 0.25285 0.27299 0.0
C242 C 0.29675 0.21645 0.30811 0.0
C243 C 0.28242 0.23462 0.3221 0.0
C244 C 0.28479 0.26229 0.31213 0.0
H245 H 0.1453 0.17345 0.44909 0.0
H246 H 0.17815 0.20522 0.41637 0.0
C247 C 0.30049 0.27139 0.28779 0.0
C248 C 0.26347 0.22374 0.34615 0.0
H249 H 0.18834 0.19512 0.36327 0.0
C250 C 0.27875 0.21887 0.37144 0.0
C251 C 0.2305 0.21588 0.34336 0.0
C252 C 0.21323 0.2206 0.31638 0.0
C253 C 0.26184 0.20556 0.39396 0.0
C254 C 0.2289 0.19621 0.39068 0.0
C255 C 0.21358 0.20223 0.36572 0.0
C256 C 0.21015 0.17812 0.41185 0.0
C257 C 0.27948 0.20145 0.42091 0.0
C258 C 0.21704 0.15226 0.41987 0.0
C259 C 0.19848 0.13424 0.43853 0.0
C260 C 0.17235 0.14151 0.44928 0.0
C261 C 0.16529 0.16732 0.4411 0.0
C262 C 0.18407 0.18549 0.42253 0.0
H263 H 0.30164 0.21794 0.42343 0.0
H264 H 0.26524 0.20204 0.43923 0.0
H265 H 0.28562 0.1806 0.42066 0.0
H266 H 0.23635 0.14564 0.41115 0.0
H267 H 0.20408 0.1142 0.44393 0.0
H268 H 0.20472 0.84222 0.75903 0.0
H269 H 0.22879 0.86546 0.80193 0.0
H270 H 0.23419 0.78457 0.83788 0.0
H271 H 0.21045 0.76114 0.79459 0.0
H272 H 0.21116 0.86003 0.8558 0.0
H273 H 0.3242 0.82936 0.84632 0.0
H274 H 0.29466 0.8248 0.81826 0.0
H275 H 0.29041 0.80035 0.84721 0.0
C276 C 0.21068 0.82933 0.77619 0.0
C277 C 0.20575 0.79988 0.77353 0.0
C278 C 0.22451 0.84264 0.80065 0.0
C279 C 0.23367 0.82679 0.82292 0.0
C280 C 0.22791 0.79725 0.82069 0.0
H281 H 0.33294 0.89487 0.979 0.0
H282 H 0.29979 0.86252 0.94517 0.0
C283 C 0.21428 0.7839 0.79606 0.0
C284 C 0.24987 0.8416 0.84805 0.0
H285 H 0.31991 0.85669 0.88521 0.0
C286 C 0.23484 0.85912 0.86238 0.0
C287 C 0.28081 0.8404 0.85651 0.0
C288 C 0.29865 0.82293 0.84119 0.0
C289 C 0.25021 0.87596 0.88455 0.0
C290 C 0.28128 0.87521 0.89252 0.0
C291 C 0.29597 0.85701 0.87896 0.0
C292 C 0.29976 0.89476 0.91347 0.0
C293 C 0.23344 0.89487 0.89905 0.0
C294 C 0.31062 0.92343 0.90662 0.0
C295 C 0.32963 0.94184 0.92571 0.0
C296 C 0.33792 0.93185 0.95202 0.0
C297 C 0.32661 0.90315 0.95896 0.0
C298 C 0.30784 0.88468 0.93971 0.0
H299 H 0.20785 0.88922 0.89395 0.0
H300 H 0.23753 0.89364 0.92202 0.0
H301 H 0.24281 0.91713 0.89242 0.0
H302 H 0.30477 0.93145 0.88631 0.0
H303 H 0.33788 0.96389 0.91992 0.0
H304 H 0.57754 0.37486 0.80962 0.0
H305 H 0.55914 0.39855 0.76872 0.0
H306 H 0.64927 0.40903 0.73333 0.0
H307 H 0.668 0.38665 0.77475 0.0
H308 H 0.63349 0.45478 0.725 0.0
H309 H 0.52783 0.37368 0.69327 0.0
H310 H 0.5257 0.38485 0.72829 0.0
H311 H 0.55554 0.36693 0.71995 0.0
C312 C 0.59329 0.38188 0.79293 0.0
C313 C 0.6243 0.37869 0.79563 0.0
C314 C 0.58266 0.39535 0.76928 0.0
C315 C 0.60241 0.4054 0.74716 0.0
C316 C 0.63325 0.40171 0.74976 0.0
H317 H 0.53151 0.46428 0.58499 0.0
H318 H 0.54968 0.43603 0.62261 0.0
C319 C 0.64403 0.38876 0.77358 0.0
C320 C 0.59187 0.42106 0.72212 0.0
H321 H 0.53242 0.41957 0.67247 0.0
C322 C 0.61144 0.44679 0.71351 0.0
C323 C 0.56337 0.41088 0.70628 0.0
C324 C 0.54209 0.38243 0.71222 0.0
C325 C 0.60333 0.46256 0.69037 0.0
C326 C 0.57399 0.45327 0.6756 0.0
C327 C 0.55468 0.42723 0.68375 0.0
C328 C 0.56293 0.47043 0.65208 0.0
C329 C 0.627 0.48871 0.68165 0.0
C330 C 0.56349 0.4992 0.65568 0.0
C331 C 0.55397 0.51549 0.63386 0.0
C332 C 0.54289 0.50358 0.6077 0.0
C333 C 0.54107 0.47454 0.60429 0.0
C334 C 0.55108 0.45822 0.62611 0.0
H335 H 0.65122 0.48722 0.68788 0.0
H336 H 0.62559 0.49225 0.65874 0.0
H337 H 0.62265 0.50739 0.69222 0.0
H338 H 0.57113 0.50921 0.67557 0.0
H339 H 0.55512 0.5376 0.63763 0.0
H340 H 0.94086 0.6871 0.29889 0.0
H341 H 0.95891 0.66544 0.25919 0.0
H342 H 0.86345 0.62717 0.2335 0.0
H343 H 0.8453 0.64853 0.27313 0.0
H344 H 0.89617 0.58946 0.22822 0.0
H345 H 0.96328 0.68707 0.17887 0.0
H346 H 0.97691 0.68284 0.21419 0.0
H347 H 0.93801 0.68789 0.20709 0.0
C348 C 0.92355 0.6744 0.28466 0.0
C349 C 0.8914 0.66983 0.28975 0.0
C350 C 0.93401 0.66196 0.26166 0.0
C351 C 0.91276 0.64473 0.24252 0.0
C352 C 0.88069 0.64018 0.24758 0.0
H353 H 0.96112 0.59351 0.07662 0.0
H354 H 0.94266 0.61633 0.11548 0.0
C355 C 0.87024 0.65248 0.27059 0.0
C356 C 0.92363 0.6308 0.21784 0.0
H357 H 0.96991 0.64362 0.1611 0.0
C358 C 0.91227 0.60149 0.21361 0.0
C359 C 0.94431 0.64605 0.198 0.0
C360 C 0.9561 0.67773 0.19953 0.0
C361 C 0.92113 0.58721 0.19096 0.0
C362 C 0.94276 0.60225 0.17175 0.0
C363 C 0.9537 0.63166 0.17566 0.0
C364 C 0.95409 0.58797 0.14758 0.0
C365 C 0.90635 0.55612 0.18751 0.0
C366 C 0.96724 0.56433 0.15198 0.0
C367 C 0.97768 0.55106 0.12963 0.0
C368 C 0.97576 0.56102 0.10188 0.0
C369 C 0.96295 0.5849 0.09747 0.0
C370 C 0.95241 0.59814 0.11989 0.0
H371 H 0.88365 0.54996 0.19778 0.0
H372 H 0.90229 0.55034 0.16515 0.0
H373 H 0.92212 0.54363 0.19745 0.0
H374 H 0.9699 0.55622 0.17291 0.0
H375 H 0.98766 0.53306 0.13426 0.0
H376 H 0.36967 0.20249 0.22342 0.0
H377 H 0.40637 0.17766 0.2056 0.0
H378 H 0.4466 0.25068 0.15572 0.0
H379 H 0.40993 0.27609 0.17389 0.0
H380 H 0.42895 0.2019 0.12558 0.0
H381 H 0.49944 0.18305 0.21944 0.0
H382 H 0.4584 0.17307 0.22532 0.0
H383 H 0.47667 0.20954 0.21815 0.0
C384 C 0.3869 0.21368 0.20932 0.0
C385 C 0.387 0.2414 0.20025 0.0
C386 C 0.40795 0.19942 0.19918 0.0
C387 C 0.42965 0.21252 0.1798 0.0
C388 C 0.43024 0.24033 0.17093 0.0
H389 H 0.5465 0.11065 0.10634 0.0
H390 H 0.5329 0.14966 0.13057 0.0
C391 C 0.40916 0.25472 0.18117 0.0
C392 C 0.44882 0.19569 0.16653 0.0
H393 H 0.49506 0.14945 0.18172 0.0
C394 C 0.44401 0.19097 0.13774 0.0
C395 C 0.46873 0.18165 0.18236 0.0
C396 C 0.47639 0.18733 0.21299 0.0
C397 C 0.4567 0.17098 0.12477 0.0
C398 C 0.47428 0.15516 0.14108 0.0
C399 C 0.48109 0.16134 0.16942 0.0
C400 C 0.48329 0.13059 0.12934 0.0
C401 C 0.45021 0.16611 0.09387 0.0
C402 C 0.45997 0.10664 0.12171 0.0
C403 C 0.46756 0.08434 0.10804 0.0
C404 C 0.49869 0.0856 0.10172 0.0
C405 C 0.52229 0.10901 0.11083 0.0
C406 C 0.51461 0.13135 0.12461 0.0
H407 H 0.44341 0.18443 0.08323 0.0
H408 H 0.47102 0.16215 0.08396 0.0
H409 H 0.43065 0.14721 0.09058 0.0
H410 H 0.4357 0.1056 0.12561 0.0
H411 H 0.44882 0.0666 0.10155 0.0
H412 H 0.10186 0.78972 0.72348 0.0
H413 H 0.06828 0.81856 0.70181 0.0
H414 H 0.12681 0.83463 0.63112 0.0
H415 H 0.16038 0.80582 0.65264 0.0
H416 H 0.09108 0.87488 0.69178 0.0
H417 H 0.03957 0.82164 0.59378 0.0
H418 H 0.05632 0.80358 0.6217 0.0
H419 H 0.08114 0.82563 0.59734 0.0
C420 C 0.10707 0.79883 0.70299 0.0
C421 C 0.1338 0.79564 0.68979 0.0
C422 C 0.08788 0.81527 0.69065 0.0
C423 C 0.09495 0.82865 0.66481 0.0
C424 C 0.12052 0.82405 0.6508 0.0
H425 H 0.078 0.98758 0.59876 0.0
H426 H 0.09172 0.94777 0.62402 0.0
C427 C 0.13971 0.80756 0.66312 0.0
C428 C 0.07836 0.85029 0.65432 0.0
H429 H 0.04095 0.87133 0.59659 0.0
C430 C 0.07965 0.87387 0.67113 0.0
C431 C 0.06323 0.84886 0.62752 0.0
C432 C 0.05967 0.82342 0.60915 0.0
C433 C 0.06756 0.89668 0.66133 0.0
C434 C 0.05421 0.89604 0.63389 0.0
C435 C 0.05148 0.87187 0.61757 0.0
C436 C 0.04493 0.92095 0.62103 0.0
C437 C 0.06961 0.92148 0.68027 0.0
C438 C 0.01403 0.91909 0.61107 0.0
C439 C 1.00606 0.94186 0.59661 0.0
C440 C 0.029 0.96675 0.59159 0.0
C441 C 0.05975 0.96878 0.60233 0.0
C442 C 0.06762 0.94608 0.61688 0.0
H443 H 0.07177 0.91535 0.70259 0.0
H444 H 0.09064 0.93823 0.67558 0.0
H445 H 0.04875 0.93052 0.67702 0.0
H446 H 0.99623 0.8998 0.61395 0.0
H447 H 0.98225 0.93946 0.58838 0.0
H448 H 0.72523 0.34925 0.88443 0.0
H449 H 0.77215 0.37432 0.91061 0.0
H450 H 0.748 0.45372 0.89139 0.0
H451 H 0.70001 0.42861 0.86627 0.0
H452 H 0.82275 0.41278 0.89683 0.0
H453 H 0.76181 0.46012 0.97458 0.0
H454 H 0.74123 0.43328 0.95059 0.0
H455 H 0.75316 0.46955 0.93923 0.0
C456 C 0.72954 0.37203 0.886 0.0
C457 C 0.70826 0.38672 0.87346 0.0
C458 C 0.75669 0.38643 0.90086 0.0
C459 C 0.76356 0.41599 0.90365 0.0
C460 C 0.74301 0.43088 0.89029 0.0
H461 H 0.95079 0.5089 0.96797 0.0
H462 H 0.90371 0.4911 0.93799 0.0
C463 C 0.71569 0.41646 0.87551 0.0
C464 C 0.7922 0.43089 0.92048 0.0
H465 H 0.81709 0.47433 0.9765 0.0
C466 C 0.82146 0.42629 0.9142 0.0
C467 C 0.79073 0.44829 0.9435 0.0
C468 C 0.76004 0.45294 0.95261 0.0
C469 C 0.849 0.43838 0.93015 0.0
C470 C 0.84765 0.45628 0.95279 0.0
C471 C 0.8184 0.46093 0.95904 0.0
C472 C 0.8759 0.46907 0.97115 0.0
C473 C 0.87909 0.43092 0.92314 0.0
C474 C 0.87581 0.46395 1.00011 0.0
C475 C 0.90257 0.47454 1.01735 0.0
C476 C 0.93019 0.49054 1.00612 0.0
C477 C 0.92999 0.49654 0.9773 0.0
C478 C 0.90311 0.48608 0.96006 0.0
H479 H 0.8747 0.41132 0.91059 0.0
H480 H 0.89312 0.44838 0.91066 0.0
H481 H 0.89316 0.42791 0.94233 0.0
H482 H 0.85521 0.45111 1.00936 0.0
H483 H 0.90182 0.46957 0.03944 0.0
H484 H 0.78621 0.64374 0.33098 0.0
H485 H 0.74029 0.61988 0.35658 0.0
H486 H 0.78845 0.65128 0.43404 0.0
H487 H 0.83451 0.67428 0.40883 0.0
H488 H 0.75711 0.59715 0.44025 0.0
H489 H 0.67684 0.65702 0.38875 0.0
H490 H 0.69459 0.6382 0.36497 0.0
H491 H 0.71856 0.66682 0.38496 0.0
C492 C 0.78719 0.64534 0.35349 0.0
C493 C 0.81421 0.66138 0.36763 0.0
C494 C 0.76065 0.63194 0.36816 0.0
C495 C 0.76032 0.63419 0.39739 0.0
C496 C 0.78768 0.64933 0.41156 0.0
H497 H 0.59662 0.60358 0.50091 0.0
H498 H 0.64278 0.6238 0.47427 0.0
C499 C 0.81409 0.6627 0.39698 0.0
C500 C 0.73182 0.6209 0.41341 0.0
H501 H 0.65434 0.62013 0.4197 0.0
C502 C 0.73465 0.60218 0.43564 0.0
C503 C 0.7024 0.62764 0.40797 0.0
C504 C 0.69784 0.64871 0.38556 0.0
C505 C 0.7092 0.58997 0.45222 0.0
C506 C 0.67956 0.59614 0.44634 0.0
C507 C 0.67679 0.61506 0.42426 0.0
C508 C 0.65137 0.58354 0.463 0.0
C509 C 0.71466 0.57116 0.47644 0.0
C510 C 0.64023 0.55405 0.46564 0.0
C511 C 0.61384 0.54238 0.48106 0.0
C512 C 0.59746 0.5598 0.4942 0.0
C513 C 0.60852 0.58935 0.49137 0.0
C514 C 0.63499 0.601 0.47596 0.0
H515 H 0.73984 0.5751 0.48309 0.0
H516 H 0.70131 0.57437 0.49462 0.0
H517 H 0.7068 0.54871 0.47006 0.0
H518 H 0.65171 0.53991 0.45543 0.0
H519 H 0.60611 0.51957 0.48238 0.0
H520 H 0.30069 0.3282 0.20554 0.0
H521 H 0.26347 0.34629 0.17505 0.0
H522 H 0.26346 0.28161 0.11501 0.0
H523 H 0.30062 0.26314 0.14558 0.0
H524 H 0.26373 0.34036 0.09273 0.0
H525 H 0.17104 0.29595 0.16637 0.0
H526 H 0.20623 0.31732 0.18243 0.0
H527 H 0.20728 0.28466 0.16612 0.0
C528 C 0.29305 0.31803 0.1857 0.0
C529 C 0.30329 0.2941 0.17806 0.0
C530 C 0.27187 0.3284 0.16832 0.0
C531 C 0.2605 0.315 0.14305 0.0
C532 C 0.27202 0.29215 0.1345 0.0
H533 H 0.08654 0.34958 0.07255 0.0
H534 H 0.12729 0.32376 0.08325 0.0
C535 C 0.2933 0.28173 0.15192 0.0
C536 C 0.23483 0.32368 0.12687 0.0
H537 H 0.15957 0.32886 0.13242 0.0
C538 C 0.24079 0.33758 0.10113 0.0
C539 C 0.2048 0.31941 0.13766 0.0
C540 C 0.19674 0.30329 0.16454 0.0
C541 C 0.21783 0.34878 0.08661 0.0
C542 C 0.18849 0.34626 0.09844 0.0
C543 C 0.1821 0.33094 0.12341 0.0
C544 C 0.165 0.36133 0.08692 0.0
C545 C 0.22531 0.36347 0.05897 0.0
C546 C 0.17276 0.39096 0.08495 0.0
C547 C 0.14957 0.40572 0.07892 0.0
C548 C 0.11809 0.39114 0.07501 0.0
C549 C 0.11055 0.36139 0.07574 0.0
C550 C 0.13381 0.34663 0.08169 0.0
H551 H 0.24326 0.35526 0.0485 0.0
H552 H 0.2041 0.36083 0.04481 0.0
H553 H 0.23489 0.38641 0.06253 0.0
H554 H 0.19648 0.40281 0.08967 0.0
H555 H 0.15608 0.42863 0.07897 0.0
H556 H 0.6267 0.31724 0.9147 0.0
H557 H 0.607 0.2715 0.93703 0.0
H558 H 0.5807 0.23351 0.8564 0.0
H559 H 0.60199 0.27924 0.83373 0.0
H560 H 0.55246 0.23617 0.93982 0.0
H561 H 0.6294 0.17966 0.88824 0.0
H562 H 0.6345 0.21748 0.88547 0.0
H563 H 0.60495 0.19433 0.86404 0.0
C564 C 0.61704 0.29917 0.90153 0.0
C565 C 0.61667 0.30215 0.87219 0.0
C566 C 0.60549 0.27287 0.91447 0.0
C567 C 0.59298 0.24848 0.89863 0.0
C568 C 0.59108 0.25157 0.86932 0.0
H569 H 0.51101 0.07211 0.94713 0.0
H570 H 0.52975 0.11694 0.92211 0.0
C571 C 0.60285 0.27798 0.85629 0.0
C572 C 0.582 0.22019 0.91305 0.0
H573 H 0.59083 0.15185 0.91643 0.0
C574 C 0.56102 0.21783 0.93466 0.0
C575 C 0.59301 0.19592 0.90668 0.0
C576 C 0.61694 0.19694 0.88505 0.0
C577 C 0.55063 0.19227 0.94963 0.0
C578 C 0.56161 0.16807 0.94322 0.0
C579 C 0.58234 0.17026 0.92149 0.0
C580 C 0.55152 0.14031 0.95859 0.0
C581 C 0.52744 0.19123 0.97191 0.0
C582 C 0.55802 0.13796 0.98749 0.0
C583 C 0.54745 0.11217 1.00186 0.0
C584 C 0.53006 0.08802 0.98773 0.0
C585 C 0.52427 0.09023 0.95873 0.0
C586 C 0.53501 0.11594 0.94435 0.0
H587 H 0.51569 0.20909 0.96985 0.0
H588 H 0.50931 0.17104 0.9711 0.0
H589 H 0.53988 0.1926 0.99272 0.0
H590 H 0.57115 0.15617 0.99903 0.0
H591 H 0.55227 0.11132 1.02415 0.0
H592 H 0.94507 0.74661 0.36333 0.0
H593 H 0.96565 0.79179 0.38764 0.0
H594 H 0.87379 0.80875 0.38172 0.0
H595 H 0.85321 0.76363 0.35828 0.0
H596 H 0.97074 0.84682 0.37696 0.0
H597 H 0.89066 0.81859 0.46348 0.0
H598 H 0.89434 0.79321 0.4378 0.0
H599 H 0.86977 0.81758 0.43035 0.0
C600 C 0.92935 0.76013 0.36694 0.0
C601 C 0.89734 0.75113 0.35899 0.0
C602 C 0.94111 0.78602 0.38104 0.0
C603 C 0.92123 0.80369 0.38759 0.0
C604 C 0.88965 0.79537 0.37815 0.0
H605 H 0.95008 0.96916 0.47316 0.0
H606 H 0.92859 0.92639 0.44504 0.0
C607 C 0.87789 0.76952 0.36438 0.0
C608 C 0.93322 0.8306 0.40423 0.0
H609 H 0.91932 0.86655 0.46141 0.0
C610 C 0.95947 0.85093 0.39548 0.0
C611 C 0.91888 0.83649 0.42864 0.0
C612 C 0.89208 0.8152 0.44081 0.0
C613 C 0.97122 0.87669 0.40988 0.0
C614 C 0.95666 0.88263 0.43405 0.0
C615 C 0.93041 0.86242 0.4428 0.0
C616 C 0.96936 0.90892 0.45125 0.0
C617 C 0.99899 0.89764 0.39882 0.0
C618 C 0.99921 0.91345 0.46471 0.0
C619 C 0.01131 0.93764 0.48095 0.0
C620 C 0.99413 0.95837 0.48428 0.0
C621 C 0.96408 0.95383 0.47103 0.0
C622 C 0.95177 0.9293 0.45492 0.0
H623 H 1.00252 0.89355 0.37667 0.0
H624 H 0.99619 0.91964 0.40057 0.0
H625 H 0.02038 0.89592 0.41132 0.0
H626 H 0.01319 0.89806 0.46285 0.0
H627 H 0.03442 0.94014 0.4909 0.0
H628 H 0.22612 0.71681 0.73063 0.0
H629 H 0.26356 0.69442 0.71005 0.0
H630 H 0.24976 0.73481 0.63108 0.0
H631 H 0.21415 0.75911 0.65206 0.0
H632 H 0.26241 0.65909 0.66986 0.0
H633 H 0.34227 0.76103 0.64226 0.0
H634 H 0.30898 0.7591 0.66317 0.0
H635 H 0.30405 0.75682 0.62573 0.0
C636 C 0.23121 0.72117 0.70892 0.0
C637 C 0.21756 0.74031 0.69323 0.0
C638 C 0.25245 0.70812 0.69711 0.0
C639 C 0.26023 0.71357 0.66922 0.0
C640 C 0.24494 0.73101 0.6529 0.0
H641 H 0.36765 0.61513 0.58237 0.0
H642 H 0.32606 0.63425 0.60056 0.0
C643 C 0.22408 0.74451 0.66484 0.0
C644 C 0.28496 0.70156 0.65768 0.0
H645 H 0.35447 0.71953 0.62568 0.0
C646 C 0.28258 0.67232 0.66025 0.0
C647 C 0.31167 0.71889 0.64568 0.0
C648 C 0.31712 0.75072 0.6443 0.0
C649 C 0.306 0.65991 0.65109 0.0
C650 C 0.33201 0.67707 0.63797 0.0
C651 C 0.33443 0.70632 0.63549 0.0
C652 C 0.35719 0.66531 0.62693 0.0
C653 C 0.30301 0.62871 0.65643 0.0
C654 C 0.3887 0.67708 0.6348 0.0
C655 C 0.41254 0.66665 0.62383 0.0
C656 C 0.40525 0.64402 0.60509 0.0
C657 C 0.37379 0.63226 0.5972 0.0
C658 C 0.35002 0.64306 0.60773 0.0
H659 H 0.28802 0.621 0.67424 0.0
H660 H 0.29188 0.61673 0.6377 0.0
H661 H 0.3262 0.6239 0.66095 0.0
H662 H 0.39486 0.69436 0.64947 0.0
H663 H 0.43665 0.67606 0.63018 0.0
H664 H 0.71348 0.76819 0.78959 0.0
H665 H 0.74052 0.78984 0.74832 0.0
H666 H 0.72525 0.87076 0.77048 0.0
H667 H 0.69913 0.8497 0.81214 0.0
H668 H 0.71254 0.84585 0.70688 0.0
H669 H 0.82948 0.85529 0.76132 0.0
H670 H 0.79936 0.82331 0.76518 0.0
H671 H 0.79521 0.85546 0.7804 0.0
C672 C 0.71575 0.79057 0.78561 0.0
C673 C 0.70418 0.80721 0.80421 0.0
C674 C 0.73103 0.80282 0.762 0.0
C675 C 0.73482 0.83181 0.75657 0.0
C676 C 0.72233 0.84829 0.77439 0.0
H677 H 0.81568 0.95503 0.63382 0.0
H678 H 0.78374 0.92641 0.66888 0.0
C679 C 0.70723 0.83614 0.79807 0.0
C680 C 0.75342 0.84544 0.73324 0.0
H681 H 0.82846 0.87407 0.7159 0.0
C682 C 0.73789 0.8519 0.70866 0.0
C683 C 0.78639 0.85306 0.7358 0.0
C684 C 0.80384 0.84658 0.76206 0.0
C685 C 0.75464 0.86612 0.68643 0.0
C686 C 0.78768 0.87464 0.68931 0.0
C687 C 0.80316 0.86758 0.71376 0.0
C688 C 0.80664 0.89167 0.66763 0.0
C689 C 0.73682 0.87163 0.66003 0.0
C690 C 0.83079 0.88205 0.65595 0.0
C691 C 0.84931 0.89852 0.63611 0.0
C692 C 0.84398 0.9249 0.62764 0.0
C693 C 0.81995 0.93457 0.63957 0.0
C694 C 0.8016 0.91819 0.65951 0.0
H695 H 0.71363 0.85649 0.65786 0.0
H696 H 0.73275 0.89327 0.66069 0.0
H697 H 0.75011 0.87011 0.64131 0.0
H698 H 0.83522 0.86173 0.66209 0.0
H699 H 0.86754 0.89047 0.62714 0.0
H700 H 0.8168 0.22659 0.27487 0.0
H701 H 0.79627 0.21653 0.22724 0.0
H702 H 0.80426 0.30559 0.21159 0.0
H703 H 0.82455 0.3158 0.25981 0.0
H704 H 0.74839 0.27634 0.19512 0.0
H705 H 0.83384 0.22415 0.15282 0.0
H706 H 0.82146 0.20752 0.18529 0.0
H707 H 0.84207 0.24428 0.18464 0.0
C708 C 0.81505 0.24415 0.26111 0.0
C709 C 0.82253 0.27201 0.27102 0.0
C710 C 0.80339 0.23838 0.23378 0.0
C711 C 0.79939 0.26035 0.21557 0.0
C712 C 0.80746 0.28833 0.22519 0.0
H713 H 0.71593 0.18119 0.05867 0.0
H714 H 0.75096 0.21764 0.08737 0.0
C715 C 0.81895 0.29412 0.25271 0.0
C716 C 0.78353 0.25337 0.18773 0.0
H717 H 0.77987 0.20816 0.13373 0.0
C718 C 0.75571 0.26203 0.18128 0.0
C719 C 0.79341 0.23541 0.16913 0.0
C720 C 0.82455 0.22763 0.17322 0.0
C721 C 0.73606 0.25097 0.15825 0.0
C722 C 0.74402 0.23012 0.14181 0.0
C723 C 0.77331 0.22368 0.14663 0.0
C724 C 0.72088 0.21197 0.12236 0.0
C725 C 0.70649 0.2611 0.15239 0.0
C726 C 0.69217 0.19697 0.13228 0.0
C727 C 0.67217 0.17638 0.11594 0.0
C728 C 0.68062 0.16996 0.08944 0.0
C729 C 0.70887 0.18564 0.07906 0.0
C730 C 0.72883 0.20649 0.09539 0.0
H731 H 0.71011 0.28372 0.15805 0.0
H732 H 0.69841 0.25858 0.1301 0.0
H733 H 0.68781 0.24878 0.16541 0.0
H734 H 0.68593 0.19999 0.15334 0.0
H735 H 0.65095 0.16427 0.12483 0.0
H736 H 0.38964 0.62384 0.25703 0.0
H737 H 0.40772 0.60128 0.29845 0.0
H738 H 0.43972 0.68262 0.33742 0.0
H739 H 0.42054 0.70539 0.29623 0.0
H740 H 0.4646 0.60561 0.32306 0.0
H741 H 0.39054 0.63927 0.39945 0.0
H742 H 0.38429 0.64339 0.36231 0.0
H743 H 0.41502 0.66795 0.38111 0.0
C744 C 0.40008 0.63708 0.27448 0.0
C745 C 0.40304 0.66663 0.27305 0.0
C746 C 0.41072 0.62403 0.29827 0.0
C747 C 0.42467 0.63993 0.32167 0.0
C748 C 0.42839 0.66953 0.32015 0.0
H749 H 0.50092 0.58258 0.48258 0.0
H750 H 0.48554 0.61186 0.4443 0.0
C751 C 0.41773 0.68267 0.29626 0.0
C752 C 0.43577 0.62533 0.34707 0.0
H753 H 0.4273 0.61416 0.41751 0.0
C754 C 0.45635 0.60757 0.34366 0.0
C755 C 0.4254 0.62774 0.37429 0.0
C756 C 0.40239 0.64539 0.3796 0.0
C757 C 0.46666 0.59237 0.36624 0.0
C758 C 0.45578 0.59428 0.39332 0.0
C759 C 0.43574 0.6125 0.39693 0.0
C760 C 0.46393 0.57661 0.41762 0.0
C761 C 0.48955 0.5746 0.36085 0.0
C762 C 0.45641 0.5469 0.41607 0.0
C763 C 0.46489 0.5302 0.43804 0.0
C764 C 0.48088 0.54253 0.46253 0.0
C765 C 0.48794 0.57225 0.46445 0.0
C766 C 0.47937 0.58906 0.44236 0.0
H767 H 0.50274 0.58192 0.3419 0.0
H768 H 0.50653 0.57506 0.37886 0.0
H769 H 0.47656 0.55236 0.35747 0.0
H770 H 0.44399 0.5365 0.39769 0.0
H771 H 0.45905 0.50743 0.4357 0.0
H772 H 0.13904 0.4206 0.75784 0.0
H773 H 0.12198 0.44227 0.79806 0.0
H774 H 0.10023 0.36123 0.83967 0.0
H775 H 0.1174 0.33937 0.79949 0.0
H776 H 0.06281 0.43045 0.82384 0.0
H777 H 0.15605 0.41248 0.89928 0.0
H778 H 0.15874 0.40996 0.86204 0.0
H779 H 0.13427 0.38169 0.88094 0.0
C780 C 0.13081 0.40725 0.77554 0.0
C781 C 0.12994 0.37801 0.77505 0.0
C782 C 0.12085 0.41978 0.79866 0.0
C783 C 0.11008 0.40372 0.82249 0.0
C784 C 0.10881 0.37446 0.82199 0.0
H785 H 0.053 0.44877 0.98731 0.0
H786 H 0.06888 0.42523 0.94767 0.0
C787 C 0.11841 0.36183 0.79869 0.0
C788 C 0.09994 0.41756 0.84747 0.0
H789 H 0.11693 0.4321 0.91713 0.0
C790 C 0.07476 0.43082 0.84419 0.0
C791 C 0.11505 0.41809 0.87439 0.0
C792 C 0.14269 0.40502 0.87952 0.0
C793 C 0.06411 0.44395 0.86673 0.0
C794 C 0.07966 0.44509 0.89362 0.0
C795 C 0.10478 0.43163 0.89686 0.0
C796 C 0.07032 0.45999 0.91842 0.0
C797 C 0.03541 0.45554 0.86147 0.0
C798 C 0.06628 0.48793 0.9162 0.0
C799 C 0.05677 0.50138 0.93892 0.0
C800 C 0.05154 0.48774 0.9651 0.0
C801 C 0.05664 0.46017 0.96767 0.0
C802 C 0.06581 0.44657 0.9448 0.0
H803 H 0.02042 0.44469 0.84375 0.0
H804 H 0.02114 0.45322 0.88016 0.0
H805 H 0.0427 0.47833 0.85591 0.0
H806 H 0.07061 0.4996 0.8968 0.0
H807 H 0.05355 0.52266 0.9359 0.0
H808 H 0.60118 0.80353 0.84586 0.0
H809 H 0.56753 0.83136 0.86512 0.0
H810 H 0.62648 0.84416 0.94052 0.0
H811 H 0.66013 0.81666 0.92151 0.0
H812 H 0.56163 0.83387 0.94963 0.0
H813 H 0.60025 0.91799 0.86976 0.0
H814 H 0.58234 0.88316 0.85703 0.0
H815 H 0.61953 0.88939 0.87593 0.0
C816 C 0.60672 0.81204 0.86666 0.0
C817 C 0.63343 0.80807 0.88209 0.0
C818 C 0.58751 0.82789 0.87761 0.0
C819 C 0.59485 0.84013 0.90404 0.0
C820 C 0.62042 0.83485 0.92008 0.0
H821 H 0.58196 0.9873 0.98523 0.0
H822 H 0.59333 0.94941 0.95813 0.0
C823 C 0.63956 0.81901 0.90921 0.0
C824 C 0.5778 0.86037 0.91439 0.0
H825 H 0.56936 0.92797 0.90477 0.0
C826 C 0.56278 0.85428 0.93963 0.0
C827 C 0.57971 0.88704 0.90132 0.0
C828 C 0.59647 0.89503 0.87461 0.0
C829 C 0.55065 0.87461 0.95277 0.0
C830 C 0.55338 0.90154 0.94008 0.0
C831 C 0.56723 0.90721 0.91428 0.0
C832 C 0.54539 0.92511 0.95477 0.0
C833 C 0.53666 0.86771 0.98086 0.0
C834 C 0.51451 0.92425 0.9613 0.0
C835 C 0.50787 0.94592 0.97688 0.0
C836 C 0.53205 0.9688 0.9861 0.0
C837 C 0.56278 0.96998 0.97861 0.0
C838 C 0.56934 0.94836 0.96307 0.0
H839 H 0.54077 0.84754 0.98972 0.0
H840 H 0.54659 0.88495 0.99586 0.0
H841 H 0.51103 0.86575 0.97864 0.0
H842 H 0.49565 0.90666 0.95468 0.0
H843 H 0.48391 0.9444 0.98216 0.0
H844 H 0.8993 0.27852 0.38873 0.0
H845 H 0.92974 0.24818 0.41299 0.0
H846 H 0.88834 0.18011 0.35684 0.0
H847 H 0.8576 0.20985 0.33293 0.0
H848 H 0.90588 0.19578 0.4395 0.0
H849 H 0.98254 0.18382 0.35478 0.0
H850 H 0.96148 0.21154 0.35469 0.0
H851 H 0.94183 0.17639 0.34391 0.0
C852 C 0.89671 0.25709 0.38157 0.0
C853 C 0.87626 0.24674 0.35868 0.0
C854 C 0.91424 0.23987 0.39533 0.0
C855 C 0.91179 0.21213 0.3863 0.0
C856 C 0.89128 0.20172 0.36363 0.0
H857 H 0.93529 0.06061 0.46528 0.0
H858 H 0.91928 0.09944 0.44025 0.0
C859 C 0.87372 0.2188 0.34997 0.0
C860 C 0.92897 0.1932 0.4015 0.0
H861 H 0.97814 0.14961 0.39215 0.0
C862 C 0.92206 0.18602 0.4293 0.0
C863 C 0.95028 0.18069 0.38821 0.0
C864 C 0.95975 0.18869 0.35883 0.0
C865 C 0.93463 0.16554 0.4437 0.0
C866 C 0.95442 0.15182 0.42984 0.0
C867 C 0.96266 0.16 0.40256 0.0
C868 C 0.96517 0.12779 0.44299 0.0
C869 C 0.92617 0.15822 0.47346 0.0
C870 C 0.99655 0.13064 0.45196 0.0
C871 C 1.00587 0.10843 0.46638 0.0
C872 C 0.98392 0.08299 0.4718 0.0
C873 C 0.9528 0.07989 0.46158 0.0
C874 C 0.94354 0.10209 0.44735 0.0
H875 H 0.91654 0.17477 0.48302 0.0
H876 H 0.90817 0.13798 0.47388 0.0
H877 H 0.9469 0.15539 0.48635 0.0
H878 H 0.01358 0.15033 0.44861 0.0
H879 H 0.02998 0.11156 0.47403 0.0
H880 H 0.30306 0.69921 0.18418 0.0
H881 H 0.25597 0.67462 0.158 0.0
H882 H 0.27992 0.59484 0.17562 0.0
H883 H 0.32811 0.61951 0.20077 0.0
H884 H 0.26057 0.59718 0.12228 0.0
H885 H 0.17483 0.63038 0.18614 0.0
H886 H 0.20278 0.66021 0.1731 0.0
H887 H 0.21556 0.63583 0.19716 0.0
C888 C 0.29858 0.67644 0.18242 0.0
C889 C 0.31977 0.66151 0.19471 0.0
C890 C 0.2712 0.66228 0.16771 0.0
C891 C 0.26379 0.63268 0.16513 0.0
C892 C 0.2848 0.61765 0.17739 0.0
H893 H 0.07729 0.54122 0.09974 0.0
H894 H 0.12464 0.5585 0.12958 0.0
C895 C 0.31233 0.63182 0.19204 0.0
C896 C 0.2348 0.61766 0.14881 0.0
H897 H 0.15562 0.61107 0.14139 0.0
C898 C 0.23761 0.60008 0.12666 0.0
C899 C 0.20453 0.62084 0.15461 0.0
C900 C 0.19915 0.63759 0.17923 0.0
C901 C 0.21145 0.58646 0.10976 0.0
C902 C 0.18146 0.59096 0.11457 0.0
C903 C 0.1785 0.60779 0.13729 0.0
C904 C 0.15305 0.57892 0.09609 0.0
C905 C 0.21625 0.56705 0.08714 0.0
C906 C 0.15288 0.58445 0.06719 0.0
C907 C 0.1259 0.57433 0.05007 0.0
C908 C 0.09815 0.55871 0.0614 0.0
C909 C 0.09829 0.55299 0.09027 0.0
C910 C 0.12538 0.56302 0.1074 0.0
H911 H 0.23728 0.55858 0.09199 0.0
H912 H 0.19566 0.54898 0.08413 0.0
H913 H 0.21987 0.57909 0.06721 0.0
H914 H 0.17345 0.59723 0.05787 0.0
H915 H 0.12659 0.57935 1.02799 0.0
H916 H 0.20122 0.42473 0.70115 0.0
H917 H 0.24714 0.44805 0.67518 0.0
H918 H 0.27454 0.36889 0.6713 0.0
H919 H 0.22919 0.34562 0.69723 0.0
H920 H 0.31162 0.45443 0.68496 0.0
H921 H 0.27289 0.39155 0.58938 0.0
H922 H 0.24717 0.39212 0.61734 0.0
H923 H 0.27486 0.37014 0.62002 0.0
C924 C 0.21715 0.4123 0.69502 0.0
C925 C 0.21091 0.38305 0.70107 0.0
C926 C 0.24342 0.42569 0.67999 0.0
C927 C 0.26414 0.4102 0.67047 0.0
C928 C 0.25861 0.38129 0.67749 0.0
H929 H 0.43312 0.44287 0.57443 0.0
H930 H 0.38711 0.42267 0.60122 0.0
C931 C 0.23249 0.36796 0.69245 0.0
C932 C 0.29148 0.424 0.65331 0.0
H933 H 0.32518 0.41926 0.59124 0.0
C934 C 0.31441 0.44686 0.66438 0.0
C935 C 0.29547 0.41428 0.62636 0.0
C936 C 0.27117 0.39086 0.61241 0.0
C937 C 0.34138 0.45954 0.64978 0.0
C938 C 0.34551 0.44962 0.62292 0.0
C939 C 0.32238 0.42695 0.61177 0.0
C940 C 0.37361 0.46223 0.60614 0.0
C941 C 0.36573 0.48287 0.66378 0.0
C942 C 0.38143 0.49123 0.59919 0.0
C943 C 0.40786 0.50289 0.58378 0.0
C944 C 0.42727 0.48593 0.5746 0.0
C945 C 0.41896 0.45676 0.58101 0.0
C946 C 0.39253 0.44511 0.59646 0.0
H947 H 0.36369 0.48243 0.68677 0.0
H948 H 0.38972 0.48127 0.65922 0.0
H949 H 0.36244 0.50362 0.65587 0.0
H950 H 0.36696 0.50494 0.60553 0.0
H951 H 0.41297 0.5253 0.57905 0.0
H952 H 0.71763 0.77769 0.92837 0.0
H953 H 0.75463 0.75548 0.95493 0.0
H954 H 0.75626 0.70128 0.88536 0.0
H955 H 0.71912 0.72318 0.85873 0.0
H956 H 0.75464 0.69674 0.96932 0.0
H957 H 0.8481 0.74796 0.89887 0.0
H958 H 0.81173 0.75882 0.90029 0.0
H959 H 0.81326 0.7278 0.88122 0.0
C960 C 0.72529 0.76057 0.91898 0.0
C961 C 0.71569 0.7523 0.89137 0.0
C962 C 0.7465 0.74802 0.93413 0.0
C963 C 0.75847 0.72714 0.92187 0.0
C964 C 0.74761 0.71773 0.89495 0.0
H965 H 0.86773 0.61235 0.97996 0.0
H966 H 0.82569 0.63615 0.96841 0.0
C967 C 0.72645 0.73024 0.8798 0.0
C968 C 0.78383 0.71642 0.93637 0.0
H969 H 0.85961 0.71298 0.93021 0.0
C970 C 0.77769 0.70041 0.96096 0.0
C971 C 0.81401 0.72184 0.9257 0.0
C972 C 0.82238 0.74027 0.90021 0.0
C973 C 0.80072 0.6886 0.97455 0.0
C974 C 0.83038 0.69273 0.96296 0.0
C975 C 0.8368 0.70971 0.939 0.0
C976 C 0.85466 0.67842 0.97416 0.0
C977 C 0.79311 0.67184 1.00111 0.0
C978 C 0.88493 0.69427 0.98129 0.0
C979 C 0.90909 0.68071 0.98776 0.0
C980 C 0.9034 0.65104 0.98712 0.0
C981 C 0.87277 0.63521 0.98109 0.0
C982 C 0.84866 0.64879 0.97454 0.0
H983 H 0.77393 0.67805 1.01173 0.0
H984 H 0.78525 0.64903 0.99604 0.0
H985 H 0.81393 0.67472 1.01578 0.0
H986 H 0.89006 0.71718 0.981 0.0
H987 H 0.93239 0.69345 0.99261 0.0
H988 H 0.41798 0.76996 0.23863 0.0
H989 H 0.43968 0.81621 0.21676 0.0
H990 H 0.4287 0.77689 0.13611 0.0
H991 H 0.40734 0.73088 0.15776 0.0
H992 H 0.48616 0.81574 0.14388 0.0
H993 H 0.38903 0.864 0.17023 0.0
H994 H 0.40761 0.84953 0.19936 0.0
H995 H 0.38621 0.82639 0.17275 0.0
C996 C 0.42053 0.77113 0.21629 0.0
C997 C 0.41063 0.74656 0.20003 0.0
C998 C 0.43262 0.7977 0.2037 0.0
C999 C 0.43537 0.80038 0.17456 0.0
C1000 C 0.42664 0.77568 0.15852 0.0
H1001 H 0.46511 0.95365 0.06722 0.0
H1002 H 0.44305 0.9083 0.09056 0.0
C1003 C 0.41433 0.74927 0.171 0.0
C1004 C 0.44734 0.82865 0.16059 0.0
H1005 H 0.4318 0.89393 0.14837 0.0
C1006 C 0.47425 0.83281 0.14497 0.0
C1007 C 0.43167 0.85099 0.1614 0.0
C1008 C 0.40187 0.84759 0.1766 0.0
C1009 C 0.48613 0.85854 0.13074 0.0
C1010 C 0.47094 0.88115 0.13214 0.0
C1011 C 0.44368 0.87684 0.14731 0.0
C1012 C 0.48351 0.90947 0.11848 0.0
C1013 C 0.51467 0.8611 0.11389 0.0
C1014 C 0.51334 0.92576 0.12652 0.0
C1015 C 0.52575 0.95176 0.11337 0.0
C1016 C 0.50872 0.96252 0.09184 0.0
C1017 C 0.47865 0.94646 0.08399 0.0
C1018 C 0.4661 0.92033 0.09728 0.0
H1019 H 0.51853 0.84004 0.10879 0.0
H1020 H 0.51262 0.873 0.09415 0.0
H1021 H 0.53559 0.87277 0.12618 0.0
H1022 H 0.52718 0.91834 0.14304 0.0
H1023 H 0.54896 0.96346 0.12009 0.0
H1024 H 0.07605 0.30257 0.70216 0.0
H1025 H 0.05342 0.25774 0.67781 0.0
H1026 H 0.14372 0.23763 0.68201 0.0
H1027 H 0.16624 0.28205 0.70623 0.0
H1028 H 0.07126 0.24032 0.62562 0.0
H1029 H 0.0869 0.16334 0.70875 0.0
H1030 H 0.08874 0.20002 0.71594 0.0
H1031 H 0.12163 0.18999 0.70198 0.0
C1032 C 0.09094 0.28833 0.69843 0.0
C1033 C 0.12306 0.29613 0.70637 0.0
C1034 C 0.07801 0.2627 0.68425 0.0
C1035 C 0.09664 0.24382 0.67808 0.0
C1036 C 0.1285 0.25129 0.68671 0.0
H1037 H 0.06434 0.08023 0.58916 0.0
H1038 H 0.0869 0.12322 0.61652 0.0
C1039 C 0.14145 0.27694 0.70053 0.0
C1040 C 0.08343 0.21718 0.66145 0.0
H1041 H 0.07236 0.14483 0.66336 0.0
C1042 C 0.07131 0.21945 0.63403 0.0
C1043 C 0.0838 0.18972 0.67193 0.0
C1044 C 0.09571 0.18545 0.70134 0.0
C1045 C 0.06018 0.19549 0.61686 0.0
C1046 C 0.06 0.16789 0.62746 0.0
C1047 C 0.07228 0.16566 0.65491 0.0
C1048 C 0.04645 0.14126 0.61074 0.0
C1049 C 0.04972 0.20028 0.5871 0.0
C1050 C 0.01592 0.13627 0.59852 0.0
C1051 C 1.00322 0.11192 0.58265 0.0
C1052 C 0.02024 0.09121 0.57876 0.0
C1053 C 0.05055 0.09569 0.59147 0.0
C1054 C 0.06344 0.12035 0.60725 0.0
H1055 H 0.06118 0.22178 0.57953 0.0
H1056 H 0.05499 0.1845 0.57286 0.0
H1057 H 0.02411 0.19853 0.58593 0.0
H1058 H 1.0016 0.15119 0.6014 0.0
H1059 H 0.97972 0.10926 0.57352 0.0
H1060 H 0.79116 0.27961 0.39354 0.0
H1061 H 0.75483 0.30226 0.41602 0.0
H1062 H 0.77247 0.37018 0.35545 0.0
H1063 H 0.80912 0.34787 0.333 0.0
H1064 H 0.76166 0.35838 0.4383 0.0
H1065 H 0.67664 0.33541 0.34727 0.0
H1066 H 0.70888 0.31849 0.35248 0.0
H1067 H 0.71557 0.35417 0.33938 0.0
C1068 C 0.78788 0.29969 0.38537 0.0
C1069 C 0.80286 0.31185 0.36135 0.0
C1070 C 0.76697 0.31251 0.39814 0.0
C1071 C 0.7606 0.33759 0.38707 0.0
C1072 C 0.77666 0.35053 0.36398 0.0
H1073 H 0.65142 0.44295 0.46082 0.0
H1074 H 0.69255 0.42527 0.43983 0.0
C1075 C 0.79758 0.33777 0.35121 0.0
C1076 C 0.73606 0.34946 0.39886 0.0
H1077 H 0.66399 0.36222 0.38359 0.0
C1078 C 0.74033 0.35931 0.42637 0.0
C1079 C 0.7081 0.35024 0.3833 0.0
C1080 C 0.70175 0.33882 0.35404 0.0
C1081 C 0.71743 0.37023 0.43868 0.0
C1082 C 0.68974 0.3715 0.42291 0.0
C1083 C 0.68537 0.36141 0.3955 0.0
C1084 C 0.66461 0.38254 0.43476 0.0
C1085 C 0.72273 0.37976 0.46861 0.0
C1086 C 0.63501 0.36457 0.43806 0.0
C1087 C 0.61138 0.37465 0.44981 0.0
C1088 C 0.61686 0.40298 0.45828 0.0
C1089 C 0.64635 0.42109 0.45429 0.0
C1090 C 0.67 0.41096 0.44261 0.0
H1091 H 0.74171 0.37163 0.4796 0.0
H1092 H 0.72947 0.40322 0.46911 0.0
H1093 H 0.701 0.37262 0.48016 0.0
H1094 H 0.63034 0.34261 0.4319 0.0
H1095 H 0.58881 0.36027 0.4523 0.0
loop_
_geom_bond_atom_site_label_1
_geom_bond_atom_site_label_2
_geom_bond_distance
_geom_bond_site_symmetry_2
_ccdc_geom_bond_type
H0 C3 0.931 . S
H1 C6 0.928 . S
H2 C8 0.930 . S
C3 H0 0.931 . S
C3 C4 1.413 . S
C3 C5 1.360 . S
C4 C3 1.413 . S
C4 C8 1.429 . S
C5 C3 1.360 . S
C5 C6 1.372 . S
C6 H1 0.928 . S
C6 C5 1.372 . S
C6 C7 1.404 . S
C7 C6 1.404 . S
C7 C8 1.391 . S
C8 H2 0.930 . S
C8 C4 1.429 . S
C8 C7 1.391 . S
H9 C12 0.931 . S
H10 C15 0.928 . S
H11 C17 0.930 . S
C12 H9 0.931 . S
C12 C13 1.413 . S
C12 C14 1.360 . S
C13 C12 1.413 . S
C13 C17 1.429 . S
C14 C12 1.360 . S
C14 C15 1.372 . S
C15 H10 0.928 . S
C15 C14 1.372 . S
C15 C16 1.404 . S
C16 C15 1.404 . S
C16 C17 1.391 . S
C17 H11 0.930 . S
C17 C13 1.429 . S
C17 C16 1.391 . S
H18 C21 0.931 . S
H19 C24 0.928 . S
H20 C26 0.930 . S
C21 H18 0.931 . S
C21 C22 1.413 . S
C21 C23 1.360 . S
C22 C21 1.413 . S
C22 C26 1.429 . S
C23 C21 1.360 . S
C23 C24 1.372 . S
C24 H19 0.928 . S
C24 C23 1.372 . S
C24 C25 1.404 . S
C25 C24 1.404 . S
C25 C26 1.391 . S
C26 H20 0.930 . S
C26 C22 1.429 . S
C26 C25 1.391 . S
H27 C30 0.931 . S
H28 C33 0.928 . S
H29 C35 0.930 . S
C30 H27 0.931 . S
C30 C31 1.413 . S
C30 C32 1.360 . S
C31 C30 1.413 . S
C31 C35 1.429 . S
C32 C30 1.360 . S
C32 C33 1.372 . S
C33 H28 0.928 . S
C33 C32 1.372 . S
C33 C34 1.404 . S
C34 C33 1.404 . S
C34 C35 1.391 . S
C35 H29 0.930 . S
C35 C31 1.429 . S
C35 C34 1.391 . S
H36 C39 0.931 . S
H37 C42 0.928 . S
H38 C44 0.930 . S
C39 H36 0.931 . S
C39 C40 1.413 . S
C39 C41 1.360 . S
C40 C39 1.413 . S
C40 C44 1.429 . S
C41 C39 1.360 . S
C41 C42 1.372 . S
C42 H37 0.928 . S
C42 C41 1.372 . S
C42 C43 1.404 . S
C43 C42 1.404 . S
C43 C44 1.391 . S
C44 H38 0.930 . S
C44 C40 1.429 . S
C44 C43 1.391 . S
H45 C48 0.931 . S
H46 C51 0.928 . S
H47 C53 0.930 . S
C48 H45 0.931 . S
C48 C49 1.413 . S
C48 C50 1.360 . S
C49 C48 1.413 . S
C49 C53 1.429 . S
C50 C48 1.360 . S
C50 C51 1.372 . S
C51 H46 0.928 . S
C51 C50 1.372 . S
C51 C52 1.404 . S
C52 C51 1.404 . S
C52 C53 1.391 . S
C53 H47 0.930 . S
C53 C49 1.429 . S
C53 C52 1.391 . S
H54 C57 0.931 . S
H55 C60 0.928 . S
H56 C62 0.930 . S
C57 H54 0.931 . S
C57 C58 1.413 . S
C57 C59 1.360 . S
C58 C57 1.413 . S
C58 C62 1.429 . S
C59 C57 1.360 . S
C59 C60 1.372 . S
C60 H55 0.928 . S
C60 C59 1.372 . S
C60 C61 1.404 . S
C61 C60 1.404 . S
C61 C62 1.391 . S
C62 H56 0.930 . S
C62 C58 1.429 . S
C62 C61 1.391 . S
H63 C66 0.931 . S
H64 C69 0.928 . S
H65 C71 0.930 . S
C66 H63 0.931 . S
C66 C67 1.413 . S
C66 C68 1.360 . S
C67 C66 1.413 . S
C67 C71 1.429 . S
C68 C66 1.360 . S
C68 C69 1.372 . S
C69 H64 0.928 . S
C69 C68 1.372 . S
C69 C70 1.404 . S
C70 C69 1.404 . S
C70 C71 1.391 . S
C71 H65 0.930 . S
C71 C67 1.429 . S
C71 C70 1.391 . S
Tb72 C74 2.809 1_545 S
Tb72 O92 2.484 1_545 S
Tb72 O93 2.440 1_545 S
Tb72 O94 2.658 1_655 S
Tb72 O95 2.409 . S
Tb72 O96 2.378 1_645 S
Tb72 O100 2.325 1_545 S
Tb72 O103 2.341 . S
Tb73 C83 2.809 . S
Tb73 O94 2.325 . S
Tb73 O97 2.341 1_545 S
Tb73 O98 2.484 . S
Tb73 O99 2.440 . S
Tb73 O100 2.658 1_445 S
Tb73 O101 2.409 1_545 S
Tb73 O102 2.378 1_455 S
C74 Tb72 2.809 1_565 S
C74 C75 1.514 . S
C74 O92 1.248 . S
C74 O93 1.266 . S
C75 C74 1.514 . S
C75 C76 1.359 . S
C75 C80 1.348 . S
C76 C75 1.359 . S
C76 C77 1.380 . S
C76 H104 0.929 . S
C77 C76 1.380 . S
C77 C78 1.347 . S
C77 H105 0.931 . S
C78 C77 1.347 . S
C78 C79 1.369 . S
C79 C78 1.369 . S
C79 C80 1.408 . S
C79 H106 0.930 . S
C80 C75 1.348 . S
C80 C79 1.408 . S
C80 H107 0.930 . S
C81 O94 1.281 . S
C81 O95 1.254 1_455 S
C82 O96 1.236 . S
C82 O97 1.266 . S
C83 Tb73 2.809 . S
C83 C84 1.514 . S
C83 O98 1.248 . S
C83 O99 1.266 . S
C84 C83 1.514 . S
C84 C85 1.359 . S
C84 C89 1.348 . S
C85 C84 1.359 . S
C85 C86 1.380 . S
C85 H108 0.929 . S
C86 C85 1.380 . S
C86 C87 1.347 . S
C86 H109 0.931 . S
C87 C86 1.347 . S
C87 C88 1.369 . S
C88 C87 1.369 . S
C88 C89 1.408 . S
C88 H110 0.930 . S
C89 C84 1.348 . S
C89 C88 1.408 . S
C89 H111 0.930 . S
C90 O100 1.281 . S
C90 O101 1.254 1_655 S
C91 O102 1.236 . S
C91 O103 1.266 . S
O92 Tb72 2.484 1_565 S
O92 C74 1.248 . S
O93 Tb72 2.440 1_565 S
O93 C74 1.266 . S
O94 Tb72 2.658 1_455 S
O94 Tb73 2.325 . S
O94 C81 1.281 . S
O95 Tb72 2.409 . S
O95 C81 1.254 1_655 S
O96 Tb72 2.378 1_465 S
O96 C82 1.236 . S
O97 Tb73 2.341 1_565 S
O97 C82 1.266 . S
O98 Tb73 2.484 . S
O98 C83 1.248 . S
O99 Tb73 2.440 . S
O99 C83 1.266 . S
O100 Tb72 2.325 1_565 S
O100 Tb73 2.658 1_665 S
O100 C90 1.281 . S
O101 Tb73 2.409 1_565 S
O101 C90 1.254 1_455 S
O102 Tb73 2.378 1_655 S
O102 C91 1.236 . S
O103 Tb72 2.341 . S
O103 C91 1.266 . S
H104 C76 0.929 . S
H105 C77 0.931 . S
H106 C79 0.930 . S
H107 C80 0.930 . S
H108 C85 0.929 . S
H109 C86 0.931 . S
H110 C88 0.930 . S
H111 C89 0.930 . S
Tb112 C114 2.809 . S
Tb112 O132 2.484 . S
Tb112 O133 2.440 . S
Tb112 O134 2.658 1_545 S
Tb112 O135 2.409 1_545 S
Tb112 O136 2.378 . S
Tb112 O140 2.325 1_554 S
Tb112 O143 2.341 1_544 S
Tb113 C123 2.809 . S
Tb113 O134 2.325 1_556 S
Tb113 O137 2.341 1_566 S
Tb113 O138 2.484 . S
Tb113 O139 2.440 . S
Tb113 O140 2.658 1_565 S
Tb113 O141 2.409 1_565 S
Tb113 O142 2.378 . S
C114 Tb112 2.809 . S
C114 C115 1.514 . S
C114 O132 1.248 . S
C114 O133 1.266 . S
C115 C114 1.514 . S
C115 C116 1.359 . S
C115 C120 1.348 . S
C116 C115 1.359 . S
C116 C117 1.380 . S
C116 H144 0.929 . S
C117 C116 1.380 . S
C117 C118 1.347 . S
C117 H145 0.931 . S
C118 C117 1.347 . S
C118 C119 1.369 . S
C119 C118 1.369 . S
C119 C120 1.408 . S
C119 H146 0.930 . S
C120 C115 1.348 . S
C120 C119 1.408 . S
C120 H147 0.930 . S
C121 O134 1.281 . S
C121 O135 1.254 . S
C122 O136 1.236 . S
C122 O137 1.266 . S
C123 Tb113 2.809 . S
C123 C124 1.514 . S
C123 O138 1.248 . S
C123 O139 1.266 . S
C124 C123 1.514 . S
C124 C125 1.359 . S
C124 C129 1.348 . S
C125 C124 1.359 . S
C125 C126 1.380 . S
C125 H148 0.929 . S
C126 C125 1.380 . S
C126 C127 1.347 . S
C126 H149 0.931 . S
C127 C126 1.347 . S
C127 C128 1.369 . S
C128 C127 1.369 . S
C128 C129 1.408 . S
C128 H150 0.930 . S
C129 C124 1.348 . S
C129 C128 1.408 . S
C129 H151 0.930 . S
C130 O140 1.281 . S
C130 O141 1.254 . S
C131 O142 1.236 . S
C131 O143 1.266 . S
O132 Tb112 2.484 . S
O132 C114 1.248 . S
O133 Tb112 2.440 . S
O133 C114 1.266 . S
O134 Tb112 2.658 1_565 S
O134 Tb113 2.325 1_554 S
O134 C121 1.281 . S
O135 Tb112 2.409 1_565 S
O135 C121 1.254 . S
O136 Tb112 2.378 . S
O136 C122 1.236 . S
O137 Tb113 2.341 1_544 S
O137 C122 1.266 . S
O138 Tb113 2.484 . S
O138 C123 1.248 . S
O139 Tb113 2.440 . S
O139 C123 1.266 . S
O140 Tb112 2.325 1_556 S
O140 Tb113 2.658 1_545 S
O140 C130 1.281 . S
O141 Tb113 2.409 1_545 S
O141 C130 1.254 . S
O142 Tb113 2.378 . S
O142 C131 1.236 . S
O143 Tb112 2.341 1_566 S
O143 C131 1.266 . S
H144 C116 0.929 . S
H145 C117 0.931 . S
H146 C119 0.930 . S
H147 C120 0.930 . S
H148 C125 0.929 . S
H149 C126 0.931 . S
H150 C128 0.930 . S
H151 C129 0.930 . S
Tb152 C154 2.809 . S
Tb152 O172 2.484 . S
Tb152 O173 2.440 . S
Tb152 O174 2.658 . S
Tb152 O175 2.409 . S
Tb152 O176 2.378 . S
Tb152 O180 2.325 . S
Tb152 O183 2.341 . S
Tb153 C163 2.809 . S
Tb153 O174 2.325 . S
Tb153 O177 2.341 . S
Tb153 O178 2.484 . S
Tb153 O179 2.440 . S
Tb153 O180 2.658 . S
Tb153 O181 2.409 . S
Tb153 O182 2.378 . S
C154 Tb152 2.809 . S
C154 C155 1.514 . S
C154 O172 1.248 . S
C154 O173 1.266 . S
C155 C154 1.514 . S
C155 C156 1.359 . S
C155 C160 1.348 . S
C156 C155 1.359 . S
C156 C157 1.380 . S
C156 H184 0.929 . S
C157 C156 1.380 . S
C157 C158 1.347 . S
C157 H185 0.931 . S
C158 C157 1.347 . S
C158 C159 1.369 . S
C159 C158 1.369 . S
C159 C160 1.408 . S
C159 H186 0.930 . S
C160 C155 1.348 . S
C160 C159 1.408 . S
C160 H187 0.930 . S
C161 O174 1.281 . S
C161 O175 1.254 . S
C162 O176 1.236 . S
C162 O177 1.266 . S
C163 Tb153 2.809 . S
C163 C164 1.514 . S
C163 O178 1.248 . S
C163 O179 1.266 . S
C164 C163 1.514 . S
C164 C165 1.359 . S
C164 C169 1.348 . S
C165 C164 1.359 . S
C165 C166 1.380 . S
C165 H188 0.929 . S
C166 C165 1.380 . S
C166 C167 1.347 . S
C166 H189 0.931 . S
C167 C166 1.347 . S
C167 C168 1.369 . S
C168 C167 1.369 . S
C168 C169 1.408 . S
C168 H190 0.930 . S
C169 C164 1.348 . S
C169 C168 1.408 . S
C169 H191 0.930 . S
C170 O180 1.281 . S
C170 O181 1.254 . S
C171 O182 1.236 . S
C171 O183 1.266 . S
O172 Tb152 2.484 . S
O172 C154 1.248 . S
O173 Tb152 2.440 . S
O173 C154 1.266 . S
O174 Tb152 2.658 . S
O174 Tb153 2.325 . S
O174 C161 1.281 . S
O175 Tb152 2.409 . S
O175 C161 1.254 . S
O176 Tb152 2.378 . S
O176 C162 1.236 . S
O177 Tb153 2.341 . S
O177 C162 1.266 . S
O178 Tb153 2.484 . S
O178 C163 1.248 . S
O179 Tb153 2.440 . S
O179 C163 1.266 . S
O180 Tb152 2.325 . S
O180 Tb153 2.658 . S
O180 C170 1.281 . S
O181 Tb153 2.409 . S
O181 C170 1.254 . S
O182 Tb153 2.378 . S
O182 C171 1.236 . S
O183 Tb152 2.341 . S
O183 C171 1.266 . S
H184 C156 0.929 . S
H185 C157 0.931 . S
H186 C159 0.930 . S
H187 C160 0.930 . S
H188 C165 0.929 . S
H189 C166 0.931 . S
H190 C168 0.930 . S
H191 C169 0.930 . S
Tb192 C194 2.803 1_455 S
Tb192 O212 2.477 1_455 S
Tb192 O213 2.438 1_455 S
Tb192 O214 2.663 1_556 S
Tb192 O215 2.414 1_556 S
Tb192 O216 2.375 1_456 S
Tb192 O220 2.321 1_455 S
Tb192 O223 2.347 . S
Tb193 C203 2.809 . S
Tb193 O214 2.325 . S
Tb193 O217 2.341 1_455 S
Tb193 O218 2.484 . S
Tb193 O219 2.440 . S
Tb193 O220 2.658 1_454 S
Tb193 O221 2.409 1_455 S
Tb193 O222 2.378 1_554 S
C194 Tb192 2.803 1_655 S
C194 C195 1.514 . S
C194 O212 1.248 . S
C194 O213 1.266 . S
C195 C194 1.514 . S
C195 C196 1.359 . S
C195 C200 1.348 . S
C196 C195 1.359 . S
C196 C197 1.380 . S
C196 H224 0.929 . S
C197 C196 1.380 . S
C197 C198 1.347 . S
C197 H225 0.931 . S
C198 C197 1.347 . S
C198 C199 1.369 . S
C199 C198 1.369 . S
C199 C200 1.408 . S
C199 H226 0.930 . S
C200 C195 1.348 . S
C200 C199 1.408 . S
C200 H227 0.930 . S
C201 O214 1.281 . S
C201 O215 1.254 . S
C202 O216 1.236 . S
C202 O217 1.266 . S
C203 Tb193 2.809 . S
C203 C204 1.514 . S
C203 O218 1.248 . S
C203 O219 1.266 . S
C204 C203 1.514 . S
C204 C205 1.359 . S
C204 C209 1.348 . S
C205 C204 1.359 . S
C205 C206 1.380 . S
C205 H228 0.929 . S
C206 C205 1.380 . S
C206 C207 1.347 . S
C206 H229 0.931 . S
C207 C206 1.347 . S
C207 C208 1.369 . S
C208 C207 1.369 . S
C208 C209 1.408 . S
C208 H230 0.930 . S
C209 C204 1.348 . S
C209 C208 1.408 . S
C209 H231 0.930 . S
C210 O220 1.281 . S
C210 O221 1.254 1_556 S
C211 O222 1.236 . S
C211 O223 1.266 . S
O212 Tb192 2.477 1_655 S
O212 C194 1.248 . S
O213 Tb192 2.438 1_655 S
O213 C194 1.266 . S
O214 Tb192 2.663 1_554 S
O214 Tb193 2.325 . S
O214 C201 1.281 . S
O215 Tb192 2.414 1_554 S
O215 C201 1.254 . S
O216 Tb192 2.375 1_654 S
O216 C202 1.236 . S
O217 Tb193 2.341 1_655 S
O217 C202 1.266 . S
O218 Tb193 2.484 . S
O218 C203 1.248 . S
O219 Tb193 2.440 . S
O219 C203 1.266 . S
O220 Tb192 2.321 1_655 S
O220 Tb193 2.658 1_656 S
O220 C210 1.281 . S
O221 Tb193 2.409 1_655 S
O221 C210 1.254 1_554 S
O222 Tb193 2.378 1_556 S
O222 C211 1.236 . S
O223 Tb192 2.347 . S
O223 C211 1.266 . S
H224 C196 0.929 . S
H225 C197 0.931 . S
H226 C199 0.930 . S
H227 C200 0.930 . S
H228 C205 0.929 . S
H229 C206 0.931 . S
H230 C208 0.930 . S
H231 C209 0.930 . S
H232 C240 0.929 . S
H233 C242 0.930 . S
H234 C244 0.930 . S
H235 C247 0.929 . S
H236 C250 0.930 . S
H237 C252 0.960 . S
H238 C252 0.960 . S
H239 C252 0.960 . S
C240 H232 0.929 . S
C240 C241 1.377 . S
C240 C242 1.384 . S
C241 C240 1.377 . S
C241 C247 1.390 . S
C242 H233 0.930 . S
C242 C240 1.384 . S
C242 C243 1.372 . S
C243 C242 1.372 . S
C243 C244 1.400 . S
C243 C248 1.490 . S
C244 H234 0.930 . S
C244 C243 1.400 . S
C244 C247 1.386 . S
H245 C261 0.930 . S
H246 C262 0.931 . S
C247 H235 0.929 . S
C247 C241 1.390 . S
C247 C244 1.386 . S
C248 C243 1.490 . S
C248 C250 1.395 . S
C248 C251 1.403 . S
H249 C255 0.930 . S
C250 H236 0.930 . S
C250 C248 1.395 . S
C250 C253 1.403 . S
C251 C248 1.403 . S
C251 C252 1.524 . S
C251 C255 1.400 . S
C252 H237 0.960 . S
C252 H238 0.960 . S
C252 H239 0.960 . S
C252 C251 1.524 . S
C253 C250 1.403 . S
C253 C254 1.392 . S
C253 C257 1.495 . S
C254 C253 1.392 . S
C254 C255 1.385 . S
C254 C256 1.478 . S
C255 H249 0.930 . S
C255 C251 1.400 . S
C255 C254 1.385 . S
C256 C254 1.478 . S
C256 C258 1.381 . S
C256 C262 1.383 . S
C257 C253 1.495 . S
C257 H263 0.959 . S
C257 H264 0.961 . S
C257 H265 0.960 . S
C258 C256 1.381 . S
C258 C259 1.394 . S
C258 H266 0.930 . S
C259 C258 1.394 . S
C259 C260 1.383 . S
C259 H267 0.929 . S
C260 C259 1.383 . S
C260 C261 1.377 . S
C261 H245 0.930 . S
C261 C260 1.377 . S
C261 C262 1.379 . S
C262 H246 0.931 . S
C262 C256 1.383 . S
C262 C261 1.379 . S
H263 C257 0.959 . S
H264 C257 0.961 . S
H265 C257 0.960 . S
H266 C258 0.930 . S
H267 C259 0.929 . S
H268 C276 0.929 . S
H269 C278 0.930 . S
H270 C280 0.930 . S
H271 C283 0.929 . S
H272 C286 0.930 . S
H273 C288 0.960 . S
H274 C288 0.960 . S
H275 C288 0.960 . S
C276 H268 0.929 . S
C276 C277 1.377 . S
C276 C278 1.384 . S
C277 C276 1.377 . S
C277 C283 1.390 . S
C278 H269 0.930 . S
C278 C276 1.384 . S
C278 C279 1.372 . S
C279 C278 1.372 . S
C279 C280 1.400 . S
C279 C284 1.490 . S
C280 H270 0.930 . S
C280 C279 1.400 . S
C280 C283 1.386 . S
H281 C297 0.930 . S
H282 C298 0.931 . S
C283 H271 0.929 . S
C283 C277 1.390 . S
C283 C280 1.386 . S
C284 C279 1.490 . S
C284 C286 1.395 . S
C284 C287 1.403 . S
H285 C291 0.930 . S
C286 H272 0.930 . S
C286 C284 1.395 . S
C286 C289 1.403 . S
C287 C284 1.403 . S
C287 C288 1.524 . S
C287 C291 1.400 . S
C288 H273 0.960 . S
C288 H274 0.960 . S
C288 H275 0.960 . S
C288 C287 1.524 . S
C289 C286 1.403 . S
C289 C290 1.392 . S
C289 C293 1.495 . S
C290 C289 1.392 . S
C290 C291 1.385 . S
C290 C292 1.478 . S
C291 H285 0.930 . S
C291 C287 1.400 . S
C291 C290 1.385 . S
C292 C290 1.478 . S
C292 C294 1.381 . S
C292 C298 1.383 . S
C293 C289 1.495 . S
C293 H299 0.959 . S
C293 H300 0.961 . S
C293 H301 0.960 . S
C294 C292 1.381 . S
C294 C295 1.394 . S
C294 H302 0.930 . S
C295 C294 1.394 . S
C295 C296 1.383 . S
C295 H303 0.929 . S
C296 C295 1.383 . S
C296 C297 1.377 . S
C297 H281 0.930 . S
C297 C296 1.377 . S
C297 C298 1.379 . S
C298 H282 0.931 . S
C298 C292 1.383 . S
C298 C297 1.379 . S
H299 C293 0.959 . S
H300 C293 0.961 . S
H301 C293 0.960 . S
H302 C294 0.930 . S
H303 C295 0.929 . S
H304 C312 0.929 . S
H305 C314 0.930 . S
H306 C316 0.930 . S
H307 C319 0.929 . S
H308 C322 0.930 . S
H309 C324 0.960 . S
H310 C324 0.960 . S
H311 C324 0.960 . S
C312 H304 0.929 . S
C312 C313 1.377 . S
C312 C314 1.384 . S
C313 C312 1.377 . S
C313 C319 1.390 . S
C314 H305 0.930 . S
C314 C312 1.384 . S
C314 C315 1.372 . S
C315 C314 1.372 . S
C315 C316 1.400 . S
C315 C320 1.490 . S
C316 H306 0.930 . S
C316 C315 1.400 . S
C316 C319 1.386 . S
H317 C333 0.930 . S
H318 C334 0.931 . S
C319 H307 0.929 . S
C319 C313 1.390 . S
C319 C316 1.386 . S
C320 C315 1.490 . S
C320 C322 1.395 . S
C320 C323 1.403 . S
H321 C327 0.930 . S
C322 H308 0.930 . S
C322 C320 1.395 . S
C322 C325 1.403 . S
C323 C320 1.403 . S
C323 C324 1.524 . S
C323 C327 1.400 . S
C324 H309 0.960 . S
C324 H310 0.960 . S
C324 H311 0.960 . S
C324 C323 1.524 . S
C325 C322 1.403 . S
C325 C326 1.392 . S
C325 C329 1.495 . S
C326 C325 1.392 . S
C326 C327 1.385 . S
C326 C328 1.478 . S
C327 H321 0.930 . S
C327 C323 1.400 . S
C327 C326 1.385 . S
C328 C326 1.478 . S
C328 C330 1.381 . S
C328 C334 1.383 . S
C329 C325 1.495 . S
C329 H335 0.959 . S
C329 H336 0.961 . S
C329 H337 0.960 . S
C330 C328 1.381 . S
C330 C331 1.394 . S
C330 H338 0.930 . S
C331 C330 1.394 . S
C331 C332 1.383 . S
C331 H339 0.929 . S
C332 C331 1.383 . S
C332 C333 1.377 . S
C333 H317 0.930 . S
C333 C332 1.377 . S
C333 C334 1.379 . S
C334 H318 0.931 . S
C334 C328 1.383 . S
C334 C333 1.379 . S
H335 C329 0.959 . S
H336 C329 0.961 . S
H337 C329 0.960 . S
H338 C330 0.930 . S
H339 C331 0.929 . S
H340 C348 0.929 . S
H341 C350 0.930 . S
H342 C352 0.930 . S
H343 C355 0.929 . S
H344 C358 0.930 . S
H345 C360 0.960 . S
H346 C360 0.960 . S
H347 C360 0.960 . S
C348 H340 0.929 . S
C348 C349 1.377 . S
C348 C350 1.384 . S
C349 C348 1.377 . S
C349 C355 1.390 . S
C350 H341 0.930 . S
C350 C348 1.384 . S
C350 C351 1.372 . S
C351 C350 1.372 . S
C351 C352 1.400 . S
C351 C356 1.490 . S
C352 H342 0.930 . S
C352 C351 1.400 . S
C352 C355 1.386 . S
H353 C369 0.930 . S
H354 C370 0.931 . S
C355 H343 0.929 . S
C355 C349 1.390 . S
C355 C352 1.386 . S
C356 C351 1.490 . S
C356 C358 1.395 . S
C356 C359 1.403 . S
H357 C363 0.930 . S
C358 H344 0.930 . S
C358 C356 1.395 . S
C358 C361 1.403 . S
C359 C356 1.403 . S
C359 C360 1.524 . S
C359 C363 1.400 . S
C360 H345 0.960 . S
C360 H346 0.960 . S
C360 H347 0.960 . S
C360 C359 1.524 . S
C361 C358 1.403 . S
C361 C362 1.392 . S
C361 C365 1.495 . S
C362 C361 1.392 . S
C362 C363 1.385 . S
C362 C364 1.478 . S
C363 H357 0.930 . S
C363 C359 1.400 . S
C363 C362 1.385 . S
C364 C362 1.478 . S
C364 C366 1.381 . S
C364 C370 1.383 . S
C365 C361 1.495 . S
C365 H371 0.959 . S
C365 H372 0.961 . S
C365 H373 0.960 . S
C366 C364 1.381 . S
C366 C367 1.394 . S
C366 H374 0.930 . S
C367 C366 1.394 . S
C367 C368 1.383 . S
C367 H375 0.929 . S
C368 C367 1.383 . S
C368 C369 1.377 . S
C369 H353 0.930 . S
C369 C368 1.377 . S
C369 C370 1.379 . S
C370 H354 0.931 . S
C370 C364 1.383 . S
C370 C369 1.379 . S
H371 C365 0.959 . S
H372 C365 0.961 . S
H373 C365 0.960 . S
H374 C366 0.930 . S
H375 C367 0.929 . S
H376 C384 0.929 . S
H377 C386 0.930 . S
H378 C388 0.930 . S
H379 C391 0.929 . S
H380 C394 0.930 . S
H381 C396 0.960 . S
H382 C396 0.960 . S
H383 C396 0.960 . S
C384 H376 0.929 . S
C384 C385 1.377 . S
C384 C386 1.384 . S
C385 C384 1.377 . S
C385 C391 1.390 . S
C386 H377 0.930 . S
C386 C384 1.384 . S
C386 C387 1.372 . S
C387 C386 1.372 . S
C387 C388 1.400 . S
C387 C392 1.490 . S
C388 H378 0.930 . S
C388 C387 1.400 . S
C388 C391 1.386 . S
H389 C405 0.930 . S
H390 C406 0.931 . S
C391 H379 0.929 . S
C391 C385 1.390 . S
C391 C388 1.386 . S
C392 C387 1.490 . S
C392 C394 1.395 . S
C392 C395 1.403 . S
H393 C399 0.930 . S
C394 H380 0.930 . S
C394 C392 1.395 . S
C394 C397 1.403 . S
C395 C392 1.403 . S
C395 C396 1.524 . S
C395 C399 1.400 . S
C396 H381 0.960 . S
C396 H382 0.960 . S
C396 H383 0.960 . S
C396 C395 1.524 . S
C397 C394 1.403 . S
C397 C398 1.392 . S
C397 C401 1.495 . S
C398 C397 1.392 . S
C398 C399 1.385 . S
C398 C400 1.478 . S
C399 H393 0.930 . S
C399 C395 1.400 . S
C399 C398 1.385 . S
C400 C398 1.478 . S
C400 C402 1.381 . S
C400 C406 1.383 . S
C401 C397 1.495 . S
C401 H407 0.959 . S
C401 H408 0.961 . S
C401 H409 0.960 . S
C402 C400 1.381 . S
C402 C403 1.394 . S
C402 H410 0.930 . S
C403 C402 1.394 . S
C403 C404 1.383 . S
C403 H411 0.929 . S
C404 C403 1.383 . S
C404 C405 1.377 . S
C405 H389 0.930 . S
C405 C404 1.377 . S
C405 C406 1.379 . S
C406 H390 0.931 . S
C406 C400 1.383 . S
C406 C405 1.379 . S
H407 C401 0.959 . S
H408 C401 0.961 . S
H409 C401 0.960 . S
H410 C402 0.930 . S
H411 C403 0.929 . S
H412 C420 0.929 . S
H413 C422 0.930 . S
H414 C424 0.930 . S
H415 C427 0.929 . S
H416 C430 0.930 . S
H417 C432 0.960 . S
H418 C432 0.960 . S
H419 C432 0.960 . S
C420 H412 0.929 . S
C420 C421 1.377 . S
C420 C422 1.384 . S
C421 C420 1.377 . S
C421 C427 1.390 . S
C422 H413 0.930 . S
C422 C420 1.384 . S
C422 C423 1.372 . S
C423 C422 1.372 . S
C423 C424 1.400 . S
C423 C428 1.490 . S
C424 H414 0.930 . S
C424 C423 1.400 . S
C424 C427 1.386 . S
H425 C441 0.930 . S
H426 C442 0.931 . S
C427 H415 0.929 . S
C427 C421 1.390 . S
C427 C424 1.386 . S
C428 C423 1.490 . S
C428 C430 1.395 . S
C428 C431 1.403 . S
H429 C435 0.930 . S
C430 H416 0.930 . S
C430 C428 1.395 . S
C430 C433 1.403 . S
C431 C428 1.403 . S
C431 C432 1.524 . S
C431 C435 1.400 . S
C432 H417 0.960 . S
C432 H418 0.960 . S
C432 H419 0.960 . S
C432 C431 1.524 . S
C433 C430 1.403 . S
C433 C434 1.392 . S
C433 C437 1.495 . S
C434 C433 1.392 . S
C434 C435 1.385 . S
C434 C436 1.478 . S
C435 H429 0.930 . S
C435 C431 1.400 . S
C435 C434 1.385 . S
C436 C434 1.478 . S
C436 C438 1.381 . S
C436 C442 1.383 . S
C437 C433 1.495 . S
C437 H443 0.959 . S
C437 H444 0.961 . S
C437 H445 0.960 . S
C438 C436 1.381 . S
C438 C439 1.394 . S
C438 H446 0.930 . S
C439 C438 1.394 . S
C439 C440 1.383 . S
C439 H447 0.929 1_455 S
C440 C439 1.383 . S
C440 C441 1.377 . S
C441 H425 0.930 . S
C441 C440 1.377 . S
C441 C442 1.379 . S
C442 H426 0.931 . S
C442 C436 1.383 . S
C442 C441 1.379 . S
H443 C437 0.959 . S
H444 C437 0.961 . S
H445 C437 0.960 . S
H446 C438 0.930 . S
H447 C439 0.929 1_655 S
H448 C456 0.929 . S
H449 C458 0.930 . S
H450 C460 0.930 . S
H451 C463 0.929 . S
H452 C466 0.930 . S
H453 C468 0.960 . S
H454 C468 0.960 . S
H455 C468 0.960 . S
C456 H448 0.929 . S
C456 C457 1.377 . S
C456 C458 1.384 . S
C457 C456 1.377 . S
C457 C463 1.390 . S
C458 H449 0.930 . S
C458 C456 1.384 . S
C458 C459 1.372 . S
C459 C458 1.372 . S
C459 C460 1.400 . S
C459 C464 1.490 . S
C460 H450 0.930 . S
C460 C459 1.400 . S
C460 C463 1.386 . S
H461 C477 0.930 . S
H462 C478 0.931 . S
C463 H451 0.929 . S
C463 C457 1.390 . S
C463 C460 1.386 . S
C464 C459 1.490 . S
C464 C466 1.395 . S
C464 C467 1.403 . S
H465 C471 0.930 . S
C466 H452 0.930 . S
C466 C464 1.395 . S
C466 C469 1.403 . S
C467 C464 1.403 . S
C467 C468 1.524 . S
C467 C471 1.400 . S
C468 H453 0.960 . S
C468 H454 0.960 . S
C468 H455 0.960 . S
C468 C467 1.524 . S
C469 C466 1.403 . S
C469 C470 1.392 . S
C469 C473 1.495 . S
C470 C469 1.392 . S
C470 C471 1.385 . S
C470 C472 1.478 . S
C471 H465 0.930 . S
C471 C467 1.400 . S
C471 C470 1.385 . S
C472 C470 1.478 . S
C472 C474 1.381 . S
C472 C478 1.383 . S
C473 C469 1.495 . S
C473 H479 0.959 . S
C473 H480 0.961 . S
C473 H481 0.960 . S
C474 C472 1.381 . S
C474 C475 1.394 . S
C474 H482 0.930 . S
C475 C474 1.394 . S
C475 C476 1.383 . S
C475 H483 0.929 . S
C476 C475 1.383 . S
C476 C477 1.377 . S
C477 H461 0.930 . S
C477 C476 1.377 . S
C477 C478 1.379 . S
C478 H462 0.931 . S
C478 C472 1.383 . S
C478 C477 1.379 . S
H479 C473 0.959 . S
H480 C473 0.961 . S
H481 C473 0.960 . S
H482 C474 0.930 . S
H483 C475 0.929 . S
H484 C492 0.929 . S
H485 C494 0.930 . S
H486 C496 0.930 . S
H487 C499 0.929 . S
H488 C502 0.930 . S
H489 C504 0.960 . S
H490 C504 0.960 . S
H491 C504 0.960 . S
C492 H484 0.929 . S
C492 C493 1.377 . S
C492 C494 1.384 . S
C493 C492 1.377 . S
C493 C499 1.390 . S
C494 H485 0.930 . S
C494 C492 1.384 . S
C494 C495 1.372 . S
C495 C494 1.372 . S
C495 C496 1.400 . S
C495 C500 1.490 . S
C496 H486 0.930 . S
C496 C495 1.400 . S
C496 C499 1.386 . S
H497 C513 0.930 . S
H498 C514 0.931 . S
C499 H487 0.929 . S
C499 C493 1.390 . S
C499 C496 1.386 . S
C500 C495 1.490 . S
C500 C502 1.395 . S
C500 C503 1.403 . S
H501 C507 0.930 . S
C502 H488 0.930 . S
C502 C500 1.395 . S
C502 C505 1.403 . S
C503 C500 1.403 . S
C503 C504 1.524 . S
C503 C507 1.400 . S
C504 H489 0.960 . S
C504 H490 0.960 . S
C504 H491 0.960 . S
C504 C503 1.524 . S
C505 C502 1.403 . S
C505 C506 1.392 . S
C505 C509 1.495 . S
C506 C505 1.392 . S
C506 C507 1.385 . S
C506 C508 1.478 . S
C507 H501 0.930 . S
C507 C503 1.400 . S
C507 C506 1.385 . S
C508 C506 1.478 . S
C508 C510 1.381 . S
C508 C514 1.383 . S
C509 C505 1.495 . S
C509 H515 0.959 . S
C509 H516 0.961 . S
C509 H517 0.960 . S
C510 C508 1.381 . S
C510 C511 1.394 . S
C510 H518 0.930 . S
C511 C510 1.394 . S
C511 C512 1.383 . S
C511 H519 0.929 . S
C512 C511 1.383 . S
C512 C513 1.377 . S
C513 H497 0.930 . S
C513 C512 1.377 . S
C513 C514 1.379 . S
C514 H498 0.931 . S
C514 C508 1.383 . S
C514 C513 1.379 . S
H515 C509 0.959 . S
H516 C509 0.961 . S
H517 C509 0.960 . S
H518 C510 0.930 . S
H519 C511 0.929 . S
H520 C528 0.929 . S
H521 C530 0.930 . S
H522 C532 0.930 . S
H523 C535 0.929 . S
H524 C538 0.930 . S
H525 C540 0.960 . S
H526 C540 0.960 . S
H527 C540 0.960 . S
C528 H520 0.929 . S
C528 C529 1.377 . S
C528 C530 1.384 . S
C529 C528 1.377 . S
C529 C535 1.390 . S
C530 H521 0.930 . S
C530 C528 1.384 . S
C530 C531 1.372 . S
C531 C530 1.372 . S
C531 C532 1.400 . S
C531 C536 1.490 . S
C532 H522 0.930 . S
C532 C531 1.400 . S
C532 C535 1.386 . S
H533 C549 0.930 . S
H534 C550 0.931 . S
C535 H523 0.929 . S
C535 C529 1.390 . S
C535 C532 1.386 . S
C536 C531 1.490 . S
C536 C538 1.395 . S
C536 C539 1.403 . S
H537 C543 0.930 . S
C538 H524 0.930 . S
C538 C536 1.395 . S
C538 C541 1.403 . S
C539 C536 1.403 . S
C539 C540 1.524 . S
C539 C543 1.400 . S
C540 H525 0.960 . S
C540 H526 0.960 . S
C540 H527 0.960 . S
C540 C539 1.524 . S
C541 C538 1.403 . S
C541 C542 1.392 . S
C541 C545 1.495 . S
C542 C541 1.392 . S
C542 C543 1.385 . S
C542 C544 1.478 . S
C543 H537 0.930 . S
C543 C539 1.400 . S
C543 C542 1.385 . S
C544 C542 1.478 . S
C544 C546 1.381 . S
C544 C550 1.383 . S
C545 C541 1.495 . S
C545 H551 0.959 . S
C545 H552 0.961 . S
C545 H553 0.960 . S
C546 C544 1.381 . S
C546 C547 1.394 . S
C546 H554 0.930 . S
C547 C546 1.394 . S
C547 C548 1.383 . S
C547 H555 0.929 . S
C548 C547 1.383 . S
C548 C549 1.377 . S
C549 H533 0.930 . S
C549 C548 1.377 . S
C549 C550 1.379 . S
C550 H534 0.931 . S
C550 C544 1.383 . S
C550 C549 1.379 . S
H551 C545 0.959 . S
H552 C545 0.961 . S
H553 C545 0.960 . S
H554 C546 0.930 . S
H555 C547 0.929 . S
H556 C564 0.929 . S
H557 C566 0.930 . S
H558 C568 0.930 . S
H559 C571 0.929 . S
H560 C574 0.930 . S
H561 C576 0.960 . S
H562 C576 0.960 . S
H563 C576 0.960 . S
C564 H556 0.929 . S
C564 C565 1.377 . S
C564 C566 1.384 . S
C565 C564 1.377 . S
C565 C571 1.390 . S
C566 H557 0.930 . S
C566 C564 1.384 . S
C566 C567 1.372 . S
C567 C566 1.372 . S
C567 C568 1.400 . S
C567 C572 1.490 . S
C568 H558 0.930 . S
C568 C567 1.400 . S
C568 C571 1.386 . S
H569 C585 0.930 . S
H570 C586 0.931 . S
C571 H559 0.929 . S
C571 C565 1.390 . S
C571 C568 1.386 . S
C572 C567 1.490 . S
C572 C574 1.395 . S
C572 C575 1.403 . S
H573 C579 0.930 . S
C574 H560 0.930 . S
C574 C572 1.395 . S
C574 C577 1.403 . S
C575 C572 1.403 . S
C575 C576 1.524 . S
C575 C579 1.400 . S
C576 H561 0.960 . S
C576 H562 0.960 . S
C576 H563 0.960 . S
C576 C575 1.524 . S
C577 C574 1.403 . S
C577 C578 1.392 . S
C577 C581 1.495 . S
C578 C577 1.392 . S
C578 C579 1.385 . S
C578 C580 1.478 . S
C579 H573 0.930 . S
C579 C575 1.400 . S
C579 C578 1.385 . S
C580 C578 1.478 . S
C580 C582 1.381 . S
C580 C586 1.383 . S
C581 C577 1.495 . S
C581 H587 0.959 . S
C581 H588 0.961 . S
C581 H589 0.960 . S
C582 C580 1.381 . S
C582 C583 1.394 . S
C582 H590 0.930 . S
C583 C582 1.394 . S
C583 C584 1.383 . S
C583 H591 0.929 . S
C584 C583 1.383 . S
C584 C585 1.377 . S
C585 H569 0.930 . S
C585 C584 1.377 . S
C585 C586 1.379 . S
C586 H570 0.931 . S
C586 C580 1.383 . S
C586 C585 1.379 . S
H587 C581 0.959 . S
H588 C581 0.961 . S
H589 C581 0.960 . S
H590 C582 0.930 . S
H591 C583 0.929 . S
H592 C600 0.929 . S
H593 C602 0.930 . S
H594 C604 0.930 . S
H595 C607 0.929 . S
H596 C610 0.930 . S
H597 C612 0.960 . S
H598 C612 0.960 . S
H599 C612 0.960 . S
C600 H592 0.929 . S
C600 C601 1.377 . S
C600 C602 1.384 . S
C601 C600 1.377 . S
C601 C607 1.390 . S
C602 H593 0.930 . S
C602 C600 1.384 . S
C602 C603 1.372 . S
C603 C602 1.372 . S
C603 C604 1.400 . S
C603 C608 1.490 . S
C604 H594 0.930 . S
C604 C603 1.400 . S
C604 C607 1.386 . S
H605 C621 0.930 . S
H606 C622 0.931 . S
C607 H595 0.929 . S
C607 C601 1.390 . S
C607 C604 1.386 . S
C608 C603 1.490 . S
C608 C610 1.395 . S
C608 C611 1.403 . S
H609 C615 0.930 . S
C610 H596 0.930 . S
C610 C608 1.395 . S
C610 C613 1.403 . S
C611 C608 1.403 . S
C611 C612 1.524 . S
C611 C615 1.400 . S
C612 H597 0.960 . S
C612 H598 0.960 . S
C612 H599 0.960 . S
C612 C611 1.524 . S
C613 C610 1.403 . S
C613 C614 1.392 . S
C613 C617 1.495 . S
C614 C613 1.392 . S
C614 C615 1.385 . S
C614 C616 1.478 . S
C615 H609 0.930 . S
C615 C611 1.400 . S
C615 C614 1.385 . S
C616 C614 1.478 . S
C616 C618 1.381 . S
C616 C622 1.383 . S
C617 C613 1.495 . S
C617 H623 0.959 . S
C617 H624 0.961 . S
C617 H625 0.960 . S
C618 C616 1.381 . S
C618 C619 1.394 . S
C618 H626 0.930 . S
C619 C618 1.394 . S
C619 C620 1.383 . S
C619 H627 0.929 . S
C620 C619 1.383 . S
C620 C621 1.377 . S
C621 H605 0.930 . S
C621 C620 1.377 . S
C621 C622 1.379 . S
C622 H606 0.931 . S
C622 C616 1.383 . S
C622 C621 1.379 . S
H623 C617 0.959 . S
H624 C617 0.961 . S
H625 C617 0.960 . S
H626 C618 0.930 . S
H627 C619 0.929 . S
H628 C636 0.929 . S
H629 C638 0.930 . S
H630 C640 0.930 . S
H631 C643 0.929 . S
H632 C646 0.930 . S
H633 C648 0.960 . S
H634 C648 0.960 . S
H635 C648 0.960 . S
C636 H628 0.929 . S
C636 C637 1.377 . S
C636 C638 1.384 . S
C637 C636 1.377 . S
C637 C643 1.390 . S
C638 H629 0.930 . S
C638 C636 1.384 . S
C638 C639 1.372 . S
C639 C638 1.372 . S
C639 C640 1.400 . S
C639 C644 1.490 . S
C640 H630 0.930 . S
C640 C639 1.400 . S
C640 C643 1.386 . S
H641 C657 0.930 . S
H642 C658 0.931 . S
C643 H631 0.929 . S
C643 C637 1.390 . S
C643 C640 1.386 . S
C644 C639 1.490 . S
C644 C646 1.395 . S
C644 C647 1.403 . S
H645 C651 0.930 . S
C646 H632 0.930 . S
C646 C644 1.395 . S
C646 C649 1.403 . S
C647 C644 1.403 . S
C647 C648 1.524 . S
C647 C651 1.400 . S
C648 H633 0.960 . S
C648 H634 0.960 . S
C648 H635 0.960 . S
C648 C647 1.524 . S
C649 C646 1.403 . S
C649 C650 1.392 . S
C649 C653 1.495 . S
C650 C649 1.392 . S
C650 C651 1.385 . S
C650 C652 1.478 . S
C651 H645 0.930 . S
C651 C647 1.400 . S
C651 C650 1.385 . S
C652 C650 1.478 . S
C652 C654 1.381 . S
C652 C658 1.383 . S
C653 C649 1.495 . S
C653 H659 0.959 . S
C653 H660 0.961 . S
C653 H661 0.960 . S
C654 C652 1.381 . S
C654 C655 1.394 . S
C654 H662 0.930 . S
C655 C654 1.394 . S
C655 C656 1.383 . S
C655 H663 0.929 . S
C656 C655 1.383 . S
C656 C657 1.377 . S
C657 H641 0.930 . S
C657 C656 1.377 . S
C657 C658 1.379 . S
C658 H642 0.931 . S
C658 C652 1.383 . S
C658 C657 1.379 . S
H659 C653 0.959 . S
H660 C653 0.961 . S
H661 C653 0.960 . S
H662 C654 0.930 . S
H663 C655 0.929 . S
H664 C672 0.929 . S
H665 C674 0.930 . S
H666 C676 0.930 . S
H667 C679 0.929 . S
H668 C682 0.930 . S
H669 C684 0.960 . S
H670 C684 0.960 . S
H671 C684 0.960 . S
C672 H664 0.929 . S
C672 C673 1.377 . S
C672 C674 1.384 . S
C673 C672 1.377 . S
C673 C679 1.390 . S
C674 H665 0.930 . S
C674 C672 1.384 . S
C674 C675 1.372 . S
C675 C674 1.372 . S
C675 C676 1.400 . S
C675 C680 1.490 . S
C676 H666 0.930 . S
C676 C675 1.400 . S
C676 C679 1.386 . S
H677 C693 0.930 . S
H678 C694 0.931 . S
C679 H667 0.929 . S
C679 C673 1.390 . S
C679 C676 1.386 . S
C680 C675 1.490 . S
C680 C682 1.395 . S
C680 C683 1.403 . S
H681 C687 0.930 . S
C682 H668 0.930 . S
C682 C680 1.395 . S
C682 C685 1.403 . S
C683 C680 1.403 . S
C683 C684 1.524 . S
C683 C687 1.400 . S
C684 H669 0.960 . S
C684 H670 0.960 . S
C684 H671 0.960 . S
C684 C683 1.524 . S
C685 C682 1.403 . S
C685 C686 1.392 . S
C685 C689 1.495 . S
C686 C685 1.392 . S
C686 C687 1.385 . S
C686 C688 1.478 . S
C687 H681 0.930 . S
C687 C683 1.400 . S
C687 C686 1.385 . S
C688 C686 1.478 . S
C688 C690 1.381 . S
C688 C694 1.383 . S
C689 C685 1.495 . S
C689 H695 0.959 . S
C689 H696 0.961 . S
C689 H697 0.960 . S
C690 C688 1.381 . S
C690 C691 1.394 . S
C690 H698 0.930 . S
C691 C690 1.394 . S
C691 C692 1.383 . S
C691 H699 0.929 . S
C692 C691 1.383 . S
C692 C693 1.377 . S
C693 H677 0.930 . S
C693 C692 1.377 . S
C693 C694 1.379 . S
C694 H678 0.931 . S
C694 C688 1.383 . S
C694 C693 1.379 . S
H695 C689 0.959 . S
H696 C689 0.961 . S
H697 C689 0.960 . S
H698 C690 0.930 . S
H699 C691 0.929 . S
H700 C708 0.929 . S
H701 C710 0.930 . S
H702 C712 0.930 . S
H703 C715 0.929 . S
H704 C718 0.930 . S
H705 C720 0.960 . S
H706 C720 0.960 . S
H707 C720 0.960 . S
C708 H700 0.929 . S
C708 C709 1.377 . S
C708 C710 1.384 . S
C709 C708 1.377 . S
C709 C715 1.390 . S
C710 H701 0.930 . S
C710 C708 1.384 . S
C710 C711 1.372 . S
C711 C710 1.372 . S
C711 C712 1.400 . S
C711 C716 1.490 . S
C712 H702 0.930 . S
C712 C711 1.400 . S
C712 C715 1.386 . S
H713 C729 0.930 . S
H714 C730 0.931 . S
C715 H703 0.929 . S
C715 C709 1.390 . S
C715 C712 1.386 . S
C716 C711 1.490 . S
C716 C718 1.395 . S
C716 C719 1.403 . S
H717 C723 0.930 . S
C718 H704 0.930 . S
C718 C716 1.395 . S
C718 C721 1.403 . S
C719 C716 1.403 . S
C719 C720 1.524 . S
C719 C723 1.400 . S
C720 H705 0.960 . S
C720 H706 0.960 . S
C720 H707 0.960 . S
C720 C719 1.524 . S
C721 C718 1.403 . S
C721 C722 1.392 . S
C721 C725 1.495 . S
C722 C721 1.392 . S
C722 C723 1.385 . S
C722 C724 1.478 . S
C723 H717 0.930 . S
C723 C719 1.400 . S
C723 C722 1.385 . S
C724 C722 1.478 . S
C724 C726 1.381 . S
C724 C730 1.383 . S
C725 C721 1.495 . S
C725 H731 0.959 . S
C725 H732 0.961 . S
C725 H733 0.960 . S
C726 C724 1.381 . S
C726 C727 1.394 . S
C726 H734 0.930 . S
C727 C726 1.394 . S
C727 C728 1.383 . S
C727 H735 0.929 . S
C728 C727 1.383 . S
C728 C729 1.377 . S
C729 H713 0.930 . S
C729 C728 1.377 . S
C729 C730 1.379 . S
C730 H714 0.931 . S
C730 C724 1.383 . S
C730 C729 1.379 . S
H731 C725 0.959 . S
H732 C725 0.961 . S
H733 C725 0.960 . S
H734 C726 0.930 . S
H735 C727 0.929 . S
H736 C744 0.929 . S
H737 C746 0.930 . S
H738 C748 0.930 . S
H739 C751 0.929 . S
H740 C754 0.930 . S
H741 C756 0.960 . S
H742 C756 0.960 . S
H743 C756 0.960 . S
C744 H736 0.929 . S
C744 C745 1.377 . S
C744 C746 1.384 . S
C745 C744 1.377 . S
C745 C751 1.390 . S
C746 H737 0.930 . S
C746 C744 1.384 . S
C746 C747 1.372 . S
C747 C746 1.372 . S
C747 C748 1.400 . S
C747 C752 1.490 . S
C748 H738 0.930 . S
C748 C747 1.400 . S
C748 C751 1.386 . S
H749 C765 0.930 . S
H750 C766 0.931 . S
C751 H739 0.929 . S
C751 C745 1.390 . S
C751 C748 1.386 . S
C752 C747 1.490 . S
C752 C754 1.395 . S
C752 C755 1.403 . S
H753 C759 0.930 . S
C754 H740 0.930 . S
C754 C752 1.395 . S
C754 C757 1.403 . S
C755 C752 1.403 . S
C755 C756 1.524 . S
C755 C759 1.400 . S
C756 H741 0.960 . S
C756 H742 0.960 . S
C756 H743 0.960 . S
C756 C755 1.524 . S
C757 C754 1.403 . S
C757 C758 1.392 . S
C757 C761 1.495 . S
C758 C757 1.392 . S
C758 C759 1.385 . S
C758 C760 1.478 . S
C759 H753 0.930 . S
C759 C755 1.400 . S
C759 C758 1.385 . S
C760 C758 1.478 . S
C760 C762 1.381 . S
C760 C766 1.383 . S
C761 C757 1.495 . S
C761 H767 0.959 . S
C761 H768 0.961 . S
C761 H769 0.960 . S
C762 C760 1.381 . S
C762 C763 1.394 . S
C762 H770 0.930 . S
C763 C762 1.394 . S
C763 C764 1.383 . S
C763 H771 0.929 . S
C764 C763 1.383 . S
C764 C765 1.377 . S
C765 H749 0.930 . S
C765 C764 1.377 . S
C765 C766 1.379 . S
C766 H750 0.931 . S
C766 C760 1.383 . S
C766 C765 1.379 . S
H767 C761 0.959 . S
H768 C761 0.961 . S
H769 C761 0.960 . S
H770 C762 0.930 . S
H771 C763 0.929 . S
H772 C780 0.929 . S
H773 C782 0.930 . S
H774 C784 0.930 . S
H775 C787 0.929 . S
H776 C790 0.930 . S
H777 C792 0.960 . S
H778 C792 0.960 . S
H779 C792 0.960 . S
C780 H772 0.929 . S
C780 C781 1.377 . S
C780 C782 1.384 . S
C781 C780 1.377 . S
C781 C787 1.390 . S
C782 H773 0.930 . S
C782 C780 1.384 . S
C782 C783 1.372 . S
C783 C782 1.372 . S
C783 C784 1.400 . S
C783 C788 1.490 . S
C784 H774 0.930 . S
C784 C783 1.400 . S
C784 C787 1.386 . S
H785 C801 0.930 . S
H786 C802 0.931 . S
C787 H775 0.929 . S
C787 C781 1.390 . S
C787 C784 1.386 . S
C788 C783 1.490 . S
C788 C790 1.395 . S
C788 C791 1.403 . S
H789 C795 0.930 . S
C790 H776 0.930 . S
C790 C788 1.395 . S
C790 C793 1.403 . S
C791 C788 1.403 . S
C791 C792 1.524 . S
C791 C795 1.400 . S
C792 H777 0.960 . S
C792 H778 0.960 . S
C792 H779 0.960 . S
C792 C791 1.524 . S
C793 C790 1.403 . S
C793 C794 1.392 . S
C793 C797 1.495 . S
C794 C793 1.392 . S
C794 C795 1.385 . S
C794 C796 1.478 . S
C795 H789 0.930 . S
C795 C791 1.400 . S
C795 C794 1.385 . S
C796 C794 1.478 . S
C796 C798 1.381 . S
C796 C802 1.383 . S
C797 C793 1.495 . S
C797 H803 0.959 . S
C797 H804 0.961 . S
C797 H805 0.960 . S
C798 C796 1.381 . S
C798 C799 1.394 . S
C798 H806 0.930 . S
C799 C798 1.394 . S
C799 C800 1.383 . S
C799 H807 0.929 . S
C800 C799 1.383 . S
C800 C801 1.377 . S
C801 H785 0.930 . S
C801 C800 1.377 . S
C801 C802 1.379 . S
C802 H786 0.931 . S
C802 C796 1.383 . S
C802 C801 1.379 . S
H803 C797 0.959 . S
H804 C797 0.961 . S
H805 C797 0.960 . S
H806 C798 0.930 . S
H807 C799 0.929 . S
H808 C816 0.929 . S
H809 C818 0.930 . S
H810 C820 0.930 . S
H811 C823 0.929 . S
H812 C826 0.930 . S
H813 C828 0.960 . S
H814 C828 0.960 . S
H815 C828 0.960 . S
C816 H808 0.929 . S
C816 C817 1.377 . S
C816 C818 1.384 . S
C817 C816 1.377 . S
C817 C823 1.390 . S
C818 H809 0.930 . S
C818 C816 1.384 . S
C818 C819 1.372 . S
C819 C818 1.372 . S
C819 C820 1.400 . S
C819 C824 1.490 . S
C820 H810 0.930 . S
C820 C819 1.400 . S
C820 C823 1.386 . S
H821 C837 0.930 . S
H822 C838 0.931 . S
C823 H811 0.929 . S
C823 C817 1.390 . S
C823 C820 1.386 . S
C824 C819 1.490 . S
C824 C826 1.395 . S
C824 C827 1.403 . S
H825 C831 0.930 . S
C826 H812 0.930 . S
C826 C824 1.395 . S
C826 C829 1.403 . S
C827 C824 1.403 . S
C827 C828 1.524 . S
C827 C831 1.400 . S
C828 H813 0.960 . S
C828 H814 0.960 . S
C828 H815 0.960 . S
C828 C827 1.524 . S
C829 C826 1.403 . S
C829 C830 1.392 . S
C829 C833 1.495 . S
C830 C829 1.392 . S
C830 C831 1.385 . S
C830 C832 1.478 . S
C831 H825 0.930 . S
C831 C827 1.400 . S
C831 C830 1.385 . S
C832 C830 1.478 . S
C832 C834 1.381 . S
C832 C838 1.383 . S
C833 C829 1.495 . S
C833 H839 0.959 . S
C833 H840 0.961 . S
C833 H841 0.960 . S
C834 C832 1.381 . S
C834 C835 1.394 . S
C834 H842 0.930 . S
C835 C834 1.394 . S
C835 C836 1.383 . S
C835 H843 0.929 . S
C836 C835 1.383 . S
C836 C837 1.377 . S
C837 H821 0.930 . S
C837 C836 1.377 . S
C837 C838 1.379 . S
C838 H822 0.931 . S
C838 C832 1.383 . S
C838 C837 1.379 . S
H839 C833 0.959 . S
H840 C833 0.961 . S
H841 C833 0.960 . S
H842 C834 0.930 . S
H843 C835 0.929 . S
H844 C852 0.929 . S
H845 C854 0.930 . S
H846 C856 0.930 . S
H847 C859 0.929 . S
H848 C862 0.930 . S
H849 C864 0.960 . S
H850 C864 0.960 . S
H851 C864 0.960 . S
C852 H844 0.929 . S
C852 C853 1.377 . S
C852 C854 1.384 . S
C853 C852 1.377 . S
C853 C859 1.390 . S
C854 H845 0.930 . S
C854 C852 1.384 . S
C854 C855 1.372 . S
C855 C854 1.372 . S
C855 C856 1.400 . S
C855 C860 1.490 . S
C856 H846 0.930 . S
C856 C855 1.400 . S
C856 C859 1.386 . S
H857 C873 0.930 . S
H858 C874 0.931 . S
C859 H847 0.929 . S
C859 C853 1.390 . S
C859 C856 1.386 . S
C860 C855 1.490 . S
C860 C862 1.395 . S
C860 C863 1.403 . S
H861 C867 0.930 . S
C862 H848 0.930 . S
C862 C860 1.395 . S
C862 C865 1.403 . S
C863 C860 1.403 . S
C863 C864 1.524 . S
C863 C867 1.400 . S
C864 H849 0.960 . S
C864 H850 0.960 . S
C864 H851 0.960 . S
C864 C863 1.524 . S
C865 C862 1.403 . S
C865 C866 1.392 . S
C865 C869 1.495 . S
C866 C865 1.392 . S
C866 C867 1.385 . S
C866 C868 1.478 . S
C867 H861 0.930 . S
C867 C863 1.400 . S
C867 C866 1.385 . S
C868 C866 1.478 . S
C868 C870 1.381 . S
C868 C874 1.383 . S
C869 C865 1.495 . S
C869 H875 0.959 . S
C869 H876 0.961 . S
C869 H877 0.960 . S
C870 C868 1.381 . S
C870 C871 1.394 . S
C870 H878 0.930 . S
C871 C870 1.394 . S
C871 C872 1.383 . S
C871 H879 0.929 . S
C872 C871 1.383 . S
C872 C873 1.377 . S
C873 H857 0.930 . S
C873 C872 1.377 . S
C873 C874 1.379 . S
C874 H858 0.931 . S
C874 C868 1.383 . S
C874 C873 1.379 . S
H875 C869 0.959 . S
H876 C869 0.961 . S
H877 C869 0.960 . S
H878 C870 0.930 . S
H879 C871 0.929 . S
H880 C888 0.929 . S
H881 C890 0.930 . S
H882 C892 0.930 . S
H883 C895 0.929 . S
H884 C898 0.930 . S
H885 C900 0.960 . S
H886 C900 0.960 . S
H887 C900 0.960 . S
C888 H880 0.929 . S
C888 C889 1.377 . S
C888 C890 1.384 . S
C889 C888 1.377 . S
C889 C895 1.390 . S
C890 H881 0.930 . S
C890 C888 1.384 . S
C890 C891 1.372 . S
C891 C890 1.372 . S
C891 C892 1.400 . S
C891 C896 1.490 . S
C892 H882 0.930 . S
C892 C891 1.400 . S
C892 C895 1.386 . S
H893 C909 0.930 . S
H894 C910 0.931 . S
C895 H883 0.929 . S
C895 C889 1.390 . S
C895 C892 1.386 . S
C896 C891 1.490 . S
C896 C898 1.395 . S
C896 C899 1.403 . S
H897 C903 0.930 . S
C898 H884 0.930 . S
C898 C896 1.395 . S
C898 C901 1.403 . S
C899 C896 1.403 . S
C899 C900 1.524 . S
C899 C903 1.400 . S
C900 H885 0.960 . S
C900 H886 0.960 . S
C900 H887 0.960 . S
C900 C899 1.524 . S
C901 C898 1.403 . S
C901 C902 1.392 . S
C901 C905 1.495 . S
C902 C901 1.392 . S
C902 C903 1.385 . S
C902 C904 1.478 . S
C903 H897 0.930 . S
C903 C899 1.400 . S
C903 C902 1.385 . S
C904 C902 1.478 . S
C904 C906 1.381 . S
C904 C910 1.383 . S
C905 C901 1.495 . S
C905 H911 0.959 . S
C905 H912 0.961 . S
C905 H913 0.960 . S
C906 C904 1.381 . S
C906 C907 1.394 . S
C906 H914 0.930 . S
C907 C906 1.394 . S
C907 C908 1.383 . S
C907 H915 0.929 . S
C908 C907 1.383 . S
C908 C909 1.377 . S
C909 H893 0.930 . S
C909 C908 1.377 . S
C909 C910 1.379 . S
C910 H894 0.931 . S
C910 C904 1.383 . S
C910 C909 1.379 . S
H911 C905 0.959 . S
H912 C905 0.961 . S
H913 C905 0.960 . S
H914 C906 0.930 . S
H915 C907 0.929 . S
H916 C924 0.929 . S
H917 C926 0.930 . S
H918 C928 0.930 . S
H919 C931 0.929 . S
H920 C934 0.930 . S
H921 C936 0.960 . S
H922 C936 0.960 . S
H923 C936 0.960 . S
C924 H916 0.929 . S
C924 C925 1.377 . S
C924 C926 1.384 . S
C925 C924 1.377 . S
C925 C931 1.390 . S
C926 H917 0.930 . S
C926 C924 1.384 . S
C926 C927 1.372 . S
C927 C926 1.372 . S
C927 C928 1.400 . S
C927 C932 1.490 . S
C928 H918 0.930 . S
C928 C927 1.400 . S
C928 C931 1.386 . S
H929 C945 0.930 . S
H930 C946 0.931 . S
C931 H919 0.929 . S
C931 C925 1.390 . S
C931 C928 1.386 . S
C932 C927 1.490 . S
C932 C934 1.395 . S
C932 C935 1.403 . S
H933 C939 0.930 . S
C934 H920 0.930 . S
C934 C932 1.395 . S
C934 C937 1.403 . S
C935 C932 1.403 . S
C935 C936 1.524 . S
C935 C939 1.400 . S
C936 H921 0.960 . S
C936 H922 0.960 . S
C936 H923 0.960 . S
C936 C935 1.524 . S
C937 C934 1.403 . S
C937 C938 1.392 . S
C937 C941 1.495 . S
C938 C937 1.392 . S
C938 C939 1.385 . S
C938 C940 1.478 . S
C939 H933 0.930 . S
C939 C935 1.400 . S
C939 C938 1.385 . S
C940 C938 1.478 . S
C940 C942 1.381 . S
C940 C946 1.383 . S
C941 C937 1.495 . S
C941 H947 0.959 . S
C941 H948 0.961 . S
C941 H949 0.960 . S
C942 C940 1.381 . S
C942 C943 1.394 . S
C942 H950 0.930 . S
C943 C942 1.394 . S
C943 C944 1.383 . S
C943 H951 0.929 . S
C944 C943 1.383 . S
C944 C945 1.377 . S
C945 H929 0.930 . S
C945 C944 1.377 . S
C945 C946 1.379 . S
C946 H930 0.931 . S
C946 C940 1.383 . S
C946 C945 1.379 . S
H947 C941 0.959 . S
H948 C941 0.961 . S
H949 C941 0.960 . S
H950 C942 0.930 . S
H951 C943 0.929 . S
H952 C960 0.929 . S
H953 C962 0.930 . S
H954 C964 0.930 . S
H955 C967 0.929 . S
H956 C970 0.930 . S
H957 C972 0.960 . S
H958 C972 0.960 . S
H959 C972 0.960 . S
C960 H952 0.929 . S
C960 C961 1.377 . S
C960 C962 1.384 . S
C961 C960 1.377 . S
C961 C967 1.390 . S
C962 H953 0.930 . S
C962 C960 1.384 . S
C962 C963 1.372 . S
C963 C962 1.372 . S
C963 C964 1.400 . S
C963 C968 1.490 . S
C964 H954 0.930 . S
C964 C963 1.400 . S
C964 C967 1.386 . S
H965 C981 0.930 . S
H966 C982 0.931 . S
C967 H955 0.929 . S
C967 C961 1.390 . S
C967 C964 1.386 . S
C968 C963 1.490 . S
C968 C970 1.395 . S
C968 C971 1.403 . S
H969 C975 0.930 . S
C970 H956 0.930 . S
C970 C968 1.395 . S
C970 C973 1.403 . S
C971 C968 1.403 . S
C971 C972 1.524 . S
C971 C975 1.400 . S
C972 H957 0.960 . S
C972 H958 0.960 . S
C972 H959 0.960 . S
C972 C971 1.524 . S
C973 C970 1.403 . S
C973 C974 1.392 . S
C973 C977 1.495 . S
C974 C973 1.392 . S
C974 C975 1.385 . S
C974 C976 1.478 . S
C975 H969 0.930 . S
C975 C971 1.400 . S
C975 C974 1.385 . S
C976 C974 1.478 . S
C976 C978 1.381 . S
C976 C982 1.383 . S
C977 C973 1.495 . S
C977 H983 0.959 . S
C977 H984 0.961 . S
C977 H985 0.960 . S
C978 C976 1.381 . S
C978 C979 1.394 . S
C978 H986 0.930 . S
C979 C978 1.394 . S
C979 C980 1.383 . S
C979 H987 0.929 . S
C980 C979 1.383 . S
C980 C981 1.377 . S
C981 H965 0.930 . S
C981 C980 1.377 . S
C981 C982 1.379 . S
C982 H966 0.931 . S
C982 C976 1.383 . S
C982 C981 1.379 . S
H983 C977 0.959 . S
H984 C977 0.961 . S
H985 C977 0.960 . S
H986 C978 0.930 . S
H987 C979 0.929 . S
H988 C996 0.929 . S
H989 C998 0.930 . S
H990 C1000 0.930 . S
H991 C1003 0.929 . S
H992 C1006 0.930 . S
H993 C1008 0.960 . S
H994 C1008 0.960 . S
H995 C1008 0.960 . S
C996 H988 0.929 . S
C996 C997 1.377 . S
C996 C998 1.384 . S
C997 C996 1.377 . S
C997 C1003 1.390 . S
C998 H989 0.930 . S
C998 C996 1.384 . S
C998 C999 1.372 . S
C999 C998 1.372 . S
C999 C1000 1.400 . S
C999 C1004 1.490 . S
C1000 H990 0.930 . S
C1000 C999 1.400 . S
C1000 C1003 1.386 . S
H1001 C1017 0.930 . S
H1002 C1018 0.931 . S
C1003 H991 0.929 . S
C1003 C997 1.390 . S
C1003 C1000 1.386 . S
C1004 C999 1.490 . S
C1004 C1006 1.395 . S
C1004 C1007 1.403 . S
H1005 C1011 0.930 . S
C1006 H992 0.930 . S
C1006 C1004 1.395 . S
C1006 C1009 1.403 . S
C1007 C1004 1.403 . S
C1007 C1008 1.524 . S
C1007 C1011 1.400 . S
C1008 H993 0.960 . S
C1008 H994 0.960 . S
C1008 H995 0.960 . S
C1008 C1007 1.524 . S
C1009 C1006 1.403 . S
C1009 C1010 1.392 . S
C1009 C1013 1.495 . S
C1010 C1009 1.392 . S
C1010 C1011 1.385 . S
C1010 C1012 1.478 . S
C1011 H1005 0.930 . S
C1011 C1007 1.400 . S
C1011 C1010 1.385 . S
C1012 C1010 1.478 . S
C1012 C1014 1.381 . S
C1012 C1018 1.383 . S
C1013 C1009 1.495 . S
C1013 H1019 0.959 . S
C1013 H1020 0.961 . S
C1013 H1021 0.960 . S
C1014 C1012 1.381 . S
C1014 C1015 1.394 . S
C1014 H1022 0.930 . S
C1015 C1014 1.394 . S
C1015 C1016 1.383 . S
C1015 H1023 0.929 . S
C1016 C1015 1.383 . S
C1016 C1017 1.377 . S
C1017 H1001 0.930 . S
C1017 C1016 1.377 . S
C1017 C1018 1.379 . S
C1018 H1002 0.931 . S
C1018 C1012 1.383 . S
C1018 C1017 1.379 . S
H1019 C1013 0.959 . S
H1020 C1013 0.961 . S
H1021 C1013 0.960 . S
H1022 C1014 0.930 . S
H1023 C1015 0.929 . S
H1024 C1032 0.929 . S
H1025 C1034 0.930 . S
H1026 C1036 0.930 . S
H1027 C1039 0.929 . S
H1028 C1042 0.930 . S
H1029 C1044 0.960 . S
H1030 C1044 0.960 . S
H1031 C1044 0.960 . S
C1032 H1024 0.929 . S
C1032 C1033 1.377 . S
C1032 C1034 1.384 . S
C1033 C1032 1.377 . S
C1033 C1039 1.390 . S
C1034 H1025 0.930 . S
C1034 C1032 1.384 . S
C1034 C1035 1.372 . S
C1035 C1034 1.372 . S
C1035 C1036 1.400 . S
C1035 C1040 1.490 . S
C1036 H1026 0.930 . S
C1036 C1035 1.400 . S
C1036 C1039 1.386 . S
H1037 C1053 0.930 . S
H1038 C1054 0.931 . S
C1039 H1027 0.929 . S
C1039 C1033 1.390 . S
C1039 C1036 1.386 . S
C1040 C1035 1.490 . S
C1040 C1042 1.395 . S
C1040 C1043 1.403 . S
H1041 C1047 0.930 . S
C1042 H1028 0.930 . S
C1042 C1040 1.395 . S
C1042 C1045 1.403 . S
C1043 C1040 1.403 . S
C1043 C1044 1.524 . S
C1043 C1047 1.400 . S
C1044 H1029 0.960 . S
C1044 H1030 0.960 . S
C1044 H1031 0.960 . S
C1044 C1043 1.524 . S
C1045 C1042 1.403 . S
C1045 C1046 1.392 . S
C1045 C1049 1.495 . S
C1046 C1045 1.392 . S
C1046 C1047 1.385 . S
C1046 C1048 1.478 . S
C1047 H1041 0.930 . S
C1047 C1043 1.400 . S
C1047 C1046 1.385 . S
C1048 C1046 1.478 . S
C1048 C1050 1.381 . S
C1048 C1054 1.383 . S
C1049 C1045 1.495 . S
C1049 H1055 0.959 . S
C1049 H1056 0.961 . S
C1049 H1057 0.960 . S
C1050 C1048 1.381 . S
C1050 C1051 1.394 . S
C1050 H1058 0.930 . S
C1051 C1050 1.394 . S
C1051 C1052 1.383 . S
C1051 H1059 0.929 . S
C1052 C1051 1.383 . S
C1052 C1053 1.377 . S
C1053 H1037 0.930 . S
C1053 C1052 1.377 . S
C1053 C1054 1.379 . S
C1054 H1038 0.931 . S
C1054 C1048 1.383 . S
C1054 C1053 1.379 . S
H1055 C1049 0.959 . S
H1056 C1049 0.961 . S
H1057 C1049 0.960 . S
H1058 C1050 0.930 . S
H1059 C1051 0.929 . S
H1060 C1068 0.929 . S
H1061 C1070 0.930 . S
H1062 C1072 0.930 . S
H1063 C1075 0.929 . S
H1064 C1078 0.930 . S
H1065 C1080 0.960 . S
H1066 C1080 0.960 . S
H1067 C1080 0.960 . S
C1068 H1060 0.929 . S
C1068 C1069 1.377 . S
C1068 C1070 1.384 . S
C1069 C1068 1.377 . S
C1069 C1075 1.390 . S
C1070 H1061 0.930 . S
C1070 C1068 1.384 . S
C1070 C1071 1.372 . S
C1071 C1070 1.372 . S
C1071 C1072 1.400 . S
C1071 C1076 1.490 . S
C1072 H1062 0.930 . S
C1072 C1071 1.400 . S
C1072 C1075 1.386 . S
H1073 C1089 0.930 . S
H1074 C1090 0.931 . S
C1075 H1063 0.929 . S
C1075 C1069 1.390 . S
C1075 C1072 1.386 . S
C1076 C1071 1.490 . S
C1076 C1078 1.395 . S
C1076 C1079 1.403 . S
H1077 C1083 0.930 . S
C1078 H1064 0.930 . S
C1078 C1076 1.395 . S
C1078 C1081 1.403 . S
C1079 C1076 1.403 . S
C1079 C1080 1.524 . S
C1079 C1083 1.400 . S
C1080 H1065 0.960 . S
C1080 H1066 0.960 . S
C1080 H1067 0.960 . S
C1080 C1079 1.524 . S
C1081 C1078 1.403 . S
C1081 C1082 1.392 . S
C1081 C1085 1.495 . S
C1082 C1081 1.392 . S
C1082 C1083 1.385 . S
C1082 C1084 1.478 . S
C1083 H1077 0.930 . S
C1083 C1079 1.400 . S
C1083 C1082 1.385 . S
C1084 C1082 1.478 . S
C1084 C1086 1.381 . S
C1084 C1090 1.383 . S
C1085 C1081 1.495 . S
C1085 H1091 0.959 . S
C1085 H1092 0.961 . S
C1085 H1093 0.960 . S
C1086 C1084 1.381 . S
C1086 C1087 1.394 . S
C1086 H1094 0.930 . S
C1087 C1086 1.394 . S
C1087 C1088 1.383 . S
C1087 H1095 0.929 . S
C1088 C1087 1.383 . S
C1088 C1089 1.377 . S
C1089 H1073 0.930 . S
C1089 C1088 1.377 . S
C1089 C1090 1.379 . S
C1090 H1074 0.931 . S
C1090 C1084 1.383 . S
C1090 C1089 1.379 . S
H1091 C1085 0.959 . S
H1092 C1085 0.961 . S
H1093 C1085 0.960 . S
H1094 C1086 0.930 . S
H1095 C1087 0.929 . S
C241 C5 1.164 . S
C260 C87 1.149 . S
C277 C14 0.979 . S
C296 C127 0.977 . S
C332 C161 2.192 . S
C313 C25 2.240 . S
C349 C34 2.632 . S
C368 C202 2.566 . S
C404 C122 1.241 . S
C385 C7 1.246 . S
C440 C82 1.856 . S
C421 C13 1.809 . S
C476 C210 1.502 . S
C457 C23 1.522 . S
C512 C171 1.757 . S
C493 C31 1.793 . S
C529 C4 1.111 . S
C548 C207 1.111 . S
C584 C130 1.929 . S
C565 C22 1.993 . S
C601 C32 2.418 . S
C620 C90 2.323 . S
C637 C16 1.352 . S
C656 C158 1.386 . S
C692 C78 1.137 . S
C673 C41 1.152 . S
C709 C50 1.004 . S
C728 C118 1.022 . S
C745 C61 2.236 . S
C764 C170 2.186 . S
C781 C67 2.643 . S
C800 C211 2.573 . S
C817 C40 1.273 . S
C836 C131 1.290 . S
C872 C91 1.823 . S
C853 C52 1.781 . S
C908 C201 1.505 . S
C889 C59 1.534 . S
C944 C162 1.718 . S
C925 C70 1.786 . S
C961 C43 1.095 . S
C980 C198 1.114 . S
C1016 C121 1.942 . S
C997 C58 2.012 . S
C1052 C81 2.321 . S
C1033 C68 2.399 . S
C1069 C49 1.363 . S
C1088 C167 1.380 . S
