# Generated by pormake.
# Topology pto, (3,4)-cn, num edge types: 1
# Building blocks:
#     Node 0, Type 0, BuildingBlock: WUSLED_clean_sbu_0, # of connection points: 3
#     Node 1, Type 0, BuildingBlock: WUSLED_clean_sbu_0, # of connection points: 3
#     Node 2, Type 0, BuildingBlock: WUSLED_clean_sbu_0, # of connection points: 3
#     Node 3, Type 0, BuildingBlock: WUSLED_clean_sbu_0, # of connection points: 3
#     Node 4, Type 0, BuildingBlock: WUSLED_clean_sbu_0, # of connection points: 3
#     Node 5, Type 0, BuildingBlock: WUSLED_clean_sbu_0, # of connection points: 3
#     Node 6, Type 0, BuildingBlock: WUSLED_clean_sbu_0, # of connection points: 3
#     Node 7, Type 0, BuildingBlock: WUSLED_clean_sbu_0, # of connection points: 3
#     Node 8, Type 1, BuildingBlock: GIZVER_clean_linker_0, # of connection points: 4
#     Node 9, Type 1, BuildingBlock: GIZVER_clean_linker_0, # of connection points: 4
#     Node 10, Type 1, BuildingBlock: GIZVER_clean_linker_0, # of connection points: 4
#     Node 11, Type 1, BuildingBlock: GIZVER_clean_linker_0, # of connection points: 4
#     Node 12, Type 1, BuildingBlock: GIZVER_clean_linker_0, # of connection points: 4
#     Node 13, Type 1, BuildingBlock: GIZVER_clean_linker_0, # of connection points: 4
#     Edge 14, Type (0, 1), BuildingBlock: KIFKEQ_clean_linker_1, # of connection points: 2
#     Edge 15, Type (0, 1), BuildingBlock: KIFKEQ_clean_linker_1, # of connection points: 2
#     Edge 16, Type (0, 1), BuildingBlock: KIFKEQ_clean_linker_1, # of connection points: 2
#     Edge 17, Type (0, 1), BuildingBlock: KIFKEQ_clean_linker_1, # of connection points: 2
#     Edge 18, Type (0, 1), BuildingBlock: KIFKEQ_clean_linker_1, # of connection points: 2
#     Edge 19, Type (0, 1), BuildingBlock: KIFKEQ_clean_linker_1, # of connection points: 2
#     Edge 20, Type (0, 1), BuildingBlock: KIFKEQ_clean_linker_1, # of connection points: 2
#     Edge 21, Type (0, 1), BuildingBlock: KIFKEQ_clean_linker_1, # of connection points: 2
#     Edge 22, Type (0, 1), BuildingBlock: KIFKEQ_clean_linker_1, # of connection points: 2
#     Edge 23, Type (0, 1), BuildingBlock: KIFKEQ_clean_linker_1, # of connection points: 2
#     Edge 24, Type (0, 1), BuildingBlock: KIFKEQ_clean_linker_1, # of connection points: 2
#     Edge 25, Type (0, 1), BuildingBlock: KIFKEQ_clean_linker_1, # of connection points: 2
#     Edge 26, Type (0, 1), BuildingBlock: KIFKEQ_clean_linker_1, # of connection points: 2
#     Edge 27, Type (0, 1), BuildingBlock: KIFKEQ_clean_linker_1, # of connection points: 2
#     Edge 28, Type (0, 1), BuildingBlock: KIFKEQ_clean_linker_1, # of connection points: 2
#     Edge 29, Type (0, 1), BuildingBlock: KIFKEQ_clean_linker_1, # of connection points: 2
#     Edge 30, Type (0, 1), BuildingBlock: KIFKEQ_clean_linker_1, # of connection points: 2
#     Edge 31, Type (0, 1), BuildingBlock: KIFKEQ_clean_linker_1, # of connection points: 2
#     Edge 32, Type (0, 1), BuildingBlock: KIFKEQ_clean_linker_1, # of connection points: 2
#     Edge 33, Type (0, 1), BuildingBlock: KIFKEQ_clean_linker_1, # of connection points: 2
#     Edge 34, Type (0, 1), BuildingBlock: KIFKEQ_clean_linker_1, # of connection points: 2
#     Edge 35, Type (0, 1), BuildingBlock: KIFKEQ_clean_linker_1, # of connection points: 2
#     Edge 36, Type (0, 1), BuildingBlock: KIFKEQ_clean_linker_1, # of connection points: 2
#     Edge 37, Type (0, 1), BuildingBlock: KIFKEQ_clean_linker_1, # of connection points: 2
# Relax obj value: 0.003
# Max RMSD: 0.031
# Mean RMSD: 0.021
data_MOF--net-pto--node1-WUSLED_clean_sbu_0--node2-GIZVER_clean_linker_0--edge1-KIFKEQ_clean_linker_1
_symmetry_space_group_name_H-M    P1
_symmetry_Int_Tables_number       1
_symmetry_cell_setting            triclinic
loop_
_symmetry_equiv_pos_as_xyz
'x, y, z'
_cell_length_a     66.73999
_cell_length_b     54.368212
_cell_length_c     39.960933
_cell_angle_alpha  89.316891
_cell_angle_beta   90.320366
_cell_angle_gamma 90.315094
loop_
_atom_site_label
_atom_site_type_symbol
_atom_site_fract_x
_atom_site_fract_y
_atom_site_fract_z
_atom_type_partial_charge
C0 C 0.25228 0.25326 0.26646 0.0
C1 C 0.27085 0.24138 0.26482 0.0
C2 C 0.25779 0.20721 0.29837 0.0
C3 C 0.27358 0.21853 0.28062 0.0
C4 C 0.23916 0.21919 0.29959 0.0
C5 C 0.23645 0.242 0.28376 0.0
U6 U 0.27272 0.30959 0.22036 0.0
O7 O 0.25936 0.33128 0.17903 0.0
O8 O 0.26633 0.34886 0.22687 0.0
C9 C 0.25712 0.3508 0.19777 0.0
C10 C 0.24933 0.27752 0.25072 0.0
C11 C 0.23677 0.36174 0.19793 0.0
C12 C 0.20892 0.38044 0.22738 0.0
C13 C 0.22799 0.36986 0.22774 0.0
C14 C 0.20687 0.37491 0.16748 0.0
C15 C 0.19809 0.38315 0.19724 0.0
C16 C 0.22599 0.36444 0.16782 0.0
C17 C 0.3296 0.30941 0.20037 0.0
C18 C 0.34764 0.33761 0.16354 0.0
C19 C 0.36579 0.30672 0.19546 0.0
C20 C 0.34781 0.29843 0.20946 0.0
C21 C 0.36594 0.32621 0.17199 0.0
C22 C 0.3296 0.32926 0.1776 0.0
C23 C 0.31092 0.29909 0.21415 0.0
O24 O 0.25802 0.29597 0.26615 0.0
O25 O 0.25169 0.27838 0.2181 0.0
O26 O 0.29715 0.29261 0.19226 0.0
O27 O 0.30356 0.31021 0.24034 0.0
H28 H 0.28323 0.24986 0.25149 0.0
H29 H 0.28805 0.20972 0.27889 0.0
H30 H 0.22679 0.21124 0.31349 0.0
H31 H 0.22205 0.251 0.28536 0.0
H32 H 0.20286 0.38696 0.25071 0.0
H33 H 0.23586 0.36824 0.25143 0.0
H34 H 0.19893 0.37642 0.14384 0.0
H35 H 0.23238 0.35844 0.14444 0.0
H36 H 0.34718 0.3525 0.14532 0.0
H37 H 0.3796 0.29777 0.20293 0.0
H38 H 0.34809 0.28315 0.22711 0.0
H39 H 0.31566 0.33796 0.17028 0.0
C40 C 0.24843 0.7742 0.72064 0.0
C41 C 0.26676 0.78697 0.72033 0.0
C42 C 0.25207 0.81907 0.68503 0.0
C43 C 0.26856 0.80929 0.70273 0.0
C44 C 0.23368 0.80631 0.68594 0.0
C45 C 0.2319 0.78407 0.70359 0.0
U46 U 0.27102 0.71989 0.76861 0.0
O47 O 0.25911 0.69868 0.81135 0.0
O48 O 0.26479 0.68025 0.76379 0.0
C49 C 0.25678 0.67858 0.79371 0.0
C50 C 0.24645 0.75029 0.73783 0.0
C51 C 0.23672 0.66709 0.79492 0.0
C52 C 0.20034 0.67011 0.79372 0.0
C53 C 0.21927 0.68136 0.79279 0.0
C54 C 0.21611 0.63019 0.79829 0.0
C55 C 0.1985 0.64434 0.79655 0.0
C56 C 0.23499 0.64147 0.79756 0.0
C57 C 0.32802 0.72205 0.78707 0.0
C58 C 0.34764 0.68953 0.81338 0.0
C59 C 0.36289 0.72925 0.80182 0.0
C60 C 0.34482 0.73756 0.78812 0.0
C61 C 0.36456 0.70515 0.81475 0.0
C62 C 0.3295 0.69793 0.79966 0.0
C63 C 0.30917 0.73175 0.77308 0.0
O64 O 0.25514 0.73181 0.72291 0.0
O65 O 0.24959 0.75044 0.77032 0.0
O66 O 0.29573 0.73851 0.79499 0.0
O67 O 0.30144 0.71977 0.74766 0.0
H68 H 0.27971 0.77951 0.7333 0.0
H69 H 0.28297 0.81853 0.70222 0.0
H70 H 0.22065 0.81349 0.67293 0.0
H71 H 0.21763 0.77445 0.70366 0.0
H72 H 0.18717 0.68163 0.79262 0.0
H73 H 0.22027 0.7012 0.79048 0.0
H74 H 0.21535 0.61031 0.79976 0.0
H75 H 0.24829 0.63013 0.79887 0.0
H76 H 0.34842 0.67081 0.82283 0.0
H77 H 0.37542 0.74196 0.803 0.0
H78 H 0.34391 0.75628 0.77864 0.0
H79 H 0.31664 0.68569 0.79902 0.0
C80 C 0.7332 0.71708 0.20394 0.0
C81 C 0.73158 0.71248 0.16948 0.0
C82 C 0.6966 0.70004 0.17616 0.0
C83 C 0.71349 0.70407 0.15577 0.0
C84 C 0.6985 0.70388 0.21078 0.0
C85 C 0.71656 0.71239 0.22445 0.0
U86 U 0.78974 0.72166 0.22768 0.0
O87 O 0.80921 0.75449 0.22587 0.0
O88 O 0.80314 0.736 0.2739 0.0
C89 C 0.81105 0.75524 0.25859 0.0
C90 C 0.7512 0.72898 0.21853 0.0
C91 C 0.80682 0.77915 0.27372 0.0
C92 C 0.78361 0.80799 0.29831 0.0
C93 C 0.78725 0.78555 0.28274 0.0
C94 C 0.81894 0.81817 0.29497 0.0
C95 C 0.79945 0.82446 0.30486 0.0
C96 C 0.82258 0.79569 0.27959 0.0
C97 C 0.82808 0.67158 0.20932 0.0
C98 C 0.85616 0.65518 0.24163 0.0
C99 C 0.85791 0.6568 0.18117 0.0
C100 C 0.83874 0.66713 0.17981 0.0
C101 C 0.86674 0.65043 0.2121 0.0
C102 C 0.83709 0.6657 0.2403 0.0
C103 C 0.80746 0.68159 0.20733 0.0
O104 O 0.75867 0.71876 0.24582 0.0
O105 O 0.76501 0.73698 0.19764 0.0
O106 O 0.80497 0.70111 0.18799 0.0
O107 O 0.7976 0.68286 0.23567 0.0
H108 H 0.74406 0.71605 0.1529 0.0
H109 H 0.71255 0.70164 0.12895 0.0
H110 H 0.68595 0.70064 0.22733 0.0
H111 H 0.71737 0.71591 0.25106 0.0
H112 H 0.76841 0.81241 0.30532 0.0
H113 H 0.77485 0.77308 0.27809 0.0
H114 H 0.83149 0.83031 0.30002 0.0
H115 H 0.83777 0.79104 0.27271 0.0
H116 H 0.86264 0.65071 0.26585 0.0
H117 H 0.86558 0.65312 0.15796 0.0
H118 H 0.83213 0.67137 0.15561 0.0
H119 H 0.82938 0.66895 0.26358 0.0
C120 C 0.76748 0.24874 0.73461 0.0
C121 C 0.78646 0.23774 0.73538 0.0
C122 C 0.77405 0.20432 0.70053 0.0
C123 C 0.7897 0.21567 0.71857 0.0
C124 C 0.7551 0.21557 0.69988 0.0
C125 C 0.75187 0.2375 0.71681 0.0
U126 U 0.78344 0.31159 0.76949 0.0
O127 O 0.76668 0.3464 0.76734 0.0
O128 O 0.7742 0.32953 0.81591 0.0
C129 C 0.76373 0.3464 0.79982 0.0
C130 C 0.76354 0.27197 0.75184 0.0
C131 C 0.74264 0.34863 0.81014 0.0
C132 C 0.7109 0.32979 0.82611 0.0
C133 C 0.73088 0.32758 0.81624 0.0
C134 C 0.71397 0.37416 0.82306 0.0
C135 C 0.70216 0.35312 0.82979 0.0
C136 C 0.73401 0.37191 0.8134 0.0
C137 C 0.83867 0.33307 0.7603 0.0
C138 C 0.8587 0.36091 0.79428 0.0
C139 C 0.86923 0.35141 0.73804 0.0
C140 C 0.85243 0.33619 0.73419 0.0
C141 C 0.87271 0.36383 0.76824 0.0
C142 C 0.84183 0.34572 0.79034 0.0
C143 C 0.82182 0.31562 0.75595 0.0
O144 O 0.77192 0.27457 0.78145 0.0
O145 O 0.76458 0.29193 0.73308 0.0
O146 O 0.80765 0.32236 0.73484 0.0
O147 O 0.81488 0.30485 0.7832 0.0
H148 H 0.79875 0.2462 0.74893 0.0
H149 H 0.80442 0.20744 0.71987 0.0
H150 H 0.74281 0.20771 0.68572 0.0
H151 H 0.73716 0.24582 0.71578 0.0
H152 H 0.70246 0.31317 0.83152 0.0
H153 H 0.7372 0.30939 0.8136 0.0
H154 H 0.70771 0.39241 0.82509 0.0
H155 H 0.74278 0.38837 0.80844 0.0
H156 H 0.86095 0.36998 0.818 0.0
H157 H 0.87942 0.35355 0.71721 0.0
H158 H 0.85028 0.32662 0.71079 0.0
H159 H 0.83145 0.34362 0.81092 0.0
C160 C 0.82475 0.66356 0.8007 0.0
C161 C 0.83787 0.66674 0.77359 0.0
C162 C 0.86317 0.64176 0.80207 0.0
C163 C 0.85685 0.65587 0.77421 0.0
C164 C 0.85011 0.63921 0.82949 0.0
C165 C 0.8311 0.64994 0.82874 0.0
U166 U 0.78841 0.71415 0.77432 0.0
O167 O 0.75746 0.71219 0.75532 0.0
O168 O 0.76404 0.73204 0.80167 0.0
C169 C 0.75019 0.72451 0.78057 0.0
C170 C 0.80444 0.67422 0.80017 0.0
C171 C 0.73156 0.71492 0.79535 0.0
C172 C 0.71206 0.68283 0.82309 0.0
C173 C 0.7302 0.69118 0.80934 0.0
C174 C 0.69662 0.72181 0.80879 0.0
C175 C 0.69503 0.69808 0.82297 0.0
C176 C 0.71468 0.73009 0.79514 0.0
C177 C 0.80717 0.76912 0.7231 0.0
C178 C 0.79491 0.81125 0.72193 0.0
C179 C 0.80898 0.79365 0.67193 0.0
C180 C 0.81254 0.77165 0.68934 0.0
C181 C 0.80012 0.81368 0.68803 0.0
C182 C 0.79829 0.78914 0.73928 0.0
C183 C 0.81077 0.74548 0.7407 0.0
O184 O 0.80231 0.69462 0.81711 0.0
O185 O 0.79533 0.67479 0.7709 0.0
O186 O 0.80242 0.72606 0.727 0.0
O187 O 0.80926 0.74557 0.77349 0.0
H188 H 0.83335 0.67736 0.75174 0.0
H189 H 0.86636 0.65806 0.7525 0.0
H190 H 0.85456 0.62891 0.85165 0.0
H191 H 0.8213 0.64748 0.85005 0.0
H192 H 0.71133 0.6644 0.83361 0.0
H193 H 0.74311 0.67919 0.80964 0.0
H194 H 0.68401 0.73426 0.80885 0.0
H195 H 0.71549 0.74851 0.78451 0.0
H196 H 0.78793 0.82631 0.73489 0.0
H197 H 0.81337 0.79508 0.64593 0.0
H198 H 0.81945 0.75652 0.67638 0.0
H199 H 0.79386 0.78773 0.76526 0.0
C200 C 0.73268 0.30587 0.19255 0.0
C201 C 0.72585 0.33028 0.1916 0.0
C202 C 0.69571 0.31744 0.16139 0.0
C203 C 0.70747 0.33601 0.17619 0.0
C204 C 0.70271 0.2931 0.16248 0.0
C205 C 0.72095 0.28742 0.17787 0.0
U206 U 0.78885 0.31153 0.21977 0.0
O207 O 0.80215 0.30106 0.2683 0.0
O208 O 0.81066 0.28136 0.22296 0.0
C209 C 0.81178 0.28229 0.25573 0.0
C210 C 0.75131 0.2985 0.20993 0.0
C211 C 0.80922 0.25856 0.27332 0.0
C212 C 0.78872 0.22889 0.30387 0.0
C213 C 0.79067 0.2514 0.28681 0.0
C214 C 0.82366 0.22017 0.29324 0.0
C215 C 0.80525 0.21307 0.30752 0.0
C216 C 0.82561 0.24272 0.2764 0.0
C217 C 0.82491 0.36317 0.19518 0.0
C218 C 0.85258 0.38208 0.22577 0.0
C219 C 0.85515 0.3764 0.166 0.0
C220 C 0.83596 0.36585 0.16555 0.0
C221 C 0.86371 0.38476 0.19611 0.0
C222 C 0.83346 0.37139 0.22534 0.0
C223 C 0.80464 0.35178 0.19414 0.0
O224 O 0.76608 0.29127 0.19085 0.0
O225 O 0.75728 0.31186 0.23539 0.0
O226 O 0.79452 0.35136 0.22232 0.0
O227 O 0.80316 0.3311 0.17752 0.0
H228 H 0.73464 0.34485 0.20283 0.0
H229 H 0.70258 0.35497 0.17552 0.0
H230 H 0.69393 0.27828 0.15187 0.0
H231 H 0.72583 0.26844 0.17864 0.0
H232 H 0.77439 0.22417 0.31482 0.0
H233 H 0.77776 0.26331 0.28444 0.0
H234 H 0.8366 0.20828 0.295 0.0
H235 H 0.83998 0.24782 0.26582 0.0
H236 H 0.85848 0.38866 0.24934 0.0
H237 H 0.86331 0.37782 0.14272 0.0
H238 H 0.82977 0.35968 0.14195 0.0
H239 H 0.82538 0.36968 0.24869 0.0
C240 C 0.25193 0.25487 0.71948 0.0
C241 C 0.27044 0.24285 0.72187 0.0
C242 C 0.25738 0.20906 0.68845 0.0
C243 C 0.27314 0.22012 0.70651 0.0
C244 C 0.23882 0.2212 0.68644 0.0
C245 C 0.23614 0.24389 0.70183 0.0
U246 U 0.27227 0.31067 0.76562 0.0
O247 O 0.26556 0.35002 0.75815 0.0
O248 O 0.25904 0.33195 0.80632 0.0
C249 C 0.25664 0.35165 0.78729 0.0
C250 C 0.24901 0.27901 0.73478 0.0
C251 C 0.23632 0.36237 0.78642 0.0
C252 C 0.20008 0.35857 0.79213 0.0
C253 C 0.21918 0.34803 0.79328 0.0
C254 C 0.21487 0.39781 0.77661 0.0
C255 C 0.1977 0.38358 0.78368 0.0
C256 C 0.23397 0.38732 0.77807 0.0
C257 C 0.32923 0.30911 0.78832 0.0
C258 C 0.35304 0.3419 0.80074 0.0
C259 C 0.36131 0.29962 0.81431 0.0
C260 C 0.34278 0.29198 0.80168 0.0
C261 C 0.36681 0.32464 0.81377 0.0
C262 C 0.3344 0.33419 0.78807 0.0
C263 C 0.31035 0.29982 0.77369 0.0
O264 O 0.2511 0.27955 0.76747 0.0
O265 O 0.25791 0.29754 0.71943 0.0
O266 O 0.30327 0.31151 0.74719 0.0
O267 O 0.29637 0.29297 0.79495 0.0
H268 H 0.2828 0.25111 0.73547 0.0
H269 H 0.28755 0.21118 0.70884 0.0
H270 H 0.22647 0.21346 0.67228 0.0
H271 H 0.22179 0.253 0.69964 0.0
H272 H 0.18715 0.34707 0.79739 0.0
H273 H 0.22052 0.32865 0.79944 0.0
H274 H 0.21357 0.41718 0.77038 0.0
H275 H 0.24694 0.39873 0.77264 0.0
H276 H 0.35679 0.36129 0.79982 0.0
H277 H 0.37127 0.28585 0.8248 0.0
H278 H 0.33907 0.27255 0.80215 0.0
H279 H 0.32416 0.34775 0.77783 0.0
C280 C 0.22183 0.69673 0.23274 0.0
C281 C 0.21028 0.69544 0.20322 0.0
C282 C 0.18829 0.66462 0.22872 0.0
C283 C 0.19375 0.67955 0.20122 0.0
C284 C 0.19991 0.66581 0.25814 0.0
C285 C 0.2164 0.68173 0.26017 0.0
U286 U 0.27661 0.72003 0.2226 0.0
O287 O 0.28728 0.75716 0.20861 0.0
O288 O 0.29524 0.74118 0.25756 0.0
C289 C 0.29595 0.76064 0.23779 0.0
C290 C 0.23828 0.71509 0.23614 0.0
C291 C 0.29193 0.78424 0.25387 0.0
C292 C 0.27138 0.81031 0.2886 0.0
C293 C 0.2741 0.7883 0.27137 0.0
C294 C 0.30401 0.82456 0.27012 0.0
C295 C 0.28648 0.82852 0.28863 0.0
C296 C 0.30669 0.80262 0.25294 0.0
C297 C 0.31799 0.68296 0.18409 0.0
C298 C 0.35122 0.70116 0.17923 0.0
C299 C 0.34495 0.66014 0.15844 0.0
C300 C 0.32497 0.66165 0.16872 0.0
C301 C 0.35829 0.67996 0.16331 0.0
C302 C 0.33127 0.70263 0.18952 0.0
C303 C 0.29686 0.68483 0.19406 0.0
O304 O 0.25261 0.70986 0.25779 0.0
O305 O 0.24502 0.72539 0.20842 0.0
O306 O 0.28633 0.70116 0.17711 0.0
O307 O 0.29382 0.68568 0.22649 0.0
H308 H 0.21383 0.70695 0.18173 0.0
H309 H 0.18526 0.67891 0.17807 0.0
H310 H 0.19597 0.65486 0.27997 0.0
H311 H 0.22468 0.68261 0.28352 0.0
H312 H 0.25778 0.81271 0.30284 0.0
H313 H 0.26254 0.77424 0.27233 0.0
H314 H 0.31578 0.83834 0.26922 0.0
H315 H 0.32051 0.7998 0.23943 0.0
H316 H 0.36112 0.71663 0.18376 0.0
H317 H 0.3498 0.64368 0.14588 0.0
H318 H 0.31492 0.64631 0.16431 0.0
H319 H 0.32615 0.71921 0.2015 0.0
H320 H 1.00938 0.47787 0.177 0.0
H321 H 1.01055 0.55706 0.18146 0.0
H322 H 0.96058 0.51667 0.22159 0.0
H323 H 0.03151 0.50223 0.14045 0.0
H324 H 0.0319 0.53491 0.14209 0.0
H325 H 0.05407 0.47771 0.17506 0.0
H326 H 0.1029 0.5158 0.22247 0.0
H327 H 0.0526 0.55661 0.18442 0.0
C328 C 1.00288 0.49492 0.18545 0.0
C329 C 0.98406 0.4945 0.20114 0.0
C330 C 1.01285 0.51742 0.179 0.0
C331 C 1.00358 0.53961 0.188 0.0
C332 C 0.98484 0.53933 0.20384 0.0
C333 C 0.97551 0.51675 0.211 0.0
C334 C 0.03166 0.51797 0.158 0.0
C335 C 0.05067 0.51713 0.17885 0.0
C336 C 0.0606 0.49461 0.18441 0.0
C337 C 0.0794 0.494 0.20046 0.0
C338 C 0.08796 0.51606 0.21162 0.0
C339 C 0.07854 0.53871 0.20585 0.0
C340 C 0.05976 0.53914 0.1897 0.0
H341 H 0.05226 0.55421 0.76172 0.0
H342 H 0.05213 0.47501 0.75675 0.0
H343 H 0.10146 0.51307 0.80283 0.0
H344 H 0.03013 0.53275 0.7226 0.0
H345 H 0.0306 0.50015 0.71943 0.0
H346 H 1.00818 0.55301 0.76302 0.0
H347 H 0.9594 0.50942 0.80121 0.0
H348 H 1.00941 0.47395 0.75527 0.0
C349 C 0.05893 0.53666 0.76827 0.0
C350 C 0.07765 0.53611 0.78454 0.0
C351 C 0.04929 0.5146 0.75897 0.0
C352 C 0.05888 0.49196 0.76546 0.0
C353 C 0.07765 0.49129 0.78166 0.0
C354 C 0.08656 0.5134 0.79182 0.0
C355 C 0.03043 0.51543 0.73772 0.0
C356 C 1.01145 0.5136 0.75823 0.0
C357 C 1.00163 0.53513 0.76852 0.0
C358 C 0.98294 0.53364 0.78451 0.0
C359 C 0.97429 0.51048 0.79053 0.0
C360 C 0.98355 0.48885 0.77996 0.0
C361 C 1.0023 0.49051 0.76413 0.0
H362 H 0.29038 0.04121 0.44379 0.0
H363 H 0.28997 0.04209 0.55157 0.0
H364 H 0.26203 0.10046 0.49528 0.0
H365 H 0.31497 0.01699 0.47785 0.0
H366 H 0.31297 0.01544 0.52231 0.0
H367 H 0.29374 0.99144 0.44211 0.0
H368 H 0.26473 0.9295 0.4896 0.0
H369 H 0.28792 0.9883 0.54936 0.0
C370 C 0.28568 0.0496 0.46691 0.0
C371 C 0.27497 0.07177 0.46586 0.0
C372 C 0.29093 0.03861 0.49778 0.0
C373 C 0.28547 0.0501 0.52774 0.0
C374 C 0.27481 0.07231 0.52699 0.0
C375 C 0.2694 0.08273 0.49599 0.0
C376 C 0.30402 0.01606 0.49873 0.0
C377 C 0.29176 0.99274 0.49595 0.0
C378 C 0.28822 0.98221 0.46443 0.0
C379 C 0.27838 0.95936 0.46179 0.0
C380 C 0.27148 0.94764 0.49106 0.0
C381 C 0.2748 0.9579 0.52264 0.0
C382 C 0.28492 0.98053 0.52498 0.0
H383 H 0.5078 0.6956 0.94282 0.0
H384 H 0.50737 0.69227 0.05061 0.0
H385 H 0.45711 0.66495 0.99451 0.0
H386 H 0.52985 0.72206 0.97551 0.0
H387 H 0.52899 0.72175 0.01995 0.0
H388 H 0.55091 0.69257 0.94512 0.0
H389 H 0.60107 0.66469 0.0014 0.0
H390 H 0.551 0.69541 0.05285 0.0
C391 C 0.50078 0.68958 0.96593 0.0
C392 C 0.48161 0.67873 0.96494 0.0
C393 C 0.51038 0.69413 -0.00322 0.0
C394 C 0.50054 0.68769 0.02679 0.0
C395 C 0.48139 0.67677 0.0261 0.0
C396 C 0.47236 0.67192 -0.00491 0.0
C397 C 0.5293 0.70957 -0.00223 0.0
C398 C 0.54822 0.69435 -0.00108 0.0
C399 C 0.5578 0.68787 0.96896 0.0
C400 C 0.57686 0.67692 0.96968 0.0
C401 C 0.5859 0.67174 0.00072 0.0
C402 C 0.57682 0.67844 0.03078 0.0
C403 C 0.55782 0.68946 0.02978 0.0
H404 H 0.81176 0.04235 0.45003 0.0
H405 H 0.80705 0.04048 0.55742 0.0
H406 H 0.78389 0.10205 0.50145 0.0
H407 H 0.83344 0.01557 0.48389 0.0
H408 H 0.83172 0.01498 0.52838 0.0
H409 H 0.81002 0.99124 0.44914 0.0
H410 H 0.78291 0.92904 0.49857 0.0
H411 H 0.80828 0.98757 0.55679 0.0
C412 C 0.8064 0.05041 0.47296 0.0
C413 C 0.79684 0.07339 0.47186 0.0
C414 C 0.80999 0.03834 0.50372 0.0
C415 C 0.80373 0.04932 0.53357 0.0
C416 C 0.79398 0.07214 0.53281 0.0
C417 C 0.79035 0.0838 0.50187 0.0
C418 C 0.8226 0.0154 0.50497 0.0
C419 C 0.80992 0.99238 0.50317 0.0
C420 C 0.80518 0.98207 0.47197 0.0
C421 C 0.79512 0.95936 0.47021 0.0
C422 C 0.78954 0.94726 0.49993 0.0
C423 C 0.79435 0.95707 0.53132 0.0
C424 C 0.80423 0.97994 0.53273 0.0
H425 H 0.51031 0.37528 0.93779 0.0
H426 H 0.50613 0.37956 0.04544 0.0
H427 H 0.45717 0.35019 0.98806 0.0
H428 H 0.53114 0.40513 0.97149 0.0
H429 H 0.53147 0.40324 0.01597 0.0
H430 H 0.55249 0.37911 0.93811 0.0
H431 H 0.59891 0.33931 0.98977 0.0
H432 H 0.55079 0.37059 0.0456 0.0
C433 C 0.50233 0.37148 0.96084 0.0
C434 C 0.48301 0.36112 0.95955 0.0
C435 C 0.51104 0.37777 0.99191 0.0
C436 C 0.5 0.37382 0.02158 0.0
C437 C 0.48045 0.36417 0.02011 0.0
C438 C 0.47236 0.35739 0.98921 0.0
C439 C 0.53063 0.39193 0.99297 0.0
C440 C 0.54882 0.37544 0.99178 0.0
C441 C 0.55851 0.37124 0.96107 0.0
C442 C 0.57654 0.358 0.96021 0.0
C443 C 0.58452 0.34852 0.99012 0.0
C444 C 0.5755 0.3531 0.02093 0.0
C445 C 0.55754 0.36643 0.02173 0.0
H446 H 0.18273 0.41496 0.14998 0.0
H447 H 0.16792 0.37889 0.24365 0.0
H448 H 0.15096 0.43664 0.15091 0.0
H449 H 0.1362 0.40101 0.24477 0.0
H450 H 0.09991 0.47485 0.25394 0.0
H451 H 0.1265 0.44426 0.25257 0.0
H452 H 0.11415 0.43203 0.14785 0.0
H453 H 0.0877 0.46297 0.1492 0.0
C454 C 0.17257 0.41128 0.17049 0.0
C455 C 0.17803 0.39521 0.19682 0.0
C456 C 0.1543 0.42374 0.171 0.0
C457 C 0.141 0.42057 0.19791 0.0
C458 C 0.14619 0.40406 0.22385 0.0
C459 C 0.16443 0.39148 0.22325 0.0
C460 C 0.10256 0.46515 0.23086 0.0
C461 C 0.09179 0.47137 0.20165 0.0
C462 C 0.11776 0.44758 0.23007 0.0
C463 C 0.12264 0.43593 0.19998 0.0
C464 C 0.11095 0.44095 0.17131 0.0
C465 C 0.09562 0.45842 0.17217 0.0
H466 H 0.16433 0.65672 0.76133 0.0
H467 H 0.18694 0.60431 0.83416 0.0
H468 H 0.13193 0.63576 0.76179 0.0
H469 H 0.15515 0.58257 0.83308 0.0
H470 H 0.09427 0.55245 0.84262 0.0
H471 H 0.12119 0.58272 0.8482 0.0
H472 H 0.11706 0.59888 0.74217 0.0
H473 H 0.08956 0.56937 0.73724 0.0
C474 C 0.16239 0.64084 0.77762 0.0
C475 C 0.17838 0.63217 0.79756 0.0
C476 C 0.14383 0.62863 0.7776 0.0
C477 C 0.14079 0.60739 0.79745 0.0
C478 C 0.15669 0.59906 0.81785 0.0
C479 C 0.17514 0.61132 0.81802 0.0
C480 C 0.09871 0.56315 0.82083 0.0
C481 C 0.08984 0.55866 0.78954 0.0
C482 C 0.11433 0.58024 0.82384 0.0
C483 C 0.12171 0.59291 0.79549 0.0
C484 C 0.11178 0.58966 0.76463 0.0
C485 C 0.09594 0.57278 0.76174 0.0
H486 H 0.87698 0.61036 0.24994 0.0
H487 H 0.90098 0.66176 0.17725 0.0
H488 H 0.90835 0.588 0.25034 0.0
H489 H 0.93284 0.63977 0.17826 0.0
H490 H 0.97371 0.57249 0.15593 0.0
H491 H 0.94692 0.60261 0.15986 0.0
H492 H 0.94221 0.58718 0.26596 0.0
H493 H 0.96838 0.55624 0.26134 0.0
C494 C 0.88915 0.61718 0.23452 0.0
C495 C 0.88647 0.63782 0.21354 0.0
C496 C 0.90726 0.60441 0.23486 0.0
C497 C 0.92333 0.61207 0.21446 0.0
C498 C 0.92077 0.6331 0.19399 0.0
C499 C 0.90252 0.64574 0.19341 0.0
C500 C 0.96735 0.57616 0.18024 0.0
C501 C 0.97306 0.56207 0.20833 0.0
C502 C 0.95192 0.59341 0.18256 0.0
C503 C 0.94202 0.59708 0.21313 0.0
C504 C 0.94903 0.58439 0.24179 0.0
C505 C 0.96422 0.56691 0.23933 0.0
H506 H 0.91096 0.35575 0.74577 0.0
H507 H 0.87562 0.40814 0.80012 0.0
H508 H 0.94025 0.38254 0.75101 0.0
H509 H 0.9049 0.43466 0.80567 0.0
H510 H 0.963 0.47001 0.83343 0.0
H511 H 0.93778 0.43735 0.83273 0.0
H512 H 0.95187 0.42277 0.72952 0.0
H513 H 0.97717 0.45542 0.73033 0.0
C514 C 0.90938 0.373 0.75874 0.0
C515 C 0.89083 0.37977 0.77243 0.0
C516 C 0.92622 0.38831 0.76184 0.0
C517 C 0.92498 0.4107 0.77889 0.0
C518 C 0.90652 0.41731 0.79294 0.0
C519 C 0.88968 0.40208 0.78973 0.0
C520 C 0.96099 0.45946 0.81081 0.0
C521 C 0.97197 0.46541 0.78186 0.0
C522 C 0.94643 0.44089 0.81032 0.0
C523 C 0.94251 0.42776 0.78088 0.0
C524 C 0.95454 0.43246 0.75265 0.0
C525 C 0.96912 0.45111 0.75314 0.0
H526 H 0.23194 0.16794 0.30368 0.0
H527 H 0.29061 0.19295 0.33497 0.0
H528 H 0.23585 0.1309 0.33818 0.0
H529 H 0.29454 0.15594 0.36917 0.0
H530 H 0.30186 0.08166 0.41612 0.0
H531 H 0.29793 0.11098 0.3697 0.0
H532 H 0.2365 0.123 0.39858 0.0
H533 H 0.24035 0.09336 0.44436 0.0
C534 C 0.2457 0.1655 0.31779 0.0
C535 C 0.26089 0.18354 0.31675 0.0
C536 C 0.24796 0.14424 0.33746 0.0
C537 C 0.26549 0.14048 0.35648 0.0
C538 C 0.28098 0.15805 0.35442 0.0
C539 C 0.27871 0.17933 0.33482 0.0
C540 C 0.28736 0.09 0.41186 0.0
C541 C 0.27144 0.08536 0.43395 0.0
C542 C 0.28517 0.10701 0.38554 0.0
C543 C 0.26698 0.11956 0.3807 0.0
C544 C 0.25067 0.11358 0.40144 0.0
C545 C 0.2529 0.0967 0.4278 0.0
H546 H 0.40317 0.71496 0.79477 0.0
H547 H 0.36928 0.67693 0.8715 0.0
H548 H 0.43422 0.70522 0.82454 0.0
H549 H 0.40025 0.66701 0.90093 0.0
H550 H 0.45833 0.64101 0.94158 0.0
H551 H 0.43163 0.64403 0.89973 0.0
H552 H 0.44981 0.71872 0.87701 0.0
H553 H 0.47649 0.71563 0.91874 0.0
C554 C 0.40232 0.70443 0.81789 0.0
C555 C 0.38365 0.69693 0.83085 0.0
C556 C 0.42014 0.69879 0.83488 0.0
C557 C 0.41976 0.68537 0.86515 0.0
C558 C 0.40116 0.67703 0.8774 0.0
C559 C 0.38335 0.68275 0.8605 0.0
C560 C 0.45692 0.65784 0.92699 0.0
C561 C 0.4694 0.67815 0.93368 0.0
C562 C 0.44154 0.65964 0.9032 0.0
C563 C 0.43832 0.68177 0.88548 0.0
C564 C 0.4519 0.70136 0.89009 0.0
C565 C 0.46729 0.69956 0.91395 0.0
H566 H 0.81467 0.87055 0.29198 0.0
H567 H 0.77647 0.83029 0.36039 0.0
H568 H 0.81111 0.90738 0.32583 0.0
H569 H 0.77317 0.86673 0.39445 0.0
H570 H 0.76173 0.93666 0.4453 0.0
H571 H 0.7603 0.90718 0.39972 0.0
H572 H 0.82285 0.92127 0.37894 0.0
H573 H 0.82399 0.95117 0.4238 0.0
C574 C 0.80546 0.86961 0.31418 0.0
C575 C 0.79591 0.84748 0.32358 0.0
C576 C 0.80342 0.8907 0.3336 0.0
C577 C 0.79188 0.8901 0.36296 0.0
C578 C 0.78185 0.86811 0.37169 0.0
C579 C 0.78379 0.84712 0.3522 0.0
C580 C 0.77499 0.93387 0.43033 0.0
C581 C 0.79299 0.94608 0.43816 0.0
C582 C 0.77425 0.91684 0.40443 0.0
C583 C 0.79156 0.91144 0.38602 0.0
C584 C 0.80918 0.92503 0.39234 0.0
C585 C 0.80985 0.94223 0.41808 0.0
H586 H 0.66955 0.32407 0.81426 0.0
H587 H 0.68685 0.38727 0.87256 0.0
H588 H 0.63589 0.32581 0.8377 0.0
H589 H 0.6532 0.38924 0.89529 0.0
H590 H 0.58902 0.39652 0.92123 0.0
H591 H 0.61733 0.39659 0.88257 0.0
H592 H 0.622 0.31773 0.89408 0.0
H593 H 0.59363 0.31774 0.93234 0.0
C594 C 0.66621 0.3384 0.83194 0.0
C595 C 0.68107 0.35541 0.84166 0.0
C596 C 0.64686 0.33946 0.84521 0.0
C597 C 0.64182 0.35769 0.8683 0.0
C598 C 0.65644 0.37522 0.87709 0.0
C599 C 0.67581 0.37407 0.86403 0.0
C600 C 0.5956 0.37912 0.9144 0.0
C601 C 0.58917 0.35712 0.9298 0.0
C602 C 0.61199 0.37919 0.89265 0.0
C603 C 0.62213 0.35722 0.88568 0.0
C604 C 0.61451 0.33496 0.89878 0.0
C605 C 0.59825 0.33494 0.92069 0.0
H606 H 0.2716 0.86196 0.70132 0.0
H607 H 0.23759 0.82772 0.62212 0.0
H608 H 0.27551 0.89905 0.66665 0.0
H609 H 0.24166 0.86436 0.58748 0.0
H610 H 0.23874 0.93714 0.53777 0.0
H611 H 0.23187 0.90617 0.58094 0.0
H612 H 0.29278 0.91309 0.61715 0.0
H613 H 0.29932 0.94468 0.57455 0.0
C614 C 0.26499 0.86235 0.6765 0.0
C615 C 0.2542 0.84194 0.66454 0.0
C616 C 0.26722 0.88359 0.65664 0.0
C617 C 0.25876 0.88483 0.62433 0.0
C618 C 0.24794 0.86438 0.61252 0.0
C619 C 0.24565 0.84328 0.63237 0.0
C620 C 0.25047 0.93241 0.55553 0.0
C621 C 0.26956 0.94318 0.55281 0.0
C622 C 0.24663 0.91451 0.58005 0.0
C623 C 0.26189 0.90672 0.60212 0.0
C624 C 0.28063 0.9187 0.60074 0.0
C625 C 0.2844 0.93683 0.57636 0.0
H626 H 0.65921 0.71636 0.19327 0.0
H627 H 0.68923 0.6683 0.12458 0.0
H628 H 0.62733 0.7076 0.16585 0.0
H629 H 0.65759 0.66059 0.09609 0.0
H630 H 0.59814 0.63982 0.05665 0.0
H631 H 0.62518 0.64201 0.09797 0.0
H632 H 0.61156 0.71858 0.1141 0.0
H633 H 0.5843 0.71607 0.07352 0.0
C634 C 0.65901 0.70368 0.17259 0.0
C635 C 0.67689 0.69315 0.16106 0.0
C636 C 0.64071 0.69887 0.15661 0.0
C637 C 0.6398 0.68347 0.1286 0.0
C638 C 0.65758 0.67229 0.11781 0.0
C639 C 0.67585 0.67702 0.13387 0.0
C640 C 0.60058 0.65688 0.06987 0.0
C641 C 0.58917 0.67779 0.06181 0.0
C642 C 0.61621 0.65824 0.09326 0.0
C643 C 0.62088 0.68062 0.10891 0.0
C644 C 0.60838 0.70099 0.10277 0.0
C645 C 0.59266 0.69956 0.07954 0.0
H646 H 0.80723 0.19164 0.66452 0.0
H647 H 0.74862 0.16484 0.69321 0.0
H648 H 0.8117 0.15566 0.62968 0.0
H649 H 0.75299 0.12911 0.65765 0.0
H650 H 0.75936 0.09501 0.55017 0.0
H651 H 0.75473 0.12403 0.59563 0.0
H652 H 0.81495 0.10973 0.63054 0.0
H653 H 0.8196 0.0808 0.58482 0.0
C654 C 0.79544 0.17789 0.66393 0.0
C655 C 0.77749 0.18131 0.68152 0.0
C656 C 0.79801 0.15724 0.64392 0.0
C657 C 0.78266 0.13959 0.64084 0.0
C658 C 0.76498 0.14256 0.65923 0.0
C659 C 0.76247 0.16311 0.67946 0.0
C660 C 0.77143 0.0977 0.56802 0.0
C661 C 0.78984 0.08572 0.56397 0.0
C662 C 0.76877 0.11423 0.59411 0.0
C663 C 0.78455 0.11931 0.61649 0.0
C664 C 0.80261 0.10635 0.61347 0.0
C665 C 0.80519 0.0896 0.58755 0.0
H666 H 0.37928 0.37298 0.15742 0.0
H667 H 0.3957 0.2966 0.14881 0.0
H668 H 0.40954 0.38504 0.12716 0.0
H669 H 0.42578 0.30858 0.11851 0.0
H670 H 0.48426 0.33596 0.07711 0.0
H671 H 0.45841 0.32877 0.11973 0.0
H672 H 0.42042 0.38222 0.07011 0.0
H673 H 0.44626 0.38949 0.02841 0.0
C674 C 0.38935 0.35877 0.14913 0.0
C675 C 0.38498 0.33382 0.15541 0.0
C676 C 0.40673 0.36567 0.13186 0.0
C677 C 0.42013 0.34779 0.12033 0.0
C678 C 0.41604 0.32289 0.12751 0.0
C679 C 0.3987 0.31601 0.14482 0.0
C680 C 0.47059 0.3466 0.0761 0.0
C681 C 0.46717 0.36325 0.04964 0.0
C682 C 0.45571 0.34234 0.10019 0.0
C683 C 0.43722 0.35476 0.09821 0.0
C684 C 0.43447 0.3725 0.07275 0.0
C685 C 0.44924 0.37663 0.04874 0.0
H686 H 0.89927 0.65838 0.77686 0.0
H687 H 0.87192 0.59592 0.82693 0.0
H688 H 0.93117 0.63647 0.77546 0.0
H689 H 0.90364 0.57439 0.82595 0.0
H690 H 0.96441 0.54541 0.84265 0.0
H691 H 0.93738 0.57494 0.84948 0.0
H692 H 0.94571 0.60028 0.74762 0.0
H693 H 0.973 0.57088 0.74108 0.0
C694 C 0.90001 0.64002 0.78757 0.0
C695 C 0.88295 0.62901 0.80213 0.0
C696 C 0.91833 0.62751 0.78686 0.0
C697 C 0.92005 0.60377 0.80089 0.0
C698 C 0.90303 0.59289 0.81564 0.0
C699 C 0.88477 0.60528 0.8162 0.0
C700 C 0.96083 0.55781 0.82207 0.0
C701 C 0.97071 0.55577 0.79129 0.0
C702 C 0.94522 0.57455 0.82584 0.0
C703 C 0.93906 0.58959 0.79886 0.0
C704 C 0.95008 0.58901 0.76893 0.0
C705 C 0.96578 0.57224 0.7652 0.0
H706 H 0.89336 0.38089 0.24407 0.0
H707 H 0.87993 0.41611 0.14909 0.0
H708 H 0.92543 0.40269 0.2461 0.0
H709 H 0.91205 0.4374 0.15091 0.0
H710 H 0.97575 0.46253 0.15074 0.0
H711 H 0.94879 0.4319 0.14936 0.0
H712 H 0.93599 0.446 0.25318 0.0
H713 H 0.9631 0.47631 0.25459 0.0
C714 C 0.89721 0.39323 0.22359 0.0
C715 C 0.88391 0.39678 0.19649 0.0
C716 C 0.91566 0.40562 0.22471 0.0
C717 C 0.92136 0.42172 0.19863 0.0
C718 C 0.90832 0.42477 0.17114 0.0
C719 C 0.88984 0.41254 0.17012 0.0
C720 C 0.96763 0.45844 0.17355 0.0
C721 C 0.97149 0.47186 0.20275 0.0
C722 C 0.95201 0.44114 0.17265 0.0
C723 C 0.94003 0.43678 0.201 0.0
C724 C 0.94494 0.44883 0.23092 0.0
C725 C 0.96045 0.46623 0.23174 0.0
H726 H 0.16714 0.37813 0.82878 0.0
H727 H 0.18247 0.41475 0.73587 0.0
H728 H 0.13467 0.39882 0.82838 0.0
H729 H 0.15024 0.43566 0.73571 0.0
H730 H 0.08661 0.46001 0.7311 0.0
H731 H 0.11346 0.42953 0.73093 0.0
H732 H 0.12408 0.44205 0.83607 0.0
H733 H 0.09716 0.47227 0.83621 0.0
C734 C 0.16348 0.39036 0.80808 0.0
C735 C 0.17744 0.39493 0.78247 0.0
C736 C 0.14493 0.40231 0.80795 0.0
C737 C 0.13983 0.41887 0.78201 0.0
C738 C 0.15356 0.42279 0.75586 0.0
C739 C 0.17215 0.41104 0.75616 0.0
C740 C 0.09421 0.45556 0.75441 0.0
C741 C 0.08983 0.46852 0.78366 0.0
C742 C 0.10976 0.43836 0.75423 0.0
C743 C 0.12111 0.43362 0.78337 0.0
C744 C 0.11561 0.44516 0.81323 0.0
C745 C 0.1002 0.46249 0.81333 0.0
H746 H 0.18478 0.61745 0.25271 0.0
H747 H 0.15144 0.67411 0.20056 0.0
H748 H 0.15587 0.59013 0.24971 0.0
H749 H 0.12235 0.64673 0.19769 0.0
H750 H 0.08593 0.57733 0.16327 0.0
H751 H 0.1111 0.60968 0.17026 0.0
H752 H 0.12271 0.58363 0.27107 0.0
H753 H 0.09785 0.55105 0.26366 0.0
C754 C 0.17118 0.6242 0.24095 0.0
C755 C 0.17047 0.648 0.22689 0.0
C756 C 0.15453 0.60854 0.23932 0.0
C757 C 0.13665 0.61625 0.22368 0.0
C758 C 0.1359 0.64009 0.20965 0.0
C759 C 0.15261 0.65576 0.21124 0.0
C760 C 0.09345 0.57901 0.18723 0.0
C761 C 0.09001 0.56161 0.21286 0.0
C762 C 0.10795 0.5975 0.19124 0.0
C763 C 0.11925 0.59901 0.22103 0.0
C764 C 0.11469 0.58264 0.24749 0.0
C765 C 0.10031 0.56412 0.2434 0.0
H766 H 0.8081 0.86075 0.70805 0.0
H767 H 0.78369 0.81917 0.62581 0.0
H768 H 0.80367 0.89887 0.67563 0.0
H769 H 0.77954 0.85704 0.59334 0.0
H770 H 0.7618 0.92884 0.54849 0.0
H771 H 0.76065 0.89612 0.59085 0.0
H772 H 0.8199 0.91667 0.62472 0.0
H773 H 0.82113 0.94919 0.58229 0.0
C774 C 0.80158 0.8598 0.68321 0.0
C775 C 0.79637 0.83698 0.66935 0.0
C776 C 0.79915 0.88158 0.66462 0.0
C777 C 0.79122 0.88097 0.63197 0.0
C778 C 0.78545 0.85819 0.61858 0.0
C779 C 0.78805 0.83645 0.637 0.0
C780 C 0.77442 0.92665 0.56541 0.0
C781 C 0.79165 0.94142 0.56176 0.0
C782 C 0.77378 0.90788 0.58958 0.0
C783 C 0.79032 0.90356 0.61074 0.0
C784 C 0.80688 0.9196 0.6089 0.0
C785 C 0.80755 0.93832 0.58463 0.0
H786 H 0.66581 0.34842 0.18208 0.0
H787 H 0.68164 0.2994 0.10233 0.0
H788 H 0.63342 0.35613 0.15483 0.0
H789 H 0.64962 0.30707 0.07527 0.0
H790 H 0.58714 0.30775 0.04223 0.0
H791 H 0.61445 0.29869 0.08126 0.0
H792 H 0.61897 0.37587 0.10501 0.0
H793 H 0.59115 0.38463 0.06664 0.0
C794 C 0.66244 0.33941 0.15867 0.0
C795 C 0.67626 0.32313 0.14454 0.0
C796 C 0.64385 0.34375 0.14313 0.0
C797 C 0.63871 0.33188 0.11314 0.0
C798 C 0.65274 0.31595 0.09886 0.0
C799 C 0.6712 0.31163 0.11432 0.0
C800 C 0.59348 0.32257 0.05685 0.0
C801 C 0.58704 0.34684 0.05158 0.0
C802 C 0.60932 0.3175 0.07882 0.0
C803 C 0.61929 0.33665 0.09562 0.0
C804 C 0.61166 0.36067 0.09254 0.0
C805 C 0.59564 0.3657 0.07071 0.0
H806 H 0.2313 0.17008 0.68319 0.0
H807 H 0.29028 0.19465 0.65321 0.0
H808 H 0.23521 0.13305 0.64994 0.0
H809 H 0.29421 0.15764 0.62026 0.0
H810 H 0.30147 0.08277 0.57704 0.0
H811 H 0.2974 0.11265 0.6217 0.0
H812 H 0.23625 0.12485 0.5899 0.0
H813 H 0.24022 0.09464 0.54588 0.0
C814 C 0.24512 0.16756 0.66961 0.0
C815 C 0.26041 0.18546 0.67068 0.0
C816 C 0.24738 0.1463 0.65065 0.0
C817 C 0.265 0.1424 0.6324 0.0
C818 C 0.28057 0.15986 0.63444 0.0
C819 C 0.2783 0.18114 0.65333 0.0
C820 C 0.28699 0.09129 0.58029 0.0
C821 C 0.27118 0.08648 0.55789 0.0
C822 C 0.28473 0.10862 0.60559 0.0
C823 C 0.26658 0.12136 0.60911 0.0
C824 C 0.25039 0.1153 0.58806 0.0
C825 C 0.25268 0.09809 0.5627 0.0
H826 H 0.37945 0.71655 0.13168 0.0
H827 H 0.38447 0.6411 0.16563 0.0
H828 H 0.41253 0.71429 0.1069 0.0
H829 H 0.41779 0.63884 0.14084 0.0
H830 H 0.45852 0.63732 0.04532 0.0
H831 H 0.43096 0.63756 0.08496 0.0
H832 H 0.44817 0.7107 0.11553 0.0
H833 H 0.47536 0.71069 0.0749 0.0
C834 C 0.38779 0.69961 0.13449 0.0
C835 C 0.37921 0.67897 0.15052 0.0
C836 C 0.40686 0.69833 0.12035 0.0
C837 C 0.41791 0.67638 0.12187 0.0
C838 C 0.40961 0.65595 0.13884 0.0
C839 C 0.39049 0.65722 0.15297 0.0
C840 C 0.45672 0.65318 0.06117 0.0
C841 C 0.46896 0.67408 0.05671 0.0
C842 C 0.44094 0.65331 0.08402 0.0
C843 C 0.43706 0.67435 0.10302 0.0
C844 C 0.45047 0.69439 0.10076 0.0
C845 C 0.46626 0.69425 0.07784 0.0
H846 H 0.77379 0.18012 0.30912 0.0
H847 H 0.83276 0.19314 0.35074 0.0
H848 H 0.77072 0.14278 0.34345 0.0
H849 H 0.82978 0.15587 0.38445 0.0
H850 H 0.82657 0.08011 0.42592 0.0
H851 H 0.82793 0.11094 0.3812 0.0
H852 H 0.76738 0.13275 0.40362 0.0
H853 H 0.76579 0.10133 0.44769 0.0
C854 C 0.7861 0.17504 0.32552 0.0
C855 C 0.80354 0.18968 0.32711 0.0
C856 C 0.78436 0.1536 0.34507 0.0
C857 C 0.80006 0.14625 0.36649 0.0
C858 C 0.81758 0.16068 0.36767 0.0
C859 C 0.81928 0.18212 0.34831 0.0
C860 C 0.81331 0.09091 0.42061 0.0
C861 C 0.79612 0.08841 0.44055 0.0
C862 C 0.81419 0.10881 0.39526 0.0
C863 C 0.7979 0.12459 0.38926 0.0
C864 C 0.78019 0.12088 0.40756 0.0
C865 C 0.77932 0.103 0.43295 0.0
H866 H 0.40304 0.3018 0.80669 0.0
H867 H 0.37571 0.36508 0.85177 0.0
H868 H 0.43472 0.31171 0.83426 0.0
H869 H 0.40748 0.37513 0.87898 0.0
H870 H 0.46926 0.39475 0.91422 0.0
H871 H 0.44316 0.38772 0.87187 0.0
H872 H 0.4453 0.30973 0.89349 0.0
H873 H 0.47125 0.31693 0.93558 0.0
C874 C 0.40379 0.3179 0.82235 0.0
C875 C 0.38669 0.33242 0.8274 0.0
C876 C 0.42199 0.32363 0.83801 0.0
C877 C 0.42362 0.34413 0.85895 0.0
C878 C 0.40682 0.35938 0.86266 0.0
C879 C 0.38857 0.35359 0.8471 0.0
C880 C 0.46468 0.37606 0.9088 0.0
C881 C 0.47237 0.35632 0.92773 0.0
C882 C 0.44955 0.37205 0.88497 0.0
C883 C 0.442 0.3482 0.87953 0.0
C884 C 0.45087 0.3283 0.89678 0.0
C885 C 0.46579 0.33235 0.9208 0.0
H886 H 0.3151 0.84949 0.3281 0.0
H887 H 0.2535 0.8579 0.2966 0.0
H888 H 0.31197 0.88472 0.36435 0.0
H889 H 0.25036 0.89364 0.33278 0.0
H890 H 0.2474 0.93151 0.437 0.0
H891 H 0.24879 0.90239 0.3913 0.0
H892 H 0.30837 0.9282 0.36693 0.0
H893 H 0.30741 0.95628 0.41385 0.0
C894 C 0.30097 0.85919 0.32841 0.0
C895 C 0.28456 0.8509 0.30939 0.0
C896 C 0.29919 0.87952 0.34916 0.0
C897 C 0.28094 0.89221 0.3514 0.0
C898 C 0.26458 0.88417 0.33194 0.0
C899 C 0.26636 0.8637 0.31122 0.0
C900 C 0.26073 0.93113 0.42168 0.0
C901 C 0.27742 0.94594 0.42952 0.0
C902 C 0.26146 0.91458 0.39521 0.0
C903 C 0.27885 0.91259 0.37574 0.0
C904 C 0.29491 0.92882 0.38191 0.0
C905 C 0.29424 0.94524 0.40855 0.0
H906 H 0.68989 0.67189 0.88134 0.0
H907 H 0.65666 0.70598 0.8003 0.0
H908 H 0.65864 0.66264 0.91009 0.0
H909 H 0.62534 0.69686 0.82926 0.0
H910 H 0.58237 0.71135 0.92027 0.0
H911 H 0.60936 0.7126 0.87949 0.0
H912 H 0.62721 0.6394 0.90993 0.0
H913 H 0.60017 0.63823 0.95087 0.0
C914 C 0.67591 0.67694 0.86928 0.0
C915 C 0.67585 0.68991 0.83864 0.0
C916 C 0.65794 0.67161 0.88577 0.0
C917 C 0.63945 0.6791 0.87206 0.0
C918 C 0.63933 0.69114 0.84075 0.0
C919 C 0.6573 0.69642 0.8242 0.0
C920 C 0.59156 0.69516 0.91739 0.0
C921 C 0.58925 0.67478 0.93901 0.0
C922 C 0.60713 0.6959 0.89407 0.0
C923 C 0.62071 0.67627 0.89188 0.0
C924 C 0.6173 0.65505 0.91151 0.0
C925 C 0.60173 0.6543 0.93477 0.0
loop_
_geom_bond_atom_site_label_1
_geom_bond_atom_site_label_2
_geom_bond_distance
_geom_bond_site_symmetry_2
_ccdc_geom_bond_type
C0 C1 1.264 . S
C0 C5 1.479 . S
C0 C10 1.465 . S
C1 C0 1.264 . S
C1 C3 1.339 . S
C1 H28 0.931 . S
C2 C3 1.395 . S
C2 C4 1.320 . S
C3 C1 1.339 . S
C3 C2 1.395 . S
C3 H29 0.929 . S
C4 C2 1.320 . S
C4 C5 1.405 . S
C4 H30 0.930 . S
C5 C0 1.479 . S
C5 C4 1.405 . S
C5 H31 0.931 . S
U6 O7 2.454 . S
U6 O8 2.458 . S
U6 C9 2.984 . S
U6 C10 2.847 . S
U6 C23 2.882 . S
U6 O24 2.441 . S
U6 O25 2.420 . S
U6 O26 2.455 . S
U6 O27 2.449 . S
O7 U6 2.454 . S
O7 C9 1.353 . S
O8 U6 2.458 . S
O8 C9 1.286 . S
C9 U6 2.984 . S
C9 O7 1.353 . S
C9 O8 1.286 . S
C9 C11 1.363 . S
C10 C0 1.465 . S
C10 U6 2.847 . S
C10 O24 1.249 . S
C10 O25 1.202 . S
C11 C9 1.363 . S
C11 C13 1.408 . S
C11 C16 1.342 . S
C12 C13 1.310 . S
C12 C15 1.461 . S
C12 H32 0.932 . S
C13 C11 1.408 . S
C13 C12 1.310 . S
C13 H33 0.930 . S
C14 C15 1.474 . S
C14 C16 1.285 . S
C14 H34 0.929 . S
C15 C12 1.461 . S
C15 C14 1.474 . S
C16 C11 1.342 . S
C16 C14 1.285 . S
C16 H35 0.930 . S
C17 C20 1.424 . S
C17 C22 1.245 . S
C17 C23 1.428 . S
C18 C21 1.260 . S
C18 C22 1.477 . S
C18 H36 0.932 . S
C19 C20 1.384 . S
C19 C21 1.479 . S
C19 H37 0.929 . S
C20 C17 1.424 . S
C20 C19 1.384 . S
C20 H38 0.928 . S
C21 C18 1.260 . S
C21 C19 1.479 . S
C22 C17 1.245 . S
C22 C18 1.477 . S
C22 H39 0.932 . S
C23 U6 2.882 . S
C23 C17 1.428 . S
C23 O26 1.301 . S
C23 O27 1.282 . S
O24 U6 2.441 . S
O24 C10 1.249 . S
O25 U6 2.420 . S
O25 C10 1.202 . S
O26 U6 2.455 . S
O26 C23 1.301 . S
O27 U6 2.449 . S
O27 C23 1.282 . S
H28 C1 0.931 . S
H29 C3 0.929 . S
H30 C4 0.930 . S
H31 C5 0.931 . S
H32 C12 0.932 . S
H33 C13 0.930 . S
H34 C14 0.929 . S
H35 C16 0.930 . S
H36 C18 0.932 . S
H37 C19 0.929 . S
H38 C20 0.928 . S
H39 C22 0.932 . S
C40 C41 1.264 . S
C40 C45 1.479 . S
C40 C50 1.465 . S
C41 C40 1.264 . S
C41 C43 1.339 . S
C41 H68 0.931 . S
C42 C43 1.395 . S
C42 C44 1.320 . S
C43 C41 1.339 . S
C43 C42 1.395 . S
C43 H69 0.929 . S
C44 C42 1.320 . S
C44 C45 1.405 . S
C44 H70 0.930 . S
C45 C40 1.479 . S
C45 C44 1.405 . S
C45 H71 0.931 . S
U46 O47 2.454 . S
U46 O48 2.458 . S
U46 C49 2.984 . S
U46 C50 2.847 . S
U46 C63 2.882 . S
U46 O64 2.441 . S
U46 O65 2.420 . S
U46 O66 2.455 . S
U46 O67 2.449 . S
O47 U46 2.454 . S
O47 C49 1.353 . S
O48 U46 2.458 . S
O48 C49 1.286 . S
C49 U46 2.984 . S
C49 O47 1.353 . S
C49 O48 1.286 . S
C49 C51 1.363 . S
C50 C40 1.465 . S
C50 U46 2.847 . S
C50 O64 1.249 . S
C50 O65 1.202 . S
C51 C49 1.363 . S
C51 C53 1.408 . S
C51 C56 1.342 . S
C52 C53 1.310 . S
C52 C55 1.461 . S
C52 H72 0.932 . S
C53 C51 1.408 . S
C53 C52 1.310 . S
C53 H73 0.930 . S
C54 C55 1.474 . S
C54 C56 1.285 . S
C54 H74 0.929 . S
C55 C52 1.461 . S
C55 C54 1.474 . S
C56 C51 1.342 . S
C56 C54 1.285 . S
C56 H75 0.930 . S
C57 C60 1.424 . S
C57 C62 1.245 . S
C57 C63 1.428 . S
C58 C61 1.260 . S
C58 C62 1.477 . S
C58 H76 0.932 . S
C59 C60 1.384 . S
C59 C61 1.479 . S
C59 H77 0.929 . S
C60 C57 1.424 . S
C60 C59 1.384 . S
C60 H78 0.928 . S
C61 C58 1.260 . S
C61 C59 1.479 . S
C62 C57 1.245 . S
C62 C58 1.477 . S
C62 H79 0.932 . S
C63 U46 2.882 . S
C63 C57 1.428 . S
C63 O66 1.301 . S
C63 O67 1.282 . S
O64 U46 2.441 . S
O64 C50 1.249 . S
O65 U46 2.420 . S
O65 C50 1.202 . S
O66 U46 2.455 . S
O66 C63 1.301 . S
O67 U46 2.449 . S
O67 C63 1.282 . S
H68 C41 0.931 . S
H69 C43 0.929 . S
H70 C44 0.930 . S
H71 C45 0.931 . S
H72 C52 0.932 . S
H73 C53 0.930 . S
H74 C54 0.929 . S
H75 C56 0.930 . S
H76 C58 0.932 . S
H77 C59 0.929 . S
H78 C60 0.928 . S
H79 C62 0.932 . S
C80 C81 1.264 . S
C80 C85 1.479 . S
C80 C90 1.465 . S
C81 C80 1.264 . S
C81 C83 1.339 . S
C81 H108 0.931 . S
C82 C83 1.395 . S
C82 C84 1.320 . S
C83 C81 1.339 . S
C83 C82 1.395 . S
C83 H109 0.929 . S
C84 C82 1.320 . S
C84 C85 1.405 . S
C84 H110 0.930 . S
C85 C80 1.479 . S
C85 C84 1.405 . S
C85 H111 0.931 . S
U86 O87 2.454 . S
U86 O88 2.458 . S
U86 C89 2.984 . S
U86 C90 2.847 . S
U86 C103 2.882 . S
U86 O104 2.441 . S
U86 O105 2.420 . S
U86 O106 2.455 . S
U86 O107 2.449 . S
O87 U86 2.454 . S
O87 C89 1.353 . S
O88 U86 2.458 . S
O88 C89 1.286 . S
C89 U86 2.984 . S
C89 O87 1.353 . S
C89 O88 1.286 . S
C89 C91 1.363 . S
C90 C80 1.465 . S
C90 U86 2.847 . S
C90 O104 1.249 . S
C90 O105 1.202 . S
C91 C89 1.363 . S
C91 C93 1.408 . S
C91 C96 1.342 . S
C92 C93 1.310 . S
C92 C95 1.461 . S
C92 H112 0.932 . S
C93 C91 1.408 . S
C93 C92 1.310 . S
C93 H113 0.930 . S
C94 C95 1.474 . S
C94 C96 1.285 . S
C94 H114 0.929 . S
C95 C92 1.461 . S
C95 C94 1.474 . S
C96 C91 1.342 . S
C96 C94 1.285 . S
C96 H115 0.930 . S
C97 C100 1.424 . S
C97 C102 1.245 . S
C97 C103 1.428 . S
C98 C101 1.260 . S
C98 C102 1.477 . S
C98 H116 0.932 . S
C99 C100 1.384 . S
C99 C101 1.479 . S
C99 H117 0.929 . S
C100 C97 1.424 . S
C100 C99 1.384 . S
C100 H118 0.928 . S
C101 C98 1.260 . S
C101 C99 1.479 . S
C102 C97 1.245 . S
C102 C98 1.477 . S
C102 H119 0.932 . S
C103 U86 2.882 . S
C103 C97 1.428 . S
C103 O106 1.301 . S
C103 O107 1.282 . S
O104 U86 2.441 . S
O104 C90 1.249 . S
O105 U86 2.420 . S
O105 C90 1.202 . S
O106 U86 2.455 . S
O106 C103 1.301 . S
O107 U86 2.449 . S
O107 C103 1.282 . S
H108 C81 0.931 . S
H109 C83 0.929 . S
H110 C84 0.930 . S
H111 C85 0.931 . S
H112 C92 0.932 . S
H113 C93 0.930 . S
H114 C94 0.929 . S
H115 C96 0.930 . S
H116 C98 0.932 . S
H117 C99 0.929 . S
H118 C100 0.928 . S
H119 C102 0.932 . S
C120 C121 1.264 . S
C120 C125 1.479 . S
C120 C130 1.465 . S
C121 C120 1.264 . S
C121 C123 1.339 . S
C121 H148 0.931 . S
C122 C123 1.395 . S
C122 C124 1.320 . S
C123 C121 1.339 . S
C123 C122 1.395 . S
C123 H149 0.929 . S
C124 C122 1.320 . S
C124 C125 1.405 . S
C124 H150 0.930 . S
C125 C120 1.479 . S
C125 C124 1.405 . S
C125 H151 0.931 . S
U126 O127 2.454 . S
U126 O128 2.458 . S
U126 C129 2.984 . S
U126 C130 2.847 . S
U126 C143 2.882 . S
U126 O144 2.441 . S
U126 O145 2.420 . S
U126 O146 2.455 . S
U126 O147 2.449 . S
O127 U126 2.454 . S
O127 C129 1.353 . S
O128 U126 2.458 . S
O128 C129 1.286 . S
C129 U126 2.984 . S
C129 O127 1.353 . S
C129 O128 1.286 . S
C129 C131 1.363 . S
C130 C120 1.465 . S
C130 U126 2.847 . S
C130 O144 1.249 . S
C130 O145 1.202 . S
C131 C129 1.363 . S
C131 C133 1.408 . S
C131 C136 1.342 . S
C132 C133 1.310 . S
C132 C135 1.461 . S
C132 H152 0.932 . S
C133 C131 1.408 . S
C133 C132 1.310 . S
C133 H153 0.930 . S
C134 C135 1.474 . S
C134 C136 1.285 . S
C134 H154 0.929 . S
C135 C132 1.461 . S
C135 C134 1.474 . S
C136 C131 1.342 . S
C136 C134 1.285 . S
C136 H155 0.930 . S
C137 C140 1.424 . S
C137 C142 1.245 . S
C137 C143 1.428 . S
C138 C141 1.260 . S
C138 C142 1.477 . S
C138 H156 0.932 . S
C139 C140 1.384 . S
C139 C141 1.479 . S
C139 H157 0.929 . S
C140 C137 1.424 . S
C140 C139 1.384 . S
C140 H158 0.928 . S
C141 C138 1.260 . S
C141 C139 1.479 . S
C142 C137 1.245 . S
C142 C138 1.477 . S
C142 H159 0.932 . S
C143 U126 2.882 . S
C143 C137 1.428 . S
C143 O146 1.301 . S
C143 O147 1.282 . S
O144 U126 2.441 . S
O144 C130 1.249 . S
O145 U126 2.420 . S
O145 C130 1.202 . S
O146 U126 2.455 . S
O146 C143 1.301 . S
O147 U126 2.449 . S
O147 C143 1.282 . S
H148 C121 0.931 . S
H149 C123 0.929 . S
H150 C124 0.930 . S
H151 C125 0.931 . S
H152 C132 0.932 . S
H153 C133 0.930 . S
H154 C134 0.929 . S
H155 C136 0.930 . S
H156 C138 0.932 . S
H157 C139 0.929 . S
H158 C140 0.928 . S
H159 C142 0.932 . S
C160 C161 1.264 . S
C160 C165 1.479 . S
C160 C170 1.465 . S
C161 C160 1.264 . S
C161 C163 1.339 . S
C161 H188 0.931 . S
C162 C163 1.395 . S
C162 C164 1.320 . S
C163 C161 1.339 . S
C163 C162 1.395 . S
C163 H189 0.929 . S
C164 C162 1.320 . S
C164 C165 1.405 . S
C164 H190 0.930 . S
C165 C160 1.479 . S
C165 C164 1.405 . S
C165 H191 0.931 . S
U166 O167 2.454 . S
U166 O168 2.458 . S
U166 C169 2.984 . S
U166 C170 2.847 . S
U166 C183 2.882 . S
U166 O184 2.441 . S
U166 O185 2.420 . S
U166 O186 2.455 . S
U166 O187 2.449 . S
O167 U166 2.454 . S
O167 C169 1.353 . S
O168 U166 2.458 . S
O168 C169 1.286 . S
C169 U166 2.984 . S
C169 O167 1.353 . S
C169 O168 1.286 . S
C169 C171 1.363 . S
C170 C160 1.465 . S
C170 U166 2.847 . S
C170 O184 1.249 . S
C170 O185 1.202 . S
C171 C169 1.363 . S
C171 C173 1.408 . S
C171 C176 1.342 . S
C172 C173 1.310 . S
C172 C175 1.461 . S
C172 H192 0.932 . S
C173 C171 1.408 . S
C173 C172 1.310 . S
C173 H193 0.930 . S
C174 C175 1.474 . S
C174 C176 1.285 . S
C174 H194 0.929 . S
C175 C172 1.461 . S
C175 C174 1.474 . S
C176 C171 1.342 . S
C176 C174 1.285 . S
C176 H195 0.930 . S
C177 C180 1.424 . S
C177 C182 1.245 . S
C177 C183 1.428 . S
C178 C181 1.260 . S
C178 C182 1.477 . S
C178 H196 0.932 . S
C179 C180 1.384 . S
C179 C181 1.479 . S
C179 H197 0.929 . S
C180 C177 1.424 . S
C180 C179 1.384 . S
C180 H198 0.928 . S
C181 C178 1.260 . S
C181 C179 1.479 . S
C182 C177 1.245 . S
C182 C178 1.477 . S
C182 H199 0.932 . S
C183 U166 2.882 . S
C183 C177 1.428 . S
C183 O186 1.301 . S
C183 O187 1.282 . S
O184 U166 2.441 . S
O184 C170 1.249 . S
O185 U166 2.420 . S
O185 C170 1.202 . S
O186 U166 2.455 . S
O186 C183 1.301 . S
O187 U166 2.449 . S
O187 C183 1.282 . S
H188 C161 0.931 . S
H189 C163 0.929 . S
H190 C164 0.930 . S
H191 C165 0.931 . S
H192 C172 0.932 . S
H193 C173 0.930 . S
H194 C174 0.929 . S
H195 C176 0.930 . S
H196 C178 0.932 . S
H197 C179 0.929 . S
H198 C180 0.928 . S
H199 C182 0.932 . S
C200 C201 1.264 . S
C200 C205 1.479 . S
C200 C210 1.465 . S
C201 C200 1.264 . S
C201 C203 1.339 . S
C201 H228 0.931 . S
C202 C203 1.395 . S
C202 C204 1.320 . S
C203 C201 1.339 . S
C203 C202 1.395 . S
C203 H229 0.929 . S
C204 C202 1.320 . S
C204 C205 1.405 . S
C204 H230 0.930 . S
C205 C200 1.479 . S
C205 C204 1.405 . S
C205 H231 0.931 . S
U206 O207 2.454 . S
U206 O208 2.458 . S
U206 C209 2.984 . S
U206 C210 2.847 . S
U206 C223 2.882 . S
U206 O224 2.441 . S
U206 O225 2.420 . S
U206 O226 2.455 . S
U206 O227 2.449 . S
O207 U206 2.454 . S
O207 C209 1.353 . S
O208 U206 2.458 . S
O208 C209 1.286 . S
C209 U206 2.984 . S
C209 O207 1.353 . S
C209 O208 1.286 . S
C209 C211 1.363 . S
C210 C200 1.465 . S
C210 U206 2.847 . S
C210 O224 1.249 . S
C210 O225 1.202 . S
C211 C209 1.363 . S
C211 C213 1.408 . S
C211 C216 1.342 . S
C212 C213 1.310 . S
C212 C215 1.461 . S
C212 H232 0.932 . S
C213 C211 1.408 . S
C213 C212 1.310 . S
C213 H233 0.930 . S
C214 C215 1.474 . S
C214 C216 1.285 . S
C214 H234 0.929 . S
C215 C212 1.461 . S
C215 C214 1.474 . S
C216 C211 1.342 . S
C216 C214 1.285 . S
C216 H235 0.930 . S
C217 C220 1.424 . S
C217 C222 1.245 . S
C217 C223 1.428 . S
C218 C221 1.260 . S
C218 C222 1.477 . S
C218 H236 0.932 . S
C219 C220 1.384 . S
C219 C221 1.479 . S
C219 H237 0.929 . S
C220 C217 1.424 . S
C220 C219 1.384 . S
C220 H238 0.928 . S
C221 C218 1.260 . S
C221 C219 1.479 . S
C222 C217 1.245 . S
C222 C218 1.477 . S
C222 H239 0.932 . S
C223 U206 2.882 . S
C223 C217 1.428 . S
C223 O226 1.301 . S
C223 O227 1.282 . S
O224 U206 2.441 . S
O224 C210 1.249 . S
O225 U206 2.420 . S
O225 C210 1.202 . S
O226 U206 2.455 . S
O226 C223 1.301 . S
O227 U206 2.449 . S
O227 C223 1.282 . S
H228 C201 0.931 . S
H229 C203 0.929 . S
H230 C204 0.930 . S
H231 C205 0.931 . S
H232 C212 0.932 . S
H233 C213 0.930 . S
H234 C214 0.929 . S
H235 C216 0.930 . S
H236 C218 0.932 . S
H237 C219 0.929 . S
H238 C220 0.928 . S
H239 C222 0.932 . S
C240 C241 1.264 . S
C240 C245 1.479 . S
C240 C250 1.465 . S
C241 C240 1.264 . S
C241 C243 1.339 . S
C241 H268 0.931 . S
C242 C243 1.395 . S
C242 C244 1.320 . S
C243 C241 1.339 . S
C243 C242 1.395 . S
C243 H269 0.929 . S
C244 C242 1.320 . S
C244 C245 1.405 . S
C244 H270 0.930 . S
C245 C240 1.479 . S
C245 C244 1.405 . S
C245 H271 0.931 . S
U246 O247 2.454 . S
U246 O248 2.458 . S
U246 C249 2.984 . S
U246 C250 2.847 . S
U246 C263 2.882 . S
U246 O264 2.441 . S
U246 O265 2.420 . S
U246 O266 2.455 . S
U246 O267 2.449 . S
O247 U246 2.454 . S
O247 C249 1.353 . S
O248 U246 2.458 . S
O248 C249 1.286 . S
C249 U246 2.984 . S
C249 O247 1.353 . S
C249 O248 1.286 . S
C249 C251 1.363 . S
C250 C240 1.465 . S
C250 U246 2.847 . S
C250 O264 1.249 . S
C250 O265 1.202 . S
C251 C249 1.363 . S
C251 C253 1.408 . S
C251 C256 1.342 . S
C252 C253 1.310 . S
C252 C255 1.461 . S
C252 H272 0.932 . S
C253 C251 1.408 . S
C253 C252 1.310 . S
C253 H273 0.930 . S
C254 C255 1.474 . S
C254 C256 1.285 . S
C254 H274 0.929 . S
C255 C252 1.461 . S
C255 C254 1.474 . S
C256 C251 1.342 . S
C256 C254 1.285 . S
C256 H275 0.930 . S
C257 C260 1.424 . S
C257 C262 1.245 . S
C257 C263 1.428 . S
C258 C261 1.260 . S
C258 C262 1.477 . S
C258 H276 0.932 . S
C259 C260 1.384 . S
C259 C261 1.479 . S
C259 H277 0.929 . S
C260 C257 1.424 . S
C260 C259 1.384 . S
C260 H278 0.928 . S
C261 C258 1.260 . S
C261 C259 1.479 . S
C262 C257 1.245 . S
C262 C258 1.477 . S
C262 H279 0.932 . S
C263 U246 2.882 . S
C263 C257 1.428 . S
C263 O266 1.301 . S
C263 O267 1.282 . S
O264 U246 2.441 . S
O264 C250 1.249 . S
O265 U246 2.420 . S
O265 C250 1.202 . S
O266 U246 2.455 . S
O266 C263 1.301 . S
O267 U246 2.449 . S
O267 C263 1.282 . S
H268 C241 0.931 . S
H269 C243 0.929 . S
H270 C244 0.930 . S
H271 C245 0.931 . S
H272 C252 0.932 . S
H273 C253 0.930 . S
H274 C254 0.929 . S
H275 C256 0.930 . S
H276 C258 0.932 . S
H277 C259 0.929 . S
H278 C260 0.928 . S
H279 C262 0.932 . S
C280 C281 1.264 . S
C280 C285 1.479 . S
C280 C290 1.465 . S
C281 C280 1.264 . S
C281 C283 1.339 . S
C281 H308 0.931 . S
C282 C283 1.395 . S
C282 C284 1.320 . S
C283 C281 1.339 . S
C283 C282 1.395 . S
C283 H309 0.929 . S
C284 C282 1.320 . S
C284 C285 1.405 . S
C284 H310 0.930 . S
C285 C280 1.479 . S
C285 C284 1.405 . S
C285 H311 0.931 . S
U286 O287 2.454 . S
U286 O288 2.458 . S
U286 C289 2.984 . S
U286 C290 2.847 . S
U286 C303 2.882 . S
U286 O304 2.441 . S
U286 O305 2.420 . S
U286 O306 2.455 . S
U286 O307 2.449 . S
O287 U286 2.454 . S
O287 C289 1.353 . S
O288 U286 2.458 . S
O288 C289 1.286 . S
C289 U286 2.984 . S
C289 O287 1.353 . S
C289 O288 1.286 . S
C289 C291 1.363 . S
C290 C280 1.465 . S
C290 U286 2.847 . S
C290 O304 1.249 . S
C290 O305 1.202 . S
C291 C289 1.363 . S
C291 C293 1.408 . S
C291 C296 1.342 . S
C292 C293 1.310 . S
C292 C295 1.461 . S
C292 H312 0.932 . S
C293 C291 1.408 . S
C293 C292 1.310 . S
C293 H313 0.930 . S
C294 C295 1.474 . S
C294 C296 1.285 . S
C294 H314 0.929 . S
C295 C292 1.461 . S
C295 C294 1.474 . S
C296 C291 1.342 . S
C296 C294 1.285 . S
C296 H315 0.930 . S
C297 C300 1.424 . S
C297 C302 1.245 . S
C297 C303 1.428 . S
C298 C301 1.260 . S
C298 C302 1.477 . S
C298 H316 0.932 . S
C299 C300 1.384 . S
C299 C301 1.479 . S
C299 H317 0.929 . S
C300 C297 1.424 . S
C300 C299 1.384 . S
C300 H318 0.928 . S
C301 C298 1.260 . S
C301 C299 1.479 . S
C302 C297 1.245 . S
C302 C298 1.477 . S
C302 H319 0.932 . S
C303 U286 2.882 . S
C303 C297 1.428 . S
C303 O306 1.301 . S
C303 O307 1.282 . S
O304 U286 2.441 . S
O304 C290 1.249 . S
O305 U286 2.420 . S
O305 C290 1.202 . S
O306 U286 2.455 . S
O306 C303 1.301 . S
O307 U286 2.449 . S
O307 C303 1.282 . S
H308 C281 0.931 . S
H309 C283 0.929 . S
H310 C284 0.930 . S
H311 C285 0.931 . S
H312 C292 0.932 . S
H313 C293 0.930 . S
H314 C294 0.929 . S
H315 C296 0.930 . S
H316 C298 0.932 . S
H317 C299 0.929 . S
H318 C300 0.928 . S
H319 C302 0.932 . S
H320 C328 0.930 . S
H321 C331 0.930 . S
H322 C333 0.930 . S
H323 C334 0.970 . S
H324 C334 0.970 . S
H325 C336 0.930 . S
H326 C338 0.930 . S
H327 C340 0.930 . S
C328 H320 0.930 . S
C328 C329 1.382 . S
C328 C330 1.426 . S
C329 C328 1.382 . S
C329 C333 1.389 . S
C330 C328 1.426 . S
C330 C331 1.375 . S
C330 C334 1.532 1_655 S
C331 H321 0.930 . S
C331 C330 1.375 . S
C331 C332 1.416 . S
C332 C331 1.416 . S
C332 C333 1.371 . S
C333 H322 0.930 . S
C333 C329 1.389 . S
C333 C332 1.371 . S
C334 H323 0.970 . S
C334 H324 0.970 . S
C334 C330 1.532 1_455 S
C334 C335 1.499 . S
C335 C334 1.499 . S
C335 C336 1.370 . S
C335 C340 1.415 . S
C336 H325 0.930 . S
C336 C335 1.370 . S
C336 C337 1.407 . S
C337 C336 1.407 . S
C337 C338 1.365 . S
C338 H326 0.930 . S
C338 C337 1.365 . S
C338 C339 1.393 . S
C339 C338 1.393 . S
C339 C340 1.387 . S
C340 H327 0.930 . S
C340 C335 1.415 . S
C340 C339 1.387 . S
H341 C349 0.930 . S
H342 C352 0.930 . S
H343 C354 0.930 . S
H344 C355 0.970 . S
H345 C355 0.970 . S
H346 C357 0.930 . S
H347 C359 0.930 . S
H348 C361 0.930 . S
C349 H341 0.930 . S
C349 C350 1.382 . S
C349 C351 1.426 . S
C350 C349 1.382 . S
C350 C354 1.389 . S
C351 C349 1.426 . S
C351 C352 1.375 . S
C351 C355 1.532 . S
C352 H342 0.930 . S
C352 C351 1.375 . S
C352 C353 1.416 . S
C353 C352 1.416 . S
C353 C354 1.371 . S
C354 H343 0.930 . S
C354 C350 1.389 . S
C354 C353 1.371 . S
C355 H344 0.970 . S
C355 H345 0.970 . S
C355 C351 1.532 . S
C355 C356 1.499 1_455 S
C356 C355 1.499 1_655 S
C356 C357 1.370 . S
C356 C361 1.415 . S
C357 H346 0.930 . S
C357 C356 1.370 . S
C357 C358 1.407 . S
C358 C357 1.407 . S
C358 C359 1.365 . S
C359 H347 0.930 . S
C359 C358 1.365 . S
C359 C360 1.393 . S
C360 C359 1.393 . S
C360 C361 1.387 . S
C361 H348 0.930 . S
C361 C356 1.415 . S
C361 C360 1.387 . S
H362 C370 0.930 . S
H363 C373 0.930 . S
H364 C375 0.930 . S
H365 C376 0.970 . S
H366 C376 0.970 . S
H367 C378 0.930 . S
H368 C380 0.930 . S
H369 C382 0.930 . S
C370 H362 0.930 . S
C370 C371 1.382 . S
C370 C372 1.426 . S
C371 C370 1.382 . S
C371 C375 1.389 . S
C372 C370 1.426 . S
C372 C373 1.375 . S
C372 C376 1.532 . S
C373 H363 0.930 . S
C373 C372 1.375 . S
C373 C374 1.416 . S
C374 C373 1.416 . S
C374 C375 1.371 . S
C375 H364 0.930 . S
C375 C371 1.389 . S
C375 C374 1.371 . S
C376 H365 0.970 . S
C376 H366 0.970 . S
C376 C372 1.532 . S
C376 C377 1.499 1_545 S
C377 C376 1.499 1_565 S
C377 C378 1.370 . S
C377 C382 1.415 . S
C378 H367 0.930 . S
C378 C377 1.370 . S
C378 C379 1.407 . S
C379 C378 1.407 . S
C379 C380 1.365 . S
C380 H368 0.930 . S
C380 C379 1.365 . S
C380 C381 1.393 . S
C381 C380 1.393 . S
C381 C382 1.387 . S
C382 H369 0.930 . S
C382 C377 1.415 . S
C382 C381 1.387 . S
H383 C391 0.930 . S
H384 C394 0.930 . S
H385 C396 0.930 . S
H386 C397 0.970 1_556 S
H387 C397 0.970 . S
H388 C399 0.930 . S
H389 C401 0.930 . S
H390 C403 0.930 . S
C391 H383 0.930 . S
C391 C392 1.382 . S
C391 C393 1.426 1_556 S
C392 C391 1.382 . S
C392 C396 1.389 1_556 S
C393 C391 1.426 1_554 S
C393 C394 1.375 . S
C393 C397 1.532 . S
C394 H384 0.930 . S
C394 C393 1.375 . S
C394 C395 1.416 . S
C395 C394 1.416 . S
C395 C396 1.371 . S
C396 H385 0.930 . S
C396 C392 1.389 1_554 S
C396 C395 1.371 . S
C397 H386 0.970 1_554 S
C397 H387 0.970 . S
C397 C393 1.532 . S
C397 C398 1.499 . S
C398 C397 1.499 . S
C398 C399 1.370 1_554 S
C398 C403 1.415 . S
C399 H388 0.930 . S
C399 C398 1.370 1_556 S
C399 C400 1.407 . S
C400 C399 1.407 . S
C400 C401 1.365 1_556 S
C401 H389 0.930 . S
C401 C400 1.365 1_554 S
C401 C402 1.393 . S
C402 C401 1.393 . S
C402 C403 1.387 . S
C403 H390 0.930 . S
C403 C398 1.415 . S
C403 C402 1.387 . S
H404 C412 0.930 . S
H405 C415 0.930 . S
H406 C417 0.930 . S
H407 C418 0.970 . S
H408 C418 0.970 . S
H409 C420 0.930 . S
H410 C422 0.930 . S
H411 C424 0.930 . S
C412 H404 0.930 . S
C412 C413 1.382 . S
C412 C414 1.426 . S
C413 C412 1.382 . S
C413 C417 1.389 . S
C414 C412 1.426 . S
C414 C415 1.375 . S
C414 C418 1.532 . S
C415 H405 0.930 . S
C415 C414 1.375 . S
C415 C416 1.416 . S
C416 C415 1.416 . S
C416 C417 1.371 . S
C417 H406 0.930 . S
C417 C413 1.389 . S
C417 C416 1.371 . S
C418 H407 0.970 . S
C418 H408 0.970 . S
C418 C414 1.532 . S
C418 C419 1.499 1_545 S
C419 C418 1.499 1_565 S
C419 C420 1.370 . S
C419 C424 1.415 . S
C420 H409 0.930 . S
C420 C419 1.370 . S
C420 C421 1.407 . S
C421 C420 1.407 . S
C421 C422 1.365 . S
C422 H410 0.930 . S
C422 C421 1.365 . S
C422 C423 1.393 . S
C423 C422 1.393 . S
C423 C424 1.387 . S
C424 H411 0.930 . S
C424 C419 1.415 . S
C424 C423 1.387 . S
H425 C433 0.930 . S
H426 C436 0.930 . S
H427 C438 0.930 . S
H428 C439 0.970 . S
H429 C439 0.970 1_554 S
H430 C441 0.930 . S
H431 C443 0.930 . S
H432 C445 0.930 . S
C433 H425 0.930 . S
C433 C434 1.382 . S
C433 C435 1.426 . S
C434 C433 1.382 . S
C434 C438 1.389 . S
C435 C433 1.426 . S
C435 C436 1.375 1_556 S
C435 C439 1.532 . S
C436 H426 0.930 . S
C436 C435 1.375 1_554 S
C436 C437 1.416 . S
C437 C436 1.416 . S
C437 C438 1.371 1_554 S
C438 H427 0.930 . S
C438 C434 1.389 . S
C438 C437 1.371 1_556 S
C439 H428 0.970 . S
C439 H429 0.970 1_556 S
C439 C435 1.532 . S
C439 C440 1.499 1_556 S
C440 C439 1.499 1_554 S
C440 C441 1.369 1_554 S
C440 C445 1.417 . S
C441 H430 0.930 . S
C441 C440 1.369 1_556 S
C441 C442 1.407 . S
C442 C441 1.407 . S
C442 C443 1.365 1_556 S
C443 H431 0.930 . S
C443 C442 1.365 1_554 S
C443 C444 1.393 . S
C444 C443 1.393 . S
C444 C445 1.387 . S
C445 H432 0.930 . S
C445 C440 1.417 . S
C445 C444 1.387 . S
H446 C454 0.950 . S
H447 C459 0.950 . S
H448 C456 0.950 . S
H449 C458 0.950 . S
H450 C460 0.950 . S
H451 C462 0.950 . S
H452 C464 0.950 . S
H453 C465 0.950 . S
C454 H446 0.950 . S
C454 C455 1.386 . S
C454 C456 1.391 . S
C455 C454 1.386 . S
C455 C459 1.393 . S
C456 H448 0.950 . S
C456 C454 1.391 . S
C456 C457 1.400 . S
C457 C456 1.400 . S
C457 C458 1.398 . S
C457 C463 1.491 . S
C458 H449 0.950 . S
C458 C457 1.398 . S
C458 C459 1.391 . S
C459 H447 0.950 . S
C459 C455 1.393 . S
C459 C458 1.391 . S
C460 H450 0.950 . S
C460 C461 1.386 . S
C460 C462 1.391 . S
C461 C460 1.386 . S
C461 C465 1.393 . S
C462 H451 0.950 . S
C462 C460 1.391 . S
C462 C463 1.400 . S
C463 C457 1.491 . S
C463 C462 1.400 . S
C463 C464 1.398 . S
C464 H452 0.950 . S
C464 C463 1.398 . S
C464 C465 1.391 . S
C465 H453 0.950 . S
C465 C461 1.393 . S
C465 C464 1.391 . S
H466 C474 0.950 . S
H467 C479 0.950 . S
H468 C476 0.950 . S
H469 C478 0.950 . S
H470 C480 0.950 . S
H471 C482 0.950 . S
H472 C484 0.950 . S
H473 C485 0.950 . S
C474 H466 0.950 . S
C474 C475 1.386 . S
C474 C476 1.391 . S
C475 C474 1.386 . S
C475 C479 1.393 . S
C476 H468 0.950 . S
C476 C474 1.391 . S
C476 C477 1.400 . S
C477 C476 1.400 . S
C477 C478 1.398 . S
C477 C483 1.491 . S
C478 H469 0.950 . S
C478 C477 1.398 . S
C478 C479 1.391 . S
C479 H467 0.950 . S
C479 C475 1.393 . S
C479 C478 1.391 . S
C480 H470 0.950 . S
C480 C481 1.386 . S
C480 C482 1.391 . S
C481 C480 1.386 . S
C481 C485 1.393 . S
C482 H471 0.950 . S
C482 C480 1.391 . S
C482 C483 1.400 . S
C483 C477 1.491 . S
C483 C482 1.400 . S
C483 C484 1.398 . S
C484 H472 0.950 . S
C484 C483 1.398 . S
C484 C485 1.391 . S
C485 H473 0.950 . S
C485 C481 1.393 . S
C485 C484 1.391 . S
H486 C494 0.950 . S
H487 C499 0.950 . S
H488 C496 0.950 . S
H489 C498 0.950 . S
H490 C500 0.950 . S
H491 C502 0.950 . S
H492 C504 0.950 . S
H493 C505 0.950 . S
C494 H486 0.950 . S
C494 C495 1.386 . S
C494 C496 1.391 . S
C495 C494 1.386 . S
C495 C499 1.393 . S
C496 H488 0.950 . S
C496 C494 1.391 . S
C496 C497 1.400 . S
C497 C496 1.400 . S
C497 C498 1.398 . S
C497 C503 1.491 . S
C498 H489 0.950 . S
C498 C497 1.398 . S
C498 C499 1.391 . S
C499 H487 0.950 . S
C499 C495 1.393 . S
C499 C498 1.391 . S
C500 H490 0.950 . S
C500 C501 1.386 . S
C500 C502 1.391 . S
C501 C500 1.386 . S
C501 C505 1.393 . S
C502 H491 0.950 . S
C502 C500 1.391 . S
C502 C503 1.400 . S
C503 C497 1.491 . S
C503 C502 1.400 . S
C503 C504 1.398 . S
C504 H492 0.950 . S
C504 C503 1.398 . S
C504 C505 1.391 . S
C505 H493 0.950 . S
C505 C501 1.393 . S
C505 C504 1.391 . S
H506 C514 0.950 . S
H507 C519 0.950 . S
H508 C516 0.950 . S
H509 C518 0.950 . S
H510 C520 0.950 . S
H511 C522 0.950 . S
H512 C524 0.950 . S
H513 C525 0.950 . S
C514 H506 0.950 . S
C514 C515 1.386 . S
C514 C516 1.391 . S
C515 C514 1.386 . S
C515 C519 1.393 . S
C516 H508 0.950 . S
C516 C514 1.391 . S
C516 C517 1.400 . S
C517 C516 1.400 . S
C517 C518 1.398 . S
C517 C523 1.491 . S
C518 H509 0.950 . S
C518 C517 1.398 . S
C518 C519 1.391 . S
C519 H507 0.950 . S
C519 C515 1.393 . S
C519 C518 1.391 . S
C520 H510 0.950 . S
C520 C521 1.386 . S
C520 C522 1.391 . S
C521 C520 1.386 . S
C521 C525 1.393 . S
C522 H511 0.950 . S
C522 C520 1.391 . S
C522 C523 1.400 . S
C523 C517 1.491 . S
C523 C522 1.400 . S
C523 C524 1.398 . S
C524 H512 0.950 . S
C524 C523 1.398 . S
C524 C525 1.391 . S
C525 H513 0.950 . S
C525 C521 1.393 . S
C525 C524 1.391 . S
H526 C534 0.950 . S
H527 C539 0.950 . S
H528 C536 0.950 . S
H529 C538 0.950 . S
H530 C540 0.950 . S
H531 C542 0.950 . S
H532 C544 0.950 . S
H533 C545 0.950 . S
C534 H526 0.950 . S
C534 C535 1.386 . S
C534 C536 1.391 . S
C535 C534 1.386 . S
C535 C539 1.393 . S
C536 H528 0.950 . S
C536 C534 1.391 . S
C536 C537 1.400 . S
C537 C536 1.400 . S
C537 C538 1.398 . S
C537 C543 1.491 . S
C538 H529 0.950 . S
C538 C537 1.398 . S
C538 C539 1.391 . S
C539 H527 0.950 . S
C539 C535 1.393 . S
C539 C538 1.391 . S
C540 H530 0.950 . S
C540 C541 1.386 . S
C540 C542 1.391 . S
C541 C540 1.386 . S
C541 C545 1.393 . S
C542 H531 0.950 . S
C542 C540 1.391 . S
C542 C543 1.400 . S
C543 C537 1.491 . S
C543 C542 1.400 . S
C543 C544 1.398 . S
C544 H532 0.950 . S
C544 C543 1.398 . S
C544 C545 1.391 . S
C545 H533 0.950 . S
C545 C541 1.393 . S
C545 C544 1.391 . S
H546 C554 0.950 . S
H547 C559 0.950 . S
H548 C556 0.950 . S
H549 C558 0.950 . S
H550 C560 0.950 . S
H551 C562 0.950 . S
H552 C564 0.950 . S
H553 C565 0.950 . S
C554 H546 0.950 . S
C554 C555 1.386 . S
C554 C556 1.391 . S
C555 C554 1.386 . S
C555 C559 1.393 . S
C556 H548 0.950 . S
C556 C554 1.391 . S
C556 C557 1.400 . S
C557 C556 1.400 . S
C557 C558 1.398 . S
C557 C563 1.491 . S
C558 H549 0.950 . S
C558 C557 1.398 . S
C558 C559 1.391 . S
C559 H547 0.950 . S
C559 C555 1.393 . S
C559 C558 1.391 . S
C560 H550 0.950 . S
C560 C561 1.386 . S
C560 C562 1.391 . S
C561 C560 1.386 . S
C561 C565 1.393 . S
C562 H551 0.950 . S
C562 C560 1.391 . S
C562 C563 1.400 . S
C563 C557 1.491 . S
C563 C562 1.400 . S
C563 C564 1.398 . S
C564 H552 0.950 . S
C564 C563 1.398 . S
C564 C565 1.391 . S
C565 H553 0.950 . S
C565 C561 1.393 . S
C565 C564 1.391 . S
H566 C574 0.950 . S
H567 C579 0.950 . S
H568 C576 0.950 . S
H569 C578 0.950 . S
H570 C580 0.950 . S
H571 C582 0.950 . S
H572 C584 0.950 . S
H573 C585 0.950 . S
C574 H566 0.950 . S
C574 C575 1.386 . S
C574 C576 1.391 . S
C575 C574 1.386 . S
C575 C579 1.393 . S
C576 H568 0.950 . S
C576 C574 1.391 . S
C576 C577 1.400 . S
C577 C576 1.400 . S
C577 C578 1.398 . S
C577 C583 1.491 . S
C578 H569 0.950 . S
C578 C577 1.398 . S
C578 C579 1.391 . S
C579 H567 0.950 . S
C579 C575 1.393 . S
C579 C578 1.391 . S
C580 H570 0.950 . S
C580 C581 1.386 . S
C580 C582 1.391 . S
C581 C580 1.386 . S
C581 C585 1.393 . S
C582 H571 0.950 . S
C582 C580 1.391 . S
C582 C583 1.400 . S
C583 C577 1.491 . S
C583 C582 1.400 . S
C583 C584 1.398 . S
C584 H572 0.950 . S
C584 C583 1.398 . S
C584 C585 1.391 . S
C585 H573 0.950 . S
C585 C581 1.393 . S
C585 C584 1.391 . S
H586 C594 0.950 . S
H587 C599 0.950 . S
H588 C596 0.950 . S
H589 C598 0.950 . S
H590 C600 0.950 . S
H591 C602 0.950 . S
H592 C604 0.950 . S
H593 C605 0.950 . S
C594 H586 0.950 . S
C594 C595 1.386 . S
C594 C596 1.391 . S
C595 C594 1.386 . S
C595 C599 1.393 . S
C596 H588 0.950 . S
C596 C594 1.391 . S
C596 C597 1.400 . S
C597 C596 1.400 . S
C597 C598 1.398 . S
C597 C603 1.491 . S
C598 H589 0.950 . S
C598 C597 1.398 . S
C598 C599 1.391 . S
C599 H587 0.950 . S
C599 C595 1.393 . S
C599 C598 1.391 . S
C600 H590 0.950 . S
C600 C601 1.386 . S
C600 C602 1.391 . S
C601 C600 1.386 . S
C601 C605 1.393 . S
C602 H591 0.950 . S
C602 C600 1.391 . S
C602 C603 1.400 . S
C603 C597 1.491 . S
C603 C602 1.400 . S
C603 C604 1.398 . S
C604 H592 0.950 . S
C604 C603 1.398 . S
C604 C605 1.391 . S
C605 H593 0.950 . S
C605 C601 1.393 . S
C605 C604 1.391 . S
H606 C614 0.950 . S
H607 C619 0.950 . S
H608 C616 0.950 . S
H609 C618 0.950 . S
H610 C620 0.950 . S
H611 C622 0.950 . S
H612 C624 0.950 . S
H613 C625 0.950 . S
C614 H606 0.950 . S
C614 C615 1.386 . S
C614 C616 1.391 . S
C615 C614 1.386 . S
C615 C619 1.393 . S
C616 H608 0.950 . S
C616 C614 1.391 . S
C616 C617 1.400 . S
C617 C616 1.400 . S
C617 C618 1.398 . S
C617 C623 1.491 . S
C618 H609 0.950 . S
C618 C617 1.398 . S
C618 C619 1.391 . S
C619 H607 0.950 . S
C619 C615 1.393 . S
C619 C618 1.391 . S
C620 H610 0.950 . S
C620 C621 1.386 . S
C620 C622 1.391 . S
C621 C620 1.386 . S
C621 C625 1.393 . S
C622 H611 0.950 . S
C622 C620 1.391 . S
C622 C623 1.400 . S
C623 C617 1.491 . S
C623 C622 1.400 . S
C623 C624 1.398 . S
C624 H612 0.950 . S
C624 C623 1.398 . S
C624 C625 1.391 . S
C625 H613 0.950 . S
C625 C621 1.393 . S
C625 C624 1.391 . S
H626 C634 0.950 . S
H627 C639 0.950 . S
H628 C636 0.950 . S
H629 C638 0.950 . S
H630 C640 0.950 . S
H631 C642 0.950 . S
H632 C644 0.950 . S
H633 C645 0.950 . S
C634 H626 0.950 . S
C634 C635 1.386 . S
C634 C636 1.391 . S
C635 C634 1.386 . S
C635 C639 1.393 . S
C636 H628 0.950 . S
C636 C634 1.391 . S
C636 C637 1.400 . S
C637 C636 1.400 . S
C637 C638 1.398 . S
C637 C643 1.491 . S
C638 H629 0.950 . S
C638 C637 1.398 . S
C638 C639 1.391 . S
C639 H627 0.950 . S
C639 C635 1.393 . S
C639 C638 1.391 . S
C640 H630 0.950 . S
C640 C641 1.386 . S
C640 C642 1.391 . S
C641 C640 1.386 . S
C641 C645 1.393 . S
C642 H631 0.950 . S
C642 C640 1.391 . S
C642 C643 1.400 . S
C643 C637 1.491 . S
C643 C642 1.400 . S
C643 C644 1.398 . S
C644 H632 0.950 . S
C644 C643 1.398 . S
C644 C645 1.391 . S
C645 H633 0.950 . S
C645 C641 1.393 . S
C645 C644 1.391 . S
H646 C654 0.950 . S
H647 C659 0.950 . S
H648 C656 0.950 . S
H649 C658 0.950 . S
H650 C660 0.950 . S
H651 C662 0.950 . S
H652 C664 0.950 . S
H653 C665 0.950 . S
C654 H646 0.950 . S
C654 C655 1.386 . S
C654 C656 1.391 . S
C655 C654 1.386 . S
C655 C659 1.393 . S
C656 H648 0.950 . S
C656 C654 1.391 . S
C656 C657 1.400 . S
C657 C656 1.400 . S
C657 C658 1.398 . S
C657 C663 1.491 . S
C658 H649 0.950 . S
C658 C657 1.398 . S
C658 C659 1.391 . S
C659 H647 0.950 . S
C659 C655 1.393 . S
C659 C658 1.391 . S
C660 H650 0.950 . S
C660 C661 1.386 . S
C660 C662 1.391 . S
C661 C660 1.386 . S
C661 C665 1.393 . S
C662 H651 0.950 . S
C662 C660 1.391 . S
C662 C663 1.400 . S
C663 C657 1.491 . S
C663 C662 1.400 . S
C663 C664 1.398 . S
C664 H652 0.950 . S
C664 C663 1.398 . S
C664 C665 1.391 . S
C665 H653 0.950 . S
C665 C661 1.393 . S
C665 C664 1.391 . S
H666 C674 0.950 . S
H667 C679 0.950 . S
H668 C676 0.950 . S
H669 C678 0.950 . S
H670 C680 0.950 . S
H671 C682 0.950 . S
H672 C684 0.950 . S
H673 C685 0.950 . S
C674 H666 0.950 . S
C674 C675 1.386 . S
C674 C676 1.391 . S
C675 C674 1.386 . S
C675 C679 1.393 . S
C676 H668 0.950 . S
C676 C674 1.391 . S
C676 C677 1.400 . S
C677 C676 1.400 . S
C677 C678 1.398 . S
C677 C683 1.491 . S
C678 H669 0.950 . S
C678 C677 1.398 . S
C678 C679 1.391 . S
C679 H667 0.950 . S
C679 C675 1.393 . S
C679 C678 1.391 . S
C680 H670 0.950 . S
C680 C681 1.386 . S
C680 C682 1.391 . S
C681 C680 1.386 . S
C681 C685 1.393 . S
C682 H671 0.950 . S
C682 C680 1.391 . S
C682 C683 1.400 . S
C683 C677 1.491 . S
C683 C682 1.400 . S
C683 C684 1.398 . S
C684 H672 0.950 . S
C684 C683 1.398 . S
C684 C685 1.391 . S
C685 H673 0.950 . S
C685 C681 1.393 . S
C685 C684 1.391 . S
H686 C694 0.950 . S
H687 C699 0.950 . S
H688 C696 0.950 . S
H689 C698 0.950 . S
H690 C700 0.950 . S
H691 C702 0.950 . S
H692 C704 0.950 . S
H693 C705 0.950 . S
C694 H686 0.950 . S
C694 C695 1.386 . S
C694 C696 1.391 . S
C695 C694 1.386 . S
C695 C699 1.393 . S
C696 H688 0.950 . S
C696 C694 1.391 . S
C696 C697 1.400 . S
C697 C696 1.400 . S
C697 C698 1.398 . S
C697 C703 1.491 . S
C698 H689 0.950 . S
C698 C697 1.398 . S
C698 C699 1.391 . S
C699 H687 0.950 . S
C699 C695 1.393 . S
C699 C698 1.391 . S
C700 H690 0.950 . S
C700 C701 1.386 . S
C700 C702 1.391 . S
C701 C700 1.386 . S
C701 C705 1.393 . S
C702 H691 0.950 . S
C702 C700 1.391 . S
C702 C703 1.400 . S
C703 C697 1.491 . S
C703 C702 1.400 . S
C703 C704 1.398 . S
C704 H692 0.950 . S
C704 C703 1.398 . S
C704 C705 1.391 . S
C705 H693 0.950 . S
C705 C701 1.393 . S
C705 C704 1.391 . S
H706 C714 0.950 . S
H707 C719 0.950 . S
H708 C716 0.950 . S
H709 C718 0.950 . S
H710 C720 0.950 . S
H711 C722 0.950 . S
H712 C724 0.950 . S
H713 C725 0.950 . S
C714 H706 0.950 . S
C714 C715 1.386 . S
C714 C716 1.391 . S
C715 C714 1.386 . S
C715 C719 1.393 . S
C716 H708 0.950 . S
C716 C714 1.391 . S
C716 C717 1.400 . S
C717 C716 1.400 . S
C717 C718 1.398 . S
C717 C723 1.491 . S
C718 H709 0.950 . S
C718 C717 1.398 . S
C718 C719 1.391 . S
C719 H707 0.950 . S
C719 C715 1.393 . S
C719 C718 1.391 . S
C720 H710 0.950 . S
C720 C721 1.386 . S
C720 C722 1.391 . S
C721 C720 1.386 . S
C721 C725 1.393 . S
C722 H711 0.950 . S
C722 C720 1.391 . S
C722 C723 1.400 . S
C723 C717 1.491 . S
C723 C722 1.400 . S
C723 C724 1.398 . S
C724 H712 0.950 . S
C724 C723 1.398 . S
C724 C725 1.391 . S
C725 H713 0.950 . S
C725 C721 1.393 . S
C725 C724 1.391 . S
H726 C734 0.950 . S
H727 C739 0.950 . S
H728 C736 0.950 . S
H729 C738 0.950 . S
H730 C740 0.950 . S
H731 C742 0.950 . S
H732 C744 0.950 . S
H733 C745 0.950 . S
C734 H726 0.950 . S
C734 C735 1.386 . S
C734 C736 1.391 . S
C735 C734 1.386 . S
C735 C739 1.393 . S
C736 H728 0.950 . S
C736 C734 1.391 . S
C736 C737 1.400 . S
C737 C736 1.400 . S
C737 C738 1.398 . S
C737 C743 1.491 . S
C738 H729 0.950 . S
C738 C737 1.398 . S
C738 C739 1.391 . S
C739 H727 0.950 . S
C739 C735 1.393 . S
C739 C738 1.391 . S
C740 H730 0.950 . S
C740 C741 1.386 . S
C740 C742 1.391 . S
C741 C740 1.386 . S
C741 C745 1.393 . S
C742 H731 0.950 . S
C742 C740 1.391 . S
C742 C743 1.400 . S
C743 C737 1.491 . S
C743 C742 1.400 . S
C743 C744 1.398 . S
C744 H732 0.950 . S
C744 C743 1.398 . S
C744 C745 1.391 . S
C745 H733 0.950 . S
C745 C741 1.393 . S
C745 C744 1.391 . S
H746 C754 0.950 . S
H747 C759 0.950 . S
H748 C756 0.950 . S
H749 C758 0.950 . S
H750 C760 0.950 . S
H751 C762 0.950 . S
H752 C764 0.950 . S
H753 C765 0.950 . S
C754 H746 0.950 . S
C754 C755 1.386 . S
C754 C756 1.391 . S
C755 C754 1.386 . S
C755 C759 1.393 . S
C756 H748 0.950 . S
C756 C754 1.391 . S
C756 C757 1.400 . S
C757 C756 1.400 . S
C757 C758 1.398 . S
C757 C763 1.491 . S
C758 H749 0.950 . S
C758 C757 1.398 . S
C758 C759 1.391 . S
C759 H747 0.950 . S
C759 C755 1.393 . S
C759 C758 1.391 . S
C760 H750 0.950 . S
C760 C761 1.386 . S
C760 C762 1.391 . S
C761 C760 1.386 . S
C761 C765 1.393 . S
C762 H751 0.950 . S
C762 C760 1.391 . S
C762 C763 1.400 . S
C763 C757 1.491 . S
C763 C762 1.400 . S
C763 C764 1.398 . S
C764 H752 0.950 . S
C764 C763 1.398 . S
C764 C765 1.391 . S
C765 H753 0.950 . S
C765 C761 1.393 . S
C765 C764 1.391 . S
H766 C774 0.950 . S
H767 C779 0.950 . S
H768 C776 0.950 . S
H769 C778 0.950 . S
H770 C780 0.950 . S
H771 C782 0.950 . S
H772 C784 0.950 . S
H773 C785 0.950 . S
C774 H766 0.950 . S
C774 C775 1.386 . S
C774 C776 1.391 . S
C775 C774 1.386 . S
C775 C779 1.393 . S
C776 H768 0.950 . S
C776 C774 1.391 . S
C776 C777 1.400 . S
C777 C776 1.400 . S
C777 C778 1.398 . S
C777 C783 1.491 . S
C778 H769 0.950 . S
C778 C777 1.398 . S
C778 C779 1.391 . S
C779 H767 0.950 . S
C779 C775 1.393 . S
C779 C778 1.391 . S
C780 H770 0.950 . S
C780 C781 1.386 . S
C780 C782 1.391 . S
C781 C780 1.386 . S
C781 C785 1.393 . S
C782 H771 0.950 . S
C782 C780 1.391 . S
C782 C783 1.400 . S
C783 C777 1.491 . S
C783 C782 1.400 . S
C783 C784 1.398 . S
C784 H772 0.950 . S
C784 C783 1.398 . S
C784 C785 1.391 . S
C785 H773 0.950 . S
C785 C781 1.393 . S
C785 C784 1.391 . S
H786 C794 0.950 . S
H787 C799 0.950 . S
H788 C796 0.950 . S
H789 C798 0.950 . S
H790 C800 0.950 . S
H791 C802 0.950 . S
H792 C804 0.950 . S
H793 C805 0.950 . S
C794 H786 0.950 . S
C794 C795 1.386 . S
C794 C796 1.391 . S
C795 C794 1.386 . S
C795 C799 1.393 . S
C796 H788 0.950 . S
C796 C794 1.391 . S
C796 C797 1.400 . S
C797 C796 1.400 . S
C797 C798 1.398 . S
C797 C803 1.491 . S
C798 H789 0.950 . S
C798 C797 1.398 . S
C798 C799 1.391 . S
C799 H787 0.950 . S
C799 C795 1.393 . S
C799 C798 1.391 . S
C800 H790 0.950 . S
C800 C801 1.386 . S
C800 C802 1.391 . S
C801 C800 1.386 . S
C801 C805 1.393 . S
C802 H791 0.950 . S
C802 C800 1.391 . S
C802 C803 1.400 . S
C803 C797 1.491 . S
C803 C802 1.400 . S
C803 C804 1.398 . S
C804 H792 0.950 . S
C804 C803 1.398 . S
C804 C805 1.391 . S
C805 H793 0.950 . S
C805 C801 1.393 . S
C805 C804 1.391 . S
H806 C814 0.950 . S
H807 C819 0.950 . S
H808 C816 0.950 . S
H809 C818 0.950 . S
H810 C820 0.950 . S
H811 C822 0.950 . S
H812 C824 0.950 . S
H813 C825 0.950 . S
C814 H806 0.950 . S
C814 C815 1.386 . S
C814 C816 1.391 . S
C815 C814 1.386 . S
C815 C819 1.393 . S
C816 H808 0.950 . S
C816 C814 1.391 . S
C816 C817 1.400 . S
C817 C816 1.400 . S
C817 C818 1.398 . S
C817 C823 1.491 . S
C818 H809 0.950 . S
C818 C817 1.398 . S
C818 C819 1.391 . S
C819 H807 0.950 . S
C819 C815 1.393 . S
C819 C818 1.391 . S
C820 H810 0.950 . S
C820 C821 1.386 . S
C820 C822 1.391 . S
C821 C820 1.386 . S
C821 C825 1.393 . S
C822 H811 0.950 . S
C822 C820 1.391 . S
C822 C823 1.400 . S
C823 C817 1.491 . S
C823 C822 1.400 . S
C823 C824 1.398 . S
C824 H812 0.950 . S
C824 C823 1.398 . S
C824 C825 1.391 . S
C825 H813 0.950 . S
C825 C821 1.393 . S
C825 C824 1.391 . S
H826 C834 0.950 . S
H827 C839 0.950 . S
H828 C836 0.950 . S
H829 C838 0.950 . S
H830 C840 0.950 . S
H831 C842 0.950 . S
H832 C844 0.950 . S
H833 C845 0.950 . S
C834 H826 0.950 . S
C834 C835 1.386 . S
C834 C836 1.391 . S
C835 C834 1.386 . S
C835 C839 1.393 . S
C836 H828 0.950 . S
C836 C834 1.391 . S
C836 C837 1.400 . S
C837 C836 1.400 . S
C837 C838 1.398 . S
C837 C843 1.491 . S
C838 H829 0.950 . S
C838 C837 1.398 . S
C838 C839 1.391 . S
C839 H827 0.950 . S
C839 C835 1.393 . S
C839 C838 1.391 . S
C840 H830 0.950 . S
C840 C841 1.386 . S
C840 C842 1.391 . S
C841 C840 1.386 . S
C841 C845 1.393 . S
C842 H831 0.950 . S
C842 C840 1.391 . S
C842 C843 1.400 . S
C843 C837 1.491 . S
C843 C842 1.400 . S
C843 C844 1.398 . S
C844 H832 0.950 . S
C844 C843 1.398 . S
C844 C845 1.391 . S
C845 H833 0.950 . S
C845 C841 1.393 . S
C845 C844 1.391 . S
H846 C854 0.950 . S
H847 C859 0.950 . S
H848 C856 0.950 . S
H849 C858 0.950 . S
H850 C860 0.950 . S
H851 C862 0.950 . S
H852 C864 0.950 . S
H853 C865 0.950 . S
C854 H846 0.950 . S
C854 C855 1.386 . S
C854 C856 1.391 . S
C855 C854 1.386 . S
C855 C859 1.393 . S
C856 H848 0.950 . S
C856 C854 1.391 . S
C856 C857 1.400 . S
C857 C856 1.400 . S
C857 C858 1.398 . S
C857 C863 1.491 . S
C858 H849 0.950 . S
C858 C857 1.398 . S
C858 C859 1.391 . S
C859 H847 0.950 . S
C859 C855 1.393 . S
C859 C858 1.391 . S
C860 H850 0.950 . S
C860 C861 1.386 . S
C860 C862 1.391 . S
C861 C860 1.386 . S
C861 C865 1.393 . S
C862 H851 0.950 . S
C862 C860 1.391 . S
C862 C863 1.400 . S
C863 C857 1.491 . S
C863 C862 1.400 . S
C863 C864 1.398 . S
C864 H852 0.950 . S
C864 C863 1.398 . S
C864 C865 1.391 . S
C865 H853 0.950 . S
C865 C861 1.393 . S
C865 C864 1.391 . S
H866 C874 0.950 . S
H867 C879 0.950 . S
H868 C876 0.950 . S
H869 C878 0.950 . S
H870 C880 0.950 . S
H871 C882 0.950 . S
H872 C884 0.950 . S
H873 C885 0.950 . S
C874 H866 0.950 . S
C874 C875 1.386 . S
C874 C876 1.391 . S
C875 C874 1.386 . S
C875 C879 1.393 . S
C876 H868 0.950 . S
C876 C874 1.391 . S
C876 C877 1.400 . S
C877 C876 1.400 . S
C877 C878 1.398 . S
C877 C883 1.491 . S
C878 H869 0.950 . S
C878 C877 1.398 . S
C878 C879 1.391 . S
C879 H867 0.950 . S
C879 C875 1.393 . S
C879 C878 1.391 . S
C880 H870 0.950 . S
C880 C881 1.386 . S
C880 C882 1.391 . S
C881 C880 1.386 . S
C881 C885 1.393 . S
C882 H871 0.950 . S
C882 C880 1.391 . S
C882 C883 1.400 . S
C883 C877 1.491 . S
C883 C882 1.400 . S
C883 C884 1.398 . S
C884 H872 0.950 . S
C884 C883 1.398 . S
C884 C885 1.391 . S
C885 H873 0.950 . S
C885 C881 1.393 . S
C885 C884 1.391 . S
H886 C894 0.950 . S
H887 C899 0.950 . S
H888 C896 0.950 . S
H889 C898 0.950 . S
H890 C900 0.950 . S
H891 C902 0.950 . S
H892 C904 0.950 . S
H893 C905 0.950 . S
C894 H886 0.950 . S
C894 C895 1.386 . S
C894 C896 1.391 . S
C895 C894 1.386 . S
C895 C899 1.393 . S
C896 H888 0.950 . S
C896 C894 1.391 . S
C896 C897 1.400 . S
C897 C896 1.400 . S
C897 C898 1.398 . S
C897 C903 1.491 . S
C898 H889 0.950 . S
C898 C897 1.398 . S
C898 C899 1.391 . S
C899 H887 0.950 . S
C899 C895 1.393 . S
C899 C898 1.391 . S
C900 H890 0.950 . S
C900 C901 1.386 . S
C900 C902 1.391 . S
C901 C900 1.386 . S
C901 C905 1.393 . S
C902 H891 0.950 . S
C902 C900 1.391 . S
C902 C903 1.400 . S
C903 C897 1.491 . S
C903 C902 1.400 . S
C903 C904 1.398 . S
C904 H892 0.950 . S
C904 C903 1.398 . S
C904 C905 1.391 . S
C905 H893 0.950 . S
C905 C901 1.393 . S
C905 C904 1.391 . S
H906 C914 0.950 . S
H907 C919 0.950 . S
H908 C916 0.950 . S
H909 C918 0.950 . S
H910 C920 0.950 . S
H911 C922 0.950 . S
H912 C924 0.950 . S
H913 C925 0.950 . S
C914 H906 0.950 . S
C914 C915 1.386 . S
C914 C916 1.391 . S
C915 C914 1.386 . S
C915 C919 1.393 . S
C916 H908 0.950 . S
C916 C914 1.391 . S
C916 C917 1.400 . S
C917 C916 1.400 . S
C917 C918 1.398 . S
C917 C923 1.491 . S
C918 H909 0.950 . S
C918 C917 1.398 . S
C918 C919 1.391 . S
C919 H907 0.950 . S
C919 C915 1.393 . S
C919 C918 1.391 . S
C920 H910 0.950 . S
C920 C921 1.386 . S
C920 C922 1.391 . S
C921 C920 1.386 . S
C921 C925 1.393 . S
C922 H911 0.950 . S
C922 C920 1.391 . S
C922 C923 1.400 . S
C923 C917 1.491 . S
C923 C922 1.400 . S
C923 C924 1.398 . S
C924 H912 0.950 . S
C924 C923 1.398 . S
C924 C925 1.391 . S
C925 H913 0.950 . S
C925 C921 1.393 . S
C925 C924 1.391 . S
C461 C337 1.572 . S
C455 C15 1.653 . S
C481 C350 1.475 . S
C475 C55 1.609 . S
C501 C332 1.619 . S
C495 C101 1.656 . S
C521 C360 1.518 . S
C515 C141 1.634 . S
C541 C371 1.444 . S
C535 C2 1.521 . S
C561 C392 1.523 . S
C555 C61 1.591 . S
C575 C95 1.576 . S
C581 C421 1.465 . S
C601 C442 1.557 . S
C595 C135 1.624 . S
C621 C381 1.465 . S
C615 C42 1.524 . S
C635 C82 1.624 . S
C641 C402 1.575 . S
C661 C416 1.461 . S
C655 C122 1.569 . S
C681 C437 1.574 . S
C675 C21 1.639 . S
C695 C162 1.656 . S
C701 C358 1.464 . S
C721 C329 1.645 . S
C715 C221 1.724 . S
C735 C255 1.649 . S
C741 C353 1.458 . S
C755 C282 1.650 . S
C761 C339 1.608 . S
C781 C423 1.515 . S
C775 C181 1.585 . S
C801 C444 1.637 . S
C795 C202 1.678 . S
C821 C374 1.436 . S
C815 C242 1.552 . S
C835 C301 1.666 . S
C841 C395 1.509 . S
C861 C413 1.494 . S
C855 C215 1.590 . S
C881 C434 1.605 . S
C875 C261 1.659 . S
C901 C379 1.410 . S
C895 C295 1.542 . S
C915 C175 1.641 . S
C921 C400 1.520 . S
