# Generated by pormake.
# Topology wbl, (4,4)-cn, num edge types: 1
# Building blocks:
#     Node 0, Type 0, BuildingBlock: MIFKUJ_clean_linker_1, # of connection points: 4
#     Node 1, Type 0, BuildingBlock: MIFKUJ_clean_linker_1, # of connection points: 4
#     Node 2, Type 0, BuildingBlock: MIFKUJ_clean_linker_1, # of connection points: 4
#     Node 3, Type 0, BuildingBlock: MIFKUJ_clean_linker_1, # of connection points: 4
#     Node 4, Type 0, BuildingBlock: MIFKUJ_clean_linker_1, # of connection points: 4
#     Node 5, Type 0, BuildingBlock: MIFKUJ_clean_linker_1, # of connection points: 4
#     Node 6, Type 0, BuildingBlock: MIFKUJ_clean_linker_1, # of connection points: 4
#     Node 7, Type 0, BuildingBlock: MIFKUJ_clean_linker_1, # of connection points: 4
#     Node 8, Type 1, BuildingBlock: QUQFOY_clean_sbu_1, # of connection points: 4
#     Node 9, Type 1, BuildingBlock: QUQFOY_clean_sbu_1, # of connection points: 4
#     Node 10, Type 1, BuildingBlock: QUQFOY_clean_sbu_1, # of connection points: 4
#     Node 11, Type 1, BuildingBlock: QUQFOY_clean_sbu_1, # of connection points: 4
#     Node 12, Type 1, BuildingBlock: QUQFOY_clean_sbu_1, # of connection points: 4
#     Node 13, Type 1, BuildingBlock: QUQFOY_clean_sbu_1, # of connection points: 4
#     Node 14, Type 1, BuildingBlock: QUQFOY_clean_sbu_1, # of connection points: 4
#     Node 15, Type 1, BuildingBlock: QUQFOY_clean_sbu_1, # of connection points: 4
#     Edge 16, Type (0, 1), BuildingBlock: CIFDUS_clean_linker_0, # of connection points: 2
#     Edge 17, Type (0, 1), BuildingBlock: CIFDUS_clean_linker_0, # of connection points: 2
#     Edge 18, Type (0, 1), BuildingBlock: CIFDUS_clean_linker_0, # of connection points: 2
#     Edge 19, Type (0, 1), BuildingBlock: CIFDUS_clean_linker_0, # of connection points: 2
#     Edge 20, Type (0, 1), BuildingBlock: CIFDUS_clean_linker_0, # of connection points: 2
#     Edge 21, Type (0, 1), BuildingBlock: CIFDUS_clean_linker_0, # of connection points: 2
#     Edge 22, Type (0, 1), BuildingBlock: CIFDUS_clean_linker_0, # of connection points: 2
#     Edge 23, Type (0, 1), BuildingBlock: CIFDUS_clean_linker_0, # of connection points: 2
#     Edge 24, Type (0, 1), BuildingBlock: CIFDUS_clean_linker_0, # of connection points: 2
#     Edge 25, Type (0, 1), BuildingBlock: CIFDUS_clean_linker_0, # of connection points: 2
#     Edge 26, Type (0, 1), BuildingBlock: CIFDUS_clean_linker_0, # of connection points: 2
#     Edge 27, Type (0, 1), BuildingBlock: CIFDUS_clean_linker_0, # of connection points: 2
#     Edge 28, Type (0, 1), BuildingBlock: CIFDUS_clean_linker_0, # of connection points: 2
#     Edge 29, Type (0, 1), BuildingBlock: CIFDUS_clean_linker_0, # of connection points: 2
#     Edge 30, Type (0, 1), BuildingBlock: CIFDUS_clean_linker_0, # of connection points: 2
#     Edge 31, Type (0, 1), BuildingBlock: CIFDUS_clean_linker_0, # of connection points: 2
#     Edge 32, Type (0, 1), BuildingBlock: CIFDUS_clean_linker_0, # of connection points: 2
#     Edge 33, Type (0, 1), BuildingBlock: CIFDUS_clean_linker_0, # of connection points: 2
#     Edge 34, Type (0, 1), BuildingBlock: CIFDUS_clean_linker_0, # of connection points: 2
#     Edge 35, Type (0, 1), BuildingBlock: CIFDUS_clean_linker_0, # of connection points: 2
#     Edge 36, Type (0, 1), BuildingBlock: CIFDUS_clean_linker_0, # of connection points: 2
#     Edge 37, Type (0, 1), BuildingBlock: CIFDUS_clean_linker_0, # of connection points: 2
#     Edge 38, Type (0, 1), BuildingBlock: CIFDUS_clean_linker_0, # of connection points: 2
#     Edge 39, Type (0, 1), BuildingBlock: CIFDUS_clean_linker_0, # of connection points: 2
#     Edge 40, Type (0, 1), BuildingBlock: CIFDUS_clean_linker_0, # of connection points: 2
#     Edge 41, Type (0, 1), BuildingBlock: CIFDUS_clean_linker_0, # of connection points: 2
#     Edge 42, Type (0, 1), BuildingBlock: CIFDUS_clean_linker_0, # of connection points: 2
#     Edge 43, Type (0, 1), BuildingBlock: CIFDUS_clean_linker_0, # of connection points: 2
#     Edge 44, Type (0, 1), BuildingBlock: CIFDUS_clean_linker_0, # of connection points: 2
#     Edge 45, Type (0, 1), BuildingBlock: CIFDUS_clean_linker_0, # of connection points: 2
#     Edge 46, Type (0, 1), BuildingBlock: CIFDUS_clean_linker_0, # of connection points: 2
#     Edge 47, Type (0, 1), BuildingBlock: CIFDUS_clean_linker_0, # of connection points: 2
# Relax obj value: 0.175
# Max RMSD: 0.209
# Mean RMSD: 0.159
data_MOF--net-wbl--node1-QUQFOY_clean_sbu_1--node2-MIFKUJ_clean_linker_1--edge1-CIFDUS_clean_linker_0
_symmetry_space_group_name_H-M    P1
_symmetry_Int_Tables_number       1
_symmetry_cell_setting            triclinic
loop_
_symmetry_equiv_pos_as_xyz
'x, y, z'
_cell_length_a     41.269404
_cell_length_b     41.242467
_cell_length_c     68.905373
_cell_angle_alpha  93.439953
_cell_angle_beta   93.432206
_cell_angle_gamma 90.060141
loop_
_atom_site_label
_atom_site_type_symbol
_atom_site_fract_x
_atom_site_fract_y
_atom_site_fract_z
_atom_type_partial_charge
H0 H 0.1329 0.17963 0.39072 0.0
H1 H 0.09394 0.20019 0.41393 0.0
H2 H 0.02007 0.13697 0.38519 0.0
H3 H 0.05915 0.11607 0.36237 0.0
H4 H 0.14984 0.11519 0.38889 0.0
H5 H 0.10509 0.19074 0.34324 0.0
H6 H 0.0558 0.21508 0.32882 0.0
H7 H 0.02673 0.12136 0.30206 0.0
H8 H 0.07555 0.09707 0.31673 0.0
H9 H 0.14697 0.04014 0.31502 0.0
H10 H 0.18145 0.00267 0.29676 0.0
H11 H 0.26651 0.04615 0.32753 0.0
H12 H 0.23202 0.0842 0.34526 0.0
H13 H 0.13944 0.10246 0.31679 0.0
H14 H 0.16641 0.02564 0.36416 0.0
H15 H 0.18996 0.99295 0.38985 0.0
H16 H 0.24033 0.07785 0.41632 0.0
H17 H 0.21626 0.11045 0.39077 0.0
C18 C 0.0989 0.14649 0.37472 0.0
C19 C 0.10811 0.17076 0.38918 0.0
C20 C 0.08581 0.18258 0.40237 0.0
C21 C 0.05404 0.17002 0.40144 0.0
C22 C 0.04447 0.14689 0.38636 0.0
C23 C 0.0667 0.13517 0.37317 0.0
C24 C 0.12368 0.12982 0.36301 0.0
C25 C 0.14837 0.11326 0.37307 0.0
C26 C 0.12052 0.12608 0.34245 0.0
C27 C 0.09379 0.142 0.33127 0.0
C28 C 0.0883 0.17555 0.33404 0.0
C29 C 0.06027 0.18948 0.32571 0.0
C30 C 0.0373 0.17001 0.31454 0.0
C31 C 0.04384 0.13683 0.31085 0.0
C32 C 0.07186 0.12299 0.31908 0.0
C33 C 0.18685 0.06488 0.33165 0.0
C34 C 0.17307 0.04178 0.31772 0.0
C35 C 0.19279 0.02021 0.30738 0.0
C36 C 0.22675 0.02139 0.31066 0.0
C37 C 0.24048 0.04482 0.32445 0.0
C38 C 0.22076 0.06636 0.33479 0.0
C39 C 0.16577 0.08753 0.34276 0.0
C40 C 0.14183 0.10525 0.33256 0.0
C41 C 0.16887 0.09154 0.36333 0.0
C42 C 0.18959 0.07048 0.37556 0.0
C43 C 0.18343 0.03695 0.37511 0.0
C44 C 0.19684 0.0183 0.38986 0.0
C45 C 0.21656 0.03294 0.40532 0.0
C46 C 0.22469 0.066 0.40484 0.0
C47 C 0.21121 0.08461 0.39015 0.0
H48 H 0.05221 0.55973 0.56469 0.0
H49 H 0.03284 0.51221 0.5451 0.0
H50 H 0.93648 0.52824 0.56539 0.0
H51 H 0.95514 0.57841 0.58254 0.0
H52 H 0.04667 0.6188 0.56664 0.0
H53 H 0.01273 0.53823 0.61219 0.0
H54 H 0.97805 0.50592 0.63148 0.0
H55 H 0.92238 0.59157 0.6461 0.0
H56 H 0.95659 0.62357 0.62659 0.0
H57 H 0.02751 0.69319 0.64081 0.0
H58 H 0.05921 0.72349 0.66715 0.0
H59 H 0.14739 0.68203 0.64598 0.0
H60 H 0.11575 0.6511 0.62016 0.0
H61 H 0.02135 0.63079 0.63613 0.0
H62 H 0.05119 0.71078 0.59291 0.0
H63 H 0.09077 0.74896 0.58249 0.0
H64 H 0.15405 0.66896 0.56741 0.0
H65 H 0.11334 0.63076 0.57709 0.0
C66 C 0.00545 0.5723 0.57574 0.0
C67 C 0.02666 0.55357 0.5645 0.0
C68 C 0.01558 0.52583 0.55351 0.0
C69 C 0.98319 0.51531 0.55401 0.0
C70 C 0.96157 0.53519 0.56442 0.0
C71 C 0.97243 0.56373 0.57474 0.0
C72 C 0.01855 0.59975 0.58895 0.0
C73 C 0.04112 0.62111 0.58185 0.0
C74 C 0.01048 0.60419 0.60869 0.0
C75 C 0.98716 0.5833 0.61788 0.0
C76 C 0.99251 0.54983 0.61911 0.0
C77 C 0.9727 0.53142 0.63012 0.0
C78 C 0.94766 0.54633 0.64034 0.0
C79 C 0.94165 0.57953 0.63848 0.0
C80 C 0.96115 0.59779 0.62733 0.0
C81 C 0.06923 0.67017 0.62831 0.0
C82 C 0.0537 0.69093 0.6417 0.0
C83 C 0.07178 0.70818 0.65673 0.0
C84 C 0.10571 0.70511 0.65853 0.0
C85 C 0.12131 0.68523 0.64474 0.0
C86 C 0.10322 0.66767 0.6299 0.0
C87 C 0.04992 0.64859 0.61394 0.0
C88 C 0.0263 0.62856 0.62081 0.0
C89 C 0.05667 0.64551 0.59407 0.0
C90 C 0.07947 0.66804 0.58589 0.0
C91 C 0.07342 0.70149 0.58712 0.0
C92 C 0.09629 0.72328 0.58134 0.0
C93 C 0.12599 0.71213 0.57445 0.0
C94 C 0.13143 0.67843 0.57253 0.0
C95 C 0.10823 0.65655 0.57808 0.0
H96 H 0.49715 0.62839 0.85365 0.0
H97 H 0.46227 0.65692 0.87646 0.0
H98 H 0.42033 0.56522 0.88943 0.0
H99 H 0.45553 0.53684 0.86672 0.0
H100 H 0.52339 0.54084 0.87264 0.0
H101 H 0.52068 0.62319 0.81042 0.0
H102 H 0.4818 0.66488 0.80032 0.0
H103 H 0.40257 0.60094 0.81075 0.0
H104 H 0.44137 0.55959 0.8208 0.0
H105 H 0.55359 0.48451 0.79886 0.0
H106 H 0.60007 0.4611 0.78231 0.0
H107 H 0.66464 0.52613 0.81766 0.0
H108 H 0.61826 0.54917 0.83418 0.0
H109 H 0.53463 0.55476 0.80231 0.0
H110 H 0.56844 0.4641 0.84562 0.0
H111 H 0.60311 0.43564 0.86939 0.0
H112 H 0.62164 0.52687 0.90249 0.0
H113 H 0.5881 0.5548 0.87867 0.0
C114 C 0.47892 0.58051 0.85854 0.0
C115 C 0.47982 0.61454 0.86102 0.0
C116 C 0.4598 0.63082 0.87403 0.0
C117 C 0.43876 0.61328 0.88488 0.0
C118 C 0.43663 0.57935 0.88149 0.0
C119 C 0.45665 0.56311 0.86851 0.0
C120 C 0.50343 0.56289 0.84715 0.0
C121 C 0.52562 0.54345 0.85719 0.0
C122 C 0.50657 0.56702 0.82714 0.0
C123 C 0.48386 0.58845 0.8165 0.0
C124 C 0.49494 0.61781 0.8099 0.0
C125 C 0.47273 0.64165 0.80424 0.0
C126 C 0.4392 0.63637 0.80515 0.0
C127 C 0.42828 0.60592 0.8103 0.0
C128 C 0.45039 0.58217 0.81586 0.0
C129 C 0.58259 0.51842 0.81777 0.0
C130 C 0.57779 0.49369 0.80298 0.0
C131 C 0.60429 0.4803 0.79361 0.0
C132 C 0.63591 0.49191 0.79865 0.0
C133 C 0.64051 0.51697 0.81332 0.0
C134 C 0.61411 0.53 0.82285 0.0
C135 C 0.55474 0.53235 0.82791 0.0
C136 C 0.53201 0.55139 0.81763 0.0
C137 C 0.55162 0.52868 0.84799 0.0
C138 C 0.57585 0.51157 0.86037 0.0
C139 C 0.58066 0.47792 0.85779 0.0
C140 C 0.60014 0.46168 0.87148 0.0
C141 C 0.61517 0.47894 0.88787 0.0
C142 C 0.61097 0.51279 0.88993 0.0
C143 C 0.59163 0.52885 0.87635 0.0
H144 H 0.57335 0.95126 0.10206 0.0
H145 H 0.54593 0.90171 0.0891 0.0
H146 H 0.48477 0.95766 0.05055 0.0
H147 H 0.51141 0.00767 0.06444 0.0
H148 H 0.57268 0.02917 0.06497 0.0
H149 H 0.591 0.98402 0.14169 0.0
H150 H 0.5637 0.95528 0.16599 0.0
H151 H 0.47076 0.98596 0.14117 0.0
H152 H 0.49847 0.01322 0.11622 0.0
H153 H 0.59285 0.11914 0.13251 0.0
H154 H 0.63535 0.14643 0.15403 0.0
H155 H 0.70754 0.08481 0.12817 0.0
H156 H 0.66516 0.0582 0.10632 0.0
H157 H 0.58762 0.04974 0.13667 0.0
H158 H 0.58123 0.12333 0.08599 0.0
H159 H 0.60562 0.1624 0.06582 0.0
H160 H 0.66593 0.08664 0.0415 0.0
H161 H 0.6409 0.04729 0.06166 0.0
C162 C 0.54398 0.98325 0.08451 0.0
C163 C 0.55371 0.95297 0.09103 0.0
C164 C 0.53831 0.92455 0.08337 0.0
C165 C 0.51317 0.92566 0.06874 0.0
C166 C 0.50376 0.956 0.06198 0.0
C167 C 0.51911 0.98456 0.06978 0.0
C168 C 0.56051 0.01319 0.09297 0.0
C169 C 0.57565 0.03378 0.08063 0.0
C170 C 0.56375 0.01998 0.11337 0.0
C171 C 0.54676 0.00078 0.12722 0.0
C172 C 0.56472 0.98427 0.14141 0.0
C173 C 0.54901 0.96809 0.15542 0.0
C174 C 0.51493 0.96868 0.15584 0.0
C175 C 0.49696 0.98468 0.14126 0.0
C176 C 0.51275 0.00042 0.12702 0.0
C177 C 0.62598 0.08682 0.11784 0.0
C178 C 0.61799 0.11247 0.13095 0.0
C179 C 0.64221 0.128 0.14318 0.0
C180 C 0.67453 0.11752 0.1427 0.0
C181 C 0.68275 0.09329 0.1287 0.0
C182 C 0.65863 0.07824 0.1162 0.0
C183 C 0.60044 0.06479 0.10876 0.0
C184 C 0.58394 0.04548 0.12099 0.0
C185 C 0.59535 0.05978 0.08839 0.0
C186 C 0.60928 0.0825 0.07528 0.0
C187 C 0.59944 0.11505 0.07615 0.0
C188 C 0.61324 0.13727 0.06455 0.0
C189 C 0.63751 0.12748 0.05202 0.0
C190 C 0.64724 0.09477 0.05103 0.0
C191 C 0.63294 0.07233 0.06245 0.0
H192 H 0.02154 0.6637 0.92669 0.0
H193 H 0.05771 0.69143 0.90619 0.0
H194 H 0.13932 0.6393 0.93108 0.0
H195 H 0.10282 0.61109 0.95125 0.0
H196 H 0.01496 0.59724 0.92257 0.0
H197 H 0.05174 0.67703 0.97213 0.0
H198 H 0.09812 0.70446 0.98888 0.0
H199 H 0.12122 0.6174 0.01898 0.0
H200 H 0.07728 0.58895 1.00007 0.0
H201 H 0.01397 0.52058 0.98877 0.0
H202 H 0.97971 0.47746 0.99957 0.0
H203 H 0.89489 0.52415 0.97424 0.0
H204 H 0.92934 0.56664 0.96316 0.0
H205 H 0.01756 0.58715 0.99396 0.0
H206 H 0.98938 0.50623 0.94401 0.0
H207 H 0.96041 0.47133 0.91924 0.0
H208 H 0.93083 0.55616 0.88859 0.0
H209 H 0.95585 0.59075 0.91485 0.0
C210 C 0.05949 0.63534 0.94048 0.0
C211 C 0.04733 0.65873 0.92799 0.0
C212 C 0.06807 0.67473 0.91638 0.0
C213 C 0.10135 0.66741 0.91692 0.0
C214 C 0.11372 0.64519 0.9302 0.0
C215 C 0.09296 0.62922 0.94183 0.0
C216 C 0.03668 0.61479 0.95026 0.0
C217 C 0.01479 0.59564 0.93823 0.0
C218 C 0.03797 0.61174 0.97068 0.0
C219 C 0.06181 0.63043 0.98406 0.0
C220 C 0.06704 0.66369 0.98215 0.0
C221 C 0.09341 0.67965 0.99217 0.0
C222 C 0.11438 0.6631 0.00508 0.0
C223 C 0.10671 0.63074 0.00859 0.0
C224 C 0.08107 0.61447 0.99798 0.0
C225 C 0.97421 0.54656 0.97497 0.0
C226 C 0.98793 0.52172 0.98582 0.0
C227 C 0.96832 0.49708 0.99196 0.0
C228 C 0.93462 0.49704 0.98747 0.0
C229 C 0.92085 0.52296 0.97749 0.0
C230 C 0.94045 0.54744 0.97129 0.0
C231 C 0.99536 0.56998 0.96616 0.0
C232 C 0.01705 0.58942 0.97835 0.0
C233 C 0.99443 0.57291 0.94576 0.0
C234 C 0.97447 0.55134 0.9316 0.0
C235 C 0.97539 0.5174 0.93244 0.0
C236 C 0.95939 0.4973 0.91785 0.0
C237 C 0.94338 0.51053 0.90151 0.0
C238 C 0.94209 0.54462 0.90095 0.0
C239 C 0.95696 0.56467 0.91592 0.0
H240 H 0.57194 0.58524 0.2244 0.0
H241 H 0.55032 0.6339 0.24051 0.0
H242 H 0.4541 0.59127 0.23483 0.0
H243 H 0.47601 0.54302 0.21784 0.0
H244 H 0.57245 0.51989 0.23146 0.0
H245 H 0.52769 0.59173 0.18521 0.0
H246 H 0.49165 0.62297 0.16402 0.0
H247 H 0.43806 0.53569 0.14528 0.0
H248 H 0.47304 0.50459 0.1673 0.0
H249 H 0.54351 0.43293 0.16165 0.0
H250 H 0.56948 0.40562 0.13422 0.0
H251 H 0.65843 0.45807 0.15097 0.0
H252 H 0.63238 0.48527 0.17833 0.0
H253 H 0.53473 0.49625 0.16241 0.0
H254 H 0.5815 0.42395 0.20799 0.0
H255 H 0.62494 0.39217 0.22333 0.0
H256 H 0.67882 0.48042 0.23968 0.0
H257 H 0.63524 0.51216 0.22429 0.0
C258 C 0.52559 0.5606 0.2199 0.0
C259 C 0.54626 0.5862 0.22688 0.0
C260 C 0.53379 0.61402 0.23618 0.0
C261 C 0.50036 0.61666 0.23905 0.0
C262 C 0.47984 0.59038 0.2326 0.0
C263 C 0.49234 0.56266 0.22304 0.0
C264 C 0.53875 0.533 0.20813 0.0
C265 C 0.56414 0.5146 0.21636 0.0
C266 C 0.52749 0.52579 0.18855 0.0
C267 C 0.50286 0.54578 0.17813 0.0
C268 C 0.50733 0.57947 0.17728 0.0
C269 C 0.48685 0.59732 0.16508 0.0
C270 C 0.46213 0.58165 0.15314 0.0
C271 C 0.4569 0.54825 0.15446 0.0
C272 C 0.47692 0.53053 0.16697 0.0
C273 C 0.58598 0.4611 0.1721 0.0
C274 C 0.56885 0.43792 0.1597 0.0
C275 C 0.58364 0.42253 0.14395 0.0
C276 C 0.61585 0.43004 0.14027 0.0
C277 C 0.63365 0.45158 0.15348 0.0
C278 C 0.61881 0.46706 0.16921 0.0
C279 C 0.56826 0.48295 0.18567 0.0
C280 C 0.54221 0.50063 0.17772 0.0
C281 C 0.57899 0.48955 0.20539 0.0
C282 C 0.60522 0.47041 0.21489 0.0
C283 C 0.60266 0.43646 0.21488 0.0
C284 C 0.62734 0.41837 0.2238 0.0
C285 C 0.65519 0.43385 0.23276 0.0
C286 C 0.65767 0.46786 0.23283 0.0
C287 C 0.63277 0.48599 0.22411 0.0
H288 H 0.55594 0.97712 0.44705 0.0
H289 H 0.52874 0.93304 0.42706 0.0
H290 H 0.46866 0.00293 0.39782 0.0
H291 H 0.49605 0.0471 0.41784 0.0
H292 H 0.56097 0.05489 0.41342 0.0
H293 H 0.57523 0.99951 0.48743 0.0
H294 H 0.53879 0.97104 0.50782 0.0
H295 H 0.45953 0.03188 0.48856 0.0
H296 H 0.4957 0.05968 0.46814 0.0
H297 H 0.61255 0.12861 0.48423 0.0
H298 H 0.66337 0.15518 0.49645 0.0
H299 H 0.71528 0.0961 0.45471 0.0
H300 H 0.66483 0.0685 0.4434 0.0
H301 H 0.59201 0.06818 0.48413 0.0
H302 H 0.61368 0.14175 0.43486 0.0
H303 H 0.6432 0.16711 0.40999 0.0
H304 H 0.64242 0.07541 0.37601 0.0
H305 H 0.61554 0.04987 0.40149 0.0
C306 C 0.52796 0.01537 0.43392 0.0
C307 C 0.53597 0.98291 0.43693 0.0
C308 C 0.52059 0.95775 0.42544 0.0
C309 C 0.49682 0.96469 0.41087 0.0
C310 C 0.48674 0.99697 0.40909 0.0
C311 C 0.50241 0.02219 0.42044 0.0
C312 C 0.55042 0.04144 0.442 0.0
C313 C 0.56769 0.05825 0.42887 0.0
C314 C 0.55838 0.04617 0.46214 0.0
C315 C 0.53805 0.03161 0.47632 0.0
C316 C 0.55014 0.00702 0.48794 0.0
C317 C 0.52935 0.99075 0.49948 0.0
C318 C 0.49641 0.9994 0.49984 0.0
C319 C 0.48488 0.02502 0.48881 0.0
C320 C 0.50545 0.04081 0.47707 0.0
C321 C 0.63481 0.09693 0.46271 0.0
C322 C 0.63494 0.1213 0.47782 0.0
C323 C 0.66397 0.13666 0.48465 0.0
C324 C 0.69341 0.12792 0.47648 0.0
C325 C 0.69316 0.10323 0.46149 0.0
C326 C 0.66423 0.08771 0.45481 0.0
C327 C 0.6041 0.08062 0.45536 0.0
C328 C 0.58524 0.06557 0.46866 0.0
C329 C 0.59454 0.07782 0.4352 0.0
C330 C 0.61257 0.09375 0.42022 0.0
C331 C 0.62043 0.127 0.42221 0.0
C332 C 0.63693 0.14161 0.40781 0.0
C333 C 0.64543 0.12338 0.39093 0.0
C334 C 0.63707 0.0902 0.38893 0.0
C335 C 0.62118 0.07556 0.40344 0.0
H336 H 0.1034 0.2161 0.71548 0.0
H337 H 0.06086 0.25198 0.7271 0.0
H338 H 0.00052 0.16833 0.7346 0.0
H339 H 0.0441 0.1326 0.72383 0.0
H340 H 0.11259 0.12469 0.73528 0.0
H341 H 0.129 0.20031 0.66721 0.0
H342 H 0.09779 0.22698 0.64141 0.0
H343 H 0.01082 0.17842 0.65651 0.0
H344 H 0.0421 0.15165 0.68209 0.0
H345 H 0.12525 0.05908 0.66927 0.0
H346 H 0.15429 0.02611 0.64579 0.0
H347 H 0.24389 0.07525 0.66608 0.0
H348 H 0.21356 0.11011 0.68853 0.0
H349 H 0.1356 0.1353 0.66608 0.0
H350 H 0.11278 0.0546 0.72599 0.0
H351 H 0.13978 0.00961 0.74198 0.0
H352 H 0.23239 0.05745 0.7389 0.0
H353 H 0.20516 0.1023 0.72297 0.0
C354 C 0.07683 0.17176 0.71878 0.0
C355 C 0.0812 0.20554 0.71996 0.0
C356 C 0.05662 0.22601 0.72638 0.0
C357 C 0.02687 0.21316 0.73146 0.0
C358 C 0.0231 0.17915 0.73096 0.0
C359 C 0.04799 0.15864 0.7248 0.0
C360 C 0.10108 0.15055 0.70944 0.0
C361 C 0.1178 0.12719 0.7202 0.0
C362 C 0.10769 0.15357 0.68973 0.0
C363 C 0.08788 0.17417 0.67669 0.0
C364 C 0.10308 0.19598 0.66523 0.0
C365 C 0.08526 0.21109 0.65046 0.0
C366 C 0.05191 0.20461 0.64687 0.0
C367 C 0.03639 0.18421 0.65908 0.0
C368 C 0.05426 0.16896 0.67377 0.0
C369 C 0.16735 0.08655 0.68087 0.0
C370 C 0.15128 0.06224 0.66892 0.0
C371 C 0.16814 0.04321 0.65553 0.0
C372 C 0.20175 0.04765 0.65395 0.0
C373 C 0.21803 0.07129 0.6666 0.0
C374 C 0.20087 0.0909 0.67974 0.0
C375 C 0.14774 0.1103 0.69196 0.0
C376 C 0.13134 0.13382 0.6814 0.0
C377 C 0.14108 0.10692 0.71161 0.0
C378 C 0.15707 0.08142 0.72297 0.0
C379 C 0.13884 0.05554 0.72901 0.0
C380 C 0.1543 0.02994 0.73822 0.0
C381 C 0.18828 0.02983 0.74157 0.0
C382 C 0.20626 0.05654 0.73622 0.0
C383 C 0.19077 0.08213 0.72708 0.0
O384 O 0.36564 0.71093 0.98685 0.0
Cd385 Cd 0.34903 0.7323 0.01221 0.0
Cd386 Cd 0.39706 0.70066 0.03087 0.0
O387 O 0.39606 0.67727 0.00354 0.0
O388 O 0.30146 0.73906 0.00916 0.0
O389 O 0.32467 0.70249 0.02788 0.0
C390 C 0.2986 0.7156 0.02056 0.0
C391 C 0.4074 0.66721 0.05667 0.0
C392 C 0.38382 0.68612 0.98736 0.0
C393 C 0.40041 0.77387 0.0324 0.0
O394 O 0.41541 0.74742 0.03499 0.0
O395 O 0.37172 0.77349 0.02461 0.0
O396 O 0.42946 0.67371 0.04506 0.0
O397 O 0.37908 0.67994 0.05389 0.0
O398 O 0.3973 0.8502 0.31225 0.0
Cd399 Cd 0.37854 0.83939 0.28415 0.0
Cd400 Cd 0.4379 0.85674 0.27475 0.0
O401 O 0.44084 0.87492 0.30318 0.0
O402 O 0.33083 0.84383 0.28571 0.0
O403 O 0.36114 0.87855 0.27129 0.0
C404 C 0.33333 0.87103 0.27755 0.0
C405 C 0.45717 0.88826 0.2508 0.0
C406 C 0.4226 0.86736 0.31642 0.0
C407 C 0.41903 0.78681 0.26735 0.0
O408 O 0.44201 0.80738 0.27006 0.0
O409 O 0.38989 0.79526 0.26996 0.0
O410 O 0.4766 0.87543 0.26349 0.0
O411 O 0.42637 0.88358 0.25178 0.0
O412 O 0.27904 0.8865 0.48839 0.0
Cd413 Cd 0.30115 0.86523 0.51188 0.0
Cd414 Cd 0.26069 0.90546 0.53323 0.0
O415 O 0.25637 0.92553 0.50621 0.0
O416 O 0.34721 0.85684 0.50651 0.0
O417 O 0.33155 0.89472 0.52822 0.0
C418 C 0.35457 0.88108 0.51876 0.0
C419 C 0.25008 0.93831 0.56097 0.0
C420 C 0.26367 0.91316 0.48966 0.0
C421 C 0.25411 0.8305 0.53262 0.0
O422 O 0.24428 0.85905 0.53693 0.0
O423 O 0.2788 0.82609 0.52268 0.0
O424 O 0.22737 0.92874 0.54834 0.0
O425 O 0.27964 0.93116 0.55737 0.0
O426 O 0.22011 0.77955 0.75834 0.0
Cd427 Cd 0.24873 0.8036 0.77992 0.0
Cd428 Cd 0.21419 0.76289 0.80411 0.0
O429 O 0.18801 0.75539 0.77759 0.0
O430 O 0.26047 0.84545 0.76924 0.0
O431 O 0.22825 0.84195 0.79363 0.0
C432 C 0.24142 0.85955 0.78129 0.0
C433 C 0.18586 0.75114 0.83146 0.0
C434 C 0.19514 0.76253 0.76065 0.0
C435 C 0.28874 0.75677 0.80117 0.0
O436 O 0.26184 0.74776 0.80719 0.0
O437 O 0.28995 0.78031 0.79016 0.0
O438 O 0.19488 0.72883 0.81916 0.0
O439 O 0.192 0.78089 0.82806 0.0
O440 O 0.90662 0.27534 0.55959 0.0
Cd441 Cd 0.88481 0.29274 0.53459 0.0
Cd442 Cd 0.91777 0.24492 0.51596 0.0
O443 O 0.94043 0.24404 0.54348 0.0
O444 O 0.87426 0.33922 0.53978 0.0
O445 O 0.91251 0.32182 0.52033 0.0
C446 C 0.89726 0.34567 0.5287 0.0
C447 C 0.95057 0.23703 0.48954 0.0
C448 C 0.93112 0.25671 0.55947 0.0
C449 C 0.84431 0.24155 0.51345 0.0
O450 O 0.87099 0.22703 0.51088 0.0
O451 O 0.84417 0.26985 0.52173 0.0
O452 O 0.94287 0.21349 0.49985 0.0
O453 O 0.94006 0.26568 0.49443 0.0
O454 O 0.86717 0.40019 0.79821 0.0
Cd455 Cd 0.84569 0.38046 0.77265 0.0
Cd456 Cd 0.8794 0.42652 0.75602 0.0
O457 O 0.87455 0.44613 0.78427 0.0
O458 O 0.8005 0.36725 0.77709 0.0
O459 O 0.81286 0.40961 0.76043 0.0
C460 C 0.7912 0.39278 0.76828 0.0
C461 C 0.88512 0.46376 0.73212 0.0
C462 C 0.87345 0.43036 0.79952 0.0
C463 C 0.89874 0.35492 0.7507 0.0
O464 O 0.90634 0.3848 0.75048 0.0
O465 O 0.87225 0.34656 0.75749 0.0
O466 O 0.90709 0.46048 0.74587 0.0
O467 O 0.85903 0.44648 0.73202 0.0
O468 O 0.74238 0.35181 0.04991 0.0
Cd469 Cd 0.76023 0.32701 0.02623 0.0
Cd470 Cd 0.71901 0.36981 0.00543 0.0
O471 O 0.70257 0.37589 0.03346 0.0
O472 O 0.77023 0.28216 0.03369 0.0
O473 O 0.7297 0.29412 0.01271 0.0
C474 C 0.74494 0.27281 0.02282 0.0
C475 C 0.68476 0.38505 0.97916 0.0
C476 C 0.71665 0.36868 0.04959 0.0
C477 C 0.79409 0.37182 0.00336 0.0
O478 O 0.76573 0.38267 0.99976 0.0
O479 O 0.79859 0.34754 0.01364 0.0
O480 O 0.69741 0.406 0.99197 0.0
O481 O 0.68936 0.35469 0.98192 0.0
O482 O 0.7896 0.22598 0.23745 0.0
Cd483 Cd 0.80333 0.24932 0.26389 0.0
Cd484 Cd 0.77999 0.1936 0.2785 0.0
O485 O 0.76434 0.18524 0.24961 0.0
O486 O 0.79923 0.29648 0.25989 0.0
O487 O 0.7663 0.26949 0.27755 0.0
C488 C 0.77331 0.29599 0.26952 0.0
C489 C 0.74823 0.17368 0.30231 0.0
C490 C 0.77203 0.2006 0.23509 0.0
C491 C 0.85213 0.21075 0.28534 0.0
O492 O 0.82876 0.19088 0.28602 0.0
O493 O 0.8475 0.23785 0.27776 0.0
O494 O 0.76426 0.15469 0.29092 0.0
O495 O 0.74903 0.20441 0.29972 0.0
H496 H 0.21625 0.9565 0.3031 0.0
H497 H 0.28478 0.03291 0.295 0.0
H498 H 0.3221 0.99316 0.28115 0.0
H499 H 0.33757 0.93624 0.27457 0.0
H500 H 0.2698 0.85978 0.28387 0.0
H501 H 0.22946 0.90007 0.29332 0.0
C502 C 0.23904 0.96458 0.29793 0.0
C503 C 0.24782 0.99763 0.30031 0.0
C504 C 0.26052 0.94154 0.29012 0.0
C505 C 0.27766 0.00755 0.29371 0.0
C506 C 0.29895 0.98485 0.28567 0.0
C507 C 0.31367 0.9284 0.27815 0.0
C508 C 0.30676 0.89504 0.27857 0.0
C509 C 0.29098 0.95169 0.28424 0.0
C510 C 0.27577 0.8853 0.28346 0.0
C511 C 0.25276 0.90834 0.289 0.0
H512 H 0.16808 0.70774 0.54496 0.0
H513 H 0.14166 0.7698 0.59425 0.0
H514 H 0.17986 0.81091 0.58599 0.0
H515 H 0.21863 0.83058 0.56409 0.0
H516 H 0.24791 0.76863 0.51566 0.0
H517 H 0.21143 0.72567 0.52465 0.0
C518 C 0.17099 0.73003 0.55407 0.0
C519 C 0.15131 0.73586 0.56995 0.0
C520 C 0.19359 0.75354 0.54946 0.0
C521 C 0.15556 0.76499 0.58156 0.0
C522 C 0.17767 0.78846 0.57698 0.0
C523 C 0.21722 0.80758 0.55556 0.0
C524 C 0.23559 0.80287 0.53911 0.0
C525 C 0.19637 0.78322 0.5608 0.0
C526 C 0.23396 0.77279 0.52839 0.0
C527 C 0.21298 0.74834 0.53347 0.0
H528 H 0.3912 0.65403 0.82841 0.0
H529 H 0.43496 0.67917 0.77605 0.0
H530 H 0.39408 0.72156 0.77118 0.0
H531 H 0.34324 0.74853 0.78068 0.0
H532 H 0.29942 0.72116 0.83267 0.0
H533 H 0.34308 0.68278 0.83888 0.0
C534 C 0.39169 0.66868 0.81586 0.0
C535 C 0.41563 0.66311 0.8024 0.0
C536 C 0.36814 0.69268 0.81314 0.0
C537 C 0.41661 0.68292 0.78655 0.0
C538 C 0.39323 0.70708 0.78376 0.0
C539 C 0.34363 0.73458 0.79353 0.0
C540 C 0.31803 0.73759 0.80614 0.0
C541 C 0.36854 0.71186 0.79682 0.0
C542 C 0.3187 0.71915 0.82267 0.0
C543 C 0.34361 0.69711 0.82622 0.0
H544 H 0.4486 0.91567 0.05939 0.0
H545 H 0.5412 0.86695 0.06017 0.0
H546 H 0.51441 0.81582 0.04932 0.0
H547 H 0.46478 0.78467 0.04019 0.0
H548 H 0.37228 0.83345 0.0379 0.0
H549 H 0.39906 0.88495 0.04848 0.0
C550 C 0.46298 0.89399 0.05691 0.0
C551 C 0.49685 0.89516 0.0608 0.0
C552 C 0.44746 0.86466 0.05044 0.0
C553 C 0.51503 0.86667 0.05769 0.0
C554 C 0.49977 0.83742 0.05138 0.0
C555 C 0.45045 0.80655 0.04202 0.0
C556 C 0.41659 0.80518 0.0384 0.0
C557 C 0.46599 0.83607 0.0479 0.0
C558 C 0.39841 0.83384 0.0406 0.0
C559 C 0.41369 0.86329 0.04667 0.0
H560 H 0.17196 0.63276 0.01402 0.0
H561 H 0.12825 0.72807 0.01424 0.0
H562 H 0.18165 0.75298 0.02029 0.0
H563 H 0.24131 0.74759 0.02175 0.0
H564 H 0.28389 0.65246 0.02479 0.0
H565 H 0.22991 0.62762 0.02208 0.0
C566 C 0.17356 0.65896 0.01604 0.0
C567 C 0.14574 0.6783 0.01301 0.0
C568 C 0.20425 0.67324 0.0201 0.0
C569 C 0.14912 0.71233 0.01562 0.0
C570 C 0.17971 0.72672 0.01927 0.0
C571 C 0.23864 0.72148 0.02222 0.0
C572 C 0.26637 0.70178 0.02317 0.0
C573 C 0.20753 0.70739 0.02085 0.0
C574 C 0.2628 0.66806 0.02406 0.0
C575 C 0.23198 0.65385 0.02236 0.0
H576 H 0.44233 0.6462 0.22994 0.0
H577 H 0.52854 0.65613 0.2687 0.0
H578 H 0.51058 0.70929 0.28083 0.0
H579 H 0.4721 0.7542 0.27929 0.0
H580 H 0.38381 0.74351 0.24275 0.0
H581 H 0.40052 0.6889 0.23123 0.0
C582 C 0.45692 0.65959 0.24134 0.0
C583 C 0.48716 0.64726 0.24806 0.0
C584 C 0.44612 0.69004 0.24862 0.0
C585 C 0.50568 0.66529 0.26277 0.0
C586 C 0.49533 0.69566 0.26985 0.0
C587 C 0.45644 0.73981 0.26887 0.0
C588 C 0.42704 0.75286 0.26164 0.0
C589 C 0.46595 0.7085 0.26261 0.0
C590 C 0.40661 0.73387 0.24846 0.0
C591 C 0.41623 0.70277 0.24184 0.0
H592 H 0.48933 0.93394 0.49781 0.0
H593 H 0.45061 0.02192 0.52417 0.0
H594 H 0.40535 0.99132 0.53551 0.0
H595 H 0.37283 0.94129 0.53353 0.0
H596 H 0.40977 0.85406 0.50513 0.0
H597 H 0.46001 0.88235 0.49945 0.0
C598 C 0.47147 0.94621 0.50652 0.0
C599 C 0.4731 0.98012 0.51004 0.0
C600 C 0.44503 0.92861 0.51248 0.0
C601 C 0.44961 0.99584 0.52113 0.0
C602 C 0.42374 0.97837 0.52759 0.0
C603 C 0.39221 0.92822 0.52656 0.0
C604 C 0.38742 0.89571 0.51958 0.0
C605 C 0.42055 0.94497 0.5227 0.0
C606 C 0.41274 0.87917 0.51051 0.0
C607 C 0.44144 0.89538 0.50717 0.0
H608 H 0.17144 0.99383 0.77153 0.0
H609 H 0.24273 0.00063 0.72858 0.0
H610 H 0.26783 0.95047 0.73878 0.0
H611 H 0.26656 0.90217 0.75765 0.0
H612 H 0.19462 0.89399 0.80007 0.0
H613 H 0.17302 0.94724 0.79246 0.0
C614 C 0.19255 0.98437 0.76448 0.0
C615 C 0.20506 0.00093 0.74924 0.0
C616 C 0.20674 0.95521 0.77028 0.0
C617 C 0.23275 0.98861 0.74046 0.0
C618 C 0.24703 0.95978 0.74619 0.0
C619 C 0.24646 0.9122 0.76547 0.0
C620 C 0.23208 0.89395 0.77929 0.0
C621 C 0.23384 0.94255 0.7608 0.0
C622 C 0.20617 0.90747 0.78935 0.0
C623 C 0.19365 0.93786 0.78491 0.0
H624 H 0.65047 0.42793 0.79262 0.0
H625 H 0.68513 0.5241 0.78333 0.0
H626 H 0.73461 0.50125 0.77038 0.0
H627 H 0.77019 0.45447 0.76471 0.0
H628 H 0.73731 0.35854 0.77615 0.0
H629 H 0.68472 0.38057 0.78477 0.0
C630 C 0.66864 0.44378 0.78743 0.0
C631 C 0.66428 0.47764 0.78903 0.0
C632 C 0.69735 0.43049 0.78039 0.0
C633 C 0.68815 0.49797 0.78246 0.0
C634 C 0.71638 0.48492 0.775 0.0
C635 C 0.75126 0.43827 0.76864 0.0
C636 C 0.75764 0.40491 0.76976 0.0
C637 C 0.72157 0.45127 0.7743 0.0
C638 C 0.733 0.38432 0.77517 0.0
C639 C 0.70299 0.39692 0.78021 0.0
H640 H 0.7022 0.13786 0.0503 0.0
H641 H 0.60877 0.1727 0.0295 0.0
H642 H 0.63473 0.21866 0.01569 0.0
H643 H 0.68316 0.25244 0.0133 0.0
H644 H 0.77618 0.21958 0.03623 0.0
H645 H 0.75143 0.16907 0.045 0.0
C646 C 0.68766 0.15512 0.04233 0.0
C647 C 0.65365 0.15207 0.041 0.0
C648 C 0.70269 0.18196 0.03491 0.0
C649 C 0.635 0.17479 0.03085 0.0
C650 C 0.64982 0.20104 0.02296 0.0
C651 C 0.69816 0.23388 0.01977 0.0
C652 C 0.73143 0.23983 0.0242 0.0
C653 C 0.68355 0.20542 0.02544 0.0
C654 C 0.75048 0.21565 0.03275 0.0
C655 C 0.73631 0.18681 0.03786 0.0
H656 H 0.97871 0.14374 0.31888 0.0
H657 H 0.02425 0.22663 0.29649 0.0
H658 H 0.97079 0.24771 0.28603 0.0
H659 H 0.91085 0.2413 0.28247 0.0
H660 H 0.86691 0.15764 0.30546 0.0
H661 H 0.91994 0.13824 0.31638 0.0
C662 C 0.97696 0.16628 0.31154 0.0
C663 C 0.00531 0.18336 0.30818 0.0
C664 C 0.94638 0.17817 0.3057 0.0
C665 C 0.00268 0.213 0.29916 0.0
C666 C 0.97216 0.225 0.29317 0.0
C667 C 0.91291 0.21897 0.28998 0.0
C668 C 0.8848 0.20094 0.29298 0.0
C669 C 0.94378 0.20767 0.29627 0.0
C670 C 0.88799 0.17202 0.30278 0.0
C671 C 0.91837 0.16078 0.30907 0.0
H672 H 0.92248 0.49555 0.53903 0.0
H673 H 0.02041 0.46034 0.54932 0.0
H674 H 0.00292 0.40599 0.53836 0.0
H675 H 0.95898 0.36671 0.53039 0.0
H676 H 0.85999 0.39979 0.52606 0.0
H677 H 0.87855 0.45637 0.53048 0.0
C678 C 0.94011 0.47611 0.53908 0.0
C679 C 0.97282 0.48263 0.54519 0.0
C680 C 0.92956 0.44419 0.53395 0.0
C681 C 0.9952 0.45681 0.54441 0.0
C682 C 0.98517 0.42534 0.53835 0.0
C683 C 0.9416 0.38642 0.52994 0.0
C684 C 0.90829 0.37938 0.52776 0.0
C685 C 0.95231 0.41859 0.53365 0.0
C686 C 0.88581 0.40488 0.52765 0.0
C687 C 0.89641 0.43712 0.53027 0.0
H688 H 0.70294 0.19226 0.48671 0.0
H689 H 0.75344 0.10072 0.48204 0.0
H690 H 0.80452 0.12798 0.49248 0.0
H691 H 0.83484 0.1776 0.50306 0.0
H692 H 0.78413 0.26878 0.50931 0.0
H693 H 0.733 0.24168 0.49843 0.0
C694 C 0.72501 0.17817 0.48822 0.0
C695 C 0.72429 0.14449 0.48348 0.0
C696 C 0.75427 0.1939 0.49453 0.0
C697 C 0.75331 0.12675 0.48524 0.0
C698 C 0.78254 0.14227 0.49133 0.0
C699 C 0.81263 0.19159 0.50201 0.0
C700 C 0.81333 0.22518 0.50692 0.0
C701 C 0.78331 0.17583 0.49595 0.0
C702 C 0.78426 0.24287 0.50564 0.0
C703 C 0.75502 0.22741 0.4994 0.0
H704 H 0.01022 0.2702 0.7156 0.0
H705 H 0.98183 0.20579 0.7588 0.0
H706 H 0.9377 0.24242 0.76723 0.0
H707 H 0.90884 0.29436 0.76354 0.0
H708 H 0.9409 0.36049 0.72237 0.0
H709 H 0.98217 0.32177 0.71215 0.0
C710 C 0.99475 0.26426 0.72708 0.0
C711 C -0.00032 0.23526 0.73662 0.0
C712 C 0.97001 0.28583 0.73223 0.0
C713 C 0.97857 0.22772 0.75104 0.0
C714 C 0.95339 0.24878 0.75597 0.0
C715 C 0.92466 0.30005 0.75218 0.0
C716 C 0.9218 0.33015 0.74366 0.0
C717 C 0.94904 0.27805 0.74678 0.0
C718 C 0.94271 0.33749 0.72916 0.0
C719 C 0.96632 0.31539 0.72333 0.0
H720 H 0.88533 0.46776 0.9652 0.0
H721 H 0.93756 0.46453 0.0212 0.0
H722 H 0.90131 0.42154 0.03004 0.0
H723 H 0.8514 0.38852 0.02296 0.0
H724 H 0.79712 0.39593 0.96798 0.0
H725 H 0.83751 0.43349 0.95759 0.0
C726 C 0.88871 0.45783 0.9794 0.0
C727 C 0.91384 0.46973 0.99261 0.0
C728 C 0.86739 0.43374 0.98454 0.0
C729 C 0.91844 0.45583 0.01072 0.0
C730 C 0.89762 0.43133 0.01583 0.0
C731 C 0.84896 0.39784 0.00856 0.0
C732 C 0.82155 0.38946 0.99618 0.0
C733 C 0.87164 0.42049 0.00298 0.0
C734 C 0.81815 0.40208 0.97769 0.0
C735 C 0.8411 0.42366 0.9718 0.0
H736 H 0.65105 0.38466 0.25715 0.0
H737 H 0.71975 0.43927 0.22725 0.0
H738 H 0.76358 0.40376 0.23831 0.0
H739 H 0.78117 0.35397 0.25354 0.0
H740 H 0.71238 0.29869 0.28308 0.0
H741 H 0.67 0.33799 0.27542 0.0
C742 C 0.67568 0.38886 0.25319 0.0
C743 C 0.68211 0.41432 0.24124 0.0
C744 C 0.70074 0.36825 0.25954 0.0
C745 C 0.7142 0.41988 0.23647 0.0
C746 C 0.73924 0.39951 0.24272 0.0
C747 C 0.75708 0.35081 0.25864 0.0
C748 C 0.74993 0.3232 0.2687 0.0
C749 C 0.73266 0.37318 0.25388 0.0
C750 C 0.7186 0.31966 0.27529 0.0
C751 C 0.69424 0.34201 0.27078 0.0
H752 H 0.23805 0.9703 0.40692 0.0
H753 H 0.21457 0.05489 0.44328 0.0
H754 H 0.22659 0.02531 0.47236 0.0
H755 H 0.24289 0.97538 0.4876 0.0
H756 H 0.26677 0.89049 0.45163 0.0
H757 H 0.25499 0.92005 0.42235 0.0
C758 C 0.23555 0.9822 0.42121 0.0
C759 C 0.22567 0.01486 0.42287 0.0
C760 C 0.24229 0.96494 0.43798 0.0
C761 C 0.22276 0.03 0.44153 0.0
C762 C 0.22932 0.01301 0.45821 0.0
C763 C 0.24537 0.96323 0.47337 0.0
C764 C 0.25553 0.93069 0.47185 0.0
C765 C 0.23896 0.98045 0.45661 0.0
C766 C 0.25893 0.91551 0.45325 0.0
C767 C 0.25224 0.93241 0.43648 0.0
H768 H 0.09254 0.70358 0.69645 0.0
H769 H 0.16183 0.74021 0.65867 0.0
H770 H 0.19536 0.7619 0.687 0.0
H771 H 0.20573 0.76873 0.72244 0.0
H772 H 0.13698 0.73061 0.76021 0.0
H773 H 0.10241 0.71131 0.73191 0.0
C774 C 0.11474 0.71676 0.69445 0.0
C775 C 0.12469 0.72047 0.67556 0.0
C776 C 0.13407 0.72864 0.71077 0.0
C777 C 0.1538 0.73701 0.67312 0.0
C778 C 0.17293 0.74938 0.68929 0.0
C779 C 0.18315 0.75628 0.72451 0.0
C780 C 0.17406 0.75107 0.74345 0.0
C781 C 0.16347 0.74502 0.70818 0.0
C782 C 0.1447 0.73485 0.74582 0.0
C783 C 0.12484 0.72384 0.72964 0.0
H784 H 0.43537 0.59234 0.92102 0.0
H785 H 0.40642 0.67161 0.88586 0.0
H786 H 0.38477 0.70067 0.91433 0.0
H787 H 0.37723 0.70469 0.9498 0.0
H788 H 0.40817 0.62513 0.98439 0.0
H789 H 0.42533 0.59486 0.95546 0.0
C790 C 0.42366 0.61565 0.91944 0.0
C791 C 0.42237 0.62971 0.90134 0.0
C792 C 0.41179 0.63227 0.93582 0.0
C793 C 0.40785 0.66034 0.89969 0.0
C794 C 0.39546 0.67693 0.91594 0.0
C795 C 0.38741 0.6806 0.95093 0.0
C796 C 0.39163 0.66734 0.96927 0.0
C797 C 0.39779 0.66334 0.93419 0.0
C798 C 0.40495 0.63611 0.97052 0.0
C799 C 0.41475 0.61869 0.95397 0.0
H800 H 0.53628 0.96691 0.19396 0.0
H801 H 0.45623 0.93634 0.15376 0.0
H802 H 0.42987 0.91132 0.17996 0.0
H803 H 0.43078 0.89577 0.21412 0.0
H804 H 0.51353 0.92233 0.25308 0.0
H805 H 0.53778 0.95079 0.22746 0.0
C806 C 0.5133 0.95439 0.19075 0.0
C807 C 0.4985 0.95346 0.17177 0.0
C808 C 0.49872 0.93925 0.20572 0.0
C809 C 0.46817 0.93786 0.16821 0.0
C810 C 0.45312 0.92331 0.18319 0.0
C811 C 0.45396 0.90809 0.217 0.0
C812 C 0.47031 0.90709 0.23546 0.0
C813 C 0.46827 0.92365 0.20198 0.0
C814 C 0.50053 0.92272 0.23896 0.0
C815 C 0.51442 0.93898 0.22432 0.0
H816 H 0.10418 0.72921 0.90446 0.0
H817 H 0.14468 0.63331 0.89577 0.0
H818 H 0.175 0.6513 0.86914 0.0
H819 H 0.18761 0.69292 0.84711 0.0
H820 H 0.14832 0.78929 0.85525 0.0
H821 H 0.11974 0.77245 0.88325 0.0
C822 C 0.11979 0.71236 0.89678 0.0
C823 C 0.12216 0.67995 0.90215 0.0
C824 C 0.13709 0.72283 0.88128 0.0
C825 C 0.14274 0.65847 0.89218 0.0
C826 C 0.15988 0.66865 0.8768 0.0
C827 C 0.1728 0.71031 0.85499 0.0
C828 C 0.1697 0.74218 0.84897 0.0
C829 C 0.15683 0.70056 0.87106 0.0
C830 C 0.15094 0.76457 0.85957 0.0
C831 C 0.1346 0.75492 0.87554 0.0
H832 H 0.4626 0.56659 0.11479 0.0
H833 H 0.42497 0.63636 0.1566 0.0
H834 H 0.40107 0.66756 0.13008 0.0
H835 H 0.3945 0.67679 0.09481 0.0
H836 H 0.43808 0.60974 0.05373 0.0
H837 H 0.45574 0.57533 0.08 0.0
C838 C 0.44867 0.58835 0.11803 0.0
C839 C 0.4451 0.5991 0.13748 0.0
C840 C 0.43623 0.60662 0.1028 0.0
C841 C 0.42775 0.62768 0.14165 0.0
C842 C 0.4142 0.64547 0.12651 0.0
C843 C 0.40742 0.65436 0.0917 0.0
C844 C 0.41485 0.6455 0.07247 0.0
C845 C 0.41873 0.63544 0.10701 0.0
C846 C 0.43214 0.61684 0.06849 0.0
C847 C 0.44226 0.59725 0.08347 0.0
H848 H 0.43552 0.94706 0.39713 0.0
H849 H 0.53672 0.92722 0.38955 0.0
H850 H 0.52246 0.89285 0.36026 0.0
H851 H 0.48175 0.87351 0.33488 0.0
H852 H 0.38028 0.89089 0.34262 0.0
H853 H 0.39392 0.92089 0.37385 0.0
C854 C 0.45428 0.93466 0.3892 0.0
C855 C 0.48707 0.93966 0.39538 0.0
C856 C 0.44589 0.9148 0.37236 0.0
C857 C 0.51129 0.92345 0.38513 0.0
C858 C 0.50319 0.90402 0.3683 0.0
C859 C 0.46266 0.88346 0.3436 0.0
C860 C 0.43019 0.88047 0.3365 0.0
C861 C 0.47067 0.90028 0.3615 0.0
C862 C 0.40549 0.89297 0.34791 0.0
C863 C 0.4133 0.91026 0.36567 0.0
H864 H 0.18962 0.98569 0.63898 0.0
H865 H 0.25244 0.06796 0.63315 0.0
H866 H 0.27584 0.03988 0.60519 0.0
H867 H 0.27469 0.99386 0.58015 0.0
H868 H 0.20582 0.91614 0.58383 0.0
H869 H 0.18796 0.94088 0.6144 0.0
C870 C 0.20814 0.99784 0.63155 0.0
C871 C 0.21877 0.02921 0.63823 0.0
C872 C 0.22021 0.98241 0.61481 0.0
C873 C 0.24381 0.04372 0.62865 0.0
C874 C 0.25702 0.02782 0.61243 0.0
C875 C 0.256 0.98238 0.58782 0.0
C876 C 0.24148 0.95335 0.57986 0.0
C877 C 0.24489 0.99745 0.60508 0.0
C878 C 0.2171 0.93867 0.58971 0.0
C879 C 0.20694 0.95273 0.60719 0.0
H880 H 0.60129 0.42116 0.9035 0.0
H881 H 0.67178 0.49913 0.90722 0.0
H882 H 0.69869 0.477 0.93585 0.0
H883 H 0.70073 0.43758 0.96083 0.0
H884 H 0.63366 0.35698 0.95662 0.0
H885 H 0.60696 0.37787 0.92703 0.0
C886 C 0.6229 0.43294 0.91034 0.0
C887 C 0.63406 0.4622 0.90339 0.0
C888 C 0.63863 0.41983 0.92681 0.0
C889 C 0.66212 0.4771 0.91251 0.0
C890 C 0.67763 0.46442 0.92887 0.0
C891 C 0.68018 0.4246 0.95347 0.0
C892 C 0.66866 0.39621 0.96105 0.0
C893 C 0.66567 0.43628 0.93638 0.0
C894 C 0.64268 0.3791 0.9511 0.0
C895 C 0.6275 0.39103 0.93421 0.0
H896 H 0.69541 0.17891 0.15356 0.0
H897 H 0.70556 0.07906 0.16801 0.0
H898 H 0.73838 0.09572 0.19763 0.0
H899 H 0.76012 0.13905 0.22077 0.0
H900 H 0.75293 0.23885 0.20571 0.0
H901 H 0.72336 0.222 0.17489 0.0
C902 C 0.70534 0.16093 0.16309 0.0
C903 C 0.69817 0.12791 0.15877 0.0
C904 C 0.72448 0.17068 0.18 0.0
C905 C 0.71109 0.10461 0.17108 0.0
C906 C 0.72963 0.11412 0.18804 0.0
C907 C 0.75239 0.15701 0.2106 0.0
C908 C 0.75829 0.19008 0.2155 0.0
C909 C 0.73587 0.14712 0.19285 0.0
C910 C 0.74863 0.2132 0.20217 0.0
C911 C 0.73159 0.20361 0.18462 0.0
H912 H 0.04077 0.23006 0.41822 0.0
H913 H 0.0186 0.12811 0.42052 0.0
H914 H 0.98462 0.14005 0.44773 0.0
H915 H 0.96236 0.17886 0.47139 0.0
H916 H 0.98282 0.28114 0.46933 0.0
H917 H 0.01642 0.26969 0.44156 0.0
C918 C 0.02841 0.21055 0.42469 0.0
C919 C 0.03208 0.17827 0.41729 0.0
C920 C 0.00878 0.21759 0.44041 0.0
C921 C 0.01578 0.15321 0.42572 0.0
C922 C 0.99653 0.15997 0.44139 0.0
C923 C 0.97419 0.19871 0.46491 0.0
C924 C 0.97034 0.23077 0.47251 0.0
C925 C 0.99304 0.19199 0.44892 0.0
C926 C 0.98547 0.25622 0.46376 0.0
C927 C 0.0047 0.24968 0.44791 0.0
H928 H 0.93874 0.56511 0.6778 0.0
H929 H 0.91798 0.48675 0.6346 0.0
H930 H 0.89237 0.45569 0.65887 0.0
H931 H 0.87985 0.44932 0.69317 0.0
H932 H 0.90593 0.52594 0.73657 0.0
H933 H 0.92477 0.55964 0.71145 0.0
C934 C 0.92809 0.54146 0.67363 0.0
C935 C 0.93004 0.52825 0.65445 0.0
C936 C 0.91429 0.52355 0.68773 0.0
C937 C 0.9168 0.49731 0.64931 0.0
C938 C 0.90213 0.47963 0.66317 0.0
C939 C 0.88897 0.4737 0.69695 0.0
C940 C 0.89117 0.48548 0.71655 0.0
C941 C 0.9012 0.49229 0.68252 0.0
C942 C 0.90382 0.51666 0.7215 0.0
C943 C 0.91474 0.53579 0.70718 0.0
H944 H 0.69178 0.09611 0.36869 0.0
H945 H 0.63837 0.18511 0.37799 0.0
H946 H 0.66593 0.209 0.35184 0.0
H947 H 0.70432 0.204 0.32553 0.0
H948 H 0.75405 0.11306 0.31525 0.0
H949 H 0.728 0.09038 0.34215 0.0
C950 C 0.68565 0.12057 0.36488 0.0
C951 C 0.66279 0.13858 0.37535 0.0
C952 C 0.70078 0.13381 0.34946 0.0
C953 C 0.65612 0.17067 0.37044 0.0
C954 C 0.67167 0.1843 0.35533 0.0
C955 C 0.70934 0.17922 0.32917 0.0
C956 C 0.73107 0.16029 0.31834 0.0
C957 C 0.69392 0.16602 0.34463 0.0
C958 C 0.73729 0.12817 0.32323 0.0
C959 C 0.7225 0.11515 0.33869 0.0
H960 H 0.9913 0.23118 0.64376 0.0
H961 H 0.07272 0.2028 0.61018 0.0
H962 H 0.04267 0.21685 0.58036 0.0
H963 H 0.99272 0.23485 0.56359 0.0
H964 H 0.91112 0.26433 0.59669 0.0
H965 H 0.94169 0.25199 0.62691 0.0
C966 C 0.00243 0.22822 0.6299 0.0
C967 C 0.03421 0.21603 0.6292 0.0
C968 C 0.98492 0.23625 0.61272 0.0
C969 C 0.04848 0.21258 0.61117 0.0
C970 C 0.03122 0.22033 0.59408 0.0
C971 C 0.98155 0.23854 0.57741 0.0
C972 C 0.94958 0.25013 0.57788 0.0
C973 C 0.99933 0.2318 0.59465 0.0
C974 C 0.93568 0.25532 0.59593 0.0
C975 C 0.95314 0.24825 0.61321 0.0
H976 H 0.89248 0.52241 0.87529 0.0
H977 H 0.96495 0.45005 0.88879 0.0
H978 H 0.94661 0.41728 0.85984 0.0
H979 H 0.9136 0.41112 0.82891 0.0
H980 H 0.8483 0.48766 0.81267 0.0
H981 H 0.86105 0.51734 0.84408 0.0
C982 C 0.90479 0.49977 0.8719 0.0
C983 C 0.93029 0.48916 0.8845 0.0
C984 C 0.89563 0.48185 0.85448 0.0
C985 C 0.94482 0.45895 0.87987 0.0
C986 C 0.93466 0.4402 0.86306 0.0
C987 C 0.90202 0.43417 0.83241 0.0
C988 C 0.88001 0.44727 0.81872 0.0
C989 C 0.91057 0.4517 0.85007 0.0
C990 C 0.8654 0.4773 0.82311 0.0
C991 C 0.87266 0.49418 0.84102 0.0
H992 H 0.67668 0.4063 0.13518 0.0
H993 H 0.58629 0.42742 0.1038 0.0
H994 H 0.60946 0.41072 0.07305 0.0
H995 H 0.65567 0.39115 0.05492 0.0
H996 H 0.746 0.36933 0.08621 0.0
H997 H 0.72273 0.38564 0.11703 0.0
C998 C 0.66211 0.40724 0.1216 0.0
C999 C 0.62978 0.41795 0.12182 0.0
C1000 C 0.67563 0.39772 0.10391 0.0
C1001 C 0.61108 0.41877 0.1041 0.0
C1002 C 0.62439 0.40949 0.08647 0.0
C1003 C 0.67032 0.3901 0.06847 0.0
C1004 C 0.70258 0.3792 0.06822 0.0
C1005 C 0.65669 0.39911 0.08619 0.0
C1006 C 0.72109 0.37763 0.08596 0.0
C1007 C 0.70781 0.38694 0.10361 0.0
loop_
_geom_bond_atom_site_label_1
_geom_bond_atom_site_label_2
_geom_bond_distance
_geom_bond_site_symmetry_2
_ccdc_geom_bond_type
H0 C19 0.949 . S
H1 C20 0.950 . S
H2 C22 0.957 . S
H3 C23 0.950 . S
H4 C25 0.950 . S
H5 C28 0.950 . S
H6 C29 0.950 . S
H7 C31 0.951 1_655 S
H8 C32 0.949 . S
H9 C34 0.949 . S
H10 C35 0.950 . S
H11 C37 0.950 . S
H12 C38 0.950 1_545 S
H13 C40 0.950 . S
H14 C43 0.950 . S
H15 C44 0.950 . S
H16 C46 0.951 . S
H17 C47 0.949 . S
C18 C19 1.376 . S
C18 C23 1.386 . S
C18 C24 1.483 . S
C19 H0 0.949 . S
C19 C18 1.376 . S
C19 C20 1.397 . S
C20 H1 0.950 . S
C20 C19 1.397 . S
C20 C21 1.391 . S
C21 C20 1.391 . S
C21 C22 1.403 1_455 S
C22 H2 0.957 . S
C22 C21 1.403 1_655 S
C22 C23 1.362 1_655 S
C23 H3 0.950 . S
C23 C18 1.386 . S
C23 C22 1.362 1_455 S
C24 C18 1.483 . S
C24 C25 1.382 . S
C24 C26 1.403 . S
C25 H4 0.950 . S
C25 C24 1.382 . S
C25 C41 1.411 . S
C26 C24 1.403 . S
C26 C27 1.489 . S
C26 C40 1.411 . S
C27 C26 1.489 . S
C27 C28 1.383 . S
C27 C32 1.382 . S
C28 H5 0.950 . S
C28 C27 1.383 . S
C28 C29 1.395 . S
C29 H6 0.950 . S
C29 C28 1.395 . S
C29 C30 1.288 . S
C30 C29 1.288 . S
C30 C31 1.392 . S
C31 H7 0.951 1_455 S
C31 C30 1.392 . S
C31 C32 1.392 . S
C32 H8 0.949 . S
C32 C27 1.382 . S
C32 C31 1.392 . S
C33 C34 1.376 . S
C33 C38 1.386 . S
C33 C39 1.483 1_565 S
C34 H9 0.949 . S
C34 C33 1.376 . S
C34 C35 1.397 . S
C35 H10 0.950 . S
C35 C34 1.397 . S
C35 C36 1.391 . S
C36 C35 1.391 . S
C36 C37 1.405 . S
C37 H11 0.950 . S
C37 C36 1.405 . S
C37 C38 1.367 . S
C38 H12 0.950 1_565 S
C38 C33 1.386 . S
C38 C37 1.367 . S
C39 C33 1.483 1_545 S
C39 C40 1.382 . S
C39 C41 1.403 . S
C40 H13 0.950 . S
C40 C26 1.411 . S
C40 C39 1.382 . S
C41 C25 1.411 . S
C41 C39 1.403 . S
C41 C42 1.489 . S
C42 C41 1.489 . S
C42 C43 1.383 1_545 S
C42 C47 1.382 . S
C43 H14 0.950 . S
C43 C42 1.383 1_565 S
C43 C44 1.395 . S
C44 H15 0.950 . S
C44 C43 1.395 . S
C44 C45 1.288 . S
C45 C44 1.288 . S
C45 C46 1.392 1_565 S
C46 H16 0.951 . S
C46 C45 1.392 1_545 S
C46 C47 1.392 . S
C47 H17 0.949 . S
C47 C42 1.382 . S
C47 C46 1.392 . S
H48 C67 0.949 . S
H49 C68 0.950 . S
H50 C70 0.950 . S
H51 C71 0.950 . S
H52 C73 0.950 . S
H53 C76 0.950 1_455 S
H54 C77 0.950 . S
H55 C79 0.951 . S
H56 C80 0.949 . S
H57 C82 0.949 . S
H58 C83 0.950 . S
H59 C85 0.950 . S
H60 C86 0.950 . S
H61 C88 0.950 . S
H62 C91 0.950 . S
H63 C92 0.950 . S
H64 C94 0.951 . S
H65 C95 0.949 . S
C66 C67 1.376 . S
C66 C71 1.386 1_455 S
C66 C72 1.483 . S
C67 H48 0.949 . S
C67 C66 1.376 . S
C67 C68 1.397 . S
C68 H49 0.950 . S
C68 C67 1.397 . S
C68 C69 1.391 1_455 S
C69 C68 1.391 1_655 S
C69 C70 1.405 . S
C70 H50 0.950 . S
C70 C69 1.405 . S
C70 C71 1.367 . S
C71 H51 0.950 . S
C71 C66 1.386 1_655 S
C71 C70 1.367 . S
C72 C66 1.483 . S
C72 C73 1.382 . S
C72 C74 1.403 . S
C73 H52 0.950 . S
C73 C72 1.382 . S
C73 C89 1.411 . S
C74 C72 1.403 . S
C74 C75 1.489 1_455 S
C74 C88 1.411 . S
C75 C74 1.489 1_655 S
C75 C76 1.383 . S
C75 C80 1.382 . S
C76 H53 0.950 1_655 S
C76 C75 1.383 . S
C76 C77 1.395 . S
C77 H54 0.950 . S
C77 C76 1.395 . S
C77 C78 1.288 . S
C78 C77 1.288 . S
C78 C79 1.392 . S
C79 H55 0.951 . S
C79 C78 1.392 . S
C79 C80 1.392 . S
C80 H56 0.949 . S
C80 C75 1.382 . S
C80 C79 1.392 . S
C81 C82 1.376 . S
C81 C86 1.386 . S
C81 C87 1.483 . S
C82 H57 0.949 . S
C82 C81 1.376 . S
C82 C83 1.397 . S
C83 H58 0.950 . S
C83 C82 1.397 . S
C83 C84 1.391 . S
C84 C83 1.391 . S
C84 C85 1.405 . S
C85 H59 0.950 . S
C85 C84 1.405 . S
C85 C86 1.367 . S
C86 H60 0.950 . S
C86 C81 1.386 . S
C86 C85 1.367 . S
C87 C81 1.483 . S
C87 C88 1.382 . S
C87 C89 1.403 . S
C88 H61 0.950 . S
C88 C74 1.411 . S
C88 C87 1.382 . S
C89 C73 1.411 . S
C89 C87 1.403 . S
C89 C90 1.489 . S
C90 C89 1.489 . S
C90 C91 1.383 . S
C90 C95 1.382 . S
C91 H62 0.950 . S
C91 C90 1.383 . S
C91 C92 1.395 . S
C92 H63 0.950 . S
C92 C91 1.395 . S
C92 C93 1.288 . S
C93 C92 1.288 . S
C93 C94 1.392 . S
C94 H64 0.951 . S
C94 C93 1.392 . S
C94 C95 1.392 . S
C95 H65 0.949 . S
C95 C90 1.382 . S
C95 C94 1.392 . S
H96 C115 0.949 . S
H97 C116 0.950 . S
H98 C118 0.950 . S
H99 C119 0.950 . S
H100 C121 0.950 . S
H101 C124 0.950 . S
H102 C125 0.950 . S
H103 C127 0.951 . S
H104 C128 0.949 . S
H105 C130 0.949 . S
H106 C131 0.950 . S
H107 C133 0.950 . S
H108 C134 0.950 . S
H109 C136 0.950 . S
H110 C139 0.950 . S
H111 C140 0.950 . S
H112 C142 0.951 . S
H113 C143 0.949 . S
C114 C115 1.376 . S
C114 C119 1.386 . S
C114 C120 1.483 . S
C115 H96 0.949 . S
C115 C114 1.376 . S
C115 C116 1.397 . S
C116 H97 0.950 . S
C116 C115 1.397 . S
C116 C117 1.391 . S
C117 C116 1.391 . S
C117 C118 1.405 . S
C118 H98 0.950 . S
C118 C117 1.405 . S
C118 C119 1.367 . S
C119 H99 0.950 . S
C119 C114 1.386 . S
C119 C118 1.367 . S
C120 C114 1.483 . S
C120 C121 1.382 . S
C120 C122 1.403 . S
C121 H100 0.950 . S
C121 C120 1.382 . S
C121 C137 1.411 . S
C122 C120 1.403 . S
C122 C123 1.489 . S
C122 C136 1.411 . S
C123 C122 1.489 . S
C123 C124 1.383 . S
C123 C128 1.382 . S
C124 H101 0.950 . S
C124 C123 1.383 . S
C124 C125 1.395 . S
C125 H102 0.950 . S
C125 C124 1.395 . S
C125 C126 1.288 . S
C126 C125 1.288 . S
C126 C127 1.392 . S
C127 H103 0.951 . S
C127 C126 1.392 . S
C127 C128 1.392 . S
C128 H104 0.949 . S
C128 C123 1.382 . S
C128 C127 1.392 . S
C129 C130 1.376 . S
C129 C134 1.386 . S
C129 C135 1.483 . S
C130 H105 0.949 . S
C130 C129 1.376 . S
C130 C131 1.397 . S
C131 H106 0.950 . S
C131 C130 1.397 . S
C131 C132 1.391 . S
C132 C131 1.391 . S
C132 C133 1.405 . S
C133 H107 0.950 . S
C133 C132 1.405 . S
C133 C134 1.367 . S
C134 H108 0.950 . S
C134 C129 1.386 . S
C134 C133 1.367 . S
C135 C129 1.483 . S
C135 C136 1.382 . S
C135 C137 1.403 . S
C136 H109 0.950 . S
C136 C122 1.411 . S
C136 C135 1.382 . S
C137 C121 1.411 . S
C137 C135 1.403 . S
C137 C138 1.489 . S
C138 C137 1.489 . S
C138 C139 1.383 . S
C138 C143 1.382 . S
C139 H110 0.950 . S
C139 C138 1.383 . S
C139 C140 1.395 . S
C140 H111 0.950 . S
C140 C139 1.395 . S
C140 C141 1.288 . S
C141 C140 1.288 . S
C141 C142 1.392 . S
C142 H112 0.951 . S
C142 C141 1.392 . S
C142 C143 1.392 . S
C143 H113 0.949 . S
C143 C138 1.382 . S
C143 C142 1.392 . S
H144 C163 0.949 . S
H145 C164 0.950 . S
H146 C166 0.950 . S
H147 C167 0.950 . S
H148 C169 0.950 . S
H149 C172 0.950 . S
H150 C173 0.950 . S
H151 C175 0.951 . S
H152 C176 0.949 . S
H153 C178 0.949 . S
H154 C179 0.950 . S
H155 C181 0.950 . S
H156 C182 0.950 . S
H157 C184 0.950 . S
H158 C187 0.950 . S
H159 C188 0.950 . S
H160 C190 0.951 . S
H161 C191 0.949 . S
C162 C163 1.376 . S
C162 C167 1.386 . S
C162 C168 1.483 . S
C163 H144 0.949 . S
C163 C162 1.376 . S
C163 C164 1.397 . S
C164 H145 0.950 . S
C164 C163 1.397 . S
C164 C165 1.391 . S
C165 C164 1.391 . S
C165 C166 1.405 . S
C166 H146 0.950 . S
C166 C165 1.405 . S
C166 C167 1.367 . S
C167 H147 0.950 . S
C167 C162 1.386 . S
C167 C166 1.367 . S
C168 C162 1.483 . S
C168 C169 1.382 . S
C168 C170 1.403 . S
C169 H148 0.950 . S
C169 C168 1.382 . S
C169 C185 1.411 1_565 S
C170 C168 1.403 . S
C170 C171 1.489 . S
C170 C184 1.411 1_565 S
C171 C170 1.489 . S
C171 C172 1.383 . S
C171 C176 1.382 . S
C172 H149 0.950 . S
C172 C171 1.383 . S
C172 C173 1.395 . S
C173 H150 0.950 . S
C173 C172 1.395 . S
C173 C174 1.288 . S
C174 C173 1.288 . S
C174 C175 1.392 . S
C175 H151 0.951 . S
C175 C174 1.392 . S
C175 C176 1.392 . S
C176 H152 0.949 . S
C176 C171 1.382 . S
C176 C175 1.392 . S
C177 C178 1.376 . S
C177 C182 1.386 . S
C177 C183 1.483 . S
C178 H153 0.949 . S
C178 C177 1.376 . S
C178 C179 1.397 . S
C179 H154 0.950 . S
C179 C178 1.397 . S
C179 C180 1.391 . S
C180 C179 1.391 . S
C180 C181 1.405 . S
C181 H155 0.950 . S
C181 C180 1.405 . S
C181 C182 1.367 . S
C182 H156 0.950 . S
C182 C177 1.386 . S
C182 C181 1.367 . S
C183 C177 1.483 . S
C183 C184 1.382 . S
C183 C185 1.403 . S
C184 H157 0.950 . S
C184 C170 1.411 1_545 S
C184 C183 1.382 . S
C185 C169 1.411 1_545 S
C185 C183 1.403 . S
C185 C186 1.489 . S
C186 C185 1.489 . S
C186 C187 1.383 . S
C186 C191 1.382 . S
C187 H158 0.950 . S
C187 C186 1.383 . S
C187 C188 1.395 . S
C188 H159 0.950 . S
C188 C187 1.395 . S
C188 C189 1.288 . S
C189 C188 1.288 . S
C189 C190 1.392 . S
C190 H160 0.951 . S
C190 C189 1.392 . S
C190 C191 1.392 . S
C191 H161 0.949 . S
C191 C186 1.382 . S
C191 C190 1.392 . S
H192 C211 0.949 . S
H193 C212 0.950 . S
H194 C214 0.950 . S
H195 C215 0.950 . S
H196 C217 0.950 . S
H197 C220 0.950 . S
H198 C221 0.950 . S
H199 C223 0.951 . S
H200 C224 0.949 . S
H201 C226 0.949 . S
H202 C227 0.950 . S
H203 C229 0.950 . S
H204 C230 0.950 . S
H205 C232 0.950 . S
H206 C235 0.950 . S
H207 C236 0.950 . S
H208 C238 0.951 . S
H209 C239 0.949 . S
C210 C211 1.376 . S
C210 C215 1.386 . S
C210 C216 1.483 . S
C211 H192 0.949 . S
C211 C210 1.376 . S
C211 C212 1.397 . S
C212 H193 0.950 . S
C212 C211 1.397 . S
C212 C213 1.391 . S
C213 C212 1.391 . S
C213 C214 1.405 . S
C214 H194 0.950 . S
C214 C213 1.405 . S
C214 C215 1.367 . S
C215 H195 0.950 . S
C215 C210 1.386 . S
C215 C214 1.367 . S
C216 C210 1.483 . S
C216 C217 1.382 1_455 S
C216 C218 1.403 . S
C217 H196 0.950 . S
C217 C216 1.382 1_655 S
C217 C233 1.411 . S
C218 C216 1.403 . S
C218 C219 1.489 . S
C218 C232 1.411 . S
C219 C218 1.489 . S
C219 C220 1.383 . S
C219 C224 1.382 . S
C220 H197 0.950 . S
C220 C219 1.383 . S
C220 C221 1.395 . S
C221 H198 0.950 . S
C221 C220 1.395 . S
C221 C222 1.288 1_556 S
C222 C221 1.288 1_554 S
C222 C223 1.392 . S
C223 H199 0.951 . S
C223 C222 1.392 . S
C223 C224 1.392 1_554 S
C224 H200 0.949 . S
C224 C219 1.382 . S
C224 C223 1.392 1_556 S
C225 C226 1.376 . S
C225 C230 1.386 . S
C225 C231 1.483 . S
C226 H201 0.949 . S
C226 C225 1.376 . S
C226 C227 1.397 . S
C227 H202 0.950 . S
C227 C226 1.397 . S
C227 C228 1.391 . S
C228 C227 1.391 . S
C228 C229 1.405 . S
C229 H203 0.950 . S
C229 C228 1.405 . S
C229 C230 1.367 . S
C230 H204 0.950 . S
C230 C225 1.386 . S
C230 C229 1.367 . S
C231 C225 1.483 . S
C231 C232 1.382 1_655 S
C231 C233 1.403 . S
C232 H205 0.950 . S
C232 C218 1.411 . S
C232 C231 1.382 1_455 S
C233 C217 1.411 . S
C233 C231 1.403 . S
C233 C234 1.489 . S
C234 C233 1.489 . S
C234 C235 1.383 . S
C234 C239 1.382 . S
C235 H206 0.950 . S
C235 C234 1.383 . S
C235 C236 1.395 . S
C236 H207 0.950 . S
C236 C235 1.395 . S
C236 C237 1.288 . S
C237 C236 1.288 . S
C237 C238 1.392 . S
C238 H208 0.951 . S
C238 C237 1.392 . S
C238 C239 1.392 . S
C239 H209 0.949 . S
C239 C234 1.382 . S
C239 C238 1.392 . S
H240 C259 0.949 . S
H241 C260 0.950 . S
H242 C262 0.950 . S
H243 C263 0.950 . S
H244 C265 0.950 . S
H245 C268 0.950 . S
H246 C269 0.950 . S
H247 C271 0.951 . S
H248 C272 0.949 . S
H249 C274 0.949 . S
H250 C275 0.950 . S
H251 C277 0.950 . S
H252 C278 0.950 . S
H253 C280 0.950 . S
H254 C283 0.950 . S
H255 C284 0.950 . S
H256 C286 0.951 . S
H257 C287 0.949 . S
C258 C259 1.376 . S
C258 C263 1.386 . S
C258 C264 1.483 . S
C259 H240 0.949 . S
C259 C258 1.376 . S
C259 C260 1.397 . S
C260 H241 0.950 . S
C260 C259 1.397 . S
C260 C261 1.391 . S
C261 C260 1.391 . S
C261 C262 1.405 . S
C262 H242 0.950 . S
C262 C261 1.405 . S
C262 C263 1.367 . S
C263 H243 0.950 . S
C263 C258 1.386 . S
C263 C262 1.367 . S
C264 C258 1.483 . S
C264 C265 1.382 . S
C264 C266 1.403 . S
C265 H244 0.950 . S
C265 C264 1.382 . S
C265 C281 1.411 . S
C266 C264 1.403 . S
C266 C267 1.489 . S
C266 C280 1.411 . S
C267 C266 1.489 . S
C267 C268 1.383 . S
C267 C272 1.382 . S
C268 H245 0.950 . S
C268 C267 1.383 . S
C268 C269 1.395 . S
C269 H246 0.950 . S
C269 C268 1.395 . S
C269 C270 1.288 . S
C270 C269 1.288 . S
C270 C271 1.392 . S
C271 H247 0.951 . S
C271 C270 1.392 . S
C271 C272 1.392 . S
C272 H248 0.949 . S
C272 C267 1.382 . S
C272 C271 1.392 . S
C273 C274 1.376 . S
C273 C278 1.386 . S
C273 C279 1.483 . S
C274 H249 0.949 . S
C274 C273 1.376 . S
C274 C275 1.397 . S
C275 H250 0.950 . S
C275 C274 1.397 . S
C275 C276 1.391 . S
C276 C275 1.391 . S
C276 C277 1.405 . S
C277 H251 0.950 . S
C277 C276 1.405 . S
C277 C278 1.367 . S
C278 H252 0.950 . S
C278 C273 1.386 . S
C278 C277 1.367 . S
C279 C273 1.483 . S
C279 C280 1.382 . S
C279 C281 1.403 . S
C280 H253 0.950 . S
C280 C266 1.411 . S
C280 C279 1.382 . S
C281 C265 1.411 . S
C281 C279 1.403 . S
C281 C282 1.489 . S
C282 C281 1.489 . S
C282 C283 1.383 . S
C282 C287 1.382 . S
C283 H254 0.950 . S
C283 C282 1.383 . S
C283 C284 1.395 . S
C284 H255 0.950 . S
C284 C283 1.395 . S
C284 C285 1.288 . S
C285 C284 1.288 . S
C285 C286 1.392 . S
C286 H256 0.951 . S
C286 C285 1.392 . S
C286 C287 1.392 . S
C287 H257 0.949 . S
C287 C282 1.382 . S
C287 C286 1.392 . S
H288 C307 0.949 . S
H289 C308 0.950 . S
H290 C310 0.950 . S
H291 C311 0.950 1_545 S
H292 C313 0.950 . S
H293 C316 0.950 . S
H294 C317 0.950 . S
H295 C319 0.951 . S
H296 C320 0.949 . S
H297 C322 0.949 . S
H298 C323 0.950 . S
H299 C325 0.950 . S
H300 C326 0.950 . S
H301 C328 0.950 . S
H302 C331 0.950 . S
H303 C332 0.950 . S
H304 C334 0.951 . S
H305 C335 0.949 . S
C306 C307 1.376 . S
C306 C311 1.386 . S
C306 C312 1.471 1_565 S
C307 H288 0.949 . S
C307 C306 1.376 . S
C307 C308 1.397 . S
C308 H289 0.950 . S
C308 C307 1.397 . S
C308 C309 1.391 . S
C309 C308 1.391 . S
C309 C310 1.405 . S
C310 H290 0.950 . S
C310 C309 1.405 . S
C310 C311 1.367 . S
C311 H291 0.950 1_565 S
C311 C306 1.386 . S
C311 C310 1.367 . S
C312 C306 1.471 1_545 S
C312 C313 1.390 . S
C312 C314 1.408 . S
C313 H292 0.950 . S
C313 C312 1.390 . S
C313 C329 1.411 . S
C314 C312 1.408 . S
C314 C315 1.489 1_545 S
C314 C328 1.411 . S
C315 C314 1.489 1_565 S
C315 C316 1.383 . S
C315 C320 1.382 1_565 S
C316 H293 0.950 . S
C316 C315 1.383 . S
C316 C317 1.395 . S
C317 H294 0.950 . S
C317 C316 1.395 . S
C317 C318 1.288 . S
C318 C317 1.288 . S
C318 C319 1.392 1_565 S
C319 H295 0.951 . S
C319 C318 1.392 1_545 S
C319 C320 1.392 . S
C320 H296 0.949 . S
C320 C315 1.382 1_545 S
C320 C319 1.392 . S
C321 C322 1.376 . S
C321 C326 1.386 . S
C321 C327 1.483 . S
C322 H297 0.949 . S
C322 C321 1.376 . S
C322 C323 1.397 . S
C323 H298 0.950 . S
C323 C322 1.397 . S
C323 C324 1.391 . S
C324 C323 1.391 . S
C324 C325 1.405 . S
C325 H299 0.950 . S
C325 C324 1.405 . S
C325 C326 1.367 . S
C326 H300 0.950 . S
C326 C321 1.386 . S
C326 C325 1.367 . S
C327 C321 1.483 . S
C327 C328 1.382 . S
C327 C329 1.403 . S
C328 H301 0.950 . S
C328 C314 1.411 . S
C328 C327 1.382 . S
C329 C313 1.411 . S
C329 C327 1.403 . S
C329 C330 1.489 . S
C330 C329 1.489 . S
C330 C331 1.383 . S
C330 C335 1.382 . S
C331 H302 0.950 . S
C331 C330 1.383 . S
C331 C332 1.395 . S
C332 H303 0.950 . S
C332 C331 1.395 . S
C332 C333 1.288 . S
C333 C332 1.288 . S
C333 C334 1.392 . S
C334 H304 0.951 . S
C334 C333 1.392 . S
C334 C335 1.392 . S
C335 H305 0.949 . S
C335 C330 1.382 . S
C335 C334 1.392 . S
H336 C355 0.949 . S
H337 C356 0.950 . S
H338 C358 0.950 . S
H339 C359 0.950 . S
H340 C361 0.950 . S
H341 C364 0.950 . S
H342 C365 0.950 . S
H343 C367 0.951 . S
H344 C368 0.949 . S
H345 C370 0.949 . S
H346 C371 0.950 . S
H347 C373 0.950 . S
H348 C374 0.950 . S
H349 C376 0.950 . S
H350 C379 0.950 . S
H351 C380 0.950 . S
H352 C382 0.951 . S
H353 C383 0.949 . S
C354 C355 1.376 . S
C354 C359 1.386 . S
C354 C360 1.483 . S
C355 H336 0.949 . S
C355 C354 1.376 . S
C355 C356 1.397 . S
C356 H337 0.950 . S
C356 C355 1.397 . S
C356 C357 1.391 . S
C357 C356 1.391 . S
C357 C358 1.405 1_455 S
C358 H338 0.950 . S
C358 C357 1.405 1_655 S
C358 C359 1.367 1_655 S
C359 H339 0.950 . S
C359 C354 1.386 . S
C359 C358 1.367 1_455 S
C360 C354 1.483 . S
C360 C361 1.382 . S
C360 C362 1.403 . S
C361 H340 0.950 . S
C361 C360 1.382 . S
C361 C377 1.411 . S
C362 C360 1.403 . S
C362 C363 1.489 . S
C362 C376 1.411 . S
C363 C362 1.489 . S
C363 C364 1.383 . S
C363 C368 1.382 . S
C364 H341 0.950 . S
C364 C363 1.383 . S
C364 C365 1.395 . S
C365 H342 0.950 . S
C365 C364 1.395 . S
C365 C366 1.288 . S
C366 C365 1.288 . S
C366 C367 1.392 . S
C367 H343 0.951 . S
C367 C366 1.392 . S
C367 C368 1.392 . S
C368 H344 0.949 . S
C368 C363 1.382 . S
C368 C367 1.392 . S
C369 C370 1.376 . S
C369 C374 1.386 . S
C369 C375 1.483 . S
C370 H345 0.949 . S
C370 C369 1.376 . S
C370 C371 1.397 . S
C371 H346 0.950 . S
C371 C370 1.397 . S
C371 C372 1.391 . S
C372 C371 1.391 . S
C372 C373 1.405 . S
C373 H347 0.950 . S
C373 C372 1.405 . S
C373 C374 1.367 . S
C374 H348 0.950 . S
C374 C369 1.386 . S
C374 C373 1.367 . S
C375 C369 1.483 . S
C375 C376 1.382 . S
C375 C377 1.403 . S
C376 H349 0.950 . S
C376 C362 1.411 . S
C376 C375 1.382 . S
C377 C361 1.411 . S
C377 C375 1.403 . S
C377 C378 1.489 . S
C378 C377 1.489 . S
C378 C379 1.383 . S
C378 C383 1.382 . S
C379 H350 0.950 . S
C379 C378 1.383 . S
C379 C380 1.395 . S
C380 H351 0.950 . S
C380 C379 1.395 . S
C380 C381 1.288 . S
C381 C380 1.288 . S
C381 C382 1.392 . S
C382 H352 0.951 . S
C382 C381 1.392 . S
C382 C383 1.392 . S
C383 H353 0.949 . S
C383 C378 1.382 . S
C383 C382 1.392 . S
O384 Cd385 2.223 . S
O384 C392 1.315 . S
Cd385 O384 2.223 . S
Cd385 O388 2.297 . S
Cd385 O389 2.439 . S
Cd385 O395 2.240 . S
Cd386 O387 2.240 . S
Cd386 O394 2.223 . S
Cd386 O396 2.297 . S
Cd386 O397 2.439 . S
O387 Cd386 2.240 . S
O387 C392 1.279 . S
O388 Cd385 2.297 . S
O388 C390 1.247 . S
O389 Cd385 2.439 . S
O389 C390 1.208 . S
C390 O388 1.247 . S
C390 O389 1.208 . S
C391 O396 1.247 . S
C391 O397 1.208 . S
C392 O384 1.315 . S
C392 O387 1.279 . S
C393 O394 1.315 . S
C393 O395 1.279 . S
O394 Cd386 2.223 . S
O394 C393 1.315 . S
O395 Cd385 2.240 . S
O395 C393 1.279 . S
O396 Cd386 2.297 . S
O396 C391 1.247 . S
O397 Cd386 2.439 . S
O397 C391 1.208 . S
O398 Cd399 2.223 . S
O398 C406 1.315 . S
Cd399 O398 2.223 . S
Cd399 O402 2.297 . S
Cd399 O403 2.439 . S
Cd399 O409 2.240 . S
Cd400 O401 2.240 . S
Cd400 O408 2.223 . S
Cd400 O410 2.297 . S
Cd400 O411 2.439 . S
O401 Cd400 2.240 . S
O401 C406 1.279 . S
O402 Cd399 2.297 . S
O402 C404 1.247 . S
O403 Cd399 2.439 . S
O403 C404 1.208 . S
C404 O402 1.247 . S
C404 O403 1.208 . S
C405 O410 1.247 . S
C405 O411 1.208 . S
C406 O398 1.315 . S
C406 O401 1.279 . S
C407 O408 1.315 . S
C407 O409 1.279 . S
O408 Cd400 2.223 . S
O408 C407 1.315 . S
O409 Cd399 2.240 . S
O409 C407 1.279 . S
O410 Cd400 2.297 . S
O410 C405 1.247 . S
O411 Cd400 2.439 . S
O411 C405 1.208 . S
O412 Cd413 2.223 . S
O412 C420 1.315 . S
Cd413 O412 2.223 . S
Cd413 O416 2.297 . S
Cd413 O417 2.439 . S
Cd413 O423 2.240 . S
Cd414 O415 2.240 . S
Cd414 O422 2.223 . S
Cd414 O424 2.297 . S
Cd414 O425 2.439 . S
O415 Cd414 2.240 . S
O415 C420 1.279 . S
O416 Cd413 2.297 . S
O416 C418 1.247 . S
O417 Cd413 2.439 . S
O417 C418 1.208 . S
C418 O416 1.247 . S
C418 O417 1.208 . S
C419 O424 1.247 . S
C419 O425 1.208 . S
C420 O412 1.315 . S
C420 O415 1.279 . S
C421 O422 1.315 . S
C421 O423 1.279 . S
O422 Cd414 2.223 . S
O422 C421 1.315 . S
O423 Cd413 2.240 . S
O423 C421 1.279 . S
O424 Cd414 2.297 . S
O424 C419 1.247 . S
O425 Cd414 2.439 . S
O425 C419 1.208 . S
O426 Cd427 2.223 . S
O426 C434 1.315 . S
Cd427 O426 2.223 . S
Cd427 O430 2.297 . S
Cd427 O431 2.439 . S
Cd427 O437 2.240 . S
Cd428 O429 2.240 . S
Cd428 O436 2.223 . S
Cd428 O438 2.297 . S
Cd428 O439 2.439 . S
O429 Cd428 2.240 . S
O429 C434 1.279 . S
O430 Cd427 2.297 . S
O430 C432 1.247 . S
O431 Cd427 2.439 . S
O431 C432 1.208 . S
C432 O430 1.247 . S
C432 O431 1.208 . S
C433 O438 1.247 . S
C433 O439 1.208 . S
C434 O426 1.315 . S
C434 O429 1.279 . S
C435 O436 1.315 . S
C435 O437 1.279 . S
O436 Cd428 2.223 . S
O436 C435 1.315 . S
O437 Cd427 2.240 . S
O437 C435 1.279 . S
O438 Cd428 2.297 . S
O438 C433 1.247 . S
O439 Cd428 2.439 . S
O439 C433 1.208 . S
O440 Cd441 2.223 . S
O440 C448 1.315 . S
Cd441 O440 2.223 . S
Cd441 O444 2.297 . S
Cd441 O445 2.439 . S
Cd441 O451 2.240 . S
Cd442 O443 2.240 . S
Cd442 O450 2.223 . S
Cd442 O452 2.297 . S
Cd442 O453 2.439 . S
O443 Cd442 2.240 . S
O443 C448 1.279 . S
O444 Cd441 2.297 . S
O444 C446 1.247 . S
O445 Cd441 2.439 . S
O445 C446 1.208 . S
C446 O444 1.247 . S
C446 O445 1.208 . S
C447 O452 1.247 . S
C447 O453 1.208 . S
C448 O440 1.315 . S
C448 O443 1.279 . S
C449 O450 1.315 . S
C449 O451 1.279 . S
O450 Cd442 2.223 . S
O450 C449 1.315 . S
O451 Cd441 2.240 . S
O451 C449 1.279 . S
O452 Cd442 2.297 . S
O452 C447 1.247 . S
O453 Cd442 2.439 . S
O453 C447 1.208 . S
O454 Cd455 2.223 . S
O454 C462 1.315 . S
Cd455 O454 2.223 . S
Cd455 O458 2.297 . S
Cd455 O459 2.439 . S
Cd455 O465 2.240 . S
Cd456 O457 2.240 . S
Cd456 O464 2.223 . S
Cd456 O466 2.297 . S
Cd456 O467 2.439 . S
O457 Cd456 2.240 . S
O457 C462 1.279 . S
O458 Cd455 2.297 . S
O458 C460 1.247 . S
O459 Cd455 2.439 . S
O459 C460 1.208 . S
C460 O458 1.247 . S
C460 O459 1.208 . S
C461 O466 1.247 . S
C461 O467 1.208 . S
C462 O454 1.315 . S
C462 O457 1.279 . S
C463 O464 1.315 . S
C463 O465 1.279 . S
O464 Cd456 2.223 . S
O464 C463 1.315 . S
O465 Cd455 2.240 . S
O465 C463 1.279 . S
O466 Cd456 2.297 . S
O466 C461 1.247 . S
O467 Cd456 2.439 . S
O467 C461 1.208 . S
O468 Cd469 2.223 . S
O468 C476 1.315 . S
Cd469 O468 2.223 . S
Cd469 O472 2.297 . S
Cd469 O473 2.439 . S
Cd469 O479 2.240 1_554 S
Cd470 O471 2.240 1_556 S
Cd470 O478 2.224 . S
Cd470 O480 2.297 . S
Cd470 O481 2.439 . S
O471 Cd470 2.240 1_554 S
O471 C476 1.279 . S
O472 Cd469 2.297 . S
O472 C474 1.247 . S
O473 Cd469 2.439 . S
O473 C474 1.208 . S
C474 O472 1.247 . S
C474 O473 1.208 . S
C475 O480 1.247 . S
C475 O481 1.208 . S
C476 O468 1.315 . S
C476 O471 1.279 . S
C477 O478 1.323 . S
C477 O479 1.279 . S
O478 Cd470 2.224 . S
O478 C477 1.323 . S
O479 Cd469 2.240 1_556 S
O479 C477 1.279 . S
O480 Cd470 2.297 . S
O480 C475 1.247 . S
O481 Cd470 2.439 . S
O481 C475 1.208 . S
O482 Cd483 2.223 . S
O482 C490 1.315 . S
Cd483 O482 2.223 . S
Cd483 O486 2.297 . S
Cd483 O487 2.439 . S
Cd483 O493 2.240 . S
Cd484 O485 2.240 . S
Cd484 O492 2.223 . S
Cd484 O494 2.297 . S
Cd484 O495 2.439 . S
O485 Cd484 2.240 . S
O485 C490 1.279 . S
O486 Cd483 2.297 . S
O486 C488 1.247 . S
O487 Cd483 2.439 . S
O487 C488 1.208 . S
C488 O486 1.247 . S
C488 O487 1.208 . S
C489 O494 1.247 . S
C489 O495 1.208 . S
C490 O482 1.315 . S
C490 O485 1.279 . S
C491 O492 1.315 . S
C491 O493 1.279 . S
O492 Cd484 2.223 . S
O492 C491 1.315 . S
O493 Cd483 2.240 . S
O493 C491 1.279 . S
O494 Cd484 2.297 . S
O494 C489 1.247 . S
O495 Cd484 2.439 . S
O495 C489 1.208 . S
H496 C502 0.930 . S
H497 C505 0.930 . S
H498 C506 0.930 . S
H499 C507 0.930 . S
H500 C510 0.930 . S
H501 C511 0.930 . S
C502 H496 0.930 . S
C502 C503 1.355 . S
C502 C504 1.415 . S
C503 C502 1.355 . S
C503 C505 1.419 . S
C504 C502 1.415 . S
C504 C509 1.425 . S
C504 C511 1.409 . S
C505 H497 0.930 . S
C505 C503 1.419 . S
C505 C506 1.362 . S
C506 H498 0.930 . S
C506 C505 1.362 . S
C506 C509 1.409 . S
C507 H499 0.930 . S
C507 C508 1.355 . S
C507 C509 1.415 . S
C508 C507 1.355 . S
C508 C510 1.419 . S
C509 C504 1.425 . S
C509 C506 1.409 . S
C509 C507 1.415 . S
C510 H500 0.930 . S
C510 C508 1.419 . S
C510 C511 1.362 . S
C511 H501 0.930 . S
C511 C504 1.409 . S
C511 C510 1.362 . S
H512 C518 0.930 . S
H513 C521 0.930 . S
H514 C522 0.930 . S
H515 C523 0.930 . S
H516 C526 0.930 . S
H517 C527 0.930 . S
C518 H512 0.930 . S
C518 C519 1.355 . S
C518 C520 1.415 . S
C519 C518 1.355 . S
C519 C521 1.419 . S
C520 C518 1.415 . S
C520 C525 1.425 . S
C520 C527 1.409 . S
C521 H513 0.930 . S
C521 C519 1.419 . S
C521 C522 1.362 . S
C522 H514 0.930 . S
C522 C521 1.362 . S
C522 C525 1.409 . S
C523 H515 0.930 . S
C523 C524 1.355 . S
C523 C525 1.415 . S
C524 C523 1.355 . S
C524 C526 1.419 . S
C525 C520 1.425 . S
C525 C522 1.409 . S
C525 C523 1.415 . S
C526 H516 0.930 . S
C526 C524 1.419 . S
C526 C527 1.362 . S
C527 H517 0.930 . S
C527 C520 1.409 . S
C527 C526 1.362 . S
H528 C534 0.930 . S
H529 C537 0.930 . S
H530 C538 0.930 . S
H531 C539 0.930 . S
H532 C542 0.930 . S
H533 C543 0.930 . S
C534 H528 0.930 . S
C534 C535 1.355 . S
C534 C536 1.415 . S
C535 C534 1.355 . S
C535 C537 1.419 . S
C536 C534 1.415 . S
C536 C541 1.425 . S
C536 C543 1.409 . S
C537 H529 0.930 . S
C537 C535 1.419 . S
C537 C538 1.362 . S
C538 H530 0.930 . S
C538 C537 1.362 . S
C538 C541 1.409 . S
C539 H531 0.930 . S
C539 C540 1.355 . S
C539 C541 1.415 . S
C540 C539 1.355 . S
C540 C542 1.419 . S
C541 C536 1.425 . S
C541 C538 1.409 . S
C541 C539 1.415 . S
C542 H532 0.930 . S
C542 C540 1.419 . S
C542 C543 1.362 . S
C543 H533 0.930 . S
C543 C536 1.409 . S
C543 C542 1.362 . S
H544 C550 0.930 . S
H545 C553 0.930 . S
H546 C554 0.930 . S
H547 C555 0.930 . S
H548 C558 0.930 . S
H549 C559 0.930 . S
C550 H544 0.930 . S
C550 C551 1.355 . S
C550 C552 1.415 . S
C551 C550 1.355 . S
C551 C553 1.419 . S
C552 C550 1.415 . S
C552 C557 1.425 . S
C552 C559 1.409 . S
C553 H545 0.930 . S
C553 C551 1.419 . S
C553 C554 1.362 . S
C554 H546 0.930 . S
C554 C553 1.362 . S
C554 C557 1.409 . S
C555 H547 0.930 . S
C555 C556 1.355 . S
C555 C557 1.415 . S
C556 C555 1.355 . S
C556 C558 1.419 . S
C557 C552 1.425 . S
C557 C554 1.409 . S
C557 C555 1.415 . S
C558 H548 0.930 . S
C558 C556 1.419 . S
C558 C559 1.362 . S
C559 H549 0.930 . S
C559 C552 1.409 . S
C559 C558 1.362 . S
H560 C566 0.930 . S
H561 C569 0.930 . S
H562 C570 0.930 . S
H563 C571 0.930 . S
H564 C574 0.930 . S
H565 C575 0.930 . S
C566 H560 0.930 . S
C566 C567 1.355 . S
C566 C568 1.415 . S
C567 C566 1.355 . S
C567 C569 1.419 . S
C568 C566 1.415 . S
C568 C573 1.425 . S
C568 C575 1.409 . S
C569 H561 0.930 . S
C569 C567 1.419 . S
C569 C570 1.362 . S
C570 H562 0.930 . S
C570 C569 1.362 . S
C570 C573 1.409 . S
C571 H563 0.930 . S
C571 C572 1.355 . S
C571 C573 1.415 . S
C572 C571 1.355 . S
C572 C574 1.419 . S
C573 C568 1.425 . S
C573 C570 1.409 . S
C573 C571 1.415 . S
C574 H564 0.930 . S
C574 C572 1.419 . S
C574 C575 1.362 . S
C575 H565 0.930 . S
C575 C568 1.409 . S
C575 C574 1.362 . S
H576 C582 0.930 . S
H577 C585 0.930 . S
H578 C586 0.930 . S
H579 C587 0.930 . S
H580 C590 0.930 . S
H581 C591 0.930 . S
C582 H576 0.930 . S
C582 C583 1.355 . S
C582 C584 1.415 . S
C583 C582 1.355 . S
C583 C585 1.419 . S
C584 C582 1.415 . S
C584 C589 1.425 . S
C584 C591 1.409 . S
C585 H577 0.930 . S
C585 C583 1.419 . S
C585 C586 1.362 . S
C586 H578 0.930 . S
C586 C585 1.362 . S
C586 C589 1.409 . S
C587 H579 0.930 . S
C587 C588 1.355 . S
C587 C589 1.415 . S
C588 C587 1.355 . S
C588 C590 1.419 . S
C589 C584 1.425 . S
C589 C586 1.409 . S
C589 C587 1.415 . S
C590 H580 0.930 . S
C590 C588 1.419 . S
C590 C591 1.362 . S
C591 H581 0.930 . S
C591 C584 1.409 . S
C591 C590 1.362 . S
H592 C598 0.930 . S
H593 C601 0.930 . S
H594 C602 0.930 . S
H595 C603 0.930 . S
H596 C606 0.930 . S
H597 C607 0.930 . S
C598 H592 0.930 . S
C598 C599 1.355 . S
C598 C600 1.415 . S
C599 C598 1.355 . S
C599 C601 1.419 . S
C600 C598 1.415 . S
C600 C605 1.425 . S
C600 C607 1.409 . S
C601 H593 0.930 . S
C601 C599 1.419 . S
C601 C602 1.362 . S
C602 H594 0.930 . S
C602 C601 1.362 . S
C602 C605 1.409 . S
C603 H595 0.930 . S
C603 C604 1.355 . S
C603 C605 1.415 . S
C604 C603 1.355 . S
C604 C606 1.419 . S
C605 C600 1.425 . S
C605 C602 1.409 . S
C605 C603 1.415 . S
C606 H596 0.930 . S
C606 C604 1.419 . S
C606 C607 1.362 . S
C607 H597 0.930 . S
C607 C600 1.409 . S
C607 C606 1.362 . S
H608 C614 0.930 . S
H609 C617 0.930 . S
H610 C618 0.930 . S
H611 C619 0.930 . S
H612 C622 0.930 . S
H613 C623 0.930 . S
C614 H608 0.930 . S
C614 C615 1.355 . S
C614 C616 1.415 1_545 S
C615 C614 1.355 . S
C615 C617 1.419 . S
C616 C614 1.415 1_565 S
C616 C621 1.425 . S
C616 C623 1.409 . S
C617 H609 0.930 . S
C617 C615 1.419 . S
C617 C618 1.362 . S
C618 H610 0.930 . S
C618 C617 1.362 . S
C618 C621 1.409 1_545 S
C619 H611 0.930 . S
C619 C620 1.355 . S
C619 C621 1.415 . S
C620 C619 1.355 . S
C620 C622 1.419 . S
C621 C616 1.425 . S
C621 C618 1.409 1_565 S
C621 C619 1.415 . S
C622 H612 0.930 . S
C622 C620 1.419 . S
C622 C623 1.362 . S
C623 H613 0.930 . S
C623 C616 1.409 . S
C623 C622 1.362 . S
H624 C630 0.930 . S
H625 C633 0.930 . S
H626 C634 0.930 . S
H627 C635 0.930 . S
H628 C638 0.930 . S
H629 C639 0.930 . S
C630 H624 0.930 . S
C630 C631 1.355 . S
C630 C632 1.415 . S
C631 C630 1.355 . S
C631 C633 1.419 . S
C632 C630 1.415 . S
C632 C637 1.425 . S
C632 C639 1.409 . S
C633 H625 0.930 . S
C633 C631 1.419 . S
C633 C634 1.362 . S
C634 H626 0.930 . S
C634 C633 1.362 . S
C634 C637 1.409 . S
C635 H627 0.930 . S
C635 C636 1.355 . S
C635 C637 1.415 . S
C636 C635 1.355 . S
C636 C638 1.419 . S
C637 C632 1.425 . S
C637 C634 1.409 . S
C637 C635 1.415 . S
C638 H628 0.930 . S
C638 C636 1.419 . S
C638 C639 1.362 . S
C639 H629 0.930 . S
C639 C632 1.409 . S
C639 C638 1.362 . S
H640 C646 0.930 . S
H641 C649 0.930 . S
H642 C650 0.930 . S
H643 C651 0.930 . S
H644 C654 0.930 . S
H645 C655 0.930 . S
C646 H640 0.930 . S
C646 C647 1.355 . S
C646 C648 1.415 . S
C647 C646 1.355 . S
C647 C649 1.419 . S
C648 C646 1.415 . S
C648 C653 1.425 . S
C648 C655 1.409 . S
C649 H641 0.930 . S
C649 C647 1.419 . S
C649 C650 1.362 . S
C650 H642 0.930 . S
C650 C649 1.362 . S
C650 C653 1.409 . S
C651 H643 0.930 . S
C651 C652 1.355 . S
C651 C653 1.415 . S
C652 C651 1.355 . S
C652 C654 1.419 . S
C653 C648 1.425 . S
C653 C650 1.409 . S
C653 C651 1.415 . S
C654 H644 0.930 . S
C654 C652 1.419 . S
C654 C655 1.362 . S
C655 H645 0.930 . S
C655 C648 1.409 . S
C655 C654 1.362 . S
H656 C662 0.930 . S
H657 C665 0.930 1_455 S
H658 C666 0.930 . S
H659 C667 0.930 . S
H660 C670 0.930 . S
H661 C671 0.930 . S
C662 H656 0.930 . S
C662 C663 1.355 . S
C662 C664 1.415 . S
C663 C662 1.355 . S
C663 C665 1.419 . S
C664 C662 1.415 . S
C664 C669 1.425 . S
C664 C671 1.409 . S
C665 H657 0.930 1_655 S
C665 C663 1.419 . S
C665 C666 1.362 . S
C666 H658 0.930 . S
C666 C665 1.362 . S
C666 C669 1.409 . S
C667 H659 0.930 . S
C667 C668 1.355 . S
C667 C669 1.415 . S
C668 C667 1.355 . S
C668 C670 1.419 . S
C669 C664 1.425 . S
C669 C666 1.409 . S
C669 C667 1.415 . S
C670 H660 0.930 . S
C670 C668 1.419 . S
C670 C671 1.362 . S
C671 H661 0.930 . S
C671 C664 1.409 . S
C671 C670 1.362 . S
H672 C678 0.930 . S
H673 C681 0.930 1_455 S
H674 C682 0.930 1_455 S
H675 C683 0.930 . S
H676 C686 0.930 . S
H677 C687 0.930 . S
C678 H672 0.930 . S
C678 C679 1.355 . S
C678 C680 1.415 . S
C679 C678 1.355 . S
C679 C681 1.419 . S
C680 C678 1.415 . S
C680 C685 1.425 . S
C680 C687 1.409 . S
C681 H673 0.930 1_655 S
C681 C679 1.419 . S
C681 C682 1.362 . S
C682 H674 0.930 1_655 S
C682 C681 1.362 . S
C682 C685 1.409 . S
C683 H675 0.930 . S
C683 C684 1.355 . S
C683 C685 1.415 . S
C684 C683 1.355 . S
C684 C686 1.419 . S
C685 C680 1.425 . S
C685 C682 1.409 . S
C685 C683 1.415 . S
C686 H676 0.930 . S
C686 C684 1.419 . S
C686 C687 1.362 . S
C687 H677 0.930 . S
C687 C680 1.409 . S
C687 C686 1.362 . S
H688 C694 0.930 . S
H689 C697 0.930 . S
H690 C698 0.930 . S
H691 C699 0.930 . S
H692 C702 0.930 . S
H693 C703 0.930 . S
C694 H688 0.930 . S
C694 C695 1.355 . S
C694 C696 1.415 . S
C695 C694 1.355 . S
C695 C697 1.419 . S
C696 C694 1.415 . S
C696 C701 1.425 . S
C696 C703 1.409 . S
C697 H689 0.930 . S
C697 C695 1.419 . S
C697 C698 1.362 . S
C698 H690 0.930 . S
C698 C697 1.362 . S
C698 C701 1.409 . S
C699 H691 0.930 . S
C699 C700 1.355 . S
C699 C701 1.415 . S
C700 C699 1.355 . S
C700 C702 1.419 . S
C701 C696 1.425 . S
C701 C698 1.409 . S
C701 C699 1.415 . S
C702 H692 0.930 . S
C702 C700 1.419 . S
C702 C703 1.362 . S
C703 H693 0.930 . S
C703 C696 1.409 . S
C703 C702 1.362 . S
H704 C710 0.930 . S
H705 C713 0.930 . S
H706 C714 0.930 . S
H707 C715 0.930 . S
H708 C718 0.930 . S
H709 C719 0.930 . S
C710 H704 0.930 . S
C710 C711 1.355 . S
C710 C712 1.415 . S
C711 C710 1.355 . S
C711 C713 1.419 . S
C712 C710 1.415 . S
C712 C717 1.425 . S
C712 C719 1.409 . S
C713 H705 0.930 . S
C713 C711 1.419 . S
C713 C714 1.362 . S
C714 H706 0.930 . S
C714 C713 1.362 . S
C714 C717 1.409 . S
C715 H707 0.930 . S
C715 C716 1.355 . S
C715 C717 1.415 . S
C716 C715 1.355 . S
C716 C718 1.419 . S
C717 C712 1.425 . S
C717 C714 1.409 . S
C717 C715 1.415 . S
C718 H708 0.930 . S
C718 C716 1.419 . S
C718 C719 1.362 . S
C719 H709 0.930 . S
C719 C712 1.409 . S
C719 C718 1.362 . S
H720 C726 0.930 . S
H721 C729 0.930 . S
H722 C730 0.930 . S
H723 C731 0.930 . S
H724 C734 0.930 . S
H725 C735 0.930 . S
C726 H720 0.930 . S
C726 C727 1.355 . S
C726 C728 1.415 . S
C727 C726 1.355 . S
C727 C729 1.419 1_556 S
C728 C726 1.415 . S
C728 C733 1.425 1_556 S
C728 C735 1.409 . S
C729 H721 0.930 . S
C729 C727 1.419 1_554 S
C729 C730 1.362 . S
C730 H722 0.930 . S
C730 C729 1.362 . S
C730 C733 1.409 . S
C731 H723 0.930 . S
C731 C732 1.355 1_554 S
C731 C733 1.415 . S
C732 C731 1.355 1_556 S
C732 C734 1.419 . S
C733 C728 1.425 1_554 S
C733 C730 1.409 . S
C733 C731 1.415 . S
C734 H724 0.930 . S
C734 C732 1.419 . S
C734 C735 1.362 . S
C735 H725 0.930 . S
C735 C728 1.409 . S
C735 C734 1.362 . S
H736 C742 0.930 . S
H737 C745 0.930 . S
H738 C746 0.930 . S
H739 C747 0.930 . S
H740 C750 0.930 . S
H741 C751 0.930 . S
C742 H736 0.930 . S
C742 C743 1.355 . S
C742 C744 1.415 . S
C743 C742 1.355 . S
C743 C745 1.419 . S
C744 C742 1.415 . S
C744 C749 1.425 . S
C744 C751 1.409 . S
C745 H737 0.930 . S
C745 C743 1.419 . S
C745 C746 1.362 . S
C746 H738 0.930 . S
C746 C745 1.362 . S
C746 C749 1.409 . S
C747 H739 0.930 . S
C747 C748 1.355 . S
C747 C749 1.415 . S
C748 C747 1.355 . S
C748 C750 1.419 . S
C749 C744 1.425 . S
C749 C746 1.409 . S
C749 C747 1.415 . S
C750 H740 0.930 . S
C750 C748 1.419 . S
C750 C751 1.362 . S
C751 H741 0.930 . S
C751 C744 1.409 . S
C751 C750 1.362 . S
H752 C758 0.930 . S
H753 C761 0.951 . S
H754 C762 0.930 . S
H755 C763 0.930 . S
H756 C766 0.930 . S
H757 C767 0.930 . S
C758 H752 0.930 . S
C758 C759 1.355 . S
C758 C760 1.415 . S
C759 C758 1.355 . S
C759 C761 1.419 . S
C760 C758 1.415 . S
C760 C765 1.425 . S
C760 C767 1.409 . S
C761 H753 0.951 . S
C761 C759 1.419 . S
C761 C762 1.362 . S
C762 H754 0.930 . S
C762 C761 1.362 . S
C762 C765 1.409 . S
C763 H755 0.930 . S
C763 C764 1.355 . S
C763 C765 1.415 . S
C764 C763 1.355 . S
C764 C766 1.419 . S
C765 C760 1.425 . S
C765 C762 1.409 . S
C765 C763 1.415 . S
C766 H756 0.930 . S
C766 C764 1.419 . S
C766 C767 1.362 . S
C767 H757 0.930 . S
C767 C760 1.409 . S
C767 C766 1.362 . S
H768 C774 0.930 . S
H769 C777 0.930 . S
H770 C778 0.930 . S
H771 C779 0.930 . S
H772 C782 0.930 . S
H773 C783 0.930 . S
C774 H768 0.930 . S
C774 C775 1.355 . S
C774 C776 1.415 . S
C775 C774 1.355 . S
C775 C777 1.419 . S
C776 C774 1.415 . S
C776 C781 1.425 . S
C776 C783 1.409 . S
C777 H769 0.930 . S
C777 C775 1.419 . S
C777 C778 1.362 . S
C778 H770 0.930 . S
C778 C777 1.362 . S
C778 C781 1.409 . S
C779 H771 0.930 . S
C779 C780 1.355 . S
C779 C781 1.415 . S
C780 C779 1.355 . S
C780 C782 1.419 . S
C781 C776 1.425 . S
C781 C778 1.409 . S
C781 C779 1.415 . S
C782 H772 0.930 . S
C782 C780 1.419 . S
C782 C783 1.362 . S
C783 H773 0.930 . S
C783 C776 1.409 . S
C783 C782 1.362 . S
H784 C790 0.930 . S
H785 C793 0.930 . S
H786 C794 0.930 . S
H787 C795 0.930 . S
H788 C798 0.930 . S
H789 C799 0.930 . S
C790 H784 0.930 . S
C790 C791 1.355 . S
C790 C792 1.415 . S
C791 C790 1.355 . S
C791 C793 1.419 . S
C792 C790 1.415 . S
C792 C797 1.425 . S
C792 C799 1.409 . S
C793 H785 0.930 . S
C793 C791 1.419 . S
C793 C794 1.362 . S
C794 H786 0.930 . S
C794 C793 1.362 . S
C794 C797 1.409 . S
C795 H787 0.930 . S
C795 C796 1.355 . S
C795 C797 1.415 . S
C796 C795 1.355 . S
C796 C798 1.419 . S
C797 C792 1.425 . S
C797 C794 1.409 . S
C797 C795 1.415 . S
C798 H788 0.930 . S
C798 C796 1.419 . S
C798 C799 1.362 . S
C799 H789 0.930 . S
C799 C792 1.409 . S
C799 C798 1.362 . S
H800 C806 0.930 . S
H801 C809 0.930 . S
H802 C810 0.930 . S
H803 C811 0.930 . S
H804 C814 0.930 . S
H805 C815 0.930 . S
C806 H800 0.930 . S
C806 C807 1.355 . S
C806 C808 1.415 . S
C807 C806 1.355 . S
C807 C809 1.419 . S
C808 C806 1.415 . S
C808 C813 1.425 . S
C808 C815 1.409 . S
C809 H801 0.930 . S
C809 C807 1.419 . S
C809 C810 1.362 . S
C810 H802 0.930 . S
C810 C809 1.362 . S
C810 C813 1.409 . S
C811 H803 0.930 . S
C811 C812 1.355 . S
C811 C813 1.415 . S
C812 C811 1.355 . S
C812 C814 1.419 . S
C813 C808 1.425 . S
C813 C810 1.409 . S
C813 C811 1.415 . S
C814 H804 0.930 . S
C814 C812 1.419 . S
C814 C815 1.362 . S
C815 H805 0.930 . S
C815 C808 1.409 . S
C815 C814 1.362 . S
H816 C822 0.930 . S
H817 C825 0.930 . S
H818 C826 0.930 . S
H819 C827 0.930 . S
H820 C830 0.930 . S
H821 C831 0.930 . S
C822 H816 0.930 . S
C822 C823 1.355 . S
C822 C824 1.415 . S
C823 C822 1.355 . S
C823 C825 1.419 . S
C824 C822 1.415 . S
C824 C829 1.425 . S
C824 C831 1.409 . S
C825 H817 0.930 . S
C825 C823 1.419 . S
C825 C826 1.362 . S
C826 H818 0.930 . S
C826 C825 1.362 . S
C826 C829 1.409 . S
C827 H819 0.930 . S
C827 C828 1.355 . S
C827 C829 1.415 . S
C828 C827 1.355 . S
C828 C830 1.419 . S
C829 C824 1.425 . S
C829 C826 1.409 . S
C829 C827 1.415 . S
C830 H820 0.930 . S
C830 C828 1.419 . S
C830 C831 1.362 . S
C831 H821 0.930 . S
C831 C824 1.409 . S
C831 C830 1.362 . S
H832 C838 0.930 . S
H833 C841 0.930 . S
H834 C842 0.930 . S
H835 C843 0.930 . S
H836 C846 0.930 . S
H837 C847 0.930 . S
C838 H832 0.930 . S
C838 C839 1.355 . S
C838 C840 1.415 . S
C839 C838 1.355 . S
C839 C841 1.419 . S
C840 C838 1.415 . S
C840 C845 1.425 . S
C840 C847 1.409 . S
C841 H833 0.930 . S
C841 C839 1.419 . S
C841 C842 1.362 . S
C842 H834 0.930 . S
C842 C841 1.362 . S
C842 C845 1.409 . S
C843 H835 0.930 . S
C843 C844 1.355 . S
C843 C845 1.415 . S
C844 C843 1.355 . S
C844 C846 1.419 . S
C845 C840 1.425 . S
C845 C842 1.409 . S
C845 C843 1.415 . S
C846 H836 0.930 . S
C846 C844 1.419 . S
C846 C847 1.362 . S
C847 H837 0.930 . S
C847 C840 1.409 . S
C847 C846 1.362 . S
H848 C854 0.930 . S
H849 C857 0.930 . S
H850 C858 0.930 . S
H851 C859 0.930 . S
H852 C862 0.930 . S
H853 C863 0.930 . S
C854 H848 0.930 . S
C854 C855 1.355 . S
C854 C856 1.415 . S
C855 C854 1.355 . S
C855 C857 1.419 . S
C856 C854 1.415 . S
C856 C861 1.425 . S
C856 C863 1.409 . S
C857 H849 0.930 . S
C857 C855 1.419 . S
C857 C858 1.362 . S
C858 H850 0.930 . S
C858 C857 1.362 . S
C858 C861 1.409 . S
C859 H851 0.930 . S
C859 C860 1.355 . S
C859 C861 1.415 . S
C860 C859 1.355 . S
C860 C862 1.419 . S
C861 C856 1.425 . S
C861 C858 1.409 . S
C861 C859 1.415 . S
C862 H852 0.930 . S
C862 C860 1.419 . S
C862 C863 1.362 . S
C863 H853 0.930 . S
C863 C856 1.409 . S
C863 C862 1.362 . S
H864 C870 0.930 1_565 S
H865 C873 0.930 . S
H866 C874 0.930 . S
H867 C875 0.930 1_545 S
H868 C878 0.930 . S
H869 C879 0.930 . S
C870 H864 0.930 1_545 S
C870 C871 1.355 . S
C870 C872 1.415 1_545 S
C871 C870 1.355 . S
C871 C873 1.419 . S
C872 C870 1.415 1_565 S
C872 C877 1.425 1_565 S
C872 C879 1.409 . S
C873 H865 0.930 . S
C873 C871 1.419 . S
C873 C874 1.362 . S
C874 H866 0.930 . S
C874 C873 1.362 . S
C874 C877 1.409 . S
C875 H867 0.930 1_565 S
C875 C876 1.355 . S
C875 C877 1.415 1_565 S
C876 C875 1.355 . S
C876 C878 1.419 . S
C877 C872 1.425 1_545 S
C877 C874 1.409 . S
C877 C875 1.415 1_545 S
C878 H868 0.930 . S
C878 C876 1.419 . S
C878 C879 1.362 . S
C879 H869 0.930 . S
C879 C872 1.409 . S
C879 C878 1.362 . S
H880 C886 0.930 . S
H881 C889 0.930 . S
H882 C890 0.930 . S
H883 C891 0.930 . S
H884 C894 0.930 . S
H885 C895 0.930 . S
C886 H880 0.930 . S
C886 C887 1.355 . S
C886 C888 1.415 . S
C887 C886 1.355 . S
C887 C889 1.419 . S
C888 C886 1.415 . S
C888 C893 1.425 . S
C888 C895 1.409 . S
C889 H881 0.930 . S
C889 C887 1.419 . S
C889 C890 1.362 . S
C890 H882 0.930 . S
C890 C889 1.362 . S
C890 C893 1.409 . S
C891 H883 0.930 . S
C891 C892 1.355 . S
C891 C893 1.415 . S
C892 C891 1.355 . S
C892 C894 1.419 . S
C893 C888 1.425 . S
C893 C890 1.409 . S
C893 C891 1.415 . S
C894 H884 0.930 . S
C894 C892 1.419 . S
C894 C895 1.362 . S
C895 H885 0.930 . S
C895 C888 1.409 . S
C895 C894 1.362 . S
H896 C902 0.930 . S
H897 C905 0.930 . S
H898 C906 0.930 . S
H899 C907 0.930 . S
H900 C910 0.930 . S
H901 C911 0.930 . S
C902 H896 0.930 . S
C902 C903 1.355 . S
C902 C904 1.415 . S
C903 C902 1.355 . S
C903 C905 1.419 . S
C904 C902 1.415 . S
C904 C909 1.425 . S
C904 C911 1.409 . S
C905 H897 0.930 . S
C905 C903 1.419 . S
C905 C906 1.362 . S
C906 H898 0.930 . S
C906 C905 1.362 . S
C906 C909 1.409 . S
C907 H899 0.930 . S
C907 C908 1.355 . S
C907 C909 1.415 . S
C908 C907 1.355 . S
C908 C910 1.419 . S
C909 C904 1.425 . S
C909 C906 1.409 . S
C909 C907 1.415 . S
C910 H900 0.930 . S
C910 C908 1.419 . S
C910 C911 1.362 . S
C911 H901 0.930 . S
C911 C904 1.409 . S
C911 C910 1.362 . S
H912 C918 0.930 . S
H913 C921 0.930 . S
H914 C922 0.930 . S
H915 C923 0.930 . S
H916 C926 0.930 . S
H917 C927 0.930 1_455 S
C918 H912 0.930 . S
C918 C919 1.355 1_455 S
C918 C920 1.415 1_455 S
C919 C918 1.355 1_655 S
C919 C921 1.419 . S
C920 C918 1.415 1_655 S
C920 C925 1.425 . S
C920 C927 1.409 . S
C921 H913 0.930 . S
C921 C919 1.419 . S
C921 C922 1.362 . S
C922 H914 0.930 . S
C922 C921 1.362 . S
C922 C925 1.409 . S
C923 H915 0.930 . S
C923 C924 1.355 . S
C923 C925 1.415 . S
C924 C923 1.355 . S
C924 C926 1.419 . S
C925 C920 1.425 . S
C925 C922 1.409 . S
C925 C923 1.415 . S
C926 H916 0.930 . S
C926 C924 1.419 . S
C926 C927 1.362 . S
C927 H917 0.930 1_655 S
C927 C920 1.409 . S
C927 C926 1.362 . S
H928 C934 0.930 . S
H929 C937 0.930 . S
H930 C938 0.930 . S
H931 C939 0.930 . S
H932 C942 0.930 . S
H933 C943 0.930 . S
C934 H928 0.930 . S
C934 C935 1.355 . S
C934 C936 1.415 . S
C935 C934 1.355 . S
C935 C937 1.419 . S
C936 C934 1.415 . S
C936 C941 1.425 . S
C936 C943 1.409 . S
C937 H929 0.930 . S
C937 C935 1.419 . S
C937 C938 1.362 . S
C938 H930 0.930 . S
C938 C937 1.362 . S
C938 C941 1.409 . S
C939 H931 0.930 . S
C939 C940 1.355 . S
C939 C941 1.415 . S
C940 C939 1.355 . S
C940 C942 1.419 . S
C941 C936 1.425 . S
C941 C938 1.409 . S
C941 C939 1.415 . S
C942 H932 0.930 . S
C942 C940 1.419 . S
C942 C943 1.362 . S
C943 H933 0.930 . S
C943 C936 1.409 . S
C943 C942 1.362 . S
H944 C950 0.930 . S
H945 C953 0.930 . S
H946 C954 0.930 . S
H947 C955 0.930 . S
H948 C958 0.930 . S
H949 C959 0.930 . S
C950 H944 0.930 . S
C950 C951 1.355 . S
C950 C952 1.415 . S
C951 C950 1.355 . S
C951 C953 1.419 . S
C952 C950 1.415 . S
C952 C957 1.425 . S
C952 C959 1.409 . S
C953 H945 0.930 . S
C953 C951 1.419 . S
C953 C954 1.362 . S
C954 H946 0.930 . S
C954 C953 1.362 . S
C954 C957 1.409 . S
C955 H947 0.930 . S
C955 C956 1.355 . S
C955 C957 1.415 . S
C956 C955 1.355 . S
C956 C958 1.419 . S
C957 C952 1.425 . S
C957 C954 1.409 . S
C957 C955 1.415 . S
C958 H948 0.930 . S
C958 C956 1.419 . S
C958 C959 1.362 . S
C959 H949 0.930 . S
C959 C952 1.409 . S
C959 C958 1.362 . S
H960 C966 0.930 . S
H961 C969 0.930 . S
H962 C970 0.930 . S
H963 C971 0.930 . S
H964 C974 0.930 . S
H965 C975 0.930 . S
C966 H960 0.930 . S
C966 C967 1.355 1_655 S
C966 C968 1.415 . S
C967 C966 1.355 1_455 S
C967 C969 1.419 . S
C968 C966 1.415 . S
C968 C973 1.425 . S
C968 C975 1.409 . S
C969 H961 0.930 . S
C969 C967 1.419 . S
C969 C970 1.362 . S
C970 H962 0.930 . S
C970 C969 1.362 . S
C970 C973 1.409 1_455 S
C971 H963 0.930 . S
C971 C972 1.355 . S
C971 C973 1.415 . S
C972 C971 1.355 . S
C972 C974 1.419 . S
C973 C968 1.425 . S
C973 C970 1.409 1_655 S
C973 C971 1.415 . S
C974 H964 0.930 . S
C974 C972 1.419 . S
C974 C975 1.362 . S
C975 H965 0.930 . S
C975 C968 1.409 . S
C975 C974 1.362 . S
H976 C982 0.930 . S
H977 C985 0.930 . S
H978 C986 0.930 . S
H979 C987 0.930 . S
H980 C990 0.930 . S
H981 C991 0.930 . S
C982 H976 0.930 . S
C982 C983 1.355 . S
C982 C984 1.415 . S
C983 C982 1.355 . S
C983 C985 1.419 . S
C984 C982 1.415 . S
C984 C989 1.425 . S
C984 C991 1.409 . S
C985 H977 0.930 . S
C985 C983 1.419 . S
C985 C986 1.362 . S
C986 H978 0.930 . S
C986 C985 1.362 . S
C986 C989 1.409 . S
C987 H979 0.930 . S
C987 C988 1.355 . S
C987 C989 1.415 . S
C988 C987 1.355 . S
C988 C990 1.419 . S
C989 C984 1.425 . S
C989 C986 1.409 . S
C989 C987 1.415 . S
C990 H980 0.930 . S
C990 C988 1.419 . S
C990 C991 1.362 . S
C991 H981 0.930 . S
C991 C984 1.409 . S
C991 C990 1.362 . S
H992 C998 0.930 . S
H993 C1001 0.930 . S
H994 C1002 0.930 . S
H995 C1003 0.930 . S
H996 C1006 0.930 . S
H997 C1007 0.930 . S
C998 H992 0.930 . S
C998 C999 1.355 . S
C998 C1000 1.415 . S
C999 C998 1.355 . S
C999 C1001 1.419 . S
C1000 C998 1.415 . S
C1000 C1005 1.425 . S
C1000 C1007 1.409 . S
C1001 H993 0.930 . S
C1001 C999 1.419 . S
C1001 C1002 1.362 . S
C1002 H994 0.930 . S
C1002 C1001 1.362 . S
C1002 C1005 1.409 . S
C1003 H995 0.930 . S
C1003 C1004 1.355 . S
C1003 C1005 1.415 . S
C1004 C1003 1.355 . S
C1004 C1006 1.419 . S
C1005 C1000 1.425 . S
C1005 C1002 1.409 . S
C1005 C1003 1.415 . S
C1006 H996 0.930 . S
C1006 C1004 1.419 . S
C1006 C1007 1.362 . S
C1007 H997 0.930 . S
C1007 C1000 1.409 . S
C1007 C1006 1.362 . S
C508 C404 1.414 . S
C503 C36 1.411 . S
C524 C421 1.425 . S
C519 C93 1.409 . S
C540 C435 1.493 . S
C535 C126 1.564 . S
C551 C165 1.411 . S
C556 C393 1.371 . S
C567 C222 1.370 . S
C572 C390 1.425 . S
C583 C261 1.224 . S
C588 C407 1.264 . S
C604 C418 1.554 . S
C599 C318 1.536 . S
C620 C432 1.455 . S
C615 C381 1.476 . S
C631 C132 1.445 . S
C636 C460 1.438 . S
C652 C474 1.552 . S
C647 C189 1.565 . S
C663 C30 1.268 1_655 S
C668 C491 1.185 . S
C684 C446 1.398 . S
C679 C69 1.298 . S
C695 C324 1.384 . S
C700 C449 1.408 . S
C711 C357 1.545 1_655 S
C716 C463 1.492 . S
C732 C477 1.393 . S
C727 C228 1.453 . S
C743 C285 1.370 . S
C748 C488 1.407 . S
C764 C420 1.951 . S
C759 C45 1.931 . S
C780 C434 2.060 . S
C775 C84 2.072 . S
C791 C117 1.960 . S
C796 C392 1.982 1_556 S
C807 C174 1.843 . S
C812 C405 1.746 . S
C823 C213 1.703 . S
C828 C433 1.599 . S
C844 C391 1.512 . S
C839 C270 1.675 . S
C860 C406 1.868 . S
C855 C309 1.880 . S
C876 C419 1.642 . S
C871 C372 1.784 . S
C892 C475 1.665 . S
C887 C141 1.762 . S
C908 C490 1.867 . S
C903 C180 1.900 . S
C919 C21 1.709 1_655 S
C924 C447 1.595 . S
C940 C461 1.567 . S
C935 C78 1.702 . S
C956 C489 1.716 . S
C951 C333 1.876 . S
C967 C366 1.963 . S
C972 C448 2.026 . S
C988 C462 2.042 . S
C983 C237 2.059 . S
C1004 C476 1.943 . S
C999 C276 1.950 . S
