# Generated by pormake.
# Topology anh, (6,3)-cn, num edge types: 1
# Building blocks:
#     Node 0, Type 0, BuildingBlock: NUHQIS_clean_sbu_0, # of connection points: 6
#     Node 1, Type 0, BuildingBlock: NUHQIS_clean_sbu_0, # of connection points: 6
#     Node 2, Type 0, BuildingBlock: NUHQIS_clean_sbu_0, # of connection points: 6
#     Node 3, Type 1, BuildingBlock: KAKCAD_clean_linker_0, # of connection points: 3
#     Node 4, Type 1, BuildingBlock: KAKCAD_clean_linker_0, # of connection points: 3
#     Node 5, Type 1, BuildingBlock: KAKCAD_clean_linker_0, # of connection points: 3
#     Node 6, Type 1, BuildingBlock: KAKCAD_clean_linker_0, # of connection points: 3
#     Node 7, Type 1, BuildingBlock: KAKCAD_clean_linker_0, # of connection points: 3
#     Node 8, Type 1, BuildingBlock: KAKCAD_clean_linker_0, # of connection points: 3
#     Edge 9, Type (0, 1), BuildingBlock: XUDNAN_clean_linker_2, # of connection points: 2
#     Edge 10, Type (0, 1), BuildingBlock: XUDNAN_clean_linker_2, # of connection points: 2
#     Edge 11, Type (0, 1), BuildingBlock: XUDNAN_clean_linker_2, # of connection points: 2
#     Edge 12, Type (0, 1), BuildingBlock: XUDNAN_clean_linker_2, # of connection points: 2
#     Edge 13, Type (0, 1), BuildingBlock: XUDNAN_clean_linker_2, # of connection points: 2
#     Edge 14, Type (0, 1), BuildingBlock: XUDNAN_clean_linker_2, # of connection points: 2
#     Edge 15, Type (0, 1), BuildingBlock: XUDNAN_clean_linker_2, # of connection points: 2
#     Edge 16, Type (0, 1), BuildingBlock: XUDNAN_clean_linker_2, # of connection points: 2
#     Edge 17, Type (0, 1), BuildingBlock: XUDNAN_clean_linker_2, # of connection points: 2
#     Edge 18, Type (0, 1), BuildingBlock: XUDNAN_clean_linker_2, # of connection points: 2
#     Edge 19, Type (0, 1), BuildingBlock: XUDNAN_clean_linker_2, # of connection points: 2
#     Edge 20, Type (0, 1), BuildingBlock: XUDNAN_clean_linker_2, # of connection points: 2
#     Edge 21, Type (0, 1), BuildingBlock: XUDNAN_clean_linker_2, # of connection points: 2
#     Edge 22, Type (0, 1), BuildingBlock: XUDNAN_clean_linker_2, # of connection points: 2
#     Edge 23, Type (0, 1), BuildingBlock: XUDNAN_clean_linker_2, # of connection points: 2
#     Edge 24, Type (0, 1), BuildingBlock: XUDNAN_clean_linker_2, # of connection points: 2
#     Edge 25, Type (0, 1), BuildingBlock: XUDNAN_clean_linker_2, # of connection points: 2
#     Edge 26, Type (0, 1), BuildingBlock: XUDNAN_clean_linker_2, # of connection points: 2
# Relax obj value: 0.237
# Max RMSD: 0.188
# Mean RMSD: 0.155
data_MOF--net-anh--node1-NUHQIS_clean_sbu_0--node2-KAKCAD_clean_linker_0--edge1-XUDNAN_clean_linker_2
_symmetry_space_group_name_H-M    P1
_symmetry_Int_Tables_number       1
_symmetry_cell_setting            triclinic
loop_
_symmetry_equiv_pos_as_xyz
'x, y, z'
_cell_length_a     35.859931
_cell_length_b     35.984233
_cell_length_c     67.851023
_cell_angle_alpha  90.101076
_cell_angle_beta   92.284803
_cell_angle_gamma 119.97805
loop_
_atom_site_label
_atom_site_type_symbol
_atom_site_fract_x
_atom_site_fract_y
_atom_site_fract_z
_atom_type_partial_charge
Tb0 Tb 0.18498 0.58397 0.15672 0.0
Eu1 Eu 0.12937 0.63055 0.14977 0.0
C2 C 0.14979 0.60928 0.19178 0.0
C3 C 1.08105 0.52586 0.15533 0.0
C4 C 0.27368 0.57346 0.17774 0.0
C5 C 0.33369 0.56841 0.19201 0.0
C6 C 0.29178 0.54858 0.18372 0.0
C7 C 0.29617 0.61789 0.18175 0.0
C8 C 0.33828 0.63784 0.18987 0.0
C9 C 0.35815 0.61346 0.19419 0.0
C10 C 0.23245 0.55359 0.16644 0.0
O11 O 0.15961 0.56686 0.12631 0.0
O12 O 0.1538 0.62614 0.12002 0.0
O13 O 0.1979 0.68414 0.15868 0.0
O14 O 0.23264 0.64944 0.14857 0.0
C15 C 0.15641 0.59298 0.11373 0.0
O16 O 1.08281 0.6413 0.13281 0.0
O17 O 0.11489 0.67961 0.15937 0.0
O18 O 0.11791 0.60494 0.18024 0.0
O19 O 0.18532 0.61568 0.1841 0.0
O20 O 0.11932 0.5296 0.15862 0.0
O21 O 1.07702 0.55943 0.15073 0.0
C22 C 0.23372 0.685 0.15419 0.0
O23 O 0.19968 0.5477 0.17636 0.0
O24 O 0.23302 0.57017 0.14927 0.0
C25 C 1.04046 0.65254 0.15454 0.0
C26 C 0.95418 0.60644 0.16499 0.0
C27 C 0.96598 0.63383 0.14879 0.0
C28 C 1.00891 0.65664 0.14356 0.0
C29 C 1.02922 0.62786 0.17161 0.0
C30 C 0.98642 0.60505 0.17681 0.0
C31 C 1.08269 0.66697 0.14642 0.0
H32 H 0.34825 0.54873 0.19488 0.0
H33 H 0.27449 0.51419 0.18096 0.0
H34 H 0.28211 0.63743 0.17754 0.0
H35 H 0.35644 0.67254 0.19131 0.0
H36 H 0.94171 0.63511 0.13925 0.0
H37 H 1.01695 0.67511 0.13023 0.0
H38 H 1.05304 0.62398 0.18024 0.0
H39 H 0.97821 0.58444 0.18944 0.0
Tb40 Tb 0.69126 0.14538 0.49336 0.0
Eu41 Eu 0.59527 0.10348 0.47446 0.0
C42 C 0.61198 0.10236 0.52013 0.0
C43 C 0.64109 1.04517 0.48532 0.0
C44 C 0.78727 0.235 0.51333 0.0
C45 C 0.83599 0.30809 0.50405 0.0
C46 C 0.82558 0.26522 0.50497 0.0
C47 C 0.76233 0.24921 0.5229 0.0
C48 C 0.77291 0.29212 0.52209 0.0
C49 C 0.80832 0.32121 0.51159 0.0
C50 C 0.76738 0.18968 0.50698 0.0
O51 O 0.69122 0.1282 0.46216 0.0
O52 O 0.6402 0.14362 0.45146 0.0
O53 O 0.60785 0.16843 0.48627 0.0
O54 O 0.68125 0.20003 0.48707 0.0
C55 C 0.67267 0.13837 0.44768 0.0
O56 O 0.55151 1.06901 0.4493 0.0
O57 O 0.52738 0.08501 0.47492 0.0
O58 O 0.58863 0.07911 0.50489 0.0
O59 O 0.65032 0.13593 0.51812 0.0
O60 O 0.67151 0.0773 0.49611 0.0
O61 O 0.61347 1.05058 0.47387 0.0
C62 C 0.64618 0.20312 0.48801 0.0
O63 O 0.73618 0.16188 0.5174 0.0
O64 O 0.75705 0.18323 0.48816 0.0
C65 C 0.48858 1.01415 0.46189 0.0
C66 C 0.45005 0.92488 0.46614 0.0
C67 C 0.45155 0.94223 0.44743 0.0
C68 C 0.47067 0.98655 0.44533 0.0
C69 C 0.48568 0.99666 0.48069 0.0
C70 C 0.46641 0.95243 0.48279 0.0
C71 C 0.51769 1.06024 0.4592 0.0
H72 H 0.86373 0.33023 0.49602 0.0
H73 H 0.84502 0.25497 0.49736 0.0
H74 H 0.73226 0.22655 0.52926 0.0
H75 H 0.75098 0.30145 0.5279 0.0
H76 H 0.43827 0.92154 0.43439 0.0
H77 H 0.47319 0.99937 0.4307 0.0
H78 H 0.50003 1.01714 0.49373 0.0
H79 H 0.46558 0.93986 0.49737 0.0
Tb80 Tb 0.68578 0.65712 0.82503 0.0
Eu81 Eu 0.6453 0.55674 0.8106 0.0
C82 C 0.65738 0.5831 0.85497 0.0
C83 C 0.74865 0.6169 0.82082 0.0
C84 C 0.69736 0.75612 0.84775 0.0
C85 C 0.67598 0.81007 0.84569 0.0
C86 C 0.70036 0.79265 0.83908 0.0
C87 C 0.67263 0.73956 0.86443 0.0
C88 C 0.6488 0.75762 0.87139 0.0
C89 C 0.64837 0.79182 0.86147 0.0
C90 C 0.71581 0.73326 0.83758 0.0
O91 O 0.69578 0.65893 0.79309 0.0
O92 O 0.64609 0.59007 0.78286 0.0
O93 O 0.58736 0.56413 0.81697 0.0
O94 O 0.61701 0.63719 0.8211 0.0
C95 C 0.67303 0.63012 0.77899 0.0
O96 O 0.64231 0.5048 0.7927 0.0
O97 O 0.59583 0.49086 0.81514 0.0
O98 O 0.66778 0.56356 0.84203 0.0
O99 O 0.65425 0.6167 0.85007 0.0
O100 O 0.74185 0.64756 0.82731 0.0
O101 O 0.7174 0.58118 0.81246 0.0
C102 C 0.58316 0.59818 0.8196 0.0
O103 O 0.71966 0.7041 0.84736 0.0
O104 O 0.7004 0.72019 0.8196 0.0
C105 C 0.62175 0.44258 0.81165 0.0
C106 C 0.63718 0.37865 0.82708 0.0
C107 C 0.65857 0.4015 0.81047 0.0
C108 C 0.65083 0.43307 0.80279 0.0
C109 C 0.60148 0.4207 0.82867 0.0
C110 C 0.60924 0.38915 0.83633 0.0
C111 C 0.61269 0.47525 0.8033 0.0
H112 H 0.67649 0.83571 0.8372 0.0
H113 H 0.71928 0.80597 0.82622 0.0
H114 H 0.66997 0.71142 0.87151 0.0
H115 H 0.62895 0.7432 0.88385 0.0
H116 H 0.67958 0.39344 0.80277 0.0
H117 H 0.66691 0.44934 0.78967 0.0
H118 H 0.57896 0.42732 0.83591 0.0
H119 H 0.59228 0.37194 0.84912 0.0
C120 C 0.6809 0.15794 0.2922 0.0
C121 C 0.67689 0.12227 0.30248 0.0
C122 C 0.67584 0.15646 0.27152 0.0
C123 C 0.66584 0.119 0.26065 0.0
C124 C 0.66101 0.08311 0.27099 0.0
C125 C 0.66674 0.08482 0.29159 0.0
C126 C 0.66147 0.11737 0.23858 0.0
C127 C 0.69264 0.15049 0.22756 0.0
C128 C 0.6908 0.14864 0.20676 0.0
C129 C 0.65618 0.1114 0.19693 0.0
C130 C 0.62352 0.07733 0.20781 0.0
C131 C 0.62695 0.08186 0.22862 0.0
C132 C 0.58545 1.03681 0.19828 0.0
C133 C 0.56653 1.03655 0.17956 0.0
C134 C 0.56587 0.9977 0.20855 0.0
C135 C 0.52817 0.96109 0.20107 0.0
C136 C 0.50898 0.96112 0.18263 0.0
C137 C 0.72681 0.18572 0.19622 0.0
C138 C 0.74299 0.22852 0.20299 0.0
C139 C 0.74891 0.17907 0.18116 0.0
C140 C 0.78708 0.21352 0.17402 0.0
C141 C 0.80459 0.25605 0.1816 0.0
C142 C 0.78097 0.26289 0.19584 0.0
C143 C 0.52926 0.99926 0.17181 0.0
H144 H 0.68889 0.18734 0.30013 0.0
H145 H 0.67957 0.18459 0.26402 0.0
H146 H 0.65365 1.05387 0.26308 0.0
H147 H 0.66305 1.05665 0.29904 0.0
H148 H 0.71961 0.17738 0.23538 0.0
H149 H 0.60217 1.05786 0.23744 0.0
H150 H 0.65481 0.10907 0.18099 0.0
H151 H 0.57986 1.0654 0.17101 0.0
H152 H 0.57966 0.99488 0.22254 0.0
H153 H 0.51446 0.93221 0.20964 0.0
H154 H 0.72689 0.23541 0.21441 0.0
H155 H 0.73789 0.14688 0.17553 0.0
H156 H 0.51572 1.00056 0.15745 0.0
H157 H 0.79278 0.29464 0.20222 0.0
H158 H 0.80335 0.20652 0.16274 0.0
C159 C 0.64454 0.66095 0.62269 0.0
C160 C 0.66727 0.64488 0.63359 0.0
C161 C 0.6391 0.65558 0.60214 0.0
C162 C 0.65709 0.63479 0.59173 0.0
C163 C 0.67951 0.61826 0.60276 0.0
C164 C 0.68419 0.62293 0.62343 0.0
C165 C 0.65259 0.63103 0.56954 0.0
C166 C 0.65226 0.66393 0.55856 0.0
C167 C 0.64484 0.66082 0.53789 0.0
C168 C 0.64125 0.62406 0.52786 0.0
C169 C 0.64275 0.59048 0.53856 0.0
C170 C 0.64803 0.59478 0.55936 0.0
C171 C 0.6394 0.55063 0.52882 0.0
C172 C 0.66198 0.55292 0.51192 0.0
C173 C 0.61697 0.51014 0.53772 0.0
C174 C 0.61902 0.47422 0.53077 0.0
C175 C 0.64348 0.47696 0.51451 0.0
C176 C 0.64055 0.69659 0.52786 0.0
C177 C 0.62259 0.718 0.53799 0.0
C178 C 0.6563 0.71195 0.5091 0.0
C179 C 0.65546 0.74809 0.50124 0.0
C180 C 0.63944 0.77049 0.51199 0.0
C181 C 0.62269 0.75441 0.5304 0.0
C182 C 0.66399 0.51688 0.50492 0.0
H183 H 0.63051 0.6774 0.63011 0.0
H184 H 0.62047 0.66766 0.59444 0.0
H185 H 0.69432 0.6025 0.59544 0.0
H186 H 0.70206 0.61036 0.63145 0.0
H187 H 0.65848 0.69292 0.56631 0.0
H188 H 0.64881 0.56963 0.56776 0.0
H189 H 0.6361 0.62095 0.51197 0.0
H190 H 0.67969 0.58312 0.50454 0.0
H191 H 0.5984 0.5063 0.55053 0.0
H192 H 0.60266 0.44469 0.53876 0.0
H193 H 0.60837 0.7068 0.55209 0.0
H194 H 0.67039 0.69686 0.50069 0.0
H195 H 0.68233 0.52069 0.49204 0.0
H196 H 0.60894 0.7697 0.53893 0.0
H197 H 0.66839 0.75918 0.48691 0.0
C198 C 0.19472 0.61639 0.9594 0.0
C199 C 0.15786 0.58331 0.96781 0.0
C200 C 0.19704 0.62018 0.9388 0.0
C201 C 0.16219 0.59154 0.92617 0.0
C202 C 0.12508 0.559 0.93464 0.0
C203 C 0.1231 0.55471 0.95516 0.0
C204 C 0.16407 0.59559 0.90425 0.0
C205 C 0.19938 0.59904 0.89439 0.0
C206 C 0.20134 0.60194 0.87362 0.0
C207 C 0.16628 0.60185 0.86277 0.0
C208 C 0.13014 0.59833 0.87252 0.0
C209 C 0.1299 0.59512 0.89321 0.0
C210 C 1.0924 0.59895 0.86196 0.0
C211 C 1.09846 0.63089 0.84843 0.0
C212 C 1.04977 0.57062 0.86737 0.0
C213 C 1.01489 0.57539 0.86037 0.0
C214 C 1.02119 0.60888 0.84775 0.0
C215 C 0.23961 0.60344 0.8639 0.0
C216 C 0.28128 0.625 0.87326 0.0
C217 C 0.23472 0.58061 0.84618 0.0
C218 C 0.26951 0.57779 0.83869 0.0
C219 C 0.3107 0.59767 0.8486 0.0
C220 C 0.31595 0.62209 0.86583 0.0
C221 C 1.06352 0.63587 0.84151 0.0
H222 H 0.22213 0.63875 0.96874 0.0
H223 H 0.22595 0.64577 0.93274 0.0
H224 H 1.09774 0.53634 0.92535 0.0
H225 H 1.09419 0.52899 0.96116 0.0
H226 H 0.22479 0.59781 0.90303 0.0
H227 H 1.10321 0.59333 0.90095 0.0
H228 H 0.16698 0.60435 0.84688 0.0
H229 H 0.13056 0.65346 0.84393 0.0
H230 H 1.0435 0.54535 0.87763 0.0
H231 H 0.98322 0.55392 0.86566 0.0
H232 H 0.28715 0.64376 0.8867 0.0
H233 H 0.20352 0.56348 0.83841 0.0
H234 H 1.06997 0.66162 0.83152 0.0
H235 H 0.34657 0.63793 0.87411 0.0
H236 H 0.26376 0.55947 0.82513 0.0
C237 C 1.04723 0.60042 0.33379 0.0
C238 C 1.06447 0.57404 0.32923 0.0
C239 C 1.03833 0.60491 0.35326 0.0
C240 C 1.04669 0.58322 0.36841 0.0
C241 C 1.06022 0.55398 0.36359 0.0
C242 C 1.0689 0.54933 0.34417 0.0
C243 C 1.04903 0.59671 0.38923 0.0
C244 C 1.01458 0.59801 0.39773 0.0
C245 C 1.01882 0.61399 0.41727 0.0
C246 C 1.05923 0.63044 0.42749 0.0
C247 C 1.09264 0.62659 0.41958 0.0
C248 C 1.08743 0.61003 0.40043 0.0
C249 C 0.13311 0.6398 0.43137 0.0
C250 C 0.15327 0.67883 0.44209 0.0
C251 C 0.15223 0.61387 0.43169 0.0
C252 C 0.19168 0.62757 0.44194 0.0
C253 C 0.21259 0.66738 0.45209 0.0
C254 C 0.98052 0.60893 0.42786 0.0
C255 C 0.9419 0.60041 0.41757 0.0
C256 C 0.98033 0.60705 0.44866 0.0
C257 C 0.94246 0.59277 0.45848 0.0
C258 C 0.90314 0.57808 0.44787 0.0
C259 C 0.90341 0.58429 0.42744 0.0
C260 C 0.19255 0.69249 0.45231 0.0
H261 H 1.04357 0.61996 0.3226 0.0
H262 H 1.02817 0.62785 0.35667 0.0
H263 H 1.06647 0.53658 0.37504 0.0
H264 H 1.08117 0.52799 0.34103 0.0
H265 H 0.98445 0.58503 0.38917 0.0
H266 H 0.11404 0.60897 0.39393 0.0
H267 H 1.06488 0.64517 0.44199 0.0
H268 H 0.13958 0.6997 0.44192 0.0
H269 H 0.13692 0.58323 0.42379 0.0
H270 H 0.20636 0.6076 0.44153 0.0
H271 H 0.94041 0.60337 0.40175 0.0
H272 H 1.00812 0.61245 0.45768 0.0
H273 H 0.20829 0.72393 0.45948 0.0
H274 H 0.87339 0.5733 0.41892 0.0
H275 H 0.94337 0.58792 0.47421 0.0
C276 C 0.48988 0.96177 0.65959 0.0
C277 C 0.52742 0.9987 0.65386 0.0
C278 C 0.48327 0.95161 0.67951 0.0
C279 C 0.5142 0.97793 0.69415 0.0
C280 C 0.55277 1.01342 0.68831 0.0
C281 C 0.55915 1.02387 0.66846 0.0
C282 C 0.50558 0.97011 0.71546 0.0
C283 C 0.48464 0.92817 0.72286 0.0
C284 C 0.47732 0.92191 0.74309 0.0
C285 C 0.4921 0.95754 0.75589 0.0
C286 C 0.51362 0.99928 0.74894 0.0
C287 C 0.51927 1.00532 0.72865 0.0
C288 C 0.53296 1.03608 0.76326 0.0
C289 C 0.51162 1.03484 0.7804 0.0
C290 C 0.57418 1.07131 0.76061 0.0
C291 C 0.59348 0.10462 0.77472 0.0
C292 C 0.57223 0.10322 0.79193 0.0
C293 C 0.46202 0.87996 0.75234 0.0
C294 C 0.43066 0.86726 0.7666 0.0
C295 C 0.48955 0.86281 0.75274 0.0
C296 C 0.49121 0.84019 0.76911 0.0
C297 C 0.46502 0.83419 0.78504 0.0
C298 C 0.43235 0.84463 0.78301 0.0
C299 C 0.53121 1.06775 0.79465 0.0
H300 H 0.46515 0.94102 0.64872 0.0
H301 H 0.45324 0.92401 0.68346 0.0
H302 H 0.57786 1.03381 0.69913 0.0
H303 H 0.58837 1.05263 0.66471 0.0
H304 H 0.47526 0.90069 0.71314 0.0
H305 H 0.53455 1.03764 0.72314 0.0
H306 H 0.48947 0.95261 0.77165 0.0
H307 H 0.47967 1.00837 0.78285 0.0
H308 H 0.59187 0.07296 0.74776 0.0
H309 H 0.6247 0.13188 0.7719 0.0
H310 H 0.40913 0.88024 0.76654 0.0
H311 H 0.51408 0.87225 0.74198 0.0
H312 H 0.51401 1.06547 0.80777 0.0
H313 H 0.41182 0.84019 0.79512 0.0
H314 H 0.51645 0.83198 0.7704 0.0
C315 C 0.5863 0.45406 0.00066 0.0
C316 C 0.58662 0.489 0.99119 0.0
C317 C 0.57585 0.44598 0.02039 0.0
C318 C 0.56635 0.47315 0.03134 0.0
C319 C 0.56863 0.50922 0.02213 0.0
C320 C 0.5781 0.51673 0.00228 0.0
C321 C 0.55339 0.46344 0.05213 0.0
C322 C 0.57294 0.44662 0.06495 0.0
C323 C 0.56139 0.4383 0.08475 0.0
C324 C 0.52818 0.44463 0.09105 0.0
C325 C 0.51331 0.46716 0.07952 0.0
C326 C 0.524 0.47427 0.05975 0.0
C327 C 0.49918 0.49376 0.09 0.0
C328 C 0.47174 0.47673 0.10576 0.0
C329 C 0.5228 0.53861 0.08803 0.0
C330 C 0.52287 0.5658 0.10275 0.0
C331 C 0.49944 0.54851 0.11964 0.0
C332 C 0.58956 0.43265 0.09985 0.0
C333 C 0.61415 0.4135 0.09508 0.0
C334 C 0.5962 0.45179 0.1188 0.0
C335 C 0.62797 0.45423 0.13196 0.0
C336 C 0.65528 0.43916 0.12641 0.0
C337 C 0.64699 0.41697 0.10824 0.0
C338 C 0.47213 0.50389 0.12055 0.0
H339 H 0.59381 0.43256 -0.00718 0.0
H340 H 0.57441 0.41789 0.02693 0.0
H341 H 0.56295 0.5318 0.03016 0.0
H342 H 0.57767 0.5438 -0.00442 0.0
H343 H 0.59924 0.44308 0.05986 0.0
H344 H 0.5108 0.49012 0.05072 0.0
H345 H 0.51838 0.43769 0.10611 0.0
H346 H 0.45291 0.44234 0.10754 0.0
H347 H 0.5446 0.55279 0.07615 0.0
H348 H 0.54364 0.60016 0.1016 0.0
H349 H 0.60958 0.39778 0.08086 0.0
H350 H 0.57939 0.46814 0.12323 0.0
H351 H 0.45259 0.48991 0.13316 0.0
H352 H 0.66772 0.40502 0.10362 0.0
H353 H 0.63341 0.47108 0.14598 0.0
H354 H 0.41167 0.67118 0.16923 0.0
H355 H 0.40965 0.59791 0.21987 0.0
H356 H 0.47457 0.59869 0.20923 0.0
H357 H 0.41323 0.61529 0.13839 0.0
H358 H 0.44982 0.65071 0.12065 0.0
H359 H 0.42516 0.67024 0.13677 0.0
H360 H 0.49925 0.73135 0.14984 0.0
H361 H 0.52476 0.71293 0.13308 0.0
H362 H 0.53985 0.71943 0.15905 0.0
H363 H 0.50875 0.57472 0.18706 0.0
H364 H 0.51488 0.53727 0.15813 0.0
H365 H 0.49403 0.62119 0.11946 0.0
C366 C 0.42717 0.6584 0.1788 0.0
C367 C 0.40563 0.63393 0.1951 0.0
C368 C 0.42579 0.61672 0.20727 0.0
C369 C 0.46277 0.61701 0.20123 0.0
C370 C 0.47907 0.63481 0.18308 0.0
C371 C 0.46297 0.65697 0.17233 0.0
C372 C 0.4771 0.66273 0.15121 0.0
C373 C 0.43903 0.64879 0.13591 0.0
C374 C 0.51236 0.70938 0.14812 0.0
C375 C 0.49573 0.63321 0.15076 0.0
C376 C 0.4993 0.61982 0.16955 0.0
C377 C 0.5077 0.58626 0.17245 0.0
C378 C 0.51044 0.56465 0.15593 0.0
C379 C 0.5045 0.57641 0.1367 0.0
C380 C 0.49938 0.61241 0.13411 0.0
H381 H 0.81291 0.34763 0.47419 0.0
H382 H 0.80877 0.38484 0.53444 0.0
H383 H 0.81378 0.45247 0.52265 0.0
H384 H 0.88861 0.4444 0.45773 0.0
H385 H 0.8632 0.43761 0.43348 0.0
H386 H 0.85365 0.39142 0.4472 0.0
H387 H 0.77096 0.36311 0.44348 0.0
H388 H 0.78139 0.41032 0.43005 0.0
H389 H 0.75015 0.39658 0.45174 0.0
H390 H 0.83355 0.52073 0.50472 0.0
H391 H 0.87065 0.58298 0.48324 0.0
H392 H 0.85279 0.4975 0.43435 0.0
C393 C 0.81315 0.37012 0.4849 0.0
C394 C 0.81149 0.36183 0.50521 0.0
C395 C 0.81048 0.39111 0.5188 0.0
C396 C 0.81288 0.42924 0.51221 0.0
C397 C 0.81487 0.43665 0.49197 0.0
C398 C 0.81452 0.40754 0.47854 0.0
C399 C 0.81964 0.42369 0.45778 0.0
C400 C 0.85859 0.42437 0.44853 0.0
C401 C 0.77805 0.39681 0.44502 0.0
C402 C 0.82711 0.4683 0.46174 0.0
C403 C 0.82297 0.47488 0.48147 0.0
C404 C 0.83559 0.51567 0.48917 0.0
C405 C 0.85626 0.55089 0.47683 0.0
C406 C 0.86413 0.54483 0.45712 0.0
C407 C 0.84594 0.50286 0.44915 0.0
H408 H 0.65191 0.8693 0.85574 0.0
H409 H 0.56605 0.73983 0.87421 0.0
H410 H 0.50391 0.74801 0.86509 0.0
H411 H 0.56993 0.9125 0.86021 0.0
H412 H 0.59009 0.94159 0.83789 0.0
H413 H 0.62621 0.93596 0.85529 0.0
H414 H 0.64953 0.90426 0.82725 0.0
H415 H 0.61304 0.90856 0.80998 0.0
H416 H 0.60923 0.85716 0.81362 0.0
H417 H 0.45355 0.75598 0.84164 0.0
H418 H 0.42269 0.76748 0.8104 0.0
H419 H 0.54005 0.88841 0.80386 0.0
C420 C 0.62002 0.843 0.85834 0.0
C421 C 0.6141 0.80309 0.86463 0.0
C422 C 0.57195 0.77045 0.86889 0.0
C423 C 0.53612 0.77474 0.86365 0.0
C424 C 0.54286 0.81171 0.85414 0.0
C425 C 0.58405 0.84612 0.85213 0.0
C426 C 0.5838 0.87791 0.83762 0.0
C427 C 0.59304 0.91945 0.8484 0.0
C428 C 0.61572 0.88741 0.82116 0.0
C429 C 0.5375 0.85311 0.82979 0.0
C430 C 0.51363 0.81611 0.84015 0.0
C431 C 0.4717 0.78529 0.83371 0.0
C432 C 0.45444 0.7918 0.81594 0.0
C433 C 0.47951 0.82845 0.80483 0.0
C434 C 0.5206 0.86006 0.81225 0.0
H435 H 0.88551 0.61993 0.16323 0.0
H436 H 0.91973 0.52115 0.17098 0.0
H437 H 0.84294 0.4654 0.16761 0.0
H438 H 0.77641 0.55972 0.18691 0.0
H439 H 0.75337 0.58054 0.16909 0.0
H440 H 0.80931 0.61238 0.1772 0.0
H441 H 0.83099 0.61997 0.1408 0.0
H442 H 0.77547 0.58785 0.13261 0.0
H443 H 0.81391 0.57228 0.12577 0.0
H444 H 0.76628 0.42111 0.15482 0.0
H445 H 0.69389 0.39237 0.13813 0.0
H446 H 0.71031 0.52016 0.13934 0.0
C447 C 0.87659 0.58661 0.16489 0.0
C448 C 0.90832 0.57469 0.16748 0.0
C449 C 0.89571 0.53083 0.16939 0.0
C450 C 0.85224 0.49897 0.16734 0.0
C451 C 0.82182 0.51162 0.16363 0.0
C452 C 0.83336 0.5545 0.16292 0.0
C453 C 0.79544 0.5597 0.15658 0.0
C454 C 0.78289 0.57923 0.17345 0.0
C455 C 0.80452 0.5865 0.13783 0.0
C456 C 0.76167 0.51331 0.15252 0.0
C457 C 0.7771 0.48584 0.15691 0.0
C458 C 0.75322 0.44206 0.15198 0.0
C459 C 0.71243 0.42606 0.14238 0.0
C460 C 0.69627 0.4539 0.13793 0.0
C461 C 0.72118 0.49784 0.14327 0.0
H462 H 0.39188 0.87568 0.49271 0.0
H463 H 0.4623 0.86888 0.4438 0.0
H464 H 0.41843 0.79 0.44326 0.0
H465 H 0.36293 0.76268 0.51437 0.0
H466 H 0.311 0.7547 0.52046 0.0
H467 H 0.35785 0.80768 0.52237 0.0
H468 H 0.31888 0.83631 0.49942 0.0
H469 H 0.27239 0.78398 0.49754 0.0
H470 H 0.29769 0.81108 0.47543 0.0
H471 H 0.35559 0.71899 0.4406 0.0
H472 H 0.27913 0.66599 0.43458 0.0
H473 H 0.24791 0.71382 0.48628 0.0
C474 C 0.39938 0.85728 0.4826 0.0
C475 C 0.43017 0.87802 0.46829 0.0
C476 C 0.43849 0.85338 0.4548 0.0
C477 C 0.41416 0.80854 0.45461 0.0
C478 C 0.38197 0.78883 0.46815 0.0
C479 C 0.37498 0.81248 0.48216 0.0
C480 C 0.33307 0.78512 0.49213 0.0
C481 C 0.34175 0.77706 0.5136 0.0
C482 C 0.30383 0.80531 0.49101 0.0
C483 C 0.31483 0.74433 0.47965 0.0
C484 C 0.34453 0.74621 0.46664 0.0
C485 C 0.33255 0.71632 0.45114 0.0
C486 C 0.28884 0.68608 0.44783 0.0
C487 C 0.2577 0.68626 0.45991 0.0
C488 C 0.27135 0.71326 0.4769 0.0
H489 H 0.56895 0.3008 0.83351 0.0
H490 H 0.70793 0.36817 0.83103 0.0
H491 H 0.70654 0.29886 0.83066 0.0
H492 H 0.55631 0.19981 0.86054 0.0
H493 H 0.50822 0.16672 0.8454 0.0
H494 H 0.52116 0.22007 0.85301 0.0
H495 H 0.51635 0.2384 0.81643 0.0
H496 H 0.50409 0.18581 0.80871 0.0
H497 H 0.5496 0.23216 0.79898 0.0
H498 H 0.68905 0.22525 0.82148 0.0
H499 H 0.65751 0.15512 0.80403 0.0
H500 H 0.52963 0.13667 0.8108 0.0
C501 C 0.59925 0.30098 0.83411 0.0
C502 C 0.63853 0.3396 0.8325 0.0
C503 C 0.67752 0.33874 0.83238 0.0
C504 C 0.677 0.29954 0.83231 0.0
C505 C 0.63728 0.26167 0.83251 0.0
C506 C 0.59905 0.26216 0.83371 0.0
C507 C 0.56032 0.21815 0.82953 0.0
C508 C 0.53502 0.20012 0.84824 0.0
C509 C 0.53097 0.21872 0.8124 0.0
C510 C 0.58265 0.19379 0.82392 0.0
C511 C 0.62695 0.21881 0.82652 0.0
C512 C 0.6544 0.205 0.81986 0.0
C513 C 0.63621 0.16535 0.80973 0.0
C514 C 0.59105 0.14044 0.80599 0.0
C515 C 0.56412 0.15429 0.81388 0.0
H516 H 0.66726 1.00892 0.5153 0.0
H517 H 0.60745 0.98206 0.45629 0.0
H518 H 0.60272 0.91109 0.45623 0.0
H519 H 0.72902 0.95496 0.51018 0.0
H520 H 0.71935 0.93341 0.5346 0.0
H521 H 0.71972 0.98282 0.52979 0.0
H522 H 0.64332 0.9507 0.5431 0.0
H523 H 0.64277 0.90124 0.548 0.0
H524 H 0.60031 0.90074 0.53266 0.0
H525 H 0.60706 0.84269 0.46217 0.0
H526 H 0.61261 0.78105 0.47486 0.0
H527 H 0.66414 0.84876 0.53105 0.0
C528 C 0.65342 0.98823 0.5023 0.0
C529 C 0.6382 1.00178 0.48566 0.0
C530 C 0.61952 0.97297 0.46919 0.0
C531 C 0.61681 0.93242 0.469 0.0
C532 C 0.63218 0.92015 0.48555 0.0
C533 C 0.64953 0.94701 0.50204 0.0
C534 C 0.66166 0.92511 0.51828 0.0
C535 C 0.71033 0.9506 0.52352 0.0
C536 C 0.63545 0.9191 0.53659 0.0
C537 C 0.64884 0.882 0.50834 0.0
C538 C 0.63243 0.88004 0.48935 0.0
C539 C 0.61961 0.84397 0.47708 0.0
C540 C 0.62311 0.80902 0.4844 0.0
C541 C 0.63867 0.80949 0.50401 0.0
C542 C 0.65173 0.84688 0.51604 0.0
H543 H 0.77475 0.55535 0.823 0.0
H544 H 0.82466 0.69282 0.82547 0.0
H545 H 0.8983 0.70503 0.83131 0.0
H546 H 0.84588 0.55524 0.86217 0.0
H547 H 0.85285 0.51374 0.85101 0.0
H548 H 0.80397 0.51529 0.84587 0.0
H549 H 0.81577 0.51697 0.80847 0.0
H550 H 0.8647 0.51538 0.81347 0.0
H551 H 0.86582 0.55799 0.79911 0.0
H552 H 0.96733 0.70307 0.83725 0.0
H553 H 1.02567 0.68714 0.84442 0.0
H554 H 0.9331 0.55072 0.83937 0.0
C555 C 0.80123 0.58805 0.82455 0.0
C556 C 0.79345 0.62317 0.82358 0.0
C557 C 0.82928 0.6653 0.82609 0.0
C558 C 0.87148 0.67262 0.82939 0.0
C559 C 0.878 0.63752 0.83042 0.0
C560 C 0.84388 0.59599 0.82819 0.0
C561 C 0.85994 0.56407 0.83082 0.0
C562 C 0.83944 0.53539 0.84852 0.0
C563 C 0.85102 0.537 0.81184 0.0
C564 C 0.90828 0.59413 0.83485 0.0
C565 C 0.91788 0.63637 0.83436 0.0
C566 C 0.96009 0.67006 0.83758 0.0
C567 C 0.9933 0.6606 0.84152 0.0
C568 C 0.98478 0.61762 0.84238 0.0
C569 C 0.94124 0.58399 0.83895 0.0
H570 H 0.26945 0.75017 0.18326 0.0
H571 H 0.29514 0.71352 0.12676 0.0
H572 H 0.36586 0.7805 0.12722 0.0
H573 H 0.32348 0.86585 0.17669 0.0
H574 H 0.34611 0.87917 0.20162 0.0
H575 H 0.29626 0.82988 0.19633 0.0
H576 H 0.32907 0.78679 0.21231 0.0
H577 H 0.37901 0.83592 0.21766 0.0
H578 H 0.37878 0.79323 0.20362 0.0
H579 H 0.43401 0.85373 0.13337 0.0
H580 H 0.49648 0.92167 0.14635 0.0
H581 H 0.43138 0.90866 0.20053 0.0
C582 C 0.28978 0.75658 0.17088 0.0
C583 C 0.27607 0.72665 0.15473 0.0
C584 C 0.30444 0.73585 0.13917 0.0
C585 C 0.3448 0.77401 0.1393 0.0
C586 C 0.35741 0.80278 0.15537 0.0
C587 C 0.33103 0.79418 0.17106 0.0
C588 C 0.35375 0.82912 0.18714 0.0
C589 C 0.32838 0.85238 0.19065 0.0
C590 C 0.36055 0.81013 0.20632 0.0
C591 C 0.3967 0.85888 0.17798 0.0
C592 C 0.3978 0.84336 0.1595 0.0
C593 C 0.43344 0.86586 0.14789 0.0
C594 C 0.46886 0.9047 0.15536 0.0
C595 C 0.46935 0.92088 0.1745 0.0
C596 C 0.43243 0.89728 0.18589 0.0
H597 H 0.5876 0.22786 0.50094 0.0
H598 H 0.7167 0.27992 0.4799 0.0
H599 H 0.72765 0.35288 0.48329 0.0
H600 H 0.5641 0.30659 0.47793 0.0
H601 H 0.53585 0.31054 0.4985 0.0
H602 H 0.53627 0.26147 0.49371 0.0
H603 H 0.56697 0.26487 0.52923 0.0
H604 H 0.56668 0.31397 0.53411 0.0
H605 H 0.61589 0.31231 0.53778 0.0
H606 H 0.72724 0.42149 0.4895 0.0
H607 H 0.71509 0.4804 0.49886 0.0
H608 H 0.58666 0.38739 0.51649 0.0
C609 C 0.61817 0.2546 0.49695 0.0
C610 C 0.65116 0.24738 0.49001 0.0
C611 C 0.69076 0.2838 0.48525 0.0
C612 C 0.69751 0.32572 0.48715 0.0
C613 C 0.66491 0.33179 0.49416 0.0
C614 C 0.62597 0.29733 0.49908 0.0
C615 C 0.59693 0.31353 0.50678 0.0
C616 C 0.55584 0.29704 0.49343 0.0
C617 C 0.58597 0.30038 0.52825 0.0
C618 C 0.62574 0.36225 0.50542 0.0
C619 C 0.66471 0.37183 0.49796 0.0
C620 C 0.69678 0.41427 0.49534 0.0
C621 C 0.68923 0.44781 0.50055 0.0
C622 C 0.64965 0.43957 0.50835 0.0
C623 C 0.6175 0.39563 0.51074 0.0
H624 H 0.55797 0.65394 0.83517 0.0
H625 H 0.50585 0.52695 0.80848 0.0
H626 H 0.43205 0.51397 0.81203 0.0
H627 H 0.47407 0.62114 0.8712 0.0
H628 H 0.47548 0.67179 0.87014 0.0
H629 H 0.52285 0.66853 0.86503 0.0
H630 H 0.52464 0.7053 0.83178 0.0
H631 H 0.47424 0.70349 0.83543 0.0
H632 H 0.48013 0.67814 0.81392 0.0
H633 H 0.36247 0.51402 0.81924 0.0
H634 H 0.30459 0.52635 0.8298 0.0
H635 H 0.40059 0.65366 0.85182 0.0
C636 C 0.53109 0.62351 0.82989 0.0
C637 C 0.53835 0.59163 0.82136 0.0
C638 C 0.50176 0.55208 0.81501 0.0
C639 C 0.45943 0.54436 0.81696 0.0
C640 C 0.45346 0.57625 0.82549 0.0
C641 C 0.48832 0.61495 0.83195 0.0
C642 C 0.47289 0.64319 0.84122 0.0
C643 C 0.4872 0.6518 0.8632 0.0
C644 C 0.48901 0.68505 0.82993 0.0
C645 C 0.42404 0.61487 0.83869 0.0
C646 C 0.41354 0.57625 0.82964 0.0
C647 C 0.37055 0.54439 0.82619 0.0
C648 C 0.33761 0.55196 0.83216 0.0
C649 C 0.34706 0.59126 0.84159 0.0
C650 C 0.3914 0.62308 0.84479 0.0
H651 H 0.99446 0.50164 0.16196 0.0
H652 H 1.0784 0.44884 0.1535 0.0
H653 H 1.01775 0.37618 0.1582 0.0
H654 H 0.93172 0.42759 0.20041 0.0
H655 H 0.88246 0.42521 0.19157 0.0
H656 H 0.9338 0.47215 0.18757 0.0
H657 H 0.91052 0.46174 0.14961 0.0
H658 H 0.861 0.4132 0.15443 0.0
H659 H 0.89759 0.41204 0.13737 0.0
H660 H 0.94831 0.30816 0.16458 0.0
H661 H 0.87618 0.25073 0.17278 0.0
H662 H 0.83424 0.34453 0.17759 0.0
C663 C 0.99999 0.47476 0.16089 0.0
C664 C 1.04188 0.48168 0.15723 0.0
C665 C 1.0472 0.44515 0.15627 0.0
C666 C 1.01269 0.40338 0.15891 0.0
C667 C 0.97224 0.3977 0.16268 0.0
C668 C 0.96558 0.43231 0.16372 0.0
C669 C 0.91875 0.41676 0.16847 0.0
C670 C 0.91651 0.43662 0.18816 0.0
C671 C 0.89559 0.42658 0.15148 0.0
C672 C 0.90048 0.36836 0.1701 0.0
C673 C 0.932 0.3582 0.16654 0.0
C674 C 0.92336 0.31586 0.16726 0.0
C675 C 0.88179 0.28313 0.17181 0.0
C676 C 0.84842 0.29214 0.17573 0.0
C677 C 0.85845 0.33586 0.1748 0.0
H678 H 0.17231 0.64844 0.08276 0.0
H679 H 0.13682 0.51703 0.09572 0.0
H680 H 0.13329 0.50077 0.06015 0.0
H681 H 1.1057 0.62542 0.03798 0.0
H682 H 0.14497 0.67165 0.02532 0.0
H683 H 0.14399 0.67311 0.05183 0.0
H684 H 0.22422 0.69337 0.05464 0.0
H685 H 0.22544 0.69195 0.02814 0.0
H686 H 0.24082 0.65953 0.04273 0.0
H687 H 0.13141 0.49773 0.02314 0.0
H688 H 0.13544 0.50932 0.98723 0.0
H689 H 0.17584 0.64344 -0.00235 0.0
C690 C 0.16367 0.61622 0.0781 0.0
C691 C 0.15468 0.58396 0.09214 0.0
C692 C 0.14395 0.54235 0.08536 0.0
C693 C 0.14175 0.53273 0.06514 0.0
C694 C 0.15083 0.56514 0.05173 0.0
C695 C 0.16195 0.60617 0.05789 0.0
C696 C 0.17122 0.63528 0.04033 0.0
C697 C 0.13958 0.65237 0.03878 0.0
C698 C 0.21822 0.67222 0.04154 0.0
C699 C 0.16334 0.60413 0.02337 0.0
C700 C 0.15125 0.56377 0.03032 0.0
C701 C 0.14107 0.52926 0.01755 0.0
C702 C 0.14329 0.53611 -0.00284 0.0
C703 C 0.15605 0.57724 0.9896 0.0
C704 C 0.16642 0.61173 0.00298 0.0
H705 H 0.64286 0.1625 0.41499 0.0
H706 H 0.72578 0.1115 0.43274 0.0
H707 H 0.73773 0.10396 0.39763 0.0
H708 H 0.59205 0.09406 0.37325 0.0
H709 H 0.5898 0.13434 0.35832 0.0
H710 H 0.58978 0.13802 0.38479 0.0
H711 H 0.65653 0.2144 0.38477 0.0
H712 H 0.65663 0.21107 0.35827 0.0
H713 H 0.70431 0.22279 0.37306 0.0
H714 H 0.73626 0.09714 0.36026 0.0
H715 H 0.72512 0.09563 0.324 0.0
H716 H 0.64455 0.15274 0.33063 0.0
C717 C 0.66399 0.15022 0.41156 0.0
C718 C 0.68344 0.13764 0.42673 0.0
C719 C 0.71071 0.1216 0.42147 0.0
C720 C 0.71758 0.11708 0.40153 0.0
C721 C 0.69728 0.12908 0.38697 0.0
C722 C 0.67141 0.14577 0.39176 0.0
C723 C 0.65268 0.15554 0.37335 0.0
C724 C 0.60314 0.1289 0.37238 0.0
C725 C 0.6685 0.20382 0.3723 0.0
C726 C 0.67156 0.14124 0.35738 0.0
C727 C 0.69712 0.12596 0.36555 0.0
C728 C 0.71661 0.10938 0.35375 0.0
C729 C 0.7099 0.10843 0.33315 0.0
C730 C 0.68408 0.12417 0.32441 0.0
C731 C 0.66494 0.14101 0.3368 0.0
H732 H 0.65254 0.5767 0.74656 0.0
H733 H 0.70543 0.71069 0.76347 0.0
H734 H 0.71097 0.72939 0.72815 0.0
H735 H 0.72012 0.59554 0.7051 0.0
H736 H 0.67813 0.55173 0.69041 0.0
H737 H 0.67869 0.54928 0.71693 0.0
H738 H 0.60099 0.53682 0.71645 0.0
H739 H 0.60019 0.53927 0.68995 0.0
H740 H 0.58929 0.57464 0.70434 0.0
H741 H 0.70662 0.73241 0.6906 0.0
H742 H 0.69743 0.72044 0.65437 0.0
H743 H 0.65093 0.58495 0.66217 0.0
C744 C 0.66536 0.61006 0.7429 0.0
C745 C 0.67833 0.64225 0.75787 0.0
C746 C 0.69536 0.68549 0.75233 0.0
C747 C 0.69852 0.69637 0.73228 0.0
C748 C 0.68509 0.66373 0.71793 0.0
C749 C 0.66931 0.6215 0.72303 0.0
C750 C 0.65744 0.59243 0.70485 0.0
C751 C 0.68526 0.57099 0.70429 0.0
C752 C 0.60911 0.55881 0.70384 0.0
C753 C 0.66846 0.62474 0.68864 0.0
C754 C 0.68412 0.66568 0.69647 0.0
C755 C 0.69479 0.70055 0.68437 0.0
C756 C 0.68932 0.69343 0.6638 0.0
C757 C 0.67375 0.65184 0.65544 0.0
C758 C 0.6635 0.61719 0.66811 0.0
H759 H 0.65289 0.10444 0.55565 0.0
H760 H 0.52845 1.07098 0.52808 0.0
H761 H 0.49393 1.04287 0.55953 0.0
H762 H 0.61418 1.01028 0.58369 0.0
H763 H 0.64958 1.03605 0.60508 0.0
H764 H 0.66579 1.05786 0.58102 0.0
H765 H 0.67771 0.13132 0.59343 0.0
H766 H 0.6619 0.10985 0.61759 0.0
H767 H 0.63449 0.13391 0.60484 0.0
H768 H 0.47231 1.01625 0.59318 0.0
H769 H 0.46444 0.99204 0.62741 0.0
H770 H 0.60186 1.0374 0.63295 0.0
C771 C 0.61858 0.0921 0.55646 0.0
C772 C 0.59329 0.09026 0.5396 0.0
C773 C 0.54831 0.07278 0.54092 0.0
C774 C 0.52843 1.05679 0.55869 0.0
C775 C 0.55394 1.05808 0.57496 0.0
C776 C 0.59799 0.07518 0.57408 0.0
C777 C 0.61721 1.06993 0.59346 0.0
C778 C 0.6379 1.04185 0.59064 0.0
C779 C 0.64975 0.11387 0.60289 0.0
C780 C 0.57705 1.04715 0.60527 0.0
C781 C 0.54105 1.04097 0.59432 0.0
C782 C 0.50022 1.02071 0.60192 0.0
C783 C 0.49603 1.00661 0.62135 0.0
C784 C 0.53239 1.01233 0.63295 0.0
C785 C 0.57341 1.03281 0.62464 0.0
H786 H 0.6643 0.62107 0.89139 0.0
H787 H 0.61818 0.49808 0.86137 0.0
H788 H 0.59436 0.4612 0.89273 0.0
H789 H 0.70633 0.59469 0.93496 0.0
H790 H 0.69155 0.62346 0.95179 0.0
H791 H 0.70317 0.64071 0.92676 0.0
H792 H 0.62844 0.63505 0.92192 0.0
H793 H 0.61661 0.6178 0.94695 0.0
H794 H 0.58052 0.58518 0.92684 0.0
H795 H 0.57412 0.43715 0.92662 0.0
H796 H 0.56202 0.42711 0.96203 0.0
H797 H 0.62729 0.56562 0.97134 0.0
C798 C 0.64891 0.58641 0.8915 0.0
C799 C 0.64299 0.56238 0.87402 0.0
C800 C 0.62325 0.5171 0.87466 0.0
C801 C 0.60942 0.4958 0.89236 0.0
C802 C 0.61605 0.52024 0.90938 0.0
C803 C 0.63562 0.56451 0.90923 0.0
C804 C 0.64043 0.58284 0.92992 0.0
C805 C 0.68821 0.61215 0.93623 0.0
C806 C 0.61497 0.60662 0.9315 0.0
C807 C 0.62033 0.5419 0.94157 0.0
C808 C 0.60616 0.50626 0.92935 0.0
C809 C 0.58556 0.4648 0.93645 0.0
C810 C 0.57928 0.45949 0.95669 0.0
C811 C 0.59419 0.4955 0.96972 0.0
C812 C 0.61509 0.53727 0.96191 0.0
H813 H 1.08113 0.59871 0.21243 0.0
H814 H 0.2076 0.6106 0.21973 0.0
H815 H 0.19816 0.60052 0.25553 0.0
H816 H 1.08765 0.65554 0.25726 0.0
H817 H 1.03165 0.62119 0.26223 0.0
H818 H 1.04833 0.62916 0.23717 0.0
H819 H 1.01345 0.54698 0.23178 0.0
H820 H 0.99686 0.53866 0.25687 0.0
H821 H 1.02916 0.51713 0.24806 0.0
H822 H 0.17494 0.58855 0.29023 0.0
H823 H 0.14131 0.5795 0.32212 0.0
H824 H 1.02968 0.57523 0.29238 0.0
C825 C 1.10696 0.5994 0.22155 0.0
C826 C 0.14516 0.6055 0.2133 0.0
C827 C 0.17814 0.60613 0.22574 0.0
C828 C 0.17301 0.60027 0.24607 0.0
C829 C 0.13479 0.59391 0.25368 0.0
C830 C 1.10245 0.59372 0.24186 0.0
C831 C 1.06475 0.58672 0.2538 0.0
C832 C 1.05771 0.62547 0.25254 0.0
C833 C 1.02363 0.54488 0.24723 0.0
C834 C 1.08109 0.58323 0.27424 0.0
C835 C 0.12141 0.58715 0.27378 0.0
C836 C 0.1433 0.58524 0.29078 0.0
C837 C 0.12372 0.57971 0.30881 0.0
C838 C 1.08266 0.57623 0.30973 0.0
C839 C 1.06107 0.57782 0.29215 0.0
loop_
_geom_bond_atom_site_label_1
_geom_bond_atom_site_label_2
_geom_bond_distance
_geom_bond_site_symmetry_2
_ccdc_geom_bond_type
Tb0 C10 2.825 . S
Tb0 O11 2.347 . S
Tb0 O14 2.366 . S
Tb0 O19 2.418 . S
Tb0 O20 2.384 1_455 S
Tb0 O23 2.479 . S
Tb0 O24 2.471 . S
Eu1 O12 2.409 1_655 S
Eu1 O13 2.375 1_655 S
Eu1 O16 2.489 . S
Eu1 O17 2.481 . S
Eu1 O18 2.342 1_655 S
Eu1 O21 2.368 . S
Eu1 C31 2.836 . S
C2 O18 1.259 . S
C2 O19 1.265 . S
C3 O20 1.255 . S
C3 O21 1.265 . S
C4 C6 1.380 . S
C4 C7 1.374 . S
C4 C10 1.507 . S
C5 C6 1.384 . S
C5 C9 1.387 . S
C5 H32 0.930 . S
C6 C4 1.380 . S
C6 C5 1.384 . S
C6 H33 0.931 . S
C7 C4 1.374 . S
C7 C8 1.390 . S
C7 H34 0.930 . S
C8 C7 1.390 . S
C8 C9 1.391 . S
C8 H35 0.930 . S
C9 C5 1.387 . S
C9 C8 1.391 . S
C10 Tb0 2.825 . S
C10 C4 1.507 . S
C10 O23 1.238 . S
C10 O24 1.247 . S
O11 Tb0 2.347 . S
O11 C15 1.259 . S
O12 Eu1 2.409 1_455 S
O12 C15 1.294 . S
O13 Eu1 2.375 1_455 S
O13 C22 1.255 . S
O14 Tb0 2.366 . S
O14 C22 1.265 . S
C15 O11 1.259 . S
C15 O12 1.294 . S
O16 Eu1 2.489 . S
O16 C31 1.238 . S
O17 Eu1 2.481 . S
O17 C31 1.247 . S
O18 Eu1 2.342 1_455 S
O18 C2 1.259 . S
O19 Tb0 2.418 . S
O19 C2 1.265 . S
O20 Tb0 2.384 1_655 S
O20 C3 1.255 . S
O21 Eu1 2.368 . S
O21 C3 1.265 . S
C22 O13 1.255 . S
C22 O14 1.265 . S
O23 Tb0 2.479 . S
O23 C10 1.238 . S
O24 Tb0 2.471 . S
O24 C10 1.247 . S
C25 C28 1.380 . S
C25 C29 1.374 . S
C25 C31 1.507 . S
C26 C27 1.387 . S
C26 C30 1.391 . S
C27 C26 1.387 . S
C27 C28 1.384 . S
C27 H36 0.930 . S
C28 C25 1.380 . S
C28 C27 1.384 . S
C28 H37 0.931 . S
C29 C25 1.374 . S
C29 C30 1.390 . S
C29 H38 0.930 . S
C30 C26 1.391 . S
C30 C29 1.390 . S
C30 H39 0.930 . S
C31 Eu1 2.836 . S
C31 O16 1.238 . S
C31 O17 1.247 . S
C31 C25 1.507 . S
H32 C5 0.930 . S
H33 C6 0.931 . S
H34 C7 0.930 . S
H35 C8 0.930 . S
H36 C27 0.930 . S
H37 C28 0.931 . S
H38 C29 0.930 . S
H39 C30 0.930 . S
Tb40 C50 2.825 . S
Tb40 O51 2.347 . S
Tb40 O54 2.366 . S
Tb40 O59 2.418 . S
Tb40 O60 2.384 1_545 S
Tb40 O63 2.479 . S
Tb40 O64 2.471 . S
Eu41 O52 2.418 . S
Eu41 O53 2.384 . S
Eu41 O56 2.479 1_545 S
Eu41 O57 2.471 1_545 S
Eu41 O58 2.347 . S
Eu41 O61 2.366 1_545 S
Eu41 C71 2.825 1_545 S
C42 O58 1.259 . S
C42 O59 1.265 . S
C43 O60 1.255 . S
C43 O61 1.265 . S
C44 C46 1.380 . S
C44 C47 1.374 . S
C44 C50 1.507 . S
C45 C46 1.384 . S
C45 C49 1.387 . S
C45 H72 0.930 . S
C46 C44 1.380 . S
C46 C45 1.384 . S
C46 H73 0.931 . S
C47 C44 1.374 . S
C47 C48 1.390 . S
C47 H74 0.930 . S
C48 C47 1.390 . S
C48 C49 1.391 . S
C48 H75 0.930 . S
C49 C45 1.387 . S
C49 C48 1.391 . S
C50 Tb40 2.825 . S
C50 C44 1.507 . S
C50 O63 1.238 . S
C50 O64 1.247 . S
O51 Tb40 2.347 . S
O51 C55 1.259 . S
O52 Eu41 2.418 . S
O52 C55 1.265 . S
O53 Eu41 2.384 . S
O53 C62 1.255 . S
O54 Tb40 2.366 . S
O54 C62 1.265 . S
C55 O51 1.259 . S
C55 O52 1.265 . S
O56 Eu41 2.479 1_565 S
O56 C71 1.238 . S
O57 Eu41 2.471 1_565 S
O57 C71 1.247 . S
O58 Eu41 2.347 . S
O58 C42 1.259 . S
O59 Tb40 2.418 . S
O59 C42 1.265 . S
O60 Tb40 2.384 1_565 S
O60 C43 1.255 . S
O61 Eu41 2.366 1_565 S
O61 C43 1.265 . S
C62 O53 1.255 . S
C62 O54 1.265 . S
O63 Tb40 2.479 . S
O63 C50 1.238 . S
O64 Tb40 2.471 . S
O64 C50 1.247 . S
C65 C68 1.380 . S
C65 C69 1.374 . S
C65 C71 1.507 . S
C66 C67 1.387 . S
C66 C70 1.391 . S
C67 C66 1.387 . S
C67 C68 1.384 . S
C67 H76 0.930 . S
C68 C65 1.380 . S
C68 C67 1.384 . S
C68 H77 0.931 . S
C69 C65 1.374 . S
C69 C70 1.390 . S
C69 H78 0.930 . S
C70 C66 1.391 . S
C70 C69 1.390 . S
C70 H79 0.930 . S
C71 Eu41 2.825 1_565 S
C71 O56 1.238 . S
C71 O57 1.247 . S
C71 C65 1.507 . S
H72 C45 0.930 . S
H73 C46 0.931 . S
H74 C47 0.930 . S
H75 C48 0.930 . S
H76 C67 0.930 . S
H77 C68 0.931 . S
H78 C69 0.930 . S
H79 C70 0.930 . S
Tb80 C90 2.825 . S
Tb80 O91 2.347 . S
Tb80 O94 2.366 . S
Tb80 O99 2.418 . S
Tb80 O100 2.384 . S
Tb80 O103 2.479 . S
Tb80 O104 2.471 . S
Eu81 O92 2.418 . S
Eu81 O93 2.384 . S
Eu81 O96 2.479 . S
Eu81 O97 2.471 . S
Eu81 O98 2.347 . S
Eu81 O101 2.366 . S
Eu81 C111 2.825 . S
C82 O98 1.259 . S
C82 O99 1.265 . S
C83 O100 1.255 . S
C83 O101 1.265 . S
C84 C86 1.380 . S
C84 C87 1.374 . S
C84 C90 1.507 . S
C85 C86 1.384 . S
C85 C89 1.387 . S
C85 H112 0.930 . S
C86 C84 1.380 . S
C86 C85 1.384 . S
C86 H113 0.931 . S
C87 C84 1.374 . S
C87 C88 1.390 . S
C87 H114 0.930 . S
C88 C87 1.390 . S
C88 C89 1.391 . S
C88 H115 0.930 . S
C89 C85 1.387 . S
C89 C88 1.391 . S
C90 Tb80 2.825 . S
C90 C84 1.507 . S
C90 O103 1.238 . S
C90 O104 1.247 . S
O91 Tb80 2.347 . S
O91 C95 1.259 . S
O92 Eu81 2.418 . S
O92 C95 1.265 . S
O93 Eu81 2.384 . S
O93 C102 1.255 . S
O94 Tb80 2.366 . S
O94 C102 1.265 . S
C95 O91 1.259 . S
C95 O92 1.265 . S
O96 Eu81 2.479 . S
O96 C111 1.238 . S
O97 Eu81 2.471 . S
O97 C111 1.247 . S
O98 Eu81 2.347 . S
O98 C82 1.259 . S
O99 Tb80 2.418 . S
O99 C82 1.265 . S
O100 Tb80 2.384 . S
O100 C83 1.255 . S
O101 Eu81 2.366 . S
O101 C83 1.265 . S
C102 O93 1.255 . S
C102 O94 1.265 . S
O103 Tb80 2.479 . S
O103 C90 1.238 . S
O104 Tb80 2.471 . S
O104 C90 1.247 . S
C105 C108 1.380 . S
C105 C109 1.374 . S
C105 C111 1.507 . S
C106 C107 1.387 . S
C106 C110 1.391 . S
C107 C106 1.387 . S
C107 C108 1.384 . S
C107 H116 0.930 . S
C108 C105 1.380 . S
C108 C107 1.384 . S
C108 H117 0.931 . S
C109 C105 1.374 . S
C109 C110 1.390 . S
C109 H118 0.930 . S
C110 C106 1.391 . S
C110 C109 1.390 . S
C110 H119 0.930 . S
C111 Eu81 2.825 . S
C111 O96 1.238 . S
C111 O97 1.247 . S
C111 C105 1.507 . S
H112 C85 0.930 . S
H113 C86 0.931 . S
H114 C87 0.930 . S
H115 C88 0.930 . S
H116 C107 0.930 . S
H117 C108 0.931 . S
H118 C109 0.930 . S
H119 C110 0.930 . S
C120 C121 1.386 . S
C120 C122 1.397 . S
C120 H144 0.931 . S
C121 C120 1.386 . S
C121 C125 1.397 1_545 S
C122 C120 1.397 . S
C122 C123 1.384 . S
C122 H145 0.930 . S
C123 C122 1.384 . S
C123 C124 1.377 1_545 S
C123 C126 1.481 . S
C124 C123 1.377 1_565 S
C124 C125 1.389 . S
C124 H146 0.929 . S
C125 C121 1.397 1_565 S
C125 C124 1.389 . S
C125 H147 0.931 . S
C126 C123 1.481 . S
C126 C127 1.387 . S
C126 C131 1.390 1_545 S
C127 C126 1.387 . S
C127 C128 1.401 . S
C127 H148 0.930 . S
C128 C127 1.401 . S
C128 C129 1.376 . S
C128 C137 1.511 . S
C129 C128 1.376 . S
C129 C130 1.392 1_545 S
C129 H150 0.931 . S
C130 C129 1.392 1_565 S
C130 C131 1.361 . S
C130 C132 1.500 . S
C131 C126 1.390 1_565 S
C131 C130 1.361 . S
C131 H149 0.931 . S
C132 C130 1.500 . S
C132 C133 1.371 . S
C132 C134 1.365 . S
C133 C132 1.371 . S
C133 C143 1.386 . S
C133 H151 0.931 . S
C134 C132 1.365 . S
C134 C135 1.409 . S
C134 H152 0.929 . S
C135 C134 1.409 . S
C135 C136 1.380 . S
C135 H153 0.930 . S
C136 C135 1.380 . S
C136 C143 1.357 . S
C137 C128 1.511 . S
C137 C138 1.341 . S
C137 C139 1.371 . S
C138 C137 1.341 . S
C138 C142 1.394 . S
C138 H154 0.930 . S
C139 C137 1.371 . S
C139 C140 1.392 . S
C139 H155 0.931 . S
C140 C139 1.392 . S
C140 C141 1.331 . S
C140 H158 0.932 . S
C141 C140 1.331 . S
C141 C142 1.336 . S
C142 C138 1.394 . S
C142 C141 1.336 . S
C142 H157 0.929 . S
C143 C133 1.386 . S
C143 C136 1.357 . S
C143 H156 0.928 . S
H144 C120 0.931 . S
H145 C122 0.930 . S
H146 C124 0.929 . S
H147 C125 0.931 . S
H148 C127 0.930 . S
H149 C131 0.931 . S
H150 C129 0.931 . S
H151 C133 0.931 . S
H152 C134 0.929 . S
H153 C135 0.930 . S
H154 C138 0.930 . S
H155 C139 0.931 . S
H156 C143 0.928 . S
H157 C142 0.929 . S
H158 C140 0.932 . S
C159 C160 1.386 . S
C159 C161 1.397 . S
C159 H183 0.931 . S
C160 C159 1.386 . S
C160 C164 1.397 . S
C161 C159 1.397 . S
C161 C162 1.384 . S
C161 H184 0.930 . S
C162 C161 1.384 . S
C162 C163 1.377 . S
C162 C165 1.481 . S
C163 C162 1.377 . S
C163 C164 1.389 . S
C163 H185 0.929 . S
C164 C160 1.397 . S
C164 C163 1.389 . S
C164 H186 0.931 . S
C165 C162 1.481 . S
C165 C166 1.387 . S
C165 C170 1.390 . S
C166 C165 1.387 . S
C166 C167 1.401 . S
C166 H187 0.930 . S
C167 C166 1.401 . S
C167 C168 1.376 . S
C167 C176 1.511 . S
C168 C167 1.376 . S
C168 C169 1.392 . S
C168 H189 0.931 . S
C169 C168 1.392 . S
C169 C170 1.361 . S
C169 C171 1.500 . S
C170 C165 1.390 . S
C170 C169 1.361 . S
C170 H188 0.931 . S
C171 C169 1.500 . S
C171 C172 1.371 . S
C171 C173 1.365 . S
C172 C171 1.371 . S
C172 C182 1.386 . S
C172 H190 0.931 . S
C173 C171 1.365 . S
C173 C174 1.409 . S
C173 H191 0.929 . S
C174 C173 1.409 . S
C174 C175 1.380 . S
C174 H192 0.930 . S
C175 C174 1.380 . S
C175 C182 1.357 . S
C176 C167 1.511 . S
C176 C177 1.341 . S
C176 C178 1.371 . S
C177 C176 1.341 . S
C177 C181 1.394 . S
C177 H193 0.930 . S
C178 C176 1.371 . S
C178 C179 1.392 . S
C178 H194 0.931 . S
C179 C178 1.392 . S
C179 C180 1.331 . S
C179 H197 0.932 . S
C180 C179 1.331 . S
C180 C181 1.336 . S
C181 C177 1.394 . S
C181 C180 1.336 . S
C181 H196 0.929 . S
C182 C172 1.386 . S
C182 C175 1.357 . S
C182 H195 0.928 . S
H183 C159 0.931 . S
H184 C161 0.930 . S
H185 C163 0.929 . S
H186 C164 0.931 . S
H187 C166 0.930 . S
H188 C170 0.931 . S
H189 C168 0.931 . S
H190 C172 0.931 . S
H191 C173 0.929 . S
H192 C174 0.930 . S
H193 C177 0.930 . S
H194 C178 0.931 . S
H195 C182 0.928 . S
H196 C181 0.929 . S
H197 C179 0.932 . S
C198 C199 1.386 . S
C198 C200 1.397 . S
C198 H222 0.931 . S
C199 C198 1.386 . S
C199 C203 1.397 1_455 S
C200 C198 1.397 . S
C200 C201 1.384 . S
C200 H223 0.930 . S
C201 C200 1.384 . S
C201 C202 1.377 1_455 S
C201 C204 1.481 . S
C202 C201 1.377 1_655 S
C202 C203 1.389 . S
C202 H224 0.929 . S
C203 C199 1.397 1_655 S
C203 C202 1.389 . S
C203 H225 0.931 . S
C204 C201 1.481 . S
C204 C205 1.387 . S
C204 C209 1.390 1_455 S
C205 C204 1.387 . S
C205 C206 1.401 . S
C205 H226 0.930 . S
C206 C205 1.401 . S
C206 C207 1.376 . S
C206 C215 1.511 . S
C207 C206 1.376 . S
C207 C208 1.392 1_455 S
C207 H228 0.931 . S
C208 C207 1.392 1_655 S
C208 C209 1.361 . S
C208 C210 1.500 . S
C209 C204 1.390 1_655 S
C209 C208 1.361 . S
C209 H227 0.931 . S
C210 C208 1.500 . S
C210 C211 1.371 . S
C210 C212 1.365 . S
C211 C210 1.371 . S
C211 C221 1.386 . S
C211 H229 0.931 . S
C212 C210 1.365 . S
C212 C213 1.409 . S
C212 H230 0.929 . S
C213 C212 1.409 . S
C213 C214 1.380 . S
C213 H231 0.930 . S
C214 C213 1.380 . S
C214 C221 1.357 . S
C215 C206 1.511 . S
C215 C216 1.341 . S
C215 C217 1.371 . S
C216 C215 1.341 . S
C216 C220 1.394 . S
C216 H232 0.930 . S
C217 C215 1.371 . S
C217 C218 1.392 . S
C217 H233 0.931 . S
C218 C217 1.392 . S
C218 C219 1.331 . S
C218 H236 0.932 . S
C219 C218 1.331 . S
C219 C220 1.336 . S
C220 C216 1.394 . S
C220 C219 1.336 . S
C220 H235 0.929 . S
C221 C211 1.386 . S
C221 C214 1.357 . S
C221 H234 0.928 . S
H222 C198 0.931 . S
H223 C200 0.930 . S
H224 C202 0.929 . S
H225 C203 0.931 . S
H226 C205 0.930 . S
H227 C209 0.931 . S
H228 C207 0.931 . S
H229 C211 0.931 . S
H230 C212 0.929 . S
H231 C213 0.930 . S
H232 C216 0.930 . S
H233 C217 0.931 . S
H234 C221 0.928 . S
H235 C220 0.929 . S
H236 C218 0.932 . S
C237 C238 1.386 1_655 S
C237 C239 1.397 . S
C237 H261 0.931 . S
C238 C237 1.386 1_455 S
C238 C242 1.397 . S
C239 C237 1.397 . S
C239 C240 1.384 1_655 S
C239 H262 0.930 . S
C240 C239 1.384 1_455 S
C240 C241 1.377 . S
C240 C243 1.481 . S
C241 C240 1.377 . S
C241 C242 1.389 . S
C241 H263 0.929 . S
C242 C238 1.397 . S
C242 C241 1.389 . S
C242 H264 0.931 . S
C243 C240 1.481 . S
C243 C244 1.387 1_455 S
C243 C248 1.390 . S
C244 C243 1.387 1_655 S
C244 C245 1.401 . S
C244 H265 0.930 . S
C245 C244 1.401 . S
C245 C246 1.376 1_655 S
C245 C254 1.511 . S
C246 C245 1.376 1_455 S
C246 C247 1.392 . S
C246 H267 0.931 . S
C247 C246 1.392 . S
C247 C248 1.361 . S
C247 C249 1.500 . S
C248 C243 1.390 . S
C248 C247 1.361 . S
C248 H266 0.931 . S
C249 C247 1.500 . S
C249 C250 1.371 . S
C249 C251 1.365 . S
C250 C249 1.371 . S
C250 C260 1.386 . S
C250 H268 0.931 . S
C251 C249 1.365 . S
C251 C252 1.409 . S
C251 H269 0.929 . S
C252 C251 1.409 . S
C252 C253 1.380 . S
C252 H270 0.930 . S
C253 C252 1.380 . S
C253 C260 1.357 . S
C254 C245 1.511 . S
C254 C255 1.341 . S
C254 C256 1.371 . S
C255 C254 1.341 . S
C255 C259 1.394 . S
C255 H271 0.930 . S
C256 C254 1.371 . S
C256 C257 1.392 . S
C256 H272 0.931 . S
C257 C256 1.392 . S
C257 C258 1.331 . S
C257 H275 0.932 . S
C258 C257 1.331 . S
C258 C259 1.336 . S
C259 C255 1.394 . S
C259 C258 1.336 . S
C259 H274 0.929 . S
C260 C250 1.386 . S
C260 C253 1.357 . S
C260 H273 0.928 . S
H261 C237 0.931 . S
H262 C239 0.930 . S
H263 C241 0.929 . S
H264 C242 0.931 . S
H265 C244 0.930 . S
H266 C248 0.931 . S
H267 C246 0.931 . S
H268 C250 0.931 . S
H269 C251 0.929 . S
H270 C252 0.930 . S
H271 C255 0.930 . S
H272 C256 0.931 . S
H273 C260 0.928 . S
H274 C259 0.929 . S
H275 C257 0.932 . S
C276 C277 1.386 1_565 S
C276 C278 1.397 . S
C276 H300 0.931 . S
C277 C276 1.386 1_545 S
C277 C281 1.397 . S
C278 C276 1.397 . S
C278 C279 1.373 1_565 S
C278 H301 0.930 . S
C279 C278 1.373 1_545 S
C279 C280 1.389 . S
C279 C282 1.480 1_545 S
C280 C279 1.389 . S
C280 C281 1.389 . S
C280 H302 0.929 . S
C281 C277 1.397 . S
C281 C280 1.389 . S
C281 H303 0.931 . S
C282 C279 1.480 1_565 S
C282 C283 1.398 . S
C282 C287 1.380 1_565 S
C283 C282 1.398 . S
C283 C284 1.401 . S
C283 H304 0.930 . S
C284 C283 1.401 . S
C284 C285 1.376 . S
C284 C293 1.511 . S
C285 C284 1.376 . S
C285 C286 1.392 1_565 S
C285 H306 0.931 . S
C286 C285 1.392 1_545 S
C286 C287 1.361 . S
C286 C288 1.500 . S
C287 C282 1.380 1_545 S
C287 C286 1.361 . S
C287 H305 0.931 . S
C288 C286 1.500 . S
C288 C289 1.371 . S
C288 C290 1.365 . S
C289 C288 1.371 . S
C289 C299 1.386 . S
C289 H307 0.931 . S
C290 C288 1.365 . S
C290 C291 1.409 . S
C290 H308 0.929 . S
C291 C290 1.409 . S
C291 C292 1.380 . S
C291 H309 0.930 . S
C292 C291 1.380 . S
C292 C299 1.357 . S
C293 C284 1.511 . S
C293 C294 1.341 . S
C293 C295 1.371 . S
C294 C293 1.341 . S
C294 C298 1.394 . S
C294 H310 0.930 . S
C295 C293 1.371 . S
C295 C296 1.392 . S
C295 H311 0.931 . S
C296 C295 1.392 . S
C296 C297 1.331 . S
C296 H314 0.932 . S
C297 C296 1.331 . S
C297 C298 1.336 . S
C298 C294 1.394 . S
C298 C297 1.336 . S
C298 H313 0.929 . S
C299 C289 1.386 . S
C299 C292 1.357 . S
C299 H312 0.928 . S
H300 C276 0.931 . S
H301 C278 0.930 . S
H302 C280 0.929 . S
H303 C281 0.931 . S
H304 C283 0.930 . S
H305 C287 0.931 . S
H306 C285 0.931 . S
H307 C289 0.931 . S
H308 C290 0.929 . S
H309 C291 0.930 . S
H310 C294 0.930 . S
H311 C295 0.931 . S
H312 C299 0.928 . S
H313 C298 0.929 . S
H314 C296 0.932 . S
C315 C316 1.386 . S
C315 C317 1.397 . S
C315 H339 0.931 . S
C316 C315 1.386 . S
C316 C320 1.397 . S
C317 C315 1.397 . S
C317 C318 1.384 . S
C317 H340 0.930 . S
C318 C317 1.384 . S
C318 C319 1.377 . S
C318 C321 1.481 . S
C319 C318 1.377 . S
C319 C320 1.389 . S
C319 H341 0.929 . S
C320 C316 1.397 . S
C320 C319 1.389 . S
C320 H342 0.931 . S
C321 C318 1.481 . S
C321 C322 1.387 . S
C321 C326 1.390 . S
C322 C321 1.387 . S
C322 C323 1.401 . S
C322 H343 0.930 . S
C323 C322 1.401 . S
C323 C324 1.376 . S
C323 C332 1.511 . S
C324 C323 1.376 . S
C324 C325 1.392 . S
C324 H345 0.931 . S
C325 C324 1.392 . S
C325 C326 1.361 . S
C325 C327 1.500 . S
C326 C321 1.390 . S
C326 C325 1.361 . S
C326 H344 0.931 . S
C327 C325 1.500 . S
C327 C328 1.371 . S
C327 C329 1.365 . S
C328 C327 1.371 . S
C328 C338 1.386 . S
C328 H346 0.931 . S
C329 C327 1.365 . S
C329 C330 1.409 . S
C329 H347 0.929 . S
C330 C329 1.409 . S
C330 C331 1.380 . S
C330 H348 0.930 . S
C331 C330 1.380 . S
C331 C338 1.357 . S
C332 C323 1.511 . S
C332 C333 1.341 . S
C332 C334 1.371 . S
C333 C332 1.341 . S
C333 C337 1.394 . S
C333 H349 0.930 . S
C334 C332 1.371 . S
C334 C335 1.392 . S
C334 H350 0.931 . S
C335 C334 1.392 . S
C335 C336 1.331 . S
C335 H353 0.932 . S
C336 C335 1.331 . S
C336 C337 1.336 . S
C337 C333 1.394 . S
C337 C336 1.336 . S
C337 H352 0.929 . S
C338 C328 1.386 . S
C338 C331 1.357 . S
C338 H351 0.928 . S
H339 C315 0.931 . S
H340 C317 0.930 . S
H341 C319 0.929 . S
H342 C320 0.931 . S
H343 C322 0.930 . S
H344 C326 0.931 . S
H345 C324 0.931 . S
H346 C328 0.931 . S
H347 C329 0.929 . S
H348 C330 0.930 . S
H349 C333 0.930 . S
H350 C334 0.931 . S
H351 C338 0.928 . S
H352 C337 0.929 . S
H353 C335 0.932 . S
H354 C366 0.930 . S
H355 C368 0.930 . S
H356 C369 0.930 . S
H357 C373 0.959 . S
H358 C373 0.959 . S
H359 C373 0.961 . S
H360 C374 0.960 . S
H361 C374 0.961 . S
H362 C374 0.959 . S
H363 C377 0.929 . S
H364 C378 0.931 . S
H365 C380 0.930 . S
C366 H354 0.930 . S
C366 C367 1.399 . S
C366 C371 1.399 . S
C367 C366 1.399 . S
C367 C368 1.376 . S
C368 H355 0.930 . S
C368 C367 1.376 . S
C368 C369 1.388 . S
C369 H356 0.930 . S
C369 C368 1.388 . S
C369 C370 1.390 . S
C370 C369 1.390 . S
C370 C371 1.394 . S
C370 C376 1.465 . S
C371 C366 1.399 . S
C371 C370 1.394 . S
C371 C372 1.516 . S
C372 C371 1.516 . S
C372 C373 1.502 . S
C372 C374 1.561 . S
C372 C375 1.526 . S
C373 H357 0.959 . S
C373 H358 0.959 . S
C373 H359 0.961 . S
C373 C372 1.502 . S
C374 H360 0.960 . S
C374 H361 0.961 . S
C374 H362 0.959 . S
C374 C372 1.561 . S
C375 C372 1.526 . S
C375 C376 1.396 . S
C375 C380 1.390 . S
C376 C370 1.465 . S
C376 C375 1.396 . S
C376 C377 1.399 . S
C377 H363 0.929 . S
C377 C376 1.399 . S
C377 C378 1.385 . S
C378 H364 0.931 . S
C378 C377 1.385 . S
C378 C379 1.389 . S
C379 C378 1.389 . S
C379 C380 1.387 . S
C380 H365 0.930 . S
C380 C375 1.390 . S
C380 C379 1.387 . S
H381 C393 0.930 . S
H382 C395 0.930 . S
H383 C396 0.930 . S
H384 C400 0.959 . S
H385 C400 0.959 . S
H386 C400 0.961 . S
H387 C401 0.960 . S
H388 C401 0.961 . S
H389 C401 0.959 . S
H390 C404 0.929 . S
H391 C405 0.931 . S
H392 C407 0.930 . S
C393 H381 0.930 . S
C393 C394 1.399 . S
C393 C398 1.399 . S
C394 C393 1.399 . S
C394 C395 1.376 . S
C395 H382 0.930 . S
C395 C394 1.376 . S
C395 C396 1.388 . S
C396 H383 0.930 . S
C396 C395 1.388 . S
C396 C397 1.390 . S
C397 C396 1.390 . S
C397 C398 1.394 . S
C397 C403 1.465 . S
C398 C393 1.399 . S
C398 C397 1.394 . S
C398 C399 1.516 . S
C399 C398 1.516 . S
C399 C400 1.502 . S
C399 C401 1.561 . S
C399 C402 1.526 . S
C400 H384 0.959 . S
C400 H385 0.959 . S
C400 H386 0.961 . S
C400 C399 1.502 . S
C401 H387 0.960 . S
C401 H388 0.961 . S
C401 H389 0.959 . S
C401 C399 1.561 . S
C402 C399 1.526 . S
C402 C403 1.396 . S
C402 C407 1.390 . S
C403 C397 1.465 . S
C403 C402 1.396 . S
C403 C404 1.399 . S
C404 H390 0.929 . S
C404 C403 1.399 . S
C404 C405 1.385 . S
C405 H391 0.931 . S
C405 C404 1.385 . S
C405 C406 1.389 . S
C406 C405 1.389 . S
C406 C407 1.387 . S
C407 H392 0.930 . S
C407 C402 1.390 . S
C407 C406 1.387 . S
H408 C420 0.930 . S
H409 C422 0.930 . S
H410 C423 0.930 . S
H411 C427 0.959 . S
H412 C427 0.959 . S
H413 C427 0.961 . S
H414 C428 0.960 . S
H415 C428 0.961 . S
H416 C428 0.959 . S
H417 C431 0.929 . S
H418 C432 0.931 . S
H419 C434 0.930 . S
C420 H408 0.930 . S
C420 C421 1.399 . S
C420 C425 1.399 . S
C421 C420 1.399 . S
C421 C422 1.376 . S
C422 H409 0.930 . S
C422 C421 1.376 . S
C422 C423 1.388 . S
C423 H410 0.930 . S
C423 C422 1.388 . S
C423 C424 1.390 . S
C424 C423 1.390 . S
C424 C425 1.394 . S
C424 C430 1.465 . S
C425 C420 1.399 . S
C425 C424 1.394 . S
C425 C426 1.516 . S
C426 C425 1.516 . S
C426 C427 1.502 . S
C426 C428 1.561 . S
C426 C429 1.526 . S
C427 H411 0.959 . S
C427 H412 0.959 . S
C427 H413 0.961 . S
C427 C426 1.502 . S
C428 H414 0.960 . S
C428 H415 0.961 . S
C428 H416 0.959 . S
C428 C426 1.561 . S
C429 C426 1.526 . S
C429 C430 1.396 . S
C429 C434 1.390 . S
C430 C424 1.465 . S
C430 C429 1.396 . S
C430 C431 1.399 . S
C431 H417 0.929 . S
C431 C430 1.399 . S
C431 C432 1.385 . S
C432 H418 0.931 . S
C432 C431 1.385 . S
C432 C433 1.389 . S
C433 C432 1.389 . S
C433 C434 1.387 . S
C434 H419 0.930 . S
C434 C429 1.390 . S
C434 C433 1.387 . S
H435 C447 0.930 . S
H436 C449 0.930 . S
H437 C450 0.930 . S
H438 C454 0.959 . S
H439 C454 0.959 . S
H440 C454 0.961 . S
H441 C455 0.960 . S
H442 C455 0.961 . S
H443 C455 0.959 . S
H444 C458 0.929 . S
H445 C459 0.931 . S
H446 C461 0.930 . S
C447 H435 0.930 . S
C447 C448 1.399 . S
C447 C452 1.399 . S
C448 C447 1.399 . S
C448 C449 1.376 . S
C449 H436 0.930 . S
C449 C448 1.376 . S
C449 C450 1.388 . S
C450 H437 0.930 . S
C450 C449 1.388 . S
C450 C451 1.390 . S
C451 C450 1.390 . S
C451 C452 1.394 . S
C451 C457 1.465 . S
C452 C447 1.399 . S
C452 C451 1.394 . S
C452 C453 1.516 . S
C453 C452 1.516 . S
C453 C454 1.502 . S
C453 C455 1.561 . S
C453 C456 1.526 . S
C454 H438 0.959 . S
C454 H439 0.959 . S
C454 H440 0.961 . S
C454 C453 1.502 . S
C455 H441 0.960 . S
C455 H442 0.961 . S
C455 H443 0.959 . S
C455 C453 1.561 . S
C456 C453 1.526 . S
C456 C457 1.396 . S
C456 C461 1.390 . S
C457 C451 1.465 . S
C457 C456 1.396 . S
C457 C458 1.399 . S
C458 H444 0.929 . S
C458 C457 1.399 . S
C458 C459 1.385 . S
C459 H445 0.931 . S
C459 C458 1.385 . S
C459 C460 1.389 . S
C460 C459 1.389 . S
C460 C461 1.387 . S
C461 H446 0.930 . S
C461 C456 1.390 . S
C461 C460 1.387 . S
H462 C474 0.930 . S
H463 C476 0.930 . S
H464 C477 0.930 . S
H465 C481 0.959 . S
H466 C481 0.959 . S
H467 C481 0.961 . S
H468 C482 0.960 . S
H469 C482 0.961 . S
H470 C482 0.959 . S
H471 C485 0.929 . S
H472 C486 0.931 . S
H473 C488 0.930 . S
C474 H462 0.930 . S
C474 C475 1.399 . S
C474 C479 1.399 . S
C475 C474 1.399 . S
C475 C476 1.376 . S
C476 H463 0.930 . S
C476 C475 1.376 . S
C476 C477 1.388 . S
C477 H464 0.930 . S
C477 C476 1.388 . S
C477 C478 1.390 . S
C478 C477 1.390 . S
C478 C479 1.394 . S
C478 C484 1.465 . S
C479 C474 1.399 . S
C479 C478 1.394 . S
C479 C480 1.516 . S
C480 C479 1.516 . S
C480 C481 1.502 . S
C480 C482 1.561 . S
C480 C483 1.526 . S
C481 H465 0.959 . S
C481 H466 0.959 . S
C481 H467 0.961 . S
C481 C480 1.502 . S
C482 H468 0.960 . S
C482 H469 0.961 . S
C482 H470 0.959 . S
C482 C480 1.561 . S
C483 C480 1.526 . S
C483 C484 1.396 . S
C483 C488 1.390 . S
C484 C478 1.465 . S
C484 C483 1.396 . S
C484 C485 1.399 . S
C485 H471 0.929 . S
C485 C484 1.399 . S
C485 C486 1.385 . S
C486 H472 0.931 . S
C486 C485 1.385 . S
C486 C487 1.389 . S
C487 C486 1.389 . S
C487 C488 1.387 . S
C488 H473 0.930 . S
C488 C483 1.390 . S
C488 C487 1.387 . S
H489 C501 0.930 . S
H490 C503 0.930 . S
H491 C504 0.930 . S
H492 C508 0.959 . S
H493 C508 0.959 . S
H494 C508 0.961 . S
H495 C509 0.960 . S
H496 C509 0.961 . S
H497 C509 0.959 . S
H498 C512 0.929 . S
H499 C513 0.931 . S
H500 C515 0.930 . S
C501 H489 0.930 . S
C501 C502 1.399 . S
C501 C506 1.399 . S
C502 C501 1.399 . S
C502 C503 1.376 . S
C503 H490 0.930 . S
C503 C502 1.376 . S
C503 C504 1.388 . S
C504 H491 0.930 . S
C504 C503 1.388 . S
C504 C505 1.390 . S
C505 C504 1.390 . S
C505 C506 1.394 . S
C505 C511 1.465 . S
C506 C501 1.399 . S
C506 C505 1.394 . S
C506 C507 1.516 . S
C507 C506 1.516 . S
C507 C508 1.502 . S
C507 C509 1.561 . S
C507 C510 1.526 . S
C508 H492 0.959 . S
C508 H493 0.959 . S
C508 H494 0.961 . S
C508 C507 1.502 . S
C509 H495 0.960 . S
C509 H496 0.961 . S
C509 H497 0.959 . S
C509 C507 1.561 . S
C510 C507 1.526 . S
C510 C511 1.396 . S
C510 C515 1.390 . S
C511 C505 1.465 . S
C511 C510 1.396 . S
C511 C512 1.399 . S
C512 H498 0.929 . S
C512 C511 1.399 . S
C512 C513 1.385 . S
C513 H499 0.931 . S
C513 C512 1.385 . S
C513 C514 1.389 . S
C514 C513 1.389 . S
C514 C515 1.387 . S
C515 H500 0.930 . S
C515 C510 1.390 . S
C515 C514 1.387 . S
H516 C528 0.930 . S
H517 C530 0.930 . S
H518 C531 0.930 . S
H519 C535 0.959 . S
H520 C535 0.959 . S
H521 C535 0.961 . S
H522 C536 0.960 . S
H523 C536 0.961 . S
H524 C536 0.959 . S
H525 C539 0.929 . S
H526 C540 0.931 . S
H527 C542 0.930 . S
C528 H516 0.930 . S
C528 C529 1.399 . S
C528 C533 1.399 . S
C529 C528 1.399 . S
C529 C530 1.376 . S
C530 H517 0.930 . S
C530 C529 1.376 . S
C530 C531 1.388 . S
C531 H518 0.930 . S
C531 C530 1.388 . S
C531 C532 1.390 . S
C532 C531 1.390 . S
C532 C533 1.394 . S
C532 C538 1.465 . S
C533 C528 1.399 . S
C533 C532 1.394 . S
C533 C534 1.516 . S
C534 C533 1.516 . S
C534 C535 1.502 . S
C534 C536 1.561 . S
C534 C537 1.526 . S
C535 H519 0.959 . S
C535 H520 0.959 . S
C535 H521 0.961 . S
C535 C534 1.502 . S
C536 H522 0.960 . S
C536 H523 0.961 . S
C536 H524 0.959 . S
C536 C534 1.561 . S
C537 C534 1.526 . S
C537 C538 1.396 . S
C537 C542 1.390 . S
C538 C532 1.465 . S
C538 C537 1.396 . S
C538 C539 1.399 . S
C539 H525 0.929 . S
C539 C538 1.399 . S
C539 C540 1.385 . S
C540 H526 0.931 . S
C540 C539 1.385 . S
C540 C541 1.389 . S
C541 C540 1.389 . S
C541 C542 1.387 . S
C542 H527 0.930 . S
C542 C537 1.390 . S
C542 C541 1.387 . S
H543 C555 0.930 . S
H544 C557 0.930 . S
H545 C558 0.930 . S
H546 C562 0.959 . S
H547 C562 0.959 . S
H548 C562 0.961 . S
H549 C563 0.960 . S
H550 C563 0.961 . S
H551 C563 0.959 . S
H552 C566 0.929 . S
H553 C567 0.931 . S
H554 C569 0.930 . S
C555 H543 0.930 . S
C555 C556 1.399 . S
C555 C560 1.399 . S
C556 C555 1.399 . S
C556 C557 1.376 . S
C557 H544 0.930 . S
C557 C556 1.376 . S
C557 C558 1.388 . S
C558 H545 0.930 . S
C558 C557 1.388 . S
C558 C559 1.390 . S
C559 C558 1.390 . S
C559 C560 1.394 . S
C559 C565 1.465 . S
C560 C555 1.399 . S
C560 C559 1.394 . S
C560 C561 1.516 . S
C561 C560 1.516 . S
C561 C562 1.502 . S
C561 C563 1.561 . S
C561 C564 1.526 . S
C562 H546 0.959 . S
C562 H547 0.959 . S
C562 H548 0.961 . S
C562 C561 1.502 . S
C563 H549 0.960 . S
C563 H550 0.961 . S
C563 H551 0.959 . S
C563 C561 1.561 . S
C564 C561 1.526 . S
C564 C565 1.396 . S
C564 C569 1.390 . S
C565 C559 1.465 . S
C565 C564 1.396 . S
C565 C566 1.399 . S
C566 H552 0.929 . S
C566 C565 1.399 . S
C566 C567 1.385 . S
C567 H553 0.931 . S
C567 C566 1.385 . S
C567 C568 1.389 . S
C568 C567 1.389 . S
C568 C569 1.387 . S
C569 H554 0.930 . S
C569 C564 1.390 . S
C569 C568 1.387 . S
H570 C582 0.930 . S
H571 C584 0.930 . S
H572 C585 0.930 . S
H573 C589 0.959 . S
H574 C589 0.959 . S
H575 C589 0.961 . S
H576 C590 0.960 . S
H577 C590 0.961 . S
H578 C590 0.959 . S
H579 C593 0.929 . S
H580 C594 0.931 . S
H581 C596 0.930 . S
C582 H570 0.930 . S
C582 C583 1.399 . S
C582 C587 1.399 . S
C583 C582 1.399 . S
C583 C584 1.376 . S
C584 H571 0.930 . S
C584 C583 1.376 . S
C584 C585 1.388 . S
C585 H572 0.930 . S
C585 C584 1.388 . S
C585 C586 1.390 . S
C586 C585 1.390 . S
C586 C587 1.394 . S
C586 C592 1.465 . S
C587 C582 1.399 . S
C587 C586 1.394 . S
C587 C588 1.516 . S
C588 C587 1.516 . S
C588 C589 1.502 . S
C588 C590 1.561 . S
C588 C591 1.526 . S
C589 H573 0.959 . S
C589 H574 0.959 . S
C589 H575 0.961 . S
C589 C588 1.502 . S
C590 H576 0.960 . S
C590 H577 0.961 . S
C590 H578 0.959 . S
C590 C588 1.561 . S
C591 C588 1.526 . S
C591 C592 1.396 . S
C591 C596 1.390 . S
C592 C586 1.465 . S
C592 C591 1.396 . S
C592 C593 1.399 . S
C593 H579 0.929 . S
C593 C592 1.399 . S
C593 C594 1.385 . S
C594 H580 0.931 . S
C594 C593 1.385 . S
C594 C595 1.389 . S
C595 C594 1.389 . S
C595 C596 1.387 . S
C596 H581 0.930 . S
C596 C591 1.390 . S
C596 C595 1.387 . S
H597 C609 0.930 . S
H598 C611 0.930 . S
H599 C612 0.930 . S
H600 C616 0.959 . S
H601 C616 0.959 . S
H602 C616 0.961 . S
H603 C617 0.960 . S
H604 C617 0.961 . S
H605 C617 0.959 . S
H606 C620 0.929 . S
H607 C621 0.931 . S
H608 C623 0.930 . S
C609 H597 0.930 . S
C609 C610 1.399 . S
C609 C614 1.399 . S
C610 C609 1.399 . S
C610 C611 1.376 . S
C611 H598 0.930 . S
C611 C610 1.376 . S
C611 C612 1.388 . S
C612 H599 0.930 . S
C612 C611 1.388 . S
C612 C613 1.390 . S
C613 C612 1.390 . S
C613 C614 1.394 . S
C613 C619 1.465 . S
C614 C609 1.399 . S
C614 C613 1.394 . S
C614 C615 1.516 . S
C615 C614 1.516 . S
C615 C616 1.502 . S
C615 C617 1.561 . S
C615 C618 1.526 . S
C616 H600 0.959 . S
C616 H601 0.959 . S
C616 H602 0.961 . S
C616 C615 1.502 . S
C617 H603 0.960 . S
C617 H604 0.961 . S
C617 H605 0.959 . S
C617 C615 1.561 . S
C618 C615 1.526 . S
C618 C619 1.396 . S
C618 C623 1.390 . S
C619 C613 1.465 . S
C619 C618 1.396 . S
C619 C620 1.399 . S
C620 H606 0.929 . S
C620 C619 1.399 . S
C620 C621 1.385 . S
C621 H607 0.931 . S
C621 C620 1.385 . S
C621 C622 1.389 . S
C622 C621 1.389 . S
C622 C623 1.387 . S
C623 H608 0.930 . S
C623 C618 1.390 . S
C623 C622 1.387 . S
H624 C636 0.930 . S
H625 C638 0.930 . S
H626 C639 0.930 . S
H627 C643 0.959 . S
H628 C643 0.959 . S
H629 C643 0.961 . S
H630 C644 0.960 . S
H631 C644 0.961 . S
H632 C644 0.959 . S
H633 C647 0.929 . S
H634 C648 0.931 . S
H635 C650 0.930 . S
C636 H624 0.930 . S
C636 C637 1.399 . S
C636 C641 1.399 . S
C637 C636 1.399 . S
C637 C638 1.376 . S
C638 H625 0.930 . S
C638 C637 1.376 . S
C638 C639 1.388 . S
C639 H626 0.930 . S
C639 C638 1.388 . S
C639 C640 1.390 . S
C640 C639 1.390 . S
C640 C641 1.394 . S
C640 C646 1.465 . S
C641 C636 1.399 . S
C641 C640 1.394 . S
C641 C642 1.516 . S
C642 C641 1.516 . S
C642 C643 1.502 . S
C642 C644 1.561 . S
C642 C645 1.526 . S
C643 H627 0.959 . S
C643 H628 0.959 . S
C643 H629 0.961 . S
C643 C642 1.502 . S
C644 H630 0.960 . S
C644 H631 0.961 . S
C644 H632 0.959 . S
C644 C642 1.561 . S
C645 C642 1.526 . S
C645 C646 1.396 . S
C645 C650 1.390 . S
C646 C640 1.465 . S
C646 C645 1.396 . S
C646 C647 1.399 . S
C647 H633 0.929 . S
C647 C646 1.399 . S
C647 C648 1.385 . S
C648 H634 0.931 . S
C648 C647 1.385 . S
C648 C649 1.389 . S
C649 C648 1.389 . S
C649 C650 1.387 . S
C650 H635 0.930 . S
C650 C645 1.390 . S
C650 C649 1.387 . S
H651 C663 0.930 . S
H652 C665 0.930 . S
H653 C666 0.930 . S
H654 C670 0.959 . S
H655 C670 0.959 . S
H656 C670 0.961 . S
H657 C671 0.960 . S
H658 C671 0.961 . S
H659 C671 0.959 . S
H660 C674 0.929 . S
H661 C675 0.931 . S
H662 C677 0.930 . S
C663 H651 0.930 . S
C663 C664 1.399 . S
C663 C668 1.399 . S
C664 C663 1.399 . S
C664 C665 1.376 . S
C665 H652 0.930 . S
C665 C664 1.376 . S
C665 C666 1.388 . S
C666 H653 0.930 . S
C666 C665 1.388 . S
C666 C667 1.390 . S
C667 C666 1.390 . S
C667 C668 1.394 . S
C667 C673 1.465 . S
C668 C663 1.399 . S
C668 C667 1.394 . S
C668 C669 1.516 . S
C669 C668 1.516 . S
C669 C670 1.502 . S
C669 C671 1.561 . S
C669 C672 1.526 . S
C670 H654 0.959 . S
C670 H655 0.959 . S
C670 H656 0.961 . S
C670 C669 1.502 . S
C671 H657 0.960 . S
C671 H658 0.961 . S
C671 H659 0.959 . S
C671 C669 1.561 . S
C672 C669 1.526 . S
C672 C673 1.396 . S
C672 C677 1.390 . S
C673 C667 1.465 . S
C673 C672 1.396 . S
C673 C674 1.399 . S
C674 H660 0.929 . S
C674 C673 1.399 . S
C674 C675 1.385 . S
C675 H661 0.931 . S
C675 C674 1.385 . S
C675 C676 1.389 . S
C676 C675 1.389 . S
C676 C677 1.387 . S
C677 H662 0.930 . S
C677 C672 1.390 . S
C677 C676 1.387 . S
H678 C690 0.930 . S
H679 C692 0.930 . S
H680 C693 0.930 . S
H681 C697 0.959 1_655 S
H682 C697 0.959 . S
H683 C697 0.961 . S
H684 C698 0.960 . S
H685 C698 0.961 . S
H686 C698 0.959 . S
H687 C701 0.929 . S
H688 C702 0.931 1_556 S
H689 C704 0.930 . S
C690 H678 0.930 . S
C690 C691 1.399 . S
C690 C695 1.399 . S
C691 C690 1.399 . S
C691 C692 1.376 . S
C692 H679 0.930 . S
C692 C691 1.376 . S
C692 C693 1.388 . S
C693 H680 0.930 . S
C693 C692 1.388 . S
C693 C694 1.390 . S
C694 C693 1.390 . S
C694 C695 1.394 . S
C694 C700 1.465 . S
C695 C690 1.399 . S
C695 C694 1.394 . S
C695 C696 1.516 . S
C696 C695 1.516 . S
C696 C697 1.502 . S
C696 C698 1.561 . S
C696 C699 1.526 . S
C697 H681 0.959 1_455 S
C697 H682 0.959 . S
C697 H683 0.961 . S
C697 C696 1.502 . S
C698 H684 0.960 . S
C698 H685 0.961 . S
C698 H686 0.959 . S
C698 C696 1.561 . S
C699 C696 1.526 . S
C699 C700 1.396 . S
C699 C704 1.390 . S
C700 C694 1.465 . S
C700 C699 1.396 . S
C700 C701 1.399 . S
C701 H687 0.929 . S
C701 C700 1.399 . S
C701 C702 1.385 . S
C702 H688 0.931 1_554 S
C702 C701 1.385 . S
C702 C703 1.389 . S
C703 C702 1.389 . S
C703 C704 1.387 . S
C704 H689 0.930 . S
C704 C699 1.390 . S
C704 C703 1.387 . S
H705 C717 0.930 . S
H706 C719 0.930 1_565 S
H707 C720 0.930 . S
H708 C724 0.959 . S
H709 C724 0.959 . S
H710 C724 0.961 . S
H711 C725 0.960 . S
H712 C725 0.961 . S
H713 C725 0.959 . S
H714 C728 0.929 . S
H715 C729 0.931 . S
H716 C731 0.930 . S
C717 H705 0.930 . S
C717 C718 1.399 . S
C717 C722 1.399 . S
C718 C717 1.399 . S
C718 C719 1.376 . S
C719 H706 0.930 1_545 S
C719 C718 1.376 . S
C719 C720 1.388 1_545 S
C720 H707 0.930 . S
C720 C719 1.388 1_565 S
C720 C721 1.390 1_565 S
C721 C720 1.390 1_545 S
C721 C722 1.394 . S
C721 C727 1.465 . S
C722 C717 1.399 . S
C722 C721 1.394 . S
C722 C723 1.516 . S
C723 C722 1.516 . S
C723 C724 1.502 . S
C723 C725 1.561 . S
C723 C726 1.526 . S
C724 H708 0.959 . S
C724 H709 0.959 . S
C724 H710 0.961 . S
C724 C723 1.502 . S
C725 H711 0.960 . S
C725 H712 0.961 . S
C725 H713 0.959 . S
C725 C723 1.561 . S
C726 C723 1.526 . S
C726 C727 1.396 . S
C726 C731 1.390 . S
C727 C721 1.465 . S
C727 C726 1.396 . S
C727 C728 1.399 1_545 S
C728 H714 0.929 . S
C728 C727 1.399 1_565 S
C728 C729 1.385 . S
C729 H715 0.931 . S
C729 C728 1.385 . S
C729 C730 1.389 1_565 S
C730 C729 1.389 1_545 S
C730 C731 1.387 . S
C731 H716 0.930 . S
C731 C726 1.390 . S
C731 C730 1.387 . S
H732 C744 0.930 . S
H733 C746 0.930 . S
H734 C747 0.930 . S
H735 C751 0.959 . S
H736 C751 0.959 . S
H737 C751 0.961 . S
H738 C752 0.960 . S
H739 C752 0.961 . S
H740 C752 0.959 . S
H741 C755 0.929 . S
H742 C756 0.931 . S
H743 C758 0.930 . S
C744 H732 0.930 . S
C744 C745 1.399 . S
C744 C749 1.399 . S
C745 C744 1.399 . S
C745 C746 1.376 . S
C746 H733 0.930 . S
C746 C745 1.376 . S
C746 C747 1.388 . S
C747 H734 0.930 . S
C747 C746 1.388 . S
C747 C748 1.390 . S
C748 C747 1.390 . S
C748 C749 1.394 . S
C748 C754 1.465 . S
C749 C744 1.399 . S
C749 C748 1.394 . S
C749 C750 1.516 . S
C750 C749 1.516 . S
C750 C751 1.502 . S
C750 C752 1.561 . S
C750 C753 1.526 . S
C751 H735 0.959 . S
C751 H736 0.959 . S
C751 H737 0.961 . S
C751 C750 1.502 . S
C752 H738 0.960 . S
C752 H739 0.961 . S
C752 H740 0.959 . S
C752 C750 1.561 . S
C753 C750 1.526 . S
C753 C754 1.396 . S
C753 C758 1.390 . S
C754 C748 1.465 . S
C754 C753 1.396 . S
C754 C755 1.399 . S
C755 H741 0.929 . S
C755 C754 1.399 . S
C755 C756 1.385 . S
C756 H742 0.931 . S
C756 C755 1.385 . S
C756 C757 1.389 . S
C757 C756 1.389 . S
C757 C758 1.387 . S
C758 H743 0.930 . S
C758 C753 1.390 . S
C758 C757 1.387 . S
H759 C771 0.930 . S
H760 C773 0.930 . S
H761 C774 0.930 . S
H762 C778 0.959 . S
H763 C778 0.959 . S
H764 C778 0.961 . S
H765 C779 0.960 . S
H766 C779 0.961 . S
H767 C779 0.959 . S
H768 C782 0.929 . S
H769 C783 0.931 . S
H770 C785 0.930 . S
C771 H759 0.930 . S
C771 C772 1.399 . S
C771 C776 1.399 . S
C772 C771 1.399 . S
C772 C773 1.376 1_545 S
C773 H760 0.930 . S
C773 C772 1.376 1_565 S
C773 C774 1.388 . S
C774 H761 0.930 . S
C774 C773 1.388 . S
C774 C775 1.390 1_565 S
C775 C774 1.390 1_545 S
C775 C776 1.394 . S
C775 C781 1.463 1_545 S
C776 C771 1.399 . S
C776 C775 1.394 . S
C776 C777 1.516 . S
C777 C776 1.516 . S
C777 C778 1.502 . S
C777 C779 1.561 . S
C777 C780 1.526 . S
C778 H762 0.959 . S
C778 H763 0.959 . S
C778 H764 0.961 . S
C778 C777 1.502 . S
C779 H765 0.960 . S
C779 H766 0.961 . S
C779 H767 0.959 . S
C779 C777 1.561 . S
C780 C777 1.526 . S
C780 C781 1.381 1_545 S
C780 C785 1.390 . S
C781 C775 1.463 1_565 S
C781 C780 1.381 1_565 S
C781 C782 1.414 . S
C782 H768 0.929 . S
C782 C781 1.414 . S
C782 C783 1.385 . S
C783 H769 0.931 . S
C783 C782 1.385 . S
C783 C784 1.389 1_565 S
C784 C783 1.389 1_545 S
C784 C785 1.387 . S
C785 H770 0.930 . S
C785 C780 1.390 . S
C785 C784 1.387 . S
H786 C798 0.930 . S
H787 C800 0.930 . S
H788 C801 0.930 . S
H789 C805 0.959 . S
H790 C805 0.959 . S
H791 C805 0.961 . S
H792 C806 0.960 . S
H793 C806 0.961 . S
H794 C806 0.959 . S
H795 C809 0.929 . S
H796 C810 0.931 . S
H797 C812 0.930 . S
C798 H786 0.930 . S
C798 C799 1.399 . S
C798 C803 1.399 . S
C799 C798 1.399 . S
C799 C800 1.376 . S
C800 H787 0.930 . S
C800 C799 1.376 . S
C800 C801 1.388 . S
C801 H788 0.930 . S
C801 C800 1.388 . S
C801 C802 1.390 . S
C802 C801 1.390 . S
C802 C803 1.394 . S
C802 C808 1.465 . S
C803 C798 1.399 . S
C803 C802 1.394 . S
C803 C804 1.516 . S
C804 C803 1.516 . S
C804 C805 1.502 . S
C804 C806 1.561 . S
C804 C807 1.526 . S
C805 H789 0.959 . S
C805 H790 0.959 . S
C805 H791 0.961 . S
C805 C804 1.502 . S
C806 H792 0.960 . S
C806 H793 0.961 . S
C806 H794 0.959 . S
C806 C804 1.561 . S
C807 C804 1.526 . S
C807 C808 1.396 . S
C807 C812 1.390 . S
C808 C802 1.465 . S
C808 C807 1.396 . S
C808 C809 1.399 . S
C809 H795 0.929 . S
C809 C808 1.399 . S
C809 C810 1.385 . S
C810 H796 0.931 . S
C810 C809 1.385 . S
C810 C811 1.389 . S
C811 C810 1.389 . S
C811 C812 1.387 . S
C812 H797 0.930 . S
C812 C807 1.390 . S
C812 C811 1.387 . S
H813 C825 0.930 . S
H814 C827 0.930 . S
H815 C828 0.930 . S
H816 C832 0.959 . S
H817 C832 0.959 . S
H818 C832 0.961 . S
H819 C833 0.960 . S
H820 C833 0.961 . S
H821 C833 0.959 . S
H822 C836 0.929 . S
H823 C837 0.931 . S
H824 C839 0.930 . S
C825 H813 0.930 . S
C825 C826 1.399 1_655 S
C825 C830 1.399 1_655 S
C826 C825 1.399 1_455 S
C826 C827 1.376 . S
C827 H814 0.930 . S
C827 C826 1.376 . S
C827 C828 1.388 . S
C828 H815 0.930 . S
C828 C827 1.388 . S
C828 C829 1.390 . S
C829 C828 1.390 . S
C829 C830 1.394 . S
C829 C835 1.465 . S
C830 C825 1.399 1_455 S
C830 C829 1.394 . S
C830 C831 1.516 1_455 S
C831 C830 1.516 1_655 S
C831 C832 1.502 . S
C831 C833 1.561 . S
C831 C834 1.526 . S
C832 H816 0.959 . S
C832 H817 0.959 . S
C832 H818 0.961 . S
C832 C831 1.502 . S
C833 H819 0.960 . S
C833 H820 0.961 . S
C833 H821 0.959 . S
C833 C831 1.561 . S
C834 C831 1.526 . S
C834 C835 1.396 1_655 S
C834 C839 1.390 . S
C835 C829 1.465 . S
C835 C834 1.396 1_455 S
C835 C836 1.399 . S
C836 H822 0.929 . S
C836 C835 1.399 . S
C836 C837 1.385 . S
C837 H823 0.931 . S
C837 C836 1.385 . S
C837 C838 1.389 . S
C838 C837 1.389 . S
C838 C839 1.387 1_455 S
C839 H824 0.930 . S
C839 C834 1.390 . S
C839 C838 1.387 1_655 S
C367 C9 0.579 . S
C379 C331 0.540 . S
C394 C49 0.415 . S
C406 C258 0.360 . S
C421 C89 0.250 . S
C433 C297 0.257 . S
C448 C26 0.392 . S
C460 C336 0.371 . S
C487 C253 0.400 . S
C475 C66 0.370 . S
C514 C292 0.452 . S
C502 C106 0.657 . S
C529 C43 2.962 . S
C541 C180 2.925 . S
C556 C83 3.101 . S
C568 C214 3.036 . S
C583 C22 3.152 . S
C595 C136 3.096 . S
C622 C175 3.094 . S
C610 C62 3.146 . S
C649 C219 2.951 . S
C637 C102 2.991 . S
C664 C3 2.948 . S
C676 C141 2.902 . S
C703 C199 1.782 1_554 S
C691 C15 1.754 . S
C718 C55 1.749 . S
C730 C121 1.784 . S
C745 C95 1.745 . S
C757 C160 1.778 . S
C784 C277 1.087 . S
C772 C42 1.095 . S
C811 C316 1.098 1_556 S
C799 C82 1.101 . S
C826 C2 1.045 . S
C838 C238 1.064 . S
