# Generated by pormake.
# Topology pyr, (3,6)-cn, num edge types: 1
# Building blocks:
#     Node 0, Type 0, BuildingBlock: CUQRIR_clean_linker_1, # of connection points: 3
#     Node 1, Type 0, BuildingBlock: CUQRIR_clean_linker_1, # of connection points: 3
#     Node 2, Type 0, BuildingBlock: CUQRIR_clean_linker_1, # of connection points: 3
#     Node 3, Type 0, BuildingBlock: CUQRIR_clean_linker_1, # of connection points: 3
#     Node 4, Type 0, BuildingBlock: CUQRIR_clean_linker_1, # of connection points: 3
#     Node 5, Type 0, BuildingBlock: CUQRIR_clean_linker_1, # of connection points: 3
#     Node 6, Type 0, BuildingBlock: CUQRIR_clean_linker_1, # of connection points: 3
#     Node 7, Type 0, BuildingBlock: CUQRIR_clean_linker_1, # of connection points: 3
#     Node 8, Type 1, BuildingBlock: FUNLAD_clean_sbu_0, # of connection points: 6
#     Node 9, Type 1, BuildingBlock: FUNLAD_clean_sbu_0, # of connection points: 6
#     Node 10, Type 1, BuildingBlock: FUNLAD_clean_sbu_0, # of connection points: 6
#     Node 11, Type 1, BuildingBlock: FUNLAD_clean_sbu_0, # of connection points: 6
#     Edge 12, Type (0, 1), BuildingBlock: OJICUG_clean_linker_0, # of connection points: 2
#     Edge 13, Type (0, 1), BuildingBlock: OJICUG_clean_linker_0, # of connection points: 2
#     Edge 14, Type (0, 1), BuildingBlock: OJICUG_clean_linker_0, # of connection points: 2
#     Edge 15, Type (0, 1), BuildingBlock: OJICUG_clean_linker_0, # of connection points: 2
#     Edge 16, Type (0, 1), BuildingBlock: OJICUG_clean_linker_0, # of connection points: 2
#     Edge 17, Type (0, 1), BuildingBlock: OJICUG_clean_linker_0, # of connection points: 2
#     Edge 18, Type (0, 1), BuildingBlock: OJICUG_clean_linker_0, # of connection points: 2
#     Edge 19, Type (0, 1), BuildingBlock: OJICUG_clean_linker_0, # of connection points: 2
#     Edge 20, Type (0, 1), BuildingBlock: OJICUG_clean_linker_0, # of connection points: 2
#     Edge 21, Type (0, 1), BuildingBlock: OJICUG_clean_linker_0, # of connection points: 2
#     Edge 22, Type (0, 1), BuildingBlock: OJICUG_clean_linker_0, # of connection points: 2
#     Edge 23, Type (0, 1), BuildingBlock: OJICUG_clean_linker_0, # of connection points: 2
#     Edge 24, Type (0, 1), BuildingBlock: OJICUG_clean_linker_0, # of connection points: 2
#     Edge 25, Type (0, 1), BuildingBlock: OJICUG_clean_linker_0, # of connection points: 2
#     Edge 26, Type (0, 1), BuildingBlock: OJICUG_clean_linker_0, # of connection points: 2
#     Edge 27, Type (0, 1), BuildingBlock: OJICUG_clean_linker_0, # of connection points: 2
#     Edge 28, Type (0, 1), BuildingBlock: OJICUG_clean_linker_0, # of connection points: 2
#     Edge 29, Type (0, 1), BuildingBlock: OJICUG_clean_linker_0, # of connection points: 2
#     Edge 30, Type (0, 1), BuildingBlock: OJICUG_clean_linker_0, # of connection points: 2
#     Edge 31, Type (0, 1), BuildingBlock: OJICUG_clean_linker_0, # of connection points: 2
#     Edge 32, Type (0, 1), BuildingBlock: OJICUG_clean_linker_0, # of connection points: 2
#     Edge 33, Type (0, 1), BuildingBlock: OJICUG_clean_linker_0, # of connection points: 2
#     Edge 34, Type (0, 1), BuildingBlock: OJICUG_clean_linker_0, # of connection points: 2
#     Edge 35, Type (0, 1), BuildingBlock: OJICUG_clean_linker_0, # of connection points: 2
# Relax obj value: 0.268
# Max RMSD: 0.236
# Mean RMSD: 0.162
data_MOF--net-pry--node1-FUNLAD_clean_sbu_0--node2-CUQRIR_clean_linker_1--edge1-OJICUG_clean_linker_0
_symmetry_space_group_name_H-M    P1
_symmetry_Int_Tables_number       1
_symmetry_cell_setting            triclinic
loop_
_symmetry_equiv_pos_as_xyz
'x, y, z'
_cell_length_a     22.840884
_cell_length_b     24.649332
_cell_length_c     23.985355
_cell_angle_alpha  87.252548
_cell_angle_beta   93.107521
_cell_angle_gamma 83.521007
loop_
_atom_site_label
_atom_site_type_symbol
_atom_site_fract_x
_atom_site_fract_y
_atom_site_fract_z
_atom_type_partial_charge
C0 C 0.13241 0.28449 0.23518 0.0
N1 N 0.17513 0.24286 0.25201 0.0
N2 N 0.14222 0.30714 0.18428 0.0
C3 C 0.08035 0.30289 0.26821 0.0
C4 C 0.1926 0.2777 0.17048 0.0
N5 N 0.213 0.23881 0.21132 0.0
C6 C 0.2255 0.29073 0.11952 0.0
H7 H 0.06491 0.26752 0.29117 0.0
H8 H 0.04347 0.32407 0.24048 0.0
H9 H 0.09381 0.33178 0.29925 0.0
H10 H 0.25188 0.32481 0.12835 0.0
H11 H 0.19489 0.3038 0.08283 0.0
H12 H 0.25568 0.25492 0.10842 0.0
C13 C 0.41276 0.95446 0.69546 0.0
N14 N 0.39477 0.99226 0.73236 0.0
N15 N 0.45654 0.91736 0.71856 0.0
C16 C 0.38386 0.95039 0.63774 0.0
C17 C 0.46508 0.9343 0.77134 0.0
N18 N 0.42757 0.98 0.78023 0.0
C19 C 0.51191 0.90726 0.81327 0.0
H20 H 0.37451 0.90778 0.6317 0.0
H21 H 0.41466 0.96127 0.60597 0.0
H22 H 0.34244 0.97807 0.62928 0.0
H23 H 0.54698 0.88246 0.79228 0.0
H24 H 0.49157 0.87985 0.84269 0.0
H25 H 0.53194 0.93829 0.83772 0.0
C26 C 0.58364 0.54404 0.06809 0.0
N27 N 0.64271 0.53416 0.08045 0.0
N28 N 0.57015 0.58511 1.02818 0.0
C29 C 0.53972 0.50653 0.08703 0.0
C30 C 0.62216 0.60646 1.02499 0.0
N31 N 0.66593 0.57486 1.05494 0.0
C32 C 0.63239 0.65386 0.98589 0.0
H33 H 0.55103 0.46457 0.07334 0.0
H34 H 0.49449 0.5213 0.06986 0.0
H35 H 0.54092 0.50379 0.13337 0.0
H36 H 0.59653 0.68781 0.98759 0.0
H37 H 0.6334 0.64045 0.9424 0.0
H38 H 0.67465 0.66994 0.99718 0.0
C39 C 0.92517 0.61185 0.5117 0.0
N40 N 0.96753 0.63918 0.49001 0.0
N41 N 0.9026 0.637 0.556 0.0
C42 C 0.89728 0.56731 0.48296 0.0
C43 C 0.93296 0.68064 0.56042 0.0
N44 N 0.97318 0.68125 0.52136 0.0
C45 C 0.91601 0.7277 0.59632 0.0
H46 H 0.85598 0.58517 0.45925 0.0
H47 H 0.88548 0.53668 0.5146 0.0
H48 H 0.92749 0.54692 0.45364 0.0
H49 H 0.95505 0.74867 0.608 0.0
H50 H 0.89601 0.71313 0.63461 0.0
H51 H 0.88309 0.75778 0.57238 0.0
C52 C 0.88138 0.95559 0.93355 0.0
N53 N 0.92487 0.94605 0.89752 0.0
N54 N 0.84478 1.00122 0.91718 0.0
C55 C 0.87521 0.92012 0.98562 0.0
C56 C 0.86776 1.01981 0.86996 0.0
N57 N 0.91659 0.98657 0.85744 0.0
C58 C 0.84048 0.06904 0.83427 0.0
H59 H 0.8622 0.8801 0.97343 0.0
H60 H 0.84256 0.9392 1.01336 0.0
H61 H 0.91783 0.91237 1.01052 0.0
H62 H 0.86001 0.10567 0.84826 0.0
H63 H 0.7921 0.07588 0.83838 0.0
H64 H 0.8493 0.06419 0.78963 0.0
C65 C 0.71305 0.27014 0.45988 0.0
N66 N 0.72861 0.23051 0.42403 0.0
N67 N 0.66162 0.30034 0.4419 0.0
C68 C 0.74953 0.28178 0.51135 0.0
C69 C 0.64607 0.27747 0.39377 0.0
N70 N 0.68649 0.23506 0.38256 0.0
C71 C 0.59056 0.29607 0.35809 0.0
H72 H 0.7252 0.27332 0.54895 0.0
H73 H 0.75632 0.32569 0.51009 0.0
H74 H 0.79287 0.25644 0.5163 0.0
H75 H 0.60112 0.32403 0.32337 0.0
H76 H 0.55674 0.31821 0.38279 0.0
H77 H 0.57225 0.26067 0.33962 0.0
C78 C 0.42435 0.60745 0.10132 0.0
N79 N 0.4651 0.64259 0.10762 0.0
N80 N 0.39149 0.61881 1.05264 0.0
C81 C 0.40824 0.56967 0.14782 0.0
C82 C 0.41537 0.66118 1.02865 0.0
N83 N 0.45929 0.67661 0.06248 0.0
C84 C 0.38908 0.69191 0.97555 0.0
H85 H 0.38271 0.53776 0.13087 0.0
H86 H 0.38098 0.59362 0.17704 0.0
H87 H 0.44859 0.55009 0.17186 0.0
H88 H 0.34589 0.71471 0.98354 0.0
H89 H 0.38046 0.66236 0.94346 0.0
H90 H 0.41851 0.72088 0.95897 0.0
C91 C 0.09614 0.54395 0.53902 0.0
N92 N 0.1534 0.53241 0.52711 0.0
N93 N 0.08944 0.58381 0.57594 0.0
C94 C 0.04865 0.50843 0.52361 0.0
C95 C 0.14355 0.60134 0.58015 0.0
N96 N 0.18161 0.57065 0.55016 0.0
C97 C 0.1628 0.63985 0.62295 0.0
H98 H 1.00567 0.52458 0.53883 0.0
H99 H 0.06016 0.46624 0.5421 0.0
H100 H 0.04464 0.50614 0.4775 0.0
H101 H 0.17101 0.61729 0.66431 0.0
H102 H 0.12878 0.67466 0.62736 0.0
H103 H 0.20378 0.65677 0.61151 0.0
C104 C 0.1229 0.13826 0.46103 0.0
N105 N 0.07463 0.22677 0.59647 0.0
C106 C 0.12063 0.23787 0.63101 0.0
C107 C 0.14909 0.28414 0.61974 0.0
C108 C 0.12845 0.32008 0.57384 0.0
C109 C 0.07575 0.31168 0.54457 0.0
C110 C 0.04966 0.26461 0.55634 0.0
Zn111 Zn 0.06876 0.14731 0.57716 0.0
C112 C 0.95791 0.13763 0.5048 0.0
N113 N 0.06622 0.99025 0.51831 0.0
C114 C 0.11162 0.95802 0.49794 0.0
C115 C 1.01227 0.97306 0.5233 0.0
C116 C 1.00203 0.92165 0.50803 0.0
C117 C 0.04781 0.88691 0.48765 0.0
C118 C 0.10339 0.90526 0.48251 0.0
Zn119 Zn 0.07108 0.06574 0.54384 0.0
O120 O 0.10781 0.17002 0.49937 0.0
C121 C 0.17951 0.07537 0.6185 0.0
O122 O 0.11438 0.08824 0.46786 0.0
H123 H 0.97701 0.99889 0.54036 0.0
H124 H 0.1393 0.20843 0.66381 0.0
H125 H 0.15414 0.97288 0.49456 0.0
O126 O 0.1548 0.1241 0.61678 0.0
O127 O 0.15529 0.04034 0.59046 0.0
H128 H 1.01358 0.25619 0.52856 0.0
O129 O 0.02907 0.04269 0.6194 0.0
O130 O 0.03102 0.12211 0.65622 0.0
O131 O 0.98567 0.09092 0.49886 0.0
O132 O 0.98117 0.1696 0.53714 0.0
C133 C 1.01958 0.07239 0.66068 0.0
H134 H 0.18862 0.28984 0.64471 0.0
H135 H 0.0561 0.33992 0.51093 0.0
H136 H 0.95915 0.90842 0.51464 0.0
H137 H 0.13986 0.87898 0.46768 0.0
C138 C 0.64289 0.08104 1.03568 0.0
N139 N 0.54806 0.23452 1.04394 0.0
C140 C 0.58853 0.2455 1.0065 0.0
C141 C 0.62051 0.29024 1.01273 0.0
C142 C 0.60928 0.32491 0.05677 0.0
C143 C 0.56179 0.31652 0.08971 0.0
C144 C 0.53205 0.27086 0.08292 0.0
Zn145 Zn 0.53936 0.15463 0.06716 0.0
C146 C 0.47832 0.08699 0.98614 0.0
N147 N 0.53602 0.99229 0.13376 0.0
C148 C 0.58439 0.95538 0.1292 0.0
C149 C 0.48216 0.97541 0.14087 0.0
C150 C 0.47412 0.92091 0.13602 0.0
C151 C 0.52089 0.8841 0.11987 0.0
C152 C 0.57761 0.90091 0.12047 0.0
Zn153 Zn 0.53867 0.07186 0.10731 0.0
O154 O 0.62087 0.13056 1.03067 0.0
C155 C 0.60364 0.1367 0.18568 0.0
O156 O 0.61786 0.04787 0.06566 0.0
H157 H 0.44384 1.0043 0.14517 0.0
H158 H 0.60044 0.21687 0.97513 0.0
H159 H 0.6277 0.96856 0.12682 0.0
O160 O 0.58765 0.1701 0.14414 0.0
O161 O 0.58964 0.08817 0.18355 0.0
H162 H 0.50083 0.26183 0.11321 0.0
O163 O 0.4582 0.09754 0.14755 0.0
O164 O 0.4561 0.1785 0.10549 0.0
O165 O 0.48914 0.05539 1.0302 0.0
O166 O 0.49267 0.13574 0.98795 0.0
C167 C 0.43322 0.14611 0.13876 0.0
H168 H 0.65573 0.2956 0.98527 0.0
H169 H 0.54908 0.34366 0.12227 0.0
H170 H 0.4303 0.90909 0.14028 0.0
H171 H 0.61567 0.87396 0.10998 0.0
C172 C 0.57366 0.50386 0.53512 0.0
N173 N 0.55222 0.56275 0.69446 0.0
C174 C 0.51545 0.52727 0.7138 0.0
C175 C 0.50172 0.52663 0.76979 0.0
C176 C 0.52594 0.56319 0.80488 0.0
C177 C 0.56768 0.59553 0.78489 0.0
C178 C 0.58041 0.59456 0.72925 0.0
Zn179 Zn 0.54801 0.58812 0.61356 0.0
C180 C 0.65945 0.62406 0.57756 0.0
N181 N 0.53035 0.65525 0.44784 0.0
C182 C 0.49989 0.6226 0.41575 0.0
C183 C 0.5571 0.69676 0.42448 0.0
C184 C 0.55435 0.70584 0.36616 0.0
C185 C 0.52417 0.67142 0.33297 0.0
C186 C 0.49619 0.63008 0.35818 0.0
Zn187 Zn 0.53819 0.63016 0.53002 0.0
O188 O 0.57013 0.50718 0.58759 0.0
C189 C 0.42647 0.5936 0.56482 0.0
O190 O 0.56266 0.54745 0.50385 0.0
H191 H 0.58167 0.72173 0.45084 0.0
H192 H 0.49346 0.5025 0.68515 0.0
H193 H 0.47976 0.58919 0.43457 0.0
O194 O 0.4585 0.5769 0.60827 0.0
O195 O 0.44856 0.61863 0.52535 0.0
H196 H 0.60884 0.62293 0.71299 0.0
O197 O 0.51636 0.71233 0.55793 0.0
O198 O 0.52567 0.66983 0.6406 0.0
O199 O 0.62627 0.64193 0.535 0.0
O200 O 0.63852 0.5987 0.61778 0.0
C201 C 0.51536 0.71431 0.61094 0.0
H202 H 0.47067 0.50002 0.78481 0.0
H203 H 0.58899 0.62256 0.81172 0.0
H204 H 0.57622 0.73825 0.34728 0.0
H205 H 0.47246 0.60309 0.33334 0.0
C206 C 1.00225 0.73094 0.98008 0.0
N207 N 1.01703 0.65894 0.14634 0.0
C208 C 0.04774 0.69455 0.17428 0.0
C209 C 0.04403 0.6976 0.23228 0.0
C210 C 1.00813 0.66386 0.26018 0.0
C211 C 0.97757 0.62782 0.23025 0.0
C212 C 0.98277 0.62585 0.17356 0.0
Zn213 Zn 1.02316 0.64048 0.06547 0.0
C214 C 0.90408 0.61185 1.02355 0.0
N215 N 0.02569 0.58166 0.90573 0.0
C216 C 0.05775 0.6129 0.87395 0.0
C217 C 0.99073 0.54635 0.88278 0.0
C218 C 0.9852 0.54347 0.82477 0.0
C219 C 1.01545 0.57786 0.7914 0.0
C220 C 0.05334 0.61155 0.81653 0.0
Zn221 Zn 1.02254 0.60248 0.98488 0.0
O222 O 1.00804 0.72507 1.03332 0.0
C223 C 0.14158 0.62671 1.03074 0.0
O224 O 1.00415 0.68812 0.95226 0.0
H225 H 0.96539 0.52227 0.90919 0.0
H226 H 0.07587 0.71945 0.15198 0.0
H227 H 0.08459 0.64123 0.89287 0.0
O228 O 0.1122 0.64557 0.07023 0.0
O229 O 0.11516 0.60752 0.98951 0.0
H230 H 0.9606 0.59594 0.15191 0.0
O231 O 0.04115 0.51835 1.01626 0.0
O232 O 0.04241 0.55595 0.09673 0.0
O233 O 0.93134 0.59469 0.9821 0.0
O234 O 0.93154 0.63492 0.06113 0.0
C235 C 0.04849 0.51309 0.06928 0.0
H236 H 0.06841 0.72567 0.25487 0.0
H237 H 0.95048 0.60047 0.25083 0.0
H238 H 0.95667 0.51614 0.80621 0.0
H239 H 0.079 0.63715 0.79192 0.0
C240 C 0.17905 0.23897 0.35549 0.0
C241 C 0.17786 0.2115 0.30539 0.0
H242 H 0.16271 0.23816 0.44276 0.0
C243 C 0.1644 0.1571 0.30809 0.0
H244 H 0.18823 0.28114 0.35474 0.0
C245 C 0.1495 0.13199 0.35896 0.0
C246 C 0.14693 0.16095 0.40838 0.0
H247 H 0.16154 0.13527 0.27012 0.0
H248 H 0.1369 0.09094 0.35883 0.0
C249 C 0.16368 0.21433 0.40595 0.0
C250 C 0.42486 0.98476 0.88381 0.0
C251 C 0.42778 1.01121 0.83081 0.0
H252 H 0.43751 0.98726 0.97294 0.0
C253 C 0.44128 0.06574 0.82948 0.0
H254 H 0.41467 0.94292 0.88671 0.0
C255 C 0.45471 0.09171 0.8795 0.0
C256 C 0.45503 0.06395 0.93256 0.0
H257 H 0.44483 0.08721 0.78958 0.0
H258 H 0.46755 0.13266 0.8764 0.0
C259 C 0.43821 1.01046 0.93352 0.0
C260 C 0.51183 0.62298 0.94296 0.0
C261 C 0.5352 0.57759 0.97774 0.0
H262 H 0.48857 0.65387 0.85897 0.0
C263 C 0.5382 0.52522 0.95568 0.0
H264 H 0.50925 0.66356 0.9582 0.0
C265 C 0.52617 0.51954 0.89909 0.0
C266 C 0.51205 0.5661 0.86355 0.0
H267 H 0.55719 0.48893 0.97993 0.0
H268 H 0.53571 0.47963 0.88237 0.0
C269 C 0.50019 0.61739 0.88612 0.0
C270 C 0.93217 0.66031 0.39326 0.0
C271 C 0.97903 0.64191 0.43202 0.0
H272 H 0.90562 0.68461 0.30838 0.0
C273 C 0.03717 0.63707 0.41525 0.0
H274 H 0.88743 0.66725 0.40637 0.0
C275 C 0.04791 0.64784 0.35918 0.0
C276 C 1.00044 0.66448 0.32026 0.0
H277 H 0.07382 0.62531 0.44551 0.0
H278 H 0.09264 0.64145 0.34593 0.0
C279 C 0.94275 0.67172 0.33794 0.0
C280 C 0.27811 0.15516 0.19312 0.0
C281 C 0.27124 0.20835 0.2125 0.0
H282 H 0.33496 0.09328 0.15523 0.0
C283 C 0.32071 0.23772 0.21359 0.0
H284 H 0.24046 0.13219 0.19012 0.0
C285 C 0.37342 0.21705 0.19063 0.0
C286 C 0.37908 0.16535 0.16796 0.0
H287 H 0.31634 0.27927 0.22692 0.0
H288 H 0.40918 0.24236 0.18895 0.0
C289 C 0.33184 0.13346 0.17201 0.0
C290 C 0.28746 0.99628 0.72776 0.0
C291 C 0.3377 1.02435 0.72447 0.0
H292 H 0.19985 0.9882 0.6941 0.0
C293 C 0.33243 0.07358 0.69144 0.0
H294 H 0.2907 0.95752 0.75162 0.0
C295 C 0.2802 0.09145 0.65862 0.0
C296 C 0.23295 0.0594 0.6567 0.0
H297 H 0.37072 0.09524 0.68681 0.0
H298 H 0.27834 0.12831 0.63178 0.0
C299 C 0.23624 1.01283 0.69334 0.0
C300 C 0.76264 0.59327 0.09308 0.0
C301 C 0.72765 0.57725 1.04869 0.0
H302 H 0.84579 0.61823 0.11957 0.0
C303 C 0.751 0.57135 0.99603 0.0
H304 H 0.7447 0.59868 0.13359 0.0
C305 C 0.80849 0.58247 0.98759 0.0
C306 C 0.84306 0.60051 1.03155 0.0
H307 H 0.72391 0.55994 0.96104 0.0
H308 H 0.82536 0.57805 0.9465 0.0
C309 C 0.81985 0.60519 0.08458 0.0
C310 C 0.80025 0.67438 0.53697 0.0
C311 C 0.84221 0.63782 0.56827 0.0
H312 H 0.70909 0.69889 0.51597 0.0
C313 C 0.82439 0.59921 0.60645 0.0
H314 H 0.81399 0.70386 0.50686 0.0
C315 C 0.76425 0.59616 0.61193 0.0
C316 C 0.72215 0.63123 0.57845 0.0
H317 H 0.85688 0.57059 0.63029 0.0
H318 H 0.7508 0.56493 0.64023 0.0
C319 C 0.74064 0.67116 0.54196 0.0
C320 C 0.09084 0.35943 0.10069 0.0
C321 C 0.11353 0.35765 0.1566 0.0
H322 H 0.05313 0.40956 1.02882 0.0
C323 C 0.11097 0.40669 0.18425 0.0
H324 H 0.09109 0.32207 0.07872 0.0
C325 C 0.08821 0.45653 0.15627 0.0
C326 C 0.06786 0.45891 0.09949 0.0
H327 H 0.1283 0.40661 0.22718 0.0
H328 H 0.08825 0.49354 0.17886 0.0
C329 C 0.06884 0.4095 0.07225 0.0
C330 C 0.66337 0.44398 0.12876 0.0
C331 C 0.66949 0.47843 0.08181 0.0
H332 H 0.64032 0.36625 0.15778 0.0
C333 C 0.67649 0.45509 1.02987 0.0
H334 H 0.6586 0.46092 0.16932 0.0
C335 C 0.6626 0.40226 1.02228 0.0
C336 C 0.64412 0.37132 0.06728 0.0
H337 H 0.68098 0.4808 0.99291 0.0
H338 H 0.65914 0.38896 0.98 0.0
C339 C 0.65097 0.39037 0.12157 0.0
C340 C 0.96223 0.7693 0.4687 0.0
C341 C 0.99751 0.72923 0.5024 0.0
H342 H 0.95323 0.85108 0.43346 0.0
C343 C 0.05536 0.73694 0.51897 0.0
H344 H 0.91781 0.76289 0.45464 0.0
C345 C 0.07547 0.78748 0.50823 0.0
C346 C 0.03766 0.82995 0.47982 0.0
H347 H 0.08333 0.70506 0.54284 0.0
H348 H 0.11813 0.7947 0.52649 0.0
C349 C 0.98268 0.81915 0.45644 0.0
C350 C 0.49888 0.86657 0.63989 0.0
C351 C 0.47888 0.8665 0.69451 0.0
H352 H 0.52443 0.81945 0.57005 0.0
C353 C 0.47352 0.81582 0.72195 0.0
H354 H 0.50455 0.90481 0.61794 0.0
C355 C 0.48602 0.76678 0.69496 0.0
C356 C 0.50321 0.767 0.63927 0.0
H357 H 0.45747 0.81425 0.76358 0.0
H358 H 0.4806 0.72862 0.71735 0.0
C359 C 0.51014 0.81763 0.61236 0.0
C360 C 0.95429 0.97275 0.76293 0.0
C361 C 0.9547 0.99996 0.8131 0.0
H362 H 0.97385 0.9739 0.67613 0.0
C363 C 0.97919 0.0501 0.81319 0.0
H364 H 0.93409 0.93519 0.76065 0.0
C365 C 1.00009 0.07356 0.76438 0.0
C366 C 0.99787 0.04742 0.71355 0.0
H367 H 0.97877 0.07289 0.85069 0.0
H368 H 1.01709 0.11274 0.76632 0.0
C369 C 0.97607 0.99581 0.71412 0.0
C370 C 0.66284 0.15112 0.33694 0.0
C371 C 0.68276 0.20314 0.33335 0.0
H372 H 0.62253 0.08884 0.29356 0.0
C373 C 0.68243 0.22963 0.2801 0.0
H374 H 0.66094 0.13042 0.37753 0.0
C375 C 0.6593 0.20675 0.23234 0.0
C376 C 0.63589 0.15622 0.23603 0.0
H377 H 0.69612 0.27023 0.27614 0.0
H378 H 0.65743 0.23003 0.19268 0.0
C379 C 0.64005 0.12771 0.28882 0.0
C380 C 0.5383 0.62794 0.1876 0.0
C381 C 0.4871 0.65679 0.16152 0.0
H382 H 0.59193 0.61193 0.26401 0.0
C383 C 0.45491 0.6979 0.18946 0.0
H384 H 0.56357 0.59639 0.16637 0.0
C385 C 0.47167 0.70777 0.2444 0.0
C386 C 0.52058 0.67631 0.27188 0.0
H387 H 0.41509 0.72022 0.16954 0.0
H388 H 0.44375 0.73664 0.26684 0.0
C389 C 0.55495 0.63756 0.24275 0.0
C390 C 0.05191 0.53024 0.65251 0.0
C391 C 0.05328 0.58083 0.62288 0.0
H392 H 0.03626 0.4896 0.73002 0.0
C393 C 0.0291 0.62869 0.64584 0.0
H394 H 0.07249 0.49265 0.63714 0.0
C395 C 1.00748 0.62681 0.69876 0.0
C396 C 1.0125 0.577 0.73045 0.0
H397 H 0.03167 0.66801 0.62502 0.0
H398 H 0.99322 0.66492 0.71737 0.0
C399 C 0.03114 0.5283 0.70585 0.0
C400 C 0.74886 0.98881 0.95607 0.0
C401 C 0.79214 1.02293 0.94326 0.0
H402 H 0.66915 0.9798 0.99699 0.0
C403 C 0.7849 0.07726 0.95924 0.0
H404 H 0.75292 0.94709 0.94324 0.0
C405 C 0.73607 0.09657 0.98881 0.0
C406 C 0.69442 0.06145 1.00403 0.0
H407 H 0.81771 0.10429 0.94993 0.0
H408 H 0.73165 0.13854 1.00094 0.0
C409 C 0.70117 1.00748 0.98697 0.0
C410 C 0.79517 0.14711 0.455 0.0
C411 C 0.78625 0.1989 0.42653 0.0
H412 H 0.85684 0.08643 0.5014 0.0
C413 C 0.83595 0.22656 0.41794 0.0
H414 H 0.75757 0.12563 0.46366 0.0
C415 C 0.8919 0.20576 0.442 0.0
C416 C 0.90017 0.15564 0.47347 0.0
H417 H 0.83013 0.26714 0.39759 0.0
H418 H 0.92834 0.22996 0.43784 0.0
C419 C 0.85179 0.12523 0.47744 0.0
C420 C 0.29416 0.64621 0.08507 0.0
C421 C 0.32923 0.61651 1.04828 0.0
H422 H 0.20752 0.67307 0.10803 0.0
C423 C 0.30274 0.59119 1.00413 0.0
H424 H 0.31427 0.66767 0.11809 0.0
C425 C 0.24119 0.59496 0.99749 0.0
C426 C 0.2061 0.62433 1.03494 0.0
H427 H 0.32965 0.56939 0.97473 0.0
H428 H 0.22119 0.57483 0.96339 0.0
C429 C 0.23325 0.64986 0.07873 0.0
C430 C 0.27199 0.58551 0.50486 0.0
C431 C 0.24427 0.57072 0.55287 0.0
H432 H 0.35215 0.60527 0.47105 0.0
C433 C 0.27713 0.56026 0.60409 0.0
H434 H 0.24675 0.5936 0.46521 0.0
C435 C 0.33686 0.56659 0.60773 0.0
C436 C 0.36432 0.58396 0.5602 0.0
H437 H 0.25614 0.54885 0.64158 0.0
H438 H 0.36102 0.5594 0.64803 0.0
C439 C 0.33173 0.59252 0.50848 0.0
C440 C 1.00504 0.88428 0.94675 0.0
C441 C 0.96363 0.89496 0.90064 0.0
H442 H 0.04671 0.8254 1.0101 0.0
C443 C 0.94314 0.84957 0.87562 0.0
H444 H 1.0207 0.91822 0.96785 0.0
C445 C 0.95823 0.79608 0.89963 0.0
C446 C 0.9932 0.78659 0.95018 0.0
H447 H 0.91015 0.85613 0.84107 0.0
H448 H 0.93873 0.7627 0.88092 0.0
C449 C 1.01846 0.83117 0.97204 0.0
C450 C 0.53703 0.7352 0.08288 0.0
C451 C 0.47928 0.72987 0.06252 0.0
H452 H 0.59485 0.78665 0.12106 0.0
C453 C 0.43794 0.77652 1.05562 0.0
H454 H 0.56937 0.69949 0.08928 0.0
C455 C 0.45304 0.82677 0.07099 0.0
C456 C 0.50868 0.83122 0.09738 0.0
H457 H 0.39244 0.77394 1.04242 0.0
H458 H 0.41971 0.86163 0.0641 0.0
C459 C 0.55139 0.78516 0.10134 0.0
C460 C 0.16595 0.44202 0.48833 0.0
C461 C 0.17801 0.47602 0.53156 0.0
H462 H 0.14173 0.36369 0.46796 0.0
C463 C 0.19211 0.45247 0.58591 0.0
H464 H 0.1552 0.45931 0.44617 0.0
C465 C 0.18197 0.39899 0.59908 0.0
C466 C 0.15898 0.36789 0.55763 0.0
H467 H 0.20034 0.47797 0.62022 0.0
H468 H 0.18495 0.38498 0.64272 0.0
C469 C 0.15671 0.38786 0.5013 0.0
C470 C 0.62636 0.39938 0.43097 0.0
C471 C 0.63532 0.3504 0.46436 0.0
H472 H 0.59973 0.48579 0.42673 0.0
C473 C 0.62125 0.35177 0.52067 0.0
H474 H 0.63735 0.39963 0.38763 0.0
C475 C 0.60049 0.40125 0.54355 0.0
C476 C 0.59268 0.45058 0.51046 0.0
H477 H 0.62662 0.31452 0.5471 0.0
H478 H 0.59099 0.40087 0.5873 0.0
C479 C 0.6051 0.44876 0.45361 0.0
loop_
_geom_bond_atom_site_label_1
_geom_bond_atom_site_label_2
_geom_bond_distance
_geom_bond_site_symmetry_2
_ccdc_geom_bond_type
C0 N1 1.317 . S
C0 N2 1.348 . S
C0 C3 1.485 . S
N1 C0 1.317 . S
N1 N5 1.370 . S
N2 C0 1.348 . S
N2 C4 1.346 . S
C3 C0 1.485 . S
C3 H7 0.960 . S
C3 H8 0.961 . S
C3 H9 0.960 . S
C4 N2 1.346 . S
C4 N5 1.307 . S
C4 C6 1.486 . S
N5 N1 1.370 . S
N5 C4 1.307 . S
C6 C4 1.486 . S
C6 H10 0.960 . S
C6 H11 0.960 . S
C6 H12 0.959 . S
H7 C3 0.960 . S
H8 C3 0.961 . S
H9 C3 0.960 . S
H10 C6 0.960 . S
H11 C6 0.960 . S
H12 C6 0.959 . S
C13 N14 1.317 . S
C13 N15 1.348 . S
C13 C16 1.485 . S
N14 C13 1.317 . S
N14 N18 1.370 . S
N15 C13 1.348 . S
N15 C17 1.346 . S
C16 C13 1.485 . S
C16 H20 0.960 . S
C16 H21 0.961 . S
C16 H22 0.960 . S
C17 N15 1.346 . S
C17 N18 1.307 . S
C17 C19 1.486 . S
N18 N14 1.370 . S
N18 C17 1.307 . S
C19 C17 1.486 . S
C19 H23 0.960 . S
C19 H24 0.960 . S
C19 H25 0.959 . S
H20 C16 0.960 . S
H21 C16 0.961 . S
H22 C16 0.960 . S
H23 C19 0.960 . S
H24 C19 0.960 . S
H25 C19 0.959 . S
C26 N27 1.317 . S
C26 N28 1.348 . S
C26 C29 1.485 . S
N27 C26 1.317 . S
N27 N31 1.370 . S
N28 C26 1.348 . S
N28 C30 1.346 . S
C29 C26 1.485 . S
C29 H33 0.960 . S
C29 H34 0.961 . S
C29 H35 0.960 . S
C30 N28 1.346 . S
C30 N31 1.307 . S
C30 C32 1.486 . S
N31 N27 1.370 . S
N31 C30 1.307 . S
C32 C30 1.486 . S
C32 H36 0.960 . S
C32 H37 0.960 . S
C32 H38 0.959 . S
H33 C29 0.960 . S
H34 C29 0.961 . S
H35 C29 0.960 . S
H36 C32 0.960 . S
H37 C32 0.960 . S
H38 C32 0.959 . S
C39 N40 1.317 . S
C39 N41 1.348 . S
C39 C42 1.485 . S
N40 C39 1.317 . S
N40 N44 1.370 . S
N41 C39 1.348 . S
N41 C43 1.346 . S
C42 C39 1.485 . S
C42 H46 0.960 . S
C42 H47 0.961 . S
C42 H48 0.960 . S
C43 N41 1.346 . S
C43 N44 1.307 . S
C43 C45 1.486 . S
N44 N40 1.370 . S
N44 C43 1.307 . S
C45 C43 1.486 . S
C45 H49 0.960 . S
C45 H50 0.960 . S
C45 H51 0.959 . S
H46 C42 0.960 . S
H47 C42 0.961 . S
H48 C42 0.960 . S
H49 C45 0.960 . S
H50 C45 0.960 . S
H51 C45 0.959 . S
C52 N53 1.317 . S
C52 N54 1.348 . S
C52 C55 1.485 . S
N53 C52 1.317 . S
N53 N57 1.370 . S
N54 C52 1.348 . S
N54 C56 1.346 1_565 S
C55 C52 1.485 . S
C55 H59 0.960 . S
C55 H60 0.961 . S
C55 H61 0.960 . S
C56 N54 1.346 1_545 S
C56 N57 1.307 1_545 S
C56 C58 1.486 . S
N57 N53 1.370 . S
N57 C56 1.307 1_565 S
C58 C56 1.486 . S
C58 H62 0.960 . S
C58 H63 0.960 . S
C58 H64 0.959 . S
H59 C55 0.960 . S
H60 C55 0.961 . S
H61 C55 0.960 . S
H62 C58 0.960 . S
H63 C58 0.960 . S
H64 C58 0.959 . S
C65 N66 1.317 . S
C65 N67 1.348 . S
C65 C68 1.485 . S
N66 C65 1.317 . S
N66 N70 1.370 . S
N67 C65 1.348 . S
N67 C69 1.346 . S
C68 C65 1.485 . S
C68 H72 0.960 . S
C68 H73 0.961 . S
C68 H74 0.960 . S
C69 N67 1.346 . S
C69 N70 1.307 . S
C69 C71 1.486 . S
N70 N66 1.370 . S
N70 C69 1.307 . S
C71 C69 1.486 . S
C71 H75 0.960 . S
C71 H76 0.960 . S
C71 H77 0.959 . S
H72 C68 0.960 . S
H73 C68 0.961 . S
H74 C68 0.960 . S
H75 C71 0.960 . S
H76 C71 0.960 . S
H77 C71 0.959 . S
C78 N79 1.317 . S
C78 N80 1.348 . S
C78 C81 1.485 . S
N79 C78 1.317 . S
N79 N83 1.370 . S
N80 C78 1.348 . S
N80 C82 1.346 . S
C81 C78 1.485 . S
C81 H85 0.960 . S
C81 H86 0.961 . S
C81 H87 0.960 . S
C82 N80 1.346 . S
C82 N83 1.307 . S
C82 C84 1.486 1_554 S
N83 N79 1.370 . S
N83 C82 1.307 . S
C84 C82 1.486 1_556 S
C84 H88 0.960 . S
C84 H89 0.960 . S
C84 H90 0.959 . S
H85 C81 0.960 . S
H86 C81 0.961 . S
H87 C81 0.960 . S
H88 C84 0.960 . S
H89 C84 0.960 . S
H90 C84 0.959 . S
C91 N92 1.317 . S
C91 N93 1.348 . S
C91 C94 1.485 . S
N92 C91 1.317 . S
N92 N96 1.370 . S
N93 C91 1.348 . S
N93 C95 1.346 . S
C94 C91 1.485 . S
C94 H98 0.960 . S
C94 H99 0.961 . S
C94 H100 0.960 . S
C95 N93 1.346 . S
C95 N96 1.307 . S
C95 C97 1.486 . S
N96 N92 1.370 . S
N96 C95 1.307 . S
C97 C95 1.486 . S
C97 H101 0.960 . S
C97 H102 0.960 . S
C97 H103 0.959 . S
H98 C94 0.960 . S
H99 C94 0.961 . S
H100 C94 0.960 . S
H101 C97 0.960 . S
H102 C97 0.960 . S
H103 C97 0.959 . S
C104 O120 1.251 . S
C104 O122 1.254 . S
N105 C106 1.333 . S
N105 C110 1.307 . S
N105 Zn111 2.020 . S
C106 N105 1.333 . S
C106 C107 1.379 . S
C106 H124 0.952 . S
C107 C106 1.379 . S
C107 C108 1.390 . S
C107 H134 0.949 . S
C108 C107 1.390 . S
C108 C109 1.357 . S
C109 C108 1.357 . S
C109 C110 1.370 . S
C109 H135 0.950 . S
C110 N105 1.307 . S
C110 C109 1.370 . S
C110 H128 0.948 . S
Zn111 N105 2.020 . S
Zn111 O120 2.039 . S
Zn111 O126 2.034 . S
Zn111 O130 2.025 . S
Zn111 O132 2.024 1_455 S
C112 O131 1.246 . S
C112 O132 1.249 . S
N113 C114 1.307 . S
N113 C115 1.333 1_455 S
N113 Zn119 2.020 1_565 S
C114 N113 1.307 . S
C114 C118 1.370 . S
C114 H125 0.948 . S
C115 N113 1.333 1_655 S
C115 C116 1.379 . S
C115 H123 0.952 . S
C116 C115 1.379 . S
C116 C117 1.390 . S
C116 H136 0.949 . S
C117 C116 1.390 . S
C117 C118 1.357 1_655 S
C118 C114 1.370 . S
C118 C117 1.357 1_455 S
C118 H137 0.950 . S
Zn119 N113 2.020 1_545 S
Zn119 O122 2.025 . S
Zn119 O127 2.024 1_545 S
Zn119 O129 2.039 . S
Zn119 O131 2.034 1_455 S
O120 C104 1.251 . S
O120 Zn111 2.039 . S
C121 O126 1.246 . S
C121 O127 1.249 1_545 S
O122 C104 1.254 . S
O122 Zn119 2.025 . S
H123 C115 0.952 . S
H124 C106 0.952 . S
H125 C114 0.948 . S
O126 Zn111 2.034 . S
O126 C121 1.246 . S
O127 Zn119 2.024 1_565 S
O127 C121 1.249 1_565 S
H128 C110 0.948 . S
O129 Zn119 2.039 . S
O129 C133 1.251 . S
O130 Zn111 2.025 . S
O130 C133 1.254 . S
O131 C112 1.246 . S
O131 Zn119 2.034 1_655 S
O132 Zn111 2.024 1_655 S
O132 C112 1.249 . S
C133 O129 1.251 . S
C133 O130 1.254 . S
H134 C107 0.949 . S
H135 C109 0.950 . S
H136 C116 0.949 . S
H137 C118 0.950 . S
C138 O154 1.251 1_554 S
C138 O156 1.254 . S
N139 C140 1.333 . S
N139 C144 1.307 . S
N139 Zn145 2.020 1_556 S
C140 N139 1.333 . S
C140 C141 1.379 . S
C140 H158 0.952 1_556 S
C141 C140 1.379 . S
C141 C142 1.390 . S
C141 H168 0.949 . S
C142 C141 1.390 . S
C142 C143 1.357 . S
C143 C142 1.357 . S
C143 C144 1.370 . S
C143 H169 0.950 . S
C144 N139 1.307 . S
C144 C143 1.370 . S
C144 H162 0.948 . S
Zn145 N139 2.020 1_554 S
Zn145 O154 2.039 1_554 S
Zn145 O160 2.034 . S
Zn145 O164 2.025 . S
Zn145 O166 2.024 1_554 S
C146 O165 1.246 . S
C146 O166 1.249 . S
N147 C148 1.307 . S
N147 C149 1.333 . S
N147 Zn153 2.020 1_565 S
C148 N147 1.307 . S
C148 C152 1.370 . S
C148 H159 0.948 . S
C149 N147 1.333 . S
C149 C150 1.379 . S
C149 H157 0.952 . S
C150 C149 1.379 . S
C150 C151 1.390 . S
C150 H170 0.949 . S
C151 C150 1.390 . S
C151 C152 1.357 . S
C152 C148 1.370 . S
C152 C151 1.357 . S
C152 H171 0.950 . S
Zn153 N147 2.020 1_545 S
Zn153 O156 2.025 . S
Zn153 O161 2.024 . S
Zn153 O163 2.039 . S
Zn153 O165 2.034 1_554 S
O154 C138 1.251 1_556 S
O154 Zn145 2.039 1_556 S
C155 O160 1.246 . S
C155 O161 1.249 . S
O156 C138 1.254 . S
O156 Zn153 2.025 . S
H157 C149 0.952 . S
H158 C140 0.952 1_554 S
H159 C148 0.948 . S
O160 Zn145 2.034 . S
O160 C155 1.246 . S
O161 Zn153 2.024 . S
O161 C155 1.249 . S
H162 C144 0.948 . S
O163 Zn153 2.039 . S
O163 C167 1.251 . S
O164 Zn145 2.025 . S
O164 C167 1.254 . S
O165 C146 1.246 . S
O165 Zn153 2.034 1_556 S
O166 Zn145 2.024 1_556 S
O166 C146 1.249 . S
C167 O163 1.251 . S
C167 O164 1.254 . S
H168 C141 0.949 . S
H169 C143 0.950 . S
H170 C150 0.949 . S
H171 C152 0.950 . S
C172 O188 1.251 . S
C172 O190 1.254 . S
N173 C174 1.333 . S
N173 C178 1.307 . S
N173 Zn179 2.020 . S
C174 N173 1.333 . S
C174 C175 1.379 . S
C174 H192 0.952 . S
C175 C174 1.379 . S
C175 C176 1.390 . S
C175 H202 0.949 . S
C176 C175 1.390 . S
C176 C177 1.357 . S
C177 C176 1.357 . S
C177 C178 1.370 . S
C177 H203 0.950 . S
C178 N173 1.307 . S
C178 C177 1.370 . S
C178 H196 0.948 . S
Zn179 N173 2.020 . S
Zn179 O188 2.039 . S
Zn179 O194 2.034 . S
Zn179 O198 2.025 . S
Zn179 O200 2.024 . S
C180 O199 1.246 . S
C180 O200 1.249 . S
N181 C182 1.307 . S
N181 C183 1.333 . S
N181 Zn187 2.020 . S
C182 N181 1.307 . S
C182 C186 1.370 . S
C182 H193 0.948 . S
C183 N181 1.333 . S
C183 C184 1.379 . S
C183 H191 0.952 . S
C184 C183 1.379 . S
C184 C185 1.390 . S
C184 H204 0.949 . S
C185 C184 1.390 . S
C185 C186 1.357 . S
C186 C182 1.370 . S
C186 C185 1.357 . S
C186 H205 0.950 . S
Zn187 N181 2.020 . S
Zn187 O190 2.025 . S
Zn187 O195 2.024 . S
Zn187 O197 2.039 . S
Zn187 O199 2.034 . S
O188 C172 1.251 . S
O188 Zn179 2.039 . S
C189 O194 1.246 . S
C189 O195 1.249 . S
O190 C172 1.254 . S
O190 Zn187 2.025 . S
H191 C183 0.952 . S
H192 C174 0.952 . S
H193 C182 0.948 . S
O194 Zn179 2.034 . S
O194 C189 1.246 . S
O195 Zn187 2.024 . S
O195 C189 1.249 . S
H196 C178 0.948 . S
O197 Zn187 2.039 . S
O197 C201 1.251 . S
O198 Zn179 2.025 . S
O198 C201 1.254 . S
O199 C180 1.246 . S
O199 Zn187 2.034 . S
O200 Zn179 2.024 . S
O200 C180 1.249 . S
C201 O197 1.251 . S
C201 O198 1.254 . S
H202 C175 0.949 . S
H203 C177 0.950 . S
H204 C184 0.949 . S
H205 C186 0.950 . S
C206 O222 1.251 1_556 S
C206 O224 1.254 . S
N207 C208 1.333 . S
N207 C212 1.307 . S
N207 Zn213 2.020 . S
C208 N207 1.333 . S
C208 C209 1.379 . S
C208 H226 0.952 . S
C209 C208 1.379 . S
C209 C210 1.390 . S
C209 H236 0.949 . S
C210 C209 1.390 . S
C210 C211 1.357 . S
C211 C210 1.357 . S
C211 C212 1.370 . S
C211 H237 0.950 . S
C212 N207 1.307 . S
C212 C211 1.370 . S
C212 H230 0.948 . S
Zn213 N207 2.020 . S
Zn213 O222 2.039 . S
Zn213 O228 2.034 1_655 S
Zn213 O232 2.025 1_655 S
Zn213 O234 2.024 . S
C214 O233 1.246 . S
C214 O234 1.249 1_556 S
N215 C216 1.307 . S
N215 C217 1.333 . S
N215 Zn221 2.020 . S
C216 N215 1.307 . S
C216 C220 1.370 . S
C216 H227 0.948 . S
C217 N215 1.333 . S
C217 C218 1.379 . S
C217 H225 0.952 . S
C218 C217 1.379 . S
C218 C219 1.390 . S
C218 H238 0.949 . S
C219 C218 1.390 . S
C219 C220 1.357 . S
C220 C216 1.370 . S
C220 C219 1.357 . S
C220 H239 0.950 . S
Zn221 N215 2.020 . S
Zn221 O224 2.025 1_455 S
Zn221 O229 2.024 . S
Zn221 O231 2.039 . S
Zn221 O233 2.034 1_455 S
O222 C206 1.251 1_554 S
O222 Zn213 2.039 . S
C223 O228 1.246 . S
C223 O229 1.249 1_554 S
O224 C206 1.254 . S
O224 Zn221 2.025 1_655 S
H225 C217 0.952 . S
H226 C208 0.952 . S
H227 C216 0.948 . S
O228 Zn213 2.034 1_455 S
O228 C223 1.246 . S
O229 Zn221 2.024 . S
O229 C223 1.249 1_556 S
H230 C212 0.948 . S
O231 Zn221 2.039 . S
O231 C235 1.251 1_556 S
O232 Zn213 2.025 1_455 S
O232 C235 1.254 . S
O233 C214 1.246 . S
O233 Zn221 2.034 1_655 S
O234 Zn213 2.024 . S
O234 C214 1.249 1_554 S
C235 O231 1.251 1_554 S
C235 O232 1.254 . S
H236 C209 0.949 . S
H237 C211 0.950 . S
H238 C218 0.949 . S
H239 C220 0.950 . S
C240 C241 1.387 . S
C240 H244 0.950 . S
C240 C249 1.390 . S
C241 C240 1.387 . S
C241 C243 1.387 . S
H242 C249 0.950 . S
C243 C241 1.387 . S
C243 C245 1.390 . S
C243 H247 0.950 . S
H244 C240 0.950 . S
C245 C243 1.390 . S
C245 C246 1.387 . S
C245 H248 0.950 . S
C246 C245 1.387 . S
C246 C249 1.387 . S
H247 C243 0.950 . S
H248 C245 0.950 . S
C249 C240 1.390 . S
C249 H242 0.950 . S
C249 C246 1.387 . S
C250 C251 1.387 1_565 S
C250 H254 0.950 . S
C250 C259 1.390 . S
C251 C250 1.387 1_545 S
C251 C253 1.387 . S
H252 C259 0.950 . S
C253 C251 1.387 . S
C253 C255 1.390 . S
C253 H257 0.950 . S
H254 C250 0.950 . S
C255 C253 1.390 . S
C255 C256 1.387 . S
C255 H258 0.950 . S
C256 C255 1.387 . S
C256 C259 1.387 1_545 S
H257 C253 0.950 . S
H258 C255 0.950 . S
C259 C250 1.390 . S
C259 H252 0.950 . S
C259 C256 1.387 1_565 S
C260 C261 1.387 . S
C260 H264 0.950 . S
C260 C269 1.390 . S
C261 C260 1.387 . S
C261 C263 1.387 . S
H262 C269 0.950 . S
C263 C261 1.387 . S
C263 C265 1.390 . S
C263 H267 0.950 . S
H264 C260 0.950 . S
C265 C263 1.390 . S
C265 C266 1.387 . S
C265 H268 0.950 . S
C266 C265 1.387 . S
C266 C269 1.387 . S
H267 C263 0.950 . S
H268 C265 0.950 . S
C269 C260 1.390 . S
C269 H262 0.950 . S
C269 C266 1.387 . S
C270 C271 1.387 . S
C270 H274 0.950 . S
C270 C279 1.390 . S
C271 C270 1.387 . S
C271 C273 1.387 . S
H272 C279 0.950 . S
C273 C271 1.387 . S
C273 C275 1.390 . S
C273 H277 0.950 . S
H274 C270 0.950 . S
C275 C273 1.390 . S
C275 C276 1.387 . S
C275 H278 0.950 . S
C276 C275 1.387 . S
C276 C279 1.387 . S
H277 C273 0.950 . S
H278 C275 0.950 . S
C279 C270 1.390 . S
C279 H272 0.950 . S
C279 C276 1.387 . S
C280 C281 1.387 . S
C280 H284 0.950 . S
C280 C289 1.390 . S
C281 C280 1.387 . S
C281 C283 1.387 . S
H282 C289 0.950 . S
C283 C281 1.387 . S
C283 C285 1.390 . S
C283 H287 0.950 . S
H284 C280 0.950 . S
C285 C283 1.390 . S
C285 C286 1.387 . S
C285 H288 0.950 . S
C286 C285 1.387 . S
C286 C289 1.387 . S
H287 C283 0.950 . S
H288 C285 0.950 . S
C289 C280 1.390 . S
C289 H282 0.950 . S
C289 C286 1.387 . S
C290 C291 1.387 . S
C290 H294 0.950 . S
C290 C299 1.390 . S
C291 C290 1.387 . S
C291 C293 1.387 1_565 S
H292 C299 0.950 . S
C293 C291 1.387 1_545 S
C293 C295 1.390 . S
C293 H297 0.950 . S
H294 C290 0.950 . S
C295 C293 1.390 . S
C295 C296 1.387 . S
C295 H298 0.950 . S
C296 C295 1.387 . S
C296 C299 1.387 1_545 S
H297 C293 0.950 . S
H298 C295 0.950 . S
C299 C290 1.390 . S
C299 H292 0.950 . S
C299 C296 1.387 1_565 S
C300 C301 1.387 . S
C300 H304 0.950 1_556 S
C300 C309 1.390 1_556 S
C301 C300 1.387 . S
C301 C303 1.387 . S
H302 C309 0.950 . S
C303 C301 1.387 . S
C303 C305 1.390 . S
C303 H307 0.950 . S
H304 C300 0.950 1_554 S
C305 C303 1.390 . S
C305 C306 1.387 . S
C305 H308 0.950 . S
C306 C305 1.387 . S
C306 C309 1.387 1_556 S
H307 C303 0.950 . S
H308 C305 0.950 . S
C309 C300 1.390 1_554 S
C309 H302 0.950 . S
C309 C306 1.387 1_554 S
C310 C311 1.387 . S
C310 H314 0.950 . S
C310 C319 1.390 . S
C311 C310 1.387 . S
C311 C313 1.387 . S
H312 C319 0.950 . S
C313 C311 1.387 . S
C313 C315 1.390 . S
C313 H317 0.950 . S
H314 C310 0.950 . S
C315 C313 1.390 . S
C315 C316 1.387 . S
C315 H318 0.950 . S
C316 C315 1.387 . S
C316 C319 1.387 . S
H317 C313 0.950 . S
H318 C315 0.950 . S
C319 C310 1.390 . S
C319 H312 0.950 . S
C319 C316 1.387 . S
C320 C321 1.387 . S
C320 H324 0.950 . S
C320 C329 1.390 . S
C321 C320 1.387 . S
C321 C323 1.387 . S
H322 C329 0.950 1_655 S
C323 C321 1.387 . S
C323 C325 1.390 . S
C323 H327 0.950 . S
H324 C320 0.950 . S
C325 C323 1.390 . S
C325 C326 1.387 . S
C325 H328 0.950 . S
C326 C325 1.387 . S
C326 C329 1.387 . S
H327 C323 0.950 . S
H328 C325 0.950 . S
C329 C320 1.390 . S
C329 H322 0.950 1_455 S
C329 C326 1.387 . S
C330 C331 1.387 . S
C330 H334 0.950 1_556 S
C330 C339 1.391 . S
C331 C330 1.387 . S
C331 C333 1.387 . S
H332 C339 0.938 1_554 S
C333 C331 1.387 . S
C333 C335 1.390 . S
C333 H337 0.950 . S
H334 C330 0.950 1_554 S
C335 C333 1.390 . S
C335 C336 1.387 . S
C335 H338 0.950 . S
C336 C335 1.387 . S
C336 C339 1.399 . S
H337 C333 0.950 . S
H338 C335 0.950 . S
C339 C330 1.391 . S
C339 H332 0.938 1_556 S
C339 C336 1.399 . S
C340 C341 1.387 . S
C340 H344 0.950 . S
C340 C349 1.390 . S
C341 C340 1.387 . S
C341 C343 1.387 . S
H342 C349 0.950 . S
C343 C341 1.387 . S
C343 C345 1.390 . S
C343 H347 0.950 . S
H344 C340 0.950 . S
C345 C343 1.390 . S
C345 C346 1.387 . S
C345 H348 0.950 . S
C346 C345 1.387 . S
C346 C349 1.387 . S
H347 C343 0.950 . S
H348 C345 0.950 . S
C349 C340 1.390 . S
C349 H342 0.950 . S
C349 C346 1.387 . S
C350 C351 1.387 . S
C350 H354 0.950 . S
C350 C359 1.390 . S
C351 C350 1.387 . S
C351 C353 1.387 . S
H352 C359 0.950 . S
C353 C351 1.387 . S
C353 C355 1.390 . S
C353 H357 0.950 . S
H354 C350 0.950 . S
C355 C353 1.390 . S
C355 C356 1.387 . S
C355 H358 0.950 . S
C356 C355 1.387 . S
C356 C359 1.387 . S
H357 C353 0.950 . S
H358 C355 0.950 . S
C359 C350 1.390 . S
C359 H352 0.950 . S
C359 C356 1.387 . S
C360 C361 1.387 . S
C360 H364 0.950 . S
C360 C369 1.390 . S
C361 C360 1.387 . S
C361 C363 1.387 1_565 S
H362 C369 0.950 . S
C363 C361 1.387 1_545 S
C363 C365 1.390 1_655 S
C363 H367 0.950 1_655 S
H364 C360 0.950 . S
C365 C363 1.390 1_455 S
C365 C366 1.387 1_455 S
C365 H368 0.950 . S
C366 C365 1.387 1_655 S
C366 C369 1.387 1_545 S
H367 C363 0.950 1_455 S
H368 C365 0.950 . S
C369 C360 1.390 . S
C369 H362 0.950 . S
C369 C366 1.387 1_565 S
C370 C371 1.387 . S
C370 H374 0.950 . S
C370 C379 1.390 . S
C371 C370 1.387 . S
C371 C373 1.387 . S
H372 C379 0.950 . S
C373 C371 1.387 . S
C373 C375 1.390 . S
C373 H377 0.950 . S
H374 C370 0.950 . S
C375 C373 1.390 . S
C375 C376 1.387 . S
C375 H378 0.950 . S
C376 C375 1.387 . S
C376 C379 1.387 . S
H377 C373 0.950 . S
H378 C375 0.950 . S
C379 C370 1.390 . S
C379 H372 0.950 . S
C379 C376 1.387 . S
C380 C381 1.387 . S
C380 H384 0.950 . S
C380 C389 1.390 . S
C381 C380 1.387 . S
C381 C383 1.387 . S
H382 C389 0.950 . S
C383 C381 1.387 . S
C383 C385 1.390 . S
C383 H387 0.950 . S
H384 C380 0.950 . S
C385 C383 1.390 . S
C385 C386 1.387 . S
C385 H388 0.950 . S
C386 C385 1.387 . S
C386 C389 1.387 . S
H387 C383 0.950 . S
H388 C385 0.950 . S
C389 C380 1.390 . S
C389 H382 0.950 . S
C389 C386 1.387 . S
C390 C391 1.387 . S
C390 H394 0.950 . S
C390 C399 1.390 . S
C391 C390 1.387 . S
C391 C393 1.387 . S
H392 C399 0.950 . S
C393 C391 1.387 . S
C393 C395 1.390 . S
C393 H397 0.950 . S
H394 C390 0.950 . S
C395 C393 1.390 . S
C395 C396 1.387 . S
C395 H398 0.950 . S
C396 C395 1.387 . S
C396 C399 1.387 . S
H397 C393 0.950 . S
H398 C395 0.950 . S
C399 C390 1.390 . S
C399 H392 0.950 . S
C399 C396 1.387 . S
C400 C401 1.387 1_565 S
C400 H404 0.950 . S
C400 C409 1.390 . S
C401 C400 1.387 1_545 S
C401 C403 1.387 . S
H402 C409 0.950 . S
C403 C401 1.387 . S
C403 C405 1.390 . S
C403 H407 0.950 . S
H404 C400 0.950 . S
C405 C403 1.390 . S
C405 C406 1.387 . S
C405 H408 0.950 . S
C406 C405 1.387 . S
C406 C409 1.387 1_545 S
H407 C403 0.950 . S
H408 C405 0.950 . S
C409 C400 1.390 . S
C409 H402 0.950 . S
C409 C406 1.387 1_565 S
C410 C411 1.387 . S
C410 H414 0.950 . S
C410 C419 1.390 . S
C411 C410 1.387 . S
C411 C413 1.387 . S
H412 C419 0.950 . S
C413 C411 1.387 . S
C413 C415 1.390 . S
C413 H417 0.950 . S
H414 C410 0.950 . S
C415 C413 1.390 . S
C415 C416 1.387 . S
C415 H418 0.950 . S
C416 C415 1.387 . S
C416 C419 1.387 . S
H417 C413 0.950 . S
H418 C415 0.950 . S
C419 C410 1.390 . S
C419 H412 0.950 . S
C419 C416 1.387 . S
C420 C421 1.387 1_556 S
C420 H424 0.950 . S
C420 C429 1.390 . S
C421 C420 1.387 1_554 S
C421 C423 1.387 . S
H422 C429 0.950 . S
C423 C421 1.387 . S
C423 C425 1.390 . S
C423 H427 0.950 . S
H424 C420 0.950 . S
C425 C423 1.390 . S
C425 C426 1.387 . S
C425 H428 0.950 . S
C426 C425 1.387 . S
C426 C429 1.387 1_554 S
H427 C423 0.950 . S
H428 C425 0.950 . S
C429 C420 1.390 . S
C429 H422 0.950 . S
C429 C426 1.387 1_556 S
C430 C431 1.387 . S
C430 H434 0.950 . S
C430 C439 1.390 . S
C431 C430 1.387 . S
C431 C433 1.387 . S
H432 C439 0.950 . S
C433 C431 1.387 . S
C433 C435 1.390 . S
C433 H437 0.950 . S
H434 C430 0.950 . S
C435 C433 1.390 . S
C435 C436 1.387 . S
C435 H438 0.950 . S
C436 C435 1.387 . S
C436 C439 1.387 . S
H437 C433 0.950 . S
H438 C435 0.950 . S
C439 C430 1.390 . S
C439 H432 0.950 . S
C439 C436 1.387 . S
C440 C441 1.387 . S
C440 H444 0.950 1_655 S
C440 C449 1.390 . S
C441 C440 1.387 . S
C441 C443 1.387 . S
H442 C449 0.950 1_455 S
C443 C441 1.387 . S
C443 C445 1.390 . S
C443 H447 0.950 . S
H444 C440 0.950 1_455 S
C445 C443 1.390 . S
C445 C446 1.387 . S
C445 H448 0.950 . S
C446 C445 1.387 . S
C446 C449 1.387 . S
H447 C443 0.950 . S
H448 C445 0.950 . S
C449 C440 1.390 . S
C449 H442 0.950 1_655 S
C449 C446 1.387 . S
C450 C451 1.387 . S
C450 H454 0.950 . S
C450 C459 1.390 . S
C451 C450 1.387 . S
C451 C453 1.387 . S
H452 C459 0.950 . S
C453 C451 1.387 . S
C453 C455 1.390 . S
C453 H457 0.950 . S
H454 C450 0.950 . S
C455 C453 1.390 . S
C455 C456 1.387 . S
C455 H458 0.950 . S
C456 C455 1.387 . S
C456 C459 1.387 . S
H457 C453 0.950 . S
H458 C455 0.950 . S
C459 C450 1.390 . S
C459 H452 0.950 . S
C459 C456 1.387 . S
C460 C461 1.387 . S
C460 H464 0.950 . S
C460 C469 1.390 . S
C461 C460 1.387 . S
C461 C463 1.387 . S
H462 C469 0.950 . S
C463 C461 1.387 . S
C463 C465 1.390 . S
C463 H467 0.950 . S
H464 C460 0.950 . S
C465 C463 1.390 . S
C465 C466 1.387 . S
C465 H468 0.950 . S
C466 C465 1.387 . S
C466 C469 1.387 . S
H467 C463 0.950 . S
H468 C465 0.950 . S
C469 C460 1.390 . S
C469 H462 0.950 . S
C469 C466 1.387 . S
C470 C471 1.387 . S
C470 H474 0.950 . S
C470 C479 1.390 . S
C471 C470 1.387 . S
C471 C473 1.387 . S
H472 C479 0.950 . S
C473 C471 1.387 . S
C473 C475 1.390 . S
C473 H477 0.950 . S
H474 C470 0.950 . S
C475 C473 1.390 . S
C475 C476 1.387 . S
C475 H478 0.950 . S
C476 C475 1.387 . S
C476 C479 1.387 . S
H477 C473 0.950 . S
H478 C475 0.950 . S
C479 C470 1.390 . S
C479 H472 0.950 . S
C479 C476 1.387 . S
C241 N1 2.176 . S
C246 C104 2.219 . S
C251 N18 2.526 1_545 S
C256 C146 2.573 . S
C266 C176 0.814 . S
C261 N28 0.813 . S
C271 N40 1.175 . S
C276 C210 1.169 . S
C286 C167 2.114 . S
C281 N5 2.063 . S
C296 C121 1.907 . S
C291 N14 1.813 . S
C306 C214 1.288 . S
C301 N31 1.236 . S
C316 C180 0.965 . S
C311 N41 0.948 . S
C321 N2 2.081 . S
C326 C235 2.098 . S
C336 C142 1.199 . S
C331 N27 1.150 . S
C341 N44 1.307 . S
C346 C117 1.294 . S
C351 N15 2.000 . S
C356 C201 2.004 . S
C366 C133 2.550 1_655 S
C361 N57 2.506 . S
C371 N70 2.073 . S
C376 C155 2.114 . S
C381 N79 1.000 . S
C386 C185 1.012 . S
C391 N93 0.908 . S
C396 C219 0.917 . S
C401 N54 1.753 1_545 S
C406 C138 1.766 1_556 S
C416 C112 2.160 . S
C411 N66 2.102 . S
C426 C223 0.788 . S
C421 N80 0.780 . S
C436 C189 1.384 . S
C431 N96 1.332 . S
C441 N53 2.091 . S
C446 C206 2.164 . S
C456 C151 1.267 . S
C451 N83 1.298 . S
C466 C108 1.252 . S
C461 N92 1.173 . S
C471 N67 2.064 . S
C476 C172 2.081 . S
