# Generated by pormake.
# Topology anh, (6,3)-cn, num edge types: 1
# Building blocks:
#     Node 0, Type 0, BuildingBlock: VOLQOD_clean_sbu_1, # of connection points: 6
#     Node 1, Type 0, BuildingBlock: VOLQOD_clean_sbu_1, # of connection points: 6
#     Node 2, Type 0, BuildingBlock: VOLQOD_clean_sbu_1, # of connection points: 6
#     Node 3, Type 1, BuildingBlock: KAKCAD_clean_linker_0, # of connection points: 3
#     Node 4, Type 1, BuildingBlock: KAKCAD_clean_linker_0, # of connection points: 3
#     Node 5, Type 1, BuildingBlock: KAKCAD_clean_linker_0, # of connection points: 3
#     Node 6, Type 1, BuildingBlock: KAKCAD_clean_linker_0, # of connection points: 3
#     Node 7, Type 1, BuildingBlock: KAKCAD_clean_linker_0, # of connection points: 3
#     Node 8, Type 1, BuildingBlock: KAKCAD_clean_linker_0, # of connection points: 3
#     Edge 9, Type (0, 1), BuildingBlock: XIVTED_clean_linker_0, # of connection points: 2
#     Edge 10, Type (0, 1), BuildingBlock: XIVTED_clean_linker_0, # of connection points: 2
#     Edge 11, Type (0, 1), BuildingBlock: XIVTED_clean_linker_0, # of connection points: 2
#     Edge 12, Type (0, 1), BuildingBlock: XIVTED_clean_linker_0, # of connection points: 2
#     Edge 13, Type (0, 1), BuildingBlock: XIVTED_clean_linker_0, # of connection points: 2
#     Edge 14, Type (0, 1), BuildingBlock: XIVTED_clean_linker_0, # of connection points: 2
#     Edge 15, Type (0, 1), BuildingBlock: XIVTED_clean_linker_0, # of connection points: 2
#     Edge 16, Type (0, 1), BuildingBlock: XIVTED_clean_linker_0, # of connection points: 2
#     Edge 17, Type (0, 1), BuildingBlock: XIVTED_clean_linker_0, # of connection points: 2
#     Edge 18, Type (0, 1), BuildingBlock: XIVTED_clean_linker_0, # of connection points: 2
#     Edge 19, Type (0, 1), BuildingBlock: XIVTED_clean_linker_0, # of connection points: 2
#     Edge 20, Type (0, 1), BuildingBlock: XIVTED_clean_linker_0, # of connection points: 2
#     Edge 21, Type (0, 1), BuildingBlock: XIVTED_clean_linker_0, # of connection points: 2
#     Edge 22, Type (0, 1), BuildingBlock: XIVTED_clean_linker_0, # of connection points: 2
#     Edge 23, Type (0, 1), BuildingBlock: XIVTED_clean_linker_0, # of connection points: 2
#     Edge 24, Type (0, 1), BuildingBlock: XIVTED_clean_linker_0, # of connection points: 2
#     Edge 25, Type (0, 1), BuildingBlock: XIVTED_clean_linker_0, # of connection points: 2
#     Edge 26, Type (0, 1), BuildingBlock: XIVTED_clean_linker_0, # of connection points: 2
# Relax obj value: 0.167
# Max RMSD: 0.230
# Mean RMSD: 0.114
data_MOF--net-anh--node1-VOLQOD_clean_sbu_1--node2-KAKCAD_clean_linker_0--edge1-XIVTED_clean_linker_0
_symmetry_space_group_name_H-M    P1
_symmetry_Int_Tables_number       1
_symmetry_cell_setting            triclinic
loop_
_symmetry_equiv_pos_as_xyz
'x, y, z'
_cell_length_a     34.830618
_cell_length_b     34.760966
_cell_length_c     74.882542
_cell_angle_alpha  90.161149
_cell_angle_beta   89.904286
_cell_angle_gamma 120.16627
loop_
_atom_site_label
_atom_site_type_symbol
_atom_site_fract_x
_atom_site_fract_y
_atom_site_fract_z
_atom_type_partial_charge
O0 O 0.97444 0.51911 0.19955 0.0
Zn1 Zn 0.99106 0.54007 0.17413 0.0
O2 O 0.00854 0.50239 0.16109 0.0
Zn3 Zn 0.96877 0.47405 0.14123 0.0
Zn4 Zn 0.00556 0.4562 0.17675 0.0
Zn5 Zn 0.06815 0.53831 0.15158 0.0
O6 O 0.00147 0.47967 0.11855 0.0
O7 O 0.07034 0.53266 0.12475 0.0
O8 O 0.93985 0.54121 0.16195 0.0
O9 O 0.93159 0.50194 0.13732 0.0
O10 O 0.92665 0.40957 0.14606 0.0
O11 O 0.95471 0.39569 0.17011 0.0
O12 O 0.06294 0.45532 0.17666 0.0
O13 O 0.04226 0.60329 0.17532 0.0
O14 O 0.10751 0.51738 0.1618 0.0
O15 O 0.09402 0.60248 0.15821 0.0
C16 C 0.97912 0.49105 0.20883 0.0
C17 C 0.04134 0.50586 0.11373 0.0
C18 C 0.9255 0.38273 0.15785 0.0
C19 C 0.92168 0.5261 0.14683 0.0
C20 C 0.10123 0.48368 0.17081 0.0
C21 C 0.0805 0.62322 0.16803 0.0
O22 O -0.00698 0.46682 0.20188 0.0
O23 O 0.46737 0.02281 0.46144 0.0
Zn24 Zn 0.44574 0.00947 0.48677 0.0
O25 O 0.48379 0.99516 0.50116 0.0
Zn26 Zn 0.50853 0.03739 0.52062 0.0
Zn27 Zn 0.532 -0.00033 0.48636 0.0
Zn28 Zn 0.44995 0.93529 0.51114 0.0
O29 O 0.49553 0.00743 0.54424 0.0
O30 O 0.44885 0.93623 0.53821 0.0
O31 O 0.4416 0.06158 0.49665 0.0
O32 O 0.48095 0.07548 0.52154 0.0
O33 O 0.574 0.07879 0.51767 0.0
O34 O 0.58994 0.05329 0.49325 0.0
O35 O 0.53815 0.94549 0.48891 0.0
O36 O 0.38406 0.95666 0.48587 0.0
O37 O 0.47749 0.89859 0.50404 0.0
O38 O 0.38694 0.90512 0.50239 0.0
C39 C 0.49663 0.01884 0.45273 0.0
C40 C 0.46992 0.96767 0.54938 0.0
C41 C 0.60171 0.08138 0.50595 0.0
C42 C 0.45641 0.08283 0.51124 0.0
C43 C 0.51305 0.90745 0.49582 0.0
C44 C 0.36554 0.91777 0.49257 0.0
O45 O 0.52218 0.0077 0.46042 0.0
O46 O 0.51371 0.50591 0.78788 0.0
Zn47 Zn 0.48299 0.48648 0.81168 0.0
O48 O 0.52347 0.5235 0.83061 0.0
Zn49 Zn 0.49615 0.54938 0.84511 0.0
Zn50 Zn 0.57847 0.57165 0.82045 0.0
Zn51 Zn 0.53605 0.48643 0.84585 0.0
O52 O 0.48163 0.52444 0.87006 0.0
O53 O 0.50738 0.47769 0.86984 0.0
O54 O 0.42754 0.49133 0.81079 0.0
O55 O 0.44024 0.53809 0.83335 0.0
O56 O 0.53325 0.61548 0.84628 0.0
O57 O 0.58379 0.63134 0.82519 0.0
O58 O 0.63181 0.57292 0.83154 0.0
O59 O 0.46589 0.42226 0.81455 0.0
O60 O 0.6013 0.51487 0.8499 0.0
O61 O 0.51276 0.42566 0.83542 0.0
C62 C 0.55172 0.53678 0.78277 0.0
C63 C 0.48764 0.49528 0.87775 0.0
C64 C 0.56496 0.64365 0.83662 0.0
C65 C 0.41674 0.51488 0.82026 0.0
C66 C 0.63527 0.54853 0.84335 0.0
C67 C 0.48284 0.40387 0.82382 0.0
O68 O 0.58006 0.56438 0.7938 0.0
C69 C 0.47079 0.05219 0.31139 0.0
C70 C 0.50853 0.05547 0.31968 0.0
C71 C 0.46722 0.05094 0.2928 0.0
C72 C 0.50114 0.05261 0.28205 0.0
C73 C 0.5394 0.05711 0.29033 0.0
C74 C 0.54312 0.05867 0.30891 0.0
C75 C 0.49575 0.04728 0.26236 0.0
C76 C 0.53199 0.07196 0.25095 0.0
C77 C 0.52783 0.06427 0.23248 0.0
C78 C 0.487 0.0322 0.22529 0.0
C79 C 0.44995 0.00811 0.2364 0.0
C80 C 0.4547 0.01585 0.25493 0.0
C81 C 0.40664 0.97417 0.22873 0.0
C82 C 0.39172 0.98176 0.21238 0.0
C83 C 0.38014 0.93359 0.2376 0.0
C84 C 0.33991 0.90129 0.23024 0.0
C85 C 0.32546 0.9086 0.21377 0.0
C86 C 0.56648 0.08959 0.22073 0.0
C87 C 0.58797 0.13617 0.22041 0.0
C88 C 0.58258 0.06745 0.21007 0.0
C89 C 0.62037 0.09175 0.1995 0.0
C90 C 0.6418 0.13838 0.19916 0.0
C91 C 0.62509 0.16037 0.20957 0.0
C92 C 0.35165 0.94918 0.20493 0.0
H93 H 0.44331 0.04923 0.31925 0.0
H94 H 0.43758 0.04811 0.28686 0.0
H95 H 0.56601 0.05807 0.28247 0.0
H96 H 0.57296 0.06193 0.31483 0.0
H97 H 0.56373 0.09678 0.25642 0.0
H98 H 0.42651 -0.00314 0.26362 0.0
H99 H 0.48428 0.026 0.21102 0.0
H100 H 0.41095 0.01293 0.20535 0.0
H101 H 0.39095 0.92623 0.25003 0.0
H102 H 0.32076 0.86995 0.23719 0.0
H103 H 0.57596 0.15379 0.22853 0.0
H104 H 0.56646 0.03148 0.21022 0.0
H105 H 0.34108 0.95574 0.19226 0.0
H106 H 0.64142 0.19637 0.20964 0.0
H107 H 0.6328 0.07421 0.19158 0.0
C108 C 0.59916 0.59362 0.64199 0.0
C109 C 0.61079 0.56585 0.65123 0.0
C110 C 0.59616 0.59191 0.62336 0.0
C111 C 0.60508 0.56262 0.61361 0.0
C112 C 0.61927 0.53681 0.62285 0.0
C113 C 0.62185 0.53823 0.64147 0.0
C114 C 0.59577 0.55611 0.59413 0.0
C115 C 0.60498 0.59213 0.58297 0.0
C116 C 0.59162 0.58532 0.56494 0.0
C117 C 0.57074 0.54178 0.55797 0.0
C118 C 0.56266 0.50555 0.56879 0.0
C119 C 0.57462 0.51304 0.58689 0.0
C120 C 0.54116 0.45962 0.56144 0.0
C121 C 0.50577 0.44418 0.5492 0.0
C122 C 0.55573 0.43049 0.56697 0.0
C123 C 0.53481 0.38676 0.56083 0.0
C124 C 0.4991 0.37115 0.54884 0.0
C125 C 0.59666 0.62306 0.55379 0.0
C126 C 0.59201 0.65742 0.56157 0.0
C127 C 0.6033 0.62383 0.53517 0.0
C128 C 0.60308 0.65681 0.52459 0.0
C129 C 0.59762 0.69032 0.53249 0.0
C130 C 0.593 0.69091 0.55106 0.0
C131 C 0.48509 0.40034 0.54285 0.0
H132 H 0.59007 0.61494 0.64919 0.0
H133 H 0.58466 0.61188 0.61671 0.0
H134 H 0.6273 0.51461 0.61572 0.0
H135 H 0.63155 0.51696 0.64827 0.0
H136 H 0.62231 0.62551 0.58844 0.0
H137 H 0.56593 0.48488 0.59554 0.0
H138 H 0.56013 0.53581 0.54417 0.0
H139 H 0.49342 0.46562 0.54481 0.0
H140 H 0.58355 0.44152 0.57603 0.0
H141 H 0.54691 0.36518 0.56534 0.0
H142 H 0.58575 0.65768 0.57572 0.0
H143 H 0.60801 0.59863 0.52869 0.0
H144 H 0.4576 0.38899 0.5336 0.0
H145 H 0.58805 0.71621 0.55735 0.0
H146 H 0.6067 0.65593 0.51025 0.0
C147 C 0.11401 0.54424 0.97167 0.0
C148 C 0.07609 0.51751 0.98204 0.0
C149 C 0.1099 0.55088 0.95351 0.0
C150 C 0.06778 0.53125 0.94547 0.0
C151 C 0.03005 0.50385 0.95576 0.0
C152 C 0.03415 0.49707 0.97382 0.0
C153 C 0.06261 0.54005 0.92654 0.0
C154 C 0.08985 0.53792 0.9132 0.0
C155 C 0.08314 0.54407 0.89519 0.0
C156 C 0.04962 0.55328 0.89057 0.0
C157 C 0.02273 0.55631 0.90379 0.0
C158 C 0.02936 0.54961 0.92171 0.0
C159 C 0.98681 0.56509 0.89883 0.0
C160 C -0.00555 0.59858 0.88649 0.0
C161 C 0.94428 0.53924 0.90618 0.0
C162 C 0.90982 0.54626 0.90112 0.0
C163 C 0.91721 0.57949 0.88866 0.0
C164 C 0.11091 0.54055 0.88112 0.0
C165 C 0.15728 0.56511 0.88253 0.0
C166 C 0.09127 0.51278 0.86623 0.0
C167 C 0.11775 0.50913 0.85305 0.0
C168 C 0.16418 0.5339 0.85445 0.0
C169 C 0.18368 0.56203 0.86926 0.0
C170 C 0.95997 0.6058 0.88148 0.0
H171 H 0.14678 0.56019 0.97762 0.0
H172 H 0.13952 0.57228 0.94588 0.0
H173 H -0.00279 0.48783 0.94986 0.0
H174 H 0.00421 0.47678 0.98146 0.0
H175 H 0.11524 0.52997 0.91675 0.0
H176 H 0.00888 0.55236 0.93198 0.0
H177 H 0.04432 0.55782 0.87666 0.0
H178 H 0.02714 0.6193 0.88078 0.0
H179 H 0.93733 0.51275 0.91552 0.0
H180 H 0.87707 0.52472 0.90661 0.0
H181 H 0.17308 0.58688 0.89386 0.0
H182 H 0.05547 0.49336 0.86495 0.0
H183 H 0.96682 0.63197 0.872 0.0
H184 H 0.21944 0.58093 0.87078 0.0
H185 H 0.10205 0.48711 0.84179 0.0
C186 C 0.89893 0.47537 0.35053 0.0
C187 C 0.93863 0.4896 0.34102 0.0
C188 C 0.8997 0.4801 0.36912 0.0
C189 C 0.94025 0.49987 0.37838 0.0
C190 C 0.97987 0.51432 0.36881 0.0
C191 C 0.97905 0.50907 0.35035 0.0
C192 C 0.94187 0.50524 0.398 0.0
C193 C 0.91498 0.46904 0.40908 0.0
C194 C 0.92032 0.47307 0.42768 0.0
C195 C 0.95203 0.51373 0.4352 0.0
C196 C 0.97817 0.55068 0.42433 0.0
C197 C 0.97271 0.54608 0.40572 0.0
C198 C 0.0123 0.59343 0.43234 0.0
C199 C 0.00427 0.60855 0.4486 0.0
C200 C 0.05375 0.61894 0.42396 0.0
C201 C 0.08645 0.65836 0.43172 0.0
C202 C 0.07867 0.67286 0.44812 0.0
C203 C 0.89358 0.43453 0.43933 0.0
C204 C 0.8471 0.41213 0.43841 0.0
C205 C 0.91441 0.42045 0.45162 0.0
C206 C 0.88902 0.38424 0.46279 0.0
C207 C 0.84251 0.3623 0.46207 0.0
C208 C 0.82174 0.37652 0.44981 0.0
C209 C 0.03729 0.64774 0.45649 0.0
H210 H 0.86734 0.46011 0.34362 0.0
H211 H 0.86875 0.46878 0.37623 0.0
H212 H 0.01153 0.52927 0.37567 0.0
H213 H 0.01016 0.5207 0.34331 0.0
H214 H 0.89138 0.43722 0.40323 0.0
H215 H -0.00749 0.57432 0.39712 0.0
H216 H 0.95653 0.51631 0.44956 0.0
H217 H 0.97247 0.59011 0.45526 0.0
H218 H 0.06148 0.6079 0.41164 0.0
H219 H 0.11841 0.67678 0.42515 0.0
H220 H 0.83046 0.4226 0.42906 0.0
H221 H 0.95029 0.43725 0.45245 0.0
H222 H 0.03051 0.65847 0.46911 0.0
H223 H 0.78586 0.35969 0.44891 0.0
H224 H 0.90563 0.37371 0.47213 0.0
C225 C 0.409 0.90208 0.69212 0.0
C226 C 0.43052 0.94077 0.68163 0.0
C227 C 0.4097 0.90522 0.7108 0.0
C228 C 0.43174 0.94708 0.71919 0.0
C229 C 0.45423 0.98548 0.70868 0.0
C230 C 0.45374 0.98237 0.69016 0.0
C231 C 0.43184 0.95159 0.73885 0.0
C232 C 0.44351 0.92665 0.74997 0.0
C233 C 0.44959 0.93568 0.76837 0.0
C234 C 0.44232 0.96863 0.77572 0.0
C235 C 0.43007 0.99326 0.76477 0.0
C236 C 0.42458 0.98439 0.74641 0.0
C237 C 0.428 0.03157 0.77213 0.0
C238 C 0.4026 0.02708 0.7874 0.0
C239 C 0.45333 0.07355 0.76421 0.0
C240 C 0.45405 0.11066 0.77163 0.0
C241 C 0.42902 0.10637 0.78696 0.0
C242 C 0.46767 0.91375 0.77962 0.0
C243 C 0.44758 0.86727 0.77978 0.0
C244 C 0.50619 0.93951 0.78981 0.0
C245 C 0.52478 0.91907 0.79978 0.0
C246 C 0.50467 0.87257 0.79995 0.0
C247 C 0.46572 0.84681 0.78999 0.0
C248 C 0.40272 0.06425 0.79467 0.0
H249 H 0.39084 0.86957 0.68592 0.0
H250 H 0.39224 0.87512 0.71865 0.0
H251 H 0.47252 0.01811 0.71481 0.0
H252 H 0.47182 0.01274 0.68251 0.0
H253 H 0.4507 0.90235 0.74416 0.0
H254 H 0.41567 0.0039 0.73791 0.0
H255 H 0.44797 0.97634 0.78985 0.0
H256 H 0.38283 0.99493 0.79368 0.0
H257 H 0.47352 0.07786 0.75253 0.0
H258 H 0.47434 0.14285 0.76542 0.0
H259 H 0.4179 0.84685 0.772 0.0
H260 H 0.52247 0.9755 0.78972 0.0
H261 H 0.38328 0.06037 0.80654 0.0
H262 H 0.44993 0.81085 0.78977 0.0
H263 H 0.55481 0.93953 0.80735 0.0
C264 C 0.45555 0.41209 0.01538 0.0
C265 C 0.43289 0.43238 0.00811 0.0
C266 C 0.45984 0.4102 0.03383 0.0
C267 C 0.4419 0.42886 0.04548 0.0
C268 C 0.41791 0.44776 0.03826 0.0
C269 C 0.41333 0.44935 0.01979 0.0
C270 C 0.45057 0.4311 0.06499 0.0
C271 C 0.49291 0.44206 0.07124 0.0
C272 C 0.50266 0.44751 0.08958 0.0
C273 C 0.46942 0.44126 0.10176 0.0
C274 C 0.42725 0.43091 0.09574 0.0
C275 C 0.41785 0.42548 0.07738 0.0
C276 C 0.39491 0.43094 0.10847 0.0
C277 C 0.38403 0.40617 0.12435 0.0
C278 C 0.37715 0.4586 0.10524 0.0
C279 C 0.34982 0.46233 0.11786 0.0
C280 C 0.33928 0.43804 0.13382 0.0
C281 C 0.54836 0.46259 0.09585 0.0
C282 C 0.57263 0.44396 0.08868 0.0
C283 C 0.56844 0.4966 0.10869 0.0
C284 C 0.61202 0.5118 0.1142 0.0
C285 C 0.6364 0.49334 0.10694 0.0
C286 C 0.61617 0.45913 0.09418 0.0
C287 C 0.35587 0.40929 0.13689 0.0
H288 H 0.47147 0.39908 0.00682 0.0
H289 H 0.47798 0.39484 0.03897 0.0
H290 H 0.40398 0.46281 0.04683 0.0
H291 H 0.39509 0.46461 0.01467 0.0
H292 H 0.51908 0.44865 0.06178 0.0
H293 H 0.38513 0.4174 0.07279 0.0
H294 H 0.47684 0.44609 0.11592 0.0
H295 H 0.3975 0.38467 0.12708 0.0
H296 H 0.38549 0.4784 0.09319 0.0
H297 H 0.33687 0.48429 0.11514 0.0
H298 H 0.55781 0.41737 0.07891 0.0
H299 H 0.55076 0.51212 0.11423 0.0
H300 H 0.34787 0.39015 0.14911 0.0
H301 H 0.63379 0.4436 0.08861 0.0
H302 H 0.62688 0.53851 0.12391 0.0
H303 H 0.0989 0.40467 0.17676 0.0
H304 H 0.35259 0.51457 0.14909 0.0
H305 H 0.18923 0.54539 0.16996 0.0
H306 H 0.26081 0.37327 0.14791 0.0
H307 H 0.29795 0.52518 0.16545 0.0
H308 H 0.16191 0.39194 0.17463 0.0
C309 C 0.13207 0.43295 0.17522 0.0
C310 C 0.13886 0.47603 0.17311 0.0
C311 C 0.2899 0.49171 0.16192 0.0
C312 C 0.21068 0.46178 0.17069 0.0
C313 C 0.32109 0.48572 0.15262 0.0
C314 C 0.31061 0.44314 0.14694 0.0
C315 C 0.24764 0.45491 0.16524 0.0
C316 C 0.26977 0.40666 0.15199 0.0
C317 C 0.16795 0.42566 0.17397 0.0
C318 C 0.18244 0.51152 0.17124 0.0
N319 N 0.23923 0.41345 0.16056 0.0
N320 N 0.2166 0.50353 0.16985 0.0
H321 H 0.63443 0.15597 0.527 0.0
H322 H 0.77517 0.35053 0.484 0.0
H323 H 0.6712 0.09816 0.48384 0.0
H324 H 0.8476 0.28701 0.46622 0.0
H325 H 0.72395 0.28297 0.50014 0.0
H326 H 0.70149 0.2273 0.52146 0.0
C327 C 0.65688 0.15803 0.51653 0.0
C328 C 0.64649 0.12131 0.50551 0.0
C329 C 0.7518 0.28411 0.49321 0.0
C330 C 0.72254 0.20303 0.49885 0.0
C331 C 0.78065 0.32248 0.48383 0.0
C332 C 0.81528 0.32398 0.47375 0.0
C333 C 0.75733 0.2468 0.49228 0.0
C334 C 0.82123 0.28698 0.47391 0.0
C335 C 0.69491 0.19892 0.51327 0.0
C336 C 0.67732 0.12584 0.49238 0.0
N337 N 0.79188 0.24942 0.48273 0.0
N338 N 0.7137 0.1662 0.48925 0.0
H339 H 0.62041 0.71196 0.81436 0.0
H340 H 0.59087 0.89134 0.79889 0.0
H341 H 0.52934 0.68085 0.85842 0.0
H342 H 0.46431 0.8041 0.8235 0.0
H343 H 0.62083 0.84759 0.81234 0.0
H344 H 0.61789 0.7798 0.80911 0.0
C345 C 0.60102 0.72007 0.8233 0.0
C346 C 0.57414 0.69005 0.83655 0.0
C347 C 0.5866 0.83818 0.81485 0.0
C348 C 0.57119 0.76773 0.83067 0.0
C349 C 0.56965 0.86332 0.80733 0.0
C350 C 0.52489 0.8506 0.80986 0.0
C351 C 0.55844 0.80034 0.82496 0.0
C352 C 0.49874 0.81431 0.82096 0.0
C353 C 0.59974 0.75905 0.82034 0.0
C354 C 0.54987 0.70248 0.84779 0.0
N355 N 0.51585 0.79026 0.82801 0.0
N356 N 0.54805 0.73978 0.84428 0.0
H357 H 0.89407 0.52208 0.11257 0.0
H358 H 0.67047 0.51379 0.1409 0.0
H359 H 0.86836 0.54745 0.16647 0.0
H360 H 0.70751 0.50888 0.08626 0.0
H361 H 0.74522 0.5332 0.1504 0.0
H362 H 0.82892 0.52438 0.10247 0.0
C363 C 0.87488 0.52858 0.12227 0.0
C364 C 0.88622 0.53395 0.14043 0.0
C365 C 0.73712 0.52836 0.13631 0.0
C366 C 0.81113 0.53609 0.12898 0.0
C367 C 0.6945 0.51741 0.13088 0.0
C368 C 0.68256 0.50905 0.11278 0.0
C369 C 0.76786 0.53074 0.12357 0.0
C370 C 0.71495 0.51395 0.10039 0.0
C371 C 0.83769 0.52998 0.11649 0.0
C372 C 0.86059 0.54291 0.15236 0.0
N373 N 0.75595 0.52404 0.10604 0.0
N374 N 0.82372 0.543 0.14647 0.0
H375 H 0.31407 0.92606 0.46703 0.0
H376 H 0.10755 0.68172 0.48254 0.0
H377 H 0.31038 0.8369 0.50795 0.0
H378 H 0.13203 0.75444 0.43327 0.0
H379 H 0.1735 0.74541 0.49551 0.0
H380 H 0.23901 0.86999 0.45805 0.0
C381 C 0.29734 0.8949 0.47426 0.0
C382 C 0.31876 0.88591 0.48812 0.0
C383 C 0.1641 0.74755 0.48193 0.0
C384 C 0.23293 0.82183 0.47793 0.0
C385 C 0.12641 0.71144 0.47458 0.0
C386 C 0.11476 0.71289 0.45679 0.0
C387 C 0.18993 0.78535 0.47142 0.0
C388 C 0.14037 0.75193 0.44697 0.0
C389 C 0.25456 0.86292 0.46909 0.0
C390 C 0.29536 0.84502 0.49705 0.0
N391 N 0.17696 0.78661 0.45439 0.0
N392 N 0.25373 0.81435 0.49173 0.0
H393 H 0.40948 0.34136 0.80564 0.0
H394 H 0.36089 0.12107 0.79524 0.0
H395 H 0.52457 0.35917 0.83452 0.0
H396 H 0.50346 0.18206 0.79697 0.0
H397 H 0.36766 0.19081 0.80642 0.0
H398 H 0.39022 0.2649 0.79875 0.0
C399 C 0.43039 0.32903 0.8107 0.0
C400 C 0.46878 0.35671 0.82061 0.0
C401 C 0.39739 0.18889 0.80427 0.0
C402 C 0.44672 0.26937 0.81295 0.0
C403 C 0.39351 0.14912 0.7981 0.0
C404 C 0.43175 0.14636 0.79502 0.0
C405 C 0.4398 0.22562 0.8075 0.0
C406 C 0.4733 0.1833 0.79895 0.0
C407 C 0.4191 0.28525 0.80693 0.0
C408 C 0.49466 0.33902 0.82685 0.0
N409 N 0.47623 0.22145 0.80502 0.0
N410 N 0.4835 0.29666 0.82268 0.0
H411 H 0.46082 0.81709 0.49791 0.0
H412 H 0.64967 0.78057 0.53258 0.0
H413 H 0.59761 0.92195 0.49381 0.0
H414 H 0.5327 0.67274 0.5084 0.0
H415 H 0.63218 0.83369 0.5186 0.0
H416 H 0.4858 0.76324 0.5019 0.0
C417 C 0.49608 0.82864 0.49762 0.0
C418 C 0.52724 0.874 0.49569 0.0
C419 C 0.61092 0.79847 0.51601 0.0
C420 C 0.55592 0.81291 0.50052 0.0
C421 C 0.62088 0.76832 0.52397 0.0
C422 C 0.59253 0.72254 0.52153 0.0
C423 C 0.57166 0.78246 0.50605 0.0
C424 C 0.55538 0.70794 0.51044 0.0
C425 C 0.51028 0.79793 0.49979 0.0
C426 C 0.57252 0.88724 0.49528 0.0
N427 N 0.54543 0.73783 0.50338 0.0
N428 N 0.58559 0.85692 0.49806 0.0
H429 H 0.71621 0.59811 0.82697 0.0
H430 H 0.84969 0.57526 0.90892 0.0
H431 H 0.65465 0.52522 0.87524 0.0
H432 H 0.89917 0.59616 0.85479 0.0
H433 H 0.7831 0.57431 0.89821 0.0
H434 H 0.78873 0.614 0.83855 0.0
C435 C 0.71801 0.58573 0.84002 0.0
C436 C 0.67943 0.55992 0.8501 0.0
C437 C 0.80875 0.57946 0.88872 0.0
C438 C 0.76172 0.5785 0.86342 0.0
C439 C 0.84667 0.57985 0.89479 0.0
C440 C 0.87969 0.58496 0.88269 0.0
C441 C 0.80392 0.58455 0.87044 0.0
C442 C 0.87459 0.59215 0.86461 0.0
C443 C 0.75924 0.59474 0.84658 0.0
C444 C 0.6835 0.54473 0.86693 0.0
N445 N 0.83714 0.59137 0.85898 0.0
N446 N 0.72393 0.55429 0.87307 0.0
H447 H 0.15707 0.68082 0.15054 0.0
H448 H 0.24448 0.85657 0.22949 0.0
H449 H 0.07474 0.67338 0.19508 0.0
H450 H 0.31345 0.87889 0.1793 0.0
H451 H 0.18002 0.79164 0.21649 0.0
H452 H 0.21271 0.75567 0.15994 0.0
C453 C 0.15047 0.69512 0.16219 0.0
C454 C 0.11143 0.67059 0.17217 0.0
C455 C 0.20901 0.81109 0.20823 0.0
C456 C 0.17524 0.75614 0.18311 0.0
C457 C 0.24582 0.84797 0.21567 0.0
C458 C 0.28441 0.87278 0.20549 0.0
C459 C 0.21107 0.79859 0.19056 0.0
C460 C 0.28429 0.86067 0.1876 0.0
C461 C 0.18223 0.73794 0.16753 0.0
C462 C 0.10446 0.691 0.18704 0.0
N463 N 0.2484 0.82404 0.18077 0.0
N464 N 0.13639 0.73237 0.19223 0.0
H465 H 0.44764 0.10667 0.54476 0.0
H466 H 0.47943 0.33926 0.51451 0.0
H467 H 0.44398 0.1392 0.48948 0.0
H468 H 0.46966 0.29706 0.56924 0.0
H469 H 0.45495 0.26288 0.50471 0.0
H470 H 0.44382 0.17194 0.55368 0.0
C471 C 0.44553 0.12744 0.53449 0.0
C472 C 0.44681 0.11805 0.51637 0.0
C473 C 0.45743 0.2702 0.51886 0.0
C474 C 0.44331 0.19354 0.52646 0.0
C475 C 0.47124 0.31368 0.52444 0.0
C476 C 0.47733 0.32443 0.54268 0.0
C477 C 0.44978 0.23758 0.53166 0.0
C478 C 0.46631 0.29025 0.55503 0.0
C479 C 0.44327 0.16473 0.53958 0.0
C480 C 0.4433 0.14557 0.5036 0.0
N481 N 0.4536 0.24853 0.54929 0.0
N482 N 0.44259 0.18272 0.50889 0.0
H483 H 0.41024 0.58833 0.8163 0.0
H484 H 0.15737 0.45696 0.84161 0.0
H485 H 0.33216 0.44516 0.81571 0.0
H486 H 0.2364 0.59977 0.83745 0.0
H487 H 0.21472 0.45047 0.82515 0.0
H488 H 0.3423 0.59206 0.81659 0.0
C489 C 0.37851 0.55765 0.81586 0.0
C490 C 0.37641 0.51642 0.81624 0.0
C491 C 0.21904 0.48319 0.82746 0.0
C492 C 0.29851 0.52017 0.81725 0.0
C493 C 0.18627 0.48687 0.83679 0.0
C494 C 0.19287 0.52901 0.8412 0.0
C495 C 0.25853 0.52196 0.82266 0.0
C496 C 0.23071 0.56672 0.83467 0.0
C497 C 0.3397 0.5597 0.81604 0.0
C498 C 0.33481 0.47756 0.81551 0.0
N499 N 0.26245 0.56233 0.82598 0.0
N500 N 0.29726 0.48032 0.81651 0.0
H501 H 0.84891 0.34889 0.13832 0.0
H502 H 0.71808 0.13449 0.20018 0.0
H503 H 0.91192 0.31369 0.17971 0.0
H504 H 0.65814 0.20227 0.17451 0.0
H505 H 0.7891 0.18622 0.18582 0.0
H506 H 0.77911 0.28064 0.14441 0.0
C507 C 0.84839 0.32642 0.14844 0.0
C508 C 0.88618 0.33752 0.15879 0.0
C509 C 0.76016 0.1892 0.18312 0.0
C510 C 0.80632 0.25946 0.16578 0.0
C511 C 0.71976 0.1597 0.19121 0.0
C512 C 0.68262 0.16465 0.1886 0.0
C513 C 0.76301 0.22332 0.1722 0.0
C514 C 0.68631 0.19785 0.17698 0.0
C515 C 0.80845 0.28756 0.15194 0.0
C516 C 0.88345 0.30683 0.17161 0.0
N517 N 0.72593 0.22614 0.16927 0.0
N518 N 0.84399 0.26939 0.17491 0.0
H519 H 0.11468 0.56919 0.09566 0.0
H520 H 0.03104 0.44205 0.00215 0.0
H521 H -0.00447 0.44168 0.08875 0.0
H522 H 0.12838 0.58178 0.00639 0.0
H523 H 0.0285 0.43688 0.03466 0.0
H524 H 0.13027 0.56977 0.06368 0.0
C525 C 0.09206 0.54116 0.08747 0.0
C526 C 0.05347 0.50557 0.09483 0.0
C527 C 0.05072 0.4686 0.02848 0.0
C528 C 0.07124 0.50593 0.0584 0.0
C529 C 0.05212 0.47159 0.00993 0.0
C530 C 0.0794 0.51258 0.00155 0.0
C531 C 0.0768 0.50684 0.03878 0.0
C532 C 0.10686 0.54952 0.01229 0.0
C533 C 0.10094 0.54157 0.06924 0.0
C534 C 0.02536 0.47008 0.08361 0.0
N535 N 0.10451 0.5459 0.03039 0.0
N536 N 0.03474 0.47126 0.06597 0.0
H537 H 0.45699 0.05473 0.43255 0.0
H538 H 0.54224 0.0131 0.33962 0.0
H539 H 0.54555 0.00193 0.42851 0.0
H540 H 0.47971 0.09289 0.34492 0.0
H541 H 0.54248 0.00717 0.37205 0.0
H542 H 0.4628 0.06669 0.40034 0.0
C543 C 0.4777 0.04566 0.42491 0.0
C544 C 0.5007 0.02713 0.43327 0.0
C545 C 0.52895 0.0262 0.36612 0.0
C546 C 0.50738 0.0407 0.39633 0.0
C547 C 0.52905 0.02987 0.34758 0.0
C548 C 0.51087 0.05353 0.33946 0.0
C549 C 0.51019 0.04597 0.37667 0.0
C550 C 0.49341 0.07371 0.35053 0.0
C551 C 0.48111 0.05267 0.40651 0.0
C552 C 0.52721 0.01629 0.42265 0.0
N553 N 0.4933 0.06927 0.36855 0.0
N554 N 0.52962 0.023 0.40472 0.0
H555 H 0.51097 0.47374 0.75679 0.0
H556 H 0.64214 0.63388 0.67574 0.0
H557 H 0.61789 0.60848 0.765 0.0
H558 H 0.57076 0.4907 0.67144 0.0
H559 H 0.63047 0.62703 0.70819 0.0
H560 H 0.52876 0.48095 0.725 0.0
C561 C 0.53821 0.50486 0.75191 0.0
C562 C 0.56294 0.5406 0.76356 0.0
C563 C 0.61778 0.59717 0.70013 0.0
C564 C 0.5833 0.54912 0.72716 0.0
C565 C 0.62428 0.60107 0.68166 0.0
C566 C 0.60747 0.5628 0.67094 0.0
C567 C 0.59362 0.55473 0.70783 0.0
C568 C 0.58471 0.52104 0.67925 0.0
C569 C 0.54848 0.50887 0.73377 0.0
C570 C 0.59804 0.58006 0.75649 0.0
N571 N 0.57809 0.51813 0.69717 0.0
N572 N 0.60698 0.5834 0.73869 0.0
H573 H 0.43658 0.88814 0.56751 0.0
H574 H 0.41906 0.99523 0.65891 0.0
H575 H 0.48475 0.02827 0.57527 0.0
H576 H 0.43775 0.88148 0.65923 0.0
H577 H 0.42572 -0.00186 0.62653 0.0
H578 H 0.42195 0.87666 0.59986 0.0
C579 C 0.4441 0.91638 0.57598 0.0
C580 C 0.46209 0.95926 0.56872 0.0
C581 C 0.42822 0.97244 0.63368 0.0
C582 C 0.44459 0.94619 0.60529 0.0
C583 C 0.42456 0.9708 0.65216 0.0
C584 C 0.42896 0.93873 0.66184 0.0
C585 C 0.43586 0.94151 0.62468 0.0
C586 C 0.43441 0.90691 0.65228 0.0
C587 C 0.43581 0.9098 0.59435 0.0
C588 C 0.47122 0.99471 0.58026 0.0
N589 N 0.43806 0.90926 0.63415 0.0
N590 N 0.46207 0.98731 0.59791 0.0
H591 H 0.47971 0.42369 0.89601 0.0
H592 H 0.4406 0.50447 0.98999 0.0
H593 H 0.46125 0.53698 0.90189 0.0
H594 H 0.42459 0.37427 0.98137 0.0
H595 H 0.44683 0.51661 0.95782 0.0
H596 H 0.45928 0.40498 0.92726 0.0
C597 C 0.47118 0.44456 0.90385 0.0
C598 C 0.47255 0.48219 0.89635 0.0
C599 C 0.4415 0.48521 0.96296 0.0
C600 C 0.44928 0.461 0.93221 0.0
C601 C 0.43764 0.47808 0.98136 0.0
C602 C 0.43235 0.43834 0.98848 0.0
C603 C 0.44057 0.45261 0.95158 0.0
C604 C 0.42957 0.40578 0.97655 0.0
C605 C 0.45932 0.43372 0.92169 0.0
C606 C 0.46076 0.50774 0.90714 0.0
N607 N 0.43415 0.41382 0.95871 0.0
N608 N 0.45006 0.49693 0.92459 0.0
H609 H -0.00527 0.44272 0.23352 0.0
H610 H 0.89609 0.51219 0.31603 0.0
H611 H 0.94004 0.52948 0.22821 0.0
H612 H 0.98121 0.45599 0.32151 0.0
H613 H 0.90166 0.50902 0.28344 0.0
H614 H 0.98001 0.43789 0.2655 0.0
C615 C 0.97946 0.46065 0.23905 0.0
C616 C 0.9689 0.48682 0.22815 0.0
C617 C 0.9189 0.4972 0.2918 0.0
C618 C 0.95185 0.48126 0.26482 0.0
C619 C 0.9155 0.49873 0.31035 0.0
C620 C 0.93849 0.48462 0.3214 0.0
C621 C 0.94509 0.481 0.28434 0.0
C622 C 0.96345 0.46773 0.31343 0.0
C623 C 0.97114 0.45791 0.25733 0.0
C624 C 0.94904 0.50917 0.23611 0.0
N625 N 0.96613 0.46645 0.29538 0.0
N626 N 0.9412 0.50593 0.25399 0.0
loop_
_geom_bond_atom_site_label_1
_geom_bond_atom_site_label_2
_geom_bond_distance
_geom_bond_site_symmetry_2
_ccdc_geom_bond_type
O0 Zn1 1.955 1_655 S
O0 C16 1.225 1_655 S
Zn1 O0 1.955 1_455 S
Zn1 O2 1.961 . S
Zn1 O8 1.896 1_455 S
Zn1 O13 1.934 . S
O2 Zn1 1.961 . S
O2 Zn3 1.923 1_455 S
O2 Zn4 1.950 . S
O2 Zn5 1.945 . S
Zn3 O2 1.923 1_655 S
Zn3 O6 1.933 . S
Zn3 O9 1.941 . S
Zn3 O10 1.965 . S
Zn4 O2 1.950 . S
Zn4 O11 1.938 1_455 S
Zn4 O12 1.906 . S
Zn4 O22 1.953 . S
Zn5 O2 1.945 . S
Zn5 O7 1.932 . S
Zn5 O14 1.977 . S
Zn5 O15 1.910 . S
O6 Zn3 1.933 . S
O6 C17 1.226 1_655 S
O7 Zn5 1.932 . S
O7 C17 1.307 . S
O8 Zn1 1.896 1_655 S
O8 C19 1.253 . S
O9 Zn3 1.941 . S
O9 C19 1.283 . S
O10 Zn3 1.965 . S
O10 C18 1.303 . S
O11 Zn4 1.938 1_655 S
O11 C18 1.247 . S
O12 Zn4 1.906 . S
O12 C20 1.304 . S
O13 Zn1 1.934 . S
O13 C21 1.311 . S
O14 Zn5 1.977 . S
O14 C20 1.272 . S
O15 Zn5 1.910 . S
O15 C21 1.231 . S
C16 O0 1.225 1_455 S
C16 O22 1.298 . S
C17 O6 1.226 1_455 S
C17 O7 1.307 . S
C18 O10 1.303 . S
C18 O11 1.247 . S
C19 O8 1.253 . S
C19 O9 1.283 . S
C20 O12 1.304 . S
C20 O14 1.272 . S
C21 O13 1.311 . S
C21 O15 1.231 . S
O22 Zn4 1.953 . S
O22 C16 1.298 . S
O23 Zn24 1.953 . S
O23 C39 1.225 . S
Zn24 O23 1.953 . S
Zn24 O25 1.949 . S
Zn24 O31 1.919 . S
Zn24 O36 1.924 1_545 S
O25 Zn24 1.949 . S
O25 Zn26 1.923 . S
O25 Zn27 1.954 . S
O25 Zn28 1.945 1_545 S
Zn26 O25 1.923 . S
Zn26 O29 1.933 . S
Zn26 O32 1.941 . S
Zn26 O33 1.965 . S
Zn27 O25 1.954 . S
Zn27 O34 1.941 . S
Zn27 O35 1.900 1_545 S
Zn27 O45 1.954 1_545 S
Zn28 O25 1.945 1_565 S
Zn28 O30 1.932 . S
Zn28 O37 1.977 . S
Zn28 O38 1.910 . S
O29 Zn26 1.933 . S
O29 C40 1.226 . S
O30 Zn28 1.932 . S
O30 C40 1.307 1_565 S
O31 Zn24 1.919 . S
O31 C42 1.253 . S
O32 Zn26 1.941 . S
O32 C42 1.283 . S
O33 Zn26 1.965 . S
O33 C41 1.303 . S
O34 Zn27 1.941 . S
O34 C41 1.247 . S
O35 Zn27 1.900 1_565 S
O35 C43 1.304 . S
O36 Zn24 1.924 1_565 S
O36 C44 1.311 . S
O37 Zn28 1.977 . S
O37 C43 1.272 . S
O38 Zn28 1.910 . S
O38 C44 1.231 . S
C39 O23 1.225 . S
C39 O45 1.298 1_545 S
C40 O29 1.226 . S
C40 O30 1.307 1_545 S
C41 O33 1.303 . S
C41 O34 1.247 . S
C42 O31 1.253 . S
C42 O32 1.283 . S
C43 O35 1.304 . S
C43 O37 1.272 . S
C44 O36 1.311 . S
C44 O38 1.231 . S
O45 Zn27 1.954 1_565 S
O45 C39 1.298 1_565 S
O46 Zn47 1.953 . S
O46 C62 1.225 . S
Zn47 O46 1.953 . S
Zn47 O48 1.949 . S
Zn47 O54 1.919 . S
Zn47 O59 1.924 . S
O48 Zn47 1.949 . S
O48 Zn49 1.923 . S
O48 Zn50 1.950 . S
O48 Zn51 1.945 . S
Zn49 O48 1.923 . S
Zn49 O52 1.933 . S
Zn49 O55 1.941 . S
Zn49 O56 1.965 . S
Zn50 O48 1.950 . S
Zn50 O57 1.938 . S
Zn50 O58 1.906 . S
Zn50 O68 1.953 . S
Zn51 O48 1.945 . S
Zn51 O53 1.932 . S
Zn51 O60 1.977 . S
Zn51 O61 1.910 . S
O52 Zn49 1.933 . S
O52 C63 1.226 . S
O53 Zn51 1.932 . S
O53 C63 1.307 . S
O54 Zn47 1.919 . S
O54 C65 1.253 . S
O55 Zn49 1.941 . S
O55 C65 1.283 . S
O56 Zn49 1.965 . S
O56 C64 1.303 . S
O57 Zn50 1.938 . S
O57 C64 1.247 . S
O58 Zn50 1.906 . S
O58 C66 1.304 . S
O59 Zn47 1.924 . S
O59 C67 1.311 . S
O60 Zn51 1.977 . S
O60 C66 1.272 . S
O61 Zn51 1.910 . S
O61 C67 1.231 . S
C62 O46 1.225 . S
C62 O68 1.298 . S
C63 O52 1.226 . S
C63 O53 1.307 . S
C64 O56 1.303 . S
C64 O57 1.247 . S
C65 O54 1.253 . S
C65 O55 1.283 . S
C66 O58 1.304 . S
C66 O60 1.272 . S
C67 O59 1.311 . S
C67 O61 1.231 . S
O68 Zn50 1.953 . S
O68 C62 1.298 . S
C69 C70 1.386 . S
C69 C71 1.397 . S
C69 H93 0.931 . S
C70 C69 1.386 . S
C70 C74 1.397 1_545 S
C71 C69 1.397 . S
C71 C72 1.384 . S
C71 H94 0.930 . S
C72 C71 1.384 . S
C72 C73 1.377 1_545 S
C72 C75 1.481 . S
C73 C72 1.377 1_565 S
C73 C74 1.389 . S
C73 H95 0.929 . S
C74 C70 1.397 1_565 S
C74 C73 1.389 . S
C74 H96 0.931 . S
C75 C72 1.481 . S
C75 C76 1.387 . S
C75 C80 1.390 1_545 S
C76 C75 1.387 . S
C76 C77 1.401 . S
C76 H97 0.930 . S
C77 C76 1.401 . S
C77 C78 1.376 . S
C77 C86 1.511 . S
C78 C77 1.376 . S
C78 C79 1.392 1_545 S
C78 H99 0.931 . S
C79 C78 1.392 1_565 S
C79 C80 1.361 . S
C79 C81 1.500 . S
C80 C75 1.390 1_565 S
C80 C79 1.361 . S
C80 H98 0.931 . S
C81 C79 1.500 . S
C81 C82 1.371 . S
C81 C83 1.365 . S
C82 C81 1.371 . S
C82 C92 1.386 . S
C82 H100 0.931 . S
C83 C81 1.365 . S
C83 C84 1.409 . S
C83 H101 0.929 . S
C84 C83 1.409 . S
C84 C85 1.380 . S
C84 H102 0.930 . S
C85 C84 1.380 . S
C85 C92 1.357 . S
C86 C77 1.511 . S
C86 C87 1.341 . S
C86 C88 1.371 . S
C87 C86 1.341 . S
C87 C91 1.394 . S
C87 H103 0.930 . S
C88 C86 1.371 . S
C88 C89 1.392 . S
C88 H104 0.931 . S
C89 C88 1.392 . S
C89 C90 1.331 . S
C89 H107 0.932 . S
C90 C89 1.331 . S
C90 C91 1.336 . S
C91 C87 1.394 . S
C91 C90 1.336 . S
C91 H106 0.929 . S
C92 C82 1.386 . S
C92 C85 1.357 . S
C92 H105 0.928 . S
H93 C69 0.931 . S
H94 C71 0.930 . S
H95 C73 0.929 . S
H96 C74 0.931 . S
H97 C76 0.930 . S
H98 C80 0.931 . S
H99 C78 0.931 . S
H100 C82 0.931 . S
H101 C83 0.929 . S
H102 C84 0.930 . S
H103 C87 0.930 . S
H104 C88 0.931 . S
H105 C92 0.928 . S
H106 C91 0.929 . S
H107 C89 0.932 . S
C108 C109 1.386 . S
C108 C110 1.397 . S
C108 H132 0.931 . S
C109 C108 1.386 . S
C109 C113 1.397 . S
C110 C108 1.397 . S
C110 C111 1.384 . S
C110 H133 0.930 . S
C111 C110 1.384 . S
C111 C112 1.377 . S
C111 C114 1.481 . S
C112 C111 1.377 . S
C112 C113 1.389 . S
C112 H134 0.929 . S
C113 C109 1.397 . S
C113 C112 1.389 . S
C113 H135 0.931 . S
C114 C111 1.481 . S
C114 C115 1.387 . S
C114 C119 1.390 . S
C115 C114 1.387 . S
C115 C116 1.401 . S
C115 H136 0.930 . S
C116 C115 1.401 . S
C116 C117 1.376 . S
C116 C125 1.511 . S
C117 C116 1.376 . S
C117 C118 1.392 . S
C117 H138 0.931 . S
C118 C117 1.392 . S
C118 C119 1.361 . S
C118 C120 1.500 . S
C119 C114 1.390 . S
C119 C118 1.361 . S
C119 H137 0.931 . S
C120 C118 1.500 . S
C120 C121 1.371 . S
C120 C122 1.365 . S
C121 C120 1.371 . S
C121 C131 1.386 . S
C121 H139 0.931 . S
C122 C120 1.365 . S
C122 C123 1.409 . S
C122 H140 0.929 . S
C123 C122 1.409 . S
C123 C124 1.380 . S
C123 H141 0.930 . S
C124 C123 1.380 . S
C124 C131 1.357 . S
C125 C116 1.511 . S
C125 C126 1.341 . S
C125 C127 1.371 . S
C126 C125 1.341 . S
C126 C130 1.394 . S
C126 H142 0.930 . S
C127 C125 1.371 . S
C127 C128 1.392 . S
C127 H143 0.931 . S
C128 C127 1.392 . S
C128 C129 1.331 . S
C128 H146 0.932 . S
C129 C128 1.331 . S
C129 C130 1.336 . S
C130 C126 1.394 . S
C130 C129 1.336 . S
C130 H145 0.929 . S
C131 C121 1.386 . S
C131 C124 1.357 . S
C131 H144 0.928 . S
H132 C108 0.931 . S
H133 C110 0.930 . S
H134 C112 0.929 . S
H135 C113 0.931 . S
H136 C115 0.930 . S
H137 C119 0.931 . S
H138 C117 0.931 . S
H139 C121 0.931 . S
H140 C122 0.929 . S
H141 C123 0.930 . S
H142 C126 0.930 . S
H143 C127 0.931 . S
H144 C131 0.928 . S
H145 C130 0.929 . S
H146 C128 0.932 . S
C147 C148 1.386 . S
C147 C149 1.397 . S
C147 H171 0.931 . S
C148 C147 1.386 . S
C148 C152 1.397 1_455 S
C149 C147 1.397 . S
C149 C150 1.384 . S
C149 H172 0.930 . S
C150 C149 1.384 . S
C150 C151 1.377 1_455 S
C150 C153 1.481 . S
C151 C150 1.377 1_655 S
C151 C152 1.389 . S
C151 H173 0.929 . S
C152 C148 1.397 1_655 S
C152 C151 1.389 . S
C152 H174 0.931 . S
C153 C150 1.481 . S
C153 C154 1.387 . S
C153 C158 1.390 1_455 S
C154 C153 1.387 . S
C154 C155 1.401 . S
C154 H175 0.930 . S
C155 C154 1.401 . S
C155 C156 1.376 . S
C155 C164 1.511 . S
C156 C155 1.376 . S
C156 C157 1.392 1_455 S
C156 H177 0.931 . S
C157 C156 1.392 1_655 S
C157 C158 1.361 . S
C157 C159 1.500 . S
C158 C153 1.390 1_655 S
C158 C157 1.361 . S
C158 H176 0.931 . S
C159 C157 1.500 . S
C159 C160 1.371 . S
C159 C161 1.365 . S
C160 C159 1.371 . S
C160 C170 1.386 . S
C160 H178 0.931 . S
C161 C159 1.365 . S
C161 C162 1.409 . S
C161 H179 0.929 . S
C162 C161 1.409 . S
C162 C163 1.380 . S
C162 H180 0.930 . S
C163 C162 1.380 . S
C163 C170 1.357 . S
C164 C155 1.511 . S
C164 C165 1.341 . S
C164 C166 1.371 . S
C165 C164 1.341 . S
C165 C169 1.394 . S
C165 H181 0.930 . S
C166 C164 1.371 . S
C166 C167 1.392 . S
C166 H182 0.931 . S
C167 C166 1.392 . S
C167 C168 1.331 . S
C167 H185 0.932 . S
C168 C167 1.331 . S
C168 C169 1.336 . S
C169 C165 1.394 . S
C169 C168 1.336 . S
C169 H184 0.929 . S
C170 C160 1.386 . S
C170 C163 1.357 . S
C170 H183 0.928 . S
H171 C147 0.931 . S
H172 C149 0.930 . S
H173 C151 0.929 . S
H174 C152 0.931 . S
H175 C154 0.930 . S
H176 C158 0.931 . S
H177 C156 0.931 . S
H178 C160 0.931 . S
H179 C161 0.929 . S
H180 C162 0.930 . S
H181 C165 0.930 . S
H182 C166 0.931 . S
H183 C170 0.928 . S
H184 C169 0.929 . S
H185 C167 0.932 . S
C186 C187 1.386 1_655 S
C186 C188 1.397 . S
C186 H210 0.931 . S
C187 C186 1.386 1_455 S
C187 C191 1.397 . S
C188 C186 1.397 . S
C188 C189 1.384 1_655 S
C188 H211 0.930 . S
C189 C188 1.384 1_455 S
C189 C190 1.377 . S
C189 C192 1.481 . S
C190 C189 1.377 . S
C190 C191 1.389 . S
C190 H212 0.929 . S
C191 C187 1.397 . S
C191 C190 1.389 . S
C191 H213 0.931 . S
C192 C189 1.481 . S
C192 C193 1.387 1_455 S
C192 C197 1.390 . S
C193 C192 1.387 1_655 S
C193 C194 1.401 . S
C193 H214 0.930 . S
C194 C193 1.401 . S
C194 C195 1.376 1_655 S
C194 C203 1.511 . S
C195 C194 1.376 1_455 S
C195 C196 1.392 . S
C195 H216 0.931 . S
C196 C195 1.392 . S
C196 C197 1.361 . S
C196 C198 1.500 . S
C197 C192 1.390 . S
C197 C196 1.361 . S
C197 H215 0.931 . S
C198 C196 1.500 . S
C198 C199 1.371 . S
C198 C200 1.365 . S
C199 C198 1.371 . S
C199 C209 1.386 . S
C199 H217 0.931 . S
C200 C198 1.365 . S
C200 C201 1.409 . S
C200 H218 0.929 . S
C201 C200 1.409 . S
C201 C202 1.380 . S
C201 H219 0.930 . S
C202 C201 1.380 . S
C202 C209 1.357 . S
C203 C194 1.511 . S
C203 C204 1.341 . S
C203 C205 1.371 . S
C204 C203 1.341 . S
C204 C208 1.394 . S
C204 H220 0.930 . S
C205 C203 1.371 . S
C205 C206 1.392 . S
C205 H221 0.931 . S
C206 C205 1.392 . S
C206 C207 1.331 . S
C206 H224 0.932 . S
C207 C206 1.331 . S
C207 C208 1.336 . S
C208 C204 1.394 . S
C208 C207 1.336 . S
C208 H223 0.929 . S
C209 C199 1.386 . S
C209 C202 1.357 . S
C209 H222 0.928 . S
H210 C186 0.931 . S
H211 C188 0.930 . S
H212 C190 0.929 . S
H213 C191 0.931 . S
H214 C193 0.930 . S
H215 C197 0.931 . S
H216 C195 0.931 . S
H217 C199 0.931 . S
H218 C200 0.929 . S
H219 C201 0.930 . S
H220 C204 0.930 . S
H221 C205 0.931 . S
H222 C209 0.928 . S
H223 C208 0.929 . S
H224 C206 0.932 . S
C225 C226 1.386 1_565 S
C225 C227 1.397 . S
C225 H249 0.931 . S
C226 C225 1.386 1_545 S
C226 C230 1.397 . S
C227 C225 1.397 . S
C227 C228 1.384 1_565 S
C227 H250 0.930 . S
C228 C227 1.384 1_545 S
C228 C229 1.377 . S
C228 C231 1.481 . S
C229 C228 1.377 . S
C229 C230 1.389 . S
C229 H251 0.929 . S
C230 C226 1.397 . S
C230 C229 1.389 . S
C230 H252 0.931 . S
C231 C228 1.481 . S
C231 C232 1.387 1_545 S
C231 C236 1.390 . S
C232 C231 1.387 1_565 S
C232 C233 1.401 . S
C232 H253 0.930 . S
C233 C232 1.401 . S
C233 C234 1.376 1_565 S
C233 C242 1.511 . S
C234 C233 1.376 1_545 S
C234 C235 1.392 . S
C234 H255 0.931 . S
C235 C234 1.392 . S
C235 C236 1.361 . S
C235 C237 1.500 . S
C236 C231 1.390 . S
C236 C235 1.361 . S
C236 H254 0.931 . S
C237 C235 1.500 . S
C237 C238 1.371 . S
C237 C239 1.365 . S
C238 C237 1.371 . S
C238 C248 1.386 . S
C238 H256 0.931 . S
C239 C237 1.365 . S
C239 C240 1.409 . S
C239 H257 0.929 . S
C240 C239 1.409 . S
C240 C241 1.380 . S
C240 H258 0.930 . S
C241 C240 1.380 . S
C241 C248 1.357 . S
C242 C233 1.511 . S
C242 C243 1.341 . S
C242 C244 1.371 . S
C243 C242 1.341 . S
C243 C247 1.394 . S
C243 H259 0.930 . S
C244 C242 1.371 . S
C244 C245 1.392 . S
C244 H260 0.931 . S
C245 C244 1.392 . S
C245 C246 1.331 . S
C245 H263 0.932 . S
C246 C245 1.331 . S
C246 C247 1.336 . S
C247 C243 1.394 . S
C247 C246 1.336 . S
C247 H262 0.929 . S
C248 C238 1.386 . S
C248 C241 1.357 . S
C248 H261 0.928 . S
H249 C225 0.931 . S
H250 C227 0.930 . S
H251 C229 0.929 . S
H252 C230 0.931 . S
H253 C232 0.930 . S
H254 C236 0.931 . S
H255 C234 0.931 . S
H256 C238 0.931 . S
H257 C239 0.929 . S
H258 C240 0.930 . S
H259 C243 0.930 . S
H260 C244 0.931 . S
H261 C248 0.928 . S
H262 C247 0.929 . S
H263 C245 0.932 . S
C264 C265 1.386 . S
C264 C266 1.397 . S
C264 H288 0.931 . S
C265 C264 1.386 . S
C265 C269 1.397 . S
C266 C264 1.397 . S
C266 C267 1.384 . S
C266 H289 0.930 . S
C267 C266 1.384 . S
C267 C268 1.377 . S
C267 C270 1.481 . S
C268 C267 1.377 . S
C268 C269 1.389 . S
C268 H290 0.929 . S
C269 C265 1.397 . S
C269 C268 1.389 . S
C269 H291 0.931 . S
C270 C267 1.481 . S
C270 C271 1.387 . S
C270 C275 1.390 . S
C271 C270 1.387 . S
C271 C272 1.401 . S
C271 H292 0.930 . S
C272 C271 1.401 . S
C272 C273 1.376 . S
C272 C281 1.511 . S
C273 C272 1.376 . S
C273 C274 1.392 . S
C273 H294 0.931 . S
C274 C273 1.392 . S
C274 C275 1.361 . S
C274 C276 1.500 . S
C275 C270 1.390 . S
C275 C274 1.361 . S
C275 H293 0.931 . S
C276 C274 1.500 . S
C276 C277 1.371 . S
C276 C278 1.365 . S
C277 C276 1.371 . S
C277 C287 1.386 . S
C277 H295 0.931 . S
C278 C276 1.365 . S
C278 C279 1.409 . S
C278 H296 0.929 . S
C279 C278 1.409 . S
C279 C280 1.380 . S
C279 H297 0.930 . S
C280 C279 1.380 . S
C280 C287 1.357 . S
C281 C272 1.511 . S
C281 C282 1.341 . S
C281 C283 1.371 . S
C282 C281 1.341 . S
C282 C286 1.394 . S
C282 H298 0.930 . S
C283 C281 1.371 . S
C283 C284 1.392 . S
C283 H299 0.931 . S
C284 C283 1.392 . S
C284 C285 1.331 . S
C284 H302 0.932 . S
C285 C284 1.331 . S
C285 C286 1.336 . S
C286 C282 1.394 . S
C286 C285 1.336 . S
C286 H301 0.929 . S
C287 C277 1.386 . S
C287 C280 1.357 . S
C287 H300 0.928 . S
H288 C264 0.931 . S
H289 C266 0.930 . S
H290 C268 0.929 . S
H291 C269 0.931 . S
H292 C271 0.930 . S
H293 C275 0.931 . S
H294 C273 0.931 . S
H295 C277 0.931 . S
H296 C278 0.929 . S
H297 C279 0.930 . S
H298 C282 0.930 . S
H299 C283 0.931 . S
H300 C287 0.928 . S
H301 C286 0.929 . S
H302 C284 0.932 . S
H303 C309 0.930 . S
H304 C313 0.930 . S
H305 C318 0.929 . S
H306 C316 0.929 . S
H307 C311 0.929 . S
H308 C317 0.929 . S
C309 H303 0.930 . S
C309 C310 1.367 . S
C309 C317 1.378 . S
C310 C309 1.367 . S
C310 C318 1.433 . S
C311 H307 0.929 . S
C311 C313 1.378 . S
C311 C315 1.350 . S
C312 C315 1.463 . S
C312 C317 1.350 . S
C312 N320 1.427 . S
C313 H304 0.930 . S
C313 C311 1.378 . S
C313 C314 1.367 . S
C314 C313 1.367 . S
C314 C316 1.433 . S
C315 C311 1.350 . S
C315 C312 1.463 . S
C315 N319 1.427 . S
C316 H306 0.929 . S
C316 C314 1.433 . S
C316 N319 1.384 . S
C317 H308 0.929 . S
C317 C309 1.378 . S
C317 C312 1.350 . S
C318 H305 0.929 . S
C318 C310 1.433 . S
C318 N320 1.384 . S
N319 C315 1.427 . S
N319 C316 1.384 . S
N320 C312 1.427 . S
N320 C318 1.384 . S
H321 C327 0.930 . S
H322 C331 0.930 . S
H323 C336 0.929 . S
H324 C334 0.929 . S
H325 C329 0.929 . S
H326 C335 0.929 . S
C327 H321 0.930 . S
C327 C328 1.367 . S
C327 C335 1.378 . S
C328 C327 1.367 . S
C328 C336 1.433 . S
C329 H325 0.929 . S
C329 C331 1.378 . S
C329 C333 1.350 . S
C330 C333 1.463 . S
C330 C335 1.350 . S
C330 N338 1.427 . S
C331 H322 0.930 . S
C331 C329 1.378 . S
C331 C332 1.367 . S
C332 C331 1.367 . S
C332 C334 1.433 . S
C333 C329 1.350 . S
C333 C330 1.463 . S
C333 N337 1.427 . S
C334 H324 0.929 . S
C334 C332 1.433 . S
C334 N337 1.384 . S
C335 H326 0.929 . S
C335 C327 1.378 . S
C335 C330 1.350 . S
C336 H323 0.929 . S
C336 C328 1.433 . S
C336 N338 1.384 . S
N337 C333 1.427 . S
N337 C334 1.384 . S
N338 C330 1.427 . S
N338 C336 1.384 . S
H339 C345 0.930 . S
H340 C349 0.930 . S
H341 C354 0.929 . S
H342 C352 0.929 . S
H343 C347 0.929 . S
H344 C353 0.929 . S
C345 H339 0.930 . S
C345 C346 1.367 . S
C345 C353 1.378 . S
C346 C345 1.367 . S
C346 C354 1.433 . S
C347 H343 0.929 . S
C347 C349 1.378 . S
C347 C351 1.350 . S
C348 C351 1.463 . S
C348 C353 1.350 . S
C348 N356 1.427 . S
C349 H340 0.930 . S
C349 C347 1.378 . S
C349 C350 1.367 . S
C350 C349 1.367 . S
C350 C352 1.433 . S
C351 C347 1.350 . S
C351 C348 1.463 . S
C351 N355 1.427 . S
C352 H342 0.929 . S
C352 C350 1.433 . S
C352 N355 1.384 . S
C353 H344 0.929 . S
C353 C345 1.378 . S
C353 C348 1.350 . S
C354 H341 0.929 . S
C354 C346 1.433 . S
C354 N356 1.384 . S
N355 C351 1.427 . S
N355 C352 1.384 . S
N356 C348 1.427 . S
N356 C354 1.384 . S
H357 C363 0.930 . S
H358 C367 0.930 . S
H359 C372 0.929 . S
H360 C370 0.929 . S
H361 C365 0.929 . S
H362 C371 0.929 . S
C363 H357 0.930 . S
C363 C364 1.367 . S
C363 C371 1.378 . S
C364 C363 1.367 . S
C364 C372 1.433 . S
C365 H361 0.929 . S
C365 C367 1.378 . S
C365 C369 1.350 . S
C366 C369 1.463 . S
C366 C371 1.350 . S
C366 N374 1.427 . S
C367 H358 0.930 . S
C367 C365 1.378 . S
C367 C368 1.367 . S
C368 C367 1.367 . S
C368 C370 1.433 . S
C369 C365 1.350 . S
C369 C366 1.463 . S
C369 N373 1.427 . S
C370 H360 0.929 . S
C370 C368 1.433 . S
C370 N373 1.384 . S
C371 H362 0.929 . S
C371 C363 1.378 . S
C371 C366 1.350 . S
C372 H359 0.929 . S
C372 C364 1.433 . S
C372 N374 1.384 . S
N373 C369 1.427 . S
N373 C370 1.384 . S
N374 C366 1.427 . S
N374 C372 1.384 . S
H375 C381 0.930 . S
H376 C385 0.930 . S
H377 C390 0.929 . S
H378 C388 0.929 . S
H379 C383 0.929 . S
H380 C389 0.929 . S
C381 H375 0.930 . S
C381 C382 1.367 . S
C381 C389 1.378 . S
C382 C381 1.367 . S
C382 C390 1.433 . S
C383 H379 0.929 . S
C383 C385 1.378 . S
C383 C387 1.350 . S
C384 C387 1.463 . S
C384 C389 1.350 . S
C384 N392 1.427 . S
C385 H376 0.930 . S
C385 C383 1.378 . S
C385 C386 1.367 . S
C386 C385 1.367 . S
C386 C388 1.433 . S
C387 C383 1.350 . S
C387 C384 1.463 . S
C387 N391 1.427 . S
C388 H378 0.929 . S
C388 C386 1.433 . S
C388 N391 1.384 . S
C389 H380 0.929 . S
C389 C381 1.378 . S
C389 C384 1.350 . S
C390 H377 0.929 . S
C390 C382 1.433 . S
C390 N392 1.384 . S
N391 C387 1.427 . S
N391 C388 1.384 . S
N392 C384 1.427 . S
N392 C390 1.384 . S
H393 C399 0.930 . S
H394 C403 0.930 . S
H395 C408 0.929 . S
H396 C406 0.929 . S
H397 C401 0.929 . S
H398 C407 0.929 . S
C399 H393 0.930 . S
C399 C400 1.367 . S
C399 C407 1.378 . S
C400 C399 1.367 . S
C400 C408 1.433 . S
C401 H397 0.929 . S
C401 C403 1.378 . S
C401 C405 1.350 . S
C402 C405 1.463 . S
C402 C407 1.350 . S
C402 N410 1.427 . S
C403 H394 0.930 . S
C403 C401 1.378 . S
C403 C404 1.367 . S
C404 C403 1.367 . S
C404 C406 1.433 . S
C405 C401 1.350 . S
C405 C402 1.463 . S
C405 N409 1.427 . S
C406 H396 0.929 . S
C406 C404 1.433 . S
C406 N409 1.384 . S
C407 H398 0.929 . S
C407 C399 1.378 . S
C407 C402 1.350 . S
C408 H395 0.929 . S
C408 C400 1.433 . S
C408 N410 1.384 . S
N409 C405 1.427 . S
N409 C406 1.384 . S
N410 C402 1.427 . S
N410 C408 1.384 . S
H411 C417 0.930 . S
H412 C421 0.930 . S
H413 C426 0.929 . S
H414 C424 0.929 . S
H415 C419 0.929 . S
H416 C425 0.929 . S
C417 H411 0.930 . S
C417 C418 1.367 . S
C417 C425 1.378 . S
C418 C417 1.367 . S
C418 C426 1.433 . S
C419 H415 0.929 . S
C419 C421 1.378 . S
C419 C423 1.350 . S
C420 C423 1.463 . S
C420 C425 1.350 . S
C420 N428 1.427 . S
C421 H412 0.930 . S
C421 C419 1.378 . S
C421 C422 1.367 . S
C422 C421 1.367 . S
C422 C424 1.433 . S
C423 C419 1.350 . S
C423 C420 1.463 . S
C423 N427 1.427 . S
C424 H414 0.929 . S
C424 C422 1.433 . S
C424 N427 1.384 . S
C425 H416 0.929 . S
C425 C417 1.378 . S
C425 C420 1.350 . S
C426 H413 0.929 . S
C426 C418 1.433 . S
C426 N428 1.384 . S
N427 C423 1.427 . S
N427 C424 1.384 . S
N428 C420 1.427 . S
N428 C426 1.384 . S
H429 C435 0.930 . S
H430 C439 0.930 . S
H431 C444 0.929 . S
H432 C442 0.929 . S
H433 C437 0.929 . S
H434 C443 0.929 . S
C435 H429 0.930 . S
C435 C436 1.367 . S
C435 C443 1.378 . S
C436 C435 1.367 . S
C436 C444 1.433 . S
C437 H433 0.929 . S
C437 C439 1.378 . S
C437 C441 1.350 . S
C438 C441 1.463 . S
C438 C443 1.350 . S
C438 N446 1.427 . S
C439 H430 0.930 . S
C439 C437 1.378 . S
C439 C440 1.367 . S
C440 C439 1.367 . S
C440 C442 1.433 . S
C441 C437 1.350 . S
C441 C438 1.463 . S
C441 N445 1.427 . S
C442 H432 0.929 . S
C442 C440 1.433 . S
C442 N445 1.384 . S
C443 H434 0.929 . S
C443 C435 1.378 . S
C443 C438 1.350 . S
C444 H431 0.929 . S
C444 C436 1.433 . S
C444 N446 1.384 . S
N445 C441 1.427 . S
N445 C442 1.384 . S
N446 C438 1.427 . S
N446 C444 1.384 . S
H447 C453 0.930 . S
H448 C457 0.930 . S
H449 C462 0.929 . S
H450 C460 0.929 . S
H451 C455 0.929 . S
H452 C461 0.929 . S
C453 H447 0.930 . S
C453 C454 1.367 . S
C453 C461 1.378 . S
C454 C453 1.367 . S
C454 C462 1.433 . S
C455 H451 0.929 . S
C455 C457 1.378 . S
C455 C459 1.350 . S
C456 C459 1.463 . S
C456 C461 1.350 . S
C456 N464 1.427 . S
C457 H448 0.930 . S
C457 C455 1.378 . S
C457 C458 1.367 . S
C458 C457 1.367 . S
C458 C460 1.433 . S
C459 C455 1.350 . S
C459 C456 1.463 . S
C459 N463 1.427 . S
C460 H450 0.929 . S
C460 C458 1.433 . S
C460 N463 1.384 . S
C461 H452 0.929 . S
C461 C453 1.378 . S
C461 C456 1.350 . S
C462 H449 0.929 . S
C462 C454 1.433 . S
C462 N464 1.384 . S
N463 C459 1.427 . S
N463 C460 1.384 . S
N464 C456 1.427 . S
N464 C462 1.384 . S
H465 C471 0.930 . S
H466 C475 0.930 . S
H467 C480 0.929 . S
H468 C478 0.929 . S
H469 C473 0.929 . S
H470 C479 0.929 . S
C471 H465 0.930 . S
C471 C472 1.367 . S
C471 C479 1.378 . S
C472 C471 1.367 . S
C472 C480 1.433 . S
C473 H469 0.929 . S
C473 C475 1.378 . S
C473 C477 1.350 . S
C474 C477 1.463 . S
C474 C479 1.350 . S
C474 N482 1.427 . S
C475 H466 0.930 . S
C475 C473 1.378 . S
C475 C476 1.367 . S
C476 C475 1.367 . S
C476 C478 1.433 . S
C477 C473 1.350 . S
C477 C474 1.463 . S
C477 N481 1.427 . S
C478 H468 0.929 . S
C478 C476 1.433 . S
C478 N481 1.384 . S
C479 H470 0.929 . S
C479 C471 1.378 . S
C479 C474 1.350 . S
C480 H467 0.929 . S
C480 C472 1.433 . S
C480 N482 1.384 . S
N481 C477 1.427 . S
N481 C478 1.384 . S
N482 C474 1.427 . S
N482 C480 1.384 . S
H483 C489 0.930 . S
H484 C493 0.930 . S
H485 C498 0.929 . S
H486 C496 0.929 . S
H487 C491 0.929 . S
H488 C497 0.929 . S
C489 H483 0.930 . S
C489 C490 1.367 . S
C489 C497 1.378 . S
C490 C489 1.367 . S
C490 C498 1.433 . S
C491 H487 0.929 . S
C491 C493 1.378 . S
C491 C495 1.350 . S
C492 C495 1.463 . S
C492 C497 1.350 . S
C492 N500 1.427 . S
C493 H484 0.930 . S
C493 C491 1.378 . S
C493 C494 1.367 . S
C494 C493 1.367 . S
C494 C496 1.433 . S
C495 C491 1.350 . S
C495 C492 1.463 . S
C495 N499 1.427 . S
C496 H486 0.929 . S
C496 C494 1.433 . S
C496 N499 1.384 . S
C497 H488 0.929 . S
C497 C489 1.378 . S
C497 C492 1.350 . S
C498 H485 0.929 . S
C498 C490 1.433 . S
C498 N500 1.384 . S
N499 C495 1.427 . S
N499 C496 1.384 . S
N500 C492 1.427 . S
N500 C498 1.384 . S
H501 C507 0.930 . S
H502 C511 0.930 . S
H503 C516 0.929 . S
H504 C514 0.929 . S
H505 C509 0.929 . S
H506 C515 0.929 . S
C507 H501 0.930 . S
C507 C508 1.367 . S
C507 C515 1.378 . S
C508 C507 1.367 . S
C508 C516 1.433 . S
C509 H505 0.929 . S
C509 C511 1.378 . S
C509 C513 1.350 . S
C510 C513 1.463 . S
C510 C515 1.350 . S
C510 N518 1.427 . S
C511 H502 0.930 . S
C511 C509 1.378 . S
C511 C512 1.367 . S
C512 C511 1.367 . S
C512 C514 1.433 . S
C513 C509 1.350 . S
C513 C510 1.463 . S
C513 N517 1.427 . S
C514 H504 0.929 . S
C514 C512 1.433 . S
C514 N517 1.384 . S
C515 H506 0.929 . S
C515 C507 1.378 . S
C515 C510 1.350 . S
C516 H503 0.929 . S
C516 C508 1.433 . S
C516 N518 1.384 . S
N517 C513 1.427 . S
N517 C514 1.384 . S
N518 C510 1.427 . S
N518 C516 1.384 . S
H519 C525 0.930 . S
H520 C529 0.930 . S
H521 C534 0.929 . S
H522 C532 0.929 . S
H523 C527 0.929 . S
H524 C533 0.929 . S
C525 H519 0.930 . S
C525 C526 1.367 . S
C525 C533 1.378 . S
C526 C525 1.367 . S
C526 C534 1.433 1_455 S
C527 H523 0.929 . S
C527 C529 1.378 . S
C527 C531 1.350 1_655 S
C528 C531 1.463 . S
C528 C533 1.350 . S
C528 N536 1.427 1_455 S
C529 H520 0.930 . S
C529 C527 1.378 . S
C529 C530 1.367 1_655 S
C530 C529 1.367 1_455 S
C530 C532 1.433 . S
C531 C527 1.350 1_455 S
C531 C528 1.463 . S
C531 N535 1.427 . S
C532 H522 0.929 . S
C532 C530 1.433 . S
C532 N535 1.384 . S
C533 H524 0.929 . S
C533 C525 1.378 . S
C533 C528 1.350 . S
C534 H521 0.929 . S
C534 C526 1.433 1_655 S
C534 N536 1.384 . S
N535 C531 1.427 . S
N535 C532 1.384 . S
N536 C528 1.427 1_655 S
N536 C534 1.384 . S
H537 C543 0.930 . S
H538 C547 0.930 . S
H539 C552 0.929 . S
H540 C550 0.929 . S
H541 C545 0.929 . S
H542 C551 0.929 . S
C543 H537 0.930 . S
C543 C544 1.367 . S
C543 C551 1.378 . S
C544 C543 1.367 . S
C544 C552 1.433 1_545 S
C545 H541 0.929 . S
C545 C547 1.378 . S
C545 C549 1.350 1_565 S
C546 C549 1.463 . S
C546 C551 1.350 . S
C546 N554 1.427 1_545 S
C547 H538 0.930 . S
C547 C545 1.378 . S
C547 C548 1.367 1_565 S
C548 C547 1.367 1_545 S
C548 C550 1.433 . S
C549 C545 1.350 1_545 S
C549 C546 1.463 . S
C549 N553 1.427 . S
C550 H540 0.929 . S
C550 C548 1.433 . S
C550 N553 1.384 . S
C551 H542 0.929 . S
C551 C543 1.378 . S
C551 C546 1.350 . S
C552 H539 0.929 . S
C552 C544 1.433 1_565 S
C552 N554 1.384 . S
N553 C549 1.427 . S
N553 C550 1.384 . S
N554 C546 1.427 1_565 S
N554 C552 1.384 . S
H555 C561 0.930 . S
H556 C565 0.930 . S
H557 C570 0.929 . S
H558 C568 0.929 . S
H559 C563 0.929 . S
H560 C569 0.929 . S
C561 H555 0.930 . S
C561 C562 1.367 . S
C561 C569 1.378 . S
C562 C561 1.367 . S
C562 C570 1.433 . S
C563 H559 0.929 . S
C563 C565 1.378 . S
C563 C567 1.350 . S
C564 C567 1.463 . S
C564 C569 1.350 . S
C564 N572 1.427 . S
C565 H556 0.930 . S
C565 C563 1.378 . S
C565 C566 1.367 . S
C566 C565 1.367 . S
C566 C568 1.433 . S
C567 C563 1.350 . S
C567 C564 1.463 . S
C567 N571 1.427 . S
C568 H558 0.929 . S
C568 C566 1.433 . S
C568 N571 1.384 . S
C569 H560 0.929 . S
C569 C561 1.378 . S
C569 C564 1.350 . S
C570 H557 0.929 . S
C570 C562 1.433 . S
C570 N572 1.384 . S
N571 C567 1.427 . S
N571 C568 1.384 . S
N572 C564 1.427 . S
N572 C570 1.384 . S
H573 C579 0.930 . S
H574 C583 0.930 . S
H575 C588 0.929 . S
H576 C586 0.929 . S
H577 C581 0.929 . S
H578 C587 0.929 . S
C579 H573 0.930 . S
C579 C580 1.367 1_565 S
C579 C587 1.378 . S
C580 C579 1.367 1_545 S
C580 C588 1.433 . S
C581 H577 0.929 . S
C581 C583 1.378 . S
C581 C585 1.350 . S
C582 C585 1.463 . S
C582 C587 1.350 1_545 S
C582 N590 1.427 . S
C583 H574 0.930 . S
C583 C581 1.378 . S
C583 C584 1.367 . S
C584 C583 1.367 . S
C584 C586 1.433 1_545 S
C585 C581 1.350 . S
C585 C582 1.463 . S
C585 N589 1.427 1_545 S
C586 H576 0.929 . S
C586 C584 1.433 1_565 S
C586 N589 1.384 . S
C587 H578 0.929 . S
C587 C579 1.378 . S
C587 C582 1.350 1_565 S
C588 H575 0.929 . S
C588 C580 1.433 . S
C588 N590 1.384 . S
N589 C585 1.427 1_565 S
N589 C586 1.384 . S
N590 C582 1.427 . S
N590 C588 1.384 . S
H591 C597 0.930 . S
H592 C601 0.930 . S
H593 C606 0.929 . S
H594 C604 0.929 . S
H595 C599 0.929 . S
H596 C605 0.929 . S
C597 H591 0.930 . S
C597 C598 1.367 . S
C597 C605 1.378 . S
C598 C597 1.367 . S
C598 C606 1.433 . S
C599 H595 0.929 . S
C599 C601 1.378 . S
C599 C603 1.350 . S
C600 C603 1.463 . S
C600 C605 1.350 . S
C600 N608 1.427 . S
C601 H592 0.930 . S
C601 C599 1.378 . S
C601 C602 1.367 . S
C602 C601 1.367 . S
C602 C604 1.433 . S
C603 C599 1.350 . S
C603 C600 1.463 . S
C603 N607 1.427 . S
C604 H594 0.929 . S
C604 C602 1.433 . S
C604 N607 1.384 . S
C605 H596 0.929 . S
C605 C597 1.378 . S
C605 C600 1.350 . S
C606 H593 0.929 . S
C606 C598 1.433 . S
C606 N608 1.384 . S
N607 C603 1.427 . S
N607 C604 1.384 . S
N608 C600 1.427 . S
N608 C606 1.384 . S
H609 C615 0.930 . S
H610 C619 0.930 1_655 S
H611 C624 0.937 . S
H612 C622 0.929 . S
H613 C617 0.914 1_655 S
H614 C623 0.929 . S
C615 H609 0.930 . S
C615 C616 1.367 . S
C615 C623 1.378 . S
C616 C615 1.367 . S
C616 C624 1.433 . S
C617 H613 0.914 1_455 S
C617 C619 1.378 . S
C617 C621 1.350 . S
C618 C621 1.463 . S
C618 C623 1.350 . S
C618 N626 1.427 . S
C619 H610 0.930 1_455 S
C619 C617 1.378 . S
C619 C620 1.367 . S
C620 C619 1.367 . S
C620 C622 1.433 . S
C621 C617 1.350 . S
C621 C618 1.463 . S
C621 N625 1.427 . S
C622 H612 0.929 . S
C622 C620 1.433 . S
C622 N625 1.384 . S
C623 H614 0.929 . S
C623 C615 1.378 . S
C623 C618 1.350 . S
C624 H611 0.937 . S
C624 C616 1.433 . S
C624 N626 1.384 . S
N625 C621 1.427 . S
N625 C622 1.384 . S
N626 C618 1.427 . S
N626 C624 1.384 . S
C310 C20 1.186 . S
C314 C280 1.207 . S
C328 C41 1.239 . S
C332 C207 1.231 . S
C346 C64 1.266 . S
C350 C246 1.259 . S
C364 C19 1.218 . S
C368 C285 1.257 . S
C386 C202 1.225 . S
C382 C44 1.227 . S
C404 C241 1.214 . S
C400 C67 1.213 . S
C418 C43 1.170 . S
C422 C129 1.207 . S
C436 C66 1.174 . S
C440 C163 1.204 . S
C454 C21 1.218 . S
C458 C85 1.221 . S
C476 C124 1.248 . S
C472 C42 1.210 . S
C494 C168 1.248 . S
C490 C65 1.199 . S
C508 C18 1.241 . S
C512 C90 1.232 . S
C530 C148 1.461 1_554 S
C526 C17 1.461 . S
C544 C39 1.457 . S
C548 C70 1.458 . S
C562 C62 1.475 . S
C566 C109 1.475 . S
C584 C226 1.443 . S
C580 C40 1.441 . S
C602 C265 1.461 1_556 S
C598 C63 1.462 . S
C616 C16 1.457 . S
C620 C187 1.457 . S
