# Generated by pormake.
# Topology ssa, (4,4)-cn, num edge types: 1
# Building blocks:
#     Node 0, Type 0, BuildingBlock: KOZSID_clean_sbu_0, # of connection points: 4
#     Node 1, Type 0, BuildingBlock: KOZSID_clean_sbu_0, # of connection points: 4
#     Node 2, Type 0, BuildingBlock: KOZSID_clean_sbu_0, # of connection points: 4
#     Node 3, Type 0, BuildingBlock: KOZSID_clean_sbu_0, # of connection points: 4
#     Node 4, Type 0, BuildingBlock: KOZSID_clean_sbu_0, # of connection points: 4
#     Node 5, Type 0, BuildingBlock: KOZSID_clean_sbu_0, # of connection points: 4
#     Node 6, Type 1, BuildingBlock: NAHDIM_clean_linker_0, # of connection points: 4
#     Node 7, Type 1, BuildingBlock: NAHDIM_clean_linker_0, # of connection points: 4
#     Node 8, Type 1, BuildingBlock: NAHDIM_clean_linker_0, # of connection points: 4
#     Node 9, Type 1, BuildingBlock: NAHDIM_clean_linker_0, # of connection points: 4
#     Node 10, Type 1, BuildingBlock: NAHDIM_clean_linker_0, # of connection points: 4
#     Node 11, Type 1, BuildingBlock: NAHDIM_clean_linker_0, # of connection points: 4
#     Edge 12, Type (0, 1), BuildingBlock: EZIPEK_clean_linker_0, # of connection points: 2
#     Edge 13, Type (0, 1), BuildingBlock: EZIPEK_clean_linker_0, # of connection points: 2
#     Edge 14, Type (0, 1), BuildingBlock: EZIPEK_clean_linker_0, # of connection points: 2
#     Edge 15, Type (0, 1), BuildingBlock: EZIPEK_clean_linker_0, # of connection points: 2
#     Edge 16, Type (0, 1), BuildingBlock: EZIPEK_clean_linker_0, # of connection points: 2
#     Edge 17, Type (0, 1), BuildingBlock: EZIPEK_clean_linker_0, # of connection points: 2
#     Edge 18, Type (0, 1), BuildingBlock: EZIPEK_clean_linker_0, # of connection points: 2
#     Edge 19, Type (0, 1), BuildingBlock: EZIPEK_clean_linker_0, # of connection points: 2
#     Edge 20, Type (0, 1), BuildingBlock: EZIPEK_clean_linker_0, # of connection points: 2
#     Edge 21, Type (0, 1), BuildingBlock: EZIPEK_clean_linker_0, # of connection points: 2
#     Edge 22, Type (0, 1), BuildingBlock: EZIPEK_clean_linker_0, # of connection points: 2
#     Edge 23, Type (0, 1), BuildingBlock: EZIPEK_clean_linker_0, # of connection points: 2
#     Edge 24, Type (0, 1), BuildingBlock: EZIPEK_clean_linker_0, # of connection points: 2
#     Edge 25, Type (0, 1), BuildingBlock: EZIPEK_clean_linker_0, # of connection points: 2
#     Edge 26, Type (0, 1), BuildingBlock: EZIPEK_clean_linker_0, # of connection points: 2
#     Edge 27, Type (0, 1), BuildingBlock: EZIPEK_clean_linker_0, # of connection points: 2
#     Edge 28, Type (0, 1), BuildingBlock: EZIPEK_clean_linker_0, # of connection points: 2
#     Edge 29, Type (0, 1), BuildingBlock: EZIPEK_clean_linker_0, # of connection points: 2
#     Edge 30, Type (0, 1), BuildingBlock: EZIPEK_clean_linker_0, # of connection points: 2
#     Edge 31, Type (0, 1), BuildingBlock: EZIPEK_clean_linker_0, # of connection points: 2
#     Edge 32, Type (0, 1), BuildingBlock: EZIPEK_clean_linker_0, # of connection points: 2
#     Edge 33, Type (0, 1), BuildingBlock: EZIPEK_clean_linker_0, # of connection points: 2
#     Edge 34, Type (0, 1), BuildingBlock: EZIPEK_clean_linker_0, # of connection points: 2
#     Edge 35, Type (0, 1), BuildingBlock: EZIPEK_clean_linker_0, # of connection points: 2
# Relax obj value: 0.013
# Max RMSD: 0.051
# Mean RMSD: 0.032
data_MOF--net-ssa--node1-KOZSID_clean_sbu_0--node2-NAHDIM_clean_linker_0--edge1-EZIPEK_clean_linker_0
_symmetry_space_group_name_H-M    P1
_symmetry_Int_Tables_number       1
_symmetry_cell_setting            triclinic
loop_
_symmetry_equiv_pos_as_xyz
'x, y, z'
_cell_length_a     54.074336
_cell_length_b     55.356933
_cell_length_c     47.402205
_cell_angle_alpha  87.297907
_cell_angle_beta   90.415938
_cell_angle_gamma 122.47682
loop_
_atom_site_label
_atom_site_type_symbol
_atom_site_fract_x
_atom_site_fract_y
_atom_site_fract_z
_atom_type_partial_charge
C0 C 0.97599 0.52147 0.98553 0.0
C1 C 0.94726 0.51365 0.99023 0.0
C2 C 0.93584 0.49233 0.01102 0.0
C3 C 0.95813 0.48829 0.0177 0.0
N4 N 0.9831 0.5057 0.00236 0.0
Co5 Co 0.02077 0.50679 0.00493 0.0
N6 N 0.00514 0.47788 0.03774 0.0
C7 C 0.97865 0.46589 0.05085 0.0
C8 C 0.97467 0.44786 0.07362 0.0
C9 C 1.00024 0.44857 0.07536 0.0
C10 C 0.01836 0.46699 0.05339 0.0
N11 N 0.05799 0.50703 0.00669 0.0
C12 C 0.06562 0.49228 0.02441 0.0
C13 C 0.09337 0.49814 0.01788 0.0
C14 C 0.10372 0.5174 0.99526 0.0
C15 C 0.08177 0.5221 0.98927 0.0
N16 N 0.03692 0.53675 0.97304 0.0
C17 C 0.06392 0.54982 0.96081 0.0
C18 C 0.06921 0.5704 0.94027 0.0
C19 C 0.04421 0.57078 0.93952 0.0
C20 C 0.02503 0.55023 0.95967 0.0
N21 N 0.03617 0.53744 0.03218 0.0
C22 C 0.05887 0.57604 0.0766 0.0
C23 C 0.0768 0.5781 0.05393 0.0
C24 C 0.06526 0.55854 0.03254 0.0
C25 C 0.02855 0.55704 0.07314 0.0
C26 C 0.01794 0.53773 0.05176 0.0
N27 N 0.00523 0.47574 0.97787 0.0
C28 C 0.00934 0.45683 0.93433 0.0
C29 C 0.98259 0.43131 0.94023 0.0
C30 C 0.96738 0.42818 0.96503 0.0
C31 C 0.97898 0.45047 0.98339 0.0
C32 C 0.02025 0.47868 0.95341 0.0
H33 H 0.96616 0.44663 0.00187 0.0
H34 H 0.0408 0.4977 0.94787 0.0
H35 H 0.08023 0.56093 0.01642 0.0
H36 H 0.9948 0.52325 0.05154 0.0
C37 C 0.95748 0.47091 0.04041 0.0
C38 C 0.99595 0.54466 0.96558 0.0
C39 C 0.04781 0.47325 0.04817 0.0
C40 C 0.08363 0.54196 0.96878 0.0
H41 H 0.93596 0.52287 0.9801 0.0
H42 H 0.91422 0.48175 0.0208 0.0
H43 H 0.95539 0.43552 0.0872 0.0
H44 H 0.00502 0.43678 0.09096 0.0
H45 H 0.10508 0.48969 0.02864 0.0
H46 H 0.12495 0.52725 0.9848 0.0
H47 H 0.08894 0.58364 0.92746 0.0
H48 H 0.04055 0.58472 0.9258 0.0
H49 H 0.09959 0.59501 0.05162 0.0
H50 H 0.01224 0.55691 0.08618 0.0
H51 H 0.02161 0.45989 0.9151 0.0
H52 H 0.94646 0.40861 0.97012 0.0
C53 C 0.54461 0.00452 0.56665 0.0
C54 C 0.54157 0.98794 0.59086 0.0
C55 C 0.51319 0.96529 0.59204 0.0
C56 C 0.50061 0.96926 0.56856 0.0
N57 N 0.51925 0.9931 0.55238 0.0
Co58 Co 0.5104 0.00658 0.51592 0.0
N59 N 0.46806 0.97443 0.51887 0.0
C60 C 0.45476 0.95421 0.54023 0.0
C61 C 0.42529 0.93558 0.53682 0.0
C62 C 0.41934 0.94436 0.51177 0.0
C63 C 0.44571 0.96781 0.50123 0.0
N64 N 0.50169 0.01938 0.47895 0.0
C65 C 0.4765 0.00744 0.46429 0.0
C66 C 0.48032 0.0222 0.43856 0.0
C67 C 0.50895 0.04435 0.43692 0.0
C68 C 0.52094 0.04174 0.46155 0.0
N69 N 0.55243 0.03937 0.51361 0.0
C70 C 0.56528 0.06055 0.49311 0.0
C71 C 0.59413 0.08073 0.49783 0.0
C72 C 0.60004 0.07207 0.523 0.0
C73 C 0.57436 0.04697 0.5321 0.0
N74 N 0.52035 0.98227 0.49524 0.0
C75 C 0.53422 0.94716 0.46707 0.0
C76 C 0.54894 0.97648 0.46005 0.0
C77 C 0.54158 0.99357 0.47421 0.0
C78 C 0.51237 0.93568 0.488 0.0
C79 C 0.50605 0.95342 0.50186 0.0
N80 N 0.50054 0.03079 0.53672 0.0
C81 C 0.50182 0.07481 0.54147 0.0
C82 C 0.48764 0.06552 0.56823 0.0
C83 C 0.4779 0.03711 0.5771 0.0
C84 C 0.48509 0.02078 0.56173 0.0
C85 C 0.50841 0.05759 0.52654 0.0
H86 H 0.47744 0.99982 0.57043 0.0
H87 H 0.51954 0.06624 0.50661 0.0
H88 H 0.55332 0.01578 0.46778 0.0
H89 H 0.48942 0.94314 0.51786 0.0
C90 C 0.4709 0.95226 0.56235 0.0
C91 C 0.57188 0.0312 0.5585 0.0
C92 C 0.44853 0.98221 0.47381 0.0
C93 C 0.54991 0.06035 0.46928 0.0
H94 H 0.55809 0.992 0.60626 0.0
H95 H 0.5028 0.94829 0.60839 0.0
H96 H 0.41006 0.91748 0.55065 0.0
H97 H 0.39806 0.93433 0.50211 0.0
H98 H 0.46407 0.01746 0.42265 0.0
H99 H 0.51972 0.06046 0.41984 0.0
H100 H 0.60908 0.09945 0.48452 0.0
H101 H 0.62088 0.08297 0.5335 0.0
H102 H 0.56595 0.98615 0.44372 0.0
H103 H 0.50004 0.91291 0.49371 0.0
H104 H 0.50722 0.09493 0.53117 0.0
H105 H 0.46382 0.02635 0.59536 0.0
C106 C 0.55827 0.54006 0.96998 0.0
C107 C 0.55892 0.55361 0.94436 0.0
C108 C 0.53078 0.54658 0.93968 0.0
C109 C 0.51456 0.52916 0.9626 0.0
N110 N 0.53081 0.52504 0.98152 0.0
Co111 Co 0.51572 0.50029 0.01686 0.0
N112 N 0.47888 0.50007 0.01622 0.0
C113 C 0.46818 0.50704 0.99376 0.0
C114 C 0.44213 0.50469 0.99978 0.0
C115 C 0.43602 0.49547 0.02773 0.0
C116 C 0.45874 0.49266 0.03714 0.0
N117 N 0.50059 0.47524 0.05188 0.0
C118 C 0.47855 0.46982 0.06963 0.0
C119 C 0.47462 0.4503 0.09142 0.0
C120 C 0.49495 0.44327 0.08696 0.0
C121 C 0.51004 0.45877 0.06279 0.0
N122 N 0.55251 0.50046 0.01763 0.0
C123 C 0.55698 0.482 0.03285 0.0
C124 C 0.585 0.48806 0.03001 0.0
C125 C 0.59897 0.51159 0.01162 0.0
C126 C 0.57846 0.51837 0.00392 0.0
N127 N 0.53391 0.53437 0.0392 0.0
C128 C 0.55639 0.58182 0.07257 0.0
C129 C 0.55935 0.55887 0.08065 0.0
C130 C 0.54814 0.53541 0.06353 0.0
C131 C 0.54271 0.58098 0.04721 0.0
C132 C 0.53144 0.557 0.03095 0.0
N133 N 0.49715 0.46626 0.99438 0.0
C134 C 0.4978 0.44261 0.95332 0.0
C135 C 0.46849 0.4209 0.95848 0.0
C136 C 0.45405 0.42154 0.98248 0.0
C137 C 0.4688 0.44439 0.00021 0.0
C138 C 0.51175 0.46503 0.97163 0.0
H139 H 0.45697 0.44473 0.01819 0.0
H140 H 0.53408 0.48181 0.96694 0.0
H141 H 0.55054 0.5179 0.07021 0.0
H142 H 0.52024 0.55659 0.01194 0.0
C143 C 0.48533 0.5197 0.96903 0.0
C144 C 0.58347 0.53987 0.98144 0.0
C145 C 0.4596 0.48096 0.06525 0.0
C146 C 0.53604 0.4623 0.05274 0.0
H147 H 0.57768 0.56684 0.93037 0.0
H148 H 0.52325 0.55391 0.92203 0.0
H149 H 0.42955 0.50992 0.98583 0.0
H150 H 0.41694 0.49103 0.03971 0.0
H151 H 0.45861 0.44187 0.10861 0.0
H152 H 0.49894 0.42936 0.10032 0.0
H153 H 0.59447 0.47731 0.04077 0.0
H154 H 0.62157 0.52222 0.00447 0.0
H155 H 0.56999 0.559 0.10014 0.0
H156 H 0.54012 0.59845 0.0404 0.0
H157 H 0.50956 0.44259 0.93493 0.0
H158 H 0.43134 0.4049 0.98705 0.0
C159 C 0.95398 0.44181 0.52541 0.0
C160 C 0.92543 0.42202 0.51774 0.0
C161 C 0.91937 0.43441 0.4955 0.0
C162 C 0.94446 0.46086 0.49079 0.0
N163 N 0.9662 0.46628 0.50882 0.0
Co164 Co 0.00685 0.50152 0.50861 0.0
N165 N 0.99848 0.51885 0.47463 0.0
C166 C 0.97324 0.50708 0.46015 0.0
C167 C 0.97388 0.52437 0.43814 0.0
C168 C 0.00104 0.54882 0.43873 0.0
C169 C 0.01542 0.54496 0.46118 0.0
N170 N 0.04749 0.53678 0.50839 0.0
C171 C 0.0597 0.5612 0.4917 0.0
C172 C 0.08842 0.58082 0.49889 0.0
C173 C 0.09455 0.5685 0.52119 0.0
C174 C 0.06931 0.54219 0.52629 0.0
N175 N 0.01523 0.48416 0.54257 0.0
C176 C 0.04052 0.49591 0.55698 0.0
C177 C 0.03974 0.47874 0.5792 0.0
C178 C 0.01243 0.45442 0.57883 0.0
C179 C 0.99814 0.45818 0.55625 0.0
N180 N 0.02058 0.48299 0.48363 0.0
C181 C 0.03901 0.45527 0.44927 0.0
C182 C 0.0554 0.46997 0.47233 0.0
C183 C 0.04587 0.48362 0.48911 0.0
C184 C 0.0134 0.45465 0.44347 0.0
C185 C 0.00468 0.4686 0.46077 0.0
N186 N 0.99311 0.51997 0.53366 0.0
C187 C 0.99926 0.54646 0.57508 0.0
C188 C 0.97352 0.54561 0.56954 0.0
C189 C 0.95778 0.53212 0.54571 0.0
C190 C 0.96787 0.51944 0.52819 0.0
C191 C 0.00867 0.5337 0.55693 0.0
H192 H 0.95485 0.50928 0.51043 0.0
H193 H 0.02857 0.5352 0.56221 0.0
H194 H 0.05926 0.49442 0.50645 0.0
H195 H 0.98492 0.4673 0.45528 0.0
C196 C 0.94884 0.48032 0.46858 0.0
C197 C 0.96879 0.43598 0.54803 0.0
C198 C 0.04462 0.56722 0.46961 0.0
C199 C 0.06496 0.5227 0.54851 0.0
H200 H 0.91064 0.40064 0.52693 0.0
H201 H 0.89931 0.42497 0.48371 0.0
H202 H 0.95644 0.51997 0.42378 0.0
H203 H 0.00916 0.5676 0.42459 0.0
H204 H 0.1032 0.60203 0.48929 0.0
H205 H 0.11476 0.57786 0.53271 0.0
H206 H 0.05713 0.48318 0.59365 0.0
H207 H 0.00411 0.4358 0.59324 0.0
H208 H 0.07545 0.47087 0.47737 0.0
H209 H 1.00018 0.44341 0.42566 0.0
H210 H 0.01203 0.55688 0.5934 0.0
H211 H 0.93766 0.53113 0.54084 0.0
C212 C 0.4937 0.01308 0.07116 0.0
C213 C 0.50265 0.03048 0.09407 0.0
C214 C 0.5275 0.05586 0.08551 0.0
C215 C 0.53268 0.05241 0.05817 0.0
N216 N 0.51287 0.02626 0.04908 0.0
Co217 Co 0.51409 0.01117 0.01219 0.0
N218 N 0.5556 0.04269 0.005 0.0
C219 C 0.57015 0.06756 0.01816 0.0
C220 C 0.59855 0.08543 0.00852 0.0
C221 C 0.60207 0.07102 0.98785 0.0
C222 C 0.57548 0.04505 0.98604 0.0
N223 N 0.51548 0.99605 0.97534 0.0
C224 C 0.53889 0.00177 0.95939 0.0
C225 C 0.53006 0.98597 0.93538 0.0
C226 C 0.50001 0.97016 0.93617 0.0
C227 C 0.49222 0.97708 0.96058 0.0
N228 N 0.47242 0.97983 0.01919 0.0
C229 C 0.45373 0.96306 0.99948 0.0
C230 C 0.4257 0.94468 0.00982 0.0
C231 C 0.42665 0.95043 0.03772 0.0
C232 C 0.45539 0.97202 0.04288 0.0
N233 N 0.50109 0.03433 0.99306 0.0
C234 C 0.47671 0.05957 0.96101 0.0
C235 C 0.50145 0.0605 0.95106 0.0
C236 C 0.51347 0.04801 0.96755 0.0
C237 C 0.46559 0.04767 0.98811 0.0
C238 C 0.47805 0.03499 0.00374 0.0
N239 N 0.52701 0.98783 0.03094 0.0
C240 C 0.52624 0.94398 0.03439 0.0
C241 C 0.54909 0.95589 0.05349 0.0
C242 C 0.56018 0.98372 0.06178 0.0
C243 C 0.54899 0.99945 0.05008 0.0
C244 C 0.5152 0.96015 0.02368 0.0
H245 H 0.55857 0.02119 0.0561 0.0
H246 H 0.49763 0.9505 0.00891 0.0
H247 H 0.53209 0.04846 0.95919 0.0
H248 H 0.46831 0.02472 0.02391 0.0
C249 C 0.55825 0.07116 0.04241 0.0
C250 C 0.46493 0.98621 0.06978 0.0
C251 C 0.56935 0.02438 0.9646 0.0
C252 C 0.46394 0.96312 0.97244 0.0
H253 H 0.49188 0.02569 0.11455 0.0
H254 H 0.54074 0.07425 0.09807 0.0
H255 H 0.61506 0.10598 0.0163 0.0
H256 H 0.62192 0.07885 0.97543 0.0
H257 H 0.54391 0.98637 0.91876 0.0
H258 H 0.48561 0.95485 0.92116 0.0
H259 H 0.40688 0.92875 0.99854 0.0
H260 H 0.40815 0.94028 0.05242 0.0
H261 H 0.51091 0.07012 0.93035 0.0
H262 H 0.44673 0.04713 0.99656 0.0
H263 H 0.51732 0.92252 0.02736 0.0
H264 H 0.57779 0.99346 0.07672 0.0
C265 C 0.52666 0.56596 0.49685 0.0
C266 C 0.51913 0.58397 0.50796 0.0
C267 C 0.50402 0.57075 0.53275 0.0
C268 C 0.50305 0.54545 0.53528 0.0
N269 N 0.51628 0.54169 0.51348 0.0
Co270 Co 0.51961 0.50796 0.50873 0.0
N271 N 0.48887 0.48464 0.53838 0.0
C272 C 0.47927 0.49488 0.55786 0.0
C273 C 0.45862 0.47393 0.57624 0.0
C274 C 0.45519 0.44894 0.56804 0.0
C275 C 0.47398 0.45606 0.54499 0.0
N276 N 0.52283 0.47426 0.50383 0.0
C277 C 0.50388 0.44633 0.51181 0.0
C278 C 0.513 0.42925 0.50136 0.0
C279 C 0.5393 0.44731 0.48765 0.0
C280 C 0.54443 0.47423 0.48987 0.0
N281 N 0.55068 0.53137 0.47935 0.0
C282 C 0.57002 0.52553 0.46921 0.0
C283 C 0.58963 0.54597 0.4498 0.0
C284 C 0.58247 0.5662 0.44777 0.0
C285 C 0.55875 0.55687 0.46615 0.0
N286 N 0.54953 0.52152 0.53768 0.0
C287 C 0.59075 0.54226 0.58025 0.0
C288 C 0.56866 0.51318 0.58048 0.0
C289 C 0.54827 0.5032 0.55887 0.0
C290 C 0.59229 0.56065 0.55825 0.0
C291 C 0.57152 0.54982 0.53719 0.0
N292 N 0.48958 0.49432 0.4799 0.0
C293 C 0.47227 0.47503 0.43434 0.0
C294 C 0.44541 0.47193 0.44007 0.0
C295 C 0.44108 0.48064 0.4657 0.0
C296 C 0.46359 0.49211 0.48523 0.0
C297 C 0.49405 0.48613 0.45462 0.0
H298 H 0.45974 0.49878 0.50481 0.0
H299 H 0.51429 0.48763 0.44998 0.0
H300 H 0.53135 0.48077 0.55949 0.0
H301 H 0.57318 0.56438 0.52058 0.0
C302 C 0.48704 0.52338 0.55576 0.0
C303 C 0.54667 0.57424 0.47254 0.0
C304 C 0.47914 0.4357 0.53175 0.0
C305 C 0.56642 0.49891 0.47518 0.0
H306 H 0.52476 0.60485 0.49944 0.0
H307 H 0.49445 0.57844 0.54696 0.0
H308 H 0.44689 0.47638 0.59312 0.0
H309 H 0.44072 0.42801 0.57813 0.0
H310 H 0.50213 0.40618 0.50387 0.0
H311 H 0.55249 0.44138 0.47645 0.0
H312 H 0.60662 0.54586 0.438 0.0
H313 H 0.59379 0.58583 0.43463 0.0
H314 H 0.56713 0.49843 0.59725 0.0
H315 H 0.60933 0.58326 0.55746 0.0
H316 H 0.47613 0.4683 0.41464 0.0
H317 H 0.42042 0.47846 0.47066 0.0
C318 C 0.06017 0.37708 0.36102 0.0
C319 C 0.08278 0.40139 0.37914 0.0
C320 C 0.12852 0.424 0.35012 0.0
C321 C 0.14905 0.44916 0.33492 0.0
C322 C 0.17298 0.45146 0.32081 0.0
C323 C 0.17596 0.42755 0.32128 0.0
C324 C 0.15554 0.4021 0.33703 0.0
C325 C 0.13222 0.40068 0.3516 0.0
C326 C 0.19487 0.47938 0.30518 0.0
C327 C 0.15815 0.37626 0.33816 0.0
C328 C 0.37449 0.45129 0.40667 0.0
C329 C 0.34725 0.43824 0.38993 0.0
C330 C 0.32137 0.45223 0.35717 0.0
C331 C 0.29916 0.42407 0.35116 0.0
C332 C 0.27571 0.41885 0.33392 0.0
C333 C 0.27447 0.44221 0.32239 0.0
C334 C 0.29704 0.47057 0.32798 0.0
C335 C 0.32026 0.47518 0.34524 0.0
C336 C 0.25206 0.38836 0.32821 0.0
C337 C 0.29642 0.49597 0.31599 0.0
C338 C 0.32306 0.44979 0.13688 0.0
C339 C 0.29785 0.42232 0.14018 0.0
C340 C 0.27382 0.41714 0.1566 0.0
C341 C 0.2746 0.44035 0.16892 0.0
C342 C 0.29954 0.46849 0.16441 0.0
C343 C 0.32367 0.47284 0.14872 0.0
C344 C 0.24765 0.38685 0.16076 0.0
C345 C 0.30063 0.494 0.17591 0.0
C346 C 0.05306 0.38565 0.13462 0.0
C347 C 0.08248 0.4139 0.12825 0.0
C348 C 0.1264 0.41284 0.13664 0.0
C349 C 0.1302 0.39017 0.14291 0.0
C350 C 0.15379 0.39413 0.15917 0.0
C351 C 0.17441 0.42168 0.16867 0.0
C352 C 0.17105 0.44491 0.16164 0.0
C353 C 0.14698 0.44019 0.14569 0.0
C354 C 0.15664 0.36888 0.16624 0.0
C355 C 0.193 0.4747 0.17081 0.0
C356 C 0.2002 0.42914 0.30495 0.0
C357 C 0.22485 0.43385 0.31955 0.0
C358 C 0.24903 0.43696 0.30531 0.0
C359 C 0.24892 0.43572 0.27556 0.0
C360 C 0.27298 0.43908 0.2605 0.0
C361 C 0.27293 0.43856 0.23115 0.0
C362 C 0.24891 0.43486 0.21571 0.0
C363 C 0.24901 0.43527 0.18581 0.0
C364 C 0.22451 0.43105 0.17124 0.0
C365 C 0.19967 0.42625 0.18564 0.0
C366 C 0.19924 0.42598 0.21548 0.0
C367 C 0.17461 0.42117 0.23065 0.0
C368 C 0.17471 0.4218 0.25995 0.0
C369 C 0.19945 0.42728 0.27525 0.0
C370 C 0.22411 0.4311 0.26048 0.0
C371 C 0.22407 0.4306 0.23053 0.0
C372 C 0.39704 0.47545 0.10793 0.0
C373 C 0.37488 0.46861 0.13053 0.0
O374 O 0.10555 0.42333 0.3626 0.0
O375 O 0.10344 0.40811 0.12072 0.0
O376 O 0.34611 0.45363 0.12155 0.0
O377 O 0.34403 0.45819 0.37435 0.0
H378 H 0.09287 0.39309 0.39385 0.0
H379 H 0.07077 0.36902 0.34779 0.0
H380 H 0.04869 0.38424 0.34681 0.0
H381 H 0.04337 0.35881 0.37475 0.0
H382 H 0.14621 0.46713 0.33412 0.0
H383 H 0.11689 0.38119 0.36371 0.0
H384 H 0.21762 0.4855 0.30991 0.0
H385 H 0.19218 0.49713 0.31074 0.0
H386 H 0.19191 0.47679 0.2821 0.0
H387 H 0.13904 0.35724 0.34912 0.0
H388 H 0.17831 0.38137 0.34951 0.0
H389 H 0.16017 0.37072 0.31644 0.0
H390 H 0.3269 0.42212 0.40209 0.0
H391 H 0.36675 0.44626 0.4294 0.0
H392 H 0.38316 0.47487 0.40721 0.0
H393 H 0.39799 0.43603 0.38888 0.0
H394 H 0.29991 0.40606 0.35991 0.0
H395 H 0.33754 0.49681 0.34983 0.0
H396 H 0.23065 0.38361 0.33647 0.0
H397 H 0.25655 0.37254 0.33811 0.0
H398 H 0.25003 0.38565 0.30508 0.0
H399 H 0.3159 0.51671 0.32193 0.0
H400 H 0.27636 0.49462 0.32372 0.0
H401 H 0.2955 0.49559 0.2926 0.0
H402 H 0.38029 0.48681 0.14388 0.0
H403 H 0.29721 0.40476 0.13031 0.0
H404 H 0.34269 0.49434 0.14514 0.0
H405 H 0.24071 0.3818 0.18338 0.0
H406 H 0.25228 0.37084 0.15353 0.0
H407 H 0.22905 0.38474 0.14857 0.0
H408 H 0.31976 0.51466 0.16736 0.0
H409 H 0.3021 0.49321 0.19926 0.0
H410 H 0.28025 0.49342 0.17076 0.0
H411 H 0.08781 0.42366 0.14898 0.0
H412 H 0.03611 0.39013 0.14053 0.0
H413 H 0.05544 0.37354 0.15267 0.0
H414 H 0.04521 0.37167 0.11642 0.0
H415 H 0.11435 0.36922 0.13536 0.0
H416 H 0.1446 0.4579 0.13967 0.0
H417 H 0.15874 0.36671 0.18941 0.0
H418 H 0.17685 0.37257 0.15598 0.0
H419 H 0.13759 0.34846 0.1591 0.0
H420 H 0.18814 0.49074 0.16232 0.0
H421 H 0.2154 0.48135 0.16366 0.0
H422 H 0.19295 0.47475 0.19423 0.0
H423 H 0.22534 0.43541 0.34231 0.0
H424 H 0.29219 0.44231 0.27124 0.0
H425 H 0.29208 0.44131 0.2207 0.0
H426 H 0.22476 0.43148 0.14833 0.0
H427 H 0.15502 0.41707 0.22001 0.0
H428 H 0.15516 0.41808 0.27046 0.0
H429 H 0.41463 0.45169 0.12104 0.0
H430 H 0.41062 0.49954 0.1055 0.0
H431 H 0.38566 0.47244 0.0872 0.0
C432 C 0.87975 0.31812 0.90288 0.0
C433 C 0.90868 0.32508 0.88892 0.0
C434 C 0.88613 0.29528 0.84943 0.0
C435 C 0.89065 0.27265 0.85077 0.0
C436 C 0.87062 0.2466 0.83865 0.0
C437 C 0.84543 0.24323 0.82547 0.0
C438 C 0.8405 0.26594 0.82499 0.0
C439 C 0.86132 0.29195 0.83649 0.0
C440 C 0.87663 0.22295 0.83938 0.0
C441 C 0.81348 0.263 0.81201 0.0
C442 C 0.69902 0.09579 0.93777 0.0
C443 C 0.6801 0.08788 0.9113 0.0
C444 C 0.71373 0.10332 0.8705 0.0
C445 C 0.71288 0.12721 0.8605 0.0
C446 C 0.73448 0.14808 0.84168 0.0
C447 C 0.7576 0.14521 0.83264 0.0
C448 C 0.75821 0.12089 0.84201 0.0
C449 C 0.736 0.10004 0.86055 0.0
C450 C 0.73275 0.17345 0.83171 0.0
C451 C 0.78255 0.11719 0.83273 0.0
C452 C 0.70996 0.09657 0.6505 0.0
C453 C 0.70435 0.11673 0.6602 0.0
C454 C 0.72579 0.1404 0.67465 0.0
C455 C 0.75341 0.14392 0.67931 0.0
C456 C 0.75933 0.12395 0.6689 0.0
C457 C 0.73755 0.10065 0.65435 0.0
C458 C 0.71906 0.16173 0.68479 0.0
C459 C 0.78863 0.12721 0.67325 0.0
C460 C 0.94904 0.33797 0.63114 0.0
C461 C 0.92234 0.32783 0.61213 0.0
C462 C 0.87959 0.29504 0.64315 0.0
C463 C 0.85449 0.29149 0.65572 0.0
C464 C 0.83415 0.26594 0.67077 0.0
C465 C 0.83938 0.24351 0.67374 0.0
C466 C 0.8646 0.24677 0.6609 0.0
C467 C 0.88443 0.27246 0.64563 0.0
C468 C 0.80731 0.26309 0.68393 0.0
C469 C 0.87089 0.22333 0.66392 0.0
C470 C 0.82494 0.21669 0.81082 0.0
C471 C 0.80362 0.19268 0.82696 0.0
C472 C 0.78146 0.16828 0.81414 0.0
C473 C 0.78058 0.16765 0.78431 0.0
C474 C 0.75831 0.14377 0.77062 0.0
C475 C 0.75712 0.14383 0.74125 0.0
C476 C 0.77789 0.16795 0.72445 0.0
C477 C 0.77633 0.1687 0.69463 0.0
C478 C 0.79681 0.19339 0.67867 0.0
C479 C 0.81929 0.21736 0.69165 0.0
C480 C 0.82176 0.2167 0.72134 0.0
C481 C 0.84464 0.24016 0.73496 0.0
C482 C 0.84617 0.23988 0.76422 0.0
C483 C 0.82472 0.21624 0.78103 0.0
C484 C 0.80219 0.19185 0.76774 0.0
C485 C 0.80071 0.19208 0.73782 0.0
C486 C 0.65237 0.02553 0.65087 0.0
C487 C 0.66002 0.05603 0.64296 0.0
O488 O 0.90577 0.32069 0.86029 0.0
O489 O 0.89859 0.32071 0.62941 0.0
O490 O 0.68972 0.07355 0.63643 0.0
O491 O 0.69344 0.08298 0.88931 0.0
H492 H 0.91317 0.30951 0.89946 0.0
H493 H 0.86324 0.29471 0.90283 0.0
H494 H 0.87034 0.32932 0.89171 0.0
H495 H 0.88338 0.32421 0.92524 0.0
H496 H 0.91012 0.27565 0.86081 0.0
H497 H 0.85815 0.30971 0.83575 0.0
H498 H 0.85887 0.20388 0.85158 0.0
H499 H 0.89794 0.22948 0.84916 0.0
H500 H 0.87671 0.21645 0.81758 0.0
H501 H 0.81014 0.28014 0.81832 0.0
H502 H 0.79365 0.24185 0.81827 0.0
H503 H 0.81576 0.26442 0.78865 0.0
H504 H 0.67907 0.1071 0.90653 0.0
H505 H 0.6869 0.09648 0.95623 0.0
H506 H 0.71921 0.11741 0.9341 0.0
H507 H 0.70611 0.08071 0.9429 0.0
H508 H 0.69534 0.12978 0.86683 0.0
H509 H 0.73636 0.08142 0.86799 0.0
H510 H 0.73512 0.17648 0.80834 0.0
H511 H 0.75105 0.19317 0.84073 0.0
H512 H 0.71177 0.17098 0.83816 0.0
H513 H 0.78028 0.0974 0.8424 0.0
H514 H 0.80405 0.13599 0.83856 0.0
H515 H 0.78265 0.11627 0.80939 0.0
H516 H 0.65537 0.06244 0.6629 0.0
H517 H 0.68355 0.11439 0.65593 0.0
H518 H 0.74181 0.0852 0.64627 0.0
H519 H 0.72056 0.16234 0.70815 0.0
H520 H 0.69685 0.15641 0.67876 0.0
H521 H 0.73556 0.18354 0.67586 0.0
H522 H 0.78935 0.10918 0.66487 0.0
H523 H 0.7935 0.12839 0.69612 0.0
H524 H 0.80615 0.14756 0.66253 0.0
H525 H 0.91736 0.30854 0.60104 0.0
H526 H 0.96861 0.34215 0.6192 0.0
H527 H 0.94423 0.32145 0.64815 0.0
H528 H 0.95456 0.35795 0.64124 0.0
H529 H 0.85092 0.30898 0.65371 0.0
H530 H 0.90383 0.27484 0.63625 0.0
H531 H 0.80869 0.26217 0.70729 0.0
H532 H 0.78728 0.24281 0.67794 0.0
H533 H 0.805 0.28132 0.67741 0.0
H534 H 0.89165 0.22925 0.65297 0.0
H535 H 0.8526 0.20345 0.65509 0.0
H536 H 0.87231 0.21843 0.68665 0.0
H537 H 0.80352 0.19346 0.84979 0.0
H538 H 0.74149 0.12481 0.78248 0.0
H539 H 0.73944 0.12488 0.73187 0.0
H540 H 0.79514 0.19402 0.65585 0.0
H541 H 0.86155 0.25913 0.72317 0.0
H542 H 0.86422 0.25862 0.7735 0.0
H543 H 0.65778 0.0162 0.6336 0.0
H544 H 0.6286 0.01131 0.65621 0.0
H545 H 0.66489 0.02582 0.6697 0.0
C546 C 0.6382 0.68444 0.39037 0.0
C547 C 0.6128 0.68304 0.40646 0.0
C548 C 0.59883 0.71075 0.37557 0.0
C549 C 0.57582 0.70878 0.36014 0.0
C550 C 0.57876 0.73287 0.34571 0.0
C551 C 0.60594 0.7595 0.3459 0.0
C552 C 0.62922 0.76188 0.36194 0.0
C553 C 0.62531 0.73756 0.37698 0.0
C554 C 0.55285 0.7296 0.32992 0.0
C555 C 0.65841 0.78995 0.36271 0.0
C556 C 0.57118 0.91439 0.42923 0.0
C557 C 0.57652 0.8932 0.41673 0.0
C558 C 0.59089 0.88204 0.37348 0.0
C559 C 0.61823 0.8928 0.36045 0.0
C560 C 0.62392 0.87497 0.3453 0.0
C561 C 0.60115 0.84603 0.34193 0.0
C562 C 0.57315 0.83536 0.35432 0.0
C563 C 0.56851 0.85332 0.3703 0.0
C564 C 0.65434 0.88698 0.33326 0.0
C565 C 0.54799 0.80489 0.35084 0.0
C566 C 0.58783 0.88158 0.1575 0.0
C567 C 0.61562 0.8852 0.15708 0.0
C568 C 0.62079 0.86639 0.173 0.0
C569 C 0.59751 0.84307 0.189 0.0
C570 C 0.56926 0.83885 0.18867 0.0
C571 C 0.56502 0.8586 0.17341 0.0
C572 C 0.65121 0.8716 0.17291 0.0
C573 C 0.54355 0.81362 0.20453 0.0
C574 C 0.62868 0.67203 0.16473 0.0
C575 C 0.6019 0.67182 0.15327 0.0
C576 C 0.60948 0.71859 0.1618 0.0
C577 C 0.63409 0.74651 0.16155 0.0
C578 C 0.63458 0.76741 0.17767 0.0
C579 C 0.60932 0.76041 0.19363 0.0
C580 C 0.58407 0.73225 0.19346 0.0
C581 C 0.58457 0.71157 0.17779 0.0
C582 C 0.66199 0.79705 0.17735 0.0
C583 C 0.55629 0.72413 0.20927 0.0
C584 C 0.61 0.78438 0.32844 0.0
C585 C 0.60797 0.80525 0.34179 0.0
C586 C 0.60648 0.82651 0.32615 0.0
C587 C 0.607 0.82688 0.29624 0.0
C588 C 0.60404 0.84689 0.2797 0.0
C589 C 0.60356 0.8464 0.25038 0.0
C590 C 0.60525 0.82541 0.23644 0.0
C591 C 0.60289 0.82362 0.20678 0.0
C592 C 0.6046 0.80247 0.1936 0.0
C593 C 0.60878 0.78291 0.2092 0.0
C594 C 0.61118 0.78438 0.23892 0.0
C595 C 0.6155 0.76521 0.25537 0.0
C596 C 0.61581 0.7656 0.28469 0.0
C597 C 0.61213 0.78538 0.29868 0.0
C598 C 0.6098 0.80618 0.28251 0.0
C599 C 0.60898 0.80547 0.25258 0.0
C600 C 0.58367 0.93091 0.10526 0.0
C601 C 0.59861 0.91825 0.12034 0.0
O602 O 0.59445 0.68618 0.38828 0.0
O603 O 0.60975 0.69948 0.14502 0.0
O604 O 0.58206 0.8996 0.14282 0.0
O605 O 0.5865 0.89966 0.38881 0.0
H606 H 0.62172 0.70119 0.42053 0.0
H607 H 0.64977 0.70377 0.37586 0.0
H608 H 0.63044 0.6654 0.37768 0.0
H609 H 0.65439 0.68534 0.40553 0.0
H610 H 0.5554 0.68813 0.35944 0.0
H611 H 0.64324 0.73969 0.38926 0.0
H612 H 0.55062 0.74811 0.33302 0.0
H613 H 0.53202 0.70957 0.33677 0.0
H614 H 0.5562 0.72888 0.30698 0.0
H615 H 0.67506 0.78775 0.37435 0.0
H616 H 0.65556 0.80588 0.37312 0.0
H617 H 0.6668 0.79855 0.34086 0.0
H618 H 0.58974 0.88715 0.42996 0.0
H619 H 0.58804 0.92457 0.44606 0.0
H620 H 0.52674 0.89045 0.43826 0.0
H621 H 0.58173 0.93397 0.41432 0.0
H622 H 0.6354 0.91502 0.36293 0.0
H623 H 0.54711 0.84485 0.3798 0.0
H624 H 0.66169 0.87203 0.33836 0.0
H625 H 0.67054 0.90824 0.34145 0.0
H626 H 0.6541 0.88947 0.30992 0.0
H627 H 0.52659 0.80157 0.35718 0.0
H628 H 0.55156 0.79008 0.36424 0.0
H629 H 0.54678 0.79899 0.32857 0.0
H630 H 0.62172 0.93415 0.12599 0.0
H631 H 0.63348 0.9029 0.1448 0.0
H632 H 0.54362 0.85589 0.1734 0.0
H633 H 0.65827 0.87116 0.19489 0.0
H634 H 0.66761 0.89246 0.16209 0.0
H635 H 0.65095 0.85423 0.16189 0.0
H636 H 0.52231 0.81033 0.19764 0.0
H637 H 0.54559 0.8174 0.22745 0.0
H638 H 0.5432 0.79367 0.20155 0.0
H639 H 0.58695 0.66391 0.17194 0.0
H640 H 0.62271 0.64977 0.17025 0.0
H641 H 0.63618 0.68429 0.1842 0.0
H642 H 0.64743 0.6822 0.14949 0.0
H643 H 0.6531 0.75183 0.14881 0.0
H644 H 0.56514 0.69028 0.1773 0.0
H645 H 0.66755 0.80454 0.19917 0.0
H646 H 0.65808 0.8122 0.16504 0.0
H647 H 0.68103 0.7978 0.16764 0.0
H648 H 0.53756 0.70259 0.20411 0.0
H649 H 0.55032 0.74015 0.20427 0.0
H650 H 0.55986 0.72399 0.23233 0.0
H651 H 0.6061 0.80412 0.36466 0.0
H652 H 0.60181 0.86303 0.28922 0.0
H653 H 0.60132 0.86243 0.23882 0.0
H654 H 0.60229 0.80101 0.17087 0.0
H655 H 0.61813 0.74934 0.24577 0.0
H656 H 0.61869 0.74999 0.29632 0.0
H657 H 0.59776 0.95457 0.10861 0.0
H658 H 0.5652 0.92709 0.11952 0.0
H659 H 0.57684 0.91463 0.06574 0.0
C660 C 0.72414 0.60191 0.9521 0.0
C661 C 0.70182 0.59931 0.93009 0.0
C662 C 0.72508 0.59046 0.89065 0.0
C663 C 0.75005 0.61816 0.88601 0.0
C664 C 0.77402 0.62275 0.86979 0.0
C665 C 0.77295 0.59918 0.85799 0.0
C666 C 0.74761 0.57131 0.86236 0.0
C667 C 0.72385 0.56744 0.87827 0.0
C668 C 0.8005 0.65278 0.8652 0.0
C669 C 0.74566 0.54559 0.85033 0.0
C670 C 0.9803 0.6403 0.89046 0.0
C671 C 0.9566 0.61396 0.90827 0.0
C672 C 0.91133 0.59892 0.88164 0.0
C673 C 0.88949 0.57675 0.8663 0.0
C674 C 0.86712 0.57881 0.85376 0.0
C675 C 0.86722 0.60433 0.85576 0.0
C676 C 0.88878 0.62662 0.87197 0.0
C677 C 0.91036 0.62351 0.88517 0.0
C678 C 0.84372 0.5538 0.83796 0.0
C679 C 0.88941 0.65398 0.87484 0.0
C680 C 0.91006 0.61179 0.66758 0.0
C681 C 0.89045 0.58745 0.68456 0.0
C682 C 0.86977 0.58747 0.70227 0.0
C683 C 0.869 0.61261 0.7033 0.0
C684 C 0.88888 0.63725 0.68625 0.0
C685 C 0.90888 0.63634 0.66828 0.0
C686 C 0.84825 0.56034 0.71927 0.0
C687 C 0.88873 0.6644 0.6867 0.0
C688 C 0.6485 0.55058 0.69602 0.0
C689 C 0.6695 0.5735 0.67357 0.0
C690 C 0.71597 0.57651 0.67958 0.0
C691 C 0.72425 0.55711 0.68647 0.0
C692 C 0.75074 0.56595 0.69991 0.0
C693 C 0.76978 0.59519 0.70573 0.0
C694 C 0.76222 0.61526 0.69739 0.0
C695 C 0.7352 0.60566 0.68452 0.0
C696 C 0.75822 0.54394 0.70807 0.0
C697 C 0.78259 0.64674 0.70224 0.0
C698 C 0.79816 0.60369 0.84081 0.0
C699 C 0.82137 0.60442 0.85492 0.0
C700 C 0.84537 0.60782 0.83998 0.0
C701 C 0.8468 0.61151 0.81015 0.0
C702 C 0.87134 0.6166 0.79452 0.0
C703 C 0.87151 0.61776 0.76511 0.0
C704 C 0.84703 0.61358 0.75025 0.0
C705 C 0.84591 0.61228 0.72048 0.0
C706 C 0.82105 0.60783 0.70648 0.0
C707 C 0.79703 0.6043 0.72138 0.0
C708 C 0.79791 0.60594 0.75107 0.0
C709 C 0.7742 0.60275 0.76667 0.0
C710 C 0.77469 0.60308 0.79598 0.0
C711 C 0.79845 0.60557 0.81092 0.0
C712 C 0.82283 0.60941 0.79558 0.0
C713 C 0.82278 0.61008 0.76559 0.0
C714 C 0.97818 0.62671 0.66078 0.0
C715 C 0.94721 0.60156 0.65451 0.0
O716 O 0.70172 0.58495 0.90678 0.0
O717 O 0.6898 0.56651 0.66711 0.0
O718 O 0.92898 0.61165 0.64901 0.0
O719 O 0.93289 0.5956 0.89211 0.0
H720 H 0.70815 0.62098 0.92178 0.0
H721 H 0.72019 0.5806 0.95862 0.0
H722 H 0.74689 0.61566 0.94358 0.0
H723 H 0.72263 0.61192 0.97123 0.0
H724 H 0.75084 0.6362 0.89492 0.0
H725 H 0.70434 0.54619 0.8817 0.0
H726 H 0.81993 0.65399 0.87472 0.0
H727 H 0.79743 0.66901 0.87464 0.0
H728 H 0.80525 0.65822 0.84221 0.0
H729 H 0.72576 0.5251 0.85804 0.0
H730 H 0.76532 0.54503 0.85598 0.0
H731 H 0.74513 0.54723 0.82694 0.0
H732 H 0.94779 0.62102 0.9248 0.0
H733 H 0.99752 0.65599 0.90436 0.0
H734 H 0.97093 0.65128 0.87879 0.0
H735 H 0.9911 0.63442 0.87485 0.0
H736 H 0.89013 0.55769 0.86405 0.0
H737 H 0.92659 0.64057 0.89768 0.0
H738 H 0.84859 0.55836 0.81493 0.0
H739 H 0.8218 0.55033 0.84201 0.0
H740 H 0.84277 0.53367 0.84395 0.0
H741 H 0.90919 0.67036 0.88586 0.0
H742 H 0.86967 0.64923 0.88696 0.0
H743 H 0.88882 0.66311 0.85366 0.0
H744 H 0.94055 0.58864 0.67467 0.0
H745 H 0.89044 0.56805 0.68325 0.0
H746 H 0.92383 0.65491 0.65474 0.0
H747 H 0.85296 0.56359 0.74207 0.0
H748 H 0.84941 0.54176 0.71345 0.0
H749 H 0.82552 0.55503 0.71616 0.0
H750 H 0.90796 0.68273 0.67513 0.0
H751 H 0.88863 0.67011 0.70884 0.0
H752 H 0.86846 0.66086 0.67676 0.0
H753 H 0.68026 0.59494 0.68257 0.0
H754 H 0.63259 0.55504 0.70491 0.0
H755 H 0.63619 0.52914 0.68689 0.0
H756 H 0.6613 0.54962 0.71401 0.0
H757 H 0.70946 0.53479 0.6819 0.0
H758 H 0.72945 0.62099 0.6779 0.0
H759 H 0.76402 0.54523 0.73071 0.0
H760 H 0.77761 0.54849 0.69545 0.0
H761 H 0.73986 0.52174 0.70438 0.0
H762 H 0.77491 0.65996 0.69196 0.0
H763 H 0.80494 0.65442 0.69399 0.0
H764 H 0.78425 0.65004 0.72526 0.0
H765 H 0.82031 0.60145 0.87776 0.0
H766 H 0.89057 0.61941 0.80487 0.0
H767 H 0.8908 0.62135 0.75417 0.0
H768 H 0.81984 0.60582 0.68377 0.0
H769 H 0.7549 0.59986 0.75641 0.0
H770 H 0.75583 0.60056 0.80681 0.0
H771 H 0.99304 0.61884 0.66463 0.0
H772 H 0.97748 0.63698 0.68009 0.0
H773 H 0.98762 0.64343 0.64334 0.0
C774 C 0.12112 0.70255 0.45235 0.0
C775 C 0.10606 0.68579 0.42588 0.0
C776 C 0.14505 0.71374 0.38948 0.0
C777 C 0.13949 0.73562 0.38416 0.0
C778 C 0.15748 0.75906 0.36535 0.0
C779 C 0.18194 0.76109 0.35212 0.0
C780 C 0.18777 0.73927 0.35764 0.0
C781 C 0.16893 0.71568 0.3759 0.0
C782 C 0.15048 0.78181 0.35979 0.0
C783 C 0.21416 0.74106 0.34466 0.0
C784 C 0.31649 0.92059 0.44405 0.0
C785 C 0.33585 0.91904 0.42151 0.0
C786 C 0.30974 0.90524 0.37798 0.0
C787 C 0.3163 0.88741 0.36446 0.0
C788 C 0.29507 0.86478 0.34889 0.0
C789 C 0.26697 0.8607 0.346 0.0
C790 C 0.26076 0.87959 0.35866 0.0
C791 C 0.28232 0.9017 0.37462 0.0
C792 C 0.3026 0.84503 0.33596 0.0
C793 C 0.23123 0.87612 0.35571 0.0
C794 C 0.32614 0.89356 0.16229 0.0
C795 C 0.32841 0.87668 0.1837 0.0
C796 C 0.30381 0.85622 0.20005 0.0
C797 C 0.27637 0.85321 0.19535 0.0
C798 C 0.27387 0.86988 0.17331 0.0
C799 C 0.29861 0.88918 0.15647 0.0
C800 C 0.3073 0.83754 0.22192 0.0
C801 C 0.24504 0.86711 0.16714 0.0
C802 C 0.08587 0.65339 0.18518 0.0
C803 C 0.09929 0.66746 0.15566 0.0
C804 C 0.14744 0.70687 0.17104 0.0
C805 C 0.17575 0.71381 0.17709 0.0
C806 C 0.19516 0.73841 0.19147 0.0
C807 C 0.18616 0.75695 0.19931 0.0
C808 C 0.15784 0.75062 0.19236 0.0
C809 C 0.13859 0.72543 0.17862 0.0
C810 C 0.22517 0.7444 0.19851 0.0
C811 C 0.14787 0.7704 0.19955 0.0
C812 C 0.20219 0.78666 0.33356 0.0
C813 C 0.22306 0.8116 0.34652 0.0
C814 C 0.24392 0.83607 0.33058 0.0
C815 C 0.24405 0.83586 0.30079 0.0
C816 C 0.26463 0.86015 0.28409 0.0
C817 C 0.26619 0.85896 0.25496 0.0
C818 C 0.24706 0.83351 0.24145 0.0
C819 C 0.25009 0.83126 0.21226 0.0
C820 C 0.22945 0.80634 0.19916 0.0
C821 C 0.20646 0.783 0.21462 0.0
C822 C 0.20424 0.78411 0.24418 0.0
C823 C 0.18257 0.76034 0.26072 0.0
C824 C 0.18141 0.76131 0.28994 0.0
C825 C 0.20202 0.786 0.30376 0.0
C826 C 0.22337 0.81055 0.28738 0.0
C827 C 0.22465 0.80951 0.25761 0.0
C828 C 0.34716 0.95212 0.13097 0.0
C829 C 0.36537 0.94183 0.14669 0.0
O830 O 0.12836 0.69059 0.40757 0.0
O831 O 0.12945 0.68189 0.1583 0.0
O832 O 0.35009 0.91212 0.1459 0.0
O833 O 0.32957 0.92551 0.39487 0.0
H834 H 0.09271 0.6934 0.41584 0.0
H835 H 0.13778 0.72528 0.44615 0.0
H836 H 0.13246 0.69319 0.46355 0.0
H837 H 0.10575 0.70284 0.46737 0.0
H838 H 0.12133 0.73482 0.39453 0.0
H839 H 0.17313 0.6988 0.38014 0.0
H840 H 0.16756 0.80196 0.36922 0.0
H841 H 0.12879 0.77542 0.36888 0.0
H842 H 0.15068 0.7864 0.3367 0.0
H843 H 0.21739 0.72405 0.35358 0.0
H844 H 0.23427 0.7623 0.34807 0.0
H845 H 0.21138 0.73881 0.32153 0.0
H846 H 0.32888 0.89618 0.4235 0.0
H847 H 0.32305 0.91752 0.46553 0.0
H848 H 0.29323 0.90321 0.44131 0.0
H849 H 0.31758 0.94117 0.44259 0.0
H850 H 0.33798 0.89108 0.36634 0.0
H851 H 0.27768 0.91591 0.38502 0.0
H852 H 0.30452 0.84884 0.31266 0.0
H853 H 0.28498 0.82227 0.34071 0.0
H854 H 0.32366 0.84853 0.34374 0.0
H855 H 0.23108 0.89454 0.36381 0.0
H856 H 0.21444 0.85627 0.36771 0.0
H857 H 0.22485 0.87383 0.3332 0.0
H858 H 0.36797 0.94797 0.16905 0.0
H859 H 0.34936 0.87912 0.18743 0.0
H860 H 0.29614 0.9004 0.13847 0.0
H861 H 0.30858 0.84567 0.24318 0.0
H862 H 0.32764 0.8377 0.21816 0.0
H863 H 0.2883 0.81503 0.22207 0.0
H864 H 0.24808 0.88552 0.15365 0.0
H865 H 0.2335 0.86563 0.18705 0.0
H866 H 0.23077 0.8472 0.15588 0.0
H867 H 0.09265 0.68257 0.14873 0.0
H868 H 0.06239 0.6457 0.18724 0.0
H869 H 0.09695 0.66907 0.2018 0.0
H870 H 0.08869 0.63519 0.19012 0.0
H871 H 0.18239 0.69944 0.17101 0.0
H872 H 0.11682 0.72053 0.17396 0.0
H873 H 0.2298 0.74925 0.22111 0.0
H874 H 0.24204 0.76349 0.18567 0.0
H875 H 0.22737 0.72608 0.19419 0.0
H876 H 0.12683 0.76445 0.18948 0.0
H877 H 0.16479 0.79288 0.19273 0.0
H878 H 0.14484 0.76958 0.22278 0.0
H879 H 0.22354 0.81173 0.36941 0.0
H880 H 0.28017 0.88019 0.29344 0.0
H881 H 0.28283 0.8781 0.24317 0.0
H882 H 0.23186 0.80469 0.17675 0.0
H883 H 0.16651 0.74056 0.25131 0.0
H884 H 0.16442 0.74231 0.30163 0.0
H885 H 0.33902 0.94109 0.11086 0.0
H886 H 0.35902 0.97539 0.12568 0.0
H887 H 0.32831 0.94747 0.1445 0.0
C888 C 0.39392 0.08736 0.57361 0.0
C889 C 0.41748 0.10904 0.59295 0.0
C890 C 0.40825 0.12928 0.63348 0.0
C891 C 0.43573 0.15456 0.63615 0.0
C892 C 0.4388 0.17665 0.65234 0.0
C893 C 0.41374 0.17349 0.66563 0.0
C894 C 0.38595 0.14803 0.66261 0.0
C895 C 0.38376 0.12599 0.64713 0.0
C896 C 0.46885 0.20321 0.65548 0.0
C897 C 0.3585 0.14404 0.67559 0.0
C898 C 0.43883 0.37225 0.58406 0.0
C899 C 0.423 0.3433 0.59869 0.0
C900 C 0.4331 0.31747 0.63564 0.0
C901 C 0.40593 0.29133 0.63539 0.0
C902 C 0.40163 0.26687 0.6505 0.0
C903 C 0.42526 0.26844 0.66531 0.0
C904 C 0.45295 0.29458 0.66467 0.0
C905 C 0.45617 0.31894 0.65055 0.0
C906 C 0.37173 0.23948 0.65091 0.0
C907 C 0.47919 0.29697 0.67894 0.0
C908 C 0.43097 0.30683 0.8513 0.0
C909 C 0.40314 0.28725 0.84068 0.0
C910 C 0.3986 0.26447 0.82475 0.0
C911 C 0.42249 0.26165 0.81864 0.0
C912 C 0.4505 0.28135 0.82929 0.0
C913 C 0.45419 0.30337 0.84583 0.0
C914 C 0.3682 0.24318 0.81472 0.0
C915 C 0.47655 0.27909 0.82334 0.0
C916 C 0.42917 0.07287 0.84647 0.0
C917 C 0.43797 0.09703 0.86669 0.0
C918 C 0.41772 0.12602 0.85069 0.0
C919 C 0.3914 0.12502 0.84847 0.0
C920 C 0.38981 0.14617 0.8326 0.0
C921 C 0.41543 0.16921 0.81903 0.0
C922 C 0.44234 0.17087 0.82173 0.0
C923 C 0.44319 0.14917 0.83725 0.0
C924 C 0.36079 0.14387 0.83023 0.0
C925 C 0.47035 0.19567 0.80826 0.0
C926 C 0.41642 0.19683 0.68243 0.0
C927 C 0.41933 0.2208 0.66779 0.0
C928 C 0.42092 0.24308 0.68215 0.0
C929 C 0.41928 0.24145 0.71202 0.0
C930 C 0.42021 0.26321 0.72714 0.0
C931 C 0.42002 0.26213 0.75651 0.0
C932 C 0.418 0.23883 0.77197 0.0
C933 C 0.41819 0.23769 0.80187 0.0
C934 C 0.41613 0.21416 0.8165 0.0
C935 C 0.41436 0.19183 0.80215 0.0
C936 C 0.41413 0.19255 0.7723 0.0
C937 C 0.41248 0.17044 0.75724 0.0
C938 C 0.41341 0.17186 0.72786 0.0
C939 C 0.41549 0.19519 0.71235 0.0
C940 C 0.41685 0.21757 0.72715 0.0
C941 C 0.41609 0.21621 0.75716 0.0
C942 C 0.43163 0.36346 0.84145 0.0
C943 C 0.42114 0.34262 0.86779 0.0
O944 O 0.40469 0.10718 0.61885 0.0
O945 O 0.41737 0.10462 0.86642 0.0
O946 O 0.43645 0.32899 0.86721 0.0
O947 O 0.43808 0.34173 0.62177 0.0
H948 H 0.42427 0.12994 0.58232 0.0
H949 H 0.37617 0.09168 0.57115 0.0
H950 H 0.38399 0.06499 0.58225 0.0
H951 H 0.40357 0.08933 0.55235 0.0
H952 H 0.45482 0.15669 0.62624 0.0
H953 H 0.36269 0.10622 0.64509 0.0
H954 H 0.46982 0.22178 0.6443 0.0
H955 H 0.48646 0.20097 0.64665 0.0
H956 H 0.47316 0.20802 0.67812 0.0
H957 H 0.33831 0.12526 0.66748 0.0
H958 H 0.35768 0.16349 0.67125 0.0
H959 H 0.35862 0.14072 0.69884 0.0
H960 H 0.39936 0.33425 0.60353 0.0
H961 H 0.42379 0.38022 0.58672 0.0
H962 H 0.44962 0.36514 0.54502 0.0
H963 H 0.45576 0.38751 0.59899 0.0
H964 H 0.3879 0.29007 0.62397 0.0
H965 H 0.47709 0.33922 0.65043 0.0
H966 H 0.37283 0.22324 0.63908 0.0
H967 H 0.35488 0.2427 0.6412 0.0
H968 H 0.36468 0.23069 0.67297 0.0
H969 H 0.50008 0.31629 0.67093 0.0
H970 H 0.48008 0.27772 0.6757 0.0
H971 H 0.47747 0.2986 0.702 0.0
H972 H 0.39719 0.32695 0.86709 0.0
H973 H 0.38466 0.28907 0.84511 0.0
H974 H 0.4755 0.31839 0.85428 0.0
H975 H 0.3679 0.24491 0.79132 0.0
H976 H 0.35145 0.24675 0.82341 0.0
H977 H 0.36201 0.221 0.82097 0.0
H978 H 0.49747 0.29819 0.82986 0.0
H979 H 0.47819 0.27649 0.80047 0.0
H980 H 0.47362 0.25984 0.83504 0.0
H981 H 0.45949 0.11437 0.85796 0.0
H982 H 0.44364 0.0644 0.84911 0.0
H983 H 0.43169 0.08148 0.82431 0.0
H984 H 0.40603 0.05497 0.84953 0.0
H985 H 0.37191 0.10731 0.85905 0.0
H986 H 0.46408 0.15116 0.83894 0.0
H987 H 0.35575 0.14506 0.80764 0.0
H988 H 0.36216 0.16221 0.84038 0.0
H989 H 0.3425 0.12361 0.84042 0.0
H990 H 0.49002 0.1957 0.81525 0.0
H991 H 0.47317 0.21636 0.81341 0.0
H992 H 0.46916 0.19442 0.78495 0.0
H993 H 0.42042 0.22214 0.64488 0.0
H994 H 0.42144 0.28154 0.71644 0.0
H995 H 0.42141 0.27979 0.76694 0.0
H996 H 0.41686 0.21364 0.8394 0.0
H997 H 0.4107 0.15187 0.76803 0.0
H998 H 0.41254 0.15444 0.71745 0.0
H999 H 0.45507 0.38078 0.84341 0.0
H1000 H 0.41867 0.37333 0.83769 0.0
H1001 H 0.42956 0.35181 0.82225 0.0
C1002 C 0.07564 0.47412 0.0912 0.0
C1003 C 0.05977 0.45984 0.06719 0.0
C1004 C 0.06828 0.42124 0.07801 0.0
C1005 C 0.07939 0.43256 0.105 0.0
N1006 N 0.09664 0.47245 0.13573 0.0
N1007 N 0.03901 0.41917 0.03813 0.0
C1008 C 0.08421 0.45991 0.11103 0.0
C1009 C 0.05571 0.43333 0.06063 0.0
N1010 N 0.08322 0.50169 0.09463 0.0
N1011 N 0.07034 0.39947 0.06838 0.0
H1012 H 0.03025 0.42774 0.02427 0.0
H1013 H 0.03191 0.39801 0.03447 0.0
H1014 H 0.07925 0.38951 0.07969 0.0
H1015 H 0.06582 0.39303 0.04768 0.0
H1016 H 0.0979 0.51482 0.1096 0.0
H1017 H 0.07654 0.51241 0.08103 0.0
H1018 H 0.09508 0.4888 0.14371 0.0
H1019 H 0.10888 0.46706 0.14842 0.0
C1020 C 0.61859 0.03513 0.57308 0.0
C1021 C 0.59746 0.04218 0.57747 0.0
C1022 C 0.61996 0.0635 0.62207 0.0
C1023 C 0.64127 0.05596 0.6182 0.0
N1024 N 0.66605 0.04372 0.5842 0.0
N1025 N 0.58219 0.06946 0.60134 0.0
C1026 C 0.64234 0.04483 0.59183 0.0
C1027 C 0.59953 0.05842 0.60045 0.0
N1028 N 0.61533 0.01809 0.55156 0.0
N1029 N 0.61829 0.07479 0.6465 0.0
H1030 H 0.56663 0.06569 0.58611 0.0
H1031 H 0.58496 0.08443 0.61561 0.0
H1032 H 0.63467 0.08383 0.66131 0.0
H1033 H 0.59993 0.07506 0.65239 0.0
H1034 H 0.62769 0.00888 0.54961 0.0
H1035 H 0.59878 0.01132 0.53677 0.0
H1036 H 0.66919 0.03925 0.5639 0.0
H1037 H 0.68408 0.0497 0.59673 0.0
C1038 C 0.5961 0.63021 0.0881 0.0
C1039 C 0.56687 0.60643 0.09098 0.0
C1040 C 0.55793 0.62843 0.13024 0.0
C1041 C 0.58797 0.65162 0.12859 0.0
N1042 N 0.63067 0.67981 0.09763 0.0
N1043 N 0.51787 0.58592 0.10948 0.0
C1044 C 0.60557 0.65418 0.10493 0.0
C1045 C 0.54715 0.60644 0.11051 0.0
N1046 N 0.6151 0.62975 0.06958 0.0
N1047 N 0.53946 0.62742 0.15043 0.0
H1048 H 0.50924 0.56962 0.09529 0.0
H1049 H 0.50167 0.58609 0.12102 0.0
H1050 H 0.5436 0.64532 0.1608 0.0
H1051 H 0.5196 0.60888 0.15655 0.0
H1052 H 0.63759 0.64483 0.06906 0.0
H1053 H 0.60873 0.61312 0.05604 0.0
H1054 H 0.64256 0.68354 0.07899 0.0
H1055 H 0.63797 0.69841 0.10828 0.0
C1056 C 0.94486 0.54175 0.61264 0.0
C1057 C 0.96287 0.55842 0.58909 0.0
C1058 C 0.96066 0.59929 0.60301 0.0
C1059 C 0.94769 0.58471 0.62965 0.0
N1060 N 0.92332 0.53966 0.65777 0.0
N1061 N 0.98932 0.60332 0.56193 0.0
C1062 C 0.93831 0.55514 0.63373 0.0
C1063 C 0.97094 0.58717 0.58417 0.0
N1064 N 0.93335 0.51284 0.61444 0.0
N1065 N 0.96249 0.62428 0.59512 0.0
H1066 H 0.9965 0.59496 0.54707 0.0
H1067 H 0.99919 0.62545 0.55937 0.0
H1068 H 0.95504 0.63417 0.60754 0.0
H1069 H 0.96867 0.63384 0.57481 0.0
H1070 H 0.91725 0.49865 0.62913 0.0
H1071 H 0.93822 0.50244 0.59975 0.0
H1072 H 0.92139 0.52056 0.66462 0.0
H1073 H 0.91222 0.54541 0.67088 0.0
C1074 C 0.43236 0.99406 0.10124 0.0
C1075 C 0.44296 0.97661 0.09356 0.0
C1076 C 0.40997 0.94001 0.12961 0.0
C1077 C 0.39635 0.95565 0.13326 0.0
N1078 N 0.41024 0.00433 0.13894 0.0
N1079 N 0.44381 0.93376 0.10219 0.0
C1080 C 0.4125 0.98495 0.12431 0.0
C1081 C 0.43254 0.94987 0.10853 0.0
N1082 N 0.43968 0.01848 0.08571 0.0
N1083 N 0.4038 0.91801 0.14846 0.0
H1084 H 0.46161 0.94118 0.08827 0.0
H1085 H 0.43476 0.91262 0.10967 0.0
H1086 H 0.39174 0.91437 0.16694 0.0
H1087 H 0.41395 0.90651 0.14824 0.0
H1088 H 0.43008 0.03013 0.0894 0.0
H1089 H 0.45312 0.02564 0.06772 0.0
H1090 H 0.4236 0.0264 0.13454 0.0
H1091 H 0.39728 0.99827 0.15731 0.0
C1092 C 0.48667 0.39388 0.56102 0.0
C1093 C 0.46449 0.40583 0.54377 0.0
C1094 C 0.4074 0.34372 0.54952 0.0
C1095 C 0.42926 0.33482 0.57342 0.0
N1096 N 0.48571 0.3464 0.58468 0.0
N1097 N 0.41084 0.39062 0.52249 0.0
C1098 C 0.47005 0.35689 0.57366 0.0
C1099 C 0.42574 0.38112 0.53715 0.0
N1100 N 0.51548 0.4128 0.56517 0.0
N1101 N 0.37869 0.32459 0.54546 0.0
H1102 H 0.42129 0.41204 0.51526 0.0
H1103 H 0.38871 0.3769 0.51821 0.0
H1104 H 0.36877 0.3038 0.5545 0.0
H1105 H 0.36613 0.33009 0.53332 0.0
H1106 H 0.52834 0.40633 0.57521 0.0
H1107 H 0.52528 0.43449 0.55947 0.0
H1108 H 0.5085 0.35911 0.58547 0.0
H1109 H 0.47506 0.32494 0.59183 0.0
C1110 C 0.54528 0.90287 0.47454 0.0
C1111 C 0.54027 0.92778 0.45257 0.0
C1112 C 0.53294 0.89446 0.39775 0.0
C1113 C 0.54588 0.87469 0.41976 0.0
N1114 N 0.54899 0.85465 0.47435 0.0
N1115 N 0.52614 0.94008 0.40011 0.0
C1116 C 0.54517 0.87353 0.45903 0.0
C1117 C 0.53321 0.92325 0.41492 0.0
N1118 N 0.54927 0.90636 0.50258 0.0
N1119 N 0.52692 0.88957 0.37018 0.0
H1120 H 0.52483 0.95589 0.40976 0.0
H1121 H 0.52153 0.93748 0.37869 0.0
H1122 H 0.52798 0.8734 0.36098 0.0
H1123 H 0.52085 0.9015 0.35772 0.0
H1124 H 0.55205 0.8923 0.51553 0.0
H1125 H 0.55071 0.9238 0.51178 0.0
H1126 H 0.55016 0.85496 0.4963 0.0
H1127 H 0.55062 0.83924 0.46417 0.0
C1128 C 0.62132 0.54115 0.94988 0.0
C1129 C 0.61254 0.55622 0.96603 0.0
C1130 C 0.66154 0.59996 0.95852 0.0
C1131 C 0.67105 0.58396 0.94419 0.0
N1132 N 0.65984 0.5355 0.93678 0.0
N1133 N 0.62491 0.59903 0.98895 0.0
C1134 C 0.65116 0.55369 0.94289 0.0
C1135 C 0.63276 0.58547 0.97105 0.0
N1136 N 0.60136 0.51388 0.94246 0.0
N1137 N 0.67991 0.62893 0.96053 0.0
H1138 H 0.60384 0.58937 0.99775 0.0
H1139 H 0.6396 0.61912 0.99657 0.0
H1140 H 0.70227 0.64027 0.95577 0.0
H1141 H 0.67275 0.64211 0.96642 0.0
H1142 H 0.60722 0.50207 0.93082 0.0
H1143 H 0.57896 0.504 0.94634 0.0
H1144 H 0.68156 0.54128 0.93484 0.0
H1145 H 0.68156 0.54128 0.93484 0.0
C1146 C 0.05281 0.6164 0.46941 0.0
C1147 C 0.05814 0.59687 0.45678 0.0
C1148 C 0.08523 0.63221 0.41792 0.0
C1149 C 0.085 0.65346 0.43344 0.0
N1150 N 0.05376 0.66053 0.46333 0.0
N1151 N 0.07979 0.5858 0.41926 0.0
C1152 C 0.06434 0.64407 0.45618 0.0
C1153 C 0.07435 0.60462 0.43101 0.0
N1154 N 0.03746 0.60883 0.49447 0.0
N1155 N 0.09236 0.63718 0.38976 0.0
H1156 H 0.07153 0.5651 0.42789 0.0
H1157 H 0.09426 0.59152 0.4022 0.0
H1158 H 0.09512 0.6551 0.37841 0.0
H1159 H 0.09081 0.6217 0.3769 0.0
H1160 H 0.03603 0.62338 0.5064 0.0
H1161 H 0.02788 0.58845 0.50441 0.0
H1162 H 0.03677 0.65379 0.47802 0.0
H1163 H 0.05943 0.67946 0.45194 0.0
C1164 C 0.43513 0.05123 0.9301 0.0
C1165 C 0.46241 0.07058 0.94243 0.0
C1166 C 0.46767 0.11012 0.91196 0.0
C1167 C 0.44263 0.08975 0.89705 0.0
N1168 N 0.3947 0.04665 0.90337 0.0
N1169 N 0.5002 0.11916 0.95145 0.0
C1170 C 0.42369 0.06205 0.90981 0.0
C1171 C 0.47725 0.10042 0.93543 0.0
N1172 N 0.42096 0.0224 0.93635 0.0
N1173 N 0.48195 0.13852 0.90362 0.0
H1174 H 0.50696 0.11239 0.96912 0.0
H1175 H 0.51147 0.14135 0.9486 0.0
H1176 H 0.47294 0.1465 0.88938 0.0
H1177 H 0.50216 0.1543 0.91108 0.0
H1178 H 0.40268 0.00736 0.92545 0.0
H1179 H 0.42866 0.01331 0.95083 0.0
H1180 H 0.3795 0.02712 0.91371 0.0
H1181 H 0.38539 0.05531 0.89041 0.0
C1182 C 0.39122 0.42182 0.42817 0.0
C1183 C 0.42149 0.45838 0.41997 0.0
C1184 C 0.39494 0.46124 0.36146 0.0
C1185 C 0.36104 0.42733 0.37453 0.0
N1186 N 0.33806 0.37695 0.40917 0.0
N1187 N 0.44806 0.50398 0.38101 0.0
C1188 C 0.36112 0.40398 0.40405 0.0
C1189 C 0.42416 0.47755 0.38677 0.0
N1190 N 0.39158 0.40778 0.45208 0.0
N1191 N 0.39584 0.47437 0.33643 0.0
H1192 H 0.46487 0.51358 0.39551 0.0
H1193 H 0.4501 0.51543 0.36215 0.0
H1194 H 0.37781 0.46471 0.32326 0.0
H1195 H 0.41436 0.494 0.32981 0.0
H1196 H 0.37458 0.38678 0.45727 0.0
H1197 H 0.40908 0.41774 0.4658 0.0
H1198 H 0.33749 0.36439 0.42655 0.0
H1199 H 0.32046 0.36826 0.39545 0.0
C1200 C 0.97605 0.38622 0.92287 0.0
C1201 C 0.96954 0.40783 0.92039 0.0
C1202 C 0.93051 0.37956 0.88725 0.0
C1203 C 0.93361 0.35596 0.8939 0.0
N1204 N 0.96848 0.3426 0.90467 0.0
N1205 N 0.94272 0.42699 0.89891 0.0
C1206 C 0.9593 0.36104 0.9076 0.0
C1207 C 0.94782 0.40532 0.90164 0.0
N1208 N 0.99717 0.3891 0.94096 0.0
N1209 N 0.91197 0.37773 0.86652 0.0
H1210 H 0.95602 0.44669 0.90798 0.0
H1211 H 0.92472 0.4252 0.88877 0.0
H1212 H 0.89979 0.35972 0.85474 0.0
H1213 H 0.91071 0.39495 0.85885 0.0
H1214 H 1.00029 0.3725 0.94653 0.0
H1215 H 0.01058 0.4077 0.95172 0.0
H1216 H 0.98818 0.34621 0.91245 0.0
H1217 H 0.95836 0.32569 0.89114 0.0
C1218 C 0.97465 0.55604 0.92374 0.0
C1219 C 0.98664 0.56287 0.95092 0.0
C1220 C 0.98196 0.60464 0.9498 0.0
C1221 C 0.96982 0.59782 0.92223 0.0
N1222 N 0.9664 0.57352 0.8795 0.0
N1223 N 0.00672 0.59583 0.9882 0.0
C1224 C 0.96967 0.57547 0.9081 0.0
C1225 C 0.99171 0.5878 0.96351 0.0
N1226 N 0.96763 0.5307 0.91288 0.0
N1227 N 0.98429 0.62721 0.963 0.0
H1228 H 0.01333 0.58354 0.99923 0.0
H1229 H 0.01441 0.61548 0.99695 0.0
H1230 H 0.98218 0.64304 0.95276 0.0
H1231 H 0.98804 0.63022 0.98448 0.0
H1232 H 0.95552 0.52297 0.89463 0.0
H1233 H 0.97164 0.51618 0.92337 0.0
H1234 H 0.96919 0.55948 0.86812 0.0
H1235 H 0.9645 0.58801 0.86637 0.0
C1236 C 0.40583 0.98138 0.45103 0.0
C1237 C 0.42303 0.96927 0.45462 0.0
C1238 C 0.38724 0.92744 0.42904 0.0
C1239 C 0.36876 0.93861 0.42736 0.0
N1240 N 0.3685 0.98226 0.42366 0.0
N1241 N 0.4353 0.93598 0.43976 0.0
C1242 C 0.38064 0.9676 0.43408 0.0
C1243 C 0.41538 0.94393 0.44119 0.0
N1244 N 0.41283 0.0054 0.46466 0.0
N1245 N 0.37797 0.90104 0.41945 0.0
H1246 H 0.45606 0.94772 0.4485 0.0
H1247 H 0.43246 0.91936 0.42787 0.0
H1248 H 0.36016 0.89007 0.40639 0.0
H1249 H 0.38801 0.88983 0.42451 0.0
H1250 H 0.39906 0.01317 0.46531 0.0
H1251 H 0.43136 0.01635 0.47705 0.0
H1252 H 0.37791 0.0041 0.42611 0.0
H1253 H 0.35114 0.97355 0.40974 0.0
C1254 C 0.45409 0.37352 0.93945 0.0
C1255 C 0.45247 0.39828 0.93799 0.0
C1256 C 0.42 0.37968 0.89765 0.0
C1257 C 0.42699 0.35852 0.89534 0.0
N1258 N 0.43309 0.3252 0.92441 0.0
N1259 N 0.43385 0.42537 0.91572 0.0
C1260 C 0.43899 0.35231 0.9193 0.0
C1261 C 0.43507 0.40131 0.91733 0.0
N1262 N 0.47054 0.37055 0.95968 0.0
N1263 N 0.39723 0.37757 0.88286 0.0
H1264 H 0.44418 0.44157 0.93001 0.0
H1265 H 0.42438 0.43021 0.89898 0.0
H1266 H 0.38372 0.36003 0.87078 0.0
H1267 H 0.38945 0.39096 0.88545 0.0
H1268 H 0.47537 0.3547 0.95968 0.0
H1269 H 0.48089 0.38505 0.97551 0.0
H1270 H 0.43935 0.31875 0.94262 0.0
H1271 H 0.41807 0.30812 0.91255 0.0
C1272 C 0.06046 0.45253 0.40382 0.0
C1273 C 0.04862 0.44054 0.4311 0.0
C1274 C 0.05587 0.40109 0.42395 0.0
C1275 C 0.06781 0.41316 0.3963 0.0
N1276 N 0.06903 0.44356 0.35682 0.0
N1277 N 0.02883 0.40047 0.46502 0.0
C1278 C 0.06631 0.43679 0.38521 0.0
C1279 C 0.04455 0.41396 0.44059 0.0
N1280 N 0.06693 0.4794 0.3958 0.0
N1281 N 0.05526 0.37734 0.43448 0.0
H1282 H 0.02043 0.40938 0.47778 0.0
H1283 H 0.022 0.37955 0.47159 0.0
H1284 H 0.05893 0.36437 0.42226 0.0
H1285 H 0.0516 0.37062 0.45576 0.0
H1286 H 0.07876 0.49049 0.37736 0.0
H1287 H 0.06293 0.49171 0.40877 0.0
H1288 H 0.06522 0.45878 0.3478 0.0
H1289 H 0.0714 0.43183 0.34177 0.0
C1290 C 0.59794 0.05067 0.9199 0.0
C1291 C 0.59318 0.03183 0.94359 0.0
C1292 C 0.64126 0.03881 0.935 0.0
C1293 C 0.6484 0.06265 0.91653 0.0
N1294 N 0.62956 0.07956 0.87999 0.0
N1295 N 0.60818 0.00476 0.97178 0.0
C1296 C 0.62532 0.06476 0.90519 0.0
C1297 C 0.61397 0.02439 0.95014 0.0
N1298 N 0.57718 0.05661 0.91272 0.0
N1299 N 0.65988 0.02933 0.93681 0.0
H1300 H 0.58787 0.99313 0.98236 0.0
H1301 H 0.62371 0.00081 0.97985 0.0
H1302 H 0.67842 0.03813 0.92363 0.0
H1303 H 0.65526 0.01095 0.94857 0.0
H1304 H 0.58099 0.07317 0.89841 0.0
H1305 H 0.55626 0.04555 0.92186 0.0
H1306 H 0.61304 0.08028 0.86933 0.0
H1307 H 0.64888 0.08816 0.86809 0.0
C1308 C 0.58572 0.62707 0.46959 0.0
C1309 C 0.56048 0.60338 0.4581 0.0
C1310 C 0.57139 0.62955 0.41227 0.0
C1311 C 0.59535 0.65459 0.42413 0.0
N1312 N 0.62646 0.67627 0.46435 0.0
N1313 N 0.52562 0.58391 0.42103 0.0
C1314 C 0.60279 0.65306 0.45289 0.0
C1315 C 0.55212 0.60538 0.43029 0.0
N1316 N 0.59421 0.62424 0.49613 0.0
N1317 N 0.56801 0.62777 0.38366 0.0
H1318 H 0.51113 0.56582 0.43379 0.0
H1319 H 0.5168 0.58544 0.40192 0.0
H1320 H 0.58245 0.64363 0.36894 0.0
H1321 H 0.55278 0.60894 0.37416 0.0
H1322 H 0.61472 0.63849 0.50424 0.0
H1323 H 0.58085 0.607 0.5101 0.0
H1324 H 0.62957 0.67853 0.486 0.0
H1325 H 0.64331 0.69356 0.45249 0.0
C1326 C 0.48883 0.11193 0.57575 0.0
C1327 C 0.47944 0.08345 0.58449 0.0
C1328 C 0.43838 0.07856 0.61068 0.0
C1329 C 0.44261 0.10367 0.5957 0.0
N1330 N 0.47746 0.14851 0.56978 0.0
N1331 N 0.46463 0.05769 0.6296 0.0
C1332 C 0.4698 0.12195 0.58034 0.0
C1333 C 0.45993 0.07174 0.60796 0.0
N1334 N 0.51727 0.13027 0.56697 0.0
N1335 N 0.41366 0.06025 0.62652 0.0
H1336 H 0.48333 0.05659 0.62985 0.0
H1337 H 0.45242 0.05094 0.64848 0.0
H1338 H 0.39639 0.06301 0.62972 0.0
H1339 H 0.40952 0.04065 0.63506 0.0
H1340 H 0.52676 0.15216 0.56265 0.0
H1341 H 0.53228 0.12389 0.56751 0.0
H1342 H 0.4938 0.16008 0.55432 0.0
H1343 H 0.46819 0.15951 0.57682 0.0
C1344 C 0.44743 0.49137 0.11959 0.0
C1345 C 0.43652 0.47294 0.08677 0.0
C1346 C 0.37399 0.42594 0.11178 0.0
C1347 C 0.38341 0.45014 0.14158 0.0
N1348 N 0.42882 0.49153 0.17413 0.0
N1349 N 0.39517 0.42539 0.05943 0.0
C1350 C 0.4218 0.47877 0.14925 0.0
C1351 C 0.4009 0.44009 0.08305 0.0
N1352 N 0.47536 0.51346 0.12231 0.0
N1353 N 0.34813 0.40065 0.1111 0.0
H1354 H 0.41075 0.43288 0.04307 0.0
H1355 H 0.37508 0.40633 0.05698 0.0
H1356 H 0.33352 0.39348 0.12828 0.0
H1357 H 0.34272 0.38763 0.09402 0.0
H1358 H 0.48243 0.52414 0.14103 0.0
H1359 H 0.4905 0.52002 0.10567 0.0
H1360 H 0.45006 0.50846 0.1779 0.0
H1361 H 0.41281 0.48432 0.19006 0.0
C1362 C 0.96345 0.38792 0.55375 0.0
C1363 C 0.95452 0.40653 0.56166 0.0
C1364 C 0.91532 0.36766 0.59107 0.0
C1365 C 0.92889 0.35171 0.58952 0.0
N1366 N 0.96381 0.34499 0.56496 0.0
N1367 N 0.92325 0.41492 0.59006 0.0
C1368 C 0.95216 0.3612 0.56921 0.0
C1369 C 0.93098 0.39671 0.58115 0.0
N1370 N 0.98226 0.39559 0.53116 0.0
N1371 N 0.88643 0.35445 0.59864 0.0
H1372 H 0.93404 0.43644 0.58303 0.0
H1373 H 0.90769 0.40903 0.60617 0.0
H1374 H 0.87241 0.3322 0.59976 0.0
H1375 H 0.87542 0.3652 0.59852 0.0
H1376 H 0.98725 0.38179 0.52237 0.0
H1377 H 0.99112 0.41511 0.51962 0.0
H1378 H 0.98334 0.35257 0.55377 0.0
H1379 H 0.95463 0.32416 0.57349 0.0
C1380 C 0.53825 0.90361 0.07977 0.0
C1381 C 0.56204 0.93978 0.06398 0.0
C1382 C 0.61852 0.93718 0.07233 0.0
C1383 C 0.59454 0.90424 0.09498 0.0
N1384 N 0.53722 0.85629 0.10421 0.0
N1385 N 0.61778 0.98151 0.04466 0.0
C1386 C 0.55378 0.88345 0.09324 0.0
C1387 C 0.60143 0.95598 0.05914 0.0
N1388 N 0.50908 0.89206 0.08235 0.0
N1389 N 0.64753 0.94816 0.06946 0.0
H1390 H 0.60825 0.99208 0.03571 0.0
H1391 H 0.64025 0.99096 0.04152 0.0
H1392 H 0.65652 0.93723 0.07884 0.0
H1393 H 0.66126 0.96739 0.05792 0.0
H1394 H 0.49529 0.87154 0.09156 0.0
H1395 H 0.49975 0.90372 0.07624 0.0
H1396 H 0.5144 0.84511 0.10416 0.0
H1397 H 0.54727 0.84593 0.11246 0.0
C1398 C 0.64044 0.55796 0.59869 0.0
C1399 C 0.61246 0.55379 0.60294 0.0
C1400 C 0.62703 0.57407 0.64931 0.0
C1401 C 0.65296 0.57361 0.64702 0.0
N1402 N 0.6909 0.58406 0.61306 0.0
N1403 N 0.58034 0.56168 0.63075 0.0
C1404 C 0.66182 0.5711 0.61975 0.0
C1405 C 0.60621 0.56313 0.62768 0.0
N1406 N 0.6465 0.54899 0.57483 0.0
N1407 N 0.62231 0.58627 0.67118 0.0
H1408 H 0.56431 0.55396 0.61535 0.0
H1409 H 0.57498 0.56805 0.6489 0.0
H1410 H 0.63774 0.59727 0.68661 0.0
H1411 H 0.63774 0.59727 0.68661 0.0
H1412 H 0.66553 0.54883 0.5722 0.0
H1413 H 0.63157 0.53971 0.55863 0.0
H1414 H 0.69871 0.58473 0.59282 0.0
H1415 H 0.70717 0.59798 0.62656 0.0
C1416 C 0.05165 0.59608 0.12127 0.0
C1417 C 0.0708 0.59594 0.10114 0.0
C1418 C 0.10906 0.64394 0.11467 0.0
C1419 C 0.08891 0.6449 0.13306 0.0
N1420 N 0.03742 0.62576 0.14165 0.0
N1421 N 0.12191 0.61211 0.09689 0.0
C1422 C 0.05906 0.62216 0.13269 0.0
C1423 C 0.10092 0.61775 0.10272 0.0
N1424 N 0.02891 0.571 0.13306 0.0
N1425 N 0.1348 0.66833 0.10622 0.0
H1426 H 0.11646 0.59135 0.09329 0.0
H1427 H 0.14416 0.62687 0.09991 0.0
H1428 H 0.13932 0.6887 0.11011 0.0
H1429 H 0.14909 0.6683 0.09156 0.0
H1430 H 0.01577 0.57041 0.14945 0.0
H1431 H 0.02618 0.55132 0.12906 0.0
H1432 H 0.01526 0.60973 0.14027 0.0
H1433 H 0.0417 0.64577 0.14677 0.0
loop_
_geom_bond_atom_site_label_1
_geom_bond_atom_site_label_2
_geom_bond_distance
_geom_bond_site_symmetry_2
_ccdc_geom_bond_type
C0 C1 1.443 . S
C0 N4 1.376 1_556 S
C0 C38 1.389 . S
C1 C0 1.443 . S
C1 C2 1.340 1_556 S
C1 H41 0.951 . S
C2 C1 1.340 1_554 S
C2 C3 1.439 . S
C2 H42 0.950 . S
C3 C2 1.439 . S
C3 N4 1.374 . S
C3 C37 1.395 . S
N4 C0 1.376 1_554 S
N4 C3 1.374 . S
N4 Co5 2.009 1_655 S
Co5 N4 2.009 1_455 S
Co5 N6 2.016 . S
Co5 N11 2.007 1_554 S
Co5 N16 1.973 1_554 S
Co5 N21 2.300 . S
Co5 N27 2.265 1_554 S
N6 Co5 2.016 . S
N6 C7 1.376 1_455 S
N6 C10 1.383 . S
C7 N6 1.376 1_655 S
C7 C8 1.446 . S
C7 C37 1.391 . S
C8 C7 1.446 . S
C8 C9 1.339 1_655 S
C8 H43 0.949 . S
C9 C8 1.339 1_455 S
C9 C10 1.439 . S
C9 H44 0.950 . S
C10 N6 1.383 . S
C10 C9 1.439 . S
C10 C39 1.392 . S
N11 Co5 2.007 1_556 S
N11 C12 1.357 1_556 S
N11 C15 1.391 . S
C12 N11 1.357 1_554 S
C12 C13 1.443 . S
C12 C39 1.389 . S
C13 C12 1.443 . S
C13 C14 1.340 1_554 S
C13 H45 0.951 . S
C14 C13 1.340 1_556 S
C14 C15 1.439 . S
C14 H46 0.950 . S
C15 N11 1.391 . S
C15 C14 1.439 . S
C15 C40 1.395 . S
N16 Co5 1.973 1_556 S
N16 C17 1.376 . S
N16 C20 1.383 . S
C17 N16 1.376 . S
C17 C18 1.446 . S
C17 C40 1.391 . S
C18 C17 1.446 . S
C18 C19 1.339 . S
C18 H47 0.949 . S
C19 C18 1.339 . S
C19 C20 1.439 . S
C19 H48 0.950 . S
C20 N16 1.383 . S
C20 C19 1.439 . S
C20 C38 1.392 1_455 S
N21 Co5 2.300 . S
N21 C24 1.332 . S
N21 C26 1.332 . S
C22 C23 1.386 . S
C22 C25 1.388 . S
C23 C22 1.386 . S
C23 C24 1.382 . S
C23 H49 0.950 . S
C24 N21 1.332 . S
C24 C23 1.382 . S
C24 H35 0.952 . S
C25 C22 1.388 . S
C25 C26 1.382 . S
C25 H50 0.950 . S
C26 N21 1.332 . S
C26 C25 1.382 . S
C26 H36 0.948 . S
N27 Co5 2.265 1_556 S
N27 C31 1.332 1_455 S
N27 C32 1.332 . S
C28 C29 1.388 . S
C28 C32 1.382 1_655 S
C28 H51 0.950 1_655 S
C29 C28 1.388 . S
C29 C30 1.386 . S
C30 C29 1.386 . S
C30 C31 1.382 . S
C30 H52 0.950 . S
C31 N27 1.332 1_655 S
C31 C30 1.382 . S
C31 H33 0.976 . S
C32 N27 1.332 . S
C32 C28 1.382 1_455 S
C32 H34 0.948 . S
H33 C31 0.976 . S
H34 C32 0.948 . S
H35 C24 0.952 . S
H36 C26 0.948 . S
C37 C3 1.395 . S
C37 C7 1.391 . S
C38 C0 1.389 . S
C38 C20 1.392 1_655 S
C39 C10 1.392 . S
C39 C12 1.389 . S
C40 C15 1.395 . S
C40 C17 1.391 . S
H41 C1 0.951 . S
H42 C2 0.950 . S
H43 C8 0.949 . S
H44 C9 0.950 . S
H45 C13 0.951 . S
H46 C14 0.950 . S
H47 C18 0.949 . S
H48 C19 0.950 . S
H49 C23 0.950 . S
H50 C25 0.950 . S
H51 C28 0.950 1_455 S
H52 C30 0.950 . S
C53 C54 1.443 . S
C53 N57 1.376 1_545 S
C53 C91 1.389 . S
C54 C53 1.443 . S
C54 C55 1.340 1_545 S
C54 H94 0.951 . S
C55 C54 1.340 1_565 S
C55 C56 1.439 . S
C55 H95 0.950 . S
C56 C55 1.439 . S
C56 N57 1.374 . S
C56 C90 1.395 . S
N57 C53 1.376 1_565 S
N57 C56 1.374 . S
N57 Co58 2.008 1_565 S
Co58 N57 2.008 1_545 S
Co58 N59 1.995 1_545 S
Co58 N64 2.008 . S
Co58 N69 1.995 . S
Co58 N74 2.282 1_545 S
Co58 N80 2.282 . S
N59 Co58 1.995 1_565 S
N59 C60 1.376 . S
N59 C63 1.383 . S
C60 N59 1.376 . S
C60 C61 1.446 . S
C60 C90 1.391 . S
C61 C60 1.446 . S
C61 C62 1.339 . S
C61 H96 0.949 . S
C62 C61 1.339 . S
C62 C63 1.439 . S
C62 H97 0.950 . S
C63 N59 1.383 . S
C63 C62 1.439 . S
C63 C92 1.392 . S
N64 Co58 2.008 . S
N64 C65 1.376 1_545 S
N64 C68 1.374 . S
C65 N64 1.376 1_565 S
C65 C66 1.443 1_565 S
C65 C92 1.389 . S
C66 C65 1.443 1_545 S
C66 C67 1.340 . S
C66 H98 0.953 . S
C67 C66 1.340 . S
C67 C68 1.439 . S
C67 H99 0.950 . S
C68 N64 1.374 . S
C68 C67 1.439 . S
C68 C93 1.395 . S
N69 Co58 1.995 . S
N69 C70 1.376 . S
N69 C73 1.383 . S
C70 N69 1.376 . S
C70 C71 1.446 . S
C70 C93 1.391 . S
C71 C70 1.446 . S
C71 C72 1.339 . S
C71 H100 0.949 . S
C72 C71 1.339 . S
C72 C73 1.439 . S
C72 H101 0.950 . S
C73 N69 1.383 . S
C73 C72 1.439 . S
C73 C91 1.392 . S
N74 Co58 2.282 1_565 S
N74 C77 1.332 . S
N74 C79 1.332 . S
C75 C76 1.386 . S
C75 C78 1.388 . S
C76 C75 1.386 . S
C76 C77 1.382 . S
C76 H102 0.950 . S
C77 N74 1.332 . S
C77 C76 1.382 . S
C77 H88 0.952 1_565 S
C78 C75 1.388 . S
C78 C79 1.382 . S
C78 H103 0.950 . S
C79 N74 1.332 . S
C79 C78 1.382 . S
C79 H89 0.948 . S
N80 Co58 2.282 . S
N80 C84 1.332 . S
N80 C85 1.332 . S
C81 C82 1.388 . S
C81 C85 1.382 . S
C81 H104 0.950 . S
C82 C81 1.388 . S
C82 C83 1.386 . S
C83 C82 1.386 . S
C83 C84 1.382 . S
C83 H105 0.950 . S
C84 N80 1.332 . S
C84 C83 1.382 . S
C84 H86 0.952 1_545 S
C85 N80 1.332 . S
C85 C81 1.382 . S
C85 H87 0.948 . S
H86 C84 0.952 1_565 S
H87 C85 0.948 . S
H88 C77 0.952 1_545 S
H89 C79 0.948 . S
C90 C56 1.395 . S
C90 C60 1.391 . S
C91 C53 1.389 . S
C91 C73 1.392 . S
C92 C63 1.392 . S
C92 C65 1.389 . S
C93 C68 1.395 . S
C93 C70 1.391 . S
H94 C54 0.951 . S
H95 C55 0.950 . S
H96 C61 0.949 . S
H97 C62 0.950 . S
H98 C66 0.953 . S
H99 C67 0.950 . S
H100 C71 0.949 . S
H101 C72 0.950 . S
H102 C76 0.950 . S
H103 C78 0.950 . S
H104 C81 0.950 . S
H105 C83 0.950 . S
C106 C107 1.443 . S
C106 N110 1.376 . S
C106 C144 1.389 . S
C107 C106 1.443 . S
C107 C108 1.340 . S
C107 H147 0.951 . S
C108 C107 1.340 . S
C108 C109 1.439 . S
C108 H148 0.950 . S
C109 C108 1.439 . S
C109 N110 1.374 . S
C109 C143 1.395 . S
N110 C106 1.376 . S
N110 C109 1.374 . S
N110 Co111 2.008 1_556 S
Co111 N110 2.008 1_554 S
Co111 N112 1.995 . S
Co111 N117 2.008 . S
Co111 N122 1.995 . S
Co111 N127 2.282 . S
Co111 N133 2.282 1_554 S
N112 Co111 1.995 . S
N112 C113 1.376 1_554 S
N112 C116 1.383 . S
C113 N112 1.376 1_556 S
C113 C114 1.446 . S
C113 C143 1.391 . S
C114 C113 1.446 . S
C114 C115 1.339 1_556 S
C114 H149 0.949 . S
C115 C114 1.339 1_554 S
C115 C116 1.439 . S
C115 H150 0.950 . S
C116 N112 1.383 . S
C116 C115 1.439 . S
C116 C145 1.392 . S
N117 Co111 2.008 . S
N117 C118 1.376 . S
N117 C121 1.374 . S
C118 N117 1.376 . S
C118 C119 1.443 . S
C118 C145 1.389 . S
C119 C118 1.443 . S
C119 C120 1.340 . S
C119 H151 0.951 . S
C120 C119 1.340 . S
C120 C121 1.439 . S
C120 H152 0.950 . S
C121 N117 1.374 . S
C121 C120 1.439 . S
C121 C146 1.395 . S
N122 Co111 1.995 . S
N122 C123 1.376 . S
N122 C126 1.383 1_554 S
C123 N122 1.376 . S
C123 C124 1.446 . S
C123 C146 1.391 . S
C124 C123 1.446 . S
C124 C125 1.339 . S
C124 H153 0.949 . S
C125 C124 1.339 . S
C125 C126 1.439 1_554 S
C125 H154 0.950 1_554 S
C126 N122 1.383 1_556 S
C126 C125 1.439 1_556 S
C126 C144 1.392 . S
N127 Co111 2.282 . S
N127 C130 1.332 . S
N127 C132 1.332 . S
C128 C129 1.386 . S
C128 C131 1.388 . S
C129 C128 1.386 . S
C129 C130 1.382 . S
C129 H155 0.950 . S
C130 N127 1.332 . S
C130 C129 1.382 . S
C130 H141 0.952 . S
C131 C128 1.388 . S
C131 C132 1.382 . S
C131 H156 0.950 . S
C132 N127 1.332 . S
C132 C131 1.382 . S
C132 H142 0.948 . S
N133 Co111 2.282 1_556 S
N133 C137 1.332 . S
N133 C138 1.332 . S
C134 C135 1.388 . S
C134 C138 1.382 . S
C134 H157 0.950 . S
C135 C134 1.388 . S
C135 C136 1.386 . S
C136 C135 1.386 . S
C136 C137 1.382 . S
C136 H158 0.950 . S
C137 N133 1.332 . S
C137 C136 1.382 . S
C137 H139 0.952 . S
C138 N133 1.332 . S
C138 C134 1.382 . S
C138 H140 0.948 1_556 S
H139 C137 0.952 . S
H140 C138 0.948 1_554 S
H141 C130 0.952 . S
H142 C132 0.948 . S
C143 C109 1.395 . S
C143 C113 1.391 . S
C144 C106 1.389 . S
C144 C126 1.392 . S
C145 C116 1.392 . S
C145 C118 1.389 . S
C146 C121 1.395 . S
C146 C123 1.391 . S
H147 C107 0.951 . S
H148 C108 0.950 . S
H149 C114 0.949 . S
H150 C115 0.950 . S
H151 C119 0.951 . S
H152 C120 0.950 . S
H153 C124 0.949 . S
H154 C125 0.950 1_556 S
H155 C129 0.950 . S
H156 C131 0.950 . S
H157 C134 0.950 . S
H158 C136 0.950 . S
C159 C160 1.443 . S
C159 N163 1.376 . S
C159 C197 1.389 . S
C160 C159 1.443 . S
C160 C161 1.340 . S
C160 H200 0.951 . S
C161 C160 1.340 . S
C161 C162 1.439 . S
C161 H201 0.950 . S
C162 C161 1.439 . S
C162 N163 1.374 . S
C162 C196 1.395 . S
N163 C159 1.376 . S
N163 C162 1.374 . S
N163 Co164 2.008 1_655 S
Co164 N163 2.008 1_455 S
Co164 N165 1.995 1_455 S
Co164 N170 2.008 . S
Co164 N175 1.995 . S
Co164 N180 2.282 . S
Co164 N186 2.282 1_455 S
N165 Co164 1.995 1_655 S
N165 C166 1.376 . S
N165 C169 1.383 1_655 S
C166 N165 1.376 . S
C166 C167 1.446 . S
C166 C196 1.391 . S
C167 C166 1.446 . S
C167 C168 1.326 1_655 S
C167 H202 0.949 . S
C168 C167 1.326 1_455 S
C168 C169 1.450 . S
C168 H203 0.951 . S
C169 N165 1.383 1_455 S
C169 C168 1.450 . S
C169 C198 1.392 . S
N170 Co164 2.008 . S
N170 C171 1.376 . S
N170 C174 1.374 . S
C171 N170 1.376 . S
C171 C172 1.443 . S
C171 C198 1.389 . S
C172 C171 1.443 . S
C172 C173 1.340 . S
C172 H204 0.951 . S
C173 C172 1.340 . S
C173 C174 1.439 . S
C173 H205 0.950 . S
C174 N170 1.374 . S
C174 C173 1.439 . S
C174 C199 1.395 . S
N175 Co164 1.995 . S
N175 C176 1.376 . S
N175 C179 1.383 1_455 S
C176 N175 1.376 . S
C176 C177 1.446 . S
C176 C199 1.391 . S
C177 C176 1.446 . S
C177 C178 1.339 . S
C177 H206 0.949 . S
C178 C177 1.339 . S
C178 C179 1.439 1_455 S
C178 H207 0.950 1_455 S
C179 N175 1.383 1_655 S
C179 C178 1.439 1_655 S
C179 C197 1.392 . S
N180 Co164 2.282 . S
N180 C183 1.332 . S
N180 C185 1.332 . S
C181 C182 1.386 . S
C181 C184 1.388 . S
C182 C181 1.386 . S
C182 C183 1.382 . S
C182 H208 0.950 . S
C183 N180 1.332 . S
C183 C182 1.382 . S
C183 H194 0.952 . S
C184 C181 1.388 . S
C184 C185 1.382 . S
C184 H209 0.950 . S
C185 N180 1.332 . S
C185 C184 1.382 . S
C185 H195 0.948 1_455 S
N186 Co164 2.282 1_655 S
N186 C190 1.332 . S
N186 C191 1.332 . S
C187 C188 1.388 . S
C187 C191 1.382 . S
C187 H210 0.950 . S
C188 C187 1.388 . S
C188 C189 1.386 . S
C189 C188 1.386 . S
C189 C190 1.382 . S
C189 H211 0.950 . S
C190 N186 1.332 . S
C190 C189 1.382 . S
C190 H192 0.952 . S
C191 N186 1.332 . S
C191 C187 1.382 . S
C191 H193 0.948 1_655 S
H192 C190 0.952 . S
H193 C191 0.948 1_455 S
H194 C183 0.952 . S
H195 C185 0.948 1_655 S
C196 C162 1.395 . S
C196 C166 1.391 . S
C197 C159 1.389 . S
C197 C179 1.392 . S
C198 C169 1.392 . S
C198 C171 1.389 . S
C199 C174 1.395 . S
C199 C176 1.391 . S
H200 C160 0.951 . S
H201 C161 0.950 . S
H202 C167 0.949 . S
H203 C168 0.951 . S
H204 C172 0.951 . S
H205 C173 0.950 . S
H206 C177 0.949 . S
H207 C178 0.950 1_655 S
H208 C182 0.950 . S
H209 C184 0.950 . S
H210 C187 0.950 . S
H211 C189 0.950 . S
C212 C213 1.443 1_565 S
C212 N216 1.376 1_565 S
C212 C250 1.389 . S
C213 C212 1.443 1_545 S
C213 C214 1.340 . S
C213 H253 0.951 . S
C214 C213 1.340 . S
C214 C215 1.439 . S
C214 H254 0.950 . S
C215 C214 1.439 . S
C215 N216 1.374 . S
C215 C249 1.395 . S
N216 C212 1.376 1_545 S
N216 C215 1.374 . S
N216 Co217 2.008 . S
Co217 N216 2.008 . S
Co217 N218 1.995 . S
Co217 N223 1.990 1_544 S
Co217 N228 1.995 1_545 S
Co217 N233 2.282 1_554 S
Co217 N239 2.282 1_545 S
N218 Co217 1.995 . S
N218 C219 1.376 . S
N218 C222 1.383 1_554 S
C219 N218 1.376 . S
C219 C220 1.446 . S
C219 C249 1.391 . S
C220 C219 1.446 . S
C220 C221 1.339 1_554 S
C220 H255 0.949 . S
C221 C220 1.339 1_556 S
C221 C222 1.439 . S
C221 H256 0.950 . S
C222 N218 1.383 1_556 S
C222 C221 1.439 . S
C222 C251 1.392 . S
N223 Co217 1.990 1_566 S
N223 C224 1.367 1_565 S
N223 C227 1.400 . S
C224 N223 1.367 1_545 S
C224 C225 1.443 . S
C224 C251 1.389 . S
C225 C224 1.443 . S
C225 C226 1.340 1_545 S
C225 H257 0.951 . S
C226 C225 1.340 1_565 S
C226 C227 1.439 . S
C226 H258 0.950 . S
C227 N223 1.400 . S
C227 C226 1.439 . S
C227 C252 1.395 . S
N228 Co217 1.995 1_565 S
N228 C229 1.376 1_554 S
N228 C232 1.383 . S
C229 N228 1.376 1_556 S
C229 C230 1.446 1_556 S
C229 C252 1.391 . S
C230 C229 1.446 1_554 S
C230 C231 1.339 . S
C230 H259 0.949 1_554 S
C231 C230 1.339 . S
C231 C232 1.439 . S
C231 H260 0.950 . S
C232 N228 1.383 . S
C232 C231 1.439 . S
C232 C250 1.392 . S
N233 Co217 2.282 1_556 S
N233 C236 1.332 . S
N233 C238 1.332 . S
C234 C235 1.386 . S
C234 C237 1.388 . S
C235 C234 1.386 . S
C235 C236 1.382 . S
C235 H261 0.950 . S
C236 N233 1.332 . S
C236 C235 1.382 . S
C236 H247 0.952 1_545 S
C237 C234 1.388 . S
C237 C238 1.382 . S
C237 H262 0.950 . S
C238 N233 1.332 . S
C238 C237 1.382 . S
C238 H248 0.942 1_556 S
N239 Co217 2.282 1_565 S
N239 C243 1.332 . S
N239 C244 1.332 . S
C240 C241 1.388 . S
C240 C244 1.382 . S
C240 H263 0.950 . S
C241 C240 1.388 . S
C241 C242 1.386 . S
C242 C241 1.386 . S
C242 C243 1.382 . S
C242 H264 0.950 . S
C243 N239 1.332 . S
C243 C242 1.382 . S
C243 H245 0.952 1_565 S
C244 N239 1.332 . S
C244 C240 1.382 . S
C244 H246 0.948 . S
H245 C243 0.952 1_545 S
H246 C244 0.948 . S
H247 C236 0.952 1_565 S
H248 C238 0.942 1_554 S
C249 C215 1.395 . S
C249 C219 1.391 . S
C250 C212 1.389 . S
C250 C232 1.392 . S
C251 C222 1.392 . S
C251 C224 1.389 . S
C252 C227 1.395 . S
C252 C229 1.391 . S
H253 C213 0.951 . S
H254 C214 0.950 . S
H255 C220 0.949 . S
H256 C221 0.950 . S
H257 C225 0.951 . S
H258 C226 0.950 . S
H259 C230 0.949 1_556 S
H260 C231 0.950 . S
H261 C235 0.950 . S
H262 C237 0.950 . S
H263 C240 0.950 . S
H264 C242 0.950 . S
C265 C266 1.443 . S
C265 N269 1.376 . S
C265 C303 1.389 . S
C266 C265 1.443 . S
C266 C267 1.340 . S
C266 H306 0.951 . S
C267 C266 1.340 . S
C267 C268 1.439 . S
C267 H307 0.950 . S
C268 C267 1.439 . S
C268 N269 1.374 . S
C268 C302 1.395 . S
N269 C265 1.376 . S
N269 C268 1.374 . S
N269 Co270 2.008 . S
Co270 N269 2.008 . S
Co270 N271 1.995 . S
Co270 N276 2.008 . S
Co270 N281 1.995 . S
Co270 N286 2.282 . S
Co270 N292 2.282 . S
N271 Co270 1.995 . S
N271 C272 1.376 . S
N271 C275 1.383 . S
C272 N271 1.376 . S
C272 C273 1.446 . S
C272 C302 1.391 . S
C273 C272 1.446 . S
C273 C274 1.339 . S
C273 H308 0.949 . S
C274 C273 1.339 . S
C274 C275 1.439 . S
C274 H309 0.950 . S
C275 N271 1.383 . S
C275 C274 1.439 . S
C275 C304 1.392 . S
N276 Co270 2.008 . S
N276 C277 1.376 . S
N276 C280 1.374 . S
C277 N276 1.376 . S
C277 C278 1.443 . S
C277 C304 1.389 . S
C278 C277 1.443 . S
C278 C279 1.340 . S
C278 H310 0.951 . S
C279 C278 1.340 . S
C279 C280 1.439 . S
C279 H311 0.950 . S
C280 N276 1.374 . S
C280 C279 1.439 . S
C280 C305 1.395 . S
N281 Co270 1.995 . S
N281 C282 1.376 . S
N281 C285 1.383 . S
C282 N281 1.376 . S
C282 C283 1.446 . S
C282 C305 1.391 . S
C283 C282 1.446 . S
C283 C284 1.339 . S
C283 H312 0.949 . S
C284 C283 1.339 . S
C284 C285 1.439 . S
C284 H313 0.950 . S
C285 N281 1.383 . S
C285 C284 1.439 . S
C285 C303 1.392 . S
N286 Co270 2.282 . S
N286 C289 1.332 . S
N286 C291 1.332 . S
C287 C288 1.386 . S
C287 C290 1.388 . S
C288 C287 1.386 . S
C288 C289 1.382 . S
C288 H314 0.950 . S
C289 N286 1.332 . S
C289 C288 1.382 . S
C289 H300 0.952 . S
C290 C287 1.388 . S
C290 C291 1.382 . S
C290 H315 0.950 . S
C291 N286 1.332 . S
C291 C290 1.382 . S
C291 H301 0.948 . S
N292 Co270 2.282 . S
N292 C296 1.332 . S
N292 C297 1.332 . S
C293 C294 1.388 . S
C293 C297 1.382 . S
C293 H316 0.950 . S
C294 C293 1.388 . S
C294 C295 1.386 . S
C295 C294 1.386 . S
C295 C296 1.382 . S
C295 H317 0.950 . S
C296 N292 1.332 . S
C296 C295 1.382 . S
C296 H298 0.952 . S
C297 N292 1.332 . S
C297 C293 1.382 . S
C297 H299 0.948 . S
H298 C296 0.952 . S
H299 C297 0.948 . S
H300 C289 0.952 . S
H301 C291 0.948 . S
C302 C268 1.395 . S
C302 C272 1.391 . S
C303 C265 1.389 . S
C303 C285 1.392 . S
C304 C275 1.392 . S
C304 C277 1.389 . S
C305 C280 1.395 . S
C305 C282 1.391 . S
H306 C266 0.951 . S
H307 C267 0.950 . S
H308 C273 0.949 . S
H309 C274 0.950 . S
H310 C278 0.951 . S
H311 C279 0.950 . S
H312 C283 0.949 . S
H313 C284 0.950 . S
H314 C288 0.950 . S
H315 C290 0.950 . S
H316 C293 0.950 . S
H317 C295 0.950 . S
C318 C319 1.560 . S
C318 H379 0.959 . S
C318 H380 0.959 . S
C318 H381 0.960 . S
C319 C318 1.560 . S
C319 O374 1.426 . S
C319 H378 0.980 . S
C320 C321 1.407 . S
C320 C325 1.418 . S
C320 O374 1.334 . S
C321 C320 1.407 . S
C321 C322 1.360 . S
C321 H382 0.929 . S
C322 C321 1.360 . S
C322 C323 1.401 . S
C322 C326 1.527 . S
C323 C322 1.401 . S
C323 C324 1.405 . S
C323 C356 1.587 . S
C324 C323 1.405 . S
C324 C325 1.332 . S
C324 C327 1.496 . S
C325 C320 1.418 . S
C325 C324 1.332 . S
C325 H383 0.929 . S
C326 C322 1.527 . S
C326 H384 0.959 . S
C326 H385 0.961 . S
C326 H386 0.961 . S
C327 C324 1.496 . S
C327 H387 0.960 . S
C327 H388 0.960 . S
C327 H389 0.961 . S
C328 C329 1.517 . S
C328 H391 0.961 . S
C328 H392 0.960 . S
C328 H393 0.959 . S
C329 C328 1.517 . S
C329 O377 1.468 . S
C329 H390 0.980 . S
C330 C331 1.349 . S
C330 C335 1.367 . S
C330 O377 1.408 . S
C331 C330 1.349 . S
C331 C332 1.407 . S
C331 H394 0.930 . S
C332 C331 1.407 . S
C332 C333 1.449 . S
C332 C336 1.535 . S
C333 C332 1.449 . S
C333 C334 1.384 . S
C333 C358 1.553 . S
C334 C333 1.384 . S
C334 C335 1.364 . S
C334 C337 1.450 . S
C335 C330 1.367 . S
C335 C334 1.364 . S
C335 H395 0.931 . S
C336 C332 1.535 . S
C336 H396 0.959 . S
C336 H397 0.961 . S
C336 H398 0.959 . S
C337 C334 1.450 . S
C337 H399 0.960 . S
C337 H400 0.960 . S
C337 H401 0.960 . S
C338 C339 1.309 . S
C338 C343 1.304 . S
C338 O376 1.435 . S
C339 C338 1.309 . S
C339 C340 1.476 . S
C339 H403 0.930 . S
C340 C339 1.476 . S
C340 C341 1.400 . S
C340 C344 1.567 . S
C341 C340 1.400 . S
C341 C342 1.373 . S
C341 C363 1.432 . S
C342 C341 1.373 . S
C342 C343 1.339 . S
C342 C345 1.530 . S
C343 C338 1.304 . S
C343 C342 1.339 . S
C343 H404 0.930 . S
C344 C340 1.567 . S
C344 H405 0.961 . S
C344 H406 0.960 . S
C344 H407 0.958 . S
C345 C342 1.530 . S
C345 H408 0.961 . S
C345 H409 0.960 . S
C345 H410 0.960 . S
C346 C347 1.530 . S
C346 H412 0.961 . S
C346 H413 0.961 . S
C346 H414 0.959 . S
C347 C346 1.530 . S
C347 O375 1.412 . S
C347 H411 0.980 . S
C348 C349 1.288 . S
C348 C353 1.377 . S
C348 O375 1.393 . S
C349 C348 1.288 . S
C349 C350 1.369 . S
C349 H415 0.932 . S
C350 C349 1.369 . S
C350 C351 1.398 . S
C350 C354 1.527 . S
C351 C350 1.398 . S
C351 C352 1.380 . S
C351 C365 1.497 . S
C352 C351 1.380 . S
C352 C353 1.383 . S
C352 C355 1.603 . S
C353 C348 1.377 . S
C353 C352 1.383 . S
C353 H416 0.929 . S
C354 C350 1.527 . S
C354 H417 0.961 . S
C354 H418 0.959 . S
C354 H419 0.959 . S
C355 C352 1.603 . S
C355 H420 0.960 . S
C355 H421 0.962 . S
C355 H422 0.961 . S
C356 C323 1.587 . S
C356 C357 1.360 . S
C356 C369 1.412 . S
C357 C356 1.360 . S
C357 C358 1.365 . S
C357 H423 0.929 . S
C358 C333 1.553 . S
C358 C357 1.365 . S
C358 C359 1.404 . S
C359 C358 1.404 . S
C359 C360 1.395 . S
C359 C370 1.451 . S
C360 C359 1.395 . S
C360 C361 1.322 . S
C360 H424 0.930 . S
C361 C360 1.322 . S
C361 C362 1.459 . S
C361 H425 0.929 . S
C362 C361 1.459 . S
C362 C363 1.445 . S
C362 C371 1.395 . S
C363 C341 1.432 . S
C363 C362 1.445 . S
C363 C364 1.370 . S
C364 C363 1.370 . S
C364 C365 1.438 . S
C364 H426 0.930 . S
C365 C351 1.497 . S
C365 C364 1.438 . S
C365 C366 1.360 . S
C366 C365 1.360 . S
C366 C367 1.401 . S
C366 C371 1.446 . S
C367 C366 1.401 . S
C367 C368 1.347 . S
C367 H427 0.929 . S
C368 C367 1.347 . S
C368 C369 1.455 . S
C368 H428 0.930 . S
C369 C356 1.412 . S
C369 C368 1.455 . S
C369 C370 1.331 . S
C370 C359 1.451 . S
C370 C369 1.331 . S
C370 C371 1.497 . S
C371 C362 1.395 . S
C371 C366 1.446 . S
C371 C370 1.497 . S
C372 C373 1.582 . S
C372 H429 0.962 . S
C372 H430 0.959 . S
C372 H431 0.958 . S
C373 C372 1.582 . S
C373 O376 1.458 . S
C373 H402 0.980 . S
O374 C319 1.426 . S
O374 C320 1.334 . S
O375 C347 1.412 . S
O375 C348 1.393 . S
O376 C338 1.435 . S
O376 C373 1.458 . S
O377 C329 1.468 . S
O377 C330 1.408 . S
H378 C319 0.980 . S
H379 C318 0.959 . S
H380 C318 0.959 . S
H381 C318 0.960 . S
H382 C321 0.929 . S
H383 C325 0.929 . S
H384 C326 0.959 . S
H385 C326 0.961 . S
H386 C326 0.961 . S
H387 C327 0.960 . S
H388 C327 0.960 . S
H389 C327 0.961 . S
H390 C329 0.980 . S
H391 C328 0.961 . S
H392 C328 0.960 . S
H393 C328 0.959 . S
H394 C331 0.930 . S
H395 C335 0.931 . S
H396 C336 0.959 . S
H397 C336 0.961 . S
H398 C336 0.959 . S
H399 C337 0.960 . S
H400 C337 0.960 . S
H401 C337 0.960 . S
H402 C373 0.980 . S
H403 C339 0.930 . S
H404 C343 0.930 . S
H405 C344 0.961 . S
H406 C344 0.960 . S
H407 C344 0.958 . S
H408 C345 0.961 . S
H409 C345 0.960 . S
H410 C345 0.960 . S
H411 C347 0.980 . S
H412 C346 0.961 . S
H413 C346 0.961 . S
H414 C346 0.959 . S
H415 C349 0.932 . S
H416 C353 0.929 . S
H417 C354 0.961 . S
H418 C354 0.959 . S
H419 C354 0.959 . S
H420 C355 0.960 . S
H421 C355 0.962 . S
H422 C355 0.961 . S
H423 C357 0.929 . S
H424 C360 0.930 . S
H425 C361 0.929 . S
H426 C364 0.930 . S
H427 C367 0.929 . S
H428 C368 0.930 . S
H429 C372 0.962 . S
H430 C372 0.959 . S
H431 C372 0.958 . S
C432 C433 1.560 . S
C432 H493 0.959 . S
C432 H494 0.959 . S
C432 H495 0.960 . S
C433 C432 1.560 . S
C433 O488 1.426 . S
C433 H492 0.980 . S
C434 C435 1.407 . S
C434 C439 1.418 . S
C434 O488 1.334 . S
C435 C434 1.407 . S
C435 C436 1.360 . S
C435 H496 0.929 . S
C436 C435 1.360 . S
C436 C437 1.401 . S
C436 C440 1.527 . S
C437 C436 1.401 . S
C437 C438 1.405 . S
C437 C470 1.587 . S
C438 C437 1.405 . S
C438 C439 1.332 . S
C438 C441 1.496 . S
C439 C434 1.418 . S
C439 C438 1.332 . S
C439 H497 0.929 . S
C440 C436 1.527 . S
C440 H498 0.959 . S
C440 H499 0.961 . S
C440 H500 0.961 . S
C441 C438 1.496 . S
C441 H501 0.960 . S
C441 H502 0.960 . S
C441 H503 0.961 . S
C442 C443 1.517 . S
C442 H505 0.961 . S
C442 H506 0.960 . S
C442 H507 0.959 . S
C443 C442 1.517 . S
C443 O491 1.468 . S
C443 H504 0.980 . S
C444 C445 1.349 . S
C444 C449 1.367 . S
C444 O491 1.408 . S
C445 C444 1.349 . S
C445 C446 1.407 . S
C445 H508 0.930 . S
C446 C445 1.407 . S
C446 C447 1.449 . S
C446 C450 1.535 . S
C447 C446 1.449 . S
C447 C448 1.384 . S
C447 C472 1.553 . S
C448 C447 1.384 . S
C448 C449 1.364 . S
C448 C451 1.450 . S
C449 C444 1.367 . S
C449 C448 1.364 . S
C449 H509 0.931 . S
C450 C446 1.535 . S
C450 H510 0.959 . S
C450 H511 0.961 . S
C450 H512 0.959 . S
C451 C448 1.450 . S
C451 H513 0.960 . S
C451 H514 0.960 . S
C451 H515 0.960 . S
C452 C453 1.309 . S
C452 C457 1.304 . S
C452 O490 1.435 . S
C453 C452 1.309 . S
C453 C454 1.476 . S
C453 H517 0.930 . S
C454 C453 1.476 . S
C454 C455 1.400 . S
C454 C458 1.567 . S
C455 C454 1.400 . S
C455 C456 1.373 . S
C455 C477 1.432 . S
C456 C455 1.373 . S
C456 C457 1.339 . S
C456 C459 1.530 . S
C457 C452 1.304 . S
C457 C456 1.339 . S
C457 H518 0.930 . S
C458 C454 1.567 . S
C458 H519 0.961 . S
C458 H520 0.960 . S
C458 H521 0.958 . S
C459 C456 1.530 . S
C459 H522 0.961 . S
C459 H523 0.960 . S
C459 H524 0.960 . S
C460 C461 1.530 . S
C460 H526 0.961 . S
C460 H527 0.961 . S
C460 H528 0.959 . S
C461 C460 1.530 . S
C461 O489 1.412 . S
C461 H525 0.980 . S
C462 C463 1.288 . S
C462 C467 1.377 . S
C462 O489 1.393 . S
C463 C462 1.288 . S
C463 C464 1.369 . S
C463 H529 0.932 . S
C464 C463 1.369 . S
C464 C465 1.398 . S
C464 C468 1.527 . S
C465 C464 1.398 . S
C465 C466 1.380 . S
C465 C479 1.497 . S
C466 C465 1.380 . S
C466 C467 1.383 . S
C466 C469 1.603 . S
C467 C462 1.377 . S
C467 C466 1.383 . S
C467 H530 0.929 . S
C468 C464 1.527 . S
C468 H531 0.961 . S
C468 H532 0.959 . S
C468 H533 0.959 . S
C469 C466 1.603 . S
C469 H534 0.960 . S
C469 H535 0.962 . S
C469 H536 0.961 . S
C470 C437 1.587 . S
C470 C471 1.360 . S
C470 C483 1.412 . S
C471 C470 1.360 . S
C471 C472 1.365 . S
C471 H537 0.929 . S
C472 C447 1.553 . S
C472 C471 1.365 . S
C472 C473 1.404 . S
C473 C472 1.404 . S
C473 C474 1.395 . S
C473 C484 1.451 . S
C474 C473 1.395 . S
C474 C475 1.322 . S
C474 H538 0.930 . S
C475 C474 1.322 . S
C475 C476 1.459 . S
C475 H539 0.929 . S
C476 C475 1.459 . S
C476 C477 1.445 . S
C476 C485 1.395 . S
C477 C455 1.432 . S
C477 C476 1.445 . S
C477 C478 1.370 . S
C478 C477 1.370 . S
C478 C479 1.438 . S
C478 H540 0.930 . S
C479 C465 1.497 . S
C479 C478 1.438 . S
C479 C480 1.360 . S
C480 C479 1.360 . S
C480 C481 1.401 . S
C480 C485 1.446 . S
C481 C480 1.401 . S
C481 C482 1.347 . S
C481 H541 0.929 . S
C482 C481 1.347 . S
C482 C483 1.455 . S
C482 H542 0.930 . S
C483 C470 1.412 . S
C483 C482 1.455 . S
C483 C484 1.331 . S
C484 C473 1.451 . S
C484 C483 1.331 . S
C484 C485 1.497 . S
C485 C476 1.395 . S
C485 C480 1.446 . S
C485 C484 1.497 . S
C486 C487 1.582 . S
C486 H543 0.962 . S
C486 H544 0.959 . S
C486 H545 0.958 . S
C487 C486 1.582 . S
C487 O490 1.458 . S
C487 H516 0.980 . S
O488 C433 1.426 . S
O488 C434 1.334 . S
O489 C461 1.412 . S
O489 C462 1.393 . S
O490 C452 1.435 . S
O490 C487 1.458 . S
O491 C443 1.468 . S
O491 C444 1.408 . S
H492 C433 0.980 . S
H493 C432 0.959 . S
H494 C432 0.959 . S
H495 C432 0.960 . S
H496 C435 0.929 . S
H497 C439 0.929 . S
H498 C440 0.959 . S
H499 C440 0.961 . S
H500 C440 0.961 . S
H501 C441 0.960 . S
H502 C441 0.960 . S
H503 C441 0.961 . S
H504 C443 0.980 . S
H505 C442 0.961 . S
H506 C442 0.960 . S
H507 C442 0.959 . S
H508 C445 0.930 . S
H509 C449 0.931 . S
H510 C450 0.959 . S
H511 C450 0.961 . S
H512 C450 0.959 . S
H513 C451 0.960 . S
H514 C451 0.960 . S
H515 C451 0.960 . S
H516 C487 0.980 . S
H517 C453 0.930 . S
H518 C457 0.930 . S
H519 C458 0.961 . S
H520 C458 0.960 . S
H521 C458 0.958 . S
H522 C459 0.961 . S
H523 C459 0.960 . S
H524 C459 0.960 . S
H525 C461 0.980 . S
H526 C460 0.961 . S
H527 C460 0.961 . S
H528 C460 0.959 . S
H529 C463 0.932 . S
H530 C467 0.929 . S
H531 C468 0.961 . S
H532 C468 0.959 . S
H533 C468 0.959 . S
H534 C469 0.960 . S
H535 C469 0.962 . S
H536 C469 0.961 . S
H537 C471 0.929 . S
H538 C474 0.930 . S
H539 C475 0.929 . S
H540 C478 0.930 . S
H541 C481 0.929 . S
H542 C482 0.930 . S
H543 C486 0.962 . S
H544 C486 0.959 . S
H545 C486 0.958 . S
C546 C547 1.560 . S
C546 H607 0.959 . S
C546 H608 0.959 . S
C546 H609 0.960 . S
C547 C546 1.560 . S
C547 O602 1.426 . S
C547 H606 0.980 . S
C548 C549 1.407 . S
C548 C553 1.418 . S
C548 O602 1.334 . S
C549 C548 1.407 . S
C549 C550 1.360 . S
C549 H610 0.929 . S
C550 C549 1.360 . S
C550 C551 1.401 . S
C550 C554 1.527 . S
C551 C550 1.401 . S
C551 C552 1.405 . S
C551 C584 1.587 . S
C552 C551 1.405 . S
C552 C553 1.332 . S
C552 C555 1.496 . S
C553 C548 1.418 . S
C553 C552 1.332 . S
C553 H611 0.929 . S
C554 C550 1.527 . S
C554 H612 0.959 . S
C554 H613 0.961 . S
C554 H614 0.961 . S
C555 C552 1.496 . S
C555 H615 0.960 . S
C555 H616 0.960 . S
C555 H617 0.961 . S
C556 C557 1.517 . S
C556 H619 0.961 . S
C556 H620 0.960 . S
C556 H621 0.959 . S
C557 C556 1.517 . S
C557 O605 1.468 . S
C557 H618 0.980 . S
C558 C559 1.349 . S
C558 C563 1.367 . S
C558 O605 1.408 . S
C559 C558 1.349 . S
C559 C560 1.407 . S
C559 H622 0.930 . S
C560 C559 1.407 . S
C560 C561 1.449 . S
C560 C564 1.535 . S
C561 C560 1.449 . S
C561 C562 1.384 . S
C561 C586 1.553 . S
C562 C561 1.384 . S
C562 C563 1.364 . S
C562 C565 1.450 . S
C563 C558 1.367 . S
C563 C562 1.364 . S
C563 H623 0.931 . S
C564 C560 1.535 . S
C564 H624 0.959 . S
C564 H625 0.961 . S
C564 H626 0.959 . S
C565 C562 1.450 . S
C565 H627 0.960 . S
C565 H628 0.960 . S
C565 H629 0.960 . S
C566 C567 1.309 . S
C566 C571 1.304 . S
C566 O604 1.435 . S
C567 C566 1.309 . S
C567 C568 1.476 . S
C567 H631 0.930 . S
C568 C567 1.476 . S
C568 C569 1.400 . S
C568 C572 1.567 . S
C569 C568 1.400 . S
C569 C570 1.373 . S
C569 C591 1.432 . S
C570 C569 1.373 . S
C570 C571 1.339 . S
C570 C573 1.530 . S
C571 C566 1.304 . S
C571 C570 1.339 . S
C571 H632 0.930 . S
C572 C568 1.567 . S
C572 H633 0.961 . S
C572 H634 0.960 . S
C572 H635 0.958 . S
C573 C570 1.530 . S
C573 H636 0.961 . S
C573 H637 0.960 . S
C573 H638 0.960 . S
C574 C575 1.530 . S
C574 H640 0.961 . S
C574 H641 0.961 . S
C574 H642 0.959 . S
C575 C574 1.530 . S
C575 O603 1.412 . S
C575 H639 0.980 . S
C576 C577 1.288 . S
C576 C581 1.377 . S
C576 O603 1.393 . S
C577 C576 1.288 . S
C577 C578 1.369 . S
C577 H643 0.932 . S
C578 C577 1.369 . S
C578 C579 1.398 . S
C578 C582 1.527 . S
C579 C578 1.398 . S
C579 C580 1.380 . S
C579 C593 1.497 . S
C580 C579 1.380 . S
C580 C581 1.383 . S
C580 C583 1.603 . S
C581 C576 1.377 . S
C581 C580 1.383 . S
C581 H644 0.929 . S
C582 C578 1.527 . S
C582 H645 0.961 . S
C582 H646 0.959 . S
C582 H647 0.959 . S
C583 C580 1.603 . S
C583 H648 0.960 . S
C583 H649 0.962 . S
C583 H650 0.961 . S
C584 C551 1.587 . S
C584 C585 1.360 . S
C584 C597 1.412 . S
C585 C584 1.360 . S
C585 C586 1.365 . S
C585 H651 0.929 . S
C586 C561 1.553 . S
C586 C585 1.365 . S
C586 C587 1.404 . S
C587 C586 1.404 . S
C587 C588 1.395 . S
C587 C598 1.451 . S
C588 C587 1.395 . S
C588 C589 1.322 . S
C588 H652 0.930 . S
C589 C588 1.322 . S
C589 C590 1.459 . S
C589 H653 0.929 . S
C590 C589 1.459 . S
C590 C591 1.445 . S
C590 C599 1.395 . S
C591 C569 1.432 . S
C591 C590 1.445 . S
C591 C592 1.370 . S
C592 C591 1.370 . S
C592 C593 1.438 . S
C592 H654 0.930 . S
C593 C579 1.497 . S
C593 C592 1.438 . S
C593 C594 1.360 . S
C594 C593 1.360 . S
C594 C595 1.401 . S
C594 C599 1.446 . S
C595 C594 1.401 . S
C595 C596 1.347 . S
C595 H655 0.929 . S
C596 C595 1.347 . S
C596 C597 1.455 . S
C596 H656 0.930 . S
C597 C584 1.412 . S
C597 C596 1.455 . S
C597 C598 1.331 . S
C598 C587 1.451 . S
C598 C597 1.331 . S
C598 C599 1.497 . S
C599 C590 1.395 . S
C599 C594 1.446 . S
C599 C598 1.497 . S
C600 C601 1.582 . S
C600 H657 0.962 . S
C600 H658 0.959 . S
C600 H659 0.958 . S
C601 C600 1.582 . S
C601 O604 1.458 . S
C601 H630 0.980 . S
O602 C547 1.426 . S
O602 C548 1.334 . S
O603 C575 1.412 . S
O603 C576 1.393 . S
O604 C566 1.435 . S
O604 C601 1.458 . S
O605 C557 1.468 . S
O605 C558 1.408 . S
H606 C547 0.980 . S
H607 C546 0.959 . S
H608 C546 0.959 . S
H609 C546 0.960 . S
H610 C549 0.929 . S
H611 C553 0.929 . S
H612 C554 0.959 . S
H613 C554 0.961 . S
H614 C554 0.961 . S
H615 C555 0.960 . S
H616 C555 0.960 . S
H617 C555 0.961 . S
H618 C557 0.980 . S
H619 C556 0.961 . S
H620 C556 0.960 . S
H621 C556 0.959 . S
H622 C559 0.930 . S
H623 C563 0.931 . S
H624 C564 0.959 . S
H625 C564 0.961 . S
H626 C564 0.959 . S
H627 C565 0.960 . S
H628 C565 0.960 . S
H629 C565 0.960 . S
H630 C601 0.980 . S
H631 C567 0.930 . S
H632 C571 0.930 . S
H633 C572 0.961 . S
H634 C572 0.960 . S
H635 C572 0.958 . S
H636 C573 0.961 . S
H637 C573 0.960 . S
H638 C573 0.960 . S
H639 C575 0.980 . S
H640 C574 0.961 . S
H641 C574 0.961 . S
H642 C574 0.959 . S
H643 C577 0.932 . S
H644 C581 0.929 . S
H645 C582 0.961 . S
H646 C582 0.959 . S
H647 C582 0.959 . S
H648 C583 0.960 . S
H649 C583 0.962 . S
H650 C583 0.961 . S
H651 C585 0.929 . S
H652 C588 0.930 . S
H653 C589 0.929 . S
H654 C592 0.930 . S
H655 C595 0.929 . S
H656 C596 0.930 . S
H657 C600 0.962 . S
H658 C600 0.959 . S
H659 C600 0.958 . S
C660 C661 1.560 . S
C660 H721 0.959 . S
C660 H722 0.959 . S
C660 H723 0.960 . S
C661 C660 1.560 . S
C661 O716 1.426 . S
C661 H720 0.980 . S
C662 C663 1.407 . S
C662 C667 1.418 . S
C662 O716 1.334 . S
C663 C662 1.407 . S
C663 C664 1.360 . S
C663 H724 0.929 . S
C664 C663 1.360 . S
C664 C665 1.401 . S
C664 C668 1.527 . S
C665 C664 1.401 . S
C665 C666 1.405 . S
C665 C698 1.587 . S
C666 C665 1.405 . S
C666 C667 1.332 . S
C666 C669 1.496 . S
C667 C662 1.418 . S
C667 C666 1.332 . S
C667 H725 0.929 . S
C668 C664 1.527 . S
C668 H726 0.959 . S
C668 H727 0.961 . S
C668 H728 0.961 . S
C669 C666 1.496 . S
C669 H729 0.960 . S
C669 H730 0.960 . S
C669 H731 0.961 . S
C670 C671 1.517 . S
C670 H733 0.961 . S
C670 H734 0.960 . S
C670 H735 0.959 . S
C671 C670 1.517 . S
C671 O719 1.468 . S
C671 H732 0.980 . S
C672 C673 1.349 . S
C672 C677 1.367 . S
C672 O719 1.408 . S
C673 C672 1.349 . S
C673 C674 1.407 . S
C673 H736 0.930 . S
C674 C673 1.407 . S
C674 C675 1.449 . S
C674 C678 1.535 . S
C675 C674 1.449 . S
C675 C676 1.384 . S
C675 C700 1.553 . S
C676 C675 1.384 . S
C676 C677 1.364 . S
C676 C679 1.450 . S
C677 C672 1.367 . S
C677 C676 1.364 . S
C677 H737 0.931 . S
C678 C674 1.535 . S
C678 H738 0.959 . S
C678 H739 0.961 . S
C678 H740 0.959 . S
C679 C676 1.450 . S
C679 H741 0.960 . S
C679 H742 0.960 . S
C679 H743 0.960 . S
C680 C681 1.309 . S
C680 C685 1.304 . S
C680 O718 1.435 . S
C681 C680 1.309 . S
C681 C682 1.476 . S
C681 H745 0.930 . S
C682 C681 1.476 . S
C682 C683 1.400 . S
C682 C686 1.567 . S
C683 C682 1.400 . S
C683 C684 1.373 . S
C683 C705 1.432 . S
C684 C683 1.373 . S
C684 C685 1.339 . S
C684 C687 1.530 . S
C685 C680 1.304 . S
C685 C684 1.339 . S
C685 H746 0.930 . S
C686 C682 1.567 . S
C686 H747 0.961 . S
C686 H748 0.960 . S
C686 H749 0.958 . S
C687 C684 1.530 . S
C687 H750 0.961 . S
C687 H751 0.960 . S
C687 H752 0.960 . S
C688 C689 1.530 . S
C688 H754 0.961 . S
C688 H755 0.961 . S
C688 H756 0.959 . S
C689 C688 1.530 . S
C689 O717 1.412 . S
C689 H753 0.980 . S
C690 C691 1.288 . S
C690 C695 1.377 . S
C690 O717 1.393 . S
C691 C690 1.288 . S
C691 C692 1.369 . S
C691 H757 0.932 . S
C692 C691 1.369 . S
C692 C693 1.398 . S
C692 C696 1.527 . S
C693 C692 1.398 . S
C693 C694 1.380 . S
C693 C707 1.497 . S
C694 C693 1.380 . S
C694 C695 1.383 . S
C694 C697 1.603 . S
C695 C690 1.377 . S
C695 C694 1.383 . S
C695 H758 0.929 . S
C696 C692 1.527 . S
C696 H759 0.961 . S
C696 H760 0.959 . S
C696 H761 0.959 . S
C697 C694 1.603 . S
C697 H762 0.960 . S
C697 H763 0.962 . S
C697 H764 0.961 . S
C698 C665 1.587 . S
C698 C699 1.360 . S
C698 C711 1.412 . S
C699 C698 1.360 . S
C699 C700 1.365 . S
C699 H765 0.929 . S
C700 C675 1.553 . S
C700 C699 1.365 . S
C700 C701 1.404 . S
C701 C700 1.404 . S
C701 C702 1.395 . S
C701 C712 1.451 . S
C702 C701 1.395 . S
C702 C703 1.322 . S
C702 H766 0.930 . S
C703 C702 1.322 . S
C703 C704 1.459 . S
C703 H767 0.929 . S
C704 C703 1.459 . S
C704 C705 1.445 . S
C704 C713 1.395 . S
C705 C683 1.432 . S
C705 C704 1.445 . S
C705 C706 1.370 . S
C706 C705 1.370 . S
C706 C707 1.438 . S
C706 H768 0.930 . S
C707 C693 1.497 . S
C707 C706 1.438 . S
C707 C708 1.360 . S
C708 C707 1.360 . S
C708 C709 1.401 . S
C708 C713 1.446 . S
C709 C708 1.401 . S
C709 C710 1.347 . S
C709 H769 0.929 . S
C710 C709 1.347 . S
C710 C711 1.455 . S
C710 H770 0.930 . S
C711 C698 1.412 . S
C711 C710 1.455 . S
C711 C712 1.331 . S
C712 C701 1.451 . S
C712 C711 1.331 . S
C712 C713 1.497 . S
C713 C704 1.395 . S
C713 C708 1.446 . S
C713 C712 1.497 . S
C714 C715 1.582 . S
C714 H771 0.962 . S
C714 H772 0.959 . S
C714 H773 0.958 . S
C715 C714 1.582 . S
C715 O718 1.458 . S
C715 H744 0.980 . S
O716 C661 1.426 . S
O716 C662 1.334 . S
O717 C689 1.412 . S
O717 C690 1.393 . S
O718 C680 1.435 . S
O718 C715 1.458 . S
O719 C671 1.468 . S
O719 C672 1.408 . S
H720 C661 0.980 . S
H721 C660 0.959 . S
H722 C660 0.959 . S
H723 C660 0.960 . S
H724 C663 0.929 . S
H725 C667 0.929 . S
H726 C668 0.959 . S
H727 C668 0.961 . S
H728 C668 0.961 . S
H729 C669 0.960 . S
H730 C669 0.960 . S
H731 C669 0.961 . S
H732 C671 0.980 . S
H733 C670 0.961 . S
H734 C670 0.960 . S
H735 C670 0.959 . S
H736 C673 0.930 . S
H737 C677 0.931 . S
H738 C678 0.959 . S
H739 C678 0.961 . S
H740 C678 0.959 . S
H741 C679 0.960 . S
H742 C679 0.960 . S
H743 C679 0.960 . S
H744 C715 0.980 . S
H745 C681 0.930 . S
H746 C685 0.930 . S
H747 C686 0.961 . S
H748 C686 0.960 . S
H749 C686 0.958 . S
H750 C687 0.961 . S
H751 C687 0.960 . S
H752 C687 0.960 . S
H753 C689 0.980 . S
H754 C688 0.961 . S
H755 C688 0.961 . S
H756 C688 0.959 . S
H757 C691 0.932 . S
H758 C695 0.929 . S
H759 C696 0.961 . S
H760 C696 0.959 . S
H761 C696 0.959 . S
H762 C697 0.960 . S
H763 C697 0.962 . S
H764 C697 0.961 . S
H765 C699 0.929 . S
H766 C702 0.930 . S
H767 C703 0.929 . S
H768 C706 0.930 . S
H769 C709 0.929 . S
H770 C710 0.930 . S
H771 C714 0.962 . S
H772 C714 0.959 . S
H773 C714 0.958 . S
C774 C775 1.560 . S
C774 H835 0.959 . S
C774 H836 0.959 . S
C774 H837 0.960 . S
C775 C774 1.560 . S
C775 O830 1.426 . S
C775 H834 0.980 . S
C776 C777 1.407 . S
C776 C781 1.418 . S
C776 O830 1.334 . S
C777 C776 1.407 . S
C777 C778 1.360 . S
C777 H838 0.929 . S
C778 C777 1.360 . S
C778 C779 1.401 . S
C778 C782 1.527 . S
C779 C778 1.401 . S
C779 C780 1.405 . S
C779 C812 1.587 . S
C780 C779 1.405 . S
C780 C781 1.332 . S
C780 C783 1.496 . S
C781 C776 1.418 . S
C781 C780 1.332 . S
C781 H839 0.929 . S
C782 C778 1.527 . S
C782 H840 0.959 . S
C782 H841 0.961 . S
C782 H842 0.961 . S
C783 C780 1.496 . S
C783 H843 0.960 . S
C783 H844 0.960 . S
C783 H845 0.961 . S
C784 C785 1.517 . S
C784 H847 0.961 . S
C784 H848 0.960 . S
C784 H849 0.959 . S
C785 C784 1.517 . S
C785 O833 1.468 . S
C785 H846 0.980 . S
C786 C787 1.349 . S
C786 C791 1.367 . S
C786 O833 1.408 . S
C787 C786 1.349 . S
C787 C788 1.407 . S
C787 H850 0.930 . S
C788 C787 1.407 . S
C788 C789 1.449 . S
C788 C792 1.535 . S
C789 C788 1.449 . S
C789 C790 1.384 . S
C789 C814 1.553 . S
C790 C789 1.384 . S
C790 C791 1.364 . S
C790 C793 1.450 . S
C791 C786 1.367 . S
C791 C790 1.364 . S
C791 H851 0.931 . S
C792 C788 1.535 . S
C792 H852 0.959 . S
C792 H853 0.961 . S
C792 H854 0.959 . S
C793 C790 1.450 . S
C793 H855 0.960 . S
C793 H856 0.960 . S
C793 H857 0.960 . S
C794 C795 1.309 . S
C794 C799 1.304 . S
C794 O832 1.435 . S
C795 C794 1.309 . S
C795 C796 1.476 . S
C795 H859 0.930 . S
C796 C795 1.476 . S
C796 C797 1.400 . S
C796 C800 1.567 . S
C797 C796 1.400 . S
C797 C798 1.373 . S
C797 C819 1.432 . S
C798 C797 1.373 . S
C798 C799 1.339 . S
C798 C801 1.530 . S
C799 C794 1.304 . S
C799 C798 1.339 . S
C799 H860 0.930 . S
C800 C796 1.567 . S
C800 H861 0.961 . S
C800 H862 0.960 . S
C800 H863 0.958 . S
C801 C798 1.530 . S
C801 H864 0.961 . S
C801 H865 0.960 . S
C801 H866 0.960 . S
C802 C803 1.530 . S
C802 H868 0.961 . S
C802 H869 0.961 . S
C802 H870 0.959 . S
C803 C802 1.530 . S
C803 O831 1.412 . S
C803 H867 0.980 . S
C804 C805 1.288 . S
C804 C809 1.377 . S
C804 O831 1.393 . S
C805 C804 1.288 . S
C805 C806 1.369 . S
C805 H871 0.932 . S
C806 C805 1.369 . S
C806 C807 1.398 . S
C806 C810 1.527 . S
C807 C806 1.398 . S
C807 C808 1.380 . S
C807 C821 1.497 . S
C808 C807 1.380 . S
C808 C809 1.383 . S
C808 C811 1.603 . S
C809 C804 1.377 . S
C809 C808 1.383 . S
C809 H872 0.929 . S
C810 C806 1.527 . S
C810 H873 0.961 . S
C810 H874 0.959 . S
C810 H875 0.959 . S
C811 C808 1.603 . S
C811 H876 0.960 . S
C811 H877 0.962 . S
C811 H878 0.961 . S
C812 C779 1.587 . S
C812 C813 1.360 . S
C812 C825 1.412 . S
C813 C812 1.360 . S
C813 C814 1.365 . S
C813 H879 0.929 . S
C814 C789 1.553 . S
C814 C813 1.365 . S
C814 C815 1.404 . S
C815 C814 1.404 . S
C815 C816 1.395 . S
C815 C826 1.451 . S
C816 C815 1.395 . S
C816 C817 1.322 . S
C816 H880 0.930 . S
C817 C816 1.322 . S
C817 C818 1.459 . S
C817 H881 0.929 . S
C818 C817 1.459 . S
C818 C819 1.445 . S
C818 C827 1.395 . S
C819 C797 1.432 . S
C819 C818 1.445 . S
C819 C820 1.370 . S
C820 C819 1.370 . S
C820 C821 1.438 . S
C820 H882 0.930 . S
C821 C807 1.497 . S
C821 C820 1.438 . S
C821 C822 1.360 . S
C822 C821 1.360 . S
C822 C823 1.401 . S
C822 C827 1.446 . S
C823 C822 1.401 . S
C823 C824 1.347 . S
C823 H883 0.929 . S
C824 C823 1.347 . S
C824 C825 1.455 . S
C824 H884 0.930 . S
C825 C812 1.412 . S
C825 C824 1.455 . S
C825 C826 1.331 . S
C826 C815 1.451 . S
C826 C825 1.331 . S
C826 C827 1.497 . S
C827 C818 1.395 . S
C827 C822 1.446 . S
C827 C826 1.497 . S
C828 C829 1.582 . S
C828 H885 0.962 . S
C828 H886 0.959 . S
C828 H887 0.958 . S
C829 C828 1.582 . S
C829 O832 1.458 . S
C829 H858 0.980 . S
O830 C775 1.426 . S
O830 C776 1.334 . S
O831 C803 1.412 . S
O831 C804 1.393 . S
O832 C794 1.435 . S
O832 C829 1.458 . S
O833 C785 1.468 . S
O833 C786 1.408 . S
H834 C775 0.980 . S
H835 C774 0.959 . S
H836 C774 0.959 . S
H837 C774 0.960 . S
H838 C777 0.929 . S
H839 C781 0.929 . S
H840 C782 0.959 . S
H841 C782 0.961 . S
H842 C782 0.961 . S
H843 C783 0.960 . S
H844 C783 0.960 . S
H845 C783 0.961 . S
H846 C785 0.980 . S
H847 C784 0.961 . S
H848 C784 0.960 . S
H849 C784 0.959 . S
H850 C787 0.930 . S
H851 C791 0.931 . S
H852 C792 0.959 . S
H853 C792 0.961 . S
H854 C792 0.959 . S
H855 C793 0.960 . S
H856 C793 0.960 . S
H857 C793 0.960 . S
H858 C829 0.980 . S
H859 C795 0.930 . S
H860 C799 0.930 . S
H861 C800 0.961 . S
H862 C800 0.960 . S
H863 C800 0.958 . S
H864 C801 0.961 . S
H865 C801 0.960 . S
H866 C801 0.960 . S
H867 C803 0.980 . S
H868 C802 0.961 . S
H869 C802 0.961 . S
H870 C802 0.959 . S
H871 C805 0.932 . S
H872 C809 0.929 . S
H873 C810 0.961 . S
H874 C810 0.959 . S
H875 C810 0.959 . S
H876 C811 0.960 . S
H877 C811 0.962 . S
H878 C811 0.961 . S
H879 C813 0.929 . S
H880 C816 0.930 . S
H881 C817 0.929 . S
H882 C820 0.930 . S
H883 C823 0.929 . S
H884 C824 0.930 . S
H885 C828 0.962 . S
H886 C828 0.959 . S
H887 C828 0.958 . S
C888 C889 1.560 . S
C888 H949 0.959 . S
C888 H950 0.959 . S
C888 H951 0.960 . S
C889 C888 1.560 . S
C889 O944 1.426 . S
C889 H948 0.980 . S
C890 C891 1.407 . S
C890 C895 1.418 . S
C890 O944 1.334 . S
C891 C890 1.407 . S
C891 C892 1.360 . S
C891 H952 0.929 . S
C892 C891 1.360 . S
C892 C893 1.401 . S
C892 C896 1.527 . S
C893 C892 1.401 . S
C893 C894 1.405 . S
C893 C926 1.587 . S
C894 C893 1.405 . S
C894 C895 1.332 . S
C894 C897 1.496 . S
C895 C890 1.418 . S
C895 C894 1.332 . S
C895 H953 0.929 . S
C896 C892 1.527 . S
C896 H954 0.959 . S
C896 H955 0.961 . S
C896 H956 0.961 . S
C897 C894 1.496 . S
C897 H957 0.960 . S
C897 H958 0.960 . S
C897 H959 0.961 . S
C898 C899 1.517 . S
C898 H961 0.961 . S
C898 H962 0.960 . S
C898 H963 0.959 . S
C899 C898 1.517 . S
C899 O947 1.468 . S
C899 H960 0.980 . S
C900 C901 1.349 . S
C900 C905 1.367 . S
C900 O947 1.408 . S
C901 C900 1.349 . S
C901 C902 1.407 . S
C901 H964 0.930 . S
C902 C901 1.407 . S
C902 C903 1.449 . S
C902 C906 1.535 . S
C903 C902 1.449 . S
C903 C904 1.384 . S
C903 C928 1.553 . S
C904 C903 1.384 . S
C904 C905 1.364 . S
C904 C907 1.450 . S
C905 C900 1.367 . S
C905 C904 1.364 . S
C905 H965 0.931 . S
C906 C902 1.535 . S
C906 H966 0.959 . S
C906 H967 0.961 . S
C906 H968 0.959 . S
C907 C904 1.450 . S
C907 H969 0.960 . S
C907 H970 0.960 . S
C907 H971 0.960 . S
C908 C909 1.309 . S
C908 C913 1.304 . S
C908 O946 1.435 . S
C909 C908 1.309 . S
C909 C910 1.476 . S
C909 H973 0.930 . S
C910 C909 1.476 . S
C910 C911 1.400 . S
C910 C914 1.567 . S
C911 C910 1.400 . S
C911 C912 1.373 . S
C911 C933 1.432 . S
C912 C911 1.373 . S
C912 C913 1.339 . S
C912 C915 1.530 . S
C913 C908 1.304 . S
C913 C912 1.339 . S
C913 H974 0.930 . S
C914 C910 1.567 . S
C914 H975 0.961 . S
C914 H976 0.960 . S
C914 H977 0.958 . S
C915 C912 1.530 . S
C915 H978 0.961 . S
C915 H979 0.960 . S
C915 H980 0.960 . S
C916 C917 1.530 . S
C916 H982 0.961 . S
C916 H983 0.961 . S
C916 H984 0.959 . S
C917 C916 1.530 . S
C917 O945 1.412 . S
C917 H981 0.980 . S
C918 C919 1.288 . S
C918 C923 1.377 . S
C918 O945 1.393 . S
C919 C918 1.288 . S
C919 C920 1.369 . S
C919 H985 0.932 . S
C920 C919 1.369 . S
C920 C921 1.398 . S
C920 C924 1.527 . S
C921 C920 1.398 . S
C921 C922 1.380 . S
C921 C935 1.497 . S
C922 C921 1.380 . S
C922 C923 1.383 . S
C922 C925 1.603 . S
C923 C918 1.377 . S
C923 C922 1.383 . S
C923 H986 0.929 . S
C924 C920 1.527 . S
C924 H987 0.961 . S
C924 H988 0.959 . S
C924 H989 0.959 . S
C925 C922 1.603 . S
C925 H990 0.960 . S
C925 H991 0.962 . S
C925 H992 0.961 . S
C926 C893 1.587 . S
C926 C927 1.360 . S
C926 C939 1.412 . S
C927 C926 1.360 . S
C927 C928 1.365 . S
C927 H993 0.929 . S
C928 C903 1.553 . S
C928 C927 1.365 . S
C928 C929 1.404 . S
C929 C928 1.404 . S
C929 C930 1.395 . S
C929 C940 1.451 . S
C930 C929 1.395 . S
C930 C931 1.322 . S
C930 H994 0.930 . S
C931 C930 1.322 . S
C931 C932 1.459 . S
C931 H995 0.929 . S
C932 C931 1.459 . S
C932 C933 1.445 . S
C932 C941 1.395 . S
C933 C911 1.432 . S
C933 C932 1.445 . S
C933 C934 1.370 . S
C934 C933 1.370 . S
C934 C935 1.438 . S
C934 H996 0.930 . S
C935 C921 1.497 . S
C935 C934 1.438 . S
C935 C936 1.360 . S
C936 C935 1.360 . S
C936 C937 1.401 . S
C936 C941 1.446 . S
C937 C936 1.401 . S
C937 C938 1.347 . S
C937 H997 0.929 . S
C938 C937 1.347 . S
C938 C939 1.455 . S
C938 H998 0.930 . S
C939 C926 1.412 . S
C939 C938 1.455 . S
C939 C940 1.331 . S
C940 C929 1.451 . S
C940 C939 1.331 . S
C940 C941 1.497 . S
C941 C932 1.395 . S
C941 C936 1.446 . S
C941 C940 1.497 . S
C942 C943 1.582 . S
C942 H999 0.962 . S
C942 H1000 0.959 . S
C942 H1001 0.958 . S
C943 C942 1.582 . S
C943 O946 1.458 . S
C943 H972 0.980 . S
O944 C889 1.426 . S
O944 C890 1.334 . S
O945 C917 1.412 . S
O945 C918 1.393 . S
O946 C908 1.435 . S
O946 C943 1.458 . S
O947 C899 1.468 . S
O947 C900 1.408 . S
H948 C889 0.980 . S
H949 C888 0.959 . S
H950 C888 0.959 . S
H951 C888 0.960 . S
H952 C891 0.929 . S
H953 C895 0.929 . S
H954 C896 0.959 . S
H955 C896 0.961 . S
H956 C896 0.961 . S
H957 C897 0.960 . S
H958 C897 0.960 . S
H959 C897 0.961 . S
H960 C899 0.980 . S
H961 C898 0.961 . S
H962 C898 0.960 . S
H963 C898 0.959 . S
H964 C901 0.930 . S
H965 C905 0.931 . S
H966 C906 0.959 . S
H967 C906 0.961 . S
H968 C906 0.959 . S
H969 C907 0.960 . S
H970 C907 0.960 . S
H971 C907 0.960 . S
H972 C943 0.980 . S
H973 C909 0.930 . S
H974 C913 0.930 . S
H975 C914 0.961 . S
H976 C914 0.960 . S
H977 C914 0.958 . S
H978 C915 0.961 . S
H979 C915 0.960 . S
H980 C915 0.960 . S
H981 C917 0.980 . S
H982 C916 0.961 . S
H983 C916 0.961 . S
H984 C916 0.959 . S
H985 C919 0.932 . S
H986 C923 0.929 . S
H987 C924 0.961 . S
H988 C924 0.959 . S
H989 C924 0.959 . S
H990 C925 0.960 . S
H991 C925 0.962 . S
H992 C925 0.961 . S
H993 C927 0.929 . S
H994 C930 0.930 . S
H995 C931 0.929 . S
H996 C934 0.930 . S
H997 C937 0.929 . S
H998 C938 0.930 . S
H999 C942 0.962 . S
H1000 C942 0.959 . S
H1001 C942 0.958 . S
C1002 C1003 1.363 . S
C1002 C1008 1.379 . S
C1002 N1010 1.356 . S
C1003 C1002 1.363 . S
C1003 C1009 1.363 . S
C1004 C1005 1.363 . S
C1004 C1009 1.379 . S
C1004 N1011 1.356 . S
C1005 C1004 1.363 . S
C1005 C1008 1.363 . S
N1006 C1008 1.356 . S
N1006 H1018 0.984 . S
N1006 H1019 0.985 . S
N1007 C1009 1.356 . S
N1007 H1012 0.984 . S
N1007 H1013 0.985 . S
C1008 C1002 1.379 . S
C1008 C1005 1.363 . S
C1008 N1006 1.356 . S
C1009 C1003 1.363 . S
C1009 C1004 1.379 . S
C1009 N1007 1.356 . S
N1010 C1002 1.356 . S
N1010 H1016 0.984 . S
N1010 H1017 0.984 . S
N1011 C1004 1.356 . S
N1011 H1014 0.984 . S
N1011 H1015 0.985 . S
H1012 N1007 0.984 . S
H1013 N1007 0.985 . S
H1014 N1011 0.984 . S
H1015 N1011 0.985 . S
H1016 N1010 0.984 . S
H1017 N1010 0.984 . S
H1018 N1006 0.984 . S
H1019 N1006 0.985 . S
C1020 C1021 1.363 . S
C1020 C1026 1.379 . S
C1020 N1028 1.356 . S
C1021 C1020 1.363 . S
C1021 C1027 1.363 . S
C1022 C1023 1.363 . S
C1022 C1027 1.379 . S
C1022 N1029 1.356 . S
C1023 C1022 1.363 . S
C1023 C1026 1.363 . S
N1024 C1026 1.356 . S
N1024 H1036 0.984 . S
N1024 H1037 0.985 . S
N1025 C1027 1.356 . S
N1025 H1030 0.984 . S
N1025 H1031 0.985 . S
C1026 C1020 1.379 . S
C1026 C1023 1.363 . S
C1026 N1024 1.356 . S
C1027 C1021 1.363 . S
C1027 C1022 1.379 . S
C1027 N1025 1.356 . S
N1028 C1020 1.356 . S
N1028 H1034 0.984 . S
N1028 H1035 0.984 . S
N1029 C1022 1.356 . S
N1029 H1032 0.984 . S
N1029 H1033 0.985 . S
H1030 N1025 0.984 . S
H1031 N1025 0.985 . S
H1032 N1029 0.984 . S
H1033 N1029 0.985 . S
H1034 N1028 0.984 . S
H1035 N1028 0.984 . S
H1036 N1024 0.984 . S
H1037 N1024 0.985 . S
C1038 C1039 1.363 . S
C1038 C1044 1.379 . S
C1038 N1046 1.356 . S
C1039 C1038 1.363 . S
C1039 C1045 1.363 . S
C1040 C1041 1.363 . S
C1040 C1045 1.379 . S
C1040 N1047 1.356 . S
C1041 C1040 1.363 . S
C1041 C1044 1.363 . S
N1042 C1044 1.356 . S
N1042 H1054 0.984 . S
N1042 H1055 0.985 . S
N1043 C1045 1.356 . S
N1043 H1048 0.984 . S
N1043 H1049 0.985 . S
C1044 C1038 1.379 . S
C1044 C1041 1.363 . S
C1044 N1042 1.356 . S
C1045 C1039 1.363 . S
C1045 C1040 1.379 . S
C1045 N1043 1.356 . S
N1046 C1038 1.356 . S
N1046 H1052 0.984 . S
N1046 H1053 0.984 . S
N1047 C1040 1.356 . S
N1047 H1050 0.984 . S
N1047 H1051 0.985 . S
H1048 N1043 0.984 . S
H1049 N1043 0.985 . S
H1050 N1047 0.984 . S
H1051 N1047 0.985 . S
H1052 N1046 0.984 . S
H1053 N1046 0.984 . S
H1054 N1042 0.984 . S
H1055 N1042 0.985 . S
C1056 C1057 1.363 . S
C1056 C1062 1.379 . S
C1056 N1064 1.356 . S
C1057 C1056 1.363 . S
C1057 C1063 1.363 . S
C1058 C1059 1.363 . S
C1058 C1063 1.379 . S
C1058 N1065 1.356 . S
C1059 C1058 1.363 . S
C1059 C1062 1.363 . S
N1060 C1062 1.356 . S
N1060 H1072 0.984 . S
N1060 H1073 0.985 . S
N1061 C1063 1.356 . S
N1061 H1066 0.984 . S
N1061 H1067 0.985 . S
C1062 C1056 1.379 . S
C1062 C1059 1.363 . S
C1062 N1060 1.356 . S
C1063 C1057 1.363 . S
C1063 C1058 1.379 . S
C1063 N1061 1.356 . S
N1064 C1056 1.356 . S
N1064 H1070 0.984 . S
N1064 H1071 0.984 . S
N1065 C1058 1.356 . S
N1065 H1068 0.984 . S
N1065 H1069 0.985 . S
H1066 N1061 0.984 . S
H1067 N1061 0.985 . S
H1068 N1065 0.984 . S
H1069 N1065 0.985 . S
H1070 N1064 0.984 . S
H1071 N1064 0.984 . S
H1072 N1060 0.984 . S
H1073 N1060 0.985 . S
C1074 C1075 1.363 . S
C1074 C1080 1.379 . S
C1074 N1082 1.356 1_565 S
C1075 C1074 1.363 . S
C1075 C1081 1.363 . S
C1076 C1077 1.363 . S
C1076 C1081 1.379 . S
C1076 N1083 1.356 . S
C1077 C1076 1.363 . S
C1077 C1080 1.363 . S
N1078 C1080 1.356 . S
N1078 H1090 0.984 1_565 S
N1078 H1091 0.985 . S
N1079 C1081 1.356 . S
N1079 H1084 0.984 . S
N1079 H1085 0.985 . S
C1080 C1074 1.379 . S
C1080 C1077 1.363 . S
C1080 N1078 1.356 . S
C1081 C1075 1.363 . S
C1081 C1076 1.379 . S
C1081 N1079 1.356 . S
N1082 C1074 1.356 1_545 S
N1082 H1088 0.984 . S
N1082 H1089 0.981 1_545 S
N1083 C1076 1.356 . S
N1083 H1086 0.984 . S
N1083 H1087 0.985 . S
H1084 N1079 0.984 . S
H1085 N1079 0.985 . S
H1086 N1083 0.984 . S
H1087 N1083 0.985 . S
H1088 N1082 0.984 . S
H1089 N1082 0.981 1_565 S
H1090 N1078 0.984 1_545 S
H1091 N1078 0.985 . S
C1092 C1093 1.363 . S
C1092 C1098 1.379 . S
C1092 N1100 1.356 . S
C1093 C1092 1.363 . S
C1093 C1099 1.363 . S
C1094 C1095 1.363 . S
C1094 C1099 1.379 . S
C1094 N1101 1.356 . S
C1095 C1094 1.363 . S
C1095 C1098 1.363 . S
N1096 C1098 1.356 . S
N1096 H1108 0.984 . S
N1096 H1109 0.985 . S
N1097 C1099 1.356 . S
N1097 H1102 0.984 . S
N1097 H1103 0.985 . S
C1098 C1092 1.379 . S
C1098 C1095 1.363 . S
C1098 N1096 1.356 . S
C1099 C1093 1.363 . S
C1099 C1094 1.379 . S
C1099 N1097 1.356 . S
N1100 C1092 1.356 . S
N1100 H1106 0.984 . S
N1100 H1107 0.984 . S
N1101 C1094 1.356 . S
N1101 H1104 0.984 . S
N1101 H1105 0.985 . S
H1102 N1097 0.984 . S
H1103 N1097 0.985 . S
H1104 N1101 0.984 . S
H1105 N1101 0.985 . S
H1106 N1100 0.984 . S
H1107 N1100 0.984 . S
H1108 N1096 0.984 . S
H1109 N1096 0.985 . S
C1110 C1111 1.363 . S
C1110 C1116 1.379 . S
C1110 N1118 1.356 . S
C1111 C1110 1.363 . S
C1111 C1117 1.363 . S
C1112 C1113 1.363 . S
C1112 C1117 1.379 . S
C1112 N1119 1.356 . S
C1113 C1112 1.363 . S
C1113 C1116 1.363 . S
N1114 C1116 1.356 . S
N1114 H1126 0.984 . S
N1114 H1127 0.985 . S
N1115 C1117 1.356 . S
N1115 H1120 0.984 . S
N1115 H1121 0.985 . S
C1116 C1110 1.379 . S
C1116 C1113 1.363 . S
C1116 N1114 1.356 . S
C1117 C1111 1.363 . S
C1117 C1112 1.379 . S
C1117 N1115 1.356 . S
N1118 C1110 1.356 . S
N1118 H1124 0.984 . S
N1118 H1125 0.984 . S
N1119 C1112 1.356 . S
N1119 H1122 0.984 . S
N1119 H1123 0.985 . S
H1120 N1115 0.984 . S
H1121 N1115 0.985 . S
H1122 N1119 0.984 . S
H1123 N1119 0.985 . S
H1124 N1118 0.984 . S
H1125 N1118 0.984 . S
H1126 N1114 0.984 . S
H1127 N1114 0.985 . S
C1128 C1129 1.363 . S
C1128 C1134 1.379 . S
C1128 N1136 1.356 . S
C1129 C1128 1.363 . S
C1129 C1135 1.363 . S
C1130 C1131 1.363 . S
C1130 C1135 1.379 . S
C1130 N1137 1.356 . S
C1131 C1130 1.363 . S
C1131 C1134 1.363 . S
N1132 C1134 1.356 . S
N1132 H1144 0.984 . S
N1132 H1145 0.985 . S
N1133 C1135 1.356 . S
N1133 H1138 0.984 . S
N1133 H1139 0.985 . S
C1134 C1128 1.379 . S
C1134 C1131 1.363 . S
C1134 N1132 1.356 . S
C1135 C1129 1.363 . S
C1135 C1130 1.379 . S
C1135 N1133 1.356 . S
N1136 C1128 1.356 . S
N1136 H1142 0.984 . S
N1136 H1143 0.984 . S
N1137 C1130 1.356 . S
N1137 H1140 0.984 . S
N1137 H1141 0.985 . S
H1138 N1133 0.984 . S
H1139 N1133 0.985 . S
H1140 N1137 0.984 . S
H1141 N1137 0.985 . S
H1142 N1136 0.984 . S
H1143 N1136 0.984 . S
H1144 N1132 0.984 . S
H1145 N1132 0.985 . S
C1146 C1147 1.363 . S
C1146 C1152 1.379 . S
C1146 N1154 1.356 . S
C1147 C1146 1.363 . S
C1147 C1153 1.363 . S
C1148 C1149 1.363 . S
C1148 C1153 1.379 . S
C1148 N1155 1.356 . S
C1149 C1148 1.363 . S
C1149 C1152 1.363 . S
N1150 C1152 1.356 . S
N1150 H1162 0.984 . S
N1150 H1163 0.985 . S
N1151 C1153 1.356 . S
N1151 H1156 0.984 . S
N1151 H1157 0.985 . S
C1152 C1146 1.379 . S
C1152 C1149 1.363 . S
C1152 N1150 1.356 . S
C1153 C1147 1.363 . S
C1153 C1148 1.379 . S
C1153 N1151 1.356 . S
N1154 C1146 1.356 . S
N1154 H1160 0.984 . S
N1154 H1161 0.984 . S
N1155 C1148 1.356 . S
N1155 H1158 0.984 . S
N1155 H1159 0.985 . S
H1156 N1151 0.984 . S
H1157 N1151 0.985 . S
H1158 N1155 0.984 . S
H1159 N1155 0.985 . S
H1160 N1154 0.984 . S
H1161 N1154 0.984 . S
H1162 N1150 0.984 . S
H1163 N1150 0.985 . S
C1164 C1165 1.363 . S
C1164 C1170 1.379 . S
C1164 N1172 1.356 . S
C1165 C1164 1.363 . S
C1165 C1171 1.363 . S
C1166 C1167 1.363 . S
C1166 C1171 1.379 . S
C1166 N1173 1.356 . S
C1167 C1166 1.363 . S
C1167 C1170 1.363 . S
N1168 C1170 1.356 . S
N1168 H1180 0.984 . S
N1168 H1181 0.985 . S
N1169 C1171 1.356 . S
N1169 H1174 0.984 . S
N1169 H1175 0.985 . S
C1170 C1164 1.379 . S
C1170 C1167 1.363 . S
C1170 N1168 1.356 . S
C1171 C1165 1.363 . S
C1171 C1166 1.379 . S
C1171 N1169 1.356 . S
N1172 C1164 1.356 . S
N1172 H1178 0.984 . S
N1172 H1179 0.984 . S
N1173 C1166 1.356 . S
N1173 H1176 0.984 . S
N1173 H1177 0.985 . S
H1174 N1169 0.984 . S
H1175 N1169 0.985 . S
H1176 N1173 0.984 . S
H1177 N1173 0.985 . S
H1178 N1172 0.984 . S
H1179 N1172 0.984 . S
H1180 N1168 0.984 . S
H1181 N1168 0.985 . S
C1182 C1183 1.363 . S
C1182 C1188 1.379 . S
C1182 N1190 1.356 . S
C1183 C1182 1.363 . S
C1183 C1189 1.363 . S
C1184 C1185 1.363 . S
C1184 C1189 1.379 . S
C1184 N1191 1.356 . S
C1185 C1184 1.363 . S
C1185 C1188 1.363 . S
N1186 C1188 1.356 . S
N1186 H1198 0.984 . S
N1186 H1199 0.985 . S
N1187 C1189 1.356 . S
N1187 H1192 0.984 . S
N1187 H1193 0.985 . S
C1188 C1182 1.379 . S
C1188 C1185 1.363 . S
C1188 N1186 1.356 . S
C1189 C1183 1.363 . S
C1189 C1184 1.379 . S
C1189 N1187 1.356 . S
N1190 C1182 1.356 . S
N1190 H1196 0.984 . S
N1190 H1197 0.984 . S
N1191 C1184 1.356 . S
N1191 H1194 0.984 . S
N1191 H1195 0.985 . S
H1192 N1187 0.984 . S
H1193 N1187 0.985 . S
H1194 N1191 0.984 . S
H1195 N1191 0.985 . S
H1196 N1190 0.984 . S
H1197 N1190 0.984 . S
H1198 N1186 0.984 . S
H1199 N1186 0.985 . S
C1200 C1201 1.363 . S
C1200 C1206 1.379 . S
C1200 N1208 1.356 . S
C1201 C1200 1.363 . S
C1201 C1207 1.363 . S
C1202 C1203 1.363 . S
C1202 C1207 1.379 . S
C1202 N1209 1.356 . S
C1203 C1202 1.363 . S
C1203 C1206 1.363 . S
N1204 C1206 1.356 . S
N1204 H1216 0.984 . S
N1204 H1217 0.985 . S
N1205 C1207 1.356 . S
N1205 H1210 0.984 . S
N1205 H1211 0.985 . S
C1206 C1200 1.379 . S
C1206 C1203 1.363 . S
C1206 N1204 1.356 . S
C1207 C1201 1.363 . S
C1207 C1202 1.379 . S
C1207 N1205 1.356 . S
N1208 C1200 1.356 . S
N1208 H1214 0.984 . S
N1208 H1215 0.984 . S
N1209 C1202 1.356 . S
N1209 H1212 0.984 . S
N1209 H1213 0.985 . S
H1210 N1205 0.984 . S
H1211 N1205 0.985 . S
H1212 N1209 0.984 . S
H1213 N1209 0.985 . S
H1214 N1208 0.984 . S
H1215 N1208 0.984 . S
H1216 N1204 0.984 . S
H1217 N1204 0.985 . S
C1218 C1219 1.363 . S
C1218 C1224 1.379 . S
C1218 N1226 1.356 1_655 S
C1219 C1218 1.363 . S
C1219 C1225 1.363 . S
C1220 C1221 1.363 . S
C1220 C1225 1.379 . S
C1220 N1227 1.356 . S
C1221 C1220 1.363 . S
C1221 C1224 1.363 . S
N1222 C1224 1.356 . S
N1222 H1234 0.984 1_655 S
N1222 H1235 0.985 . S
N1223 C1225 1.356 . S
N1223 H1228 0.984 . S
N1223 H1229 0.985 . S
C1224 C1218 1.379 . S
C1224 C1221 1.363 . S
C1224 N1222 1.356 . S
C1225 C1219 1.363 . S
C1225 C1220 1.379 . S
C1225 N1223 1.356 . S
N1226 C1218 1.356 1_455 S
N1226 H1232 0.984 . S
N1226 H1233 0.984 . S
N1227 C1220 1.356 . S
N1227 H1230 0.984 . S
N1227 H1231 0.985 . S
H1228 N1223 0.984 . S
H1229 N1223 0.985 . S
H1230 N1227 0.984 . S
H1231 N1227 0.985 . S
H1232 N1226 0.984 . S
H1233 N1226 0.984 . S
H1234 N1222 0.984 1_455 S
H1235 N1222 0.985 . S
C1236 C1237 1.363 . S
C1236 C1242 1.379 . S
C1236 N1244 1.356 . S
C1237 C1236 1.363 . S
C1237 C1243 1.363 . S
C1238 C1239 1.363 . S
C1238 C1243 1.379 . S
C1238 N1245 1.356 . S
C1239 C1238 1.363 . S
C1239 C1242 1.363 . S
N1240 C1242 1.356 . S
N1240 H1252 0.984 1_565 S
N1240 H1253 0.985 . S
N1241 C1243 1.356 . S
N1241 H1246 0.984 . S
N1241 H1247 0.985 . S
C1242 C1236 1.379 . S
C1242 C1239 1.363 . S
C1242 N1240 1.356 . S
C1243 C1237 1.363 . S
C1243 C1238 1.379 . S
C1243 N1241 1.356 . S
N1244 C1236 1.356 . S
N1244 H1250 0.984 1_565 S
N1244 H1251 0.984 . S
N1245 C1238 1.356 . S
N1245 H1248 0.984 . S
N1245 H1249 0.985 . S
H1246 N1241 0.984 . S
H1247 N1241 0.985 . S
H1248 N1245 0.984 . S
H1249 N1245 0.985 . S
H1250 N1244 0.984 1_545 S
H1251 N1244 0.984 . S
H1252 N1240 0.984 1_545 S
H1253 N1240 0.985 . S
C1254 C1255 1.363 . S
C1254 C1260 1.379 . S
C1254 N1262 1.356 . S
C1255 C1254 1.363 . S
C1255 C1261 1.363 . S
C1256 C1257 1.363 . S
C1256 C1261 1.379 . S
C1256 N1263 1.356 . S
C1257 C1256 1.363 . S
C1257 C1260 1.363 . S
N1258 C1260 1.356 . S
N1258 H1270 0.984 . S
N1258 H1271 0.985 . S
N1259 C1261 1.356 . S
N1259 H1264 0.984 . S
N1259 H1265 0.985 . S
C1260 C1254 1.379 . S
C1260 C1257 1.363 . S
C1260 N1258 1.356 . S
C1261 C1255 1.363 . S
C1261 C1256 1.379 . S
C1261 N1259 1.356 . S
N1262 C1254 1.356 . S
N1262 H1268 0.984 . S
N1262 H1269 0.984 . S
N1263 C1256 1.356 . S
N1263 H1266 0.984 . S
N1263 H1267 0.985 . S
H1264 N1259 0.984 . S
H1265 N1259 0.985 . S
H1266 N1263 0.984 . S
H1267 N1263 0.985 . S
H1268 N1262 0.984 . S
H1269 N1262 0.984 . S
H1270 N1258 0.984 . S
H1271 N1258 0.985 . S
C1272 C1273 1.363 . S
C1272 C1278 1.379 . S
C1272 N1280 1.356 . S
C1273 C1272 1.363 . S
C1273 C1279 1.363 . S
C1274 C1275 1.363 . S
C1274 C1279 1.379 . S
C1274 N1281 1.356 . S
C1275 C1274 1.363 . S
C1275 C1278 1.363 . S
N1276 C1278 1.356 . S
N1276 H1288 0.984 . S
N1276 H1289 0.985 . S
N1277 C1279 1.356 . S
N1277 H1282 0.984 . S
N1277 H1283 0.985 . S
C1278 C1272 1.379 . S
C1278 C1275 1.363 . S
C1278 N1276 1.356 . S
C1279 C1273 1.363 . S
C1279 C1274 1.379 . S
C1279 N1277 1.356 . S
N1280 C1272 1.356 . S
N1280 H1286 0.984 . S
N1280 H1287 0.984 . S
N1281 C1274 1.356 . S
N1281 H1284 0.984 . S
N1281 H1285 0.985 . S
H1282 N1277 0.984 . S
H1283 N1277 0.985 . S
H1284 N1281 0.984 . S
H1285 N1281 0.985 . S
H1286 N1280 0.984 . S
H1287 N1280 0.984 . S
H1288 N1276 0.984 . S
H1289 N1276 0.985 . S
C1290 C1291 1.363 . S
C1290 C1296 1.379 . S
C1290 N1298 1.356 . S
C1291 C1290 1.363 . S
C1291 C1297 1.363 . S
C1292 C1293 1.363 . S
C1292 C1297 1.379 . S
C1292 N1299 1.356 . S
C1293 C1292 1.363 . S
C1293 C1296 1.363 . S
N1294 C1296 1.356 . S
N1294 H1306 0.984 . S
N1294 H1307 0.985 . S
N1295 C1297 1.356 . S
N1295 H1300 0.984 . S
N1295 H1301 0.985 . S
C1296 C1290 1.379 . S
C1296 C1293 1.363 . S
C1296 N1294 1.356 . S
C1297 C1291 1.363 . S
C1297 C1292 1.379 . S
C1297 N1295 1.356 . S
N1298 C1290 1.356 . S
N1298 H1304 0.984 . S
N1298 H1305 0.984 . S
N1299 C1292 1.356 . S
N1299 H1302 0.984 . S
N1299 H1303 0.985 . S
H1300 N1295 0.984 . S
H1301 N1295 0.985 . S
H1302 N1299 0.984 . S
H1303 N1299 0.985 . S
H1304 N1298 0.984 . S
H1305 N1298 0.984 . S
H1306 N1294 0.984 . S
H1307 N1294 0.985 . S
C1308 C1309 1.363 . S
C1308 C1314 1.379 . S
C1308 N1316 1.356 . S
C1309 C1308 1.363 . S
C1309 C1315 1.363 . S
C1310 C1311 1.363 . S
C1310 C1315 1.379 . S
C1310 N1317 1.356 . S
C1311 C1310 1.363 . S
C1311 C1314 1.363 . S
N1312 C1314 1.356 . S
N1312 H1324 0.984 . S
N1312 H1325 0.985 . S
N1313 C1315 1.356 . S
N1313 H1318 0.984 . S
N1313 H1319 0.985 . S
C1314 C1308 1.379 . S
C1314 C1311 1.363 . S
C1314 N1312 1.356 . S
C1315 C1309 1.363 . S
C1315 C1310 1.379 . S
C1315 N1313 1.356 . S
N1316 C1308 1.356 . S
N1316 H1322 0.984 . S
N1316 H1323 0.984 . S
N1317 C1310 1.356 . S
N1317 H1320 0.984 . S
N1317 H1321 0.985 . S
H1318 N1313 0.984 . S
H1319 N1313 0.985 . S
H1320 N1317 0.984 . S
H1321 N1317 0.985 . S
H1322 N1316 0.984 . S
H1323 N1316 0.984 . S
H1324 N1312 0.984 . S
H1325 N1312 0.985 . S
C1326 C1327 1.363 . S
C1326 C1332 1.379 . S
C1326 N1334 1.356 . S
C1327 C1326 1.363 . S
C1327 C1333 1.363 . S
C1328 C1329 1.363 . S
C1328 C1333 1.379 . S
C1328 N1335 1.356 . S
C1329 C1328 1.363 . S
C1329 C1332 1.363 . S
N1330 C1332 1.356 . S
N1330 H1342 0.984 . S
N1330 H1343 0.985 . S
N1331 C1333 1.356 . S
N1331 H1336 0.984 . S
N1331 H1337 0.985 . S
C1332 C1326 1.379 . S
C1332 C1329 1.363 . S
C1332 N1330 1.356 . S
C1333 C1327 1.363 . S
C1333 C1328 1.379 . S
C1333 N1331 1.356 . S
N1334 C1326 1.356 . S
N1334 H1340 0.984 . S
N1334 H1341 0.984 . S
N1335 C1328 1.356 . S
N1335 H1338 0.984 . S
N1335 H1339 0.985 . S
H1336 N1331 0.984 . S
H1337 N1331 0.985 . S
H1338 N1335 0.984 . S
H1339 N1335 0.985 . S
H1340 N1334 0.984 . S
H1341 N1334 0.984 . S
H1342 N1330 0.984 . S
H1343 N1330 0.985 . S
C1344 C1345 1.363 . S
C1344 C1350 1.379 . S
C1344 N1352 1.356 . S
C1345 C1344 1.363 . S
C1345 C1351 1.363 . S
C1346 C1347 1.363 . S
C1346 C1351 1.379 . S
C1346 N1353 1.356 . S
C1347 C1346 1.363 . S
C1347 C1350 1.363 . S
N1348 C1350 1.356 . S
N1348 H1360 0.984 . S
N1348 H1361 0.985 . S
N1349 C1351 1.356 . S
N1349 H1354 0.984 . S
N1349 H1355 0.985 . S
C1350 C1344 1.379 . S
C1350 C1347 1.363 . S
C1350 N1348 1.356 . S
C1351 C1345 1.363 . S
C1351 C1346 1.379 . S
C1351 N1349 1.356 . S
N1352 C1344 1.356 . S
N1352 H1358 0.984 . S
N1352 H1359 0.984 . S
N1353 C1346 1.356 . S
N1353 H1356 0.984 . S
N1353 H1357 0.985 . S
H1354 N1349 0.984 . S
H1355 N1349 0.985 . S
H1356 N1353 0.984 . S
H1357 N1353 0.985 . S
H1358 N1352 0.984 . S
H1359 N1352 0.984 . S
H1360 N1348 0.984 . S
H1361 N1348 0.985 . S
C1362 C1363 1.363 . S
C1362 C1368 1.379 . S
C1362 N1370 1.356 . S
C1363 C1362 1.363 . S
C1363 C1369 1.363 . S
C1364 C1365 1.363 . S
C1364 C1369 1.379 . S
C1364 N1371 1.356 . S
C1365 C1364 1.363 . S
C1365 C1368 1.363 . S
N1366 C1368 1.356 . S
N1366 H1378 0.984 . S
N1366 H1379 0.985 . S
N1367 C1369 1.356 . S
N1367 H1372 0.984 . S
N1367 H1373 0.985 . S
C1368 C1362 1.379 . S
C1368 C1365 1.363 . S
C1368 N1366 1.356 . S
C1369 C1363 1.363 . S
C1369 C1364 1.379 . S
C1369 N1367 1.356 . S
N1370 C1362 1.356 . S
N1370 H1376 0.984 1_655 S
N1370 H1377 0.984 . S
N1371 C1364 1.356 . S
N1371 H1374 0.984 . S
N1371 H1375 0.985 . S
H1372 N1367 0.984 . S
H1373 N1367 0.985 . S
H1374 N1371 0.984 . S
H1375 N1371 0.985 . S
H1376 N1370 0.984 1_455 S
H1377 N1370 0.984 . S
H1378 N1366 0.984 . S
H1379 N1366 0.985 . S
C1380 C1381 1.363 . S
C1380 C1386 1.379 . S
C1380 N1388 1.356 . S
C1381 C1380 1.363 . S
C1381 C1387 1.363 . S
C1382 C1383 1.363 . S
C1382 C1387 1.379 . S
C1382 N1389 1.356 . S
C1383 C1382 1.363 . S
C1383 C1386 1.363 . S
N1384 C1386 1.356 . S
N1384 H1396 0.984 . S
N1384 H1397 0.985 . S
N1385 C1387 1.356 . S
N1385 H1390 0.984 . S
N1385 H1391 0.985 . S
C1386 C1380 1.379 . S
C1386 C1383 1.363 . S
C1386 N1384 1.356 . S
C1387 C1381 1.363 . S
C1387 C1382 1.379 . S
C1387 N1385 1.356 . S
N1388 C1380 1.356 . S
N1388 H1394 0.984 . S
N1388 H1395 0.984 . S
N1389 C1382 1.356 . S
N1389 H1392 0.984 . S
N1389 H1393 0.985 . S
H1390 N1385 0.984 . S
H1391 N1385 0.985 . S
H1392 N1389 0.984 . S
H1393 N1389 0.985 . S
H1394 N1388 0.984 . S
H1395 N1388 0.984 . S
H1396 N1384 0.984 . S
H1397 N1384 0.985 . S
C1398 C1399 1.363 . S
C1398 C1404 1.379 . S
C1398 N1406 1.356 . S
C1399 C1398 1.363 . S
C1399 C1405 1.363 . S
C1400 C1401 1.363 . S
C1400 C1405 1.379 . S
C1400 N1407 1.356 . S
C1401 C1400 1.363 . S
C1401 C1404 1.363 . S
N1402 C1404 1.356 . S
N1402 H1414 0.984 . S
N1402 H1415 0.985 . S
N1403 C1405 1.356 . S
N1403 H1408 0.984 . S
N1403 H1409 0.985 . S
C1404 C1398 1.379 . S
C1404 C1401 1.363 . S
C1404 N1402 1.356 . S
C1405 C1399 1.363 . S
C1405 C1400 1.379 . S
C1405 N1403 1.356 . S
N1406 C1398 1.356 . S
N1406 H1412 0.984 . S
N1406 H1413 0.984 . S
N1407 C1400 1.356 . S
N1407 H1410 0.984 . S
N1407 H1411 0.985 . S
H1408 N1403 0.984 . S
H1409 N1403 0.985 . S
H1410 N1407 0.984 . S
H1411 N1407 0.985 . S
H1412 N1406 0.984 . S
H1413 N1406 0.984 . S
H1414 N1402 0.984 . S
H1415 N1402 0.985 . S
C1416 C1417 1.363 . S
C1416 C1422 1.379 . S
C1416 N1424 1.356 . S
C1417 C1416 1.363 . S
C1417 C1423 1.363 . S
C1418 C1419 1.363 . S
C1418 C1423 1.379 . S
C1418 N1425 1.356 . S
C1419 C1418 1.363 . S
C1419 C1422 1.363 . S
N1420 C1422 1.356 . S
N1420 H1432 0.984 . S
N1420 H1433 0.985 . S
N1421 C1423 1.356 . S
N1421 H1426 0.984 . S
N1421 H1427 0.985 . S
C1422 C1416 1.379 . S
C1422 C1419 1.363 . S
C1422 N1420 1.356 . S
C1423 C1417 1.363 . S
C1423 C1418 1.379 . S
C1423 N1421 1.356 . S
N1424 C1416 1.356 . S
N1424 H1430 0.984 . S
N1424 H1431 0.984 . S
N1425 C1418 1.356 . S
N1425 H1428 0.984 . S
N1425 H1429 0.985 . S
H1426 N1421 0.984 . S
H1427 N1421 0.985 . S
H1428 N1425 0.984 . S
H1429 N1425 0.985 . S
H1430 N1424 0.984 . S
H1431 N1424 0.984 . S
H1432 N1420 0.984 . S
H1433 N1420 0.985 . S
C1003 C39 1.966 . S
C1005 C347 1.814 . S
C1021 C91 1.937 . S
C1023 C487 1.758 . S
C1041 C575 1.620 . S
C1039 C128 1.750 . S
C1059 C715 1.647 . S
C1057 C188 1.771 . S
C1077 C829 1.693 . S
C1075 C250 1.859 . S
C1095 C899 1.006 . S
C1093 C304 1.957 . S
C1111 C75 1.821 . S
C1113 C557 0.996 . S
C1129 C144 1.856 . S
C1131 C661 1.380 . S
C1149 C775 1.327 . S
C1147 C198 1.813 . S
C1167 C917 1.585 . S
C1165 C234 1.716 . S
C1183 C294 1.816 . S
C1185 C329 0.836 . S
C1203 C433 1.159 . S
C1201 C29 1.598 . S
C1221 C671 1.723 . S
C1219 C38 2.062 . S
C1237 C92 2.041 . S
C1239 C785 1.643 . S
C1257 C943 1.239 . S
C1255 C135 2.015 . S
C1273 C181 1.753 . S
C1275 C319 1.552 . S
C1291 C251 2.129 . S
C1293 C443 1.639 . S
C1309 C303 1.983 . S
C1311 C547 1.851 . S
C1327 C82 1.914 . S
C1329 C889 1.780 . S
C1347 C373 1.221 . S
C1345 C145 2.060 . S
C1363 C197 1.984 . S
C1365 C461 1.295 . S
C1381 C241 1.908 . S
C1383 C601 1.075 . S
C1399 C287 1.758 . S
C1401 C689 1.213 . S
C1417 C22 1.837 . S
C1419 C803 1.281 . S
