# Generated by pormake.
# Topology pto, (3,4)-cn, num edge types: 1
# Building blocks:
#     Node 0, Type 0, BuildingBlock: OLANEW_clean_sbu_2, # of connection points: 3
#     Node 1, Type 0, BuildingBlock: OLANEW_clean_sbu_2, # of connection points: 3
#     Node 2, Type 0, BuildingBlock: OLANEW_clean_sbu_2, # of connection points: 3
#     Node 3, Type 0, BuildingBlock: OLANEW_clean_sbu_2, # of connection points: 3
#     Node 4, Type 0, BuildingBlock: OLANEW_clean_sbu_2, # of connection points: 3
#     Node 5, Type 0, BuildingBlock: OLANEW_clean_sbu_2, # of connection points: 3
#     Node 6, Type 0, BuildingBlock: OLANEW_clean_sbu_2, # of connection points: 3
#     Node 7, Type 0, BuildingBlock: OLANEW_clean_sbu_2, # of connection points: 3
#     Node 8, Type 1, BuildingBlock: MIFKUJ_clean_linker_1, # of connection points: 4
#     Node 9, Type 1, BuildingBlock: MIFKUJ_clean_linker_1, # of connection points: 4
#     Node 10, Type 1, BuildingBlock: MIFKUJ_clean_linker_1, # of connection points: 4
#     Node 11, Type 1, BuildingBlock: MIFKUJ_clean_linker_1, # of connection points: 4
#     Node 12, Type 1, BuildingBlock: MIFKUJ_clean_linker_1, # of connection points: 4
#     Node 13, Type 1, BuildingBlock: MIFKUJ_clean_linker_1, # of connection points: 4
#     Edge 14, Type (0, 1), BuildingBlock: MIFKUJ_clean_linker_0, # of connection points: 2
#     Edge 15, Type (0, 1), BuildingBlock: MIFKUJ_clean_linker_0, # of connection points: 2
#     Edge 16, Type (0, 1), BuildingBlock: MIFKUJ_clean_linker_0, # of connection points: 2
#     Edge 17, Type (0, 1), BuildingBlock: MIFKUJ_clean_linker_0, # of connection points: 2
#     Edge 18, Type (0, 1), BuildingBlock: MIFKUJ_clean_linker_0, # of connection points: 2
#     Edge 19, Type (0, 1), BuildingBlock: MIFKUJ_clean_linker_0, # of connection points: 2
#     Edge 20, Type (0, 1), BuildingBlock: MIFKUJ_clean_linker_0, # of connection points: 2
#     Edge 21, Type (0, 1), BuildingBlock: MIFKUJ_clean_linker_0, # of connection points: 2
#     Edge 22, Type (0, 1), BuildingBlock: MIFKUJ_clean_linker_0, # of connection points: 2
#     Edge 23, Type (0, 1), BuildingBlock: MIFKUJ_clean_linker_0, # of connection points: 2
#     Edge 24, Type (0, 1), BuildingBlock: MIFKUJ_clean_linker_0, # of connection points: 2
#     Edge 25, Type (0, 1), BuildingBlock: MIFKUJ_clean_linker_0, # of connection points: 2
#     Edge 26, Type (0, 1), BuildingBlock: MIFKUJ_clean_linker_0, # of connection points: 2
#     Edge 27, Type (0, 1), BuildingBlock: MIFKUJ_clean_linker_0, # of connection points: 2
#     Edge 28, Type (0, 1), BuildingBlock: MIFKUJ_clean_linker_0, # of connection points: 2
#     Edge 29, Type (0, 1), BuildingBlock: MIFKUJ_clean_linker_0, # of connection points: 2
#     Edge 30, Type (0, 1), BuildingBlock: MIFKUJ_clean_linker_0, # of connection points: 2
#     Edge 31, Type (0, 1), BuildingBlock: MIFKUJ_clean_linker_0, # of connection points: 2
#     Edge 32, Type (0, 1), BuildingBlock: MIFKUJ_clean_linker_0, # of connection points: 2
#     Edge 33, Type (0, 1), BuildingBlock: MIFKUJ_clean_linker_0, # of connection points: 2
#     Edge 34, Type (0, 1), BuildingBlock: MIFKUJ_clean_linker_0, # of connection points: 2
#     Edge 35, Type (0, 1), BuildingBlock: MIFKUJ_clean_linker_0, # of connection points: 2
#     Edge 36, Type (0, 1), BuildingBlock: MIFKUJ_clean_linker_0, # of connection points: 2
#     Edge 37, Type (0, 1), BuildingBlock: MIFKUJ_clean_linker_0, # of connection points: 2
# Relax obj value: 0.007
# Max RMSD: 0.126
# Mean RMSD: 0.055
data_MOF--net-pto--node1-OLANEW_clean_sbu_2--node2-MIFKUJ_clean_linker_1--edge1-MIFKUJ_clean_linker_0
_symmetry_space_group_name_H-M    P1
_symmetry_Int_Tables_number       1
_symmetry_cell_setting            triclinic
loop_
_symmetry_equiv_pos_as_xyz
'x, y, z'
_cell_length_a     49.79146
_cell_length_b     77.366561
_cell_length_c     63.924844
_cell_angle_alpha  92.513104
_cell_angle_beta   89.513961
_cell_angle_gamma 105.1103
loop_
_atom_site_label
_atom_site_type_symbol
_atom_site_fract_x
_atom_site_fract_y
_atom_site_fract_z
_atom_type_partial_charge
O0 O 0.36082 0.33699 0.30104 0.0
Cd1 Cd 0.34589 0.34228 0.33671 0.0
O2 O 0.33602 0.35279 0.28602 0.0
Cd3 Cd 0.3162 0.36073 0.31413 0.0
O4 O 0.28803 0.37522 0.32854 0.0
C5 C 0.2621 0.36913 0.32513 0.0
O6 O 0.25327 0.35383 0.31441 0.0
C7 C 0.35318 0.34316 0.28465 0.0
C8 C 0.34741 0.31354 0.36117 0.0
O9 O 0.32459 0.3146 0.35286 0.0
O10 O 0.36938 0.32613 0.35812 0.0
O11 O 0.29272 0.84834 0.74342 0.0
Cd12 Cd 0.25807 0.84497 0.71563 0.0
O13 O 0.3132 0.82931 0.72784 0.0
Cd14 Cd 0.28128 0.8203 0.70369 0.0
O15 O 0.24859 0.79964 0.68778 0.0
C16 C 0.22308 0.798 0.69199 0.0
O17 O 0.21634 0.80973 0.70511 0.0
C18 C 0.31213 0.84042 0.74288 0.0
C19 C 0.26987 0.87467 0.69062 0.0
O20 O 0.25514 0.87427 0.70722 0.0
O21 O 0.27896 0.86097 0.68577 0.0
O22 O 0.80459 0.78172 0.3065 0.0
Cd23 Cd 0.79682 0.75749 0.27948 0.0
O24 O 0.76014 0.77507 0.31455 0.0
Cd25 Cd 0.74678 0.75694 0.28737 0.0
O26 O 0.72438 0.75467 0.25776 0.0
C27 C 0.70556 0.76306 0.25786 0.0
O28 O 0.70072 0.77127 0.27538 0.0
C29 C 0.78492 0.78438 0.31797 0.0
C30 C 0.82538 0.73181 0.28733 0.0
O31 O 0.83592 0.7449 0.27564 0.0
O32 O 0.80143 0.73093 0.29541 0.0
O33 O 0.75212 0.28564 0.6507 0.0
Cd34 Cd 0.71303 0.25908 0.6532 0.0
O35 O 0.76289 0.28646 0.68409 0.0
Cd36 Cd 0.72542 0.26657 0.69325 0.0
O37 O 0.69347 0.26538 0.71716 0.0
C38 C 0.69395 0.28069 0.72547 0.0
O39 O 0.71213 0.29482 0.71857 0.0
C40 C 0.76804 0.29264 0.66597 0.0
C41 C 0.72525 0.22881 0.63431 0.0
O42 O 0.7158 0.23955 0.62358 0.0
O43 O 0.72887 0.23235 0.65403 0.0
O44 O 0.74255 0.77842 0.65655 0.0
Cd45 Cd 0.72647 0.75266 0.67863 0.0
O46 O 0.77694 0.79254 0.67739 0.0
Cd47 Cd 0.76121 0.77476 0.70272 0.0
O48 O 0.73494 0.76966 0.73041 0.0
C49 C 0.71246 0.77446 0.72949 0.0
O50 O 0.70631 0.78094 0.71201 0.0
C51 C 0.76366 0.79153 0.66029 0.0
C52 C 0.75877 0.72817 0.67356 0.0
O53 O 0.73819 0.72744 0.66134 0.0
O54 O 0.76409 0.74047 0.68816 0.0
O55 O 0.81044 0.27211 0.30218 0.0
Cd56 Cd 0.78549 0.24244 0.28804 0.0
O57 O 0.77531 0.2837 0.29668 0.0
Cd58 Cd 0.74816 0.26062 0.27996 0.0
O59 O 0.72003 0.25686 0.25314 0.0
C60 C 0.72107 0.27151 0.24449 0.0
O61 O 0.73824 0.28627 0.25221 0.0
C62 C 0.79983 0.2854 0.30344 0.0
C63 C 0.78664 0.21529 0.31511 0.0
O64 O 0.80678 0.2212 0.3025 0.0
O65 O 0.76594 0.22226 0.31499 0.0
O66 O 0.25531 0.34837 0.7553 0.0
Cd67 Cd 0.22212 0.34003 0.72623 0.0
O68 O 0.29163 0.34926 0.73515 0.0
Cd69 Cd 0.26827 0.33915 0.70653 0.0
O70 O 0.26766 0.31833 0.68225 0.0
C71 C 0.28831 0.31163 0.68354 0.0
O72 O 0.30689 0.31795 0.69834 0.0
C73 C 0.28148 0.35112 0.75316 0.0
C74 C 0.19735 0.36718 0.71661 0.0
O75 O 0.18793 0.35657 0.73137 0.0
O76 O 0.21866 0.36505 0.70646 0.0
O77 O 0.37083 0.84643 0.29528 0.0
Cd78 Cd 0.35002 0.84014 0.32982 0.0
O79 O 0.33152 0.83328 0.2791 0.0
Cd80 Cd 0.3074 0.82342 0.30677 0.0
O81 O 0.27606 0.80079 0.3188 0.0
C82 C 0.26566 0.78888 0.30471 0.0
O83 O 0.27429 0.79149 0.28533 0.0
C84 C 0.35703 0.84184 0.27839 0.0
C85 C 0.35192 0.87147 0.35372 0.0
O86 O 0.37195 0.86392 0.35424 0.0
O87 O 0.33101 0.86418 0.34189 0.0
H88 H 0.97273 0.50444 0.30373 0.0
H89 H 0.94651 0.47294 0.30274 0.0
H90 H 0.98196 0.46637 0.36238 0.0
H91 H 0.00786 0.49798 0.36348 0.0
H92 H 0.97204 0.53193 0.32876 0.0
H93 H 0.04019 0.50124 0.30838 0.0
H94 H 0.0674 0.47925 0.31021 0.0
H95 H 0.10042 0.50278 0.37025 0.0
H96 H 0.07317 0.52482 0.36826 0.0
H97 H 0.0726 0.57883 0.3653 0.0
H98 H 0.10012 0.60999 0.36424 0.0
H99 H 0.06579 0.61376 0.30321 0.0
H100 H 0.03967 0.58243 0.30391 0.0
H101 H 0.07419 0.55015 0.34028 0.0
H102 H 0.00172 0.58022 0.35982 0.0
H103 H 0.977 0.60328 0.35437 0.0
H104 H 0.95492 0.58115 0.29177 0.0
H105 H 0.97937 0.55799 0.29738 0.0
C106 C 0.99247 0.50356 0.33358 0.0
C107 C 0.97472 0.49626 0.31668 0.0
C108 C 0.95974 0.47827 0.31613 0.0
C109 C 0.96224 0.4672 0.33247 0.0
C110 C 0.97991 0.47453 0.34944 0.0
C111 C 0.9947 0.49258 0.35007 0.0
C112 C 0.00863 0.52265 0.3339 0.0
C113 C 0.9944 0.53586 0.33112 0.0
C114 C 0.03779 0.52787 0.33716 0.0
C115 C 0.0544 0.51455 0.3383 0.0
C116 C 0.0531 0.50157 0.32203 0.0
C117 C 0.06862 0.48897 0.32312 0.0
C118 C 0.08597 0.4892 0.34043 0.0
C119 C 0.08745 0.50234 0.35661 0.0
C120 C 0.07186 0.51492 0.35553 0.0
C121 C 0.05379 0.57836 0.33482 0.0
C122 C 0.07111 0.58638 0.35168 0.0
C123 C 0.08662 0.60425 0.35113 0.0
C124 C 0.08512 0.61443 0.33366 0.0
C125 C 0.06772 0.6063 0.31681 0.0
C126 C 0.05244 0.58842 0.3173 0.0
C127 C 0.03756 0.55934 0.3353 0.0
C128 C 0.05178 0.54616 0.33817 0.0
C129 C 0.00849 0.5541 0.3318 0.0
C130 C 0.99237 0.56745 0.32898 0.0
C131 C 0.99137 0.58028 0.34499 0.0
C132 C 0.97723 0.59338 0.34189 0.0
C133 C 0.96419 0.59399 0.32262 0.0
C134 C 0.96501 0.58103 0.30669 0.0
C135 C 0.97876 0.56776 0.30993 0.0
H136 H 0.03602 0.58402 0.62713 0.0
H137 H 0.06066 0.61584 0.62753 0.0
H138 H 0.02122 0.62422 0.68627 0.0
H139 H -0.00371 0.5925 0.68547 0.0
H140 H 0.03756 0.5587 0.65783 0.0
H141 H 0.96776 0.58462 0.62578 0.0
H142 H 0.9402 0.60671 0.6266 0.0
H143 H 0.90543 0.58771 0.68606 0.0
H144 H 0.93302 0.56569 0.68516 0.0
H145 H 0.93279 0.51215 0.68293 0.0
H146 H 0.91026 0.47997 0.68266 0.0
H147 H 0.95725 0.47178 0.62769 0.0
H148 H 0.97963 0.504 0.62797 0.0
H149 H 0.93449 0.53787 0.65509 0.0
H150 H -0.00448 0.5115 0.6883 0.0
H151 H 0.02252 0.49017 0.69414 0.0
H152 H 0.07698 0.5116 0.64312 0.0
H153 H 0.04829 0.53202 0.6363 0.0
C154 C 0.0142 0.58596 0.65617 0.0
C155 C 0.0327 0.59276 0.64005 0.0
C156 C 0.04682 0.61093 0.64036 0.0
C157 C 0.04291 0.62262 0.65692 0.0
C158 C 0.02436 0.6157 0.67308 0.0
C159 C 0.01017 0.59755 0.67271 0.0
C160 C -0.00062 0.56669 0.65582 0.0
C161 C 0.01507 0.55407 0.65678 0.0
C162 C 0.97001 0.5608 0.65561 0.0
C163 C 0.95248 0.5736 0.65545 0.0
C164 C 0.95411 0.58519 0.63893 0.0
C165 C 0.93831 0.59773 0.63938 0.0
C166 C 0.9208 0.59896 0.65644 0.0
C167 C 0.91898 0.58718 0.67283 0.0
C168 C 0.93454 0.57453 0.67226 0.0
C169 C 0.95796 0.51043 0.65554 0.0
C170 C 0.93806 0.50344 0.67073 0.0
C171 C 0.92542 0.48506 0.67067 0.0
C172 C 0.93218 0.47339 0.65523 0.0
C173 C 0.95159 0.48048 0.63972 0.0
C174 C 0.96443 0.49885 0.63991 0.0
C175 C 0.97268 0.52976 0.65643 0.0
C176 C 0.95701 0.5424 0.65577 0.0
C177 C 0.00208 0.53568 0.65766 0.0
C178 C 0.01941 0.52311 0.66152 0.0
C179 C 0.01293 0.51139 0.67807 0.0
C180 C 0.02879 0.49937 0.68165 0.0
C181 C 0.0521 0.49911 0.66916 0.0
C182 C 0.05894 0.51116 0.65285 0.0
C183 C 0.04271 0.523 0.64905 0.0
H184 H 0.29407 0.06359 0.55507 0.0
H185 H 0.28638 0.03654 0.57504 0.0
H186 H 0.36847 0.03179 0.5582 0.0
H187 H 0.37605 0.05891 0.53822 0.0
H188 H 0.32988 0.09515 0.55928 0.0
H189 H 0.30724 0.04888 0.50617 0.0
H190 H 0.30965 0.02168 0.48625 0.0
H191 H 0.39431 0.04715 0.4688 0.0
H192 H 0.39201 0.07421 0.48935 0.0
H193 H 0.39453 0.13661 0.49944 0.0
H194 H 0.39668 0.16402 0.48102 0.0
H195 H 0.30685 0.14892 0.47598 0.0
H196 H 0.30508 0.12221 0.49543 0.0
H197 H 0.35791 0.09627 0.48452 0.0
H198 H 0.37759 0.14307 0.54087 0.0
H199 H 0.36941 0.16986 0.55875 0.0
H200 H 0.28301 0.1419 0.56701 0.0
H201 H 0.29129 0.11522 0.5488 0.0
C202 C 0.33556 0.06324 0.54504 0.0
C203 C 0.31047 0.05678 0.55576 0.0
C204 C 0.30613 0.04133 0.5672 0.0
C205 C 0.32683 0.03202 0.56822 0.0
C206 C 0.35198 0.03852 0.55749 0.0
C207 C 0.35635 0.05403 0.54609 0.0
C208 C 0.33991 0.07966 0.53287 0.0
C209 C 0.33591 0.0953 0.54292 0.0
C210 C 0.34793 0.07999 0.51153 0.0
C211 C 0.34956 0.0635 0.49945 0.0
C212 C 0.32642 0.04855 0.49825 0.0
C213 C 0.32774 0.03307 0.48668 0.0
C214 C 0.35216 0.03226 0.47592 0.0
C215 C 0.37531 0.04728 0.47712 0.0
C216 C 0.37397 0.06278 0.4887 0.0
C217 C 0.34967 0.1275 0.49875 0.0
C218 C 0.3754 0.13928 0.49426 0.0
C219 C 0.37653 0.15489 0.48364 0.0
C220 C 0.35192 0.15882 0.47701 0.0
C221 C 0.32622 0.14665 0.48121 0.0
C222 C 0.32513 0.13124 0.49212 0.0
C223 C 0.34811 0.11156 0.51107 0.0
C224 C 0.35239 0.09605 0.50098 0.0
C225 C 0.33983 0.11119 0.53224 0.0
C226 C 0.33499 0.12725 0.54342 0.0
C227 C 0.35688 0.14276 0.54646 0.0
C228 C 0.35222 0.15799 0.5568 0.0
C229 C 0.32556 0.15796 0.56426 0.0
C230 C 0.30369 0.14236 0.56123 0.0
C231 C 0.30842 0.1271 0.55099 0.0
H232 H 0.51105 0.85991 0.96774 0.0
H233 H 0.48709 0.86489 0.9361 0.0
H234 H 0.47014 0.80848 0.91862 0.0
H235 H 0.49398 0.80362 0.95016 0.0
H236 H 0.4931 0.8392 0.00084 0.0
H237 H 0.56059 0.84171 0.94625 0.0
H238 H 0.57926 0.83366 0.91276 0.0
H239 H 0.56792 0.7795 0.93232 0.0
H240 H 0.54874 0.78748 0.96561 0.0
H241 H 0.54865 0.78681 0.02548 0.0
H242 H 0.56925 0.77796 0.0565 0.0
H243 H 0.58693 0.83242 0.08199 0.0
H244 H 0.56645 0.84124 0.05083 0.0
H245 H 0.57011 0.80943 -0.0037 0.0
H246 H 0.49489 0.80367 0.04531 0.0
H247 H 0.47422 0.80881 0.07909 0.0
H248 H 0.49828 0.86584 0.07039 0.0
H249 H 0.51912 0.86059 0.03653 0.0
C250 C 0.50468 0.83145 0.96114 0.0
C251 C 0.50209 0.84863 0.95709 0.0
C252 C 0.48838 0.85145 0.93904 0.0
C253 C 0.47698 0.83711 0.92476 0.0
C254 C 0.47921 0.81987 0.92908 0.0
C255 C 0.49279 0.81706 0.94712 0.0
C256 C 0.51962 0.82844 0.98006 0.0
C257 C 0.51029 0.833 -0.00019 0.0
C258 C 0.54158 0.81991 0.97876 0.0
C259 C 0.55301 0.81517 0.9584 0.0
C260 C 0.56179 0.82805 0.94324 0.0
C261 C 0.57246 0.82344 0.92412 0.0
C262 C 0.57499 0.80594 0.91995 0.0
C263 C 0.56642 0.79312 0.93519 0.0
C264 C 0.55548 0.79767 0.95421 0.0
C265 C 0.5558 0.81465 0.03589 0.0
C266 C 0.55708 0.79687 0.0377 0.0
C267 C 0.5689 0.79183 0.05541 0.0
C268 C 0.57968 0.80449 0.07168 0.0
C269 C 0.57844 0.82231 0.06983 0.0
C270 C 0.56675 0.82737 0.05205 0.0
C271 C 0.5432 0.81983 0.01697 0.0
C272 C 0.55309 0.81578 -0.00275 0.0
C273 C 0.5215 0.82854 0.01826 0.0
C274 C 0.50866 0.83176 0.03853 0.0
C275 C 0.49574 0.81728 0.0507 0.0
C276 C 0.48382 0.82022 0.06991 0.0
C277 C 0.48464 0.83773 0.07734 0.0
C278 C 0.49756 0.85223 0.0651 0.0
C279 C 0.50928 0.84926 0.04575 0.0
H280 H 0.75689 0.97526 0.52972 0.0
H281 H 0.75672 0.94879 0.54945 0.0
H282 H 0.83886 0.94997 0.52626 0.0
H283 H 0.8389 0.97645 0.50646 0.0
H284 H 0.79292 0.0096 0.53102 0.0
H285 H 0.76426 0.95861 0.48427 0.0
H286 H 0.76687 0.93133 0.46499 0.0
H287 H 0.83789 0.96147 0.43086 0.0
H288 H 0.83656 0.98845 0.4516 0.0
H289 H 0.83203 0.03881 0.45074 0.0
H290 H 0.82997 0.06379 0.42943 0.0
H291 H 0.75429 0.06742 0.46096 0.0
H292 H 0.75544 0.04157 0.48108 0.0
H293 H 0.79963 0.00664 0.45354 0.0
H294 H 0.82757 0.05819 0.50106 0.0
H295 H 0.82115 0.08549 0.51889 0.0
H296 H 0.74842 0.05418 0.54993 0.0
H297 H 0.7544 0.02699 0.53166 0.0
C298 C 0.79784 0.97773 0.51656 0.0
C299 C 0.77494 0.96989 0.52901 0.0
C300 C 0.77477 0.95472 0.54013 0.0
C301 C 0.79772 0.94731 0.53927 0.0
C302 C 0.82097 0.95547 0.52725 0.0
C303 C 0.82097 0.97052 0.5159 0.0
C304 C 0.79706 0.99312 0.50379 0.0
C305 C 0.79423 0.00895 0.51406 0.0
C306 C 0.79916 0.99227 0.48169 0.0
C307 C 0.80058 0.97558 0.46976 0.0
C308 C 0.78084 0.95929 0.47302 0.0
C309 C 0.78206 0.94369 0.46164 0.0
C310 C 0.80256 0.94409 0.44622 0.0
C311 C 0.82212 0.96049 0.44283 0.0
C312 C 0.8212 0.97603 0.45452 0.0
C313 C 0.79414 0.03844 0.46776 0.0
C314 C 0.81485 0.04488 0.45292 0.0
C315 C 0.81382 0.05935 0.44092 0.0
C316 C 0.79213 0.06783 0.44358 0.0
C317 C 0.77118 0.06117 0.45829 0.0
C318 C 0.772 0.04651 0.47005 0.0
C319 C 0.79576 0.02325 0.48073 0.0
C320 C 0.79869 0.0074 0.47051 0.0
C321 C 0.79373 0.02409 0.50287 0.0
C322 C 0.7912 0.04055 0.51474 0.0
C323 C 0.81015 0.0572 0.51161 0.0
C324 C 0.80649 0.07278 0.5218 0.0
C325 C 0.78421 0.07194 0.53569 0.0
C326 C 0.76587 0.05519 0.5394 0.0
C327 C 0.76929 0.03966 0.52898 0.0
H328 H 0.47577 0.3489 0.97488 0.0
H329 H 0.44957 0.35649 0.94597 0.0
H330 H 0.44358 0.30451 0.91601 0.0
H331 H 0.46903 0.29673 0.9452 0.0
H332 H 0.46254 0.32428 0.0027 0.0
H333 H 0.52956 0.33647 0.9465 0.0
H334 H 0.54795 0.33253 0.91158 0.0
H335 H 0.54609 0.27782 0.9245 0.0
H336 H 0.52625 0.28157 0.95885 0.0
H337 H 0.53438 0.27821 0.01995 0.0
H338 H 0.56006 0.27124 0.04945 0.0
H339 H 0.56419 0.32351 0.07825 0.0
H340 H 0.54008 0.33073 0.04817 0.0
H341 H 0.54701 0.30246 0.9913 0.0
H342 H 0.47837 0.28858 0.04516 0.0
H343 H 0.46025 0.29097 0.08054 0.0
H344 H 0.46577 0.34696 0.0725 0.0
H345 H 0.48383 0.34446 0.03711 0.0
C346 C 0.47476 0.32234 0.96209 0.0
C347 C 0.46867 0.33908 0.96215 0.0
C348 C 0.45373 0.34342 0.94566 0.0
C349 C 0.44476 0.33113 0.92872 0.0
C350 C 0.45064 0.31432 0.92874 0.0
C351 C 0.46522 0.30989 0.94538 0.0
C352 C 0.49074 0.31788 0.97967 0.0
C353 C 0.48122 0.31973 0.00018 0.0
C354 C 0.51464 0.31139 0.9764 0.0
C355 C 0.52617 0.30925 0.95522 0.0
C356 C 0.53274 0.32355 0.94168 0.0
C357 C 0.54356 0.32133 0.92178 0.0
C358 C 0.54846 0.30483 0.91514 0.0
C359 C 0.5421 0.2906 0.92887 0.0
C360 C 0.53105 0.29279 0.94865 0.0
C361 C 0.53499 0.30491 0.03195 0.0
C362 C 0.5411 0.28822 0.03254 0.0
C363 C 0.55551 0.28418 0.04954 0.0
C364 C 0.56408 0.29675 0.06634 0.0
C365 C 0.55824 0.31356 0.06552 0.0
C366 C 0.54411 0.31765 0.04842 0.0
C367 C 0.51886 0.30895 0.01421 0.0
C368 C 0.52832 0.30701 0.99374 0.0
C369 C 0.49472 0.31514 0.01744 0.0
C370 C 0.4827 0.31639 0.03858 0.0
C371 C 0.47576 0.30138 0.05106 0.0
C372 C 0.4655 0.30278 0.07129 0.0
C373 C 0.46172 0.31918 0.07936 0.0
C374 C 0.4682 0.3341 0.06667 0.0
C375 C 0.47854 0.33271 0.04646 0.0
H376 H 0.20567 0.36001 0.31984 0.0
H377 H 0.17415 0.37923 0.32552 0.0
H378 H 0.24258 0.42232 0.34845 0.0
H379 H 0.27423 0.40309 0.34313 0.0
H380 H 0.19574 0.42101 0.37103 0.0
H381 H 0.22093 0.42075 0.29821 0.0
H382 H 0.22631 0.40692 0.26347 0.0
H383 H 0.13828 0.3829 0.26036 0.0
H384 H 0.13243 0.3964 0.29524 0.0
H385 H 0.14008 0.49504 0.35322 0.0
H386 H 0.16804 0.47337 0.35367 0.0
H387 H 0.09801 0.43174 0.33009 0.0
H388 H 0.06985 0.45333 0.3297 0.0
H389 H 0.14433 0.43146 0.30868 0.0
H390 H 0.11892 0.43324 0.381 0.0
H391 H 0.11391 0.44752 0.41554 0.0
H392 H 0.20246 0.46914 0.4195 0.0
H393 H 0.20797 0.45518 0.38484 0.0
C394 C 0.214 0.37351 0.32633 0.0
C395 C 0.24254 0.38008 0.33082 0.0
C396 C 0.19595 0.38449 0.3295 0.0
C397 C 0.20611 0.40231 0.33704 0.0
C398 C 0.23432 0.40864 0.34253 0.0
C399 C 0.25239 0.39763 0.33943 0.0
C400 C 0.18765 0.41461 0.33818 0.0
C401 C 0.18469 0.42344 0.35737 0.0
C402 C 0.17284 0.41751 0.32043 0.0
C403 C 0.17629 0.40943 0.29943 0.0
C404 C 0.20275 0.41241 0.29019 0.0
C405 C 0.20588 0.40464 0.27046 0.0
C406 C 0.18266 0.39399 0.25974 0.0
C407 C 0.15625 0.39113 0.2687 0.0
C408 C 0.15302 0.39884 0.28844 0.0
C409 C 0.13049 0.48122 0.34842 0.0
C410 C 0.10273 0.47591 0.34142 0.0
C411 C 0.14652 0.46884 0.34868 0.0
C412 C 0.13504 0.45089 0.34209 0.0
C413 C 0.1073 0.44553 0.33522 0.0
C414 C 0.09127 0.4579 0.33493 0.0
C415 C 0.15233 0.43788 0.34155 0.0
C416 C 0.15518 0.42894 0.32241 0.0
C417 C 0.16706 0.43494 0.35933 0.0
C418 C 0.16383 0.44329 0.38023 0.0
C419 C 0.13731 0.44115 0.38916 0.0
C420 C 0.13438 0.44917 0.40877 0.0
C421 C 0.15785 0.45927 0.41969 0.0
C422 C 0.1843 0.46133 0.41102 0.0
C423 C 0.18734 0.45335 0.3914 0.0
H424 H 0.15554 0.46546 0.43487 0.0
H425 H 0.18513 0.388 0.24447 0.0
H426 H 0.16671 0.79025 0.69778 0.0
H427 H 0.13226 0.76216 0.68843 0.0
H428 H 0.19667 0.74102 0.66011 0.0
H429 H 0.23107 0.76915 0.66893 0.0
H430 H 0.15027 0.73065 0.63741 0.0
H431 H 0.1743 0.7316 0.71051 0.0
H432 H 0.17982 0.74383 0.74696 0.0
H433 H 0.09255 0.74085 0.74997 0.0
H434 H 0.08658 0.7288 0.71342 0.0
H435 H 0.09733 0.63692 0.64629 0.0
H436 H 0.12368 0.66831 0.64872 0.0
H437 H 0.05108 0.68325 0.67225 0.0
H438 H 0.0243 0.65184 0.66946 0.0
H439 H 0.09726 0.69799 0.69612 0.0
H440 H 0.07299 0.69347 0.62359 0.0
H441 H 0.06845 0.68031 0.58755 0.0
H442 H 0.1571 0.6891 0.58372 0.0
H443 H 0.16216 0.70208 0.61986 0.0
C444 C 0.17349 0.77971 0.68932 0.0
C445 C 0.20169 0.78188 0.6843 0.0
C446 C 0.15378 0.76363 0.68406 0.0
C447 C 0.16197 0.74936 0.67392 0.0
C448 C 0.18987 0.75182 0.66799 0.0
C449 C 0.20954 0.76792 0.67311 0.0
C450 C 0.14194 0.73153 0.67051 0.0
C451 C 0.1388 0.72346 0.65026 0.0
C452 C 0.12651 0.72229 0.6872 0.0
C453 C 0.13006 0.72951 0.70916 0.0
C454 C 0.15633 0.73369 0.71889 0.0
C455 C 0.15953 0.74056 0.73958 0.0
C456 C 0.13657 0.74317 0.75075 0.0
C457 C 0.11033 0.73886 0.74128 0.0
C458 C 0.10702 0.732 0.72059 0.0
C459 C 0.08676 0.64688 0.65161 0.0
C460 C 0.05866 0.64183 0.65766 0.0
C461 C 0.1019 0.66484 0.65303 0.0
C462 C 0.08927 0.67813 0.66049 0.0
C463 C 0.06121 0.67319 0.66644 0.0
C464 C 0.046 0.65523 0.66494 0.0
C465 C 0.10584 0.69702 0.66308 0.0
C466 C 0.1084 0.70527 0.6832 0.0
C467 C 0.12086 0.70635 0.6463 0.0
C468 C 0.11793 0.69862 0.62451 0.0
C469 C 0.09151 0.69247 0.61513 0.0
C470 C 0.08884 0.68506 0.59466 0.0
C471 C 0.11246 0.68384 0.58337 0.0
C472 C 0.13881 0.69005 0.59249 0.0
C473 C 0.14159 0.69745 0.61296 0.0
H474 H 0.11036 0.6781 0.56753 0.0
H475 H 0.13909 0.74849 0.76677 0.0
H476 H 0.81331 0.70611 0.31649 0.0
H477 H 0.83769 0.68309 0.3226 0.0
H478 H 0.89509 0.70303 0.27297 0.0
H479 H 0.87101 0.72621 0.26686 0.0
H480 H 0.87286 0.66523 0.27112 0.0
H481 H 0.91709 0.7126 0.32074 0.0
H482 H 0.91805 0.73487 0.34972 0.0
H483 H 0.87827 0.69285 0.39008 0.0
H484 H 0.87671 0.67035 0.36123 0.0
H485 H 0.97107 0.61601 0.28978 0.0
H486 H 0.94805 0.63972 0.28393 0.0
H487 H 0.9019 0.62748 0.34127 0.0
H488 H 0.92577 0.6042 0.34753 0.0
H489 H 0.91821 0.66168 0.33903 0.0
H490 H 0.8726 0.61424 0.29082 0.0
H491 H 0.86919 0.59123 0.26233 0.0
H492 H 0.90789 0.63187 0.21995 0.0
H493 H 0.91187 0.65512 0.24828 0.0
C494 C 0.83115 0.70562 0.3069 0.0
C495 C 0.84027 0.718 0.29122 0.0
C496 C 0.84509 0.6925 0.31045 0.0
C497 C 0.86825 0.69143 0.29829 0.0
C498 C 0.87726 0.70365 0.28251 0.0
C499 C 0.86354 0.71692 0.27911 0.0
C500 C 0.88291 0.67744 0.30193 0.0
C501 C 0.88312 0.66455 0.28585 0.0
C502 C 0.89551 0.6763 0.32138 0.0
C503 C 0.89653 0.68981 0.33876 0.0
C504 C 0.90832 0.70812 0.33574 0.0
C505 C 0.90902 0.72078 0.35215 0.0
C506 C 0.89816 0.71528 0.37171 0.0
C507 C 0.88664 0.6971 0.37491 0.0
C508 C 0.88587 0.68438 0.35854 0.0
C509 C 0.95591 0.61836 0.30106 0.0
C510 C 0.95004 0.60824 0.31904 0.0
C511 C 0.94269 0.63186 0.29768 0.0
C512 C 0.9228 0.63521 0.31195 0.0
C513 C 0.91711 0.62517 0.33002 0.0
C514 C 0.93071 0.61187 0.33358 0.0
C515 C 0.9082 0.64931 0.3082 0.0
C516 C 0.90797 0.66226 0.32427 0.0
C517 C 0.89521 0.65034 0.28882 0.0
C518 C 0.89278 0.6364 0.27173 0.0
C519 C 0.88057 0.61826 0.27547 0.0
C520 C 0.8785 0.60517 0.25934 0.0
C521 C 0.88838 0.61008 0.23936 0.0
C522 C 0.90028 0.62809 0.23544 0.0
C523 C 0.90242 0.64122 0.25152 0.0
H524 H 0.88676 0.59993 0.22689 0.0
H525 H 0.89872 0.7251 0.3844 0.0
H526 H 0.78294 0.31126 0.63029 0.0
H527 H 0.8159 0.34067 0.6275 0.0
H528 H 0.83733 0.34071 0.69273 0.0
H529 H 0.80442 0.31144 0.69573 0.0
H530 H 0.82208 0.37057 0.68333 0.0
H531 H 0.88386 0.33717 0.65512 0.0
H532 H 0.89804 0.31525 0.63128 0.0
H533 H 0.8872 0.34523 0.57847 0.0
H534 H 0.87258 0.36721 0.60198 0.0
H535 H 0.92606 0.45192 0.68857 0.0
H536 H 0.90267 0.41996 0.68933 0.0
H537 H 0.88511 0.41887 0.62322 0.0
H538 H 0.90901 0.45082 0.62233 0.0
H539 H 0.89938 0.38923 0.63285 0.0
H540 H 0.83555 0.42152 0.65991 0.0
H541 H 0.82008 0.44344 0.68296 0.0
H542 H 0.8328 0.41531 0.7369 0.0
H543 H 0.84873 0.39336 0.71418 0.0
C544 C 0.79504 0.31737 0.64395 0.0
C545 C 0.79085 0.30905 0.66328 0.0
C546 C 0.81394 0.33416 0.64231 0.0
C547 C 0.82903 0.34287 0.65993 0.0
C548 C 0.82581 0.33424 0.67897 0.0
C549 C 0.80701 0.31747 0.68062 0.0
C550 C 0.84622 0.36162 0.65906 0.0
C551 C 0.8393 0.37459 0.67254 0.0
C552 C 0.86804 0.36694 0.64448 0.0
C553 C 0.87686 0.35375 0.63031 0.0
C554 C 0.88427 0.33901 0.63841 0.0
C555 C 0.89244 0.32659 0.62496 0.0
C556 C 0.89345 0.32882 0.60337 0.0
C557 C 0.88637 0.3435 0.59519 0.0
C558 C 0.87817 0.35596 0.60858 0.0
C559 C 0.91719 0.44485 0.67422 0.0
C560 C 0.91905 0.45387 0.65544 0.0
C561 C 0.90387 0.4266 0.67465 0.0
C562 C 0.8917 0.41709 0.6564 0.0
C563 C 0.89431 0.42594 0.63749 0.0
C564 C 0.90791 0.44418 0.637 0.0
C565 C 0.87536 0.39812 0.65726 0.0
C566 C 0.88228 0.38515 0.64373 0.0
C567 C 0.8533 0.39277 0.67167 0.0
C568 C 0.84359 0.4059 0.68536 0.0
C569 C 0.83524 0.42008 0.6767 0.0
C570 C 0.82636 0.4325 0.6897 0.0
C571 C 0.82552 0.4308 0.71138 0.0
C572 C 0.8335 0.41664 0.7201 0.0
C573 C 0.84243 0.40419 0.70717 0.0
H574 H 0.81864 0.44042 0.72142 0.0
H575 H 0.89979 0.31919 0.59297 0.0
H576 H 0.39295 0.30179 0.3702 0.0
H577 H 0.39447 0.27574 0.39021 0.0
H578 H 0.30611 0.26468 0.40081 0.0
H579 H 0.30424 0.29043 0.38034 0.0
H580 H 0.3444 0.26529 0.43812 0.0
H581 H 0.32053 0.23949 0.36785 0.0
H582 H 0.32788 0.23754 0.32971 0.0
H583 H 0.40858 0.22913 0.33991 0.0
H584 H 0.40186 0.23131 0.37813 0.0
H585 H 0.3151 0.17981 0.47986 0.0
H586 H 0.31544 0.20619 0.46048 0.0
H587 H 0.39233 0.20322 0.43074 0.0
H588 H 0.39093 0.17587 0.44878 0.0
H589 H 0.36157 0.21068 0.40305 0.0
H590 H 0.38851 0.23589 0.47129 0.0
H591 H 0.38632 0.23984 0.50964 0.0
H592 H 0.30688 0.2514 0.50446 0.0
H593 H 0.30859 0.24745 0.46599 0.0
C594 C 0.37385 0.29383 0.37683 0.0
C595 C 0.34846 0.29811 0.3737 0.0
C596 C 0.37476 0.27896 0.38819 0.0
C597 C 0.3504 0.26835 0.39691 0.0
C598 C 0.32511 0.27276 0.39417 0.0
C599 C 0.32407 0.28741 0.38244 0.0
C600 C 0.35131 0.25252 0.40875 0.0
C601 C 0.34779 0.25322 0.43051 0.0
C602 C 0.35684 0.23715 0.3988 0.0
C603 C 0.36082 0.23577 0.37584 0.0
C604 C 0.33996 0.23741 0.36196 0.0
C605 C 0.34398 0.23622 0.34033 0.0
C606 C 0.36872 0.23327 0.33239 0.0
C607 C 0.38945 0.23145 0.34607 0.0
C608 C 0.38554 0.23265 0.36772 0.0
C609 C 0.33193 0.18455 0.46899 0.0
C610 C 0.35292 0.17554 0.46589 0.0
C611 C 0.33235 0.19991 0.45816 0.0
C612 C 0.35419 0.20697 0.44438 0.0
C613 C 0.3753 0.19811 0.44134 0.0
C614 C 0.37463 0.18254 0.45189 0.0
C615 C 0.35445 0.22323 0.43266 0.0
C616 C 0.35823 0.22268 0.41085 0.0
C617 C 0.34983 0.23893 0.44266 0.0
C618 C 0.34857 0.24121 0.46578 0.0
C619 C 0.37048 0.23914 0.47834 0.0
C620 C 0.36933 0.24141 0.5001 0.0
C621 C 0.3464 0.24579 0.50952 0.0
C622 C 0.32461 0.24798 0.49715 0.0
C623 C 0.32569 0.24577 0.47536 0.0
H624 H 0.34554 0.24756 0.52637 0.0
H625 H 0.37179 0.23235 0.31564 0.0
H626 H 0.31383 0.86111 0.77904 0.0
H627 H 0.34442 0.86304 0.80926 0.0
H628 H 0.38664 0.82782 0.77662 0.0
H629 H 0.356 0.82563 0.74649 0.0
H630 H 0.37138 0.81678 0.81502 0.0
H631 H 0.41797 0.87251 0.78499 0.0
H632 H 0.42152 0.90218 0.77091 0.0
H633 H 0.39429 0.92044 0.82978 0.0
H634 H 0.39022 0.89077 0.84413 0.0
H635 H 0.48162 0.82326 0.88528 0.0
H636 H 0.45566 0.82623 0.85398 0.0
H637 H 0.41397 0.86039 0.88914 0.0
H638 H 0.43989 0.85744 0.92062 0.0
H639 H 0.4286 0.87261 0.85001 0.0
H640 H 0.38132 0.81721 0.87991 0.0
H641 H 0.37723 0.7876 0.89433 0.0
H642 H 0.40471 0.76876 0.83587 0.0
H643 H 0.40935 0.79836 0.82119 0.0
C644 C 0.32985 0.85395 0.77818 0.0
C645 C 0.33236 0.84315 0.76036 0.0
C646 C 0.34738 0.85512 0.79545 0.0
C647 C 0.36788 0.84562 0.79517 0.0
C648 C 0.37092 0.83524 0.77719 0.0
C649 C 0.35341 0.83404 0.75995 0.0
C650 C 0.385 0.84555 0.81403 0.0
C651 C 0.38423 0.82898 0.82246 0.0
C652 C 0.40104 0.8615 0.82415 0.0
C653 C 0.40352 0.87936 0.81556 0.0
C654 C 0.41252 0.8828 0.79488 0.0
C655 C 0.41467 0.89963 0.78686 0.0
C656 C 0.40806 0.91317 0.79943 0.0
C657 C 0.39936 0.90992 0.82006 0.0
C658 C 0.39716 0.89311 0.82815 0.0
C659 C 0.46689 0.83138 0.88637 0.0
C660 C 0.46256 0.83994 0.90548 0.0
C661 C 0.45214 0.83311 0.86846 0.0
C662 C 0.43259 0.84332 0.86932 0.0
C663 C 0.42895 0.85244 0.88816 0.0
C664 C 0.44378 0.85075 0.90611 0.0
C665 C 0.41522 0.84383 0.85075 0.0
C666 C 0.41581 0.86044 0.84248 0.0
C667 C 0.39887 0.82792 0.84078 0.0
C668 C 0.39593 0.81006 0.84952 0.0
C669 C 0.38669 0.8068 0.87018 0.0
C670 C 0.38424 0.79001 0.8784 0.0
C671 C 0.39077 0.77632 0.86604 0.0
C672 C 0.39969 0.77938 0.84543 0.0
C673 C 0.40221 0.79616 0.83714 0.0
H674 H 0.38887 0.76333 0.87243 0.0
H675 H 0.40974 0.92619 0.79319 0.0
H676 H 0.74718 0.79377 0.34432 0.0
H677 H 0.75398 0.82076 0.36692 0.0
H678 H 0.8408 0.83629 0.35029 0.0
H679 H 0.83426 0.80916 0.32753 0.0
H680 H 0.83076 0.84323 0.39308 0.0
H681 H 0.79922 0.85451 0.32559 0.0
H682 H 0.76842 0.84823 0.29464 0.0
H683 H 0.6989 0.8516 0.33333 0.0
H684 H 0.72922 0.85763 0.36458 0.0
H685 H 0.8481 0.93367 0.43085 0.0
H686 H 0.84846 0.90701 0.40915 0.0
H687 H 0.75887 0.88975 0.41207 0.0
H688 H 0.75815 0.91699 0.43224 0.0
H689 H 0.77406 0.88444 0.37452 0.0
H690 H 0.80543 0.87276 0.44236 0.0
H691 H 0.8363 0.87925 0.47316 0.0
H692 H 0.90584 0.87597 0.43451 0.0
H693 H 0.87555 0.8701 0.40326 0.0
C694 C 0.76785 0.80275 0.34563 0.0
C695 C 0.79012 0.79939 0.33391 0.0
C696 C 0.77166 0.81821 0.35854 0.0
C697 C 0.79777 0.83064 0.35997 0.0
C698 C 0.82045 0.82687 0.34929 0.0
C699 C 0.81666 0.81138 0.33629 0.0
C700 C 0.80074 0.84803 0.3716 0.0
C701 C 0.81868 0.8524 0.38892 0.0
C702 C 0.7847 0.85982 0.36624 0.0
C703 C 0.76645 0.85637 0.34745 0.0
C704 C 0.77733 0.85378 0.32752 0.0
C705 C 0.75996 0.85028 0.30992 0.0
C706 C 0.73171 0.84947 0.31203 0.0
C707 C 0.72078 0.85221 0.33173 0.0
C708 C 0.73805 0.85569 0.34939 0.0
C709 C 0.82841 0.92436 0.42665 0.0
C710 C 0.80308 0.92756 0.43347 0.0
C711 C 0.82869 0.90894 0.41446 0.0
C712 C 0.80372 0.89616 0.40924 0.0
C713 C 0.77845 0.89934 0.41595 0.0
C714 C 0.77811 0.91487 0.42779 0.0
C715 C 0.80358 0.87957 0.3965 0.0
C716 C 0.78624 0.87536 0.37879 0.0
C717 C 0.82014 0.86793 0.40159 0.0
C718 C 0.83826 0.87119 0.42043 0.0
C719 C 0.82734 0.87356 0.44038 0.0
C720 C 0.84474 0.87711 0.45794 0.0
C721 C 0.873 0.87797 0.45584 0.0
C722 C 0.88394 0.87531 0.43613 0.0
C723 C 0.86669 0.87192 0.41847 0.0
H724 H 0.88641 0.8807 0.46949 0.0
H725 H 0.7183 0.84676 0.29838 0.0
H726 H 0.69343 0.31145 0.74769 0.0
H727 H 0.66606 0.31483 0.77867 0.0
H728 H 0.62618 0.25816 0.77514 0.0
H729 H 0.65362 0.2546 0.74392 0.0
H730 H 0.58925 0.28002 0.78434 0.0
H731 H 0.67645 0.27246 0.80893 0.0
H732 H 0.7276 0.2791 0.81078 0.0
H733 H 0.73214 0.3332 0.83206 0.0
H734 H 0.68102 0.32695 0.83005 0.0
H735 H 0.5359 0.27522 0.88815 0.0
H736 H 0.5584 0.27081 0.85503 0.0
H737 H 0.61042 0.32495 0.86105 0.0
H738 H 0.58917 0.32912 0.89478 0.0
H739 H 0.64067 0.30337 0.85017 0.0
H740 H 0.55459 0.31188 0.82569 0.0
H741 H 0.50363 0.30632 0.82326 0.0
H742 H 0.49674 0.2521 0.80125 0.0
H743 H 0.54766 0.25726 0.80383 0.0
C744 C 0.67873 0.29968 0.75336 0.0
C745 C 0.67587 0.28271 0.74342 0.0
C746 C 0.66314 0.30165 0.77111 0.0
C747 C 0.64436 0.28672 0.77931 0.0
C748 C 0.64064 0.26984 0.76904 0.0
C749 C 0.65638 0.26783 0.75128 0.0
C750 C 0.62951 0.28876 0.79906 0.0
C751 C 0.60039 0.28488 0.79884 0.0
C752 C 0.64419 0.29553 0.81779 0.0
C753 C 0.67492 0.29928 0.81916 0.0
C754 C 0.68837 0.28581 0.81385 0.0
C755 C 0.71735 0.2895 0.81495 0.0
C756 C 0.73311 0.30657 0.82149 0.0
C757 C 0.71991 0.31999 0.82698 0.0
C758 C 0.69093 0.31638 0.82589 0.0
C759 C 0.55225 0.28617 0.88252 0.0
C760 C 0.56076 0.30252 0.89423 0.0
C761 C 0.56485 0.2837 0.86341 0.0
C762 C 0.58591 0.29761 0.85539 0.0
C763 C 0.59417 0.31402 0.86688 0.0
C764 C 0.58177 0.31645 0.88609 0.0
C765 C 0.60024 0.29483 0.83554 0.0
C766 C 0.62938 0.29851 0.83573 0.0
C767 C 0.58554 0.28804 0.81677 0.0
C768 C 0.55492 0.28491 0.81515 0.0
C769 C 0.54219 0.29873 0.82049 0.0
C770 C 0.51332 0.29566 0.81906 0.0
C771 C 0.49695 0.27885 0.81216 0.0
C772 C 0.50944 0.2651 0.80662 0.0
C773 C 0.53831 0.2681 0.80804 0.0
H774 H 0.4746 0.2765 0.81106 0.0
H775 H 0.75555 0.3094 0.82233 0.0
H776 H 0.25765 0.90674 0.69876 0.0
H777 H 0.26809 0.93289 0.67715 0.0
H778 H 0.3064 0.90466 0.63102 0.0
H779 H 0.29659 0.87853 0.65283 0.0
H780 H 0.33717 0.93807 0.63721 0.0
H781 H 0.2409 0.91046 0.62331 0.0
H782 H 0.19169 0.89725 0.63203 0.0
H783 H 0.18705 0.94706 0.66226 0.0
H784 H 0.23637 0.9605 0.65398 0.0
H785 H 0.33992 0.00052 0.55739 0.0
H786 H 0.33121 0.97341 0.57751 0.0
H787 H 0.29435 -0.00064 0.62684 0.0
H788 H 0.30305 0.02647 0.60688 0.0
H789 H 0.26271 0.96622 0.61746 0.0
H790 H 0.3598 0.99342 0.63187 0.0
H791 H 0.40889 0.00641 0.62261 0.0
H792 H 0.41162 0.95699 0.59047 0.0
H793 H 0.36241 0.94377 0.59932 0.0
C794 C 0.26827 0.90606 0.684 0.0
C795 C 0.27617 0.89052 0.67747 0.0
C796 C 0.27413 0.92102 0.67162 0.0
C797 C 0.28765 0.92066 0.65229 0.0
C798 C 0.29588 0.90523 0.64584 0.0
C799 C 0.29018 0.89029 0.6583 0.0
C800 C 0.29335 0.93644 0.63893 0.0
C801 C 0.32082 0.94406 0.63263 0.0
C802 C 0.2721 0.94446 0.63323 0.0
C803 C 0.24241 0.93643 0.63818 0.0
C804 C 0.22945 0.91855 0.63196 0.0
C805 C 0.20152 0.91103 0.6368 0.0
C806 C 0.18627 0.9213 0.64773 0.0
C807 C 0.1989 0.93912 0.65381 0.0
C808 C 0.22683 0.9467 0.64903 0.0
C809 C 0.33024 0.00051 0.57262 0.0
C810 C 0.32215 0.01565 0.58053 0.0
C811 C 0.32525 0.98501 0.58409 0.0
C812 C 0.3123 0.98441 0.60375 0.0
C813 C 0.30427 -0.0005 0.61168 0.0
C814 C 0.30919 0.01497 0.60022 0.0
C815 C 0.30655 0.96796 0.61596 0.0
C816 C 0.27904 0.96019 0.622 0.0
C817 C 0.32773 0.95978 0.62133 0.0
C818 C 0.35735 0.96768 0.61608 0.0
C819 C 0.37081 0.98537 0.6227 0.0
C820 C 0.39866 0.99276 0.61755 0.0
C821 C 0.41334 0.98255 0.60592 0.0
C822 C 0.40021 0.96489 0.59946 0.0
C823 C 0.37235 0.95744 0.60455 0.0
H824 H 0.43491 0.98829 0.60195 0.0
H825 H 0.16465 0.91545 0.65146 0.0
H826 H 0.71281 0.74989 0.21824 0.0
H827 H 0.69026 0.75478 0.18594 0.0
H828 H 0.64279 0.78534 0.22118 0.0
H829 H 0.66481 0.78032 0.25347 0.0
H830 H 0.61093 0.76372 0.19211 0.0
H831 H 0.70089 0.80613 0.19459 0.0
H832 H 0.75207 0.81569 0.19716 0.0
H833 H 0.75862 0.78405 0.14139 0.0
H834 H 0.70743 0.7741 0.13866 0.0
H835 H 0.57246 0.81382 0.1127 0.0
H836 H 0.5931 0.8048 0.14365 0.0
H837 H 0.63542 0.77372 0.10418 0.0
H838 H 0.61533 0.78301 0.07312 0.0
H839 H 0.66963 0.79374 0.1343 0.0
H840 H 0.57879 0.75294 0.13092 0.0
H841 H 0.52759 0.74437 0.12847 0.0
H842 H 0.52262 0.77394 0.18616 0.0
H843 H 0.57383 0.78291 0.18881 0.0
C844 C 0.69739 0.75752 0.21913 0.0
C845 C 0.69074 0.76481 0.23842 0.0
C846 C 0.68462 0.76037 0.20065 0.0
C847 C 0.66511 0.77063 0.20113 0.0
C848 C 0.6578 0.7774 0.22044 0.0
C849 C 0.67051 0.77456 0.23889 0.0
C850 C 0.65283 0.7748 0.18152 0.0
C851 C 0.62376 0.77041 0.17954 0.0
C852 C 0.66958 0.78324 0.16495 0.0
C853 C 0.70034 0.78921 0.16656 0.0
C854 C 0.71324 0.80109 0.18298 0.0
C855 C 0.74225 0.8066 0.18444 0.0
C856 C 0.75859 0.80044 0.16949 0.0
C857 C 0.74594 0.78878 0.15299 0.0
C858 C 0.71694 0.78321 0.15147 0.0
C859 C 0.58632 0.80517 0.11061 0.0
C860 C 0.59222 0.79908 0.09049 0.0
C861 C 0.59789 0.7999 0.12831 0.0
C862 C 0.61553 0.78842 0.12621 0.0
C863 C 0.62175 0.78251 0.10613 0.0
C864 C 0.61011 0.78773 0.08843 0.0
C865 C 0.62774 0.78277 0.14497 0.0
C866 C 0.65681 0.78691 0.14679 0.0
C867 C 0.61098 0.7742 0.16144 0.0
C868 C 0.58017 0.76872 0.15997 0.0
C869 C 0.56679 0.75773 0.14301 0.0
C870 C 0.53776 0.75278 0.14159 0.0
C871 C 0.52186 0.75864 0.15712 0.0
C872 C 0.53496 0.76942 0.17413 0.0
C873 C 0.56399 0.77443 0.17561 0.0
H874 H 0.49939 0.75479 0.156 0.0
H875 H 0.78104 0.80473 0.17064 0.0
H876 H 0.72973 0.22126 0.5925 0.0
H877 H 0.74066 0.19492 0.57583 0.0
H878 H 0.7456 0.17357 0.63652 0.0
H879 H 0.7357 0.20025 0.65332 0.0
H880 H 0.78606 0.16838 0.61363 0.0
H881 H 0.68809 0.15775 0.60274 0.0
H882 H 0.64472 0.1644 0.5915 0.0
H883 H 0.6741 0.16837 0.52809 0.0
H884 H 0.71782 0.16198 0.539 0.0
H885 H 0.77353 0.07794 0.57698 0.0
H886 H 0.76462 0.10504 0.59364 0.0
H887 H 0.77535 0.13025 0.53419 0.0
H888 H 0.7843 0.10317 0.51744 0.0
H889 H 0.72715 0.13322 0.55623 0.0
H890 H 0.82538 0.14296 0.56841 0.0
H891 H 0.86722 0.13495 0.58065 0.0
H892 H 0.83486 0.13093 0.64324 0.0
H893 H 0.79262 0.13867 0.6313 0.0
C894 C 0.73311 0.21095 0.6023 0.0
C895 C 0.73174 0.2128 0.62422 0.0
C896 C 0.73923 0.19583 0.59274 0.0
C897 C 0.74349 0.18207 0.60488 0.0
C898 C 0.74235 0.18398 0.6268 0.0
C899 C 0.73662 0.19922 0.63639 0.0
C900 C 0.74943 0.16579 0.59475 0.0
C901 C 0.77292 0.16058 0.60128 0.0
C902 C 0.73262 0.15571 0.57835 0.0
C903 C 0.70635 0.15957 0.57174 0.0
C904 C 0.6854 0.16019 0.58643 0.0
C905 C 0.66073 0.16388 0.58011 0.0
C906 C 0.65669 0.16685 0.5591 0.0
C907 C 0.67728 0.16609 0.54436 0.0
C908 C 0.702 0.16242 0.5506 0.0
C909 C 0.774 0.08927 0.56749 0.0
C910 C 0.77967 0.0885 0.54594 0.0
C911 C 0.76905 0.10475 0.57703 0.0
C912 C 0.76948 0.11965 0.56515 0.0
C913 C 0.775 0.11889 0.54362 0.0
C914 C 0.78028 0.10349 0.53412 0.0
C915 C 0.76367 0.13593 0.57515 0.0
C916 C 0.74022 0.14109 0.56858 0.0
C917 C 0.78027 0.1458 0.59169 0.0
C918 C 0.80571 0.14122 0.59892 0.0
C919 C 0.82707 0.14022 0.58475 0.0
C920 C 0.85088 0.13576 0.59164 0.0
C921 C 0.85366 0.13239 0.6127 0.0
C922 C 0.83266 0.13352 0.62693 0.0
C923 C 0.80879 0.13796 0.62011 0.0
H924 H 0.87211 0.12894 0.61801 0.0
H925 H 0.63758 0.16971 0.55424 0.0
H926 H 0.39075 0.32353 0.27552 0.0
H927 H 0.40965 0.31789 0.24117 0.0
H928 H 0.36033 0.34882 0.21263 0.0
H929 H 0.34109 0.35432 0.24673 0.0
H930 H 0.35774 0.31833 0.19024 0.0
H931 H 0.42974 0.36623 0.22206 0.0
H932 H 0.46385 0.38078 0.24937 0.0
H933 H 0.50553 0.33889 0.24089 0.0
H934 H 0.47142 0.32396 0.21372 0.0
H935 H 0.42303 0.33664 0.09252 0.0
H936 H 0.40535 0.33918 0.12797 0.0
H937 H 0.45776 0.30739 0.15031 0.0
H938 H 0.47621 0.30525 0.11493 0.0
H939 H 0.45926 0.336 0.17645 0.0
H940 H 0.38883 0.28894 0.14327 0.0
H941 H 0.35506 0.27457 0.11567 0.0
H942 H 0.31054 0.31475 0.12661 0.0
H943 H 0.34429 0.32951 0.15408 0.0
C944 C 0.38389 0.32911 0.26194 0.0
C945 C 0.36445 0.33942 0.26391 0.0
C946 C 0.39479 0.32593 0.24233 0.0
C947 C 0.38659 0.33309 0.22438 0.0
C948 C 0.36695 0.34317 0.22627 0.0
C949 C 0.35604 0.34634 0.24582 0.0
C950 C 0.39834 0.33013 0.20353 0.0
C951 C 0.37992 0.32235 0.18717 0.0
C952 C 0.42733 0.33491 0.19969 0.0
C953 C 0.44782 0.34387 0.21604 0.0
C954 C 0.44603 0.36004 0.22615 0.0
C955 C 0.46539 0.36837 0.24158 0.0
C956 C 0.48679 0.36074 0.24691 0.0
C957 C 0.48891 0.34477 0.23678 0.0
C958 C 0.46958 0.33637 0.22136 0.0
C959 C 0.43097 0.33031 0.105 0.0
C960 C 0.45095 0.32069 0.10091 0.0
C961 C 0.42066 0.33163 0.12522 0.0
C962 C 0.42995 0.32325 0.14172 0.0
C963 C 0.45019 0.31386 0.13777 0.0
C964 C 0.46052 0.31253 0.11753 0.0
C965 C 0.41862 0.32446 0.1631 0.0
C966 C 0.43709 0.33186 0.17956 0.0
C967 C 0.38968 0.31932 0.16706 0.0
C968 C 0.36924 0.31042 0.15062 0.0
C969 C 0.37196 0.29479 0.13968 0.0
C970 C 0.3528 0.28656 0.12408 0.0
C971 C 0.3307 0.29376 0.11936 0.0
C972 C 0.32768 0.30919 0.13027 0.0
C973 C 0.34681 0.31748 0.14588 0.0
H974 H 0.31589 0.28737 0.10727 0.0
H975 H 0.50177 0.36721 0.25885 0.0
H976 H 0.79833 0.72305 0.70021 0.0
H977 H 0.82613 0.70138 0.6961 0.0
H978 H 0.78623 0.68249 0.6367 0.0
H979 H 0.75769 0.70378 0.64106 0.0
H980 H 0.78984 0.65515 0.6578 0.0
H981 H 0.854 0.7101 0.64036 0.0
H982 H 0.88003 0.74183 0.64514 0.0
H983 H 0.91826 0.72989 0.70077 0.0
H984 H 0.89216 0.69812 0.69648 0.0
H985 H 0.88912 0.60712 0.62551 0.0
H986 H 0.86194 0.62942 0.62737 0.0
H987 H 0.88905 0.64387 0.69115 0.0
H988 H 0.91627 0.62164 0.68938 0.0
H989 H 0.89248 0.67352 0.66621 0.0
H990 H 0.82644 0.61824 0.68315 0.0
H991 H 0.80086 0.58656 0.67699 0.0
H992 H 0.7669 0.59953 0.62002 0.0
H993 H 0.79262 0.63127 0.6257 0.0
C994 C 0.7955 0.71431 0.68625 0.0
C995 C 0.77586 0.71517 0.67093 0.0
C996 C 0.81153 0.70198 0.68386 0.0
C997 C 0.80863 0.69048 0.66592 0.0
C998 C 0.7889 0.69124 0.65066 0.0
C999 C 0.77264 0.70345 0.65315 0.0
C1000 C 0.82581 0.67743 0.66329 0.0
C1001 C 0.81232 0.65925 0.65931 0.0
C1002 C 0.85514 0.68266 0.66557 0.0
C1003 C 0.87092 0.70176 0.6682 0.0
C1004 C 0.86779 0.71427 0.6537 0.0
C1005 C 0.88259 0.73225 0.65631 0.0
C1006 C 0.90073 0.73788 0.67328 0.0
C1007 C 0.90417 0.72552 0.68764 0.0
C1008 C 0.8894 0.70752 0.68512 0.0
C1009 C 0.88938 0.61514 0.63987 0.0
C1010 C 0.90468 0.61261 0.65734 0.0
C1011 C 0.87376 0.62778 0.64095 0.0
C1012 C 0.87338 0.63819 0.65944 0.0
C1013 C 0.88906 0.63593 0.67676 0.0
C1014 C 0.90441 0.62317 0.67577 0.0
C1015 C 0.85645 0.65136 0.66085 0.0
C1016 C 0.87001 0.66953 0.6646 0.0
C1017 C 0.82725 0.64615 0.65813 0.0
C1018 C 0.8117 0.62709 0.65473 0.0
C1019 C 0.81372 0.61431 0.66922 0.0
C1020 C 0.79915 0.59635 0.66583 0.0
C1021 C 0.78233 0.59103 0.64809 0.0
C1022 C 0.77998 0.60367 0.63373 0.0
C1023 C 0.79453 0.62164 0.63703 0.0
H1024 H 0.77106 0.57712 0.6455 0.0
H1025 H 0.91217 0.75181 0.67527 0.0
H1026 H 0.85392 0.29493 0.31759 0.0
H1027 H 0.88294 0.32533 0.3255 0.0
H1028 H 0.81306 0.34675 0.31363 0.0
H1029 H 0.78399 0.31661 0.30577 0.0
H1030 H 0.85978 0.36264 0.29107 0.0
H1031 H 0.83589 0.34679 0.36241 0.0
H1032 H 0.83284 0.32821 0.39316 0.0
H1033 H 0.92164 0.33712 0.39331 0.0
H1034 H 0.92519 0.35556 0.36236 0.0
H1035 H 0.90758 0.45325 0.32229 0.0
H1036 H 0.88173 0.42172 0.31979 0.0
H1037 H 0.95507 0.40638 0.3384 0.0
H1038 H 0.98102 0.43803 0.34118 0.0
H1039 H 0.91003 0.38654 0.35717 0.0
H1040 H 0.9352 0.40264 0.28722 0.0
H1041 H 0.93981 0.42073 0.25594 0.0
H1042 H 0.85095 0.41044 0.252 0.0
H1043 H 0.84581 0.3925 0.28346 0.0
C1044 C 0.84462 0.30609 0.317 0.0
C1045 C 0.81666 0.30333 0.31091 0.0
C1046 C 0.86123 0.32344 0.32154 0.0
C1047 C 0.85013 0.33827 0.32007 0.0
C1048 C 0.82203 0.33548 0.31476 0.0
C1049 C 0.80543 0.31821 0.31033 0.0
C1050 C 0.86805 0.35681 0.32264 0.0
C1051 C 0.87051 0.36794 0.30561 0.0
C1052 C 0.88289 0.36345 0.34132 0.0
C1053 C 0.88077 0.35239 0.35993 0.0
C1054 C 0.85474 0.34465 0.36888 0.0
C1055 C 0.85293 0.33418 0.38637 0.0
C1056 C 0.87702 0.33144 0.39514 0.0
C1057 C 0.90299 0.33922 0.38648 0.0
C1058 C 0.90492 0.3497 0.36897 0.0
C1059 C 0.91822 0.44316 0.32578 0.0
C1060 C 0.94638 0.44808 0.33174 0.0
C1061 C 0.90344 0.42515 0.32436 0.0
C1062 C 0.9166 0.41167 0.32856 0.0
C1063 C 0.94452 0.41656 0.33506 0.0
C1064 C 0.9593 0.43462 0.33665 0.0
C1065 C 0.90121 0.39251 0.32574 0.0
C1066 C 0.89937 0.38123 0.34262 0.0
C1067 C 0.88716 0.38561 0.30679 0.0
C1068 C 0.89014 0.39635 0.28781 0.0
C1069 C 0.91664 0.40434 0.27978 0.0
C1070 C 0.91935 0.41455 0.262 0.0
C1071 C 0.89569 0.41676 0.25202 0.0
C1072 C 0.86926 0.40873 0.25977 0.0
C1073 C 0.86644 0.39852 0.27756 0.0
H1074 H 0.89783 0.42467 0.23826 0.0
H1075 H 0.87557 0.32333 0.40869 0.0
H1076 H 0.20261 0.38554 0.68061 0.0
H1077 H 0.17886 0.40812 0.67143 0.0
H1078 H 0.13837 0.40369 0.73168 0.0
H1079 H 0.1611 0.38052 0.74051 0.0
H1080 H 0.10249 0.40504 0.70399 0.0
H1081 H 0.19541 0.44017 0.71861 0.0
H1082 H 0.24652 0.44912 0.71543 0.0
H1083 H 0.23925 0.45853 0.65027 0.0
H1084 H 0.18806 0.4494 0.653 0.0
H1085 H 0.06473 0.48772 0.70706 0.0
H1086 H 0.08989 0.46532 0.71353 0.0
H1087 H 0.1046 0.45964 0.64738 0.0
H1088 H 0.07812 0.48137 0.6405 0.0
H1089 H 0.15318 0.46354 0.67642 0.0
H1090 H 0.05861 0.42886 0.66371 0.0
H1091 H 0.00787 0.42145 0.66916 0.0
H1092 H 0.01938 0.41287 0.73402 0.0
H1093 H 0.07026 0.42052 0.72902 0.0
C1094 C 0.18872 0.38944 0.69192 0.0
C1095 C 0.18376 0.38129 0.7113 0.0
C1096 C 0.17524 0.40243 0.6867 0.0
C1097 C 0.1571 0.40786 0.70098 0.0
C1098 C 0.15223 0.39974 0.72037 0.0
C1099 C 0.1653 0.38653 0.72544 0.0
C1100 C 0.14271 0.42171 0.6956 0.0
C1101 C 0.11372 0.4179 0.69821 0.0
C1102 C 0.15714 0.43841 0.68765 0.0
C1103 C 0.18791 0.44392 0.68596 0.0
C1104 C 0.20471 0.44401 0.70357 0.0
C1105 C 0.23369 0.44914 0.70185 0.0
C1106 C 0.24612 0.45434 0.68265 0.0
C1107 C 0.22959 0.45447 0.66513 0.0
C1108 C 0.20059 0.44934 0.66675 0.0
C1109 C 0.07293 0.48159 0.69379 0.0
C1110 C 0.06903 0.48628 0.6732 0.0
C1111 C 0.08754 0.4689 0.69758 0.0
C1112 C 0.09893 0.46082 0.68092 0.0
C1113 C 0.09597 0.46581 0.66043 0.0
C1114 C 0.08095 0.47831 0.65656 0.0
C1115 C 0.1133 0.44681 0.68501 0.0
C1116 C 0.14215 0.45062 0.68215 0.0
C1117 C 0.09887 0.43023 0.69305 0.0
C1118 C 0.06826 0.42544 0.69603 0.0
C1119 C 0.05034 0.42555 0.67918 0.0
C1120 C 0.02156 0.42128 0.68218 0.0
C1121 C 0.01041 0.41674 0.70194 0.0
C1122 C 0.02804 0.41641 0.71873 0.0
C1123 C 0.05686 0.4207 0.71582 0.0
H1124 H 0.98812 0.41344 0.70423 0.0
H1125 H 0.26856 0.45831 0.68136 0.0
H1126 H 0.24283 0.77879 0.34301 0.0
H1127 H 0.20913 0.75058 0.35099 0.0
H1128 H 0.20824 0.73293 0.28597 0.0
H1129 H 0.24133 0.76104 0.27784 0.0
H1130 H 0.15686 0.72533 0.30117 0.0
H1131 H 0.24607 0.71832 0.32302 0.0
H1132 H 0.28999 0.7264 0.34309 0.0
H1133 H 0.24418 0.72124 0.40071 0.0
H1134 H 0.19997 0.71334 0.38095 0.0
H1135 H 0.11241 0.63128 0.29987 0.0
H1136 H 0.13953 0.66236 0.29816 0.0
H1137 H 0.12426 0.67144 0.36371 0.0
H1138 H 0.09636 0.64037 0.36549 0.0
H1139 H 0.17986 0.68494 0.35239 0.0
H1140 H 0.09032 0.68816 0.32967 0.0
H1141 H 0.04702 0.67915 0.30893 0.0
H1142 H 0.09388 0.69086 0.25225 0.0
H1143 H 0.13754 0.69968 0.27263 0.0
C1144 C 0.23535 0.76891 0.33042 0.0
C1145 C 0.24484 0.77213 0.30981 0.0
C1146 C 0.21618 0.75279 0.33501 0.0
C1147 C 0.20635 0.73958 0.3191 0.0
C1148 C 0.21548 0.74293 0.29849 0.0
C1149 C 0.23451 0.75901 0.29389 0.0
C1150 C 0.18692 0.72209 0.32371 0.0
C1151 C 0.16197 0.71646 0.31229 0.0
C1152 C 0.1932 0.71072 0.33864 0.0
C1153 C 0.21974 0.71546 0.35052 0.0
C1154 C 0.24537 0.71906 0.33997 0.0
C1155 C 0.27031 0.72358 0.35129 0.0
C1156 C 0.26988 0.7244 0.37316 0.0
C1157 C 0.24449 0.72064 0.38377 0.0
C1158 C 0.21949 0.71614 0.37252 0.0
C1159 C 0.11442 0.63991 0.31388 0.0
C1160 C 0.10199 0.63333 0.33278 0.0
C1161 C 0.13005 0.65766 0.31289 0.0
C1162 C 0.13363 0.66923 0.33076 0.0
C1163 C 0.12169 0.6627 0.34974 0.0
C1164 C 0.10587 0.64493 0.35074 0.0
C1165 C 0.15022 0.68806 0.32946 0.0
C1166 C 0.17458 0.69393 0.34151 0.0
C1167 C 0.14348 0.69963 0.31502 0.0
C1168 C 0.11724 0.69446 0.30269 0.0
C1169 C 0.09142 0.68869 0.31278 0.0
C1170 C 0.0668 0.68363 0.30108 0.0
C1171 C 0.0677 0.6844 0.27929 0.0
C1172 C 0.09322 0.69027 0.26914 0.0
C1173 C 0.11791 0.69532 0.28076 0.0
H1174 H 0.04862 0.68048 0.27026 0.0
H1175 H 0.28921 0.72789 0.3819 0.0
H1176 H 0.80937 0.82035 0.66192 0.0
H1177 H 0.81915 0.84633 0.63997 0.0
H1178 H 0.74462 0.82259 0.60413 0.0
H1179 H 0.73506 0.79638 0.62564 0.0
H1180 H 0.78492 0.83855 0.579 0.0
H1181 H 0.74626 0.85467 0.64381 0.0
H1182 H 0.74306 0.85858 0.68216 0.0
H1183 H 0.82433 0.89527 0.68385 0.0
H1184 H 0.82816 0.89139 0.6455 0.0
H1185 H 0.75631 0.91633 0.53927 0.0
H1186 H 0.7548 0.88944 0.55857 0.0
H1187 H 0.83611 0.91448 0.58435 0.0
H1188 H 0.83777 0.94145 0.56496 0.0
H1189 H 0.79593 0.89841 0.61435 0.0
H1190 H 0.8327 0.88315 0.54872 0.0
H1191 H 0.83449 0.87937 0.51038 0.0
H1192 H 0.75442 0.84126 0.51022 0.0
H1193 H 0.75209 0.84497 0.54869 0.0
C1194 C 0.79522 0.82056 0.64922 0.0
C1195 C 0.7713 0.80635 0.64565 0.0
C1196 C 0.80077 0.83547 0.63675 0.0
C1197 C 0.78231 0.83657 0.62068 0.0
C1198 C 0.7591 0.82207 0.6165 0.0
C1199 C 0.75365 0.80709 0.62884 0.0
C1200 C 0.78655 0.85308 0.6087 0.0
C1201 C 0.78707 0.8516 0.58675 0.0
C1202 C 0.78989 0.8702 0.61879 0.0
C1203 C 0.78762 0.87258 0.64183 0.0
C1204 C 0.76353 0.86346 0.65238 0.0
C1205 C 0.76159 0.86569 0.67411 0.0
C1206 C 0.78351 0.87712 0.68544 0.0
C1207 C 0.80739 0.88639 0.67505 0.0
C1208 C 0.80946 0.88419 0.65332 0.0
C1209 C 0.77384 0.91609 0.54907 0.0
C1210 C 0.79714 0.93095 0.55068 0.0
C1211 C 0.77303 0.90071 0.55997 0.0
C1212 C 0.79541 0.89997 0.57278 0.0
C1213 C 0.81867 0.9148 0.57449 0.0
C1214 C 0.81965 0.93013 0.56336 0.0
C1215 C 0.7941 0.8838 0.58474 0.0
C1216 C 0.79402 0.88536 0.60666 0.0
C1217 C 0.79088 0.86675 0.57465 0.0
C1218 C 0.79212 0.86447 0.55154 0.0
C1219 C 0.81536 0.87408 0.54049 0.0
C1220 C 0.81649 0.87191 0.51872 0.0
C1221 C 0.79452 0.86012 0.50781 0.0
C1222 C 0.77141 0.85041 0.51868 0.0
C1223 C 0.7702 0.85251 0.54048 0.0
H1224 H 0.7954 0.85844 0.49094 0.0
H1225 H 0.78197 0.87883 0.70227 0.0
H1226 H 0.68236 0.24387 0.22456 0.0
H1227 H 0.65279 0.24577 0.1947 0.0
H1228 H 0.69023 0.30267 0.19351 0.0
H1229 H 0.71941 0.30096 0.22331 0.0
H1230 H 0.635 0.29551 0.18998 0.0
H1231 H 0.70844 0.27322 0.15825 0.0
H1232 H 0.73782 0.25217 0.15321 0.0
H1233 H 0.66545 0.2093 0.13833 0.0
H1234 H 0.63559 0.23007 0.14355 0.0
H1235 H 0.60713 0.31896 0.08874 0.0
H1236 H 0.6302 0.31216 0.11968 0.0
H1237 H 0.5788 0.25784 0.11616 0.0
H1238 H 0.55481 0.26464 0.08555 0.0
H1239 H 0.63613 0.26074 0.12303 0.0
H1240 H 0.56327 0.28413 0.15167 0.0
H1241 H 0.53462 0.30567 0.15589 0.0
H1242 H 0.60649 0.3469 0.17622 0.0
H1243 H 0.63569 0.32568 0.17179 0.0
C1244 C 0.68428 0.25677 0.2179 0.0
C1245 C 0.70326 0.27226 0.2263 0.0
C1246 C 0.66744 0.25782 0.20082 0.0
C1247 C 0.66942 0.27436 0.19181 0.0
C1248 C 0.68828 0.28979 0.20024 0.0
C1249 C 0.70504 0.28876 0.21726 0.0
C1250 C 0.65192 0.2758 0.17363 0.0
C1251 C 0.63541 0.288 0.1753 0.0
C1252 C 0.65184 0.26563 0.15466 0.0
C1253 C 0.66976 0.25314 0.15154 0.0
C1254 C 0.69877 0.25927 0.15409 0.0
C1255 C 0.71551 0.2474 0.15116 0.0
C1256 C 0.7035 0.2294 0.14552 0.0
C1257 C 0.67472 0.22324 0.14274 0.0
C1258 C 0.65788 0.23505 0.14567 0.0
C1259 C 0.60043 0.30561 0.09464 0.0
C1260 C 0.57892 0.29239 0.08469 0.0
C1261 C 0.61377 0.30173 0.11226 0.0
C1262 C 0.60602 0.28455 0.12027 0.0
C1263 C 0.58507 0.27118 0.11017 0.0
C1264 C 0.5715 0.27509 0.09262 0.0
C1265 C 0.61979 0.28073 0.13931 0.0
C1266 C 0.63551 0.26809 0.1378 0.0
C1267 C 0.61923 0.29053 0.15843 0.0
C1268 C 0.60172 0.30333 0.16122 0.0
C1269 C 0.57303 0.29782 0.15687 0.0
C1270 C 0.55667 0.30997 0.15933 0.0
C1271 C 0.56874 0.32765 0.16628 0.0
C1272 C 0.59718 0.33321 0.17083 0.0
C1273 C 0.61363 0.32112 0.16836 0.0
H1274 H 0.55604 0.33703 0.16819 0.0
H1275 H 0.7165 0.22023 0.14326 0.0
H1276 H 0.25336 0.29448 0.6517 0.0
H1277 H 0.25831 0.26913 0.62899 0.0
H1278 H 0.33463 0.26953 0.6607 0.0
H1279 H 0.33011 0.29489 0.68312 0.0
H1280 H 0.34015 0.26535 0.61947 0.0
H1281 H 0.27338 0.2392 0.67183 0.0
H1282 H 0.23003 0.23519 0.69215 0.0
H1283 H 0.18194 0.22105 0.63558 0.0
H1284 H 0.22506 0.22522 0.61489 0.0
H1285 H 0.35758 0.17921 0.59475 0.0
H1286 H 0.34976 0.20598 0.61277 0.0
H1287 H 0.27479 0.20006 0.57671 0.0
H1288 H 0.28238 0.1731 0.55876 0.0
H1289 H 0.26667 0.20794 0.61705 0.0
H1290 H 0.33545 0.23074 0.56537 0.0
H1291 H 0.37969 0.23334 0.54666 0.0
H1292 H 0.42526 0.25369 0.60308 0.0
H1293 H 0.38129 0.25058 0.62239 0.0
C1294 C 0.27124 0.2892 0.65376 0.0
C1295 C 0.29128 0.29666 0.66926 0.0
C1296 C 0.27399 0.27469 0.64083 0.0
C1297 C 0.29672 0.26734 0.64328 0.0
C1298 C 0.31695 0.27499 0.6585 0.0
C1299 C 0.31426 0.28947 0.67137 0.0
C1300 C 0.29948 0.25153 0.63031 0.0
C1301 C 0.32417 0.25275 0.61904 0.0
C1302 C 0.27836 0.23522 0.62939 0.0
C1303 C 0.25244 0.23273 0.64179 0.0
C1304 C 0.25356 0.23539 0.66371 0.0
C1305 C 0.22904 0.23306 0.6753 0.0
C1306 C 0.20325 0.22793 0.66516 0.0
C1307 C 0.20193 0.22507 0.64341 0.0
C1308 C 0.2264 0.2274 0.63175 0.0
C1309 C 0.33954 0.18369 0.59056 0.0
C1310 C 0.32067 0.17413 0.57527 0.0
C1311 C 0.33509 0.19898 0.60086 0.0
C1312 C 0.31192 0.20518 0.59585 0.0
C1313 C 0.29283 0.19553 0.58079 0.0
C1314 C 0.29716 0.18014 0.57058 0.0
C1315 C 0.30756 0.22167 0.60648 0.0
C1316 C 0.28254 0.22059 0.61727 0.0
C1317 C 0.3285 0.23808 0.60709 0.0
C1318 C 0.355 0.24029 0.59538 0.0
C1319 C 0.35488 0.23565 0.57384 0.0
C1320 C 0.37993 0.23722 0.56312 0.0
C1321 C 0.40526 0.24373 0.57364 0.0
C1322 C 0.40561 0.24865 0.59494 0.0
C1323 C 0.38063 0.24695 0.6058 0.0
H1324 H 0.42462 0.24496 0.56528 0.0
H1325 H 0.18428 0.22612 0.67416 0.0
H1326 H 0.33511 0.82948 0.23997 0.0
H1327 H 0.35907 0.8319 0.2064 0.0
H1328 H 0.43409 0.86388 0.23615 0.0
H1329 H 0.4103 0.86142 0.27011 0.0
H1330 H 0.41992 0.87573 0.19493 0.0
H1331 H 0.43344 0.82399 0.22824 0.0
H1332 H 0.41819 0.79579 0.24674 0.0
H1333 H 0.36536 0.77169 0.19487 0.0
H1334 H 0.37998 0.79985 0.17619 0.0
H1335 H 0.50705 0.86201 0.10902 0.0
H1336 H 0.48695 0.86559 0.14355 0.0
H1337 H 0.4135 0.82388 0.1261 0.0
H1338 H 0.43372 0.82007 0.09181 0.0
H1339 H 0.4304 0.81824 0.16293 0.0
H1340 H 0.41463 0.86931 0.1298 0.0
H1341 H 0.42762 0.89744 0.11099 0.0
H1342 H 0.48219 0.92275 0.16144 0.0
H1343 H 0.4698 0.89468 0.18044 0.0
C1344 C 0.35661 0.83724 0.23944 0.0
C1345 C 0.37087 0.84513 0.2578 0.0
C1346 C 0.37025 0.83859 0.22021 0.0
C1347 C 0.39835 0.84793 0.21889 0.0
C1348 C 0.41236 0.85661 0.23692 0.0
C1349 C 0.39877 0.85512 0.25629 0.0
C1350 C 0.41331 0.84745 0.19887 0.0
C1351 C 0.42268 0.86325 0.18801 0.0
C1352 C 0.4163 0.83108 0.18978 0.0
C1353 C 0.40762 0.81408 0.20091 0.0
C1354 C 0.4184 0.81272 0.22086 0.0
C1355 C 0.4099 0.79674 0.23136 0.0
C1356 C 0.39077 0.78197 0.22201 0.0
C1357 C 0.38015 0.78315 0.20211 0.0
C1358 C 0.38856 0.79911 0.19155 0.0
C1359 C 0.48648 0.85377 0.11251 0.0
C1360 C 0.47197 0.84071 0.09779 0.0
C1361 C 0.475 0.85584 0.13222 0.0
C1362 C 0.44861 0.84508 0.1374 0.0
C1363 C 0.43393 0.83228 0.12252 0.0
C1364 C 0.4455 0.83009 0.10295 0.0
C1365 C 0.43665 0.84649 0.15857 0.0
C1366 C 0.42788 0.83081 0.16977 0.0
C1367 C 0.43404 0.86296 0.16782 0.0
C1368 C 0.44153 0.87984 0.15643 0.0
C1369 C 0.42959 0.88083 0.1368 0.0
C1370 C 0.4368 0.89677 0.12612 0.0
C1371 C 0.45578 0.91185 0.13499 0.0
C1372 C 0.46753 0.91104 0.15458 0.0
C1373 C 0.4604 0.89513 0.16531 0.0
H1374 H 0.46133 0.92418 0.1267 0.0
H1375 H 0.38421 0.76961 0.23017 0.0
H1376 H 0.83145 0.2034 0.32587 0.0
H1377 H 0.83224 0.17897 0.34859 0.0
H1378 H 0.74374 0.16931 0.35823 0.0
H1379 H 0.74308 0.19428 0.33621 0.0
H1380 H 0.76673 0.16623 0.39336 0.0
H1381 H 0.77326 0.14238 0.32375 0.0
H1382 H 0.79209 0.14125 0.28806 0.0
H1383 H 0.87104 0.13977 0.31334 0.0
H1384 H 0.85279 0.14113 0.34921 0.0
H1385 H 0.74645 0.07652 0.42755 0.0
H1386 H 0.7456 0.10231 0.40707 0.0
H1387 H 0.83509 0.12009 0.40984 0.0
H1388 H 0.83622 0.09487 0.43116 0.0
H1389 H 0.8111 0.1186 0.36867 0.0
H1390 H 0.80209 0.1418 0.43889 0.0
H1391 H 0.78078 0.14136 0.47389 0.0
H1392 H 0.70292 0.14216 0.4461 0.0
H1393 H 0.72367 0.1423 0.41089 0.0
C1394 C 0.81216 0.19609 0.33286 0.0
C1395 C 0.78717 0.20069 0.32915 0.0
C1396 C 0.8126 0.18205 0.34576 0.0
C1397 C 0.78794 0.17202 0.35481 0.0
C1398 C 0.76303 0.1768 0.3514 0.0
C1399 C 0.76266 0.19105 0.33877 0.0
C1400 C 0.78813 0.15653 0.36777 0.0
C1401 C 0.77611 0.15571 0.3878 0.0
C1402 C 0.80069 0.14286 0.36072 0.0
C1403 C 0.81173 0.14203 0.33917 0.0
C1404 C 0.7947 0.14195 0.3217 0.0
C1405 C 0.80526 0.14125 0.30144 0.0
C1406 C 0.83276 0.14049 0.29843 0.0
C1407 C 0.84975 0.14039 0.31569 0.0
C1408 C 0.8393 0.1411 0.33599 0.0
C1409 C 0.76597 0.08604 0.42415 0.0
C1410 C 0.79142 0.08353 0.43107 0.0
C1411 C 0.76542 0.10072 0.41231 0.0
C1412 C 0.79028 0.11307 0.40699 0.0
C1413 C 0.81569 0.11062 0.41372 0.0
C1414 C 0.81627 0.09611 0.4258 0.0
C1415 C 0.78982 0.12843 0.39411 0.0
C1416 C 0.80174 0.12917 0.37413 0.0
C1417 C 0.77681 0.14183 0.40107 0.0
C1418 C 0.76436 0.14187 0.42224 0.0
C1419 C 0.78036 0.14172 0.44023 0.0
C1420 C 0.76839 0.14155 0.46011 0.0
C1421 C 0.74049 0.14168 0.46221 0.0
C1422 C 0.72452 0.14203 0.44444 0.0
C1423 C 0.73638 0.14216 0.42452 0.0
H1424 H 0.73127 0.14156 0.47762 0.0
H1425 H 0.8409 0.13995 0.28273 0.0
H1426 H 0.33689 0.35285 0.75426 0.0
H1427 H 0.36541 0.35293 0.7851 0.0
H1428 H 0.29687 0.35661 0.82514 0.0
H1429 H 0.26784 0.35636 0.79427 0.0
H1430 H 0.35328 0.37823 0.83891 0.0
H1431 H 0.30239 0.31793 0.81726 0.0
H1432 H 0.28635 0.29277 0.79144 0.0
H1433 H 0.37099 0.29241 0.77856 0.0
H1434 H 0.38755 0.31777 0.80408 0.0
H1435 H 0.40018 0.34555 0.93073 0.0
H1436 H 0.3735 0.35212 0.90151 0.0
H1437 H 0.42811 0.33415 0.85778 0.0
H1438 H 0.45427 0.32708 0.88698 0.0
H1439 H 0.37759 0.3205 0.84613 0.0
H1440 H 0.42963 0.37978 0.86738 0.0
H1441 H 0.44749 0.40571 0.89185 0.0
H1442 H 0.36412 0.40916 0.90426 0.0
H1443 H 0.34572 0.38308 0.88007 0.0
C1444 C 0.32793 0.35403 0.76959 0.0
C1445 C 0.29993 0.35438 0.77178 0.0
C1446 C 0.34431 0.35407 0.78719 0.0
C1447 C 0.33311 0.35459 0.80732 0.0
C1448 C 0.30582 0.35619 0.80969 0.0
C1449 C 0.28927 0.35599 0.79203 0.0
C1450 C 0.34905 0.35162 0.82564 0.0
C1451 C 0.35837 0.36557 0.84072 0.0
C1452 C 0.35614 0.33522 0.82761 0.0
C1453 C 0.34621 0.31986 0.81242 0.0
C1454 C 0.31759 0.31258 0.80879 0.0
C1455 C 0.3084 0.29827 0.79423 0.0
C1456 C 0.32764 0.29103 0.78332 0.0
C1457 C 0.35611 0.29805 0.78699 0.0
C1458 C 0.36541 0.31239 0.80152 0.0
C1459 C 0.40659 0.34316 0.91486 0.0
C1460 C 0.42923 0.33578 0.91108 0.0
C1461 C 0.39141 0.34699 0.89817 0.0
C1462 C 0.39896 0.34385 0.87739 0.0
C1463 C 0.42182 0.33667 0.87365 0.0
C1464 C 0.43674 0.33261 0.89032 0.0
C1465 C 0.38233 0.3472 0.85953 0.0
C1466 C 0.37268 0.33324 0.84447 0.0
C1467 C 0.37528 0.36367 0.85752 0.0
C1468 C 0.38628 0.37936 0.87208 0.0
C1469 C 0.41508 0.38597 0.87546 0.0
C1470 C 0.42531 0.40071 0.88925 0.0
C1471 C 0.40695 0.40904 0.89965 0.0
C1472 C 0.37832 0.40268 0.89622 0.0
C1473 C 0.36798 0.38792 0.88246 0.0
H1474 H 0.41491 0.42046 0.91032 0.0
H1475 H 0.32049 0.27995 0.77205 0.0
H1476 H 0.31203 0.88992 0.35685 0.0
H1477 H 0.31375 0.91744 0.37765 0.0
H1478 H 0.39573 0.91836 0.39982 0.0
H1479 H 0.39399 0.89063 0.37931 0.0
H1480 H 0.36406 0.92589 0.43128 0.0
H1481 H 0.38715 0.94634 0.36216 0.0
H1482 H 0.38101 0.94711 0.32401 0.0
H1483 H 0.30347 0.96076 0.33376 0.0
H1484 H 0.30895 0.95983 0.37198 0.0
H1485 H 0.39469 0.01581 0.47342 0.0
H1486 H 0.39619 0.98879 0.45253 0.0
H1487 H 0.31349 0.98454 0.42936 0.0
H1488 H 0.31217 0.01178 0.4497 0.0
H1489 H 0.34775 0.97914 0.39827 0.0
H1490 H 0.32437 0.95794 0.46749 0.0
H1491 H 0.33093 0.95743 0.50563 0.0
H1492 H 0.40967 0.94545 0.49562 0.0
H1493 H 0.40377 0.94615 0.45741 0.0
C1494 C 0.33045 0.89597 0.36614 0.0
C1495 C 0.35292 0.88812 0.36636 0.0
C1496 C 0.33144 0.91175 0.37796 0.0
C1497 C 0.35503 0.92009 0.39008 0.0
C1498 C 0.37735 0.91217 0.39054 0.0
C1499 C 0.37635 0.89635 0.37876 0.0
C1500 C 0.35627 0.93702 0.40233 0.0
C1501 C 0.36091 0.93763 0.42402 0.0
C1502 C 0.35167 0.95223 0.39292 0.0
C1503 C 0.34834 0.95285 0.36993 0.0
C1504 C 0.36868 0.94937 0.35617 0.0
C1505 C 0.36534 0.94986 0.33453 0.0
C1506 C 0.34184 0.95394 0.32646 0.0
C1507 C 0.32165 0.95758 0.34003 0.0
C1508 C 0.32488 0.95709 0.36168 0.0
C1509 C 0.37693 0.0092 0.46374 0.0
C1510 C 0.35326 0.01589 0.46328 0.0
C1511 C 0.37772 0.99368 0.45196 0.0
C1512 C 0.35483 0.98455 0.43957 0.0
C1513 C 0.33135 0.99134 0.43887 0.0
C1514 C 0.33053 0.00682 0.45065 0.0
C1515 C 0.35528 0.96795 0.42722 0.0
C1516 C 0.351 0.96742 0.40552 0.0
C1517 C 0.36026 0.95284 0.43662 0.0
C1518 C 0.36376 0.95229 0.45959 0.0
C1519 C 0.34319 0.95534 0.47342 0.0
C1520 C 0.34677 0.95499 0.49506 0.0
C1521 C 0.37074 0.95146 0.50305 0.0
C1522 C 0.39114 0.94821 0.48941 0.0
C1523 C 0.38767 0.94857 0.46777 0.0
H1524 H 0.37348 0.9512 0.5198 0.0
H1525 H 0.33929 0.95431 0.30971 0.0
H1526 H 0.72014 0.7634 0.76865 0.0
H1527 H 0.69356 0.76652 0.80033 0.0
H1528 H 0.63885 0.78905 0.76461 0.0
H1529 H 0.66532 0.7861 0.73294 0.0
H1530 H 0.65845 0.80956 0.79935 0.0
H1531 H 0.61611 0.74739 0.78261 0.0
H1532 H 0.6153 0.71586 0.77407 0.0
H1533 H 0.65504 0.71299 0.83269 0.0
H1534 H 0.65644 0.74458 0.84147 0.0
H1535 H 0.56259 0.81368 0.88047 0.0
H1536 H 0.58317 0.80631 0.84747 0.0
H1537 H 0.6352 0.78027 0.88125 0.0
H1538 H 0.61429 0.78733 0.91423 0.0
H1539 H 0.61573 0.76102 0.84694 0.0
H1540 H 0.66032 0.82303 0.8632 0.0
H1541 H 0.66232 0.85468 0.87211 0.0
H1542 H 0.62013 0.85808 0.81473 0.0
H1543 H 0.61754 0.82636 0.80561 0.0
C1544 C 0.70224 0.76882 0.76748 0.0
C1545 C 0.69493 0.77459 0.74828 0.0
C1546 C 0.68702 0.77053 0.78559 0.0
C1547 C 0.66419 0.77798 0.7848 0.0
C1548 C 0.65643 0.78331 0.76556 0.0
C1549 C 0.67157 0.78156 0.74747 0.0
C1550 C 0.64943 0.78125 0.80421 0.0
C1551 C 0.64871 0.7989 0.80959 0.0
C1552 C 0.63745 0.76742 0.81784 0.0
C1553 C 0.63662 0.74841 0.8126 0.0
C1554 C 0.62489 0.74008 0.79361 0.0
C1555 C 0.62428 0.72219 0.78874 0.0
C1556 C 0.63518 0.71244 0.8028 0.0
C1557 C 0.64664 0.72056 0.8218 0.0
C1558 C 0.64732 0.73845 0.82674 0.0
C1559 C 0.57847 0.80643 0.88083 0.0
C1560 C 0.58697 0.80116 0.8999 0.0
C1561 C 0.59021 0.80222 0.86198 0.0
C1562 C 0.61103 0.79296 0.86191 0.0
C1563 C 0.61916 0.78741 0.88092 0.0
C1564 C 0.60721 0.79145 0.89974 0.0
C1565 C 0.62473 0.78934 0.84208 0.0
C1566 C 0.62534 0.77166 0.83664 0.0
C1567 C 0.63683 0.80317 0.82844 0.0
C1568 C 0.6385 0.82228 0.83383 0.0
C1569 C 0.6513 0.83049 0.85256 0.0
C1570 C 0.65256 0.84845 0.85763 0.0
C1571 C 0.64129 0.85837 0.84402 0.0
C1572 C 0.62881 0.85037 0.82527 0.0
C1573 C 0.62746 0.83241 0.82014 0.0
H1574 H 0.64229 0.87227 0.84797 0.0
H1575 H 0.63468 0.69859 0.79901 0.0
loop_
_geom_bond_atom_site_label_1
_geom_bond_atom_site_label_2
_geom_bond_distance
_geom_bond_site_symmetry_2
_ccdc_geom_bond_type
O0 Cd1 2.300 . S
O0 C7 1.275 . S
Cd1 O0 2.300 . S
Cd1 O9 2.381 . S
Cd1 O10 2.378 . S
O2 Cd3 2.385 . S
O2 C7 1.255 . S
Cd3 O2 2.385 . S
Cd3 O4 2.317 . S
O4 Cd3 2.317 . S
O4 C5 1.232 . S
C5 O4 1.232 . S
C5 O6 1.218 . S
O6 C5 1.218 . S
C7 O0 1.275 . S
C7 O2 1.255 . S
C8 O9 1.258 . S
C8 O10 1.256 . S
O9 Cd1 2.381 . S
O9 C8 1.258 . S
O10 Cd1 2.378 . S
O10 C8 1.256 . S
O11 Cd12 2.300 . S
O11 C18 1.275 . S
Cd12 O11 2.300 . S
Cd12 O20 2.381 . S
Cd12 O21 2.378 . S
O13 Cd14 2.385 . S
O13 C18 1.255 . S
Cd14 O13 2.385 . S
Cd14 O15 2.317 . S
O15 Cd14 2.317 . S
O15 C16 1.232 . S
C16 O15 1.232 . S
C16 O17 1.218 . S
O17 C16 1.218 . S
C18 O11 1.275 . S
C18 O13 1.255 . S
C19 O20 1.258 . S
C19 O21 1.256 . S
O20 Cd12 2.381 . S
O20 C19 1.258 . S
O21 Cd12 2.378 . S
O21 C19 1.256 . S
O22 Cd23 2.300 . S
O22 C29 1.275 . S
Cd23 O22 2.300 . S
Cd23 O31 2.381 . S
Cd23 O32 2.378 . S
O24 Cd25 2.385 . S
O24 C29 1.255 . S
Cd25 O24 2.385 . S
Cd25 O26 2.317 . S
O26 Cd25 2.317 . S
O26 C27 1.232 . S
C27 O26 1.232 . S
C27 O28 1.218 . S
O28 C27 1.218 . S
C29 O22 1.275 . S
C29 O24 1.255 . S
C30 O31 1.258 . S
C30 O32 1.256 . S
O31 Cd23 2.381 . S
O31 C30 1.258 . S
O32 Cd23 2.378 . S
O32 C30 1.256 . S
O33 Cd34 2.300 . S
O33 C40 1.275 . S
Cd34 O33 2.300 . S
Cd34 O42 2.381 . S
Cd34 O43 2.378 . S
O35 Cd36 2.385 . S
O35 C40 1.255 . S
Cd36 O35 2.385 . S
Cd36 O37 2.317 . S
O37 Cd36 2.317 . S
O37 C38 1.232 . S
C38 O37 1.232 . S
C38 O39 1.218 . S
O39 C38 1.218 . S
C40 O33 1.275 . S
C40 O35 1.255 . S
C41 O42 1.258 . S
C41 O43 1.256 . S
O42 Cd34 2.381 . S
O42 C41 1.258 . S
O43 Cd34 2.378 . S
O43 C41 1.256 . S
O44 Cd45 2.300 . S
O44 C51 1.275 . S
Cd45 O44 2.300 . S
Cd45 O53 2.381 . S
Cd45 O54 2.378 . S
O46 Cd47 2.385 . S
O46 C51 1.255 . S
Cd47 O46 2.385 . S
Cd47 O48 2.317 . S
O48 Cd47 2.317 . S
O48 C49 1.232 . S
C49 O48 1.232 . S
C49 O50 1.218 . S
O50 C49 1.218 . S
C51 O44 1.275 . S
C51 O46 1.255 . S
C52 O53 1.258 . S
C52 O54 1.256 . S
O53 Cd45 2.381 . S
O53 C52 1.258 . S
O54 Cd45 2.378 . S
O54 C52 1.256 . S
O55 Cd56 2.300 . S
O55 C62 1.275 . S
Cd56 O55 2.300 . S
Cd56 O64 2.381 . S
Cd56 O65 2.378 . S
O57 Cd58 2.385 . S
O57 C62 1.255 . S
Cd58 O57 2.385 . S
Cd58 O59 2.317 . S
O59 Cd58 2.317 . S
O59 C60 1.232 . S
C60 O59 1.232 . S
C60 O61 1.218 . S
O61 C60 1.218 . S
C62 O55 1.275 . S
C62 O57 1.255 . S
C63 O64 1.258 . S
C63 O65 1.256 . S
O64 Cd56 2.381 . S
O64 C63 1.258 . S
O65 Cd56 2.378 . S
O65 C63 1.256 . S
O66 Cd67 2.300 . S
O66 C73 1.275 . S
Cd67 O66 2.300 . S
Cd67 O75 2.381 . S
Cd67 O76 2.378 . S
O68 Cd69 2.385 . S
O68 C73 1.255 . S
Cd69 O68 2.385 . S
Cd69 O70 2.317 . S
O70 Cd69 2.317 . S
O70 C71 1.232 . S
C71 O70 1.232 . S
C71 O72 1.218 . S
O72 C71 1.218 . S
C73 O66 1.275 . S
C73 O68 1.255 . S
C74 O75 1.258 . S
C74 O76 1.256 . S
O75 Cd67 2.381 . S
O75 C74 1.258 . S
O76 Cd67 2.378 . S
O76 C74 1.256 . S
O77 Cd78 2.300 . S
O77 C84 1.275 . S
Cd78 O77 2.300 . S
Cd78 O86 2.381 . S
Cd78 O87 2.378 . S
O79 Cd80 2.385 . S
O79 C84 1.255 . S
Cd80 O79 2.385 . S
Cd80 O81 2.317 . S
O81 Cd80 2.317 . S
O81 C82 1.232 . S
C82 O81 1.232 . S
C82 O83 1.218 . S
O83 C82 1.218 . S
C84 O77 1.275 . S
C84 O79 1.255 . S
C85 O86 1.258 . S
C85 O87 1.256 . S
O86 Cd78 2.381 . S
O86 C85 1.258 . S
O87 Cd78 2.378 . S
O87 C85 1.256 . S
H88 C107 0.945 . S
H89 C108 0.950 . S
H90 C110 0.950 . S
H91 C111 0.950 . S
H92 C113 0.950 1_655 S
H93 C116 0.950 . S
H94 C117 0.950 . S
H95 C119 0.951 . S
H96 C120 0.949 . S
H97 C122 0.949 . S
H98 C123 0.950 . S
H99 C125 0.950 . S
H100 C126 0.950 . S
H101 C128 0.950 . S
H102 C131 0.950 . S
H103 C132 0.948 . S
H104 C134 0.951 . S
H105 C135 0.949 . S
C106 C107 1.376 1_455 S
C106 C111 1.386 . S
C106 C112 1.483 . S
C107 H88 0.945 . S
C107 C106 1.376 1_655 S
C107 C108 1.397 . S
C108 H89 0.950 . S
C108 C107 1.397 . S
C108 C109 1.391 . S
C109 C108 1.391 . S
C109 C110 1.405 . S
C110 H90 0.950 . S
C110 C109 1.405 . S
C110 C111 1.367 1_655 S
C111 H91 0.950 . S
C111 C106 1.386 . S
C111 C110 1.367 1_455 S
C112 C106 1.483 . S
C112 C113 1.382 . S
C112 C114 1.403 . S
C113 H92 0.950 1_455 S
C113 C112 1.382 . S
C113 C129 1.411 . S
C114 C112 1.403 . S
C114 C115 1.489 . S
C114 C128 1.411 . S
C115 C114 1.489 . S
C115 C116 1.383 . S
C115 C120 1.382 . S
C116 H93 0.950 . S
C116 C115 1.383 . S
C116 C117 1.395 . S
C117 H94 0.950 . S
C117 C116 1.395 . S
C117 C118 1.288 . S
C118 C117 1.288 . S
C118 C119 1.392 . S
C119 H95 0.951 . S
C119 C118 1.392 . S
C119 C120 1.392 . S
C120 H96 0.949 . S
C120 C115 1.382 . S
C120 C119 1.392 . S
C121 C122 1.376 . S
C121 C126 1.386 . S
C121 C127 1.483 . S
C122 H97 0.949 . S
C122 C121 1.376 . S
C122 C123 1.397 . S
C123 H98 0.950 . S
C123 C122 1.397 . S
C123 C124 1.391 . S
C124 C123 1.391 . S
C124 C125 1.405 . S
C125 H99 0.950 . S
C125 C124 1.405 . S
C125 C126 1.367 . S
C126 H100 0.950 . S
C126 C121 1.386 . S
C126 C125 1.367 . S
C127 C121 1.483 . S
C127 C128 1.382 . S
C127 C129 1.403 . S
C128 H101 0.950 . S
C128 C114 1.411 . S
C128 C127 1.382 . S
C129 C113 1.411 . S
C129 C127 1.403 . S
C129 C130 1.489 . S
C130 C129 1.489 . S
C130 C131 1.383 . S
C130 C135 1.382 1_455 S
C131 H102 0.950 . S
C131 C130 1.383 . S
C131 C132 1.395 1_455 S
C132 H103 0.948 . S
C132 C131 1.395 1_655 S
C132 C133 1.288 . S
C133 C132 1.288 . S
C133 C134 1.392 . S
C134 H104 0.951 . S
C134 C133 1.392 . S
C134 C135 1.392 . S
C135 H105 0.949 . S
C135 C130 1.382 1_655 S
C135 C134 1.392 . S
H136 C155 0.949 . S
H137 C156 0.950 . S
H138 C158 0.950 . S
H139 C159 0.950 . S
H140 C161 0.950 . S
H141 C164 0.950 . S
H142 C165 0.950 . S
H143 C167 0.951 . S
H144 C168 0.949 . S
H145 C170 0.949 . S
H146 C171 0.950 . S
H147 C173 0.950 . S
H148 C174 0.950 . S
H149 C176 0.950 . S
H150 C179 0.950 . S
H151 C180 0.950 . S
H152 C182 0.951 . S
H153 C183 0.949 . S
C154 C155 1.376 . S
C154 C159 1.386 . S
C154 C160 1.483 . S
C155 H136 0.949 . S
C155 C154 1.376 . S
C155 C156 1.397 . S
C156 H137 0.950 . S
C156 C155 1.397 . S
C156 C157 1.391 . S
C157 C156 1.391 . S
C157 C158 1.405 . S
C158 H138 0.950 . S
C158 C157 1.405 . S
C158 C159 1.367 . S
C159 H139 0.950 . S
C159 C154 1.386 . S
C159 C158 1.367 . S
C160 C154 1.483 . S
C160 C161 1.382 . S
C160 C162 1.403 1_455 S
C161 H140 0.950 . S
C161 C160 1.382 . S
C161 C177 1.411 . S
C162 C160 1.403 1_655 S
C162 C163 1.489 . S
C162 C176 1.411 . S
C163 C162 1.489 . S
C163 C164 1.383 . S
C163 C168 1.382 . S
C164 H141 0.950 . S
C164 C163 1.383 . S
C164 C165 1.395 . S
C165 H142 0.950 . S
C165 C164 1.395 . S
C165 C166 1.288 . S
C166 C165 1.288 . S
C166 C167 1.392 . S
C167 H143 0.951 . S
C167 C166 1.392 . S
C167 C168 1.392 . S
C168 H144 0.949 . S
C168 C163 1.382 . S
C168 C167 1.392 . S
C169 C170 1.376 . S
C169 C174 1.386 . S
C169 C175 1.483 . S
C170 H145 0.949 . S
C170 C169 1.376 . S
C170 C171 1.397 . S
C171 H146 0.950 . S
C171 C170 1.397 . S
C171 C172 1.391 . S
C172 C171 1.391 . S
C172 C173 1.405 . S
C173 H147 0.950 . S
C173 C172 1.405 . S
C173 C174 1.367 . S
C174 H148 0.950 . S
C174 C169 1.386 . S
C174 C173 1.367 . S
C175 C169 1.483 . S
C175 C176 1.382 . S
C175 C177 1.403 1_655 S
C176 H149 0.950 . S
C176 C162 1.411 . S
C176 C175 1.382 . S
C177 C161 1.411 . S
C177 C175 1.403 1_455 S
C177 C178 1.489 . S
C178 C177 1.489 . S
C178 C179 1.383 . S
C178 C183 1.382 . S
C179 H150 0.950 . S
C179 C178 1.383 . S
C179 C180 1.395 . S
C180 H151 0.950 . S
C180 C179 1.395 . S
C180 C181 1.288 . S
C181 C180 1.288 . S
C181 C182 1.392 . S
C182 H152 0.951 . S
C182 C181 1.392 . S
C182 C183 1.392 . S
C183 H153 0.949 . S
C183 C178 1.382 . S
C183 C182 1.392 . S
H184 C203 0.949 . S
H185 C204 0.950 . S
H186 C206 0.950 . S
H187 C207 0.950 . S
H188 C209 0.950 . S
H189 C212 0.950 . S
H190 C213 0.950 . S
H191 C215 0.951 . S
H192 C216 0.949 . S
H193 C218 0.949 . S
H194 C219 0.950 . S
H195 C221 0.950 . S
H196 C222 0.950 . S
H197 C224 0.950 . S
H198 C227 0.950 . S
H199 C228 0.950 . S
H200 C230 0.951 . S
H201 C231 0.949 . S
C202 C203 1.376 . S
C202 C207 1.386 . S
C202 C208 1.483 . S
C203 H184 0.949 . S
C203 C202 1.376 . S
C203 C204 1.397 . S
C204 H185 0.950 . S
C204 C203 1.397 . S
C204 C205 1.391 . S
C205 C204 1.391 . S
C205 C206 1.405 . S
C206 H186 0.950 . S
C206 C205 1.405 . S
C206 C207 1.367 . S
C207 H187 0.950 . S
C207 C202 1.386 . S
C207 C206 1.367 . S
C208 C202 1.483 . S
C208 C209 1.382 . S
C208 C210 1.403 . S
C209 H188 0.950 . S
C209 C208 1.382 . S
C209 C225 1.411 . S
C210 C208 1.403 . S
C210 C211 1.489 . S
C210 C224 1.411 . S
C211 C210 1.489 . S
C211 C212 1.383 . S
C211 C216 1.382 . S
C212 H189 0.950 . S
C212 C211 1.383 . S
C212 C213 1.395 . S
C213 H190 0.950 . S
C213 C212 1.395 . S
C213 C214 1.288 . S
C214 C213 1.288 . S
C214 C215 1.392 . S
C215 H191 0.951 . S
C215 C214 1.392 . S
C215 C216 1.392 . S
C216 H192 0.949 . S
C216 C211 1.382 . S
C216 C215 1.392 . S
C217 C218 1.376 . S
C217 C222 1.386 . S
C217 C223 1.483 . S
C218 H193 0.949 . S
C218 C217 1.376 . S
C218 C219 1.397 . S
C219 H194 0.950 . S
C219 C218 1.397 . S
C219 C220 1.391 . S
C220 C219 1.391 . S
C220 C221 1.405 . S
C221 H195 0.950 . S
C221 C220 1.405 . S
C221 C222 1.367 . S
C222 H196 0.950 . S
C222 C217 1.386 . S
C222 C221 1.367 . S
C223 C217 1.483 . S
C223 C224 1.382 . S
C223 C225 1.403 . S
C224 H197 0.950 . S
C224 C210 1.411 . S
C224 C223 1.382 . S
C225 C209 1.411 . S
C225 C223 1.403 . S
C225 C226 1.489 . S
C226 C225 1.489 . S
C226 C227 1.383 . S
C226 C231 1.382 . S
C227 H198 0.950 . S
C227 C226 1.383 . S
C227 C228 1.395 . S
C228 H199 0.950 . S
C228 C227 1.395 . S
C228 C229 1.288 . S
C229 C228 1.288 . S
C229 C230 1.392 . S
C230 H200 0.951 . S
C230 C229 1.392 . S
C230 C231 1.392 . S
C231 H201 0.949 . S
C231 C226 1.382 . S
C231 C230 1.392 . S
H232 C251 0.949 . S
H233 C252 0.950 . S
H234 C254 0.950 . S
H235 C255 0.950 . S
H236 C257 0.950 . S
H237 C260 0.950 . S
H238 C261 0.950 . S
H239 C263 0.951 . S
H240 C264 0.949 . S
H241 C266 0.949 . S
H242 C267 0.950 . S
H243 C269 0.950 . S
H244 C270 0.950 . S
H245 C272 0.950 . S
H246 C275 0.950 . S
H247 C276 0.950 . S
H248 C278 0.951 . S
H249 C279 0.949 . S
C250 C251 1.376 . S
C250 C255 1.386 . S
C250 C256 1.483 . S
C251 H232 0.949 . S
C251 C250 1.376 . S
C251 C252 1.397 . S
C252 H233 0.950 . S
C252 C251 1.397 . S
C252 C253 1.391 . S
C253 C252 1.391 . S
C253 C254 1.405 . S
C254 H234 0.950 . S
C254 C253 1.405 . S
C254 C255 1.367 . S
C255 H235 0.950 . S
C255 C250 1.386 . S
C255 C254 1.367 . S
C256 C250 1.483 . S
C256 C257 1.382 1_556 S
C256 C258 1.403 . S
C257 H236 0.950 . S
C257 C256 1.382 1_554 S
C257 C273 1.411 . S
C258 C256 1.403 . S
C258 C259 1.489 . S
C258 C272 1.411 1_556 S
C259 C258 1.489 . S
C259 C260 1.383 . S
C259 C264 1.382 . S
C260 H237 0.950 . S
C260 C259 1.383 . S
C260 C261 1.395 . S
C261 H238 0.950 . S
C261 C260 1.395 . S
C261 C262 1.288 . S
C262 C261 1.288 . S
C262 C263 1.392 . S
C263 H239 0.951 . S
C263 C262 1.392 . S
C263 C264 1.392 . S
C264 H240 0.949 . S
C264 C259 1.382 . S
C264 C263 1.392 . S
C265 C266 1.376 . S
C265 C270 1.386 . S
C265 C271 1.483 . S
C266 H241 0.949 . S
C266 C265 1.376 . S
C266 C267 1.397 . S
C267 H242 0.950 . S
C267 C266 1.397 . S
C267 C268 1.391 . S
C268 C267 1.391 . S
C268 C269 1.405 . S
C269 H243 0.950 . S
C269 C268 1.405 . S
C269 C270 1.367 . S
C270 H244 0.950 . S
C270 C265 1.386 . S
C270 C269 1.367 . S
C271 C265 1.483 . S
C271 C272 1.382 . S
C271 C273 1.403 . S
C272 H245 0.950 . S
C272 C258 1.411 1_554 S
C272 C271 1.382 . S
C273 C257 1.411 . S
C273 C271 1.403 . S
C273 C274 1.489 . S
C274 C273 1.489 . S
C274 C275 1.383 . S
C274 C279 1.382 . S
C275 H246 0.950 . S
C275 C274 1.383 . S
C275 C276 1.395 . S
C276 H247 0.950 . S
C276 C275 1.395 . S
C276 C277 1.288 . S
C277 C276 1.288 . S
C277 C278 1.392 . S
C278 H248 0.951 . S
C278 C277 1.392 . S
C278 C279 1.392 . S
C279 H249 0.949 . S
C279 C274 1.382 . S
C279 C278 1.392 . S
H280 C299 0.949 . S
H281 C300 0.950 . S
H282 C302 0.950 . S
H283 C303 0.950 . S
H284 C305 0.950 . S
H285 C308 0.950 . S
H286 C309 0.950 . S
H287 C311 0.951 . S
H288 C312 0.949 . S
H289 C314 0.949 . S
H290 C315 0.950 . S
H291 C317 0.950 . S
H292 C318 0.950 . S
H293 C320 0.950 . S
H294 C323 0.950 . S
H295 C324 0.950 . S
H296 C326 0.951 . S
H297 C327 0.949 . S
C298 C299 1.376 . S
C298 C303 1.386 . S
C298 C304 1.483 . S
C299 H280 0.949 . S
C299 C298 1.376 . S
C299 C300 1.397 . S
C300 H281 0.950 . S
C300 C299 1.397 . S
C300 C301 1.391 . S
C301 C300 1.391 . S
C301 C302 1.405 . S
C302 H282 0.950 . S
C302 C301 1.405 . S
C302 C303 1.367 . S
C303 H283 0.950 . S
C303 C298 1.386 . S
C303 C302 1.367 . S
C304 C298 1.483 . S
C304 C305 1.382 1_565 S
C304 C306 1.403 . S
C305 H284 0.950 . S
C305 C304 1.382 1_545 S
C305 C321 1.411 . S
C306 C304 1.403 . S
C306 C307 1.489 . S
C306 C320 1.411 1_565 S
C307 C306 1.489 . S
C307 C308 1.383 . S
C307 C312 1.382 . S
C308 H285 0.950 . S
C308 C307 1.383 . S
C308 C309 1.395 . S
C309 H286 0.950 . S
C309 C308 1.395 . S
C309 C310 1.288 . S
C310 C309 1.288 . S
C310 C311 1.392 . S
C311 H287 0.951 . S
C311 C310 1.392 . S
C311 C312 1.392 . S
C312 H288 0.949 . S
C312 C307 1.382 . S
C312 C311 1.392 . S
C313 C314 1.376 . S
C313 C318 1.386 . S
C313 C319 1.483 . S
C314 H289 0.949 . S
C314 C313 1.376 . S
C314 C315 1.397 . S
C315 H290 0.950 . S
C315 C314 1.397 . S
C315 C316 1.391 . S
C316 C315 1.391 . S
C316 C317 1.405 . S
C317 H291 0.950 . S
C317 C316 1.405 . S
C317 C318 1.367 . S
C318 H292 0.950 . S
C318 C313 1.386 . S
C318 C317 1.367 . S
C319 C313 1.483 . S
C319 C320 1.382 . S
C319 C321 1.403 . S
C320 H293 0.950 . S
C320 C306 1.411 1_545 S
C320 C319 1.382 . S
C321 C305 1.411 . S
C321 C319 1.403 . S
C321 C322 1.489 . S
C322 C321 1.489 . S
C322 C323 1.383 . S
C322 C327 1.382 . S
C323 H294 0.950 . S
C323 C322 1.383 . S
C323 C324 1.395 . S
C324 H295 0.950 . S
C324 C323 1.395 . S
C324 C325 1.288 . S
C325 C324 1.288 . S
C325 C326 1.392 . S
C326 H296 0.951 . S
C326 C325 1.392 . S
C326 C327 1.392 . S
C327 H297 0.949 . S
C327 C322 1.382 . S
C327 C326 1.392 . S
H328 C347 0.949 . S
H329 C348 0.950 . S
H330 C350 0.950 . S
H331 C351 0.950 . S
H332 C353 0.950 . S
H333 C356 0.950 . S
H334 C357 0.950 . S
H335 C359 0.951 . S
H336 C360 0.949 . S
H337 C362 0.949 . S
H338 C363 0.950 . S
H339 C365 0.950 . S
H340 C366 0.950 . S
H341 C368 0.950 . S
H342 C371 0.950 . S
H343 C372 0.950 . S
H344 C374 0.951 . S
H345 C375 0.949 . S
C346 C347 1.376 . S
C346 C351 1.386 . S
C346 C352 1.483 . S
C347 H328 0.949 . S
C347 C346 1.376 . S
C347 C348 1.397 . S
C348 H329 0.950 . S
C348 C347 1.397 . S
C348 C349 1.391 . S
C349 C348 1.391 . S
C349 C350 1.405 . S
C350 H330 0.950 . S
C350 C349 1.405 . S
C350 C351 1.367 . S
C351 H331 0.950 . S
C351 C346 1.386 . S
C351 C350 1.367 . S
C352 C346 1.483 . S
C352 C353 1.382 1_556 S
C352 C354 1.403 . S
C353 H332 0.950 . S
C353 C352 1.382 1_554 S
C353 C369 1.411 . S
C354 C352 1.403 . S
C354 C355 1.489 . S
C354 C368 1.411 1_556 S
C355 C354 1.489 . S
C355 C356 1.383 . S
C355 C360 1.382 . S
C356 H333 0.950 . S
C356 C355 1.383 . S
C356 C357 1.395 . S
C357 H334 0.950 . S
C357 C356 1.395 . S
C357 C358 1.288 . S
C358 C357 1.288 . S
C358 C359 1.392 . S
C359 H335 0.951 . S
C359 C358 1.392 . S
C359 C360 1.392 . S
C360 H336 0.949 . S
C360 C355 1.382 . S
C360 C359 1.392 . S
C361 C362 1.376 . S
C361 C366 1.386 . S
C361 C367 1.483 . S
C362 H337 0.949 . S
C362 C361 1.376 . S
C362 C363 1.397 . S
C363 H338 0.950 . S
C363 C362 1.397 . S
C363 C364 1.391 . S
C364 C363 1.391 . S
C364 C365 1.405 . S
C365 H339 0.950 . S
C365 C364 1.405 . S
C365 C366 1.367 . S
C366 H340 0.950 . S
C366 C361 1.386 . S
C366 C365 1.367 . S
C367 C361 1.483 . S
C367 C368 1.382 . S
C367 C369 1.403 . S
C368 H341 0.950 . S
C368 C354 1.411 1_554 S
C368 C367 1.382 . S
C369 C353 1.411 . S
C369 C367 1.403 . S
C369 C370 1.489 . S
C370 C369 1.489 . S
C370 C371 1.383 . S
C370 C375 1.382 . S
C371 H342 0.950 . S
C371 C370 1.383 . S
C371 C372 1.395 . S
C372 H343 0.950 . S
C372 C371 1.395 . S
C372 C373 1.288 . S
C373 C372 1.288 . S
C373 C374 1.392 . S
C374 H344 0.951 . S
C374 C373 1.392 . S
C374 C375 1.392 . S
C375 H345 0.949 . S
C375 C370 1.382 . S
C375 C374 1.392 . S
H376 C394 0.951 . S
H377 C396 0.951 . S
H378 C398 0.950 . S
H379 C399 0.950 . S
H380 C401 0.950 . S
H381 C404 0.950 . S
H382 C405 0.950 . S
H383 C407 0.950 . S
H384 C408 0.950 . S
H385 C409 0.951 . S
H386 C411 0.951 . S
H387 C413 0.950 . S
H388 C414 0.950 . S
H389 C416 0.950 . S
H390 C419 0.950 . S
H391 C420 0.950 . S
H392 C422 0.950 . S
H393 C423 0.950 . S
C394 H376 0.951 . S
C394 C395 1.366 . S
C394 C396 1.388 . S
C395 C394 1.366 . S
C395 C399 1.385 . S
C396 H377 0.951 . S
C396 C394 1.388 . S
C396 C397 1.366 . S
C397 C396 1.366 . S
C397 C398 1.414 . S
C397 C400 1.499 . S
C398 H378 0.950 . S
C398 C397 1.414 . S
C398 C399 1.374 . S
C399 H379 0.950 . S
C399 C395 1.385 . S
C399 C398 1.374 . S
C400 C397 1.499 . S
C400 C401 1.373 . S
C400 C402 1.389 . S
C401 H380 0.950 . S
C401 C400 1.373 . S
C401 C417 1.377 . S
C402 C400 1.389 . S
C402 C403 1.524 . S
C402 C416 1.377 . S
C403 C402 1.524 . S
C403 C404 1.397 . S
C403 C408 1.363 . S
C404 H381 0.950 . S
C404 C403 1.397 . S
C404 C405 1.334 . S
C405 H382 0.950 . S
C405 C404 1.334 . S
C405 C406 1.287 . S
C406 C405 1.287 . S
C406 C407 1.524 . S
C406 H425 0.913 . S
C407 H383 0.950 . S
C407 C406 1.524 . S
C407 C408 1.415 . S
C408 H384 0.950 . S
C408 C403 1.363 . S
C408 C407 1.415 . S
C409 H385 0.951 . S
C409 C410 1.366 . S
C409 C411 1.388 . S
C410 C409 1.366 . S
C410 C414 1.385 . S
C411 H386 0.951 . S
C411 C409 1.388 . S
C411 C412 1.366 . S
C412 C411 1.366 . S
C412 C413 1.414 . S
C412 C415 1.499 . S
C413 H387 0.950 . S
C413 C412 1.414 . S
C413 C414 1.374 . S
C414 H388 0.950 . S
C414 C410 1.385 . S
C414 C413 1.374 . S
C415 C412 1.499 . S
C415 C416 1.373 . S
C415 C417 1.389 . S
C416 H389 0.950 . S
C416 C402 1.377 . S
C416 C415 1.373 . S
C417 C401 1.377 . S
C417 C415 1.389 . S
C417 C418 1.524 . S
C418 C417 1.524 . S
C418 C419 1.397 . S
C418 C423 1.363 . S
C419 H390 0.950 . S
C419 C418 1.397 . S
C419 C420 1.334 . S
C420 H391 0.950 . S
C420 C419 1.334 . S
C420 C421 1.287 . S
C421 C420 1.287 . S
C421 C422 1.524 . S
C421 H424 0.999 . S
C422 H392 0.950 . S
C422 C421 1.524 . S
C422 C423 1.415 . S
C423 H393 0.950 . S
C423 C418 1.363 . S
C423 C422 1.415 . S
H424 C421 0.999 . S
H425 C406 0.913 . S
H426 C444 0.951 . S
H427 C446 0.951 . S
H428 C448 0.950 . S
H429 C449 0.950 . S
H430 C451 0.950 . S
H431 C454 0.950 . S
H432 C455 0.950 . S
H433 C457 0.950 . S
H434 C458 0.950 . S
H435 C459 0.951 . S
H436 C461 0.951 . S
H437 C463 0.950 . S
H438 C464 0.950 . S
H439 C466 0.950 . S
H440 C469 0.950 . S
H441 C470 0.950 . S
H442 C472 0.950 . S
H443 C473 0.950 . S
C444 H426 0.951 . S
C444 C445 1.366 . S
C444 C446 1.388 . S
C445 C444 1.366 . S
C445 C449 1.385 . S
C446 H427 0.951 . S
C446 C444 1.388 . S
C446 C447 1.366 . S
C447 C446 1.366 . S
C447 C448 1.414 . S
C447 C450 1.499 . S
C448 H428 0.950 . S
C448 C447 1.414 . S
C448 C449 1.374 . S
C449 H429 0.950 . S
C449 C445 1.385 . S
C449 C448 1.374 . S
C450 C447 1.499 . S
C450 C451 1.373 . S
C450 C452 1.389 . S
C451 H430 0.950 . S
C451 C450 1.373 . S
C451 C467 1.377 . S
C452 C450 1.389 . S
C452 C453 1.524 . S
C452 C466 1.377 . S
C453 C452 1.524 . S
C453 C454 1.397 . S
C453 C458 1.363 . S
C454 H431 0.950 . S
C454 C453 1.397 . S
C454 C455 1.334 . S
C455 H432 0.950 . S
C455 C454 1.334 . S
C455 C456 1.287 . S
C456 C455 1.287 . S
C456 C457 1.524 . S
C456 H475 0.913 . S
C457 H433 0.950 . S
C457 C456 1.524 . S
C457 C458 1.415 . S
C458 H434 0.950 . S
C458 C453 1.363 . S
C458 C457 1.415 . S
C459 H435 0.951 . S
C459 C460 1.366 . S
C459 C461 1.388 . S
C460 C459 1.366 . S
C460 C464 1.385 . S
C461 H436 0.951 . S
C461 C459 1.388 . S
C461 C462 1.366 . S
C462 C461 1.366 . S
C462 C463 1.414 . S
C462 C465 1.499 . S
C463 H437 0.950 . S
C463 C462 1.414 . S
C463 C464 1.374 . S
C464 H438 0.950 . S
C464 C460 1.385 . S
C464 C463 1.374 . S
C465 C462 1.499 . S
C465 C466 1.373 . S
C465 C467 1.389 . S
C466 H439 0.950 . S
C466 C452 1.377 . S
C466 C465 1.373 . S
C467 C451 1.377 . S
C467 C465 1.389 . S
C467 C468 1.524 . S
C468 C467 1.524 . S
C468 C469 1.397 . S
C468 C473 1.363 . S
C469 H440 0.950 . S
C469 C468 1.397 . S
C469 C470 1.334 . S
C470 H441 0.950 . S
C470 C469 1.334 . S
C470 C471 1.287 . S
C471 C470 1.287 . S
C471 C472 1.524 . S
C471 H474 0.999 . S
C472 H442 0.950 . S
C472 C471 1.524 . S
C472 C473 1.415 . S
C473 H443 0.950 . S
C473 C468 1.363 . S
C473 C472 1.415 . S
H474 C471 0.999 . S
H475 C456 0.913 . S
H476 C494 0.951 . S
H477 C496 0.951 . S
H478 C498 0.950 . S
H479 C499 0.950 . S
H480 C501 0.950 . S
H481 C504 0.950 . S
H482 C505 0.950 . S
H483 C507 0.950 . S
H484 C508 0.950 . S
H485 C509 0.951 . S
H486 C511 0.951 . S
H487 C513 0.950 . S
H488 C514 0.950 . S
H489 C516 0.950 . S
H490 C519 0.950 . S
H491 C520 0.950 . S
H492 C522 0.950 . S
H493 C523 0.950 . S
C494 H476 0.951 . S
C494 C495 1.366 . S
C494 C496 1.388 . S
C495 C494 1.366 . S
C495 C499 1.385 . S
C496 H477 0.951 . S
C496 C494 1.388 . S
C496 C497 1.366 . S
C497 C496 1.366 . S
C497 C498 1.414 . S
C497 C500 1.499 . S
C498 H478 0.950 . S
C498 C497 1.414 . S
C498 C499 1.374 . S
C499 H479 0.950 . S
C499 C495 1.385 . S
C499 C498 1.374 . S
C500 C497 1.499 . S
C500 C501 1.373 . S
C500 C502 1.389 . S
C501 H480 0.950 . S
C501 C500 1.373 . S
C501 C517 1.377 . S
C502 C500 1.389 . S
C502 C503 1.524 . S
C502 C516 1.377 . S
C503 C502 1.524 . S
C503 C504 1.397 . S
C503 C508 1.363 . S
C504 H481 0.950 . S
C504 C503 1.397 . S
C504 C505 1.334 . S
C505 H482 0.950 . S
C505 C504 1.334 . S
C505 C506 1.287 . S
C506 C505 1.287 . S
C506 C507 1.524 . S
C506 H525 0.913 . S
C507 H483 0.950 . S
C507 C506 1.524 . S
C507 C508 1.415 . S
C508 H484 0.950 . S
C508 C503 1.363 . S
C508 C507 1.415 . S
C509 H485 0.951 . S
C509 C510 1.366 . S
C509 C511 1.388 . S
C510 C509 1.366 . S
C510 C514 1.385 . S
C511 H486 0.951 . S
C511 C509 1.388 . S
C511 C512 1.366 . S
C512 C511 1.366 . S
C512 C513 1.414 . S
C512 C515 1.499 . S
C513 H487 0.950 . S
C513 C512 1.414 . S
C513 C514 1.374 . S
C514 H488 0.950 . S
C514 C510 1.385 . S
C514 C513 1.374 . S
C515 C512 1.499 . S
C515 C516 1.373 . S
C515 C517 1.389 . S
C516 H489 0.950 . S
C516 C502 1.377 . S
C516 C515 1.373 . S
C517 C501 1.377 . S
C517 C515 1.389 . S
C517 C518 1.524 . S
C518 C517 1.524 . S
C518 C519 1.397 . S
C518 C523 1.363 . S
C519 H490 0.950 . S
C519 C518 1.397 . S
C519 C520 1.334 . S
C520 H491 0.950 . S
C520 C519 1.334 . S
C520 C521 1.287 . S
C521 C520 1.287 . S
C521 C522 1.524 . S
C521 H524 0.999 . S
C522 H492 0.950 . S
C522 C521 1.524 . S
C522 C523 1.415 . S
C523 H493 0.950 . S
C523 C518 1.363 . S
C523 C522 1.415 . S
H524 C521 0.999 . S
H525 C506 0.913 . S
H526 C544 0.951 . S
H527 C546 0.951 . S
H528 C548 0.950 . S
H529 C549 0.950 . S
H530 C551 0.950 . S
H531 C554 0.950 . S
H532 C555 0.950 . S
H533 C557 0.950 . S
H534 C558 0.950 . S
H535 C559 0.951 . S
H536 C561 0.951 . S
H537 C563 0.950 . S
H538 C564 0.950 . S
H539 C566 0.950 . S
H540 C569 0.950 . S
H541 C570 0.950 . S
H542 C572 0.950 . S
H543 C573 0.950 . S
C544 H526 0.951 . S
C544 C545 1.366 . S
C544 C546 1.388 . S
C545 C544 1.366 . S
C545 C549 1.385 . S
C546 H527 0.951 . S
C546 C544 1.388 . S
C546 C547 1.366 . S
C547 C546 1.366 . S
C547 C548 1.414 . S
C547 C550 1.499 . S
C548 H528 0.950 . S
C548 C547 1.414 . S
C548 C549 1.374 . S
C549 H529 0.950 . S
C549 C545 1.385 . S
C549 C548 1.374 . S
C550 C547 1.499 . S
C550 C551 1.373 . S
C550 C552 1.389 . S
C551 H530 0.950 . S
C551 C550 1.373 . S
C551 C567 1.377 . S
C552 C550 1.389 . S
C552 C553 1.524 . S
C552 C566 1.377 . S
C553 C552 1.524 . S
C553 C554 1.397 . S
C553 C558 1.363 . S
C554 H531 0.950 . S
C554 C553 1.397 . S
C554 C555 1.334 . S
C555 H532 0.950 . S
C555 C554 1.334 . S
C555 C556 1.287 . S
C556 C555 1.287 . S
C556 C557 1.524 . S
C556 H575 0.913 . S
C557 H533 0.950 . S
C557 C556 1.524 . S
C557 C558 1.415 . S
C558 H534 0.950 . S
C558 C553 1.363 . S
C558 C557 1.415 . S
C559 H535 0.951 . S
C559 C560 1.366 . S
C559 C561 1.388 . S
C560 C559 1.366 . S
C560 C564 1.385 . S
C561 H536 0.951 . S
C561 C559 1.388 . S
C561 C562 1.366 . S
C562 C561 1.366 . S
C562 C563 1.414 . S
C562 C565 1.499 . S
C563 H537 0.950 . S
C563 C562 1.414 . S
C563 C564 1.374 . S
C564 H538 0.950 . S
C564 C560 1.385 . S
C564 C563 1.374 . S
C565 C562 1.499 . S
C565 C566 1.373 . S
C565 C567 1.389 . S
C566 H539 0.950 . S
C566 C552 1.377 . S
C566 C565 1.373 . S
C567 C551 1.377 . S
C567 C565 1.389 . S
C567 C568 1.524 . S
C568 C567 1.524 . S
C568 C569 1.397 . S
C568 C573 1.363 . S
C569 H540 0.950 . S
C569 C568 1.397 . S
C569 C570 1.334 . S
C570 H541 0.950 . S
C570 C569 1.334 . S
C570 C571 1.287 . S
C571 C570 1.287 . S
C571 C572 1.524 . S
C571 H574 0.999 . S
C572 H542 0.950 . S
C572 C571 1.524 . S
C572 C573 1.415 . S
C573 H543 0.950 . S
C573 C568 1.363 . S
C573 C572 1.415 . S
H574 C571 0.999 . S
H575 C556 0.913 . S
H576 C594 0.951 . S
H577 C596 0.951 . S
H578 C598 0.950 . S
H579 C599 0.950 . S
H580 C601 0.950 . S
H581 C604 0.950 . S
H582 C605 0.950 . S
H583 C607 0.950 . S
H584 C608 0.950 . S
H585 C609 0.951 . S
H586 C611 0.951 . S
H587 C613 0.950 . S
H588 C614 0.950 . S
H589 C616 0.950 . S
H590 C619 0.950 . S
H591 C620 0.950 . S
H592 C622 0.950 . S
H593 C623 0.950 . S
C594 H576 0.951 . S
C594 C595 1.366 . S
C594 C596 1.388 . S
C595 C594 1.366 . S
C595 C599 1.385 . S
C596 H577 0.951 . S
C596 C594 1.388 . S
C596 C597 1.366 . S
C597 C596 1.366 . S
C597 C598 1.414 . S
C597 C600 1.499 . S
C598 H578 0.950 . S
C598 C597 1.414 . S
C598 C599 1.374 . S
C599 H579 0.950 . S
C599 C595 1.385 . S
C599 C598 1.374 . S
C600 C597 1.499 . S
C600 C601 1.373 . S
C600 C602 1.389 . S
C601 H580 0.950 . S
C601 C600 1.373 . S
C601 C617 1.377 . S
C602 C600 1.389 . S
C602 C603 1.524 . S
C602 C616 1.377 . S
C603 C602 1.524 . S
C603 C604 1.397 . S
C603 C608 1.363 . S
C604 H581 0.950 . S
C604 C603 1.397 . S
C604 C605 1.334 . S
C605 H582 0.950 . S
C605 C604 1.334 . S
C605 C606 1.287 . S
C606 C605 1.287 . S
C606 C607 1.524 . S
C606 H625 0.913 . S
C607 H583 0.950 . S
C607 C606 1.524 . S
C607 C608 1.415 . S
C608 H584 0.950 . S
C608 C603 1.363 . S
C608 C607 1.415 . S
C609 H585 0.951 . S
C609 C610 1.366 . S
C609 C611 1.388 . S
C610 C609 1.366 . S
C610 C614 1.385 . S
C611 H586 0.951 . S
C611 C609 1.388 . S
C611 C612 1.366 . S
C612 C611 1.366 . S
C612 C613 1.414 . S
C612 C615 1.499 . S
C613 H587 0.950 . S
C613 C612 1.414 . S
C613 C614 1.374 . S
C614 H588 0.950 . S
C614 C610 1.385 . S
C614 C613 1.374 . S
C615 C612 1.499 . S
C615 C616 1.373 . S
C615 C617 1.389 . S
C616 H589 0.950 . S
C616 C602 1.377 . S
C616 C615 1.373 . S
C617 C601 1.377 . S
C617 C615 1.389 . S
C617 C618 1.524 . S
C618 C617 1.524 . S
C618 C619 1.397 . S
C618 C623 1.363 . S
C619 H590 0.950 . S
C619 C618 1.397 . S
C619 C620 1.334 . S
C620 H591 0.950 . S
C620 C619 1.334 . S
C620 C621 1.287 . S
C621 C620 1.287 . S
C621 C622 1.524 . S
C621 H624 0.999 . S
C622 H592 0.950 . S
C622 C621 1.524 . S
C622 C623 1.415 . S
C623 H593 0.950 . S
C623 C618 1.363 . S
C623 C622 1.415 . S
H624 C621 0.999 . S
H625 C606 0.913 . S
H626 C644 0.951 . S
H627 C646 0.951 . S
H628 C648 0.950 . S
H629 C649 0.950 . S
H630 C651 0.950 . S
H631 C654 0.950 . S
H632 C655 0.950 . S
H633 C657 0.950 . S
H634 C658 0.950 . S
H635 C659 0.951 . S
H636 C661 0.951 . S
H637 C663 0.950 . S
H638 C664 0.950 . S
H639 C666 0.950 . S
H640 C669 0.950 . S
H641 C670 0.950 . S
H642 C672 0.950 . S
H643 C673 0.950 . S
C644 H626 0.951 . S
C644 C645 1.366 . S
C644 C646 1.388 . S
C645 C644 1.366 . S
C645 C649 1.385 . S
C646 H627 0.951 . S
C646 C644 1.388 . S
C646 C647 1.366 . S
C647 C646 1.366 . S
C647 C648 1.414 . S
C647 C650 1.499 . S
C648 H628 0.950 . S
C648 C647 1.414 . S
C648 C649 1.374 . S
C649 H629 0.950 . S
C649 C645 1.385 . S
C649 C648 1.374 . S
C650 C647 1.499 . S
C650 C651 1.373 . S
C650 C652 1.389 . S
C651 H630 0.950 . S
C651 C650 1.373 . S
C651 C667 1.377 . S
C652 C650 1.389 . S
C652 C653 1.524 . S
C652 C666 1.377 . S
C653 C652 1.524 . S
C653 C654 1.397 . S
C653 C658 1.363 . S
C654 H631 0.950 . S
C654 C653 1.397 . S
C654 C655 1.334 . S
C655 H632 0.950 . S
C655 C654 1.334 . S
C655 C656 1.287 . S
C656 C655 1.287 . S
C656 C657 1.524 . S
C656 H675 0.913 . S
C657 H633 0.950 . S
C657 C656 1.524 . S
C657 C658 1.415 . S
C658 H634 0.950 . S
C658 C653 1.363 . S
C658 C657 1.415 . S
C659 H635 0.951 . S
C659 C660 1.366 . S
C659 C661 1.388 . S
C660 C659 1.366 . S
C660 C664 1.385 . S
C661 H636 0.951 . S
C661 C659 1.388 . S
C661 C662 1.366 . S
C662 C661 1.366 . S
C662 C663 1.414 . S
C662 C665 1.499 . S
C663 H637 0.950 . S
C663 C662 1.414 . S
C663 C664 1.374 . S
C664 H638 0.950 . S
C664 C660 1.385 . S
C664 C663 1.374 . S
C665 C662 1.499 . S
C665 C666 1.373 . S
C665 C667 1.389 . S
C666 H639 0.950 . S
C666 C652 1.377 . S
C666 C665 1.373 . S
C667 C651 1.377 . S
C667 C665 1.389 . S
C667 C668 1.524 . S
C668 C667 1.524 . S
C668 C669 1.397 . S
C668 C673 1.363 . S
C669 H640 0.950 . S
C669 C668 1.397 . S
C669 C670 1.334 . S
C670 H641 0.950 . S
C670 C669 1.334 . S
C670 C671 1.287 . S
C671 C670 1.287 . S
C671 C672 1.524 . S
C671 H674 0.999 . S
C672 H642 0.950 . S
C672 C671 1.524 . S
C672 C673 1.415 . S
C673 H643 0.950 . S
C673 C668 1.363 . S
C673 C672 1.415 . S
H674 C671 0.999 . S
H675 C656 0.913 . S
H676 C694 0.951 . S
H677 C696 0.951 . S
H678 C698 0.950 . S
H679 C699 0.950 . S
H680 C701 0.950 . S
H681 C704 0.950 . S
H682 C705 0.950 . S
H683 C707 0.950 . S
H684 C708 0.950 . S
H685 C709 0.951 . S
H686 C711 0.951 . S
H687 C713 0.950 . S
H688 C714 0.950 . S
H689 C716 0.950 . S
H690 C719 0.950 . S
H691 C720 0.950 . S
H692 C722 0.950 . S
H693 C723 0.950 . S
C694 H676 0.951 . S
C694 C695 1.366 . S
C694 C696 1.388 . S
C695 C694 1.366 . S
C695 C699 1.385 . S
C696 H677 0.951 . S
C696 C694 1.388 . S
C696 C697 1.366 . S
C697 C696 1.366 . S
C697 C698 1.414 . S
C697 C700 1.499 . S
C698 H678 0.950 . S
C698 C697 1.414 . S
C698 C699 1.374 . S
C699 H679 0.950 . S
C699 C695 1.385 . S
C699 C698 1.374 . S
C700 C697 1.499 . S
C700 C701 1.373 . S
C700 C702 1.389 . S
C701 H680 0.950 . S
C701 C700 1.373 . S
C701 C717 1.377 . S
C702 C700 1.389 . S
C702 C703 1.524 . S
C702 C716 1.377 . S
C703 C702 1.524 . S
C703 C704 1.397 . S
C703 C708 1.363 . S
C704 H681 0.950 . S
C704 C703 1.397 . S
C704 C705 1.334 . S
C705 H682 0.950 . S
C705 C704 1.334 . S
C705 C706 1.287 . S
C706 C705 1.287 . S
C706 C707 1.524 . S
C706 H725 0.913 . S
C707 H683 0.950 . S
C707 C706 1.524 . S
C707 C708 1.415 . S
C708 H684 0.950 . S
C708 C703 1.363 . S
C708 C707 1.415 . S
C709 H685 0.951 . S
C709 C710 1.366 . S
C709 C711 1.388 . S
C710 C709 1.366 . S
C710 C714 1.385 . S
C711 H686 0.951 . S
C711 C709 1.388 . S
C711 C712 1.366 . S
C712 C711 1.366 . S
C712 C713 1.414 . S
C712 C715 1.499 . S
C713 H687 0.950 . S
C713 C712 1.414 . S
C713 C714 1.374 . S
C714 H688 0.950 . S
C714 C710 1.385 . S
C714 C713 1.374 . S
C715 C712 1.499 . S
C715 C716 1.373 . S
C715 C717 1.389 . S
C716 H689 0.950 . S
C716 C702 1.377 . S
C716 C715 1.373 . S
C717 C701 1.377 . S
C717 C715 1.389 . S
C717 C718 1.524 . S
C718 C717 1.524 . S
C718 C719 1.397 . S
C718 C723 1.363 . S
C719 H690 0.950 . S
C719 C718 1.397 . S
C719 C720 1.334 . S
C720 H691 0.950 . S
C720 C719 1.334 . S
C720 C721 1.287 . S
C721 C720 1.287 . S
C721 C722 1.524 . S
C721 H724 0.999 . S
C722 H692 0.950 . S
C722 C721 1.524 . S
C722 C723 1.415 . S
C723 H693 0.950 . S
C723 C718 1.363 . S
C723 C722 1.415 . S
H724 C721 0.999 . S
H725 C706 0.913 . S
H726 C744 0.951 . S
H727 C746 0.951 . S
H728 C748 0.950 . S
H729 C749 0.950 . S
H730 C751 0.950 . S
H731 C754 0.950 . S
H732 C755 0.950 . S
H733 C757 0.950 . S
H734 C758 0.950 . S
H735 C759 0.951 . S
H736 C761 0.951 . S
H737 C763 0.950 . S
H738 C764 0.950 . S
H739 C766 0.950 . S
H740 C769 0.950 . S
H741 C770 0.950 . S
H742 C772 0.950 . S
H743 C773 0.950 . S
C744 H726 0.951 . S
C744 C745 1.366 . S
C744 C746 1.388 . S
C745 C744 1.366 . S
C745 C749 1.385 . S
C746 H727 0.951 . S
C746 C744 1.388 . S
C746 C747 1.366 . S
C747 C746 1.366 . S
C747 C748 1.414 . S
C747 C750 1.499 . S
C748 H728 0.950 . S
C748 C747 1.414 . S
C748 C749 1.374 . S
C749 H729 0.950 . S
C749 C745 1.385 . S
C749 C748 1.374 . S
C750 C747 1.499 . S
C750 C751 1.373 . S
C750 C752 1.389 . S
C751 H730 0.950 . S
C751 C750 1.373 . S
C751 C767 1.377 . S
C752 C750 1.389 . S
C752 C753 1.524 . S
C752 C766 1.377 . S
C753 C752 1.524 . S
C753 C754 1.397 . S
C753 C758 1.363 . S
C754 H731 0.950 . S
C754 C753 1.397 . S
C754 C755 1.334 . S
C755 H732 0.950 . S
C755 C754 1.334 . S
C755 C756 1.287 . S
C756 C755 1.287 . S
C756 C757 1.524 . S
C756 H775 0.913 . S
C757 H733 0.950 . S
C757 C756 1.524 . S
C757 C758 1.415 . S
C758 H734 0.950 . S
C758 C753 1.363 . S
C758 C757 1.415 . S
C759 H735 0.951 . S
C759 C760 1.366 . S
C759 C761 1.388 . S
C760 C759 1.366 . S
C760 C764 1.385 . S
C761 H736 0.951 . S
C761 C759 1.388 . S
C761 C762 1.366 . S
C762 C761 1.366 . S
C762 C763 1.414 . S
C762 C765 1.499 . S
C763 H737 0.950 . S
C763 C762 1.414 . S
C763 C764 1.374 . S
C764 H738 0.950 . S
C764 C760 1.385 . S
C764 C763 1.374 . S
C765 C762 1.499 . S
C765 C766 1.373 . S
C765 C767 1.389 . S
C766 H739 0.950 . S
C766 C752 1.377 . S
C766 C765 1.373 . S
C767 C751 1.377 . S
C767 C765 1.389 . S
C767 C768 1.524 . S
C768 C767 1.524 . S
C768 C769 1.397 . S
C768 C773 1.363 . S
C769 H740 0.950 . S
C769 C768 1.397 . S
C769 C770 1.334 . S
C770 H741 0.950 . S
C770 C769 1.334 . S
C770 C771 1.287 . S
C771 C770 1.287 . S
C771 C772 1.524 . S
C771 H774 0.999 . S
C772 H742 0.950 . S
C772 C771 1.524 . S
C772 C773 1.415 . S
C773 H743 0.950 . S
C773 C768 1.363 . S
C773 C772 1.415 . S
H774 C771 0.999 . S
H775 C756 0.913 . S
H776 C794 0.951 . S
H777 C796 0.951 . S
H778 C798 0.950 . S
H779 C799 0.950 . S
H780 C801 0.950 . S
H781 C804 0.950 . S
H782 C805 0.950 . S
H783 C807 0.950 . S
H784 C808 0.950 . S
H785 C809 0.951 . S
H786 C811 0.951 . S
H787 C813 0.950 . S
H788 C814 0.950 . S
H789 C816 0.950 . S
H790 C819 0.950 . S
H791 C820 0.950 . S
H792 C822 0.950 . S
H793 C823 0.950 . S
C794 H776 0.951 . S
C794 C795 1.366 . S
C794 C796 1.388 . S
C795 C794 1.366 . S
C795 C799 1.385 . S
C796 H777 0.951 . S
C796 C794 1.388 . S
C796 C797 1.366 . S
C797 C796 1.366 . S
C797 C798 1.414 . S
C797 C800 1.499 . S
C798 H778 0.950 . S
C798 C797 1.414 . S
C798 C799 1.374 . S
C799 H779 0.950 . S
C799 C795 1.385 . S
C799 C798 1.374 . S
C800 C797 1.499 . S
C800 C801 1.373 . S
C800 C802 1.389 . S
C801 H780 0.950 . S
C801 C800 1.373 . S
C801 C817 1.377 . S
C802 C800 1.389 . S
C802 C803 1.524 . S
C802 C816 1.377 . S
C803 C802 1.524 . S
C803 C804 1.397 . S
C803 C808 1.363 . S
C804 H781 0.950 . S
C804 C803 1.397 . S
C804 C805 1.334 . S
C805 H782 0.950 . S
C805 C804 1.334 . S
C805 C806 1.287 . S
C806 C805 1.287 . S
C806 C807 1.524 . S
C806 H825 0.913 . S
C807 H783 0.950 . S
C807 C806 1.524 . S
C807 C808 1.415 . S
C808 H784 0.950 . S
C808 C803 1.363 . S
C808 C807 1.415 . S
C809 H785 0.951 . S
C809 C810 1.366 . S
C809 C811 1.388 1_545 S
C810 C809 1.366 . S
C810 C814 1.385 . S
C811 H786 0.951 . S
C811 C809 1.388 1_565 S
C811 C812 1.366 . S
C812 C811 1.366 . S
C812 C813 1.414 1_565 S
C812 C815 1.499 . S
C813 H787 0.950 . S
C813 C812 1.414 1_545 S
C813 C814 1.374 . S
C814 H788 0.950 . S
C814 C810 1.385 . S
C814 C813 1.374 . S
C815 C812 1.499 . S
C815 C816 1.373 . S
C815 C817 1.389 . S
C816 H789 0.950 . S
C816 C802 1.377 . S
C816 C815 1.373 . S
C817 C801 1.377 . S
C817 C815 1.389 . S
C817 C818 1.524 . S
C818 C817 1.524 . S
C818 C819 1.397 . S
C818 C823 1.363 . S
C819 H790 0.950 . S
C819 C818 1.397 . S
C819 C820 1.334 . S
C820 H791 0.950 . S
C820 C819 1.334 . S
C820 C821 1.287 . S
C821 C820 1.287 . S
C821 C822 1.524 . S
C821 H824 0.999 . S
C822 H792 0.950 . S
C822 C821 1.524 . S
C822 C823 1.415 . S
C823 H793 0.950 . S
C823 C818 1.363 . S
C823 C822 1.415 . S
H824 C821 0.999 . S
H825 C806 0.913 . S
H826 C844 0.951 . S
H827 C846 0.951 . S
H828 C848 0.950 . S
H829 C849 0.950 . S
H830 C851 0.950 . S
H831 C854 0.950 . S
H832 C855 0.950 . S
H833 C857 0.950 . S
H834 C858 0.950 . S
H835 C859 0.951 . S
H836 C861 0.951 . S
H837 C863 0.950 . S
H838 C864 0.950 . S
H839 C866 0.950 . S
H840 C869 0.950 . S
H841 C870 0.950 . S
H842 C872 0.950 . S
H843 C873 0.950 . S
C844 H826 0.951 . S
C844 C845 1.366 . S
C844 C846 1.388 . S
C845 C844 1.366 . S
C845 C849 1.385 . S
C846 H827 0.951 . S
C846 C844 1.388 . S
C846 C847 1.366 . S
C847 C846 1.366 . S
C847 C848 1.414 . S
C847 C850 1.499 . S
C848 H828 0.950 . S
C848 C847 1.414 . S
C848 C849 1.374 . S
C849 H829 0.950 . S
C849 C845 1.385 . S
C849 C848 1.374 . S
C850 C847 1.499 . S
C850 C851 1.373 . S
C850 C852 1.389 . S
C851 H830 0.950 . S
C851 C850 1.373 . S
C851 C867 1.377 . S
C852 C850 1.389 . S
C852 C853 1.524 . S
C852 C866 1.377 . S
C853 C852 1.524 . S
C853 C854 1.397 . S
C853 C858 1.363 . S
C854 H831 0.950 . S
C854 C853 1.397 . S
C854 C855 1.334 . S
C855 H832 0.950 . S
C855 C854 1.334 . S
C855 C856 1.287 . S
C856 C855 1.287 . S
C856 C857 1.524 . S
C856 H875 0.913 . S
C857 H833 0.950 . S
C857 C856 1.524 . S
C857 C858 1.415 . S
C858 H834 0.950 . S
C858 C853 1.363 . S
C858 C857 1.415 . S
C859 H835 0.951 . S
C859 C860 1.366 . S
C859 C861 1.388 . S
C860 C859 1.366 . S
C860 C864 1.385 . S
C861 H836 0.951 . S
C861 C859 1.388 . S
C861 C862 1.366 . S
C862 C861 1.366 . S
C862 C863 1.414 . S
C862 C865 1.499 . S
C863 H837 0.950 . S
C863 C862 1.414 . S
C863 C864 1.374 . S
C864 H838 0.950 . S
C864 C860 1.385 . S
C864 C863 1.374 . S
C865 C862 1.499 . S
C865 C866 1.373 . S
C865 C867 1.389 . S
C866 H839 0.950 . S
C866 C852 1.377 . S
C866 C865 1.373 . S
C867 C851 1.377 . S
C867 C865 1.389 . S
C867 C868 1.524 . S
C868 C867 1.524 . S
C868 C869 1.397 . S
C868 C873 1.363 . S
C869 H840 0.950 . S
C869 C868 1.397 . S
C869 C870 1.334 . S
C870 H841 0.950 . S
C870 C869 1.334 . S
C870 C871 1.287 . S
C871 C870 1.287 . S
C871 C872 1.524 . S
C871 H874 0.999 . S
C872 H842 0.950 . S
C872 C871 1.524 . S
C872 C873 1.415 . S
C873 H843 0.950 . S
C873 C868 1.363 . S
C873 C872 1.415 . S
H874 C871 0.999 . S
H875 C856 0.913 . S
H876 C894 0.951 . S
H877 C896 0.951 . S
H878 C898 0.950 . S
H879 C899 0.950 . S
H880 C901 0.950 . S
H881 C904 0.950 . S
H882 C905 0.950 . S
H883 C907 0.950 . S
H884 C908 0.950 . S
H885 C909 0.951 . S
H886 C911 0.951 . S
H887 C913 0.950 . S
H888 C914 0.950 . S
H889 C916 0.950 . S
H890 C919 0.950 . S
H891 C920 0.950 . S
H892 C922 0.950 . S
H893 C923 0.950 . S
C894 H876 0.951 . S
C894 C895 1.366 . S
C894 C896 1.388 . S
C895 C894 1.366 . S
C895 C899 1.385 . S
C896 H877 0.951 . S
C896 C894 1.388 . S
C896 C897 1.366 . S
C897 C896 1.366 . S
C897 C898 1.414 . S
C897 C900 1.499 . S
C898 H878 0.950 . S
C898 C897 1.414 . S
C898 C899 1.374 . S
C899 H879 0.950 . S
C899 C895 1.385 . S
C899 C898 1.374 . S
C900 C897 1.499 . S
C900 C901 1.373 . S
C900 C902 1.389 . S
C901 H880 0.950 . S
C901 C900 1.373 . S
C901 C917 1.377 . S
C902 C900 1.389 . S
C902 C903 1.524 . S
C902 C916 1.377 . S
C903 C902 1.524 . S
C903 C904 1.397 . S
C903 C908 1.363 . S
C904 H881 0.950 . S
C904 C903 1.397 . S
C904 C905 1.334 . S
C905 H882 0.950 . S
C905 C904 1.334 . S
C905 C906 1.287 . S
C906 C905 1.287 . S
C906 C907 1.524 . S
C906 H925 0.913 . S
C907 H883 0.950 . S
C907 C906 1.524 . S
C907 C908 1.415 . S
C908 H884 0.950 . S
C908 C903 1.363 . S
C908 C907 1.415 . S
C909 H885 0.951 . S
C909 C910 1.366 . S
C909 C911 1.388 . S
C910 C909 1.366 . S
C910 C914 1.385 . S
C911 H886 0.951 . S
C911 C909 1.388 . S
C911 C912 1.366 . S
C912 C911 1.366 . S
C912 C913 1.414 . S
C912 C915 1.499 . S
C913 H887 0.950 . S
C913 C912 1.414 . S
C913 C914 1.374 . S
C914 H888 0.950 . S
C914 C910 1.385 . S
C914 C913 1.374 . S
C915 C912 1.499 . S
C915 C916 1.373 . S
C915 C917 1.389 . S
C916 H889 0.950 . S
C916 C902 1.377 . S
C916 C915 1.373 . S
C917 C901 1.377 . S
C917 C915 1.389 . S
C917 C918 1.524 . S
C918 C917 1.524 . S
C918 C919 1.397 . S
C918 C923 1.363 . S
C919 H890 0.950 . S
C919 C918 1.397 . S
C919 C920 1.334 . S
C920 H891 0.950 . S
C920 C919 1.334 . S
C920 C921 1.287 . S
C921 C920 1.287 . S
C921 C922 1.524 . S
C921 H924 0.999 . S
C922 H892 0.950 . S
C922 C921 1.524 . S
C922 C923 1.415 . S
C923 H893 0.950 . S
C923 C918 1.363 . S
C923 C922 1.415 . S
H924 C921 0.999 . S
H925 C906 0.913 . S
H926 C944 0.951 . S
H927 C946 0.951 . S
H928 C948 0.950 . S
H929 C949 0.950 . S
H930 C951 0.950 . S
H931 C954 0.950 . S
H932 C955 0.950 . S
H933 C957 0.950 . S
H934 C958 0.950 . S
H935 C959 0.951 . S
H936 C961 0.951 . S
H937 C963 0.950 . S
H938 C964 0.950 . S
H939 C966 0.950 . S
H940 C969 0.950 . S
H941 C970 0.950 . S
H942 C972 0.950 . S
H943 C973 0.950 . S
C944 H926 0.951 . S
C944 C945 1.366 . S
C944 C946 1.388 . S
C945 C944 1.366 . S
C945 C949 1.385 . S
C946 H927 0.951 . S
C946 C944 1.388 . S
C946 C947 1.366 . S
C947 C946 1.366 . S
C947 C948 1.414 . S
C947 C950 1.499 . S
C948 H928 0.950 . S
C948 C947 1.414 . S
C948 C949 1.374 . S
C949 H929 0.950 . S
C949 C945 1.385 . S
C949 C948 1.374 . S
C950 C947 1.499 . S
C950 C951 1.373 . S
C950 C952 1.389 . S
C951 H930 0.950 . S
C951 C950 1.373 . S
C951 C967 1.377 . S
C952 C950 1.389 . S
C952 C953 1.524 . S
C952 C966 1.377 . S
C953 C952 1.524 . S
C953 C954 1.397 . S
C953 C958 1.363 . S
C954 H931 0.950 . S
C954 C953 1.397 . S
C954 C955 1.334 . S
C955 H932 0.950 . S
C955 C954 1.334 . S
C955 C956 1.287 . S
C956 C955 1.287 . S
C956 C957 1.524 . S
C956 H975 0.913 . S
C957 H933 0.950 . S
C957 C956 1.524 . S
C957 C958 1.415 . S
C958 H934 0.950 . S
C958 C953 1.363 . S
C958 C957 1.415 . S
C959 H935 0.951 . S
C959 C960 1.366 . S
C959 C961 1.388 . S
C960 C959 1.366 . S
C960 C964 1.385 . S
C961 H936 0.951 . S
C961 C959 1.388 . S
C961 C962 1.366 . S
C962 C961 1.366 . S
C962 C963 1.414 . S
C962 C965 1.499 . S
C963 H937 0.950 . S
C963 C962 1.414 . S
C963 C964 1.374 . S
C964 H938 0.950 . S
C964 C960 1.385 . S
C964 C963 1.374 . S
C965 C962 1.499 . S
C965 C966 1.373 . S
C965 C967 1.389 . S
C966 H939 0.950 . S
C966 C952 1.377 . S
C966 C965 1.373 . S
C967 C951 1.377 . S
C967 C965 1.389 . S
C967 C968 1.524 . S
C968 C967 1.524 . S
C968 C969 1.397 . S
C968 C973 1.363 . S
C969 H940 0.950 . S
C969 C968 1.397 . S
C969 C970 1.334 . S
C970 H941 0.950 . S
C970 C969 1.334 . S
C970 C971 1.287 . S
C971 C970 1.287 . S
C971 C972 1.524 . S
C971 H974 0.999 . S
C972 H942 0.950 . S
C972 C971 1.524 . S
C972 C973 1.415 . S
C973 H943 0.950 . S
C973 C968 1.363 . S
C973 C972 1.415 . S
H974 C971 0.999 . S
H975 C956 0.913 . S
H976 C994 0.951 . S
H977 C996 0.951 . S
H978 C998 0.950 . S
H979 C999 0.950 . S
H980 C1001 0.950 . S
H981 C1004 0.950 . S
H982 C1005 0.950 . S
H983 C1007 0.950 . S
H984 C1008 0.950 . S
H985 C1009 0.951 . S
H986 C1011 0.951 . S
H987 C1013 0.950 . S
H988 C1014 0.950 . S
H989 C1016 0.950 . S
H990 C1019 0.950 . S
H991 C1020 0.950 . S
H992 C1022 0.950 . S
H993 C1023 0.950 . S
C994 H976 0.951 . S
C994 C995 1.366 . S
C994 C996 1.388 . S
C995 C994 1.366 . S
C995 C999 1.385 . S
C996 H977 0.951 . S
C996 C994 1.388 . S
C996 C997 1.366 . S
C997 C996 1.366 . S
C997 C998 1.414 . S
C997 C1000 1.499 . S
C998 H978 0.950 . S
C998 C997 1.414 . S
C998 C999 1.374 . S
C999 H979 0.950 . S
C999 C995 1.385 . S
C999 C998 1.374 . S
C1000 C997 1.499 . S
C1000 C1001 1.373 . S
C1000 C1002 1.389 . S
C1001 H980 0.950 . S
C1001 C1000 1.373 . S
C1001 C1017 1.377 . S
C1002 C1000 1.389 . S
C1002 C1003 1.524 . S
C1002 C1016 1.377 . S
C1003 C1002 1.524 . S
C1003 C1004 1.397 . S
C1003 C1008 1.363 . S
C1004 H981 0.950 . S
C1004 C1003 1.397 . S
C1004 C1005 1.334 . S
C1005 H982 0.950 . S
C1005 C1004 1.334 . S
C1005 C1006 1.287 . S
C1006 C1005 1.287 . S
C1006 C1007 1.524 . S
C1006 H1025 0.913 . S
C1007 H983 0.950 . S
C1007 C1006 1.524 . S
C1007 C1008 1.415 . S
C1008 H984 0.950 . S
C1008 C1003 1.363 . S
C1008 C1007 1.415 . S
C1009 H985 0.951 . S
C1009 C1010 1.366 . S
C1009 C1011 1.388 . S
C1010 C1009 1.366 . S
C1010 C1014 1.385 . S
C1011 H986 0.951 . S
C1011 C1009 1.388 . S
C1011 C1012 1.366 . S
C1012 C1011 1.366 . S
C1012 C1013 1.414 . S
C1012 C1015 1.499 . S
C1013 H987 0.950 . S
C1013 C1012 1.414 . S
C1013 C1014 1.374 . S
C1014 H988 0.950 . S
C1014 C1010 1.385 . S
C1014 C1013 1.374 . S
C1015 C1012 1.499 . S
C1015 C1016 1.373 . S
C1015 C1017 1.389 . S
C1016 H989 0.950 . S
C1016 C1002 1.377 . S
C1016 C1015 1.373 . S
C1017 C1001 1.377 . S
C1017 C1015 1.389 . S
C1017 C1018 1.524 . S
C1018 C1017 1.524 . S
C1018 C1019 1.397 . S
C1018 C1023 1.363 . S
C1019 H990 0.950 . S
C1019 C1018 1.397 . S
C1019 C1020 1.334 . S
C1020 H991 0.950 . S
C1020 C1019 1.334 . S
C1020 C1021 1.287 . S
C1021 C1020 1.287 . S
C1021 C1022 1.524 . S
C1021 H1024 0.999 . S
C1022 H992 0.950 . S
C1022 C1021 1.524 . S
C1022 C1023 1.415 . S
C1023 H993 0.950 . S
C1023 C1018 1.363 . S
C1023 C1022 1.415 . S
H1024 C1021 0.999 . S
H1025 C1006 0.913 . S
H1026 C1044 0.951 . S
H1027 C1046 0.951 . S
H1028 C1048 0.950 . S
H1029 C1049 0.950 . S
H1030 C1051 0.950 . S
H1031 C1054 0.950 . S
H1032 C1055 0.950 . S
H1033 C1057 0.950 . S
H1034 C1058 0.950 . S
H1035 C1059 0.951 . S
H1036 C1061 0.951 . S
H1037 C1063 0.950 . S
H1038 C1064 0.950 . S
H1039 C1066 0.950 . S
H1040 C1069 0.950 . S
H1041 C1070 0.950 . S
H1042 C1072 0.950 . S
H1043 C1073 0.950 . S
C1044 H1026 0.951 . S
C1044 C1045 1.366 . S
C1044 C1046 1.388 . S
C1045 C1044 1.366 . S
C1045 C1049 1.385 . S
C1046 H1027 0.951 . S
C1046 C1044 1.388 . S
C1046 C1047 1.366 . S
C1047 C1046 1.366 . S
C1047 C1048 1.414 . S
C1047 C1050 1.499 . S
C1048 H1028 0.950 . S
C1048 C1047 1.414 . S
C1048 C1049 1.374 . S
C1049 H1029 0.950 . S
C1049 C1045 1.385 . S
C1049 C1048 1.374 . S
C1050 C1047 1.499 . S
C1050 C1051 1.373 . S
C1050 C1052 1.389 . S
C1051 H1030 0.950 . S
C1051 C1050 1.373 . S
C1051 C1067 1.377 . S
C1052 C1050 1.389 . S
C1052 C1053 1.524 . S
C1052 C1066 1.377 . S
C1053 C1052 1.524 . S
C1053 C1054 1.397 . S
C1053 C1058 1.363 . S
C1054 H1031 0.950 . S
C1054 C1053 1.397 . S
C1054 C1055 1.334 . S
C1055 H1032 0.950 . S
C1055 C1054 1.334 . S
C1055 C1056 1.287 . S
C1056 C1055 1.287 . S
C1056 C1057 1.524 . S
C1056 H1075 0.913 . S
C1057 H1033 0.950 . S
C1057 C1056 1.524 . S
C1057 C1058 1.415 . S
C1058 H1034 0.950 . S
C1058 C1053 1.363 . S
C1058 C1057 1.415 . S
C1059 H1035 0.951 . S
C1059 C1060 1.366 . S
C1059 C1061 1.388 . S
C1060 C1059 1.366 . S
C1060 C1064 1.385 . S
C1061 H1036 0.951 . S
C1061 C1059 1.388 . S
C1061 C1062 1.366 . S
C1062 C1061 1.366 . S
C1062 C1063 1.414 . S
C1062 C1065 1.499 . S
C1063 H1037 0.950 . S
C1063 C1062 1.414 . S
C1063 C1064 1.374 . S
C1064 H1038 0.950 . S
C1064 C1060 1.385 . S
C1064 C1063 1.374 . S
C1065 C1062 1.499 . S
C1065 C1066 1.373 . S
C1065 C1067 1.389 . S
C1066 H1039 0.950 . S
C1066 C1052 1.377 . S
C1066 C1065 1.373 . S
C1067 C1051 1.377 . S
C1067 C1065 1.389 . S
C1067 C1068 1.524 . S
C1068 C1067 1.524 . S
C1068 C1069 1.397 . S
C1068 C1073 1.363 . S
C1069 H1040 0.950 . S
C1069 C1068 1.397 . S
C1069 C1070 1.334 . S
C1070 H1041 0.950 . S
C1070 C1069 1.334 . S
C1070 C1071 1.287 . S
C1071 C1070 1.287 . S
C1071 C1072 1.524 . S
C1071 H1074 0.999 . S
C1072 H1042 0.950 . S
C1072 C1071 1.524 . S
C1072 C1073 1.415 . S
C1073 H1043 0.950 . S
C1073 C1068 1.363 . S
C1073 C1072 1.415 . S
H1074 C1071 0.999 . S
H1075 C1056 0.913 . S
H1076 C1094 0.951 . S
H1077 C1096 0.951 . S
H1078 C1098 0.950 . S
H1079 C1099 0.950 . S
H1080 C1101 0.950 . S
H1081 C1104 0.950 . S
H1082 C1105 0.950 . S
H1083 C1107 0.950 . S
H1084 C1108 0.950 . S
H1085 C1109 0.951 . S
H1086 C1111 0.951 . S
H1087 C1113 0.950 . S
H1088 C1114 0.950 . S
H1089 C1116 0.950 . S
H1090 C1119 0.950 . S
H1091 C1120 0.950 . S
H1092 C1122 0.950 . S
H1093 C1123 0.950 . S
C1094 H1076 0.951 . S
C1094 C1095 1.366 . S
C1094 C1096 1.388 . S
C1095 C1094 1.366 . S
C1095 C1099 1.385 . S
C1096 H1077 0.951 . S
C1096 C1094 1.388 . S
C1096 C1097 1.366 . S
C1097 C1096 1.366 . S
C1097 C1098 1.414 . S
C1097 C1100 1.499 . S
C1098 H1078 0.950 . S
C1098 C1097 1.414 . S
C1098 C1099 1.374 . S
C1099 H1079 0.950 . S
C1099 C1095 1.385 . S
C1099 C1098 1.374 . S
C1100 C1097 1.499 . S
C1100 C1101 1.373 . S
C1100 C1102 1.389 . S
C1101 H1080 0.950 . S
C1101 C1100 1.373 . S
C1101 C1117 1.377 . S
C1102 C1100 1.389 . S
C1102 C1103 1.524 . S
C1102 C1116 1.377 . S
C1103 C1102 1.524 . S
C1103 C1104 1.397 . S
C1103 C1108 1.363 . S
C1104 H1081 0.950 . S
C1104 C1103 1.397 . S
C1104 C1105 1.334 . S
C1105 H1082 0.950 . S
C1105 C1104 1.334 . S
C1105 C1106 1.287 . S
C1106 C1105 1.287 . S
C1106 C1107 1.524 . S
C1106 H1125 0.913 . S
C1107 H1083 0.950 . S
C1107 C1106 1.524 . S
C1107 C1108 1.415 . S
C1108 H1084 0.950 . S
C1108 C1103 1.363 . S
C1108 C1107 1.415 . S
C1109 H1085 0.951 . S
C1109 C1110 1.366 . S
C1109 C1111 1.388 . S
C1110 C1109 1.366 . S
C1110 C1114 1.385 . S
C1111 H1086 0.951 . S
C1111 C1109 1.388 . S
C1111 C1112 1.366 . S
C1112 C1111 1.366 . S
C1112 C1113 1.414 . S
C1112 C1115 1.499 . S
C1113 H1087 0.950 . S
C1113 C1112 1.414 . S
C1113 C1114 1.374 . S
C1114 H1088 0.950 . S
C1114 C1110 1.385 . S
C1114 C1113 1.374 . S
C1115 C1112 1.499 . S
C1115 C1116 1.373 . S
C1115 C1117 1.389 . S
C1116 H1089 0.950 . S
C1116 C1102 1.377 . S
C1116 C1115 1.373 . S
C1117 C1101 1.377 . S
C1117 C1115 1.389 . S
C1117 C1118 1.524 . S
C1118 C1117 1.524 . S
C1118 C1119 1.397 . S
C1118 C1123 1.363 . S
C1119 H1090 0.950 . S
C1119 C1118 1.397 . S
C1119 C1120 1.334 . S
C1120 H1091 0.950 . S
C1120 C1119 1.334 . S
C1120 C1121 1.287 . S
C1121 C1120 1.287 . S
C1121 C1122 1.524 . S
C1121 H1124 0.999 . S
C1122 H1092 0.950 . S
C1122 C1121 1.524 . S
C1122 C1123 1.415 . S
C1123 H1093 0.950 . S
C1123 C1118 1.363 . S
C1123 C1122 1.415 . S
H1124 C1121 0.999 . S
H1125 C1106 0.913 . S
H1126 C1144 0.951 . S
H1127 C1146 0.951 . S
H1128 C1148 0.950 . S
H1129 C1149 0.950 . S
H1130 C1151 0.950 . S
H1131 C1154 0.950 . S
H1132 C1155 0.950 . S
H1133 C1157 0.950 . S
H1134 C1158 0.950 . S
H1135 C1159 0.951 . S
H1136 C1161 0.951 . S
H1137 C1163 0.950 . S
H1138 C1164 0.950 . S
H1139 C1166 0.950 . S
H1140 C1169 0.950 . S
H1141 C1170 0.950 . S
H1142 C1172 0.950 . S
H1143 C1173 0.950 . S
C1144 H1126 0.951 . S
C1144 C1145 1.366 . S
C1144 C1146 1.388 . S
C1145 C1144 1.366 . S
C1145 C1149 1.385 . S
C1146 H1127 0.951 . S
C1146 C1144 1.388 . S
C1146 C1147 1.366 . S
C1147 C1146 1.366 . S
C1147 C1148 1.414 . S
C1147 C1150 1.499 . S
C1148 H1128 0.950 . S
C1148 C1147 1.414 . S
C1148 C1149 1.374 . S
C1149 H1129 0.950 . S
C1149 C1145 1.385 . S
C1149 C1148 1.374 . S
C1150 C1147 1.499 . S
C1150 C1151 1.373 . S
C1150 C1152 1.389 . S
C1151 H1130 0.950 . S
C1151 C1150 1.373 . S
C1151 C1167 1.377 . S
C1152 C1150 1.389 . S
C1152 C1153 1.524 . S
C1152 C1166 1.377 . S
C1153 C1152 1.524 . S
C1153 C1154 1.397 . S
C1153 C1158 1.363 . S
C1154 H1131 0.950 . S
C1154 C1153 1.397 . S
C1154 C1155 1.334 . S
C1155 H1132 0.950 . S
C1155 C1154 1.334 . S
C1155 C1156 1.287 . S
C1156 C1155 1.287 . S
C1156 C1157 1.524 . S
C1156 H1175 0.913 . S
C1157 H1133 0.950 . S
C1157 C1156 1.524 . S
C1157 C1158 1.415 . S
C1158 H1134 0.950 . S
C1158 C1153 1.363 . S
C1158 C1157 1.415 . S
C1159 H1135 0.951 . S
C1159 C1160 1.366 . S
C1159 C1161 1.388 . S
C1160 C1159 1.366 . S
C1160 C1164 1.385 . S
C1161 H1136 0.951 . S
C1161 C1159 1.388 . S
C1161 C1162 1.366 . S
C1162 C1161 1.366 . S
C1162 C1163 1.414 . S
C1162 C1165 1.499 . S
C1163 H1137 0.950 . S
C1163 C1162 1.414 . S
C1163 C1164 1.374 . S
C1164 H1138 0.950 . S
C1164 C1160 1.385 . S
C1164 C1163 1.374 . S
C1165 C1162 1.499 . S
C1165 C1166 1.373 . S
C1165 C1167 1.389 . S
C1166 H1139 0.950 . S
C1166 C1152 1.377 . S
C1166 C1165 1.373 . S
C1167 C1151 1.377 . S
C1167 C1165 1.389 . S
C1167 C1168 1.524 . S
C1168 C1167 1.524 . S
C1168 C1169 1.397 . S
C1168 C1173 1.363 . S
C1169 H1140 0.950 . S
C1169 C1168 1.397 . S
C1169 C1170 1.334 . S
C1170 H1141 0.950 . S
C1170 C1169 1.334 . S
C1170 C1171 1.287 . S
C1171 C1170 1.287 . S
C1171 C1172 1.524 . S
C1171 H1174 0.999 . S
C1172 H1142 0.950 . S
C1172 C1171 1.524 . S
C1172 C1173 1.415 . S
C1173 H1143 0.950 . S
C1173 C1168 1.363 . S
C1173 C1172 1.415 . S
H1174 C1171 0.999 . S
H1175 C1156 0.913 . S
H1176 C1194 0.951 . S
H1177 C1196 0.951 . S
H1178 C1198 0.950 . S
H1179 C1199 0.950 . S
H1180 C1201 0.950 . S
H1181 C1204 0.950 . S
H1182 C1205 0.950 . S
H1183 C1207 0.950 . S
H1184 C1208 0.950 . S
H1185 C1209 0.951 . S
H1186 C1211 0.951 . S
H1187 C1213 0.950 . S
H1188 C1214 0.950 . S
H1189 C1216 0.950 . S
H1190 C1219 0.950 . S
H1191 C1220 0.950 . S
H1192 C1222 0.950 . S
H1193 C1223 0.950 . S
C1194 H1176 0.951 . S
C1194 C1195 1.366 . S
C1194 C1196 1.388 . S
C1195 C1194 1.366 . S
C1195 C1199 1.385 . S
C1196 H1177 0.951 . S
C1196 C1194 1.388 . S
C1196 C1197 1.366 . S
C1197 C1196 1.366 . S
C1197 C1198 1.414 . S
C1197 C1200 1.499 . S
C1198 H1178 0.950 . S
C1198 C1197 1.414 . S
C1198 C1199 1.374 . S
C1199 H1179 0.950 . S
C1199 C1195 1.385 . S
C1199 C1198 1.374 . S
C1200 C1197 1.499 . S
C1200 C1201 1.373 . S
C1200 C1202 1.389 . S
C1201 H1180 0.950 . S
C1201 C1200 1.373 . S
C1201 C1217 1.377 . S
C1202 C1200 1.389 . S
C1202 C1203 1.524 . S
C1202 C1216 1.377 . S
C1203 C1202 1.524 . S
C1203 C1204 1.397 . S
C1203 C1208 1.363 . S
C1204 H1181 0.950 . S
C1204 C1203 1.397 . S
C1204 C1205 1.334 . S
C1205 H1182 0.950 . S
C1205 C1204 1.334 . S
C1205 C1206 1.287 . S
C1206 C1205 1.287 . S
C1206 C1207 1.524 . S
C1206 H1225 0.913 . S
C1207 H1183 0.950 . S
C1207 C1206 1.524 . S
C1207 C1208 1.415 . S
C1208 H1184 0.950 . S
C1208 C1203 1.363 . S
C1208 C1207 1.415 . S
C1209 H1185 0.951 . S
C1209 C1210 1.366 . S
C1209 C1211 1.388 . S
C1210 C1209 1.366 . S
C1210 C1214 1.385 . S
C1211 H1186 0.951 . S
C1211 C1209 1.388 . S
C1211 C1212 1.366 . S
C1212 C1211 1.366 . S
C1212 C1213 1.414 . S
C1212 C1215 1.499 . S
C1213 H1187 0.950 . S
C1213 C1212 1.414 . S
C1213 C1214 1.374 . S
C1214 H1188 0.950 . S
C1214 C1210 1.385 . S
C1214 C1213 1.374 . S
C1215 C1212 1.499 . S
C1215 C1216 1.373 . S
C1215 C1217 1.389 . S
C1216 H1189 0.950 . S
C1216 C1202 1.377 . S
C1216 C1215 1.373 . S
C1217 C1201 1.377 . S
C1217 C1215 1.389 . S
C1217 C1218 1.524 . S
C1218 C1217 1.524 . S
C1218 C1219 1.397 . S
C1218 C1223 1.363 . S
C1219 H1190 0.950 . S
C1219 C1218 1.397 . S
C1219 C1220 1.334 . S
C1220 H1191 0.950 . S
C1220 C1219 1.334 . S
C1220 C1221 1.287 . S
C1221 C1220 1.287 . S
C1221 C1222 1.524 . S
C1221 H1224 0.999 . S
C1222 H1192 0.950 . S
C1222 C1221 1.524 . S
C1222 C1223 1.415 . S
C1223 H1193 0.950 . S
C1223 C1218 1.363 . S
C1223 C1222 1.415 . S
H1224 C1221 0.999 . S
H1225 C1206 0.913 . S
H1226 C1244 0.951 . S
H1227 C1246 0.951 . S
H1228 C1248 0.950 . S
H1229 C1249 0.950 . S
H1230 C1251 0.950 . S
H1231 C1254 0.950 . S
H1232 C1255 0.950 . S
H1233 C1257 0.950 . S
H1234 C1258 0.950 . S
H1235 C1259 0.951 . S
H1236 C1261 0.951 . S
H1237 C1263 0.950 . S
H1238 C1264 0.950 . S
H1239 C1266 0.950 . S
H1240 C1269 0.950 . S
H1241 C1270 0.950 . S
H1242 C1272 0.950 . S
H1243 C1273 0.950 . S
C1244 H1226 0.951 . S
C1244 C1245 1.366 . S
C1244 C1246 1.388 . S
C1245 C1244 1.366 . S
C1245 C1249 1.385 . S
C1246 H1227 0.951 . S
C1246 C1244 1.388 . S
C1246 C1247 1.366 . S
C1247 C1246 1.366 . S
C1247 C1248 1.414 . S
C1247 C1250 1.499 . S
C1248 H1228 0.950 . S
C1248 C1247 1.414 . S
C1248 C1249 1.374 . S
C1249 H1229 0.950 . S
C1249 C1245 1.385 . S
C1249 C1248 1.374 . S
C1250 C1247 1.499 . S
C1250 C1251 1.373 . S
C1250 C1252 1.389 . S
C1251 H1230 0.950 . S
C1251 C1250 1.373 . S
C1251 C1267 1.377 . S
C1252 C1250 1.389 . S
C1252 C1253 1.524 . S
C1252 C1266 1.377 . S
C1253 C1252 1.524 . S
C1253 C1254 1.397 . S
C1253 C1258 1.363 . S
C1254 H1231 0.950 . S
C1254 C1253 1.397 . S
C1254 C1255 1.334 . S
C1255 H1232 0.950 . S
C1255 C1254 1.334 . S
C1255 C1256 1.287 . S
C1256 C1255 1.287 . S
C1256 C1257 1.524 . S
C1256 H1275 0.913 . S
C1257 H1233 0.950 . S
C1257 C1256 1.524 . S
C1257 C1258 1.415 . S
C1258 H1234 0.950 . S
C1258 C1253 1.363 . S
C1258 C1257 1.415 . S
C1259 H1235 0.951 . S
C1259 C1260 1.366 . S
C1259 C1261 1.388 . S
C1260 C1259 1.366 . S
C1260 C1264 1.385 . S
C1261 H1236 0.951 . S
C1261 C1259 1.388 . S
C1261 C1262 1.366 . S
C1262 C1261 1.366 . S
C1262 C1263 1.414 . S
C1262 C1265 1.499 . S
C1263 H1237 0.950 . S
C1263 C1262 1.414 . S
C1263 C1264 1.374 . S
C1264 H1238 0.950 . S
C1264 C1260 1.385 . S
C1264 C1263 1.374 . S
C1265 C1262 1.499 . S
C1265 C1266 1.373 . S
C1265 C1267 1.389 . S
C1266 H1239 0.950 . S
C1266 C1252 1.377 . S
C1266 C1265 1.373 . S
C1267 C1251 1.377 . S
C1267 C1265 1.389 . S
C1267 C1268 1.524 . S
C1268 C1267 1.524 . S
C1268 C1269 1.397 . S
C1268 C1273 1.363 . S
C1269 H1240 0.950 . S
C1269 C1268 1.397 . S
C1269 C1270 1.334 . S
C1270 H1241 0.950 . S
C1270 C1269 1.334 . S
C1270 C1271 1.287 . S
C1271 C1270 1.287 . S
C1271 C1272 1.524 . S
C1271 H1274 0.999 . S
C1272 H1242 0.950 . S
C1272 C1271 1.524 . S
C1272 C1273 1.415 . S
C1273 H1243 0.950 . S
C1273 C1268 1.363 . S
C1273 C1272 1.415 . S
H1274 C1271 0.999 . S
H1275 C1256 0.913 . S
H1276 C1294 0.951 . S
H1277 C1296 0.951 . S
H1278 C1298 0.950 . S
H1279 C1299 0.950 . S
H1280 C1301 0.950 . S
H1281 C1304 0.950 . S
H1282 C1305 0.950 . S
H1283 C1307 0.950 . S
H1284 C1308 0.950 . S
H1285 C1309 0.951 . S
H1286 C1311 0.951 . S
H1287 C1313 0.950 . S
H1288 C1314 0.950 . S
H1289 C1316 0.950 . S
H1290 C1319 0.950 . S
H1291 C1320 0.950 . S
H1292 C1322 0.950 . S
H1293 C1323 0.950 . S
C1294 H1276 0.951 . S
C1294 C1295 1.366 . S
C1294 C1296 1.388 . S
C1295 C1294 1.366 . S
C1295 C1299 1.385 . S
C1296 H1277 0.951 . S
C1296 C1294 1.388 . S
C1296 C1297 1.366 . S
C1297 C1296 1.366 . S
C1297 C1298 1.414 . S
C1297 C1300 1.499 . S
C1298 H1278 0.950 . S
C1298 C1297 1.414 . S
C1298 C1299 1.374 . S
C1299 H1279 0.950 . S
C1299 C1295 1.385 . S
C1299 C1298 1.374 . S
C1300 C1297 1.499 . S
C1300 C1301 1.373 . S
C1300 C1302 1.389 . S
C1301 H1280 0.950 . S
C1301 C1300 1.373 . S
C1301 C1317 1.377 . S
C1302 C1300 1.389 . S
C1302 C1303 1.524 . S
C1302 C1316 1.377 . S
C1303 C1302 1.524 . S
C1303 C1304 1.397 . S
C1303 C1308 1.363 . S
C1304 H1281 0.950 . S
C1304 C1303 1.397 . S
C1304 C1305 1.334 . S
C1305 H1282 0.950 . S
C1305 C1304 1.334 . S
C1305 C1306 1.287 . S
C1306 C1305 1.287 . S
C1306 C1307 1.524 . S
C1306 H1325 0.913 . S
C1307 H1283 0.950 . S
C1307 C1306 1.524 . S
C1307 C1308 1.415 . S
C1308 H1284 0.950 . S
C1308 C1303 1.363 . S
C1308 C1307 1.415 . S
C1309 H1285 0.951 . S
C1309 C1310 1.366 . S
C1309 C1311 1.388 . S
C1310 C1309 1.366 . S
C1310 C1314 1.385 . S
C1311 H1286 0.951 . S
C1311 C1309 1.388 . S
C1311 C1312 1.366 . S
C1312 C1311 1.366 . S
C1312 C1313 1.414 . S
C1312 C1315 1.499 . S
C1313 H1287 0.950 . S
C1313 C1312 1.414 . S
C1313 C1314 1.374 . S
C1314 H1288 0.950 . S
C1314 C1310 1.385 . S
C1314 C1313 1.374 . S
C1315 C1312 1.499 . S
C1315 C1316 1.373 . S
C1315 C1317 1.389 . S
C1316 H1289 0.950 . S
C1316 C1302 1.377 . S
C1316 C1315 1.373 . S
C1317 C1301 1.377 . S
C1317 C1315 1.389 . S
C1317 C1318 1.524 . S
C1318 C1317 1.524 . S
C1318 C1319 1.397 . S
C1318 C1323 1.363 . S
C1319 H1290 0.950 . S
C1319 C1318 1.397 . S
C1319 C1320 1.334 . S
C1320 H1291 0.950 . S
C1320 C1319 1.334 . S
C1320 C1321 1.287 . S
C1321 C1320 1.287 . S
C1321 C1322 1.524 . S
C1321 H1324 0.999 . S
C1322 H1292 0.950 . S
C1322 C1321 1.524 . S
C1322 C1323 1.415 . S
C1323 H1293 0.950 . S
C1323 C1318 1.363 . S
C1323 C1322 1.415 . S
H1324 C1321 0.999 . S
H1325 C1306 0.913 . S
H1326 C1344 0.951 . S
H1327 C1346 0.951 . S
H1328 C1348 0.950 . S
H1329 C1349 0.950 . S
H1330 C1351 0.950 . S
H1331 C1354 0.950 . S
H1332 C1355 0.950 . S
H1333 C1357 0.950 . S
H1334 C1358 0.950 . S
H1335 C1359 0.951 . S
H1336 C1361 0.951 . S
H1337 C1363 0.950 . S
H1338 C1364 0.950 . S
H1339 C1366 0.950 . S
H1340 C1369 0.950 . S
H1341 C1370 0.950 . S
H1342 C1372 0.950 . S
H1343 C1373 0.950 . S
C1344 H1326 0.951 . S
C1344 C1345 1.366 . S
C1344 C1346 1.388 . S
C1345 C1344 1.366 . S
C1345 C1349 1.385 . S
C1346 H1327 0.951 . S
C1346 C1344 1.388 . S
C1346 C1347 1.366 . S
C1347 C1346 1.366 . S
C1347 C1348 1.414 . S
C1347 C1350 1.499 . S
C1348 H1328 0.950 . S
C1348 C1347 1.414 . S
C1348 C1349 1.374 . S
C1349 H1329 0.950 . S
C1349 C1345 1.385 . S
C1349 C1348 1.374 . S
C1350 C1347 1.499 . S
C1350 C1351 1.373 . S
C1350 C1352 1.389 . S
C1351 H1330 0.950 . S
C1351 C1350 1.373 . S
C1351 C1367 1.377 . S
C1352 C1350 1.389 . S
C1352 C1353 1.524 . S
C1352 C1366 1.377 . S
C1353 C1352 1.524 . S
C1353 C1354 1.397 . S
C1353 C1358 1.363 . S
C1354 H1331 0.950 . S
C1354 C1353 1.397 . S
C1354 C1355 1.334 . S
C1355 H1332 0.950 . S
C1355 C1354 1.334 . S
C1355 C1356 1.287 . S
C1356 C1355 1.287 . S
C1356 C1357 1.524 . S
C1356 H1375 0.913 . S
C1357 H1333 0.950 . S
C1357 C1356 1.524 . S
C1357 C1358 1.415 . S
C1358 H1334 0.950 . S
C1358 C1353 1.363 . S
C1358 C1357 1.415 . S
C1359 H1335 0.951 . S
C1359 C1360 1.366 . S
C1359 C1361 1.388 . S
C1360 C1359 1.366 . S
C1360 C1364 1.385 . S
C1361 H1336 0.951 . S
C1361 C1359 1.388 . S
C1361 C1362 1.366 . S
C1362 C1361 1.366 . S
C1362 C1363 1.414 . S
C1362 C1365 1.499 . S
C1363 H1337 0.950 . S
C1363 C1362 1.414 . S
C1363 C1364 1.374 . S
C1364 H1338 0.950 . S
C1364 C1360 1.385 . S
C1364 C1363 1.374 . S
C1365 C1362 1.499 . S
C1365 C1366 1.373 . S
C1365 C1367 1.389 . S
C1366 H1339 0.950 . S
C1366 C1352 1.377 . S
C1366 C1365 1.373 . S
C1367 C1351 1.377 . S
C1367 C1365 1.389 . S
C1367 C1368 1.524 . S
C1368 C1367 1.524 . S
C1368 C1369 1.397 . S
C1368 C1373 1.363 . S
C1369 H1340 0.950 . S
C1369 C1368 1.397 . S
C1369 C1370 1.334 . S
C1370 H1341 0.950 . S
C1370 C1369 1.334 . S
C1370 C1371 1.287 . S
C1371 C1370 1.287 . S
C1371 C1372 1.524 . S
C1371 H1374 0.999 . S
C1372 H1342 0.950 . S
C1372 C1371 1.524 . S
C1372 C1373 1.415 . S
C1373 H1343 0.950 . S
C1373 C1368 1.363 . S
C1373 C1372 1.415 . S
H1374 C1371 0.999 . S
H1375 C1356 0.913 . S
H1376 C1394 0.951 . S
H1377 C1396 0.951 . S
H1378 C1398 0.950 . S
H1379 C1399 0.950 . S
H1380 C1401 0.950 . S
H1381 C1404 0.950 . S
H1382 C1405 0.950 . S
H1383 C1407 0.950 . S
H1384 C1408 0.950 . S
H1385 C1409 0.951 . S
H1386 C1411 0.951 . S
H1387 C1413 0.950 . S
H1388 C1414 0.950 . S
H1389 C1416 0.950 . S
H1390 C1419 0.950 . S
H1391 C1420 0.950 . S
H1392 C1422 0.950 . S
H1393 C1423 0.950 . S
C1394 H1376 0.951 . S
C1394 C1395 1.366 . S
C1394 C1396 1.388 . S
C1395 C1394 1.366 . S
C1395 C1399 1.385 . S
C1396 H1377 0.951 . S
C1396 C1394 1.388 . S
C1396 C1397 1.366 . S
C1397 C1396 1.366 . S
C1397 C1398 1.414 . S
C1397 C1400 1.499 . S
C1398 H1378 0.950 . S
C1398 C1397 1.414 . S
C1398 C1399 1.374 . S
C1399 H1379 0.950 . S
C1399 C1395 1.385 . S
C1399 C1398 1.374 . S
C1400 C1397 1.499 . S
C1400 C1401 1.373 . S
C1400 C1402 1.389 . S
C1401 H1380 0.950 . S
C1401 C1400 1.373 . S
C1401 C1417 1.377 . S
C1402 C1400 1.389 . S
C1402 C1403 1.524 . S
C1402 C1416 1.377 . S
C1403 C1402 1.524 . S
C1403 C1404 1.397 . S
C1403 C1408 1.363 . S
C1404 H1381 0.950 . S
C1404 C1403 1.397 . S
C1404 C1405 1.334 . S
C1405 H1382 0.950 . S
C1405 C1404 1.334 . S
C1405 C1406 1.287 . S
C1406 C1405 1.287 . S
C1406 C1407 1.524 . S
C1406 H1425 0.913 . S
C1407 H1383 0.950 . S
C1407 C1406 1.524 . S
C1407 C1408 1.415 . S
C1408 H1384 0.950 . S
C1408 C1403 1.363 . S
C1408 C1407 1.415 . S
C1409 H1385 0.951 . S
C1409 C1410 1.366 . S
C1409 C1411 1.388 . S
C1410 C1409 1.366 . S
C1410 C1414 1.385 . S
C1411 H1386 0.951 . S
C1411 C1409 1.388 . S
C1411 C1412 1.366 . S
C1412 C1411 1.366 . S
C1412 C1413 1.414 . S
C1412 C1415 1.499 . S
C1413 H1387 0.950 . S
C1413 C1412 1.414 . S
C1413 C1414 1.374 . S
C1414 H1388 0.950 . S
C1414 C1410 1.385 . S
C1414 C1413 1.374 . S
C1415 C1412 1.499 . S
C1415 C1416 1.373 . S
C1415 C1417 1.389 . S
C1416 H1389 0.950 . S
C1416 C1402 1.377 . S
C1416 C1415 1.373 . S
C1417 C1401 1.377 . S
C1417 C1415 1.389 . S
C1417 C1418 1.524 . S
C1418 C1417 1.524 . S
C1418 C1419 1.397 . S
C1418 C1423 1.363 . S
C1419 H1390 0.950 . S
C1419 C1418 1.397 . S
C1419 C1420 1.334 . S
C1420 H1391 0.950 . S
C1420 C1419 1.334 . S
C1420 C1421 1.287 . S
C1421 C1420 1.287 . S
C1421 C1422 1.524 . S
C1421 H1424 0.999 . S
C1422 H1392 0.950 . S
C1422 C1421 1.524 . S
C1422 C1423 1.415 . S
C1423 H1393 0.950 . S
C1423 C1418 1.363 . S
C1423 C1422 1.415 . S
H1424 C1421 0.999 . S
H1425 C1406 0.913 . S
H1426 C1444 0.951 . S
H1427 C1446 0.951 . S
H1428 C1448 0.950 . S
H1429 C1449 0.950 . S
H1430 C1451 0.950 . S
H1431 C1454 0.950 . S
H1432 C1455 0.950 . S
H1433 C1457 0.950 . S
H1434 C1458 0.950 . S
H1435 C1459 0.951 . S
H1436 C1461 0.951 . S
H1437 C1463 0.950 . S
H1438 C1464 0.950 . S
H1439 C1466 0.950 . S
H1440 C1469 0.950 . S
H1441 C1470 0.950 . S
H1442 C1472 0.950 . S
H1443 C1473 0.950 . S
C1444 H1426 0.951 . S
C1444 C1445 1.366 . S
C1444 C1446 1.388 . S
C1445 C1444 1.366 . S
C1445 C1449 1.385 . S
C1446 H1427 0.951 . S
C1446 C1444 1.388 . S
C1446 C1447 1.366 . S
C1447 C1446 1.366 . S
C1447 C1448 1.414 . S
C1447 C1450 1.499 . S
C1448 H1428 0.950 . S
C1448 C1447 1.414 . S
C1448 C1449 1.374 . S
C1449 H1429 0.950 . S
C1449 C1445 1.385 . S
C1449 C1448 1.374 . S
C1450 C1447 1.499 . S
C1450 C1451 1.373 . S
C1450 C1452 1.389 . S
C1451 H1430 0.950 . S
C1451 C1450 1.373 . S
C1451 C1467 1.377 . S
C1452 C1450 1.389 . S
C1452 C1453 1.524 . S
C1452 C1466 1.377 . S
C1453 C1452 1.524 . S
C1453 C1454 1.397 . S
C1453 C1458 1.363 . S
C1454 H1431 0.950 . S
C1454 C1453 1.397 . S
C1454 C1455 1.334 . S
C1455 H1432 0.950 . S
C1455 C1454 1.334 . S
C1455 C1456 1.287 . S
C1456 C1455 1.287 . S
C1456 C1457 1.524 . S
C1456 H1475 0.913 . S
C1457 H1433 0.950 . S
C1457 C1456 1.524 . S
C1457 C1458 1.415 . S
C1458 H1434 0.950 . S
C1458 C1453 1.363 . S
C1458 C1457 1.415 . S
C1459 H1435 0.951 . S
C1459 C1460 1.366 . S
C1459 C1461 1.388 . S
C1460 C1459 1.366 . S
C1460 C1464 1.385 . S
C1461 H1436 0.951 . S
C1461 C1459 1.388 . S
C1461 C1462 1.366 . S
C1462 C1461 1.366 . S
C1462 C1463 1.414 . S
C1462 C1465 1.499 . S
C1463 H1437 0.950 . S
C1463 C1462 1.414 . S
C1463 C1464 1.374 . S
C1464 H1438 0.950 . S
C1464 C1460 1.385 . S
C1464 C1463 1.374 . S
C1465 C1462 1.499 . S
C1465 C1466 1.373 . S
C1465 C1467 1.389 . S
C1466 H1439 0.950 . S
C1466 C1452 1.377 . S
C1466 C1465 1.373 . S
C1467 C1451 1.377 . S
C1467 C1465 1.389 . S
C1467 C1468 1.524 . S
C1468 C1467 1.524 . S
C1468 C1469 1.397 . S
C1468 C1473 1.363 . S
C1469 H1440 0.950 . S
C1469 C1468 1.397 . S
C1469 C1470 1.334 . S
C1470 H1441 0.950 . S
C1470 C1469 1.334 . S
C1470 C1471 1.287 . S
C1471 C1470 1.287 . S
C1471 C1472 1.524 . S
C1471 H1474 0.999 . S
C1472 H1442 0.950 . S
C1472 C1471 1.524 . S
C1472 C1473 1.415 . S
C1473 H1443 0.950 . S
C1473 C1468 1.363 . S
C1473 C1472 1.415 . S
H1474 C1471 0.999 . S
H1475 C1456 0.913 . S
H1476 C1494 0.951 . S
H1477 C1496 0.951 . S
H1478 C1498 0.950 . S
H1479 C1499 0.950 . S
H1480 C1501 0.950 . S
H1481 C1504 0.950 . S
H1482 C1505 0.950 . S
H1483 C1507 0.950 . S
H1484 C1508 0.950 . S
H1485 C1509 0.951 . S
H1486 C1511 0.951 1_565 S
H1487 C1513 0.947 1_565 S
H1488 C1514 0.950 . S
H1489 C1516 0.950 . S
H1490 C1519 0.950 . S
H1491 C1520 0.950 . S
H1492 C1522 0.950 . S
H1493 C1523 0.950 . S
C1494 H1476 0.951 . S
C1494 C1495 1.366 . S
C1494 C1496 1.388 . S
C1495 C1494 1.366 . S
C1495 C1499 1.385 . S
C1496 H1477 0.951 . S
C1496 C1494 1.388 . S
C1496 C1497 1.366 . S
C1497 C1496 1.366 . S
C1497 C1498 1.414 . S
C1497 C1500 1.499 . S
C1498 H1478 0.950 . S
C1498 C1497 1.414 . S
C1498 C1499 1.374 . S
C1499 H1479 0.950 . S
C1499 C1495 1.385 . S
C1499 C1498 1.374 . S
C1500 C1497 1.499 . S
C1500 C1501 1.373 . S
C1500 C1502 1.389 . S
C1501 H1480 0.950 . S
C1501 C1500 1.373 . S
C1501 C1517 1.377 . S
C1502 C1500 1.389 . S
C1502 C1503 1.524 . S
C1502 C1516 1.377 . S
C1503 C1502 1.524 . S
C1503 C1504 1.397 . S
C1503 C1508 1.363 . S
C1504 H1481 0.950 . S
C1504 C1503 1.397 . S
C1504 C1505 1.334 . S
C1505 H1482 0.950 . S
C1505 C1504 1.334 . S
C1505 C1506 1.287 . S
C1506 C1505 1.287 . S
C1506 C1507 1.524 . S
C1506 H1525 0.913 . S
C1507 H1483 0.950 . S
C1507 C1506 1.524 . S
C1507 C1508 1.415 . S
C1508 H1484 0.950 . S
C1508 C1503 1.363 . S
C1508 C1507 1.415 . S
C1509 H1485 0.951 . S
C1509 C1510 1.366 . S
C1509 C1511 1.388 . S
C1510 C1509 1.366 . S
C1510 C1514 1.385 . S
C1511 H1486 0.951 1_545 S
C1511 C1509 1.388 . S
C1511 C1512 1.366 1_545 S
C1512 C1511 1.366 1_565 S
C1512 C1513 1.403 1_565 S
C1512 C1515 1.499 . S
C1513 H1487 0.947 1_545 S
C1513 C1512 1.403 1_545 S
C1513 C1514 1.388 . S
C1514 H1488 0.950 . S
C1514 C1510 1.385 . S
C1514 C1513 1.388 . S
C1515 C1512 1.499 . S
C1515 C1516 1.373 . S
C1515 C1517 1.389 . S
C1516 H1489 0.950 . S
C1516 C1502 1.377 . S
C1516 C1515 1.373 . S
C1517 C1501 1.377 . S
C1517 C1515 1.389 . S
C1517 C1518 1.524 . S
C1518 C1517 1.524 . S
C1518 C1519 1.397 . S
C1518 C1523 1.363 . S
C1519 H1490 0.950 . S
C1519 C1518 1.397 . S
C1519 C1520 1.334 . S
C1520 H1491 0.950 . S
C1520 C1519 1.334 . S
C1520 C1521 1.287 . S
C1521 C1520 1.287 . S
C1521 C1522 1.524 . S
C1521 H1524 0.999 . S
C1522 H1492 0.950 . S
C1522 C1521 1.524 . S
C1522 C1523 1.415 . S
C1523 H1493 0.950 . S
C1523 C1518 1.363 . S
C1523 C1522 1.415 . S
H1524 C1521 0.999 . S
H1525 C1506 0.913 . S
H1526 C1544 0.951 . S
H1527 C1546 0.951 . S
H1528 C1548 0.950 . S
H1529 C1549 0.950 . S
H1530 C1551 0.950 . S
H1531 C1554 0.950 . S
H1532 C1555 0.950 . S
H1533 C1557 0.950 . S
H1534 C1558 0.950 . S
H1535 C1559 0.951 . S
H1536 C1561 0.951 . S
H1537 C1563 0.950 . S
H1538 C1564 0.950 . S
H1539 C1566 0.950 . S
H1540 C1569 0.950 . S
H1541 C1570 0.950 . S
H1542 C1572 0.950 . S
H1543 C1573 0.950 . S
C1544 H1526 0.951 . S
C1544 C1545 1.366 . S
C1544 C1546 1.388 . S
C1545 C1544 1.366 . S
C1545 C1549 1.385 . S
C1546 H1527 0.951 . S
C1546 C1544 1.388 . S
C1546 C1547 1.366 . S
C1547 C1546 1.366 . S
C1547 C1548 1.414 . S
C1547 C1550 1.499 . S
C1548 H1528 0.950 . S
C1548 C1547 1.414 . S
C1548 C1549 1.374 . S
C1549 H1529 0.950 . S
C1549 C1545 1.385 . S
C1549 C1548 1.374 . S
C1550 C1547 1.499 . S
C1550 C1551 1.373 . S
C1550 C1552 1.389 . S
C1551 H1530 0.950 . S
C1551 C1550 1.373 . S
C1551 C1567 1.377 . S
C1552 C1550 1.389 . S
C1552 C1553 1.524 . S
C1552 C1566 1.377 . S
C1553 C1552 1.524 . S
C1553 C1554 1.397 . S
C1553 C1558 1.363 . S
C1554 H1531 0.950 . S
C1554 C1553 1.397 . S
C1554 C1555 1.334 . S
C1555 H1532 0.950 . S
C1555 C1554 1.334 . S
C1555 C1556 1.287 . S
C1556 C1555 1.287 . S
C1556 C1557 1.524 . S
C1556 H1575 0.913 . S
C1557 H1533 0.950 . S
C1557 C1556 1.524 . S
C1557 C1558 1.415 . S
C1558 H1534 0.950 . S
C1558 C1553 1.363 . S
C1558 C1557 1.415 . S
C1559 H1535 0.951 . S
C1559 C1560 1.366 . S
C1559 C1561 1.388 . S
C1560 C1559 1.366 . S
C1560 C1564 1.385 . S
C1561 H1536 0.951 . S
C1561 C1559 1.388 . S
C1561 C1562 1.366 . S
C1562 C1561 1.366 . S
C1562 C1563 1.414 . S
C1562 C1565 1.499 . S
C1563 H1537 0.950 . S
C1563 C1562 1.414 . S
C1563 C1564 1.374 . S
C1564 H1538 0.950 . S
C1564 C1560 1.385 . S
C1564 C1563 1.374 . S
C1565 C1562 1.499 . S
C1565 C1566 1.373 . S
C1565 C1567 1.389 . S
C1566 H1539 0.950 . S
C1566 C1552 1.377 . S
C1566 C1565 1.373 . S
C1567 C1551 1.377 . S
C1567 C1565 1.389 . S
C1567 C1568 1.524 . S
C1568 C1567 1.524 . S
C1568 C1569 1.397 . S
C1568 C1573 1.363 . S
C1569 H1540 0.950 . S
C1569 C1568 1.397 . S
C1569 C1570 1.334 . S
C1570 H1541 0.950 . S
C1570 C1569 1.334 . S
C1570 C1571 1.287 . S
C1571 C1570 1.287 . S
C1571 C1572 1.524 . S
C1571 H1574 0.999 . S
C1572 H1542 0.950 . S
C1572 C1571 1.524 . S
C1572 C1573 1.415 . S
C1573 H1543 0.950 . S
C1573 C1568 1.363 . S
C1573 C1572 1.415 . S
H1574 C1571 0.999 . S
H1575 C1556 0.913 . S
C410 C118 1.534 . S
C395 C5 1.367 . S
C460 C157 1.548 . S
C445 C16 1.310 . S
C510 C133 1.738 . S
C495 C30 1.742 . S
C560 C172 1.679 . S
C545 C40 1.628 . S
C610 C220 1.433 . S
C595 C8 1.427 . S
C660 C253 1.478 . S
C645 C18 1.414 . S
C695 C29 1.775 . S
C710 C310 1.806 . S
C760 C358 1.570 . S
C745 C38 1.328 . S
C810 C205 1.381 . S
C795 C19 1.375 . S
C845 C27 1.489 . S
C860 C268 1.648 . S
C910 C325 1.612 . S
C895 C41 1.605 . S
C960 C373 1.538 . S
C945 C7 1.492 . S
C995 C52 1.617 . S
C1010 C166 1.628 . S
C1060 C109 1.605 . S
C1045 C62 1.569 . S
C1095 C74 1.396 . S
C1110 C181 1.411 . S
C1145 C82 1.210 . S
C1160 C124 1.401 . S
C1210 C301 1.870 . S
C1195 C51 1.781 . S
C1260 C364 1.623 . S
C1245 C60 1.389 . S
C1310 C229 1.457 . S
C1295 C71 1.246 . S
C1345 C84 1.456 . S
C1360 C277 1.517 . S
C1410 C316 1.760 . S
C1395 C63 1.755 . S
C1460 C349 1.479 . S
C1445 C73 1.432 . S
C1510 C214 1.546 . S
C1495 C85 1.539 . S
C1545 C49 1.393 . S
C1560 C262 1.669 . S
