# Generated by pormake.
# Topology cml, (3,6)-cn, num edge types: 1
# Building blocks:
#     Node 0, Type 0, BuildingBlock: BETDIP_clean_linker_0, # of connection points: 3
#     Node 1, Type 0, BuildingBlock: BETDIP_clean_linker_0, # of connection points: 3
#     Node 2, Type 0, BuildingBlock: BETDIP_clean_linker_0, # of connection points: 3
#     Node 3, Type 0, BuildingBlock: BETDIP_clean_linker_0, # of connection points: 3
#     Node 4, Type 0, BuildingBlock: BETDIP_clean_linker_0, # of connection points: 3
#     Node 5, Type 0, BuildingBlock: BETDIP_clean_linker_0, # of connection points: 3
#     Node 6, Type 0, BuildingBlock: BETDIP_clean_linker_0, # of connection points: 3
#     Node 7, Type 0, BuildingBlock: BETDIP_clean_linker_0, # of connection points: 3
#     Node 8, Type 1, BuildingBlock: OJICUG_clean_sbu_0, # of connection points: 6
#     Node 9, Type 1, BuildingBlock: OJICUG_clean_sbu_0, # of connection points: 6
#     Node 10, Type 1, BuildingBlock: OJICUG_clean_sbu_0, # of connection points: 6
#     Node 11, Type 1, BuildingBlock: OJICUG_clean_sbu_0, # of connection points: 6
#     Edge 12, Type (0, 1), BuildingBlock: EZIPEK_clean_linker_0, # of connection points: 2
#     Edge 13, Type (0, 1), BuildingBlock: EZIPEK_clean_linker_0, # of connection points: 2
#     Edge 14, Type (0, 1), BuildingBlock: EZIPEK_clean_linker_0, # of connection points: 2
#     Edge 15, Type (0, 1), BuildingBlock: EZIPEK_clean_linker_0, # of connection points: 2
#     Edge 16, Type (0, 1), BuildingBlock: EZIPEK_clean_linker_0, # of connection points: 2
#     Edge 17, Type (0, 1), BuildingBlock: EZIPEK_clean_linker_0, # of connection points: 2
#     Edge 18, Type (0, 1), BuildingBlock: EZIPEK_clean_linker_0, # of connection points: 2
#     Edge 19, Type (0, 1), BuildingBlock: EZIPEK_clean_linker_0, # of connection points: 2
#     Edge 20, Type (0, 1), BuildingBlock: EZIPEK_clean_linker_0, # of connection points: 2
#     Edge 21, Type (0, 1), BuildingBlock: EZIPEK_clean_linker_0, # of connection points: 2
#     Edge 22, Type (0, 1), BuildingBlock: EZIPEK_clean_linker_0, # of connection points: 2
#     Edge 23, Type (0, 1), BuildingBlock: EZIPEK_clean_linker_0, # of connection points: 2
#     Edge 24, Type (0, 1), BuildingBlock: EZIPEK_clean_linker_0, # of connection points: 2
#     Edge 25, Type (0, 1), BuildingBlock: EZIPEK_clean_linker_0, # of connection points: 2
#     Edge 26, Type (0, 1), BuildingBlock: EZIPEK_clean_linker_0, # of connection points: 2
#     Edge 27, Type (0, 1), BuildingBlock: EZIPEK_clean_linker_0, # of connection points: 2
#     Edge 28, Type (0, 1), BuildingBlock: EZIPEK_clean_linker_0, # of connection points: 2
#     Edge 29, Type (0, 1), BuildingBlock: EZIPEK_clean_linker_0, # of connection points: 2
#     Edge 30, Type (0, 1), BuildingBlock: EZIPEK_clean_linker_0, # of connection points: 2
#     Edge 31, Type (0, 1), BuildingBlock: EZIPEK_clean_linker_0, # of connection points: 2
#     Edge 32, Type (0, 1), BuildingBlock: EZIPEK_clean_linker_0, # of connection points: 2
#     Edge 33, Type (0, 1), BuildingBlock: EZIPEK_clean_linker_0, # of connection points: 2
#     Edge 34, Type (0, 1), BuildingBlock: EZIPEK_clean_linker_0, # of connection points: 2
#     Edge 35, Type (0, 1), BuildingBlock: EZIPEK_clean_linker_0, # of connection points: 2
# Relax obj value: 0.006
# Max RMSD: 0.046
# Mean RMSD: 0.042
data_MOF--net-cml--node1-OJICUG_clean_sbu_0--node2-BETDIP_clean_linker_0--edge1-EZIPEK_clean_linker_0
_symmetry_space_group_name_H-M    P1
_symmetry_Int_Tables_number       1
_symmetry_cell_setting            triclinic
loop_
_symmetry_equiv_pos_as_xyz
'x, y, z'
_cell_length_a     30.08362
_cell_length_b     28.842509
_cell_length_c     26.161327
_cell_angle_alpha  89.931571
_cell_angle_beta   90.220539
_cell_angle_gamma 89.746324
loop_
_atom_site_label
_atom_site_type_symbol
_atom_site_fract_x
_atom_site_fract_y
_atom_site_fract_z
_atom_type_partial_charge
H0 H 0.26159 0.35257 0.06884 0.0
H1 H 0.27119 0.43995 0.93742 0.0
H2 H 0.36018 0.4608 0.06113 0.0
H3 H 0.20347 0.41414 0.92029 0.0
C4 C 0.20206 0.37935 0.93595 0.0
C5 C 0.27597 0.38294 0.052 0.0
C6 C 0.30933 0.40907 0.07698 0.0
C7 C 0.26087 0.39461 0.00269 0.0
C8 C 0.28083 0.43139 0.97616 0.0
C9 C 0.31613 0.45529 -0.00164 0.0
C10 C 0.33065 0.44347 0.04736 0.0
N11 N 0.22687 0.36714 0.9803 0.0
H12 H 0.72417 0.65161 0.57128 0.0
H13 H 0.73716 0.56499 0.43985 0.0
H14 H 0.63173 0.54089 0.54418 0.0
H15 H 0.81463 0.58605 0.4604 0.0
C16 C 0.80868 0.62313 0.46305 0.0
C17 C 0.71418 0.62032 0.55201 0.0
C18 C 0.6799 0.59174 0.57117 0.0
C19 C 0.7359 0.60984 0.50605 0.0
C20 C 0.72151 0.57246 0.47617 0.0
C21 C 0.68371 0.54793 0.49067 0.0
C22 C 0.66274 0.55836 0.53684 0.0
N23 N 0.7703 0.63938 0.48898 0.0
H24 H 0.72909 0.34573 0.05642 0.0
H25 H 0.73227 0.45546 0.94442 0.0
H26 H 0.61965 0.441 0.04343 0.0
H27 H 0.77321 0.40531 0.89973 0.0
C28 C 0.78911 0.38137 0.92613 0.0
C29 C 0.71386 0.3757 0.03833 0.0
C30 C 0.67269 0.39205 0.05551 0.0
C31 C 0.73476 0.39701 -0.00322 0.0
C32 C 0.71549 0.43692 0.97463 0.0
C33 C 0.67349 0.45252 0.9907 0.0
C34 C 0.65213 0.42936 0.03074 0.0
N35 N 0.77397 0.3762 0.97716 0.0
H36 H 0.26042 0.65232 0.55681 0.0
H37 H 0.27657 0.55553 0.4324 0.0
H38 H 0.36857 0.55478 0.55822 0.0
H39 H 0.23694 0.60998 0.38919 0.0
C40 C 0.21394 0.62492 0.4165 0.0
C41 C 0.27766 0.62326 0.53953 0.0
C42 C 0.31603 0.60526 0.56285 0.0
C43 C 0.26301 0.60577 0.49237 0.0
C44 C 0.2869 0.56931 0.46898 0.0
C45 C 0.32483 0.55056 0.49303 0.0
C46 C 0.33854 0.56818 0.54032 0.0
N47 N 0.22497 0.62664 0.46934 0.0
H48 H 0.76192 0.85927 0.07177 0.0
H49 H 0.76625 0.94179 0.936 0.0
H50 H 0.8605 0.9662 0.05354 0.0
H51 H 0.69532 0.91831 0.92765 0.0
C52 C 0.69602 0.88293 0.9418 0.0
C53 C 0.77532 0.8892 0.05285 0.0
C54 C 0.80957 0.91626 0.07501 0.0
C55 C 0.75829 0.89908 0.00383 0.0
C56 C 0.77743 0.93467 0.97457 0.0
C57 C 0.81385 0.95899 0.99372 0.0
C58 C 0.83013 0.94895 0.04249 0.0
N59 N 0.72347 0.87089 0.9842 0.0
H60 H 0.23555 0.14897 0.57112 0.0
H61 H 0.24706 0.0522 0.44787 0.0
H62 H 0.13566 0.04557 0.54732 0.0
H63 H 0.31661 0.08018 0.44316 0.0
C64 C 0.3126 0.11651 0.45293 0.0
C65 C 0.22392 0.11757 0.55347 0.0
C66 C 0.18728 0.09277 0.57285 0.0
C67 C 0.24588 0.10323 0.50891 0.0
C68 C 0.23015 0.06454 0.48165 0.0
C69 C 0.19003 0.04382 0.49578 0.0
C70 C 0.16812 0.05985 0.53953 0.0
N71 N 0.28207 0.1303 0.49128 0.0
H72 H 0.23292 0.85353 0.06167 0.0
H73 H 0.23672 0.9611 0.94719 0.0
H74 H 0.12303 0.94771 0.04499 0.0
H75 H 0.27381 0.90386 0.90313 0.0
C76 C 0.29381 0.88615 0.9318 0.0
C77 C 0.21776 0.88318 0.04287 0.0
C78 C 0.17627 0.89951 0.05914 0.0
C79 C 0.23909 0.90406 0.00131 0.0
C80 C 0.21967 0.94325 0.97774 0.0
C81 C 0.17733 0.95879 0.99285 0.0
C82 C 0.15584 0.93627 0.03323 0.0
N83 N 0.27913 0.88379 0.98327 0.0
H84 H 0.76228 0.14893 0.55838 0.0
H85 H 0.75975 0.03852 0.44753 0.0
H86 H 0.87382 0.0568 0.54512 0.0
H87 H 0.71917 0.09274 0.40179 0.0
C88 C 0.70077 0.11292 0.42964 0.0
C89 C 0.77795 0.11926 0.5404 0.0
C90 C 0.81974 0.10418 0.55725 0.0
C91 C 0.75692 0.09714 0.49936 0.0
C92 C 0.77677 0.0575 0.47736 0.0
C93 C 0.81943 0.04289 0.49336 0.0
C94 C 0.8408 0.06724 0.5327 0.0
N95 N 0.71657 0.11665 0.4807 0.0
Sc96 Sc 0.9946 0.78491 0.28188 0.0
Sc97 Sc 0.004 0.90452 0.30857 0.0
Sc98 Sc 0.00857 0.82406 0.40825 0.0
O99 O 0.00274 0.83775 0.33272 0.0
C100 C 0.93574 0.74972 0.37336 0.0
C101 C 0.9308 0.86269 0.23397 0.0
C102 C 0.94216 0.91068 0.40691 0.0
C103 C 0.06199 0.85061 0.22451 0.0
C104 C 0.067 0.74424 0.36123 0.0
C105 C 0.07555 0.91045 0.3971 0.0
O106 O 0.94107 0.75502 0.32549 0.0
O107 O 0.94709 0.89466 0.26124 0.0
O108 O 0.95496 0.87215 0.42591 0.0
O109 O 0.0469 0.81044 0.23407 0.0
O110 O 0.06065 0.7745 0.39569 0.0
O111 O 0.05937 0.92435 0.35497 0.0
O112 O 0.04374 0.74163 0.32052 0.0
O113 O 0.04915 0.88735 0.2472 0.0
O114 O 0.06031 0.87505 0.41991 0.0
O115 O 0.94553 0.82127 0.23515 0.0
O116 O 0.95962 0.77001 0.40658 0.0
O117 O 0.95933 0.9278 0.36685 0.0
Sc118 Sc -0.00037 0.2221 0.78076 0.0
Sc119 Sc 0.99399 0.10229 0.80342 0.0
Sc120 Sc 0.99382 0.17809 0.90651 0.0
O121 O 0.9954 0.16776 0.83012 0.0
C122 C 0.0621 0.2562 0.87015 0.0
C123 C 0.06488 0.14731 0.73044 0.0
C124 C 0.05823 0.09237 0.90053 0.0
C125 C 0.93414 0.15679 0.72131 0.0
C126 C 0.93074 0.25782 0.86562 0.0
C127 C 0.92701 0.09164 0.89298 0.0
O128 O 0.05376 0.25292 0.82261 0.0
O129 O 0.0518 0.11449 0.75889 0.0
O130 O 0.04968 0.1323 0.91849 0.0
O131 O 0.94576 0.19729 0.73449 0.0
O132 O 0.93925 0.22633 0.89854 0.0
O133 O 0.93645 0.08437 0.84649 0.0
O134 O 0.9514 0.26185 0.82346 0.0
O135 O 0.9505 0.12006 0.7407 0.0
O136 O 0.94674 0.12196 0.9202 0.0
O137 O 0.04741 0.18763 0.73105 0.0
O138 O 0.04123 0.23373 0.90416 0.0
O139 O 0.03727 0.0756 0.86259 0.0
Sc140 Sc 0.49661 0.28269 0.28588 0.0
Sc141 Sc 0.50348 0.40163 0.30324 0.0
Sc142 Sc 0.50737 0.32998 0.40903 0.0
O143 O 0.5028 0.3378 0.33281 0.0
C144 C 0.43712 0.2515 0.37644 0.0
C145 C 0.43028 0.35745 0.23581 0.0
C146 C 0.44508 0.41629 0.40379 0.0
C147 C 0.56016 0.34368 0.22184 0.0
C148 C 0.56688 0.24817 0.37121 0.0
C149 C 0.57408 0.41495 0.38704 0.0
O150 O 0.44121 0.25697 0.3285 0.0
O151 O 0.44149 0.38892 0.26693 0.0
O152 O 0.45195 0.37613 0.42243 0.0
O153 O 0.55192 0.30402 0.2404 0.0
O154 O 0.56262 0.28321 0.40034 0.0
O155 O 0.5651 0.41744 0.33974 0.0
O156 O 0.54249 0.24124 0.33191 0.0
O157 O 0.54126 0.38073 0.23691 0.0
O158 O 0.55356 0.38791 0.41755 0.0
O159 O 0.45048 0.31845 0.23362 0.0
O160 O 0.4616 0.27177 0.40938 0.0
O161 O 0.46586 0.43157 0.3651 0.0
Sc162 Sc 0.49723 0.72067 0.78521 0.0
Sc163 Sc 0.49087 0.60126 0.80744 0.0
Sc164 Sc 0.49496 0.67674 0.9105 0.0
O165 O 0.49398 0.66645 0.83424 0.0
C166 C 0.56206 0.75475 0.87101 0.0
C167 C 0.55958 0.64477 0.73152 0.0
C168 C 0.55835 0.59138 0.9019 0.0
C169 C 0.42864 0.65684 0.72858 0.0
C170 C 0.43123 0.756 0.87378 0.0
C171 C 0.42779 0.59052 0.89972 0.0
O172 O 0.55422 0.74923 0.82368 0.0
O173 O 0.54756 0.61221 0.76088 0.0
O174 O 0.55195 0.63201 0.91918 0.0
O175 O 0.44049 0.69715 0.74244 0.0
O176 O 0.43906 0.72303 0.90498 0.0
O177 O 0.43422 0.58468 0.85237 0.0
O178 O 0.45227 0.76171 0.83198 0.0
O179 O 0.44608 0.61981 0.74603 0.0
O180 O 0.44982 0.61939 0.92651 0.0
O181 O 0.5421 0.68515 0.7325 0.0
O182 O 0.54028 0.7346 0.90606 0.0
O183 O 0.53531 0.57452 0.86556 0.0
C184 C 0.12149 0.36022 0.92742 0.0
C185 C 0.16641 0.34814 0.91801 0.0
C186 C 0.14299 0.27672 0.8749 0.0
C187 C 0.09813 0.28751 0.88708 0.0
N188 N 0.0451 0.33485 0.93288 0.0
N189 N 0.22131 0.29399 0.88723 0.0
C190 C 0.08748 0.32793 0.91564 0.0
C191 C 0.17758 0.30606 0.89301 0.0
N192 N 0.11127 0.40278 0.94735 0.0
N193 N 0.15243 0.23832 0.84617 0.0
H194 H 0.24745 0.31575 0.89754 0.0
H195 H 0.23203 0.26162 0.87471 0.0
H196 H 0.12854 0.21394 0.83587 0.0
H197 H 0.18349 0.23137 0.83051 0.0
H198 H 0.07906 0.416 0.94913 0.0
H199 H 0.13526 0.4266 0.95891 0.0
H200 H 0.03635 0.36071 0.95872 0.0
H201 H 0.01896 0.31246 0.92489 0.0
C202 C 0.84929 0.69972 0.46167 0.0
C203 C 0.84042 0.65601 0.43897 0.0
C204 C 0.89662 0.67226 0.37379 0.0
C205 C 0.90049 0.71833 0.3924 0.0
N206 N 0.87005 0.7791 0.44555 0.0
N207 N 0.84892 0.60547 0.36577 0.0
C208 C 0.8734 0.73312 0.43358 0.0
C209 C 0.86201 0.64366 0.39267 0.0
N210 N 0.83785 0.70853 0.5112 0.0
N211 N 0.9272 0.65462 0.34048 0.0
H212 H 0.82273 0.58426 0.377 0.0
H213 H 0.86099 0.5978 0.32944 0.0
H214 H 0.95455 0.67323 0.32755 0.0
H215 H 0.92802 0.61975 0.33007 0.0
H216 H 0.84693 0.73891 0.53004 0.0
H217 H 0.82512 0.68331 0.53555 0.0
H218 H 0.84787 0.7916 0.47286 0.0
H219 H 0.8854 0.80498 0.42414 0.0
C220 C 0.81646 0.30185 0.90306 0.0
C221 C 0.82432 0.35024 0.90651 0.0
C222 C 0.90142 0.33889 0.87927 0.0
C223 C 0.89361 0.29038 0.876 0.0
N224 N 0.8412 0.22778 0.86965 0.0
N225 N 0.87027 0.41628 0.88784 0.0
C226 C 0.85039 0.27238 0.88377 0.0
C227 C 0.86553 0.36923 0.8912 0.0
N228 N 0.77643 0.28405 0.91775 0.0
N229 N 0.94342 0.35585 0.87304 0.0
H230 H 0.84523 0.43959 0.89802 0.0
H231 H 0.89767 0.43232 0.87141 0.0
H232 H 0.97024 0.33545 0.86175 0.0
H233 H 0.95246 0.38973 0.88178 0.0
H234 H 0.7708 0.24873 0.92271 0.0
H235 H 0.74914 0.30466 0.92728 0.0
H236 H 0.80939 0.21373 0.86959 0.0
H237 H 0.86479 0.20603 0.85287 0.0
C238 C 0.13229 0.64291 0.4174 0.0
C239 C 0.17517 0.65214 0.39753 0.0
C240 C 0.14433 0.71533 0.34505 0.0
C241 C 0.10289 0.70985 0.36998 0.0
N242 N 0.05682 0.67013 0.43103 0.0
N243 N 0.22353 0.69917 0.34564 0.0
C244 C 0.09667 0.67399 0.40641 0.0
C245 C 0.18155 0.68847 0.36158 0.0
N246 N 0.12533 0.60337 0.4451 0.0
N247 N 0.14812 0.74644 0.30582 0.0
H248 H 0.25172 0.68057 0.35685 0.0
H249 H 0.23111 0.72854 0.3243 0.0
H250 H 0.12203 0.7679 0.29401 0.0
H251 H 0.1759 0.74866 0.28236 0.0
H252 H 0.09406 0.59213 0.45648 0.0
H253 H 0.15047 0.5793 0.45281 0.0
H254 H 0.05178 0.64868 0.46249 0.0
H255 H 0.02908 0.69031 0.42166 0.0
C256 C 0.67494 0.80554 0.90475 0.0
C257 C 0.66196 0.85 0.9228 0.0
C258 C 0.58452 0.83389 0.89948 0.0
C259 C 0.59685 0.7879 0.88654 0.0
N260 N 0.65232 0.72757 0.88176 0.0
N261 N 0.60378 0.90429 0.94467 0.0
C262 C 0.64169 0.773 0.89058 0.0
C263 C 0.61658 0.86372 0.9219 0.0
N264 N 0.71903 0.79521 0.8988 0.0
N265 N 0.54232 0.84928 0.88938 0.0
H266 H 0.62608 0.92687 0.96222 0.0
H267 H 0.5707 0.91367 0.95029 0.0
H268 H 0.51791 0.82828 0.87317 0.0
H269 H 0.5325 0.88379 0.89292 0.0
H270 H 0.73049 0.76527 0.88087 0.0
H271 H 0.74435 0.8185 0.90752 0.0
H272 H 0.68344 0.71332 0.88978 0.0
H273 H 0.62904 0.70317 0.86968 0.0
C274 C 0.39064 0.14234 0.43653 0.0
C275 C 0.34432 0.15078 0.43217 0.0
C276 C 0.35871 0.22645 0.39277 0.0
C277 C 0.40491 0.21672 0.39456 0.0
N278 N 0.46436 0.16135 0.40653 0.0
N279 N 0.28384 0.19599 0.39689 0.0
C280 C 0.42078 0.17347 0.41315 0.0
C281 C 0.32814 0.1916 0.40786 0.0
N282 N 0.40597 0.1056 0.46472 0.0
N283 N 0.34415 0.26925 0.37745 0.0
H284 H 0.26058 0.17059 0.40594 0.0
H285 H 0.27063 0.22268 0.37463 0.0
H286 H 0.36556 0.29489 0.3642 0.0
H287 H 0.31135 0.28043 0.38104 0.0
H288 H 0.43938 0.10079 0.47401 0.0
H289 H 0.38503 0.08202 0.48277 0.0
H290 H 0.47695 0.12844 0.4146 0.0
H291 H 0.48712 0.18276 0.38817 0.0
C292 C 0.32042 0.8199 0.87758 0.0
C293 C 0.3297 0.85436 0.91482 0.0
C294 C 0.40489 0.82294 0.92667 0.0
C295 C 0.39649 0.79018 0.88737 0.0
N296 N 0.34894 0.76048 0.82068 0.0
N297 N 0.38258 0.89467 0.96777 0.0
C298 C 0.35511 0.78979 0.86115 0.0
C299 C 0.37244 0.85748 0.93756 0.0
N300 N 0.27788 0.81417 0.86008 0.0
N301 N 0.44376 0.82081 0.95389 0.0
H302 H 0.35987 0.92108 0.97579 0.0
H303 H 0.41448 0.90171 0.98113 0.0
H304 H 0.46931 0.7975 0.94559 0.0
H305 H 0.44968 0.84005 0.98684 0.0
H306 H 0.26789 0.78639 0.8375 0.0
H307 H 0.25136 0.83512 0.87137 0.0
H308 H 0.32171 0.76239 0.79608 0.0
H309 H 0.37246 0.73588 0.80951 0.0
C310 C 0.67325 0.17575 0.3702 0.0
C311 C 0.66531 0.14534 0.41196 0.0
C312 C 0.59427 0.18436 0.42872 0.0
C313 C 0.60072 0.2127 0.38492 0.0
N314 N 0.64333 0.23197 0.30997 0.0
N315 N 0.61423 0.11356 0.47331 0.0
C316 C 0.63916 0.20705 0.35419 0.0
C317 C 0.6247 0.1477 0.43915 0.0
N318 N 0.71425 0.17677 0.34779 0.0
N319 N 0.55935 0.19269 0.46079 0.0
H320 H 0.63504 0.08529 0.48069 0.0
H321 H 0.58315 0.11058 0.49037 0.0
H322 H 0.53516 0.21789 0.45376 0.0
H323 H 0.55604 0.17684 0.49635 0.0
H324 H 0.72374 0.20177 0.32131 0.0
H325 H 0.74038 0.15497 0.35856 0.0
H326 H 0.6677 0.22537 0.28275 0.0
H327 H 0.62073 0.25758 0.29875 0.0
C328 C 0.3301 0.53787 0.97175 0.0
C329 C 0.34165 0.49014 0.96904 0.0
C330 C 0.41125 0.50937 0.92639 0.0
C331 C 0.39839 0.55683 0.92547 0.0
N332 N 0.34335 0.61606 0.94071 0.0
N333 N 0.38868 0.4294 0.93603 0.0
C334 C 0.35714 0.57113 0.94639 0.0
C335 C 0.38078 0.47561 0.94376 0.0
N336 N 0.29395 0.55136 -0.00039 0.0
N337 N 0.45352 0.49675 0.91311 0.0
H338 H 0.36745 0.40347 0.94904 0.0
H339 H 0.41409 0.41688 0.91283 0.0
H340 H 0.47737 0.5205 0.90147 0.0
H341 H 0.4664 0.46352 0.91848 0.0
H342 H 0.28654 0.5858 0.00798 0.0
H343 H 0.27261 0.52774 0.01703 0.0
H344 H 0.31165 0.62767 0.95031 0.0
H345 H 0.36269 0.64128 0.92292 0.0
C346 C 0.63049 0.52906 0.42062 0.0
C347 C 0.66271 0.51346 0.45629 0.0
C348 C 0.6432 0.43271 0.43764 0.0
C349 C 0.60643 0.44861 0.40822 0.0
N350 N 0.56162 0.51281 0.3768 0.0
N351 N 0.6996 0.45113 0.50097 0.0
C352 C 0.59948 0.49701 0.40035 0.0
C353 C 0.66928 0.46539 0.46516 0.0
N354 N 0.62912 0.57475 0.40663 0.0
N355 N 0.65387 0.38659 0.43801 0.0
H356 H 0.72077 0.47408 0.51983 0.0
H357 H 0.70223 0.41705 0.51384 0.0
H358 H 0.63595 0.36194 0.4174 0.0
H359 H 0.68268 0.3733 0.45477 0.0
H360 H 0.60979 0.58723 0.37646 0.0
H361 H 0.65034 0.59964 0.42197 0.0
H362 H 0.55229 0.54761 0.37591 0.0
H363 H 0.53693 0.49128 0.36239 0.0
C364 C 0.63435 0.52921 -0.00245 0.0
C365 C 0.65086 0.49294 0.96622 0.0
C366 C 0.61911 0.5324 0.89187 0.0
C367 C 0.59378 0.56154 0.92453 0.0
N368 N 0.5723 0.58056 0.01151 0.0
N369 N 0.65135 0.45628 0.88282 0.0
C370 C 0.60029 0.55859 0.97832 0.0
C371 C 0.64157 0.49356 0.91297 0.0
N372 N 0.65103 0.53553 0.04565 0.0
N373 N 0.62245 0.54215 0.84094 0.0
H374 H 0.66506 0.42557 0.89686 0.0
H375 H 0.64126 0.45417 0.84472 0.0
H376 H 0.60897 0.57217 0.82475 0.0
H377 H 0.64324 0.52358 0.81651 0.0
H378 H 0.64231 0.5638 0.06836 0.0
H379 H 0.67712 0.51549 0.06027 0.0
H380 H 0.57396 0.5755 0.05094 0.0
H381 H 0.54433 0.59928 6e-05 0.0
C382 C 0.33896 0.46975 0.45871 0.0
C383 C 0.35376 0.5158 0.46726 0.0
C384 C 0.42931 0.49281 0.44407 0.0
C385 C 0.41372 0.44852 0.42931 0.0
N386 N 0.35186 0.39715 0.41445 0.0
N387 N 0.41077 0.57359 0.45562 0.0
C388 C 0.36797 0.43747 0.43443 0.0
C389 C 0.39829 0.52807 0.45604 0.0
N390 N 0.29796 0.45636 0.47525 0.0
N391 N 0.47389 0.50063 0.44888 0.0
H392 H 0.38852 0.60075 0.4623 0.0
H393 H 0.44191 0.58448 0.44321 0.0
H394 H 0.49756 0.47453 0.44369 0.0
H395 H 0.48692 0.5312 0.46381 0.0
H396 H 0.28737 0.42202 0.47481 0.0
H397 H 0.2759 0.47891 0.49336 0.0
H398 H 0.31807 0.38958 0.41238 0.0
H399 H 0.37198 0.37301 0.39592 0.0
C400 C 0.82767 0.04073 0.96411 0.0
C401 C 0.83847 0.99281 0.96186 0.0
C402 C 0.90827 0.01055 0.91871 0.0
C403 C 0.89639 0.05833 0.91777 0.0
N404 N 0.8424 0.11858 0.93312 0.0
N405 N 0.88401 0.9311 0.92852 0.0
C406 C 0.85533 0.0734 0.93867 0.0
C407 C 0.8771 0.97747 0.93618 0.0
N408 N 0.79172 0.05501 0.99185 0.0
N409 N 0.9504 0.99698 0.90591 0.0
H410 H 0.86212 0.90576 0.9415 0.0
H411 H 0.90913 0.91799 0.90529 0.0
H412 H 0.975 0.02016 0.89481 0.0
H413 H 0.96247 0.96343 0.91132 0.0
H414 H 0.78488 0.08961 9e-05 0.0
H415 H 0.76984 0.03185 0.00911 0.0
H416 H 0.81088 0.13085 0.94247 0.0
H417 H 0.86242 0.14339 0.91577 0.0
C418 C 0.15945 0.0073 0.41405 0.0
C419 C 0.17002 0.00433 0.46682 0.0
C420 C 0.11987 0.93862 0.47519 0.0
C421 C 0.11194 0.93863 0.42129 0.0
N422 N 0.14243 0.96199 0.3393 0.0
N423 N 0.1752 0.95373 0.54007 0.0
C424 C 0.13761 0.96937 0.39049 0.0
C425 C 0.15565 0.96503 0.49459 0.0
N426 N 0.16762 0.04664 0.38669 0.0
N427 N 0.09173 0.91781 0.50897 0.0
H428 H 0.20275 0.97164 0.5541 0.0
H429 H 0.16716 0.92365 0.56014 0.0
H430 H 0.06084 0.90443 0.49929 0.0
H431 H 0.09616 0.9204 0.54844 0.0
H432 H 0.15675 0.05081 0.34904 0.0
H433 H 0.18084 0.07659 0.40278 0.0
H434 H 0.16306 0.98238 0.31661 0.0
H435 H 0.13118 0.93201 0.32139 0.0
C436 C 0.13593 0.03428 -0.00235 0.0
C437 C 0.15414 0.99831 0.96713 0.0
C438 C 0.12127 0.03546 0.89197 0.0
C439 C 0.09425 0.06364 0.92394 0.0
N440 N 0.07117 0.08204 0.01055 0.0
N441 N 0.15656 0.96069 0.88427 0.0
C442 C 0.10051 0.06149 0.97781 0.0
C443 C 0.14514 0.99786 0.91382 0.0
N444 N 0.15213 0.04219 0.04565 0.0
N445 N 0.12512 0.04508 0.84106 0.0
H446 H 0.17136 0.93074 0.8988 0.0
H447 H 0.14679 0.95779 0.84612 0.0
H448 H 0.11102 0.07456 0.82439 0.0
H449 H 0.14698 0.02719 0.81725 0.0
H450 H 0.14197 0.07031 0.0678 0.0
H451 H 0.17914 0.02375 0.06065 0.0
H452 H 0.073 0.07754 0.05006 0.0
H453 H 0.04209 0.09859 -0.0013 0.0
C454 C 0.85065 0.99987 0.41651 0.0
C455 C 0.84307 0.00247 0.46994 0.0
C456 C 0.89887 0.94144 0.48379 0.0
C457 C 0.90434 0.93695 0.43005 0.0
N458 N 0.86965 0.94844 0.34729 0.0
N459 N 0.84779 0.96267 0.55111 0.0
C460 C 0.87497 0.96171 0.39701 0.0
C461 C 0.86297 0.96864 0.50244 0.0
N462 N 0.83769 0.03482 0.38442 0.0
N463 N 0.9291 0.92307 0.5173 0.0
H464 H 0.82043 0.98092 0.56521 0.0
H465 H 0.85916 0.93609 0.5749 0.0
H466 H 0.95795 0.90593 0.50613 0.0
H467 H 0.92791 0.92955 0.55647 0.0
H468 H 0.84629 0.03537 0.34584 0.0
H469 H 0.82299 0.06548 0.39695 0.0
H470 H 0.84637 0.96392 0.32296 0.0
H471 H 0.88412 0.9183 0.33276 0.0
C472 C 0.35522 0.43174 0.15363 0.0
C473 C 0.32678 0.39914 0.13069 0.0
C474 C 0.35786 0.3398 0.18843 0.0
C475 C 0.3944 0.36983 0.19874 0.0
N476 N 0.43019 0.44359 0.18093 0.0
N477 N 0.28153 0.33581 0.15871 0.0
C478 C 0.3935 0.41586 0.17909 0.0
C479 C 0.32236 0.35593 0.15624 0.0
N480 N 0.34486 0.47779 0.15216 0.0
N481 N 0.35622 0.29676 0.21011 0.0
H482 H 0.25299 0.35427 0.14832 0.0
H483 H 0.27485 0.30564 0.1791 0.0
H484 H 0.37835 0.28558 0.23829 0.0
H485 H 0.33365 0.27148 0.19871 0.0
H486 H 0.36341 0.5027 0.17161 0.0
H487 H 0.31515 0.48958 0.13575 0.0
H488 H 0.43084 0.47626 0.16375 0.0
H489 H 0.46128 0.43188 0.19325 0.0
C490 C 0.668 0.63738 0.65571 0.0
C491 C 0.65762 0.59976 0.62273 0.0
C492 C 0.58676 0.58997 0.66534 0.0
C493 C 0.59292 0.6322 0.69219 0.0
N494 N 0.64151 0.69536 0.71571 0.0
N495 N 0.62654 0.52368 0.63414 0.0
C496 C 0.63416 0.65595 0.68814 0.0
C497 C 0.62268 0.57062 0.63856 0.0
N498 N 0.71143 0.64884 0.66353 0.0
N499 N 0.5463 0.5687 0.66376 0.0
H500 H 0.65578 0.50818 0.62095 0.0
H501 H 0.60316 0.50089 0.64928 0.0
H502 H 0.51768 0.58329 0.67954 0.0
H503 H 0.54063 0.53921 0.64162 0.0
H504 H 0.72193 0.6733 0.69014 0.0
H505 H 0.73716 0.6283 0.64916 0.0
H506 H 0.66877 0.7168 0.70963 0.0
H507 H 0.61922 0.70804 0.74275 0.0
C508 C 0.6603 0.38649 0.14984 0.0
C509 C 0.65015 0.37081 0.09981 0.0
C510 C 0.58359 0.33158 0.13101 0.0
C511 C 0.59352 0.34767 0.18097 0.0
N512 N 0.6462 0.37951 0.24078 0.0
N513 N 0.60942 0.31987 0.04414 0.0
C514 C 0.63358 0.37161 0.19128 0.0
C515 C 0.61419 0.34027 0.09095 0.0
N516 N 0.69407 0.41735 0.15731 0.0
N517 N 0.54384 0.31046 0.12129 0.0
H518 H 0.63135 0.32595 0.01407 0.0
H519 H 0.58637 0.29397 0.03642 0.0
H520 H 0.5207 0.30312 0.14972 0.0
H521 H 0.53238 0.30289 0.08466 0.0
H522 H 0.6996 0.43451 0.19173 0.0
H523 H 0.71522 0.42797 0.12809 0.0
H524 H 0.677 0.39298 0.25109 0.0
H525 H 0.62741 0.36851 0.27195 0.0
C526 C 0.32715 0.61347 0.6576 0.0
C527 C 0.33709 0.62828 0.60731 0.0
C528 C 0.40421 0.66733 0.63761 0.0
C529 C 0.39461 0.65225 0.68803 0.0
N530 N 0.3423 0.62126 0.74846 0.0
N531 N 0.37733 0.67904 0.55106 0.0
C532 C 0.35442 0.62863 0.69882 0.0
C533 C 0.37295 0.65879 0.59804 0.0
N534 N 0.29285 0.58345 0.66551 0.0
N535 N 0.44451 0.68671 0.6267 0.0
H536 H 0.35517 0.67298 0.52106 0.0
H537 H 0.40023 0.70506 0.54329 0.0
H538 H 0.46879 0.69317 0.65426 0.0
H539 H 0.45545 0.69308 0.58964 0.0
H540 H 0.28703 0.56691 0.70022 0.0
H541 H 0.27128 0.57332 0.63628 0.0
H542 H 0.31164 0.60784 0.75913 0.0
H543 H 0.3615 0.63249 0.77935 0.0
C544 C 0.86119 0.93881 0.14738 0.0
C545 C 0.82884 0.90808 0.12837 0.0
C546 C 0.85494 0.85065 0.19151 0.0
C547 C 0.89497 0.87663 0.19738 0.0
N548 N 0.93779 0.94388 0.17085 0.0
N549 N 0.77786 0.85315 0.16381 0.0
C550 C 0.8984 0.92057 0.17301 0.0
C551 C 0.82051 0.86812 0.15856 0.0
N552 N 0.85493 0.98553 0.1438 0.0
N553 N 0.84914 0.81029 0.21793 0.0
H554 H 0.75118 0.8732 0.15068 0.0
H555 H 0.76841 0.8262 0.18786 0.0
H556 H 0.87054 0.79913 0.24685 0.0
H557 H 0.82362 0.78709 0.20994 0.0
H558 H 0.87661 0.00924 0.16065 0.0
H559 H 0.82561 0.99952 0.12863 0.0
H560 H 0.94111 0.97483 0.15052 0.0
H561 H 0.96791 0.92964 0.18316 0.0
C562 C 0.17387 0.1423 0.65481 0.0
C563 C 0.16515 0.10271 0.62408 0.0
C564 C 0.09469 0.0916 0.66685 0.0
C565 C 0.09912 0.13491 0.69198 0.0
N566 N 0.14484 0.20146 0.71179 0.0
N567 N 0.13687 0.0259 0.63853 0.0
C568 C 0.13923 0.16055 0.68643 0.0
C569 C 0.13151 0.07276 0.64155 0.0
N570 N 0.21672 0.156 0.66218 0.0
N571 N 0.05489 0.06903 0.66486 0.0
H572 H 0.16663 0.01126 0.62583 0.0
H573 H 0.11425 0.00266 0.65437 0.0
H574 H 0.02538 0.08346 0.67853 0.0
H575 H 0.05064 0.03856 0.64394 0.0
H576 H 0.22604 0.18254 0.68688 0.0
H577 H 0.2433 0.13515 0.6507 0.0
H578 H 0.17101 0.22399 0.70431 0.0
H579 H 0.12217 0.21422 0.73829 0.0
C580 C 0.16527 0.88707 0.15342 0.0
C581 C 0.15231 0.87775 0.10226 0.0
C582 C 0.08131 0.84674 0.13159 0.0
C583 C 0.09453 0.8554 0.18281 0.0
N584 N 0.15313 0.87089 0.24325 0.0
N585 N 0.10438 0.8374 0.04352 0.0
C586 C 0.13791 0.87145 0.19399 0.0
C587 C 0.11241 0.85361 0.09173 0.0
N588 N 0.2023 0.91291 0.16323 0.0
N589 N 0.03839 0.83473 0.12063 0.0
H590 H 0.12688 0.84175 0.01363 0.0
H591 H 0.0778 0.81586 0.03448 0.0
H592 H 0.01424 0.82986 0.14858 0.0
H593 H 0.02572 0.83327 0.08357 0.0
H594 H 0.21032 0.92535 0.19946 0.0
H595 H 0.22346 0.92469 0.13461 0.0
H596 H 0.1859 0.8782 0.25328 0.0
H597 H 0.13398 0.85866 0.27357 0.0
C598 C 0.87927 0.15597 0.59034 0.0
C599 C 0.84272 0.12671 0.60063 0.0
C600 C 0.85987 0.12921 0.69209 0.0
C601 C 0.9005 0.15154 0.6806 0.0
N602 N 0.95123 0.18339 0.61849 0.0
N603 N 0.79844 0.08324 0.66043 0.0
C604 C 0.91061 0.16495 0.62974 0.0
C605 C 0.83263 0.1132 0.65141 0.0
N606 N 0.88398 0.17487 0.54275 0.0
N607 N 0.84722 0.12388 0.7419 0.0
H608 H 0.77707 0.07166 0.63173 0.0
H609 H 0.79287 0.06766 0.69573 0.0
H610 H 0.8664 0.13571 0.77252 0.0
H611 H 0.81609 0.11178 0.75273 0.0
H612 H 0.90756 0.19996 0.53402 0.0
H613 H 0.86144 0.16864 0.51313 0.0
H614 H 0.96238 0.1887 0.58133 0.0
H615 H 0.97541 0.19021 0.64609 0.0
loop_
_geom_bond_atom_site_label_1
_geom_bond_atom_site_label_2
_geom_bond_distance
_geom_bond_site_symmetry_2
_ccdc_geom_bond_type
H0 C5 0.930 . S
H1 C8 0.930 . S
H2 C10 0.930 . S
H3 C4 1.016 . S
C4 H3 1.016 . S
C4 N11 1.286 . S
C5 H0 0.930 . S
C5 C6 1.397 . S
C5 C7 1.361 . S
C6 C5 1.397 . S
C6 C10 1.390 . S
C7 C5 1.361 . S
C7 C8 1.393 1_554 S
C7 N11 1.413 1_554 S
C8 H1 0.930 . S
C8 C7 1.393 1_556 S
C8 C9 1.399 . S
C9 C8 1.399 . S
C9 C10 1.381 1_556 S
C10 H2 0.930 . S
C10 C6 1.390 . S
C10 C9 1.381 1_554 S
N11 C4 1.286 . S
N11 C7 1.413 1_556 S
H12 C17 0.930 . S
H13 C20 0.930 . S
H14 C22 0.930 . S
H15 C16 1.016 . S
C16 H15 1.016 . S
C16 N23 1.286 . S
C17 H12 0.930 . S
C17 C18 1.397 . S
C17 C19 1.361 . S
C18 C17 1.397 . S
C18 C22 1.390 . S
C19 C17 1.361 . S
C19 C20 1.393 . S
C19 N23 1.413 . S
C20 H13 0.930 . S
C20 C19 1.393 . S
C20 C21 1.399 . S
C21 C20 1.399 . S
C21 C22 1.381 . S
C22 H14 0.930 . S
C22 C18 1.390 . S
C22 C21 1.381 . S
N23 C16 1.286 . S
N23 C19 1.413 . S
H24 C29 0.930 . S
H25 C32 0.930 . S
H26 C34 0.930 . S
H27 C28 1.016 . S
C28 H27 1.016 . S
C28 N35 1.286 1_556 S
C29 H24 0.930 . S
C29 C30 1.397 . S
C29 C31 1.361 . S
C30 C29 1.397 . S
C30 C34 1.390 . S
C31 C29 1.361 . S
C31 C32 1.393 1_554 S
C31 N35 1.413 . S
C32 H25 0.930 . S
C32 C31 1.393 1_556 S
C32 C33 1.399 . S
C33 C32 1.399 . S
C33 C34 1.381 1_556 S
C34 H26 0.930 . S
C34 C30 1.390 . S
C34 C33 1.381 1_554 S
N35 C28 1.286 1_554 S
N35 C31 1.413 . S
H36 C41 0.930 . S
H37 C44 0.930 . S
H38 C46 0.930 . S
H39 C40 1.016 . S
C40 H39 1.016 . S
C40 N47 1.286 . S
C41 H36 0.930 . S
C41 C42 1.397 . S
C41 C43 1.361 . S
C42 C41 1.397 . S
C42 C46 1.390 . S
C43 C41 1.361 . S
C43 C44 1.393 . S
C43 N47 1.413 . S
C44 H37 0.930 . S
C44 C43 1.393 . S
C44 C45 1.399 . S
C45 C44 1.399 . S
C45 C46 1.381 . S
C46 H38 0.930 . S
C46 C42 1.390 . S
C46 C45 1.381 . S
N47 C40 1.286 . S
N47 C43 1.413 . S
H48 C53 0.930 . S
H49 C56 0.930 . S
H50 C58 0.930 . S
H51 C52 1.016 . S
C52 H51 1.016 . S
C52 N59 1.286 . S
C53 H48 0.930 . S
C53 C54 1.397 . S
C53 C55 1.361 . S
C54 C53 1.397 . S
C54 C58 1.390 . S
C55 C53 1.361 . S
C55 C56 1.393 1_554 S
C55 N59 1.413 1_554 S
C56 H49 0.930 . S
C56 C55 1.393 1_556 S
C56 C57 1.399 . S
C57 C56 1.399 . S
C57 C58 1.381 1_556 S
C58 H50 0.930 . S
C58 C54 1.390 . S
C58 C57 1.381 1_554 S
N59 C52 1.286 . S
N59 C55 1.413 1_556 S
H60 C65 0.930 . S
H61 C68 0.930 . S
H62 C70 0.930 . S
H63 C64 1.016 . S
C64 H63 1.016 . S
C64 N71 1.286 . S
C65 H60 0.930 . S
C65 C66 1.397 . S
C65 C67 1.361 . S
C66 C65 1.397 . S
C66 C70 1.390 . S
C67 C65 1.361 . S
C67 C68 1.393 . S
C67 N71 1.413 . S
C68 H61 0.930 . S
C68 C67 1.393 . S
C68 C69 1.399 . S
C69 C68 1.399 . S
C69 C70 1.381 . S
C70 H62 0.930 . S
C70 C66 1.390 . S
C70 C69 1.381 . S
N71 C64 1.286 . S
N71 C67 1.413 . S
H72 C77 0.930 . S
H73 C80 0.930 . S
H74 C82 0.930 . S
H75 C76 1.016 . S
C76 H75 1.016 . S
C76 N83 1.286 1_556 S
C77 H72 0.930 . S
C77 C78 1.397 . S
C77 C79 1.361 . S
C78 C77 1.397 . S
C78 C82 1.390 . S
C79 C77 1.361 . S
C79 C80 1.393 1_554 S
C79 N83 1.413 . S
C80 H73 0.930 . S
C80 C79 1.393 1_556 S
C80 C81 1.399 . S
C81 C80 1.399 . S
C81 C82 1.381 1_556 S
C82 H74 0.930 . S
C82 C78 1.390 . S
C82 C81 1.381 1_554 S
N83 C76 1.286 1_554 S
N83 C79 1.413 . S
H84 C89 0.930 . S
H85 C92 0.930 . S
H86 C94 0.930 . S
H87 C88 1.016 . S
C88 H87 1.016 . S
C88 N95 1.286 . S
C89 H84 0.930 . S
C89 C90 1.397 . S
C89 C91 1.361 . S
C90 C89 1.397 . S
C90 C94 1.390 . S
C91 C89 1.361 . S
C91 C92 1.393 . S
C91 N95 1.413 . S
C92 H85 0.930 . S
C92 C91 1.393 . S
C92 C93 1.399 . S
C93 C92 1.399 . S
C93 C94 1.381 . S
C94 H86 0.930 . S
C94 C90 1.390 . S
C94 C93 1.381 . S
N95 C88 1.286 . S
N95 C91 1.413 . S
Sc96 O99 2.025 . S
Sc96 O106 2.105 1_455 S
Sc96 O109 2.105 . S
Sc96 O112 2.105 . S
Sc96 O115 2.105 1_455 S
Sc97 O99 2.025 . S
Sc97 O107 2.105 1_455 S
Sc97 O111 2.105 . S
Sc97 O113 2.105 . S
Sc97 O117 2.105 1_455 S
Sc98 O99 2.025 . S
Sc98 O108 2.105 1_455 S
Sc98 O110 2.105 . S
Sc98 O114 2.105 . S
Sc98 O116 2.105 1_455 S
O99 Sc96 2.025 . S
O99 Sc97 2.025 . S
O99 Sc98 2.025 . S
C100 O106 1.268 . S
C100 O116 1.268 . S
C101 O107 1.268 . S
C101 O115 1.268 . S
C102 O108 1.268 . S
C102 O117 1.268 . S
C103 O109 1.268 . S
C103 O113 1.268 . S
C104 O110 1.268 . S
C104 O112 1.268 . S
C105 O111 1.268 . S
C105 O114 1.268 . S
O106 Sc96 2.105 1_655 S
O106 C100 1.268 . S
O107 Sc97 2.105 1_655 S
O107 C101 1.268 . S
O108 Sc98 2.105 1_655 S
O108 C102 1.268 . S
O109 Sc96 2.105 . S
O109 C103 1.268 . S
O110 Sc98 2.105 . S
O110 C104 1.268 . S
O111 Sc97 2.105 . S
O111 C105 1.268 . S
O112 Sc96 2.105 . S
O112 C104 1.268 . S
O113 Sc97 2.105 . S
O113 C103 1.268 . S
O114 Sc98 2.105 . S
O114 C105 1.268 . S
O115 Sc96 2.105 1_655 S
O115 C101 1.268 . S
O116 Sc98 2.105 1_655 S
O116 C100 1.268 . S
O117 Sc97 2.105 1_655 S
O117 C102 1.268 . S
Sc118 O121 2.025 . S
Sc118 O128 2.105 . S
Sc118 O131 2.105 1_455 S
Sc118 O134 2.105 1_455 S
Sc118 O137 2.105 . S
Sc119 O121 2.025 . S
Sc119 O129 2.105 . S
Sc119 O133 2.105 1_455 S
Sc119 O135 2.105 1_455 S
Sc119 O139 2.105 . S
Sc120 O121 2.025 . S
Sc120 O130 2.105 . S
Sc120 O132 2.105 1_455 S
Sc120 O136 2.105 1_455 S
Sc120 O138 2.105 . S
O121 Sc118 2.025 . S
O121 Sc119 2.025 . S
O121 Sc120 2.025 . S
C122 O128 1.268 . S
C122 O138 1.268 . S
C123 O129 1.268 . S
C123 O137 1.268 . S
C124 O130 1.268 . S
C124 O139 1.268 . S
C125 O131 1.268 . S
C125 O135 1.268 . S
C126 O132 1.268 . S
C126 O134 1.268 . S
C127 O133 1.268 . S
C127 O136 1.268 . S
O128 Sc118 2.105 . S
O128 C122 1.268 . S
O129 Sc119 2.105 . S
O129 C123 1.268 . S
O130 Sc120 2.105 . S
O130 C124 1.268 . S
O131 Sc118 2.105 1_655 S
O131 C125 1.268 . S
O132 Sc120 2.105 1_655 S
O132 C126 1.268 . S
O133 Sc119 2.105 1_655 S
O133 C127 1.268 . S
O134 Sc118 2.105 1_655 S
O134 C126 1.268 . S
O135 Sc119 2.105 1_655 S
O135 C125 1.268 . S
O136 Sc120 2.105 1_655 S
O136 C127 1.268 . S
O137 Sc118 2.105 . S
O137 C123 1.268 . S
O138 Sc120 2.105 . S
O138 C122 1.268 . S
O139 Sc119 2.105 . S
O139 C124 1.268 . S
Sc140 O143 2.025 . S
Sc140 O150 2.105 . S
Sc140 O153 2.105 . S
Sc140 O156 2.105 . S
Sc140 O159 2.105 . S
Sc141 O143 2.025 . S
Sc141 O151 2.105 . S
Sc141 O155 2.105 . S
Sc141 O157 2.105 . S
Sc141 O161 2.105 . S
Sc142 O143 2.025 . S
Sc142 O152 2.105 . S
Sc142 O154 2.105 . S
Sc142 O158 2.105 . S
Sc142 O160 2.105 . S
O143 Sc140 2.025 . S
O143 Sc141 2.025 . S
O143 Sc142 2.025 . S
C144 O150 1.268 . S
C144 O160 1.268 . S
C145 O151 1.268 . S
C145 O159 1.268 . S
C146 O152 1.268 . S
C146 O161 1.268 . S
C147 O153 1.268 . S
C147 O157 1.268 . S
C148 O154 1.268 . S
C148 O156 1.268 . S
C149 O155 1.268 . S
C149 O158 1.268 . S
O150 Sc140 2.105 . S
O150 C144 1.268 . S
O151 Sc141 2.105 . S
O151 C145 1.268 . S
O152 Sc142 2.105 . S
O152 C146 1.268 . S
O153 Sc140 2.105 . S
O153 C147 1.268 . S
O154 Sc142 2.105 . S
O154 C148 1.268 . S
O155 Sc141 2.105 . S
O155 C149 1.268 . S
O156 Sc140 2.105 . S
O156 C148 1.268 . S
O157 Sc141 2.105 . S
O157 C147 1.268 . S
O158 Sc142 2.105 . S
O158 C149 1.268 . S
O159 Sc140 2.105 . S
O159 C145 1.268 . S
O160 Sc142 2.105 . S
O160 C144 1.268 . S
O161 Sc141 2.105 . S
O161 C146 1.268 . S
Sc162 O165 2.025 . S
Sc162 O172 2.105 . S
Sc162 O175 2.105 . S
Sc162 O178 2.105 . S
Sc162 O181 2.105 . S
Sc163 O165 2.025 . S
Sc163 O173 2.105 . S
Sc163 O177 2.105 . S
Sc163 O179 2.105 . S
Sc163 O183 2.105 . S
Sc164 O165 2.025 . S
Sc164 O174 2.105 . S
Sc164 O176 2.105 . S
Sc164 O180 2.105 . S
Sc164 O182 2.105 . S
O165 Sc162 2.025 . S
O165 Sc163 2.025 . S
O165 Sc164 2.025 . S
C166 O172 1.268 . S
C166 O182 1.268 . S
C167 O173 1.268 . S
C167 O181 1.268 . S
C168 O174 1.268 . S
C168 O183 1.268 . S
C169 O175 1.268 . S
C169 O179 1.268 . S
C170 O176 1.268 . S
C170 O178 1.268 . S
C171 O177 1.268 . S
C171 O180 1.268 . S
O172 Sc162 2.105 . S
O172 C166 1.268 . S
O173 Sc163 2.105 . S
O173 C167 1.268 . S
O174 Sc164 2.105 . S
O174 C168 1.268 . S
O175 Sc162 2.105 . S
O175 C169 1.268 . S
O176 Sc164 2.105 . S
O176 C170 1.268 . S
O177 Sc163 2.105 . S
O177 C171 1.268 . S
O178 Sc162 2.105 . S
O178 C170 1.268 . S
O179 Sc163 2.105 . S
O179 C169 1.268 . S
O180 Sc164 2.105 . S
O180 C171 1.268 . S
O181 Sc162 2.105 . S
O181 C167 1.268 . S
O182 Sc164 2.105 . S
O182 C166 1.268 . S
O183 Sc163 2.105 . S
O183 C168 1.268 . S
C184 C185 1.363 . S
C184 C190 1.379 . S
C184 N192 1.356 . S
C185 C184 1.363 . S
C185 C191 1.363 . S
C186 C187 1.363 . S
C186 C191 1.379 . S
C186 N193 1.356 . S
C187 C186 1.363 . S
C187 C190 1.363 . S
N188 C190 1.356 . S
N188 H200 0.984 . S
N188 H201 0.985 . S
N189 C191 1.356 . S
N189 H194 0.984 . S
N189 H195 0.985 . S
C190 C184 1.379 . S
C190 C187 1.363 . S
C190 N188 1.356 . S
C191 C185 1.363 . S
C191 C186 1.379 . S
C191 N189 1.356 . S
N192 C184 1.356 . S
N192 H198 0.984 . S
N192 H199 0.984 . S
N193 C186 1.356 . S
N193 H196 0.984 . S
N193 H197 0.985 . S
H194 N189 0.984 . S
H195 N189 0.985 . S
H196 N193 0.984 . S
H197 N193 0.985 . S
H198 N192 0.984 . S
H199 N192 0.984 . S
H200 N188 0.984 . S
H201 N188 0.985 . S
C202 C203 1.363 . S
C202 C208 1.379 . S
C202 N210 1.356 . S
C203 C202 1.363 . S
C203 C209 1.363 . S
C204 C205 1.363 . S
C204 C209 1.379 . S
C204 N211 1.356 . S
C205 C204 1.363 . S
C205 C208 1.363 . S
N206 C208 1.356 . S
N206 H218 0.984 . S
N206 H219 0.985 . S
N207 C209 1.356 . S
N207 H212 0.984 . S
N207 H213 0.985 . S
C208 C202 1.379 . S
C208 C205 1.363 . S
C208 N206 1.356 . S
C209 C203 1.363 . S
C209 C204 1.379 . S
C209 N207 1.356 . S
N210 C202 1.356 . S
N210 H216 0.984 . S
N210 H217 0.984 . S
N211 C204 1.356 . S
N211 H214 0.984 . S
N211 H215 0.985 . S
H212 N207 0.984 . S
H213 N207 0.985 . S
H214 N211 0.984 . S
H215 N211 0.985 . S
H216 N210 0.984 . S
H217 N210 0.984 . S
H218 N206 0.984 . S
H219 N206 0.985 . S
C220 C221 1.363 . S
C220 C226 1.379 . S
C220 N228 1.356 . S
C221 C220 1.363 . S
C221 C227 1.363 . S
C222 C223 1.363 . S
C222 C227 1.379 . S
C222 N229 1.356 . S
C223 C222 1.363 . S
C223 C226 1.363 . S
N224 C226 1.356 . S
N224 H236 0.984 . S
N224 H237 0.985 . S
N225 C227 1.356 . S
N225 H230 0.984 . S
N225 H231 0.985 . S
C226 C220 1.379 . S
C226 C223 1.363 . S
C226 N224 1.356 . S
C227 C221 1.363 . S
C227 C222 1.379 . S
C227 N225 1.356 . S
N228 C220 1.356 . S
N228 H234 0.984 . S
N228 H235 0.984 . S
N229 C222 1.356 . S
N229 H232 0.984 . S
N229 H233 0.985 . S
H230 N225 0.984 . S
H231 N225 0.985 . S
H232 N229 0.984 . S
H233 N229 0.985 . S
H234 N228 0.984 . S
H235 N228 0.984 . S
H236 N224 0.984 . S
H237 N224 0.985 . S
C238 C239 1.363 . S
C238 C244 1.379 . S
C238 N246 1.356 . S
C239 C238 1.363 . S
C239 C245 1.363 . S
C240 C241 1.363 . S
C240 C245 1.379 . S
C240 N247 1.356 . S
C241 C240 1.363 . S
C241 C244 1.363 . S
N242 C244 1.356 . S
N242 H254 0.984 . S
N242 H255 0.985 . S
N243 C245 1.356 . S
N243 H248 0.984 . S
N243 H249 0.985 . S
C244 C238 1.379 . S
C244 C241 1.363 . S
C244 N242 1.356 . S
C245 C239 1.363 . S
C245 C240 1.379 . S
C245 N243 1.356 . S
N246 C238 1.356 . S
N246 H252 0.984 . S
N246 H253 0.984 . S
N247 C240 1.356 . S
N247 H250 0.984 . S
N247 H251 0.985 . S
H248 N243 0.984 . S
H249 N243 0.985 . S
H250 N247 0.984 . S
H251 N247 0.985 . S
H252 N246 0.984 . S
H253 N246 0.984 . S
H254 N242 0.984 . S
H255 N242 0.985 . S
C256 C257 1.363 . S
C256 C262 1.379 . S
C256 N264 1.356 . S
C257 C256 1.363 . S
C257 C263 1.363 . S
C258 C259 1.363 . S
C258 C263 1.379 . S
C258 N265 1.356 . S
C259 C258 1.363 . S
C259 C262 1.363 . S
N260 C262 1.356 . S
N260 H272 0.984 . S
N260 H273 0.985 . S
N261 C263 1.356 . S
N261 H266 0.984 . S
N261 H267 0.985 . S
C262 C256 1.379 . S
C262 C259 1.363 . S
C262 N260 1.356 . S
C263 C257 1.363 . S
C263 C258 1.379 . S
C263 N261 1.356 . S
N264 C256 1.356 . S
N264 H270 0.984 . S
N264 H271 0.984 . S
N265 C258 1.356 . S
N265 H268 0.984 . S
N265 H269 0.985 . S
H266 N261 0.984 . S
H267 N261 0.985 . S
H268 N265 0.984 . S
H269 N265 0.985 . S
H270 N264 0.984 . S
H271 N264 0.984 . S
H272 N260 0.984 . S
H273 N260 0.985 . S
C274 C275 1.363 . S
C274 C280 1.379 . S
C274 N282 1.356 . S
C275 C274 1.363 . S
C275 C281 1.363 . S
C276 C277 1.363 . S
C276 C281 1.379 . S
C276 N283 1.356 . S
C277 C276 1.363 . S
C277 C280 1.363 . S
N278 C280 1.356 . S
N278 H290 0.984 . S
N278 H291 0.985 . S
N279 C281 1.356 . S
N279 H284 0.984 . S
N279 H285 0.985 . S
C280 C274 1.379 . S
C280 C277 1.363 . S
C280 N278 1.356 . S
C281 C275 1.363 . S
C281 C276 1.379 . S
C281 N279 1.356 . S
N282 C274 1.356 . S
N282 H288 0.984 . S
N282 H289 0.984 . S
N283 C276 1.356 . S
N283 H286 0.984 . S
N283 H287 0.985 . S
H284 N279 0.984 . S
H285 N279 0.985 . S
H286 N283 0.984 . S
H287 N283 0.985 . S
H288 N282 0.984 . S
H289 N282 0.984 . S
H290 N278 0.984 . S
H291 N278 0.985 . S
C292 C293 1.363 . S
C292 C298 1.379 . S
C292 N300 1.356 . S
C293 C292 1.363 . S
C293 C299 1.363 . S
C294 C295 1.363 . S
C294 C299 1.379 . S
C294 N301 1.356 . S
C295 C294 1.363 . S
C295 C298 1.363 . S
N296 C298 1.356 . S
N296 H308 0.984 . S
N296 H309 0.985 . S
N297 C299 1.356 1_554 S
N297 H302 0.984 . S
N297 H303 0.985 . S
C298 C292 1.379 . S
C298 C295 1.363 . S
C298 N296 1.356 . S
C299 C293 1.363 . S
C299 C294 1.379 . S
C299 N297 1.356 1_556 S
N300 C292 1.356 . S
N300 H306 0.984 . S
N300 H307 0.984 . S
N301 C294 1.356 . S
N301 H304 0.984 . S
N301 H305 0.992 . S
H302 N297 0.984 . S
H303 N297 0.985 . S
H304 N301 0.984 . S
H305 N301 0.992 . S
H306 N300 0.984 . S
H307 N300 0.984 . S
H308 N296 0.984 . S
H309 N296 0.985 . S
C310 C311 1.363 . S
C310 C316 1.379 . S
C310 N318 1.356 . S
C311 C310 1.363 . S
C311 C317 1.363 . S
C312 C313 1.363 . S
C312 C317 1.379 . S
C312 N319 1.356 . S
C313 C312 1.363 . S
C313 C316 1.363 . S
N314 C316 1.356 . S
N314 H326 0.984 . S
N314 H327 0.985 . S
N315 C317 1.356 . S
N315 H320 0.984 . S
N315 H321 0.985 . S
C316 C310 1.379 . S
C316 C313 1.363 . S
C316 N314 1.356 . S
C317 C311 1.363 . S
C317 C312 1.379 . S
C317 N315 1.356 . S
N318 C310 1.356 . S
N318 H324 0.984 . S
N318 H325 0.984 . S
N319 C312 1.356 . S
N319 H322 0.984 . S
N319 H323 0.985 . S
H320 N315 0.984 . S
H321 N315 0.985 . S
H322 N319 0.984 . S
H323 N319 0.985 . S
H324 N318 0.984 . S
H325 N318 0.984 . S
H326 N314 0.984 . S
H327 N314 0.985 . S
C328 C329 1.363 . S
C328 C334 1.379 . S
C328 N336 1.356 . S
C329 C328 1.363 . S
C329 C335 1.363 . S
C330 C331 1.363 . S
C330 C335 1.379 . S
C330 N337 1.356 . S
C331 C330 1.363 . S
C331 C334 1.363 . S
N332 C334 1.356 . S
N332 H344 0.984 . S
N332 H345 0.985 . S
N333 C335 1.356 . S
N333 H338 0.984 . S
N333 H339 0.985 . S
C334 C328 1.379 . S
C334 C331 1.363 . S
C334 N332 1.356 . S
C335 C329 1.363 . S
C335 C330 1.379 . S
C335 N333 1.356 . S
N336 C328 1.356 . S
N336 H342 0.984 1_556 S
N336 H343 0.984 1_556 S
N337 C330 1.356 . S
N337 H340 0.984 . S
N337 H341 0.985 . S
H338 N333 0.984 . S
H339 N333 0.985 . S
H340 N337 0.984 . S
H341 N337 0.985 . S
H342 N336 0.984 1_554 S
H343 N336 0.984 1_554 S
H344 N332 0.984 . S
H345 N332 0.985 . S
C346 C347 1.363 . S
C346 C352 1.379 . S
C346 N354 1.356 . S
C347 C346 1.363 . S
C347 C353 1.363 . S
C348 C349 1.363 . S
C348 C353 1.379 . S
C348 N355 1.356 . S
C349 C348 1.363 . S
C349 C352 1.363 . S
N350 C352 1.356 . S
N350 H362 0.984 . S
N350 H363 0.985 . S
N351 C353 1.356 . S
N351 H356 0.984 . S
N351 H357 0.985 . S
C352 C346 1.379 . S
C352 C349 1.363 . S
C352 N350 1.356 . S
C353 C347 1.363 . S
C353 C348 1.379 . S
C353 N351 1.356 . S
N354 C346 1.356 . S
N354 H360 0.984 . S
N354 H361 0.984 . S
N355 C348 1.356 . S
N355 H358 0.984 . S
N355 H359 0.985 . S
H356 N351 0.984 . S
H357 N351 0.985 . S
H358 N355 0.984 . S
H359 N355 0.985 . S
H360 N354 0.984 . S
H361 N354 0.984 . S
H362 N350 0.984 . S
H363 N350 0.985 . S
C364 C365 1.363 . S
C364 C370 1.379 . S
C364 N372 1.356 1_556 S
C365 C364 1.363 . S
C365 C371 1.363 . S
C366 C367 1.363 . S
C366 C371 1.379 . S
C366 N373 1.356 . S
C367 C366 1.363 . S
C367 C370 1.363 . S
N368 C370 1.356 . S
N368 H380 0.984 1_556 S
N368 H381 0.985 . S
N369 C371 1.356 . S
N369 H374 0.984 . S
N369 H375 0.985 . S
C370 C364 1.379 . S
C370 C367 1.363 . S
C370 N368 1.356 . S
C371 C365 1.363 . S
C371 C366 1.379 . S
C371 N369 1.356 . S
N372 C364 1.356 1_554 S
N372 H378 0.984 . S
N372 H379 0.984 . S
N373 C366 1.356 . S
N373 H376 0.984 . S
N373 H377 0.985 . S
H374 N369 0.984 . S
H375 N369 0.985 . S
H376 N373 0.984 . S
H377 N373 0.985 . S
H378 N372 0.984 . S
H379 N372 0.984 . S
H380 N368 0.984 1_554 S
H381 N368 0.985 . S
C382 C383 1.363 . S
C382 C388 1.379 . S
C382 N390 1.356 . S
C383 C382 1.363 . S
C383 C389 1.363 . S
C384 C385 1.363 . S
C384 C389 1.379 . S
C384 N391 1.356 . S
C385 C384 1.363 . S
C385 C388 1.363 . S
N386 C388 1.356 . S
N386 H398 0.984 . S
N386 H399 0.985 . S
N387 C389 1.356 . S
N387 H392 0.984 . S
N387 H393 0.985 . S
C388 C382 1.379 . S
C388 C385 1.363 . S
C388 N386 1.356 . S
C389 C383 1.363 . S
C389 C384 1.379 . S
C389 N387 1.356 . S
N390 C382 1.356 . S
N390 H396 0.984 . S
N390 H397 0.984 . S
N391 C384 1.356 . S
N391 H394 0.984 . S
N391 H395 0.985 . S
H392 N387 0.984 . S
H393 N387 0.985 . S
H394 N391 0.984 . S
H395 N391 0.985 . S
H396 N390 0.984 . S
H397 N390 0.984 . S
H398 N386 0.984 . S
H399 N386 0.985 . S
C400 C401 1.363 1_545 S
C400 C406 1.379 . S
C400 N408 1.356 . S
C401 C400 1.363 1_565 S
C401 C407 1.363 . S
C402 C403 1.363 1_565 S
C402 C407 1.379 . S
C402 N409 1.356 . S
C403 C402 1.363 1_545 S
C403 C406 1.363 . S
N404 C406 1.356 . S
N404 H416 0.984 . S
N404 H417 0.985 . S
N405 C407 1.356 . S
N405 H410 0.984 . S
N405 H411 0.985 . S
C406 C400 1.379 . S
C406 C403 1.363 . S
C406 N404 1.356 . S
C407 C401 1.363 . S
C407 C402 1.379 . S
C407 N405 1.356 . S
N408 C400 1.356 . S
N408 H414 0.984 . S
N408 H415 0.984 1_545 S
N409 C402 1.356 . S
N409 H412 0.984 . S
N409 H413 0.985 . S
H410 N405 0.984 . S
H411 N405 0.985 . S
H412 N409 0.984 . S
H413 N409 0.985 . S
H414 N408 0.984 . S
H415 N408 0.984 1_565 S
H416 N404 0.984 . S
H417 N404 0.985 . S
C418 C419 1.363 . S
C418 C424 1.379 . S
C418 N426 1.356 . S
C419 C418 1.363 . S
C419 C425 1.363 . S
C420 C421 1.363 . S
C420 C425 1.379 1_565 S
C420 N427 1.356 . S
C421 C420 1.363 . S
C421 C424 1.363 1_565 S
N422 C424 1.356 1_565 S
N422 H434 0.984 1_565 S
N422 H435 0.985 . S
N423 C425 1.356 . S
N423 H428 0.984 . S
N423 H429 0.985 . S
C424 C418 1.379 . S
C424 C421 1.363 1_545 S
C424 N422 1.356 1_545 S
C425 C419 1.363 . S
C425 C420 1.379 1_545 S
C425 N423 1.356 . S
N426 C418 1.356 . S
N426 H432 0.984 . S
N426 H433 0.984 . S
N427 C420 1.356 . S
N427 H430 0.984 . S
N427 H431 0.985 . S
H428 N423 0.984 . S
H429 N423 0.985 . S
H430 N427 0.984 . S
H431 N427 0.985 . S
H432 N426 0.984 . S
H433 N426 0.984 . S
H434 N422 0.984 1_545 S
H435 N422 0.985 . S
C436 C437 1.363 . S
C436 C442 1.379 1_565 S
C436 N444 1.356 1_556 S
C437 C436 1.363 . S
C437 C443 1.363 . S
C438 C439 1.363 1_565 S
C438 C443 1.379 . S
C438 N445 1.358 . S
C439 C438 1.363 1_545 S
C439 C442 1.363 . S
N440 C442 1.356 . S
N440 H452 0.984 1_556 S
N440 H453 0.985 . S
N441 C443 1.356 . S
N441 H446 0.984 . S
N441 H447 0.985 . S
C442 C436 1.379 1_545 S
C442 C439 1.363 . S
C442 N440 1.356 . S
C443 C437 1.363 . S
C443 C438 1.379 . S
C443 N441 1.356 . S
N444 C436 1.356 1_554 S
N444 H450 0.984 1_565 S
N444 H451 0.984 . S
N445 C438 1.358 . S
N445 H448 0.980 1_565 S
N445 H449 0.988 . S
H446 N441 0.984 . S
H447 N441 0.985 . S
H448 N445 0.980 1_545 S
H449 N445 0.988 . S
H450 N444 0.984 1_545 S
H451 N444 0.984 . S
H452 N440 0.984 1_554 S
H453 N440 0.985 . S
C454 C455 1.363 . S
C454 C460 1.379 1_545 S
C454 N462 1.356 . S
C455 C454 1.363 . S
C455 C461 1.363 . S
C456 C457 1.363 . S
C456 C461 1.379 1_565 S
C456 N463 1.356 . S
C457 C456 1.363 . S
C457 C460 1.363 . S
N458 C460 1.356 . S
N458 H470 0.984 . S
N458 H471 0.985 . S
N459 C461 1.356 . S
N459 H464 0.984 . S
N459 H465 0.985 . S
C460 C454 1.379 1_565 S
C460 C457 1.363 . S
C460 N458 1.356 . S
C461 C455 1.363 . S
C461 C456 1.379 1_545 S
C461 N459 1.356 . S
N462 C454 1.356 . S
N462 H468 0.984 . S
N462 H469 0.984 . S
N463 C456 1.356 . S
N463 H466 0.984 . S
N463 H467 0.985 . S
H464 N459 0.984 . S
H465 N459 0.985 . S
H466 N463 0.984 . S
H467 N463 0.985 . S
H468 N462 0.984 . S
H469 N462 0.984 . S
H470 N458 0.984 . S
H471 N458 0.985 . S
C472 C473 1.363 . S
C472 C478 1.379 . S
C472 N480 1.356 . S
C473 C472 1.363 . S
C473 C479 1.363 . S
C474 C475 1.363 . S
C474 C479 1.379 . S
C474 N481 1.356 . S
C475 C474 1.363 . S
C475 C478 1.363 . S
N476 C478 1.356 . S
N476 H488 0.984 . S
N476 H489 0.985 . S
N477 C479 1.356 . S
N477 H482 0.984 . S
N477 H483 0.985 . S
C478 C472 1.379 . S
C478 C475 1.363 . S
C478 N476 1.356 . S
C479 C473 1.363 . S
C479 C474 1.379 . S
C479 N477 1.356 . S
N480 C472 1.356 . S
N480 H486 0.984 . S
N480 H487 0.984 . S
N481 C474 1.356 . S
N481 H484 0.984 . S
N481 H485 0.985 . S
H482 N477 0.984 . S
H483 N477 0.985 . S
H484 N481 0.984 . S
H485 N481 0.985 . S
H486 N480 0.984 . S
H487 N480 0.984 . S
H488 N476 0.984 . S
H489 N476 0.985 . S
C490 C491 1.363 . S
C490 C496 1.379 . S
C490 N498 1.356 . S
C491 C490 1.363 . S
C491 C497 1.363 . S
C492 C493 1.363 . S
C492 C497 1.379 . S
C492 N499 1.356 . S
C493 C492 1.363 . S
C493 C496 1.363 . S
N494 C496 1.356 . S
N494 H506 0.984 . S
N494 H507 0.985 . S
N495 C497 1.356 . S
N495 H500 0.984 . S
N495 H501 0.985 . S
C496 C490 1.379 . S
C496 C493 1.363 . S
C496 N494 1.356 . S
C497 C491 1.363 . S
C497 C492 1.379 . S
C497 N495 1.356 . S
N498 C490 1.356 . S
N498 H504 0.984 . S
N498 H505 0.984 . S
N499 C492 1.356 . S
N499 H502 0.984 . S
N499 H503 0.985 . S
H500 N495 0.984 . S
H501 N495 0.985 . S
H502 N499 0.984 . S
H503 N499 0.985 . S
H504 N498 0.984 . S
H505 N498 0.984 . S
H506 N494 0.984 . S
H507 N494 0.985 . S
C508 C509 1.363 . S
C508 C514 1.379 . S
C508 N516 1.356 . S
C509 C508 1.363 . S
C509 C515 1.363 . S
C510 C511 1.363 . S
C510 C515 1.379 . S
C510 N517 1.356 . S
C511 C510 1.363 . S
C511 C514 1.363 . S
N512 C514 1.356 . S
N512 H524 0.984 . S
N512 H525 0.985 . S
N513 C515 1.356 . S
N513 H518 0.984 . S
N513 H519 0.985 . S
C514 C508 1.379 . S
C514 C511 1.363 . S
C514 N512 1.356 . S
C515 C509 1.363 . S
C515 C510 1.379 . S
C515 N513 1.356 . S
N516 C508 1.356 . S
N516 H522 0.984 . S
N516 H523 0.984 . S
N517 C510 1.356 . S
N517 H520 0.984 . S
N517 H521 0.985 . S
H518 N513 0.984 . S
H519 N513 0.985 . S
H520 N517 0.984 . S
H521 N517 0.985 . S
H522 N516 0.984 . S
H523 N516 0.984 . S
H524 N512 0.984 . S
H525 N512 0.985 . S
C526 C527 1.363 . S
C526 C532 1.379 . S
C526 N534 1.356 . S
C527 C526 1.363 . S
C527 C533 1.363 . S
C528 C529 1.363 . S
C528 C533 1.379 . S
C528 N535 1.356 . S
C529 C528 1.363 . S
C529 C532 1.363 . S
N530 C532 1.356 . S
N530 H542 0.984 . S
N530 H543 0.985 . S
N531 C533 1.356 . S
N531 H536 0.984 . S
N531 H537 0.985 . S
C532 C526 1.379 . S
C532 C529 1.363 . S
C532 N530 1.356 . S
C533 C527 1.363 . S
C533 C528 1.379 . S
C533 N531 1.356 . S
N534 C526 1.356 . S
N534 H540 0.984 . S
N534 H541 0.984 . S
N535 C528 1.356 . S
N535 H538 0.984 . S
N535 H539 0.985 . S
H536 N531 0.984 . S
H537 N531 0.985 . S
H538 N535 0.984 . S
H539 N535 0.985 . S
H540 N534 0.984 . S
H541 N534 0.984 . S
H542 N530 0.984 . S
H543 N530 0.985 . S
C544 C545 1.363 . S
C544 C550 1.379 . S
C544 N552 1.356 . S
C545 C544 1.363 . S
C545 C551 1.363 . S
C546 C547 1.363 . S
C546 C551 1.379 . S
C546 N553 1.356 . S
C547 C546 1.363 . S
C547 C550 1.363 . S
N548 C550 1.356 . S
N548 H560 0.984 . S
N548 H561 0.985 . S
N549 C551 1.356 . S
N549 H554 0.984 . S
N549 H555 0.985 . S
C550 C544 1.379 . S
C550 C547 1.363 . S
C550 N548 1.356 . S
C551 C545 1.363 . S
C551 C546 1.379 . S
C551 N549 1.356 . S
N552 C544 1.356 . S
N552 H558 0.984 . S
N552 H559 0.984 . S
N553 C546 1.356 . S
N553 H556 0.984 . S
N553 H557 0.985 . S
H554 N549 0.984 . S
H555 N549 0.985 . S
H556 N553 0.984 . S
H557 N553 0.985 . S
H558 N552 0.984 . S
H559 N552 0.984 . S
H560 N548 0.984 . S
H561 N548 0.985 . S
C562 C563 1.363 . S
C562 C568 1.379 . S
C562 N570 1.356 . S
C563 C562 1.363 . S
C563 C569 1.363 . S
C564 C565 1.363 . S
C564 C569 1.379 . S
C564 N571 1.356 . S
C565 C564 1.363 . S
C565 C568 1.363 . S
N566 C568 1.356 . S
N566 H578 0.984 . S
N566 H579 0.985 . S
N567 C569 1.356 . S
N567 H572 0.984 . S
N567 H573 0.985 . S
C568 C562 1.379 . S
C568 C565 1.363 . S
C568 N566 1.356 . S
C569 C563 1.363 . S
C569 C564 1.379 . S
C569 N567 1.356 . S
N570 C562 1.356 . S
N570 H576 0.984 . S
N570 H577 0.984 . S
N571 C564 1.356 . S
N571 H574 0.984 . S
N571 H575 0.985 . S
H572 N567 0.984 . S
H573 N567 0.985 . S
H574 N571 0.984 . S
H575 N571 0.985 . S
H576 N570 0.984 . S
H577 N570 0.984 . S
H578 N566 0.984 . S
H579 N566 0.985 . S
C580 C581 1.363 . S
C580 C586 1.379 . S
C580 N588 1.356 . S
C581 C580 1.363 . S
C581 C587 1.363 . S
C582 C583 1.363 . S
C582 C587 1.379 . S
C582 N589 1.356 . S
C583 C582 1.363 . S
C583 C586 1.363 . S
N584 C586 1.356 . S
N584 H596 0.984 . S
N584 H597 0.985 . S
N585 C587 1.356 . S
N585 H590 0.984 . S
N585 H591 0.985 . S
C586 C580 1.379 . S
C586 C583 1.363 . S
C586 N584 1.356 . S
C587 C581 1.363 . S
C587 C582 1.379 . S
C587 N585 1.356 . S
N588 C580 1.356 . S
N588 H594 0.984 . S
N588 H595 0.984 . S
N589 C582 1.356 . S
N589 H592 0.984 . S
N589 H593 0.985 . S
H590 N585 0.984 . S
H591 N585 0.985 . S
H592 N589 0.984 . S
H593 N589 0.985 . S
H594 N588 0.984 . S
H595 N588 0.984 . S
H596 N584 0.984 . S
H597 N584 0.985 . S
C598 C599 1.363 . S
C598 C604 1.379 . S
C598 N606 1.356 . S
C599 C598 1.363 . S
C599 C605 1.363 . S
C600 C601 1.363 . S
C600 C605 1.379 . S
C600 N607 1.356 . S
C601 C600 1.363 . S
C601 C604 1.363 . S
N602 C604 1.356 . S
N602 H614 0.984 . S
N602 H615 0.985 . S
N603 C605 1.356 . S
N603 H608 0.984 . S
N603 H609 0.985 . S
C604 C598 1.379 . S
C604 C601 1.363 . S
C604 N602 1.356 . S
C605 C599 1.363 . S
C605 C600 1.379 . S
C605 N603 1.356 . S
N606 C598 1.356 . S
N606 H612 0.984 . S
N606 H613 0.984 . S
N607 C600 1.356 . S
N607 H610 0.984 . S
N607 H611 0.985 . S
H608 N603 0.984 . S
H609 N603 0.985 . S
H610 N607 0.984 . S
H611 N607 0.985 . S
H612 N606 0.984 . S
H613 N606 0.984 . S
H614 N602 0.984 . S
H615 N602 0.985 . S
C185 C4 1.537 . S
C187 C122 1.512 . S
C205 C100 1.514 . S
C203 C16 1.539 . S
C223 C126 1.514 . S
C221 C28 1.529 . S
C241 C104 1.514 . S
C239 C40 1.525 . S
C259 C166 1.514 . S
C257 C52 1.537 . S
C277 C144 1.514 . S
C275 C64 1.537 . S
C293 C76 1.527 . S
C295 C170 1.514 . S
C313 C148 1.514 . S
C311 C88 1.527 . S
C329 C9 1.497 . S
C331 C171 1.528 . S
C349 C149 1.528 . S
C347 C21 1.497 . S
C365 C33 1.506 . S
C367 C168 1.528 . S
C383 C45 1.506 . S
C385 C146 1.528 . S
C403 C127 1.528 . S
C401 C57 1.499 . S
C419 C69 1.497 . S
C421 C105 1.526 . S
C439 C124 1.528 . S
C437 C81 1.504 . S
C457 C102 1.528 . S
C455 C93 1.507 . S
C475 C145 1.487 . S
C473 C6 1.480 . S
C493 C167 1.487 . S
C491 C18 1.480 . S
C509 C30 1.495 . S
C511 C147 1.487 . S
C529 C169 1.487 . S
C527 C42 1.495 . S
C547 C101 1.487 . S
C545 C54 1.482 . S
C563 C66 1.480 . S
C565 C123 1.485 . S
C581 C78 1.495 . S
C583 C103 1.485 . S
C599 C90 1.495 . S
C601 C125 1.489 . S
