# Generated by pormake.
# Topology pyr, (3,6)-cn, num edge types: 1
# Building blocks:
#     Node 0, Type 0, BuildingBlock: VETTIZ_charged_linker_0, # of connection points: 3
#     Node 1, Type 0, BuildingBlock: VETTIZ_charged_linker_0, # of connection points: 3
#     Node 2, Type 0, BuildingBlock: VETTIZ_charged_linker_0, # of connection points: 3
#     Node 3, Type 0, BuildingBlock: VETTIZ_charged_linker_0, # of connection points: 3
#     Node 4, Type 0, BuildingBlock: VETTIZ_charged_linker_0, # of connection points: 3
#     Node 5, Type 0, BuildingBlock: VETTIZ_charged_linker_0, # of connection points: 3
#     Node 6, Type 0, BuildingBlock: VETTIZ_charged_linker_0, # of connection points: 3
#     Node 7, Type 0, BuildingBlock: VETTIZ_charged_linker_0, # of connection points: 3
#     Node 8, Type 1, BuildingBlock: BETDEL_clean_sbu_0, # of connection points: 6
#     Node 9, Type 1, BuildingBlock: BETDEL_clean_sbu_0, # of connection points: 6
#     Node 10, Type 1, BuildingBlock: BETDEL_clean_sbu_0, # of connection points: 6
#     Node 11, Type 1, BuildingBlock: BETDEL_clean_sbu_0, # of connection points: 6
#     Edge 12, Type (0, 1), BuildingBlock: KIFKEQ_clean_linker_1, # of connection points: 2
#     Edge 13, Type (0, 1), BuildingBlock: KIFKEQ_clean_linker_1, # of connection points: 2
#     Edge 14, Type (0, 1), BuildingBlock: KIFKEQ_clean_linker_1, # of connection points: 2
#     Edge 15, Type (0, 1), BuildingBlock: KIFKEQ_clean_linker_1, # of connection points: 2
#     Edge 16, Type (0, 1), BuildingBlock: KIFKEQ_clean_linker_1, # of connection points: 2
#     Edge 17, Type (0, 1), BuildingBlock: KIFKEQ_clean_linker_1, # of connection points: 2
#     Edge 18, Type (0, 1), BuildingBlock: KIFKEQ_clean_linker_1, # of connection points: 2
#     Edge 19, Type (0, 1), BuildingBlock: KIFKEQ_clean_linker_1, # of connection points: 2
#     Edge 20, Type (0, 1), BuildingBlock: KIFKEQ_clean_linker_1, # of connection points: 2
#     Edge 21, Type (0, 1), BuildingBlock: KIFKEQ_clean_linker_1, # of connection points: 2
#     Edge 22, Type (0, 1), BuildingBlock: KIFKEQ_clean_linker_1, # of connection points: 2
#     Edge 23, Type (0, 1), BuildingBlock: KIFKEQ_clean_linker_1, # of connection points: 2
#     Edge 24, Type (0, 1), BuildingBlock: KIFKEQ_clean_linker_1, # of connection points: 2
#     Edge 25, Type (0, 1), BuildingBlock: KIFKEQ_clean_linker_1, # of connection points: 2
#     Edge 26, Type (0, 1), BuildingBlock: KIFKEQ_clean_linker_1, # of connection points: 2
#     Edge 27, Type (0, 1), BuildingBlock: KIFKEQ_clean_linker_1, # of connection points: 2
#     Edge 28, Type (0, 1), BuildingBlock: KIFKEQ_clean_linker_1, # of connection points: 2
#     Edge 29, Type (0, 1), BuildingBlock: KIFKEQ_clean_linker_1, # of connection points: 2
#     Edge 30, Type (0, 1), BuildingBlock: KIFKEQ_clean_linker_1, # of connection points: 2
#     Edge 31, Type (0, 1), BuildingBlock: KIFKEQ_clean_linker_1, # of connection points: 2
#     Edge 32, Type (0, 1), BuildingBlock: KIFKEQ_clean_linker_1, # of connection points: 2
#     Edge 33, Type (0, 1), BuildingBlock: KIFKEQ_clean_linker_1, # of connection points: 2
#     Edge 34, Type (0, 1), BuildingBlock: KIFKEQ_clean_linker_1, # of connection points: 2
#     Edge 35, Type (0, 1), BuildingBlock: KIFKEQ_clean_linker_1, # of connection points: 2
# Relax obj value: 0.028
# Max RMSD: 0.090
# Mean RMSD: 0.039
data_MOF--net-pyr--node1-BETDEL_clean_sbu_0--node2-VETTIZ_charged_linker_0--edge1-KIFKEQ_clean_linker_1
_symmetry_space_group_name_H-M    P1
_symmetry_Int_Tables_number       1
_symmetry_cell_setting            triclinic
loop_
_symmetry_equiv_pos_as_xyz
'x, y, z'
_cell_length_a     45.512906
_cell_length_b     46.831905
_cell_length_c     43.428608
_cell_angle_alpha  90.978151
_cell_angle_beta   88.853916
_cell_angle_gamma 94.341086
loop_
_atom_site_label
_atom_site_type_symbol
_atom_site_fract_x
_atom_site_fract_y
_atom_site_fract_z
_atom_type_partial_charge
C0 C 0.15611 0.15669 0.24895 0.0
C1 C 0.12669 0.1631 0.25403 0.0
C2 C 0.11427 0.18232 0.2343 0.0
C3 C 0.16023 0.18813 0.20515 0.0
C4 C 0.17242 0.16954 0.22467 0.0
C5 C 0.20401 0.16516 0.21645 0.0
H6 H 0.31673 0.1821 0.11416 0.0
C7 C 0.18301 0.19739 0.18206 0.0
C8 C 0.2088 0.18433 0.18872 0.0
H9 H 0.31189 0.13347 0.19817 0.0
H10 H 0.26521 0.15182 0.21137 0.0
H11 H 0.29255 0.23968 0.14671 0.0
H12 H 0.25014 0.16999 0.09405 0.0
H13 H 0.23984 0.20284 0.07988 0.0
H14 H 0.27792 0.19531 0.07843 0.0
H15 H 0.29517 0.2384 0.10545 0.0
H16 H 0.26492 0.25404 0.12543 0.0
C17 C 0.22346 0.17589 0.24385 0.0
C18 C 0.20592 0.1331 0.20776 0.0
C19 C 0.15722 0.26299 0.09721 0.0
C20 C 0.1737 0.27682 0.07346 0.0
C21 C 0.20358 0.27158 0.06909 0.0
C22 C 0.21679 0.25258 0.08827 0.0
C23 C 0.19998 0.23914 0.11223 0.0
C24 C 0.17077 0.24465 0.11641 0.0
C25 C 0.15671 0.23035 0.1442 0.0
C26 C 0.18226 0.21516 0.15609 0.0
C27 C 0.20743 0.22 0.13713 0.0
C28 C 0.14708 0.25387 0.16709 0.0
C29 C 0.13127 0.20902 0.13309 0.0
C30 C 0.30591 0.17588 0.13572 0.0
C31 C 0.3177 0.15582 0.15483 0.0
C32 C 0.30291 0.14834 0.18269 0.0
C33 C 0.27577 0.15898 0.1903 0.0
C34 C 0.26322 0.17724 0.16982 0.0
C35 C 0.27871 0.18631 0.14365 0.0
C36 C 0.26211 0.20645 0.12511 0.0
C37 C 0.2335 0.20664 0.14367 0.0
C38 C 0.23426 0.18928 0.16963 0.0
C39 C 0.27952 0.2362 0.12538 0.0
C40 C 0.25726 0.19319 0.09253 0.0
H41 H 0.12017 0.20928 0.19571 0.0
H42 H 0.16626 0.14171 0.26335 0.0
H43 H 0.18672 0.12506 0.19376 0.0
H44 H 0.22544 0.12895 0.19343 0.0
H45 H 0.2059 0.11981 0.22871 0.0
H46 H 0.21323 0.19312 0.25728 0.0
H47 H 0.22673 0.15827 0.25995 0.0
H48 H 0.24521 0.18576 0.23629 0.0
H49 H 0.13449 0.26741 0.10173 0.0
H50 H 0.21668 0.28239 0.05107 0.0
H51 H 0.23961 0.24935 0.08398 0.0
H52 H 0.16138 0.27409 0.16466 0.0
H53 H 0.12403 0.25896 0.16312 0.0
H54 H 0.14925 0.24799 0.19145 0.0
H55 H 0.13772 0.19788 0.11142 0.0
H56 H 0.12538 0.19172 0.14952 0.0
H57 H 0.11127 0.2203 0.12837 0.0
H58 H 0.09182 0.18797 0.23795 0.0
C59 C 0.13087 0.19484 0.20989 0.0
C60 C 0.21379 0.8641 0.60779 0.0
C61 C 0.20238 0.89032 0.61659 0.0
C62 C 0.21529 0.90597 0.64161 0.0
C63 C 0.24805 0.8687 0.65001 0.0
C64 C 0.23688 0.854 0.62448 0.0
C65 C 0.25282 0.8275 0.61742 0.0
H66 H 0.36157 0.74321 0.6548 0.0
C67 C 0.27105 0.85224 0.66298 0.0
C68 C 0.27445 0.82826 0.64371 0.0
H69 H 0.30411 0.73273 0.57689 0.0
H70 H 0.27852 0.77402 0.59413 0.0
H71 H 0.37216 0.81248 0.65459 0.0
H72 H 0.31229 0.75234 0.70195 0.0
H73 H 0.31683 0.78185 0.72725 0.0
H74 H 0.34827 0.76228 0.71641 0.0
H75 H 0.38276 0.78827 0.68329 0.0
H76 H 0.37085 0.82297 0.69373 0.0
C77 C 0.26868 0.83139 0.58573 0.0
C78 C 0.23028 0.80111 0.61904 0.0
C79 C 0.31464 0.88228 0.76645 0.0
C80 C 0.33499 0.87008 0.78524 0.0
C81 C 0.34822 0.84539 0.77474 0.0
C82 C 0.34121 0.83293 0.74607 0.0
C83 C 0.3206 0.84515 0.72767 0.0
C84 C 0.30769 0.8694 0.73793 0.0
C85 C 0.28603 0.87917 0.71537 0.0
C86 C 0.28751 0.85622 0.69032 0.0
C87 C 0.30797 0.83661 0.69758 0.0
C88 C 0.29749 0.90921 0.70372 0.0
C89 C 0.25537 0.87822 0.73161 0.0
C90 C 0.34368 0.75005 0.64128 0.0
C91 C 0.3351 0.73524 0.61424 0.0
C92 C 0.31114 0.74409 0.59772 0.0
C93 C 0.29649 0.76808 0.60768 0.0
C94 C 0.30579 0.78308 0.63457 0.0
C95 C 0.32872 0.77359 0.65109 0.0
C96 C 0.3347 0.79081 0.68 0.0
C97 C 0.31257 0.81316 0.67748 0.0
C98 C 0.29573 0.80875 0.65081 0.0
C99 C 0.36684 0.80431 0.67811 0.0
C100 C 0.32791 0.77094 0.70795 0.0
H101 H 0.24629 0.9081 0.6773 0.0
H102 H 0.20486 0.85143 0.58862 0.0
H103 H 0.21455 0.80334 0.63872 0.0
H104 H 0.24069 0.781 0.62302 0.0
H105 H 0.21729 0.79868 0.59764 0.0
H106 H 0.27775 0.85395 0.58285 0.0
H107 H 0.25324 0.82609 0.56662 0.0
H108 H 0.28786 0.81847 0.58292 0.0
H109 H 0.30408 0.90124 0.77394 0.0
H110 H 0.36439 0.83593 0.78855 0.0
H111 H 0.35222 0.81431 0.73933 0.0
H112 H 0.32173 0.91315 0.70641 0.0
H113 H 0.28691 0.9265 0.71663 0.0
H114 H 0.29401 0.91162 0.67876 0.0
H115 H 0.25105 0.85795 0.74449 0.0
H116 H 0.23701 0.87879 0.71553 0.0
H117 H 0.25412 0.89631 0.74835 0.0
H118 H 0.20827 0.9268 0.64826 0.0
C119 C 0.23777 0.89524 0.65839 0.0
C120 C 0.62848 0.24517 0.89412 0.0
C121 C 0.6007 0.23231 0.88556 0.0
C122 C 0.58412 0.24705 0.86453 0.0
C123 C 0.62297 0.28535 0.86041 0.0
C124 C 0.63883 0.27167 0.88176 0.0
C125 C 0.66691 0.2889 0.89009 0.0
H126 H 0.75678 0.41021 0.87529 0.0
C127 C 0.63999 0.31246 0.85197 0.0
C128 C 0.66557 0.31485 0.86975 0.0
H129 H 0.76731 0.33822 0.93428 0.0
H130 H 0.72283 0.3142 0.91463 0.0
H131 H 0.68604 0.41216 0.8832 0.0
H132 H 0.74123 0.37175 0.81666 0.0
H133 H 0.7108 0.3818 0.79642 0.0
H134 H 0.73505 0.40903 0.81472 0.0
H135 H 0.70972 0.43158 0.85595 0.0
H136 H 0.67284 0.4183 0.84621 0.0
C137 C 0.66501 0.29697 0.92481 0.0
C138 C 0.6932 0.27116 0.88099 0.0
C139 C 0.6055 0.37385 0.76547 0.0
C140 C 0.61773 0.39923 0.75167 0.0
C141 C 0.64379 0.41279 0.76392 0.0
C142 C 0.65768 0.40119 0.78884 0.0
C143 C 0.64561 0.37557 0.80189 0.0
C144 C 0.61984 0.36238 0.79034 0.0
C145 C 0.61035 0.33522 0.80724 0.0
C146 C 0.63516 0.3339 0.8301 0.0
C147 C 0.65562 0.35775 0.82695 0.0
C148 C 0.58036 0.3392 0.82367 0.0
C149 C 0.60965 0.30996 0.78378 0.0
C150 C 0.74975 0.3892 0.88392 0.0
C151 C 0.76571 0.37648 0.90687 0.0
C152 C 0.75529 0.34906 0.9173 0.0
C153 C 0.72945 0.33495 0.90566 0.0
C154 C 0.71364 0.34816 0.88312 0.0
C155 C 0.72407 0.37467 0.87233 0.0
C156 C 0.70508 0.3849 0.84737 0.0
C157 C 0.68097 0.36064 0.84576 0.0
C158 C 0.68603 0.33921 0.86684 0.0
C159 C 0.6928 0.41334 0.85847 0.0
C160 C 0.72386 0.38725 0.81718 0.0
H161 H 0.58146 0.28302 0.8359 0.0
H162 H 0.64221 0.23491 0.90998 0.0
H163 H 0.68898 0.2593 0.8589 0.0
H164 H 0.71388 0.28456 0.87689 0.0
H165 H 0.69692 0.25518 0.89884 0.0
H166 H 0.64195 0.30054 0.93202 0.0
H167 H 0.67248 0.27966 0.93927 0.0
H168 H 0.67774 0.31727 0.93063 0.0
H169 H 0.58559 0.36278 0.75666 0.0
H170 H 0.65344 0.4326 0.75427 0.0
H171 H 0.67741 0.41264 0.79693 0.0
H172 H 0.57807 0.36207 0.82994 0.0
H173 H 0.56166 0.332 0.80867 0.0
H174 H 0.57795 0.32783 0.84578 0.0
H175 H 0.6298 0.31149 0.76878 0.0
H176 H 0.60922 0.28888 0.79476 0.0
H177 H 0.59023 0.31011 0.7687 0.0
H178 H 0.56227 0.23871 0.85804 0.0
C179 C 0.59515 0.27318 0.85182 0.0
C180 C 0.88857 0.7587 0.36308 0.0
C181 C 0.87889 0.77345 0.38944 0.0
C182 C 0.85406 0.76186 0.40613 0.0
C183 C 0.84963 0.7209 0.37121 0.0
C184 C 0.87383 0.73235 0.35462 0.0
C185 C 0.88218 0.71284 0.32844 0.0
H186 H 0.8616 0.5849 0.25333 0.0
C187 C 0.84024 0.69264 0.35744 0.0
C188 C 0.85939 0.68762 0.33252 0.0
H189 H 0.92411 0.65631 0.23139 0.0
H190 H 0.90546 0.6835 0.27395 0.0
H191 H 0.86716 0.58838 0.32558 0.0
H192 H 0.80596 0.62554 0.26627 0.0
H193 H 0.78622 0.60979 0.29768 0.0
H194 H 0.80625 0.58764 0.27175 0.0
H195 H 0.83723 0.56722 0.30816 0.0
H196 H 0.83256 0.58596 0.3444 0.0
C197 C 0.91388 0.70432 0.33376 0.0
C198 C 0.87832 0.72851 0.2978 0.0
C199 C 0.75092 0.63468 0.40218 0.0
C200 C 0.73813 0.60673 0.39655 0.0
C201 C 0.75164 0.58963 0.37399 0.0
C202 C 0.77655 0.60031 0.35702 0.0
C203 C 0.78864 0.62834 0.36275 0.0
C204 C 0.77617 0.64477 0.38548 0.0
C205 C 0.79327 0.67324 0.39017 0.0
C206 C 0.8173 0.67169 0.36555 0.0
C207 C 0.81434 0.64546 0.34931 0.0
C208 C 0.80587 0.67425 0.42318 0.0
C209 C 0.77268 0.69719 0.38367 0.0
C210 C 0.87115 0.60648 0.25743 0.0
C211 C 0.89473 0.61816 0.23891 0.0
C212 C 0.90648 0.64634 0.24553 0.0
C213 C 0.89544 0.66228 0.2702 0.0
C214 C 0.87219 0.65018 0.28861 0.0
C215 C 0.86017 0.62285 0.28187 0.0
C216 C 0.83488 0.61386 0.30336 0.0
C217 C 0.83384 0.64022 0.32416 0.0
C218 C 0.85596 0.66134 0.31557 0.0
C219 C 0.84308 0.58735 0.32127 0.0
C220 C 0.80675 0.6087 0.28396 0.0
H221 H 0.82055 0.72824 0.41076 0.0
H222 H 0.90774 0.76701 0.34997 0.0
H223 H 0.85997 0.7429 0.29974 0.0
H224 H 0.87217 0.71366 0.27855 0.0
H225 H 0.89863 0.74187 0.29131 0.0
H226 H 0.91712 0.70006 0.35855 0.0
H227 H 0.93048 0.72173 0.32677 0.0
H228 H 0.9189 0.6844 0.32151 0.0
H229 H 0.74147 0.64877 0.41903 0.0
H230 H 0.74322 0.56775 0.36953 0.0
H231 H 0.78558 0.58621 0.34019 0.0
H232 H 0.80796 0.65239 0.43214 0.0
H233 H 0.79145 0.6854 0.43962 0.0
H234 H 0.8285 0.68467 0.42402 0.0
H235 H 0.75962 0.69187 0.36267 0.0
H236 H 0.78477 0.71807 0.37914 0.0
H237 H 0.75694 0.69988 0.40319 0.0
H238 H 0.84605 0.773 0.42631 0.0
C239 C 0.8393 0.73583 0.39708 0.0
C240 C 0.82108 0.73993 0.91627 0.0
C241 C 0.85019 0.73237 0.91216 0.0
C242 C 0.86626 0.74085 0.8854 0.0
C243 C 0.82482 0.7649 0.86766 0.0
C244 C 0.80892 0.7564 0.89381 0.0
C245 C 0.779 0.76808 0.89515 0.0
H246 H 0.68755 0.86012 0.83819 0.0
C247 C 0.80637 0.78234 0.84926 0.0
C248 C 0.77942 0.78428 0.86507 0.0
H249 H 0.67919 0.81421 0.9238 0.0
H250 H 0.7206 0.7874 0.90901 0.0
H251 H 0.70357 0.8064 0.79471 0.0
H252 H 0.75653 0.87356 0.84072 0.0
H253 H 0.76888 0.87081 0.80216 0.0
H254 H 0.73183 0.87939 0.81007 0.0
H255 H 0.71044 0.84114 0.77814 0.0
H256 H 0.73526 0.8132 0.77141 0.0
C257 C 0.75534 0.74256 0.89519 0.0
C258 C 0.77768 0.78827 0.92381 0.0
C259 C 0.85013 0.83117 0.754 0.0
C260 C 0.83888 0.84957 0.73266 0.0
C261 C 0.80854 0.85404 0.73402 0.0
C262 C 0.79028 0.84202 0.75749 0.0
C263 C 0.80246 0.82545 0.77991 0.0
C264 C 0.83156 0.81923 0.77712 0.0
C265 C 0.84036 0.8001 0.80217 0.0
C266 C 0.81199 0.79674 0.8211 0.0
C267 C 0.7901 0.81214 0.80834 0.0
C268 C 0.84831 0.77132 0.78712 0.0
C269 C 0.86569 0.81632 0.8203 0.0
C270 C 0.69456 0.84411 0.8536 0.0
C271 C 0.68051 0.83962 0.88238 0.0
C272 C 0.68969 0.8181 0.90151 0.0
C273 C 0.71396 0.80281 0.89306 0.0
C274 C 0.72935 0.80935 0.8654 0.0
C275 C 0.71899 0.829 0.8457 0.0
C276 C 0.73859 0.8339 0.81773 0.0
C277 C 0.76311 0.81488 0.82461 0.0
C278 C 0.75765 0.8007 0.85264 0.0
C279 C 0.72118 0.82335 0.78887 0.0
C280 C 0.74956 0.86606 0.81734 0.0
H281 H 0.86712 0.76272 0.84328 0.0
H282 H 0.80836 0.73369 0.93675 0.0
H283 H 0.79998 0.79778 0.92996 0.0
H284 H 0.76491 0.80697 0.91993 0.0
H285 H 0.76834 0.77658 0.94424 0.0
H286 H 0.7616 0.72554 0.87867 0.0
H287 H 0.75284 0.7329 0.91838 0.0
H288 H 0.73361 0.74853 0.88772 0.0
H289 H 0.87325 0.82715 0.75377 0.0
H290 H 0.799 0.86734 0.7173 0.0
H291 H 0.76759 0.84677 0.75783 0.0
H292 H 0.83572 0.76652 0.7657 0.0
H293 H 0.87212 0.77184 0.78085 0.0
H294 H 0.84241 0.75275 0.802 0.0
H295 H 0.86227 0.83956 0.82232 0.0
H296 H 0.86704 0.80922 0.84429 0.0
H297 H 0.88733 0.81422 0.80852 0.0
H298 H 0.88857 0.73477 0.88163 0.0
C299 C 0.85368 0.75689 0.86306 0.0
C300 C 0.80364 0.17051 0.39439 0.0
C301 C 0.81708 0.14624 0.38299 0.0
C302 C 0.81222 0.1373 0.3522 0.0
C303 C 0.7801 0.17547 0.3453 0.0
C304 C 0.78546 0.18483 0.37513 0.0
C305 C 0.76959 0.21105 0.38341 0.0
H306 H 0.67522 0.30825 0.34223 0.0
C307 C 0.7599 0.19464 0.33152 0.0
C308 C 0.75401 0.21587 0.35354 0.0
H309 H 0.71661 0.30112 0.43016 0.0
H310 H 0.74295 0.26151 0.41035 0.0
H311 H 0.65906 0.24404 0.33414 0.0
H312 H 0.73293 0.29685 0.29871 0.0
H313 H 0.72134 0.2731 0.2688 0.0
H314 H 0.6963 0.29797 0.28446 0.0
H315 H 0.65593 0.26724 0.30213 0.0
H316 H 0.66595 0.23093 0.29693 0.0
C317 C 0.74753 0.20333 0.41017 0.0
C318 C 0.79291 0.23585 0.39094 0.0
C319 C 0.71459 0.16883 0.22791 0.0
C320 C 0.69306 0.18128 0.21087 0.0
C321 C 0.68445 0.20853 0.21981 0.0
C322 C 0.69553 0.22227 0.24647 0.0
C323 C 0.71527 0.20854 0.26458 0.0
C324 C 0.72529 0.18276 0.25467 0.0
C325 C 0.74639 0.17146 0.2769 0.0
C326 C 0.74614 0.19402 0.30245 0.0
C327 C 0.7277 0.21551 0.29517 0.0
C328 C 0.73329 0.14179 0.28795 0.0
C329 C 0.77705 0.17105 0.2607 0.0
C330 C 0.69046 0.29857 0.357 0.0
C331 C 0.69407 0.30789 0.38767 0.0
C332 C 0.71345 0.29419 0.40645 0.0
C333 C 0.72869 0.27123 0.39489 0.0
C334 C 0.72423 0.26166 0.36435 0.0
C335 C 0.70548 0.27543 0.34596 0.0
C336 C 0.70194 0.26146 0.31475 0.0
C337 C 0.72197 0.2372 0.3172 0.0
C338 C 0.735 0.23739 0.34626 0.0
C339 C 0.66908 0.25043 0.31147 0.0
C340 C 0.71347 0.28339 0.2902 0.0
H341 H 0.79093 0.14373 0.31028 0.0
H342 H 0.80677 0.17797 0.41792 0.0
H343 H 0.8125 0.23506 0.37528 0.0
H344 H 0.78485 0.2572 0.38755 0.0
H345 H 0.80061 0.23451 0.41495 0.0
H346 H 0.73787 0.18089 0.40765 0.0
H347 H 0.75856 0.20532 0.43277 0.0
H348 H 0.72841 0.21649 0.41073 0.0
H349 H 0.72162 0.14789 0.22166 0.0
H350 H 0.66832 0.2188 0.2067 0.0
H351 H 0.68744 0.24258 0.25253 0.0
H352 H 0.7093 0.1423 0.29316 0.0
H353 H 0.73607 0.12502 0.26995 0.0
H354 H 0.74305 0.13492 0.30936 0.0
H355 H 0.7797 0.18689 0.24184 0.0
H356 H 0.79532 0.17729 0.27648 0.0
H357 H 0.7804 0.14964 0.25039 0.0
H358 H 0.82282 0.11917 0.34249 0.0
C359 C 0.79386 0.15174 0.33337 0.0
C360 C 0.40013 0.64392 0.26105 0.0
C361 C 0.38775 0.6186 0.27482 0.0
C362 C 0.36194 0.60487 0.26225 0.0
C363 C 0.36141 0.64111 0.22302 0.0
C364 C 0.38658 0.65479 0.23534 0.0
C365 C 0.3964 0.68173 0.21821 0.0
H366 H 0.37982 0.76876 0.0972 0.0
C367 C 0.35309 0.6575 0.19605 0.0
C368 C 0.37357 0.68134 0.19301 0.0
H369 H 0.44167 0.78112 0.17166 0.0
H370 H 0.42188 0.73719 0.1944 0.0
H371 H 0.32421 0.7508 0.14301 0.0
H372 H 0.38254 0.70147 0.08808 0.0
H373 H 0.34688 0.68457 0.08512 0.0
H374 H 0.35429 0.72056 0.07124 0.0
H375 H 0.32347 0.74948 0.10169 0.0
H376 H 0.30277 0.72301 0.12464 0.0
C377 C 0.3942 0.70765 0.2406 0.0
C378 C 0.42774 0.67845 0.20483 0.0
C379 C 0.26285 0.62268 0.13451 0.0
C380 C 0.25075 0.63202 0.10722 0.0
C381 C 0.26503 0.65564 0.09191 0.0
C382 C 0.29056 0.6701 0.10389 0.0
C383 C 0.30218 0.66077 0.13143 0.0
C384 C 0.2886 0.63712 0.14597 0.0
C385 C 0.30494 0.62928 0.17404 0.0
C386 C 0.33001 0.65264 0.17453 0.0
C387 C 0.32815 0.6712 0.14969 0.0
C388 C 0.28404 0.63146 0.20243 0.0
C389 C 0.31619 0.59915 0.16834 0.0
C390 C 0.38904 0.76235 0.11857 0.0
C391 C 0.41283 0.77873 0.13216 0.0
C392 C 0.42401 0.7689 0.15992 0.0
C393 C 0.41224 0.74339 0.17342 0.0
C394 C 0.38864 0.72739 0.15945 0.0
C395 C 0.37718 0.73716 0.1327 0.0
C396 C 0.35108 0.71816 0.12194 0.0
C397 C 0.34888 0.69534 0.14654 0.0
C398 C 0.37119 0.70063 0.1683 0.0
C399 C 0.32386 0.73614 0.12256 0.0
C400 C 0.35879 0.70558 0.08982 0.0
H401 H 0.32925 0.60433 0.22818 0.0
H402 H 0.41969 0.65526 0.27035 0.0
H403 H 0.42917 0.65681 0.19419 0.0
H404 H 0.43406 0.69376 0.18641 0.0
H405 H 0.44442 0.68109 0.2232 0.0
H406 H 0.37648 0.70334 0.25831 0.0
H407 H 0.41518 0.71264 0.2529 0.0
H408 H 0.38809 0.72706 0.22888 0.0
H409 H 0.25268 0.60426 0.14649 0.0
H410 H 0.25611 0.66326 0.07088 0.0
H411 H 0.30022 0.68805 0.09126 0.0
H412 H 0.27096 0.6505 0.20082 0.0
H413 H 0.26829 0.61221 0.20407 0.0
H414 H 0.29588 0.6344 0.22432 0.0
H415 H 0.32066 0.59516 0.14341 0.0
H416 H 0.33744 0.59657 0.17944 0.0
H417 H 0.2997 0.58203 0.17631 0.0
H418 H 0.35208 0.58523 0.27207 0.0
C419 C 0.34879 0.61592 0.23655 0.0
C420 C 0.10688 0.26273 0.64311 0.0
C421 C 0.11805 0.24626 0.61868 0.0
C422 C 0.14523 0.2558 0.6047 0.0
C423 C 0.14929 0.29738 0.6388 0.0
C424 C 0.12285 0.28803 0.65281 0.0
C425 C 0.11427 0.30798 0.67851 0.0
H426 H 0.15047 0.42326 0.77024 0.0
C427 C 0.16051 0.32424 0.65442 0.0
C428 C 0.14022 0.33047 0.67793 0.0
H429 H 0.06876 0.36928 0.77015 0.0
H430 H 0.08703 0.34171 0.72785 0.0
H431 H 0.15052 0.43076 0.69755 0.0
H432 H 0.19571 0.37499 0.75508 0.0
H433 H 0.221 0.38894 0.72697 0.0
H434 H 0.20453 0.41299 0.75394 0.0
H435 H 0.18196 0.44347 0.71951 0.0
H436 H 0.18581 0.42842 0.68125 0.0
C437 C 0.08508 0.32067 0.66995 0.0
C438 C 0.11253 0.29102 0.70884 0.0
C439 C 0.2558 0.37719 0.61636 0.0
C440 C 0.27236 0.40204 0.62671 0.0
C441 C 0.26261 0.41621 0.65357 0.0
C442 C 0.23676 0.40624 0.66936 0.0
C443 C 0.22028 0.38172 0.65839 0.0
C444 C 0.2301 0.36741 0.63253 0.0
C445 C 0.21033 0.34113 0.62484 0.0
C446 C 0.18646 0.34263 0.64966 0.0
C447 C 0.19236 0.3665 0.66919 0.0
C448 C 0.19805 0.34472 0.59225 0.0
C449 C 0.22824 0.31448 0.62823 0.0
C450 C 0.13619 0.40574 0.76116 0.0
C451 C 0.10814 0.39845 0.77449 0.0
C452 C 0.0908 0.37512 0.76146 0.0
C453 C 0.10131 0.35917 0.73649 0.0
C454 C 0.12937 0.36669 0.72376 0.0
C455 C 0.14604 0.38999 0.73571 0.0
C456 C 0.1743 0.39631 0.71765 0.0
C457 C 0.17215 0.37251 0.69341 0.0
C458 C 0.14598 0.35492 0.69739 0.0
C459 C 0.17344 0.42633 0.70332 0.0
C460 C 0.20041 0.3934 0.73941 0.0
H461 H 0.18122 0.28718 0.60281 0.0
H462 H 0.08596 0.25632 0.65422 0.0
H463 H 0.13172 0.27778 0.71048 0.0
H464 H 0.11319 0.3049 0.72961 0.0
H465 H 0.09217 0.27637 0.70995 0.0
H466 H 0.08297 0.32198 0.64454 0.0
H467 H 0.06565 0.3073 0.67883 0.0
H468 H 0.08384 0.34296 0.67843 0.0
H469 H 0.26236 0.36572 0.59581 0.0
H470 H 0.27515 0.43494 0.66267 0.0
H471 H 0.23063 0.41803 0.68959 0.0
H472 H 0.1916 0.36694 0.58927 0.0
H473 H 0.21487 0.34051 0.57418 0.0
H474 H 0.17795 0.33071 0.58779 0.0
H475 H 0.24617 0.31853 0.64516 0.0
H476 H 0.21472 0.29578 0.63734 0.0
H477 H 0.23864 0.30842 0.60595 0.0
H478 H 0.15477 0.24342 0.58628 0.0
C479 C 0.16078 0.28118 0.61453 0.0
Dy480 Dy 0.00989 0.0202 0.47622 0.0
C481 C 0.9703 0.96811 0.5885 0.0
C482 C 0.02731 0.05331 0.42747 0.0
Dy483 Dy 0.98527 0.99965 0.53776 0.0
O484 O 0.041 0.05265 0.45325 0.0
O485 O 0.00411 0.03535 0.42779 0.0
O486 O 0.04357 0.98778 0.47501 0.0
O487 O 0.02949 1.00428 0.51766 0.0
C488 C 0.04428 0.9856 0.50474 0.0
C489 C 0.95051 0.03326 0.50798 0.0
O490 O 0.01574 0.03661 0.55306 0.0
O491 O 0.01158 0.05946 0.50702 0.0
O492 O 0.96585 0.99497 0.58553 0.0
O493 O 0.98341 0.95869 0.56401 0.0
O494 O 0.95096 0.032 0.53778 0.0
O495 O 0.96587 0.01462 0.49622 0.0
O496 O 0.98503 0.98048 0.45841 0.0
O497 O 0.97321 0.96174 0.50668 0.0
C498 C 0.01872 0.06014 0.53646 0.0
C499 C 0.9738 0.95946 0.47616 0.0
Dy500 Dy 0.5317 0.01847 0.03575 0.0
C501 C 0.43395 0.96453 0.96533 0.0
C502 C 0.5724 0.04951 0.06995 0.0
Dy503 Dy 0.47893 0.99651 0.99222 0.0
O504 O 0.55046 0.03322 0.08102 0.0
O505 O 0.57236 0.04869 0.03998 0.0
O506 O 0.53315 0.97368 0.05291 0.0
O507 O 0.49278 0.98783 0.03897 0.0
C508 C 0.5055 0.96642 0.04777 0.0
C509 C 0.50995 0.04327 0.96891 0.0
O510 O 0.4551 0.02001 0.0287 0.0
O511 O 0.4956 0.04637 0.04978 0.0
O512 O 0.43447 0.99199 0.97054 0.0
O513 O 0.45785 0.95452 0.97527 0.0
O514 O 0.48809 0.02978 0.95467 0.0
O515 O 0.5133 0.03029 0.99339 0.0
O516 O 0.55602 0.99671 0.99806 0.0
O517 O 0.51549 0.96975 0.97768 0.0
C518 C 0.46675 0.04093 0.04662 0.0
C519 C 0.54432 0.97569 0.98021 0.0
Dy520 Dy 0.51502 0.48429 0.49246 0.0
C521 C 0.45565 0.5695 0.55901 0.0
C522 C 0.55202 0.44879 0.46369 0.0
Dy523 Dy 0.49233 0.5324 0.53241 0.0
O524 O 0.52517 0.44135 0.47264 0.0
O525 O 0.55846 0.47569 0.46999 0.0
O526 O 0.46913 0.46347 0.4887 0.0
O527 O 0.48154 0.48655 0.52895 0.0
C528 C 0.46024 0.47358 0.51512 0.0
C529 C 0.5468 0.54304 0.50851 0.0
O530 O 0.5071 0.50499 0.5701 0.0
O531 O 0.53689 0.47884 0.53821 0.0
O532 O 0.48399 0.57058 0.56274 0.0
O533 O 0.44741 0.54787 0.54136 0.0
O534 O 0.53862 0.55337 0.53502 0.0
O535 O 0.52506 0.5302 0.49557 0.0
O536 O 0.49688 0.509 0.45435 0.0
O537 O 0.47159 0.53932 0.48643 0.0
C538 C 0.52803 0.48693 0.56618 0.0
C539 C 0.47798 0.52902 0.45857 0.0
Dy540 Dy 0.01641 0.47973 0.02111 0.0
C541 C 0.96641 0.58419 0.99535 0.0
C542 C 0.0474 0.43305 0.02946 0.0
Dy543 Dy 0.99602 0.53628 1.00008 0.0
O544 O 0.04628 0.45441 0.04875 0.0
O545 O 0.0309 0.43678 1.00614 0.0
O546 O 0.98427 0.47951 0.06128 0.0
O547 O 1.00365 0.51845 0.04469 0.0
C548 C 0.98464 0.50728 0.06319 0.0
C549 C 0.02728 0.50918 0.957 0.0
O550 O 0.03645 0.55163 0.02565 0.0
O551 O 0.05825 0.50898 0.01933 0.0
O552 O 0.99068 0.57951 0.98052 0.0
O553 O 0.95821 0.56263 0.01271 0.0
O554 O 0.02628 0.53683 0.9584 0.0
O555 O 0.00914 0.49773 0.97626 0.0
O556 O 0.97344 0.46253 1.00143 0.0
O557 O 0.95545 0.50662 0.99163 0.0
C558 C 0.06002 0.53675 0.02624 0.0
C559 C 0.95215 0.47819 0.99247 0.0
H560 H 0.14552 0.1531 0.31175 0.0
H561 H 0.06844 0.14298 0.25486 0.0
H562 H 0.11859 0.12804 0.35294 0.0
H563 H 0.0406 0.1196 0.29721 0.0
H564 H 0.01518 0.04637 0.36634 0.0
H565 H 0.03688 0.07536 0.32409 0.0
H566 H 0.08153 0.13257 0.39032 0.0
H567 H 0.0613 0.10268 0.43194 0.0
C568 C 0.12272 0.14567 0.3081 0.0
C569 C 0.10924 0.14978 0.27989 0.0
C570 C 0.10706 0.1317 0.33197 0.0
C571 C 0.07732 0.12191 0.3285 0.0
C572 C 0.06356 0.12661 0.30053 0.0
C573 C 0.0794 0.14034 0.27641 0.0
C574 C 0.02949 0.06529 0.37163 0.0
C575 C 0.0371 0.07214 0.40212 0.0
C576 C 0.04177 0.082 0.34755 0.0
C577 C 0.06137 0.10605 0.35379 0.0
C578 C 0.06729 0.11372 0.3846 0.0
C579 C 0.05558 0.09673 0.40847 0.0
H580 H 0.34067 0.84332 0.83994 0.0
H581 H 0.34774 0.92674 0.79839 0.0
H582 H 0.3583 0.86475 0.88844 0.0
H583 H 0.36571 0.94813 0.84656 0.0
H584 H 0.38511 0.98368 0.9398 0.0
H585 H 0.3549 0.95961 0.89983 0.0
H586 H 0.40537 0.88536 0.90566 0.0
H587 H 0.43487 0.90914 0.94607 0.0
C588 C 0.34591 0.86625 0.84125 0.0
C589 C 0.3431 0.88335 0.81536 0.0
C590 C 0.35596 0.87852 0.86899 0.0
C591 C 0.36353 0.90812 0.87134 0.0
C592 C 0.35962 0.92533 0.84573 0.0
C593 C 0.34944 0.91308 0.81805 0.0
C594 C 0.38921 0.96196 0.93298 0.0
C595 C 0.41244 0.94832 0.9457 0.0
C596 C 0.37209 0.94826 0.90998 0.0
C597 C 0.37801 0.92074 0.89925 0.0
C598 C 0.40004 0.90645 0.91353 0.0
C599 C 0.41706 0.92011 0.93659 0.0
H600 H 0.5589 0.40431 0.74115 0.0
H601 H 0.64544 0.42185 0.70011 0.0
H602 H 0.5369 0.42511 0.69655 0.0
H603 H 0.62363 0.44324 0.65614 0.0
H604 H 0.51209 0.49311 0.62723 0.0
H605 H 0.53314 0.47159 0.67183 0.0
H606 H 0.59389 0.42982 0.61172 0.0
H607 H 0.57322 0.45153 0.56729 0.0
C608 C 0.57323 0.41251 0.72261 0.0
C609 C 0.60397 0.41145 0.72434 0.0
C610 C 0.56064 0.42472 0.69717 0.0
C611 C 0.57846 0.43594 0.67269 0.0
C612 C 0.60916 0.43461 0.67436 0.0
C613 C 0.62172 0.42259 0.6998 0.0
C614 C 0.52999 0.4794 0.62351 0.0
C615 C 0.54097 0.47419 0.59356 0.0
C616 C 0.54193 0.46687 0.64911 0.0
C617 C 0.56526 0.44894 0.64546 0.0
C618 C 0.57621 0.44378 0.6155 0.0
C619 C 0.56421 0.45616 0.58994 0.0
H620 H 0.86533 0.57987 0.19918 0.0
H621 H 0.95251 0.61779 0.2195 0.0
H622 H 0.88595 0.55275 0.15646 0.0
H623 H 0.97273 0.5914 0.17628 0.0
H624 H 0.94326 0.48668 0.10532 0.0
H625 H 0.92053 0.51323 0.14747 0.0
H626 H 0.9699 0.59083 0.11851 0.0
H627 H 0.99246 0.56438 0.07646 0.0
C628 C 0.88887 0.58234 0.19477 0.0
C629 C 0.90716 0.60124 0.21288 0.0
C630 C 0.90064 0.56685 0.17016 0.0
C631 C 0.93093 0.57009 0.16285 0.0
C632 C 0.94922 0.58881 0.18098 0.0
C633 C 0.93755 0.60403 0.20574 0.0
C634 C 0.9491 0.50943 0.10792 0.0
C635 C 0.96975 0.52342 0.08775 0.0
C636 C 0.93601 0.52465 0.13194 0.0
C637 C 0.94357 0.55409 0.13644 0.0
C638 C 0.96391 0.5681 0.11591 0.0
C639 C 0.97673 0.55298 0.09174 0.0
H640 H 0.36836 0.17731 0.12528 0.0
H641 H 0.32412 0.0988 0.1592 0.0
H642 H 0.40636 0.1498 0.10089 0.0
H643 H 0.36241 0.07169 0.13586 0.0
H644 H 0.40694 0.03265 0.05168 0.0
H645 H 0.37355 0.06127 0.08093 0.0
H646 H 0.44714 0.11765 0.11133 0.0
H647 H 0.48089 0.08909 0.08169 0.0
C648 C 0.36701 0.15429 0.12793 0.0
C649 C 0.34318 0.14022 0.14403 0.0
C650 C 0.38885 0.13861 0.1142 0.0
C651 C 0.38708 0.10862 0.11623 0.0
C652 C 0.36406 0.09476 0.13359 0.0
C653 C 0.34234 0.11037 0.14729 0.0
C654 C 0.41612 0.05112 0.06455 0.0
C655 C 0.44661 0.05855 0.06437 0.0
C656 C 0.39697 0.06739 0.0815 0.0
C657 C 0.40782 0.09151 0.0986 0.0
C658 C 0.43824 0.09918 0.09826 0.0
C659 C 0.45751 0.08276 0.0814 0.0
H660 H 0.18787 0.88319 0.55525 0.0
H661 H 0.15935 0.92306 0.6402 0.0
H662 H 0.14756 0.90229 0.52878 0.0
H663 H 0.12181 0.94522 0.61303 0.0
H664 H 0.04213 0.96874 0.5644 0.0
H665 H 0.07756 0.94198 0.59076 0.0
H666 H 0.13188 0.94209 0.50767 0.0
H667 H 0.09479 0.9662 0.48091 0.0
C668 C 0.17316 0.89605 0.5684 0.0
C669 C 0.17737 0.90166 0.6 0.0
C670 C 0.15023 0.90761 0.55296 0.0
C671 C 0.13129 0.92577 0.56844 0.0
C672 C 0.13537 0.93107 0.60011 0.0
C673 C 0.15764 0.91882 0.6157 0.0
C674 C 0.06148 0.96257 0.55181 0.0
C675 C 0.0657 0.96936 0.52068 0.0
C676 C 0.08211 0.94752 0.56697 0.0
C677 C 0.10806 0.93987 0.55164 0.0
C678 C 0.11207 0.94684 0.52031 0.0
C679 C 0.09092 0.961 0.50493 0.0
H680 H 0.78573 0.37555 0.96629 0.0
H681 H 0.80802 0.41184 0.87716 0.0
H682 H 0.83052 0.39958 0.98723 0.0
H683 H 0.85213 0.43671 0.89865 0.0
H684 H 0.9097 0.50075 0.95856 0.0
H685 H 0.86479 0.47624 0.93822 0.0
H686 H 0.88621 0.39781 0.9803 0.0
H687 H 0.93136 0.42222 1.00053 0.0
C688 C 0.80017 0.38843 0.95102 0.0
C689 C 0.79303 0.39156 0.91988 0.0
C690 C 0.82582 0.40233 0.96315 0.0
C691 C 0.84483 0.42008 0.94462 0.0
C692 C 0.83771 0.42345 0.91362 0.0
C693 C 0.81228 0.40924 0.90135 0.0
C694 C 0.90483 0.47831 0.96363 0.0
C695 C 0.92421 0.46347 0.9812 0.0
C696 C 0.87917 0.46423 0.95178 0.0
C697 C 0.87199 0.43507 0.95757 0.0
C698 C 0.89106 0.42033 0.97559 0.0
C699 C 0.91699 0.4343 0.98707 0.0
H700 H 0.72005 0.62047 0.45581 0.0
H701 H 0.69378 0.56739 0.37711 0.0
H702 H 0.67448 0.60527 0.48215 0.0
H703 H 0.65001 0.54947 0.40498 0.0
H704 H 0.55816 0.54442 0.44689 0.0
H705 H 0.60418 0.55927 0.42058 0.0
H706 H 0.64668 0.57142 0.50869 0.0
H707 H 0.59966 0.55873 0.53475 0.0
C708 C 0.70474 0.60546 0.44401 0.0
C709 C 0.71089 0.59561 0.41389 0.0
C710 C 0.67862 0.59615 0.45957 0.0
C711 C 0.65806 0.57602 0.44594 0.0
C712 C 0.66468 0.56546 0.41623 0.0
C713 C 0.69039 0.57537 0.40033 0.0
C714 C 0.5774 0.55033 0.46056 0.0
C715 C 0.57536 0.55062 0.49283 0.0
C716 C 0.60403 0.55861 0.44547 0.0
C717 C 0.62964 0.56665 0.46225 0.0
C718 C 0.62754 0.56615 0.49472 0.0
C719 C 0.60063 0.55862 0.5098 0.0
H720 H 0.12149 0.27112 0.04392 0.0
H721 H 0.19437 0.33218 0.06519 0.0
H722 H 0.09261 0.30998 0.02813 0.0
H723 H 0.16563 0.37118 0.04899 0.0
H724 H 0.0875 0.42659 0.07372 0.0
H725 H 0.12181 0.38921 0.07663 0.0
H726 H 0.08693 0.35049 0.99267 0.0
H727 H 0.05239 0.38794 0.98988 0.0
C728 C 0.13161 0.29282 0.0442 0.0
C729 C 0.15996 0.29881 0.05597 0.0
C730 C 0.11515 0.31504 0.03513 0.0
C731 C 0.12675 0.34359 0.03786 0.0
C732 C 0.15606 0.34934 0.04713 0.0
C733 C 0.1726 0.32706 0.05603 0.0
C734 C 0.08717 0.41006 0.05594 0.0
C735 C 0.06722 0.4099 0.03175 0.0
C736 C 0.10704 0.38891 0.05735 0.0
C737 C 0.10723 0.36715 0.03466 0.0
C738 C 0.08722 0.36702 0.01044 0.0
C739 C 0.06744 0.38832 0.00893 0.0
H740 H 0.56248 0.19093 0.85868 0.0
H741 H 0.61206 0.20826 0.94174 0.0
H742 H 0.54181 0.14659 0.87976 0.0
H743 H 0.5943 0.16191 0.96118 0.0
H744 H 0.53532 0.08812 1.00274 0.0
H745 H 0.55767 0.1335 0.98333 0.0
H746 H 0.54726 0.10081 0.88995 0.0
H747 H 0.52261 0.05697 0.9097 0.0
C748 C 0.56921 0.18543 0.88144 0.0
C749 C 0.589 0.20389 0.89834 0.0
C750 C 0.55777 0.15925 0.89338 0.0
C751 C 0.56641 0.1499 0.9223 0.0
C752 C 0.58656 0.16813 0.93907 0.0
C753 C 0.59735 0.19478 0.92748 0.0
C754 C 0.53804 0.09081 0.97809 0.0
C755 C 0.5271 0.06922 0.95768 0.0
C756 C 0.55102 0.11683 0.9668 0.0
C757 C 0.55412 0.12153 0.93478 0.0
C758 C 0.54444 0.09894 0.91463 0.0
C759 C 0.53063 0.07345 0.92593 0.0
H760 H 0.89929 0.78528 0.4469 0.0
H761 H 0.89491 0.822 0.35688 0.0
H762 H 0.92372 0.8297 0.46643 0.0
H763 H 0.9182 0.86731 0.37664 0.0
H764 H 0.98209 0.93838 0.41734 0.0
H765 H 0.96106 0.89312 0.39531 0.0
H766 H 0.91299 0.87573 0.48067 0.0
H767 H 0.93497 0.91988 0.50284 0.0
C768 C 0.90341 0.80305 0.43135 0.0
C769 C 0.895 0.80031 0.40048 0.0
C770 C 0.91725 0.82866 0.44256 0.0
C771 C 0.92258 0.85249 0.42334 0.0
C772 C 0.91474 0.84947 0.39214 0.0
C773 C 0.90127 0.82356 0.38079 0.0
C774 C 0.96704 0.9248 0.43132 0.0
C775 C 0.96043 0.93265 0.46193 0.0
C776 C 0.95485 0.89888 0.41866 0.0
C777 C 0.93547 0.88041 0.43623 0.0
C778 C 0.92843 0.8888 0.46661 0.0
C779 C 0.94091 0.91436 0.47932 0.0
H780 H 0.39398 0.73476 0.60421 0.0
H781 H 0.31312 0.68055 0.60144 0.0
H782 H 0.42208 0.69385 0.59136 0.0
H783 H 0.3412 0.63901 0.58992 0.0
H784 H 0.39992 0.57624 0.54066 0.0
H785 H 0.37002 0.6161 0.55274 0.0
H786 H 0.43772 0.65241 0.61346 0.0
H787 H 0.46812 0.61318 0.59999 0.0
C788 C 0.38229 0.71395 0.60083 0.0
C789 C 0.35147 0.71069 0.60378 0.0
C790 C 0.39836 0.69041 0.59381 0.0
C791 C 0.38402 0.66292 0.59007 0.0
C792 C 0.35301 0.65984 0.59237 0.0
C793 C 0.33688 0.68357 0.59896 0.0
C794 C 0.40824 0.59266 0.55679 0.0
C795 C 0.43635 0.59178 0.56932 0.0
C796 C 0.39106 0.61548 0.56383 0.0
C797 C 0.4015 0.63773 0.58386 0.0
C798 C 0.42923 0.63609 0.59732 0.0
C799 C 0.44657 0.61348 0.58991 0.0
H800 H 0.88766 0.83117 0.70214 0.0
H801 H 0.83638 0.90477 0.71413 0.0
H802 H 0.92352 0.85949 0.67089 0.0
H803 H 0.87075 0.93223 0.68085 0.0
H804 H 0.94787 0.98493 0.64373 0.0
H805 H 0.91836 0.95521 0.68011 0.0
H806 H 0.93075 0.88062 0.62246 0.0
H807 H 0.96156 0.9102 0.58723 0.0
C808 C 0.88388 0.85331 0.69796 0.0
C809 C 0.85912 0.86567 0.7108 0.0
C810 C 0.90432 0.86948 0.67974 0.0
C811 C 0.90023 0.89827 0.67356 0.0
C812 C 0.87504 0.91034 0.68571 0.0
C813 C 0.85489 0.89434 0.70429 0.0
C814 C 0.94475 0.96207 0.63933 0.0
C815 C 0.95676 0.94979 0.61275 0.0
C816 C 0.92757 0.94507 0.6599 0.0
C817 C 0.92162 0.91558 0.6539 0.0
C818 C 0.93499 0.90317 0.628 0.0
C819 C 0.95261 0.92011 0.60773 0.0
H820 H 0.63396 0.17585 0.20247 0.0
H821 H 0.71582 0.14809 0.16471 0.0
H822 H 0.60654 0.14432 0.16638 0.0
H823 H 0.68804 0.11601 0.1286 0.0
H824 H 0.62018 0.08419 0.05087 0.0
H825 H 0.65126 0.11748 0.08291 0.0
H826 H 0.60057 0.08982 0.16355 0.0
H827 H 0.56983 0.05671 0.13184 0.0
C828 C 0.64614 0.16342 0.18604 0.0
C829 C 0.67706 0.16448 0.18638 0.0
C830 C 0.6304 0.14513 0.16563 0.0
C831 C 0.6452 0.12756 0.14499 0.0
C832 C 0.67616 0.1294 0.14431 0.0
C833 C 0.69198 0.14759 0.16502 0.0
C834 C 0.61595 0.08514 0.07549 0.0
C835 C 0.5926 0.06805 0.08894 0.0
C836 C 0.63371 0.10407 0.09375 0.0
C837 C 0.62803 0.10638 0.12558 0.0
C838 C 0.60511 0.08875 0.13899 0.0
C839 C 0.58764 0.06971 0.12087 0.0
H840 H 0.36001 0.59657 0.32664 0.0
H841 H 0.4464 0.61265 0.28481 0.0
H842 H 0.38179 0.57451 0.3703 0.0
H843 H 0.46834 0.59101 0.32895 0.0
H844 H 0.49187 0.52143 0.39716 0.0
H845 H 0.47055 0.54347 0.35298 0.0
H846 H 0.41294 0.58777 0.41436 0.0
H847 H 0.43393 0.56568 0.45837 0.0
C848 C 0.38368 0.5954 0.32675 0.0
C849 C 0.40142 0.60633 0.30212 0.0
C850 C 0.39621 0.58296 0.35195 0.0
C851 C 0.42684 0.58092 0.35318 0.0
C852 C 0.44465 0.59196 0.32862 0.0
C853 C 0.43211 0.60465 0.30348 0.0
C854 C 0.47457 0.53577 0.40124 0.0
C855 C 0.46463 0.54168 0.43141 0.0
C856 C 0.46251 0.54859 0.3759 0.0
C857 C 0.44002 0.56743 0.38007 0.0
C858 C 0.42999 0.57315 0.41023 0.0
C859 C 0.44217 0.56054 0.43552 0.0
H860 H 0.12081 0.45558 0.79012 0.0
H861 H 0.0697 0.37942 0.82103 0.0
H862 H 0.10396 0.48168 0.83471 0.0
H863 H 0.04991 0.40643 0.86324 0.0
H864 H 0.03533 0.45228 0.95251 0.0
H865 H 0.05687 0.42624 0.91019 0.0
H866 H 0.06733 0.5045 0.85808 0.0
H867 H 0.04845 0.53073 0.90213 0.0
C868 C 0.10594 0.44425 0.80625 0.0
C869 C 0.0969 0.41507 0.80157 0.0
C870 C 0.09565 0.45956 0.83174 0.0
C871 C 0.07532 0.44648 0.85302 0.0
C872 C 0.06598 0.41742 0.84806 0.0
C873 C 0.07692 0.4019 0.82312 0.0
C874 C 0.04278 0.46393 0.93227 0.0
C875 C 0.04051 0.49354 0.9309 0.0
C876 C 0.05474 0.44891 0.90753 0.0
C877 C 0.06381 0.46294 0.88009 0.0
C878 C 0.06131 0.49275 0.87878 0.0
C879 C 0.05019 0.50789 0.90401 0.0
H880 H 0.62834 0.82663 0.91345 0.0
H881 H 0.68438 0.89761 0.87789 0.0
H882 H 0.59508 0.86031 0.93593 0.0
H883 H 0.65085 0.93107 0.89955 0.0
H884 H 0.60471 0.98014 0.97748 0.0
H885 H 0.63677 0.94711 0.95215 0.0
H886 H 0.56049 0.89561 0.91981 0.0
H887 H 0.5284 0.92824 0.94526 0.0
C888 C 0.63337 0.84937 0.91022 0.0
C889 C 0.65884 0.85948 0.89383 0.0
C890 C 0.61429 0.86862 0.92288 0.0
C891 C 0.62049 0.89829 0.91954 0.0
C892 C 0.6457 0.90834 0.90273 0.0
C893 C 0.66467 0.88914 0.88999 0.0
C894 C 0.59477 0.96187 0.96484 0.0
C895 C 0.564 0.95684 0.96349 0.0
C896 C 0.61313 0.94303 0.95024 0.0
C897 C 0.60107 0.91877 0.93412 0.0
C898 C 0.57036 0.91395 0.9324 0.0
C899 C 0.55202 0.93281 0.94686 0.0
H900 H 0.85677 0.16768 0.42599 0.0
H901 H 0.82016 0.08823 0.3853 0.0
H902 H 0.88889 0.14091 0.45731 0.0
H903 H 0.8528 0.06178 0.41593 0.0
H904 H 0.94044 0.03001 0.44658 0.0
H905 H 0.90787 0.058 0.41731 0.0
H906 H 0.88508 0.10407 0.50033 0.0
H907 H 0.91777 0.07592 0.52973 0.0
C908 C 0.85536 0.14455 0.42388 0.0
C909 C 0.83604 0.13014 0.4029 0.0
C910 C 0.87382 0.12926 0.44176 0.0
C911 C 0.87348 0.09933 0.4388 0.0
C912 C 0.85387 0.0849 0.41825 0.0
C913 C 0.83526 0.1001 0.40063 0.0
C914 C 0.92851 0.04614 0.45855 0.0
C915 C 0.93142 0.05075 0.49039 0.0
C916 C 0.90979 0.06205 0.44185 0.0
C917 C 0.89385 0.08306 0.45661 0.0
C918 C 0.89723 0.08808 0.48839 0.0
C919 C 0.91577 0.07192 0.50519 0.0
H920 H 0.24012 0.61301 0.04825 0.0
H921 H 0.19909 0.61826 0.13842 0.0
H922 H 0.19428 0.58973 0.02793 0.0
H923 H 0.15322 0.59532 0.11804 0.0
H924 H 0.06868 0.58685 0.05905 0.0
H925 H 0.11502 0.60937 0.07838 0.0
H926 H 0.16206 0.54168 0.0365 0.0
H927 H 0.11558 0.51876 0.01748 0.0
C928 C 0.22128 0.60923 0.06367 0.0
C929 C 0.22316 0.61745 0.09491 0.0
C930 C 0.19514 0.59578 0.0521 0.0
C931 C 0.17017 0.59079 0.07139 0.0
C932 C 0.17205 0.59907 0.1026 0.0
C933 C 0.19833 0.61202 0.11429 0.0
C934 C 0.08889 0.5768 0.05381 0.0
C935 C 0.08842 0.55099 0.0367 0.0
C936 C 0.1154 0.58962 0.06506 0.0
C937 C 0.14213 0.57724 0.05902 0.0
C938 C 0.1418 0.55176 0.04139 0.0
C939 C 0.11518 0.53861 0.03061 0.0
H940 H 0.29275 0.45813 0.61761 0.0
H941 H 0.31394 0.37132 0.59693 0.0
H942 H 0.33748 0.47623 0.5903 0.0
H943 H 0.35807 0.38962 0.56877 0.0
H944 H 0.43869 0.49246 0.57024 0.0
H945 H 0.39268 0.47585 0.59657 0.0
H946 H 0.37152 0.41775 0.52058 0.0
H947 H 0.41742 0.43455 0.49414 0.0
C948 C 0.30695 0.44285 0.60747 0.0
C949 C 0.29959 0.41318 0.60965 0.0
C950 C 0.33254 0.45329 0.59167 0.0
C951 C 0.35124 0.43436 0.57732 0.0
C952 C 0.34386 0.40475 0.57923 0.0
C953 C 0.31847 0.39428 0.59533 0.0
C954 C 0.42407 0.47633 0.55907 0.0
C955 C 0.43164 0.46476 0.53018 0.0
C956 C 0.39771 0.46687 0.57409 0.0
C957 C 0.37856 0.44539 0.5607 0.0
C958 C 0.386 0.4341 0.53161 0.0
C959 C 0.41217 0.44383 0.51641 0.0
H960 H 0.82912 0.68099 0.93516 0.0
H961 H 0.90273 0.74455 0.93962 0.0
H962 H 0.8571 0.64766 0.96324 0.0
H963 H 0.93051 0.71167 0.9684 0.0
H964 H 0.98206 0.63018 0.96021 0.0
H965 H 0.95234 0.66939 0.94841 0.0
H966 H 0.88302 0.63427 0.00937 0.0
H967 H 0.91289 0.59451 0.0208 0.0
C968 C 0.85092 0.68809 0.94311 0.0
C969 C 0.86408 0.71499 0.9349 0.0
C970 C 0.86692 0.6691 0.95925 0.0
C971 C 0.8962 0.67691 0.96751 0.0
C972 C 0.90824 0.70486 0.9617 0.0
C973 C 0.89237 0.72367 0.94537 0.0
C974 C 0.96065 0.63106 0.97141 0.0
C975 C 0.9496 0.60931 0.99116 0.0
C976 C 0.9437 0.65365 0.9649 0.0
C977 C 0.91533 0.65496 0.97804 0.0
C978 C 0.90471 0.6337 0.99877 0.0
C979 C 0.92179 0.61105 1.00535 0.0
H980 H 0.47043 0.80164 0.1332 0.0
H981 H 0.38519 0.81794 0.09801 0.0
H982 H 0.49116 0.84631 0.11228 0.0
H983 H 0.40672 0.86134 0.07424 0.0
H984 H 0.44716 0.95351 0.0623 0.0
H985 H 0.42441 0.90826 0.08167 0.0
H986 H 0.50772 0.87025 0.06945 0.0
H987 H 0.53051 0.91601 0.0523 0.0
C988 C 0.45597 0.81461 0.12094 0.0
C989 C 0.42589 0.80587 0.11773 0.0
C990 C 0.46814 0.84021 0.10822 0.0
C991 C 0.45086 0.85776 0.09113 0.0
C992 C 0.42084 0.84884 0.0875 0.0
C993 C 0.40852 0.82346 0.10078 0.0
C994 C 0.46045 0.93535 0.0637 0.0
C995 C 0.49065 0.93832 0.05616 0.0
C996 C 0.44741 0.90925 0.07466 0.0
C997 C 0.46415 0.88529 0.0777 0.0
C998 C 0.49413 0.88819 0.06858 0.0
C999 C 0.50724 0.91441 0.05837 0.0
H1000 H 0.11217 0.22649 0.55923 0.0
H1001 H 0.08666 0.20488 0.65282 0.0
H1002 H 0.08765 0.18177 0.54098 0.0
H1003 H 0.06056 0.16063 0.63428 0.0
H1004 H 0.046 0.06922 0.59204 0.0
H1005 H 0.06874 0.11429 0.61269 0.0
H1006 H 0.04053 0.15843 0.53314 0.0
H1007 H 0.01882 0.11346 0.51218 0.0
C1008 C 0.10129 0.21222 0.57598 0.0
C1009 C 0.10164 0.21933 0.60758 0.0
C1010 C 0.08679 0.18666 0.56542 0.0
C1011 C 0.07194 0.16749 0.58609 0.0
C1012 C 0.072 0.17469 0.6177 0.0
C1013 C 0.08667 0.20028 0.6283 0.0
C1014 C 0.04455 0.08859 0.57908 0.0
C1015 C 0.0308 0.08765 0.55034 0.0
C1016 C 0.05747 0.1145 0.59098 0.0
C1017 C 0.05677 0.14009 0.5745 0.0
C1018 C 0.04217 0.13914 0.5462 0.0
C1019 C 0.02951 0.1133 0.53423 0.0
H1020 H 0.68466 0.3591 0.36191 0.0
H1021 H 0.66226 0.30731 0.44153 0.0
H1022 H 0.65061 0.39399 0.38005 0.0
H1023 H 0.62844 0.34231 0.45982 0.0
H1024 H 0.54401 0.39081 0.45825 0.0
H1025 H 0.58011 0.35771 0.44074 0.0
H1026 H 0.64377 0.42918 0.42398 0.0
H1027 H 0.60763 0.4623 0.44157 0.0
C1028 C 0.67265 0.35537 0.38343 0.0
C1029 C 0.67604 0.33053 0.40031 0.0
C1030 C 0.65331 0.37536 0.39387 0.0
C1031 C 0.63675 0.37071 0.4212 0.0
C1032 C 0.6407 0.34624 0.43848 0.0
C1033 C 0.66027 0.3264 0.42821 0.0
C1034 C 0.56566 0.39941 0.45064 0.0
C1035 C 0.57309 0.42904 0.4512 0.0
C1036 C 0.58637 0.3805 0.44088 0.0
C1037 C 0.61479 0.3909 0.43124 0.0
C1038 C 0.62199 0.42061 0.43119 0.0
C1039 C 0.60135 0.43952 0.44125 0.0
loop_
_geom_bond_atom_site_label_1
_geom_bond_atom_site_label_2
_geom_bond_distance
_geom_bond_site_symmetry_2
_ccdc_geom_bond_type
C0 C1 1.391 . S
C0 C4 1.391 . S
C0 H42 0.948 . S
C1 C0 1.391 . S
C1 C2 1.391 . S
C2 C1 1.391 . S
C2 H58 0.947 . S
C2 C59 1.392 . S
C3 C4 1.391 . S
C3 C7 1.397 . S
C3 C59 1.419 . S
C4 C0 1.391 . S
C4 C3 1.391 . S
C4 C5 1.399 . S
C5 C4 1.399 . S
C5 C8 1.396 . S
C5 C17 1.453 . S
C5 C18 1.684 . S
H6 C30 0.948 . S
C7 C3 1.397 . S
C7 C8 1.394 . S
C7 C26 1.723 . S
C8 C5 1.396 . S
C8 C7 1.394 . S
C8 C38 1.723 . S
H9 C32 0.947 . S
H10 C33 0.948 . S
H11 C39 0.982 . S
H12 C40 0.979 . S
H13 C40 0.980 . S
H14 C40 0.983 . S
H15 C39 0.979 . S
H16 C39 0.977 . S
C17 C5 1.453 . S
C17 H46 0.982 . S
C17 H47 0.979 . S
C17 H48 0.977 . S
C18 C5 1.684 . S
C18 H43 0.979 . S
C18 H44 0.980 . S
C18 H45 0.983 . S
C19 C20 1.391 . S
C19 C24 1.391 . S
C19 H49 0.948 . S
C20 C19 1.391 . S
C20 C21 1.391 . S
C21 C20 1.391 . S
C21 C22 1.392 . S
C21 H50 0.947 . S
C22 C21 1.392 . S
C22 C23 1.419 . S
C22 H51 0.948 . S
C23 C22 1.419 . S
C23 C24 1.391 . S
C23 C27 1.397 . S
C24 C19 1.391 . S
C24 C23 1.391 . S
C24 C25 1.399 . S
C25 C24 1.399 . S
C25 C26 1.396 . S
C25 C28 1.453 . S
C25 C29 1.684 . S
C26 C7 1.723 . S
C26 C25 1.396 . S
C26 C27 1.394 . S
C27 C23 1.397 . S
C27 C26 1.394 . S
C27 C37 1.723 . S
C28 C25 1.453 . S
C28 H52 0.982 . S
C28 H53 0.979 . S
C28 H54 0.977 . S
C29 C25 1.684 . S
C29 H55 0.979 . S
C29 H56 0.980 . S
C29 H57 0.983 . S
C30 H6 0.948 . S
C30 C31 1.391 . S
C30 C35 1.391 . S
C31 C30 1.391 . S
C31 C32 1.391 . S
C32 H9 0.947 . S
C32 C31 1.391 . S
C32 C33 1.392 . S
C33 H10 0.948 . S
C33 C32 1.392 . S
C33 C34 1.419 . S
C34 C33 1.419 . S
C34 C35 1.391 . S
C34 C38 1.397 . S
C35 C30 1.391 . S
C35 C34 1.391 . S
C35 C36 1.399 . S
C36 C35 1.399 . S
C36 C37 1.396 . S
C36 C39 1.453 . S
C36 C40 1.684 . S
C37 C27 1.723 . S
C37 C36 1.396 . S
C37 C38 1.394 . S
C38 C8 1.723 . S
C38 C34 1.397 . S
C38 C37 1.394 . S
C39 H11 0.982 . S
C39 H15 0.979 . S
C39 H16 0.977 . S
C39 C36 1.453 . S
C40 H12 0.979 . S
C40 H13 0.980 . S
C40 H14 0.983 . S
C40 C36 1.684 . S
H41 C59 0.948 . S
H42 C0 0.948 . S
H43 C18 0.979 . S
H44 C18 0.980 . S
H45 C18 0.983 . S
H46 C17 0.982 . S
H47 C17 0.979 . S
H48 C17 0.977 . S
H49 C19 0.948 . S
H50 C21 0.947 . S
H51 C22 0.948 . S
H52 C28 0.982 . S
H53 C28 0.979 . S
H54 C28 0.977 . S
H55 C29 0.979 . S
H56 C29 0.980 . S
H57 C29 0.983 . S
H58 C2 0.947 . S
C59 C2 1.392 . S
C59 C3 1.419 . S
C59 H41 0.948 . S
C60 C61 1.391 . S
C60 C64 1.391 . S
C60 H102 0.948 . S
C61 C60 1.391 . S
C61 C62 1.391 . S
C62 C61 1.391 . S
C62 H118 0.947 . S
C62 C119 1.392 . S
C63 C64 1.391 . S
C63 C67 1.397 . S
C63 C119 1.419 . S
C64 C60 1.391 . S
C64 C63 1.391 . S
C64 C65 1.399 . S
C65 C64 1.399 . S
C65 C68 1.396 . S
C65 C77 1.453 . S
C65 C78 1.684 . S
H66 C90 0.948 . S
C67 C63 1.397 . S
C67 C68 1.394 . S
C67 C86 1.723 . S
C68 C65 1.396 . S
C68 C67 1.394 . S
C68 C98 1.723 . S
H69 C92 0.947 . S
H70 C93 0.948 . S
H71 C99 0.982 . S
H72 C100 0.979 . S
H73 C100 0.980 . S
H74 C100 0.983 . S
H75 C99 0.979 . S
H76 C99 0.977 . S
C77 C65 1.453 . S
C77 H106 0.982 . S
C77 H107 0.979 . S
C77 H108 0.977 . S
C78 C65 1.684 . S
C78 H103 0.979 . S
C78 H104 0.980 . S
C78 H105 0.983 . S
C79 C80 1.391 . S
C79 C84 1.391 . S
C79 H109 0.948 . S
C80 C79 1.391 . S
C80 C81 1.391 . S
C81 C80 1.391 . S
C81 C82 1.392 . S
C81 H110 0.947 . S
C82 C81 1.392 . S
C82 C83 1.419 . S
C82 H111 0.948 . S
C83 C82 1.419 . S
C83 C84 1.391 . S
C83 C87 1.397 . S
C84 C79 1.391 . S
C84 C83 1.391 . S
C84 C85 1.399 . S
C85 C84 1.399 . S
C85 C86 1.396 . S
C85 C88 1.453 . S
C85 C89 1.684 . S
C86 C67 1.723 . S
C86 C85 1.396 . S
C86 C87 1.394 . S
C87 C83 1.397 . S
C87 C86 1.394 . S
C87 C97 1.723 . S
C88 C85 1.453 . S
C88 H112 0.982 . S
C88 H113 0.979 . S
C88 H114 0.977 . S
C89 C85 1.684 . S
C89 H115 0.979 . S
C89 H116 0.980 . S
C89 H117 0.983 . S
C90 H66 0.948 . S
C90 C91 1.391 . S
C90 C95 1.391 . S
C91 C90 1.391 . S
C91 C92 1.391 . S
C92 H69 0.947 . S
C92 C91 1.391 . S
C92 C93 1.392 . S
C93 H70 0.948 . S
C93 C92 1.392 . S
C93 C94 1.419 . S
C94 C93 1.419 . S
C94 C95 1.391 . S
C94 C98 1.397 . S
C95 C90 1.391 . S
C95 C94 1.391 . S
C95 C96 1.399 . S
C96 C95 1.399 . S
C96 C97 1.396 . S
C96 C99 1.453 . S
C96 C100 1.684 . S
C97 C87 1.723 . S
C97 C96 1.396 . S
C97 C98 1.394 . S
C98 C68 1.723 . S
C98 C94 1.397 . S
C98 C97 1.394 . S
C99 H71 0.982 . S
C99 H75 0.979 . S
C99 H76 0.977 . S
C99 C96 1.453 . S
C100 H72 0.979 . S
C100 H73 0.980 . S
C100 H74 0.983 . S
C100 C96 1.684 . S
H101 C119 0.948 . S
H102 C60 0.948 . S
H103 C78 0.979 . S
H104 C78 0.980 . S
H105 C78 0.983 . S
H106 C77 0.982 . S
H107 C77 0.979 . S
H108 C77 0.977 . S
H109 C79 0.948 . S
H110 C81 0.947 . S
H111 C82 0.948 . S
H112 C88 0.982 . S
H113 C88 0.979 . S
H114 C88 0.977 . S
H115 C89 0.979 . S
H116 C89 0.980 . S
H117 C89 0.983 . S
H118 C62 0.947 . S
C119 C62 1.392 . S
C119 C63 1.419 . S
C119 H101 0.948 . S
C120 C121 1.391 . S
C120 C124 1.391 . S
C120 H162 0.948 . S
C121 C120 1.391 . S
C121 C122 1.391 . S
C122 C121 1.391 . S
C122 H178 0.947 . S
C122 C179 1.392 . S
C123 C124 1.391 . S
C123 C127 1.397 . S
C123 C179 1.419 . S
C124 C120 1.391 . S
C124 C123 1.391 . S
C124 C125 1.399 . S
C125 C124 1.399 . S
C125 C128 1.396 . S
C125 C137 1.453 . S
C125 C138 1.684 . S
H126 C150 0.948 . S
C127 C123 1.397 . S
C127 C128 1.394 . S
C127 C146 1.723 . S
C128 C125 1.396 . S
C128 C127 1.394 . S
C128 C158 1.723 . S
H129 C152 0.947 . S
H130 C153 0.948 . S
H131 C159 0.982 . S
H132 C160 0.979 . S
H133 C160 0.980 . S
H134 C160 0.983 . S
H135 C159 0.979 . S
H136 C159 0.977 . S
C137 C125 1.453 . S
C137 H166 0.982 . S
C137 H167 0.979 . S
C137 H168 0.977 . S
C138 C125 1.684 . S
C138 H163 0.979 . S
C138 H164 0.980 . S
C138 H165 0.983 . S
C139 C140 1.391 . S
C139 C144 1.391 . S
C139 H169 0.948 . S
C140 C139 1.391 . S
C140 C141 1.391 . S
C141 C140 1.391 . S
C141 C142 1.392 . S
C141 H170 0.947 . S
C142 C141 1.392 . S
C142 C143 1.419 . S
C142 H171 0.948 . S
C143 C142 1.419 . S
C143 C144 1.391 . S
C143 C147 1.397 . S
C144 C139 1.391 . S
C144 C143 1.391 . S
C144 C145 1.399 . S
C145 C144 1.399 . S
C145 C146 1.396 . S
C145 C148 1.453 . S
C145 C149 1.684 . S
C146 C127 1.723 . S
C146 C145 1.396 . S
C146 C147 1.394 . S
C147 C143 1.397 . S
C147 C146 1.394 . S
C147 C157 1.723 . S
C148 C145 1.453 . S
C148 H172 0.982 . S
C148 H173 0.979 . S
C148 H174 0.977 . S
C149 C145 1.684 . S
C149 H175 0.979 . S
C149 H176 0.980 . S
C149 H177 0.983 . S
C150 H126 0.948 . S
C150 C151 1.391 . S
C150 C155 1.391 . S
C151 C150 1.391 . S
C151 C152 1.391 . S
C152 H129 0.947 . S
C152 C151 1.391 . S
C152 C153 1.392 . S
C153 H130 0.948 . S
C153 C152 1.392 . S
C153 C154 1.419 . S
C154 C153 1.419 . S
C154 C155 1.391 . S
C154 C158 1.397 . S
C155 C150 1.391 . S
C155 C154 1.391 . S
C155 C156 1.399 . S
C156 C155 1.399 . S
C156 C157 1.396 . S
C156 C159 1.453 . S
C156 C160 1.684 . S
C157 C147 1.723 . S
C157 C156 1.396 . S
C157 C158 1.394 . S
C158 C128 1.723 . S
C158 C154 1.397 . S
C158 C157 1.394 . S
C159 H131 0.982 . S
C159 H135 0.979 . S
C159 H136 0.977 . S
C159 C156 1.453 . S
C160 H132 0.979 . S
C160 H133 0.980 . S
C160 H134 0.983 . S
C160 C156 1.684 . S
H161 C179 0.948 . S
H162 C120 0.948 . S
H163 C138 0.979 . S
H164 C138 0.980 . S
H165 C138 0.983 . S
H166 C137 0.982 . S
H167 C137 0.979 . S
H168 C137 0.977 . S
H169 C139 0.948 . S
H170 C141 0.947 . S
H171 C142 0.948 . S
H172 C148 0.982 . S
H173 C148 0.979 . S
H174 C148 0.977 . S
H175 C149 0.979 . S
H176 C149 0.980 . S
H177 C149 0.983 . S
H178 C122 0.947 . S
C179 C122 1.392 . S
C179 C123 1.419 . S
C179 H161 0.948 . S
C180 C181 1.391 . S
C180 C184 1.391 . S
C180 H222 0.948 . S
C181 C180 1.391 . S
C181 C182 1.391 . S
C182 C181 1.391 . S
C182 H238 0.947 . S
C182 C239 1.392 . S
C183 C184 1.391 . S
C183 C187 1.397 . S
C183 C239 1.419 . S
C184 C180 1.391 . S
C184 C183 1.391 . S
C184 C185 1.399 . S
C185 C184 1.399 . S
C185 C188 1.396 . S
C185 C197 1.453 . S
C185 C198 1.684 . S
H186 C210 0.948 . S
C187 C183 1.397 . S
C187 C188 1.394 . S
C187 C206 1.723 . S
C188 C185 1.396 . S
C188 C187 1.394 . S
C188 C218 1.723 . S
H189 C212 0.947 . S
H190 C213 0.948 . S
H191 C219 0.982 . S
H192 C220 0.979 . S
H193 C220 0.980 . S
H194 C220 0.983 . S
H195 C219 0.979 . S
H196 C219 0.977 . S
C197 C185 1.453 . S
C197 H226 0.982 . S
C197 H227 0.979 . S
C197 H228 0.977 . S
C198 C185 1.684 . S
C198 H223 0.979 . S
C198 H224 0.980 . S
C198 H225 0.983 . S
C199 C200 1.391 . S
C199 C204 1.391 . S
C199 H229 0.948 . S
C200 C199 1.391 . S
C200 C201 1.391 . S
C201 C200 1.391 . S
C201 C202 1.392 . S
C201 H230 0.947 . S
C202 C201 1.392 . S
C202 C203 1.419 . S
C202 H231 0.948 . S
C203 C202 1.419 . S
C203 C204 1.391 . S
C203 C207 1.397 . S
C204 C199 1.391 . S
C204 C203 1.391 . S
C204 C205 1.399 . S
C205 C204 1.399 . S
C205 C206 1.396 . S
C205 C208 1.453 . S
C205 C209 1.684 . S
C206 C187 1.723 . S
C206 C205 1.396 . S
C206 C207 1.394 . S
C207 C203 1.397 . S
C207 C206 1.394 . S
C207 C217 1.723 . S
C208 C205 1.453 . S
C208 H232 0.982 . S
C208 H233 0.979 . S
C208 H234 0.977 . S
C209 C205 1.684 . S
C209 H235 0.979 . S
C209 H236 0.980 . S
C209 H237 0.983 . S
C210 H186 0.948 . S
C210 C211 1.391 . S
C210 C215 1.391 . S
C211 C210 1.391 . S
C211 C212 1.391 . S
C212 H189 0.947 . S
C212 C211 1.391 . S
C212 C213 1.392 . S
C213 H190 0.948 . S
C213 C212 1.392 . S
C213 C214 1.419 . S
C214 C213 1.419 . S
C214 C215 1.391 . S
C214 C218 1.397 . S
C215 C210 1.391 . S
C215 C214 1.391 . S
C215 C216 1.399 . S
C216 C215 1.399 . S
C216 C217 1.396 . S
C216 C219 1.453 . S
C216 C220 1.684 . S
C217 C207 1.723 . S
C217 C216 1.396 . S
C217 C218 1.394 . S
C218 C188 1.723 . S
C218 C214 1.397 . S
C218 C217 1.394 . S
C219 H191 0.982 . S
C219 H195 0.979 . S
C219 H196 0.977 . S
C219 C216 1.453 . S
C220 H192 0.979 . S
C220 H193 0.980 . S
C220 H194 0.983 . S
C220 C216 1.684 . S
H221 C239 0.948 . S
H222 C180 0.948 . S
H223 C198 0.979 . S
H224 C198 0.980 . S
H225 C198 0.983 . S
H226 C197 0.982 . S
H227 C197 0.979 . S
H228 C197 0.977 . S
H229 C199 0.948 . S
H230 C201 0.947 . S
H231 C202 0.948 . S
H232 C208 0.982 . S
H233 C208 0.979 . S
H234 C208 0.977 . S
H235 C209 0.979 . S
H236 C209 0.980 . S
H237 C209 0.983 . S
H238 C182 0.947 . S
C239 C182 1.392 . S
C239 C183 1.419 . S
C239 H221 0.948 . S
C240 C241 1.391 . S
C240 C244 1.391 . S
C240 H282 0.948 . S
C241 C240 1.391 . S
C241 C242 1.391 . S
C242 C241 1.391 . S
C242 H298 0.947 . S
C242 C299 1.392 . S
C243 C244 1.391 . S
C243 C247 1.397 . S
C243 C299 1.419 . S
C244 C240 1.391 . S
C244 C243 1.391 . S
C244 C245 1.399 . S
C245 C244 1.399 . S
C245 C248 1.396 . S
C245 C257 1.453 . S
C245 C258 1.684 . S
H246 C270 0.948 . S
C247 C243 1.397 . S
C247 C248 1.394 . S
C247 C266 1.723 . S
C248 C245 1.396 . S
C248 C247 1.394 . S
C248 C278 1.723 . S
H249 C272 0.947 . S
H250 C273 0.948 . S
H251 C279 0.982 . S
H252 C280 0.979 . S
H253 C280 0.980 . S
H254 C280 0.983 . S
H255 C279 0.979 . S
H256 C279 0.977 . S
C257 C245 1.453 . S
C257 H286 0.982 . S
C257 H287 0.979 . S
C257 H288 0.977 . S
C258 C245 1.684 . S
C258 H283 0.979 . S
C258 H284 0.980 . S
C258 H285 0.983 . S
C259 C260 1.391 . S
C259 C264 1.391 . S
C259 H289 0.948 . S
C260 C259 1.391 . S
C260 C261 1.391 . S
C261 C260 1.391 . S
C261 C262 1.392 . S
C261 H290 0.947 . S
C262 C261 1.392 . S
C262 C263 1.419 . S
C262 H291 0.948 . S
C263 C262 1.419 . S
C263 C264 1.391 . S
C263 C267 1.397 . S
C264 C259 1.391 . S
C264 C263 1.391 . S
C264 C265 1.399 . S
C265 C264 1.399 . S
C265 C266 1.396 . S
C265 C268 1.453 . S
C265 C269 1.684 . S
C266 C247 1.723 . S
C266 C265 1.396 . S
C266 C267 1.394 . S
C267 C263 1.397 . S
C267 C266 1.394 . S
C267 C277 1.723 . S
C268 C265 1.453 . S
C268 H292 0.982 . S
C268 H293 0.979 . S
C268 H294 0.977 . S
C269 C265 1.684 . S
C269 H295 0.979 . S
C269 H296 0.980 . S
C269 H297 0.983 . S
C270 H246 0.948 . S
C270 C271 1.391 . S
C270 C275 1.391 . S
C271 C270 1.391 . S
C271 C272 1.391 . S
C272 H249 0.947 . S
C272 C271 1.391 . S
C272 C273 1.392 . S
C273 H250 0.948 . S
C273 C272 1.392 . S
C273 C274 1.419 . S
C274 C273 1.419 . S
C274 C275 1.391 . S
C274 C278 1.397 . S
C275 C270 1.391 . S
C275 C274 1.391 . S
C275 C276 1.399 . S
C276 C275 1.399 . S
C276 C277 1.396 . S
C276 C279 1.453 . S
C276 C280 1.684 . S
C277 C267 1.723 . S
C277 C276 1.396 . S
C277 C278 1.394 . S
C278 C248 1.723 . S
C278 C274 1.397 . S
C278 C277 1.394 . S
C279 H251 0.982 . S
C279 H255 0.979 . S
C279 H256 0.977 . S
C279 C276 1.453 . S
C280 H252 0.979 . S
C280 H253 0.980 . S
C280 H254 0.983 . S
C280 C276 1.684 . S
H281 C299 0.948 . S
H282 C240 0.948 . S
H283 C258 0.979 . S
H284 C258 0.980 . S
H285 C258 0.983 . S
H286 C257 0.982 . S
H287 C257 0.979 . S
H288 C257 0.977 . S
H289 C259 0.948 . S
H290 C261 0.947 . S
H291 C262 0.948 . S
H292 C268 0.982 . S
H293 C268 0.979 . S
H294 C268 0.977 . S
H295 C269 0.979 . S
H296 C269 0.980 . S
H297 C269 0.983 . S
H298 C242 0.947 . S
C299 C242 1.392 . S
C299 C243 1.419 . S
C299 H281 0.948 . S
C300 C301 1.391 . S
C300 C304 1.391 . S
C300 H342 0.948 . S
C301 C300 1.391 . S
C301 C302 1.391 . S
C302 C301 1.391 . S
C302 H358 0.947 . S
C302 C359 1.392 . S
C303 C304 1.391 . S
C303 C307 1.397 . S
C303 C359 1.419 . S
C304 C300 1.391 . S
C304 C303 1.391 . S
C304 C305 1.399 . S
C305 C304 1.399 . S
C305 C308 1.396 . S
C305 C317 1.453 . S
C305 C318 1.684 . S
H306 C330 0.948 . S
C307 C303 1.397 . S
C307 C308 1.394 . S
C307 C326 1.723 . S
C308 C305 1.396 . S
C308 C307 1.394 . S
C308 C338 1.723 . S
H309 C332 0.947 . S
H310 C333 0.948 . S
H311 C339 0.982 . S
H312 C340 0.979 . S
H313 C340 0.980 . S
H314 C340 0.983 . S
H315 C339 0.979 . S
H316 C339 0.977 . S
C317 C305 1.453 . S
C317 H346 0.982 . S
C317 H347 0.979 . S
C317 H348 0.977 . S
C318 C305 1.684 . S
C318 H343 0.979 . S
C318 H344 0.980 . S
C318 H345 0.983 . S
C319 C320 1.391 . S
C319 C324 1.391 . S
C319 H349 0.948 . S
C320 C319 1.391 . S
C320 C321 1.391 . S
C321 C320 1.391 . S
C321 C322 1.392 . S
C321 H350 0.947 . S
C322 C321 1.392 . S
C322 C323 1.419 . S
C322 H351 0.948 . S
C323 C322 1.419 . S
C323 C324 1.391 . S
C323 C327 1.397 . S
C324 C319 1.391 . S
C324 C323 1.391 . S
C324 C325 1.399 . S
C325 C324 1.399 . S
C325 C326 1.396 . S
C325 C328 1.453 . S
C325 C329 1.684 . S
C326 C307 1.723 . S
C326 C325 1.396 . S
C326 C327 1.394 . S
C327 C323 1.397 . S
C327 C326 1.394 . S
C327 C337 1.723 . S
C328 C325 1.453 . S
C328 H352 0.982 . S
C328 H353 0.979 . S
C328 H354 0.977 . S
C329 C325 1.684 . S
C329 H355 0.979 . S
C329 H356 0.980 . S
C329 H357 0.983 . S
C330 H306 0.948 . S
C330 C331 1.391 . S
C330 C335 1.391 . S
C331 C330 1.391 . S
C331 C332 1.391 . S
C332 H309 0.947 . S
C332 C331 1.391 . S
C332 C333 1.392 . S
C333 H310 0.948 . S
C333 C332 1.392 . S
C333 C334 1.419 . S
C334 C333 1.419 . S
C334 C335 1.391 . S
C334 C338 1.397 . S
C335 C330 1.391 . S
C335 C334 1.391 . S
C335 C336 1.399 . S
C336 C335 1.399 . S
C336 C337 1.396 . S
C336 C339 1.453 . S
C336 C340 1.684 . S
C337 C327 1.723 . S
C337 C336 1.396 . S
C337 C338 1.394 . S
C338 C308 1.723 . S
C338 C334 1.397 . S
C338 C337 1.394 . S
C339 H311 0.982 . S
C339 H315 0.979 . S
C339 H316 0.977 . S
C339 C336 1.453 . S
C340 H312 0.979 . S
C340 H313 0.980 . S
C340 H314 0.983 . S
C340 C336 1.684 . S
H341 C359 0.948 . S
H342 C300 0.948 . S
H343 C318 0.979 . S
H344 C318 0.980 . S
H345 C318 0.983 . S
H346 C317 0.982 . S
H347 C317 0.979 . S
H348 C317 0.977 . S
H349 C319 0.948 . S
H350 C321 0.947 . S
H351 C322 0.948 . S
H352 C328 0.982 . S
H353 C328 0.979 . S
H354 C328 0.977 . S
H355 C329 0.979 . S
H356 C329 0.980 . S
H357 C329 0.983 . S
H358 C302 0.947 . S
C359 C302 1.392 . S
C359 C303 1.419 . S
C359 H341 0.948 . S
C360 C361 1.391 . S
C360 C364 1.391 . S
C360 H402 0.948 . S
C361 C360 1.391 . S
C361 C362 1.391 . S
C362 C361 1.391 . S
C362 H418 0.947 . S
C362 C419 1.392 . S
C363 C364 1.391 . S
C363 C367 1.397 . S
C363 C419 1.419 . S
C364 C360 1.391 . S
C364 C363 1.391 . S
C364 C365 1.399 . S
C365 C364 1.399 . S
C365 C368 1.396 . S
C365 C377 1.453 . S
C365 C378 1.684 . S
H366 C390 0.948 . S
C367 C363 1.397 . S
C367 C368 1.394 . S
C367 C386 1.723 . S
C368 C365 1.396 . S
C368 C367 1.394 . S
C368 C398 1.723 . S
H369 C392 0.947 . S
H370 C393 0.948 . S
H371 C399 0.982 . S
H372 C400 0.979 . S
H373 C400 0.980 . S
H374 C400 0.983 . S
H375 C399 0.979 . S
H376 C399 0.977 . S
C377 C365 1.453 . S
C377 H406 0.982 . S
C377 H407 0.979 . S
C377 H408 0.977 . S
C378 C365 1.684 . S
C378 H403 0.979 . S
C378 H404 0.980 . S
C378 H405 0.983 . S
C379 C380 1.391 . S
C379 C384 1.391 . S
C379 H409 0.948 . S
C380 C379 1.391 . S
C380 C381 1.391 . S
C381 C380 1.391 . S
C381 C382 1.392 . S
C381 H410 0.947 . S
C382 C381 1.392 . S
C382 C383 1.419 . S
C382 H411 0.948 . S
C383 C382 1.419 . S
C383 C384 1.391 . S
C383 C387 1.397 . S
C384 C379 1.391 . S
C384 C383 1.391 . S
C384 C385 1.399 . S
C385 C384 1.399 . S
C385 C386 1.396 . S
C385 C388 1.453 . S
C385 C389 1.684 . S
C386 C367 1.723 . S
C386 C385 1.396 . S
C386 C387 1.394 . S
C387 C383 1.397 . S
C387 C386 1.394 . S
C387 C397 1.723 . S
C388 C385 1.453 . S
C388 H412 0.982 . S
C388 H413 0.979 . S
C388 H414 0.977 . S
C389 C385 1.684 . S
C389 H415 0.979 . S
C389 H416 0.980 . S
C389 H417 0.983 . S
C390 H366 0.948 . S
C390 C391 1.391 . S
C390 C395 1.391 . S
C391 C390 1.391 . S
C391 C392 1.391 . S
C392 H369 0.947 . S
C392 C391 1.391 . S
C392 C393 1.392 . S
C393 H370 0.948 . S
C393 C392 1.392 . S
C393 C394 1.419 . S
C394 C393 1.419 . S
C394 C395 1.391 . S
C394 C398 1.397 . S
C395 C390 1.391 . S
C395 C394 1.391 . S
C395 C396 1.399 . S
C396 C395 1.399 . S
C396 C397 1.396 . S
C396 C399 1.453 . S
C396 C400 1.684 . S
C397 C387 1.723 . S
C397 C396 1.396 . S
C397 C398 1.394 . S
C398 C368 1.723 . S
C398 C394 1.397 . S
C398 C397 1.394 . S
C399 H371 0.982 . S
C399 H375 0.979 . S
C399 H376 0.977 . S
C399 C396 1.453 . S
C400 H372 0.979 . S
C400 H373 0.980 . S
C400 H374 0.983 . S
C400 C396 1.684 . S
H401 C419 0.948 . S
H402 C360 0.948 . S
H403 C378 0.979 . S
H404 C378 0.980 . S
H405 C378 0.983 . S
H406 C377 0.982 . S
H407 C377 0.979 . S
H408 C377 0.977 . S
H409 C379 0.948 . S
H410 C381 0.947 . S
H411 C382 0.948 . S
H412 C388 0.982 . S
H413 C388 0.979 . S
H414 C388 0.977 . S
H415 C389 0.979 . S
H416 C389 0.980 . S
H417 C389 0.983 . S
H418 C362 0.947 . S
C419 C362 1.392 . S
C419 C363 1.419 . S
C419 H401 0.948 . S
C420 C421 1.391 . S
C420 C424 1.391 . S
C420 H462 0.948 . S
C421 C420 1.391 . S
C421 C422 1.391 . S
C422 C421 1.391 . S
C422 H478 0.947 . S
C422 C479 1.392 . S
C423 C424 1.391 . S
C423 C427 1.397 . S
C423 C479 1.419 . S
C424 C420 1.391 . S
C424 C423 1.391 . S
C424 C425 1.399 . S
C425 C424 1.399 . S
C425 C428 1.396 . S
C425 C437 1.453 . S
C425 C438 1.684 . S
H426 C450 0.948 . S
C427 C423 1.397 . S
C427 C428 1.394 . S
C427 C446 1.723 . S
C428 C425 1.396 . S
C428 C427 1.394 . S
C428 C458 1.723 . S
H429 C452 0.947 . S
H430 C453 0.948 . S
H431 C459 0.982 . S
H432 C460 0.979 . S
H433 C460 0.980 . S
H434 C460 0.983 . S
H435 C459 0.979 . S
H436 C459 0.977 . S
C437 C425 1.453 . S
C437 H466 0.982 . S
C437 H467 0.979 . S
C437 H468 0.977 . S
C438 C425 1.684 . S
C438 H463 0.979 . S
C438 H464 0.980 . S
C438 H465 0.983 . S
C439 C440 1.391 . S
C439 C444 1.391 . S
C439 H469 0.948 . S
C440 C439 1.391 . S
C440 C441 1.391 . S
C441 C440 1.391 . S
C441 C442 1.392 . S
C441 H470 0.947 . S
C442 C441 1.392 . S
C442 C443 1.419 . S
C442 H471 0.948 . S
C443 C442 1.419 . S
C443 C444 1.391 . S
C443 C447 1.397 . S
C444 C439 1.391 . S
C444 C443 1.391 . S
C444 C445 1.399 . S
C445 C444 1.399 . S
C445 C446 1.396 . S
C445 C448 1.453 . S
C445 C449 1.684 . S
C446 C427 1.723 . S
C446 C445 1.396 . S
C446 C447 1.394 . S
C447 C443 1.397 . S
C447 C446 1.394 . S
C447 C457 1.723 . S
C448 C445 1.453 . S
C448 H472 0.982 . S
C448 H473 0.979 . S
C448 H474 0.977 . S
C449 C445 1.684 . S
C449 H475 0.979 . S
C449 H476 0.980 . S
C449 H477 0.983 . S
C450 H426 0.948 . S
C450 C451 1.391 . S
C450 C455 1.391 . S
C451 C450 1.391 . S
C451 C452 1.391 . S
C452 H429 0.947 . S
C452 C451 1.391 . S
C452 C453 1.392 . S
C453 H430 0.948 . S
C453 C452 1.392 . S
C453 C454 1.419 . S
C454 C453 1.419 . S
C454 C455 1.391 . S
C454 C458 1.397 . S
C455 C450 1.391 . S
C455 C454 1.391 . S
C455 C456 1.399 . S
C456 C455 1.399 . S
C456 C457 1.396 . S
C456 C459 1.453 . S
C456 C460 1.684 . S
C457 C447 1.723 . S
C457 C456 1.396 . S
C457 C458 1.394 . S
C458 C428 1.723 . S
C458 C454 1.397 . S
C458 C457 1.394 . S
C459 H431 0.982 . S
C459 H435 0.979 . S
C459 H436 0.977 . S
C459 C456 1.453 . S
C460 H432 0.979 . S
C460 H433 0.980 . S
C460 H434 0.983 . S
C460 C456 1.684 . S
H461 C479 0.948 . S
H462 C420 0.948 . S
H463 C438 0.979 . S
H464 C438 0.980 . S
H465 C438 0.983 . S
H466 C437 0.982 . S
H467 C437 0.979 . S
H468 C437 0.977 . S
H469 C439 0.948 . S
H470 C441 0.947 . S
H471 C442 0.948 . S
H472 C448 0.982 . S
H473 C448 0.979 . S
H474 C448 0.977 . S
H475 C449 0.979 . S
H476 C449 0.980 . S
H477 C449 0.983 . S
H478 C422 0.947 . S
C479 C422 1.392 . S
C479 C423 1.419 . S
C479 H461 0.948 . S
Dy480 O484 2.398 . S
Dy480 O485 2.491 . S
Dy480 O486 2.403 1_545 S
Dy480 O487 2.664 1_545 S
Dy480 O491 2.326 . S
Dy480 O495 2.310 1_455 S
Dy480 O496 2.351 1_445 S
C481 O492 1.185 . S
C481 O493 1.355 . S
C482 O484 1.185 . S
C482 O485 1.355 . S
Dy483 O487 2.310 1_655 S
Dy483 O490 2.351 1_665 S
Dy483 O492 2.398 . S
Dy483 O493 2.491 . S
Dy483 O494 2.403 1_565 S
Dy483 O495 2.664 1_565 S
Dy483 O497 2.326 . S
O484 Dy480 2.398 . S
O484 C482 1.185 . S
O485 Dy480 2.491 . S
O485 C482 1.355 . S
O486 Dy480 2.403 1_565 S
O486 C488 1.254 . S
O487 Dy480 2.664 1_565 S
O487 Dy483 2.310 1_455 S
O487 C488 1.268 . S
C488 O486 1.254 . S
C488 O487 1.268 . S
C489 O494 1.254 . S
C489 O495 1.268 . S
O490 Dy483 2.351 1_445 S
O490 C498 1.249 . S
O491 Dy480 2.326 . S
O491 C498 1.267 . S
O492 C481 1.185 . S
O492 Dy483 2.398 . S
O493 C481 1.355 . S
O493 Dy483 2.491 . S
O494 Dy483 2.403 1_545 S
O494 C489 1.254 . S
O495 Dy480 2.310 1_655 S
O495 Dy483 2.664 1_545 S
O495 C489 1.268 . S
O496 Dy480 2.351 1_665 S
O496 C499 1.249 . S
O497 Dy483 2.326 . S
O497 C499 1.267 . S
C498 O490 1.249 . S
C498 O491 1.267 . S
C499 O496 1.249 . S
C499 O497 1.267 . S
Dy500 O504 2.398 . S
Dy500 O505 2.491 . S
Dy500 O506 2.403 1_545 S
Dy500 O507 2.664 1_545 S
Dy500 O511 2.326 . S
Dy500 O515 2.310 1_554 S
Dy500 O516 2.351 1_544 S
C501 O512 1.185 . S
C501 O513 1.355 . S
C502 O504 1.185 . S
C502 O505 1.355 . S
Dy503 O507 2.334 1_556 S
Dy503 O510 2.331 1_566 S
Dy503 O512 2.403 . S
Dy503 O513 2.525 . S
Dy503 O514 2.373 1_565 S
Dy503 O515 2.646 1_565 S
Dy503 O517 2.342 . S
O504 Dy500 2.398 . S
O504 C502 1.185 . S
O505 Dy500 2.491 . S
O505 C502 1.355 . S
O506 Dy500 2.403 1_565 S
O506 C508 1.254 . S
O507 Dy500 2.664 1_565 S
O507 Dy503 2.334 1_554 S
O507 C508 1.268 . S
C508 O506 1.254 . S
C508 O507 1.268 . S
C509 O514 1.254 . S
C509 O515 1.268 . S
O510 Dy503 2.331 1_544 S
O510 C518 1.249 . S
O511 Dy500 2.326 . S
O511 C518 1.267 . S
O512 C501 1.185 . S
O512 Dy503 2.403 . S
O513 C501 1.355 . S
O513 Dy503 2.525 . S
O514 Dy503 2.373 1_545 S
O514 C509 1.254 . S
O515 Dy500 2.310 1_556 S
O515 Dy503 2.646 1_545 S
O515 C509 1.268 . S
O516 Dy500 2.351 1_566 S
O516 C519 1.249 . S
O517 Dy503 2.342 . S
O517 C519 1.267 . S
C518 O510 1.249 . S
C518 O511 1.267 . S
C519 O516 1.249 . S
C519 O517 1.267 . S
Dy520 O524 2.398 . S
Dy520 O525 2.491 . S
Dy520 O526 2.403 . S
Dy520 O527 2.664 . S
Dy520 O531 2.326 . S
Dy520 O535 2.310 . S
Dy520 O536 2.351 . S
C521 O532 1.185 . S
C521 O533 1.355 . S
C522 O524 1.185 . S
C522 O525 1.355 . S
Dy523 O527 2.310 . S
Dy523 O530 2.351 . S
Dy523 O532 2.398 . S
Dy523 O533 2.491 . S
Dy523 O534 2.403 . S
Dy523 O535 2.664 . S
Dy523 O537 2.326 . S
O524 Dy520 2.398 . S
O524 C522 1.185 . S
O525 Dy520 2.491 . S
O525 C522 1.355 . S
O526 Dy520 2.403 . S
O526 C528 1.254 . S
O527 Dy520 2.664 . S
O527 Dy523 2.310 . S
O527 C528 1.268 . S
C528 O526 1.254 . S
C528 O527 1.268 . S
C529 O534 1.254 . S
C529 O535 1.268 . S
O530 Dy523 2.351 . S
O530 C538 1.249 . S
O531 Dy520 2.326 . S
O531 C538 1.267 . S
O532 C521 1.185 . S
O532 Dy523 2.398 . S
O533 C521 1.355 . S
O533 Dy523 2.491 . S
O534 Dy523 2.403 . S
O534 C529 1.254 . S
O535 Dy520 2.310 . S
O535 Dy523 2.664 . S
O535 C529 1.268 . S
O536 Dy520 2.351 . S
O536 C539 1.249 . S
O537 Dy523 2.326 . S
O537 C539 1.267 . S
C538 O530 1.249 . S
C538 O531 1.267 . S
C539 O536 1.249 . S
C539 O537 1.267 . S
Dy540 O544 2.398 . S
Dy540 O545 2.491 . S
Dy540 O546 2.403 1_455 S
Dy540 O547 2.664 1_455 S
Dy540 O551 2.326 . S
Dy540 O555 2.310 1_554 S
Dy540 O556 2.351 1_454 S
C541 O552 1.185 . S
C541 O553 1.355 . S
C542 O544 1.185 . S
C542 O545 1.355 . S
Dy543 O547 2.310 1_556 S
Dy543 O550 2.351 1_656 S
Dy543 O552 2.398 . S
Dy543 O553 2.491 . S
Dy543 O554 2.403 1_655 S
Dy543 O555 2.664 1_655 S
Dy543 O557 2.326 . S
O544 Dy540 2.398 . S
O544 C542 1.185 . S
O545 Dy540 2.491 . S
O545 C542 1.355 . S
O546 Dy540 2.403 1_655 S
O546 C548 1.254 . S
O547 Dy540 2.664 1_655 S
O547 Dy543 2.310 1_554 S
O547 C548 1.268 . S
C548 O546 1.254 . S
C548 O547 1.268 . S
C549 O554 1.254 . S
C549 O555 1.268 . S
O550 Dy543 2.351 1_454 S
O550 C558 1.249 . S
O551 Dy540 2.326 . S
O551 C558 1.267 . S
O552 C541 1.185 . S
O552 Dy543 2.398 . S
O553 C541 1.355 . S
O553 Dy543 2.491 . S
O554 Dy543 2.403 1_455 S
O554 C549 1.254 . S
O555 Dy540 2.310 1_556 S
O555 Dy543 2.664 1_455 S
O555 C549 1.268 . S
O556 Dy540 2.351 1_656 S
O556 C559 1.249 . S
O557 Dy543 2.326 . S
O557 C559 1.267 . S
C558 O550 1.249 . S
C558 O551 1.267 . S
C559 O556 1.249 . S
C559 O557 1.267 . S
H560 C568 0.950 . S
H561 C573 0.950 . S
H562 C570 0.950 . S
H563 C572 0.950 . S
H564 C574 0.950 . S
H565 C576 0.950 . S
H566 C578 0.950 . S
H567 C579 0.950 . S
C568 H560 0.950 . S
C568 C569 1.386 . S
C568 C570 1.391 . S
C569 C568 1.386 . S
C569 C573 1.393 . S
C570 H562 0.950 . S
C570 C568 1.391 . S
C570 C571 1.400 . S
C571 C570 1.400 . S
C571 C572 1.398 . S
C571 C577 1.491 . S
C572 H563 0.950 . S
C572 C571 1.398 . S
C572 C573 1.391 . S
C573 H561 0.950 . S
C573 C569 1.393 . S
C573 C572 1.391 . S
C574 H564 0.950 . S
C574 C575 1.386 . S
C574 C576 1.391 . S
C575 C574 1.386 . S
C575 C579 1.393 . S
C576 H565 0.950 . S
C576 C574 1.391 . S
C576 C577 1.400 . S
C577 C571 1.491 . S
C577 C576 1.400 . S
C577 C578 1.398 . S
C578 H566 0.950 . S
C578 C577 1.398 . S
C578 C579 1.391 . S
C579 H567 0.950 . S
C579 C575 1.393 . S
C579 C578 1.391 . S
H580 C588 0.950 . S
H581 C593 0.950 . S
H582 C590 0.950 . S
H583 C592 0.950 . S
H584 C594 0.950 . S
H585 C596 0.950 . S
H586 C598 0.950 . S
H587 C599 0.950 . S
C588 H580 0.950 . S
C588 C589 1.386 . S
C588 C590 1.391 . S
C589 C588 1.386 . S
C589 C593 1.393 . S
C590 H582 0.950 . S
C590 C588 1.391 . S
C590 C591 1.400 . S
C591 C590 1.400 . S
C591 C592 1.398 . S
C591 C597 1.491 . S
C592 H583 0.950 . S
C592 C591 1.398 . S
C592 C593 1.391 . S
C593 H581 0.950 . S
C593 C589 1.393 . S
C593 C592 1.391 . S
C594 H584 0.950 . S
C594 C595 1.386 . S
C594 C596 1.391 . S
C595 C594 1.386 . S
C595 C599 1.393 . S
C596 H585 0.950 . S
C596 C594 1.391 . S
C596 C597 1.400 . S
C597 C591 1.491 . S
C597 C596 1.400 . S
C597 C598 1.398 . S
C598 H586 0.950 . S
C598 C597 1.398 . S
C598 C599 1.391 . S
C599 H587 0.950 . S
C599 C595 1.393 . S
C599 C598 1.391 . S
H600 C608 0.950 . S
H601 C613 0.950 . S
H602 C610 0.950 . S
H603 C612 0.950 . S
H604 C614 0.950 . S
H605 C616 0.950 . S
H606 C618 0.950 . S
H607 C619 0.950 . S
C608 H600 0.950 . S
C608 C609 1.386 . S
C608 C610 1.391 . S
C609 C608 1.386 . S
C609 C613 1.393 . S
C610 H602 0.950 . S
C610 C608 1.391 . S
C610 C611 1.400 . S
C611 C610 1.400 . S
C611 C612 1.398 . S
C611 C617 1.491 . S
C612 H603 0.950 . S
C612 C611 1.398 . S
C612 C613 1.391 . S
C613 H601 0.950 . S
C613 C609 1.393 . S
C613 C612 1.391 . S
C614 H604 0.950 . S
C614 C615 1.386 . S
C614 C616 1.391 . S
C615 C614 1.386 . S
C615 C619 1.393 . S
C616 H605 0.950 . S
C616 C614 1.391 . S
C616 C617 1.400 . S
C617 C611 1.491 . S
C617 C616 1.400 . S
C617 C618 1.398 . S
C618 H606 0.950 . S
C618 C617 1.398 . S
C618 C619 1.391 . S
C619 H607 0.950 . S
C619 C615 1.393 . S
C619 C618 1.391 . S
H620 C628 0.950 . S
H621 C633 0.950 . S
H622 C630 0.950 . S
H623 C632 0.950 . S
H624 C634 0.950 . S
H625 C636 0.950 . S
H626 C638 0.950 . S
H627 C639 0.950 . S
C628 H620 0.950 . S
C628 C629 1.386 . S
C628 C630 1.391 . S
C629 C628 1.386 . S
C629 C633 1.393 . S
C630 H622 0.950 . S
C630 C628 1.391 . S
C630 C631 1.400 . S
C631 C630 1.400 . S
C631 C632 1.398 . S
C631 C637 1.491 . S
C632 H623 0.950 . S
C632 C631 1.398 . S
C632 C633 1.391 . S
C633 H621 0.950 . S
C633 C629 1.393 . S
C633 C632 1.391 . S
C634 H624 0.950 . S
C634 C635 1.386 . S
C634 C636 1.391 . S
C635 C634 1.386 . S
C635 C639 1.393 . S
C636 H625 0.950 . S
C636 C634 1.391 . S
C636 C637 1.400 . S
C637 C631 1.491 . S
C637 C636 1.400 . S
C637 C638 1.398 . S
C638 H626 0.950 . S
C638 C637 1.398 . S
C638 C639 1.391 . S
C639 H627 0.950 . S
C639 C635 1.393 . S
C639 C638 1.391 . S
H640 C648 0.950 . S
H641 C653 0.950 . S
H642 C650 0.950 . S
H643 C652 0.950 . S
H644 C654 0.950 . S
H645 C656 0.950 . S
H646 C658 0.950 . S
H647 C659 0.950 . S
C648 H640 0.950 . S
C648 C649 1.386 . S
C648 C650 1.391 . S
C649 C648 1.386 . S
C649 C653 1.393 . S
C650 H642 0.950 . S
C650 C648 1.391 . S
C650 C651 1.400 . S
C651 C650 1.400 . S
C651 C652 1.398 . S
C651 C657 1.491 . S
C652 H643 0.950 . S
C652 C651 1.398 . S
C652 C653 1.391 . S
C653 H641 0.950 . S
C653 C649 1.393 . S
C653 C652 1.391 . S
C654 H644 0.950 . S
C654 C655 1.386 . S
C654 C656 1.391 . S
C655 C654 1.386 . S
C655 C659 1.393 . S
C656 H645 0.950 . S
C656 C654 1.391 . S
C656 C657 1.400 . S
C657 C651 1.491 . S
C657 C656 1.400 . S
C657 C658 1.398 . S
C658 H646 0.950 . S
C658 C657 1.398 . S
C658 C659 1.391 . S
C659 H647 0.950 . S
C659 C655 1.393 . S
C659 C658 1.391 . S
H660 C668 0.950 . S
H661 C673 0.950 . S
H662 C670 0.950 . S
H663 C672 0.950 . S
H664 C674 0.950 . S
H665 C676 0.950 . S
H666 C678 0.950 . S
H667 C679 0.950 . S
C668 H660 0.950 . S
C668 C669 1.386 . S
C668 C670 1.391 . S
C669 C668 1.386 . S
C669 C673 1.393 . S
C670 H662 0.950 . S
C670 C668 1.391 . S
C670 C671 1.400 . S
C671 C670 1.400 . S
C671 C672 1.398 . S
C671 C677 1.491 . S
C672 H663 0.950 . S
C672 C671 1.398 . S
C672 C673 1.391 . S
C673 H661 0.950 . S
C673 C669 1.393 . S
C673 C672 1.391 . S
C674 H664 0.950 . S
C674 C675 1.386 . S
C674 C676 1.391 . S
C675 C674 1.386 . S
C675 C679 1.393 . S
C676 H665 0.950 . S
C676 C674 1.391 . S
C676 C677 1.400 . S
C677 C671 1.491 . S
C677 C676 1.400 . S
C677 C678 1.398 . S
C678 H666 0.950 . S
C678 C677 1.398 . S
C678 C679 1.391 . S
C679 H667 0.950 . S
C679 C675 1.393 . S
C679 C678 1.391 . S
H680 C688 0.950 . S
H681 C693 0.950 . S
H682 C690 0.950 . S
H683 C692 0.950 . S
H684 C694 0.950 . S
H685 C696 0.950 . S
H686 C698 0.950 . S
H687 C699 0.950 1_554 S
C688 H680 0.950 . S
C688 C689 1.386 . S
C688 C690 1.391 . S
C689 C688 1.386 . S
C689 C693 1.393 . S
C690 H682 0.950 . S
C690 C688 1.391 . S
C690 C691 1.400 . S
C691 C690 1.400 . S
C691 C692 1.398 . S
C691 C697 1.491 . S
C692 H683 0.950 . S
C692 C691 1.398 . S
C692 C693 1.391 . S
C693 H681 0.950 . S
C693 C689 1.393 . S
C693 C692 1.391 . S
C694 H684 0.950 . S
C694 C695 1.386 . S
C694 C696 1.391 . S
C695 C694 1.386 . S
C695 C699 1.393 . S
C696 H685 0.950 . S
C696 C694 1.391 . S
C696 C697 1.400 . S
C697 C691 1.491 . S
C697 C696 1.400 . S
C697 C698 1.398 . S
C698 H686 0.950 . S
C698 C697 1.398 . S
C698 C699 1.391 . S
C699 H687 0.950 1_556 S
C699 C695 1.393 . S
C699 C698 1.391 . S
H700 C708 0.950 . S
H701 C713 0.950 . S
H702 C710 0.950 . S
H703 C712 0.950 . S
H704 C714 0.950 . S
H705 C716 0.950 . S
H706 C718 0.950 . S
H707 C719 0.950 . S
C708 H700 0.950 . S
C708 C709 1.386 . S
C708 C710 1.391 . S
C709 C708 1.386 . S
C709 C713 1.393 . S
C710 H702 0.950 . S
C710 C708 1.391 . S
C710 C711 1.400 . S
C711 C710 1.400 . S
C711 C712 1.398 . S
C711 C717 1.491 . S
C712 H703 0.950 . S
C712 C711 1.398 . S
C712 C713 1.391 . S
C713 H701 0.950 . S
C713 C709 1.393 . S
C713 C712 1.391 . S
C714 H704 0.950 . S
C714 C715 1.386 . S
C714 C716 1.391 . S
C715 C714 1.386 . S
C715 C719 1.393 . S
C716 H705 0.950 . S
C716 C714 1.391 . S
C716 C717 1.400 . S
C717 C711 1.491 . S
C717 C716 1.400 . S
C717 C718 1.398 . S
C718 H706 0.950 . S
C718 C717 1.398 . S
C718 C719 1.391 . S
C719 H707 0.950 . S
C719 C715 1.393 . S
C719 C718 1.391 . S
H720 C728 0.950 . S
H721 C733 0.950 . S
H722 C730 0.950 . S
H723 C732 0.950 . S
H724 C734 0.950 . S
H725 C736 0.950 . S
H726 C738 0.950 . S
H727 C739 0.950 . S
C728 H720 0.950 . S
C728 C729 1.386 . S
C728 C730 1.391 . S
C729 C728 1.386 . S
C729 C733 1.393 . S
C730 H722 0.950 . S
C730 C728 1.391 . S
C730 C731 1.400 . S
C731 C730 1.400 . S
C731 C732 1.398 . S
C731 C737 1.491 . S
C732 H723 0.950 . S
C732 C731 1.398 . S
C732 C733 1.391 . S
C733 H721 0.950 . S
C733 C729 1.393 . S
C733 C732 1.391 . S
C734 H724 0.950 . S
C734 C735 1.386 . S
C734 C736 1.391 . S
C735 C734 1.386 . S
C735 C739 1.393 . S
C736 H725 0.950 . S
C736 C734 1.391 . S
C736 C737 1.400 . S
C737 C731 1.491 . S
C737 C736 1.400 . S
C737 C738 1.398 . S
C738 H726 0.950 . S
C738 C737 1.398 . S
C738 C739 1.391 . S
C739 H727 0.950 . S
C739 C735 1.393 . S
C739 C738 1.391 . S
H740 C748 0.950 . S
H741 C753 0.950 . S
H742 C750 0.950 . S
H743 C752 0.950 . S
H744 C754 0.950 1_554 S
H745 C756 0.950 . S
H746 C758 0.950 . S
H747 C759 0.950 . S
C748 H740 0.950 . S
C748 C749 1.386 . S
C748 C750 1.391 . S
C749 C748 1.386 . S
C749 C753 1.393 . S
C750 H742 0.950 . S
C750 C748 1.391 . S
C750 C751 1.400 . S
C751 C750 1.400 . S
C751 C752 1.398 . S
C751 C757 1.491 . S
C752 H743 0.950 . S
C752 C751 1.398 . S
C752 C753 1.391 . S
C753 H741 0.950 . S
C753 C749 1.393 . S
C753 C752 1.391 . S
C754 H744 0.950 1_556 S
C754 C755 1.386 . S
C754 C756 1.391 . S
C755 C754 1.386 . S
C755 C759 1.393 . S
C756 H745 0.950 . S
C756 C754 1.391 . S
C756 C757 1.400 . S
C757 C751 1.491 . S
C757 C756 1.400 . S
C757 C758 1.398 . S
C758 H746 0.950 . S
C758 C757 1.398 . S
C758 C759 1.391 . S
C759 H747 0.950 . S
C759 C755 1.393 . S
C759 C758 1.391 . S
H760 C768 0.950 . S
H761 C773 0.950 . S
H762 C770 0.950 . S
H763 C772 0.950 . S
H764 C774 0.950 . S
H765 C776 0.950 . S
H766 C778 0.950 . S
H767 C779 0.950 . S
C768 H760 0.950 . S
C768 C769 1.386 . S
C768 C770 1.391 . S
C769 C768 1.386 . S
C769 C773 1.393 . S
C770 H762 0.950 . S
C770 C768 1.391 . S
C770 C771 1.400 . S
C771 C770 1.400 . S
C771 C772 1.398 . S
C771 C777 1.491 . S
C772 H763 0.950 . S
C772 C771 1.398 . S
C772 C773 1.391 . S
C773 H761 0.950 . S
C773 C769 1.393 . S
C773 C772 1.391 . S
C774 H764 0.950 . S
C774 C775 1.386 . S
C774 C776 1.391 . S
C775 C774 1.386 . S
C775 C779 1.393 . S
C776 H765 0.950 . S
C776 C774 1.391 . S
C776 C777 1.400 . S
C777 C771 1.491 . S
C777 C776 1.400 . S
C777 C778 1.398 . S
C778 H766 0.950 . S
C778 C777 1.398 . S
C778 C779 1.391 . S
C779 H767 0.950 . S
C779 C775 1.393 . S
C779 C778 1.391 . S
H780 C788 0.950 . S
H781 C793 0.950 . S
H782 C790 0.950 . S
H783 C792 0.950 . S
H784 C794 0.950 . S
H785 C796 0.950 . S
H786 C798 0.950 . S
H787 C799 0.950 . S
C788 H780 0.950 . S
C788 C789 1.386 . S
C788 C790 1.391 . S
C789 C788 1.386 . S
C789 C793 1.393 . S
C790 H782 0.950 . S
C790 C788 1.391 . S
C790 C791 1.400 . S
C791 C790 1.400 . S
C791 C792 1.398 . S
C791 C797 1.491 . S
C792 H783 0.950 . S
C792 C791 1.398 . S
C792 C793 1.391 . S
C793 H781 0.950 . S
C793 C789 1.393 . S
C793 C792 1.391 . S
C794 H784 0.950 . S
C794 C795 1.386 . S
C794 C796 1.391 . S
C795 C794 1.386 . S
C795 C799 1.393 . S
C796 H785 0.950 . S
C796 C794 1.391 . S
C796 C797 1.400 . S
C797 C791 1.491 . S
C797 C796 1.400 . S
C797 C798 1.398 . S
C798 H786 0.950 . S
C798 C797 1.398 . S
C798 C799 1.391 . S
C799 H787 0.950 . S
C799 C795 1.393 . S
C799 C798 1.391 . S
H800 C808 0.950 . S
H801 C813 0.950 . S
H802 C810 0.950 . S
H803 C812 0.950 . S
H804 C814 0.950 . S
H805 C816 0.950 . S
H806 C818 0.950 . S
H807 C819 0.950 . S
C808 H800 0.950 . S
C808 C809 1.386 . S
C808 C810 1.391 . S
C809 C808 1.386 . S
C809 C813 1.393 . S
C810 H802 0.950 . S
C810 C808 1.391 . S
C810 C811 1.400 . S
C811 C810 1.400 . S
C811 C812 1.398 . S
C811 C817 1.491 . S
C812 H803 0.950 . S
C812 C811 1.398 . S
C812 C813 1.391 . S
C813 H801 0.950 . S
C813 C809 1.393 . S
C813 C812 1.391 . S
C814 H804 0.950 . S
C814 C815 1.386 . S
C814 C816 1.391 . S
C815 C814 1.386 . S
C815 C819 1.393 . S
C816 H805 0.950 . S
C816 C814 1.391 . S
C816 C817 1.400 . S
C817 C811 1.491 . S
C817 C816 1.400 . S
C817 C818 1.398 . S
C818 H806 0.950 . S
C818 C817 1.398 . S
C818 C819 1.391 . S
C819 H807 0.950 . S
C819 C815 1.393 . S
C819 C818 1.391 . S
H820 C828 0.950 . S
H821 C833 0.950 . S
H822 C830 0.950 . S
H823 C832 0.950 . S
H824 C834 0.950 . S
H825 C836 0.950 . S
H826 C838 0.950 . S
H827 C839 0.950 . S
C828 H820 0.950 . S
C828 C829 1.386 . S
C828 C830 1.391 . S
C829 C828 1.386 . S
C829 C833 1.393 . S
C830 H822 0.950 . S
C830 C828 1.391 . S
C830 C831 1.400 . S
C831 C830 1.400 . S
C831 C832 1.398 . S
C831 C837 1.491 . S
C832 H823 0.950 . S
C832 C831 1.398 . S
C832 C833 1.391 . S
C833 H821 0.950 . S
C833 C829 1.393 . S
C833 C832 1.391 . S
C834 H824 0.950 . S
C834 C835 1.386 . S
C834 C836 1.391 . S
C835 C834 1.386 . S
C835 C839 1.393 . S
C836 H825 0.950 . S
C836 C834 1.391 . S
C836 C837 1.400 . S
C837 C831 1.491 . S
C837 C836 1.400 . S
C837 C838 1.398 . S
C838 H826 0.950 . S
C838 C837 1.398 . S
C838 C839 1.391 . S
C839 H827 0.950 . S
C839 C835 1.393 . S
C839 C838 1.391 . S
H840 C848 0.950 . S
H841 C853 0.950 . S
H842 C850 0.950 . S
H843 C852 0.950 . S
H844 C854 0.950 . S
H845 C856 0.950 . S
H846 C858 0.950 . S
H847 C859 0.950 . S
C848 H840 0.950 . S
C848 C849 1.386 . S
C848 C850 1.391 . S
C849 C848 1.386 . S
C849 C853 1.393 . S
C850 H842 0.950 . S
C850 C848 1.391 . S
C850 C851 1.400 . S
C851 C850 1.400 . S
C851 C852 1.398 . S
C851 C857 1.491 . S
C852 H843 0.950 . S
C852 C851 1.398 . S
C852 C853 1.391 . S
C853 H841 0.950 . S
C853 C849 1.393 . S
C853 C852 1.391 . S
C854 H844 0.950 . S
C854 C855 1.386 . S
C854 C856 1.391 . S
C855 C854 1.386 . S
C855 C859 1.393 . S
C856 H845 0.950 . S
C856 C854 1.391 . S
C856 C857 1.400 . S
C857 C851 1.491 . S
C857 C856 1.400 . S
C857 C858 1.398 . S
C858 H846 0.950 . S
C858 C857 1.398 . S
C858 C859 1.391 . S
C859 H847 0.950 . S
C859 C855 1.393 . S
C859 C858 1.391 . S
H860 C868 0.950 . S
H861 C873 0.950 . S
H862 C870 0.950 . S
H863 C872 0.950 . S
H864 C874 0.950 . S
H865 C876 0.950 . S
H866 C878 0.950 . S
H867 C879 0.950 . S
C868 H860 0.950 . S
C868 C869 1.386 . S
C868 C870 1.391 . S
C869 C868 1.386 . S
C869 C873 1.393 . S
C870 H862 0.950 . S
C870 C868 1.391 . S
C870 C871 1.400 . S
C871 C870 1.400 . S
C871 C872 1.398 . S
C871 C877 1.491 . S
C872 H863 0.950 . S
C872 C871 1.398 . S
C872 C873 1.391 . S
C873 H861 0.950 . S
C873 C869 1.393 . S
C873 C872 1.391 . S
C874 H864 0.950 . S
C874 C875 1.386 . S
C874 C876 1.391 . S
C875 C874 1.386 . S
C875 C879 1.393 . S
C876 H865 0.950 . S
C876 C874 1.391 . S
C876 C877 1.400 . S
C877 C871 1.491 . S
C877 C876 1.400 . S
C877 C878 1.398 . S
C878 H866 0.950 . S
C878 C877 1.398 . S
C878 C879 1.391 . S
C879 H867 0.950 . S
C879 C875 1.393 . S
C879 C878 1.391 . S
H880 C888 0.950 . S
H881 C893 0.950 . S
H882 C890 0.950 . S
H883 C892 0.950 . S
H884 C894 0.950 . S
H885 C896 0.950 . S
H886 C898 0.950 . S
H887 C899 0.950 . S
C888 H880 0.950 . S
C888 C889 1.386 . S
C888 C890 1.391 . S
C889 C888 1.386 . S
C889 C893 1.393 . S
C890 H882 0.950 . S
C890 C888 1.391 . S
C890 C891 1.400 . S
C891 C890 1.400 . S
C891 C892 1.398 . S
C891 C897 1.491 . S
C892 H883 0.950 . S
C892 C891 1.398 . S
C892 C893 1.391 . S
C893 H881 0.950 . S
C893 C889 1.393 . S
C893 C892 1.391 . S
C894 H884 0.950 . S
C894 C895 1.386 . S
C894 C896 1.391 . S
C895 C894 1.386 . S
C895 C899 1.393 . S
C896 H885 0.950 . S
C896 C894 1.391 . S
C896 C897 1.400 . S
C897 C891 1.491 . S
C897 C896 1.400 . S
C897 C898 1.398 . S
C898 H886 0.950 . S
C898 C897 1.398 . S
C898 C899 1.391 . S
C899 H887 0.950 . S
C899 C895 1.393 . S
C899 C898 1.391 . S
H900 C908 0.950 . S
H901 C913 0.950 . S
H902 C910 0.950 . S
H903 C912 0.950 . S
H904 C914 0.969 . S
H905 C916 0.950 . S
H906 C918 0.950 . S
H907 C919 0.950 . S
C908 H900 0.950 . S
C908 C909 1.386 . S
C908 C910 1.391 . S
C909 C908 1.386 . S
C909 C913 1.393 . S
C910 H902 0.950 . S
C910 C908 1.391 . S
C910 C911 1.400 . S
C911 C910 1.400 . S
C911 C912 1.398 . S
C911 C917 1.491 . S
C912 H903 0.950 . S
C912 C911 1.398 . S
C912 C913 1.391 . S
C913 H901 0.950 . S
C913 C909 1.393 . S
C913 C912 1.391 . S
C914 H904 0.969 . S
C914 C915 1.386 . S
C914 C916 1.391 . S
C915 C914 1.386 . S
C915 C919 1.393 . S
C916 H905 0.950 . S
C916 C914 1.391 . S
C916 C917 1.400 . S
C917 C911 1.491 . S
C917 C916 1.400 . S
C917 C918 1.398 . S
C918 H906 0.950 . S
C918 C917 1.398 . S
C918 C919 1.391 . S
C919 H907 0.950 . S
C919 C915 1.393 . S
C919 C918 1.391 . S
H920 C928 0.950 . S
H921 C933 0.950 . S
H922 C930 0.950 . S
H923 C932 0.950 . S
H924 C934 0.950 . S
H925 C936 0.950 . S
H926 C938 0.950 . S
H927 C939 0.950 1_556 S
C928 H920 0.950 . S
C928 C929 1.386 . S
C928 C930 1.391 . S
C929 C928 1.386 . S
C929 C933 1.393 . S
C930 H922 0.950 . S
C930 C928 1.391 . S
C930 C931 1.400 . S
C931 C930 1.400 . S
C931 C932 1.398 . S
C931 C937 1.491 . S
C932 H923 0.950 . S
C932 C931 1.398 . S
C932 C933 1.391 . S
C933 H921 0.950 . S
C933 C929 1.393 . S
C933 C932 1.391 . S
C934 H924 0.950 . S
C934 C935 1.386 . S
C934 C936 1.391 . S
C935 C934 1.386 . S
C935 C939 1.393 . S
C936 H925 0.950 . S
C936 C934 1.391 . S
C936 C937 1.400 . S
C937 C931 1.491 . S
C937 C936 1.400 . S
C937 C938 1.398 . S
C938 H926 0.950 . S
C938 C937 1.398 . S
C938 C939 1.391 . S
C939 H927 0.950 1_554 S
C939 C935 1.393 . S
C939 C938 1.391 . S
H940 C948 0.950 . S
H941 C953 0.950 . S
H942 C950 0.950 . S
H943 C952 0.950 . S
H944 C954 0.950 . S
H945 C956 0.950 . S
H946 C958 0.950 . S
H947 C959 0.950 . S
C948 H940 0.950 . S
C948 C949 1.386 . S
C948 C950 1.391 . S
C949 C948 1.386 . S
C949 C953 1.393 . S
C950 H942 0.950 . S
C950 C948 1.391 . S
C950 C951 1.400 . S
C951 C950 1.400 . S
C951 C952 1.398 . S
C951 C957 1.491 . S
C952 H943 0.950 . S
C952 C951 1.398 . S
C952 C953 1.391 . S
C953 H941 0.950 . S
C953 C949 1.393 . S
C953 C952 1.391 . S
C954 H944 0.950 . S
C954 C955 1.386 . S
C954 C956 1.391 . S
C955 C954 1.386 . S
C955 C959 1.393 . S
C956 H945 0.950 . S
C956 C954 1.391 . S
C956 C957 1.400 . S
C957 C951 1.491 . S
C957 C956 1.400 . S
C957 C958 1.398 . S
C958 H946 0.950 . S
C958 C957 1.398 . S
C958 C959 1.391 . S
C959 H947 0.950 . S
C959 C955 1.393 . S
C959 C958 1.391 . S
H960 C968 0.950 . S
H961 C973 0.950 . S
H962 C970 0.950 . S
H963 C972 0.950 . S
H964 C974 0.950 . S
H965 C976 0.950 . S
H966 C978 0.950 . S
H967 C979 0.950 . S
C968 H960 0.950 . S
C968 C969 1.386 . S
C968 C970 1.391 . S
C969 C968 1.386 . S
C969 C973 1.393 . S
C970 H962 0.950 . S
C970 C968 1.391 . S
C970 C971 1.400 . S
C971 C970 1.400 . S
C971 C972 1.398 . S
C971 C977 1.491 . S
C972 H963 0.950 . S
C972 C971 1.398 . S
C972 C973 1.391 . S
C973 H961 0.950 . S
C973 C969 1.393 . S
C973 C972 1.391 . S
C974 H964 0.950 . S
C974 C975 1.386 . S
C974 C976 1.391 . S
C975 C974 1.386 . S
C975 C979 1.393 . S
C976 H965 0.950 . S
C976 C974 1.391 . S
C976 C977 1.400 . S
C977 C971 1.491 . S
C977 C976 1.400 . S
C977 C978 1.398 . S
C978 H966 0.950 . S
C978 C977 1.398 . S
C978 C979 1.391 . S
C979 H967 0.950 . S
C979 C975 1.393 . S
C979 C978 1.391 . S
H980 C988 0.950 . S
H981 C993 0.950 . S
H982 C990 0.950 . S
H983 C992 0.950 . S
H984 C994 0.950 . S
H985 C996 0.950 . S
H986 C998 0.950 . S
H987 C999 0.950 . S
C988 H980 0.950 . S
C988 C989 1.386 . S
C988 C990 1.391 . S
C989 C988 1.386 . S
C989 C993 1.393 . S
C990 H982 0.950 . S
C990 C988 1.391 . S
C990 C991 1.400 . S
C991 C990 1.400 . S
C991 C992 1.398 . S
C991 C997 1.491 . S
C992 H983 0.950 . S
C992 C991 1.398 . S
C992 C993 1.391 . S
C993 H981 0.950 . S
C993 C989 1.393 . S
C993 C992 1.391 . S
C994 H984 0.950 . S
C994 C995 1.386 . S
C994 C996 1.391 . S
C995 C994 1.386 . S
C995 C999 1.393 . S
C996 H985 0.950 . S
C996 C994 1.391 . S
C996 C997 1.400 . S
C997 C991 1.491 . S
C997 C996 1.400 . S
C997 C998 1.398 . S
C998 H986 0.950 . S
C998 C997 1.398 . S
C998 C999 1.391 . S
C999 H987 0.950 . S
C999 C995 1.393 . S
C999 C998 1.391 . S
H1000 C1008 0.950 . S
H1001 C1013 0.950 . S
H1002 C1010 0.950 . S
H1003 C1012 0.950 . S
H1004 C1014 0.950 . S
H1005 C1016 0.950 . S
H1006 C1018 0.950 . S
H1007 C1019 0.950 . S
C1008 H1000 0.950 . S
C1008 C1009 1.386 . S
C1008 C1010 1.391 . S
C1009 C1008 1.386 . S
C1009 C1013 1.393 . S
C1010 H1002 0.950 . S
C1010 C1008 1.391 . S
C1010 C1011 1.400 . S
C1011 C1010 1.400 . S
C1011 C1012 1.398 . S
C1011 C1017 1.491 . S
C1012 H1003 0.950 . S
C1012 C1011 1.398 . S
C1012 C1013 1.391 . S
C1013 H1001 0.950 . S
C1013 C1009 1.393 . S
C1013 C1012 1.391 . S
C1014 H1004 0.950 . S
C1014 C1015 1.386 . S
C1014 C1016 1.391 . S
C1015 C1014 1.386 . S
C1015 C1019 1.393 . S
C1016 H1005 0.950 . S
C1016 C1014 1.391 . S
C1016 C1017 1.400 . S
C1017 C1011 1.491 . S
C1017 C1016 1.400 . S
C1017 C1018 1.398 . S
C1018 H1006 0.950 . S
C1018 C1017 1.398 . S
C1018 C1019 1.391 . S
C1019 H1007 0.950 . S
C1019 C1015 1.393 . S
C1019 C1018 1.391 . S
H1020 C1028 0.950 . S
H1021 C1033 0.950 . S
H1022 C1030 0.950 . S
H1023 C1032 0.950 . S
H1024 C1034 0.950 . S
H1025 C1036 0.950 . S
H1026 C1038 0.950 . S
H1027 C1039 0.950 . S
C1028 H1020 0.950 . S
C1028 C1029 1.386 . S
C1028 C1030 1.391 . S
C1029 C1028 1.386 . S
C1029 C1033 1.393 . S
C1030 H1022 0.950 . S
C1030 C1028 1.391 . S
C1030 C1031 1.400 . S
C1031 C1030 1.400 . S
C1031 C1032 1.398 . S
C1031 C1037 1.491 . S
C1032 H1023 0.950 . S
C1032 C1031 1.398 . S
C1032 C1033 1.391 . S
C1033 H1021 0.950 . S
C1033 C1029 1.393 . S
C1033 C1032 1.391 . S
C1034 H1024 0.950 . S
C1034 C1035 1.386 . S
C1034 C1036 1.391 . S
C1035 C1034 1.386 . S
C1035 C1039 1.393 . S
C1036 H1025 0.950 . S
C1036 C1034 1.391 . S
C1036 C1037 1.400 . S
C1037 C1031 1.491 . S
C1037 C1036 1.400 . S
C1037 C1038 1.398 . S
C1038 H1026 0.950 . S
C1038 C1037 1.398 . S
C1038 C1039 1.391 . S
C1039 H1027 0.950 . S
C1039 C1035 1.393 . S
C1039 C1038 1.391 . S
C569 C1 1.469 . S
C575 C482 1.538 . S
C589 C80 1.312 . S
C595 C501 1.329 . S
C615 C538 1.747 . S
C609 C140 1.732 . S
C629 C211 1.666 . S
C635 C548 1.653 . S
C655 C518 2.008 . S
C649 C31 1.865 . S
C675 C488 1.423 . S
C669 C61 1.433 . S
C695 C559 1.509 . S
C689 C151 1.501 . S
C715 C529 1.409 . S
C709 C200 1.394 . S
C729 C20 1.709 . S
C735 C542 1.772 . S
C755 C509 1.691 . S
C749 C121 1.734 . S
C769 C181 1.715 . S
C775 C499 1.742 . S
C789 C91 1.222 . S
C795 C521 1.239 . S
C815 C481 1.550 . S
C809 C260 1.486 . S
C829 C320 1.304 . S
C835 C502 1.321 . S
C849 C361 1.739 . S
C855 C539 1.736 . S
C869 C451 1.668 . S
C875 C549 1.659 . S
C889 C271 1.909 . S
C895 C519 2.012 . S
C915 C489 1.433 . S
C909 C301 1.440 . S
C935 C558 1.500 . S
C929 C380 1.505 . S
C955 C528 1.395 . S
C949 C440 1.388 . S
C969 C241 1.678 . S
C975 C541 1.777 . S
C995 C508 1.693 . S
C989 C391 1.741 . S
C1015 C498 1.744 . S
C1009 C421 1.693 . S
C1029 C331 1.237 . S
C1035 C522 1.242 . S
