# Generated by pormake.
# Topology eea, (3,6)-cn, num edge types: 1
# Building blocks:
#     Node 0, Type 0, BuildingBlock: MIDCAF_clean_linker_0, # of connection points: 3
#     Node 1, Type 0, BuildingBlock: MIDCAF_clean_linker_0, # of connection points: 3
#     Node 2, Type 0, BuildingBlock: MIDCAF_clean_linker_0, # of connection points: 3
#     Node 3, Type 0, BuildingBlock: MIDCAF_clean_linker_0, # of connection points: 3
#     Node 4, Type 0, BuildingBlock: MIDCAF_clean_linker_0, # of connection points: 3
#     Node 5, Type 0, BuildingBlock: MIDCAF_clean_linker_0, # of connection points: 3
#     Node 6, Type 0, BuildingBlock: MIDCAF_clean_linker_0, # of connection points: 3
#     Node 7, Type 0, BuildingBlock: MIDCAF_clean_linker_0, # of connection points: 3
#     Node 8, Type 0, BuildingBlock: MIDCAF_clean_linker_0, # of connection points: 3
#     Node 9, Type 0, BuildingBlock: MIDCAF_clean_linker_0, # of connection points: 3
#     Node 10, Type 0, BuildingBlock: MIDCAF_clean_linker_0, # of connection points: 3
#     Node 11, Type 0, BuildingBlock: MIDCAF_clean_linker_0, # of connection points: 3
#     Node 12, Type 0, BuildingBlock: MIDCAF_clean_linker_0, # of connection points: 3
#     Node 13, Type 0, BuildingBlock: MIDCAF_clean_linker_0, # of connection points: 3
#     Node 14, Type 0, BuildingBlock: MIDCAF_clean_linker_0, # of connection points: 3
#     Node 15, Type 0, BuildingBlock: MIDCAF_clean_linker_0, # of connection points: 3
#     Node 16, Type 0, BuildingBlock: MIDCAF_clean_linker_0, # of connection points: 3
#     Node 17, Type 0, BuildingBlock: MIDCAF_clean_linker_0, # of connection points: 3
#     Node 18, Type 1, BuildingBlock: KUMBUR_clean_sbu_0, # of connection points: 6
#     Node 19, Type 1, BuildingBlock: KUMBUR_clean_sbu_0, # of connection points: 6
#     Node 20, Type 1, BuildingBlock: KUMBUR_clean_sbu_0, # of connection points: 6
#     Node 21, Type 1, BuildingBlock: KUMBUR_clean_sbu_0, # of connection points: 6
#     Node 22, Type 1, BuildingBlock: KUMBUR_clean_sbu_0, # of connection points: 6
#     Node 23, Type 1, BuildingBlock: KUMBUR_clean_sbu_0, # of connection points: 6
#     Node 24, Type 1, BuildingBlock: KUMBUR_clean_sbu_0, # of connection points: 6
#     Node 25, Type 1, BuildingBlock: KUMBUR_clean_sbu_0, # of connection points: 6
#     Node 26, Type 1, BuildingBlock: KUMBUR_clean_sbu_0, # of connection points: 6
#     Edge 27, Type (0, 1), None
#     Edge 28, Type (0, 1), None
#     Edge 29, Type (0, 1), None
#     Edge 30, Type (0, 1), None
#     Edge 31, Type (0, 1), None
#     Edge 32, Type (0, 1), None
#     Edge 33, Type (0, 1), None
#     Edge 34, Type (0, 1), None
#     Edge 35, Type (0, 1), None
#     Edge 36, Type (0, 1), None
#     Edge 37, Type (0, 1), None
#     Edge 38, Type (0, 1), None
#     Edge 39, Type (0, 1), None
#     Edge 40, Type (0, 1), None
#     Edge 41, Type (0, 1), None
#     Edge 42, Type (0, 1), None
#     Edge 43, Type (0, 1), None
#     Edge 44, Type (0, 1), None
#     Edge 45, Type (0, 1), None
#     Edge 46, Type (0, 1), None
#     Edge 47, Type (0, 1), None
#     Edge 48, Type (0, 1), None
#     Edge 49, Type (0, 1), None
#     Edge 50, Type (0, 1), None
#     Edge 51, Type (0, 1), None
#     Edge 52, Type (0, 1), None
#     Edge 53, Type (0, 1), None
#     Edge 54, Type (0, 1), None
#     Edge 55, Type (0, 1), None
#     Edge 56, Type (0, 1), None
#     Edge 57, Type (0, 1), None
#     Edge 58, Type (0, 1), None
#     Edge 59, Type (0, 1), None
#     Edge 60, Type (0, 1), None
#     Edge 61, Type (0, 1), None
#     Edge 62, Type (0, 1), None
#     Edge 63, Type (0, 1), None
#     Edge 64, Type (0, 1), None
#     Edge 65, Type (0, 1), None
#     Edge 66, Type (0, 1), None
#     Edge 67, Type (0, 1), None
#     Edge 68, Type (0, 1), None
#     Edge 69, Type (0, 1), None
#     Edge 70, Type (0, 1), None
#     Edge 71, Type (0, 1), None
#     Edge 72, Type (0, 1), None
#     Edge 73, Type (0, 1), None
#     Edge 74, Type (0, 1), None
#     Edge 75, Type (0, 1), None
#     Edge 76, Type (0, 1), None
#     Edge 77, Type (0, 1), None
#     Edge 78, Type (0, 1), None
#     Edge 79, Type (0, 1), None
#     Edge 80, Type (0, 1), None
# Relax obj value: 0.007
# Max RMSD: 0.110
# Mean RMSD: 0.093
data_MOF--net-eea--node1-KUMBUR_clean_sbu_0--node2-MIDCAF_clean_linker_0--edge1-none
_symmetry_space_group_name_H-M    P1
_symmetry_Int_Tables_number       1
_symmetry_cell_setting            triclinic
loop_
_symmetry_equiv_pos_as_xyz
'x, y, z'
_cell_length_a     32.79944
_cell_length_b     34.079489
_cell_length_c     53.315464
_cell_angle_alpha  89.490204
_cell_angle_beta   89.748324
_cell_angle_gamma 119.97067
loop_
_atom_site_label
_atom_site_type_symbol
_atom_site_fract_x
_atom_site_fract_y
_atom_site_fract_z
_atom_type_partial_charge
C0 C 0.24068 0.97042 0.4039 0.0
C1 C 0.20648 0.95331 0.38506 0.0
C2 C 0.18399 0.97769 0.37824 0.0
C3 C 0.19625 0.01882 0.38959 0.0
H4 H 0.1805 0.13031 0.38257 0.0
H5 H 0.1577 0.18103 0.3629 0.0
H6 H 0.25825 0.29082 0.40855 0.0
H7 H 0.28026 0.23999 0.42856 0.0
H8 H 0.34799 0.21875 0.46755 0.0
H9 H 0.39395 0.2388 0.50626 0.0
H10 H 0.32862 0.09733 0.52687 0.0
H11 H 0.28361 0.07701 0.48805 0.0
H12 H 0.27933 0.02366 0.42977 0.0
H13 H 0.25856 0.95244 0.40971 0.0
H14 H 0.15681 0.96508 0.36418 0.0
H15 H 0.17845 0.03688 0.38376 0.0
N16 N 0.23226 0.10896 0.40916 0.0
N17 N 0.27263 0.16252 0.44032 0.0
N18 N 0.27052 0.09269 0.44112 0.0
C19 C 0.24612 0.15015 0.4192 0.0
C20 C 0.28463 0.13372 0.45145 0.0
C21 C 0.24455 0.08018 0.41991 0.0
C22 C 0.23236 0.18109 0.40714 0.0
C23 C 0.19788 0.16533 0.38836 0.0
C24 C 0.18489 0.19449 0.37696 0.0
C25 C 0.20652 0.24019 0.38383 0.0
C26 C 0.24089 0.25587 0.40266 0.0
C27 C 0.25354 0.22665 0.41422 0.0
C28 C 0.31228 0.14633 0.47478 0.0
C29 C 0.34354 0.19198 0.48033 0.0
C30 C 0.36998 0.20344 0.50233 0.0
C31 C 0.36469 0.16952 0.51936 0.0
C32 C 0.33318 0.124 0.51396 0.0
C33 C 0.30761 0.11246 0.49174 0.0
C34 C 0.23073 0.03611 0.40829 0.0
C35 C 0.25253 0.01128 0.41547 0.0
C36 C 0.01825 0.27233 0.38455 0.0
C37 C 0.05501 0.26531 0.3767 0.0
C38 C 0.04898 0.22152 0.37869 0.0
C39 C 0.0071 0.18568 0.38878 0.0
H40 H 0.88577 0.03875 0.38081 0.0
H41 H 0.83197 0.96526 0.36277 0.0
H42 H 0.71832 0.95686 0.40817 0.0
H43 H 0.77231 0.02891 0.42693 0.0
H44 H 0.8283 0.08172 0.48629 0.0
H45 H 0.80615 0.10195 0.526 0.0
H46 H 0.88099 0.24286 0.50358 0.0
H47 H 0.90397 0.22301 0.46411 0.0
H48 H 0.95038 0.24402 0.40207 0.0
H49 H 0.02212 0.3058 0.38344 0.0
H50 H 0.07717 0.21534 0.37347 0.0
H51 H 1.0036 0.15248 0.3908 0.0
N52 N 0.9042 0.11606 0.40314 0.0
N53 N 0.85401 0.09633 0.43835 0.0
N54 N 0.91851 0.16974 0.4343 0.0
C55 C 0.86529 0.08486 0.41606 0.0
C56 C 0.88061 0.13856 0.4477 0.0
C57 C 0.93075 0.15864 0.41219 0.0
C58 C 0.83337 0.03979 0.40528 0.0
C59 C 0.84929 0.02112 0.38691 0.0
C60 C 0.81828 0.97913 0.37639 0.0
C61 C 0.77041 0.95549 0.38347 0.0
C62 C 0.75476 0.97409 0.40203 0.0
C63 C 0.78588 0.01549 0.4129 0.0
C64 C 0.86779 0.15074 0.47198 0.0
C65 C 0.84016 0.11704 0.48985 0.0
C66 C 0.8277 0.12858 0.51264 0.0
C67 C 0.84178 0.17392 0.51779 0.0
C68 C 0.86948 0.20761 0.5 0.0
C69 C 0.88274 0.19622 0.47745 0.0
C70 C 0.97167 0.19369 0.39792 0.0
C71 C 0.9773 0.23708 0.39527 0.0
C72 C 0.73232 0.74276 0.38975 0.0
C73 C 0.73974 0.78519 0.38168 0.0
C74 C 0.78556 0.82286 0.383 0.0
C75 C 0.82325 0.81775 0.39153 0.0
H76 H 0.99919 0.84763 0.38931 0.0
H77 H 0.07449 0.85734 0.37331 0.0
H78 H 0.01891 0.71323 0.38068 0.0
H79 H 0.94548 0.70407 0.39761 0.0
H80 H 0.90839 0.68443 0.46377 0.0
H81 H 0.88801 0.64281 0.50375 0.0
H82 H 0.8006 0.69939 0.52355 0.0
H83 H 0.81988 0.7403 0.48321 0.0
H84 H 0.76233 0.70482 0.40536 0.0
H85 H 0.69736 0.71327 0.38939 0.0
H86 H 0.7922 0.85632 0.37785 0.0
H87 H 0.85812 0.84723 0.3925 0.0
N88 N 0.89335 0.77966 0.39885 0.0
N89 N 0.91523 0.74795 0.43198 0.0
N90 N 0.84455 0.74904 0.43463 0.0
C91 C 0.92465 0.76882 0.40905 0.0
C92 C 0.87574 0.7387 0.44512 0.0
C93 C 0.85293 0.76939 0.41161 0.0
C94 C 0.96659 0.77506 0.3948 0.0
C95 C 1.00291 0.81805 0.38688 0.0
C96 C 0.04589 0.82357 0.37759 0.0
C97 C 0.05247 0.78591 0.3754 0.0
C98 C 0.01488 0.74285 0.38193 0.0
C99 C 0.9728 0.73755 0.39168 0.0
C100 C 0.86557 0.71554 0.47014 0.0
C101 C 0.88509 0.68834 0.47667 0.0
C102 C 0.87339 0.66443 0.49956 0.0
C103 C 0.84279 0.66793 0.51677 0.0
C104 C 0.8245 0.69629 0.51071 0.0
C105 C 0.83533 0.71943 0.48753 0.0
C106 C 0.81532 0.77525 0.3999 0.0
C107 C 0.7695 0.73791 0.39887 0.0
C108 C 0.99814 0.25347 0.65763 0.0
C109 C 0.9606 0.2105 0.66439 0.0
C110 C 0.96705 0.17276 0.66218 0.0
C111 C 0.00986 0.17813 0.65268 0.0
H112 H 0.15466 0.14917 0.64744 0.0
H113 H 0.22046 0.14036 0.66261 0.0
H114 H 0.31531 0.28326 0.65053 0.0
H115 H 0.25049 0.29139 0.634 0.0
H116 H 0.19335 0.25594 0.55621 0.0
H117 H 0.21245 0.29663 0.51578 0.0
H118 H 0.12362 0.35184 0.53513 0.0
H119 H 0.10341 0.31044 0.57517 0.0
H120 H 0.06729 0.29201 0.6416 0.0
H121 H 0.99422 0.28314 0.6589 0.0
H122 H 0.93849 0.13907 0.66662 0.0
H123 H 0.01349 0.1485 0.65028 0.0
N124 N 0.11939 0.21648 0.64056 0.0
N125 N 0.16817 0.24689 0.60475 0.0
N126 N 0.09737 0.2478 0.6073 0.0
C127 C 0.15984 0.22672 0.62783 0.0
C128 C 0.13689 0.25704 0.59417 0.0
C129 C 0.088 0.22712 0.63029 0.0
C130 C 0.19749 0.22103 0.63968 0.0
C131 C 0.18951 0.17867 0.64836 0.0
C132 C 0.22714 0.17372 0.6572 0.0
C133 C 0.27293 0.21144 0.65855 0.0
C134 C 0.28038 0.25373 0.65016 0.0
C135 C 0.24329 0.25839 0.6407 0.0
C136 C 0.14697 0.28002 0.56907 0.0
C137 C 0.17753 0.27643 0.55177 0.0
C138 C 0.18825 0.29944 0.52853 0.0
C139 C 0.16951 0.32737 0.52231 0.0
C140 C 0.13856 0.33053 0.53943 0.0
C141 C 0.12698 0.30676 0.56237 0.0
C142 C 0.04612 0.22102 0.64457 0.0
C143 C 0.04002 0.25859 0.64767 0.0
C144 C 0.7735 0.74142 0.63555 0.0
C145 C 0.80723 0.7569 0.65471 0.0
C146 C 0.82857 0.80253 0.6617 0.0
C147 C 0.8156 0.83167 0.65025 0.0
H148 H 0.83155 0.95812 0.65666 0.0
H149 H 0.85486 0.03067 0.67578 0.0
H150 H 0.75073 0.04254 0.63202 0.0
H151 H 0.72816 0.97052 0.61247 0.0
H152 H 0.66617 0.89304 0.57392 0.0
H153 H 0.6221 0.87647 0.53503 0.0
H154 H 0.67206 0.78581 0.51369 0.0
H155 H 0.71611 0.80203 0.55284 0.0
H156 H 0.73441 0.75734 0.60947 0.0
H157 H 0.75645 0.70656 0.62951 0.0
H158 H 0.85532 0.81586 0.676 0.0
H159 H 0.83249 0.86654 0.65628 0.0
N160 N 0.77886 0.88682 0.6307 0.0
N161 N 0.73647 0.9016 0.60054 0.0
N162 N 0.73894 0.83405 0.59909 0.0
C163 C 0.76407 0.91454 0.62114 0.0
C164 C 0.7239 0.86158 0.58932 0.0
C165 C 0.76633 0.84646 0.61991 0.0
C166 C 0.7779 0.95841 0.63305 0.0
C167 C 0.81349 0.9761 0.65117 0.0
C168 C 0.82676 0.0177 0.66223 0.0
C169 C 0.80429 0.0422 0.65569 0.0
C170 C 0.76874 0.02453 0.63756 0.0
C171 C 0.75578 0.98317 0.62632 0.0
C172 C 0.69482 0.84898 0.56643 0.0
C173 C 0.66758 0.86932 0.56105 0.0
C174 C 0.64208 0.85965 0.53885 0.0
C175 C 0.64375 0.82994 0.52137 0.0
C176 C 0.67041 0.80905 0.52683 0.0
C177 C 0.69538 0.81815 0.54928 0.0
C178 C 0.78141 0.81599 0.63131 0.0
C179 C 0.76087 0.77063 0.62394 0.0
C180 C 0.25875 0.02303 0.63836 0.0
C181 C 0.24301 0.04125 0.6571 0.0
C182 C 0.1952 0.01726 0.66427 0.0
C183 C 0.16433 0.97533 0.65363 0.0
H184 H 0.00998 0.84444 0.64888 0.0
H185 H 0.93599 0.7815 0.66577 0.0
H186 H 0.99066 0.69075 0.65574 0.0
H187 H 0.06285 0.75263 0.63756 0.0
H188 H 0.11073 0.77432 0.57599 0.0
H189 H 0.13383 0.75464 0.5365 0.0
H190 H 0.20811 0.89556 0.51409 0.0
H191 H 0.18586 0.91564 0.55384 0.0
H192 H 0.24143 0.96859 0.61321 0.0
H193 H 0.29515 0.04056 0.63214 0.0
H194 H 0.18144 0.03081 0.67804 0.0
H195 H 0.12789 0.95745 0.65979 0.0
N196 N 0.10945 0.88075 0.63691 0.0
N197 N 0.0955 0.82735 0.60564 0.0
N198 N 0.16009 0.90076 0.60187 0.0
C199 C 0.08298 0.83826 0.62772 0.0
C200 C 0.13357 0.85861 0.5924 0.0
C201 C 0.14855 0.91205 0.62415 0.0
C202 C 0.04179 0.80312 0.64178 0.0
C203 C 0.0063 0.81115 0.6508 0.0
C204 C 0.96417 0.77526 0.66063 0.0
C205 C 0.95793 0.73138 0.66249 0.0
C206 C 0.99469 0.7243 0.65474 0.0
C207 C 0.03591 0.75961 0.64428 0.0
C208 C 0.14662 0.84658 0.56813 0.0
C209 C 0.13187 0.80115 0.56265 0.0
C210 C 0.1452 0.78986 0.54009 0.0
C211 C 0.17275 0.82361 0.5223 0.0
C212 C 0.18667 0.86891 0.52747 0.0
C213 C 0.17416 0.88035 0.55027 0.0
C214 C 0.18033 0.95705 0.63507 0.0
C215 C 0.22778 0.98168 0.62739 0.0
C216 C 0.90736 0.30377 0.73723 0.0
C217 C 0.87316 0.28666 0.71839 0.0
C218 C 0.85067 0.31103 0.71157 0.0
C219 C 0.86293 0.35216 0.72292 0.0
H220 H 0.84717 0.46365 0.7159 0.0
H221 H 0.82437 0.51437 0.69624 0.0
H222 H 0.92492 0.62416 0.74188 0.0
H223 H 0.94693 0.57334 0.76189 0.0
H224 H 0.01467 0.5521 0.80088 0.0
H225 H 0.06063 0.57215 0.83959 0.0
H226 H 0.99531 0.43068 0.8602 0.0
H227 H 0.9503 0.41036 0.82138 0.0
H228 H 0.94602 0.35701 0.76309 0.0
H229 H 0.92525 0.28579 0.74304 0.0
H230 H 0.82349 0.29842 0.69751 0.0
H231 H 0.84513 0.37022 0.71709 0.0
N232 N 0.89894 0.4423 0.74249 0.0
N233 N 0.93932 0.49586 0.77365 0.0
N234 N 0.93721 0.42604 0.77445 0.0
C235 C 0.9128 0.4835 0.75253 0.0
C236 C 0.95132 0.46706 0.78478 0.0
C237 C 0.91124 0.41353 0.75324 0.0
C238 C 0.89904 0.51443 0.74047 0.0
C239 C 0.86456 0.49867 0.72169 0.0
C240 C 0.85157 0.52783 0.71029 0.0
C241 C 0.87319 0.57353 0.71717 0.0
C242 C 0.90756 0.58921 0.73599 0.0
C243 C 0.92022 0.55999 0.74755 0.0
C244 C 0.97896 0.47968 0.80811 0.0
C245 C 0.01022 0.52532 0.81366 0.0
C246 C 0.03666 0.53679 0.83565 0.0
C247 C 0.03137 0.50286 0.85269 0.0
C248 C 0.99986 0.45735 0.84729 0.0
C249 C 0.97429 0.44581 0.82507 0.0
C250 C 0.89741 0.36945 0.74162 0.0
C251 C 0.91922 0.34462 0.74879 0.0
C252 C 0.68491 0.60566 0.71788 0.0
C253 C 0.72167 0.59864 0.71003 0.0
C254 C 0.71565 0.55486 0.71202 0.0
C255 C 0.67377 0.51902 0.72212 0.0
H256 H 0.55244 0.37209 0.71414 0.0
H257 H 0.49864 0.2986 0.6961 0.0
H258 H 0.38499 0.29019 0.74151 0.0
H259 H 0.43898 0.36224 0.76027 0.0
H260 H 0.49497 0.41505 0.81963 0.0
H261 H 0.47281 0.43528 0.85933 0.0
H262 H 0.54765 0.57619 0.83692 0.0
H263 H 0.57063 0.55634 0.79744 0.0
H264 H 0.61704 0.57735 0.73541 0.0
H265 H 0.68878 0.63913 0.71678 0.0
H266 H 0.74384 0.54868 0.7068 0.0
H267 H 0.67027 0.48581 0.72414 0.0
N268 N 0.57087 0.44939 0.73648 0.0
N269 N 0.52068 0.42966 0.77168 0.0
N270 N 0.58517 0.50307 0.76763 0.0
C271 C 0.53196 0.41819 0.74939 0.0
C272 C 0.54728 0.47189 0.78103 0.0
C273 C 0.59742 0.49197 0.74552 0.0
C274 C 0.50004 0.37312 0.73862 0.0
C275 C 0.51596 0.35446 0.72025 0.0
C276 C 0.48495 0.31246 0.70972 0.0
C277 C 0.43708 0.28882 0.71681 0.0
C278 C 0.42143 0.30742 0.73537 0.0
C279 C 0.45255 0.34882 0.74624 0.0
C280 C 0.53446 0.48407 0.80531 0.0
C281 C 0.50682 0.45037 0.82318 0.0
C282 C 0.49437 0.46191 0.84597 0.0
C283 C 0.50845 0.50725 0.85112 0.0
C284 C 0.53614 0.54094 0.83333 0.0
C285 C 0.54941 0.52955 0.81079 0.0
C286 C 0.63833 0.52702 0.73126 0.0
C287 C 0.64396 0.57041 0.7286 0.0
C288 C 0.39899 0.07609 0.72309 0.0
C289 C 0.40641 0.11852 0.71501 0.0
C290 C 0.45222 0.1562 0.71633 0.0
C291 C 0.48992 0.15109 0.72486 0.0
H292 H 0.66587 0.18097 0.72265 0.0
H293 H 0.74117 0.19068 0.70665 0.0
H294 H 0.68558 0.04658 0.71401 0.0
H295 H 0.61215 0.03741 0.73095 0.0
H296 H 0.57507 0.01778 0.79711 0.0
H297 H 0.55469 0.97615 0.83709 0.0
H298 H 0.46728 0.03272 0.85689 0.0
H299 H 0.48656 0.07363 0.81655 0.0
H300 H 0.429 0.03816 0.7387 0.0
H301 H 0.36403 0.0466 0.72273 0.0
H302 H 0.45886 0.18965 0.71118 0.0
H303 H 0.52479 0.18056 0.72583 0.0
N304 N 0.56003 0.113 0.73218 0.0
N305 N 0.5819 0.0813 0.76531 0.0
N306 N 0.51123 0.08238 0.76796 0.0
C307 C 0.59133 0.10216 0.74239 0.0
C308 C 0.54241 0.07204 0.77846 0.0
C309 C 0.5196 0.10273 0.74495 0.0
C310 C 0.63327 0.1084 0.72813 0.0
C311 C 0.66959 0.1514 0.72021 0.0
C312 C 0.71257 0.15692 0.71092 0.0
C313 C 0.71915 0.11925 0.70873 0.0
C314 C 0.68155 0.07619 0.71526 0.0
C315 C 0.63947 0.07089 0.72501 0.0
C316 C 0.53224 0.04889 0.80347 0.0
C317 C 0.55177 0.02168 0.81 0.0
C318 C 0.54007 0.99777 0.83289 0.0
C319 C 0.50947 0.00127 0.85011 0.0
C320 C 0.49118 0.02963 0.84404 0.0
C321 C 0.50201 0.05277 0.82087 0.0
C322 C 0.48199 0.10859 0.73323 0.0
C323 C 0.43617 0.07125 0.73221 0.0
C324 C 0.66481 0.5868 0.99096 0.0
C325 C 0.62727 0.54384 0.99773 0.0
C326 C 0.63372 0.5061 0.99551 0.0
C327 C 0.67653 0.51146 0.98602 0.0
H328 H 0.82133 0.48251 0.98077 0.0
H329 H 0.88713 0.47369 0.99594 0.0
H330 H 0.98198 0.6166 0.98386 0.0
H331 H 0.91716 0.62472 0.96733 0.0
H332 H 0.86002 0.58928 0.88954 0.0
H333 H 0.87912 0.62997 0.84912 0.0
H334 H 0.79028 0.68518 0.86846 0.0
H335 H 0.77008 0.64378 0.9085 0.0
H336 H 0.73396 0.62534 0.97494 0.0
H337 H 0.66089 0.61648 0.99224 0.0
H338 H 0.60516 0.4724 0.99996 0.0
H339 H 0.68016 0.48183 0.98362 0.0
N340 N 0.78606 0.54982 0.9739 0.0
N341 N 0.83484 0.58023 0.93808 0.0
N342 N 0.76404 0.58114 0.94063 0.0
C343 C 0.82651 0.56006 0.96116 0.0
C344 C 0.80356 0.59038 0.9275 0.0
C345 C 0.75467 0.56046 0.96362 0.0
C346 C 0.86416 0.55437 0.97301 0.0
C347 C 0.85618 0.51201 0.98169 0.0
C348 C 0.89381 0.50706 0.99053 0.0
C349 C 0.9396 0.54478 0.99188 0.0
C350 C 0.94705 0.58707 0.98349 0.0
C351 C 0.90996 0.59173 0.97403 0.0
C352 C 0.81364 0.61336 0.9024 0.0
C353 C 0.8442 0.60977 0.8851 0.0
C354 C 0.85492 0.63278 0.86187 0.0
C355 C 0.83618 0.66071 0.85565 0.0
C356 C 0.80523 0.66387 0.87276 0.0
C357 C 0.79365 0.64009 0.8957 0.0
C358 C 0.71279 0.55436 0.9779 0.0
C359 C 0.70669 0.59193 0.981 0.0
C360 C 0.44017 0.07476 0.96888 0.0
C361 C 0.4739 0.09024 0.98805 0.0
C362 C 0.49524 0.13586 0.99504 0.0
C363 C 0.48227 0.16501 0.98359 0.0
H364 H 0.49822 0.29146 0.98999 0.0
H365 H 0.52153 0.364 1.00911 0.0
H366 H 0.41739 0.37587 0.96536 0.0
H367 H 0.39482 0.30386 0.94581 0.0
H368 H 0.33283 0.22637 0.90725 0.0
H369 H 0.28877 0.20981 0.86836 0.0
H370 H 0.33872 0.11914 0.84703 0.0
H371 H 0.38277 0.13536 0.88618 0.0
H372 H 0.40108 0.09068 0.9428 0.0
H373 H 0.42312 0.0399 0.96285 0.0
H374 H 0.52198 0.1492 1.00933 0.0
H375 H 0.49916 0.19988 0.98962 0.0
N376 N 0.44553 0.22015 0.96403 0.0
N377 N 0.40313 0.23494 0.93387 0.0
N378 N 0.40561 0.16738 0.93243 0.0
C379 C 0.43074 0.24788 0.95448 0.0
C380 C 0.39057 0.19492 0.92266 0.0
C381 C 0.433 0.17979 0.95325 0.0
C382 C 0.44457 0.29175 0.96639 0.0
C383 C 0.48016 0.30944 0.9845 0.0
C384 C 0.49343 0.35103 0.99557 0.0
C385 C 0.47096 0.37554 0.98902 0.0
C386 C 0.4354 0.35787 0.9709 0.0
C387 C 0.42245 0.3165 0.95965 0.0
C388 C 0.36149 0.18231 0.89977 0.0
C389 C 0.33425 0.20265 0.89438 0.0
C390 C 0.30874 0.19298 0.87219 0.0
C391 C 0.31042 0.16327 0.8547 0.0
C392 C 0.33707 0.14238 0.86017 0.0
C393 C 0.36204 0.15149 0.88261 0.0
C394 C 0.44808 0.14933 0.96465 0.0
C395 C 0.42754 0.10397 0.95727 0.0
C396 C 0.92542 0.35637 0.97169 0.0
C397 C 0.90968 0.37459 0.99043 0.0
C398 C 0.86187 0.3506 0.9976 0.0
C399 C 0.831 0.30867 0.98696 0.0
H400 H 0.67665 0.17778 0.98221 0.0
H401 H 0.60266 0.11484 0.9991 0.0
H402 H 0.65733 0.02409 0.98908 0.0
H403 H 0.72952 0.08597 0.97089 0.0
H404 H 0.77739 0.10766 0.90932 0.0
H405 H 0.8005 0.08798 0.86983 0.0
H406 H 0.87478 0.2289 0.84743 0.0
H407 H 0.85253 0.24897 0.88717 0.0
H408 H 0.9081 0.30192 0.94654 0.0
H409 H 0.96182 0.3739 0.96547 0.0
H410 H 0.84811 0.36415 1.01137 0.0
H411 H 0.79456 0.29079 0.99312 0.0
N412 N 0.77612 0.21409 0.97024 0.0
N413 N 0.76216 0.16069 0.93898 0.0
N414 N 0.82676 0.23409 0.9352 0.0
C415 C 0.74965 0.1716 0.96106 0.0
C416 C 0.80024 0.19195 0.92573 0.0
C417 C 0.81522 0.24539 0.95748 0.0
C418 C 0.70846 0.13646 0.97511 0.0
C419 C 0.67297 0.14449 0.98413 0.0
C420 C 0.63084 0.1086 0.99397 0.0
C421 C 0.6246 0.06472 0.99582 0.0
C422 C 0.66136 0.05764 0.98808 0.0
C423 C 0.70259 0.09295 0.97761 0.0
C424 C 0.81329 0.17992 0.90147 0.0
C425 C 0.79854 0.13449 0.89598 0.0
C426 C 0.81187 0.1232 0.87342 0.0
C427 C 0.83942 0.15694 0.85563 0.0
C428 C 0.85334 0.20224 0.8608 0.0
C429 C 0.84083 0.21369 0.8836 0.0
C430 C 0.847 0.29039 0.9684 0.0
C431 C 0.89445 0.31502 0.96072 0.0
C432 C 0.57403 0.63711 0.07056 0.0
C433 C 0.53983 0.61999 0.05172 0.0
C434 C 0.51734 0.64437 0.04491 0.0
C435 C 0.5296 0.6855 0.05625 0.0
H436 H 0.51385 0.79699 0.04923 0.0
H437 H 0.49104 0.84771 0.02957 0.0
H438 H 0.59159 0.9575 0.07521 0.0
H439 H 0.61361 0.90667 0.09522 0.0
H440 H 0.68134 0.88544 0.13421 0.0
H441 H 0.7273 0.90548 0.17292 0.0
H442 H 0.66197 0.76401 0.19353 0.0
H443 H 0.61697 0.74369 0.15471 0.0
H444 H 0.61269 0.69034 0.09643 0.0
H445 H 0.59192 0.61912 0.07637 0.0
H446 H 0.49016 0.63176 0.03084 0.0
H447 H 0.5118 0.70356 0.05043 0.0
N448 N 0.56561 0.77564 0.07582 0.0
N449 N 0.60599 0.8292 0.10698 0.0
N450 N 0.60388 0.75938 0.10778 0.0
C451 C 0.57947 0.81684 0.08586 0.0
C452 C 0.61799 0.8004 0.11811 0.0
C453 C 0.57791 0.74686 0.08657 0.0
C454 C 0.56572 0.84777 0.0738 0.0
C455 C 0.53123 0.83201 0.05502 0.0
C456 C 0.51824 0.86117 0.04363 0.0
C457 C 0.53986 0.90687 0.0505 0.0
C458 C 0.57424 0.92255 0.06932 0.0
C459 C 0.58689 0.89333 0.08088 0.0
C460 C 0.64563 0.81301 0.14144 0.0
C461 C 0.67689 0.85866 0.14699 0.0
C462 C 0.70333 0.87012 0.16899 0.0
C463 C 0.69804 0.8362 0.18602 0.0
C464 C 0.66653 0.79068 0.18062 0.0
C465 C 0.64096 0.77915 0.15841 0.0
C466 C 0.56409 0.70279 0.07495 0.0
C467 C 0.58589 0.67796 0.08213 0.0
C468 C 0.35159 0.939 0.05122 0.0
C469 C 0.38834 0.93198 0.04337 0.0
C470 C 0.38232 0.88819 0.04536 0.0
C471 C 0.34044 0.85235 0.05545 0.0
H472 H 0.21911 0.70542 0.04747 0.0
H473 H 0.16531 0.63193 0.02943 0.0
H474 H 0.05166 0.62352 0.07484 0.0
H475 H 0.10565 0.69557 0.0936 0.0
H476 H 0.16164 0.74838 0.15296 0.0
H477 H 0.13948 0.76861 0.19267 0.0
H478 H 0.21432 0.90952 0.17025 0.0
H479 H 0.2373 0.88967 0.13078 0.0
H480 H 0.28371 0.91069 0.06874 0.0
H481 H 0.35545 0.97246 0.05011 0.0
H482 H 0.41051 0.88202 0.04014 0.0
H483 H 0.33694 0.81915 0.05747 0.0
N484 N 0.23754 0.78273 0.06981 0.0
N485 N 0.18735 0.763 0.10502 0.0
N486 N 0.25185 0.8364 0.10096 0.0
C487 C 0.19863 0.75152 0.08273 0.0
C488 C 0.21395 0.80522 0.11437 0.0
C489 C 0.26409 0.82531 0.07886 0.0
C490 C 0.16671 0.70646 0.07195 0.0
C491 C 0.18263 0.68779 0.05358 0.0
C492 C 0.15162 0.6458 0.04305 0.0
C493 C 0.10375 0.62216 0.05014 0.0
C494 C 0.0881 0.64075 0.0687 0.0
C495 C 0.11922 0.68216 0.07957 0.0
C496 C 0.20113 0.81741 0.13864 0.0
C497 C 0.1735 0.7837 0.15652 0.0
C498 C 0.16104 0.79524 0.1793 0.0
C499 C 0.17511 0.84058 0.18445 0.0
C500 C 0.20281 0.87427 0.16667 0.0
C501 C 0.21608 0.86288 0.14412 0.0
C502 C 0.30501 0.86035 0.06459 0.0
C503 C 0.31063 0.90375 0.06194 0.0
C504 C 0.06566 0.40943 0.05642 0.0
C505 C 0.07308 0.45186 0.04834 0.0
C506 C 0.1189 0.48953 0.04966 0.0
C507 C 0.15659 0.48442 0.05819 0.0
H508 H 0.33254 0.51431 0.05598 0.0
H509 H 0.40784 0.52402 0.03998 0.0
H510 H 0.35225 0.37991 0.04734 0.0
H511 H 0.27882 0.37075 0.06428 0.0
H512 H 0.24174 0.35111 0.13044 0.0
H513 H 0.22135 0.30948 0.17042 0.0
H514 H 0.13394 0.36605 0.19022 0.0
H515 H 0.15322 0.40697 0.14988 0.0
H516 H 0.09567 0.3715 0.07203 0.0
H517 H 0.0307 0.37994 0.05606 0.0
H518 H 0.12554 0.52299 0.04451 0.0
H519 H 0.19146 0.5139 0.05916 0.0
N520 N 0.2267 0.44633 0.06551 0.0
N521 N 0.24857 0.41463 0.09864 0.0
N522 N 0.1779 0.41572 0.1013 0.0
C523 C 0.258 0.4355 0.07572 0.0
C524 C 0.20908 0.40538 0.11179 0.0
C525 C 0.18627 0.43606 0.07828 0.0
C526 C 0.29994 0.44174 0.06146 0.0
C527 C 0.33626 0.48473 0.05355 0.0
C528 C 0.37924 0.49025 0.04426 0.0
C529 C 0.38582 0.45259 0.04206 0.0
C530 C 0.34822 0.40953 0.0486 0.0
C531 C 0.30614 0.40423 0.05835 0.0
C532 C 0.19891 0.38222 0.13681 0.0
C533 C 0.21843 0.35502 0.14333 0.0
C534 C 0.20673 0.3311 0.16622 0.0
C535 C 0.17613 0.3346 0.18344 0.0
C536 C 0.15784 0.36296 0.17738 0.0
C537 C 0.16867 0.38611 0.1542 0.0
C538 C 0.14866 0.44192 0.06656 0.0
C539 C 0.10284 0.40459 0.06554 0.0
C540 C 0.33147 0.92013 0.3243 0.0
C541 C 0.29393 0.87717 0.33106 0.0
C542 C 0.30038 0.83943 0.32884 0.0
C543 C 0.34319 0.84479 0.31935 0.0
H544 H 0.48799 0.81584 0.3141 0.0
H545 H 0.55379 0.80702 0.32928 0.0
H546 H 0.64864 0.94993 0.3172 0.0
H547 H 0.58382 0.95805 0.30066 0.0
H548 H 0.52668 0.92261 0.22287 0.0
H549 H 0.54578 0.96331 0.18245 0.0
H550 H 0.45694 0.01851 0.2018 0.0
H551 H 0.43674 0.97711 0.24184 0.0
H552 H 0.40061 0.95867 0.30827 0.0
H553 H 0.32755 0.9498 0.32557 0.0
H554 H 0.27182 0.80573 0.33329 0.0
H555 H 0.34683 0.81516 0.31695 0.0
N556 N 0.45272 0.88315 0.30723 0.0
N557 N 0.5015 0.91356 0.27142 0.0
N558 N 0.4307 0.91447 0.27397 0.0
C559 C 0.49317 0.89339 0.2945 0.0
C560 C 0.47022 0.92371 0.26084 0.0
C561 C 0.42133 0.89379 0.29695 0.0
C562 C 0.53082 0.8877 0.30634 0.0
C563 C 0.52284 0.84534 0.31503 0.0
C564 C 0.56047 0.84039 0.32387 0.0
C565 C 0.60626 0.87811 0.32521 0.0
C566 C 0.61371 0.9204 0.31682 0.0
C567 C 0.57662 0.92506 0.30737 0.0
C568 C 0.4803 0.94669 0.23574 0.0
C569 C 0.51086 0.9431 0.21843 0.0
C570 C 0.52158 0.96612 0.1952 0.0
C571 C 0.50284 0.99404 0.18898 0.0
C572 C 0.47189 0.9972 0.2061 0.0
C573 C 0.46031 0.97343 0.22904 0.0
C574 C 0.37945 0.88769 0.31124 0.0
C575 C 0.37335 0.92526 0.31434 0.0
C576 C 0.10684 0.40809 0.30221 0.0
C577 C 0.14057 0.42357 0.32138 0.0
C578 C 0.16191 0.46919 0.32837 0.0
C579 C 0.14894 0.49834 0.31692 0.0
H580 H 0.16489 0.62479 0.32332 0.0
H581 H 0.1882 0.69733 0.34245 0.0
H582 H 0.08406 0.7092 0.29869 0.0
H583 H 0.0615 0.63718 0.27914 0.0
H584 H 0.99951 0.5597 0.24058 0.0
H585 H 0.95545 0.54314 0.20169 0.0
H586 H 1.0054 0.45247 0.18036 0.0
H587 H 0.04945 0.46869 0.21951 0.0
H588 H 0.06776 0.42401 0.27613 0.0
H589 H 0.08979 0.37323 0.29618 0.0
H590 H 0.18866 0.48253 0.34267 0.0
H591 H 0.16584 0.53321 0.32295 0.0
N592 N 0.11221 0.55348 0.29736 0.0
N593 N 0.06981 0.56827 0.2672 0.0
N594 N 0.07228 0.50071 0.26576 0.0
C595 C 0.09742 0.58121 0.28781 0.0
C596 C 0.05725 0.52825 0.25599 0.0
C597 C 0.09967 0.51312 0.28658 0.0
C598 C 0.11124 0.62508 0.29972 0.0
C599 C 0.14683 0.64277 0.31783 0.0
C600 C 0.1601 0.68436 0.3289 0.0
C601 C 0.13763 0.70887 0.32235 0.0
C602 C 0.10207 0.69119 0.30423 0.0
C603 C 0.08912 0.64983 0.29298 0.0
C604 C 0.02817 0.51564 0.2331 0.0
C605 C 1.00092 0.53598 0.22771 0.0
C606 C 0.97542 0.52631 0.20552 0.0
C607 C 0.9771 0.4966 0.18803 0.0
C608 C 1.00375 0.47571 0.1935 0.0
C609 C 0.02872 0.48482 0.21594 0.0
C610 C 0.11475 0.48266 0.29798 0.0
C611 C 0.09422 0.4373 0.2906 0.0
C612 C 0.59208 0.6897 0.30503 0.0
C613 C 0.57634 0.70792 0.32377 0.0
C614 C 0.52853 0.68393 0.33093 0.0
C615 C 0.49766 0.64199 0.32029 0.0
H616 H 0.34332 0.51111 0.31555 0.0
H617 H 0.26933 0.44817 0.33243 0.0
H618 H 0.324 0.35742 0.32241 0.0
H619 H 0.39619 0.4193 0.30422 0.0
H620 H 0.44407 0.44099 0.24265 0.0
H621 H 0.46718 0.42132 0.20316 0.0
H622 H 0.54145 0.56223 0.18076 0.0
H623 H 0.5192 0.58231 0.22051 0.0
H624 H 0.57477 0.63525 0.27988 0.0
H625 H 0.62849 0.70723 0.29881 0.0
H626 H 0.51478 0.69748 0.34471 0.0
H627 H 0.46122 0.62411 0.32646 0.0
N628 N 0.44279 0.54741 0.30357 0.0
N629 N 0.42883 0.49401 0.27231 0.0
N630 N 0.49342 0.56742 0.26854 0.0
C631 C 0.41632 0.50492 0.29439 0.0
C632 C 0.46691 0.52528 0.25906 0.0
C633 C 0.48189 0.57872 0.29082 0.0
C634 C 0.37512 0.46978 0.30844 0.0
C635 C 0.33964 0.47782 0.31747 0.0
C636 C 0.29751 0.44193 0.3273 0.0
C637 C 0.29127 0.39804 0.32915 0.0
C638 C 0.32803 0.39096 0.32141 0.0
C639 C 0.36925 0.42627 0.31095 0.0
C640 C 0.47996 0.51325 0.2348 0.0
C641 C 0.46521 0.46782 0.22931 0.0
C642 C 0.47854 0.45653 0.20676 0.0
C643 C 0.50609 0.49028 0.18896 0.0
C644 C 0.52001 0.53558 0.19413 0.0
C645 C 0.5075 0.54702 0.21694 0.0
C646 C 0.51366 0.62372 0.30174 0.0
C647 C 0.56111 0.64835 0.29405 0.0
Tb648 Tb 0.48828 0.96527 0.99095 0.0
C649 C 0.58013 0.13697 0.05592 0.0
C650 C 0.66314 0.16153 0.05478 0.0
C651 C 0.63777 0.21685 0.06029 0.0
C652 C 0.61564 0.12694 0.05344 0.0
C653 C 0.59057 0.18188 0.05994 0.0
C654 C 0.67404 0.20669 0.05767 0.0
C655 C 0.50725 0.15365 0.06499 0.0
N656 N 0.53515 0.10218 0.05559 0.0
C657 C 0.49875 0.10967 0.06097 0.0
C658 C 0.55333 0.19002 0.06415 0.0
Tb659 Tb 0.52449 0.03143 0.04808 0.0
N660 N 0.6035 0.0829 0.05087 0.0
C661 C 0.63751 0.07082 0.05145 0.0
C662 C 0.69812 0.14952 0.05383 0.0
C663 C 0.68518 0.10388 0.05252 0.0
H664 H 0.46293 0.08201 0.06161 0.0
H665 H 0.71189 0.09409 0.05227 0.0
H666 H 0.71032 0.23382 0.05851 0.0
H667 H 0.47823 0.15945 0.06869 0.0
H668 H 0.62844 0.03582 0.05035 0.0
H669 H 0.30089 0.90277 0.98706 0.0
H670 H 0.73504 0.17505 0.05471 0.0
H671 H 0.54964 0.9146 0.97724 0.0
H672 H 0.3844 0.96101 0.98877 0.0
H673 H 0.53422 0.83709 0.97019 0.0
H674 H 0.64658 0.25166 0.06312 0.0
H675 H 0.27764 0.82177 0.98478 0.0
H676 H 0.30224 0.76291 0.98101 0.0
H677 H 0.55982 0.22403 0.06732 0.0
H678 H 0.3659 0.74498 0.97628 0.0
N679 N 0.40923 0.91385 0.98833 0.0
C680 C 0.37526 0.92598 0.98776 0.0
C681 C 0.31458 0.84728 0.98558 0.0
C682 C 0.34951 0.83521 0.9846 0.0
C683 C 0.32758 0.89294 0.9868 0.0
C684 C 0.39703 0.86978 0.98584 0.0
H685 H 0.45261 0.77254 0.97183 0.0
N686 N 0.4775 0.89447 0.98351 0.0
C687 C 0.50525 0.84293 0.97399 0.0
C688 C 0.4325 0.85969 0.98331 0.0
C689 C 0.51382 0.88693 0.97799 0.0
C690 C 0.45916 0.80657 0.97499 0.0
C691 C 0.42198 0.81476 0.97931 0.0
O692 O 0.5278 0.98122 0.95736 0.0
O693 O 0.54209 0.024 1.01004 0.0
O694 O 0.51666 0.07338 0.01929 0.0
O695 O 0.46616 0.01659 0.99206 0.0
O696 O 0.5636 0.98934 0.98781 0.0
O697 O 0.46136 0.97907 0.95819 0.0
O698 O 0.48488 0.0154 0.08165 0.0
O699 O 0.47072 0.97275 0.02898 0.0
O700 O 0.49638 0.92344 0.01965 0.0
O701 O 0.54684 0.98027 0.04687 0.0
O702 O 0.44918 0.00747 0.05109 0.0
O703 O 0.55111 0.01718 0.08083 0.0
C704 C 0.57836 0.02446 1.00163 0.0
C705 C 0.4866 0.96459 0.91924 0.0
C706 C 0.49427 0.97287 0.87343 0.0
C707 C 0.50027 0.9922 0.8974 0.0
C708 C 0.47379 0.92563 0.87165 0.0
C709 C 0.46568 0.91751 0.9169 0.0
C710 C 0.45928 0.89822 0.89322 0.0
C711 C 0.48664 0.05877 1.00036 0.0
C712 C 0.49693 0.98554 0.94425 0.0
C713 C 0.37477 0.77981 0.97909 0.0
C714 C 0.33854 0.79002 0.98177 0.0
C715 C 0.43442 0.97229 0.03733 0.0
C716 C 0.52582 0.03134 0.11987 0.0
C717 C 0.51211 0.0035 0.14164 0.0
C718 C 0.51811 0.0226 0.16569 0.0
C719 C 0.53863 0.06982 0.1676 0.0
C720 C 0.54675 0.07839 0.12237 0.0
C721 C 0.55316 0.09744 0.14612 0.0
C722 C 0.5266 0.93816 0.03847 0.0
C723 C 0.51553 0.01072 0.09476 0.0
H724 H 0.51668 0.02865 0.89908 0.0
H725 H 0.4686 0.90986 0.8535 0.0
H726 H 0.45484 0.89573 0.93334 0.0
H727 H 0.44333 0.86185 0.89158 0.0
H728 H 0.49569 0.96706 0.13985 0.0
H729 H 0.54381 0.08542 0.18581 0.0
H730 H 0.5576 0.10033 0.10599 0.0
H731 H 0.56913 0.13378 0.14787 0.0
Tb732 Tb 0.04335 0.51196 0.99262 0.0
C733 C 0.85947 0.43993 0.05219 0.0
C734 C 0.83994 0.49911 0.04704 0.0
C735 C 0.77751 0.42084 0.05212 0.0
C736 C 0.87353 0.48494 0.04848 0.0
C737 C 0.8114 0.40742 0.05496 0.0
C738 C 0.79186 0.46666 0.04795 0.0
C739 C 0.83445 0.35198 0.065 0.0
N740 N 0.89332 0.42848 0.05447 0.0
C741 C 0.8817 0.38552 0.06185 0.0
C742 C 0.79906 0.36278 0.06109 0.0
Tb743 Tb 0.96952 0.48514 0.04793 0.0
N744 N 0.92034 0.51505 0.04736 0.0
C745 C 0.93586 0.56057 0.04707 0.0
C746 C 0.8557 0.54548 0.04516 0.0
C747 C 0.90389 0.57636 0.04565 0.0
H748 H 0.90881 0.37675 0.06454 0.0
H749 H 0.91651 0.61238 0.0447 0.0
H750 H 0.76574 0.47696 0.04595 0.0
H751 H 0.82535 0.31778 0.07022 0.0
H752 H 0.97286 0.58518 0.04709 0.0
H753 H 0.09863 0.3864 0.99546 0.0
H754 H 0.83101 0.55776 0.04392 0.0
H755 H 0.10279 0.6207 0.97633 0.0
H756 H 0.04139 0.41262 0.99347 0.0
H757 H 0.1859 0.68034 0.9705 0.0
H758 H 0.7403 0.39628 0.05362 0.0
H759 H 0.18394 0.44182 0.99583 0.0
H760 H 0.24841 0.5229 0.99368 0.0
H761 H 0.7625 0.33674 0.06343 0.0
H762 H 0.27278 0.60337 0.98621 0.0
N763 N 0.09328 0.48294 0.99299 0.0
C764 C 0.07832 0.43754 0.99332 0.0
C765 C 0.15886 0.45366 0.99476 0.0
C766 C 0.17401 0.49991 0.99292 0.0
C767 C 0.11078 0.42232 0.99451 0.0
C768 C 0.13995 0.51353 0.9917 0.0
H769 H 0.24948 0.66227 0.97687 0.0
N770 N 0.11918 0.5695 0.98628 0.0
C771 C 0.17727 0.64624 0.97567 0.0
C772 C 0.15344 0.55848 0.98823 0.0
C773 C 0.1302 0.61233 0.97894 0.0
C774 C 0.21308 0.63593 0.97933 0.0
C775 C 0.20135 0.59141 0.98532 0.0
O776 O 0.03434 0.53598 0.95786 0.0
O777 O 0.98048 0.50662 1.0092 0.0
O778 O 0.92741 0.43433 0.02008 0.0
O779 O 0.98743 0.43988 0.99395 0.0
O780 O 0.01946 0.56103 0.98634 0.0
O781 O 0.03292 0.47223 0.96062 0.0
O782 O 0.97428 0.45952 0.0832 0.0
O783 O 0.03185 0.48985 0.03122 0.0
O784 O 0.08575 0.56238 0.02052 0.0
O785 O 0.02581 0.5571 0.04659 0.0
O786 O 0.99356 0.43622 0.05459 0.0
O787 O 0.98497 0.52702 0.07926 0.0
C788 C 0.98109 0.54067 0.99929 0.0
C789 C 0.05801 0.51275 0.92206 0.0
C790 C 0.05777 0.51478 0.87639 0.0
C791 C 0.03342 0.50116 0.89941 0.0
C792 C 0.10715 0.53987 0.87619 0.0
C793 C 0.10737 0.53707 0.92162 0.0
C794 C 0.13178 0.55054 0.89875 0.0
C795 C 0.94305 0.41845 1.0021 0.0
C796 C 0.0311 0.50171 0.94566 0.0
C797 C 0.23568 0.5785 0.98785 0.0
C798 C 0.22194 0.53278 0.99188 0.0
C799 C 0.03154 0.45612 0.04133 0.0
C800 C 0.95487 0.48923 0.11801 0.0
C801 C 0.97688 0.49355 0.14113 0.0
C802 C 0.95263 0.48908 0.16374 0.0
C803 C 0.90571 0.47953 0.16291 0.0
C804 C 0.90802 0.47956 0.11749 0.0
C805 C 0.88353 0.47454 0.13988 0.0
C806 C 0.07024 0.57832 0.03851 0.0
C807 C 0.98198 0.49597 0.09481 0.0
H808 H 0.99523 0.48254 0.89969 0.0
H809 H 0.12656 0.55068 0.85861 0.0
H810 H 0.127 0.5461 0.93882 0.0
H811 H 0.16987 0.56958 0.89851 0.0
H812 H 0.01333 0.50166 0.14149 0.0
H813 H 0.88623 0.47586 0.18007 0.0
H814 H 0.89054 0.4763 0.09988 0.0
H815 H 0.84739 0.46716 0.13939 0.0
Tb816 Tb 0.52223 0.48032 0.04858 0.0
C817 C 0.44387 0.57621 0.9824 0.0
C818 C 0.35984 0.5255 0.98022 0.0
C819 C 0.39192 0.60658 0.97453 0.0
C820 C 0.40574 0.53299 0.98386 0.0
C821 C 0.43756 0.61357 0.97748 0.0
C822 C 0.35318 0.56259 0.9757 0.0
C823 C 0.52203 0.66124 0.97618 0.0
N824 N 0.48743 0.58128 0.98443 0.0
C825 C 0.5265 0.62307 0.98066 0.0
C826 C 0.47736 0.65656 0.97477 0.0
Tb827 Tb 0.491 0.51641 0.99147 0.0
N828 N 0.41392 0.49807 0.98737 0.0
C829 C 0.37755 0.45438 0.98626 0.0
C830 C 0.32227 0.48092 0.98038 0.0
C831 C 0.33125 0.44519 0.98324 0.0
H832 H 0.56139 0.62761 0.98162 0.0
H833 H 0.30256 0.41052 0.98296 0.0
H834 H 0.31849 0.55764 0.9723 0.0
H835 H 0.55308 0.69424 0.97372 0.0
H836 H 0.38384 0.42631 0.98817 0.0
H837 H 0.71063 0.58686 0.05671 0.0
H838 H 0.28645 0.4737 0.97777 0.0
H839 H 0.45231 0.36929 0.05888 0.0
H840 H 0.62918 0.5707 0.05167 0.0
H841 H 0.46096 0.30282 0.06681 0.0
H842 H 0.3863 0.63477 0.97063 0.0
H843 H 0.72715 0.52394 0.06184 0.0
H844 H 0.69548 0.44005 0.06736 0.0
H845 H 0.474 0.68612 0.97104 0.0
H846 H 0.62789 0.3628 0.06923 0.0
N847 N 0.59943 0.49898 0.05248 0.0
C848 C 0.63566 0.54274 0.05354 0.0
C849 C 0.69125 0.51655 0.05928 0.0
C850 C 0.65383 0.47189 0.0595 0.0
C851 C 0.68205 0.55214 0.05647 0.0
C852 C 0.60783 0.46419 0.05596 0.0
H853 H 0.5402 0.31121 0.06915 0.0
N854 N 0.52618 0.41568 0.05568 0.0
C855 C 0.49192 0.33584 0.06418 0.0
C856 C 0.56983 0.42091 0.05754 0.0
C857 C 0.48724 0.37389 0.05968 0.0
C858 C 0.53667 0.34067 0.0654 0.0
C859 C 0.57635 0.3837 0.06249 0.0
O860 O 0.48357 0.45819 0.0824 0.0
O861 O 0.47011 0.49042 0.02921 0.0
O862 O 0.49702 0.5631 0.0208 0.0
O863 O 0.54789 0.55383 0.04737 0.0
O864 O 0.44605 0.43492 0.05178 0.0
O865 O 0.55065 0.5196 0.08094 0.0
O866 O 0.52998 0.53852 0.95775 0.0
O867 O 0.54306 0.50612 1.01079 0.0
O868 O 0.51537 0.43311 0.01936 0.0
O869 O 0.46484 0.44283 0.99271 0.0
O870 O 0.56718 0.56189 0.98849 0.0
O871 O 0.46267 0.47735 0.95901 0.0
C872 C 0.43269 0.45678 0.03753 0.0
C873 C 0.52723 0.47952 0.1197 0.0
C874 C 0.52142 0.4782 0.16546 0.0
C875 C 0.51357 0.4921 0.14188 0.0
C876 C 0.54364 0.45209 0.16655 0.0
C877 C 0.54984 0.4539 0.12124 0.0
C878 C 0.55804 0.44035 0.14456 0.0
C879 C 0.52745 0.57682 0.03944 0.0
C880 C 0.5156 0.49159 0.09522 0.0
C881 C 0.62209 0.39088 0.06531 0.0
C882 C 0.6607 0.43493 0.06402 0.0
C883 C 0.58054 0.53984 1.00258 0.0
C884 C 0.48671 0.51769 0.92034 0.0
C885 C 0.50047 0.50513 0.89818 0.0
C886 C 0.4931 0.51939 0.8746 0.0
C887 C 0.47126 0.54585 0.87347 0.0
C888 C 0.46449 0.54366 0.91876 0.0
C889 C 0.45677 0.55758 0.89544 0.0
C890 C 0.48466 0.41939 1.00084 0.0
C891 C 0.49794 0.5053 0.94483 0.0
H892 H 0.49581 0.51169 0.14078 0.0
H893 H 0.55027 0.44115 0.18445 0.0
H894 H 0.56076 0.44403 0.10451 0.0
H895 H 0.57537 0.42043 0.14558 0.0
H896 H 0.51794 0.48529 0.89932 0.0
H897 H 0.46499 0.55706 0.85556 0.0
H898 H 0.45352 0.55354 0.93547 0.0
H899 H 0.43976 0.57777 0.89439 0.0
Tb900 Tb 0.15495 0.29859 0.32428 0.0
C901 C 0.2468 0.4703 0.38925 0.0
C902 C 0.32982 0.49485 0.38811 0.0
C903 C 0.30445 0.55018 0.39362 0.0
C904 C 0.28231 0.46026 0.38677 0.0
C905 C 0.25725 0.5152 0.39327 0.0
C906 C 0.34072 0.54001 0.391 0.0
C907 C 0.17393 0.48698 0.39832 0.0
N908 N 0.20182 0.4355 0.38892 0.0
C909 C 0.16542 0.443 0.3943 0.0
C910 C 0.22001 0.52335 0.39748 0.0
Tb911 Tb 0.19115 0.36476 0.38141 0.0
N912 N 0.27017 0.41622 0.3842 0.0
C913 C 0.30418 0.40414 0.38478 0.0
C914 C 0.36479 0.48284 0.38716 0.0
C915 C 0.35184 0.4372 0.38585 0.0
H916 H 0.12961 0.41535 0.39494 0.0
H917 H 0.37856 0.42741 0.3856 0.0
H918 H 0.377 0.56714 0.39184 0.0
H919 H 0.14491 0.49278 0.40203 0.0
H920 H 0.2951 0.36914 0.38369 0.0
H921 H 0.96756 0.2361 0.32039 0.0
H922 H 0.40171 0.50836 0.38804 0.0
H923 H 0.2163 0.24792 0.31057 0.0
H924 H 0.05107 0.29434 0.3221 0.0
H925 H 0.20088 0.17041 0.30352 0.0
H926 H 0.31326 0.58498 0.39645 0.0
H927 H 0.9443 0.1551 0.31811 0.0
H928 H 0.9689 0.09624 0.31434 0.0
H929 H 0.2265 0.55736 0.40065 0.0
H930 H 0.03255 0.07831 0.30961 0.0
N931 N 0.0759 0.24718 0.32166 0.0
C932 C 0.04193 0.25931 0.32109 0.0
C933 C 0.98124 0.18061 0.31891 0.0
C934 C 0.01617 0.16854 0.31793 0.0
C935 C 0.99424 0.22628 0.32013 0.0
C936 C 0.0637 0.20311 0.31917 0.0
H937 H 0.11927 0.10586 0.30516 0.0
N938 N 0.14416 0.22779 0.31684 0.0
C939 C 0.17191 0.17625 0.30733 0.0
C940 C 0.09917 0.19302 0.31664 0.0
C941 C 0.18048 0.22026 0.31132 0.0
C942 C 0.12582 0.13989 0.30832 0.0
C943 C 0.08864 0.14808 0.31264 0.0
O944 O 0.19446 0.31454 0.29069 0.0
O945 O 0.20876 0.35732 0.34338 0.0
O946 O 0.18333 0.40671 0.35262 0.0
O947 O 0.13283 0.34991 0.3254 0.0
O948 O 0.23026 0.32266 0.32114 0.0
O949 O 0.12802 0.3124 0.29152 0.0
O950 O 0.15155 0.34873 0.41498 0.0
O951 O 0.13739 0.30608 0.36231 0.0
O952 O 0.16304 0.25677 0.35299 0.0
O953 O 0.2135 0.3136 0.38021 0.0
O954 O 0.11585 0.3408 0.38443 0.0
O955 O 0.21778 0.3505 0.41416 0.0
C956 C 0.24503 0.35778 0.33496 0.0
C957 C 0.15326 0.29792 0.25257 0.0
C958 C 0.16093 0.3062 0.20676 0.0
C959 C 0.16694 0.32553 0.23073 0.0
C960 C 0.14045 0.25895 0.20498 0.0
C961 C 0.13235 0.25084 0.25023 0.0
C962 C 0.12594 0.23155 0.22655 0.0
C963 C 0.15331 0.3921 0.33369 0.0
C964 C 0.1636 0.31887 0.27758 0.0
C965 C 0.04142 0.11313 0.31242 0.0
C966 C 1.0052 0.12335 0.3151 0.0
C967 C 0.10108 0.30562 0.37066 0.0
C968 C 0.19249 0.36467 0.4532 0.0
C969 C 0.17878 0.33682 0.47497 0.0
C970 C 0.18479 0.35592 0.49902 0.0
C971 C 0.20531 0.40315 0.50093 0.0
C972 C 0.21343 0.41171 0.4557 0.0
C973 C 0.21984 0.43077 0.47945 0.0
C974 C 0.19326 0.27148 0.37181 0.0
C975 C 0.1822 0.34404 0.42809 0.0
H976 H 0.18334 0.36198 0.23241 0.0
H977 H 0.13526 0.24319 0.18683 0.0
H978 H 0.1215 0.22906 0.26667 0.0
H979 H 0.10998 0.19518 0.22491 0.0
H980 H 0.16235 0.30039 0.47318 0.0
H981 H 0.21049 0.41875 0.51914 0.0
H982 H 0.22428 0.43366 0.43932 0.0
H983 H 0.23581 0.46711 0.48121 0.0
Tb984 Tb 0.71001 0.84529 0.32595 0.0
C985 C 0.52613 0.77326 0.38553 0.0
C986 C 0.5066 0.83244 0.38037 0.0
C987 C 0.44417 0.75417 0.38545 0.0
C988 C 0.54019 0.81827 0.38182 0.0
C989 C 0.47806 0.74075 0.38829 0.0
C990 C 0.45852 0.79999 0.38128 0.0
C991 C 0.50111 0.68532 0.39834 0.0
N992 N 0.55998 0.76182 0.3878 0.0
C993 C 0.54836 0.71885 0.39519 0.0
C994 C 0.46572 0.69611 0.39443 0.0
Tb995 Tb 0.63618 0.81847 0.38126 0.0
N996 N 0.58699 0.84838 0.3807 0.0
C997 C 0.60252 0.8939 0.3804 0.0
C998 C 0.52236 0.87881 0.37849 0.0
C999 C 0.57055 0.90969 0.37898 0.0
H1000 H 0.57547 0.71008 0.39788 0.0
H1001 H 0.58317 0.94571 0.37803 0.0
H1002 H 0.4324 0.81029 0.37928 0.0
H1003 H 0.49201 0.65111 0.40355 0.0
H1004 H 0.63952 0.91851 0.38042 0.0
H1005 H 0.76529 0.71973 0.3288 0.0
H1006 H 0.49766 0.89109 0.37725 0.0
H1007 H 0.76945 0.95403 0.30966 0.0
H1008 H 0.70805 0.74595 0.32681 0.0
H1009 H 0.85256 0.01367 0.30383 0.0
H1010 H 0.40696 0.72961 0.38696 0.0
H1011 H 0.8506 0.77515 0.32917 0.0
H1012 H 0.91507 0.85623 0.32702 0.0
H1013 H 0.42916 0.67007 0.39677 0.0
H1014 H 0.93945 0.9367 0.31955 0.0
N1015 N 0.75994 0.81627 0.32633 0.0
C1016 C 0.74498 0.77087 0.32666 0.0
C1017 C 0.82552 0.78699 0.3281 0.0
C1018 C 0.84067 0.83324 0.32626 0.0
C1019 C 0.77744 0.75565 0.32785 0.0
C1020 C 0.80661 0.84686 0.32504 0.0
H1021 H 0.91615 0.9956 0.31021 0.0
N1022 N 0.78584 0.90283 0.31962 0.0
C1023 C 0.84393 0.97957 0.309 0.0
C1024 C 0.8201 0.89181 0.32157 0.0
C1025 C 0.79687 0.94566 0.31228 0.0
C1026 C 0.87974 0.96926 0.31266 0.0
C1027 C 0.86801 0.92474 0.31866 0.0
O1028 O 0.701 0.86931 0.29119 0.0
O1029 O 0.64714 0.83995 0.34253 0.0
O1030 O 0.59407 0.76766 0.35341 0.0
O1031 O 0.6541 0.77321 0.32729 0.0
O1032 O 0.68612 0.89436 0.31968 0.0
O1033 O 0.69958 0.80556 0.29396 0.0
O1034 O 0.64094 0.79285 0.41654 0.0
O1035 O 0.69851 0.82318 0.36456 0.0
O1036 O 0.75241 0.89571 0.35385 0.0
O1037 O 0.69247 0.89043 0.37992 0.0
O1038 O 0.66022 0.76955 0.38793 0.0
O1039 O 0.65163 0.86036 0.4126 0.0
C1040 C 0.64775 0.874 0.33262 0.0
C1041 C 0.72467 0.84608 0.25539 0.0
C1042 C 0.72444 0.84812 0.20973 0.0
C1043 C 0.70008 0.83449 0.23275 0.0
C1044 C 0.77382 0.8732 0.20952 0.0
C1045 C 0.77403 0.8704 0.25496 0.0
C1046 C 0.79845 0.88387 0.23209 0.0
C1047 C 0.60971 0.75178 0.33543 0.0
C1048 C 0.69776 0.83504 0.27899 0.0
C1049 C 0.90234 0.91183 0.32119 0.0
C1050 C 0.8886 0.86611 0.32521 0.0
C1051 C 0.6982 0.78945 0.37467 0.0
C1052 C 0.62153 0.82256 0.45134 0.0
C1053 C 0.64354 0.82688 0.47446 0.0
C1054 C 0.61929 0.82242 0.49707 0.0
C1055 C 0.57237 0.81287 0.49624 0.0
C1056 C 0.57468 0.81289 0.45082 0.0
C1057 C 0.55019 0.80788 0.47322 0.0
C1058 C 0.7369 0.91165 0.37184 0.0
C1059 C 0.64864 0.8293 0.42814 0.0
H1060 H 0.6619 0.81588 0.23303 0.0
H1061 H 0.79322 0.884 0.19195 0.0
H1062 H 0.79366 0.87943 0.27216 0.0
H1063 H 0.83653 0.90291 0.23185 0.0
H1064 H 0.67999 0.83499 0.47482 0.0
H1065 H 0.55289 0.80919 0.5134 0.0
H1066 H 0.5572 0.80963 0.43322 0.0
H1067 H 0.51405 0.8005 0.47272 0.0
Tb1068 Tb 0.18889 0.81364 0.38191 0.0
C1069 C 0.11052 0.90953 0.31573 0.0
C1070 C 0.02649 0.85881 0.31356 0.0
C1071 C 0.05857 0.93989 0.30786 0.0
C1072 C 0.07239 0.86631 0.31719 0.0
C1073 C 0.10421 0.94688 0.31081 0.0
C1074 C 0.01983 0.8959 0.30903 0.0
C1075 C 0.18868 0.99456 0.30951 0.0
N1076 N 0.15408 0.9146 0.31776 0.0
C1077 C 0.19315 0.95639 0.31399 0.0
C1078 C 0.14401 0.98987 0.3081 0.0
Tb1079 Tb 0.15766 0.84973 0.3248 0.0
N1080 N 0.08058 0.83139 0.3207 0.0
C1081 C 0.04421 0.7877 0.31959 0.0
C1082 C 0.98893 0.81423 0.31371 0.0
C1083 C 0.99791 0.7785 0.31657 0.0
H1084 H 0.22804 0.96093 0.31496 0.0
H1085 H 0.96922 0.74383 0.31629 0.0
H1086 H 0.98514 0.89095 0.30562 0.0
H1087 H 0.21973 0.02756 0.30705 0.0
H1088 H 0.0505 0.75963 0.32151 0.0
H1089 H 0.37728 0.92019 0.39005 0.0
H1090 H 0.9531 0.80701 0.3111 0.0
H1091 H 0.11897 0.70261 0.39221 0.0
H1092 H 0.29583 0.90402 0.38501 0.0
H1093 H 0.12762 0.63614 0.40014 0.0
H1094 H 0.05295 0.96809 0.30396 0.0
H1095 H 0.39381 0.85727 0.39518 0.0
H1096 H 0.36214 0.77338 0.4007 0.0
H1097 H 0.14064 0.01943 0.30437 0.0
H1098 H 0.29455 0.69613 0.40257 0.0
N1099 N 0.26608 0.8323 0.38581 0.0
C1100 C 0.30231 0.87606 0.38688 0.0
C1101 C 0.35791 0.84988 0.39262 0.0
C1102 C 0.32049 0.80522 0.39284 0.0
C1103 C 0.34871 0.88547 0.3898 0.0
C1104 C 0.27449 0.79752 0.3893 0.0
H1105 H 0.20687 0.64454 0.40249 0.0
N1106 N 0.19284 0.749 0.38901 0.0
C1107 C 0.15858 0.66917 0.39751 0.0
C1108 C 0.23649 0.75424 0.39088 0.0
C1109 C 0.1539 0.70722 0.39302 0.0
C1110 C 0.20334 0.674 0.39873 0.0
C1111 C 0.24301 0.71703 0.39583 0.0
O1112 O 0.15022 0.79151 0.41573 0.0
O1113 O 0.13677 0.82374 0.36254 0.0
O1114 O 0.16368 0.89642 0.35413 0.0
O1115 O 0.21454 0.88715 0.3807 0.0
O1116 O 0.11271 0.76824 0.38511 0.0
O1117 O 0.21731 0.85292 0.41428 0.0
O1118 O 0.19664 0.87184 0.29108 0.0
O1119 O 0.20972 0.83944 0.34413 0.0
O1120 O 0.18203 0.76644 0.35269 0.0
O1121 O 0.13151 0.77616 0.32605 0.0
O1122 O 0.23384 0.89521 0.32182 0.0
O1123 O 0.12933 0.81067 0.29235 0.0
C1124 C 0.09934 0.7901 0.37086 0.0
C1125 C 0.19388 0.81284 0.45303 0.0
C1126 C 0.18807 0.81153 0.49879 0.0
C1127 C 0.18022 0.82543 0.47521 0.0
C1128 C 0.2103 0.78541 0.49988 0.0
C1129 C 0.21649 0.78722 0.45458 0.0
C1130 C 0.2247 0.77367 0.47789 0.0
C1131 C 0.1941 0.91014 0.37278 0.0
C1132 C 0.18225 0.82491 0.42856 0.0
C1133 C 0.28875 0.72421 0.39865 0.0
C1134 C 0.32737 0.76826 0.39736 0.0
C1135 C 0.2472 0.87317 0.33592 0.0
C1136 C 0.15337 0.85101 0.25368 0.0
C1137 C 0.16714 0.83846 0.23152 0.0
C1138 C 0.15977 0.85272 0.20793 0.0
C1139 C 0.13793 0.87918 0.20681 0.0
C1140 C 0.13116 0.87698 0.25209 0.0
C1141 C 0.12344 0.8909 0.22877 0.0
C1142 C 0.15133 0.75272 0.33417 0.0
C1143 C 0.1646 0.83863 0.27817 0.0
H1144 H 0.16247 0.84501 0.47412 0.0
H1145 H 0.21693 0.77447 0.51778 0.0
H1146 H 0.22741 0.77734 0.43784 0.0
H1147 H 0.24201 0.75375 0.47891 0.0
H1148 H 0.18461 0.81862 0.23265 0.0
H1149 H 0.13166 0.89039 0.1889 0.0
H1150 H 0.12018 0.88687 0.2688 0.0
H1151 H 0.10642 0.9111 0.22772 0.0
Tb1152 Tb 0.82161 0.63193 0.65762 0.0
C1153 C 0.91346 0.80364 0.72258 0.0
C1154 C 0.99647 0.82819 0.72145 0.0
C1155 C 0.9711 0.88351 0.72695 0.0
C1156 C 0.94897 0.7936 0.72011 0.0
C1157 C 0.92391 0.84854 0.7266 0.0
C1158 C 0.00738 0.87335 0.72434 0.0
C1159 C 0.84058 0.82031 0.73165 0.0
N1160 N 0.86848 0.76884 0.72225 0.0
C1161 C 0.83208 0.77634 0.72764 0.0
C1162 C 0.88666 0.85669 0.73081 0.0
Tb1163 Tb 0.85781 0.6981 0.71475 0.0
N1164 N 0.93683 0.74956 0.71753 0.0
C1165 C 0.97084 0.73748 0.71811 0.0
C1166 C 0.03145 0.81618 0.7205 0.0
C1167 C 0.01851 0.77054 0.71918 0.0
H1168 H 0.79626 0.74868 0.72827 0.0
H1169 H 0.04522 0.76075 0.71893 0.0
H1170 H 0.04365 0.90048 0.72518 0.0
H1171 H 0.81156 0.82611 0.73536 0.0
H1172 H 0.96177 0.70248 0.71702 0.0
H1173 H 0.63422 0.56943 0.65373 0.0
H1174 H 0.06837 0.84171 0.72137 0.0
H1175 H 0.88296 0.58126 0.6439 0.0
H1176 H 0.71773 0.62767 0.65544 0.0
H1177 H 0.86754 0.50375 0.63685 0.0
H1178 H 0.97992 0.91832 0.72978 0.0
H1179 H 0.61097 0.48843 0.65144 0.0
H1180 H 0.63557 0.42958 0.64768 0.0
H1181 H 0.89316 0.89069 0.73399 0.0
H1182 H 0.69922 0.41164 0.64295 0.0
N1183 N 0.74256 0.58052 0.655 0.0
C1184 C 0.70859 0.59264 0.65442 0.0
C1185 C 0.6479 0.51394 0.65224 0.0
C1186 C 0.68283 0.50187 0.65127 0.0
C1187 C 0.6609 0.55961 0.65347 0.0
C1188 C 0.73036 0.53644 0.6525 0.0
H1189 H 0.78594 0.4392 0.63849 0.0
N1190 N 0.81082 0.56113 0.65018 0.0
C1191 C 0.83858 0.50959 0.64066 0.0
C1192 C 0.76583 0.52635 0.64997 0.0
C1193 C 0.84715 0.55359 0.64466 0.0
C1194 C 0.79249 0.47323 0.64165 0.0
C1195 C 0.75531 0.48142 0.64598 0.0
O1196 O 0.86112 0.64788 0.62403 0.0
O1197 O 0.87542 0.69066 0.67671 0.0
O1198 O 0.84999 0.74005 0.68595 0.0
O1199 O 0.79949 0.68325 0.65873 0.0
O1200 O 0.89692 0.656 0.65448 0.0
O1201 O 0.79468 0.64573 0.62485 0.0
O1202 O 0.81821 0.68207 0.74832 0.0
O1203 O 0.80405 0.63941 0.69565 0.0
O1204 O 0.82971 0.5901 0.68632 0.0
O1205 O 0.88016 0.64693 0.71354 0.0
O1206 O 0.78251 0.67413 0.71776 0.0
O1207 O 0.88444 0.68384 0.74749 0.0
C1208 C 0.91169 0.69112 0.6683 0.0
C1209 C 0.81992 0.63125 0.58591 0.0
C1210 C 0.82759 0.63953 0.5401 0.0
C1211 C 0.83359 0.65886 0.56407 0.0
C1212 C 0.80711 0.59228 0.53832 0.0
C1213 C 0.799 0.58417 0.58356 0.0
C1214 C 0.79259 0.56488 0.55989 0.0
C1215 C 0.81997 0.72543 0.66702 0.0
C1216 C 0.83026 0.6522 0.61091 0.0
C1217 C 0.70809 0.44647 0.64575 0.0
C1218 C 0.67186 0.45668 0.64844 0.0
C1219 C 0.76774 0.63895 0.704 0.0
C1220 C 0.85915 0.698 0.78653 0.0
C1221 C 0.84545 0.67016 0.8083 0.0
C1222 C 0.85145 0.68926 0.83236 0.0
C1223 C 0.87197 0.73649 0.83427 0.0
C1224 C 0.88009 0.74505 0.78903 0.0
C1225 C 0.8865 0.7641 0.81278 0.0
C1226 C 0.85993 0.60482 0.70514 0.0
C1227 C 0.84886 0.67738 0.76142 0.0
H1228 H 0.85 0.69531 0.56575 0.0
H1229 H 0.80191 0.57651 0.52016 0.0
H1230 H 0.78816 0.56239 0.60001 0.0
H1231 H 0.77664 0.52851 0.55825 0.0
H1232 H 0.82902 0.63373 0.80651 0.0
H1233 H 0.87715 0.75209 0.85247 0.0
H1234 H 0.89094 0.767 0.77265 0.0
H1235 H 0.90247 0.80045 0.81454 0.0
Tb1236 Tb 0.37668 0.17862 0.65929 0.0
C1237 C 0.1928 0.1066 0.71886 0.0
C1238 C 0.17327 0.16578 0.71371 0.0
C1239 C 0.11084 0.0875 0.71878 0.0
C1240 C 0.20686 0.1516 0.71515 0.0
C1241 C 0.14472 0.07408 0.72163 0.0
C1242 C 0.12519 0.13333 0.71462 0.0
C1243 C 0.16778 0.01865 0.73167 0.0
N1244 N 0.22665 0.09515 0.72114 0.0
C1245 C 0.21503 0.05218 0.72852 0.0
C1246 C 0.13239 0.02945 0.72776 0.0
Tb1247 Tb 0.30285 0.1518 0.7146 0.0
N1248 N 0.25366 0.18171 0.71403 0.0
C1249 C 0.26919 0.22723 0.71374 0.0
C1250 C 0.18903 0.21214 0.71183 0.0
C1251 C 0.23722 0.24302 0.71232 0.0
H1252 H 0.24214 0.04341 0.73121 0.0
H1253 H 0.24984 0.27904 0.71137 0.0
H1254 H 0.09907 0.14363 0.71262 0.0
H1255 H 0.15868 0.98444 0.73689 0.0
H1256 H 0.30619 0.25185 0.71376 0.0
H1257 H 0.43196 0.05306 0.66214 0.0
H1258 H 0.16433 0.22442 0.71059 0.0
H1259 H 0.43612 0.28736 0.643 0.0
H1260 H 0.37472 0.07928 0.66014 0.0
H1261 H 0.51922 0.347 0.63717 0.0
H1262 H 0.07363 0.06294 0.72029 0.0
H1263 H 0.51727 0.10848 0.6625 0.0
H1264 H 0.58174 0.18956 0.66035 0.0
H1265 H 0.09583 0.0034 0.7301 0.0
H1266 H 0.60611 0.27003 0.65288 0.0
N1267 N 0.4266 0.1496 0.65967 0.0
C1268 C 0.41165 0.1042 0.65999 0.0
C1269 C 0.49219 0.12033 0.66143 0.0
C1270 C 0.50734 0.16657 0.65959 0.0
C1271 C 0.44411 0.08898 0.66118 0.0
C1272 C 0.47327 0.18019 0.65837 0.0
H1273 H 0.58281 0.32893 0.64354 0.0
N1274 N 0.45251 0.23616 0.65295 0.0
C1275 C 0.51059 0.3129 0.64234 0.0
C1276 C 0.48676 0.22514 0.6549 0.0
C1277 C 0.46353 0.27899 0.64561 0.0
C1278 C 0.5464 0.3026 0.64599 0.0
C1279 C 0.53468 0.25807 0.65199 0.0
O1280 O 0.36766 0.20264 0.62453 0.0
O1281 O 0.31381 0.17328 0.67587 0.0
O1282 O 0.26074 0.10099 0.68675 0.0
O1283 O 0.32076 0.10654 0.66062 0.0
O1284 O 0.35278 0.22769 0.65301 0.0
O1285 O 0.36624 0.13889 0.62729 0.0
O1286 O 0.30761 0.12618 0.74987 0.0
O1287 O 0.36518 0.15652 0.6979 0.0
O1288 O 0.41908 0.22904 0.68719 0.0
O1289 O 0.35914 0.22376 0.71326 0.0
O1290 O 0.32689 0.10288 0.72126 0.0
O1291 O 0.3183 0.19369 0.74593 0.0
C1292 C 0.31442 0.20733 0.66596 0.0
C1293 C 0.39133 0.1794 0.58873 0.0
C1294 C 0.39109 0.18144 0.54306 0.0
C1295 C 0.36674 0.16781 0.56608 0.0
C1296 C 0.44047 0.20652 0.54286 0.0
C1297 C 0.44069 0.20372 0.58829 0.0
C1298 C 0.4651 0.2172 0.56542 0.0
C1299 C 0.27638 0.08511 0.66877 0.0
C1300 C 0.36442 0.16836 0.61233 0.0
C1301 C 0.56901 0.24516 0.65452 0.0
C1302 C 0.55527 0.19945 0.65855 0.0
C1303 C 0.36487 0.12278 0.708 0.0
C1304 C 0.2882 0.1559 0.78468 0.0
C1305 C 0.3102 0.16021 0.8078 0.0
C1306 C 0.28596 0.15575 0.83041 0.0
C1307 C 0.23904 0.1462 0.82958 0.0
C1308 C 0.24134 0.14623 0.78416 0.0
C1309 C 0.21686 0.14121 0.80655 0.0
C1310 C 0.40357 0.24498 0.70518 0.0
C1311 C 0.31531 0.16263 0.76148 0.0
H1312 H 0.32855 0.1492 0.56636 0.0
H1313 H 0.45988 0.21733 0.52528 0.0
H1314 H 0.46032 0.21276 0.60549 0.0
H1315 H 0.50319 0.23623 0.56518 0.0
H1316 H 0.34666 0.16832 0.80816 0.0
H1317 H 0.21956 0.14253 0.84673 0.0
H1318 H 0.22387 0.14296 0.76655 0.0
H1319 H 0.18072 0.13383 0.80606 0.0
Tb1320 Tb 0.85556 0.14698 0.71524 0.0
C1321 C 0.7772 0.24288 0.64906 0.0
C1322 C 0.69317 0.19216 0.64689 0.0
C1323 C 0.72525 0.27324 0.6412 0.0
C1324 C 0.73906 0.19965 0.65052 0.0
C1325 C 0.77089 0.28023 0.64414 0.0
C1326 C 0.68651 0.22925 0.64237 0.0
C1327 C 0.85536 0.3279 0.64285 0.0
N1328 N 0.82076 0.24794 0.6511 0.0
C1329 C 0.85983 0.28973 0.64732 0.0
C1330 C 0.81069 0.32322 0.64143 0.0
Tb1331 Tb 0.82433 0.18307 0.65813 0.0
N1332 N 0.74725 0.16473 0.65404 0.0
C1333 C 0.71089 0.12104 0.65293 0.0
C1334 C 0.6556 0.14758 0.64705 0.0
C1335 C 0.66458 0.11185 0.6499 0.0
H1336 H 0.89472 0.29427 0.64829 0.0
H1337 H 0.6359 0.07718 0.64962 0.0
H1338 H 0.65182 0.2243 0.63896 0.0
H1339 H 0.88641 0.3609 0.64038 0.0
H1340 H 0.71717 0.09297 0.65484 0.0
H1341 H 0.04396 0.25353 0.72338 0.0
H1342 H 0.61978 0.14036 0.64443 0.0
H1343 H 0.78564 0.03595 0.72554 0.0
H1344 H 0.96251 0.23736 0.71834 0.0
H1345 H 0.79429 0.96948 0.73348 0.0
H1346 H 0.71963 0.30144 0.63729 0.0
H1347 H 0.06048 0.1906 0.72851 0.0
H1348 H 0.02881 0.10672 0.73403 0.0
H1349 H 0.80733 0.35278 0.6377 0.0
H1350 H 0.96122 0.02946 0.7359 0.0
N1351 N 0.93275 0.16564 0.71915 0.0
C1352 C 0.96899 0.2094 0.72021 0.0
C1353 C 0.02458 0.18321 0.72595 0.0
C1354 C 0.98716 0.13856 0.72617 0.0
C1355 C 0.01538 0.2188 0.72313 0.0
C1356 C 0.94116 0.13085 0.72263 0.0
H1357 H 0.87353 0.97788 0.73582 0.0
N1358 N 0.85951 0.08234 0.72234 0.0
C1359 C 0.82525 0.0025 0.73084 0.0
C1360 C 0.90315 0.08757 0.72421 0.0
C1361 C 0.82057 0.04056 0.72635 0.0
C1362 C 0.87 0.00734 0.73206 0.0
C1363 C 0.90968 0.05036 0.72916 0.0
O1364 O 0.81689 0.12485 0.74906 0.0
O1365 O 0.80344 0.15709 0.69588 0.0
O1366 O 0.83035 0.22976 0.68746 0.0
O1367 O 0.88122 0.22049 0.71403 0.0
O1368 O 0.77938 0.10158 0.71844 0.0
O1369 O 0.88398 0.18626 0.74761 0.0
O1370 O 0.86332 0.20518 0.62442 0.0
O1371 O 0.87639 0.17278 0.67746 0.0
O1372 O 0.8487 0.09978 0.68602 0.0
O1373 O 0.79818 0.1095 0.65938 0.0
O1374 O 0.90051 0.22855 0.65515 0.0
O1375 O 0.796 0.14401 0.62568 0.0
C1376 C 0.76602 0.12345 0.70419 0.0
C1377 C 0.86055 0.14618 0.78636 0.0
C1378 C 0.85474 0.14487 0.83212 0.0
C1379 C 0.84689 0.15877 0.80855 0.0
C1380 C 0.87696 0.11875 0.83321 0.0
C1381 C 0.88316 0.12056 0.78791 0.0
C1382 C 0.89136 0.10701 0.81122 0.0
C1383 C 0.86078 0.24349 0.70611 0.0
C1384 C 0.84892 0.15825 0.76189 0.0
C1385 C 0.95542 0.05755 0.73198 0.0
C1386 C 0.99403 0.1016 0.73069 0.0
C1387 C 0.91387 0.20651 0.66925 0.0
C1388 C 0.82004 0.18435 0.58701 0.0
C1389 C 0.83381 0.1718 0.56485 0.0
C1390 C 0.82644 0.18606 0.54127 0.0
C1391 C 0.8046 0.21252 0.54014 0.0
C1392 C 0.79783 0.21033 0.58543 0.0
C1393 C 0.79011 0.22425 0.5621 0.0
C1394 C 0.81799 0.08606 0.66751 0.0
C1395 C 0.83127 0.17197 0.6115 0.0
H1396 H 0.82914 0.17835 0.80745 0.0
H1397 H 0.88359 0.10781 0.85112 0.0
H1398 H 0.89408 0.11068 0.77118 0.0
H1399 H 0.90868 0.08708 0.81225 0.0
H1400 H 0.85127 0.15196 0.56598 0.0
H1401 H 0.79833 0.22374 0.52223 0.0
H1402 H 0.78686 0.22021 0.60214 0.0
H1403 H 0.77309 0.24445 0.56105 0.0
loop_
_geom_bond_atom_site_label_1
_geom_bond_atom_site_label_2
_geom_bond_distance
_geom_bond_site_symmetry_2
_ccdc_geom_bond_type
C0 C1 1.384 . S
C0 H13 0.947 . S
C0 C35 1.382 1_565 S
C1 C0 1.384 . S
C1 C2 1.378 1_565 S
C2 C1 1.378 1_545 S
C2 C3 1.378 . S
C2 H14 0.952 . S
C3 C2 1.378 . S
C3 H15 0.950 . S
C3 C34 1.383 . S
H4 C23 0.947 . S
H5 C24 0.946 . S
H6 C26 0.953 . S
H7 C27 0.945 . S
H8 C29 0.952 . S
H9 C30 0.949 . S
H10 C32 0.950 . S
H11 C33 0.948 . S
H12 C35 0.951 . S
H13 C0 0.947 . S
H14 C2 0.952 . S
H15 C3 0.950 . S
N16 C19 1.382 . S
N16 C21 1.363 . S
N17 C19 1.371 . S
N17 C20 1.372 . S
N18 C20 1.361 . S
N18 C21 1.377 . S
C19 N16 1.382 . S
C19 N17 1.371 . S
C19 C22 1.480 . S
C20 N17 1.372 . S
C20 N18 1.361 . S
C20 C28 1.457 . S
C21 N16 1.363 . S
C21 N18 1.377 . S
C21 C34 1.479 . S
C22 C19 1.480 . S
C22 C23 1.383 . S
C22 C27 1.385 . S
C23 H4 0.947 . S
C23 C22 1.383 . S
C23 C24 1.388 . S
C24 H5 0.946 . S
C24 C23 1.388 . S
C24 C25 1.384 . S
C25 C24 1.384 . S
C25 C26 1.377 . S
C26 H6 0.953 . S
C26 C25 1.377 . S
C26 C27 1.369 . S
C27 H7 0.945 . S
C27 C22 1.385 . S
C27 C26 1.369 . S
C28 C20 1.457 . S
C28 C29 1.372 . S
C28 C33 1.364 . S
C29 H8 0.952 . S
C29 C28 1.372 . S
C29 C30 1.389 . S
C30 H9 0.949 . S
C30 C29 1.389 . S
C30 C31 1.387 . S
C31 C30 1.387 . S
C31 C32 1.372 . S
C32 H10 0.950 . S
C32 C31 1.372 . S
C32 C33 1.379 . S
C33 H11 0.948 . S
C33 C28 1.364 . S
C33 C32 1.379 . S
C34 C3 1.383 . S
C34 C21 1.479 . S
C34 C35 1.398 . S
C35 C0 1.382 1_545 S
C35 H12 0.951 . S
C35 C34 1.398 . S
C36 C37 1.384 . S
C36 H49 0.947 . S
C36 C71 1.382 1_455 S
C37 C36 1.384 . S
C37 C38 1.378 . S
C38 C37 1.378 . S
C38 C39 1.378 1_455 S
C38 H50 0.952 . S
C39 C38 1.378 1_655 S
C39 H51 0.950 . S
C39 C70 1.383 . S
H40 C59 0.947 . S
H41 C60 0.946 . S
H42 C62 0.953 . S
H43 C63 0.945 . S
H44 C65 0.952 . S
H45 C66 0.949 . S
H46 C68 0.950 . S
H47 C69 0.948 . S
H48 C71 0.951 . S
H49 C36 0.947 . S
H50 C38 0.952 . S
H51 C39 0.950 . S
N52 C55 1.382 . S
N52 C57 1.363 . S
N53 C55 1.371 . S
N53 C56 1.372 . S
N54 C56 1.361 . S
N54 C57 1.377 . S
C55 N52 1.382 . S
C55 N53 1.371 . S
C55 C58 1.480 . S
C56 N53 1.372 . S
C56 N54 1.361 . S
C56 C64 1.457 . S
C57 N52 1.363 . S
C57 N54 1.377 . S
C57 C70 1.479 . S
C58 C55 1.480 . S
C58 C59 1.383 . S
C58 C63 1.385 . S
C59 H40 0.947 . S
C59 C58 1.383 . S
C59 C60 1.388 1_545 S
C60 H41 0.946 . S
C60 C59 1.388 1_565 S
C60 C61 1.384 . S
C61 C60 1.384 . S
C61 C62 1.377 . S
C62 H42 0.953 . S
C62 C61 1.377 . S
C62 C63 1.369 1_565 S
C63 H43 0.945 . S
C63 C58 1.385 . S
C63 C62 1.369 1_545 S
C64 C56 1.457 . S
C64 C65 1.372 . S
C64 C69 1.364 . S
C65 H44 0.952 . S
C65 C64 1.372 . S
C65 C66 1.389 . S
C66 H45 0.949 . S
C66 C65 1.389 . S
C66 C67 1.387 . S
C67 C66 1.387 . S
C67 C68 1.372 . S
C68 H46 0.950 . S
C68 C67 1.372 . S
C68 C69 1.379 . S
C69 H47 0.948 . S
C69 C64 1.364 . S
C69 C68 1.379 . S
C70 C39 1.383 . S
C70 C57 1.479 . S
C70 C71 1.398 . S
C71 C36 1.382 1_655 S
C71 H48 0.951 . S
C71 C70 1.398 . S
C72 C73 1.384 . S
C72 H85 0.947 . S
C72 C107 1.382 . S
C73 C72 1.384 . S
C73 C74 1.378 . S
C74 C73 1.378 . S
C74 C75 1.378 . S
C74 H86 0.952 . S
C75 C74 1.378 . S
C75 H87 0.950 . S
C75 C106 1.383 . S
H76 C95 0.947 . S
H77 C96 0.946 . S
H78 C98 0.953 . S
H79 C99 0.945 . S
H80 C101 0.952 . S
H81 C102 0.949 . S
H82 C104 0.950 . S
H83 C105 0.948 . S
H84 C107 0.951 . S
H85 C72 0.947 . S
H86 C74 0.952 . S
H87 C75 0.950 . S
N88 C91 1.382 . S
N88 C93 1.363 . S
N89 C91 1.371 . S
N89 C92 1.372 . S
N90 C92 1.361 . S
N90 C93 1.377 . S
C91 N88 1.382 . S
C91 N89 1.371 . S
C91 C94 1.480 . S
C92 N89 1.372 . S
C92 N90 1.361 . S
C92 C100 1.457 . S
C93 N88 1.363 . S
C93 N90 1.377 . S
C93 C106 1.479 . S
C94 C91 1.480 . S
C94 C95 1.383 . S
C94 C99 1.385 . S
C95 H76 0.947 . S
C95 C94 1.383 . S
C95 C96 1.388 1_655 S
C96 H77 0.946 . S
C96 C95 1.388 1_455 S
C96 C97 1.384 . S
C97 C96 1.384 . S
C97 C98 1.377 . S
C98 H78 0.953 . S
C98 C97 1.377 . S
C98 C99 1.369 1_455 S
C99 H79 0.945 . S
C99 C94 1.385 . S
C99 C98 1.369 1_655 S
C100 C92 1.457 . S
C100 C101 1.372 . S
C100 C105 1.364 . S
C101 H80 0.952 . S
C101 C100 1.372 . S
C101 C102 1.389 . S
C102 H81 0.949 . S
C102 C101 1.389 . S
C102 C103 1.387 . S
C103 C102 1.387 . S
C103 C104 1.372 . S
C104 H82 0.950 . S
C104 C103 1.372 . S
C104 C105 1.379 . S
C105 H83 0.948 . S
C105 C100 1.364 . S
C105 C104 1.379 . S
C106 C75 1.383 . S
C106 C93 1.479 . S
C106 C107 1.398 . S
C107 C72 1.382 . S
C107 H84 0.951 . S
C107 C106 1.398 . S
C108 C109 1.384 . S
C108 H121 0.947 . S
C108 C143 1.382 1_655 S
C109 C108 1.384 . S
C109 C110 1.378 . S
C110 C109 1.378 . S
C110 C111 1.378 1_655 S
C110 H122 0.952 . S
C111 C110 1.378 1_455 S
C111 H123 0.950 . S
C111 C142 1.383 . S
H112 C131 0.947 . S
H113 C132 0.946 . S
H114 C134 0.953 . S
H115 C135 0.945 . S
H116 C137 0.952 . S
H117 C138 0.949 . S
H118 C140 0.950 . S
H119 C141 0.948 . S
H120 C143 0.951 . S
H121 C108 0.947 . S
H122 C110 0.952 . S
H123 C111 0.950 . S
N124 C127 1.382 . S
N124 C129 1.363 . S
N125 C127 1.371 . S
N125 C128 1.372 . S
N126 C128 1.361 . S
N126 C129 1.377 . S
C127 N124 1.382 . S
C127 N125 1.371 . S
C127 C130 1.480 . S
C128 N125 1.372 . S
C128 N126 1.361 . S
C128 C136 1.457 . S
C129 N124 1.363 . S
C129 N126 1.377 . S
C129 C142 1.479 . S
C130 C127 1.480 . S
C130 C131 1.383 . S
C130 C135 1.385 . S
C131 H112 0.947 . S
C131 C130 1.383 . S
C131 C132 1.388 . S
C132 H113 0.946 . S
C132 C131 1.388 . S
C132 C133 1.384 . S
C133 C132 1.384 . S
C133 C134 1.377 . S
C134 H114 0.953 . S
C134 C133 1.377 . S
C134 C135 1.369 . S
C135 H115 0.945 . S
C135 C130 1.385 . S
C135 C134 1.369 . S
C136 C128 1.457 . S
C136 C137 1.372 . S
C136 C141 1.364 . S
C137 H116 0.952 . S
C137 C136 1.372 . S
C137 C138 1.389 . S
C138 H117 0.949 . S
C138 C137 1.389 . S
C138 C139 1.387 . S
C139 C138 1.387 . S
C139 C140 1.372 . S
C140 H118 0.950 . S
C140 C139 1.372 . S
C140 C141 1.379 . S
C141 H119 0.948 . S
C141 C136 1.364 . S
C141 C140 1.379 . S
C142 C111 1.383 . S
C142 C129 1.479 . S
C142 C143 1.398 . S
C143 C108 1.382 1_455 S
C143 H120 0.951 . S
C143 C142 1.398 . S
C144 C145 1.384 . S
C144 H157 0.947 . S
C144 C179 1.382 . S
C145 C144 1.384 . S
C145 C146 1.378 . S
C146 C145 1.378 . S
C146 C147 1.378 . S
C146 H158 0.952 . S
C147 C146 1.378 . S
C147 H159 0.950 . S
C147 C178 1.383 . S
H148 C167 0.947 . S
H149 C168 0.946 1_545 S
H150 C170 0.953 . S
H151 C171 0.945 . S
H152 C173 0.952 . S
H153 C174 0.949 . S
H154 C176 0.950 . S
H155 C177 0.948 . S
H156 C179 0.951 . S
H157 C144 0.947 . S
H158 C146 0.952 . S
H159 C147 0.950 . S
N160 C163 1.382 . S
N160 C165 1.363 . S
N161 C163 1.371 . S
N161 C164 1.372 . S
N162 C164 1.361 . S
N162 C165 1.377 . S
C163 N160 1.382 . S
C163 N161 1.371 . S
C163 C166 1.480 . S
C164 N161 1.372 . S
C164 N162 1.361 . S
C164 C172 1.457 . S
C165 N160 1.363 . S
C165 N162 1.377 . S
C165 C178 1.479 . S
C166 C163 1.480 . S
C166 C167 1.383 . S
C166 C171 1.385 . S
C167 H148 0.947 . S
C167 C166 1.383 . S
C167 C168 1.388 . S
C168 H149 0.946 1_565 S
C168 C167 1.388 . S
C168 C169 1.384 1_565 S
C169 C168 1.384 1_545 S
C169 C170 1.377 . S
C170 H150 0.953 . S
C170 C169 1.377 . S
C170 C171 1.369 1_545 S
C171 H151 0.945 . S
C171 C166 1.385 . S
C171 C170 1.369 1_565 S
C172 C164 1.457 . S
C172 C173 1.372 . S
C172 C177 1.364 . S
C173 H152 0.952 . S
C173 C172 1.372 . S
C173 C174 1.389 . S
C174 H153 0.949 . S
C174 C173 1.389 . S
C174 C175 1.387 . S
C175 C174 1.387 . S
C175 C176 1.372 . S
C176 H154 0.950 . S
C176 C175 1.372 . S
C176 C177 1.379 . S
C177 H155 0.948 . S
C177 C172 1.364 . S
C177 C176 1.379 . S
C178 C147 1.383 . S
C178 C165 1.479 . S
C178 C179 1.398 . S
C179 C144 1.382 . S
C179 H156 0.951 . S
C179 C178 1.398 . S
C180 C181 1.384 . S
C180 H193 0.947 . S
C180 C215 1.382 1_545 S
C181 C180 1.384 . S
C181 C182 1.378 1_545 S
C182 C181 1.378 1_565 S
C182 C183 1.378 . S
C182 H194 0.952 1_565 S
C183 C182 1.378 . S
C183 H195 0.950 . S
C183 C214 1.383 . S
H184 C203 0.947 . S
H185 C204 0.946 . S
H186 C206 0.953 . S
H187 C207 0.945 . S
H188 C209 0.952 . S
H189 C210 0.949 . S
H190 C212 0.950 . S
H191 C213 0.948 . S
H192 C215 0.951 . S
H193 C180 0.947 . S
H194 C182 0.952 1_545 S
H195 C183 0.950 . S
N196 C199 1.382 . S
N196 C201 1.363 . S
N197 C199 1.371 . S
N197 C200 1.372 . S
N198 C200 1.361 . S
N198 C201 1.377 . S
C199 N196 1.382 . S
C199 N197 1.371 . S
C199 C202 1.480 . S
C200 N197 1.372 . S
C200 N198 1.361 . S
C200 C208 1.457 . S
C201 N196 1.363 . S
C201 N198 1.377 . S
C201 C214 1.479 . S
C202 C199 1.480 . S
C202 C203 1.383 . S
C202 C207 1.385 . S
C203 H184 0.947 . S
C203 C202 1.383 . S
C203 C204 1.388 1_455 S
C204 H185 0.946 . S
C204 C203 1.388 1_655 S
C204 C205 1.384 . S
C205 C204 1.384 . S
C205 C206 1.377 . S
C206 H186 0.953 . S
C206 C205 1.377 . S
C206 C207 1.369 1_655 S
C207 H187 0.945 . S
C207 C202 1.385 . S
C207 C206 1.369 1_455 S
C208 C200 1.457 . S
C208 C209 1.372 . S
C208 C213 1.364 . S
C209 H188 0.952 . S
C209 C208 1.372 . S
C209 C210 1.389 . S
C210 H189 0.949 . S
C210 C209 1.389 . S
C210 C211 1.387 . S
C211 C210 1.387 . S
C211 C212 1.372 . S
C212 H190 0.950 . S
C212 C211 1.372 . S
C212 C213 1.379 . S
C213 H191 0.948 . S
C213 C208 1.364 . S
C213 C212 1.379 . S
C214 C183 1.383 . S
C214 C201 1.479 . S
C214 C215 1.398 . S
C215 C180 1.382 1_565 S
C215 H192 0.951 . S
C215 C214 1.398 . S
C216 C217 1.384 . S
C216 H229 0.947 . S
C216 C251 1.382 . S
C217 C216 1.384 . S
C217 C218 1.378 . S
C218 C217 1.378 . S
C218 C219 1.378 . S
C218 H230 0.952 . S
C219 C218 1.378 . S
C219 H231 0.950 . S
C219 C250 1.383 . S
H220 C239 0.947 . S
H221 C240 0.946 . S
H222 C242 0.953 . S
H223 C243 0.945 . S
H224 C245 0.952 . S
H225 C246 0.949 . S
H226 C248 0.950 . S
H227 C249 0.948 . S
H228 C251 0.951 . S
H229 C216 0.947 . S
H230 C218 0.952 . S
H231 C219 0.950 . S
N232 C235 1.382 . S
N232 C237 1.363 . S
N233 C235 1.371 . S
N233 C236 1.372 . S
N234 C236 1.361 . S
N234 C237 1.377 . S
C235 N232 1.382 . S
C235 N233 1.371 . S
C235 C238 1.480 . S
C236 N233 1.372 . S
C236 N234 1.361 . S
C236 C244 1.457 . S
C237 N232 1.363 . S
C237 N234 1.377 . S
C237 C250 1.479 . S
C238 C235 1.480 . S
C238 C239 1.383 . S
C238 C243 1.385 . S
C239 H220 0.947 . S
C239 C238 1.383 . S
C239 C240 1.388 . S
C240 H221 0.946 . S
C240 C239 1.388 . S
C240 C241 1.384 . S
C241 C240 1.384 . S
C241 C242 1.377 . S
C242 H222 0.953 . S
C242 C241 1.377 . S
C242 C243 1.369 . S
C243 H223 0.945 . S
C243 C238 1.385 . S
C243 C242 1.369 . S
C244 C236 1.457 . S
C244 C245 1.372 . S
C244 C249 1.364 . S
C245 H224 0.952 . S
C245 C244 1.372 . S
C245 C246 1.389 . S
C246 H225 0.949 . S
C246 C245 1.389 . S
C246 C247 1.387 . S
C247 C246 1.387 . S
C247 C248 1.372 . S
C248 H226 0.950 . S
C248 C247 1.372 . S
C248 C249 1.379 . S
C249 H227 0.948 . S
C249 C244 1.364 . S
C249 C248 1.379 . S
C250 C219 1.383 . S
C250 C237 1.479 . S
C250 C251 1.398 . S
C251 C216 1.382 . S
C251 H228 0.951 . S
C251 C250 1.398 . S
C252 C253 1.384 . S
C252 H265 0.947 . S
C252 C287 1.382 . S
C253 C252 1.384 . S
C253 C254 1.378 . S
C254 C253 1.378 . S
C254 C255 1.378 . S
C254 H266 0.952 . S
C255 C254 1.378 . S
C255 H267 0.950 . S
C255 C286 1.383 . S
H256 C275 0.947 . S
H257 C276 0.946 . S
H258 C278 0.953 . S
H259 C279 0.945 . S
H260 C281 0.952 . S
H261 C282 0.949 . S
H262 C284 0.950 . S
H263 C285 0.948 . S
H264 C287 0.951 . S
H265 C252 0.947 . S
H266 C254 0.952 . S
H267 C255 0.950 . S
N268 C271 1.382 . S
N268 C273 1.363 . S
N269 C271 1.371 . S
N269 C272 1.372 . S
N270 C272 1.361 . S
N270 C273 1.377 . S
C271 N268 1.382 . S
C271 N269 1.371 . S
C271 C274 1.480 . S
C272 N269 1.372 . S
C272 N270 1.361 . S
C272 C280 1.457 . S
C273 N268 1.363 . S
C273 N270 1.377 . S
C273 C286 1.479 . S
C274 C271 1.480 . S
C274 C275 1.383 . S
C274 C279 1.385 . S
C275 H256 0.947 . S
C275 C274 1.383 . S
C275 C276 1.388 . S
C276 H257 0.946 . S
C276 C275 1.388 . S
C276 C277 1.384 . S
C277 C276 1.384 . S
C277 C278 1.377 . S
C278 H258 0.953 . S
C278 C277 1.377 . S
C278 C279 1.369 . S
C279 H259 0.945 . S
C279 C274 1.385 . S
C279 C278 1.369 . S
C280 C272 1.457 . S
C280 C281 1.372 . S
C280 C285 1.364 . S
C281 H260 0.952 . S
C281 C280 1.372 . S
C281 C282 1.389 . S
C282 H261 0.949 . S
C282 C281 1.389 . S
C282 C283 1.387 . S
C283 C282 1.387 . S
C283 C284 1.372 . S
C284 H262 0.950 . S
C284 C283 1.372 . S
C284 C285 1.379 . S
C285 H263 0.948 . S
C285 C280 1.364 . S
C285 C284 1.379 . S
C286 C255 1.383 . S
C286 C273 1.479 . S
C286 C287 1.398 . S
C287 C252 1.382 . S
C287 H264 0.951 . S
C287 C286 1.398 . S
C288 C289 1.384 . S
C288 H301 0.947 . S
C288 C323 1.382 . S
C289 C288 1.384 . S
C289 C290 1.378 . S
C290 C289 1.378 . S
C290 C291 1.378 . S
C290 H302 0.952 . S
C291 C290 1.378 . S
C291 H303 0.950 . S
C291 C322 1.383 . S
H292 C311 0.947 . S
H293 C312 0.946 . S
H294 C314 0.953 . S
H295 C315 0.945 . S
H296 C317 0.952 . S
H297 C318 0.949 . S
H298 C320 0.950 . S
H299 C321 0.948 . S
H300 C323 0.951 . S
H301 C288 0.947 . S
H302 C290 0.952 . S
H303 C291 0.950 . S
N304 C307 1.382 . S
N304 C309 1.363 . S
N305 C307 1.371 . S
N305 C308 1.372 . S
N306 C308 1.361 . S
N306 C309 1.377 . S
C307 N304 1.382 . S
C307 N305 1.371 . S
C307 C310 1.480 . S
C308 N305 1.372 . S
C308 N306 1.361 . S
C308 C316 1.457 . S
C309 N304 1.363 . S
C309 N306 1.377 . S
C309 C322 1.479 . S
C310 C307 1.480 . S
C310 C311 1.383 . S
C310 C315 1.385 . S
C311 H292 0.947 . S
C311 C310 1.383 . S
C311 C312 1.388 . S
C312 H293 0.946 . S
C312 C311 1.388 . S
C312 C313 1.384 . S
C313 C312 1.384 . S
C313 C314 1.377 . S
C314 H294 0.953 . S
C314 C313 1.377 . S
C314 C315 1.369 . S
C315 H295 0.945 . S
C315 C310 1.385 . S
C315 C314 1.369 . S
C316 C308 1.457 . S
C316 C317 1.372 . S
C316 C321 1.364 . S
C317 H296 0.952 . S
C317 C316 1.372 . S
C317 C318 1.389 . S
C318 H297 0.949 . S
C318 C317 1.389 . S
C318 C319 1.387 . S
C319 C318 1.387 . S
C319 C320 1.372 . S
C320 H298 0.950 . S
C320 C319 1.372 . S
C320 C321 1.379 . S
C321 H299 0.948 . S
C321 C316 1.364 . S
C321 C320 1.379 . S
C322 C291 1.383 . S
C322 C309 1.479 . S
C322 C323 1.398 . S
C323 C288 1.382 . S
C323 H300 0.951 . S
C323 C322 1.398 . S
C324 C325 1.384 . S
C324 H337 0.947 . S
C324 C359 1.382 . S
C325 C324 1.384 . S
C325 C326 1.378 . S
C326 C325 1.378 . S
C326 C327 1.378 . S
C326 H338 0.952 1_556 S
C327 C326 1.378 . S
C327 H339 0.950 . S
C327 C358 1.383 . S
H328 C347 0.947 . S
H329 C348 0.946 1_554 S
H330 C350 0.953 . S
H331 C351 0.945 . S
H332 C353 0.952 . S
H333 C354 0.949 . S
H334 C356 0.950 . S
H335 C357 0.948 . S
H336 C359 0.951 . S
H337 C324 0.947 . S
H338 C326 0.952 1_554 S
H339 C327 0.950 . S
N340 C343 1.382 . S
N340 C345 1.363 . S
N341 C343 1.371 . S
N341 C344 1.372 . S
N342 C344 1.361 . S
N342 C345 1.377 . S
C343 N340 1.382 . S
C343 N341 1.371 . S
C343 C346 1.480 . S
C344 N341 1.372 . S
C344 N342 1.361 . S
C344 C352 1.457 . S
C345 N340 1.363 . S
C345 N342 1.377 . S
C345 C358 1.479 . S
C346 C343 1.480 . S
C346 C347 1.383 . S
C346 C351 1.385 . S
C347 H328 0.947 . S
C347 C346 1.383 . S
C347 C348 1.388 . S
C348 H329 0.946 1_556 S
C348 C347 1.388 . S
C348 C349 1.384 . S
C349 C348 1.384 . S
C349 C350 1.377 . S
C350 H330 0.953 . S
C350 C349 1.377 . S
C350 C351 1.369 . S
C351 H331 0.945 . S
C351 C346 1.385 . S
C351 C350 1.369 . S
C352 C344 1.457 . S
C352 C353 1.372 . S
C352 C357 1.364 . S
C353 H332 0.952 . S
C353 C352 1.372 . S
C353 C354 1.389 . S
C354 H333 0.949 . S
C354 C353 1.389 . S
C354 C355 1.387 . S
C355 C354 1.387 . S
C355 C356 1.372 . S
C356 H334 0.950 . S
C356 C355 1.372 . S
C356 C357 1.379 . S
C357 H335 0.948 . S
C357 C352 1.364 . S
C357 C356 1.379 . S
C358 C327 1.383 . S
C358 C345 1.479 . S
C358 C359 1.398 . S
C359 C324 1.382 . S
C359 H336 0.951 . S
C359 C358 1.398 . S
C360 C361 1.384 . S
C360 H373 0.947 . S
C360 C395 1.382 . S
C361 C360 1.384 . S
C361 C362 1.378 . S
C362 C361 1.378 . S
C362 C363 1.378 . S
C362 H374 0.952 1_556 S
C363 C362 1.378 . S
C363 H375 0.950 . S
C363 C394 1.383 . S
H364 C383 0.947 . S
H365 C384 0.946 1_554 S
H366 C386 0.953 . S
H367 C387 0.945 . S
H368 C389 0.952 . S
H369 C390 0.949 . S
H370 C392 0.950 . S
H371 C393 0.948 . S
H372 C395 0.951 . S
H373 C360 0.947 . S
H374 C362 0.952 1_554 S
H375 C363 0.950 . S
N376 C379 1.382 . S
N376 C381 1.363 . S
N377 C379 1.371 . S
N377 C380 1.372 . S
N378 C380 1.361 . S
N378 C381 1.377 . S
C379 N376 1.382 . S
C379 N377 1.371 . S
C379 C382 1.480 . S
C380 N377 1.372 . S
C380 N378 1.361 . S
C380 C388 1.457 . S
C381 N376 1.363 . S
C381 N378 1.377 . S
C381 C394 1.479 . S
C382 C379 1.480 . S
C382 C383 1.383 . S
C382 C387 1.385 . S
C383 H364 0.947 . S
C383 C382 1.383 . S
C383 C384 1.388 . S
C384 H365 0.946 1_556 S
C384 C383 1.388 . S
C384 C385 1.384 . S
C385 C384 1.384 . S
C385 C386 1.377 . S
C386 H366 0.953 . S
C386 C385 1.377 . S
C386 C387 1.369 . S
C387 H367 0.945 . S
C387 C382 1.385 . S
C387 C386 1.369 . S
C388 C380 1.457 . S
C388 C389 1.372 . S
C388 C393 1.364 . S
C389 H368 0.952 . S
C389 C388 1.372 . S
C389 C390 1.389 . S
C390 H369 0.949 . S
C390 C389 1.389 . S
C390 C391 1.387 . S
C391 C390 1.387 . S
C391 C392 1.372 . S
C392 H370 0.950 . S
C392 C391 1.372 . S
C392 C393 1.379 . S
C393 H371 0.948 . S
C393 C388 1.364 . S
C393 C392 1.379 . S
C394 C363 1.383 . S
C394 C381 1.479 . S
C394 C395 1.398 . S
C395 C360 1.382 . S
C395 H372 0.951 . S
C395 C394 1.398 . S
C396 C397 1.384 . S
C396 H409 0.947 . S
C396 C431 1.382 . S
C397 C396 1.384 . S
C397 C398 1.378 . S
C398 C397 1.378 . S
C398 C399 1.378 . S
C398 H410 0.952 1_556 S
C399 C398 1.378 . S
C399 H411 0.950 . S
C399 C430 1.383 . S
H400 C419 0.947 . S
H401 C420 0.946 1_554 S
H402 C422 0.953 . S
H403 C423 0.945 . S
H404 C425 0.952 . S
H405 C426 0.949 . S
H406 C428 0.950 . S
H407 C429 0.948 . S
H408 C431 0.951 . S
H409 C396 0.947 . S
H410 C398 0.952 1_554 S
H411 C399 0.950 . S
N412 C415 1.382 . S
N412 C417 1.363 . S
N413 C415 1.371 . S
N413 C416 1.372 . S
N414 C416 1.361 . S
N414 C417 1.377 . S
C415 N412 1.382 . S
C415 N413 1.371 . S
C415 C418 1.480 . S
C416 N413 1.372 . S
C416 N414 1.361 . S
C416 C424 1.457 . S
C417 N412 1.363 . S
C417 N414 1.377 . S
C417 C430 1.479 . S
C418 C415 1.480 . S
C418 C419 1.383 . S
C418 C423 1.385 . S
C419 H400 0.947 . S
C419 C418 1.383 . S
C419 C420 1.388 . S
C420 H401 0.946 1_556 S
C420 C419 1.388 . S
C420 C421 1.384 . S
C421 C420 1.384 . S
C421 C422 1.377 . S
C422 H402 0.953 . S
C422 C421 1.377 . S
C422 C423 1.369 . S
C423 H403 0.945 . S
C423 C418 1.385 . S
C423 C422 1.369 . S
C424 C416 1.457 . S
C424 C425 1.372 . S
C424 C429 1.364 . S
C425 H404 0.952 . S
C425 C424 1.372 . S
C425 C426 1.389 . S
C426 H405 0.949 . S
C426 C425 1.389 . S
C426 C427 1.387 . S
C427 C426 1.387 . S
C427 C428 1.372 . S
C428 H406 0.950 . S
C428 C427 1.372 . S
C428 C429 1.379 . S
C429 H407 0.948 . S
C429 C424 1.364 . S
C429 C428 1.379 . S
C430 C399 1.383 . S
C430 C417 1.479 . S
C430 C431 1.398 . S
C431 C396 1.382 . S
C431 H408 0.951 . S
C431 C430 1.398 . S
C432 C433 1.384 . S
C432 H445 0.947 . S
C432 C467 1.382 . S
C433 C432 1.384 . S
C433 C434 1.378 . S
C434 C433 1.378 . S
C434 C435 1.378 . S
C434 H446 0.952 1_554 S
C435 C434 1.378 . S
C435 H447 0.950 . S
C435 C466 1.383 . S
H436 C455 0.947 . S
H437 C456 0.946 1_556 S
H438 C458 0.953 . S
H439 C459 0.945 . S
H440 C461 0.952 . S
H441 C462 0.949 . S
H442 C464 0.950 . S
H443 C465 0.948 . S
H444 C467 0.951 . S
H445 C432 0.947 . S
H446 C434 0.952 1_556 S
H447 C435 0.950 . S
N448 C451 1.382 . S
N448 C453 1.363 . S
N449 C451 1.371 . S
N449 C452 1.372 . S
N450 C452 1.361 . S
N450 C453 1.377 . S
C451 N448 1.382 . S
C451 N449 1.371 . S
C451 C454 1.480 . S
C452 N449 1.372 . S
C452 N450 1.361 . S
C452 C460 1.457 . S
C453 N448 1.363 . S
C453 N450 1.377 . S
C453 C466 1.479 . S
C454 C451 1.480 . S
C454 C455 1.383 . S
C454 C459 1.385 . S
C455 H436 0.947 . S
C455 C454 1.383 . S
C455 C456 1.388 . S
C456 H437 0.946 1_554 S
C456 C455 1.388 . S
C456 C457 1.384 . S
C457 C456 1.384 . S
C457 C458 1.377 . S
C458 H438 0.953 . S
C458 C457 1.377 . S
C458 C459 1.369 . S
C459 H439 0.945 . S
C459 C454 1.385 . S
C459 C458 1.369 . S
C460 C452 1.457 . S
C460 C461 1.372 . S
C460 C465 1.364 . S
C461 H440 0.952 . S
C461 C460 1.372 . S
C461 C462 1.389 . S
C462 H441 0.949 . S
C462 C461 1.389 . S
C462 C463 1.387 . S
C463 C462 1.387 . S
C463 C464 1.372 . S
C464 H442 0.950 . S
C464 C463 1.372 . S
C464 C465 1.379 . S
C465 H443 0.948 . S
C465 C460 1.364 . S
C465 C464 1.379 . S
C466 C435 1.383 . S
C466 C453 1.479 . S
C466 C467 1.398 . S
C467 C432 1.382 . S
C467 H444 0.951 . S
C467 C466 1.398 . S
C468 C469 1.384 . S
C468 H481 0.947 . S
C468 C503 1.382 . S
C469 C468 1.384 . S
C469 C470 1.378 . S
C470 C469 1.378 . S
C470 C471 1.378 . S
C470 H482 0.952 1_554 S
C471 C470 1.378 . S
C471 H483 0.950 . S
C471 C502 1.383 . S
H472 C491 0.947 . S
H473 C492 0.946 1_556 S
H474 C494 0.953 . S
H475 C495 0.945 . S
H476 C497 0.952 . S
H477 C498 0.949 . S
H478 C500 0.950 . S
H479 C501 0.948 . S
H480 C503 0.951 . S
H481 C468 0.947 . S
H482 C470 0.952 1_556 S
H483 C471 0.950 . S
N484 C487 1.382 . S
N484 C489 1.363 . S
N485 C487 1.371 . S
N485 C488 1.372 . S
N486 C488 1.361 . S
N486 C489 1.377 . S
C487 N484 1.382 . S
C487 N485 1.371 . S
C487 C490 1.480 . S
C488 N485 1.372 . S
C488 N486 1.361 . S
C488 C496 1.457 . S
C489 N484 1.363 . S
C489 N486 1.377 . S
C489 C502 1.479 . S
C490 C487 1.480 . S
C490 C491 1.383 . S
C490 C495 1.385 . S
C491 H472 0.947 . S
C491 C490 1.383 . S
C491 C492 1.388 . S
C492 H473 0.946 1_554 S
C492 C491 1.388 . S
C492 C493 1.384 . S
C493 C492 1.384 . S
C493 C494 1.377 . S
C494 H474 0.953 . S
C494 C493 1.377 . S
C494 C495 1.369 . S
C495 H475 0.945 . S
C495 C490 1.385 . S
C495 C494 1.369 . S
C496 C488 1.457 . S
C496 C497 1.372 . S
C496 C501 1.364 . S
C497 H476 0.952 . S
C497 C496 1.372 . S
C497 C498 1.389 . S
C498 H477 0.949 . S
C498 C497 1.389 . S
C498 C499 1.387 . S
C499 C498 1.387 . S
C499 C500 1.372 . S
C500 H478 0.950 . S
C500 C499 1.372 . S
C500 C501 1.379 . S
C501 H479 0.948 . S
C501 C496 1.364 . S
C501 C500 1.379 . S
C502 C471 1.383 . S
C502 C489 1.479 . S
C502 C503 1.398 . S
C503 C468 1.382 . S
C503 H480 0.951 . S
C503 C502 1.398 . S
C504 C505 1.384 . S
C504 H517 0.947 . S
C504 C539 1.382 . S
C505 C504 1.384 . S
C505 C506 1.378 . S
C506 C505 1.378 . S
C506 C507 1.378 . S
C506 H518 0.952 1_554 S
C507 C506 1.378 . S
C507 H519 0.950 . S
C507 C538 1.383 . S
H508 C527 0.947 . S
H509 C528 0.969 . S
H510 C530 0.953 . S
H511 C531 0.945 . S
H512 C533 0.952 . S
H513 C534 0.949 . S
H514 C536 0.950 . S
H515 C537 0.948 . S
H516 C539 0.951 . S
H517 C504 0.947 . S
H518 C506 0.952 1_556 S
H519 C507 0.950 . S
N520 C523 1.382 . S
N520 C525 1.363 . S
N521 C523 1.371 . S
N521 C524 1.372 . S
N522 C524 1.361 . S
N522 C525 1.377 . S
C523 N520 1.382 . S
C523 N521 1.371 . S
C523 C526 1.480 . S
C524 N521 1.372 . S
C524 N522 1.361 . S
C524 C532 1.457 . S
C525 N520 1.363 . S
C525 N522 1.377 . S
C525 C538 1.479 . S
C526 C523 1.480 . S
C526 C527 1.383 . S
C526 C531 1.385 . S
C527 H508 0.947 . S
C527 C526 1.383 . S
C527 C528 1.388 . S
C528 H509 0.969 . S
C528 C527 1.388 . S
C528 C529 1.384 . S
C529 C528 1.384 . S
C529 C530 1.377 . S
C530 H510 0.953 . S
C530 C529 1.377 . S
C530 C531 1.369 . S
C531 H511 0.945 . S
C531 C526 1.385 . S
C531 C530 1.369 . S
C532 C524 1.457 . S
C532 C533 1.372 . S
C532 C537 1.364 . S
C533 H512 0.952 . S
C533 C532 1.372 . S
C533 C534 1.389 . S
C534 H513 0.949 . S
C534 C533 1.389 . S
C534 C535 1.387 . S
C535 C534 1.387 . S
C535 C536 1.372 . S
C536 H514 0.950 . S
C536 C535 1.372 . S
C536 C537 1.379 . S
C537 H515 0.948 . S
C537 C532 1.364 . S
C537 C536 1.379 . S
C538 C507 1.383 . S
C538 C525 1.479 . S
C538 C539 1.398 . S
C539 C504 1.382 . S
C539 H516 0.951 . S
C539 C538 1.398 . S
C540 C541 1.384 . S
C540 H553 0.947 . S
C540 C575 1.382 . S
C541 C540 1.384 . S
C541 C542 1.378 . S
C542 C541 1.378 . S
C542 C543 1.378 . S
C542 H554 0.952 . S
C543 C542 1.378 . S
C543 H555 0.950 . S
C543 C574 1.383 . S
H544 C563 0.947 . S
H545 C564 0.946 . S
H546 C566 0.953 . S
H547 C567 0.945 . S
H548 C569 0.952 . S
H549 C570 0.949 . S
H550 C572 0.950 . S
H551 C573 0.948 . S
H552 C575 0.951 . S
H553 C540 0.947 . S
H554 C542 0.952 . S
H555 C543 0.950 . S
N556 C559 1.382 . S
N556 C561 1.363 . S
N557 C559 1.371 . S
N557 C560 1.372 . S
N558 C560 1.361 . S
N558 C561 1.377 . S
C559 N556 1.382 . S
C559 N557 1.371 . S
C559 C562 1.480 . S
C560 N557 1.372 . S
C560 N558 1.361 . S
C560 C568 1.457 . S
C561 N556 1.363 . S
C561 N558 1.377 . S
C561 C574 1.479 . S
C562 C559 1.480 . S
C562 C563 1.383 . S
C562 C567 1.385 . S
C563 H544 0.947 . S
C563 C562 1.383 . S
C563 C564 1.388 . S
C564 H545 0.946 . S
C564 C563 1.388 . S
C564 C565 1.384 . S
C565 C564 1.384 . S
C565 C566 1.377 . S
C566 H546 0.953 . S
C566 C565 1.377 . S
C566 C567 1.369 . S
C567 H547 0.945 . S
C567 C562 1.385 . S
C567 C566 1.369 . S
C568 C560 1.457 . S
C568 C569 1.372 . S
C568 C573 1.364 . S
C569 H548 0.952 . S
C569 C568 1.372 . S
C569 C570 1.389 . S
C570 H549 0.949 . S
C570 C569 1.389 . S
C570 C571 1.387 . S
C571 C570 1.387 . S
C571 C572 1.372 . S
C572 H550 0.950 . S
C572 C571 1.372 . S
C572 C573 1.379 . S
C573 H551 0.948 . S
C573 C568 1.364 . S
C573 C572 1.379 . S
C574 C543 1.383 . S
C574 C561 1.479 . S
C574 C575 1.398 . S
C575 C540 1.382 . S
C575 H552 0.951 . S
C575 C574 1.398 . S
C576 C577 1.384 . S
C576 H589 0.947 . S
C576 C611 1.382 . S
C577 C576 1.384 . S
C577 C578 1.378 . S
C578 C577 1.378 . S
C578 C579 1.378 . S
C578 H590 0.952 . S
C579 C578 1.378 . S
C579 H591 0.950 . S
C579 C610 1.383 . S
H580 C599 0.947 . S
H581 C600 0.946 . S
H582 C602 0.953 . S
H583 C603 0.945 . S
H584 C605 0.952 . S
H585 C606 0.949 . S
H586 C608 0.950 . S
H587 C609 0.948 . S
H588 C611 0.951 . S
H589 C576 0.947 . S
H590 C578 0.952 . S
H591 C579 0.950 . S
N592 C595 1.382 . S
N592 C597 1.363 . S
N593 C595 1.371 . S
N593 C596 1.372 . S
N594 C596 1.361 . S
N594 C597 1.377 . S
C595 N592 1.382 . S
C595 N593 1.371 . S
C595 C598 1.480 . S
C596 N593 1.372 . S
C596 N594 1.361 . S
C596 C604 1.457 . S
C597 N592 1.363 . S
C597 N594 1.377 . S
C597 C610 1.479 . S
C598 C595 1.480 . S
C598 C599 1.383 . S
C598 C603 1.385 . S
C599 H580 0.947 . S
C599 C598 1.383 . S
C599 C600 1.388 . S
C600 H581 0.946 . S
C600 C599 1.388 . S
C600 C601 1.384 . S
C601 C600 1.384 . S
C601 C602 1.377 . S
C602 H582 0.953 . S
C602 C601 1.377 . S
C602 C603 1.369 . S
C603 H583 0.945 . S
C603 C598 1.385 . S
C603 C602 1.369 . S
C604 C596 1.457 . S
C604 C605 1.372 . S
C604 C609 1.364 . S
C605 H584 0.952 . S
C605 C604 1.372 . S
C605 C606 1.389 . S
C606 H585 0.949 . S
C606 C605 1.389 . S
C606 C607 1.387 . S
C607 C606 1.387 . S
C607 C608 1.372 . S
C608 H586 0.950 . S
C608 C607 1.372 . S
C608 C609 1.379 . S
C609 H587 0.948 . S
C609 C604 1.364 . S
C609 C608 1.379 . S
C610 C579 1.383 . S
C610 C597 1.479 . S
C610 C611 1.398 . S
C611 C576 1.382 . S
C611 H588 0.951 . S
C611 C610 1.398 . S
C612 C613 1.384 . S
C612 H625 0.947 . S
C612 C647 1.382 . S
C613 C612 1.384 . S
C613 C614 1.378 . S
C614 C613 1.378 . S
C614 C615 1.378 . S
C614 H626 0.952 . S
C615 C614 1.378 . S
C615 H627 0.950 . S
C615 C646 1.383 . S
H616 C635 0.947 . S
H617 C636 0.946 . S
H618 C638 0.953 . S
H619 C639 0.945 . S
H620 C641 0.952 . S
H621 C642 0.949 . S
H622 C644 0.950 . S
H623 C645 0.948 . S
H624 C647 0.951 . S
H625 C612 0.947 . S
H626 C614 0.952 . S
H627 C615 0.950 . S
N628 C631 1.382 . S
N628 C633 1.363 . S
N629 C631 1.371 . S
N629 C632 1.372 . S
N630 C632 1.361 . S
N630 C633 1.377 . S
C631 N628 1.382 . S
C631 N629 1.371 . S
C631 C634 1.480 . S
C632 N629 1.372 . S
C632 N630 1.361 . S
C632 C640 1.457 . S
C633 N628 1.363 . S
C633 N630 1.377 . S
C633 C646 1.479 . S
C634 C631 1.480 . S
C634 C635 1.383 . S
C634 C639 1.385 . S
C635 H616 0.947 . S
C635 C634 1.383 . S
C635 C636 1.388 . S
C636 H617 0.946 . S
C636 C635 1.388 . S
C636 C637 1.384 . S
C637 C636 1.384 . S
C637 C638 1.377 . S
C638 H618 0.953 . S
C638 C637 1.377 . S
C638 C639 1.369 . S
C639 H619 0.945 . S
C639 C634 1.385 . S
C639 C638 1.369 . S
C640 C632 1.457 . S
C640 C641 1.372 . S
C640 C645 1.364 . S
C641 H620 0.952 . S
C641 C640 1.372 . S
C641 C642 1.389 . S
C642 H621 0.949 . S
C642 C641 1.389 . S
C642 C643 1.387 . S
C643 C642 1.387 . S
C643 C644 1.372 . S
C644 H622 0.950 . S
C644 C643 1.372 . S
C644 C645 1.379 . S
C645 H623 0.948 . S
C645 C640 1.364 . S
C645 C644 1.379 . S
C646 C615 1.383 . S
C646 C633 1.479 . S
C646 C647 1.398 . S
C647 C612 1.382 . S
C647 H624 0.951 . S
C647 C646 1.398 . S
Tb648 N679 2.660 . S
Tb648 N686 2.600 . S
Tb648 O692 2.546 . S
Tb648 O693 2.610 1_565 S
Tb648 O695 2.320 1_565 S
Tb648 O696 2.552 1_565 S
Tb648 O697 2.413 . S
Tb648 O699 2.362 1_556 S
Tb648 O700 2.421 . S
Tb648 C712 2.833 . S
C649 C652 1.432 . S
C649 C653 1.414 . S
C649 N656 1.359 . S
C650 C652 1.417 . S
C650 C654 1.432 . S
C650 C662 1.410 . S
C651 C653 1.444 . S
C651 C654 1.317 . S
C651 H674 0.929 . S
C652 C649 1.432 . S
C652 C650 1.417 . S
C652 N660 1.360 . S
C653 C649 1.414 . S
C653 C651 1.444 . S
C653 C658 1.385 . S
C654 C650 1.432 . S
C654 C651 1.317 . S
C654 H666 0.930 . S
C655 C657 1.392 . S
C655 C658 1.370 . S
C655 H667 0.931 . S
N656 C649 1.359 . S
N656 C657 1.327 . S
N656 Tb659 2.600 . S
C657 C655 1.392 . S
C657 N656 1.327 . S
C657 H664 0.930 . S
C658 C653 1.385 . S
C658 C655 1.370 . S
C658 H677 0.930 . S
Tb659 N656 2.600 . S
Tb659 N660 2.660 . S
Tb659 O693 2.362 1_554 S
Tb659 O694 2.421 . S
Tb659 O698 2.546 . S
Tb659 O699 2.610 1_545 S
Tb659 O701 2.320 1_545 S
Tb659 O702 2.552 1_545 S
Tb659 O703 2.413 . S
Tb659 C723 2.833 . S
N660 C652 1.360 . S
N660 Tb659 2.660 . S
N660 C661 1.305 . S
C661 N660 1.305 . S
C661 C663 1.407 . S
C661 H668 0.930 . S
C662 C650 1.410 . S
C662 C663 1.345 . S
C662 H670 0.930 . S
C663 C661 1.407 . S
C663 C662 1.345 . S
C663 H665 0.930 . S
H664 C657 0.930 . S
H665 C663 0.930 . S
H666 C654 0.930 . S
H667 C655 0.931 . S
H668 C661 0.930 . S
H669 C683 0.930 . S
H670 C662 0.930 . S
H671 C689 0.930 . S
H672 C680 0.930 . S
H673 C687 0.931 . S
H674 C651 0.929 . S
H675 C681 0.930 . S
H676 C714 0.930 . S
H677 C658 0.930 . S
H678 C713 0.929 . S
N679 Tb648 2.660 . S
N679 C680 1.305 . S
N679 C684 1.360 . S
C680 H672 0.930 . S
C680 N679 1.305 . S
C680 C683 1.407 . S
C681 H675 0.930 . S
C681 C682 1.410 . S
C681 C683 1.345 . S
C682 C681 1.410 . S
C682 C684 1.417 . S
C682 C714 1.432 . S
C683 H669 0.930 . S
C683 C680 1.407 . S
C683 C681 1.345 . S
C684 N679 1.360 . S
C684 C682 1.417 . S
C684 C688 1.432 . S
H685 C690 0.930 . S
N686 Tb648 2.600 . S
N686 C688 1.359 . S
N686 C689 1.327 . S
C687 H673 0.931 . S
C687 C689 1.392 . S
C687 C690 1.370 . S
C688 C684 1.432 . S
C688 N686 1.359 . S
C688 C691 1.414 . S
C689 H671 0.930 . S
C689 N686 1.327 . S
C689 C687 1.392 . S
C690 H685 0.930 . S
C690 C687 1.370 . S
C690 C691 1.385 . S
C691 C688 1.414 . S
C691 C690 1.385 . S
C691 C713 1.444 . S
O692 Tb648 2.546 . S
O692 C712 1.251 . S
O693 Tb648 2.610 1_545 S
O693 Tb659 2.362 1_556 S
O693 C704 1.283 . S
O694 Tb659 2.421 . S
O694 C711 1.262 1_554 S
O695 Tb648 2.320 1_545 S
O695 C711 1.260 . S
O696 Tb648 2.552 1_545 S
O696 C704 1.243 . S
O697 Tb648 2.413 . S
O697 C712 1.256 . S
O698 Tb659 2.546 . S
O698 C723 1.251 . S
O699 Tb648 2.362 1_554 S
O699 Tb659 2.610 1_565 S
O699 C715 1.283 . S
O700 Tb648 2.421 . S
O700 C722 1.262 1_556 S
O701 Tb659 2.320 1_565 S
O701 C722 1.260 . S
O702 Tb659 2.552 1_565 S
O702 C715 1.243 . S
O703 Tb659 2.413 . S
O703 C723 1.256 . S
C704 O693 1.283 . S
C704 O696 1.243 . S
C705 C707 1.382 1_565 S
C705 C709 1.393 . S
C705 C712 1.500 . S
C706 C707 1.400 . S
C706 C708 1.384 1_545 S
C707 C705 1.382 1_545 S
C707 C706 1.400 . S
C707 H724 0.930 . S
C708 C706 1.384 1_565 S
C708 C710 1.392 . S
C708 H725 0.931 . S
C709 C705 1.393 . S
C709 C710 1.401 . S
C709 H726 0.930 . S
C710 C708 1.392 . S
C710 C709 1.401 . S
C710 H727 0.930 . S
C711 O694 1.262 1_556 S
C711 O695 1.260 . S
C712 Tb648 2.833 . S
C712 O692 1.251 . S
C712 O697 1.256 . S
C712 C705 1.500 . S
C713 H678 0.929 . S
C713 C691 1.444 . S
C713 C714 1.317 . S
C714 H676 0.930 . S
C714 C682 1.432 . S
C714 C713 1.317 . S
C715 O699 1.283 . S
C715 O702 1.243 . S
C716 C717 1.382 1_545 S
C716 C720 1.393 . S
C716 C723 1.500 . S
C717 C716 1.382 1_565 S
C717 C718 1.400 . S
C717 H728 0.930 . S
C718 C717 1.400 . S
C718 C719 1.384 1_565 S
C719 C718 1.384 1_545 S
C719 C721 1.392 . S
C719 H729 0.931 . S
C720 C716 1.393 . S
C720 C721 1.401 . S
C720 H730 0.930 . S
C721 C719 1.392 . S
C721 C720 1.401 . S
C721 H731 0.930 . S
C722 O700 1.262 1_554 S
C722 O701 1.260 . S
C723 Tb659 2.833 . S
C723 O698 1.251 . S
C723 O703 1.256 . S
C723 C716 1.500 . S
H724 C707 0.930 . S
H725 C708 0.931 . S
H726 C709 0.930 . S
H727 C710 0.930 . S
H728 C717 0.930 . S
H729 C719 0.931 . S
H730 C720 0.930 . S
H731 C721 0.930 . S
Tb732 N763 2.660 . S
Tb732 N770 2.600 . S
Tb732 O776 2.546 . S
Tb732 O777 2.610 1_455 S
Tb732 O779 2.320 1_455 S
Tb732 O780 2.552 1_455 S
Tb732 O781 2.413 . S
Tb732 O783 2.362 1_556 S
Tb732 O784 2.421 . S
Tb732 C796 2.833 . S
C733 C736 1.432 . S
C733 C737 1.414 . S
C733 N740 1.359 . S
C734 C736 1.417 . S
C734 C738 1.432 . S
C734 C746 1.410 . S
C735 C737 1.444 . S
C735 C738 1.317 . S
C735 H758 0.929 . S
C736 C733 1.432 . S
C736 C734 1.417 . S
C736 N744 1.360 . S
C737 C733 1.414 . S
C737 C735 1.444 . S
C737 C742 1.385 . S
C738 C734 1.432 . S
C738 C735 1.317 . S
C738 H750 0.930 . S
C739 C741 1.392 . S
C739 C742 1.370 . S
C739 H751 0.931 . S
N740 C733 1.359 . S
N740 C741 1.327 . S
N740 Tb743 2.600 . S
C741 C739 1.392 . S
C741 N740 1.327 . S
C741 H748 0.930 . S
C742 C737 1.385 . S
C742 C739 1.370 . S
C742 H761 0.930 . S
Tb743 N740 2.600 . S
Tb743 N744 2.660 . S
Tb743 O777 2.362 1_554 S
Tb743 O778 2.421 . S
Tb743 O782 2.546 . S
Tb743 O783 2.610 1_655 S
Tb743 O785 2.320 1_655 S
Tb743 O786 2.552 1_655 S
Tb743 O787 2.413 . S
Tb743 C807 2.833 . S
N744 C736 1.360 . S
N744 Tb743 2.660 . S
N744 C745 1.305 . S
C745 N744 1.305 . S
C745 C747 1.407 . S
C745 H752 0.930 . S
C746 C734 1.410 . S
C746 C747 1.345 . S
C746 H754 0.930 . S
C747 C745 1.407 . S
C747 C746 1.345 . S
C747 H749 0.930 . S
H748 C741 0.930 . S
H749 C747 0.930 . S
H750 C738 0.930 . S
H751 C739 0.931 . S
H752 C745 0.930 . S
H753 C767 0.930 . S
H754 C746 0.930 . S
H755 C773 0.930 . S
H756 C764 0.930 . S
H757 C771 0.931 . S
H758 C735 0.929 . S
H759 C765 0.930 . S
H760 C798 0.930 . S
H761 C742 0.930 . S
H762 C797 0.929 . S
N763 Tb732 2.660 . S
N763 C764 1.305 . S
N763 C768 1.360 . S
C764 H756 0.930 . S
C764 N763 1.305 . S
C764 C767 1.407 . S
C765 H759 0.930 . S
C765 C766 1.410 . S
C765 C767 1.345 . S
C766 C765 1.410 . S
C766 C768 1.417 . S
C766 C798 1.432 . S
C767 H753 0.930 . S
C767 C764 1.407 . S
C767 C765 1.345 . S
C768 N763 1.360 . S
C768 C766 1.417 . S
C768 C772 1.432 . S
H769 C774 0.930 . S
N770 Tb732 2.600 . S
N770 C772 1.359 . S
N770 C773 1.327 . S
C771 H757 0.931 . S
C771 C773 1.392 . S
C771 C774 1.370 . S
C772 C768 1.432 . S
C772 N770 1.359 . S
C772 C775 1.414 . S
C773 H755 0.930 . S
C773 N770 1.327 . S
C773 C771 1.392 . S
C774 H769 0.930 . S
C774 C771 1.370 . S
C774 C775 1.385 . S
C775 C772 1.414 . S
C775 C774 1.385 . S
C775 C797 1.444 . S
O776 Tb732 2.546 . S
O776 C796 1.251 . S
O777 Tb732 2.610 1_655 S
O777 Tb743 2.362 1_556 S
O777 C788 1.283 . S
O778 Tb743 2.421 . S
O778 C795 1.262 1_554 S
O779 Tb732 2.320 1_655 S
O779 C795 1.260 . S
O780 Tb732 2.552 1_655 S
O780 C788 1.243 . S
O781 Tb732 2.413 . S
O781 C796 1.256 . S
O782 Tb743 2.546 . S
O782 C807 1.251 . S
O783 Tb732 2.362 1_554 S
O783 Tb743 2.610 1_455 S
O783 C799 1.283 . S
O784 Tb732 2.421 . S
O784 C806 1.262 1_556 S
O785 Tb743 2.320 1_455 S
O785 C806 1.260 . S
O786 Tb743 2.552 1_455 S
O786 C799 1.243 . S
O787 Tb743 2.413 . S
O787 C807 1.256 . S
C788 O777 1.283 . S
C788 O780 1.243 . S
C789 C791 1.382 1_455 S
C789 C793 1.393 . S
C789 C796 1.500 . S
C790 C791 1.400 . S
C790 C792 1.384 1_655 S
C791 C789 1.382 1_655 S
C791 C790 1.400 . S
C791 H808 0.930 . S
C792 C790 1.384 1_455 S
C792 C794 1.392 . S
C792 H809 0.931 . S
C793 C789 1.393 . S
C793 C794 1.401 . S
C793 H810 0.930 . S
C794 C792 1.392 . S
C794 C793 1.401 . S
C794 H811 0.930 . S
C795 O778 1.262 1_556 S
C795 O779 1.260 . S
C796 Tb732 2.833 . S
C796 O776 1.251 . S
C796 O781 1.256 . S
C796 C789 1.500 . S
C797 H762 0.929 . S
C797 C775 1.444 . S
C797 C798 1.317 . S
C798 H760 0.930 . S
C798 C766 1.432 . S
C798 C797 1.317 . S
C799 O783 1.283 . S
C799 O786 1.243 . S
C800 C801 1.382 1_655 S
C800 C804 1.393 . S
C800 C807 1.500 . S
C801 C800 1.382 1_455 S
C801 C802 1.400 . S
C801 H812 0.930 . S
C802 C801 1.400 . S
C802 C803 1.384 1_455 S
C803 C802 1.384 1_655 S
C803 C805 1.392 . S
C803 H813 0.931 . S
C804 C800 1.393 . S
C804 C805 1.401 . S
C804 H814 0.930 . S
C805 C803 1.392 . S
C805 C804 1.401 . S
C805 H815 0.930 . S
C806 O784 1.262 1_554 S
C806 O785 1.260 . S
C807 Tb743 2.833 . S
C807 O782 1.251 . S
C807 O787 1.256 . S
C807 C800 1.500 . S
H808 C791 0.930 . S
H809 C792 0.931 . S
H810 C793 0.930 . S
H811 C794 0.930 . S
H812 C801 0.930 . S
H813 C803 0.931 . S
H814 C804 0.930 . S
H815 C805 0.930 . S
Tb816 N847 2.660 . S
Tb816 N854 2.600 . S
Tb816 O860 2.546 . S
Tb816 O861 2.610 . S
Tb816 O863 2.320 . S
Tb816 O864 2.552 . S
Tb816 O865 2.413 . S
Tb816 O867 2.362 1_554 S
Tb816 O868 2.421 . S
Tb816 C880 2.833 . S
C817 C820 1.432 . S
C817 C821 1.414 . S
C817 N824 1.359 . S
C818 C820 1.417 . S
C818 C822 1.432 . S
C818 C830 1.410 . S
C819 C821 1.444 . S
C819 C822 1.317 . S
C819 H842 0.929 . S
C820 C817 1.432 . S
C820 C818 1.417 . S
C820 N828 1.360 . S
C821 C817 1.414 . S
C821 C819 1.444 . S
C821 C826 1.385 . S
C822 C818 1.432 . S
C822 C819 1.317 . S
C822 H834 0.930 . S
C823 C825 1.392 . S
C823 C826 1.370 . S
C823 H835 0.931 . S
N824 C817 1.359 . S
N824 C825 1.327 . S
N824 Tb827 2.600 . S
C825 C823 1.392 . S
C825 N824 1.327 . S
C825 H832 0.930 . S
C826 C821 1.385 . S
C826 C823 1.370 . S
C826 H845 0.930 . S
Tb827 N824 2.600 . S
Tb827 N828 2.660 . S
Tb827 O861 2.362 1_556 S
Tb827 O862 2.421 . S
Tb827 O866 2.546 . S
Tb827 O867 2.610 . S
Tb827 O869 2.320 . S
Tb827 O870 2.552 . S
Tb827 O871 2.413 . S
Tb827 C891 2.833 . S
N828 C820 1.360 . S
N828 Tb827 2.660 . S
N828 C829 1.305 . S
C829 N828 1.305 . S
C829 C831 1.407 . S
C829 H836 0.930 . S
C830 C818 1.410 . S
C830 C831 1.345 . S
C830 H838 0.930 . S
C831 C829 1.407 . S
C831 C830 1.345 . S
C831 H833 0.930 . S
H832 C825 0.930 . S
H833 C831 0.930 . S
H834 C822 0.930 . S
H835 C823 0.931 . S
H836 C829 0.930 . S
H837 C851 0.930 . S
H838 C830 0.930 . S
H839 C857 0.930 . S
H840 C848 0.930 . S
H841 C855 0.931 . S
H842 C819 0.929 . S
H843 C849 0.930 . S
H844 C882 0.930 . S
H845 C826 0.930 . S
H846 C881 0.929 . S
N847 Tb816 2.660 . S
N847 C848 1.305 . S
N847 C852 1.360 . S
C848 H840 0.930 . S
C848 N847 1.305 . S
C848 C851 1.407 . S
C849 H843 0.930 . S
C849 C850 1.410 . S
C849 C851 1.345 . S
C850 C849 1.410 . S
C850 C852 1.417 . S
C850 C882 1.432 . S
C851 H837 0.930 . S
C851 C848 1.407 . S
C851 C849 1.345 . S
C852 N847 1.360 . S
C852 C850 1.417 . S
C852 C856 1.432 . S
H853 C858 0.930 . S
N854 Tb816 2.600 . S
N854 C856 1.359 . S
N854 C857 1.327 . S
C855 H841 0.931 . S
C855 C857 1.392 . S
C855 C858 1.370 . S
C856 C852 1.432 . S
C856 N854 1.359 . S
C856 C859 1.414 . S
C857 H839 0.930 . S
C857 N854 1.327 . S
C857 C855 1.392 . S
C858 H853 0.930 . S
C858 C855 1.370 . S
C858 C859 1.385 . S
C859 C856 1.414 . S
C859 C858 1.385 . S
C859 C881 1.444 . S
O860 Tb816 2.546 . S
O860 C880 1.251 . S
O861 Tb816 2.610 . S
O861 Tb827 2.362 1_554 S
O861 C872 1.283 . S
O862 Tb827 2.421 . S
O862 C879 1.262 1_556 S
O863 Tb816 2.320 . S
O863 C879 1.260 . S
O864 Tb816 2.552 . S
O864 C872 1.243 . S
O865 Tb816 2.413 . S
O865 C880 1.256 . S
O866 Tb827 2.546 . S
O866 C891 1.251 . S
O867 Tb816 2.362 1_556 S
O867 Tb827 2.610 . S
O867 C883 1.283 . S
O868 Tb816 2.421 . S
O868 C890 1.262 1_554 S
O869 Tb827 2.320 . S
O869 C890 1.260 . S
O870 Tb827 2.552 . S
O870 C883 1.243 . S
O871 Tb827 2.413 . S
O871 C891 1.256 . S
C872 O861 1.283 . S
C872 O864 1.243 . S
C873 C875 1.382 . S
C873 C877 1.393 . S
C873 C880 1.500 . S
C874 C875 1.400 . S
C874 C876 1.384 . S
C875 C873 1.382 . S
C875 C874 1.400 . S
C875 H892 0.930 . S
C876 C874 1.384 . S
C876 C878 1.392 . S
C876 H893 0.931 . S
C877 C873 1.393 . S
C877 C878 1.401 . S
C877 H894 0.930 . S
C878 C876 1.392 . S
C878 C877 1.401 . S
C878 H895 0.930 . S
C879 O862 1.262 1_554 S
C879 O863 1.260 . S
C880 Tb816 2.833 . S
C880 O860 1.251 . S
C880 O865 1.256 . S
C880 C873 1.500 . S
C881 H846 0.929 . S
C881 C859 1.444 . S
C881 C882 1.317 . S
C882 H844 0.930 . S
C882 C850 1.432 . S
C882 C881 1.317 . S
C883 O867 1.283 . S
C883 O870 1.243 . S
C884 C885 1.382 . S
C884 C888 1.393 . S
C884 C891 1.500 . S
C885 C884 1.382 . S
C885 C886 1.400 . S
C885 H896 0.930 . S
C886 C885 1.400 . S
C886 C887 1.384 . S
C887 C886 1.384 . S
C887 C889 1.392 . S
C887 H897 0.931 . S
C888 C884 1.393 . S
C888 C889 1.401 . S
C888 H898 0.930 . S
C889 C887 1.392 . S
C889 C888 1.401 . S
C889 H899 0.930 . S
C890 O868 1.262 1_556 S
C890 O869 1.260 . S
C891 Tb827 2.833 . S
C891 O866 1.251 . S
C891 O871 1.256 . S
C891 C884 1.500 . S
H892 C875 0.930 . S
H893 C876 0.931 . S
H894 C877 0.930 . S
H895 C878 0.930 . S
H896 C885 0.930 . S
H897 C887 0.931 . S
H898 C888 0.930 . S
H899 C889 0.930 . S
Tb900 N931 2.660 . S
Tb900 N938 2.600 . S
Tb900 O944 2.546 . S
Tb900 O945 2.610 . S
Tb900 O947 2.320 . S
Tb900 O948 2.552 . S
Tb900 O949 2.413 . S
Tb900 O951 2.362 . S
Tb900 O952 2.421 . S
Tb900 C964 2.833 . S
C901 C904 1.432 . S
C901 C905 1.414 . S
C901 N908 1.359 . S
C902 C904 1.417 . S
C902 C906 1.432 . S
C902 C914 1.410 . S
C903 C905 1.444 . S
C903 C906 1.317 . S
C903 H926 0.929 . S
C904 C901 1.432 . S
C904 C902 1.417 . S
C904 N912 1.360 . S
C905 C901 1.414 . S
C905 C903 1.444 . S
C905 C910 1.385 . S
C906 C902 1.432 . S
C906 C903 1.317 . S
C906 H918 0.930 . S
C907 C909 1.392 . S
C907 C910 1.370 . S
C907 H919 0.931 . S
N908 C901 1.359 . S
N908 C909 1.327 . S
N908 Tb911 2.600 . S
C909 C907 1.392 . S
C909 N908 1.327 . S
C909 H916 0.930 . S
C910 C905 1.385 . S
C910 C907 1.370 . S
C910 H929 0.930 . S
Tb911 N908 2.600 . S
Tb911 N912 2.660 . S
Tb911 O945 2.362 . S
Tb911 O946 2.421 . S
Tb911 O950 2.546 . S
Tb911 O951 2.610 . S
Tb911 O953 2.320 . S
Tb911 O954 2.552 . S
Tb911 O955 2.413 . S
Tb911 C975 2.833 . S
N912 C904 1.360 . S
N912 Tb911 2.660 . S
N912 C913 1.305 . S
C913 N912 1.305 . S
C913 C915 1.407 . S
C913 H920 0.930 . S
C914 C902 1.410 . S
C914 C915 1.345 . S
C914 H922 0.930 . S
C915 C913 1.407 . S
C915 C914 1.345 . S
C915 H917 0.930 . S
H916 C909 0.930 . S
H917 C915 0.930 . S
H918 C906 0.930 . S
H919 C907 0.931 . S
H920 C913 0.930 . S
H921 C935 0.930 . S
H922 C914 0.930 . S
H923 C941 0.930 . S
H924 C932 0.930 . S
H925 C939 0.931 . S
H926 C903 0.929 . S
H927 C933 0.930 . S
H928 C966 0.930 . S
H929 C910 0.930 . S
H930 C965 0.929 . S
N931 Tb900 2.660 . S
N931 C932 1.305 . S
N931 C936 1.360 . S
C932 H924 0.930 . S
C932 N931 1.305 . S
C932 C935 1.407 1_455 S
C933 H927 0.930 . S
C933 C934 1.410 . S
C933 C935 1.345 . S
C934 C933 1.410 . S
C934 C936 1.417 1_655 S
C934 C966 1.432 . S
C935 H921 0.930 . S
C935 C932 1.407 1_655 S
C935 C933 1.345 . S
C936 N931 1.360 . S
C936 C934 1.417 1_455 S
C936 C940 1.432 . S
H937 C942 0.930 . S
N938 Tb900 2.600 . S
N938 C940 1.359 . S
N938 C941 1.327 . S
C939 H925 0.931 . S
C939 C941 1.392 . S
C939 C942 1.370 . S
C940 C936 1.432 . S
C940 N938 1.359 . S
C940 C943 1.414 . S
C941 H923 0.930 . S
C941 N938 1.327 . S
C941 C939 1.392 . S
C942 H937 0.930 . S
C942 C939 1.370 . S
C942 C943 1.385 . S
C943 C940 1.414 . S
C943 C942 1.385 . S
C943 C965 1.444 1_455 S
O944 Tb900 2.546 . S
O944 C964 1.251 . S
O945 Tb900 2.610 . S
O945 Tb911 2.362 . S
O945 C956 1.283 . S
O946 Tb911 2.421 . S
O946 C963 1.262 . S
O947 Tb900 2.320 . S
O947 C963 1.260 . S
O948 Tb900 2.552 . S
O948 C956 1.243 . S
O949 Tb900 2.413 . S
O949 C964 1.256 . S
O950 Tb911 2.546 . S
O950 C975 1.251 . S
O951 Tb900 2.362 . S
O951 Tb911 2.610 . S
O951 C967 1.283 . S
O952 Tb900 2.421 . S
O952 C974 1.262 . S
O953 Tb911 2.320 . S
O953 C974 1.260 . S
O954 Tb911 2.552 . S
O954 C967 1.243 . S
O955 Tb911 2.413 . S
O955 C975 1.256 . S
C956 O945 1.283 . S
C956 O948 1.243 . S
C957 C959 1.382 . S
C957 C961 1.393 . S
C957 C964 1.500 . S
C958 C959 1.400 . S
C958 C960 1.384 . S
C959 C957 1.382 . S
C959 C958 1.400 . S
C959 H976 0.930 . S
C960 C958 1.384 . S
C960 C962 1.392 . S
C960 H977 0.931 . S
C961 C957 1.393 . S
C961 C962 1.401 . S
C961 H978 0.930 . S
C962 C960 1.392 . S
C962 C961 1.401 . S
C962 H979 0.930 . S
C963 O946 1.262 . S
C963 O947 1.260 . S
C964 Tb900 2.833 . S
C964 O944 1.251 . S
C964 O949 1.256 . S
C964 C957 1.500 . S
C965 H930 0.929 . S
C965 C943 1.444 1_655 S
C965 C966 1.317 . S
C966 H928 0.930 . S
C966 C934 1.432 . S
C966 C965 1.317 . S
C967 O951 1.283 . S
C967 O954 1.243 . S
C968 C969 1.382 . S
C968 C972 1.393 . S
C968 C975 1.500 . S
C969 C968 1.382 . S
C969 C970 1.400 . S
C969 H980 0.930 . S
C970 C969 1.400 . S
C970 C971 1.384 . S
C971 C970 1.384 . S
C971 C973 1.392 . S
C971 H981 0.931 . S
C972 C968 1.393 . S
C972 C973 1.401 . S
C972 H982 0.930 . S
C973 C971 1.392 . S
C973 C972 1.401 . S
C973 H983 0.930 . S
C974 O952 1.262 . S
C974 O953 1.260 . S
C975 Tb911 2.833 . S
C975 O950 1.251 . S
C975 O955 1.256 . S
C975 C968 1.500 . S
H976 C959 0.930 . S
H977 C960 0.931 . S
H978 C961 0.930 . S
H979 C962 0.930 . S
H980 C969 0.930 . S
H981 C971 0.931 . S
H982 C972 0.930 . S
H983 C973 0.930 . S
Tb984 N1015 2.660 . S
Tb984 N1022 2.600 . S
Tb984 O1028 2.546 . S
Tb984 O1029 2.610 . S
Tb984 O1031 2.320 . S
Tb984 O1032 2.552 . S
Tb984 O1033 2.413 . S
Tb984 O1035 2.362 . S
Tb984 O1036 2.421 . S
Tb984 C1048 2.833 . S
C985 C988 1.432 . S
C985 C989 1.414 . S
C985 N992 1.359 . S
C986 C988 1.417 . S
C986 C990 1.432 . S
C986 C998 1.410 . S
C987 C989 1.444 . S
C987 C990 1.317 . S
C987 H1010 0.929 . S
C988 C985 1.432 . S
C988 C986 1.417 . S
C988 N996 1.360 . S
C989 C985 1.414 . S
C989 C987 1.444 . S
C989 C994 1.385 . S
C990 C986 1.432 . S
C990 C987 1.317 . S
C990 H1002 0.930 . S
C991 C993 1.392 . S
C991 C994 1.370 . S
C991 H1003 0.931 . S
N992 C985 1.359 . S
N992 C993 1.327 . S
N992 Tb995 2.600 . S
C993 C991 1.392 . S
C993 N992 1.327 . S
C993 H1000 0.930 . S
C994 C989 1.385 . S
C994 C991 1.370 . S
C994 H1013 0.930 . S
Tb995 N992 2.600 . S
Tb995 N996 2.660 . S
Tb995 O1029 2.362 . S
Tb995 O1030 2.421 . S
Tb995 O1034 2.546 . S
Tb995 O1035 2.610 . S
Tb995 O1037 2.320 . S
Tb995 O1038 2.552 . S
Tb995 O1039 2.413 . S
Tb995 C1059 2.833 . S
N996 C988 1.360 . S
N996 Tb995 2.660 . S
N996 C997 1.305 . S
C997 N996 1.305 . S
C997 C999 1.407 . S
C997 H1004 0.930 . S
C998 C986 1.410 . S
C998 C999 1.345 . S
C998 H1006 0.930 . S
C999 C997 1.407 . S
C999 C998 1.345 . S
C999 H1001 0.930 . S
H1000 C993 0.930 . S
H1001 C999 0.930 . S
H1002 C990 0.930 . S
H1003 C991 0.931 . S
H1004 C997 0.930 . S
H1005 C1019 0.930 . S
H1006 C998 0.930 . S
H1007 C1025 0.930 . S
H1008 C1016 0.930 . S
H1009 C1023 0.931 . S
H1010 C987 0.929 . S
H1011 C1017 0.930 . S
H1012 C1050 0.930 . S
H1013 C994 0.930 . S
H1014 C1049 0.929 . S
N1015 Tb984 2.660 . S
N1015 C1016 1.305 . S
N1015 C1020 1.360 . S
C1016 H1008 0.930 . S
C1016 N1015 1.305 . S
C1016 C1019 1.407 . S
C1017 H1011 0.930 . S
C1017 C1018 1.410 . S
C1017 C1019 1.345 . S
C1018 C1017 1.410 . S
C1018 C1020 1.417 . S
C1018 C1050 1.432 . S
C1019 H1005 0.930 . S
C1019 C1016 1.407 . S
C1019 C1017 1.345 . S
C1020 N1015 1.360 . S
C1020 C1018 1.417 . S
C1020 C1024 1.432 . S
H1021 C1026 0.930 . S
N1022 Tb984 2.600 . S
N1022 C1024 1.359 . S
N1022 C1025 1.327 . S
C1023 H1009 0.931 . S
C1023 C1025 1.392 . S
C1023 C1026 1.370 . S
C1024 C1020 1.432 . S
C1024 N1022 1.359 . S
C1024 C1027 1.414 . S
C1025 H1007 0.930 . S
C1025 N1022 1.327 . S
C1025 C1023 1.392 . S
C1026 H1021 0.930 . S
C1026 C1023 1.370 . S
C1026 C1027 1.385 . S
C1027 C1024 1.414 . S
C1027 C1026 1.385 . S
C1027 C1049 1.444 . S
O1028 Tb984 2.546 . S
O1028 C1048 1.251 . S
O1029 Tb984 2.610 . S
O1029 Tb995 2.362 . S
O1029 C1040 1.283 . S
O1030 Tb995 2.421 . S
O1030 C1047 1.262 . S
O1031 Tb984 2.320 . S
O1031 C1047 1.260 . S
O1032 Tb984 2.552 . S
O1032 C1040 1.243 . S
O1033 Tb984 2.413 . S
O1033 C1048 1.256 . S
O1034 Tb995 2.546 . S
O1034 C1059 1.251 . S
O1035 Tb984 2.362 . S
O1035 Tb995 2.610 . S
O1035 C1051 1.283 . S
O1036 Tb984 2.421 . S
O1036 C1058 1.262 . S
O1037 Tb995 2.320 . S
O1037 C1058 1.260 . S
O1038 Tb995 2.552 . S
O1038 C1051 1.243 . S
O1039 Tb995 2.413 . S
O1039 C1059 1.256 . S
C1040 O1029 1.283 . S
C1040 O1032 1.243 . S
C1041 C1043 1.382 . S
C1041 C1045 1.393 . S
C1041 C1048 1.500 . S
C1042 C1043 1.400 . S
C1042 C1044 1.384 . S
C1043 C1041 1.382 . S
C1043 C1042 1.400 . S
C1043 H1060 0.930 . S
C1044 C1042 1.384 . S
C1044 C1046 1.392 . S
C1044 H1061 0.931 . S
C1045 C1041 1.393 . S
C1045 C1046 1.401 . S
C1045 H1062 0.930 . S
C1046 C1044 1.392 . S
C1046 C1045 1.401 . S
C1046 H1063 0.930 . S
C1047 O1030 1.262 . S
C1047 O1031 1.260 . S
C1048 Tb984 2.833 . S
C1048 O1028 1.251 . S
C1048 O1033 1.256 . S
C1048 C1041 1.500 . S
C1049 H1014 0.929 . S
C1049 C1027 1.444 . S
C1049 C1050 1.317 . S
C1050 H1012 0.930 . S
C1050 C1018 1.432 . S
C1050 C1049 1.317 . S
C1051 O1035 1.283 . S
C1051 O1038 1.243 . S
C1052 C1053 1.382 . S
C1052 C1056 1.393 . S
C1052 C1059 1.500 . S
C1053 C1052 1.382 . S
C1053 C1054 1.400 . S
C1053 H1064 0.930 . S
C1054 C1053 1.400 . S
C1054 C1055 1.384 . S
C1055 C1054 1.384 . S
C1055 C1057 1.392 . S
C1055 H1065 0.931 . S
C1056 C1052 1.393 . S
C1056 C1057 1.401 . S
C1056 H1066 0.930 . S
C1057 C1055 1.392 . S
C1057 C1056 1.401 . S
C1057 H1067 0.930 . S
C1058 O1036 1.262 . S
C1058 O1037 1.260 . S
C1059 Tb995 2.833 . S
C1059 O1034 1.251 . S
C1059 O1039 1.256 . S
C1059 C1052 1.500 . S
H1060 C1043 0.930 . S
H1061 C1044 0.931 . S
H1062 C1045 0.930 . S
H1063 C1046 0.930 . S
H1064 C1053 0.930 . S
H1065 C1055 0.931 . S
H1066 C1056 0.930 . S
H1067 C1057 0.930 . S
Tb1068 N1099 2.660 . S
Tb1068 N1106 2.600 . S
Tb1068 O1112 2.546 . S
Tb1068 O1113 2.610 . S
Tb1068 O1115 2.320 . S
Tb1068 O1116 2.552 . S
Tb1068 O1117 2.413 . S
Tb1068 O1119 2.362 . S
Tb1068 O1120 2.421 . S
Tb1068 C1132 2.833 . S
C1069 C1072 1.432 . S
C1069 C1073 1.414 . S
C1069 N1076 1.359 . S
C1070 C1072 1.417 1_655 S
C1070 C1074 1.432 . S
C1070 C1082 1.410 . S
C1071 C1073 1.444 1_655 S
C1071 C1074 1.317 . S
C1071 H1094 0.929 . S
C1072 C1069 1.432 . S
C1072 C1070 1.417 1_455 S
C1072 N1080 1.360 . S
C1073 C1069 1.414 . S
C1073 C1071 1.444 1_455 S
C1073 C1078 1.385 . S
C1074 C1070 1.432 . S
C1074 C1071 1.317 . S
C1074 H1086 0.930 . S
C1075 C1077 1.392 . S
C1075 C1078 1.370 . S
C1075 H1087 0.931 . S
N1076 C1069 1.359 . S
N1076 C1077 1.327 . S
N1076 Tb1079 2.600 . S
C1077 C1075 1.392 . S
C1077 N1076 1.327 . S
C1077 H1084 0.930 . S
C1078 C1073 1.385 . S
C1078 C1075 1.370 . S
C1078 H1097 0.930 . S
Tb1079 N1076 2.600 . S
Tb1079 N1080 2.660 . S
Tb1079 O1113 2.362 . S
Tb1079 O1114 2.421 . S
Tb1079 O1118 2.546 . S
Tb1079 O1119 2.610 . S
Tb1079 O1121 2.320 . S
Tb1079 O1122 2.552 . S
Tb1079 O1123 2.413 . S
Tb1079 C1143 2.833 . S
N1080 C1072 1.360 . S
N1080 Tb1079 2.660 . S
N1080 C1081 1.305 . S
C1081 N1080 1.305 . S
C1081 C1083 1.407 1_455 S
C1081 H1088 0.930 . S
C1082 C1070 1.410 . S
C1082 C1083 1.345 . S
C1082 H1090 0.930 . S
C1083 C1081 1.407 1_655 S
C1083 C1082 1.345 . S
C1083 H1085 0.930 . S
H1084 C1077 0.930 . S
H1085 C1083 0.930 . S
H1086 C1074 0.930 . S
H1087 C1075 0.931 . S
H1088 C1081 0.930 . S
H1089 C1103 0.930 . S
H1090 C1082 0.930 . S
H1091 C1109 0.930 . S
H1092 C1100 0.930 . S
H1093 C1107 0.931 . S
H1094 C1071 0.929 . S
H1095 C1101 0.930 . S
H1096 C1134 0.930 . S
H1097 C1078 0.930 . S
H1098 C1133 0.929 . S
N1099 Tb1068 2.660 . S
N1099 C1100 1.305 . S
N1099 C1104 1.360 . S
C1100 H1092 0.930 . S
C1100 N1099 1.305 . S
C1100 C1103 1.407 . S
C1101 H1095 0.930 . S
C1101 C1102 1.410 . S
C1101 C1103 1.345 . S
C1102 C1101 1.410 . S
C1102 C1104 1.417 . S
C1102 C1134 1.432 . S
C1103 H1089 0.930 . S
C1103 C1100 1.407 . S
C1103 C1101 1.345 . S
C1104 N1099 1.360 . S
C1104 C1102 1.417 . S
C1104 C1108 1.432 . S
H1105 C1110 0.930 . S
N1106 Tb1068 2.600 . S
N1106 C1108 1.359 . S
N1106 C1109 1.327 . S
C1107 H1093 0.931 . S
C1107 C1109 1.392 . S
C1107 C1110 1.370 . S
C1108 C1104 1.432 . S
C1108 N1106 1.359 . S
C1108 C1111 1.414 . S
C1109 H1091 0.930 . S
C1109 N1106 1.327 . S
C1109 C1107 1.392 . S
C1110 H1105 0.930 . S
C1110 C1107 1.370 . S
C1110 C1111 1.385 . S
C1111 C1108 1.414 . S
C1111 C1110 1.385 . S
C1111 C1133 1.444 . S
O1112 Tb1068 2.546 . S
O1112 C1132 1.251 . S
O1113 Tb1068 2.610 . S
O1113 Tb1079 2.362 . S
O1113 C1124 1.283 . S
O1114 Tb1079 2.421 . S
O1114 C1131 1.262 . S
O1115 Tb1068 2.320 . S
O1115 C1131 1.260 . S
O1116 Tb1068 2.552 . S
O1116 C1124 1.243 . S
O1117 Tb1068 2.413 . S
O1117 C1132 1.256 . S
O1118 Tb1079 2.546 . S
O1118 C1143 1.251 . S
O1119 Tb1068 2.362 . S
O1119 Tb1079 2.610 . S
O1119 C1135 1.283 . S
O1120 Tb1068 2.421 . S
O1120 C1142 1.262 . S
O1121 Tb1079 2.320 . S
O1121 C1142 1.260 . S
O1122 Tb1079 2.552 . S
O1122 C1135 1.243 . S
O1123 Tb1079 2.413 . S
O1123 C1143 1.256 . S
C1124 O1113 1.283 . S
C1124 O1116 1.243 . S
C1125 C1127 1.382 . S
C1125 C1129 1.393 . S
C1125 C1132 1.500 . S
C1126 C1127 1.400 . S
C1126 C1128 1.384 . S
C1127 C1125 1.382 . S
C1127 C1126 1.400 . S
C1127 H1144 0.930 . S
C1128 C1126 1.384 . S
C1128 C1130 1.392 . S
C1128 H1145 0.931 . S
C1129 C1125 1.393 . S
C1129 C1130 1.401 . S
C1129 H1146 0.930 . S
C1130 C1128 1.392 . S
C1130 C1129 1.401 . S
C1130 H1147 0.930 . S
C1131 O1114 1.262 . S
C1131 O1115 1.260 . S
C1132 Tb1068 2.833 . S
C1132 O1112 1.251 . S
C1132 O1117 1.256 . S
C1132 C1125 1.500 . S
C1133 H1098 0.929 . S
C1133 C1111 1.444 . S
C1133 C1134 1.317 . S
C1134 H1096 0.930 . S
C1134 C1102 1.432 . S
C1134 C1133 1.317 . S
C1135 O1119 1.283 . S
C1135 O1122 1.243 . S
C1136 C1137 1.382 . S
C1136 C1140 1.393 . S
C1136 C1143 1.500 . S
C1137 C1136 1.382 . S
C1137 C1138 1.400 . S
C1137 H1148 0.930 . S
C1138 C1137 1.400 . S
C1138 C1139 1.384 . S
C1139 C1138 1.384 . S
C1139 C1141 1.392 . S
C1139 H1149 0.931 . S
C1140 C1136 1.393 . S
C1140 C1141 1.401 . S
C1140 H1150 0.930 . S
C1141 C1139 1.392 . S
C1141 C1140 1.401 . S
C1141 H1151 0.930 . S
C1142 O1120 1.262 . S
C1142 O1121 1.260 . S
C1143 Tb1079 2.833 . S
C1143 O1118 1.251 . S
C1143 O1123 1.256 . S
C1143 C1136 1.500 . S
H1144 C1127 0.930 . S
H1145 C1128 0.931 . S
H1146 C1129 0.930 . S
H1147 C1130 0.930 . S
H1148 C1137 0.930 . S
H1149 C1139 0.931 . S
H1150 C1140 0.930 . S
H1151 C1141 0.930 . S
Tb1152 N1183 2.660 . S
Tb1152 N1190 2.600 . S
Tb1152 O1196 2.546 . S
Tb1152 O1197 2.610 . S
Tb1152 O1199 2.320 . S
Tb1152 O1200 2.552 . S
Tb1152 O1201 2.413 . S
Tb1152 O1203 2.362 . S
Tb1152 O1204 2.421 . S
Tb1152 C1216 2.833 . S
C1153 C1156 1.432 . S
C1153 C1157 1.414 . S
C1153 N1160 1.359 . S
C1154 C1156 1.417 1_455 S
C1154 C1158 1.432 . S
C1154 C1166 1.410 . S
C1155 C1157 1.444 1_455 S
C1155 C1158 1.317 . S
C1155 H1178 0.929 . S
C1156 C1153 1.432 . S
C1156 C1154 1.417 1_655 S
C1156 N1164 1.360 . S
C1157 C1153 1.414 . S
C1157 C1155 1.444 1_655 S
C1157 C1162 1.385 . S
C1158 C1154 1.432 . S
C1158 C1155 1.317 . S
C1158 H1170 0.930 . S
C1159 C1161 1.392 . S
C1159 C1162 1.370 . S
C1159 H1171 0.931 . S
N1160 C1153 1.359 . S
N1160 C1161 1.327 . S
N1160 Tb1163 2.600 . S
C1161 C1159 1.392 . S
C1161 N1160 1.327 . S
C1161 H1168 0.930 . S
C1162 C1157 1.385 . S
C1162 C1159 1.370 . S
C1162 H1181 0.930 . S
Tb1163 N1160 2.600 . S
Tb1163 N1164 2.660 . S
Tb1163 O1197 2.362 . S
Tb1163 O1198 2.421 . S
Tb1163 O1202 2.546 . S
Tb1163 O1203 2.610 . S
Tb1163 O1205 2.320 . S
Tb1163 O1206 2.552 . S
Tb1163 O1207 2.413 . S
Tb1163 C1227 2.833 . S
N1164 C1156 1.360 . S
N1164 Tb1163 2.660 . S
N1164 C1165 1.305 . S
C1165 N1164 1.305 . S
C1165 C1167 1.407 1_655 S
C1165 H1172 0.930 . S
C1166 C1154 1.410 . S
C1166 C1167 1.345 . S
C1166 H1174 0.930 . S
C1167 C1165 1.407 1_455 S
C1167 C1166 1.345 . S
C1167 H1169 0.930 . S
H1168 C1161 0.930 . S
H1169 C1167 0.930 . S
H1170 C1158 0.930 . S
H1171 C1159 0.931 . S
H1172 C1165 0.930 . S
H1173 C1187 0.930 . S
H1174 C1166 0.930 . S
H1175 C1193 0.930 . S
H1176 C1184 0.930 . S
H1177 C1191 0.931 . S
H1178 C1155 0.929 . S
H1179 C1185 0.930 . S
H1180 C1218 0.930 . S
H1181 C1162 0.930 . S
H1182 C1217 0.929 . S
N1183 Tb1152 2.660 . S
N1183 C1184 1.305 . S
N1183 C1188 1.360 . S
C1184 H1176 0.930 . S
C1184 N1183 1.305 . S
C1184 C1187 1.407 . S
C1185 H1179 0.930 . S
C1185 C1186 1.410 . S
C1185 C1187 1.345 . S
C1186 C1185 1.410 . S
C1186 C1188 1.417 . S
C1186 C1218 1.432 . S
C1187 H1173 0.930 . S
C1187 C1184 1.407 . S
C1187 C1185 1.345 . S
C1188 N1183 1.360 . S
C1188 C1186 1.417 . S
C1188 C1192 1.432 . S
H1189 C1194 0.930 . S
N1190 Tb1152 2.600 . S
N1190 C1192 1.359 . S
N1190 C1193 1.327 . S
C1191 H1177 0.931 . S
C1191 C1193 1.392 . S
C1191 C1194 1.370 . S
C1192 C1188 1.432 . S
C1192 N1190 1.359 . S
C1192 C1195 1.414 . S
C1193 H1175 0.930 . S
C1193 N1190 1.327 . S
C1193 C1191 1.392 . S
C1194 H1189 0.930 . S
C1194 C1191 1.370 . S
C1194 C1195 1.385 . S
C1195 C1192 1.414 . S
C1195 C1194 1.385 . S
C1195 C1217 1.444 . S
O1196 Tb1152 2.546 . S
O1196 C1216 1.251 . S
O1197 Tb1152 2.610 . S
O1197 Tb1163 2.362 . S
O1197 C1208 1.283 . S
O1198 Tb1163 2.421 . S
O1198 C1215 1.262 . S
O1199 Tb1152 2.320 . S
O1199 C1215 1.260 . S
O1200 Tb1152 2.552 . S
O1200 C1208 1.243 . S
O1201 Tb1152 2.413 . S
O1201 C1216 1.256 . S
O1202 Tb1163 2.546 . S
O1202 C1227 1.251 . S
O1203 Tb1152 2.362 . S
O1203 Tb1163 2.610 . S
O1203 C1219 1.283 . S
O1204 Tb1152 2.421 . S
O1204 C1226 1.262 . S
O1205 Tb1163 2.320 . S
O1205 C1226 1.260 . S
O1206 Tb1163 2.552 . S
O1206 C1219 1.243 . S
O1207 Tb1163 2.413 . S
O1207 C1227 1.256 . S
C1208 O1197 1.283 . S
C1208 O1200 1.243 . S
C1209 C1211 1.382 . S
C1209 C1213 1.393 . S
C1209 C1216 1.500 . S
C1210 C1211 1.400 . S
C1210 C1212 1.384 . S
C1211 C1209 1.382 . S
C1211 C1210 1.400 . S
C1211 H1228 0.930 . S
C1212 C1210 1.384 . S
C1212 C1214 1.392 . S
C1212 H1229 0.931 . S
C1213 C1209 1.393 . S
C1213 C1214 1.401 . S
C1213 H1230 0.930 . S
C1214 C1212 1.392 . S
C1214 C1213 1.401 . S
C1214 H1231 0.930 . S
C1215 O1198 1.262 . S
C1215 O1199 1.260 . S
C1216 Tb1152 2.833 . S
C1216 O1196 1.251 . S
C1216 O1201 1.256 . S
C1216 C1209 1.500 . S
C1217 H1182 0.929 . S
C1217 C1195 1.444 . S
C1217 C1218 1.317 . S
C1218 H1180 0.930 . S
C1218 C1186 1.432 . S
C1218 C1217 1.317 . S
C1219 O1203 1.283 . S
C1219 O1206 1.243 . S
C1220 C1221 1.382 . S
C1220 C1224 1.393 . S
C1220 C1227 1.500 . S
C1221 C1220 1.382 . S
C1221 C1222 1.400 . S
C1221 H1232 0.930 . S
C1222 C1221 1.400 . S
C1222 C1223 1.384 . S
C1223 C1222 1.384 . S
C1223 C1225 1.392 . S
C1223 H1233 0.931 . S
C1224 C1220 1.393 . S
C1224 C1225 1.401 . S
C1224 H1234 0.930 . S
C1225 C1223 1.392 . S
C1225 C1224 1.401 . S
C1225 H1235 0.930 . S
C1226 O1204 1.262 . S
C1226 O1205 1.260 . S
C1227 Tb1163 2.833 . S
C1227 O1202 1.251 . S
C1227 O1207 1.256 . S
C1227 C1220 1.500 . S
H1228 C1211 0.930 . S
H1229 C1212 0.931 . S
H1230 C1213 0.930 . S
H1231 C1214 0.930 . S
H1232 C1221 0.930 . S
H1233 C1223 0.931 . S
H1234 C1224 0.930 . S
H1235 C1225 0.930 . S
Tb1236 N1267 2.660 . S
Tb1236 N1274 2.600 . S
Tb1236 O1280 2.546 . S
Tb1236 O1281 2.610 . S
Tb1236 O1283 2.320 . S
Tb1236 O1284 2.552 . S
Tb1236 O1285 2.413 . S
Tb1236 O1287 2.362 . S
Tb1236 O1288 2.421 . S
Tb1236 C1300 2.833 . S
C1237 C1240 1.432 . S
C1237 C1241 1.414 . S
C1237 N1244 1.359 . S
C1238 C1240 1.417 . S
C1238 C1242 1.432 . S
C1238 C1250 1.410 . S
C1239 C1241 1.444 . S
C1239 C1242 1.317 . S
C1239 H1262 0.929 . S
C1240 C1237 1.432 . S
C1240 C1238 1.417 . S
C1240 N1248 1.360 . S
C1241 C1237 1.414 . S
C1241 C1239 1.444 . S
C1241 C1246 1.385 . S
C1242 C1238 1.432 . S
C1242 C1239 1.317 . S
C1242 H1254 0.930 . S
C1243 C1245 1.392 . S
C1243 C1246 1.370 . S
C1243 H1255 0.931 . S
N1244 C1237 1.359 . S
N1244 C1245 1.327 . S
N1244 Tb1247 2.600 . S
C1245 C1243 1.392 . S
C1245 N1244 1.327 . S
C1245 H1252 0.930 . S
C1246 C1241 1.385 . S
C1246 C1243 1.370 . S
C1246 H1265 0.930 . S
Tb1247 N1244 2.600 . S
Tb1247 N1248 2.660 . S
Tb1247 O1281 2.362 . S
Tb1247 O1282 2.421 . S
Tb1247 O1286 2.546 . S
Tb1247 O1287 2.610 . S
Tb1247 O1289 2.320 . S
Tb1247 O1290 2.552 . S
Tb1247 O1291 2.413 . S
Tb1247 C1311 2.833 . S
N1248 C1240 1.360 . S
N1248 Tb1247 2.660 . S
N1248 C1249 1.305 . S
C1249 N1248 1.305 . S
C1249 C1251 1.407 . S
C1249 H1256 0.930 . S
C1250 C1238 1.410 . S
C1250 C1251 1.345 . S
C1250 H1258 0.930 . S
C1251 C1249 1.407 . S
C1251 C1250 1.345 . S
C1251 H1253 0.930 . S
H1252 C1245 0.930 . S
H1253 C1251 0.930 . S
H1254 C1242 0.930 . S
H1255 C1243 0.931 . S
H1256 C1249 0.930 . S
H1257 C1271 0.930 . S
H1258 C1250 0.930 . S
H1259 C1277 0.930 . S
H1260 C1268 0.930 . S
H1261 C1275 0.931 . S
H1262 C1239 0.929 . S
H1263 C1269 0.930 . S
H1264 C1302 0.930 . S
H1265 C1246 0.930 . S
H1266 C1301 0.929 . S
N1267 Tb1236 2.660 . S
N1267 C1268 1.305 . S
N1267 C1272 1.360 . S
C1268 H1260 0.930 . S
C1268 N1267 1.305 . S
C1268 C1271 1.407 . S
C1269 H1263 0.930 . S
C1269 C1270 1.410 . S
C1269 C1271 1.345 . S
C1270 C1269 1.410 . S
C1270 C1272 1.417 . S
C1270 C1302 1.432 . S
C1271 H1257 0.930 . S
C1271 C1268 1.407 . S
C1271 C1269 1.345 . S
C1272 N1267 1.360 . S
C1272 C1270 1.417 . S
C1272 C1276 1.432 . S
H1273 C1278 0.930 . S
N1274 Tb1236 2.600 . S
N1274 C1276 1.359 . S
N1274 C1277 1.327 . S
C1275 H1261 0.931 . S
C1275 C1277 1.392 . S
C1275 C1278 1.370 . S
C1276 C1272 1.432 . S
C1276 N1274 1.359 . S
C1276 C1279 1.414 . S
C1277 H1259 0.930 . S
C1277 N1274 1.327 . S
C1277 C1275 1.392 . S
C1278 H1273 0.930 . S
C1278 C1275 1.370 . S
C1278 C1279 1.385 . S
C1279 C1276 1.414 . S
C1279 C1278 1.385 . S
C1279 C1301 1.444 . S
O1280 Tb1236 2.546 . S
O1280 C1300 1.251 . S
O1281 Tb1236 2.610 . S
O1281 Tb1247 2.362 . S
O1281 C1292 1.283 . S
O1282 Tb1247 2.421 . S
O1282 C1299 1.262 . S
O1283 Tb1236 2.320 . S
O1283 C1299 1.260 . S
O1284 Tb1236 2.552 . S
O1284 C1292 1.243 . S
O1285 Tb1236 2.413 . S
O1285 C1300 1.256 . S
O1286 Tb1247 2.546 . S
O1286 C1311 1.251 . S
O1287 Tb1236 2.362 . S
O1287 Tb1247 2.610 . S
O1287 C1303 1.283 . S
O1288 Tb1236 2.421 . S
O1288 C1310 1.262 . S
O1289 Tb1247 2.320 . S
O1289 C1310 1.260 . S
O1290 Tb1247 2.552 . S
O1290 C1303 1.243 . S
O1291 Tb1247 2.413 . S
O1291 C1311 1.256 . S
C1292 O1281 1.283 . S
C1292 O1284 1.243 . S
C1293 C1295 1.382 . S
C1293 C1297 1.393 . S
C1293 C1300 1.500 . S
C1294 C1295 1.400 . S
C1294 C1296 1.384 . S
C1295 C1293 1.382 . S
C1295 C1294 1.400 . S
C1295 H1312 0.930 . S
C1296 C1294 1.384 . S
C1296 C1298 1.392 . S
C1296 H1313 0.931 . S
C1297 C1293 1.393 . S
C1297 C1298 1.401 . S
C1297 H1314 0.930 . S
C1298 C1296 1.392 . S
C1298 C1297 1.401 . S
C1298 H1315 0.930 . S
C1299 O1282 1.262 . S
C1299 O1283 1.260 . S
C1300 Tb1236 2.833 . S
C1300 O1280 1.251 . S
C1300 O1285 1.256 . S
C1300 C1293 1.500 . S
C1301 H1266 0.929 . S
C1301 C1279 1.444 . S
C1301 C1302 1.317 . S
C1302 H1264 0.930 . S
C1302 C1270 1.432 . S
C1302 C1301 1.317 . S
C1303 O1287 1.283 . S
C1303 O1290 1.243 . S
C1304 C1305 1.382 . S
C1304 C1308 1.393 . S
C1304 C1311 1.500 . S
C1305 C1304 1.382 . S
C1305 C1306 1.400 . S
C1305 H1316 0.930 . S
C1306 C1305 1.400 . S
C1306 C1307 1.384 . S
C1307 C1306 1.384 . S
C1307 C1309 1.392 . S
C1307 H1317 0.931 . S
C1308 C1304 1.393 . S
C1308 C1309 1.401 . S
C1308 H1318 0.930 . S
C1309 C1307 1.392 . S
C1309 C1308 1.401 . S
C1309 H1319 0.930 . S
C1310 O1288 1.262 . S
C1310 O1289 1.260 . S
C1311 Tb1247 2.833 . S
C1311 O1286 1.251 . S
C1311 O1291 1.256 . S
C1311 C1304 1.500 . S
H1312 C1295 0.930 . S
H1313 C1296 0.931 . S
H1314 C1297 0.930 . S
H1315 C1298 0.930 . S
H1316 C1305 0.930 . S
H1317 C1307 0.931 . S
H1318 C1308 0.930 . S
H1319 C1309 0.930 . S
Tb1320 N1351 2.660 . S
Tb1320 N1358 2.600 . S
Tb1320 O1364 2.546 . S
Tb1320 O1365 2.610 . S
Tb1320 O1367 2.320 . S
Tb1320 O1368 2.552 . S
Tb1320 O1369 2.413 . S
Tb1320 O1371 2.362 . S
Tb1320 O1372 2.421 . S
Tb1320 C1384 2.833 . S
C1321 C1324 1.432 . S
C1321 C1325 1.414 . S
C1321 N1328 1.359 . S
C1322 C1324 1.417 . S
C1322 C1326 1.432 . S
C1322 C1334 1.410 . S
C1323 C1325 1.444 . S
C1323 C1326 1.317 . S
C1323 H1346 0.929 . S
C1324 C1321 1.432 . S
C1324 C1322 1.417 . S
C1324 N1332 1.360 . S
C1325 C1321 1.414 . S
C1325 C1323 1.444 . S
C1325 C1330 1.385 . S
C1326 C1322 1.432 . S
C1326 C1323 1.317 . S
C1326 H1338 0.930 . S
C1327 C1329 1.392 . S
C1327 C1330 1.370 . S
C1327 H1339 0.931 . S
N1328 C1321 1.359 . S
N1328 C1329 1.327 . S
N1328 Tb1331 2.600 . S
C1329 C1327 1.392 . S
C1329 N1328 1.327 . S
C1329 H1336 0.930 . S
C1330 C1325 1.385 . S
C1330 C1327 1.370 . S
C1330 H1349 0.930 . S
Tb1331 N1328 2.600 . S
Tb1331 N1332 2.660 . S
Tb1331 O1365 2.362 . S
Tb1331 O1366 2.421 . S
Tb1331 O1370 2.546 . S
Tb1331 O1371 2.610 . S
Tb1331 O1373 2.320 . S
Tb1331 O1374 2.552 . S
Tb1331 O1375 2.413 . S
Tb1331 C1395 2.833 . S
N1332 C1324 1.360 . S
N1332 Tb1331 2.660 . S
N1332 C1333 1.305 . S
C1333 N1332 1.305 . S
C1333 C1335 1.407 . S
C1333 H1340 0.930 . S
C1334 C1322 1.410 . S
C1334 C1335 1.345 . S
C1334 H1342 0.930 . S
C1335 C1333 1.407 . S
C1335 C1334 1.345 . S
C1335 H1337 0.930 . S
H1336 C1329 0.930 . S
H1337 C1335 0.930 . S
H1338 C1326 0.930 . S
H1339 C1327 0.931 . S
H1340 C1333 0.930 . S
H1341 C1355 0.930 . S
H1342 C1334 0.930 . S
H1343 C1361 0.930 . S
H1344 C1352 0.930 . S
H1345 C1359 0.931 . S
H1346 C1323 0.929 . S
H1347 C1353 0.930 . S
H1348 C1386 0.930 . S
H1349 C1330 0.930 . S
H1350 C1385 0.929 . S
N1351 Tb1320 2.660 . S
N1351 C1352 1.305 . S
N1351 C1356 1.360 . S
C1352 H1344 0.930 . S
C1352 N1351 1.305 . S
C1352 C1355 1.407 1_655 S
C1353 H1347 0.930 . S
C1353 C1354 1.410 . S
C1353 C1355 1.345 . S
C1354 C1353 1.410 . S
C1354 C1356 1.417 1_455 S
C1354 C1386 1.432 . S
C1355 H1341 0.930 . S
C1355 C1352 1.407 1_455 S
C1355 C1353 1.345 . S
C1356 N1351 1.360 . S
C1356 C1354 1.417 1_655 S
C1356 C1360 1.432 . S
H1357 C1362 0.930 . S
N1358 Tb1320 2.600 . S
N1358 C1360 1.359 . S
N1358 C1361 1.327 . S
C1359 H1345 0.931 . S
C1359 C1361 1.392 . S
C1359 C1362 1.370 . S
C1360 C1356 1.432 . S
C1360 N1358 1.359 . S
C1360 C1363 1.414 . S
C1361 H1343 0.930 . S
C1361 N1358 1.327 . S
C1361 C1359 1.392 . S
C1362 H1357 0.930 . S
C1362 C1359 1.370 . S
C1362 C1363 1.385 . S
C1363 C1360 1.414 . S
C1363 C1362 1.385 . S
C1363 C1385 1.444 1_655 S
O1364 Tb1320 2.546 . S
O1364 C1384 1.251 . S
O1365 Tb1320 2.610 . S
O1365 Tb1331 2.362 . S
O1365 C1376 1.283 . S
O1366 Tb1331 2.421 . S
O1366 C1383 1.262 . S
O1367 Tb1320 2.320 . S
O1367 C1383 1.260 . S
O1368 Tb1320 2.552 . S
O1368 C1376 1.243 . S
O1369 Tb1320 2.413 . S
O1369 C1384 1.256 . S
O1370 Tb1331 2.546 . S
O1370 C1395 1.251 . S
O1371 Tb1320 2.362 . S
O1371 Tb1331 2.610 . S
O1371 C1387 1.283 . S
O1372 Tb1320 2.421 . S
O1372 C1394 1.262 . S
O1373 Tb1331 2.320 . S
O1373 C1394 1.260 . S
O1374 Tb1331 2.552 . S
O1374 C1387 1.243 . S
O1375 Tb1331 2.413 . S
O1375 C1395 1.256 . S
C1376 O1365 1.283 . S
C1376 O1368 1.243 . S
C1377 C1379 1.382 . S
C1377 C1381 1.393 . S
C1377 C1384 1.500 . S
C1378 C1379 1.400 . S
C1378 C1380 1.384 . S
C1379 C1377 1.382 . S
C1379 C1378 1.400 . S
C1379 H1396 0.930 . S
C1380 C1378 1.384 . S
C1380 C1382 1.392 . S
C1380 H1397 0.931 . S
C1381 C1377 1.393 . S
C1381 C1382 1.401 . S
C1381 H1398 0.930 . S
C1382 C1380 1.392 . S
C1382 C1381 1.401 . S
C1382 H1399 0.930 . S
C1383 O1366 1.262 . S
C1383 O1367 1.260 . S
C1384 Tb1320 2.833 . S
C1384 O1364 1.251 . S
C1384 O1369 1.256 . S
C1384 C1377 1.500 . S
C1385 H1350 0.929 . S
C1385 C1363 1.444 1_455 S
C1385 C1386 1.317 . S
C1386 H1348 0.930 . S
C1386 C1354 1.432 . S
C1386 C1385 1.317 . S
C1387 O1371 1.283 . S
C1387 O1374 1.243 . S
C1388 C1389 1.382 . S
C1388 C1392 1.393 . S
C1388 C1395 1.500 . S
C1389 C1388 1.382 . S
C1389 C1390 1.400 . S
C1389 H1400 0.930 . S
C1390 C1389 1.400 . S
C1390 C1391 1.384 . S
C1391 C1390 1.384 . S
C1391 C1393 1.392 . S
C1391 H1401 0.931 . S
C1392 C1388 1.393 . S
C1392 C1393 1.401 . S
C1392 H1402 0.930 . S
C1393 C1391 1.392 . S
C1393 C1392 1.401 . S
C1393 H1403 0.930 . S
C1394 O1372 1.262 . S
C1394 O1373 1.260 . S
C1395 Tb1331 2.833 . S
C1395 O1370 1.251 . S
C1395 O1375 1.256 . S
C1395 C1388 1.500 . S
H1396 C1379 0.930 . S
H1397 C1380 0.931 . S
H1398 C1381 0.930 . S
H1399 C1382 0.930 . S
H1400 C1389 0.930 . S
H1401 C1391 0.931 . S
H1402 C1392 0.930 . S
H1403 C1393 0.930 . S
C469 C715 1.618 . S
C505 C799 1.575 . S
C433 C879 1.616 . S
C397 C795 1.485 . S
C883 C325 1.468 . S
C361 C711 1.538 . S
C704 C421 1.602 . S
C788 C349 1.549 . S
C385 C890 1.618 . S
C493 C806 1.486 . S
C529 C872 1.447 . S
C722 C457 1.547 . S
C967 C37 1.619 . S
C73 C1051 1.575 . S
C1 C1131 1.616 . S
C613 C1047 1.485 . S
C541 C1135 1.468 . S
C577 C963 1.538 . S
C637 C956 1.601 . S
C565 C1040 1.549 . S
C1142 C601 1.618 . S
C61 C1058 1.486 . S
C1124 C97 1.447 . S
C25 C974 1.547 . S
C1219 C253 1.618 . S
C289 C1303 1.574 . S
C1383 C217 1.616 . S
C1299 C181 1.485 . S
C1387 C109 1.468 . S
C145 C1215 1.538 . S
C205 C1208 1.602 . S
C133 C1292 1.549 . S
C1394 C169 1.618 . S
C277 C1310 1.486 . S
C313 C1376 1.447 . S
C241 C1226 1.547 . S
C571 C718 1.530 . S
C802 C607 1.362 . S
C643 C874 1.416 . S
C247 C790 1.377 . S
C283 C886 1.405 . S
C706 C319 1.543 . S
C139 C970 1.529 . S
C175 C1054 1.362 . S
C211 C1126 1.416 . S
C463 C1042 1.377 . S
C1138 C499 1.405 . S
C535 C958 1.544 . S
C355 C1222 1.530 . S
C391 C1306 1.362 . S
C1378 C427 1.416 . S
C31 C1294 1.377 . S
C67 C1390 1.405 . S
C103 C1210 1.543 . S
