# Generated by pormake.
# Topology dag, (6,3)-cn, num edge types: 1
# Building blocks:
#     Node 0, Type 0, BuildingBlock: MIDCAF_clean_sbu_0, # of connection points: 6
#     Node 1, Type 0, BuildingBlock: MIDCAF_clean_sbu_0, # of connection points: 6
#     Node 2, Type 0, BuildingBlock: MIDCAF_clean_sbu_0, # of connection points: 6
#     Node 3, Type 0, BuildingBlock: MIDCAF_clean_sbu_0, # of connection points: 6
#     Node 4, Type 1, BuildingBlock: QEWDON_clean_linker_0, # of connection points: 3
#     Node 5, Type 1, BuildingBlock: QEWDON_clean_linker_0, # of connection points: 3
#     Node 6, Type 1, BuildingBlock: QEWDON_clean_linker_0, # of connection points: 3
#     Node 7, Type 1, BuildingBlock: QEWDON_clean_linker_0, # of connection points: 3
#     Node 8, Type 1, BuildingBlock: QEWDON_clean_linker_0, # of connection points: 3
#     Node 9, Type 1, BuildingBlock: QEWDON_clean_linker_0, # of connection points: 3
#     Node 10, Type 1, BuildingBlock: QEWDON_clean_linker_0, # of connection points: 3
#     Node 11, Type 1, BuildingBlock: QEWDON_clean_linker_0, # of connection points: 3
#     Edge 12, Type (0, 1), BuildingBlock: MIFKUJ_clean_linker_0, # of connection points: 2
#     Edge 13, Type (0, 1), BuildingBlock: MIFKUJ_clean_linker_0, # of connection points: 2
#     Edge 14, Type (0, 1), BuildingBlock: MIFKUJ_clean_linker_0, # of connection points: 2
#     Edge 15, Type (0, 1), BuildingBlock: MIFKUJ_clean_linker_0, # of connection points: 2
#     Edge 16, Type (0, 1), BuildingBlock: MIFKUJ_clean_linker_0, # of connection points: 2
#     Edge 17, Type (0, 1), BuildingBlock: MIFKUJ_clean_linker_0, # of connection points: 2
#     Edge 18, Type (0, 1), BuildingBlock: MIFKUJ_clean_linker_0, # of connection points: 2
#     Edge 19, Type (0, 1), BuildingBlock: MIFKUJ_clean_linker_0, # of connection points: 2
#     Edge 20, Type (0, 1), BuildingBlock: MIFKUJ_clean_linker_0, # of connection points: 2
#     Edge 21, Type (0, 1), BuildingBlock: MIFKUJ_clean_linker_0, # of connection points: 2
#     Edge 22, Type (0, 1), BuildingBlock: MIFKUJ_clean_linker_0, # of connection points: 2
#     Edge 23, Type (0, 1), BuildingBlock: MIFKUJ_clean_linker_0, # of connection points: 2
#     Edge 24, Type (0, 1), BuildingBlock: MIFKUJ_clean_linker_0, # of connection points: 2
#     Edge 25, Type (0, 1), BuildingBlock: MIFKUJ_clean_linker_0, # of connection points: 2
#     Edge 26, Type (0, 1), BuildingBlock: MIFKUJ_clean_linker_0, # of connection points: 2
#     Edge 27, Type (0, 1), BuildingBlock: MIFKUJ_clean_linker_0, # of connection points: 2
#     Edge 28, Type (0, 1), BuildingBlock: MIFKUJ_clean_linker_0, # of connection points: 2
#     Edge 29, Type (0, 1), BuildingBlock: MIFKUJ_clean_linker_0, # of connection points: 2
#     Edge 30, Type (0, 1), BuildingBlock: MIFKUJ_clean_linker_0, # of connection points: 2
#     Edge 31, Type (0, 1), BuildingBlock: MIFKUJ_clean_linker_0, # of connection points: 2
#     Edge 32, Type (0, 1), BuildingBlock: MIFKUJ_clean_linker_0, # of connection points: 2
#     Edge 33, Type (0, 1), BuildingBlock: MIFKUJ_clean_linker_0, # of connection points: 2
#     Edge 34, Type (0, 1), BuildingBlock: MIFKUJ_clean_linker_0, # of connection points: 2
#     Edge 35, Type (0, 1), BuildingBlock: MIFKUJ_clean_linker_0, # of connection points: 2
# Relax obj value: 0.077
# Max RMSD: 0.114
# Mean RMSD: 0.079
data_MOF--net-dag--node1-MIDCAF_clean_sbu_0--node2-QEWDON_clean_linker_0--edge1-MIFKUJ_clean_linker_0
_symmetry_space_group_name_H-M    P1
_symmetry_Int_Tables_number       1
_symmetry_cell_setting            triclinic
loop_
_symmetry_equiv_pos_as_xyz
'x, y, z'
_cell_length_a     54.401626
_cell_length_b     54.37877
_cell_length_c     43.480382
_cell_angle_alpha  89.85584
_cell_angle_beta   90.129072
_cell_angle_gamma 89.925739
loop_
_atom_site_label
_atom_site_type_symbol
_atom_site_fract_x
_atom_site_fract_y
_atom_site_fract_z
_atom_type_partial_charge
Zn0 Zn 0.12521 0.89175 0.03842 0.0
Zn1 Zn 0.14587 0.86731 0.94333 0.0
Zn2 Zn 0.13744 0.87154 0.9969 0.0
C3 C 0.13575 0.91673 0.95191 0.0
C4 C 0.10769 0.83372 0.9587 0.0
O5 O 0.16158 0.85546 0.03219 0.0
O6 O 0.13203 0.86107 0.06573 0.0
C7 C 0.1731 0.90367 0.03109 0.0
O8 O 0.13493 0.90844 0.97932 0.0
O9 O 0.13925 0.90203 0.92987 0.0
O10 O 0.12088 0.84085 0.93647 0.0
O11 O 0.11027 0.84383 0.98516 0.0
O12 O 0.15336 0.91567 0.03476 0.0
O13 O 0.17183 0.8811 0.02222 0.0
O14 O 0.09965 0.86023 0.01118 0.0
O15 O 0.09064 0.89812 0.02456 0.0
C16 C 0.08348 0.87657 0.01843 0.0
O17 O 0.17349 0.85308 1.00025 0.0
O18 O 0.1804 0.85596 0.95027 0.0
C19 C 0.15158 0.84988 0.0582 0.0
C20 C 0.18744 0.84939 0.9768 0.0
Zn21 Zn 0.62888 0.6323 0.44175 0.0
Zn22 Zn 0.62942 0.63665 0.5612 0.0
Zn23 Zn 0.62881 0.63535 0.50259 0.0
C24 C 0.6351 0.58793 0.54787 0.0
C25 C 0.58399 0.65459 0.54532 0.0
O26 O 0.65494 0.66371 0.4844 0.0
O27 O 0.65071 0.66075 0.43383 0.0
C28 C 0.64518 0.58709 0.46304 0.0
O29 O 0.63744 0.59767 0.52091 0.0
O30 O 0.62903 0.60106 0.57048 0.0
O31 O 0.59856 0.65502 0.56793 0.0
O32 O 0.59144 0.64653 0.51904 0.0
O33 O 0.64316 0.59897 0.4382 0.0
O34 O 0.63968 0.59731 0.4889 0.0
O35 O 0.5915 0.64537 0.48628 0.0
O36 O 0.59288 0.63719 0.43644 0.0
C37 C 0.58098 0.64428 0.45971 0.0
O38 O 0.65791 0.6618 0.51621 0.0
O39 O 0.66099 0.65399 0.56598 0.0
C40 C 0.66017 0.67108 0.45693 0.0
C41 C 0.66881 0.66485 0.54228 0.0
Zn42 Zn 0.86428 0.13269 0.92736 0.0
Zn43 Zn 0.87476 0.10408 0.02674 0.0
Zn44 Zn 0.8679 0.12416 0.98245 0.0
C45 C 0.91912 0.11663 0.01546 0.0
C46 C 0.82802 0.09436 0.01227 0.0
O47 O 0.83251 0.1446 0.9821 0.0
O48 O 0.83206 0.14991 0.93157 0.0
C49 C 0.9062 0.15786 0.94915 0.0
O50 O 0.9049 0.13288 0.003 0.0
O51 O 0.91023 0.09581 0.0221 0.0
O52 O 0.84672 0.08121 0.01795 0.0
O53 O 0.83122 0.11678 0.00339 0.0
O54 O 0.89433 0.15394 0.92463 0.0
O55 O 0.89932 0.14796 0.97454 0.0
O56 O 0.86811 0.08788 0.96388 0.0
O57 O 0.8648 0.09693 0.91486 0.0
C58 C 0.86628 0.08095 0.93602 0.0
O59 O 0.84232 0.14268 0.0139 0.0
O60 O 0.86607 0.13433 0.05353 0.0
C61 C 0.82217 0.15309 0.95753 0.0
C62 C 0.84915 0.14737 0.04176 0.0
Zn63 Zn 0.39122 0.37034 0.52503 0.0
Zn64 Zn 0.35833 0.35808 0.42964 0.0
Zn65 Zn 0.36876 0.36052 0.48469 0.0
C66 C 0.40984 0.3625 0.43483 0.0
C67 C 0.33238 0.39866 0.45401 0.0
O68 O 0.35391 0.33419 0.51872 0.0
O69 O 0.36298 0.36121 0.55431 0.0
C70 C 0.40327 0.32363 0.51373 0.0
O71 O 0.40382 0.36234 0.46311 0.0
O72 O 0.39326 0.36169 0.41439 0.0
O73 O 0.33507 0.38701 0.42909 0.0
O74 O 0.34365 0.39146 0.47844 0.0
O75 O 0.41544 0.34328 0.51735 0.0
O76 O 0.38031 0.32509 0.50642 0.0
O77 O 0.35896 0.39621 0.50702 0.0
O78 O 0.39641 0.40647 0.52175 0.0
C79 C 0.37385 0.41198 0.5191 0.0
O80 O 0.35053 0.32459 0.48638 0.0
O81 O 0.34489 0.32403 0.43591 0.0
C82 C 0.35042 0.34278 0.54605 0.0
C83 C 0.3429 0.3137 0.46191 0.0
H84 H 0.19937 0.10561 0.23501 0.0
C85 C 0.18471 0.11145 0.21973 0.0
C86 C 0.18335 0.10181 0.18969 0.0
C87 C 0.16626 0.12736 0.23071 0.0
H88 H 0.16169 0.10053 0.14806 0.0
C89 C 0.16348 0.10859 0.17073 0.0
C90 C 0.14488 0.12428 0.18128 0.0
C91 C 0.14665 0.13399 0.21107 0.0
C92 C 0.16527 0.13422 0.26382 0.0
H93 H 0.13198 0.14561 0.21963 0.0
C94 C 0.18564 0.14447 0.2794 0.0
C95 C 0.18395 0.15063 0.31095 0.0
C96 C 0.14341 0.12999 0.28018 0.0
H97 H 0.12761 0.1218 0.26898 0.0
C98 C 0.1417 0.13593 0.31122 0.0
H99 H 0.2026 0.14773 0.26703 0.0
C100 C 0.16171 0.14622 0.32648 0.0
H101 H 0.15957 0.15115 0.35045 0.0
H102 H 0.12473 0.13265 0.32349 0.0
H103 H 0.36216 0.67868 0.73495 0.0
C104 C 0.35249 0.66362 0.72406 0.0
C105 C 0.35634 0.6585 0.6926 0.0
C106 C 0.33778 0.648 0.74221 0.0
H107 H 0.34776 0.63323 0.65586 0.0
C108 C 0.34401 0.63838 0.67945 0.0
C109 C 0.32939 0.62268 0.69718 0.0
C110 C 0.32644 0.62747 0.72861 0.0
C111 C 0.33802 0.6501 0.77619 0.0
H112 H 0.3162 0.61463 0.74276 0.0
C113 C 0.32661 0.66982 0.79167 0.0
C114 C 0.32613 0.67032 0.8242 0.0
C115 C 0.34947 0.6314 0.79333 0.0
H116 H 0.35841 0.61616 0.78185 0.0
C117 C 0.34961 0.63218 0.82533 0.0
H118 H 0.31747 0.68412 0.77854 0.0
C119 C 0.338 0.6514 0.84069 0.0
H120 H 0.3384 0.65152 0.8656 0.0
H121 H 0.35863 0.61774 0.83832 0.0
H122 H 0.84354 0.8304 0.16885 0.0
C123 C 0.83341 0.84754 0.16751 0.0
C124 C 0.84344 0.86757 0.15131 0.0
C125 C 0.80977 0.84891 0.18069 0.0
H126 H 0.83692 0.90506 0.13688 0.0
C127 C 0.82956 0.88927 0.14901 0.0
C128 C 0.8058 0.8908 0.16128 0.0
C129 C 0.79599 0.87074 0.17758 0.0
C130 C 0.79867 0.82623 0.19379 0.0
H131 H 0.77736 0.87163 0.18629 0.0
C132 C 0.79001 0.82497 0.22441 0.0
C133 C 0.78174 0.80231 0.23658 0.0
C134 C 0.79791 0.80503 0.17539 0.0
H135 H 0.80423 0.8056 0.15177 0.0
C136 C 0.78918 0.78289 0.18716 0.0
H137 H 0.79065 0.84112 0.23892 0.0
C138 C 0.78133 0.78146 0.21756 0.0
H139 H 0.77482 0.76395 0.22627 0.0
H140 H 0.78871 0.7667 0.17274 0.0
H141 H 0.67358 0.33427 0.67516 0.0
C142 C 0.65561 0.32623 0.67141 0.0
C143 C 0.63805 0.33891 0.65358 0.0
C144 C 0.65075 0.30253 0.68315 0.0
H145 H 0.60145 0.3369 0.63443 0.0
C146 C 0.6154 0.32741 0.64778 0.0
C147 C 0.61044 0.30354 0.65849 0.0
C148 C 0.62797 0.29133 0.67687 0.0
C149 C 0.6712 0.28825 0.69712 0.0
H150 H 0.62459 0.27264 0.68445 0.0
C151 C 0.67141 0.2812 0.72846 0.0
C152 C 0.69235 0.26945 0.74106 0.0
C153 C 0.69156 0.28266 0.67858 0.0
H154 H 0.69173 0.28784 0.65449 0.0
C155 C 0.71189 0.27051 0.69084 0.0
H156 H 0.65592 0.28563 0.74306 0.0
C157 C 0.71239 0.2641 0.72186 0.0
H158 H 0.72853 0.25488 0.73096 0.0
H159 H 0.72746 0.26629 0.67631 0.0
H160 H 0.72105 0.36632 0.30727 0.0
C161 C 0.70417 0.35776 0.315 0.0
C162 C 0.69589 0.36151 0.34531 0.0
C163 C 0.68949 0.34493 0.29379 0.0
H164 H 0.66586 0.35567 0.37672 0.0
C165 C 0.67324 0.35139 0.35422 0.0
C166 C 0.65821 0.33904 0.33314 0.0
C167 C 0.66662 0.33558 0.30301 0.0
C168 C 0.69531 0.34556 0.26068 0.0
H169 H 0.65479 0.32683 0.28618 0.0
C170 C 0.71234 0.32917 0.24762 0.0
C171 C 0.71591 0.32867 0.21542 0.0
C172 C 0.68231 0.36193 0.24173 0.0
H173 H 0.66907 0.3746 0.25147 0.0
C174 C 0.68595 0.36182 0.21006 0.0
H175 H 0.7224 0.31672 0.26253 0.0
C176 C 0.70238 0.34522 0.19692 0.0
H177 H 0.70393 0.34502 0.17212 0.0
H178 H 0.67563 0.37434 0.19554 0.0
H179 H 0.20593 0.1719 0.85929 0.0
C180 C 0.18845 0.18151 0.85902 0.0
C181 C 0.16665 0.16845 0.86416 0.0
C182 C 0.18768 0.20702 0.85354 0.0
H183 H 0.12753 0.17111 0.86958 0.0
C184 C 0.14428 0.18103 0.86438 0.0
C185 C 0.14335 0.2065 0.86019 0.0
C186 C 0.16505 0.21959 0.85441 0.0
C187 C 0.21079 0.22061 0.84895 0.0
H188 H 0.16445 0.23939 0.85159 0.0
C189 C 0.21716 0.22975 0.81977 0.0
C190 C 0.23973 0.24193 0.81536 0.0
C191 C 0.22695 0.22372 0.87378 0.0
H192 H 0.22233 0.21664 0.89635 0.0
C193 C 0.24918 0.23603 0.86965 0.0
H194 H 0.20465 0.22722 0.80059 0.0
C195 C 0.25558 0.24505 0.84069 0.0
H196 H 0.2732 0.25405 0.83799 0.0
H197 H 0.26159 0.23838 0.88891 0.0
H198 H 0.31865 0.71503 0.36644 0.0
C199 C 0.31411 0.69603 0.37142 0.0
C200 C 0.33238 0.67993 0.38214 0.0
C201 C 0.2897 0.68782 0.36874 0.0
H202 H 0.34079 0.64333 0.39734 0.0
C203 C 0.32636 0.65561 0.38943 0.0
C204 C 0.30206 0.64718 0.38733 0.0
C205 C 0.28377 0.66345 0.37681 0.0
C206 C 0.26984 0.70525 0.36073 0.0
H207 H 0.26479 0.65746 0.37571 0.0
C208 C 0.26832 0.71598 0.33128 0.0
C209 C 0.24898 0.73234 0.32407 0.0
C210 C 0.25205 0.71097 0.3829 0.0
H211 H 0.25295 0.70285 0.40566 0.0
C212 C 0.23308 0.72733 0.37599 0.0
H213 H 0.28198 0.71149 0.31407 0.0
C214 C 0.2315 0.73794 0.34682 0.0
H215 H 0.21625 0.75016 0.34186 0.0
H216 H 0.21943 0.73166 0.39323 0.0
H217 H 0.89985 0.7952 0.76613 0.0
C218 C 0.88843 0.80817 0.77851 0.0
C219 C 0.89145 0.81111 0.81039 0.0
C220 C 0.87169 0.82289 0.76216 0.0
H221 H 0.88111 0.83255 0.84973 0.0
C222 C 0.87734 0.82889 0.8257 0.0
C223 C 0.86074 0.84405 0.80963 0.0
C224 C 0.85758 0.84046 0.77781 0.0
C225 C 0.87191 0.82269 0.72824 0.0
H226 H 0.84531 0.85231 0.76484 0.0
C227 C 0.85242 0.81243 0.71144 0.0
C228 C 0.85294 0.8124 0.679 0.0
C229 C 0.89186 0.83315 0.7126 0.0
H230 H 0.90702 0.84119 0.72527 0.0
C231 C 0.8923 0.83353 0.68053 0.0
H232 H 0.83699 0.80442 0.7236 0.0
C233 C 0.87299 0.82323 0.66377 0.0
H234 H 0.87401 0.82324 0.63889 0.0
H235 H 0.90774 0.84166 0.66861 0.0
H236 H 0.19575 0.94394 0.00896 0.0
H237 H 0.21694 0.97371 0.04141 0.0
H238 H 0.21922 0.9208 0.11521 0.0
H239 H 0.19825 0.89067 0.08248 0.0
H240 H 0.18975 0.96029 0.127 0.0
H241 H 0.27183 0.94785 0.09374 0.0
H242 H 0.30538 0.94221 0.05641 0.0
H243 H 0.29173 0.0142 0.01931 0.0
H244 H 0.25783 0.02016 0.05609 0.0
H245 H 0.19944 0.06138 0.22179 0.0
H246 H 0.21638 0.02369 0.1998 0.0
H247 H 0.22033 0.05873 0.11085 0.0
H248 H 0.2046 0.09679 0.13301 0.0
H249 H 0.25475 0.02342 0.11471 0.0
H250 H 0.16777 0.03083 0.13404 0.0
H251 H 0.13123 0.03801 0.16626 0.0
H252 H 0.15085 0.97638 0.22324 0.0
H253 H 0.18778 0.9691 0.19159 0.0
C254 C 0.20232 0.93809 0.03138 0.0
C255 C 0.19559 0.91501 0.04318 0.0
C256 C 0.21432 0.95519 0.05004 0.0
C257 C 0.2195 0.94952 0.0809 0.0
C258 C 0.21548 0.92542 0.09146 0.0
C259 C 0.20374 0.90815 0.07263 0.0
C260 C 0.2231 0.96989 0.10321 0.0
C261 C 0.20449 0.97363 0.12502 0.0
C262 C 0.24173 0.98783 0.09979 0.0
C263 C 0.26218 0.98441 0.07765 0.0
C264 C 0.27585 0.96242 0.07749 0.0
C265 C 0.29496 0.95918 0.05644 0.0
C266 C 0.30067 0.97782 0.03549 0.0
C267 C 0.2873 0.99977 0.03557 0.0
C268 C 0.26816 0.00312 0.05656 0.0
C269 C 0.20497 0.06145 0.19788 0.0
C270 C 0.20013 0.08193 0.17898 0.0
C271 C 0.2145 0.03978 0.18525 0.0
C272 C 0.21892 0.03812 0.15345 0.0
C273 C 0.21685 0.05942 0.13536 0.0
C274 C 0.20762 0.08114 0.14803 0.0
C275 C 0.22129 0.01375 0.13816 0.0
C276 C 0.24065 0.00951 0.11746 0.0
C277 C 0.20298 0.99548 0.14188 0.0
C278 C 0.18069 0.99963 0.16074 0.0
C279 C 0.16437 0.01891 0.15357 0.0
C280 C 0.14359 0.023 0.17171 0.0
C281 C 0.13876 0.0077 0.19685 0.0
C282 C 0.15467 0.98825 0.20382 0.0
C283 C 0.17553 0.98415 0.18581 0.0
H284 H 0.12266 0.01088 0.21087 0.0
H285 H 0.31547 0.97527 0.0192 0.0
H286 H 0.54174 0.63395 0.52245 0.0
H287 H 0.4994 0.64279 0.53908 0.0
H288 H 0.5265 0.69941 0.59939 0.0
H289 H 0.56844 0.6914 0.5821 0.0
H290 H 0.49681 0.6459 0.61815 0.0
H291 H 0.5011 0.72393 0.55901 0.0
H292 H 0.50298 0.747 0.51025 0.0
H293 H 0.43648 0.71229 0.47972 0.0
H294 H 0.4345 0.68865 0.52808 0.0
H295 H 0.40132 0.67473 0.71328 0.0
H296 H 0.43746 0.68293 0.68217 0.0
H297 H 0.39425 0.67488 0.59953 0.0
H298 H 0.35743 0.66915 0.6305 0.0
H299 H 0.43041 0.70334 0.58656 0.0
H300 H 0.42433 0.62476 0.63275 0.0
H301 H 0.41804 0.59476 0.67463 0.0
H302 H 0.48269 0.62145 0.7205 0.0
H303 H 0.48906 0.6519 0.67907 0.0
C304 C 0.53847 0.64895 0.53826 0.0
C305 C 0.55828 0.66227 0.55063 0.0
C306 C 0.51435 0.65395 0.54776 0.0
C307 C 0.50984 0.6721 0.56998 0.0
C308 C 0.52955 0.68578 0.58166 0.0
C309 C 0.55349 0.68105 0.57192 0.0
C310 C 0.48577 0.67364 0.58557 0.0
C311 C 0.48238 0.65865 0.61145 0.0
C312 C 0.46659 0.68946 0.57584 0.0
C313 C 0.46808 0.70386 0.54684 0.0
C314 C 0.48721 0.72072 0.54166 0.0
C315 C 0.48818 0.73409 0.51415 0.0
C316 C 0.46997 0.73096 0.49179 0.0
C317 C 0.4507 0.71454 0.49692 0.0
C318 C 0.44968 0.70113 0.52434 0.0
C319 C 0.3991 0.67584 0.68857 0.0
C320 C 0.3764 0.6705 0.67452 0.0
C321 C 0.41999 0.68014 0.6707 0.0
C322 C 0.41885 0.6784 0.63846 0.0
C323 C 0.39579 0.67586 0.62434 0.0
C324 C 0.37473 0.67231 0.64219 0.0
C325 C 0.4418 0.67625 0.61999 0.0
C326 C 0.44491 0.69077 0.59346 0.0
C327 C 0.46045 0.65922 0.62822 0.0
C328 C 0.45699 0.64076 0.65302 0.0
C329 C 0.43708 0.62431 0.65189 0.0
C330 C 0.43351 0.60723 0.67553 0.0
C331 C 0.44993 0.60624 0.70027 0.0
C332 C 0.46997 0.62227 0.70135 0.0
C333 C 0.47357 0.63944 0.67779 0.0
H334 H 0.44715 0.59301 0.71856 0.0
H335 H 0.47067 0.7414 0.47058 0.0
H336 H 0.80129 0.05723 0.98846 0.0
H337 H 0.77976 0.02753 0.0208 0.0
H338 H 0.78405 0.07768 0.09725 0.0
H339 H 0.80509 0.10769 0.06455 0.0
H340 H 0.81258 0.03464 0.1032 0.0
H341 H 0.72951 0.05583 0.07965 0.0
H342 H 0.69437 0.06569 0.04589 0.0
H343 H 0.69947 0.99435 0.00428 0.0
H344 H 0.73488 0.98416 0.03747 0.0
H345 H 0.79787 0.93165 0.19625 0.0
H346 H 0.7851 0.97215 0.17672 0.0
H347 H 0.77064 0.94024 0.08774 0.0
H348 H 0.78274 0.89986 0.10754 0.0
H349 H 0.74083 0.97875 0.09604 0.0
H350 H 0.82722 0.96162 0.1051 0.0
H351 H 0.8652 0.94955 0.13233 0.0
H352 H 0.85728 0.01113 0.19317 0.0
H353 H 0.81902 0.02338 0.1665 0.0
C354 C 0.79595 0.06265 0.01148 0.0
C355 C 0.8046 0.08482 0.02394 0.0
C356 C 0.78387 0.04552 0.03012 0.0
C357 C 0.78054 0.05025 0.06158 0.0
C358 C 0.78637 0.07367 0.07303 0.0
C359 C 0.79809 0.09099 0.0542 0.0
C360 C 0.77678 0.02925 0.08305 0.0
C361 C 0.79649 0.02288 0.10241 0.0
C362 C 0.75633 0.01329 0.08093 0.0
C363 C 0.73495 0.01928 0.06099 0.0
C364 C 0.72326 0.0423 0.06315 0.0
C365 C 0.70327 0.04794 0.04414 0.0
C366 C 0.69471 0.03067 0.02293 0.0
C367 C 0.70611 0.00771 0.02073 0.0
C368 C 0.72612 0.00197 0.03969 0.0
C369 C 0.79083 0.9332 0.173 0.0
C370 C 0.79106 0.91276 0.1534 0.0
C371 C 0.78375 0.95633 0.16174 0.0
C372 C 0.77735 0.95936 0.13054 0.0
C373 C 0.77544 0.93844 0.11184 0.0
C374 C 0.78232 0.91536 0.12315 0.0
C375 C 0.77664 0.98424 0.11609 0.0
C376 C 0.75643 0.99107 0.09771 0.0
C377 C 0.797 1.00038 0.11821 0.0
C378 C 0.82011 0.99322 0.1341 0.0
C379 C 0.8335 0.97249 0.12442 0.0
C380 C 0.85507 0.96562 0.13973 0.0
C381 C 0.86359 0.97951 0.16455 0.0
C382 C 0.85061 1.00036 0.174 0.0
C383 C 0.82898 0.00727 0.1588 0.0
H384 H 0.88027 0.97415 0.17642 0.0
H385 H 0.67923 0.03508 0.00823 0.0
H386 H 0.44403 0.30348 0.48989 0.0
H387 H 0.47442 0.28119 0.52006 0.0
H388 H 0.42174 0.2722 0.59322 0.0
H389 H 0.39122 0.29514 0.56289 0.0
H390 H 0.45929 0.29709 0.61288 0.0
H391 H 0.45287 0.22128 0.56179 0.0
H392 H 0.44855 0.19251 0.51842 0.0
H393 H 0.51796 0.2163 0.48227 0.0
H394 H 0.52256 0.2455 0.52514 0.0
H395 H 0.57336 0.28259 0.69267 0.0
H396 H 0.53313 0.26847 0.6734 0.0
H397 H 0.5565 0.28326 0.5804 0.0
H398 H 0.59633 0.29703 0.59947 0.0
H399 H 0.52806 0.24255 0.58227 0.0
H400 H 0.52603 0.32619 0.62375 0.0
H401 H 0.52972 0.35688 0.66517 0.0
H402 H 0.47493 0.31866 0.71771 0.0
H403 H 0.4712 0.28752 0.67672 0.0
C404 C 0.43845 0.2954 0.51159 0.0
C405 C 0.41528 0.30082 0.52397 0.0
C406 C 0.45592 0.28267 0.52901 0.0
C407 C 0.45053 0.27508 0.55917 0.0
C408 C 0.42635 0.27793 0.57009 0.0
C409 C 0.40878 0.29069 0.55255 0.0
C410 C 0.47121 0.26945 0.58068 0.0
C411 C 0.47392 0.28446 0.60673 0.0
C412 C 0.49057 0.25328 0.57263 0.0
C413 C 0.48804 0.23564 0.54676 0.0
C414 C 0.46716 0.2205 0.54452 0.0
C415 C 0.46467 0.20409 0.52001 0.0
C416 C 0.48297 0.20258 0.49761 0.0
C417 C 0.50382 0.21746 0.49968 0.0
C418 C 0.50641 0.23391 0.52413 0.0
C419 C 0.56998 0.28221 0.66812 0.0
C420 C 0.58777 0.29114 0.64755 0.0
C421 C 0.54703 0.27425 0.65712 0.0
C422 C 0.54166 0.27504 0.62542 0.0
C423 C 0.56012 0.2824 0.6049 0.0
C424 C 0.58285 0.29044 0.61583 0.0
C425 C 0.51635 0.27101 0.61329 0.0
C426 C 0.5129 0.25432 0.58903 0.0
C427 C 0.49628 0.28571 0.62282 0.0
C428 C 0.49865 0.30433 0.64746 0.0
C429 C 0.51496 0.32421 0.64427 0.0
C430 C 0.51703 0.3417 0.66764 0.0
C431 C 0.50265 0.33966 0.69412 0.0
C432 C 0.48613 0.32015 0.69724 0.0
C433 C 0.48405 0.30257 0.67398 0.0
H434 H 0.50425 0.35323 0.71217 0.0
H435 H 0.481 0.18987 0.47864 0.0
H436 H 0.62811 0.54553 0.49189 0.0
H437 H 0.64373 0.50323 0.48566 0.0
H438 H 0.69842 0.52978 0.4222 0.0
H439 H 0.68371 0.57183 0.42938 0.0
H440 H 0.65066 0.48678 0.41174 0.0
H441 H 0.72584 0.51839 0.46769 0.0
H442 H 0.74459 0.53283 0.51598 0.0
H443 H 0.72143 0.46674 0.56173 0.0
H444 H 0.70225 0.45216 0.5137 0.0
H445 H 0.71282 0.40674 0.32837 0.0
H446 H 0.71291 0.44272 0.36132 0.0
H447 H 0.70154 0.39677 0.44083 0.0
H448 H 0.70256 0.36026 0.40808 0.0
H449 H 0.72385 0.44417 0.455 0.0
H450 H 0.65247 0.40988 0.40957 0.0
H451 H 0.62904 0.39011 0.36779 0.0
H452 H 0.63809 0.45441 0.31142 0.0
H453 H 0.66186 0.47445 0.35279 0.0
C454 C 0.64407 0.54234 0.47762 0.0
C455 C 0.65516 0.56191 0.46174 0.0
C456 C 0.65287 0.51825 0.47397 0.0
C457 C 0.67268 0.51359 0.45417 0.0
C458 C 0.68362 0.53315 0.43831 0.0
C459 C 0.67507 0.55709 0.4422 0.0
C460 C 0.67957 0.48826 0.4456 0.0
C461 C 0.66664 0.47749 0.42124 0.0
C462 C 0.69974 0.47566 0.45895 0.0
C463 C 0.71189 0.48452 0.48736 0.0
C464 C 0.72427 0.50717 0.48815 0.0
C465 C 0.73518 0.51531 0.51544 0.0
C466 C 0.73408 0.5008 0.54198 0.0
C467 C 0.72223 0.47803 0.54122 0.0
C468 C 0.71132 0.46985 0.51399 0.0
C469 C 0.71189 0.40398 0.35301 0.0
C470 C 0.70689 0.38065 0.36547 0.0
C471 C 0.71177 0.42469 0.37188 0.0
C472 C 0.70637 0.42238 0.40332 0.0
C473 C 0.70542 0.39891 0.41657 0.0
C474 C 0.70588 0.37809 0.39774 0.0
C475 C 0.69595 0.44378 0.41978 0.0
C476 C 0.70784 0.45349 0.44568 0.0
C477 C 0.6742 0.45507 0.40872 0.0
C478 C 0.65907 0.4436 0.38418 0.0
C479 C 0.64953 0.41977 0.38822 0.0
C480 C 0.63621 0.4085 0.36462 0.0
C481 C 0.63215 0.42096 0.33693 0.0
C482 C 0.64127 0.44478 0.33288 0.0
C483 C 0.65463 0.45612 0.35642 0.0
H484 H 0.62191 0.41218 0.31864 0.0
H485 H 0.7425 0.50715 0.56309 0.0
H486 H 0.95088 0.14041 0.96485 0.0
H487 H 0.99074 0.15841 0.95248 0.0
H488 H 0.95441 0.22124 0.912 0.0
H489 H 0.91432 0.2033 0.92515 0.0
H490 H 0.0044 0.16613 0.89383 0.0
H491 H 0.99673 0.27088 0.91856 0.0
H492 H 0.97712 0.29842 0.9563 0.0
H493 H 0.97648 0.24006 0.02302 0.0
H494 H 0.99632 0.2123 0.98588 0.0
H495 H 0.1056 0.21212 0.81993 0.0
H496 H 0.0623 0.21505 0.83487 0.0
H497 H 0.08417 0.22705 0.9291 0.0
H498 H 0.12735 0.22509 0.91386 0.0
H499 H 0.04026 0.2474 0.91962 0.0
H500 H 0.078 0.1682 0.9034 0.0
H501 H 0.09999 0.13565 0.87509 0.0
H502 H 0.04487 0.13736 0.80432 0.0
H503 H 0.02236 0.1697 0.83246 0.0
C504 C 0.95147 0.15862 0.95483 0.0
C505 C 0.92972 0.1709 0.94692 0.0
C506 C 0.97421 0.16872 0.94726 0.0
C507 C 0.97553 0.19121 0.93145 0.0
C508 C 0.95379 0.20402 0.92455 0.0
C509 C 0.93098 0.19381 0.93204 0.0
C510 C 0.99941 0.19973 0.91919 0.0
C511 C 0.01208 0.18402 0.89924 0.0
C512 C 0.00962 0.22286 0.92669 0.0
C513 C 0.99776 0.23945 0.94926 0.0
C514 C 0.99245 0.26395 0.94131 0.0
C515 C 0.98129 0.2796 0.9626 0.0
C516 C 0.97547 0.27097 0.992 0.0
C517 C 0.98089 0.2467 1.0002 0.0
C518 C 0.99205 0.23099 0.97901 0.0
C519 C 0.10107 0.21691 0.84342 0.0
C520 C 0.11961 0.21863 0.86575 0.0
C521 C 0.07638 0.21825 0.85205 0.0
C522 C 0.07003 0.22063 0.88324 0.0
C523 C 0.08861 0.22521 0.90493 0.0
C524 C 0.11328 0.22423 0.89621 0.0
C525 C 0.04507 0.21387 0.89398 0.0
C526 C 0.03221 0.22981 0.91362 0.0
C527 C 0.03496 0.19051 0.88713 0.0
C528 C 0.04869 0.17153 0.8698 0.0
C529 C 0.07066 0.16171 0.88172 0.0
C530 C 0.08316 0.14325 0.86577 0.0
C531 C 0.07394 0.13457 0.83784 0.0
C532 C 0.05205 0.14417 0.82591 0.0
C533 C 0.03936 0.16249 0.84189 0.0
H534 H 0.08371 0.12033 0.8255 0.0
H535 H 0.96683 0.28311 0.00845 0.0
H536 H 0.34896 0.44196 0.47579 0.0
H537 H 0.33052 0.48253 0.47035 0.0
H538 H 0.27106 0.45099 0.418 0.0
H539 H 0.28867 0.4097 0.42601 0.0
H540 H 0.2991 0.48885 0.38818 0.0
H541 H 0.25646 0.47487 0.48083 0.0
H542 H 0.24856 0.46429 0.53499 0.0
H543 H 0.29356 0.52459 0.56434 0.0
H544 H 0.30304 0.53472 0.51045 0.0
H545 H 0.27002 0.6145 0.36045 0.0
H546 H 0.26312 0.57146 0.37481 0.0
H547 H 0.31447 0.57907 0.45 0.0
H548 H 0.32029 0.62216 0.43698 0.0
H549 H 0.27828 0.55098 0.46727 0.0
H550 H 0.331 0.55558 0.37748 0.0
H551 H 0.34112 0.56697 0.32404 0.0
H552 H 0.27961 0.52504 0.29124 0.0
H553 H 0.26897 0.51365 0.34458 0.0
C554 C 0.33104 0.44339 0.46531 0.0
C555 C 0.31949 0.42253 0.45317 0.0
C556 C 0.32075 0.46668 0.46151 0.0
C557 C 0.29914 0.46971 0.44433 0.0
C558 C 0.2875 0.44894 0.43187 0.0
C559 C 0.29756 0.42546 0.43641 0.0
C560 C 0.29107 0.49487 0.43605 0.0
C561 C 0.29388 0.50233 0.40535 0.0
C562 C 0.28491 0.51248 0.45868 0.0
C563 C 0.28059 0.50549 0.49135 0.0
C564 C 0.26518 0.48557 0.49876 0.0
C565 C 0.26043 0.47963 0.52948 0.0
C566 C 0.27065 0.4937 0.55308 0.0
C567 C 0.28587 0.51357 0.54603 0.0
C568 C 0.29101 0.51936 0.51538 0.0
C569 C 0.27943 0.60711 0.38041 0.0
C570 C 0.29606 0.62167 0.3972 0.0
C571 C 0.27563 0.58245 0.38844 0.0
C572 C 0.28862 0.57187 0.41314 0.0
C573 C 0.30429 0.58672 0.43077 0.0
C574 C 0.30787 0.61133 0.423 0.0
C575 C 0.28742 0.54506 0.41975 0.0
C576 C 0.28293 0.53734 0.45007 0.0
C577 C 0.29262 0.52722 0.397 0.0
C578 C 0.299 0.53405 0.36499 0.0
C579 C 0.31953 0.54895 0.35887 0.0
C580 C 0.32538 0.55538 0.32861 0.0
C581 C 0.31096 0.54681 0.30426 0.0
C582 C 0.29072 0.53172 0.31013 0.0
C583 C 0.28477 0.52527 0.34036 0.0
H584 H 0.31552 0.5518 0.28085 0.0
H585 H 0.26673 0.48925 0.57682 0.0
H586 H 0.10028 0.80751 0.90625 0.0
H587 H 0.06187 0.78899 0.88968 0.0
H588 H 0.0308 0.80171 0.97932 0.0
H589 H 0.06961 0.81982 0.99635 0.0
H590 H 0.01261 0.75507 0.93106 0.0
H591 H 0.01605 0.84529 0.95041 0.0
H592 H 0.03967 0.88405 0.9502 0.0
H593 H 0.05654 0.87409 0.85469 0.0
H594 H 0.03319 0.83516 0.85436 0.0
H595 H 0.8916 0.79106 0.86845 0.0
H596 H 0.92797 0.78189 0.8999 0.0
H597 H 0.97448 0.7957 0.82162 0.0
H598 H 0.93855 0.80538 0.79036 0.0
H599 H 0.98204 0.82709 0.87174 0.0
H600 H 0.97458 0.74013 0.85043 0.0
H601 H 0.95272 0.70044 0.8492 0.0
H602 H 0.9431 0.70325 0.94712 0.0
H603 H 0.96458 0.74314 0.94883 0.0
C604 C 0.0856 0.80564 0.92288 0.0
C605 C 0.08751 0.81624 0.95227 0.0
C606 C 0.06373 0.79472 0.91343 0.0
C607 C 0.0434 0.79431 0.93311 0.0
C608 C 0.04624 0.80187 0.96374 0.0
C609 C 0.06831 0.81263 0.97333 0.0
C610 C 0.01875 0.79301 0.91901 0.0
C611 C 0.00555 0.77086 0.91856 0.0
C612 C 0.00981 0.81356 0.9025 0.0
C613 C 0.02305 0.83733 0.90241 0.0
C614 C 0.02487 0.85136 0.92941 0.0
C615 C 0.03821 0.87332 0.9294 0.0
C616 C 0.04967 0.88147 0.90252 0.0
C617 C 0.04768 0.86774 0.87551 0.0
C618 C 0.03437 0.84577 0.87537 0.0
C619 C 0.90957 0.79149 0.85777 0.0
C620 C 0.91221 0.79921 0.827 0.0
C621 C 0.93027 0.78609 0.87571 0.0
C622 C 0.95385 0.78828 0.86307 0.0
C623 C 0.95638 0.7939 0.83173 0.0
C624 C 0.93577 0.79927 0.81382 0.0
C625 C 0.9758 0.789 0.88316 0.0
C626 C 0.98861 0.81129 0.88468 0.0
C627 C 0.98398 0.76863 0.90075 0.0
C628 C 0.97107 0.74468 0.89975 0.0
C629 C 0.96764 0.73237 0.87167 0.0
C630 C 0.95535 0.70982 0.87088 0.0
C631 C 0.9465 0.69934 0.89806 0.0
C632 C 0.94997 0.71138 0.92608 0.0
C633 C 0.96224 0.73394 0.92698 0.0
H634 H 0.93699 0.68188 0.8974 0.0
H635 H 0.06003 0.89845 0.90262 0.0
H636 H 0.86469 0.06072 0.87888 0.0
H637 H 0.85684 0.01806 0.86537 0.0
H638 H 0.85406 0.9985 0.96149 0.0
H639 H 0.86208 0.0415 0.97541 0.0
H640 H 0.87994 0.96455 0.92658 0.0
H641 H 0.80171 0.00194 0.92464 0.0
H642 H 0.77071 0.03372 0.91299 0.0
H643 H 0.78027 0.02132 0.81627 0.0
H644 H 0.81165 0.98972 0.8273 0.0
H645 H 0.84312 0.84778 0.86873 0.0
H646 H 0.83656 0.8858 0.89767 0.0
H647 H 0.84853 0.92821 0.81518 0.0
H648 H 0.85605 0.89065 0.78641 0.0
H649 H 0.81124 0.94758 0.85433 0.0
H650 H 0.89541 0.91552 0.8592 0.0
H651 H 0.92589 0.88349 0.87215 0.0
H652 H 0.90322 0.88548 0.96665 0.0
H653 H 0.87224 0.9172 0.9541 0.0
C654 C 0.86258 0.0474 0.89725 0.0
C655 C 0.86389 0.05457 0.92824 0.0
C656 C 0.85795 0.02301 0.88946 0.0
C657 C 0.85438 0.00523 0.91242 0.0
C658 C 0.85658 0.01202 0.94343 0.0
C659 C 0.86122 0.03656 0.95131 0.0
C660 C 0.84828 0.97968 0.90343 0.0
C661 C 0.86456 0.96068 0.91143 0.0
C662 C 0.82817 0.97464 0.8837 0.0
C663 C 0.80915 0.99351 0.87682 0.0
C664 C 0.79733 0.00609 0.90087 0.0
C665 C 0.77967 0.02407 0.89438 0.0
C666 C 0.77354 0.02956 0.86391 0.0
C667 C 0.78503 0.01704 0.83986 0.0
C668 C 0.80274 0.99906 0.84623 0.0
C669 C 0.84397 0.86519 0.85663 0.0
C670 C 0.85048 0.86611 0.82529 0.0
C671 C 0.84011 0.88686 0.8732 0.0
C672 C 0.84241 0.90976 0.8586 0.0
C673 C 0.84666 0.91067 0.82683 0.0
C674 C 0.8508 0.88909 0.81034 0.0
C675 C 0.84339 0.9328 0.87658 0.0
C676 C 0.82618 0.95132 0.8702 0.0
C677 C 0.86245 0.9373 0.89809 0.0
C678 C 0.88129 0.91848 0.90564 0.0
C679 C 0.89678 0.90897 0.88269 0.0
C680 C 0.91416 0.89089 0.88996 0.0
C681 C 0.91644 0.88239 0.92019 0.0
C682 C 0.90138 0.89202 0.94323 0.0
C683 C 0.8839 0.91004 0.93605 0.0
H684 H 0.92991 0.86841 0.92578 0.0
H685 H 0.75986 0.04349 0.85892 0.0
H686 H 0.44937 0.35017 0.47067 0.0
H687 H 0.49166 0.34347 0.45395 0.0
H688 H 0.47181 0.36575 0.36182 0.0
H689 H 0.42929 0.37158 0.37817 0.0
H690 H 0.4977 0.32569 0.35938 0.0
H691 H 0.50649 0.40284 0.41194 0.0
H692 H 0.50306 0.43173 0.45535 0.0
H693 H 0.5485 0.38456 0.51084 0.0
H694 H 0.55193 0.35521 0.46788 0.0
H695 H 0.61718 0.3498 0.29952 0.0
H696 H 0.5747 0.34985 0.31741 0.0
H697 H 0.59796 0.31919 0.40433 0.0
H698 H 0.6406 0.31879 0.38638 0.0
H699 H 0.57083 0.36111 0.41109 0.0
H700 H 0.56378 0.2852 0.35615 0.0
H701 H 0.56781 0.25766 0.31148 0.0
H702 H 0.51955 0.30423 0.259 0.0
H703 H 0.5155 0.33225 0.30323 0.0
C704 C 0.45407 0.35395 0.44695 0.0
C705 C 0.43598 0.3614 0.42573 0.0
C706 C 0.47829 0.35015 0.43742 0.0
C707 C 0.48499 0.35425 0.40664 0.0
C708 C 0.46707 0.36235 0.38564 0.0
C709 C 0.4428 0.3658 0.39505 0.0
C710 C 0.51041 0.34923 0.39594 0.0
C711 C 0.51367 0.33369 0.37049 0.0
C712 C 0.53132 0.35909 0.41091 0.0
C713 C 0.52924 0.3767 0.43679 0.0
C714 C 0.51558 0.39853 0.43348 0.0
C715 C 0.51367 0.415 0.45799 0.0
C716 C 0.5255 0.40995 0.48587 0.0
C717 C 0.53931 0.38843 0.48926 0.0
C718 C 0.54126 0.37187 0.46483 0.0
C719 C 0.61318 0.34221 0.32201 0.0
C720 C 0.63223 0.33418 0.34151 0.0
C721 C 0.58888 0.34241 0.33229 0.0
C722 C 0.5832 0.33453 0.3622 0.0
C723 C 0.602 0.32541 0.3812 0.0
C724 C 0.6263 0.32513 0.3709 0.0
C725 C 0.55803 0.3378 0.37444 0.0
C726 C 0.55484 0.35301 0.40016 0.0
C727 C 0.5372 0.32782 0.35956 0.0
C728 C 0.5395 0.31093 0.33295 0.0
C729 C 0.55418 0.28968 0.33501 0.0
C730 C 0.55643 0.27396 0.30978 0.0
C731 C 0.54399 0.27922 0.2824 0.0
C732 C 0.5292 0.30018 0.28022 0.0
C733 C 0.52689 0.31597 0.30538 0.0
H734 H 0.54576 0.26703 0.26289 0.0
H735 H 0.524 0.42273 0.50481 0.0
H736 H 0.12318 0.93937 0.89832 0.0
H737 H 0.12767 0.98283 0.88545 0.0
H738 H 0.15232 0.99778 0.97793 0.0
H739 H 0.14702 0.95429 0.99127 0.0
H740 H 0.12483 0.03489 0.95714 0.0
H741 H 0.19364 0.98949 0.91936 0.0
H742 H 0.21476 0.95627 0.89134 0.0
H743 H 0.18239 0.98104 0.80658 0.0
H744 H 0.16078 0.01422 0.83417 0.0
H745 H 0.18809 0.14617 0.9134 0.0
H746 H 0.18212 0.10343 0.93049 0.0
H747 H 0.13853 0.08904 0.84956 0.0
H748 H 0.14393 0.13185 0.83287 0.0
H749 H 0.17749 0.05231 0.86657 0.0
H750 H 0.10675 0.09627 0.90656 0.0
H751 H 0.08594 0.1291 0.93576 0.0
H752 H 0.12439 0.10724 0.0177 0.0
H753 H 0.14556 0.07437 0.98893 0.0
C754 C 0.1292 0.95198 0.91606 0.0
C755 C 0.13499 0.94342 0.94571 0.0
C756 C 0.13188 0.97679 0.90864 0.0
C757 C 0.14098 0.99343 0.93049 0.0
C758 C 0.14544 0.98522 0.96065 0.0
C759 C 0.14238 0.96038 0.96825 0.0
C760 C 0.14701 0.01902 0.92126 0.0
C761 C 0.13662 0.03867 0.93761 0.0
C762 C 0.16229 0.02402 0.89562 0.0
C763 C 0.17543 0.00422 0.87888 0.0
C764 C 0.1909 0.98776 0.89477 0.0
C765 C 0.20297 0.96895 0.87897 0.0
C766 C 0.19988 0.96651 0.84721 0.0
C767 C 0.18475 0.98294 0.83118 0.0
C768 C 0.17261 0.00177 0.84689 0.0
C769 C 0.17769 0.13367 0.89904 0.0
C770 C 0.16671 0.14201 0.8717 0.0
C771 C 0.17409 0.10945 0.90892 0.0
C772 C 0.15977 0.09327 0.89132 0.0
C773 C 0.14963 0.10132 0.86338 0.0
C774 C 0.15283 0.12562 0.85381 0.0
C775 C 0.15505 0.06797 0.90218 0.0
C776 C 0.1658 0.04842 0.88617 0.0
C777 C 0.14037 0.06312 0.92828 0.0
C778 C 0.12799 0.08311 0.94549 0.0
C779 C 0.111 0.09868 0.9307 0.0
C780 C 0.09908 0.11724 0.94719 0.0
C781 C 0.10395 0.12035 0.9785 0.0
C782 C 0.12069 0.10486 0.99342 0.0
C783 C 0.13263 0.08624 0.97705 0.0
H784 H 0.09468 0.13471 0.99123 0.0
H785 H 0.20923 0.95193 0.83501 0.0
H786 H 0.54813 0.62475 0.41971 0.0
H787 H 0.50577 0.638 0.41016 0.0
H788 H 0.51275 0.6932 0.48058 0.0
H789 H 0.5558 0.68105 0.48888 0.0
H790 H 0.46528 0.64587 0.4654 0.0
H791 H 0.5078 0.72637 0.44214 0.0
H792 H 0.54211 0.748 0.41694 0.0
H793 H 0.52412 0.71338 0.33114 0.0
H794 H 0.48984 0.69131 0.35604 0.0
H795 H 0.34946 0.69647 0.43649 0.0
H796 H 0.39265 0.69793 0.45259 0.0
H797 H 0.4151 0.68128 0.35983 0.0
H798 H 0.37179 0.67972 0.34382 0.0
H799 H 0.44826 0.71253 0.39 0.0
H800 H 0.40544 0.63733 0.40521 0.0
H801 H 0.37234 0.61031 0.42385 0.0
H802 H 0.39258 0.62603 0.51723 0.0
H803 H 0.42545 0.65356 0.49913 0.0
C804 C 0.54064 0.63973 0.43316 0.0
C805 C 0.55503 0.65153 0.45556 0.0
C806 C 0.51648 0.6472 0.42774 0.0
C807 C 0.50628 0.66659 0.4446 0.0
C808 C 0.52042 0.67829 0.46724 0.0
C809 C 0.54482 0.67109 0.47228 0.0
C810 C 0.48093 0.67465 0.4377 0.0
C811 C 0.46139 0.66087 0.44961 0.0
C812 C 0.47618 0.69342 0.41598 0.0
C813 C 0.49643 0.70706 0.401 0.0
C814 C 0.51125 0.72326 0.41797 0.0
C815 C 0.53068 0.73562 0.40373 0.0
C816 C 0.53534 0.73203 0.37247 0.0
C817 C 0.52051 0.71613 0.35536 0.0
C818 C 0.50107 0.70371 0.36952 0.0
C819 C 0.36371 0.69418 0.41936 0.0
C820 C 0.35754 0.68827 0.38892 0.0
C821 C 0.3883 0.69485 0.42857 0.0
C822 C 0.40701 0.68942 0.40747 0.0
C823 C 0.40092 0.68561 0.37642 0.0
C824 C 0.37626 0.6848 0.36725 0.0
C825 C 0.4323 0.68429 0.41849 0.0
C826 C 0.4519 0.69816 0.40675 0.0
C827 C 0.43713 0.66509 0.43985 0.0
C828 C 0.41751 0.64819 0.45081 0.0
C829 C 0.40259 0.6354 0.42973 0.0
C830 C 0.38389 0.6199 0.44019 0.0
C831 C 0.38018 0.61664 0.47172 0.0
C832 C 0.39528 0.62875 0.49282 0.0
C833 C 0.41392 0.64438 0.48246 0.0
H834 H 0.36573 0.60458 0.47976 0.0
H835 H 0.55041 0.74158 0.36149 0.0
H836 H 0.4005 0.45164 0.53825 0.0
H837 H 0.3858 0.4871 0.56719 0.0
H838 H 0.31148 0.45999 0.56044 0.0
H839 H 0.32618 0.42403 0.53237 0.0
H840 H 0.35609 0.52409 0.55807 0.0
H841 H 0.28094 0.47341 0.62778 0.0
H842 H 0.27087 0.43107 0.64388 0.0
H843 H 0.34732 0.41153 0.64087 0.0
H844 H 0.35787 0.45382 0.62516 0.0
H845 H 0.3021 0.616 0.64521 0.0
H846 H 0.30063 0.57848 0.6142 0.0
H847 H 0.33962 0.53925 0.6856 0.0
H848 H 0.34049 0.57654 0.71693 0.0
H849 H 0.30959 0.50845 0.65428 0.0
H850 H 0.37044 0.57033 0.6311 0.0
H851 H 0.38299 0.61263 0.61809 0.0
H852 H 0.34273 0.60855 0.53323 0.0
H853 H 0.32932 0.56642 0.54616 0.0
C854 C 0.38099 0.45333 0.54268 0.0
C855 C 0.36453 0.43497 0.5331 0.0
C856 C 0.37258 0.47369 0.55911 0.0
C857 C 0.34756 0.47612 0.56635 0.0
C858 C 0.3309 0.4584 0.55551 0.0
C859 C 0.33933 0.43789 0.53933 0.0
C860 C 0.33935 0.49643 0.58672 0.0
C861 C 0.3458 0.52064 0.57898 0.0
C862 C 0.32615 0.49196 0.61427 0.0
C863 C 0.32012 0.46669 0.62477 0.0
C864 C 0.2956 0.46009 0.6306 0.0
C865 C 0.28981 0.4361 0.63968 0.0
C866 C 0.30843 0.41859 0.64323 0.0
C867 C 0.3329 0.42508 0.63797 0.0
C868 C 0.33879 0.44906 0.62897 0.0
C869 C 0.3094 0.59907 0.65476 0.0
C870 C 0.32151 0.59912 0.68334 0.0
C871 C 0.30869 0.5777 0.63699 0.0
C872 C 0.32058 0.55625 0.64727 0.0
C873 C 0.33041 0.55561 0.67716 0.0
C874 C 0.33083 0.57691 0.69511 0.0
C875 C 0.32623 0.53602 0.62549 0.0
C876 C 0.3195 0.51186 0.63307 0.0
C877 C 0.33976 0.54042 0.59819 0.0
C878 C 0.34867 0.56533 0.58975 0.0
C879 C 0.3642 0.57848 0.60971 0.0
C880 C 0.37146 0.60243 0.60236 0.0
C881 C 0.36368 0.61327 0.57485 0.0
C882 C 0.34871 0.60013 0.55455 0.0
C883 C 0.34124 0.57623 0.56189 0.0
H884 H 0.36926 0.63185 0.56928 0.0
H885 H 0.3039 0.4 0.65015 0.0
H886 H 0.064 0.83648 0.04755 0.0
H887 H 0.02153 0.83151 0.06497 0.0
H888 H 0.00159 0.89926 0.01933 0.0
H889 H 0.04416 0.90451 1.00278 0.0
H890 H 0.9859 0.9018 0.07361 0.0
H891 H 0.97269 0.84155 0.99591 0.0
H892 H 0.98076 0.80535 0.9635 0.0
H893 H 0.98606 0.75975 0.04405 0.0
H894 H 0.97713 0.79565 0.07692 0.0
H895 H 0.85658 0.88754 0.0956 0.0
H896 H 0.89649 0.88612 0.07036 0.0
H897 H 0.92485 0.84033 0.14326 0.0
H898 H 0.88522 0.84266 0.16983 0.0
H899 H 0.93503 0.82614 0.07463 0.0
H900 H 0.9412 0.89293 0.14971 0.0
H901 H 0.92554 0.93109 0.17322 0.0
H902 H 0.92899 0.96767 0.08572 0.0
H903 H 0.94428 0.92959 0.06158 0.0
C904 C 0.05032 0.84977 0.04027 0.0
C905 C 0.05724 0.8706 0.02324 0.0
C906 C 0.02599 0.84699 0.05032 0.0
C907 C 0.00813 0.86496 0.04342 0.0
C908 C 0.01492 0.88516 0.02513 0.0
C909 C 0.03923 0.88808 0.01547 0.0
C910 C 0.98332 0.86419 0.05804 0.0
C911 C 0.97476 0.88527 0.0734 0.0
C912 C 0.96856 0.84276 0.05816 0.0
C913 C 0.97457 0.82126 0.03883 0.0
C914 C 0.97569 0.82381 0.00669 0.0
C915 C 0.98022 0.80332 0.98823 0.0
C916 C 0.98417 0.78029 1.00171 0.0
C917 C 0.9831 0.77762 0.03366 0.0
C918 C 0.97809 0.79798 0.0522 0.0
C919 C 0.8713 0.87744 0.1067 0.0
C920 C 0.86762 0.86556 0.13518 0.0
C921 C 0.89405 0.87641 0.09194 0.0
C922 C 0.91356 0.86316 0.10498 0.0
C923 C 0.90991 0.85056 0.13279 0.0
C924 C 0.88721 0.85189 0.14789 0.0
C925 C 0.93806 0.86356 0.09013 0.0
C926 C 0.94643 0.8425 0.07483 0.0
C927 C 0.95223 0.8853 0.08907 0.0
C928 C 0.94371 0.90836 0.10381 0.0
C929 C 0.93847 0.90906 0.13545 0.0
C930 C 0.92968 0.93068 0.14889 0.0
C931 C 0.92625 0.95177 0.13096 0.0
C932 C 0.93166 0.95131 0.09957 0.0
C933 C 0.94041 0.92973 0.08601 0.0
H934 H 0.91945 0.96849 0.1414 0.0
H935 H 0.98812 0.76452 0.98744 0.0
H936 H 0.60225 0.55701 0.57312 0.0
H937 H 0.60834 0.514 0.58772 0.0
H938 H 0.68185 0.51624 0.55077 0.0
H939 H 0.67549 0.55945 0.53547 0.0
H940 H 0.66062 0.47254 0.539 0.0
H941 H 0.67326 0.52176 0.62746 0.0
H942 H 0.66398 0.55406 0.66542 0.0
H943 H 0.59829 0.51584 0.69186 0.0
H944 H 0.60699 0.48348 0.65373 0.0
H945 H 0.66502 0.37689 0.6785 0.0
H946 H 0.67212 0.41771 0.65687 0.0
H947 H 0.62905 0.39851 0.57703 0.0
H948 H 0.62361 0.35719 0.59723 0.0
H949 H 0.64301 0.45203 0.64797 0.0
H950 H 0.64167 0.43468 0.51463 0.0
H951 H 0.65732 0.40444 0.4773 0.0
H952 H 0.71121 0.37989 0.54285 0.0
H953 H 0.69635 0.4104 0.5803 0.0
C954 C 0.61959 0.54818 0.56776 0.0
C955 C 0.63836 0.56136 0.55308 0.0
C956 C 0.62312 0.52368 0.57623 0.0
C957 C 0.64575 0.512 0.57094 0.0
C958 C 0.66431 0.5249 0.55526 0.0
C959 C 0.66069 0.54951 0.54653 0.0
C960 C 0.65004 0.48674 0.5831 0.0
C961 C 0.65693 0.46795 0.56283 0.0
C962 C 0.64596 0.48095 0.61443 0.0
C963 C 0.64071 0.50027 0.63759 0.0
C964 C 0.65676 0.52032 0.64124 0.0
C965 C 0.6516 0.53863 0.6628 0.0
C966 C 0.63053 0.53702 0.68101 0.0
C967 C 0.6146 0.51706 0.67773 0.0
C968 C 0.61965 0.49871 0.65617 0.0
C969 C 0.65756 0.38109 0.65598 0.0
C970 C 0.64347 0.36362 0.6399 0.0
C971 C 0.66147 0.40461 0.6437 0.0
C972 C 0.65126 0.41138 0.61513 0.0
C973 C 0.63759 0.39382 0.59879 0.0
C974 C 0.63403 0.37021 0.61079 0.0
C975 C 0.65303 0.43729 0.60373 0.0
C976 C 0.64712 0.45636 0.62417 0.0
C977 C 0.65883 0.44333 0.57277 0.0
C978 C 0.66759 0.4246 0.55052 0.0
C979 C 0.65685 0.42284 0.52112 0.0
C980 C 0.66563 0.40568 0.49989 0.0
C981 C 0.68511 0.39013 0.50781 0.0
C982 C 0.696 0.39184 0.53684 0.0
C983 C 0.6874 0.40905 0.55809 0.0
H984 H 0.69181 0.37677 0.49143 0.0
H985 H 0.62658 0.55122 0.69768 0.0
H986 H 0.94099 0.16176 0.02544 0.0
H987 H 0.98149 0.16918 0.04914 0.0
H988 H 0.99515 0.09109 0.05109 0.0
H989 H 0.95534 0.08361 0.02722 0.0
H990 H 0.99673 0.11402 0.10906 0.0
H991 H 0.03116 0.12252 0.0072 0.0
H992 H 0.03899 0.13941 0.95541 0.0
H993 H 0.05182 0.21079 0.9941 0.0
H994 H 0.0441 0.19433 0.04617 0.0
H995 H 0.11784 0.08912 0.15256 0.0
H996 H 0.08042 0.09428 0.12218 0.0
H997 H 0.08291 0.1726 0.13703 0.0
H998 H 0.12073 0.16753 0.16774 0.0
H999 H 0.07196 0.15674 0.07332 0.0
H1000 H 0.04361 0.14488 0.17645 0.0
H1001 H 0.04234 0.12459 0.22719 0.0
H1002 H 0.01953 0.05713 0.18476 0.0
H1003 H 0.02104 0.07691 0.13368 0.0
C1004 C 0.95294 0.14627 0.03022 0.0
C1005 C 0.94485 0.12208 0.0247 0.0
C1006 C 0.97607 0.15053 0.04372 0.0
C1007 C 0.99125 0.13065 0.05207 0.0
C1008 C 0.98371 0.10668 0.04496 0.0
C1009 C 0.96086 0.10245 0.03137 0.0
C1010 C 0.01337 0.13408 0.07174 0.0
C1011 C 0.01317 0.12336 0.10117 0.0
C1012 C 0.03459 0.14684 0.06187 0.0
C1013 C 0.03674 0.15727 0.03051 0.0
C1014 C 0.0352 0.14191 0.00462 0.0
C1015 C 0.03984 0.15135 0.97526 0.0
C1016 C 0.04597 0.17611 0.97157 0.0
C1017 C 0.04713 0.19159 0.99709 0.0
C1018 C 0.04265 0.18222 0.0265 0.0
C1019 C 0.11062 0.1075 0.14912 0.0
C1020 C 0.12232 0.12795 0.1624 0.0
C1021 C 0.08916 0.1104 0.13187 0.0
C1022 C 0.07886 0.1338 0.12742 0.0
C1023 C 0.09062 0.15439 0.14018 0.0
C1024 C 0.11207 0.15146 0.15783 0.0
C1025 C 0.05537 0.1362 0.11017 0.0
C1026 C 0.05527 0.14797 0.08139 0.0
C1027 C 0.03383 0.12426 0.12048 0.0
C1028 C 0.03259 0.11236 0.1512 0.0
C1029 C 0.03849 0.12567 0.17791 0.0
C1030 C 0.0377 0.11427 0.20674 0.0
C1031 C 0.03089 0.08958 0.20919 0.0
C1032 C 0.0248 0.07626 0.18282 0.0
C1033 C 0.02559 0.08757 0.15392 0.0
H1034 H 0.0303 0.08078 0.23153 0.0
H1035 H 0.05007 0.18327 0.94899 0.0
H1036 H 0.13307 0.83176 0.11179 0.0
H1037 H 0.15456 0.80806 0.15127 0.0
H1038 H 0.22008 0.80769 0.09558 0.0
H1039 H 0.19865 0.83168 0.05587 0.0
H1040 H 0.17664 0.76359 0.15339 0.0
H1041 H 0.2681 0.81449 0.14217 0.0
H1042 H 0.28385 0.85498 0.12545 0.0
H1043 H 0.21582 0.88889 0.15217 0.0
H1044 H 0.19971 0.8487 0.1686 0.0
H1045 H 0.25223 0.70875 0.26856 0.0
H1046 H 0.24164 0.72542 0.21771 0.0
H1047 H 0.2279 0.79638 0.25839 0.0
H1048 H 0.23888 0.77999 0.30893 0.0
H1049 H 0.24931 0.80172 0.20325 0.0
H1050 H 0.18143 0.75619 0.24679 0.0
H1051 H 0.16115 0.71947 0.26835 0.0
H1052 H 0.17534 0.67985 0.18493 0.0
H1053 H 0.19602 0.71628 0.16303 0.0
C1054 C 0.152 0.82649 0.10778 0.0
C1055 C 0.16419 0.83374 0.08077 0.0
C1056 C 0.16423 0.81281 0.13033 0.0
C1057 C 0.18897 0.80621 0.1265 0.0
C1058 C 0.20103 0.81275 0.09913 0.0
C1059 C 0.18874 0.82638 0.07641 0.0
C1060 C 0.20225 0.79374 0.15208 0.0
C1061 C 0.19277 0.77171 0.16399 0.0
C1062 C 0.22304 0.80448 0.16626 0.0
C1063 C 0.23267 0.82864 0.15631 0.0
C1064 C 0.25655 0.83064 0.14438 0.0
C1065 C 0.2655 0.85352 0.13485 0.0
C1066 C 0.25081 0.87451 0.1375 0.0
C1067 C 0.22714 0.87266 0.14975 0.0
C1068 C 0.21806 0.84983 0.15908 0.0
C1069 C 0.24751 0.72804 0.26649 0.0
C1070 C 0.24613 0.74301 0.29276 0.0
C1071 C 0.24131 0.7375 0.23748 0.0
C1072 C 0.23366 0.76208 0.23429 0.0
C1073 C 0.2337 0.77737 0.26025 0.0
C1074 C 0.2398 0.76793 0.28917 0.0
C1075 C 0.22366 0.77157 0.20471 0.0
C1076 C 0.2337 0.79311 0.19208 0.0
C1077 C 0.20296 0.76069 0.19035 0.0
C1078 C 0.19054 0.73882 0.20345 0.0
C1079 C 0.1804 0.73957 0.23315 0.0
C1080 C 0.16881 0.71883 0.24541 0.0
C1081 C 0.16704 0.69731 0.22806 0.0
C1082 C 0.17679 0.69652 0.19837 0.0
C1083 C 0.18845 0.7172 0.18602 0.0
H1084 H 0.15804 0.68128 0.23758 0.0
H1085 H 0.25779 0.89221 0.1302 0.0
H1086 H 0.70811 0.65684 0.57857 0.0
H1087 H 0.73953 0.68641 0.59347 0.0
H1088 H 0.70923 0.73947 0.52992 0.0
H1089 H 0.67739 0.70962 0.51482 0.0
H1090 H 0.76464 0.73845 0.53711 0.0
H1091 H 0.69041 0.74665 0.59575 0.0
H1092 H 0.65507 0.73089 0.62519 0.0
H1093 H 0.70412 0.69908 0.69183 0.0
H1094 H 0.73978 0.7143 0.6625 0.0
H1095 H 0.82973 0.8293 0.62699 0.0
H1096 H 0.79812 0.80829 0.5966 0.0
H1097 H 0.80053 0.74693 0.65969 0.0
H1098 H 0.83183 0.76787 0.69016 0.0
H1099 H 0.75485 0.75899 0.64759 0.0
H1100 H 0.82881 0.74723 0.58745 0.0
H1101 H 0.86471 0.76017 0.55695 0.0
H1102 H 0.81716 0.79701 0.49268 0.0
H1103 H 0.78099 0.78469 0.52316 0.0
C1104 C 0.70846 0.6746 0.56721 0.0
C1105 C 0.6903 0.68106 0.54568 0.0
C1106 C 0.72643 0.69144 0.5757 0.0
C1107 C 0.72641 0.71518 0.56313 0.0
C1108 C 0.70948 0.72118 0.53983 0.0
C1109 C 0.69142 0.70414 0.53114 0.0
C1110 C 0.74223 0.73409 0.57742 0.0
C1111 C 0.7623 0.74348 0.56106 0.0
C1112 C 0.73919 0.74028 0.60875 0.0
C1113 C 0.71777 0.73151 0.62682 0.0
C1114 C 0.69366 0.73617 0.61658 0.0
C1115 C 0.67357 0.72734 0.63325 0.0
C1116 C 0.67735 0.71396 0.66034 0.0
C1117 C 0.70122 0.70944 0.67084 0.0
C1118 C 0.72138 0.7182 0.65422 0.0
C1119 C 0.82352 0.81129 0.63428 0.0
C1120 C 0.8332 0.80024 0.66102 0.0
C1121 C 0.80552 0.7993 0.61686 0.0
C1122 C 0.79711 0.77593 0.62569 0.0
C1123 C 0.80667 0.76499 0.65247 0.0
C1124 C 0.82449 0.77701 0.66996 0.0
C1125 C 0.77798 0.76281 0.6077 0.0
C1126 C 0.7571 0.7545 0.62345 0.0
C1127 C 0.78041 0.75765 0.57587 0.0
C1128 C 0.80221 0.76537 0.55786 0.0
C1129 C 0.82602 0.75836 0.56704 0.0
C1130 C 0.84642 0.76553 0.54972 0.0
C1131 C 0.84323 0.7795 0.52298 0.0
C1132 C 0.81962 0.78628 0.51347 0.0
C1133 C 0.79917 0.77923 0.53078 0.0
H1134 H 0.85904 0.78499 0.50956 0.0
H1135 H 0.66177 0.70713 0.67321 0.0
H1136 H 0.82235 0.18678 0.02173 0.0
H1137 H 0.80106 0.2175 0.05327 0.0
H1138 H 0.82383 0.17933 0.13555 0.0
H1139 H 0.84574 0.14895 0.10431 0.0
H1140 H 0.76727 0.19609 0.12348 0.0
H1141 H 0.85367 0.22165 0.13181 0.0
H1142 H 0.89347 0.23272 0.10853 0.0
H1143 H 0.85854 0.29049 0.05693 0.0
H1144 H 0.81845 0.27948 0.07959 0.0
H1145 H 0.72599 0.28104 0.23363 0.0
H1146 H 0.75076 0.2505 0.20696 0.0
H1147 H 0.76675 0.30333 0.13554 0.0
H1148 H 0.74419 0.33461 0.16358 0.0
H1149 H 0.80444 0.27803 0.14199 0.0
H1150 H 0.71989 0.25617 0.13013 0.0
H1151 H 0.67774 0.24601 0.14658 0.0
H1152 H 0.70485 0.18306 0.19598 0.0
H1153 H 0.74722 0.19303 0.18013 0.0
C1154 C 0.82277 0.18492 0.04654 0.0
C1155 C 0.83577 0.16555 0.06059 0.0
C1156 C 0.81066 0.20247 0.06447 0.0
C1157 C 0.81099 0.20061 0.09664 0.0
C1158 C 0.82345 0.18101 0.11072 0.0
C1159 C 0.83601 0.16377 0.09286 0.0
C1160 C 0.79856 0.21934 0.11566 0.0
C1161 C 0.77543 0.21392 0.12798 0.0
C1162 C 0.80895 0.24279 0.12042 0.0
C1163 C 0.83306 0.24957 0.10712 0.0
C1164 C 0.85445 0.23655 0.11528 0.0
C1165 C 0.87707 0.24285 0.10225 0.0
C1166 C 0.87853 0.26225 0.08119 0.0
C1167 C 0.85738 0.27544 0.0732 0.0
C1168 C 0.83472 0.26919 0.08615 0.0
C1169 C 0.73526 0.28644 0.21268 0.0
C1170 C 0.73263 0.31036 0.20064 0.0
C1171 C 0.74911 0.26873 0.19709 0.0
C1172 C 0.76004 0.27426 0.16862 0.0
C1173 C 0.75832 0.29838 0.15724 0.0
C1174 C 0.74503 0.31624 0.17318 0.0
C1175 C 0.77285 0.25496 0.15033 0.0
C1176 C 0.7961 0.26023 0.13787 0.0
C1177 C 0.76218 0.23158 0.14469 0.0
C1178 C 0.73674 0.2255 0.15422 0.0
C1179 C 0.71687 0.24026 0.14468 0.0
C1180 C 0.69294 0.23452 0.15387 0.0
C1181 C 0.68863 0.21394 0.17239 0.0
C1182 C 0.70823 0.19902 0.18168 0.0
C1183 C 0.7322 0.20469 0.17259 0.0
H1184 H 0.67009 0.20953 0.17948 0.0
H1185 H 0.89605 0.2671 0.07112 0.0
H1186 H 0.33623 0.3605 0.60138 0.0
H1187 H 0.31471 0.33895 0.64225 0.0
H1188 H 0.30788 0.27487 0.58465 0.0
H1189 H 0.32969 0.29654 0.54303 0.0
H1190 H 0.26432 0.28712 0.62175 0.0
H1191 H 0.35032 0.2718 0.63381 0.0
H1192 H 0.3942 0.2829 0.63577 0.0
H1193 H 0.38054 0.33035 0.71262 0.0
H1194 H 0.33646 0.31981 0.71087 0.0
H1195 H 0.2358 0.21806 0.76003 0.0
H1196 H 0.25172 0.23155 0.71005 0.0
H1197 H 0.27677 0.29922 0.75107 0.0
H1198 H 0.26097 0.28588 0.80088 0.0
H1199 H 0.31239 0.27825 0.7183 0.0
H1200 H 0.22623 0.29683 0.70318 0.0
H1201 H 0.18201 0.28712 0.70071 0.0
H1202 H 0.19572 0.23414 0.62969 0.0
H1203 H 0.24011 0.24332 0.63204 0.0
C1204 C 0.33006 0.34186 0.59717 0.0
C1205 C 0.335 0.33007 0.56911 0.0
C1206 C 0.3177 0.3296 0.62059 0.0
C1207 C 0.31006 0.30522 0.61663 0.0
C1208 C 0.31375 0.29368 0.58812 0.0
C1209 C 0.32622 0.30604 0.56445 0.0
C1210 C 0.29966 0.2918 0.64328 0.0
C1211 C 0.2749 0.28464 0.6427 0.0
C1212 C 0.31345 0.28894 0.67067 0.0
C1213 C 0.34004 0.2951 0.67209 0.0
C1214 C 0.35663 0.28473 0.65101 0.0
C1215 C 0.38155 0.29091 0.65208 0.0
C1216 C 0.39016 0.30735 0.67425 0.0
C1217 C 0.37385 0.31761 0.69545 0.0
C1218 C 0.34889 0.31151 0.69446 0.0
C1219 C 0.24434 0.23599 0.75824 0.0
C1220 C 0.24726 0.25085 0.78444 0.0
C1221 C 0.25346 0.24365 0.72968 0.0
C1222 C 0.26547 0.2664 0.7268 0.0
C1223 C 0.26776 0.28151 0.75277 0.0
C1224 C 0.25875 0.27385 0.78125 0.0
C1225 C 0.27673 0.27422 0.69725 0.0
C1226 C 0.3018 0.2803 0.69727 0.0
C1227 C 0.26317 0.27604 0.66947 0.0
C1228 C 0.23652 0.27054 0.66806 0.0
C1229 C 0.21985 0.28295 0.68724 0.0
C1230 C 0.19475 0.27757 0.68582 0.0
C1231 C 0.18607 0.25996 0.66513 0.0
C1232 C 0.20248 0.24774 0.64575 0.0
C1233 C 0.2276 0.25303 0.64711 0.0
H1234 H 0.16663 0.25583 0.66406 0.0
H1235 H 0.40947 0.31211 0.67504 0.0
H1236 H 0.64763 0.7192 0.45445 0.0
H1237 H 0.6709 0.75175 0.42835 0.0
H1238 H 0.73199 0.70197 0.41712 0.0
H1239 H 0.70872 0.66952 0.44334 0.0
H1240 H 0.74713 0.75122 0.42496 0.0
H1241 H 0.68915 0.70414 0.36333 0.0
H1242 H 0.64783 0.68808 0.35147 0.0
H1243 H 0.61974 0.76178 0.34543 0.0
H1244 H 0.66087 0.77826 0.35772 0.0
H1245 H 0.8005 0.77107 0.2793 0.0
H1246 H 0.78211 0.75914 0.32828 0.0
H1247 H 0.7256 0.81401 0.31568 0.0
H1248 H 0.74413 0.82594 0.26627 0.0
H1249 H 0.7059 0.77031 0.32582 0.0
H1250 H 0.7664 0.81746 0.3761 0.0
H1251 H 0.80723 0.83381 0.38957 0.0
H1252 H 0.8307 0.76186 0.4181 0.0
H1253 H 0.79017 0.74493 0.40423 0.0
C1254 C 0.66644 0.71564 0.44762 0.0
C1255 C 0.67659 0.69206 0.45117 0.0
C1256 C 0.67965 0.73415 0.43251 0.0
C1257 C 0.70307 0.7292 0.42036 0.0
C1258 C 0.714 0.70625 0.42633 0.0
C1259 C 0.70076 0.68774 0.4414 0.0
C1260 C 0.71454 0.74623 0.39768 0.0
C1261 C 0.73823 0.75541 0.40322 0.0
C1262 C 0.70258 0.75229 0.36969 0.0
C1263 C 0.67798 0.74241 0.36178 0.0
C1264 C 0.67412 0.71691 0.35966 0.0
C1265 C 0.65074 0.70773 0.35285 0.0
C1266 C 0.63115 0.7239 0.34779 0.0
C1267 C 0.63492 0.74928 0.34942 0.0
C1268 C 0.65826 0.75855 0.3563 0.0
C1269 C 0.78457 0.78108 0.28745 0.0
C1270 C 0.77373 0.79943 0.26904 0.0
C1271 C 0.7741 0.77432 0.31555 0.0
C1272 C 0.75246 0.7857 0.3259 0.0
C1273 C 0.74233 0.805 0.30829 0.0
C1274 C 0.75299 0.81193 0.28018 0.0
C1275 C 0.73892 0.77506 0.35263 0.0
C1276 C 0.71477 0.7668 0.34777 0.0
C1277 C 0.75053 0.76994 0.3812 0.0
C1278 C 0.77522 0.77987 0.38886 0.0
C1279 C 0.78034 0.80504 0.38489 0.0
C1280 C 0.80343 0.81443 0.39267 0.0
C1281 C 0.82156 0.79888 0.40463 0.0
C1282 C 0.81664 0.77389 0.4088 0.0
C1283 C 0.7936 0.76438 0.40099 0.0
H1284 H 0.83941 0.8062 0.41072 0.0
H1285 H 0.61306 0.71676 0.34255 0.0
H1286 H 0.81834 0.20227 0.95478 0.0
H1287 H 0.78427 0.22433 0.93095 0.0
H1288 H 0.74056 0.15815 0.93319 0.0
H1289 H 0.77532 0.13588 0.95615 0.0
H1290 H 0.74259 0.17327 0.87798 0.0
H1291 H 0.72269 0.21446 0.97013 0.0
H1292 H 0.73008 0.23725 0.0182 0.0
H1293 H 0.75945 0.29789 0.96671 0.0
H1294 H 0.75264 0.27533 0.91834 0.0
H1295 H 0.66461 0.23667 0.77408 0.0
H1296 H 0.67509 0.21894 0.82459 0.0
H1297 H 0.73632 0.2689 0.83207 0.0
H1298 H 0.72586 0.2865 0.7819 0.0
H1299 H 0.71526 0.25983 0.889 0.0
H1300 H 0.7441 0.21339 0.8002 0.0
H1301 H 0.73802 0.19024 0.75207 0.0
H1302 H 0.69147 0.13891 0.79936 0.0
H1303 H 0.69701 0.16201 0.8477 0.0
C1304 C 0.80096 0.19282 0.95182 0.0
C1305 C 0.79928 0.16752 0.95783 0.0
C1306 C 0.78141 0.20543 0.93799 0.0
C1307 C 0.75961 0.19303 0.9301 0.0
C1308 C 0.75711 0.16822 0.93894 0.0
C1309 C 0.77683 0.15554 0.95256 0.0
C1310 C 0.74175 0.20467 0.9082 0.0
C1311 C 0.73598 0.19194 0.88102 0.0
C1312 C 0.73338 0.22925 0.91152 0.0
C1313 C 0.73722 0.24312 0.94055 0.0
C1314 C 0.73085 0.2326 0.96904 0.0
C1315 C 0.73493 0.24549 0.99636 0.0
C1316 C 0.74524 0.26899 0.99551 0.0
C1317 C 0.75144 0.27968 0.96733 0.0
C1318 C 0.74743 0.26687 0.93994 0.0
C1319 C 0.67974 0.24438 0.78708 0.0
C1320 C 0.69445 0.26292 0.77416 0.0
C1321 C 0.68584 0.23417 0.81582 0.0
C1322 C 0.70671 0.24238 0.83204 0.0
C1323 C 0.72014 0.26225 0.82014 0.0
C1324 C 0.71418 0.27229 0.79144 0.0
C1325 C 0.71671 0.22848 0.85896 0.0
C1326 C 0.72118 0.24086 0.88676 0.0
C1327 C 0.72386 0.20353 0.85638 0.0
C1328 C 0.7207 0.18958 0.82742 0.0
C1329 C 0.73242 0.19727 0.80026 0.0
C1330 C 0.7291 0.18415 0.77296 0.0
C1331 C 0.7143 0.16316 0.77263 0.0
C1332 C 0.70287 0.15521 0.79963 0.0
C1333 C 0.70609 0.1683 0.82698 0.0
H1334 H 0.71176 0.15302 0.75148 0.0
H1335 H 0.74841 0.27892 0.01669 0.0
H1336 H 0.3598 0.27281 0.43452 0.0
H1337 H 0.33425 0.23911 0.41583 0.0
H1338 H 0.27306 0.26695 0.46824 0.0
H1339 H 0.29881 0.30091 0.48692 0.0
H1340 H 0.30441 0.2017 0.43312 0.0
H1341 H 0.22381 0.26939 0.41908 0.0
H1342 H 0.21646 0.3142 0.41787 0.0
H1343 H 0.28963 0.326 0.38406 0.0
H1344 H 0.29723 0.28128 0.3846 0.0
H1345 H 0.20015 0.14044 0.36925 0.0
H1346 H 0.22946 0.16375 0.40008 0.0
H1347 H 0.24426 0.21083 0.32231 0.0
H1348 H 0.21415 0.18802 0.29157 0.0
H1349 H 0.23648 0.23778 0.37135 0.0
H1350 H 0.28668 0.16786 0.34925 0.0
H1351 H 0.29735 0.12385 0.34629 0.0
H1352 H 0.29018 0.11722 0.44428 0.0
H1353 H 0.27914 0.16115 0.4478 0.0
C1354 C 0.34126 0.27098 0.44331 0.0
C1355 C 0.33127 0.28929 0.46229 0.0
C1356 C 0.3266 0.25177 0.43247 0.0
C1357 C 0.30158 0.25076 0.44007 0.0
C1358 C 0.29227 0.26753 0.46179 0.0
C1359 C 0.30704 0.28674 0.4728 0.0
C1360 C 0.28486 0.2349 0.42156 0.0
C1361 C 0.28935 0.2095 0.41992 0.0
C1362 C 0.26575 0.24517 0.40341 0.0
C1363 C 0.26115 0.27204 0.40225 0.0
C1364 C 0.23827 0.28156 0.41127 0.0
C1365 C 0.23407 0.30694 0.4107 0.0
C1366 C 0.2526 0.32294 0.401 0.0
C1367 C 0.27532 0.3136 0.39166 0.0
C1368 C 0.27958 0.28824 0.39209 0.0
C1369 C 0.20974 0.15567 0.3586 0.0
C1370 C 0.20462 0.16247 0.32796 0.0
C1371 C 0.22668 0.16889 0.37624 0.0
C1372 C 0.23919 0.18907 0.3636 0.0
C1373 C 0.23481 0.19537 0.33265 0.0
C1374 C 0.21778 0.18215 0.31497 0.0
C1375 C 0.25573 0.20439 0.38315 0.0
C1376 C 0.25127 0.22979 0.38487 0.0
C1377 C 0.2752 0.19415 0.40078 0.0
C1378 C 0.28184 0.16774 0.39874 0.0
C1379 C 0.28718 0.15698 0.37014 0.0
C1380 C 0.29334 0.13205 0.36837 0.0
C1381 C 0.29438 0.11773 0.39507 0.0
C1382 C 0.28933 0.12833 0.42361 0.0
C1383 C 0.28315 0.15324 0.42551 0.0
H1384 H 0.29915 0.09844 0.39365 0.0
H1385 H 0.24933 0.34258 0.40066 0.0
H1386 H 0.23152 0.86129 0.95266 0.0
H1387 H 0.2613 0.83139 0.93359 0.0
H1388 H 0.22309 0.7735 0.98158 0.0
H1389 H 0.19343 0.80364 1.00126 0.0
H1390 H 0.27479 0.76418 0.97386 0.0
H1391 H 0.20375 0.7871 0.91348 0.0
H1392 H 0.1758 0.81703 0.88889 0.0
H1393 H 0.23523 0.84421 0.83361 0.0
H1394 H 0.26364 0.81473 0.85834 0.0
H1395 H 0.2954 0.66468 0.87316 0.0
H1396 H 0.2766 0.69657 0.90471 0.0
H1397 H 0.30841 0.75242 0.84655 0.0
H1398 H 0.32722 0.72035 0.81457 0.0
H1399 H 0.26227 0.76389 0.86067 0.0
H1400 H 0.33287 0.73844 0.91831 0.0
H1401 H 0.36079 0.70891 0.94369 0.0
H1402 H 0.30265 0.68632 0.00408 0.0
H1403 H 0.27427 0.71547 0.97876 0.0
C1404 C 0.23032 0.84242 0.96059 0.0
C1405 C 0.21019 0.83473 0.97836 0.0
C1406 C 0.24719 0.82529 0.94941 0.0
C1407 C 0.24398 0.80013 0.95543 0.0
C1408 C 0.22581 0.79282 0.9765 0.0
C1409 C 0.20899 0.81008 0.98799 0.0
C1410 C 0.25648 0.78162 0.93573 0.0
C1411 C 0.27194 0.76395 0.94916 0.0
C1412 C 0.25304 0.78155 0.90339 0.0
C1413 C 0.23586 0.79889 0.88797 0.0
C1414 C 0.21088 0.79956 0.89621 0.0
C1415 C 0.19496 0.81644 0.88225 0.0
C1416 C 0.20374 0.83255 0.85974 0.0
C1417 C 0.22846 0.83175 0.85108 0.0
C1418 C 0.24448 0.81496 0.86506 0.0
C1419 C 0.29847 0.68376 0.86709 0.0
C1420 C 0.31307 0.68998 0.84154 0.0
C1421 C 0.28776 0.702 0.88525 0.0
C1422 C 0.29156 0.72696 0.87855 0.0
C1423 C 0.30538 0.73329 0.85238 0.0
C1424 C 0.31603 0.71496 0.83402 0.0
C1425 C 0.28077 0.74633 0.89868 0.0
C1426 C 0.26541 0.76415 0.88532 0.0
C1427 C 0.28433 0.74645 0.93105 0.0
C1428 C 0.30139 0.72901 0.94645 0.0
C1429 C 0.32599 0.72705 0.93686 0.0
C1430 C 0.3419 0.7104 0.95125 0.0
C1431 C 0.33348 0.69571 0.97543 0.0
C1432 C 0.30914 0.69769 0.98532 0.0
C1433 C 0.29314 0.7143 0.97098 0.0
H1434 H 0.34583 0.68283 0.98655 0.0
H1435 H 0.19139 0.84561 0.84897 0.0
loop_
_geom_bond_atom_site_label_1
_geom_bond_atom_site_label_2
_geom_bond_distance
_geom_bond_site_symmetry_2
_ccdc_geom_bond_type
Zn0 O6 1.920 . S
Zn0 O12 1.898 . S
Zn0 O15 1.905 . S
Zn1 O9 1.905 . S
Zn1 O10 1.898 . S
Zn1 O18 1.920 . S
Zn2 O5 2.080 . S
Zn2 O8 2.114 1_554 S
Zn2 O11 2.120 1_554 S
Zn2 O13 2.120 . S
Zn2 O14 2.114 . S
Zn2 O17 2.080 1_554 S
C3 O8 1.166 . S
C3 O9 1.182 . S
C4 O10 1.167 . S
C4 O11 1.299 . S
O5 Zn2 2.080 . S
O5 C19 1.305 . S
O6 Zn0 1.920 . S
O6 C19 1.234 . S
C7 O12 1.167 . S
C7 O13 1.299 . S
O8 Zn2 2.114 1_556 S
O8 C3 1.166 . S
O9 Zn1 1.905 . S
O9 C3 1.182 . S
O10 Zn1 1.898 . S
O10 C4 1.167 . S
O11 Zn2 2.120 1_556 S
O11 C4 1.299 . S
O12 Zn0 1.898 . S
O12 C7 1.167 . S
O13 Zn2 2.120 . S
O13 C7 1.299 . S
O14 Zn2 2.114 . S
O14 C16 1.166 . S
O15 Zn0 1.905 . S
O15 C16 1.182 . S
C16 O14 1.166 . S
C16 O15 1.182 . S
O17 Zn2 2.080 1_556 S
O17 C20 1.305 . S
O18 Zn1 1.920 . S
O18 C20 1.234 . S
C19 O5 1.305 . S
C19 O6 1.234 . S
C20 O17 1.305 . S
C20 O18 1.234 . S
Zn21 O27 1.920 . S
Zn21 O33 1.898 . S
Zn21 O36 1.905 . S
Zn22 O30 1.905 . S
Zn22 O31 1.898 . S
Zn22 O39 1.920 . S
Zn23 O26 2.080 . S
Zn23 O29 2.114 . S
Zn23 O32 2.120 . S
Zn23 O34 2.120 . S
Zn23 O35 2.114 . S
Zn23 O38 2.080 . S
C24 O29 1.166 . S
C24 O30 1.182 . S
C25 O31 1.167 . S
C25 O32 1.299 . S
O26 Zn23 2.080 . S
O26 C40 1.305 . S
O27 Zn21 1.920 . S
O27 C40 1.234 . S
C28 O33 1.167 . S
C28 O34 1.299 . S
O29 Zn23 2.114 . S
O29 C24 1.166 . S
O30 Zn22 1.905 . S
O30 C24 1.182 . S
O31 Zn22 1.898 . S
O31 C25 1.167 . S
O32 Zn23 2.120 . S
O32 C25 1.299 . S
O33 Zn21 1.898 . S
O33 C28 1.167 . S
O34 Zn23 2.120 . S
O34 C28 1.299 . S
O35 Zn23 2.114 . S
O35 C37 1.166 . S
O36 Zn21 1.905 . S
O36 C37 1.182 . S
C37 O35 1.166 . S
C37 O36 1.182 . S
O38 Zn23 2.080 . S
O38 C41 1.305 . S
O39 Zn22 1.920 . S
O39 C41 1.234 . S
C40 O26 1.305 . S
C40 O27 1.234 . S
C41 O38 1.305 . S
C41 O39 1.234 . S
Zn42 O48 1.920 . S
Zn42 O54 1.898 . S
Zn42 O57 1.905 . S
Zn43 O51 1.905 . S
Zn43 O52 1.898 . S
Zn43 O60 1.920 . S
Zn44 O47 2.080 1_554 S
Zn44 O50 2.114 . S
Zn44 O53 2.120 . S
Zn44 O55 2.120 1_554 S
Zn44 O56 2.114 1_554 S
Zn44 O59 2.080 . S
C45 O50 1.166 . S
C45 O51 1.182 . S
C46 O52 1.167 . S
C46 O53 1.299 . S
O47 Zn44 2.080 1_556 S
O47 C61 1.305 . S
O48 Zn42 1.920 . S
O48 C61 1.234 . S
C49 O54 1.167 . S
C49 O55 1.299 . S
O50 Zn44 2.114 . S
O50 C45 1.166 . S
O51 Zn43 1.905 . S
O51 C45 1.182 . S
O52 Zn43 1.898 . S
O52 C46 1.167 . S
O53 Zn44 2.120 . S
O53 C46 1.299 . S
O54 Zn42 1.898 . S
O54 C49 1.167 . S
O55 Zn44 2.120 1_556 S
O55 C49 1.299 . S
O56 Zn44 2.114 1_556 S
O56 C58 1.166 . S
O57 Zn42 1.905 . S
O57 C58 1.182 . S
C58 O56 1.166 . S
C58 O57 1.182 . S
O59 Zn44 2.080 . S
O59 C62 1.305 . S
O60 Zn43 1.920 . S
O60 C62 1.234 . S
C61 O47 1.305 . S
C61 O48 1.234 . S
C62 O59 1.305 . S
C62 O60 1.234 . S
Zn63 O69 1.920 . S
Zn63 O75 1.898 . S
Zn63 O78 1.905 . S
Zn64 O72 1.905 . S
Zn64 O73 1.898 . S
Zn64 O81 1.920 . S
Zn65 O68 2.080 . S
Zn65 O71 2.114 . S
Zn65 O74 2.120 . S
Zn65 O76 2.120 . S
Zn65 O77 2.114 . S
Zn65 O80 2.080 . S
C66 O71 1.166 . S
C66 O72 1.182 . S
C67 O73 1.167 . S
C67 O74 1.299 . S
O68 Zn65 2.080 . S
O68 C82 1.305 . S
O69 Zn63 1.920 . S
O69 C82 1.234 . S
C70 O75 1.167 . S
C70 O76 1.299 . S
O71 Zn65 2.114 . S
O71 C66 1.166 . S
O72 Zn64 1.905 . S
O72 C66 1.182 . S
O73 Zn64 1.898 . S
O73 C67 1.167 . S
O74 Zn65 2.120 . S
O74 C67 1.299 . S
O75 Zn63 1.898 . S
O75 C70 1.167 . S
O76 Zn65 2.120 . S
O76 C70 1.299 . S
O77 Zn65 2.114 . S
O77 C79 1.166 . S
O78 Zn63 1.905 . S
O78 C79 1.182 . S
C79 O77 1.166 . S
C79 O78 1.182 . S
O80 Zn65 2.080 . S
O80 C83 1.305 . S
O81 Zn64 1.920 . S
O81 C83 1.234 . S
C82 O68 1.305 . S
C82 O69 1.234 . S
C83 O80 1.305 . S
C83 O81 1.234 . S
H84 C85 0.949 . S
C85 H84 0.949 . S
C85 C86 1.395 . S
C85 C87 1.391 . S
C86 C85 1.395 . S
C86 C89 1.390 . S
C87 C85 1.391 . S
C87 C91 1.387 . S
C87 C92 1.491 . S
H88 C89 0.950 . S
C89 C86 1.390 . S
C89 H88 0.950 . S
C89 C90 1.378 . S
C90 C89 1.378 . S
C90 C91 1.409 . S
C91 C87 1.387 . S
C91 C90 1.409 . S
C91 H93 0.951 . S
C92 C87 1.491 . S
C92 C94 1.382 . S
C92 C96 1.404 . S
H93 C91 0.951 . S
C94 C92 1.382 . S
C94 C95 1.390 . S
C94 H99 0.949 . S
C95 C94 1.390 . S
C95 C100 1.399 . S
C96 C92 1.404 . S
C96 H97 0.950 . S
C96 C98 1.375 . S
H97 C96 0.950 . S
C98 C96 1.375 . S
C98 C100 1.382 . S
C98 H102 0.950 . S
H99 C94 0.949 . S
C100 C95 1.399 . S
C100 C98 1.382 . S
C100 H101 0.952 . S
H101 C100 0.952 . S
H102 C98 0.950 . S
H103 C104 0.949 . S
C104 H103 0.949 . S
C104 C105 1.395 . S
C104 C106 1.391 . S
C105 C104 1.395 . S
C105 C108 1.390 . S
C106 C104 1.391 . S
C106 C110 1.387 . S
C106 C111 1.491 . S
H107 C108 0.950 . S
C108 C105 1.390 . S
C108 H107 0.950 . S
C108 C109 1.378 . S
C109 C108 1.378 . S
C109 C110 1.409 . S
C110 C106 1.387 . S
C110 C109 1.409 . S
C110 H112 0.951 . S
C111 C106 1.491 . S
C111 C113 1.382 . S
C111 C115 1.404 . S
H112 C110 0.951 . S
C113 C111 1.382 . S
C113 C114 1.390 . S
C113 H118 0.949 . S
C114 C113 1.390 . S
C114 C119 1.399 . S
C115 C111 1.404 . S
C115 H116 0.950 . S
C115 C117 1.375 . S
H116 C115 0.950 . S
C117 C115 1.375 . S
C117 C119 1.382 . S
C117 H121 0.950 . S
H118 C113 0.949 . S
C119 C114 1.399 . S
C119 C117 1.382 . S
C119 H120 0.952 . S
H120 C119 0.952 . S
H121 C117 0.950 . S
H122 C123 0.949 . S
C123 H122 0.949 . S
C123 C124 1.395 . S
C123 C125 1.391 . S
C124 C123 1.395 . S
C124 C127 1.390 . S
C125 C123 1.391 . S
C125 C129 1.387 . S
C125 C130 1.491 . S
H126 C127 0.950 . S
C127 C124 1.390 . S
C127 H126 0.950 . S
C127 C128 1.378 . S
C128 C127 1.378 . S
C128 C129 1.409 . S
C129 C125 1.387 . S
C129 C128 1.409 . S
C129 H131 0.951 . S
C130 C125 1.491 . S
C130 C132 1.382 . S
C130 C134 1.404 . S
H131 C129 0.951 . S
C132 C130 1.382 . S
C132 C133 1.390 . S
C132 H137 0.949 . S
C133 C132 1.390 . S
C133 C138 1.399 . S
C134 C130 1.404 . S
C134 H135 0.950 . S
C134 C136 1.375 . S
H135 C134 0.950 . S
C136 C134 1.375 . S
C136 C138 1.382 . S
C136 H140 0.950 . S
H137 C132 0.949 . S
C138 C133 1.399 . S
C138 C136 1.382 . S
C138 H139 0.952 . S
H139 C138 0.952 . S
H140 C136 0.950 . S
H141 C142 0.949 . S
C142 H141 0.949 . S
C142 C143 1.395 . S
C142 C144 1.391 . S
C143 C142 1.395 . S
C143 C146 1.390 . S
C144 C142 1.391 . S
C144 C148 1.387 . S
C144 C149 1.491 . S
H145 C146 0.950 . S
C146 C143 1.390 . S
C146 H145 0.950 . S
C146 C147 1.378 . S
C147 C146 1.378 . S
C147 C148 1.409 . S
C148 C144 1.387 . S
C148 C147 1.409 . S
C148 H150 0.951 . S
C149 C144 1.491 . S
C149 C151 1.382 . S
C149 C153 1.404 . S
H150 C148 0.951 . S
C151 C149 1.382 . S
C151 C152 1.390 . S
C151 H156 0.949 . S
C152 C151 1.390 . S
C152 C157 1.399 . S
C153 C149 1.404 . S
C153 H154 0.950 . S
C153 C155 1.375 . S
H154 C153 0.950 . S
C155 C153 1.375 . S
C155 C157 1.382 . S
C155 H159 0.950 . S
H156 C151 0.949 . S
C157 C152 1.399 . S
C157 C155 1.382 . S
C157 H158 0.952 . S
H158 C157 0.952 . S
H159 C155 0.950 . S
H160 C161 0.949 . S
C161 H160 0.949 . S
C161 C162 1.395 . S
C161 C163 1.391 . S
C162 C161 1.395 . S
C162 C165 1.390 . S
C163 C161 1.391 . S
C163 C167 1.387 . S
C163 C168 1.491 . S
H164 C165 0.950 . S
C165 C162 1.390 . S
C165 H164 0.950 . S
C165 C166 1.378 . S
C166 C165 1.378 . S
C166 C167 1.409 . S
C167 C163 1.387 . S
C167 C166 1.409 . S
C167 H169 0.951 . S
C168 C163 1.491 . S
C168 C170 1.382 . S
C168 C172 1.404 . S
H169 C167 0.951 . S
C170 C168 1.382 . S
C170 C171 1.390 . S
C170 H175 0.949 . S
C171 C170 1.390 . S
C171 C176 1.399 . S
C172 C168 1.404 . S
C172 H173 0.950 . S
C172 C174 1.375 . S
H173 C172 0.950 . S
C174 C172 1.375 . S
C174 C176 1.382 . S
C174 H178 0.950 . S
H175 C170 0.949 . S
C176 C171 1.399 . S
C176 C174 1.382 . S
C176 H177 0.952 . S
H177 C176 0.952 . S
H178 C174 0.950 . S
H179 C180 0.949 . S
C180 H179 0.949 . S
C180 C181 1.395 . S
C180 C182 1.391 . S
C181 C180 1.395 . S
C181 C184 1.390 . S
C182 C180 1.391 . S
C182 C186 1.387 . S
C182 C187 1.491 . S
H183 C184 0.950 . S
C184 C181 1.390 . S
C184 H183 0.950 . S
C184 C185 1.378 . S
C185 C184 1.378 . S
C185 C186 1.409 . S
C186 C182 1.387 . S
C186 C185 1.409 . S
C186 H188 0.951 . S
C187 C182 1.491 . S
C187 C189 1.382 . S
C187 C191 1.404 . S
H188 C186 0.951 . S
C189 C187 1.382 . S
C189 C190 1.390 . S
C189 H194 0.949 . S
C190 C189 1.390 . S
C190 C195 1.399 . S
C191 C187 1.404 . S
C191 H192 0.950 . S
C191 C193 1.375 . S
H192 C191 0.950 . S
C193 C191 1.375 . S
C193 C195 1.382 . S
C193 H197 0.950 . S
H194 C189 0.949 . S
C195 C190 1.399 . S
C195 C193 1.382 . S
C195 H196 0.952 . S
H196 C195 0.952 . S
H197 C193 0.950 . S
H198 C199 0.949 . S
C199 H198 0.949 . S
C199 C200 1.395 . S
C199 C201 1.391 . S
C200 C199 1.395 . S
C200 C203 1.390 . S
C201 C199 1.391 . S
C201 C205 1.387 . S
C201 C206 1.491 . S
H202 C203 0.950 . S
C203 C200 1.390 . S
C203 H202 0.950 . S
C203 C204 1.378 . S
C204 C203 1.378 . S
C204 C205 1.409 . S
C205 C201 1.387 . S
C205 C204 1.409 . S
C205 H207 0.951 . S
C206 C201 1.491 . S
C206 C208 1.382 . S
C206 C210 1.404 . S
H207 C205 0.951 . S
C208 C206 1.382 . S
C208 C209 1.390 . S
C208 H213 0.949 . S
C209 C208 1.390 . S
C209 C214 1.399 . S
C210 C206 1.404 . S
C210 H211 0.950 . S
C210 C212 1.375 . S
H211 C210 0.950 . S
C212 C210 1.375 . S
C212 C214 1.382 . S
C212 H216 0.950 . S
H213 C208 0.949 . S
C214 C209 1.399 . S
C214 C212 1.382 . S
C214 H215 0.952 . S
H215 C214 0.952 . S
H216 C212 0.950 . S
H217 C218 0.949 . S
C218 H217 0.949 . S
C218 C219 1.395 . S
C218 C220 1.391 . S
C219 C218 1.395 . S
C219 C222 1.390 . S
C220 C218 1.391 . S
C220 C224 1.387 . S
C220 C225 1.491 . S
H221 C222 0.950 . S
C222 C219 1.390 . S
C222 H221 0.950 . S
C222 C223 1.378 . S
C223 C222 1.378 . S
C223 C224 1.409 . S
C224 C220 1.387 . S
C224 C223 1.409 . S
C224 H226 0.951 . S
C225 C220 1.491 . S
C225 C227 1.382 . S
C225 C229 1.404 . S
H226 C224 0.951 . S
C227 C225 1.382 . S
C227 C228 1.390 . S
C227 H232 0.949 . S
C228 C227 1.390 . S
C228 C233 1.399 . S
C229 C225 1.404 . S
C229 H230 0.950 . S
C229 C231 1.375 . S
H230 C229 0.950 . S
C231 C229 1.375 . S
C231 C233 1.382 . S
C231 H235 0.950 . S
H232 C227 0.949 . S
C233 C228 1.399 . S
C233 C231 1.382 . S
C233 H234 0.952 . S
H234 C233 0.952 . S
H235 C231 0.950 . S
H236 C254 0.951 . S
H237 C256 0.951 . S
H238 C258 0.950 . S
H239 C259 0.950 . S
H240 C261 0.950 . S
H241 C264 0.950 . S
H242 C265 0.950 . S
H243 C267 0.950 1_545 S
H244 C268 0.950 . S
H245 C269 0.951 . S
H246 C271 0.951 . S
H247 C273 0.950 . S
H248 C274 0.950 . S
H249 C276 0.950 . S
H250 C279 0.950 . S
H251 C280 0.950 . S
H252 C282 0.950 . S
H253 C283 0.950 1_565 S
C254 H236 0.951 . S
C254 C255 1.366 . S
C254 C256 1.388 . S
C255 C254 1.366 . S
C255 C259 1.385 . S
C256 H237 0.951 . S
C256 C254 1.388 . S
C256 C257 1.366 . S
C257 C256 1.366 . S
C257 C258 1.414 . S
C257 C260 1.499 . S
C258 H238 0.950 . S
C258 C257 1.414 . S
C258 C259 1.374 . S
C259 H239 0.950 . S
C259 C255 1.385 . S
C259 C258 1.374 . S
C260 C257 1.499 . S
C260 C261 1.373 . S
C260 C262 1.389 . S
C261 H240 0.950 . S
C261 C260 1.373 . S
C261 C277 1.377 1_565 S
C262 C260 1.389 . S
C262 C263 1.524 . S
C262 C276 1.377 1_565 S
C263 C262 1.524 . S
C263 C264 1.397 . S
C263 C268 1.363 1_565 S
C264 H241 0.950 . S
C264 C263 1.397 . S
C264 C265 1.334 . S
C265 H242 0.950 . S
C265 C264 1.334 . S
C265 C266 1.287 . S
C266 C265 1.287 . S
C266 C267 1.524 . S
C266 H285 0.913 . S
C267 H243 0.950 1_565 S
C267 C266 1.524 . S
C267 C268 1.415 1_565 S
C268 H244 0.950 . S
C268 C263 1.363 1_545 S
C268 C267 1.415 1_545 S
C269 H245 0.951 . S
C269 C270 1.366 . S
C269 C271 1.388 . S
C270 C269 1.366 . S
C270 C274 1.385 . S
C271 H246 0.951 . S
C271 C269 1.388 . S
C271 C272 1.366 . S
C272 C271 1.366 . S
C272 C273 1.414 . S
C272 C275 1.499 . S
C273 H247 0.950 . S
C273 C272 1.414 . S
C273 C274 1.374 . S
C274 H248 0.950 . S
C274 C270 1.385 . S
C274 C273 1.374 . S
C275 C272 1.499 . S
C275 C276 1.373 . S
C275 C277 1.389 . S
C276 H249 0.950 . S
C276 C262 1.377 1_545 S
C276 C275 1.373 . S
C277 C261 1.377 1_545 S
C277 C275 1.389 . S
C277 C278 1.524 . S
C278 C277 1.524 . S
C278 C279 1.397 . S
C278 C283 1.363 . S
C279 H250 0.950 . S
C279 C278 1.397 . S
C279 C280 1.334 . S
C280 H251 0.950 . S
C280 C279 1.334 . S
C280 C281 1.287 . S
C281 C280 1.287 . S
C281 C282 1.524 . S
C281 H284 0.999 . S
C282 H252 0.950 . S
C282 C281 1.524 . S
C282 C283 1.415 . S
C283 H253 0.950 1_545 S
C283 C278 1.363 . S
C283 C282 1.415 . S
H284 C281 0.999 . S
H285 C266 0.913 . S
H286 C304 0.951 . S
H287 C306 0.951 . S
H288 C308 0.950 . S
H289 C309 0.950 . S
H290 C311 0.950 . S
H291 C314 0.950 . S
H292 C315 0.950 . S
H293 C317 0.950 . S
H294 C318 0.950 . S
H295 C319 0.951 . S
H296 C321 0.951 . S
H297 C323 0.950 . S
H298 C324 0.950 . S
H299 C326 0.950 . S
H300 C329 0.950 . S
H301 C330 0.950 . S
H302 C332 0.950 . S
H303 C333 0.950 . S
C304 H286 0.951 . S
C304 C305 1.366 . S
C304 C306 1.388 . S
C305 C304 1.366 . S
C305 C309 1.385 . S
C306 H287 0.951 . S
C306 C304 1.388 . S
C306 C307 1.366 . S
C307 C306 1.366 . S
C307 C308 1.414 . S
C307 C310 1.499 . S
C308 H288 0.950 . S
C308 C307 1.414 . S
C308 C309 1.374 . S
C309 H289 0.950 . S
C309 C305 1.385 . S
C309 C308 1.374 . S
C310 C307 1.499 . S
C310 C311 1.373 . S
C310 C312 1.389 . S
C311 H290 0.950 . S
C311 C310 1.373 . S
C311 C327 1.377 . S
C312 C310 1.389 . S
C312 C313 1.524 . S
C312 C326 1.377 . S
C313 C312 1.524 . S
C313 C314 1.397 . S
C313 C318 1.363 . S
C314 H291 0.950 . S
C314 C313 1.397 . S
C314 C315 1.334 . S
C315 H292 0.950 . S
C315 C314 1.334 . S
C315 C316 1.287 . S
C316 C315 1.287 . S
C316 C317 1.524 . S
C316 H335 0.913 . S
C317 H293 0.950 . S
C317 C316 1.524 . S
C317 C318 1.415 . S
C318 H294 0.950 . S
C318 C313 1.363 . S
C318 C317 1.415 . S
C319 H295 0.951 . S
C319 C320 1.366 . S
C319 C321 1.388 . S
C320 C319 1.366 . S
C320 C324 1.385 . S
C321 H296 0.951 . S
C321 C319 1.388 . S
C321 C322 1.366 . S
C322 C321 1.366 . S
C322 C323 1.414 . S
C322 C325 1.499 . S
C323 H297 0.950 . S
C323 C322 1.414 . S
C323 C324 1.374 . S
C324 H298 0.950 . S
C324 C320 1.385 . S
C324 C323 1.374 . S
C325 C322 1.499 . S
C325 C326 1.373 . S
C325 C327 1.389 . S
C326 H299 0.950 . S
C326 C312 1.377 . S
C326 C325 1.373 . S
C327 C311 1.377 . S
C327 C325 1.389 . S
C327 C328 1.524 . S
C328 C327 1.524 . S
C328 C329 1.397 . S
C328 C333 1.363 . S
C329 H300 0.950 . S
C329 C328 1.397 . S
C329 C330 1.334 . S
C330 H301 0.950 . S
C330 C329 1.334 . S
C330 C331 1.287 . S
C331 C330 1.287 . S
C331 C332 1.524 . S
C331 H334 0.999 . S
C332 H302 0.950 . S
C332 C331 1.524 . S
C332 C333 1.415 . S
C333 H303 0.950 . S
C333 C328 1.363 . S
C333 C332 1.415 . S
H334 C331 0.999 . S
H335 C316 0.913 . S
H336 C354 0.951 . S
H337 C356 0.951 . S
H338 C358 0.950 . S
H339 C359 0.950 . S
H340 C361 0.950 . S
H341 C364 0.950 . S
H342 C365 0.950 . S
H343 C367 0.950 . S
H344 C368 0.950 . S
H345 C369 0.951 . S
H346 C371 0.951 . S
H347 C373 0.950 . S
H348 C374 0.950 . S
H349 C376 0.950 . S
H350 C379 0.950 . S
H351 C380 0.950 . S
H352 C382 0.950 1_545 S
H353 C383 0.987 . S
C354 H336 0.951 . S
C354 C355 1.366 . S
C354 C356 1.388 . S
C355 C354 1.366 . S
C355 C359 1.385 . S
C356 H337 0.951 . S
C356 C354 1.388 . S
C356 C357 1.366 . S
C357 C356 1.366 . S
C357 C358 1.414 . S
C357 C360 1.499 . S
C358 H338 0.950 . S
C358 C357 1.414 . S
C358 C359 1.374 . S
C359 H339 0.950 . S
C359 C355 1.385 . S
C359 C358 1.374 . S
C360 C357 1.499 . S
C360 C361 1.373 . S
C360 C362 1.372 1_545 S
C361 H340 0.950 . S
C361 C360 1.373 . S
C361 C377 1.377 1_545 S
C362 C360 1.372 1_565 S
C362 C363 1.519 1_565 S
C362 C376 1.401 . S
C363 C362 1.519 1_545 S
C363 C364 1.397 . S
C363 C368 1.363 1_545 S
C364 H341 0.950 . S
C364 C363 1.397 . S
C364 C365 1.334 . S
C365 H342 0.950 . S
C365 C364 1.334 . S
C365 C366 1.287 . S
C366 C365 1.287 . S
C366 C367 1.524 1_545 S
C366 H385 0.913 . S
C367 H343 0.950 . S
C367 C366 1.524 1_565 S
C367 C368 1.415 . S
C368 H344 0.950 . S
C368 C363 1.363 1_565 S
C368 C367 1.415 . S
C369 H345 0.951 . S
C369 C370 1.366 . S
C369 C371 1.388 . S
C370 C369 1.366 . S
C370 C374 1.385 . S
C371 H346 0.951 . S
C371 C369 1.388 . S
C371 C372 1.366 . S
C372 C371 1.366 . S
C372 C373 1.414 . S
C372 C375 1.499 . S
C373 H347 0.950 . S
C373 C372 1.414 . S
C373 C374 1.374 . S
C374 H348 0.950 . S
C374 C370 1.385 . S
C374 C373 1.374 . S
C375 C372 1.499 . S
C375 C376 1.373 . S
C375 C377 1.389 . S
C376 H349 0.950 . S
C376 C362 1.401 . S
C376 C375 1.373 . S
C377 C361 1.377 1_565 S
C377 C375 1.389 . S
C377 C378 1.524 . S
C378 C377 1.524 . S
C378 C379 1.397 . S
C378 C383 1.335 1_565 S
C379 H350 0.950 . S
C379 C378 1.397 . S
C379 C380 1.334 . S
C380 H351 0.950 . S
C380 C379 1.334 . S
C380 C381 1.287 . S
C381 C380 1.287 . S
C381 C382 1.524 . S
C381 H384 0.999 . S
C382 H352 0.950 1_565 S
C382 C381 1.524 . S
C382 C383 1.408 1_565 S
C383 H353 0.987 . S
C383 C378 1.335 1_545 S
C383 C382 1.408 1_545 S
H384 C381 0.999 . S
H385 C366 0.913 . S
H386 C404 0.951 . S
H387 C406 0.951 . S
H388 C408 0.950 . S
H389 C409 0.950 . S
H390 C411 0.950 . S
H391 C414 0.950 . S
H392 C415 0.950 . S
H393 C417 0.950 . S
H394 C418 0.950 . S
H395 C419 0.951 . S
H396 C421 0.951 . S
H397 C423 0.950 . S
H398 C424 0.950 . S
H399 C426 0.950 . S
H400 C429 0.950 . S
H401 C430 0.950 . S
H402 C432 0.950 . S
H403 C433 0.950 . S
C404 H386 0.951 . S
C404 C405 1.366 . S
C404 C406 1.388 . S
C405 C404 1.366 . S
C405 C409 1.385 . S
C406 H387 0.951 . S
C406 C404 1.388 . S
C406 C407 1.366 . S
C407 C406 1.366 . S
C407 C408 1.414 . S
C407 C410 1.499 . S
C408 H388 0.950 . S
C408 C407 1.414 . S
C408 C409 1.374 . S
C409 H389 0.950 . S
C409 C405 1.385 . S
C409 C408 1.374 . S
C410 C407 1.499 . S
C410 C411 1.373 . S
C410 C412 1.389 . S
C411 H390 0.950 . S
C411 C410 1.373 . S
C411 C427 1.377 . S
C412 C410 1.389 . S
C412 C413 1.524 . S
C412 C426 1.377 . S
C413 C412 1.524 . S
C413 C414 1.397 . S
C413 C418 1.363 . S
C414 H391 0.950 . S
C414 C413 1.397 . S
C414 C415 1.334 . S
C415 H392 0.950 . S
C415 C414 1.334 . S
C415 C416 1.287 . S
C416 C415 1.287 . S
C416 C417 1.524 . S
C416 H435 0.913 . S
C417 H393 0.950 . S
C417 C416 1.524 . S
C417 C418 1.415 . S
C418 H394 0.950 . S
C418 C413 1.363 . S
C418 C417 1.415 . S
C419 H395 0.951 . S
C419 C420 1.366 . S
C419 C421 1.388 . S
C420 C419 1.366 . S
C420 C424 1.385 . S
C421 H396 0.951 . S
C421 C419 1.388 . S
C421 C422 1.366 . S
C422 C421 1.366 . S
C422 C423 1.414 . S
C422 C425 1.499 . S
C423 H397 0.950 . S
C423 C422 1.414 . S
C423 C424 1.374 . S
C424 H398 0.950 . S
C424 C420 1.385 . S
C424 C423 1.374 . S
C425 C422 1.499 . S
C425 C426 1.373 . S
C425 C427 1.389 . S
C426 H399 0.950 . S
C426 C412 1.377 . S
C426 C425 1.373 . S
C427 C411 1.377 . S
C427 C425 1.389 . S
C427 C428 1.524 . S
C428 C427 1.524 . S
C428 C429 1.397 . S
C428 C433 1.363 . S
C429 H400 0.950 . S
C429 C428 1.397 . S
C429 C430 1.334 . S
C430 H401 0.950 . S
C430 C429 1.334 . S
C430 C431 1.287 . S
C431 C430 1.287 . S
C431 C432 1.524 . S
C431 H434 0.999 . S
C432 H402 0.950 . S
C432 C431 1.524 . S
C432 C433 1.415 . S
C433 H403 0.950 . S
C433 C428 1.363 . S
C433 C432 1.415 . S
H434 C431 0.999 . S
H435 C416 0.913 . S
H436 C454 0.951 . S
H437 C456 0.951 . S
H438 C458 0.950 . S
H439 C459 0.950 . S
H440 C461 0.950 . S
H441 C464 0.950 . S
H442 C465 0.950 . S
H443 C467 0.950 . S
H444 C468 0.950 . S
H445 C469 0.951 . S
H446 C471 0.951 . S
H447 C473 0.950 . S
H448 C474 0.950 . S
H449 C476 0.950 . S
H450 C479 0.950 . S
H451 C480 0.950 . S
H452 C482 0.950 . S
H453 C483 0.950 . S
C454 H436 0.951 . S
C454 C455 1.366 . S
C454 C456 1.388 . S
C455 C454 1.366 . S
C455 C459 1.385 . S
C456 H437 0.951 . S
C456 C454 1.388 . S
C456 C457 1.366 . S
C457 C456 1.366 . S
C457 C458 1.414 . S
C457 C460 1.499 . S
C458 H438 0.950 . S
C458 C457 1.414 . S
C458 C459 1.374 . S
C459 H439 0.950 . S
C459 C455 1.385 . S
C459 C458 1.374 . S
C460 C457 1.499 . S
C460 C461 1.373 . S
C460 C462 1.389 . S
C461 H440 0.950 . S
C461 C460 1.373 . S
C461 C477 1.377 . S
C462 C460 1.389 . S
C462 C463 1.524 . S
C462 C476 1.377 . S
C463 C462 1.524 . S
C463 C464 1.397 . S
C463 C468 1.363 . S
C464 H441 0.950 . S
C464 C463 1.397 . S
C464 C465 1.334 . S
C465 H442 0.950 . S
C465 C464 1.334 . S
C465 C466 1.287 . S
C466 C465 1.287 . S
C466 C467 1.524 . S
C466 H485 0.913 . S
C467 H443 0.950 . S
C467 C466 1.524 . S
C467 C468 1.415 . S
C468 H444 0.950 . S
C468 C463 1.363 . S
C468 C467 1.415 . S
C469 H445 0.951 . S
C469 C470 1.366 . S
C469 C471 1.388 . S
C470 C469 1.366 . S
C470 C474 1.385 . S
C471 H446 0.951 . S
C471 C469 1.388 . S
C471 C472 1.366 . S
C472 C471 1.366 . S
C472 C473 1.414 . S
C472 C475 1.499 . S
C473 H447 0.950 . S
C473 C472 1.414 . S
C473 C474 1.374 . S
C474 H448 0.950 . S
C474 C470 1.385 . S
C474 C473 1.374 . S
C475 C472 1.499 . S
C475 C476 1.373 . S
C475 C477 1.389 . S
C476 H449 0.950 . S
C476 C462 1.377 . S
C476 C475 1.373 . S
C477 C461 1.377 . S
C477 C475 1.389 . S
C477 C478 1.524 . S
C478 C477 1.524 . S
C478 C479 1.397 . S
C478 C483 1.363 . S
C479 H450 0.950 . S
C479 C478 1.397 . S
C479 C480 1.334 . S
C480 H451 0.950 . S
C480 C479 1.334 . S
C480 C481 1.287 . S
C481 C480 1.287 . S
C481 C482 1.524 . S
C481 H484 0.999 . S
C482 H452 0.950 . S
C482 C481 1.524 . S
C482 C483 1.415 . S
C483 H453 0.950 . S
C483 C478 1.363 . S
C483 C482 1.415 . S
H484 C481 0.999 . S
H485 C466 0.913 . S
H486 C504 0.951 . S
H487 C506 0.951 . S
H488 C508 0.950 . S
H489 C509 0.950 . S
H490 C511 0.950 . S
H491 C514 0.950 . S
H492 C515 0.950 . S
H493 C517 0.950 . S
H494 C518 0.950 . S
H495 C519 0.951 . S
H496 C521 0.951 . S
H497 C523 0.950 . S
H498 C524 0.950 . S
H499 C526 0.950 . S
H500 C529 0.950 . S
H501 C530 0.950 . S
H502 C532 0.950 . S
H503 C533 0.950 . S
C504 H486 0.951 . S
C504 C505 1.366 . S
C504 C506 1.388 . S
C505 C504 1.366 . S
C505 C509 1.385 . S
C506 H487 0.951 . S
C506 C504 1.388 . S
C506 C507 1.366 . S
C507 C506 1.366 . S
C507 C508 1.414 . S
C507 C510 1.499 . S
C508 H488 0.950 . S
C508 C507 1.414 . S
C508 C509 1.374 . S
C509 H489 0.950 . S
C509 C505 1.385 . S
C509 C508 1.374 . S
C510 C507 1.499 . S
C510 C511 1.373 . S
C510 C512 1.405 . S
C511 H490 0.950 . S
C511 C510 1.373 . S
C511 C527 1.377 1_655 S
C512 C510 1.405 . S
C512 C513 1.528 . S
C512 C526 1.358 1_655 S
C513 C512 1.528 . S
C513 C514 1.397 . S
C513 C518 1.363 1_655 S
C514 H491 0.950 . S
C514 C513 1.397 . S
C514 C515 1.334 . S
C515 H492 0.950 . S
C515 C514 1.334 . S
C515 C516 1.287 . S
C516 C515 1.287 . S
C516 C517 1.524 1_655 S
C516 H535 0.913 . S
C517 H493 0.950 . S
C517 C516 1.524 1_455 S
C517 C518 1.415 . S
C518 H494 0.950 . S
C518 C513 1.363 1_455 S
C518 C517 1.415 . S
C519 H495 0.951 . S
C519 C520 1.366 . S
C519 C521 1.388 . S
C520 C519 1.366 . S
C520 C524 1.385 . S
C521 H496 0.951 . S
C521 C519 1.388 . S
C521 C522 1.366 . S
C522 C521 1.366 . S
C522 C523 1.414 . S
C522 C525 1.499 . S
C523 H497 0.950 . S
C523 C522 1.414 . S
C523 C524 1.374 . S
C524 H498 0.950 . S
C524 C520 1.385 . S
C524 C523 1.374 . S
C525 C522 1.499 . S
C525 C526 1.373 . S
C525 C527 1.389 . S
C526 H499 0.950 . S
C526 C512 1.358 1_455 S
C526 C525 1.373 . S
C527 C511 1.377 1_455 S
C527 C525 1.389 . S
C527 C528 1.524 . S
C528 C527 1.524 . S
C528 C529 1.397 . S
C528 C533 1.363 1_455 S
C529 H500 0.950 . S
C529 C528 1.397 . S
C529 C530 1.334 . S
C530 H501 0.950 . S
C530 C529 1.334 . S
C530 C531 1.287 . S
C531 C530 1.287 . S
C531 C532 1.524 1_455 S
C531 H534 0.999 . S
C532 H502 0.950 . S
C532 C531 1.524 1_655 S
C532 C533 1.415 . S
C533 H503 0.950 . S
C533 C528 1.363 1_655 S
C533 C532 1.415 . S
H534 C531 0.999 . S
H535 C516 0.913 . S
H536 C554 0.951 . S
H537 C556 0.951 . S
H538 C558 0.950 . S
H539 C559 0.950 . S
H540 C561 0.950 . S
H541 C564 0.950 . S
H542 C565 0.950 . S
H543 C567 0.950 . S
H544 C568 0.950 . S
H545 C569 0.951 . S
H546 C571 0.951 . S
H547 C573 0.950 . S
H548 C574 0.950 . S
H549 C576 0.950 . S
H550 C579 0.950 . S
H551 C580 0.950 . S
H552 C582 0.950 . S
H553 C583 0.950 . S
C554 H536 0.951 . S
C554 C555 1.366 . S
C554 C556 1.388 . S
C555 C554 1.366 . S
C555 C559 1.385 . S
C556 H537 0.951 . S
C556 C554 1.388 . S
C556 C557 1.366 . S
C557 C556 1.366 . S
C557 C558 1.414 . S
C557 C560 1.499 . S
C558 H538 0.950 . S
C558 C557 1.414 . S
C558 C559 1.374 . S
C559 H539 0.950 . S
C559 C555 1.385 . S
C559 C558 1.374 . S
C560 C557 1.499 . S
C560 C561 1.373 . S
C560 C562 1.389 . S
C561 H540 0.950 . S
C561 C560 1.373 . S
C561 C577 1.377 . S
C562 C560 1.389 . S
C562 C563 1.524 . S
C562 C576 1.377 . S
C563 C562 1.524 . S
C563 C564 1.397 . S
C563 C568 1.363 . S
C564 H541 0.950 . S
C564 C563 1.397 . S
C564 C565 1.334 . S
C565 H542 0.950 . S
C565 C564 1.334 . S
C565 C566 1.287 . S
C566 C565 1.287 . S
C566 C567 1.524 . S
C566 H585 0.913 . S
C567 H543 0.950 . S
C567 C566 1.524 . S
C567 C568 1.415 . S
C568 H544 0.950 . S
C568 C563 1.363 . S
C568 C567 1.415 . S
C569 H545 0.951 . S
C569 C570 1.366 . S
C569 C571 1.388 . S
C570 C569 1.366 . S
C570 C574 1.385 . S
C571 H546 0.951 . S
C571 C569 1.388 . S
C571 C572 1.366 . S
C572 C571 1.366 . S
C572 C573 1.414 . S
C572 C575 1.499 . S
C573 H547 0.950 . S
C573 C572 1.414 . S
C573 C574 1.374 . S
C574 H548 0.950 . S
C574 C570 1.385 . S
C574 C573 1.374 . S
C575 C572 1.499 . S
C575 C576 1.373 . S
C575 C577 1.389 . S
C576 H549 0.950 . S
C576 C562 1.377 . S
C576 C575 1.373 . S
C577 C561 1.377 . S
C577 C575 1.389 . S
C577 C578 1.524 . S
C578 C577 1.524 . S
C578 C579 1.397 . S
C578 C583 1.363 . S
C579 H550 0.950 . S
C579 C578 1.397 . S
C579 C580 1.334 . S
C580 H551 0.950 . S
C580 C579 1.334 . S
C580 C581 1.287 . S
C581 C580 1.287 . S
C581 C582 1.524 . S
C581 H584 0.999 . S
C582 H552 0.950 . S
C582 C581 1.524 . S
C582 C583 1.415 . S
C583 H553 0.950 . S
C583 C578 1.363 . S
C583 C582 1.415 . S
H584 C581 0.999 . S
H585 C566 0.913 . S
H586 C604 0.951 . S
H587 C606 0.951 . S
H588 C608 0.950 . S
H589 C609 0.950 . S
H590 C611 0.950 . S
H591 C614 0.950 . S
H592 C615 0.950 . S
H593 C617 0.950 . S
H594 C618 0.950 . S
H595 C619 0.951 . S
H596 C621 0.951 . S
H597 C623 0.950 . S
H598 C624 0.950 . S
H599 C626 0.950 . S
H600 C629 0.950 . S
H601 C630 0.950 . S
H602 C632 0.950 . S
H603 C633 0.950 . S
C604 H586 0.951 . S
C604 C605 1.366 . S
C604 C606 1.388 . S
C605 C604 1.366 . S
C605 C609 1.385 . S
C606 H587 0.951 . S
C606 C604 1.388 . S
C606 C607 1.366 . S
C607 C606 1.366 . S
C607 C608 1.414 . S
C607 C610 1.499 . S
C608 H588 0.950 . S
C608 C607 1.414 . S
C608 C609 1.374 . S
C609 H589 0.950 . S
C609 C605 1.385 . S
C609 C608 1.374 . S
C610 C607 1.499 . S
C610 C611 1.373 1_455 S
C610 C612 1.389 . S
C611 H590 0.950 . S
C611 C610 1.373 1_655 S
C611 C627 1.377 . S
C612 C610 1.389 . S
C612 C613 1.524 . S
C612 C626 1.377 1_455 S
C613 C612 1.524 . S
C613 C614 1.397 . S
C613 C618 1.363 . S
C614 H591 0.950 . S
C614 C613 1.397 . S
C614 C615 1.334 . S
C615 H592 0.950 . S
C615 C614 1.334 . S
C615 C616 1.287 . S
C616 C615 1.287 . S
C616 C617 1.524 . S
C616 H635 0.913 . S
C617 H593 0.950 . S
C617 C616 1.524 . S
C617 C618 1.415 . S
C618 H594 0.950 . S
C618 C613 1.363 . S
C618 C617 1.415 . S
C619 H595 0.951 . S
C619 C620 1.366 . S
C619 C621 1.388 . S
C620 C619 1.366 . S
C620 C624 1.385 . S
C621 H596 0.951 . S
C621 C619 1.388 . S
C621 C622 1.366 . S
C622 C621 1.366 . S
C622 C623 1.414 . S
C622 C625 1.499 . S
C623 H597 0.950 . S
C623 C622 1.414 . S
C623 C624 1.374 . S
C624 H598 0.950 . S
C624 C620 1.385 . S
C624 C623 1.374 . S
C625 C622 1.499 . S
C625 C626 1.373 . S
C625 C627 1.389 . S
C626 H599 0.950 . S
C626 C612 1.377 1_655 S
C626 C625 1.373 . S
C627 C611 1.377 . S
C627 C625 1.389 . S
C627 C628 1.524 . S
C628 C627 1.524 . S
C628 C629 1.397 . S
C628 C633 1.363 . S
C629 H600 0.950 . S
C629 C628 1.397 . S
C629 C630 1.334 . S
C630 H601 0.950 . S
C630 C629 1.334 . S
C630 C631 1.287 . S
C631 C630 1.287 . S
C631 C632 1.524 . S
C631 H634 0.999 . S
C632 H602 0.950 . S
C632 C631 1.524 . S
C632 C633 1.415 . S
C633 H603 0.950 . S
C633 C628 1.363 . S
C633 C632 1.415 . S
H634 C631 0.999 . S
H635 C616 0.913 . S
H636 C654 0.951 . S
H637 C656 0.951 . S
H638 C658 0.950 1_565 S
H639 C659 0.950 . S
H640 C661 0.950 . S
H641 C664 0.950 . S
H642 C665 0.950 . S
H643 C667 0.950 . S
H644 C668 0.950 . S
H645 C669 0.951 . S
H646 C671 0.951 . S
H647 C673 0.950 . S
H648 C674 0.950 . S
H649 C676 0.950 . S
H650 C679 0.950 . S
H651 C680 0.950 . S
H652 C682 0.950 . S
H653 C683 0.950 . S
C654 H636 0.951 . S
C654 C655 1.366 . S
C654 C656 1.388 . S
C655 C654 1.366 . S
C655 C659 1.385 . S
C656 H637 0.951 . S
C656 C654 1.388 . S
C656 C657 1.382 . S
C657 C656 1.382 . S
C657 C658 1.415 . S
C657 C660 1.482 1_545 S
C658 H638 0.950 1_545 S
C658 C657 1.415 . S
C658 C659 1.374 . S
C659 H639 0.950 . S
C659 C655 1.385 . S
C659 C658 1.374 . S
C660 C657 1.482 1_565 S
C660 C661 1.373 . S
C660 C662 1.389 . S
C661 H640 0.950 . S
C661 C660 1.373 . S
C661 C677 1.377 . S
C662 C660 1.389 . S
C662 C663 1.524 . S
C662 C676 1.377 . S
C663 C662 1.524 . S
C663 C664 1.397 . S
C663 C668 1.363 . S
C664 H641 0.950 . S
C664 C663 1.397 . S
C664 C665 1.334 1_565 S
C665 H642 0.950 . S
C665 C664 1.334 1_545 S
C665 C666 1.287 . S
C666 C665 1.287 . S
C666 C667 1.524 . S
C666 H685 0.913 . S
C667 H643 0.950 . S
C667 C666 1.524 . S
C667 C668 1.415 1_545 S
C668 H644 0.950 . S
C668 C663 1.363 . S
C668 C667 1.415 1_565 S
C669 H645 0.951 . S
C669 C670 1.366 . S
C669 C671 1.388 . S
C670 C669 1.366 . S
C670 C674 1.385 . S
C671 H646 0.951 . S
C671 C669 1.388 . S
C671 C672 1.366 . S
C672 C671 1.366 . S
C672 C673 1.414 . S
C672 C675 1.499 . S
C673 H647 0.950 . S
C673 C672 1.414 . S
C673 C674 1.374 . S
C674 H648 0.950 . S
C674 C670 1.385 . S
C674 C673 1.374 . S
C675 C672 1.499 . S
C675 C676 1.373 . S
C675 C677 1.389 . S
C676 H649 0.950 . S
C676 C662 1.377 . S
C676 C675 1.373 . S
C677 C661 1.377 . S
C677 C675 1.389 . S
C677 C678 1.524 . S
C678 C677 1.524 . S
C678 C679 1.397 . S
C678 C683 1.363 . S
C679 H650 0.950 . S
C679 C678 1.397 . S
C679 C680 1.334 . S
C680 H651 0.950 . S
C680 C679 1.334 . S
C680 C681 1.287 . S
C681 C680 1.287 . S
C681 C682 1.524 . S
C681 H684 0.999 . S
C682 H652 0.950 . S
C682 C681 1.524 . S
C682 C683 1.415 . S
C683 H653 0.950 . S
C683 C678 1.363 . S
C683 C682 1.415 . S
H684 C681 0.999 . S
H685 C666 0.913 . S
H686 C704 0.951 . S
H687 C706 0.951 . S
H688 C708 0.950 . S
H689 C709 0.950 . S
H690 C711 0.950 . S
H691 C714 0.950 . S
H692 C715 0.950 . S
H693 C717 0.950 . S
H694 C718 0.950 . S
H695 C719 0.951 . S
H696 C721 0.951 . S
H697 C723 0.950 . S
H698 C724 0.950 . S
H699 C726 0.950 . S
H700 C729 0.950 . S
H701 C730 0.950 . S
H702 C732 0.950 . S
H703 C733 0.950 . S
C704 H686 0.951 . S
C704 C705 1.366 . S
C704 C706 1.388 . S
C705 C704 1.366 . S
C705 C709 1.385 . S
C706 H687 0.951 . S
C706 C704 1.388 . S
C706 C707 1.366 . S
C707 C706 1.366 . S
C707 C708 1.414 . S
C707 C710 1.499 . S
C708 H688 0.950 . S
C708 C707 1.414 . S
C708 C709 1.374 . S
C709 H689 0.950 . S
C709 C705 1.385 . S
C709 C708 1.374 . S
C710 C707 1.499 . S
C710 C711 1.373 . S
C710 C712 1.389 . S
C711 H690 0.950 . S
C711 C710 1.373 . S
C711 C727 1.377 . S
C712 C710 1.389 . S
C712 C713 1.524 . S
C712 C726 1.377 . S
C713 C712 1.524 . S
C713 C714 1.397 . S
C713 C718 1.363 . S
C714 H691 0.950 . S
C714 C713 1.397 . S
C714 C715 1.334 . S
C715 H692 0.950 . S
C715 C714 1.334 . S
C715 C716 1.287 . S
C716 C715 1.287 . S
C716 C717 1.524 . S
C716 H735 0.913 . S
C717 H693 0.950 . S
C717 C716 1.524 . S
C717 C718 1.415 . S
C718 H694 0.950 . S
C718 C713 1.363 . S
C718 C717 1.415 . S
C719 H695 0.951 . S
C719 C720 1.366 . S
C719 C721 1.388 . S
C720 C719 1.366 . S
C720 C724 1.385 . S
C721 H696 0.951 . S
C721 C719 1.388 . S
C721 C722 1.366 . S
C722 C721 1.366 . S
C722 C723 1.414 . S
C722 C725 1.499 . S
C723 H697 0.950 . S
C723 C722 1.414 . S
C723 C724 1.374 . S
C724 H698 0.950 . S
C724 C720 1.385 . S
C724 C723 1.374 . S
C725 C722 1.499 . S
C725 C726 1.373 . S
C725 C727 1.389 . S
C726 H699 0.950 . S
C726 C712 1.377 . S
C726 C725 1.373 . S
C727 C711 1.377 . S
C727 C725 1.389 . S
C727 C728 1.524 . S
C728 C727 1.524 . S
C728 C729 1.397 . S
C728 C733 1.363 . S
C729 H700 0.950 . S
C729 C728 1.397 . S
C729 C730 1.334 . S
C730 H701 0.950 . S
C730 C729 1.334 . S
C730 C731 1.287 . S
C731 C730 1.287 . S
C731 C732 1.524 . S
C731 H734 0.999 . S
C732 H702 0.950 . S
C732 C731 1.524 . S
C732 C733 1.415 . S
C733 H703 0.950 . S
C733 C728 1.363 . S
C733 C732 1.415 . S
H734 C731 0.999 . S
H735 C716 0.913 . S
H736 C754 0.951 . S
H737 C756 0.951 . S
H738 C758 0.950 1_545 S
H739 C759 0.950 . S
H740 C761 0.950 . S
H741 C764 0.950 . S
H742 C765 0.950 . S
H743 C767 0.950 . S
H744 C768 0.950 . S
H745 C769 0.951 . S
H746 C771 0.951 . S
H747 C773 0.950 . S
H748 C774 0.950 . S
H749 C776 0.950 . S
H750 C779 0.950 . S
H751 C780 0.950 . S
H752 C782 0.950 . S
H753 C783 0.950 . S
C754 H736 0.951 . S
C754 C755 1.366 . S
C754 C756 1.388 . S
C755 C754 1.366 . S
C755 C759 1.385 . S
C756 H737 0.951 . S
C756 C754 1.388 . S
C756 C757 1.366 1_565 S
C757 C756 1.366 1_545 S
C757 C758 1.414 1_545 S
C757 C760 1.499 . S
C758 H738 0.950 1_565 S
C758 C757 1.414 1_565 S
C758 C759 1.374 . S
C759 H739 0.950 . S
C759 C755 1.385 . S
C759 C758 1.374 . S
C760 C757 1.499 . S
C760 C761 1.373 . S
C760 C762 1.389 . S
C761 H740 0.950 . S
C761 C760 1.373 . S
C761 C777 1.377 . S
C762 C760 1.389 . S
C762 C763 1.524 . S
C762 C776 1.377 . S
C763 C762 1.524 . S
C763 C764 1.397 1_545 S
C763 C768 1.363 . S
C764 H741 0.950 . S
C764 C763 1.397 1_565 S
C764 C765 1.334 . S
C765 H742 0.950 . S
C765 C764 1.334 . S
C765 C766 1.287 . S
C766 C765 1.287 . S
C766 C767 1.524 . S
C766 H785 0.913 . S
C767 H743 0.950 . S
C767 C766 1.524 . S
C767 C768 1.415 1_565 S
C768 H744 0.950 . S
C768 C763 1.363 . S
C768 C767 1.415 1_545 S
C769 H745 0.951 . S
C769 C770 1.366 . S
C769 C771 1.388 . S
C770 C769 1.366 . S
C770 C774 1.385 . S
C771 H746 0.951 . S
C771 C769 1.388 . S
C771 C772 1.366 . S
C772 C771 1.366 . S
C772 C773 1.414 . S
C772 C775 1.499 . S
C773 H747 0.950 . S
C773 C772 1.414 . S
C773 C774 1.374 . S
C774 H748 0.950 . S
C774 C770 1.385 . S
C774 C773 1.374 . S
C775 C772 1.499 . S
C775 C776 1.373 . S
C775 C777 1.389 . S
C776 H749 0.950 . S
C776 C762 1.377 . S
C776 C775 1.373 . S
C777 C761 1.377 . S
C777 C775 1.389 . S
C777 C778 1.524 . S
C778 C777 1.524 . S
C778 C779 1.397 . S
C778 C783 1.363 . S
C779 H750 0.950 . S
C779 C778 1.397 . S
C779 C780 1.334 . S
C780 H751 0.950 . S
C780 C779 1.334 . S
C780 C781 1.287 . S
C781 C780 1.287 . S
C781 C782 1.524 . S
C781 H784 0.999 . S
C782 H752 0.950 . S
C782 C781 1.524 . S
C782 C783 1.415 . S
C783 H753 0.950 . S
C783 C778 1.363 . S
C783 C782 1.415 . S
H784 C781 0.999 . S
H785 C766 0.913 . S
H786 C804 0.951 . S
H787 C806 0.951 . S
H788 C808 0.950 . S
H789 C809 0.950 . S
H790 C811 0.950 . S
H791 C814 0.950 . S
H792 C815 0.950 . S
H793 C817 0.950 . S
H794 C818 0.950 . S
H795 C819 0.951 . S
H796 C821 0.951 . S
H797 C823 0.950 . S
H798 C824 0.950 . S
H799 C826 0.950 . S
H800 C829 0.950 . S
H801 C830 0.950 . S
H802 C832 0.950 . S
H803 C833 0.950 . S
C804 H786 0.951 . S
C804 C805 1.366 . S
C804 C806 1.388 . S
C805 C804 1.366 . S
C805 C809 1.385 . S
C806 H787 0.951 . S
C806 C804 1.388 . S
C806 C807 1.366 . S
C807 C806 1.366 . S
C807 C808 1.414 . S
C807 C810 1.499 . S
C808 H788 0.950 . S
C808 C807 1.414 . S
C808 C809 1.374 . S
C809 H789 0.950 . S
C809 C805 1.385 . S
C809 C808 1.374 . S
C810 C807 1.499 . S
C810 C811 1.373 . S
C810 C812 1.389 . S
C811 H790 0.950 . S
C811 C810 1.373 . S
C811 C827 1.377 . S
C812 C810 1.389 . S
C812 C813 1.524 . S
C812 C826 1.377 . S
C813 C812 1.524 . S
C813 C814 1.397 . S
C813 C818 1.363 . S
C814 H791 0.950 . S
C814 C813 1.397 . S
C814 C815 1.334 . S
C815 H792 0.950 . S
C815 C814 1.334 . S
C815 C816 1.287 . S
C816 C815 1.287 . S
C816 C817 1.524 . S
C816 H835 0.913 . S
C817 H793 0.950 . S
C817 C816 1.524 . S
C817 C818 1.415 . S
C818 H794 0.950 . S
C818 C813 1.363 . S
C818 C817 1.415 . S
C819 H795 0.951 . S
C819 C820 1.366 . S
C819 C821 1.388 . S
C820 C819 1.366 . S
C820 C824 1.385 . S
C821 H796 0.951 . S
C821 C819 1.388 . S
C821 C822 1.366 . S
C822 C821 1.366 . S
C822 C823 1.414 . S
C822 C825 1.499 . S
C823 H797 0.950 . S
C823 C822 1.414 . S
C823 C824 1.374 . S
C824 H798 0.950 . S
C824 C820 1.385 . S
C824 C823 1.374 . S
C825 C822 1.499 . S
C825 C826 1.373 . S
C825 C827 1.389 . S
C826 H799 0.950 . S
C826 C812 1.377 . S
C826 C825 1.373 . S
C827 C811 1.377 . S
C827 C825 1.389 . S
C827 C828 1.524 . S
C828 C827 1.524 . S
C828 C829 1.397 . S
C828 C833 1.363 . S
C829 H800 0.950 . S
C829 C828 1.397 . S
C829 C830 1.334 . S
C830 H801 0.950 . S
C830 C829 1.334 . S
C830 C831 1.287 . S
C831 C830 1.287 . S
C831 C832 1.524 . S
C831 H834 0.999 . S
C832 H802 0.950 . S
C832 C831 1.524 . S
C832 C833 1.415 . S
C833 H803 0.950 . S
C833 C828 1.363 . S
C833 C832 1.415 . S
H834 C831 0.999 . S
H835 C816 0.913 . S
H836 C854 0.951 . S
H837 C856 0.951 . S
H838 C858 0.950 . S
H839 C859 0.950 . S
H840 C861 0.950 . S
H841 C864 0.950 . S
H842 C865 0.950 . S
H843 C867 0.950 . S
H844 C868 0.950 . S
H845 C869 0.951 . S
H846 C871 0.951 . S
H847 C873 0.950 . S
H848 C874 0.950 . S
H849 C876 0.950 . S
H850 C879 0.950 . S
H851 C880 0.950 . S
H852 C882 0.950 . S
H853 C883 0.950 . S
C854 H836 0.951 . S
C854 C855 1.366 . S
C854 C856 1.388 . S
C855 C854 1.366 . S
C855 C859 1.385 . S
C856 H837 0.951 . S
C856 C854 1.388 . S
C856 C857 1.366 . S
C857 C856 1.366 . S
C857 C858 1.414 . S
C857 C860 1.499 . S
C858 H838 0.950 . S
C858 C857 1.414 . S
C858 C859 1.374 . S
C859 H839 0.950 . S
C859 C855 1.385 . S
C859 C858 1.374 . S
C860 C857 1.499 . S
C860 C861 1.373 . S
C860 C862 1.389 . S
C861 H840 0.950 . S
C861 C860 1.373 . S
C861 C877 1.377 . S
C862 C860 1.389 . S
C862 C863 1.524 . S
C862 C876 1.377 . S
C863 C862 1.524 . S
C863 C864 1.397 . S
C863 C868 1.363 . S
C864 H841 0.950 . S
C864 C863 1.397 . S
C864 C865 1.334 . S
C865 H842 0.950 . S
C865 C864 1.334 . S
C865 C866 1.287 . S
C866 C865 1.287 . S
C866 C867 1.524 . S
C866 H885 0.913 . S
C867 H843 0.950 . S
C867 C866 1.524 . S
C867 C868 1.415 . S
C868 H844 0.950 . S
C868 C863 1.363 . S
C868 C867 1.415 . S
C869 H845 0.951 . S
C869 C870 1.366 . S
C869 C871 1.388 . S
C870 C869 1.366 . S
C870 C874 1.385 . S
C871 H846 0.951 . S
C871 C869 1.388 . S
C871 C872 1.366 . S
C872 C871 1.366 . S
C872 C873 1.414 . S
C872 C875 1.499 . S
C873 H847 0.950 . S
C873 C872 1.414 . S
C873 C874 1.374 . S
C874 H848 0.950 . S
C874 C870 1.385 . S
C874 C873 1.374 . S
C875 C872 1.499 . S
C875 C876 1.373 . S
C875 C877 1.389 . S
C876 H849 0.950 . S
C876 C862 1.377 . S
C876 C875 1.373 . S
C877 C861 1.377 . S
C877 C875 1.389 . S
C877 C878 1.524 . S
C878 C877 1.524 . S
C878 C879 1.397 . S
C878 C883 1.363 . S
C879 H850 0.950 . S
C879 C878 1.397 . S
C879 C880 1.334 . S
C880 H851 0.950 . S
C880 C879 1.334 . S
C880 C881 1.287 . S
C881 C880 1.287 . S
C881 C882 1.524 . S
C881 H884 0.999 . S
C882 H852 0.950 . S
C882 C881 1.524 . S
C882 C883 1.415 . S
C883 H853 0.950 . S
C883 C878 1.363 . S
C883 C882 1.415 . S
H884 C881 0.999 . S
H885 C866 0.913 . S
H886 C904 0.951 . S
H887 C906 0.951 . S
H888 C908 0.950 . S
H889 C909 0.950 . S
H890 C911 0.950 . S
H891 C914 0.950 . S
H892 C915 0.950 . S
H893 C917 0.950 . S
H894 C918 0.950 . S
H895 C919 0.951 . S
H896 C921 0.951 . S
H897 C923 0.950 . S
H898 C924 0.950 . S
H899 C926 0.950 . S
H900 C929 0.950 . S
H901 C930 0.950 . S
H902 C932 0.950 . S
H903 C933 0.950 . S
C904 H886 0.951 . S
C904 C905 1.366 . S
C904 C906 1.388 . S
C905 C904 1.366 . S
C905 C909 1.385 . S
C906 H887 0.951 . S
C906 C904 1.388 . S
C906 C907 1.366 1_455 S
C907 C906 1.366 1_655 S
C907 C908 1.414 . S
C907 C910 1.499 . S
C908 H888 0.950 . S
C908 C907 1.414 . S
C908 C909 1.374 1_655 S
C909 H889 0.950 . S
C909 C905 1.385 . S
C909 C908 1.374 1_455 S
C910 C907 1.499 . S
C910 C911 1.373 . S
C910 C912 1.389 . S
C911 H890 0.950 . S
C911 C910 1.373 . S
C911 C927 1.377 . S
C912 C910 1.389 . S
C912 C913 1.524 . S
C912 C926 1.377 . S
C913 C912 1.524 . S
C913 C914 1.397 . S
C913 C918 1.363 . S
C914 H891 0.950 . S
C914 C913 1.397 . S
C914 C915 1.335 1_655 S
C915 H892 0.950 . S
C915 C914 1.335 1_455 S
C915 C916 1.286 . S
C916 C915 1.286 . S
C916 C917 1.524 . S
C916 H935 0.913 . S
C917 H893 0.950 . S
C917 C916 1.524 . S
C917 C918 1.415 1_455 S
C918 H894 0.950 . S
C918 C913 1.363 . S
C918 C917 1.415 1_655 S
C919 H895 0.951 . S
C919 C920 1.366 . S
C919 C921 1.388 . S
C920 C919 1.366 . S
C920 C924 1.385 . S
C921 H896 0.951 . S
C921 C919 1.388 . S
C921 C922 1.366 . S
C922 C921 1.366 . S
C922 C923 1.414 . S
C922 C925 1.499 . S
C923 H897 0.950 . S
C923 C922 1.414 . S
C923 C924 1.374 . S
C924 H898 0.950 . S
C924 C920 1.385 . S
C924 C923 1.374 . S
C925 C922 1.499 . S
C925 C926 1.373 . S
C925 C927 1.389 . S
C926 H899 0.950 . S
C926 C912 1.377 . S
C926 C925 1.373 . S
C927 C911 1.377 . S
C927 C925 1.389 . S
C927 C928 1.524 . S
C928 C927 1.524 . S
C928 C929 1.397 . S
C928 C933 1.363 . S
C929 H900 0.950 . S
C929 C928 1.397 . S
C929 C930 1.334 . S
C930 H901 0.950 . S
C930 C929 1.334 . S
C930 C931 1.287 . S
C931 C930 1.287 . S
C931 C932 1.524 . S
C931 H934 0.999 . S
C932 H902 0.950 . S
C932 C931 1.524 . S
C932 C933 1.415 . S
C933 H903 0.950 . S
C933 C928 1.363 . S
C933 C932 1.415 . S
H934 C931 0.999 . S
H935 C916 0.913 . S
H936 C954 0.951 . S
H937 C956 0.951 . S
H938 C958 0.950 . S
H939 C959 0.950 . S
H940 C961 0.950 . S
H941 C964 0.950 . S
H942 C965 0.950 . S
H943 C967 0.950 . S
H944 C968 0.950 . S
H945 C969 0.951 . S
H946 C971 0.951 . S
H947 C973 0.950 . S
H948 C974 0.950 . S
H949 C976 0.950 . S
H950 C979 0.950 . S
H951 C980 0.950 . S
H952 C982 0.950 . S
H953 C983 0.950 . S
C954 H936 0.951 . S
C954 C955 1.366 . S
C954 C956 1.388 . S
C955 C954 1.366 . S
C955 C959 1.385 . S
C956 H937 0.951 . S
C956 C954 1.388 . S
C956 C957 1.366 . S
C957 C956 1.366 . S
C957 C958 1.414 . S
C957 C960 1.499 . S
C958 H938 0.950 . S
C958 C957 1.414 . S
C958 C959 1.374 . S
C959 H939 0.950 . S
C959 C955 1.385 . S
C959 C958 1.374 . S
C960 C957 1.499 . S
C960 C961 1.373 . S
C960 C962 1.389 . S
C961 H940 0.950 . S
C961 C960 1.373 . S
C961 C977 1.377 . S
C962 C960 1.389 . S
C962 C963 1.524 . S
C962 C976 1.377 . S
C963 C962 1.524 . S
C963 C964 1.397 . S
C963 C968 1.363 . S
C964 H941 0.950 . S
C964 C963 1.397 . S
C964 C965 1.334 . S
C965 H942 0.950 . S
C965 C964 1.334 . S
C965 C966 1.287 . S
C966 C965 1.287 . S
C966 C967 1.524 . S
C966 H985 0.913 . S
C967 H943 0.950 . S
C967 C966 1.524 . S
C967 C968 1.415 . S
C968 H944 0.950 . S
C968 C963 1.363 . S
C968 C967 1.415 . S
C969 H945 0.951 . S
C969 C970 1.366 . S
C969 C971 1.388 . S
C970 C969 1.366 . S
C970 C974 1.385 . S
C971 H946 0.951 . S
C971 C969 1.388 . S
C971 C972 1.366 . S
C972 C971 1.366 . S
C972 C973 1.414 . S
C972 C975 1.499 . S
C973 H947 0.950 . S
C973 C972 1.414 . S
C973 C974 1.374 . S
C974 H948 0.950 . S
C974 C970 1.385 . S
C974 C973 1.374 . S
C975 C972 1.499 . S
C975 C976 1.373 . S
C975 C977 1.389 . S
C976 H949 0.950 . S
C976 C962 1.377 . S
C976 C975 1.373 . S
C977 C961 1.377 . S
C977 C975 1.389 . S
C977 C978 1.524 . S
C978 C977 1.524 . S
C978 C979 1.397 . S
C978 C983 1.363 . S
C979 H950 0.950 . S
C979 C978 1.397 . S
C979 C980 1.334 . S
C980 H951 0.950 . S
C980 C979 1.334 . S
C980 C981 1.287 . S
C981 C980 1.287 . S
C981 C982 1.524 . S
C981 H984 0.999 . S
C982 H952 0.950 . S
C982 C981 1.524 . S
C982 C983 1.415 . S
C983 H953 0.950 . S
C983 C978 1.363 . S
C983 C982 1.415 . S
H984 C981 0.999 . S
H985 C966 0.913 . S
H986 C1004 0.951 . S
H987 C1006 0.951 . S
H988 C1008 0.950 . S
H989 C1009 0.950 . S
H990 C1011 0.950 . S
H991 C1014 0.950 . S
H992 C1015 0.950 1_556 S
H993 C1017 0.950 . S
H994 C1018 0.950 . S
H995 C1019 0.951 . S
H996 C1021 0.951 . S
H997 C1023 0.950 . S
H998 C1024 0.950 . S
H999 C1026 0.950 . S
H1000 C1029 0.950 . S
H1001 C1030 0.950 . S
H1002 C1032 0.950 . S
H1003 C1033 0.950 . S
C1004 H986 0.951 . S
C1004 C1005 1.366 . S
C1004 C1006 1.388 . S
C1005 C1004 1.366 . S
C1005 C1009 1.385 . S
C1006 H987 0.951 . S
C1006 C1004 1.388 . S
C1006 C1007 1.371 . S
C1007 C1006 1.371 . S
C1007 C1008 1.420 . S
C1007 C1010 1.487 1_655 S
C1008 H988 0.950 . S
C1008 C1007 1.420 . S
C1008 C1009 1.374 . S
C1009 H989 0.950 . S
C1009 C1005 1.385 . S
C1009 C1008 1.374 . S
C1010 C1007 1.487 1_455 S
C1010 C1011 1.373 . S
C1010 C1012 1.389 . S
C1011 H990 0.950 . S
C1011 C1010 1.373 . S
C1011 C1027 1.377 . S
C1012 C1010 1.389 . S
C1012 C1013 1.524 . S
C1012 C1026 1.377 . S
C1013 C1012 1.524 . S
C1013 C1014 1.397 . S
C1013 C1018 1.363 . S
C1014 H991 0.950 . S
C1014 C1013 1.397 . S
C1014 C1015 1.334 . S
C1015 H992 0.950 1_554 S
C1015 C1014 1.334 . S
C1015 C1016 1.287 . S
C1016 C1015 1.287 . S
C1016 C1017 1.524 . S
C1016 H1035 0.913 1_554 S
C1017 H993 0.950 . S
C1017 C1016 1.524 . S
C1017 C1018 1.415 . S
C1018 H994 0.950 . S
C1018 C1013 1.363 . S
C1018 C1017 1.415 . S
C1019 H995 0.951 . S
C1019 C1020 1.366 . S
C1019 C1021 1.388 . S
C1020 C1019 1.366 . S
C1020 C1024 1.385 . S
C1021 H996 0.951 . S
C1021 C1019 1.388 . S
C1021 C1022 1.366 . S
C1022 C1021 1.366 . S
C1022 C1023 1.414 . S
C1022 C1025 1.499 . S
C1023 H997 0.950 . S
C1023 C1022 1.414 . S
C1023 C1024 1.374 . S
C1024 H998 0.950 . S
C1024 C1020 1.385 . S
C1024 C1023 1.374 . S
C1025 C1022 1.499 . S
C1025 C1026 1.373 . S
C1025 C1027 1.389 . S
C1026 H999 0.950 . S
C1026 C1012 1.377 . S
C1026 C1025 1.373 . S
C1027 C1011 1.377 . S
C1027 C1025 1.389 . S
C1027 C1028 1.524 . S
C1028 C1027 1.524 . S
C1028 C1029 1.397 . S
C1028 C1033 1.363 . S
C1029 H1000 0.950 . S
C1029 C1028 1.397 . S
C1029 C1030 1.334 . S
C1030 H1001 0.950 . S
C1030 C1029 1.334 . S
C1030 C1031 1.287 . S
C1031 C1030 1.287 . S
C1031 C1032 1.524 . S
C1031 H1034 0.999 . S
C1032 H1002 0.950 . S
C1032 C1031 1.524 . S
C1032 C1033 1.415 . S
C1033 H1003 0.950 . S
C1033 C1028 1.363 . S
C1033 C1032 1.415 . S
H1034 C1031 0.999 . S
H1035 C1016 0.913 1_556 S
H1036 C1054 0.951 . S
H1037 C1056 0.951 . S
H1038 C1058 0.950 . S
H1039 C1059 0.950 . S
H1040 C1061 0.950 . S
H1041 C1064 0.950 . S
H1042 C1065 0.950 . S
H1043 C1067 0.950 . S
H1044 C1068 0.950 . S
H1045 C1069 0.951 . S
H1046 C1071 0.951 . S
H1047 C1073 0.950 . S
H1048 C1074 0.950 . S
H1049 C1076 0.950 . S
H1050 C1079 0.950 . S
H1051 C1080 0.950 . S
H1052 C1082 0.950 . S
H1053 C1083 0.950 . S
C1054 H1036 0.951 . S
C1054 C1055 1.366 . S
C1054 C1056 1.388 . S
C1055 C1054 1.366 . S
C1055 C1059 1.385 . S
C1056 H1037 0.951 . S
C1056 C1054 1.388 . S
C1056 C1057 1.366 . S
C1057 C1056 1.366 . S
C1057 C1058 1.414 . S
C1057 C1060 1.499 . S
C1058 H1038 0.950 . S
C1058 C1057 1.414 . S
C1058 C1059 1.374 . S
C1059 H1039 0.950 . S
C1059 C1055 1.385 . S
C1059 C1058 1.374 . S
C1060 C1057 1.499 . S
C1060 C1061 1.373 . S
C1060 C1062 1.389 . S
C1061 H1040 0.950 . S
C1061 C1060 1.373 . S
C1061 C1077 1.377 . S
C1062 C1060 1.389 . S
C1062 C1063 1.524 . S
C1062 C1076 1.377 . S
C1063 C1062 1.524 . S
C1063 C1064 1.397 . S
C1063 C1068 1.363 . S
C1064 H1041 0.950 . S
C1064 C1063 1.397 . S
C1064 C1065 1.334 . S
C1065 H1042 0.950 . S
C1065 C1064 1.334 . S
C1065 C1066 1.287 . S
C1066 C1065 1.287 . S
C1066 C1067 1.524 . S
C1066 H1085 0.913 . S
C1067 H1043 0.950 . S
C1067 C1066 1.524 . S
C1067 C1068 1.415 . S
C1068 H1044 0.950 . S
C1068 C1063 1.363 . S
C1068 C1067 1.415 . S
C1069 H1045 0.951 . S
C1069 C1070 1.366 . S
C1069 C1071 1.388 . S
C1070 C1069 1.366 . S
C1070 C1074 1.385 . S
C1071 H1046 0.951 . S
C1071 C1069 1.388 . S
C1071 C1072 1.366 . S
C1072 C1071 1.366 . S
C1072 C1073 1.414 . S
C1072 C1075 1.499 . S
C1073 H1047 0.950 . S
C1073 C1072 1.414 . S
C1073 C1074 1.374 . S
C1074 H1048 0.950 . S
C1074 C1070 1.385 . S
C1074 C1073 1.374 . S
C1075 C1072 1.499 . S
C1075 C1076 1.373 . S
C1075 C1077 1.389 . S
C1076 H1049 0.950 . S
C1076 C1062 1.377 . S
C1076 C1075 1.373 . S
C1077 C1061 1.377 . S
C1077 C1075 1.389 . S
C1077 C1078 1.524 . S
C1078 C1077 1.524 . S
C1078 C1079 1.397 . S
C1078 C1083 1.363 . S
C1079 H1050 0.950 . S
C1079 C1078 1.397 . S
C1079 C1080 1.334 . S
C1080 H1051 0.950 . S
C1080 C1079 1.334 . S
C1080 C1081 1.287 . S
C1081 C1080 1.287 . S
C1081 C1082 1.524 . S
C1081 H1084 0.999 . S
C1082 H1052 0.950 . S
C1082 C1081 1.524 . S
C1082 C1083 1.415 . S
C1083 H1053 0.950 . S
C1083 C1078 1.363 . S
C1083 C1082 1.415 . S
H1084 C1081 0.999 . S
H1085 C1066 0.913 . S
H1086 C1104 0.951 . S
H1087 C1106 0.951 . S
H1088 C1108 0.950 . S
H1089 C1109 0.950 . S
H1090 C1111 0.950 . S
H1091 C1114 0.950 . S
H1092 C1115 0.950 . S
H1093 C1117 0.950 . S
H1094 C1118 0.950 . S
H1095 C1119 0.951 . S
H1096 C1121 0.951 . S
H1097 C1123 0.950 . S
H1098 C1124 0.950 . S
H1099 C1126 0.950 . S
H1100 C1129 0.950 . S
H1101 C1130 0.950 . S
H1102 C1132 0.950 . S
H1103 C1133 0.950 . S
C1104 H1086 0.951 . S
C1104 C1105 1.366 . S
C1104 C1106 1.388 . S
C1105 C1104 1.366 . S
C1105 C1109 1.385 . S
C1106 H1087 0.951 . S
C1106 C1104 1.388 . S
C1106 C1107 1.366 . S
C1107 C1106 1.366 . S
C1107 C1108 1.414 . S
C1107 C1110 1.499 . S
C1108 H1088 0.950 . S
C1108 C1107 1.414 . S
C1108 C1109 1.374 . S
C1109 H1089 0.950 . S
C1109 C1105 1.385 . S
C1109 C1108 1.374 . S
C1110 C1107 1.499 . S
C1110 C1111 1.373 . S
C1110 C1112 1.389 . S
C1111 H1090 0.950 . S
C1111 C1110 1.373 . S
C1111 C1127 1.377 . S
C1112 C1110 1.389 . S
C1112 C1113 1.524 . S
C1112 C1126 1.377 . S
C1113 C1112 1.524 . S
C1113 C1114 1.397 . S
C1113 C1118 1.363 . S
C1114 H1091 0.950 . S
C1114 C1113 1.397 . S
C1114 C1115 1.334 . S
C1115 H1092 0.950 . S
C1115 C1114 1.334 . S
C1115 C1116 1.287 . S
C1116 C1115 1.287 . S
C1116 C1117 1.524 . S
C1116 H1135 0.913 . S
C1117 H1093 0.950 . S
C1117 C1116 1.524 . S
C1117 C1118 1.415 . S
C1118 H1094 0.950 . S
C1118 C1113 1.363 . S
C1118 C1117 1.415 . S
C1119 H1095 0.951 . S
C1119 C1120 1.366 . S
C1119 C1121 1.388 . S
C1120 C1119 1.366 . S
C1120 C1124 1.385 . S
C1121 H1096 0.951 . S
C1121 C1119 1.388 . S
C1121 C1122 1.366 . S
C1122 C1121 1.366 . S
C1122 C1123 1.414 . S
C1122 C1125 1.499 . S
C1123 H1097 0.950 . S
C1123 C1122 1.414 . S
C1123 C1124 1.374 . S
C1124 H1098 0.950 . S
C1124 C1120 1.385 . S
C1124 C1123 1.374 . S
C1125 C1122 1.499 . S
C1125 C1126 1.373 . S
C1125 C1127 1.389 . S
C1126 H1099 0.950 . S
C1126 C1112 1.377 . S
C1126 C1125 1.373 . S
C1127 C1111 1.377 . S
C1127 C1125 1.389 . S
C1127 C1128 1.524 . S
C1128 C1127 1.524 . S
C1128 C1129 1.397 . S
C1128 C1133 1.363 . S
C1129 H1100 0.950 . S
C1129 C1128 1.397 . S
C1129 C1130 1.334 . S
C1130 H1101 0.950 . S
C1130 C1129 1.334 . S
C1130 C1131 1.287 . S
C1131 C1130 1.287 . S
C1131 C1132 1.524 . S
C1131 H1134 0.999 . S
C1132 H1102 0.950 . S
C1132 C1131 1.524 . S
C1132 C1133 1.415 . S
C1133 H1103 0.950 . S
C1133 C1128 1.363 . S
C1133 C1132 1.415 . S
H1134 C1131 0.999 . S
H1135 C1116 0.913 . S
H1136 C1154 0.951 . S
H1137 C1156 0.951 . S
H1138 C1158 0.950 . S
H1139 C1159 0.950 . S
H1140 C1161 0.950 . S
H1141 C1164 0.950 . S
H1142 C1165 0.950 . S
H1143 C1167 0.950 . S
H1144 C1168 0.950 . S
H1145 C1169 0.951 . S
H1146 C1171 0.951 . S
H1147 C1173 0.950 . S
H1148 C1174 0.950 . S
H1149 C1176 0.950 . S
H1150 C1179 0.950 . S
H1151 C1180 0.950 . S
H1152 C1182 0.950 . S
H1153 C1183 0.950 . S
C1154 H1136 0.951 . S
C1154 C1155 1.366 . S
C1154 C1156 1.388 . S
C1155 C1154 1.366 . S
C1155 C1159 1.385 . S
C1156 H1137 0.951 . S
C1156 C1154 1.388 . S
C1156 C1157 1.366 . S
C1157 C1156 1.366 . S
C1157 C1158 1.414 . S
C1157 C1160 1.499 . S
C1158 H1138 0.950 . S
C1158 C1157 1.414 . S
C1158 C1159 1.374 . S
C1159 H1139 0.950 . S
C1159 C1155 1.385 . S
C1159 C1158 1.374 . S
C1160 C1157 1.499 . S
C1160 C1161 1.373 . S
C1160 C1162 1.389 . S
C1161 H1140 0.950 . S
C1161 C1160 1.373 . S
C1161 C1177 1.377 . S
C1162 C1160 1.389 . S
C1162 C1163 1.524 . S
C1162 C1176 1.377 . S
C1163 C1162 1.524 . S
C1163 C1164 1.397 . S
C1163 C1168 1.363 . S
C1164 H1141 0.950 . S
C1164 C1163 1.397 . S
C1164 C1165 1.334 . S
C1165 H1142 0.950 . S
C1165 C1164 1.334 . S
C1165 C1166 1.287 . S
C1166 C1165 1.287 . S
C1166 C1167 1.524 . S
C1166 H1185 0.913 . S
C1167 H1143 0.950 . S
C1167 C1166 1.524 . S
C1167 C1168 1.415 . S
C1168 H1144 0.950 . S
C1168 C1163 1.363 . S
C1168 C1167 1.415 . S
C1169 H1145 0.951 . S
C1169 C1170 1.366 . S
C1169 C1171 1.388 . S
C1170 C1169 1.366 . S
C1170 C1174 1.385 . S
C1171 H1146 0.951 . S
C1171 C1169 1.388 . S
C1171 C1172 1.366 . S
C1172 C1171 1.366 . S
C1172 C1173 1.414 . S
C1172 C1175 1.499 . S
C1173 H1147 0.950 . S
C1173 C1172 1.414 . S
C1173 C1174 1.374 . S
C1174 H1148 0.950 . S
C1174 C1170 1.385 . S
C1174 C1173 1.374 . S
C1175 C1172 1.499 . S
C1175 C1176 1.373 . S
C1175 C1177 1.389 . S
C1176 H1149 0.950 . S
C1176 C1162 1.377 . S
C1176 C1175 1.373 . S
C1177 C1161 1.377 . S
C1177 C1175 1.389 . S
C1177 C1178 1.524 . S
C1178 C1177 1.524 . S
C1178 C1179 1.397 . S
C1178 C1183 1.363 . S
C1179 H1150 0.950 . S
C1179 C1178 1.397 . S
C1179 C1180 1.334 . S
C1180 H1151 0.950 . S
C1180 C1179 1.334 . S
C1180 C1181 1.287 . S
C1181 C1180 1.287 . S
C1181 C1182 1.524 . S
C1181 H1184 0.999 . S
C1182 H1152 0.950 . S
C1182 C1181 1.524 . S
C1182 C1183 1.415 . S
C1183 H1153 0.950 . S
C1183 C1178 1.363 . S
C1183 C1182 1.415 . S
H1184 C1181 0.999 . S
H1185 C1166 0.913 . S
H1186 C1204 0.951 . S
H1187 C1206 0.951 . S
H1188 C1208 0.950 . S
H1189 C1209 0.950 . S
H1190 C1211 0.950 . S
H1191 C1214 0.950 . S
H1192 C1215 0.950 . S
H1193 C1217 0.950 . S
H1194 C1218 0.950 . S
H1195 C1219 0.951 . S
H1196 C1221 0.951 . S
H1197 C1223 0.950 . S
H1198 C1224 0.950 . S
H1199 C1226 0.950 . S
H1200 C1229 0.950 . S
H1201 C1230 0.950 . S
H1202 C1232 0.950 . S
H1203 C1233 0.950 . S
C1204 H1186 0.951 . S
C1204 C1205 1.366 . S
C1204 C1206 1.388 . S
C1205 C1204 1.366 . S
C1205 C1209 1.385 . S
C1206 H1187 0.951 . S
C1206 C1204 1.388 . S
C1206 C1207 1.366 . S
C1207 C1206 1.366 . S
C1207 C1208 1.414 . S
C1207 C1210 1.499 . S
C1208 H1188 0.950 . S
C1208 C1207 1.414 . S
C1208 C1209 1.374 . S
C1209 H1189 0.950 . S
C1209 C1205 1.385 . S
C1209 C1208 1.374 . S
C1210 C1207 1.499 . S
C1210 C1211 1.373 . S
C1210 C1212 1.389 . S
C1211 H1190 0.950 . S
C1211 C1210 1.373 . S
C1211 C1227 1.377 . S
C1212 C1210 1.389 . S
C1212 C1213 1.524 . S
C1212 C1226 1.377 . S
C1213 C1212 1.524 . S
C1213 C1214 1.397 . S
C1213 C1218 1.363 . S
C1214 H1191 0.950 . S
C1214 C1213 1.397 . S
C1214 C1215 1.334 . S
C1215 H1192 0.950 . S
C1215 C1214 1.334 . S
C1215 C1216 1.287 . S
C1216 C1215 1.287 . S
C1216 C1217 1.524 . S
C1216 H1235 0.913 . S
C1217 H1193 0.950 . S
C1217 C1216 1.524 . S
C1217 C1218 1.415 . S
C1218 H1194 0.950 . S
C1218 C1213 1.363 . S
C1218 C1217 1.415 . S
C1219 H1195 0.951 . S
C1219 C1220 1.366 . S
C1219 C1221 1.388 . S
C1220 C1219 1.366 . S
C1220 C1224 1.385 . S
C1221 H1196 0.951 . S
C1221 C1219 1.388 . S
C1221 C1222 1.366 . S
C1222 C1221 1.366 . S
C1222 C1223 1.414 . S
C1222 C1225 1.499 . S
C1223 H1197 0.950 . S
C1223 C1222 1.414 . S
C1223 C1224 1.374 . S
C1224 H1198 0.950 . S
C1224 C1220 1.385 . S
C1224 C1223 1.374 . S
C1225 C1222 1.499 . S
C1225 C1226 1.373 . S
C1225 C1227 1.389 . S
C1226 H1199 0.950 . S
C1226 C1212 1.377 . S
C1226 C1225 1.373 . S
C1227 C1211 1.377 . S
C1227 C1225 1.389 . S
C1227 C1228 1.524 . S
C1228 C1227 1.524 . S
C1228 C1229 1.397 . S
C1228 C1233 1.363 . S
C1229 H1200 0.950 . S
C1229 C1228 1.397 . S
C1229 C1230 1.334 . S
C1230 H1201 0.950 . S
C1230 C1229 1.334 . S
C1230 C1231 1.287 . S
C1231 C1230 1.287 . S
C1231 C1232 1.524 . S
C1231 H1234 0.999 . S
C1232 H1202 0.950 . S
C1232 C1231 1.524 . S
C1232 C1233 1.415 . S
C1233 H1203 0.950 . S
C1233 C1228 1.363 . S
C1233 C1232 1.415 . S
H1234 C1231 0.999 . S
H1235 C1216 0.913 . S
H1236 C1254 0.951 . S
H1237 C1256 0.951 . S
H1238 C1258 0.950 . S
H1239 C1259 0.950 . S
H1240 C1261 0.950 . S
H1241 C1264 0.950 . S
H1242 C1265 0.950 . S
H1243 C1267 0.950 . S
H1244 C1268 0.950 . S
H1245 C1269 0.951 . S
H1246 C1271 0.951 . S
H1247 C1273 0.950 . S
H1248 C1274 0.950 . S
H1249 C1276 0.950 . S
H1250 C1279 0.950 . S
H1251 C1280 0.950 . S
H1252 C1282 0.950 . S
H1253 C1283 0.950 . S
C1254 H1236 0.951 . S
C1254 C1255 1.366 . S
C1254 C1256 1.388 . S
C1255 C1254 1.366 . S
C1255 C1259 1.385 . S
C1256 H1237 0.951 . S
C1256 C1254 1.388 . S
C1256 C1257 1.366 . S
C1257 C1256 1.366 . S
C1257 C1258 1.414 . S
C1257 C1260 1.499 . S
C1258 H1238 0.950 . S
C1258 C1257 1.414 . S
C1258 C1259 1.374 . S
C1259 H1239 0.950 . S
C1259 C1255 1.385 . S
C1259 C1258 1.374 . S
C1260 C1257 1.499 . S
C1260 C1261 1.373 . S
C1260 C1262 1.389 . S
C1261 H1240 0.950 . S
C1261 C1260 1.373 . S
C1261 C1277 1.377 . S
C1262 C1260 1.389 . S
C1262 C1263 1.524 . S
C1262 C1276 1.377 . S
C1263 C1262 1.524 . S
C1263 C1264 1.397 . S
C1263 C1268 1.363 . S
C1264 H1241 0.950 . S
C1264 C1263 1.397 . S
C1264 C1265 1.334 . S
C1265 H1242 0.950 . S
C1265 C1264 1.334 . S
C1265 C1266 1.287 . S
C1266 C1265 1.287 . S
C1266 C1267 1.524 . S
C1266 H1285 0.913 . S
C1267 H1243 0.950 . S
C1267 C1266 1.524 . S
C1267 C1268 1.415 . S
C1268 H1244 0.950 . S
C1268 C1263 1.363 . S
C1268 C1267 1.415 . S
C1269 H1245 0.951 . S
C1269 C1270 1.366 . S
C1269 C1271 1.388 . S
C1270 C1269 1.366 . S
C1270 C1274 1.385 . S
C1271 H1246 0.951 . S
C1271 C1269 1.388 . S
C1271 C1272 1.366 . S
C1272 C1271 1.366 . S
C1272 C1273 1.414 . S
C1272 C1275 1.499 . S
C1273 H1247 0.950 . S
C1273 C1272 1.414 . S
C1273 C1274 1.374 . S
C1274 H1248 0.950 . S
C1274 C1270 1.385 . S
C1274 C1273 1.374 . S
C1275 C1272 1.499 . S
C1275 C1276 1.373 . S
C1275 C1277 1.389 . S
C1276 H1249 0.950 . S
C1276 C1262 1.377 . S
C1276 C1275 1.373 . S
C1277 C1261 1.377 . S
C1277 C1275 1.389 . S
C1277 C1278 1.524 . S
C1278 C1277 1.524 . S
C1278 C1279 1.397 . S
C1278 C1283 1.363 . S
C1279 H1250 0.950 . S
C1279 C1278 1.397 . S
C1279 C1280 1.334 . S
C1280 H1251 0.950 . S
C1280 C1279 1.334 . S
C1280 C1281 1.287 . S
C1281 C1280 1.287 . S
C1281 C1282 1.524 . S
C1281 H1284 0.999 . S
C1282 H1252 0.950 . S
C1282 C1281 1.524 . S
C1282 C1283 1.415 . S
C1283 H1253 0.950 . S
C1283 C1278 1.363 . S
C1283 C1282 1.415 . S
H1284 C1281 0.999 . S
H1285 C1266 0.913 . S
H1286 C1304 0.951 . S
H1287 C1306 0.951 . S
H1288 C1308 0.950 . S
H1289 C1309 0.950 . S
H1290 C1311 0.950 . S
H1291 C1314 0.950 . S
H1292 C1315 0.950 . S
H1293 C1317 0.950 . S
H1294 C1318 0.950 . S
H1295 C1319 0.951 . S
H1296 C1321 0.951 . S
H1297 C1323 0.950 . S
H1298 C1324 0.950 . S
H1299 C1326 0.950 . S
H1300 C1329 0.950 . S
H1301 C1330 0.950 . S
H1302 C1332 0.950 . S
H1303 C1333 0.950 . S
C1304 H1286 0.951 . S
C1304 C1305 1.366 . S
C1304 C1306 1.388 . S
C1305 C1304 1.366 . S
C1305 C1309 1.385 . S
C1306 H1287 0.951 . S
C1306 C1304 1.388 . S
C1306 C1307 1.366 . S
C1307 C1306 1.366 . S
C1307 C1308 1.414 . S
C1307 C1310 1.499 . S
C1308 H1288 0.950 . S
C1308 C1307 1.414 . S
C1308 C1309 1.374 . S
C1309 H1289 0.950 . S
C1309 C1305 1.385 . S
C1309 C1308 1.374 . S
C1310 C1307 1.499 . S
C1310 C1311 1.373 . S
C1310 C1312 1.389 . S
C1311 H1290 0.950 . S
C1311 C1310 1.373 . S
C1311 C1327 1.377 . S
C1312 C1310 1.389 . S
C1312 C1313 1.524 . S
C1312 C1326 1.377 . S
C1313 C1312 1.524 . S
C1313 C1314 1.397 . S
C1313 C1318 1.363 . S
C1314 H1291 0.950 . S
C1314 C1313 1.397 . S
C1314 C1315 1.334 . S
C1315 H1292 0.950 . S
C1315 C1314 1.334 . S
C1315 C1316 1.287 . S
C1316 C1315 1.287 . S
C1316 C1317 1.524 . S
C1316 H1335 0.913 . S
C1317 H1293 0.950 . S
C1317 C1316 1.524 . S
C1317 C1318 1.415 . S
C1318 H1294 0.950 . S
C1318 C1313 1.363 . S
C1318 C1317 1.415 . S
C1319 H1295 0.951 . S
C1319 C1320 1.366 . S
C1319 C1321 1.388 . S
C1320 C1319 1.366 . S
C1320 C1324 1.385 . S
C1321 H1296 0.951 . S
C1321 C1319 1.388 . S
C1321 C1322 1.366 . S
C1322 C1321 1.366 . S
C1322 C1323 1.414 . S
C1322 C1325 1.499 . S
C1323 H1297 0.950 . S
C1323 C1322 1.414 . S
C1323 C1324 1.374 . S
C1324 H1298 0.950 . S
C1324 C1320 1.385 . S
C1324 C1323 1.374 . S
C1325 C1322 1.499 . S
C1325 C1326 1.373 . S
C1325 C1327 1.389 . S
C1326 H1299 0.950 . S
C1326 C1312 1.377 . S
C1326 C1325 1.373 . S
C1327 C1311 1.377 . S
C1327 C1325 1.389 . S
C1327 C1328 1.524 . S
C1328 C1327 1.524 . S
C1328 C1329 1.397 . S
C1328 C1333 1.363 . S
C1329 H1300 0.950 . S
C1329 C1328 1.397 . S
C1329 C1330 1.334 . S
C1330 H1301 0.950 . S
C1330 C1329 1.334 . S
C1330 C1331 1.287 . S
C1331 C1330 1.287 . S
C1331 C1332 1.524 . S
C1331 H1334 0.999 . S
C1332 H1302 0.950 . S
C1332 C1331 1.524 . S
C1332 C1333 1.415 . S
C1333 H1303 0.950 . S
C1333 C1328 1.363 . S
C1333 C1332 1.415 . S
H1334 C1331 0.999 . S
H1335 C1316 0.913 . S
H1336 C1354 0.951 . S
H1337 C1356 0.951 . S
H1338 C1358 0.950 . S
H1339 C1359 0.950 . S
H1340 C1361 0.950 . S
H1341 C1364 0.950 . S
H1342 C1365 0.950 . S
H1343 C1367 0.950 . S
H1344 C1368 0.950 . S
H1345 C1369 0.951 . S
H1346 C1371 0.951 . S
H1347 C1373 0.950 . S
H1348 C1374 0.950 . S
H1349 C1376 0.950 . S
H1350 C1379 0.950 . S
H1351 C1380 0.950 . S
H1352 C1382 0.950 . S
H1353 C1383 0.950 . S
C1354 H1336 0.951 . S
C1354 C1355 1.366 . S
C1354 C1356 1.388 . S
C1355 C1354 1.366 . S
C1355 C1359 1.385 . S
C1356 H1337 0.951 . S
C1356 C1354 1.388 . S
C1356 C1357 1.366 . S
C1357 C1356 1.366 . S
C1357 C1358 1.414 . S
C1357 C1360 1.499 . S
C1358 H1338 0.950 . S
C1358 C1357 1.414 . S
C1358 C1359 1.374 . S
C1359 H1339 0.950 . S
C1359 C1355 1.385 . S
C1359 C1358 1.374 . S
C1360 C1357 1.499 . S
C1360 C1361 1.373 . S
C1360 C1362 1.389 . S
C1361 H1340 0.950 . S
C1361 C1360 1.373 . S
C1361 C1377 1.377 . S
C1362 C1360 1.389 . S
C1362 C1363 1.524 . S
C1362 C1376 1.377 . S
C1363 C1362 1.524 . S
C1363 C1364 1.397 . S
C1363 C1368 1.363 . S
C1364 H1341 0.950 . S
C1364 C1363 1.397 . S
C1364 C1365 1.334 . S
C1365 H1342 0.950 . S
C1365 C1364 1.334 . S
C1365 C1366 1.287 . S
C1366 C1365 1.287 . S
C1366 C1367 1.524 . S
C1366 H1385 0.913 . S
C1367 H1343 0.950 . S
C1367 C1366 1.524 . S
C1367 C1368 1.415 . S
C1368 H1344 0.950 . S
C1368 C1363 1.363 . S
C1368 C1367 1.415 . S
C1369 H1345 0.951 . S
C1369 C1370 1.366 . S
C1369 C1371 1.388 . S
C1370 C1369 1.366 . S
C1370 C1374 1.385 . S
C1371 H1346 0.951 . S
C1371 C1369 1.388 . S
C1371 C1372 1.366 . S
C1372 C1371 1.366 . S
C1372 C1373 1.414 . S
C1372 C1375 1.499 . S
C1373 H1347 0.950 . S
C1373 C1372 1.414 . S
C1373 C1374 1.374 . S
C1374 H1348 0.950 . S
C1374 C1370 1.385 . S
C1374 C1373 1.374 . S
C1375 C1372 1.499 . S
C1375 C1376 1.373 . S
C1375 C1377 1.389 . S
C1376 H1349 0.950 . S
C1376 C1362 1.377 . S
C1376 C1375 1.373 . S
C1377 C1361 1.377 . S
C1377 C1375 1.389 . S
C1377 C1378 1.524 . S
C1378 C1377 1.524 . S
C1378 C1379 1.397 . S
C1378 C1383 1.363 . S
C1379 H1350 0.950 . S
C1379 C1378 1.397 . S
C1379 C1380 1.334 . S
C1380 H1351 0.950 . S
C1380 C1379 1.334 . S
C1380 C1381 1.287 . S
C1381 C1380 1.287 . S
C1381 C1382 1.524 . S
C1381 H1384 0.999 . S
C1382 H1352 0.950 . S
C1382 C1381 1.524 . S
C1382 C1383 1.415 . S
C1383 H1353 0.950 . S
C1383 C1378 1.363 . S
C1383 C1382 1.415 . S
H1384 C1381 0.999 . S
H1385 C1366 0.913 . S
H1386 C1404 0.951 . S
H1387 C1406 0.951 . S
H1388 C1408 0.950 . S
H1389 C1409 0.950 . S
H1390 C1411 0.950 . S
H1391 C1414 0.950 . S
H1392 C1415 0.950 . S
H1393 C1417 0.950 . S
H1394 C1418 0.950 . S
H1395 C1419 0.951 . S
H1396 C1421 0.951 . S
H1397 C1423 0.950 . S
H1398 C1424 0.950 . S
H1399 C1426 0.950 . S
H1400 C1429 0.950 . S
H1401 C1430 0.950 . S
H1402 C1432 0.950 . S
H1403 C1433 0.950 . S
C1404 H1386 0.951 . S
C1404 C1405 1.366 . S
C1404 C1406 1.388 . S
C1405 C1404 1.366 . S
C1405 C1409 1.385 . S
C1406 H1387 0.951 . S
C1406 C1404 1.388 . S
C1406 C1407 1.366 . S
C1407 C1406 1.366 . S
C1407 C1408 1.414 . S
C1407 C1410 1.499 . S
C1408 H1388 0.950 . S
C1408 C1407 1.414 . S
C1408 C1409 1.374 . S
C1409 H1389 0.950 . S
C1409 C1405 1.385 . S
C1409 C1408 1.374 . S
C1410 C1407 1.499 . S
C1410 C1411 1.373 . S
C1410 C1412 1.389 . S
C1411 H1390 0.950 . S
C1411 C1410 1.373 . S
C1411 C1427 1.377 . S
C1412 C1410 1.389 . S
C1412 C1413 1.524 . S
C1412 C1426 1.377 . S
C1413 C1412 1.524 . S
C1413 C1414 1.397 . S
C1413 C1418 1.363 . S
C1414 H1391 0.950 . S
C1414 C1413 1.397 . S
C1414 C1415 1.334 . S
C1415 H1392 0.950 . S
C1415 C1414 1.334 . S
C1415 C1416 1.287 . S
C1416 C1415 1.287 . S
C1416 C1417 1.524 . S
C1416 H1435 0.913 . S
C1417 H1393 0.950 . S
C1417 C1416 1.524 . S
C1417 C1418 1.415 . S
C1418 H1394 0.950 . S
C1418 C1413 1.363 . S
C1418 C1417 1.415 . S
C1419 H1395 0.951 . S
C1419 C1420 1.366 . S
C1419 C1421 1.388 . S
C1420 C1419 1.366 . S
C1420 C1424 1.385 . S
C1421 H1396 0.951 . S
C1421 C1419 1.388 . S
C1421 C1422 1.366 . S
C1422 C1421 1.366 . S
C1422 C1423 1.414 . S
C1422 C1425 1.499 . S
C1423 H1397 0.950 . S
C1423 C1422 1.414 . S
C1423 C1424 1.374 . S
C1424 H1398 0.950 . S
C1424 C1420 1.385 . S
C1424 C1423 1.374 . S
C1425 C1422 1.499 . S
C1425 C1426 1.373 . S
C1425 C1427 1.389 . S
C1426 H1399 0.950 . S
C1426 C1412 1.377 . S
C1426 C1425 1.373 . S
C1427 C1411 1.377 . S
C1427 C1425 1.389 . S
C1427 C1428 1.524 . S
C1428 C1427 1.524 . S
C1428 C1429 1.397 . S
C1428 C1433 1.363 . S
C1429 H1400 0.950 . S
C1429 C1428 1.397 . S
C1429 C1430 1.334 . S
C1430 H1401 0.950 . S
C1430 C1429 1.334 . S
C1430 C1431 1.287 . S
C1431 C1430 1.287 . S
C1431 C1432 1.524 . S
C1431 H1434 0.999 . S
C1432 H1402 0.950 . S
C1432 C1431 1.524 . S
C1432 C1433 1.415 . S
C1433 H1403 0.950 . S
C1433 C1428 1.363 . S
C1433 C1432 1.415 . S
H1434 C1431 0.999 . S
H1435 C1416 0.913 . S
C255 C7 0.707 . S
C270 C86 0.710 . S
C305 C25 0.749 . S
C320 C105 0.751 . S
C355 C46 0.619 . S
C370 C128 0.558 . S
C420 C147 0.509 . S
C405 C70 0.596 . S
C470 C162 0.709 . S
C455 C28 0.707 . S
C505 C49 0.596 . S
C520 C185 0.510 . S
C555 C67 0.617 . S
C570 C204 0.556 . S
C605 C4 0.752 . S
C620 C219 0.750 . S
C655 C58 1.651 . S
C670 C223 1.760 . S
C720 C166 1.721 . S
C705 C66 1.611 . S
C770 C181 1.907 . S
C755 C3 1.848 . S
C805 C37 1.888 . S
C820 C200 1.943 . S
C870 C109 1.760 . S
C855 C79 1.652 . S
C905 C16 1.888 . S
C920 C124 1.944 . S
C970 C143 1.908 . S
C955 C24 1.849 . S
C1020 C90 1.722 . S
C1005 C45 1.612 . S
C1070 C209 1.334 . S
C1055 C19 1.294 . S
C1120 C228 1.323 . S
C1105 C41 1.345 . S
C1155 C62 1.261 . S
C1170 C171 1.241 . S
C1220 C190 1.249 . S
C1205 C82 1.209 . S
C1270 C133 1.332 . S
C1255 C40 1.295 . S
C1305 C61 1.208 . S
C1320 C152 1.250 . S
C1370 C95 1.240 . S
C1355 C83 1.261 . S
C1420 C114 1.324 . S
C1405 C20 1.345 . S
